# Generated by pormake.
# Topology bcg, (8)-cn, num edge types: 1
# Building blocks:
#     Node 0, Type 0, BuildingBlock: EBIMEJ_clean_sbu_0, # of connection points: 8
#     Node 1, Type 0, BuildingBlock: EBIMEJ_clean_sbu_0, # of connection points: 8
#     Node 2, Type 0, BuildingBlock: EBIMEJ_clean_sbu_0, # of connection points: 8
#     Node 3, Type 0, BuildingBlock: EBIMEJ_clean_sbu_0, # of connection points: 8
#     Edge 4, Type (0, 0), BuildingBlock: EZIPEK_clean_linker_0, # of connection points: 2
#     Edge 5, Type (0, 0), BuildingBlock: EZIPEK_clean_linker_0, # of connection points: 2
#     Edge 6, Type (0, 0), BuildingBlock: EZIPEK_clean_linker_0, # of connection points: 2
#     Edge 7, Type (0, 0), BuildingBlock: EZIPEK_clean_linker_0, # of connection points: 2
#     Edge 8, Type (0, 0), BuildingBlock: EZIPEK_clean_linker_0, # of connection points: 2
#     Edge 9, Type (0, 0), BuildingBlock: EZIPEK_clean_linker_0, # of connection points: 2
#     Edge 10, Type (0, 0), BuildingBlock: EZIPEK_clean_linker_0, # of connection points: 2
#     Edge 11, Type (0, 0), BuildingBlock: EZIPEK_clean_linker_0, # of connection points: 2
#     Edge 12, Type (0, 0), BuildingBlock: EZIPEK_clean_linker_0, # of connection points: 2
#     Edge 13, Type (0, 0), BuildingBlock: EZIPEK_clean_linker_0, # of connection points: 2
#     Edge 14, Type (0, 0), BuildingBlock: EZIPEK_clean_linker_0, # of connection points: 2
#     Edge 15, Type (0, 0), BuildingBlock: EZIPEK_clean_linker_0, # of connection points: 2
#     Edge 16, Type (0, 0), BuildingBlock: EZIPEK_clean_linker_0, # of connection points: 2
#     Edge 17, Type (0, 0), BuildingBlock: EZIPEK_clean_linker_0, # of connection points: 2
#     Edge 18, Type (0, 0), BuildingBlock: EZIPEK_clean_linker_0, # of connection points: 2
#     Edge 19, Type (0, 0), BuildingBlock: EZIPEK_clean_linker_0, # of connection points: 2
# Relax obj value: 0.040
# Max RMSD: 0.091
# Mean RMSD: 0.091
data_MOF--net-bcg--node1-EBIMEJ_clean_sbu_0--edge1-EZIPEK_clean_linker_0
_symmetry_space_group_name_H-M    P1
_symmetry_Int_Tables_number       1
_symmetry_cell_setting            triclinic
loop_
_symmetry_equiv_pos_as_xyz
'x, y, z'
_cell_length_a     13.352494
_cell_length_b     21.069396
_cell_length_c     26.837329
_cell_angle_alpha  82.707269
_cell_angle_beta   89.874804
_cell_angle_gamma 89.486503
loop_
_atom_site_label
_atom_site_type_symbol
_atom_site_fract_x
_atom_site_fract_y
_atom_site_fract_z
_atom_type_partial_charge
Co0 Co 0.12062 0.2287 0.93663 0.0
Co1 Co 0.32865 0.25387 0.99418 0.0
Co2 Co 0.1401 0.24106 0.05349 0.0
H3 H 0.15102 0.24883 0.99391 0.0
O4 O 0.18915 0.28067 0.98391 0.0
H5 H 0.31882 0.24526 0.05412 0.0
O6 O 0.27961 0.21391 0.06382 0.0
Co7 Co 0.35146 0.26168 0.11254 0.0
O8 O 0.49053 0.24959 0.08323 0.0
O9 O 0.46684 0.22503 1.00529 0.0
O10 O 0.2343 0.2558 0.16287 0.0
O11 O 0.10424 0.21557 0.12498 0.0
O12 O 0.02038 0.18943 0.89087 0.0
O13 O 0.09179 0.27438 0.86535 0.0
O14 O 0.38094 0.35272 0.08728 0.0
O15 O 0.3672 0.34468 1.00541 0.0
C16 C 0.94646 0.24674 1.00766 0.0
C17 C 0.323 0.26071 0.88431 0.0
C18 C 0.43465 0.26006 0.19544 0.0
C19 C 0.10686 0.11349 1.0084 0.0
C20 C 0.52308 0.23422 0.04156 0.0
C21 C 0.14606 0.23266 0.16371 0.0
C22 C 0.03078 0.233 0.85481 0.0
C23 C 0.38845 0.37654 0.04171 0.0
O24 O 0.9817 0.22503 0.96882 0.0
O25 O 0.00097 0.26778 0.04052 0.0
O26 O 0.3635 0.27989 0.92263 0.0
O27 O 0.23604 0.23569 0.88558 0.0
O28 O 0.43764 0.30635 0.16109 0.0
O29 O 0.38318 0.21491 0.18297 0.0
O30 O 0.12655 0.13618 0.96351 0.0
O31 O 0.10459 0.15002 0.04303 0.0
Co32 Co 0.60893 0.74119 0.92456 0.0
Co33 Co 0.82358 0.75877 0.98256 0.0
Co34 Co 0.63418 0.75495 0.04156 0.0
H35 H 0.6441 0.75979 0.98189 0.0
O36 O 0.68577 0.78933 0.97119 0.0
H37 H 0.81311 0.75261 0.04227 0.0
O38 O 0.77141 0.7229 0.05262 0.0
Co39 Co 0.84741 0.77119 0.09972 0.0
O40 O -0.01564 0.77533 0.06629 0.0
O41 O 0.96194 0.72961 0.99624 0.0
O42 O 0.73623 0.76065 0.15226 0.0
O43 O 0.59695 0.73477 0.11328 0.0
O44 O 0.54514 0.69077 0.87212 0.0
O45 O 0.5546 0.79001 0.85838 0.0
O46 O 0.84447 0.86344 0.07171 0.0
O47 O 0.86296 0.84979 0.99178 0.0
C48 C 0.44026 0.77448 0.99491 0.0
C49 C 0.81486 0.76349 0.87239 0.0
C50 C 0.93816 0.76587 0.18172 0.0
C51 C 0.56645 0.63044 0.99853 0.0
C52 C 0.0179 0.75234 0.02773 0.0
C53 C 0.64417 0.74497 0.15262 0.0
C54 C 0.52476 0.73995 0.84222 0.0
C55 C 0.86292 0.88613 0.02665 0.0
O56 O 0.47123 0.75475 0.95451 0.0
O57 O 0.49816 0.78812 0.02923 0.0
O58 O 0.86008 0.78014 0.91047 0.0
O59 O 0.72477 0.74355 0.87427 0.0
O60 O 0.94802 0.80976 0.14584 0.0
O61 O 0.87663 0.72473 0.1711 0.0
O62 O 0.57531 0.65166 0.95248 0.0
O63 O 0.58873 0.6642 0.03353 0.0
Co64 Co 0.11387 0.76763 0.5998 0.0
Co65 Co 0.32522 0.74661 0.54311 0.0
Co66 Co 0.13829 0.75841 0.4824 0.0
H67 H 0.14721 0.74917 0.54215 0.0
O68 O 0.18691 0.71766 0.55208 0.0
H69 H 0.31677 0.75411 0.48327 0.0
O70 O 0.27713 0.78544 0.47305 0.0
Co71 Co 0.35065 0.73651 0.42536 0.0
O72 O 0.48777 0.7486 0.45618 0.0
O73 O 0.46172 0.7776 0.53268 0.0
O74 O 0.23344 0.73777 0.37571 0.0
O75 O 0.10427 0.78435 0.41055 0.0
O76 O 0.0188 0.81088 0.64629 0.0
O77 O 0.07559 0.71987 0.66922 0.0
O78 O 0.38972 0.64691 0.45169 0.0
O79 O 0.37311 0.65669 0.53307 0.0
C80 C 0.94252 0.74927 0.52785 0.0
C81 C 0.31539 0.73923 0.65319 0.0
C82 C 0.43231 0.73997 0.34197 0.0
C83 C 0.10524 0.88442 0.52973 0.0
C84 C 0.51911 0.76563 0.49736 0.0
C85 C 0.14602 0.76315 0.37308 0.0
C86 C 0.02108 0.76476 0.68081 0.0
C87 C 0.39985 0.62472 0.49751 0.0
O88 O 0.975 0.76767 0.5683 0.0
O89 O -0.00103 0.73249 0.49366 0.0
O90 O 0.35884 0.72165 0.61487 0.0
O91 O 0.22659 0.7623 0.65184 0.0
O92 O 0.42873 0.69102 0.37385 0.0
O93 O 0.38708 0.78677 0.35683 0.0
O94 O 0.12559 0.86008 0.57412 0.0
O95 O 0.10181 0.84919 0.49421 0.0
Co96 Co 0.62079 0.26677 0.61234 0.0
Co97 Co 0.82942 0.24025 0.5535 0.0
Co98 Co 0.6377 0.25099 0.49602 0.0
H99 H 0.65047 0.24528 0.55526 0.0
O100 O 0.69022 0.21406 0.5657 0.0
H101 H 0.81671 0.24703 0.49401 0.0
O102 O 0.77657 0.27819 0.48392 0.0
Co103 Co 0.84638 0.22727 0.43621 0.0
O104 O -0.01228 0.23164 0.46351 0.0
O105 O 0.96867 0.26506 0.53922 0.0
O106 O 0.73107 0.23414 0.38628 0.0
O107 O 0.59895 0.27343 0.42446 0.0
O108 O 0.60699 0.29762 0.68196 0.0
O109 O 0.50955 0.22932 0.66092 0.0
O110 O 0.83 0.13602 0.46522 0.0
O111 O 0.86724 0.14933 0.54329 0.0
C112 C 0.44416 0.24232 0.54459 0.0
C113 C 0.82529 0.23714 0.6634 0.0
C114 C 0.93502 0.22776 0.35413 0.0
C115 C 0.60835 0.37866 0.54026 0.0
C116 C 0.0229 0.24951 0.50358 0.0
C117 C 0.64182 0.2563 0.38571 0.0
C118 C 0.53303 0.26282 0.69456 0.0
C119 C 0.85761 0.11289 0.50889 0.0
O120 O 0.47886 0.26453 0.58317 0.0
O121 O 0.49937 0.22397 0.51045 0.0
O122 O 0.86699 0.21721 0.62533 0.0
O123 O 0.73755 0.26202 0.6619 0.0
O124 O 0.9185 0.17843 0.38435 0.0
O125 O 0.90044 0.27705 0.37025 0.0
O126 O 0.64286 0.35773 0.58312 0.0
O127 O 0.59843 0.34202 0.50597 0.0
C128 C 0.67012 0.28018 0.9926 0.0
C129 C 0.63124 0.23566 0.03217 0.0
C130 C 0.80023 0.20195 0.05809 0.0
C131 C 0.83842 0.24332 1.01644 0.0
N132 N 0.81143 0.31557 0.9403 0.0
N133 N 0.65594 0.14667 0.09682 0.0
C134 C 0.77379 0.28014 0.98236 0.0
C135 C 0.69537 0.19461 0.06354 0.0
N136 N 0.60924 0.32534 0.96672 0.0
N137 N 0.86387 0.16963 0.09239 0.0
H138 H 0.57909 0.13934 0.1012 0.0
H139 H 0.69874 0.11065 0.11692 0.0
H140 H 0.94117 0.16943 0.08809 0.0
H141 H 0.84054 0.14586 0.12679 0.0
H142 H 0.63566 0.36418 0.94255 0.0
H143 H 0.5326 0.32785 0.9723 0.0
H144 H 0.76699 0.33535 0.91034 0.0
H145 H 0.88779 0.32233 0.93374 0.0
C146 C 0.19126 0.72282 0.05364 0.0
C147 C 0.12562 0.75629 1.01818 0.0
C148 C 0.26662 0.80931 0.97218 0.0
C149 C 0.33246 0.77219 1.0054 0.0
N150 N 0.35927 0.68761 0.07455 0.0
N151 N 0.09789 0.8275 0.94115 0.0
C152 C 0.29551 0.72779 0.04562 0.0
C153 C 0.16235 0.79821 0.9765 0.0
N154 N 0.15387 0.68623 0.09525 0.0
N155 N 0.30382 0.85714 0.93803 0.0
H156 H 0.02056 0.82462 0.94445 0.0
H157 H 0.12067 0.8518 0.90685 0.0
H158 H 0.38012 0.86713 0.93458 0.0
H159 H 0.25946 0.8906 0.91615 0.0
H160 H 0.19708 0.66914 0.12641 0.0
H161 H 0.07812 0.67535 0.09995 0.0
H162 H 0.33604 0.64774 0.09859 0.0
H163 H 0.43643 0.6912 0.07281 0.0
C164 C 0.66793 0.71494 0.54279 0.0
C165 C 0.6271 0.76377 0.50671 0.0
C166 C 0.79426 0.80321 0.48445 0.0
C167 C 0.83476 0.75236 0.51855 0.0
N168 N 0.81467 0.65316 0.57259 0.0
N169 N 0.64819 0.85177 0.44101 0.0
C170 C 0.77289 0.70638 0.54569 0.0
C171 C 0.68945 0.80709 0.47677 0.0
N172 N 0.60699 0.67721 0.57484 0.0
N173 N 0.85582 0.84877 0.46053 0.0
H174 H 0.57115 0.85958 0.43727 0.0
H175 H 0.68933 0.87942 0.41345 0.0
H176 H 0.93332 0.84542 0.46231 0.0
H177 H 0.8306 0.89129 0.44044 0.0
H178 H 0.63309 0.64633 0.60551 0.0
H179 H 0.52949 0.67996 0.57377 0.0
H180 H 0.77355 0.61369 0.588 0.0
H181 H 0.8919 0.64565 0.57574 0.0
C182 C 0.18277 0.18812 0.51956 0.0
C183 C 0.13148 0.24798 0.51106 0.0
C184 C 0.28691 0.30397 0.52101 0.0
C185 C 0.33561 0.24431 0.53571 0.0
N186 N 0.32769 0.12983 0.55603 0.0
N187 N 0.13094 0.36281 0.5095 0.0
C188 C 0.2829 0.18633 0.53696 0.0
C189 C 0.18222 0.30587 0.51404 0.0
N190 N 0.13671 0.13315 0.51043 0.0
N191 N 0.34138 0.3583 0.50994 0.0
H192 H 0.05519 0.36713 0.50012 0.0
H193 H 0.16241 0.40524 0.518 0.0
H194 H 0.41871 0.35785 0.5114 0.0
H195 H 0.31118 0.40191 0.49393 0.0
H196 H 0.17409 0.08952 0.51067 0.0
H197 H 0.06325 0.13202 0.49804 0.0
H198 H 0.28943 0.08674 0.563 0.0
H199 H 0.40133 0.12701 0.56914 0.0
C200 C 0.4206 0.5549 0.99446 0.0
C201 C 0.51984 0.56586 1.01125 0.0
C202 C 0.53234 0.45294 0.04778 0.0
C203 C 0.43323 0.4419 0.03088 0.0
N204 N 0.28611 0.48032 0.98457 0.0
N205 N 0.66529 0.52784 0.0592 0.0
C206 C 0.37843 0.49238 1.00316 0.0
C207 C 0.57397 0.5156 0.0396 0.0
N208 N 0.36388 0.60537 0.97303 0.0
N209 N 0.5899 0.40246 0.06851 0.0
H210 H 0.70234 0.5712 0.05069 0.0
H211 H 0.70241 0.49657 0.0863 0.0
H212 H 0.56377 0.35599 0.07518 0.0
H213 H 0.66631 0.40498 0.07537 0.0
H214 H 0.28769 0.60325 0.96558 0.0
H215 H 0.39082 0.65159 0.96604 0.0
H216 H 0.24763 0.51162 0.95806 0.0
H217 H 0.24894 0.4371 0.99374 0.0
C218 C 0.59392 0.48954 0.49267 0.0
C219 C 0.56133 0.44398 0.53256 0.0
C220 C 0.4177 0.51434 0.54662 0.0
C221 C 0.45527 0.56234 0.50977 0.0
N222 N 0.59605 0.60039 0.4572 0.0
N223 N 0.45059 0.419 0.60423 0.0
C224 C 0.54787 0.55123 0.48523 0.0
C225 C 0.47682 0.45866 0.56205 0.0
N226 N 0.6697 0.47435 0.46182 0.0
N227 N 0.32247 0.51956 0.56461 0.0
H228 H 0.48534 0.37539 0.61573 0.0
H229 H 0.39821 0.43179 0.63011 0.0
H230 H 0.27497 0.55805 0.55278 0.0
H231 H 0.28655 0.48255 0.58699 0.0
H232 H 0.68711 0.5022 0.42805 0.0
H233 H 0.71131 0.43198 0.4683 0.0
H234 H 0.6686 0.59654 0.44348 0.0
H235 H 0.56914 0.64701 0.45225 0.0
C236 C 0.05066 0.01155 0.97618 0.0
C237 C 0.05986 0.04791 1.01711 0.0
C238 C 0.91973 0.98791 0.05894 0.0
C239 C 0.91052 0.95156 1.018 0.0
N240 N 0.93827 0.95271 0.92914 0.0
N241 N 0.03164 0.04709 0.10604 0.0
C242 C 0.96794 0.96995 0.97408 0.0
C243 C 0.00244 0.02952 0.06108 0.0
N244 N 0.12474 0.01332 0.94092 0.0
N245 N 0.84544 0.98627 0.09411 0.0
H246 H 0.09998 0.06923 0.11055 0.0
H247 H -0.00371 0.03094 0.13989 0.0
H248 H 0.77815 0.96252 0.0903 0.0
H249 H 0.84452 0.01571 0.12253 0.0
H250 H 0.1254 0.98402 0.91241 0.0
H251 H 0.19206 0.03704 0.9447 0.0
H252 H 0.97354 0.96878 0.89525 0.0
H253 H 0.86926 0.93134 0.92484 0.0
C254 C 0.95007 0.02384 0.5628 0.0
C255 C 0.9061 0.04711 0.51585 0.0
C256 C 0.01679 0.97486 0.47507 0.0
C257 C 0.05889 0.95073 0.52218 0.0
N258 N 0.09771 0.97719 0.60489 0.0
N259 N 0.87102 0.02253 0.43194 0.0
C260 C 0.03477 0.98227 0.56453 0.0
C261 C 0.93193 0.01643 0.47311 0.0
N262 N 0.90682 0.03792 0.60624 0.0
N263 N 0.06204 0.96166 0.43188 0.0
H264 H 0.79935 0.0425 0.43235 0.0
H265 H 0.88414 0.9987 0.4008 0.0
H266 H 0.13081 0.93769 0.43217 0.0
H267 H 0.03961 0.98247 0.3963 0.0
H268 H 0.9312 0.01793 0.64171 0.0
H269 H 0.83809 0.06184 0.60648 0.0
H270 H 0.0874 0.00313 0.63512 0.0
H271 H 0.16801 0.95529 0.60434 0.0
C272 C 0.58125 0.20125 0.31404 0.0
C273 C 0.584 0.25737 0.33831 0.0
C274 C 0.4752 0.312 0.27256 0.0
C275 C 0.48499 0.25904 0.24486 0.0
N276 N 0.56722 0.15868 0.23497 0.0
N277 N 0.54767 0.37028 0.33564 0.0
C278 C 0.54342 0.20506 0.2644 0.0
C279 C 0.53469 0.31399 0.31627 0.0
N280 N 0.61107 0.14357 0.33898 0.0
N281 N 0.40621 0.35915 0.25852 0.0
H282 H 0.5926 0.37427 0.3668 0.0
H283 H 0.52171 0.41417 0.31786 0.0
H284 H 0.35807 0.35828 0.22808 0.0
H285 H 0.38936 0.39547 0.28024 0.0
H286 H 0.6015 0.10042 0.32447 0.0
H287 H 0.63459 0.13772 0.37633 0.0
H288 H 0.61824 0.12186 0.246 0.0
H289 H 0.54503 0.16066 0.1976 0.0
C290 C 0.59474 0.79633 0.22861 0.0
C291 C 0.58791 0.74359 0.2006 0.0
C292 C 0.46544 0.69395 0.26138 0.0
C293 C 0.48391 0.742 0.29279 0.0
N294 N 0.58364 0.83164 0.31058 0.0
N295 N 0.52954 0.63636 0.19539 0.0
C296 C 0.55342 0.79123 0.27764 0.0
C297 C 0.5266 0.69071 0.2183 0.0
N298 N 0.63629 0.85262 0.20769 0.0
N299 N 0.38702 0.65302 0.2714 0.0
H300 H 0.57591 0.63103 0.16487 0.0
H301 H 0.49362 0.59429 0.20986 0.0
H302 H 0.33809 0.65533 0.30147 0.0
H303 H 0.36417 0.62143 0.24686 0.0
H304 H 0.63432 0.89414 0.22505 0.0
H305 H 0.66224 0.86027 0.17077 0.0
H306 H 0.64224 0.86378 0.30289 0.0
H307 H 0.55783 0.82858 0.34746 0.0
C308 C 0.461 0.77284 0.70286 0.0
C309 C 0.37235 0.73639 0.70092 0.0
C310 C 0.37941 0.70694 0.79222 0.0
C311 C 0.47274 0.73859 0.79351 0.0
N312 N 0.61305 0.78953 0.74821 0.0
N313 N 0.26012 0.65716 0.74177 0.0
C314 C 0.5167 0.76812 0.74829 0.0
C315 C 0.33525 0.70003 0.74507 0.0
N316 N 0.48982 0.81429 0.66208 0.0
N317 N 0.33049 0.686 0.83596 0.0
H318 H 0.22886 0.64912 0.70757 0.0
H319 H 0.23644 0.62491 0.77206 0.0
H320 H 0.35843 0.69188 0.87131 0.0
H321 H 0.25763 0.66859 0.83706 0.0
H322 H 0.54757 0.84699 0.66325 0.0
H323 H 0.45032 0.8205 0.62834 0.0
H324 H 0.65255 0.80485 0.71542 0.0
H325 H 0.65714 0.78617 0.78042 0.0
C326 C 0.3386 0.29733 0.79178 0.0
C327 C 0.38068 0.26472 0.83646 0.0
C328 C 0.52821 0.23649 0.7886 0.0
C329 C 0.47993 0.26213 0.74327 0.0
N330 N 0.33236 0.30884 0.70091 0.0
N331 N 0.50882 0.19401 0.87623 0.0
C332 C 0.38276 0.28977 0.7446 0.0
C333 C 0.47419 0.23219 0.83471 0.0
N334 N 0.25978 0.3385 0.79467 0.0
N335 N 0.62539 0.21566 0.78767 0.0
H336 H 0.47043 0.18763 0.9103 0.0
H337 H 0.57097 0.16389 0.87572 0.0
H338 H 0.66537 0.21364 0.75451 0.0
H339 H 0.66847 0.20425 0.81994 0.0
H340 H 0.23115 0.36795 0.76379 0.0
H341 H 0.2308 0.34878 0.82889 0.0
H342 H 0.2573 0.32286 0.69987 0.0
H343 H 0.36276 0.3057 0.6655 0.0
C344 C 0.04583 0.82159 0.30082 0.0
C345 C 0.08906 0.76396 0.32505 0.0
C346 C 0.03983 0.70882 0.25348 0.0
C347 C -0.0114 0.76477 0.2315 0.0
N348 N 0.92266 0.86972 0.24109 0.0
N349 N 0.10373 0.64891 0.32983 0.0
C350 C -0.01416 0.81991 0.2571 0.0
C351 C 0.07941 0.70646 0.30289 0.0
N352 N 0.06529 0.87848 0.31811 0.0
N353 N 0.05457 0.65861 0.2266 0.0
H354 H 0.12847 0.6444 0.36694 0.0
H355 H 0.08878 0.60513 0.31731 0.0
H356 H 0.02821 0.65834 0.19013 0.0
H357 H 0.10139 0.61989 0.23869 0.0
H358 H 0.04403 0.92264 0.29892 0.0
H359 H 0.11124 0.88215 0.34894 0.0
H360 H 0.91011 0.9081 0.26133 0.0
H361 H 0.87456 0.86955 0.21056 0.0
C362 C 0.08215 0.19663 0.30295 0.0
C363 C -0.01271 0.2274 0.30498 0.0
C364 C -0.0025 0.26319 0.21429 0.0
C365 C 0.08839 0.2281 0.21167 0.0
N366 N 0.20334 0.14861 0.25138 0.0
N367 N 0.84411 0.27677 0.26022 0.0
C368 C 0.12674 0.19108 0.25543 0.0
C369 C 0.94186 0.25696 0.25996 0.0
N370 N 0.13206 0.17511 0.34634 0.0
N371 N 0.9661 0.30467 0.1739 0.0
H372 H 0.79986 0.27186 0.29247 0.0
H373 H 0.80392 0.29204 0.2276 0.0
H374 H 0.00501 0.31167 0.13996 0.0
H375 H 0.9064 0.33652 0.17555 0.0
H376 H 0.20581 0.15848 0.34693 0.0
H377 H 0.1038 0.17967 0.38197 0.0
H378 H 0.22826 0.11595 0.28128 0.0
H379 H 0.23439 0.14114 0.21689 0.0
C380 C 0.93329 0.29098 0.78218 0.0
C381 C 0.98064 0.23406 0.8051 0.0
C382 C 0.92154 0.17738 0.73615 0.0
C383 C 0.88271 0.23575 0.71109 0.0
N384 N 0.87412 0.35106 0.70491 0.0
N385 N 0.03992 0.12695 0.79734 0.0
C386 C 0.89515 0.29344 0.73257 0.0
C387 C 0.98043 0.17823 0.78027 0.0
N388 N 0.92029 0.34196 0.80843 0.0
N389 N 0.8991 0.12077 0.71912 0.0
H390 H 0.08769 0.12641 0.82806 0.0
H391 H 0.05005 0.08768 0.7778 0.0
H392 H 0.85459 0.11802 0.68762 0.0
H393 H 0.91666 0.07629 0.73892 0.0
H394 H 0.87641 0.38174 0.79541 0.0
H395 H 0.94445 0.34201 0.8453 0.0
H396 H 0.89149 0.39478 0.71691 0.0
H397 H 0.84945 0.35534 0.66777 0.0
C398 C 0.9777 0.81775 0.75752 0.0
C399 C 0.9693 0.76451 0.7301 0.0
C400 C 0.8729 0.70779 0.79962 0.0
C401 C 0.87013 0.76396 0.82393 0.0
N402 N 0.90263 0.87696 0.81986 0.0
N403 N 0.88924 0.66436 0.72075 0.0
C404 C 0.91789 0.82028 0.80122 0.0
C405 C 0.91147 0.71098 0.74995 0.0
N406 N 0.04566 0.86473 0.74325 0.0
N407 N 0.84252 0.65058 0.82458 0.0
H408 H 0.91258 0.66586 0.68353 0.0
H409 H 0.83865 0.62784 0.73174 0.0
H410 H 0.81783 0.64526 0.86175 0.0
H411 H 0.85226 0.60722 0.81026 0.0
H412 H 0.06147 0.90117 0.76484 0.0
H413 H 0.09405 0.86366 0.71283 0.0
H414 H 0.92786 0.92066 0.80189 0.0
H415 H 0.85554 0.88129 0.85027 0.0
loop_
_geom_bond_atom_site_label_1
_geom_bond_atom_site_label_2
_geom_bond_distance
_geom_bond_site_symmetry_2
_ccdc_geom_bond_type
Co0 H3 2.400 . S
Co0 O4 2.009 . S
Co0 O12 2.115 . S
Co0 O13 2.315 . S
Co0 O24 2.053 1_455 S
Co0 O27 2.094 . S
Co0 O30 2.122 . S
Co1 O4 2.126 . S
Co1 H5 2.388 1_556 S
Co1 O6 2.053 1_556 S
Co1 O9 2.047 . S
Co1 O15 2.113 . S
Co1 O26 2.063 . S
Co2 H3 2.388 1_554 S
Co2 O4 2.053 1_554 S
Co2 O6 2.126 . S
Co2 O11 2.063 . S
Co2 O25 2.047 1_455 S
Co2 O31 2.113 . S
H3 Co0 2.400 . S
H3 Co2 2.388 1_556 S
H3 O4 0.760 . S
O4 Co0 2.009 . S
O4 Co1 2.126 . S
O4 Co2 2.053 1_556 S
O4 H3 0.760 . S
H5 Co1 2.388 1_554 S
H5 O6 0.760 . S
H5 Co7 2.400 . S
O6 Co1 2.053 1_554 S
O6 Co2 2.126 . S
O6 H5 0.760 . S
O6 Co7 2.009 . S
Co7 H5 2.400 . S
Co7 O6 2.009 . S
Co7 O8 2.053 . S
Co7 O10 2.094 . S
Co7 O14 2.122 . S
Co7 O28 2.115 . S
Co7 O29 2.315 . S
O8 Co7 2.053 . S
O8 C20 1.259 . S
O9 Co1 2.047 . S
O9 C20 1.257 1_556 S
O10 Co7 2.094 . S
O10 C21 1.253 . S
O11 Co2 2.063 . S
O11 C21 1.268 . S
O12 Co0 2.115 . S
O12 C22 1.281 . S
O13 Co0 2.315 . S
O13 C22 1.252 . S
O14 Co7 2.122 . S
O14 C23 1.272 . S
O15 Co1 2.113 . S
O15 C23 1.245 1_556 S
C16 O24 1.259 . S
C16 O25 1.257 1_556 S
C17 O26 1.268 . S
C17 O27 1.253 . S
C18 O28 1.281 . S
C18 O29 1.252 . S
C19 O30 1.272 . S
C19 O31 1.245 1_556 S
C20 O8 1.259 . S
C20 O9 1.257 1_554 S
C21 O10 1.253 . S
C21 O11 1.268 . S
C22 O12 1.281 . S
C22 O13 1.252 . S
C23 O14 1.272 . S
C23 O15 1.245 1_554 S
O24 Co0 2.053 1_655 S
O24 C16 1.259 . S
O25 Co2 2.047 1_655 S
O25 C16 1.257 1_554 S
O26 Co1 2.063 . S
O26 C17 1.268 . S
O27 Co0 2.094 . S
O27 C17 1.253 . S
O28 Co7 2.115 . S
O28 C18 1.281 . S
O29 Co7 2.315 . S
O29 C18 1.252 . S
O30 Co0 2.122 . S
O30 C19 1.272 . S
O31 Co2 2.113 . S
O31 C19 1.245 1_554 S
Co32 H35 2.400 . S
Co32 O36 2.009 . S
Co32 O44 2.115 . S
Co32 O45 2.315 . S
Co32 O56 2.053 . S
Co32 O59 2.094 . S
Co32 O62 2.122 . S
Co33 O36 2.126 . S
Co33 H37 2.388 1_556 S
Co33 O38 2.053 1_556 S
Co33 O41 2.047 1_655 S
Co33 O47 2.113 . S
Co33 O58 2.063 . S
Co34 H35 2.388 1_554 S
Co34 O36 2.053 1_554 S
Co34 O38 2.126 . S
Co34 O43 2.063 . S
Co34 O57 2.047 . S
Co34 O63 2.113 . S
H35 Co32 2.400 . S
H35 Co34 2.388 1_556 S
H35 O36 0.760 . S
O36 Co32 2.009 . S
O36 Co33 2.126 . S
O36 Co34 2.053 1_556 S
O36 H35 0.760 . S
H37 Co33 2.388 1_554 S
H37 O38 0.760 . S
H37 Co39 2.400 . S
O38 Co33 2.053 1_554 S
O38 Co34 2.126 . S
O38 H37 0.760 . S
O38 Co39 2.009 . S
Co39 H37 2.400 . S
Co39 O38 2.009 . S
Co39 O40 2.053 1_655 S
Co39 O42 2.094 . S
Co39 O46 2.122 . S
Co39 O60 2.115 . S
Co39 O61 2.315 . S
O40 Co39 2.053 1_455 S
O40 C52 1.259 . S
O41 Co33 2.047 1_455 S
O41 C52 1.257 1_556 S
O42 Co39 2.094 . S
O42 C53 1.253 . S
O43 Co34 2.063 . S
O43 C53 1.268 . S
O44 Co32 2.115 . S
O44 C54 1.281 . S
O45 Co32 2.315 . S
O45 C54 1.252 . S
O46 Co39 2.122 . S
O46 C55 1.272 . S
O47 Co33 2.113 . S
O47 C55 1.245 1_556 S
C48 O56 1.259 . S
C48 O57 1.257 1_556 S
C49 O58 1.268 . S
C49 O59 1.253 . S
C50 O60 1.281 . S
C50 O61 1.252 . S
C51 O62 1.272 . S
C51 O63 1.245 1_556 S
C52 O40 1.259 . S
C52 O41 1.257 1_554 S
C53 O42 1.253 . S
C53 O43 1.268 . S
C54 O44 1.281 . S
C54 O45 1.252 . S
C55 O46 1.272 . S
C55 O47 1.245 1_554 S
O56 Co32 2.053 . S
O56 C48 1.259 . S
O57 Co34 2.047 . S
O57 C48 1.257 1_554 S
O58 Co33 2.063 . S
O58 C49 1.268 . S
O59 Co32 2.094 . S
O59 C49 1.253 . S
O60 Co39 2.115 . S
O60 C50 1.281 . S
O61 Co39 2.315 . S
O61 C50 1.252 . S
O62 Co32 2.122 . S
O62 C51 1.272 . S
O63 Co34 2.113 . S
O63 C51 1.245 1_554 S
Co64 H67 2.400 . S
Co64 O68 2.009 . S
Co64 O76 2.115 . S
Co64 O77 2.315 . S
Co64 O88 2.053 1_455 S
Co64 O91 2.094 . S
Co64 O94 2.122 . S
Co65 O68 2.126 . S
Co65 H69 2.388 . S
Co65 O70 2.053 . S
Co65 O73 2.047 . S
Co65 O79 2.113 . S
Co65 O90 2.063 . S
Co66 H67 2.388 . S
Co66 O68 2.053 . S
Co66 O70 2.126 . S
Co66 O75 2.063 . S
Co66 O89 2.047 1_455 S
Co66 O95 2.113 . S
H67 Co64 2.400 . S
H67 Co66 2.388 . S
H67 O68 0.760 . S
O68 Co64 2.009 . S
O68 Co65 2.126 . S
O68 Co66 2.053 . S
O68 H67 0.760 . S
H69 Co65 2.388 . S
H69 O70 0.760 . S
H69 Co71 2.400 . S
O70 Co65 2.053 . S
O70 Co66 2.126 . S
O70 H69 0.760 . S
O70 Co71 2.009 . S
Co71 H69 2.400 . S
Co71 O70 2.009 . S
Co71 O72 2.053 . S
Co71 O74 2.094 . S
Co71 O78 2.122 . S
Co71 O92 2.115 . S
Co71 O93 2.315 . S
O72 Co71 2.053 . S
O72 C84 1.259 . S
O73 Co65 2.047 . S
O73 C84 1.257 . S
O74 Co71 2.094 . S
O74 C85 1.253 . S
O75 Co66 2.063 . S
O75 C85 1.268 . S
O76 Co64 2.115 . S
O76 C86 1.281 . S
O77 Co64 2.315 . S
O77 C86 1.252 . S
O78 Co71 2.122 . S
O78 C87 1.272 . S
O79 Co65 2.113 . S
O79 C87 1.245 . S
C80 O88 1.259 . S
C80 O89 1.257 . S
C81 O90 1.268 . S
C81 O91 1.253 . S
C82 O92 1.281 . S
C82 O93 1.252 . S
C83 O94 1.272 . S
C83 O95 1.245 . S
C84 O72 1.259 . S
C84 O73 1.257 . S
C85 O74 1.253 . S
C85 O75 1.268 . S
C86 O76 1.281 . S
C86 O77 1.252 . S
C87 O78 1.272 . S
C87 O79 1.245 . S
O88 Co64 2.053 1_655 S
O88 C80 1.259 . S
O89 Co66 2.047 1_655 S
O89 C80 1.257 . S
O90 Co65 2.063 . S
O90 C81 1.268 . S
O91 Co64 2.094 . S
O91 C81 1.253 . S
O92 Co71 2.115 . S
O92 C82 1.281 . S
O93 Co71 2.315 . S
O93 C82 1.252 . S
O94 Co64 2.122 . S
O94 C83 1.272 . S
O95 Co66 2.113 . S
O95 C83 1.245 . S
Co96 H99 2.400 . S
Co96 O100 2.009 . S
Co96 O108 2.115 . S
Co96 O109 2.315 . S
Co96 O120 2.053 . S
Co96 O123 2.094 . S
Co96 O126 2.122 . S
Co97 O100 2.126 . S
Co97 H101 2.388 . S
Co97 O102 2.053 . S
Co97 O105 2.047 1_655 S
Co97 O111 2.113 . S
Co97 O122 2.063 . S
Co98 H99 2.388 . S
Co98 O100 2.053 . S
Co98 O102 2.126 . S
Co98 O107 2.063 . S
Co98 O121 2.047 . S
Co98 O127 2.113 . S
H99 Co96 2.400 . S
H99 Co98 2.388 . S
H99 O100 0.760 . S
O100 Co96 2.009 . S
O100 Co97 2.126 . S
O100 Co98 2.053 . S
O100 H99 0.760 . S
H101 Co97 2.388 . S
H101 O102 0.760 . S
H101 Co103 2.400 . S
O102 Co97 2.053 . S
O102 Co98 2.126 . S
O102 H101 0.760 . S
O102 Co103 2.009 . S
Co103 H101 2.400 . S
Co103 O102 2.009 . S
Co103 O104 2.053 1_655 S
Co103 O106 2.094 . S
Co103 O110 2.122 . S
Co103 O124 2.115 . S
Co103 O125 2.315 . S
O104 Co103 2.053 1_455 S
O104 C116 1.259 . S
O105 Co97 2.047 1_455 S
O105 C116 1.257 . S
O106 Co103 2.094 . S
O106 C117 1.253 . S
O107 Co98 2.063 . S
O107 C117 1.268 . S
O108 Co96 2.115 . S
O108 C118 1.281 . S
O109 Co96 2.315 . S
O109 C118 1.252 . S
O110 Co103 2.122 . S
O110 C119 1.272 . S
O111 Co97 2.113 . S
O111 C119 1.245 . S
C112 O120 1.259 . S
C112 O121 1.257 . S
C113 O122 1.268 . S
C113 O123 1.253 . S
C114 O124 1.281 . S
C114 O125 1.252 . S
C115 O126 1.272 . S
C115 O127 1.245 . S
C116 O104 1.259 . S
C116 O105 1.257 . S
C117 O106 1.253 . S
C117 O107 1.268 . S
C118 O108 1.281 . S
C118 O109 1.252 . S
C119 O110 1.272 . S
C119 O111 1.245 . S
O120 Co96 2.053 . S
O120 C112 1.259 . S
O121 Co98 2.047 . S
O121 C112 1.257 . S
O122 Co97 2.063 . S
O122 C113 1.268 . S
O123 Co96 2.094 . S
O123 C113 1.253 . S
O124 Co103 2.115 . S
O124 C114 1.281 . S
O125 Co103 2.315 . S
O125 C114 1.252 . S
O126 Co96 2.122 . S
O126 C115 1.272 . S
O127 Co98 2.113 . S
O127 C115 1.245 . S
C128 C129 1.363 1_556 S
C128 C134 1.379 . S
C128 N136 1.356 . S
C129 C128 1.363 1_554 S
C129 C135 1.363 . S
C130 C131 1.363 1_554 S
C130 C135 1.379 . S
C130 N137 1.356 . S
C131 C130 1.363 1_556 S
C131 C134 1.363 . S
N132 C134 1.356 . S
N132 H144 0.984 . S
N132 H145 0.985 . S
N133 C135 1.356 . S
N133 H138 0.984 . S
N133 H139 0.985 . S
C134 C128 1.379 . S
C134 C131 1.363 . S
C134 N132 1.356 . S
C135 C129 1.363 . S
C135 C130 1.379 . S
C135 N133 1.356 . S
N136 C128 1.356 . S
N136 H142 0.984 . S
N136 H143 0.984 . S
N137 C130 1.356 . S
N137 H140 0.984 . S
N137 H141 0.985 . S
H138 N133 0.984 . S
H139 N133 0.985 . S
H140 N137 0.984 . S
H141 N137 0.985 . S
H142 N136 0.984 . S
H143 N136 0.984 . S
H144 N132 0.984 . S
H145 N132 0.985 . S
C146 C147 1.363 . S
C146 C152 1.379 . S
C146 N154 1.356 . S
C147 C146 1.363 . S
C147 C153 1.363 1_554 S
C148 C149 1.363 . S
C148 C153 1.379 . S
C148 N155 1.356 . S
C149 C148 1.363 . S
C149 C152 1.363 1_556 S
N150 C152 1.356 . S
N150 H162 0.984 . S
N150 H163 0.985 . S
N151 C153 1.356 . S
N151 H156 0.984 . S
N151 H157 0.985 . S
C152 C146 1.379 . S
C152 C149 1.363 1_554 S
C152 N150 1.356 . S
C153 C147 1.363 1_556 S
C153 C148 1.379 . S
C153 N151 1.356 . S
N154 C146 1.356 . S
N154 H160 0.984 . S
N154 H161 0.984 . S
N155 C148 1.356 . S
N155 H158 0.984 . S
N155 H159 0.985 . S
H156 N151 0.984 . S
H157 N151 0.985 . S
H158 N155 0.984 . S
H159 N155 0.985 . S
H160 N154 0.984 . S
H161 N154 0.984 . S
H162 N150 0.984 . S
H163 N150 0.985 . S
C164 C165 1.363 . S
C164 C170 1.379 . S
C164 N172 1.356 . S
C165 C164 1.363 . S
C165 C171 1.363 . S
C166 C167 1.363 . S
C166 C171 1.379 . S
C166 N173 1.356 . S
C167 C166 1.363 . S
C167 C170 1.363 . S
N168 C170 1.356 . S
N168 H180 0.984 . S
N168 H181 0.985 . S
N169 C171 1.356 . S
N169 H174 0.984 . S
N169 H175 0.985 . S
C170 C164 1.379 . S
C170 C167 1.363 . S
C170 N168 1.356 . S
C171 C165 1.363 . S
C171 C166 1.379 . S
C171 N169 1.356 . S
N172 C164 1.356 . S
N172 H178 0.984 . S
N172 H179 0.984 . S
N173 C166 1.356 . S
N173 H176 0.984 . S
N173 H177 0.985 . S
H174 N169 0.984 . S
H175 N169 0.985 . S
H176 N173 0.984 . S
H177 N173 0.985 . S
H178 N172 0.984 . S
H179 N172 0.984 . S
H180 N168 0.984 . S
H181 N168 0.985 . S
C182 C183 1.363 . S
C182 C188 1.379 . S
C182 N190 1.356 . S
C183 C182 1.363 . S
C183 C189 1.363 . S
C184 C185 1.363 . S
C184 C189 1.379 . S
C184 N191 1.356 . S
C185 C184 1.363 . S
C185 C188 1.363 . S
N186 C188 1.356 . S
N186 H198 0.984 . S
N186 H199 0.985 . S
N187 C189 1.356 . S
N187 H192 0.984 . S
N187 H193 0.985 . S
C188 C182 1.379 . S
C188 C185 1.363 . S
C188 N186 1.356 . S
C189 C183 1.363 . S
C189 C184 1.379 . S
C189 N187 1.356 . S
N190 C182 1.356 . S
N190 H196 0.984 . S
N190 H197 0.984 . S
N191 C184 1.356 . S
N191 H194 0.984 . S
N191 H195 0.985 . S
H192 N187 0.984 . S
H193 N187 0.985 . S
H194 N191 0.984 . S
H195 N191 0.985 . S
H196 N190 0.984 . S
H197 N190 0.984 . S
H198 N186 0.984 . S
H199 N186 0.985 . S
C200 C201 1.363 1_556 S
C200 C206 1.379 . S
C200 N208 1.356 . S
C201 C200 1.363 1_554 S
C201 C207 1.363 . S
C202 C203 1.363 1_554 S
C202 C207 1.379 . S
C202 N209 1.356 . S
C203 C202 1.363 1_556 S
C203 C206 1.363 . S
N204 C206 1.356 . S
N204 H216 0.984 . S
N204 H217 0.985 . S
N205 C207 1.356 . S
N205 H210 0.984 . S
N205 H211 0.985 . S
C206 C200 1.379 . S
C206 C203 1.363 . S
C206 N204 1.356 . S
C207 C201 1.363 . S
C207 C202 1.379 . S
C207 N205 1.356 . S
N208 C200 1.356 . S
N208 H214 0.984 . S
N208 H215 0.984 . S
N209 C202 1.356 . S
N209 H212 0.984 . S
N209 H213 0.985 . S
H210 N205 0.984 . S
H211 N205 0.985 . S
H212 N209 0.984 . S
H213 N209 0.985 . S
H214 N208 0.984 . S
H215 N208 0.984 . S
H216 N204 0.984 . S
H217 N204 0.985 . S
C218 C219 1.363 . S
C218 C224 1.379 . S
C218 N226 1.356 . S
C219 C218 1.363 . S
C219 C225 1.363 . S
C220 C221 1.363 . S
C220 C225 1.379 . S
C220 N227 1.356 . S
C221 C220 1.363 . S
C221 C224 1.363 . S
N222 C224 1.356 . S
N222 H234 0.984 . S
N222 H235 0.985 . S
N223 C225 1.356 . S
N223 H228 0.984 . S
N223 H229 0.985 . S
C224 C218 1.379 . S
C224 C221 1.363 . S
C224 N222 1.356 . S
C225 C219 1.363 . S
C225 C220 1.379 . S
C225 N223 1.356 . S
N226 C218 1.356 . S
N226 H232 0.984 . S
N226 H233 0.984 . S
N227 C220 1.356 . S
N227 H230 0.984 . S
N227 H231 0.985 . S
H228 N223 0.984 . S
H229 N223 0.985 . S
H230 N227 0.984 . S
H231 N227 0.985 . S
H232 N226 0.984 . S
H233 N226 0.984 . S
H234 N222 0.984 . S
H235 N222 0.985 . S
C236 C237 1.363 1_556 S
C236 C242 1.379 1_445 S
C236 N244 1.356 . S
C237 C236 1.363 1_554 S
C237 C243 1.363 . S
C238 C239 1.363 1_554 S
C238 C243 1.379 1_665 S
C238 N245 1.356 . S
C239 C238 1.363 1_556 S
C239 C242 1.363 . S
N240 C242 1.356 . S
N240 H252 0.984 . S
N240 H253 0.985 . S
N241 C243 1.356 . S
N241 H246 0.984 . S
N241 H247 0.985 . S
C242 C236 1.379 1_665 S
C242 C239 1.363 . S
C242 N240 1.356 . S
C243 C237 1.363 . S
C243 C238 1.379 1_445 S
C243 N241 1.356 . S
N244 C236 1.356 . S
N244 H250 0.984 . S
N244 H251 0.984 . S
N245 C238 1.356 . S
N245 H248 0.984 . S
N245 H249 0.985 . S
H246 N241 0.984 . S
H247 N241 0.985 . S
H248 N245 0.984 . S
H249 N245 0.985 . S
H250 N244 0.984 . S
H251 N244 0.984 . S
H252 N240 0.984 . S
H253 N240 0.985 . S
C254 C255 1.363 1_455 S
C254 C260 1.379 1_545 S
C254 N262 1.356 . S
C255 C254 1.363 1_655 S
C255 C261 1.363 . S
C256 C257 1.363 1_655 S
C256 C261 1.379 1_565 S
C256 N263 1.356 . S
C257 C256 1.363 1_455 S
C257 C260 1.363 . S
N258 C260 1.356 . S
N258 H270 0.984 . S
N258 H271 0.985 . S
N259 C261 1.356 . S
N259 H264 0.984 . S
N259 H265 0.985 . S
C260 C254 1.379 1_565 S
C260 C257 1.363 . S
C260 N258 1.356 . S
C261 C255 1.363 . S
C261 C256 1.379 1_545 S
C261 N259 1.356 . S
N262 C254 1.356 . S
N262 H268 0.984 . S
N262 H269 0.984 1_455 S
N263 C256 1.356 . S
N263 H266 0.984 1_655 S
N263 H267 0.985 . S
H264 N259 0.984 . S
H265 N259 0.985 . S
H266 N263 0.984 1_455 S
H267 N263 0.985 . S
H268 N262 0.984 . S
H269 N262 0.984 1_655 S
H270 N258 0.984 . S
H271 N258 0.985 . S
C272 C273 1.363 . S
C272 C278 1.379 . S
C272 N280 1.356 . S
C273 C272 1.363 . S
C273 C279 1.363 . S
C274 C275 1.363 . S
C274 C279 1.379 . S
C274 N281 1.356 . S
C275 C274 1.363 . S
C275 C278 1.363 . S
N276 C278 1.356 . S
N276 H288 0.984 . S
N276 H289 0.985 . S
N277 C279 1.356 . S
N277 H282 0.984 . S
N277 H283 0.985 . S
C278 C272 1.379 . S
C278 C275 1.363 . S
C278 N276 1.356 . S
C279 C273 1.363 . S
C279 C274 1.379 . S
C279 N277 1.356 . S
N280 C272 1.356 . S
N280 H286 0.984 . S
N280 H287 0.984 . S
N281 C274 1.356 . S
N281 H284 0.984 . S
N281 H285 0.985 . S
H282 N277 0.984 . S
H283 N277 0.985 . S
H284 N281 0.984 . S
H285 N281 0.985 . S
H286 N280 0.984 . S
H287 N280 0.984 . S
H288 N276 0.984 . S
H289 N276 0.985 . S
C290 C291 1.363 . S
C290 C296 1.379 . S
C290 N298 1.356 . S
C291 C290 1.363 . S
C291 C297 1.363 . S
C292 C293 1.363 . S
C292 C297 1.379 . S
C292 N299 1.356 . S
C293 C292 1.363 . S
C293 C296 1.363 . S
N294 C296 1.356 . S
N294 H306 0.984 . S
N294 H307 0.985 . S
N295 C297 1.356 . S
N295 H300 0.984 . S
N295 H301 0.985 . S
C296 C290 1.379 . S
C296 C293 1.363 . S
C296 N294 1.356 . S
C297 C291 1.363 . S
C297 C292 1.379 . S
C297 N295 1.356 . S
N298 C290 1.356 . S
N298 H304 0.984 . S
N298 H305 0.984 . S
N299 C292 1.356 . S
N299 H302 0.984 . S
N299 H303 0.985 . S
H300 N295 0.984 . S
H301 N295 0.985 . S
H302 N299 0.984 . S
H303 N299 0.985 . S
H304 N298 0.984 . S
H305 N298 0.984 . S
H306 N294 0.984 . S
H307 N294 0.985 . S
C308 C309 1.363 . S
C308 C314 1.379 . S
C308 N316 1.356 . S
C309 C308 1.363 . S
C309 C315 1.363 . S
C310 C311 1.363 . S
C310 C315 1.379 . S
C310 N317 1.356 . S
C311 C310 1.363 . S
C311 C314 1.363 . S
N312 C314 1.356 . S
N312 H324 0.984 . S
N312 H325 0.985 . S
N313 C315 1.356 . S
N313 H318 0.984 . S
N313 H319 0.985 . S
C314 C308 1.379 . S
C314 C311 1.363 . S
C314 N312 1.356 . S
C315 C309 1.363 . S
C315 C310 1.379 . S
C315 N313 1.356 . S
N316 C308 1.356 . S
N316 H322 0.984 . S
N316 H323 0.984 . S
N317 C310 1.356 . S
N317 H320 0.984 . S
N317 H321 0.985 . S
H318 N313 0.984 . S
H319 N313 0.985 . S
H320 N317 0.984 . S
H321 N317 0.985 . S
H322 N316 0.984 . S
H323 N316 0.984 . S
H324 N312 0.984 . S
H325 N312 0.985 . S
C326 C327 1.363 . S
C326 C332 1.379 . S
C326 N334 1.356 . S
C327 C326 1.363 . S
C327 C333 1.363 . S
C328 C329 1.363 . S
C328 C333 1.379 . S
C328 N335 1.356 . S
C329 C328 1.363 . S
C329 C332 1.363 . S
N330 C332 1.356 . S
N330 H342 0.984 . S
N330 H343 0.985 . S
N331 C333 1.356 . S
N331 H336 0.984 . S
N331 H337 0.985 . S
C332 C326 1.379 . S
C332 C329 1.363 . S
C332 N330 1.356 . S
C333 C327 1.363 . S
C333 C328 1.379 . S
C333 N331 1.356 . S
N334 C326 1.356 . S
N334 H340 0.984 . S
N334 H341 0.984 . S
N335 C328 1.356 . S
N335 H338 0.984 . S
N335 H339 0.985 . S
H336 N331 0.984 . S
H337 N331 0.985 . S
H338 N335 0.984 . S
H339 N335 0.985 . S
H340 N334 0.984 . S
H341 N334 0.984 . S
H342 N330 0.984 . S
H343 N330 0.985 . S
C344 C345 1.363 . S
C344 C350 1.379 1_455 S
C344 N352 1.356 . S
C345 C344 1.363 . S
C345 C351 1.363 . S
C346 C347 1.363 1_455 S
C346 C351 1.379 . S
C346 N353 1.356 . S
C347 C346 1.363 1_655 S
C347 C350 1.363 . S
N348 C350 1.356 . S
N348 H360 0.984 . S
N348 H361 0.985 . S
N349 C351 1.356 . S
N349 H354 0.984 . S
N349 H355 0.985 . S
C350 C344 1.379 1_655 S
C350 C347 1.363 . S
C350 N348 1.356 . S
C351 C345 1.363 . S
C351 C346 1.379 . S
C351 N349 1.356 . S
N352 C344 1.356 . S
N352 H358 0.984 1_455 S
N352 H359 0.984 . S
N353 C346 1.356 . S
N353 H356 0.984 . S
N353 H357 0.985 . S
H354 N349 0.984 . S
H355 N349 0.985 . S
H356 N353 0.984 . S
H357 N353 0.985 . S
H358 N352 0.984 1_655 S
H359 N352 0.984 . S
H360 N348 0.984 . S
H361 N348 0.985 . S
C362 C363 1.363 1_455 S
C362 C368 1.379 . S
C362 N370 1.356 . S
C363 C362 1.363 1_655 S
C363 C369 1.363 . S
C364 C365 1.363 . S
C364 C369 1.379 1_455 S
C364 N371 1.356 . S
C365 C364 1.363 . S
C365 C368 1.363 . S
N366 C368 1.356 . S
N366 H378 0.984 . S
N366 H379 0.985 . S
N367 C369 1.356 . S
N367 H372 0.984 . S
N367 H373 0.985 . S
C368 C362 1.379 . S
C368 C365 1.363 . S
C368 N366 1.356 . S
C369 C363 1.363 . S
C369 C364 1.379 1_655 S
C369 N367 1.356 . S
N370 C362 1.356 . S
N370 H376 0.984 . S
N370 H377 0.984 . S
N371 C364 1.356 . S
N371 H374 0.984 . S
N371 H375 0.985 1_455 S
H372 N367 0.984 . S
H373 N367 0.985 . S
H374 N371 0.984 . S
H375 N371 0.985 1_655 S
H376 N370 0.984 . S
H377 N370 0.984 . S
H378 N366 0.984 . S
H379 N366 0.985 . S
C380 C381 1.363 1_655 S
C380 C386 1.379 . S
C380 N388 1.356 . S
C381 C380 1.363 1_455 S
C381 C387 1.363 . S
C382 C383 1.363 . S
C382 C387 1.379 1_655 S
C382 N389 1.356 . S
C383 C382 1.363 . S
C383 C386 1.363 . S
N384 C386 1.356 . S
N384 H396 0.984 . S
N384 H397 0.985 . S
N385 C387 1.356 . S
N385 H390 0.984 . S
N385 H391 0.985 . S
C386 C380 1.379 . S
C386 C383 1.363 . S
C386 N384 1.356 . S
C387 C381 1.363 . S
C387 C382 1.379 1_455 S
C387 N385 1.356 . S
N388 C380 1.356 . S
N388 H394 0.984 . S
N388 H395 0.984 . S
N389 C382 1.356 . S
N389 H392 0.984 . S
N389 H393 0.985 1_655 S
H390 N385 0.984 . S
H391 N385 0.985 . S
H392 N389 0.984 . S
H393 N389 0.985 1_455 S
H394 N388 0.984 . S
H395 N388 0.984 . S
H396 N384 0.984 . S
H397 N384 0.985 . S
C398 C399 1.363 . S
C398 C404 1.379 1_455 S
C398 N406 1.356 . S
C399 C398 1.363 . S
C399 C405 1.363 1_455 S
C400 C401 1.363 . S
C400 C405 1.379 . S
C400 N407 1.356 . S
C401 C400 1.363 . S
C401 C404 1.363 . S
N402 C404 1.356 . S
N402 H414 0.984 1_655 S
N402 H415 0.985 . S
N403 C405 1.356 . S
N403 H408 0.984 . S
N403 H409 0.985 . S
C404 C398 1.379 1_655 S
C404 C401 1.363 . S
C404 N402 1.356 . S
C405 C399 1.363 1_655 S
C405 C400 1.379 . S
C405 N403 1.356 . S
N406 C398 1.356 . S
N406 H412 0.984 . S
N406 H413 0.984 . S
N407 C400 1.356 . S
N407 H410 0.984 . S
N407 H411 0.985 . S
H408 N403 0.984 . S
H409 N403 0.985 . S
H410 N407 0.984 . S
H411 N407 0.985 . S
H412 N406 0.984 . S
H413 N406 0.984 . S
H414 N402 0.984 1_455 S
H415 N402 0.985 . S
C129 C20 1.101 . S
C131 C16 1.101 . S
C147 C52 1.101 . S
C149 C48 1.101 . S
C165 C84 1.101 . S
C167 C80 1.101 . S
C183 C116 1.101 . S
C185 C112 1.101 . S
C201 C51 1.451 1_554 S
C203 C23 1.451 1_556 S
C219 C115 1.451 . S
C221 C87 1.451 . S
C237 C19 1.451 1_554 S
C239 C55 1.451 1_556 S
C255 C119 1.451 . S
C257 C83 1.451 . S
C273 C117 1.658 . S
C275 C18 1.624 . S
C291 C53 1.658 . S
C293 C82 1.624 . S
C309 C81 1.658 . S
C311 C54 1.630 . S
C327 C17 1.658 . S
C329 C118 1.630 . S
C345 C85 1.658 . S
C347 C50 1.624 . S
C363 C114 1.627 . S
C365 C21 1.655 . S
C381 C22 1.627 . S
C383 C113 1.660 . S
C399 C86 1.627 . S
C401 C49 1.660 . S
