# Generated by pormake.
# Topology uos, (4)-cn, num edge types: 1
# Building blocks:
#     Node 0, Type 0, BuildingBlock: NAHDIM_clean_sbu_0, # of connection points: 4
#     Node 1, Type 0, BuildingBlock: NAHDIM_clean_sbu_0, # of connection points: 4
#     Node 2, Type 0, BuildingBlock: NAHDIM_clean_sbu_0, # of connection points: 4
#     Node 3, Type 0, BuildingBlock: NAHDIM_clean_sbu_0, # of connection points: 4
#     Node 4, Type 0, BuildingBlock: NAHDIM_clean_sbu_0, # of connection points: 4
#     Node 5, Type 0, BuildingBlock: NAHDIM_clean_sbu_0, # of connection points: 4
#     Node 6, Type 0, BuildingBlock: NAHDIM_clean_sbu_0, # of connection points: 4
#     Node 7, Type 0, BuildingBlock: NAHDIM_clean_sbu_0, # of connection points: 4
#     Node 8, Type 0, BuildingBlock: NAHDIM_clean_sbu_0, # of connection points: 4
#     Node 9, Type 0, BuildingBlock: NAHDIM_clean_sbu_0, # of connection points: 4
#     Node 10, Type 0, BuildingBlock: NAHDIM_clean_sbu_0, # of connection points: 4
#     Node 11, Type 0, BuildingBlock: NAHDIM_clean_sbu_0, # of connection points: 4
#     Node 12, Type 0, BuildingBlock: NAHDIM_clean_sbu_0, # of connection points: 4
#     Node 13, Type 0, BuildingBlock: NAHDIM_clean_sbu_0, # of connection points: 4
#     Node 14, Type 0, BuildingBlock: NAHDIM_clean_sbu_0, # of connection points: 4
#     Node 15, Type 0, BuildingBlock: NAHDIM_clean_sbu_0, # of connection points: 4
#     Node 16, Type 0, BuildingBlock: NAHDIM_clean_sbu_0, # of connection points: 4
#     Node 17, Type 0, BuildingBlock: NAHDIM_clean_sbu_0, # of connection points: 4
#     Node 18, Type 0, BuildingBlock: NAHDIM_clean_sbu_0, # of connection points: 4
#     Node 19, Type 0, BuildingBlock: NAHDIM_clean_sbu_0, # of connection points: 4
#     Node 20, Type 0, BuildingBlock: NAHDIM_clean_sbu_0, # of connection points: 4
#     Node 21, Type 0, BuildingBlock: NAHDIM_clean_sbu_0, # of connection points: 4
#     Node 22, Type 0, BuildingBlock: NAHDIM_clean_sbu_0, # of connection points: 4
#     Node 23, Type 0, BuildingBlock: NAHDIM_clean_sbu_0, # of connection points: 4
#     Node 24, Type 0, BuildingBlock: NAHDIM_clean_sbu_0, # of connection points: 4
#     Node 25, Type 0, BuildingBlock: NAHDIM_clean_sbu_0, # of connection points: 4
#     Node 26, Type 0, BuildingBlock: NAHDIM_clean_sbu_0, # of connection points: 4
#     Node 27, Type 0, BuildingBlock: NAHDIM_clean_sbu_0, # of connection points: 4
#     Node 28, Type 0, BuildingBlock: NAHDIM_clean_sbu_0, # of connection points: 4
#     Node 29, Type 0, BuildingBlock: NAHDIM_clean_sbu_0, # of connection points: 4
#     Node 30, Type 0, BuildingBlock: NAHDIM_clean_sbu_0, # of connection points: 4
#     Node 31, Type 0, BuildingBlock: NAHDIM_clean_sbu_0, # of connection points: 4
#     Edge 32, Type (0, 0), BuildingBlock: KIFKEQ_clean_linker_1, # of connection points: 2
#     Edge 33, Type (0, 0), BuildingBlock: KIFKEQ_clean_linker_1, # of connection points: 2
#     Edge 34, Type (0, 0), BuildingBlock: KIFKEQ_clean_linker_1, # of connection points: 2
#     Edge 35, Type (0, 0), BuildingBlock: KIFKEQ_clean_linker_1, # of connection points: 2
#     Edge 36, Type (0, 0), BuildingBlock: KIFKEQ_clean_linker_1, # of connection points: 2
#     Edge 37, Type (0, 0), BuildingBlock: KIFKEQ_clean_linker_1, # of connection points: 2
#     Edge 38, Type (0, 0), BuildingBlock: KIFKEQ_clean_linker_1, # of connection points: 2
#     Edge 39, Type (0, 0), BuildingBlock: KIFKEQ_clean_linker_1, # of connection points: 2
#     Edge 40, Type (0, 0), BuildingBlock: KIFKEQ_clean_linker_1, # of connection points: 2
#     Edge 41, Type (0, 0), BuildingBlock: KIFKEQ_clean_linker_1, # of connection points: 2
#     Edge 42, Type (0, 0), BuildingBlock: KIFKEQ_clean_linker_1, # of connection points: 2
#     Edge 43, Type (0, 0), BuildingBlock: KIFKEQ_clean_linker_1, # of connection points: 2
#     Edge 44, Type (0, 0), BuildingBlock: KIFKEQ_clean_linker_1, # of connection points: 2
#     Edge 45, Type (0, 0), BuildingBlock: KIFKEQ_clean_linker_1, # of connection points: 2
#     Edge 46, Type (0, 0), BuildingBlock: KIFKEQ_clean_linker_1, # of connection points: 2
#     Edge 47, Type (0, 0), BuildingBlock: KIFKEQ_clean_linker_1, # of connection points: 2
#     Edge 48, Type (0, 0), BuildingBlock: KIFKEQ_clean_linker_1, # of connection points: 2
#     Edge 49, Type (0, 0), BuildingBlock: KIFKEQ_clean_linker_1, # of connection points: 2
#     Edge 50, Type (0, 0), BuildingBlock: KIFKEQ_clean_linker_1, # of connection points: 2
#     Edge 51, Type (0, 0), BuildingBlock: KIFKEQ_clean_linker_1, # of connection points: 2
#     Edge 52, Type (0, 0), BuildingBlock: KIFKEQ_clean_linker_1, # of connection points: 2
#     Edge 53, Type (0, 0), BuildingBlock: KIFKEQ_clean_linker_1, # of connection points: 2
#     Edge 54, Type (0, 0), BuildingBlock: KIFKEQ_clean_linker_1, # of connection points: 2
#     Edge 55, Type (0, 0), BuildingBlock: KIFKEQ_clean_linker_1, # of connection points: 2
#     Edge 56, Type (0, 0), BuildingBlock: KIFKEQ_clean_linker_1, # of connection points: 2
#     Edge 57, Type (0, 0), BuildingBlock: KIFKEQ_clean_linker_1, # of connection points: 2
#     Edge 58, Type (0, 0), BuildingBlock: KIFKEQ_clean_linker_1, # of connection points: 2
#     Edge 59, Type (0, 0), BuildingBlock: KIFKEQ_clean_linker_1, # of connection points: 2
#     Edge 60, Type (0, 0), BuildingBlock: KIFKEQ_clean_linker_1, # of connection points: 2
#     Edge 61, Type (0, 0), BuildingBlock: KIFKEQ_clean_linker_1, # of connection points: 2
#     Edge 62, Type (0, 0), BuildingBlock: KIFKEQ_clean_linker_1, # of connection points: 2
#     Edge 63, Type (0, 0), BuildingBlock: KIFKEQ_clean_linker_1, # of connection points: 2
#     Edge 64, Type (0, 0), BuildingBlock: KIFKEQ_clean_linker_1, # of connection points: 2
#     Edge 65, Type (0, 0), BuildingBlock: KIFKEQ_clean_linker_1, # of connection points: 2
#     Edge 66, Type (0, 0), BuildingBlock: KIFKEQ_clean_linker_1, # of connection points: 2
#     Edge 67, Type (0, 0), BuildingBlock: KIFKEQ_clean_linker_1, # of connection points: 2
#     Edge 68, Type (0, 0), BuildingBlock: KIFKEQ_clean_linker_1, # of connection points: 2
#     Edge 69, Type (0, 0), BuildingBlock: KIFKEQ_clean_linker_1, # of connection points: 2
#     Edge 70, Type (0, 0), BuildingBlock: KIFKEQ_clean_linker_1, # of connection points: 2
#     Edge 71, Type (0, 0), BuildingBlock: KIFKEQ_clean_linker_1, # of connection points: 2
#     Edge 72, Type (0, 0), BuildingBlock: KIFKEQ_clean_linker_1, # of connection points: 2
#     Edge 73, Type (0, 0), BuildingBlock: KIFKEQ_clean_linker_1, # of connection points: 2
#     Edge 74, Type (0, 0), BuildingBlock: KIFKEQ_clean_linker_1, # of connection points: 2
#     Edge 75, Type (0, 0), BuildingBlock: KIFKEQ_clean_linker_1, # of connection points: 2
#     Edge 76, Type (0, 0), BuildingBlock: KIFKEQ_clean_linker_1, # of connection points: 2
#     Edge 77, Type (0, 0), BuildingBlock: KIFKEQ_clean_linker_1, # of connection points: 2
#     Edge 78, Type (0, 0), BuildingBlock: KIFKEQ_clean_linker_1, # of connection points: 2
#     Edge 79, Type (0, 0), BuildingBlock: KIFKEQ_clean_linker_1, # of connection points: 2
#     Edge 80, Type (0, 0), BuildingBlock: KIFKEQ_clean_linker_1, # of connection points: 2
#     Edge 81, Type (0, 0), BuildingBlock: KIFKEQ_clean_linker_1, # of connection points: 2
#     Edge 82, Type (0, 0), BuildingBlock: KIFKEQ_clean_linker_1, # of connection points: 2
#     Edge 83, Type (0, 0), BuildingBlock: KIFKEQ_clean_linker_1, # of connection points: 2
#     Edge 84, Type (0, 0), BuildingBlock: KIFKEQ_clean_linker_1, # of connection points: 2
#     Edge 85, Type (0, 0), BuildingBlock: KIFKEQ_clean_linker_1, # of connection points: 2
#     Edge 86, Type (0, 0), BuildingBlock: KIFKEQ_clean_linker_1, # of connection points: 2
#     Edge 87, Type (0, 0), BuildingBlock: KIFKEQ_clean_linker_1, # of connection points: 2
#     Edge 88, Type (0, 0), BuildingBlock: KIFKEQ_clean_linker_1, # of connection points: 2
#     Edge 89, Type (0, 0), BuildingBlock: KIFKEQ_clean_linker_1, # of connection points: 2
#     Edge 90, Type (0, 0), BuildingBlock: KIFKEQ_clean_linker_1, # of connection points: 2
#     Edge 91, Type (0, 0), BuildingBlock: KIFKEQ_clean_linker_1, # of connection points: 2
#     Edge 92, Type (0, 0), BuildingBlock: KIFKEQ_clean_linker_1, # of connection points: 2
#     Edge 93, Type (0, 0), BuildingBlock: KIFKEQ_clean_linker_1, # of connection points: 2
#     Edge 94, Type (0, 0), BuildingBlock: KIFKEQ_clean_linker_1, # of connection points: 2
#     Edge 95, Type (0, 0), BuildingBlock: KIFKEQ_clean_linker_1, # of connection points: 2
# Relax obj value: 0.054
# Max RMSD: 0.085
# Mean RMSD: 0.085
data_MOF--net-uos--node1-NAHDIM_clean_sbu_0--edge1-KIFKEQ_clean_linker_1
_symmetry_space_group_name_H-M    P1
_symmetry_Int_Tables_number       1
_symmetry_cell_setting            triclinic
loop_
_symmetry_equiv_pos_as_xyz
'x, y, z'
_cell_length_a     86.208257
_cell_length_b     86.201753
_cell_length_c     24.177397
_cell_angle_alpha  89.953453
_cell_angle_beta   89.983662
_cell_angle_gamma 90.003655
loop_
_atom_site_label
_atom_site_type_symbol
_atom_site_fract_x
_atom_site_fract_y
_atom_site_fract_z
_atom_type_partial_charge
C0 C 0.14457 0.14792 0.03513 0.0
O1 O 0.13591 0.15626 0.06854 0.0
O2 O 0.16177 0.1808 0.10356 0.0
Zn3 Zn 0.16577 0.15785 0.11425 0.0
O4 O 0.15281 0.14964 0.17672 0.0
C5 C 0.19697 0.16548 0.14587 0.0
O6 O 0.19102 0.17951 0.14615 0.0
O7 O 0.15897 0.14665 0.04552 0.0
C8 C 0.15665 0.15112 0.22714 0.0
O9 O 0.16962 0.15833 0.2396 0.0
C10 C 0.15228 0.18852 0.13292 0.0
O11 O 0.14422 0.18139 0.17137 0.0
O12 O 0.18843 0.15409 0.13208 0.0
C13 C 0.09992 0.89633 0.28318 0.0
O14 O 0.09245 0.88581 0.3122 0.0
O15 O 0.06427 0.90903 0.35258 0.0
Zn16 Zn 0.08666 0.91457 0.36685 0.0
O17 O 0.09566 0.90139 0.4274 0.0
C18 C 0.07622 0.94378 0.4099 0.0
O19 O 0.06319 0.93598 0.41402 0.0
O20 O 0.09912 0.91043 0.29815 0.0
C21 C 0.09369 0.90431 0.4784 0.0
O22 O 0.08503 0.91617 0.49291 0.0
C23 C 0.05706 0.89815 0.37712 0.0
O24 O 0.06452 0.88936 0.41263 0.0
O25 O 0.08811 0.9371 0.38975 0.0
C26 C 0.35098 0.84834 0.53184 0.0
O27 O 0.36133 0.84081 0.56137 0.0
O28 O 0.33746 0.81381 0.60725 0.0
Zn29 Zn 0.3329 0.83656 0.61833 0.0
O30 O 0.34711 0.84545 0.67602 0.0
C31 C 0.30409 0.82777 0.66864 0.0
O32 O 0.31138 0.81442 0.67155 0.0
O33 O 0.3369 0.84818 0.54752 0.0
C34 C 0.34488 0.8432 0.72732 0.0
O35 O 0.33314 0.83457 0.74327 0.0
C36 C 0.34943 0.80709 0.62643 0.0
O37 O 0.35992 0.8153 0.65276 0.0
O38 O 0.3108 0.83921 0.64544 0.0
C39 C 0.39551 0.09868 0.79605 0.0
O40 O 0.40237 0.10976 0.82418 0.0
O41 O 0.43337 0.08429 0.85709 0.0
Zn42 Zn 0.41094 0.0811 0.878 0.0
O43 O 0.40447 0.09613 0.93739 0.0
C44 C 0.41981 0.05252 0.92978 0.0
O45 O 0.43335 0.05952 0.92961 0.0
O46 O 0.39744 0.08468 0.81116 0.0
C47 C 0.41012 0.09561 0.98588 0.0
O48 O 0.42087 0.08529 -0.00269 0.0
C49 C 0.44108 0.09655 0.86685 0.0
O50 O 0.43416 0.10842 0.89035 0.0
O51 O 0.4082 0.05936 0.9083 0.0
C52 C 0.15809 0.86085 0.94458 0.0
O53 O 0.15795 0.8693 0.89932 0.0
O54 O 0.16582 0.81441 0.87096 0.0
Zn55 Zn 0.16848 0.83762 0.86836 0.0
O56 O 0.15421 0.8463 0.81019 0.0
C57 C 0.20183 0.83512 0.8688 0.0
O58 O 0.19906 0.82521 0.90895 0.0
O59 O 0.16273 0.84687 0.94192 0.0
C60 C 0.15898 0.84878 0.76123 0.0
O61 O 0.17339 0.84539 0.74839 0.0
C62 C 0.17146 0.80633 0.83189 0.0
O63 O 0.1787 0.81338 0.79119 0.0
O64 O 0.19056 0.84243 0.84729 0.0
C65 C 0.38876 0.90471 0.19213 0.0
O66 O 0.38061 0.90452 0.14623 0.0
O67 O 0.43553 0.91326 0.12204 0.0
Zn68 Zn 0.41237 0.91523 0.11772 0.0
O69 O 0.40444 0.90081 0.05924 0.0
C70 C 0.41436 0.94841 0.11847 0.0
O71 O 0.42406 0.94553 0.1591 0.0
O72 O 0.40274 0.9094 0.19054 0.0
C73 C 0.40479 0.90474 0.00863 0.0
O74 O 0.41077 0.91823 0.99492 0.0
C75 C 0.44241 0.90077 0.13528 0.0
O76 O 0.43416 0.88841 0.14744 0.0
O77 O 0.40731 0.93716 0.09574 0.0
C78 C 0.33965 0.12993 0.44817 0.0
O79 O 0.34231 0.12219 0.40234 0.0
O80 O 0.33175 0.17661 0.38021 0.0
Zn81 Zn 0.32986 0.15352 0.37128 0.0
O82 O 0.34563 0.14553 0.31667 0.0
C83 C 0.3055 0.15641 0.29613 0.0
O84 O 0.31643 0.16498 0.27378 0.0
O85 O 0.33365 0.14338 0.44515 0.0
C86 C 0.35283 0.15381 0.28152 0.0
O87 O 0.35028 0.16883 0.27971 0.0
C88 C 0.34368 0.18352 0.39878 0.0
O89 O 0.35589 0.17534 0.41324 0.0
O90 O 0.3084 0.14938 0.34123 0.0
C91 C 0.09498 0.09996 0.69842 0.0
O92 O 0.08722 0.10912 0.66488 0.0
O93 O 0.06326 0.08598 0.61821 0.0
Zn94 Zn 0.08588 0.08019 0.61426 0.0
O95 O 0.09683 0.09219 0.55492 0.0
C96 C 0.07934 0.05357 0.55341 0.0
O97 O 0.07099 0.06419 0.52818 0.0
O98 O 0.09616 0.08567 0.68625 0.0
C99 C 0.09025 0.10099 0.51992 0.0
O100 O 0.0751 0.10257 0.52105 0.0
C101 C 0.05542 0.08141 0.65962 0.0
O102 O 0.06243 0.07346 0.6987 0.0
O103 O 0.0874 0.05752 0.59512 0.0
C104 C 0.84734 0.85371 0.94985 0.0
O105 O 0.85637 0.85315 0.90613 0.0
O106 O 0.83336 0.81412 0.88192 0.0
Zn107 Zn 0.82771 0.83671 0.87689 0.0
O108 O 0.83827 0.84702 0.81243 0.0
C109 C 0.80031 0.83247 0.81708 0.0
O110 O 0.81072 0.82624 0.7842 0.0
O111 O 0.834 0.84744 0.94759 0.0
C112 C 0.84706 0.84021 0.77799 0.0
O113 O 0.84989 0.82532 0.78385 0.0
C114 C 0.82607 0.80598 0.91721 0.0
O115 O 0.81568 0.81274 0.94884 0.0
O116 O 0.80473 0.83813 0.863 0.0
C117 C 0.89795 0.10165 0.70164 0.0
O118 O 0.90439 0.11064 0.66419 0.0
O119 O 0.93122 0.08408 0.62411 0.0
Zn120 Zn 0.90813 0.08013 0.62301 0.0
O121 O 0.89794 0.09232 0.56215 0.0
C122 C 0.90897 0.05292 0.55987 0.0
O123 O 0.91487 0.06313 0.52541 0.0
O124 O 0.89818 0.08705 0.6943 0.0
C125 C 0.90507 0.10102 0.5282 0.0
O126 O 0.92024 0.10221 0.53115 0.0
C127 C 0.9388 0.08655 0.66832 0.0
O128 O 0.93141 0.08688 0.71582 0.0
O129 O 0.90476 0.05742 0.60765 0.0
C130 C 0.64779 0.15523 0.46669 0.0
O131 O 0.63888 0.16398 0.4355 0.0
O132 O 0.66515 0.18699 0.38953 0.0
Zn133 Zn 0.66735 0.16383 0.38064 0.0
O134 O 0.65253 0.15619 0.32272 0.0
C135 C 0.69141 0.16307 0.30349 0.0
O136 O 0.67989 0.16905 0.27497 0.0
O137 O 0.66182 0.15316 0.45223 0.0
C138 C 0.6528 0.14194 0.30953 0.0
O139 O 0.66259 0.13264 0.33473 0.0
C140 C 0.65396 0.19459 0.36851 0.0
O141 O 0.64322 0.18717 0.34054 0.0
O142 O 0.6891 0.15941 0.35382 0.0
C143 C 0.60604 0.90087 0.19808 0.0
O144 O 0.60464 0.89141 0.15581 0.0
O145 O 0.56587 0.91482 0.13665 0.0
Zn146 Zn 0.58844 0.91987 0.12527 0.0
O147 O 0.59762 0.90807 0.06155 0.0
C148 C 0.5793 0.94803 0.07555 0.0
O149 O 0.56793 0.93882 0.06039 0.0
O150 O 0.60011 0.91435 0.19497 0.0
C151 C 0.59062 0.90432 0.01731 0.0
O152 O 0.57593 0.90798 0.01107 0.0
C153 C 0.55937 0.90168 0.13121 0.0
O154 O 0.56773 0.88955 0.11742 0.0
O155 O 0.59005 0.94263 0.10605 0.0
C156 C 0.85116 0.15126 0.0406 0.0
O157 O 0.86004 0.16021 0.07113 0.0
O158 O 0.8334 0.18327 0.11491 0.0
Zn159 Zn 0.83087 0.16016 0.12514 0.0
O160 O 0.84482 0.15257 0.18572 0.0
C161 C 0.79787 0.16453 0.13091 0.0
O162 O 0.80118 0.17609 0.09749 0.0
O163 O 0.83713 0.14923 0.05505 0.0
C164 C 0.84168 0.15506 0.23625 0.0
O165 O 0.82914 0.16295 0.24899 0.0
C166 C 0.84463 0.19111 0.13434 0.0
O167 O 0.85551 0.18404 0.16284 0.0
O168 O 0.80872 0.1556 0.14676 0.0
C169 C 0.5991 0.10684 0.80483 0.0
O170 O 0.59199 0.11589 0.84045 0.0
O171 O 0.56524 0.09231 0.87706 0.0
Zn172 Zn 0.58762 0.08576 0.88208 0.0
O173 O 0.59795 0.09592 0.94691 0.0
C174 C 0.57938 0.05808 0.93418 0.0
O175 O 0.57014 0.06816 0.95816 0.0
O176 O 0.59893 0.09227 0.81304 0.0
C177 C 0.59082 0.10335 0.98449 0.0
O178 O 0.57571 0.10509 0.9811 0.0
C179 C 0.5571 0.08861 0.83532 0.0
O180 O 0.56363 0.08092 0.79461 0.0
O181 O 0.58849 0.06276 0.8963 0.0
C182 C 0.64388 0.85269 0.55163 0.0
O183 O 0.63364 0.85117 0.59148 0.0
O184 O 0.65757 0.81171 0.61507 0.0
Zn185 Zn 0.6619 0.83436 0.62666 0.0
O186 O 0.64882 0.84253 0.68894 0.0
C187 C 0.68836 0.83177 0.69556 0.0
O188 O 0.67776 0.82562 0.72793 0.0
O189 O 0.65712 0.84636 0.55696 0.0
C190 C 0.65225 0.85574 0.70874 0.0
O191 O 0.66416 0.86332 0.68821 0.0
C192 C 0.66652 0.80415 0.58321 0.0
O193 O 0.67785 0.81153 0.55808 0.0
O194 O 0.68437 0.83664 0.64799 0.0
C195 C 0.89437 0.89389 0.30286 0.0
O196 O 0.89659 0.88389 0.34311 0.0
O197 O 0.93362 0.91117 0.36858 0.0
Zn198 Zn 0.91064 0.91376 0.37826 0.0
O199 O 0.90327 0.90047 0.4413 0.0
C200 C 0.9107 0.94048 0.44587 0.0
O201 O 0.91719 0.93035 0.47929 0.0
O202 O 0.89946 0.90766 0.30818 0.0
C203 C 0.88924 0.9018 0.45665 0.0
O204 O 0.8802 0.9117 0.43078 0.0
C205 C 0.94035 0.89806 0.36982 0.0
O206 O 0.93202 0.88545 0.37684 0.0
O207 O 0.90655 0.93609 0.3979 0.0
C208 C 0.64579 0.64951 0.53413 0.0
O209 O 0.63721 0.65935 0.56216 0.0
O210 O 0.66229 0.67994 0.61729 0.0
Zn211 Zn 0.66571 0.65689 0.62231 0.0
O212 O 0.65285 0.64791 0.68359 0.0
C213 C 0.69228 0.6575 0.68901 0.0
O214 O 0.68183 0.66356 0.72217 0.0
O215 O 0.65937 0.64644 0.55145 0.0
C216 C 0.64115 0.65463 0.70473 0.0
O217 O 0.63694 0.66832 0.68622 0.0
C218 C 0.66531 0.68737 0.57318 0.0
O219 O 0.67047 0.67977 0.52984 0.0
O220 O 0.68817 0.65329 0.6408 0.0
C221 C 0.5956 0.39582 0.78458 0.0
O222 O 0.58865 0.38575 0.81695 0.0
O223 O 0.56064 0.41103 0.85683 0.0
Zn224 Zn 0.58354 0.41506 0.86754 0.0
O225 O 0.5919 0.40115 0.92689 0.0
C226 C 0.57545 0.44427 0.91521 0.0
O227 O 0.56227 0.43686 0.92205 0.0
O228 O 0.59513 0.41012 0.79726 0.0
C229 C 0.58665 0.40119 0.97595 0.0
O230 O 0.57523 0.41062 0.98881 0.0
C231 C 0.55396 0.39829 0.86849 0.0
O232 O 0.56224 0.38659 0.88694 0.0
O233 O 0.58666 0.43736 0.89145 0.0
C234 C 0.85092 0.35131 0.01975 0.0
O235 O 0.86101 0.34854 0.05923 0.0
O236 O 0.83303 0.31499 0.10021 0.0
Zn237 Zn 0.83083 0.33826 0.10092 0.0
O238 O 0.8442 0.34796 0.1596 0.0
C239 C 0.80429 0.33943 0.16871 0.0
O240 O 0.81432 0.33277 0.20199 0.0
O241 O 0.83679 0.34762 0.0273 0.0
C242 C 0.85036 0.34102 0.20047 0.0
O243 O 0.84831 0.32602 0.20662 0.0
C244 C 0.84563 0.30763 0.09277 0.0
O245 O 0.85851 0.31538 0.08404 0.0
O246 O 0.80861 0.34316 0.12019 0.0
C247 C 0.901 0.60446 0.29916 0.0
O248 O 0.90794 0.61386 0.33404 0.0
O249 O 0.93599 0.58918 0.36515 0.0
Zn250 Zn 0.91331 0.58426 0.37744 0.0
O251 O 0.90454 0.59699 0.43961 0.0
C252 C 0.9221 0.55516 0.424 0.0
O253 O 0.935 0.56298 0.43168 0.0
O254 O 0.90149 0.58994 0.30839 0.0
C255 C 0.9103 0.59734 0.48795 0.0
O256 O 0.92285 0.58924 0.49875 0.0
C257 C 0.94289 0.60114 0.38363 0.0
O258 O 0.93503 0.61153 0.41177 0.0
O259 O 0.91088 0.56169 0.39893 0.0
C260 C 0.64539 0.35534 0.43695 0.0
O261 O 0.6362 0.35194 0.3954 0.0
O262 O 0.66511 0.31883 0.36792 0.0
Zn263 Zn 0.66675 0.3421 0.36165 0.0
O264 O 0.65314 0.35018 0.30047 0.0
C265 C 0.69316 0.34258 0.2944 0.0
O266 O 0.68301 0.33549 0.26275 0.0
O267 O 0.6598 0.35229 0.43293 0.0
C268 C 0.64653 0.34212 0.26338 0.0
O269 O 0.64875 0.32705 0.26194 0.0
C270 C 0.65279 0.31152 0.38052 0.0
O271 O 0.64002 0.31931 0.39058 0.0
O272 O 0.68893 0.3471 0.34215 0.0
C273 C 0.88942 0.40175 0.66882 0.0
O274 O 0.88318 0.39806 0.62107 0.0
O275 O 0.93561 0.41377 0.60766 0.0
Zn276 Zn 0.91259 0.41617 0.59883 0.0
O277 O 0.9057 0.40261 0.53577 0.0
C278 C 0.9155 0.44954 0.60227 0.0
O279 O 0.92485 0.44644 0.64375 0.0
O280 O 0.90179 0.4098 0.66955 0.0
C281 C 0.89468 0.40708 0.50472 0.0
O282 O 0.88795 0.42045 0.51478 0.0
C283 C 0.94216 0.40071 0.61452 0.0
O284 O 0.93362 0.38811 0.61719 0.0
O285 O 0.90846 0.43846 0.5785 0.0
C286 C 0.85197 0.65148 0.95942 0.0
O287 O 0.86031 0.66124 0.93017 0.0
O288 O 0.83444 0.68197 0.87719 0.0
Zn289 Zn 0.83115 0.65886 0.87335 0.0
O290 O 0.84336 0.64987 0.8104 0.0
C291 C 0.80415 0.65936 0.80957 0.0
O292 O 0.81434 0.66569 0.77598 0.0
O293 O 0.83821 0.64849 0.94387 0.0
C294 C 0.85589 0.65561 0.79174 0.0
O295 O 0.86152 0.66832 0.81393 0.0
C296 C 0.83245 0.68933 0.92215 0.0
O297 O 0.82857 0.68162 0.96697 0.0
O298 O 0.80858 0.65506 0.85735 0.0
C299 C 0.6004 0.60173 0.18995 0.0
O300 O 0.59685 0.61097 0.14863 0.0
O301 O 0.56276 0.58366 0.1248 0.0
Zn302 Zn 0.58586 0.58081 0.11663 0.0
O303 O 0.59409 0.59344 0.05314 0.0
C304 C 0.58129 0.55425 0.05498 0.0
O305 O 0.57246 0.56464 0.03074 0.0
O306 O 0.59693 0.58741 0.18651 0.0
C307 C 0.58594 0.60095 0.01848 0.0
O308 O 0.57075 0.60074 0.02264 0.0
C309 C 0.55562 0.5956 0.14217 0.0
O310 O 0.56353 0.60785 0.15773 0.0
O311 O 0.58922 0.55832 0.09691 0.0
C312 C 0.33759 0.35374 0.46682 0.0
O313 O 0.33712 0.36263 0.42268 0.0
O314 O 0.33203 0.3077 0.38644 0.0
Zn315 Zn 0.32916 0.33085 0.38706 0.0
O316 O 0.34361 0.34084 0.33236 0.0
C317 C 0.3037 0.33261 0.31407 0.0
O318 O 0.31445 0.32706 0.281 0.0
O319 O 0.33398 0.3395 0.46231 0.0
C320 C 0.35171 0.33345 0.29729 0.0
O321 O 0.35093 0.31824 0.29573 0.0
C322 C 0.34107 0.30046 0.41898 0.0
O323 O 0.3491 0.30827 0.4558 0.0
O324 O 0.30721 0.33549 0.3641 0.0
C325 C 0.39461 0.5972 0.19086 0.0
O326 O 0.39928 0.60594 0.14956 0.0
O327 O 0.43204 0.58012 0.13423 0.0
Zn328 Zn 0.40933 0.57564 0.12199 0.0
O329 O 0.40093 0.587 0.05591 0.0
C330 C 0.41735 0.54682 0.07554 0.0
O331 O 0.42931 0.55538 0.06132 0.0
O332 O 0.39735 0.58271 0.1892 0.0
C333 C 0.40813 0.58978 0.01115 0.0
O334 O 0.42265 0.58541 0.00583 0.0
C335 C 0.43882 0.59301 0.12592 0.0
O336 O 0.43078 0.60495 0.10811 0.0
O337 O 0.40676 0.55282 0.1053 0.0
C338 C 0.15197 0.65106 0.95985 0.0
O339 O 0.1434 0.65979 0.92739 0.0
O340 O 0.16912 0.6817 0.87845 0.0
Zn341 Zn 0.17236 0.65857 0.87491 0.0
O342 O 0.15853 0.64973 0.81582 0.0
C343 C 0.20519 0.66414 0.86842 0.0
O344 O 0.20153 0.67596 0.90013 0.0
O345 O 0.16606 0.64872 0.94683 0.0
C346 C 0.16369 0.64544 0.76904 0.0
O347 O 0.17855 0.64692 0.75822 0.0
C348 C 0.16852 0.68935 0.83353 0.0
O349 O 0.16963 0.68189 0.78635 0.0
O350 O 0.1947 0.6545 0.85501 0.0
C351 C 0.10147 0.39444 0.68215 0.0
O352 O 0.0951 0.38529 0.64515 0.0
O353 O 0.06621 0.41055 0.61762 0.0
Zn354 Zn 0.08894 0.41539 0.60657 0.0
O355 O 0.09827 0.4038 0.54256 0.0
C356 C 0.08047 0.44384 0.55826 0.0
O357 O 0.06914 0.43476 0.54198 0.0
O358 O 0.10057 0.40904 0.67526 0.0
C359 C 0.09196 0.40153 0.49577 0.0
O360 O 0.07779 0.40652 0.48683 0.0
C361 C 0.05899 0.39831 0.60361 0.0
O362 O 0.06656 0.38692 0.57974 0.0
O363 O 0.09098 0.43826 0.58942 0.0
C364 C 0.3539 0.65035 0.53191 0.0
O365 O 0.36351 0.65972 0.55764 0.0
O366 O 0.34169 0.68249 0.61138 0.0
Zn367 Zn 0.33663 0.65988 0.62268 0.0
O368 O 0.35083 0.65087 0.67986 0.0
C369 C 0.30568 0.66906 0.65627 0.0
O370 O 0.31042 0.68278 0.63971 0.0
O371 O 0.34043 0.6483 0.55192 0.0
C372 C 0.34757 0.63748 0.69836 0.0
O373 O 0.33527 0.63026 0.67917 0.0
C374 C 0.34687 0.69073 0.65085 0.0
O375 O 0.34917 0.68426 0.69938 0.0
O376 O 0.31465 0.65746 0.65068 0.0
C377 C 0.1014 0.60352 0.29579 0.0
O378 O 0.09506 0.61291 0.33211 0.0
O379 O 0.06643 0.58806 0.36462 0.0
Zn380 Zn 0.08914 0.58317 0.37389 0.0
O381 O 0.09852 0.59579 0.43508 0.0
C382 C 0.08005 0.55428 0.42 0.0
O383 O 0.06774 0.56273 0.43082 0.0
O384 O 0.10047 0.58896 0.30381 0.0
C385 C 0.09499 0.59447 0.48585 0.0
O386 O 0.08419 0.58456 0.50071 0.0
C387 C 0.05962 0.60043 0.37963 0.0
O388 O 0.06769 0.61172 0.40201 0.0
O389 O 0.09129 0.56042 0.39376 0.0
C390 C 0.14737 0.3455 0.0235 0.0
O391 O 0.13793 0.33791 0.0565 0.0
O392 O 0.16461 0.31238 0.09991 0.0
Zn393 Zn 0.1675 0.33549 0.107 0.0
O394 O 0.15368 0.34375 0.16695 0.0
C395 C 0.19347 0.33438 0.17648 0.0
O396 O 0.18287 0.32749 0.20689 0.0
O397 O 0.16169 0.34618 0.03588 0.0
C398 C 0.15657 0.35699 0.18746 0.0
O399 O 0.16855 0.36488 0.16905 0.0
C400 C 0.15258 0.30534 0.11715 0.0
O401 O 0.14125 0.31336 0.13957 0.0
O402 O 0.18971 0.33933 0.12876 0.0
C403 C 0.39433 0.39 0.80704 0.0
O404 O 0.40293 0.37987 0.8337 0.0
O405 O 0.42948 0.40575 0.87466 0.0
Zn406 Zn 0.40673 0.40856 0.8916 0.0
O407 O 0.40006 0.39407 0.95196 0.0
C408 C 0.40967 0.44179 0.89432 0.0
O409 O 0.41769 0.43934 0.84892 0.0
O410 O 0.39403 0.40395 0.82396 0.0
C411 C 0.40395 0.39659 0.00182 0.0
O412 O 0.41263 0.40869 0.01335 0.0
C413 C 0.43745 0.39452 0.89347 0.0
O414 O 0.43069 0.38394 0.92425 0.0
O415 O 0.40339 0.43034 0.91864 0.0
H416 H 0.29597 0.17155 0.2034 0.0
H417 H 0.27972 0.14031 0.33084 0.0
H418 H 0.27004 0.17254 0.1642 0.0
H419 H 0.25358 0.14142 0.29133 0.0
H420 H 0.21153 0.13803 0.17093 0.0
H421 H 0.23807 0.13455 0.20507 0.0
H422 H 0.24528 0.18407 0.19708 0.0
H423 H 0.21897 0.18757 0.16302 0.0
C424 C 0.28689 0.16481 0.22294 0.0
C425 C 0.2899 0.15595 0.27059 0.0
C426 C 0.27201 0.16544 0.20051 0.0
C427 C 0.25976 0.15718 0.22498 0.0
C428 C 0.26283 0.14785 0.27146 0.0
C429 C 0.27776 0.14728 0.2942 0.0
C430 C 0.21884 0.14814 0.17613 0.0
C431 C 0.21317 0.16307 0.16417 0.0
C432 C 0.23397 0.14615 0.196 0.0
C433 C 0.24374 0.15903 0.20357 0.0
C434 C 0.23809 0.1739 0.19101 0.0
C435 C 0.22298 0.17591 0.17173 0.0
H436 H 0.0522 0.96222 0.44183 0.0
H437 H 0.10211 0.96178 0.42495 0.0
H438 H 0.05336 0.98861 0.47737 0.0
H439 H 0.10322 0.98833 0.46055 0.0
H440 H 0.09808 0.02942 0.58524 0.0
H441 H 0.09773 0.00278 0.55014 0.0
H442 H 0.06016 0.01473 0.44 0.0
H443 H 0.06044 0.0412 0.47487 0.0
C444 C 0.06343 0.96776 0.44559 0.0
C445 C 0.07706 0.95992 0.4304 0.0
C446 C 0.06407 0.98291 0.46576 0.0
C447 C 0.07837 0.99053 0.47163 0.0
C448 C 0.09205 0.98268 0.45684 0.0
C449 C 0.0914 0.96754 0.43611 0.0
C450 C 0.08974 0.02634 0.55359 0.0
C451 C 0.07926 0.03741 0.53294 0.0
C452 C 0.08962 0.01113 0.53329 0.0
C453 C 0.07889 0.00669 0.49245 0.0
C454 C 0.06844 0.01778 0.4719 0.0
C455 C 0.06866 0.03296 0.49175 0.0
H456 H 0.21061 0.85174 0.7775 0.0
H457 H 0.22832 0.82045 0.9022 0.0
H458 H 0.23542 0.85069 0.7293 0.0
H459 H 0.25322 0.81969 0.85461 0.0
H460 H 0.28682 0.80538 0.71885 0.0
H461 H 0.26261 0.80841 0.76911 0.0
H462 H 0.26291 0.85755 0.7337 0.0
H463 H 0.28712 0.85446 0.68221 0.0
C464 C 0.21987 0.84484 0.79515 0.0
C465 C 0.21744 0.83607 0.84349 0.0
C466 C 0.23412 0.84429 0.76756 0.0
C467 C 0.24624 0.83497 0.78774 0.0
C468 C 0.24401 0.82673 0.83736 0.0
C469 C 0.22977 0.82726 0.86488 0.0
C470 C 0.28173 0.81684 0.72153 0.0
C471 C 0.28893 0.82968 0.69655 0.0
C472 C 0.2679 0.8186 0.75082 0.0
C473 C 0.26091 0.83325 0.75601 0.0
C474 C 0.26796 0.84609 0.73024 0.0
C475 C 0.28183 0.84432 0.7008 0.0
H476 H 0.39335 0.03518 0.94301 0.0
H477 H 0.44242 0.03543 0.97953 0.0
H478 H 0.39068 0.01049 0.99195 0.0
H479 H 0.4398 0.01077 0.02733 0.0
H480 H 0.42834 0.97485 0.15564 0.0
H481 H 0.42856 0.00027 0.11164 0.0
H482 H 0.39825 0.98314 0.98319 0.0
H483 H 0.39778 0.95775 0.02776 0.0
C484 C 0.40357 0.02994 0.96119 0.0
C485 C 0.41809 0.03729 0.95743 0.0
C486 C 0.40204 0.01579 0.98911 0.0
C487 C 0.415 0.00873 0.01394 0.0
C488 C 0.42952 0.01604 0.00964 0.0
C489 C 0.43105 0.03013 0.98178 0.0
C490 C 0.42158 0.97653 0.11837 0.0
C491 C 0.41314 0.96423 0.09502 0.0
C492 C 0.42179 0.99109 0.09293 0.0
C493 C 0.41358 0.99368 0.04352 0.0
C494 C 0.40463 0.98155 0.02137 0.0
C495 C 0.40441 0.96698 0.04685 0.0
H496 H 0.77532 0.84277 0.87694 0.0
H497 H 0.78802 0.82324 0.71867 0.0
H498 H 0.74816 0.84344 0.8479 0.0
H499 H 0.76096 0.82376 0.69012 0.0
H500 H 0.71356 0.84167 0.6364 0.0
H501 H 0.74054 0.84262 0.66669 0.0
H502 H 0.72707 0.82488 0.82678 0.0
H503 H 0.70008 0.82409 0.79685 0.0
C504 C 0.77233 0.83862 0.83604 0.0
C505 C 0.78383 0.83295 0.80014 0.0
C506 C 0.75677 0.83894 0.81951 0.0
C507 C 0.75243 0.83369 0.76666 0.0
C508 C 0.76396 0.82809 0.73079 0.0
C509 C 0.77946 0.82769 0.74736 0.0
C510 C 0.71634 0.83803 0.67813 0.0
C511 C 0.70468 0.83275 0.71414 0.0
C512 C 0.73181 0.8385 0.69538 0.0
C513 C 0.73593 0.83378 0.74908 0.0
C514 C 0.72424 0.82874 0.78536 0.0
C515 C 0.70879 0.8282 0.76804 0.0
H516 H 0.89915 0.96481 0.38563 0.0
H517 H 0.91802 0.95313 0.54596 0.0
H518 H 0.89719 0.99193 0.4138 0.0
H519 H 0.91629 0.98022 0.57365 0.0
H520 H 0.89899 0.02827 0.62231 0.0
H521 H 0.89785 0.001 0.59501 0.0
H522 H 0.91523 0.0131 0.43301 0.0
H523 H 0.91614 0.04026 0.4598 0.0
C524 C 0.90284 0.96801 0.4269 0.0
C525 C 0.90882 0.95682 0.46343 0.0
C526 C 0.90178 0.98356 0.44295 0.0
C527 C 0.90664 0.98824 0.4959 0.0
C528 C 0.91229 0.97698 0.53281 0.0
C529 C 0.91338 0.96146 0.51674 0.0
C530 C 0.90248 0.02511 0.58079 0.0
C531 C 0.9077 0.03643 0.54331 0.0
C532 C 0.90189 0.00949 0.56523 0.0
C533 C 0.90646 0.00488 0.51184 0.0
C534 C 0.91143 0.01627 0.47418 0.0
C535 C 0.91206 0.03184 0.48973 0.0
H536 H 0.71913 0.15566 0.35292 0.0
H537 H 0.69857 0.16655 0.19462 0.0
H538 H 0.74475 0.15483 0.30957 0.0
H539 H 0.72397 0.16534 0.15129 0.0
H540 H 0.77262 0.18257 0.1091 0.0
H541 H 0.74698 0.18097 0.15045 0.0
H542 H 0.76131 0.14086 0.24482 0.0
H543 H 0.7872 0.14269 0.20425 0.0
C544 C 0.72005 0.15769 0.30883 0.0
C545 C 0.70684 0.16134 0.27734 0.0
C546 C 0.73471 0.15714 0.28391 0.0
C547 C 0.73643 0.16017 0.227 0.0
C548 C 0.72312 0.16328 0.19538 0.0
C549 C 0.70853 0.1639 0.22025 0.0
C550 C 0.77031 0.17334 0.13837 0.0
C551 C 0.78198 0.16277 0.15335 0.0
C552 C 0.75555 0.17236 0.16192 0.0
C553 C 0.75206 0.16077 0.20094 0.0
C554 C 0.76367 0.15004 0.21538 0.0
C555 C 0.77847 0.15103 0.19181 0.0
H556 H 0.60107 0.0356 0.91261 0.0
H557 H 0.558 0.04378 -0.00068 0.0
H558 H 0.60145 0.00892 0.94768 0.0
H559 H 0.55839 0.01724 0.03396 0.0
H560 H 0.55568 0.96405 0.02766 0.0
H561 H 0.55603 0.9905 0.99233 0.0
H562 H 0.60388 0.99524 0.04227 0.0
H563 H 0.60357 0.96863 0.07803 0.0
C564 C 0.59167 0.03169 0.93886 0.0
C565 C 0.57949 0.04177 0.95312 0.0
C566 C 0.59195 0.01648 0.95923 0.0
C567 C 0.57995 0.01105 0.99353 0.0
C568 C 0.56773 0.02109 0.00726 0.0
C569 C 0.56754 0.0363 0.98753 0.0
C570 C 0.56629 0.97071 0.03127 0.0
C571 C 0.57959 0.96426 0.05576 0.0
C572 C 0.56646 0.98588 0.01118 0.0
C573 C 0.57998 0.9949 0.01457 0.0
C574 C 0.59334 0.98847 0.03878 0.0
C575 C 0.59312 0.97331 0.05958 0.0
H576 H 0.71727 0.64716 0.62944 0.0
H577 H 0.70424 0.66491 0.79002 0.0
H578 H 0.74433 0.6461 0.65905 0.0
H579 H 0.73124 0.66409 0.81913 0.0
H580 H 0.77959 0.64826 0.86989 0.0
H581 H 0.75253 0.64626 0.84076 0.0
H582 H 0.76474 0.66485 0.68058 0.0
H583 H 0.79173 0.66662 0.70919 0.0
C584 C 0.72016 0.65079 0.67106 0.0
C585 C 0.70861 0.65618 0.70727 0.0
C586 C 0.73567 0.65025 0.68793 0.0
C587 C 0.73994 0.65505 0.7414 0.0
C588 C 0.72832 0.66013 0.77792 0.0
C589 C 0.71285 0.6607 0.76104 0.0
C590 C 0.7765 0.65184 0.82838 0.0
C591 C 0.7878 0.65765 0.79194 0.0
C592 C 0.761 0.65075 0.81178 0.0
C593 C 0.75649 0.65541 0.75836 0.0
C594 C 0.76785 0.66098 0.72173 0.0
C595 C 0.78332 0.66209 0.73833 0.0
H596 H 0.55246 0.46329 0.95158 0.0
H597 H 0.60205 0.46158 0.9257 0.0
H598 H 0.55474 0.48971 0.98585 0.0
H599 H 0.60429 0.48822 0.96035 0.0
H600 H 0.60039 0.53018 0.08596 0.0
H601 H 0.59977 0.5034 0.05164 0.0
H602 H 0.56193 0.51532 0.94271 0.0
H603 H 0.5625 0.54185 0.97648 0.0
C604 C 0.56386 0.46854 0.9532 0.0
C605 C 0.57707 0.46036 0.93566 0.0
C606 C 0.56515 0.48371 0.97267 0.0
C607 C 0.57968 0.49102 0.97554 0.0
C608 C 0.59296 0.48281 0.95881 0.0
C609 C 0.59165 0.46763 0.93866 0.0
C610 C 0.59198 0.52706 0.0546 0.0
C611 C 0.58144 0.53811 0.03416 0.0
C612 C 0.59169 0.51178 0.03479 0.0
C613 C 0.58074 0.5073 0.99479 0.0
C614 C 0.57037 0.51841 0.97403 0.0
C615 C 0.57075 0.53364 0.99329 0.0
H616 H 0.7049 0.33532 0.19311 0.0
H617 H 0.71806 0.35396 0.35223 0.0
H618 H 0.73177 0.33644 0.16294 0.0
H619 H 0.74504 0.35531 0.32149 0.0
H620 H 0.79219 0.33361 0.27081 0.0
H621 H 0.7654 0.33635 0.30074 0.0
H622 H 0.75301 0.35407 0.1395 0.0
H623 H 0.77987 0.35109 0.10907 0.0
C624 C 0.71351 0.33981 0.22151 0.0
C625 C 0.70935 0.34444 0.27526 0.0
C626 C 0.72891 0.34057 0.204 0.0
C627 C 0.74055 0.34594 0.23983 0.0
C628 C 0.73635 0.35095 0.29314 0.0
C629 C 0.7209 0.35025 0.31065 0.0
C630 C 0.78379 0.33818 0.24174 0.0
C631 C 0.78815 0.34202 0.18738 0.0
C632 C 0.76845 0.33987 0.2591 0.0
C633 C 0.75707 0.34542 0.22251 0.0
C634 C 0.76148 0.34961 0.16849 0.0
C635 C 0.77687 0.34795 0.15112 0.0
H636 H 0.90008 0.45918 0.50941 0.0
H637 H 0.92907 0.47586 0.64253 0.0
H638 H 0.90104 0.4847 0.46604 0.0
H639 H 0.9297 0.50146 0.59985 0.0
H640 H 0.94441 0.53796 0.47492 0.0
H641 H 0.94167 0.5128 0.51919 0.0
H642 H 0.8932 0.51173 0.47396 0.0
H643 H 0.89603 0.53689 0.42837 0.0
C644 C 0.90647 0.46835 0.52987 0.0
C645 C 0.91462 0.46544 0.57922 0.0
C646 C 0.90697 0.483 0.50507 0.0
C647 C 0.91559 0.49508 0.52912 0.0
C648 C 0.92322 0.49232 0.57961 0.0
C649 C 0.92276 0.47767 0.60432 0.0
C650 C 0.93316 0.53236 0.47415 0.0
C651 C 0.92043 0.53946 0.44816 0.0
C652 C 0.93156 0.51797 0.50001 0.0
C653 C 0.91717 0.51032 0.50074 0.0
C654 C 0.90447 0.51728 0.4739 0.0
C655 C 0.90608 0.5317 0.44785 0.0
H656 H 0.27823 0.34235 0.37228 0.0
H657 H 0.29288 0.32766 0.20955 0.0
H658 H 0.25157 0.34455 0.33906 0.0
H659 H 0.26626 0.3296 0.17678 0.0
H660 H 0.21871 0.3466 0.12291 0.0
H661 H 0.2454 0.34796 0.15656 0.0
H662 H 0.23122 0.32661 0.3102 0.0
H663 H 0.2046 0.3255 0.27715 0.0
C664 C 0.27578 0.33965 0.32942 0.0
C665 C 0.28766 0.33475 0.29366 0.0
C666 C 0.2605 0.34084 0.31046 0.0
C667 C 0.25679 0.33719 0.25533 0.0
C668 C 0.26875 0.33267 0.21929 0.0
C669 C 0.284 0.33145 0.23824 0.0
C670 C 0.22129 0.3423 0.164 0.0
C671 C 0.20955 0.33587 0.19723 0.0
C672 C 0.23658 0.34301 0.18317 0.0
C673 C 0.24043 0.33737 0.23602 0.0
C674 C 0.22862 0.33125 0.2696 0.0
C675 C 0.21336 0.3305 0.25043 0.0
H676 H 0.43906 0.53048 0.01845 0.0
H677 H 0.39217 0.52734 0.08074 0.0
H678 H 0.43628 0.50526 0.97497 0.0
H679 H 0.38926 0.50207 0.03593 0.0
H680 H 0.39698 0.45008 0.9938 0.0
H681 H 0.39839 0.47528 0.03931 0.0
H682 H 0.42257 0.49402 0.89767 0.0
H683 H 0.42149 0.46878 0.85273 0.0
C684 C 0.42814 0.5244 0.02291 0.0
C685 C 0.41581 0.53095 0.05289 0.0
C686 C 0.4265 0.50997 -0.00246 0.0
C687 C 0.41248 0.50174 0.00128 0.0
C688 C 0.40025 0.50809 0.03246 0.0
C689 C 0.4019 0.52257 0.05807 0.0
C690 C 0.40249 0.45962 0.97218 0.0
C691 C 0.40923 0.45739 0.91977 0.0
C692 C 0.40324 0.47407 -0.00177 0.0
C693 C 0.41073 0.48662 0.9724 0.0
C694 C 0.417 0.48451 0.91921 0.0
C695 C 0.41629 0.47006 0.89325 0.0
H696 H 0.29265 0.64264 0.69917 0.0
H697 H 0.28494 0.69193 0.68084 0.0
H698 H 0.26884 0.64055 0.75355 0.0
H699 H 0.26115 0.68977 0.73447 0.0
H700 H 0.22944 0.68415 0.88184 0.0
H701 H 0.25384 0.68457 0.83105 0.0
H702 H 0.24032 0.64303 0.74367 0.0
H703 H 0.21594 0.64247 0.79499 0.0
C704 C 0.28582 0.653 0.70632 0.0
C705 C 0.29072 0.66747 0.68579 0.0
C706 C 0.27218 0.65178 0.73739 0.0
C707 C 0.26321 0.66502 0.74877 0.0
C708 C 0.26797 0.67941 0.72731 0.0
C709 C 0.28154 0.68062 0.69614 0.0
C710 C 0.23172 0.675 0.85229 0.0
C711 C 0.2207 0.66333 0.84226 0.0
C712 C 0.24566 0.67531 0.82286 0.0
C713 C 0.24891 0.66395 0.78284 0.0
C714 C 0.23818 0.65191 0.77439 0.0
C715 C 0.2242 0.65162 0.80374 0.0
H716 H 0.10357 0.46542 0.57375 0.0
H717 H 0.0586 0.45902 0.4981 0.0
H718 H 0.10411 0.49222 0.53984 0.0
H719 H 0.05925 0.48552 0.46411 0.0
H720 H 0.05707 0.53801 0.47057 0.0
H721 H 0.05788 0.51157 0.5051 0.0
H722 H 0.10531 0.50718 0.44974 0.0
H723 H 0.10459 0.53393 0.41534 0.0
C724 C 0.09382 0.46972 0.55 0.0
C725 C 0.08101 0.46012 0.53888 0.0
C726 C 0.09419 0.485 0.53027 0.0
C727 C 0.0817 0.49097 0.49952 0.0
C728 C 0.06896 0.48132 0.48832 0.0
C729 C 0.06862 0.4661 0.50769 0.0
C730 C 0.0677 0.53146 0.4656 0.0
C731 C 0.08075 0.53806 0.43993 0.0
C732 C 0.06813 0.51626 0.48526 0.0
C733 C 0.08163 0.50728 0.47989 0.0
C734 C 0.09478 0.51389 0.45476 0.0
C735 C 0.09433 0.52914 0.43474 0.0
H736 H 0.15846 0.12837 0.96045 0.0
H737 H 0.11466 0.15009 8e-05 0.0
H738 H 0.14656 0.11618 0.87951 0.0
H739 H 0.10283 0.13784 0.91997 0.0
H740 H 0.09267 0.12945 0.73752 0.0
H741 H 0.10498 0.1405 0.81887 0.0
H742 H 0.12637 0.09631 0.85468 0.0
H743 H 0.11411 0.08518 0.77243 0.0
C744 C 0.14631 0.13051 0.95202 0.0
C745 C 0.13753 0.14026 0.98652 0.0
C746 C 0.13948 0.12345 0.90591 0.0
C747 C 0.12379 0.12612 0.89331 0.0
C748 C 0.11501 0.13574 0.92818 0.0
C749 C 0.12178 0.1427 0.97425 0.0
C750 C 0.09997 0.12204 0.76266 0.0
C751 C 0.10237 0.10642 0.74857 0.0
C752 C 0.10697 0.12837 0.80947 0.0
C753 C 0.11658 0.11926 0.84328 0.0
C754 C 0.1191 0.10364 0.82912 0.0
C755 C 0.11201 0.09726 0.78228 0.0
H756 H 0.15725 0.84678 0.04593 0.0
H757 H 0.14381 0.88879 0.96084 0.0
H758 H 0.14434 0.85595 0.12938 0.0
H759 H 0.13057 0.89777 0.04387 0.0
H760 H 0.1183 0.91467 0.21758 0.0
H761 H 0.13388 0.90667 0.13817 0.0
H762 H 0.11792 0.85951 0.15918 0.0
H763 H 0.10271 0.86739 0.239 0.0
C764 C 0.1516 0.858 0.04508 0.0
C765 C 0.15147 0.867 0.99661 0.0
C766 C 0.14411 0.86321 0.09283 0.0
C767 C 0.13627 0.87752 0.09315 0.0
C768 C 0.1366 0.88676 0.04522 0.0
C769 C 0.14414 0.88157 -0.0025 0.0
C770 C 0.11815 0.90259 0.20525 0.0
C771 C 0.10926 0.89167 0.23461 0.0
C772 C 0.12703 0.89802 0.15963 0.0
C773 C 0.1272 0.88244 0.14242 0.0
C774 C 0.11829 0.87155 0.17188 0.0
C775 C 0.10946 0.8761 0.21745 0.0
H776 H 0.36053 0.89084 0.20689 0.0
H777 H 0.40234 0.90367 0.2942 0.0
H778 H 0.3509 0.87787 0.28969 0.0
H779 H 0.39255 0.89103 0.37729 0.0
H780 H 0.37995 0.84996 0.48735 0.0
H781 H 0.38835 0.86458 0.40681 0.0
H782 H 0.34167 0.88168 0.38399 0.0
H783 H 0.33314 0.86671 0.46433 0.0
C784 C 0.36758 0.89108 0.24395 0.0
C785 C 0.38226 0.89817 0.2438 0.0
C786 C 0.36202 0.8837 0.29151 0.0
C787 C 0.37102 0.88328 0.33996 0.0
C788 C 0.38546 0.89087 0.34032 0.0
C789 C 0.39103 0.89821 0.29278 0.0
C790 C 0.37145 0.85682 0.46524 0.0
C791 C 0.35587 0.85717 0.48229 0.0
C792 C 0.3763 0.86532 0.41925 0.0
C793 C 0.36571 0.87441 0.38919 0.0
C794 C 0.35009 0.8747 0.40602 0.0
C795 C 0.34522 0.86617 0.45213 0.0
H796 H 0.38966 0.12737 0.75353 0.0
H797 H 0.37951 0.07879 0.72828 0.0
H798 H 0.37453 0.13393 0.67205 0.0
H799 H 0.36402 0.08543 0.647 0.0
H800 H 0.35593 0.10324 0.46741 0.0
H801 H 0.36809 0.09507 0.55355 0.0
H802 H 0.34831 0.13474 0.63685 0.0
H803 H 0.33644 0.14313 0.5504 0.0
C804 C 0.38409 0.11808 0.73084 0.0
C805 C 0.38585 0.10255 0.74732 0.0
C806 C 0.37529 0.12187 0.6843 0.0
C807 C 0.368 0.11021 0.65307 0.0
C808 C 0.36961 0.09467 0.66986 0.0
C809 C 0.37844 0.09087 0.71653 0.0
C810 C 0.35401 0.11013 0.50423 0.0
C811 C 0.34534 0.12393 0.50187 0.0
C812 C 0.36093 0.10539 0.55373 0.0
C813 C 0.35931 0.11433 0.602 0.0
C814 C 0.35004 0.12775 0.60016 0.0
C815 C 0.34315 0.1325 0.55066 0.0
H816 H 0.83392 0.85296 0.05256 0.0
H817 H 0.87367 0.87077 0.96393 0.0
H818 H 0.84423 0.86375 0.13849 0.0
H819 H 0.88396 0.88142 0.04969 0.0
H820 H 0.89109 0.91016 0.20619 0.0
H821 H 0.87851 0.90153 0.12103 0.0
H822 H 0.86692 0.85795 0.19898 0.0
H823 H 0.87936 0.86655 0.28405 0.0
C824 C 0.84479 0.85926 0.05133 0.0
C825 C 0.85301 0.86095 0.00149 0.0
C826 C 0.85072 0.86536 0.10055 0.0
C827 C 0.86491 0.8734 0.1008 0.0
C828 C 0.87292 0.87543 0.05071 0.0
C829 C 0.86706 0.86923 0.00165 0.0
C830 C 0.88578 0.89877 0.20524 0.0
C831 C 0.88629 0.88901 0.25179 0.0
C832 C 0.87863 0.89382 0.15643 0.0
C833 C 0.87174 0.87906 0.15336 0.0
C834 C 0.87197 0.86945 0.20028 0.0
C835 C 0.87921 0.87434 0.24889 0.0
H836 H 0.8796 0.15588 0.99458 0.0
H837 H 0.83738 0.12945 0.97411 0.0
H838 H 0.89054 0.14346 0.91315 0.0
H839 H 0.84839 0.11705 0.8919 0.0
H840 H 0.88178 0.0869 0.78418 0.0
H841 H 0.86999 0.09866 0.86618 0.0
H842 H 0.88574 0.14377 0.81235 0.0
H843 H 0.89757 0.13212 0.73108 0.0
C844 C 0.87263 0.14743 0.97266 0.0
C845 C 0.8576 0.14368 0.99075 0.0
C846 C 0.87888 0.14037 0.92581 0.0
C847 C 0.8703 0.12933 0.89604 0.0
C848 C 0.85531 0.12544 0.91431 0.0
C849 C 0.84898 0.13261 0.96112 0.0
C850 C 0.88272 0.09932 0.78993 0.0
C851 C 0.89067 0.10856 0.75126 0.0
C852 C 0.87589 0.10606 0.83666 0.0
C853 C 0.87701 0.12212 0.84574 0.0
C854 C 0.88487 0.13133 0.80685 0.0
C855 C 0.89159 0.12464 0.76014 0.0
H856 H 0.59982 0.13723 0.77428 0.0
H857 H 0.61634 0.09191 0.7255 0.0
H858 H 0.61236 0.14865 0.6939 0.0
H859 H 0.62883 0.10344 0.64432 0.0
H860 H 0.6616 0.13393 0.53556 0.0
H861 H 0.65039 0.12188 0.61828 0.0
H862 H 0.60812 0.14782 0.59313 0.0
H863 H 0.61923 0.15988 0.5114 0.0
C864 C 0.60613 0.12968 0.74641 0.0
C865 C 0.60701 0.11363 0.75616 0.0
C866 C 0.61327 0.13624 0.7002 0.0
C867 C 0.6215 0.12693 0.66264 0.0
C868 C 0.62265 0.11091 0.67279 0.0
C869 C 0.61541 0.10431 0.71904 0.0
C870 C 0.64993 0.13707 0.54787 0.0
C871 C 0.64133 0.1479 0.51704 0.0
C872 C 0.64349 0.1301 0.59497 0.0
C873 C 0.62841 0.13397 0.61229 0.0
C874 C 0.61985 0.14477 0.58131 0.0
C875 C 0.62621 0.15163 0.53425 0.0
H876 H 0.61786 0.86984 0.53253 0.0
H877 H 0.66064 0.85505 0.45566 0.0
H878 H 0.61031 0.88288 0.44732 0.0
H879 H 0.65308 0.86826 0.37035 0.0
H880 H 0.62233 0.87412 0.21319 0.0
H881 H 0.63284 0.86387 0.29919 0.0
H882 H 0.61732 0.90486 0.38562 0.0
H883 H 0.60664 0.91513 0.29937 0.0
C884 C 0.62571 0.86947 0.49758 0.0
C885 C 0.6398 0.86131 0.50074 0.0
C886 C 0.62143 0.87706 0.44889 0.0
C887 C 0.6311 0.87659 0.40215 0.0
C888 C 0.64534 0.8687 0.4056 0.0
C889 C 0.64968 0.86118 0.45449 0.0
C890 C 0.62126 0.88103 0.25039 0.0
C891 C 0.61355 0.89539 0.24953 0.0
C892 C 0.62739 0.87519 0.29961 0.0
C893 C 0.62586 0.88354 0.34918 0.0
C894 C 0.61852 0.8981 0.34811 0.0
C895 C 0.61248 0.90401 0.2987 0.0
H896 H 0.65822 0.62537 0.47502 0.0
H897 H 0.6192 0.65684 0.47938 0.0
H898 H 0.64759 0.61323 0.39168 0.0
H899 H 0.60868 0.64472 0.39658 0.0
H900 H 0.60519 0.63216 0.21387 0.0
H901 H 0.61662 0.64323 0.29685 0.0
H902 H 0.62377 0.59725 0.36301 0.0
H903 H 0.61226 0.58603 0.27941 0.0
C904 C 0.64741 0.6297 0.45821 0.0
C905 C 0.63958 0.6421 0.48364 0.0
C906 C 0.64129 0.62268 0.41079 0.0
C907 C 0.62735 0.62808 0.38765 0.0
C908 C 0.61953 0.64044 0.41319 0.0
C909 C 0.62554 0.64733 0.46075 0.0
C910 C 0.60922 0.62436 0.24592 0.0
C911 C 0.60776 0.6082 0.24013 0.0
C912 C 0.6157 0.63073 0.29358 0.0
C913 C 0.621 0.6211 0.33645 0.0
C914 C 0.61985 0.60492 0.3304 0.0
C915 C 0.6132 0.59852 0.28275 0.0
H916 H 0.5929 0.36761 0.73563 0.0
H917 H 0.61639 0.41169 0.7197 0.0
H918 H 0.60565 0.35842 0.65202 0.0
H919 H 0.62934 0.4023 0.6357 0.0
H920 H 0.6607 0.36912 0.5237 0.0
H921 H 0.64915 0.3797 0.60854 0.0
H922 H 0.60362 0.36703 0.54971 0.0
H923 H 0.61497 0.35667 0.46535 0.0
C924 C 0.60083 0.37533 0.7144 0.0
C925 C 0.60359 0.39041 0.7341 0.0
C926 C 0.60809 0.37006 0.66646 0.0
C927 C 0.61842 0.37968 0.6375 0.0
C928 C 0.62146 0.39466 0.65757 0.0
C929 C 0.61399 0.40004 0.7053 0.0
C930 C 0.64823 0.36865 0.52894 0.0
C931 C 0.63875 0.36202 0.48798 0.0
C932 C 0.64164 0.37477 0.57721 0.0
C933 C 0.62553 0.37409 0.58554 0.0
C934 C 0.61609 0.36757 0.54443 0.0
C935 C 0.62261 0.36169 0.49607 0.0
H936 H 0.89875 0.40769 0.77491 0.0
H937 H 0.86508 0.38172 0.68033 0.0
H938 H 0.88874 0.39624 0.85993 0.0
H939 H 0.85537 0.36996 0.76509 0.0
H940 H 0.83291 0.36157 0.93369 0.0
H941 H 0.84148 0.37485 0.84986 0.0
H942 H 0.88904 0.3714 0.90499 0.0
H943 H 0.88047 0.35854 0.98909 0.0
C944 C 0.8892 0.39956 0.77225 0.0
C945 C 0.88276 0.39557 0.72081 0.0
C946 C 0.88352 0.39292 0.82096 0.0
C947 C 0.87133 0.38207 0.81934 0.0
C948 C 0.86466 0.37838 0.76796 0.0
C949 C 0.87029 0.38508 0.71929 0.0
C950 C 0.84519 0.36365 0.92785 0.0
C951 C 0.856 0.35901 0.96809 0.0
C952 C 0.85011 0.37122 0.87972 0.0
C953 C 0.86595 0.37426 0.87076 0.0
C954 C 0.87674 0.36952 0.91097 0.0
C955 C 0.87182 0.36203 0.95907 0.0
H956 H 0.88449 0.58882 0.21946 0.0
H957 H 0.89954 0.6347 0.26762 0.0
H958 H 0.87211 0.59982 0.13709 0.0
H959 H 0.88712 0.64558 0.18624 0.0
H960 H 0.88041 0.65675 0.00438 0.0
H961 H 0.89175 0.64481 0.08596 0.0
H962 H 0.85022 0.61756 0.10944 0.0
H963 H 0.83882 0.62945 0.0269 0.0
C964 C 0.88511 0.60122 0.21262 0.0
C965 C 0.89308 0.61087 0.24991 0.0
C966 C 0.87796 0.60752 0.16568 0.0
C967 C 0.87874 0.62354 0.15507 0.0
C968 C 0.88652 0.63316 0.19282 0.0
C969 C 0.89358 0.62691 0.23965 0.0
C970 C 0.87365 0.64822 0.02682 0.0
C971 C 0.85867 0.64411 0.00927 0.0
C972 C 0.88014 0.64142 0.07375 0.0
C973 C 0.87184 0.63032 0.10429 0.0
C974 C 0.85692 0.62602 0.08648 0.0
C975 C 0.85037 0.6329 0.03947 0.0
H976 H 0.34948 0.38257 0.48689 0.0
H977 H 0.34001 0.33858 0.56583 0.0
H978 H 0.36228 0.39163 0.57062 0.0
H979 H 0.35246 0.3478 0.65008 0.0
H980 H 0.39366 0.36144 0.75886 0.0
H981 H 0.37867 0.35323 0.67896 0.0
H982 H 0.35866 0.39906 0.66636 0.0
H983 H 0.37401 0.40742 0.74582 0.0
C984 C 0.34991 0.37491 0.52238 0.0
C985 C 0.34384 0.3598 0.51953 0.0
C986 C 0.3572 0.38014 0.57052 0.0
C987 C 0.35852 0.37039 0.61691 0.0
C988 C 0.3519 0.35549 0.61471 0.0
C989 C 0.34467 0.35024 0.56653 0.0
C990 C 0.38605 0.36978 0.73916 0.0
C991 C 0.38505 0.3851 0.75865 0.0
C992 C 0.37735 0.36503 0.69356 0.0
C993 C 0.36739 0.37546 0.66641 0.0
C994 C 0.36634 0.39078 0.68602 0.0
C995 C 0.37509 0.39556 0.73166 0.0
H996 H 0.33944 0.62636 0.47794 0.0
H997 H 0.37988 0.65595 0.47141 0.0
H998 H 0.34834 0.61293 0.39438 0.0
H999 H 0.38866 0.6426 0.38853 0.0
H1000 H 0.39009 0.62799 0.20888 0.0
H1001 H 0.37927 0.64042 0.29038 0.0
H1002 H 0.37132 0.59557 0.36477 0.0
H1003 H 0.38221 0.58296 0.28261 0.0
C1004 C 0.35018 0.63002 0.45864 0.0
C1005 C 0.35894 0.64225 0.48113 0.0
C1006 C 0.3553 0.62228 0.41112 0.0
C1007 C 0.36914 0.62678 0.38496 0.0
C1008 C 0.37785 0.63901 0.40749 0.0
C1009 C 0.37284 0.64661 0.45512 0.0
C1010 C 0.38597 0.62072 0.24235 0.0
C1011 C 0.38713 0.60447 0.23942 0.0
C1012 C 0.37983 0.62787 0.28913 0.0
C1013 C 0.37458 0.61896 0.33401 0.0
C1014 C 0.37523 0.6027 0.33058 0.0
C1015 C 0.38153 0.5955 0.28374 0.0
H1016 H 0.1232 0.65615 0.00239 0.0
H1017 H 0.16498 0.62946 0.0293 0.0
H1018 H 0.11139 0.6441 0.08303 0.0
H1019 H 0.15308 0.61743 0.11072 0.0
H1020 H 0.11809 0.58806 0.2161 0.0
H1021 H 0.13086 0.59929 0.13482 0.0
H1022 H 0.11551 0.64489 0.18437 0.0
H1023 H 0.10274 0.6338 0.26477 0.0
C1024 C 0.12989 0.64774 0.02559 0.0
C1025 C 0.14506 0.64381 0.00955 0.0
C1026 C 0.12313 0.64088 0.07195 0.0
C1027 C 0.13133 0.62987 0.10327 0.0
C1028 C 0.14645 0.6258 0.08707 0.0
C1029 C 0.15329 0.63277 0.04075 0.0
C1030 C 0.11746 0.60047 0.20954 0.0
C1031 C 0.10934 0.61002 0.24673 0.0
C1032 C 0.12484 0.6069 0.16326 0.0
C1033 C 0.1241 0.62295 0.15318 0.0
C1034 C 0.1161 0.63246 0.19065 0.0
C1035 C 0.10884 0.62609 0.23689 0.0
H1036 H 0.1185 0.40934 0.76218 0.0
H1037 H 0.10166 0.36414 0.71332 0.0
H1038 H 0.13034 0.39777 0.84467 0.0
H1039 H 0.11344 0.35273 0.79514 0.0
H1040 H 0.11853 0.34237 0.97951 0.0
H1041 H 0.10811 0.35468 0.89696 0.0
H1042 H 0.15172 0.37821 0.87075 0.0
H1043 H 0.16227 0.36583 0.95395 0.0
C1044 C 0.11736 0.39697 0.76892 0.0
C1045 C 0.10908 0.38767 0.73138 0.0
C1046 C 0.1242 0.39035 0.81589 0.0
C1047 C 0.12271 0.37438 0.82636 0.0
C1048 C 0.1146 0.3651 0.78844 0.0
C1049 C 0.10792 0.37166 0.74143 0.0
C1050 C 0.12594 0.35016 0.95627 0.0
C1051 C 0.14125 0.35307 0.97315 0.0
C1052 C 0.11997 0.35716 0.90884 0.0
C1053 C 0.12913 0.36734 0.87737 0.0
C1054 C 0.14439 0.37046 0.89449 0.0
C1055 C 0.15044 0.36331 0.94183 0.0
H1056 H 0.12763 0.28685 0.14012 0.0
H1057 H 0.17557 0.28511 0.08828 0.0
H1058 H 0.12653 0.25859 0.13914 0.0
H1059 H 0.17464 0.25692 0.08904 0.0
H1060 H 0.16518 0.20654 0.05191 0.0
H1061 H 0.16422 0.23469 0.04349 0.0
H1062 H 0.13616 0.23713 0.19145 0.0
H1063 H 0.1367 0.20899 0.19876 0.0
C1064 C 0.13794 0.28044 0.12855 0.0
C1065 C 0.1517 0.28822 0.11442 0.0
C1066 C 0.13733 0.26423 0.12828 0.0
C1067 C 0.15051 0.25545 0.11422 0.0
C1068 C 0.1642 0.26328 0.09927 0.0
C1069 C 0.16477 0.27947 0.09917 0.0
C1070 C 0.15871 0.21309 0.08239 0.0
C1071 C 0.15106 0.20553 0.12611 0.0
C1072 C 0.15823 0.22924 0.07776 0.0
C1073 C 0.15019 0.23821 0.11697 0.0
C1074 C 0.14229 0.2306 0.16007 0.0
C1075 C 0.14268 0.21445 0.16447 0.0
H1076 H 0.9587 0.8721 0.37216 0.0
H1077 H 0.96073 0.92205 0.35809 0.0
H1078 H 0.98699 0.87092 0.36819 0.0
H1079 H 0.98887 0.92089 0.35533 0.0
H1080 H 0.03842 0.91388 0.30494 0.0
H1081 H 0.01028 0.91275 0.29787 0.0
H1082 H 0.0091 0.8778 0.42603 0.0
H1083 H 0.03732 0.87865 0.43223 0.0
C1084 C 0.96516 0.88282 0.36812 0.0
C1085 C 0.95745 0.89717 0.36552 0.0
C1086 C 0.98137 0.88215 0.36612 0.0
C1087 C 0.99019 0.89581 0.36138 0.0
C1088 C 0.98244 0.91012 0.35808 0.0
C1089 C 0.96628 0.9108 0.36006 0.0
C1090 C 0.03219 0.90583 0.33125 0.0
C1091 C 0.04011 0.89644 0.36947 0.0
C1092 C 0.01604 0.90525 0.3274 0.0
C1093 C 0.00743 0.89531 0.36179 0.0
C1094 C 0.01539 0.8855 0.39861 0.0
C1095 C 0.03157 0.88605 0.40236 0.0
H1096 H 0.32937 0.78672 0.57775 0.0
H1097 H 0.37243 0.78875 0.66901 0.0
H1098 H 0.33028 0.75852 0.58025 0.0
H1099 H 0.37346 0.76047 0.67065 0.0
H1100 H 0.3569 0.71177 0.72737 0.0
H1101 H 0.35893 0.7398 0.71685 0.0
H1102 H 0.3444 0.73591 0.54642 0.0
H1103 H 0.34209 0.70787 0.55715 0.0
C1104 C 0.33914 0.78116 0.59772 0.0
C1105 C 0.35078 0.79 0.62349 0.0
C1106 C 0.33971 0.76498 0.59887 0.0
C1107 C 0.35192 0.75725 0.62583 0.0
C1108 C 0.36379 0.76609 0.65019 0.0
C1109 C 0.36324 0.78229 0.64897 0.0
C1110 C 0.35425 0.71686 0.68752 0.0
C1111 C 0.34922 0.70759 0.64323 0.0
C1112 C 0.35551 0.73293 0.68139 0.0
C1113 C 0.35178 0.74008 0.63084 0.0
C1114 C 0.34716 0.73076 0.58611 0.0
C1115 C 0.34591 0.71469 0.59221 0.0
H1116 H 0.45876 0.07386 0.81965 0.0
H1117 H 0.46164 0.11997 0.88905 0.0
H1118 H 0.48677 0.07349 0.80781 0.0
H1119 H 0.48974 0.11968 0.87623 0.0
H1120 H 0.53981 0.10291 0.91525 0.0
H1121 H 0.51175 0.10614 0.91781 0.0
H1122 H 0.50813 0.08501 0.75634 0.0
H1123 H 0.53619 0.08151 0.75415 0.0
C1124 C 0.46535 0.08401 0.83177 0.0
C1125 C 0.45796 0.09692 0.85559 0.0
C1126 C 0.48142 0.08383 0.82463 0.0
C1127 C 0.4905 0.09655 0.84116 0.0
C1128 C 0.48308 0.10963 0.86369 0.0
C1129 C 0.46697 0.10982 0.87076 0.0
C1130 C 0.53305 0.09907 0.88005 0.0
C1131 C 0.54023 0.09183 0.83468 0.0
C1132 C 0.51696 0.10102 0.88138 0.0
C1133 C 0.50769 0.09576 0.83739 0.0
C1134 C 0.51493 0.08898 0.79124 0.0
C1135 C 0.53102 0.08704 0.78989 0.0
H1136 H 0.18408 0.78591 0.75851 0.0
H1137 H 0.15606 0.78801 0.90659 0.0
H1138 H 0.18253 0.75776 0.75982 0.0
H1139 H 0.15418 0.75975 0.90709 0.0
H1140 H 0.17004 0.70872 0.92307 0.0
H1141 H 0.17009 0.73701 0.9229 0.0
H1142 H 0.16444 0.73695 0.7453 0.0
H1143 H 0.16479 0.70872 0.74531 0.0
C1144 C 0.17748 0.78037 0.79115 0.0
C1145 C 0.1702 0.78921 0.83246 0.0
C1146 C 0.17651 0.76421 0.7917 0.0
C1147 C 0.16817 0.75649 0.83343 0.0
C1148 C 0.16084 0.76533 0.8747 0.0
C1149 C 0.16185 0.78153 0.87425 0.0
C1150 C 0.16872 0.71475 0.88404 0.0
C1151 C 0.16751 0.70648 0.83416 0.0
C1152 C 0.16867 0.73098 0.88397 0.0
C1153 C 0.16737 0.73926 0.83405 0.0
C1154 C 0.16576 0.73094 0.78438 0.0
C1155 C 0.16587 0.71475 0.78442 0.0
H1156 H 0.46251 0.92389 0.10738 0.0
H1157 H 0.46116 0.87649 0.16567 0.0
H1158 H 0.49065 0.92328 0.10879 0.0
H1159 H 0.48951 0.87601 0.16834 0.0
H1160 H 0.54054 0.87712 0.10467 0.0
H1161 H 0.51219 0.87634 0.10742 0.0
H1162 H 0.5115 0.92275 0.17474 0.0
H1163 H 0.53963 0.92369 0.17069 0.0
C1164 C 0.46821 0.91335 0.12084 0.0
C1165 C 0.45957 0.90025 0.13657 0.0
C1166 C 0.48438 0.91303 0.12198 0.0
C1167 C 0.49234 0.89963 0.13914 0.0
C1168 C 0.48372 0.88647 0.15454 0.0
C1169 C 0.46749 0.88678 0.15328 0.0
C1170 C 0.53431 0.8871 0.1204 0.0
C1171 C 0.54232 0.90052 0.13695 0.0
C1172 C 0.51808 0.88663 0.12218 0.0
C1173 C 0.50958 0.89955 0.14071 0.0
C1174 C 0.51767 0.91273 0.15907 0.0
C1175 C 0.53382 0.91323 0.15704 0.0
H1176 H 0.36786 0.20254 0.42768 0.0
H1177 H 0.31961 0.20326 0.37927 0.0
H1178 H 0.36788 0.23086 0.43197 0.0
H1179 H 0.31952 0.23139 0.38496 0.0
H1180 H 0.32841 0.28145 0.34102 0.0
H1181 H 0.32976 0.25333 0.33608 0.0
H1182 H 0.35752 0.2525 0.48486 0.0
H1183 H 0.35651 0.28079 0.48902 0.0
C1184 C 0.35725 0.20872 0.41828 0.0
C1185 C 0.34376 0.20065 0.4029 0.0
C1186 C 0.35724 0.22494 0.42101 0.0
C1187 C 0.34373 0.2334 0.4085 0.0
C1188 C 0.33021 0.22527 0.39381 0.0
C1189 C 0.33024 0.20911 0.39089 0.0
C1190 C 0.33483 0.2753 0.37267 0.0
C1191 C 0.34228 0.28336 0.41561 0.0
C1192 C 0.33554 0.25915 0.37 0.0
C1193 C 0.34363 0.25064 0.41036 0.0
C1194 C 0.3513 0.25871 0.45284 0.0
C1195 C 0.35065 0.27492 0.45539 0.0
H1196 H 0.95796 0.08288 0.5791 0.0
H1197 H 0.95836 0.0935 0.75377 0.0
H1198 H 0.9862 0.08325 0.57794 0.0
H1199 H 0.98662 0.09426 0.75227 0.0
H1200 H 0.03546 0.07275 0.74163 0.0
H1201 H 0.00741 0.07567 0.74362 0.0
H1202 H 0.00896 0.09952 0.58643 0.0
H1203 H 0.03708 0.09628 0.58382 0.0
C1204 C 0.96406 0.0855 0.61712 0.0
C1205 C 0.95591 0.08802 0.66665 0.0
C1206 C 0.98027 0.08581 0.61637 0.0
C1207 C 0.98869 0.08871 0.66508 0.0
C1208 C 0.9805 0.09172 0.71423 0.0
C1209 C 0.96429 0.09136 0.71503 0.0
C1210 C 0.02985 0.0787 0.70761 0.0
C1211 C 0.0385 0.08419 0.6624 0.0
C1212 C 0.01375 0.08047 0.70894 0.0
C1213 C 0.00591 0.0878 0.66513 0.0
C1214 C 0.01462 0.09363 0.6205 0.0
C1215 C 0.03074 0.09185 0.61915 0.0
H1216 H 0.83087 0.70842 0.01215 0.0
H1217 H 0.83646 0.709 0.83452 0.0
H1218 H 0.83106 0.73668 0.0133 0.0
H1219 H 0.83621 0.73725 0.83549 0.0
H1220 H 0.84689 0.78832 0.8592 0.0
H1221 H 0.85019 0.76022 0.86284 0.0
H1222 H 0.81393 0.75725 0.9859 0.0
H1223 H 0.81094 0.78528 0.98336 0.0
C1224 C 0.83216 0.71457 0.97335 0.0
C1225 C 0.83355 0.70646 0.92322 0.0
C1226 C 0.83219 0.73078 0.97397 0.0
C1227 C 0.83353 0.73925 0.92445 0.0
C1228 C 0.83534 0.73111 0.87447 0.0
C1229 C 0.83538 0.7149 0.87388 0.0
C1230 C 0.83971 0.78167 0.88732 0.0
C1231 C 0.82862 0.78903 0.92088 0.0
C1232 C 0.84154 0.76555 0.88919 0.0
C1233 C 0.8323 0.75646 0.92457 0.0
C1234 C 0.82141 0.76389 0.95877 0.0
C1235 C 0.81961 0.77998 0.95702 0.0
H1236 H 0.63165 0.21426 0.32938 0.0
H1237 H 0.67489 0.21358 0.41982 0.0
H1238 H 0.6312 0.2425 0.33484 0.0
H1239 H 0.6743 0.24179 0.42596 0.0
H1240 H 0.67731 0.29205 0.36308 0.0
H1241 H 0.67723 0.26381 0.36276 0.0
H1242 H 0.62831 0.26383 0.40146 0.0
H1243 H 0.6283 0.29215 0.401 0.0
C1244 C 0.641 0.22012 0.35076 0.0
C1245 C 0.65334 0.21167 0.37394 0.0
C1246 C 0.64069 0.23629 0.35416 0.0
C1247 C 0.65274 0.24438 0.3807 0.0
C1248 C 0.66495 0.23591 0.4046 0.0
C1249 C 0.66525 0.21973 0.40131 0.0
C1250 C 0.66653 0.28606 0.37169 0.0
C1251 C 0.6528 0.29436 0.38197 0.0
C1252 C 0.66652 0.26986 0.37183 0.0
C1253 C 0.65277 0.26159 0.38215 0.0
C1254 C 0.63905 0.26988 0.39279 0.0
C1255 C 0.63907 0.2861 0.3928 0.0
H1256 H 0.82106 0.28839 0.11198 0.0
H1257 H 0.87048 0.28805 0.08174 0.0
H1258 H 0.82124 0.26028 0.12041 0.0
H1259 H 0.87059 0.2598 0.08922 0.0
H1260 H 0.86661 0.21151 0.1715 0.0
H1261 H 0.8671 0.23961 0.15949 0.0
H1262 H 0.82474 0.23717 0.06445 0.0
H1263 H 0.82406 0.20916 0.0773 0.0
C1264 C 0.83196 0.28231 0.10674 0.0
C1265 C 0.84576 0.29048 0.0962 0.0
C1266 C 0.83204 0.26617 0.11127 0.0
C1267 C 0.84592 0.25779 0.10536 0.0
C1268 C 0.85973 0.26594 0.09457 0.0
C1269 C 0.85965 0.28212 0.08997 0.0
C1270 C 0.85742 0.21696 0.14794 0.0
C1271 C 0.84526 0.2081 0.1256 0.0
C1272 C 0.85776 0.23306 0.14076 0.0
C1273 C 0.84594 0.24063 0.11115 0.0
C1274 C 0.8339 0.23172 0.08818 0.0
C1275 C 0.83356 0.21564 0.09532 0.0
H1276 H 0.66973 0.7067 0.48482 0.0
H1277 H 0.65745 0.70673 0.65815 0.0
H1278 H 0.66848 0.73495 0.48361 0.0
H1279 H 0.6566 0.73495 0.65727 0.0
H1280 H 0.64433 0.78534 0.62871 0.0
H1281 H 0.64253 0.75716 0.62274 0.0
H1282 H 0.68345 0.75633 0.5195 0.0
H1283 H 0.68502 0.78448 0.52431 0.0
C1284 C 0.66674 0.71272 0.52264 0.0
C1285 C 0.66377 0.70446 0.57164 0.0
C1286 C 0.6661 0.72892 0.52201 0.0
C1287 C 0.66252 0.73723 0.5704 0.0
C1288 C 0.6592 0.72893 0.61909 0.0
C1289 C 0.65979 0.71274 0.61967 0.0
C1290 C 0.65286 0.77915 0.60437 0.0
C1291 C 0.66486 0.78715 0.57718 0.0
C1292 C 0.65188 0.76299 0.6012 0.0
C1293 C 0.66289 0.75447 0.57085 0.0
C1294 C 0.67467 0.76253 0.54266 0.0
C1295 C 0.67563 0.77868 0.54572 0.0
H1296 H 0.53308 0.42174 0.85435 0.0
H1297 H 0.53624 0.37207 0.87564 0.0
H1298 H 0.50494 0.42005 0.85612 0.0
H1299 H 0.50802 0.37027 0.87525 0.0
H1300 H 0.45873 0.37593 0.94445 0.0
H1301 H 0.48677 0.37633 0.93366 0.0
H1302 H 0.48248 0.41181 0.80808 0.0
H1303 H 0.45444 0.41183 0.82057 0.0
C1304 C 0.52775 0.41042 0.85852 0.0
C1305 C 0.53689 0.39705 0.86517 0.0
C1306 C 0.51159 0.40943 0.8592 0.0
C1307 C 0.50415 0.39502 0.86596 0.0
C1308 C 0.51333 0.38159 0.87098 0.0
C1309 C 0.52951 0.38261 0.87087 0.0
C1310 C 0.46376 0.38375 0.91428 0.0
C1311 C 0.45437 0.39393 0.88366 0.0
C1312 C 0.47987 0.38391 0.9078 0.0
C1313 C 0.48695 0.39414 0.87011 0.0
C1314 C 0.47747 0.40399 0.83825 0.0
C1315 C 0.46138 0.40394 0.84515 0.0
H1316 H 0.96255 0.61988 0.44166 0.0
H1317 H 0.96154 0.58581 0.31081 0.0
H1318 H 0.99076 0.62054 0.4368 0.0
H1319 H 0.98968 0.58696 0.30405 0.0
H1320 H 0.03926 0.57708 0.35794 0.0
H1321 H 0.01118 0.57836 0.35518 0.0
H1322 H 0.01315 0.62773 0.38607 0.0
H1323 H 0.0414 0.62627 0.39117 0.0
C1324 C 0.96835 0.61274 0.41116 0.0
C1325 C 0.95985 0.60268 0.37698 0.0
C1326 C 0.98454 0.61318 0.40812 0.0
C1327 C 0.99256 0.60371 0.37033 0.0
C1328 C 0.98395 0.59414 0.33457 0.0
C1329 C 0.9678 0.59355 0.33816 0.0
C1330 C 0.03373 0.58824 0.36382 0.0
C1331 C 0.04256 0.60157 0.37491 0.0
C1332 C 0.01758 0.58901 0.36184 0.0
C1333 C 0.00983 0.60317 0.37018 0.0
C1334 C 0.0187 0.61659 0.38024 0.0
C1335 C 0.0349 0.61578 0.38287 0.0
H1336 H 0.96288 0.42448 0.60558 0.0
H1337 H 0.96022 0.37484 0.62934 0.0
H1338 H 0.99101 0.42304 0.60646 0.0
H1339 H 0.98852 0.37346 0.63159 0.0
H1340 H 0.03893 0.37634 0.56375 0.0
H1341 H 0.01066 0.37637 0.56991 0.0
H1342 H 0.01242 0.41829 0.66762 0.0
H1343 H 0.04054 0.41849 0.66024 0.0
C1344 C 0.9683 0.41326 0.6115 0.0
C1345 C 0.95929 0.39977 0.61732 0.0
C1346 C 0.98445 0.41245 0.61238 0.0
C1347 C 0.99204 0.39814 0.61933 0.0
C1348 C 0.98304 0.38464 0.6256 0.0
C1349 C 0.96682 0.38545 0.62462 0.0
C1350 C 0.03327 0.38549 0.58687 0.0
C1351 C 0.04197 0.39749 0.61104 0.0
C1352 C 0.01707 0.38547 0.59064 0.0
C1353 C 0.00926 0.39741 0.61884 0.0
C1354 C 0.01804 0.40909 0.64462 0.0
C1355 C 0.03418 0.40916 0.64063 0.0
H1356 H 0.45836 0.5709 0.16665 0.0
H1357 H 0.45774 0.61769 0.10221 0.0
H1358 H 0.48644 0.57211 0.17455 0.0
H1359 H 0.48599 0.61875 0.10907 0.0
H1360 H 0.5362 0.61912 0.17455 0.0
H1361 H 0.50783 0.61903 0.17468 0.0
H1362 H 0.50803 0.57228 0.11043 0.0
H1363 H 0.53619 0.57223 0.11122 0.0
C1364 C 0.46421 0.58147 0.15422 0.0
C1365 C 0.45581 0.59417 0.13343 0.0
C1366 C 0.48033 0.58212 0.1585 0.0
C1367 C 0.48846 0.59547 0.14193 0.0
C1368 C 0.48005 0.60834 0.12257 0.0
C1369 C 0.46387 0.60771 0.11837 0.0
C1370 C 0.53016 0.60882 0.16067 0.0
C1371 C 0.53846 0.59568 0.14304 0.0
C1372 C 0.51393 0.6088 0.16048 0.0
C1373 C 0.50568 0.59563 0.14281 0.0
C1374 C 0.51402 0.58252 0.12521 0.0
C1375 C 0.53019 0.58253 0.12536 0.0
H1376 H 0.16181 0.15108 0.33875 0.0
H1377 H 0.12863 0.1368 0.21481 0.0
H1378 H 0.14535 0.13999 0.41076 0.0
H1379 H 0.11234 0.12553 0.28666 0.0
H1380 H 0.08017 0.11963 0.43545 0.0
H1381 H 0.09597 0.13281 0.36593 0.0
H1382 H 0.13744 0.11392 0.44028 0.0
H1383 H 0.12177 0.10098 0.51005 0.0
C1384 C 0.15102 0.14559 0.32687 0.0
C1385 C 0.14656 0.14476 0.27107 0.0
C1386 C 0.14162 0.13919 0.36808 0.0
C1387 C 0.12757 0.13186 0.35433 0.0
C1388 C 0.12301 0.13126 0.29862 0.0
C1389 C 0.13241 0.13762 0.25742 0.0
C1390 C 0.09266 0.11835 0.43706 0.0
C1391 C 0.0997 0.10923 0.47818 0.0
C1392 C 0.1017 0.12584 0.39712 0.0
C1393 C 0.11795 0.1244 0.39769 0.0
C1394 C 0.12497 0.11542 0.43918 0.0
C1395 C 0.11596 0.10791 0.47893 0.0
H1396 H 0.09444 0.90902 0.59024 0.0
H1397 H 0.11144 0.8785 0.46202 0.0
H1398 H 0.10955 0.89475 0.65869 0.0
H1399 H 0.12625 0.86406 0.5306 0.0
H1400 H 0.16581 0.85613 0.65421 0.0
H1401 H 0.14912 0.86872 0.58664 0.0
H1402 H 0.11184 0.86985 0.70608 0.0
H1403 H 0.12867 0.85752 0.77428 0.0
C1404 C 0.10125 0.89916 0.57675 0.0
C1405 C 0.10184 0.89497 0.52064 0.0
C1406 C 0.10985 0.89093 0.61603 0.0
C1407 C 0.11918 0.87834 0.6 0.0
C1408 C 0.11939 0.87388 0.54412 0.0
C1409 C 0.11083 0.88211 0.50487 0.0
C1410 C 0.15404 0.859 0.66607 0.0
C1411 C 0.14859 0.85586 0.71966 0.0
C1412 C 0.14443 0.86613 0.62719 0.0
C1413 C 0.12914 0.87026 0.64097 0.0
C1414 C 0.12362 0.86696 0.69441 0.0
C1415 C 0.13324 0.85983 0.73336 0.0
H1416 H 0.39384 0.87523 0.02166 0.0
H1417 H 0.39953 0.91153 0.89993 0.0
H1418 H 0.38074 0.8592 0.95316 0.0
H1419 H 0.38601 0.89572 0.83195 0.0
H1420 H 0.37178 0.8591 0.70866 0.0
H1421 H 0.38767 0.87282 0.7761 0.0
H1422 H 0.35628 0.85872 0.90624 0.0
H1423 H 0.34069 0.84462 0.8391 0.0
C1424 C 0.39231 0.87978 0.98025 0.0
C1425 C 0.39766 0.89468 0.96626 0.0
C1426 C 0.38472 0.87063 0.94107 0.0
C1427 C 0.38223 0.8762 0.88714 0.0
C1428 C 0.3879 0.89097 0.87288 0.0
C1429 C 0.39558 0.90009 0.91197 0.0
C1430 C 0.36834 0.85885 0.75174 0.0
C1431 C 0.35494 0.85084 0.76854 0.0
C1432 C 0.3774 0.86677 0.79035 0.0
C1433 C 0.37321 0.86694 0.84655 0.0
C1434 C 0.35997 0.85866 0.86342 0.0
C1435 C 0.35097 0.85065 0.82487 0.0
H1436 H 0.41671 0.09482 0.09643 0.0
H1437 H 0.38922 0.11923 0.97478 0.0
H1438 H 0.40465 0.11007 0.16978 0.0
H1439 H 0.37709 0.13433 0.04818 0.0
H1440 H 0.36656 0.16702 0.19089 0.0
H1441 H 0.3823 0.15414 0.12052 0.0
H1442 H 0.37817 0.11088 0.20961 0.0
H1443 H 0.36259 0.12371 0.28004 0.0
C1444 C 0.4082 0.10352 0.08527 0.0
C1445 C 0.40383 0.10573 0.02983 0.0
C1446 C 0.40125 0.1122 0.12732 0.0
C1447 C 0.38987 0.12332 0.11474 0.0
C1448 C 0.38593 0.12593 0.05912 0.0
C1449 C 0.3928 0.1172 0.01711 0.0
C1450 C 0.36914 0.15479 0.19571 0.0
C1451 C 0.36325 0.14636 0.24086 0.0
C1452 C 0.37809 0.14742 0.1553 0.0
C1453 C 0.38143 0.1315 0.15951 0.0
C1454 C 0.37593 0.12319 0.20552 0.0
C1455 C 0.36691 0.13053 0.24568 0.0
H1456 H 0.90475 0.88011 0.51809 0.0
H1457 H 0.86001 0.90218 0.4999 0.0
H1458 H 0.8948 0.86501 0.5958 0.0
H1459 H 0.85004 0.88691 0.57685 0.0
H1460 H 0.84315 0.87092 0.75467 0.0
H1461 H 0.85358 0.88547 0.67693 0.0
H1462 H 0.8762 0.84408 0.61668 0.0
H1463 H 0.86594 0.82948 0.69523 0.0
C1464 C 0.89278 0.88169 0.5305 0.0
C1465 C 0.88319 0.89239 0.50299 0.0
C1466 C 0.88706 0.87297 0.5748 0.0
C1467 C 0.87165 0.87481 0.59255 0.0
C1468 C 0.86203 0.8854 0.56466 0.0
C1469 C 0.86773 0.89409 0.52037 0.0
C1470 C 0.85037 0.86489 0.72496 0.0
C1471 C 0.85369 0.84902 0.73109 0.0
C1472 C 0.85627 0.87323 0.68019 0.0
C1473 C 0.86563 0.8659 0.64049 0.0
C1474 C 0.86911 0.85007 0.64687 0.0
C1475 C 0.86318 0.84169 0.69171 0.0
H1476 H 0.83703 0.15583 0.34807 0.0
H1477 H 0.86903 0.13949 0.22338 0.0
H1478 H 0.85292 0.14382 0.41975 0.0
H1479 H 0.88478 0.12734 0.295 0.0
H1480 H 0.91644 0.11915 0.4444 0.0
H1481 H 0.90162 0.13348 0.375 0.0
H1482 H 0.85893 0.11695 0.4477 0.0
H1483 H 0.87364 0.10281 0.51723 0.0
C1484 C 0.84748 0.14974 0.33596 0.0
C1485 C 0.85171 0.14853 0.28003 0.0
C1486 C 0.85653 0.1428 0.37699 0.0
C1487 C 0.87005 0.13457 0.36293 0.0
C1488 C 0.8745 0.13372 0.30714 0.0
C1489 C 0.86542 0.1406 0.2661 0.0
C1490 C 0.9039 0.11861 0.44563 0.0
C1491 C 0.89622 0.10982 0.48623 0.0
C1492 C 0.89542 0.12677 0.40579 0.0
C1493 C 0.87912 0.12636 0.40603 0.0
C1494 C 0.87147 0.11767 0.44692 0.0
C1495 C 0.87992 0.10947 0.4865 0.0
H1496 H 0.65239 0.11283 0.26522 0.0
H1497 H 0.63067 0.15789 0.25179 0.0
H1498 H 0.63681 0.10356 0.18792 0.0
H1499 H 0.61521 0.1486 0.17403 0.0
H1500 H 0.57972 0.12067 0.07082 0.0
H1501 H 0.5941 0.12984 0.15155 0.0
H1502 H 0.63585 0.1088 0.08736 0.0
H1503 H 0.62156 0.09953 0.00722 0.0
C1504 C 0.64426 0.12074 0.24593 0.0
C1505 C 0.64282 0.13611 0.26445 0.0
C1506 C 0.6354 0.11545 0.20147 0.0
C1507 C 0.62487 0.12539 0.17476 0.0
C1508 C 0.62316 0.14065 0.19409 0.0
C1509 C 0.63207 0.14598 0.23842 0.0
C1510 C 0.59197 0.11803 0.07393 0.0
C1511 C 0.59949 0.10935 0.03266 0.0
C1512 C 0.6002 0.12332 0.12004 0.0
C1513 C 0.61607 0.11995 0.12586 0.0
C1514 C 0.62358 0.11137 0.08441 0.0
C1515 C 0.6154 0.10616 0.03829 0.0
H1516 H 0.65869 0.88176 0.76845 0.0
H1517 H 0.62475 0.84516 0.7509 0.0
H1518 H 0.64339 0.89309 0.84294 0.0
H1519 H 0.60949 0.85653 0.82582 0.0
H1520 H 0.57928 0.89296 0.9195 0.0
H1521 H 0.594 0.88086 0.84455 0.0
H1522 H 0.63613 0.8858 0.93949 0.0
H1523 H 0.62156 0.8979 0.01406 0.0
C1524 C 0.64797 0.87612 0.78049 0.0
C1525 C 0.64295 0.86255 0.75389 0.0
C1526 C 0.63926 0.88258 0.82334 0.0
C1527 C 0.62528 0.87565 0.84022 0.0
C1528 C 0.62016 0.86216 0.81333 0.0
C1529 C 0.62895 0.85562 0.77071 0.0
C1530 C 0.59167 0.89142 0.9244 0.0
C1531 C 0.59926 0.89646 0.9726 0.0
C1532 C 0.60007 0.88443 0.88163 0.0
C1533 C 0.61621 0.88248 0.88615 0.0
C1534 C 0.62373 0.88735 0.9346 0.0
C1535 C 0.61535 0.89421 0.97741 0.0
H1536 H 0.61699 0.60435 0.00141 0.0
H1537 H 0.57237 0.61708 0.93356 0.0
H1538 H 0.62988 0.61783 0.92605 0.0
H1539 H 0.58537 0.63041 0.85727 0.0
H1540 H 0.61578 0.66559 0.76072 0.0
H1541 H 0.60208 0.65311 0.83729 0.0
H1542 H 0.63325 0.61398 0.82697 0.0
H1543 H 0.64706 0.62647 0.7515 0.0
C1544 C 0.60991 0.61 0.97035 0.0
C1545 C 0.59364 0.60956 0.9733 0.0
C1546 C 0.61732 0.61767 0.92699 0.0
C1547 C 0.60864 0.62506 0.88548 0.0
C1548 C 0.59236 0.6249 0.88888 0.0
C1549 C 0.58493 0.6172 0.9324 0.0
C1550 C 0.61969 0.65432 0.77483 0.0
C1551 C 0.63255 0.64706 0.75021 0.0
C1552 C 0.61179 0.64715 0.81846 0.0
C1553 C 0.61665 0.63261 0.83833 0.0
C1554 C 0.62939 0.6253 0.81321 0.0
C1555 C 0.63726 0.63244 0.76972 0.0
H1556 H 0.63352 0.32953 0.17031 0.0
H1557 H 0.63674 0.37215 0.26376 0.0
H1558 H 0.61746 0.34273 0.10146 0.0
H1559 H 0.62088 0.38527 0.19497 0.0
H1560 H 0.58092 0.40092 0.08716 0.0
H1561 H 0.59405 0.38548 0.15771 0.0
H1562 H 0.62175 0.36349 0.03119 0.0
H1563 H 0.60857 0.37877 0.96062 0.0
C1564 C 0.63077 0.34168 0.17626 0.0
C1565 C 0.63647 0.34982 0.22228 0.0
C1566 C 0.62163 0.34923 0.13679 0.0
C1567 C 0.61791 0.36501 0.14295 0.0
C1568 C 0.62338 0.37305 0.18949 0.0
C1569 C 0.63259 0.36555 0.22865 0.0
C1570 C 0.58971 0.3927 0.07436 0.0
C1571 C 0.5938 0.39116 0.01839 0.0
C1572 C 0.59726 0.38391 0.11476 0.0
C1573 C 0.60897 0.37335 0.09992 0.0
C1574 C 0.61269 0.37144 0.04379 0.0
C1575 C 0.60521 0.38028 0.00345 0.0
H1576 H 0.90548 0.37847 0.47393 0.0
H1577 H 0.87134 0.41329 0.43208 0.0
H1578 H 0.89608 0.36218 0.39844 0.0
H1579 H 0.86181 0.39692 0.35764 0.0
H1580 H 0.85818 0.37162 0.19579 0.0
H1581 H 0.87004 0.38728 0.26786 0.0
H1582 H 0.87296 0.34695 0.37357 0.0
H1583 H 0.86132 0.33113 0.30082 0.0
C1584 C 0.89597 0.38264 0.44868 0.0
C1585 C 0.88917 0.39719 0.45891 0.0
C1586 C 0.89055 0.37327 0.40566 0.0
C1587 C 0.87825 0.37829 0.37198 0.0
C1588 C 0.87148 0.39284 0.38227 0.0
C1589 C 0.87688 0.40218 0.4252 0.0
C1590 C 0.86144 0.36604 0.23423 0.0
C1591 C 0.85868 0.35015 0.24279 0.0
C1592 C 0.86817 0.37505 0.27563 0.0
C1593 C 0.87226 0.36839 0.32662 0.0
C1594 C 0.87001 0.35239 0.33457 0.0
C1595 C 0.86329 0.34334 0.293 0.0
H1596 H 0.88559 0.66059 0.7559 0.0
H1597 H 0.84471 0.63293 0.72429 0.0
H1598 H 0.89921 0.64706 0.68131 0.0
H1599 H 0.8583 0.61953 0.65002 0.0
H1600 H 0.88209 0.61156 0.48342 0.0
H1601 H 0.86927 0.6264 0.55599 0.0
H1602 H 0.90864 0.61927 0.6634 0.0
H1603 H 0.92155 0.60435 0.59075 0.0
C1604 C 0.8795 0.65169 0.73293 0.0
C1605 C 0.86409 0.64781 0.74595 0.0
C1606 C 0.88732 0.64391 0.69054 0.0
C1607 C 0.87978 0.63229 0.65998 0.0
C1608 C 0.86433 0.62855 0.67262 0.0
C1609 C 0.85659 0.63617 0.71533 0.0
C1610 C 0.88806 0.61319 0.52241 0.0
C1611 C 0.90281 0.60672 0.53149 0.0
C1612 C 0.88069 0.62164 0.56397 0.0
C1613 C 0.88796 0.62392 0.61525 0.0
C1614 C 0.90284 0.61775 0.62404 0.0
C1615 C 0.91017 0.60914 0.58261 0.0
H1616 H 0.35684 0.36465 0.2931 0.0
H1617 H 0.3681 0.32174 0.20978 0.0
H1618 H 0.37107 0.3791 0.2231 0.0
H1619 H 0.38256 0.33627 0.14 0.0
H1620 H 0.38672 0.37018 0.99112 0.0
H1621 H 0.37573 0.35429 0.06464 0.0
H1622 H 0.39733 0.38375 0.18686 0.0
H1623 H 0.40817 0.39983 0.11328 0.0
C1624 C 0.36248 0.35828 0.26012 0.0
C1625 C 0.36125 0.34205 0.25677 0.0
C1626 C 0.37073 0.36657 0.22023 0.0
C1627 C 0.37792 0.35882 0.17602 0.0
C1628 C 0.377 0.34256 0.17331 0.0
C1629 C 0.36878 0.33424 0.2134 0.0
C1630 C 0.38922 0.37322 0.03365 0.0
C1631 C 0.39821 0.38635 0.04639 0.0
C1632 C 0.38301 0.36404 0.07577 0.0
C1633 C 0.38563 0.36781 0.13151 0.0
C1634 C 0.39496 0.38069 0.14425 0.0
C1635 C 0.40122 0.38985 0.10211 0.0
H1636 H 0.42011 0.59987 0.9124 0.0
H1637 H 0.37733 0.5966 0.00513 0.0
H1638 H 0.40592 0.61143 0.83496 0.0
H1639 H 0.3633 0.6081 0.92809 0.0
H1640 H 0.34131 0.61118 0.75683 0.0
H1641 H 0.35655 0.59979 0.83138 0.0
H1642 H 0.39067 0.63613 0.81375 0.0
H1643 H 0.37543 0.64759 0.73885 0.0
C1644 C 0.40772 0.60165 0.91633 0.0
C1645 C 0.39984 0.59727 0.96479 0.0
C1646 C 0.39963 0.60831 0.87214 0.0
C1647 C 0.38351 0.61054 0.8755 0.0
C1648 C 0.37569 0.60631 0.92413 0.0
C1649 C 0.38377 0.5998 0.96836 0.0
C1650 C 0.35209 0.61672 0.76862 0.0
C1651 C 0.35713 0.63032 0.74214 0.0
C1652 C 0.36077 0.61023 0.81148 0.0
C1653 C 0.37473 0.61713 0.82845 0.0
C1654 C 0.37998 0.63054 0.80121 0.0
C1655 C 0.37122 0.63712 0.75861 0.0
H1656 H 0.13231 0.64135 0.77743 0.0
H1657 H 0.17105 0.63443 0.66654 0.0
H1658 H 0.11488 0.63009 0.70891 0.0
H1659 H 0.15368 0.62291 0.59869 0.0
H1660 H 0.11683 0.6168 0.46801 0.0
H1661 H 0.13274 0.63 0.5365 0.0
H1662 H 0.10939 0.60491 0.66703 0.0
H1663 H 0.09321 0.59191 0.59849 0.0
C1664 C 0.13711 0.63741 0.73849 0.0
C1665 C 0.15307 0.63878 0.7274 0.0
C1666 C 0.12713 0.63089 0.69938 0.0
C1667 C 0.1329 0.62562 0.64838 0.0
C1668 C 0.14884 0.62707 0.63726 0.0
C1669 C 0.15881 0.63359 0.67631 0.0
C1670 C 0.115 0.61417 0.51134 0.0
C1671 C 0.10382 0.60323 0.52782 0.0
C1672 C 0.12419 0.62167 0.55055 0.0
C1673 C 0.12243 0.61839 0.60713 0.0
C1674 C 0.11094 0.60778 0.62376 0.0
C1675 C 0.10171 0.60029 0.58448 0.0
H1676 H 0.12853 0.3461 0.22338 0.0
H1677 H 0.16236 0.38222 0.25216 0.0
H1678 H 0.11248 0.35647 0.29808 0.0
H1679 H 0.14632 0.39252 0.32668 0.0
H1680 H 0.12272 0.39421 0.49627 0.0
H1681 H 0.13798 0.38319 0.42124 0.0
H1682 H 0.09703 0.38109 0.31875 0.0
H1683 H 0.08164 0.39219 0.39398 0.0
C1684 C 0.13253 0.35625 0.2456 0.0
C1685 C 0.14672 0.36333 0.23201 0.0
C1686 C 0.12331 0.36221 0.28809 0.0
C1687 C 0.1282 0.37525 0.31817 0.0
C1688 C 0.14236 0.38235 0.30448 0.0
C1689 C 0.15149 0.3765 0.26165 0.0
C1690 C 0.11692 0.39135 0.45788 0.0
C1691 C 0.10097 0.39413 0.45098 0.0
C1692 C 0.1257 0.38512 0.41484 0.0
C1693 C 0.1187 0.38139 0.36417 0.0
C1694 C 0.10269 0.38381 0.35756 0.0
C1695 C 0.09391 0.39021 0.4005 0.0
loop_
_geom_bond_atom_site_label_1
_geom_bond_atom_site_label_2
_geom_bond_distance
_geom_bond_site_symmetry_2
_ccdc_geom_bond_type
C0 O1 1.160 . S
C0 O7 1.185 . S
O1 C0 1.160 . S
O2 Zn3 1.899 . S
O2 C10 1.284 . S
Zn3 O2 1.899 . S
Zn3 O4 2.032 . S
Zn3 O7 2.086 . S
Zn3 O12 1.977 . S
O4 Zn3 2.032 . S
O4 C8 1.278 . S
C5 O6 1.203 . S
C5 O12 1.267 . S
O6 C5 1.203 . S
O7 C0 1.185 . S
O7 Zn3 2.086 . S
C8 O4 1.278 . S
C8 O9 1.211 . S
O9 C8 1.211 . S
C10 O2 1.284 . S
C10 O11 1.273 . S
O11 C10 1.273 . S
O12 Zn3 1.977 . S
O12 C5 1.267 . S
C13 O14 1.160 . S
C13 O20 1.185 . S
O14 C13 1.160 . S
O15 Zn16 1.899 . S
O15 C23 1.284 . S
Zn16 O15 1.899 . S
Zn16 O17 2.032 . S
Zn16 O20 2.086 . S
Zn16 O25 1.977 . S
O17 Zn16 2.032 . S
O17 C21 1.278 . S
C18 O19 1.203 . S
C18 O25 1.267 . S
O19 C18 1.203 . S
O20 C13 1.185 . S
O20 Zn16 2.086 . S
C21 O17 1.278 . S
C21 O22 1.211 . S
O22 C21 1.211 . S
C23 O15 1.284 . S
C23 O24 1.273 . S
O24 C23 1.273 . S
O25 Zn16 1.977 . S
O25 C18 1.267 . S
C26 O27 1.160 . S
C26 O33 1.185 . S
O27 C26 1.160 . S
O28 Zn29 1.899 . S
O28 C36 1.284 . S
Zn29 O28 1.899 . S
Zn29 O30 2.032 . S
Zn29 O33 2.086 . S
Zn29 O38 1.977 . S
O30 Zn29 2.032 . S
O30 C34 1.278 . S
C31 O32 1.203 . S
C31 O38 1.267 . S
O32 C31 1.203 . S
O33 C26 1.185 . S
O33 Zn29 2.086 . S
C34 O30 1.278 . S
C34 O35 1.211 . S
O35 C34 1.211 . S
C36 O28 1.284 . S
C36 O37 1.273 . S
O37 C36 1.273 . S
O38 Zn29 1.977 . S
O38 C31 1.267 . S
C39 O40 1.160 . S
C39 O46 1.185 . S
O40 C39 1.160 . S
O41 Zn42 1.899 . S
O41 C49 1.284 . S
Zn42 O41 1.899 . S
Zn42 O43 2.032 . S
Zn42 O46 2.086 . S
Zn42 O51 1.977 . S
O43 Zn42 2.032 . S
O43 C47 1.278 . S
C44 O45 1.203 . S
C44 O51 1.267 . S
O45 C44 1.203 . S
O46 C39 1.185 . S
O46 Zn42 2.086 . S
C47 O43 1.278 . S
C47 O48 1.211 1_556 S
O48 C47 1.211 1_554 S
C49 O41 1.284 . S
C49 O50 1.273 . S
O50 C49 1.273 . S
O51 Zn42 1.977 . S
O51 C44 1.267 . S
C52 O53 1.160 . S
C52 O59 1.185 . S
O53 C52 1.160 . S
O54 Zn55 1.899 . S
O54 C62 1.284 . S
Zn55 O54 1.899 . S
Zn55 O56 2.032 . S
Zn55 O59 2.086 . S
Zn55 O64 1.977 . S
O56 Zn55 2.032 . S
O56 C60 1.278 . S
C57 O58 1.203 . S
C57 O64 1.267 . S
O58 C57 1.203 . S
O59 C52 1.185 . S
O59 Zn55 2.086 . S
C60 O56 1.278 . S
C60 O61 1.211 . S
O61 C60 1.211 . S
C62 O54 1.284 . S
C62 O63 1.273 . S
O63 C62 1.273 . S
O64 Zn55 1.977 . S
O64 C57 1.267 . S
C65 O66 1.160 . S
C65 O72 1.185 . S
O66 C65 1.160 . S
O67 Zn68 1.899 . S
O67 C75 1.284 . S
Zn68 O67 1.899 . S
Zn68 O69 2.032 . S
Zn68 O72 2.086 . S
Zn68 O77 1.977 . S
O69 Zn68 2.032 . S
O69 C73 1.278 . S
C70 O71 1.203 . S
C70 O77 1.267 . S
O71 C70 1.203 . S
O72 C65 1.185 . S
O72 Zn68 2.086 . S
C73 O69 1.278 . S
C73 O74 1.211 1_554 S
O74 C73 1.211 1_556 S
C75 O67 1.284 . S
C75 O76 1.273 . S
O76 C75 1.273 . S
O77 Zn68 1.977 . S
O77 C70 1.267 . S
C78 O79 1.160 . S
C78 O85 1.185 . S
O79 C78 1.160 . S
O80 Zn81 1.899 . S
O80 C88 1.284 . S
Zn81 O80 1.899 . S
Zn81 O82 2.032 . S
Zn81 O85 2.086 . S
Zn81 O90 1.977 . S
O82 Zn81 2.032 . S
O82 C86 1.278 . S
C83 O84 1.203 . S
C83 O90 1.267 . S
O84 C83 1.203 . S
O85 C78 1.185 . S
O85 Zn81 2.086 . S
C86 O82 1.278 . S
C86 O87 1.211 . S
O87 C86 1.211 . S
C88 O80 1.284 . S
C88 O89 1.273 . S
O89 C88 1.273 . S
O90 Zn81 1.977 . S
O90 C83 1.267 . S
C91 O92 1.160 . S
C91 O98 1.185 . S
O92 C91 1.160 . S
O93 Zn94 1.899 . S
O93 C101 1.284 . S
Zn94 O93 1.899 . S
Zn94 O95 2.032 . S
Zn94 O98 2.086 . S
Zn94 O103 1.977 . S
O95 Zn94 2.032 . S
O95 C99 1.278 . S
C96 O97 1.203 . S
C96 O103 1.267 . S
O97 C96 1.203 . S
O98 C91 1.185 . S
O98 Zn94 2.086 . S
C99 O95 1.278 . S
C99 O100 1.211 . S
O100 C99 1.211 . S
C101 O93 1.284 . S
C101 O102 1.273 . S
O102 C101 1.273 . S
O103 Zn94 1.977 . S
O103 C96 1.267 . S
C104 O105 1.160 . S
C104 O111 1.185 . S
O105 C104 1.160 . S
O106 Zn107 1.899 . S
O106 C114 1.284 . S
Zn107 O106 1.899 . S
Zn107 O108 2.032 . S
Zn107 O111 2.086 . S
Zn107 O116 1.977 . S
O108 Zn107 2.032 . S
O108 C112 1.278 . S
C109 O110 1.203 . S
C109 O116 1.267 . S
O110 C109 1.203 . S
O111 C104 1.185 . S
O111 Zn107 2.086 . S
C112 O108 1.278 . S
C112 O113 1.211 . S
O113 C112 1.211 . S
C114 O106 1.284 . S
C114 O115 1.273 . S
O115 C114 1.273 . S
O116 Zn107 1.977 . S
O116 C109 1.267 . S
C117 O118 1.160 . S
C117 O124 1.185 . S
O118 C117 1.160 . S
O119 Zn120 1.899 . S
O119 C127 1.284 . S
Zn120 O119 1.899 . S
Zn120 O121 2.032 . S
Zn120 O124 2.086 . S
Zn120 O129 1.977 . S
O121 Zn120 2.032 . S
O121 C125 1.278 . S
C122 O123 1.203 . S
C122 O129 1.267 . S
O123 C122 1.203 . S
O124 C117 1.185 . S
O124 Zn120 2.086 . S
C125 O121 1.278 . S
C125 O126 1.211 . S
O126 C125 1.211 . S
C127 O119 1.284 . S
C127 O128 1.273 . S
O128 C127 1.273 . S
O129 Zn120 1.977 . S
O129 C122 1.267 . S
C130 O131 1.160 . S
C130 O137 1.185 . S
O131 C130 1.160 . S
O132 Zn133 1.899 . S
O132 C140 1.284 . S
Zn133 O132 1.899 . S
Zn133 O134 2.032 . S
Zn133 O137 2.086 . S
Zn133 O142 1.977 . S
O134 Zn133 2.032 . S
O134 C138 1.278 . S
C135 O136 1.203 . S
C135 O142 1.267 . S
O136 C135 1.203 . S
O137 C130 1.185 . S
O137 Zn133 2.086 . S
C138 O134 1.278 . S
C138 O139 1.211 . S
O139 C138 1.211 . S
C140 O132 1.284 . S
C140 O141 1.273 . S
O141 C140 1.273 . S
O142 Zn133 1.977 . S
O142 C135 1.267 . S
C143 O144 1.160 . S
C143 O150 1.185 . S
O144 C143 1.160 . S
O145 Zn146 1.899 . S
O145 C153 1.284 . S
Zn146 O145 1.899 . S
Zn146 O147 2.032 . S
Zn146 O150 2.086 . S
Zn146 O155 1.977 . S
O147 Zn146 2.032 . S
O147 C151 1.278 . S
C148 O149 1.203 . S
C148 O155 1.267 . S
O149 C148 1.203 . S
O150 C143 1.185 . S
O150 Zn146 2.086 . S
C151 O147 1.278 . S
C151 O152 1.211 1_554 S
O152 C151 1.211 1_556 S
C153 O145 1.284 . S
C153 O154 1.273 . S
O154 C153 1.273 . S
O155 Zn146 1.977 . S
O155 C148 1.267 . S
C156 O157 1.160 . S
C156 O163 1.185 . S
O157 C156 1.160 . S
O158 Zn159 1.899 . S
O158 C166 1.284 . S
Zn159 O158 1.899 . S
Zn159 O160 2.032 . S
Zn159 O163 2.086 . S
Zn159 O168 1.977 . S
O160 Zn159 2.032 . S
O160 C164 1.278 . S
C161 O162 1.203 . S
C161 O168 1.267 . S
O162 C161 1.203 . S
O163 C156 1.185 . S
O163 Zn159 2.086 . S
C164 O160 1.278 . S
C164 O165 1.211 . S
O165 C164 1.211 . S
C166 O158 1.284 . S
C166 O167 1.273 . S
O167 C166 1.273 . S
O168 Zn159 1.977 . S
O168 C161 1.267 . S
C169 O170 1.160 . S
C169 O176 1.185 . S
O170 C169 1.160 . S
O171 Zn172 1.899 . S
O171 C179 1.284 . S
Zn172 O171 1.899 . S
Zn172 O173 2.032 . S
Zn172 O176 2.086 . S
Zn172 O181 1.977 . S
O173 Zn172 2.032 . S
O173 C177 1.278 . S
C174 O175 1.203 . S
C174 O181 1.267 . S
O175 C174 1.203 . S
O176 C169 1.185 . S
O176 Zn172 2.086 . S
C177 O173 1.278 . S
C177 O178 1.211 1_556 S
O178 C177 1.211 1_554 S
C179 O171 1.284 . S
C179 O180 1.273 . S
O180 C179 1.273 . S
O181 Zn172 1.977 . S
O181 C174 1.267 . S
C182 O183 1.160 . S
C182 O189 1.185 . S
O183 C182 1.160 . S
O184 Zn185 1.899 . S
O184 C192 1.284 . S
Zn185 O184 1.899 . S
Zn185 O186 2.032 . S
Zn185 O189 2.086 . S
Zn185 O194 1.977 . S
O186 Zn185 2.032 . S
O186 C190 1.278 . S
C187 O188 1.203 . S
C187 O194 1.267 . S
O188 C187 1.203 . S
O189 C182 1.185 . S
O189 Zn185 2.086 . S
C190 O186 1.278 . S
C190 O191 1.211 . S
O191 C190 1.211 . S
C192 O184 1.284 . S
C192 O193 1.273 . S
O193 C192 1.273 . S
O194 Zn185 1.977 . S
O194 C187 1.267 . S
C195 O196 1.160 . S
C195 O202 1.185 . S
O196 C195 1.160 . S
O197 Zn198 1.899 . S
O197 C205 1.284 . S
Zn198 O197 1.899 . S
Zn198 O199 2.032 . S
Zn198 O202 2.086 . S
Zn198 O207 1.977 . S
O199 Zn198 2.032 . S
O199 C203 1.278 . S
C200 O201 1.203 . S
C200 O207 1.267 . S
O201 C200 1.203 . S
O202 C195 1.185 . S
O202 Zn198 2.086 . S
C203 O199 1.278 . S
C203 O204 1.211 . S
O204 C203 1.211 . S
C205 O197 1.284 . S
C205 O206 1.273 . S
O206 C205 1.273 . S
O207 Zn198 1.977 . S
O207 C200 1.267 . S
C208 O209 1.160 . S
C208 O215 1.185 . S
O209 C208 1.160 . S
O210 Zn211 1.899 . S
O210 C218 1.284 . S
Zn211 O210 1.899 . S
Zn211 O212 2.032 . S
Zn211 O215 2.086 . S
Zn211 O220 1.977 . S
O212 Zn211 2.032 . S
O212 C216 1.278 . S
C213 O214 1.203 . S
C213 O220 1.267 . S
O214 C213 1.203 . S
O215 C208 1.185 . S
O215 Zn211 2.086 . S
C216 O212 1.278 . S
C216 O217 1.211 . S
O217 C216 1.211 . S
C218 O210 1.284 . S
C218 O219 1.273 . S
O219 C218 1.273 . S
O220 Zn211 1.977 . S
O220 C213 1.267 . S
C221 O222 1.160 . S
C221 O228 1.185 . S
O222 C221 1.160 . S
O223 Zn224 1.899 . S
O223 C231 1.284 . S
Zn224 O223 1.899 . S
Zn224 O225 2.032 . S
Zn224 O228 2.086 . S
Zn224 O233 1.977 . S
O225 Zn224 2.032 . S
O225 C229 1.278 . S
C226 O227 1.203 . S
C226 O233 1.267 . S
O227 C226 1.203 . S
O228 C221 1.185 . S
O228 Zn224 2.086 . S
C229 O225 1.278 . S
C229 O230 1.211 1_556 S
O230 C229 1.211 1_554 S
C231 O223 1.284 . S
C231 O232 1.273 . S
O232 C231 1.273 . S
O233 Zn224 1.977 . S
O233 C226 1.267 . S
C234 O235 1.160 . S
C234 O241 1.185 . S
O235 C234 1.160 . S
O236 Zn237 1.899 . S
O236 C244 1.284 . S
Zn237 O236 1.899 . S
Zn237 O238 2.032 . S
Zn237 O241 2.086 . S
Zn237 O246 1.977 . S
O238 Zn237 2.032 . S
O238 C242 1.278 . S
C239 O240 1.203 . S
C239 O246 1.267 . S
O240 C239 1.203 . S
O241 C234 1.185 . S
O241 Zn237 2.086 . S
C242 O238 1.278 . S
C242 O243 1.211 . S
O243 C242 1.211 . S
C244 O236 1.284 . S
C244 O245 1.273 . S
O245 C244 1.273 . S
O246 Zn237 1.977 . S
O246 C239 1.267 . S
C247 O248 1.160 . S
C247 O254 1.185 . S
O248 C247 1.160 . S
O249 Zn250 1.899 . S
O249 C257 1.284 . S
Zn250 O249 1.899 . S
Zn250 O251 2.032 . S
Zn250 O254 2.086 . S
Zn250 O259 1.977 . S
O251 Zn250 2.032 . S
O251 C255 1.278 . S
C252 O253 1.203 . S
C252 O259 1.267 . S
O253 C252 1.203 . S
O254 C247 1.185 . S
O254 Zn250 2.086 . S
C255 O251 1.278 . S
C255 O256 1.211 . S
O256 C255 1.211 . S
C257 O249 1.284 . S
C257 O258 1.273 . S
O258 C257 1.273 . S
O259 Zn250 1.977 . S
O259 C252 1.267 . S
C260 O261 1.160 . S
C260 O267 1.185 . S
O261 C260 1.160 . S
O262 Zn263 1.899 . S
O262 C270 1.284 . S
Zn263 O262 1.899 . S
Zn263 O264 2.032 . S
Zn263 O267 2.086 . S
Zn263 O272 1.977 . S
O264 Zn263 2.032 . S
O264 C268 1.278 . S
C265 O266 1.203 . S
C265 O272 1.267 . S
O266 C265 1.203 . S
O267 C260 1.185 . S
O267 Zn263 2.086 . S
C268 O264 1.278 . S
C268 O269 1.211 . S
O269 C268 1.211 . S
C270 O262 1.284 . S
C270 O271 1.273 . S
O271 C270 1.273 . S
O272 Zn263 1.977 . S
O272 C265 1.267 . S
C273 O274 1.160 . S
C273 O280 1.185 . S
O274 C273 1.160 . S
O275 Zn276 1.899 . S
O275 C283 1.284 . S
Zn276 O275 1.899 . S
Zn276 O277 2.032 . S
Zn276 O280 2.086 . S
Zn276 O285 1.977 . S
O277 Zn276 2.032 . S
O277 C281 1.278 . S
C278 O279 1.203 . S
C278 O285 1.267 . S
O279 C278 1.203 . S
O280 C273 1.185 . S
O280 Zn276 2.086 . S
C281 O277 1.278 . S
C281 O282 1.211 . S
O282 C281 1.211 . S
C283 O275 1.284 . S
C283 O284 1.273 . S
O284 C283 1.273 . S
O285 Zn276 1.977 . S
O285 C278 1.267 . S
C286 O287 1.160 . S
C286 O293 1.185 . S
O287 C286 1.160 . S
O288 Zn289 1.899 . S
O288 C296 1.284 . S
Zn289 O288 1.899 . S
Zn289 O290 2.032 . S
Zn289 O293 2.086 . S
Zn289 O298 1.977 . S
O290 Zn289 2.032 . S
O290 C294 1.278 . S
C291 O292 1.203 . S
C291 O298 1.267 . S
O292 C291 1.203 . S
O293 C286 1.185 . S
O293 Zn289 2.086 . S
C294 O290 1.278 . S
C294 O295 1.211 . S
O295 C294 1.211 . S
C296 O288 1.284 . S
C296 O297 1.273 . S
O297 C296 1.273 . S
O298 Zn289 1.977 . S
O298 C291 1.267 . S
C299 O300 1.160 . S
C299 O306 1.185 . S
O300 C299 1.160 . S
O301 Zn302 1.899 . S
O301 C309 1.284 . S
Zn302 O301 1.899 . S
Zn302 O303 2.032 . S
Zn302 O306 2.086 . S
Zn302 O311 1.977 . S
O303 Zn302 2.032 . S
O303 C307 1.278 . S
C304 O305 1.203 . S
C304 O311 1.267 . S
O305 C304 1.203 . S
O306 C299 1.185 . S
O306 Zn302 2.086 . S
C307 O303 1.278 . S
C307 O308 1.211 1_554 S
O308 C307 1.211 1_556 S
C309 O301 1.284 . S
C309 O310 1.273 . S
O310 C309 1.273 . S
O311 Zn302 1.977 . S
O311 C304 1.267 . S
C312 O313 1.160 . S
C312 O319 1.185 . S
O313 C312 1.160 . S
O314 Zn315 1.899 . S
O314 C322 1.284 . S
Zn315 O314 1.899 . S
Zn315 O316 2.032 . S
Zn315 O319 2.086 . S
Zn315 O324 1.977 . S
O316 Zn315 2.032 . S
O316 C320 1.278 . S
C317 O318 1.203 . S
C317 O324 1.267 . S
O318 C317 1.203 . S
O319 C312 1.185 . S
O319 Zn315 2.086 . S
C320 O316 1.278 . S
C320 O321 1.211 . S
O321 C320 1.211 . S
C322 O314 1.284 . S
C322 O323 1.273 . S
O323 C322 1.273 . S
O324 Zn315 1.977 . S
O324 C317 1.267 . S
C325 O326 1.160 . S
C325 O332 1.185 . S
O326 C325 1.160 . S
O327 Zn328 1.899 . S
O327 C335 1.284 . S
Zn328 O327 1.899 . S
Zn328 O329 2.032 . S
Zn328 O332 2.086 . S
Zn328 O337 1.977 . S
O329 Zn328 2.032 . S
O329 C333 1.278 . S
C330 O331 1.203 . S
C330 O337 1.267 . S
O331 C330 1.203 . S
O332 C325 1.185 . S
O332 Zn328 2.086 . S
C333 O329 1.278 . S
C333 O334 1.211 1_554 S
O334 C333 1.211 1_556 S
C335 O327 1.284 . S
C335 O336 1.273 . S
O336 C335 1.273 . S
O337 Zn328 1.977 . S
O337 C330 1.267 . S
C338 O339 1.160 . S
C338 O345 1.185 . S
O339 C338 1.160 . S
O340 Zn341 1.899 . S
O340 C348 1.284 . S
Zn341 O340 1.899 . S
Zn341 O342 2.032 . S
Zn341 O345 2.086 . S
Zn341 O350 1.977 . S
O342 Zn341 2.032 . S
O342 C346 1.278 . S
C343 O344 1.203 . S
C343 O350 1.267 . S
O344 C343 1.203 . S
O345 C338 1.185 . S
O345 Zn341 2.086 . S
C346 O342 1.278 . S
C346 O347 1.211 . S
O347 C346 1.211 . S
C348 O340 1.284 . S
C348 O349 1.273 . S
O349 C348 1.273 . S
O350 Zn341 1.977 . S
O350 C343 1.267 . S
C351 O352 1.160 . S
C351 O358 1.185 . S
O352 C351 1.160 . S
O353 Zn354 1.899 . S
O353 C361 1.284 . S
Zn354 O353 1.899 . S
Zn354 O355 2.032 . S
Zn354 O358 2.086 . S
Zn354 O363 1.977 . S
O355 Zn354 2.032 . S
O355 C359 1.278 . S
C356 O357 1.203 . S
C356 O363 1.267 . S
O357 C356 1.203 . S
O358 C351 1.185 . S
O358 Zn354 2.086 . S
C359 O355 1.278 . S
C359 O360 1.211 . S
O360 C359 1.211 . S
C361 O353 1.284 . S
C361 O362 1.273 . S
O362 C361 1.273 . S
O363 Zn354 1.977 . S
O363 C356 1.267 . S
C364 O365 1.160 . S
C364 O371 1.185 . S
O365 C364 1.160 . S
O366 Zn367 1.899 . S
O366 C374 1.284 . S
Zn367 O366 1.899 . S
Zn367 O368 2.032 . S
Zn367 O371 2.086 . S
Zn367 O376 1.977 . S
O368 Zn367 2.032 . S
O368 C372 1.278 . S
C369 O370 1.203 . S
C369 O376 1.267 . S
O370 C369 1.203 . S
O371 C364 1.185 . S
O371 Zn367 2.086 . S
C372 O368 1.278 . S
C372 O373 1.211 . S
O373 C372 1.211 . S
C374 O366 1.284 . S
C374 O375 1.273 . S
O375 C374 1.273 . S
O376 Zn367 1.977 . S
O376 C369 1.267 . S
C377 O378 1.160 . S
C377 O384 1.185 . S
O378 C377 1.160 . S
O379 Zn380 1.899 . S
O379 C387 1.284 . S
Zn380 O379 1.899 . S
Zn380 O381 2.032 . S
Zn380 O384 2.086 . S
Zn380 O389 1.977 . S
O381 Zn380 2.032 . S
O381 C385 1.278 . S
C382 O383 1.203 . S
C382 O389 1.267 . S
O383 C382 1.203 . S
O384 C377 1.185 . S
O384 Zn380 2.086 . S
C385 O381 1.278 . S
C385 O386 1.211 . S
O386 C385 1.211 . S
C387 O379 1.284 . S
C387 O388 1.273 . S
O388 C387 1.273 . S
O389 Zn380 1.977 . S
O389 C382 1.267 . S
C390 O391 1.160 . S
C390 O397 1.185 . S
O391 C390 1.160 . S
O392 Zn393 1.899 . S
O392 C400 1.284 . S
Zn393 O392 1.899 . S
Zn393 O394 2.032 . S
Zn393 O397 2.086 . S
Zn393 O402 1.977 . S
O394 Zn393 2.032 . S
O394 C398 1.278 . S
C395 O396 1.203 . S
C395 O402 1.267 . S
O396 C395 1.203 . S
O397 C390 1.185 . S
O397 Zn393 2.086 . S
C398 O394 1.278 . S
C398 O399 1.211 . S
O399 C398 1.211 . S
C400 O392 1.284 . S
C400 O401 1.273 . S
O401 C400 1.273 . S
O402 Zn393 1.977 . S
O402 C395 1.267 . S
C403 O404 1.160 . S
C403 O410 1.185 . S
O404 C403 1.160 . S
O405 Zn406 1.899 . S
O405 C413 1.284 . S
Zn406 O405 1.899 . S
Zn406 O407 2.032 . S
Zn406 O410 2.086 . S
Zn406 O415 1.977 . S
O407 Zn406 2.032 . S
O407 C411 1.278 . S
C408 O409 1.203 . S
C408 O415 1.267 . S
O409 C408 1.203 . S
O410 C403 1.185 . S
O410 Zn406 2.086 . S
C411 O407 1.278 . S
C411 O412 1.211 1_556 S
O412 C411 1.211 1_554 S
C413 O405 1.284 . S
C413 O414 1.273 . S
O414 C413 1.273 . S
O415 Zn406 1.977 . S
O415 C408 1.267 . S
H416 C424 0.950 . S
H417 C429 0.950 . S
H418 C426 0.950 . S
H419 C428 0.950 . S
H420 C430 0.950 . S
H421 C432 0.950 . S
H422 C434 0.950 . S
H423 C435 0.950 . S
C424 H416 0.950 . S
C424 C425 1.386 . S
C424 C426 1.391 . S
C425 C424 1.386 . S
C425 C429 1.393 . S
C426 H418 0.950 . S
C426 C424 1.391 . S
C426 C427 1.400 . S
C427 C426 1.400 . S
C427 C428 1.398 . S
C427 C433 1.491 . S
C428 H419 0.950 . S
C428 C427 1.398 . S
C428 C429 1.391 . S
C429 H417 0.950 . S
C429 C425 1.393 . S
C429 C428 1.391 . S
C430 H420 0.950 . S
C430 C431 1.386 . S
C430 C432 1.391 . S
C431 C430 1.386 . S
C431 C435 1.393 . S
C432 H421 0.950 . S
C432 C430 1.391 . S
C432 C433 1.400 . S
C433 C427 1.491 . S
C433 C432 1.400 . S
C433 C434 1.398 . S
C434 H422 0.950 . S
C434 C433 1.398 . S
C434 C435 1.391 . S
C435 H423 0.950 . S
C435 C431 1.393 . S
C435 C434 1.391 . S
H436 C444 0.950 . S
H437 C449 0.950 . S
H438 C446 0.950 . S
H439 C448 0.950 . S
H440 C450 0.950 . S
H441 C452 0.950 . S
H442 C454 0.950 . S
H443 C455 0.950 . S
C444 H436 0.950 . S
C444 C445 1.386 . S
C444 C446 1.391 . S
C445 C444 1.386 . S
C445 C449 1.393 . S
C446 H438 0.950 . S
C446 C444 1.391 . S
C446 C447 1.400 . S
C447 C446 1.400 . S
C447 C448 1.398 . S
C447 C453 1.491 1_565 S
C448 H439 0.950 . S
C448 C447 1.398 . S
C448 C449 1.391 . S
C449 H437 0.950 . S
C449 C445 1.393 . S
C449 C448 1.391 . S
C450 H440 0.950 . S
C450 C451 1.386 . S
C450 C452 1.391 . S
C451 C450 1.386 . S
C451 C455 1.393 . S
C452 H441 0.950 . S
C452 C450 1.391 . S
C452 C453 1.400 . S
C453 C447 1.491 1_545 S
C453 C452 1.400 . S
C453 C454 1.398 . S
C454 H442 0.950 . S
C454 C453 1.398 . S
C454 C455 1.391 . S
C455 H443 0.950 . S
C455 C451 1.393 . S
C455 C454 1.391 . S
H456 C464 0.950 . S
H457 C469 0.950 . S
H458 C466 0.950 . S
H459 C468 0.950 . S
H460 C470 0.950 . S
H461 C472 0.950 . S
H462 C474 0.950 . S
H463 C475 0.950 . S
C464 H456 0.950 . S
C464 C465 1.386 . S
C464 C466 1.391 . S
C465 C464 1.386 . S
C465 C469 1.393 . S
C466 H458 0.950 . S
C466 C464 1.391 . S
C466 C467 1.400 . S
C467 C466 1.400 . S
C467 C468 1.398 . S
C467 C473 1.491 . S
C468 H459 0.950 . S
C468 C467 1.398 . S
C468 C469 1.391 . S
C469 H457 0.950 . S
C469 C465 1.393 . S
C469 C468 1.391 . S
C470 H460 0.950 . S
C470 C471 1.386 . S
C470 C472 1.391 . S
C471 C470 1.386 . S
C471 C475 1.393 . S
C472 H461 0.950 . S
C472 C470 1.391 . S
C472 C473 1.400 . S
C473 C467 1.491 . S
C473 C472 1.400 . S
C473 C474 1.398 . S
C474 H462 0.950 . S
C474 C473 1.398 . S
C474 C475 1.391 . S
C475 H463 0.950 . S
C475 C471 1.393 . S
C475 C474 1.391 . S
H476 C484 0.950 . S
H477 C489 0.950 . S
H478 C486 0.950 . S
H479 C488 0.950 . S
H480 C490 0.950 . S
H481 C492 0.950 . S
H482 C494 0.950 . S
H483 C495 0.950 . S
C484 H476 0.950 . S
C484 C485 1.386 . S
C484 C486 1.391 . S
C485 C484 1.386 . S
C485 C489 1.393 . S
C486 H478 0.950 . S
C486 C484 1.391 . S
C486 C487 1.400 . S
C487 C486 1.400 . S
C487 C488 1.398 . S
C487 C493 1.491 1_546 S
C488 H479 0.950 . S
C488 C487 1.398 . S
C488 C489 1.391 . S
C489 H477 0.950 . S
C489 C485 1.393 . S
C489 C488 1.391 . S
C490 H480 0.950 . S
C490 C491 1.386 . S
C490 C492 1.391 . S
C491 C490 1.386 . S
C491 C495 1.393 . S
C492 H481 0.950 . S
C492 C490 1.391 . S
C492 C493 1.400 . S
C493 C487 1.491 1_564 S
C493 C492 1.400 . S
C493 C494 1.398 . S
C494 H482 0.950 . S
C494 C493 1.398 . S
C494 C495 1.391 . S
C495 H483 0.950 . S
C495 C491 1.393 . S
C495 C494 1.391 . S
H496 C504 0.950 . S
H497 C509 0.950 . S
H498 C506 0.950 . S
H499 C508 0.950 . S
H500 C510 0.950 . S
H501 C512 0.950 . S
H502 C514 0.950 . S
H503 C515 0.950 . S
C504 H496 0.950 . S
C504 C505 1.386 . S
C504 C506 1.391 . S
C505 C504 1.386 . S
C505 C509 1.393 . S
C506 H498 0.950 . S
C506 C504 1.391 . S
C506 C507 1.400 . S
C507 C506 1.400 . S
C507 C508 1.398 . S
C507 C513 1.491 . S
C508 H499 0.950 . S
C508 C507 1.398 . S
C508 C509 1.391 . S
C509 H497 0.950 . S
C509 C505 1.393 . S
C509 C508 1.391 . S
C510 H500 0.950 . S
C510 C511 1.386 . S
C510 C512 1.391 . S
C511 C510 1.386 . S
C511 C515 1.393 . S
C512 H501 0.950 . S
C512 C510 1.391 . S
C512 C513 1.400 . S
C513 C507 1.491 . S
C513 C512 1.400 . S
C513 C514 1.398 . S
C514 H502 0.950 . S
C514 C513 1.398 . S
C514 C515 1.391 . S
C515 H503 0.950 . S
C515 C511 1.393 . S
C515 C514 1.391 . S
H516 C524 0.950 . S
H517 C529 0.950 . S
H518 C526 0.950 . S
H519 C528 0.950 . S
H520 C530 0.950 . S
H521 C532 0.950 . S
H522 C534 0.950 . S
H523 C535 0.950 . S
C524 H516 0.950 . S
C524 C525 1.386 . S
C524 C526 1.391 . S
C525 C524 1.386 . S
C525 C529 1.393 . S
C526 H518 0.950 . S
C526 C524 1.391 . S
C526 C527 1.400 . S
C527 C526 1.400 . S
C527 C528 1.398 . S
C527 C533 1.491 1_565 S
C528 H519 0.950 . S
C528 C527 1.398 . S
C528 C529 1.391 . S
C529 H517 0.950 . S
C529 C525 1.393 . S
C529 C528 1.391 . S
C530 H520 0.950 . S
C530 C531 1.386 . S
C530 C532 1.391 . S
C531 C530 1.386 . S
C531 C535 1.393 . S
C532 H521 0.950 . S
C532 C530 1.391 . S
C532 C533 1.400 . S
C533 C527 1.491 1_545 S
C533 C532 1.400 . S
C533 C534 1.398 . S
C534 H522 0.950 . S
C534 C533 1.398 . S
C534 C535 1.391 . S
C535 H523 0.950 . S
C535 C531 1.393 . S
C535 C534 1.391 . S
H536 C544 0.950 . S
H537 C549 0.950 . S
H538 C546 0.950 . S
H539 C548 0.950 . S
H540 C550 0.950 . S
H541 C552 0.950 . S
H542 C554 0.950 . S
H543 C555 0.950 . S
C544 H536 0.950 . S
C544 C545 1.386 . S
C544 C546 1.391 . S
C545 C544 1.386 . S
C545 C549 1.393 . S
C546 H538 0.950 . S
C546 C544 1.391 . S
C546 C547 1.400 . S
C547 C546 1.400 . S
C547 C548 1.398 . S
C547 C553 1.491 . S
C548 H539 0.950 . S
C548 C547 1.398 . S
C548 C549 1.391 . S
C549 H537 0.950 . S
C549 C545 1.393 . S
C549 C548 1.391 . S
C550 H540 0.950 . S
C550 C551 1.386 . S
C550 C552 1.391 . S
C551 C550 1.386 . S
C551 C555 1.393 . S
C552 H541 0.950 . S
C552 C550 1.391 . S
C552 C553 1.400 . S
C553 C547 1.491 . S
C553 C552 1.400 . S
C553 C554 1.398 . S
C554 H542 0.950 . S
C554 C553 1.398 . S
C554 C555 1.391 . S
C555 H543 0.950 . S
C555 C551 1.393 . S
C555 C554 1.391 . S
H556 C564 0.950 . S
H557 C569 0.950 1_554 S
H558 C566 0.950 . S
H559 C568 0.950 . S
H560 C570 0.950 . S
H561 C572 0.950 . S
H562 C574 0.950 . S
H563 C575 0.950 1_556 S
C564 H556 0.950 . S
C564 C565 1.386 . S
C564 C566 1.391 . S
C565 C564 1.386 . S
C565 C569 1.393 . S
C566 H558 0.950 . S
C566 C564 1.391 . S
C566 C567 1.400 . S
C567 C566 1.400 . S
C567 C568 1.398 1_556 S
C567 C573 1.491 1_546 S
C568 H559 0.950 . S
C568 C567 1.398 1_554 S
C568 C569 1.391 1_554 S
C569 H557 0.950 1_556 S
C569 C565 1.393 . S
C569 C568 1.391 1_556 S
C570 H560 0.950 . S
C570 C571 1.386 . S
C570 C572 1.391 . S
C571 C570 1.386 . S
C571 C575 1.393 . S
C572 H561 0.950 . S
C572 C570 1.391 . S
C572 C573 1.400 . S
C573 C567 1.491 1_564 S
C573 C572 1.400 . S
C573 C574 1.398 1_554 S
C574 H562 0.950 . S
C574 C573 1.398 1_556 S
C574 C575 1.391 1_556 S
C575 H563 0.950 1_554 S
C575 C571 1.393 . S
C575 C574 1.391 1_554 S
H576 C584 0.950 . S
H577 C589 0.950 . S
H578 C586 0.950 . S
H579 C588 0.950 . S
H580 C590 0.950 . S
H581 C592 0.950 . S
H582 C594 0.950 . S
H583 C595 0.950 . S
C584 H576 0.950 . S
C584 C585 1.386 . S
C584 C586 1.391 . S
C585 C584 1.386 . S
C585 C589 1.393 . S
C586 H578 0.950 . S
C586 C584 1.391 . S
C586 C587 1.400 . S
C587 C586 1.400 . S
C587 C588 1.398 . S
C587 C593 1.491 . S
C588 H579 0.950 . S
C588 C587 1.398 . S
C588 C589 1.391 . S
C589 H577 0.950 . S
C589 C585 1.393 . S
C589 C588 1.391 . S
C590 H580 0.950 . S
C590 C591 1.386 . S
C590 C592 1.391 . S
C591 C590 1.386 . S
C591 C595 1.393 . S
C592 H581 0.950 . S
C592 C590 1.391 . S
C592 C593 1.400 . S
C593 C587 1.491 . S
C593 C592 1.400 . S
C593 C594 1.398 . S
C594 H582 0.950 . S
C594 C593 1.398 . S
C594 C595 1.391 . S
C595 H583 0.950 . S
C595 C591 1.393 . S
C595 C594 1.391 . S
H596 C604 0.950 . S
H597 C609 0.950 . S
H598 C606 0.950 . S
H599 C608 0.950 . S
H600 C610 0.950 . S
H601 C612 0.950 . S
H602 C614 0.950 . S
H603 C615 0.950 . S
C604 H596 0.950 . S
C604 C605 1.386 . S
C604 C606 1.391 . S
C605 C604 1.386 . S
C605 C609 1.393 . S
C606 H598 0.950 . S
C606 C604 1.391 . S
C606 C607 1.400 . S
C607 C606 1.400 . S
C607 C608 1.398 1_556 S
C607 C613 1.491 1_556 S
C608 H599 0.950 . S
C608 C607 1.398 1_554 S
C608 C609 1.391 1_554 S
C609 H597 0.950 . S
C609 C605 1.393 . S
C609 C608 1.391 1_556 S
C610 H600 0.950 . S
C610 C611 1.386 . S
C610 C612 1.391 . S
C611 C610 1.386 . S
C611 C615 1.393 . S
C612 H601 0.950 . S
C612 C610 1.391 . S
C612 C613 1.400 . S
C613 C607 1.491 1_554 S
C613 C612 1.400 . S
C613 C614 1.398 1_554 S
C614 H602 0.950 . S
C614 C613 1.398 1_556 S
C614 C615 1.391 1_556 S
C615 H603 0.950 . S
C615 C611 1.393 . S
C615 C614 1.391 1_554 S
H616 C624 0.950 . S
H617 C629 0.950 . S
H618 C626 0.950 . S
H619 C628 0.950 . S
H620 C630 0.950 . S
H621 C632 0.950 . S
H622 C634 0.950 . S
H623 C635 0.950 . S
C624 H616 0.950 . S
C624 C625 1.386 . S
C624 C626 1.391 . S
C625 C624 1.386 . S
C625 C629 1.393 . S
C626 H618 0.950 . S
C626 C624 1.391 . S
C626 C627 1.400 . S
C627 C626 1.400 . S
C627 C628 1.398 . S
C627 C633 1.491 . S
C628 H619 0.950 . S
C628 C627 1.398 . S
C628 C629 1.391 . S
C629 H617 0.950 . S
C629 C625 1.393 . S
C629 C628 1.391 . S
C630 H620 0.950 . S
C630 C631 1.386 . S
C630 C632 1.391 . S
C631 C630 1.386 . S
C631 C635 1.393 . S
C632 H621 0.950 . S
C632 C630 1.391 . S
C632 C633 1.400 . S
C633 C627 1.491 . S
C633 C632 1.400 . S
C633 C634 1.398 . S
C634 H622 0.950 . S
C634 C633 1.398 . S
C634 C635 1.391 . S
C635 H623 0.950 . S
C635 C631 1.393 . S
C635 C634 1.391 . S
H636 C644 0.950 . S
H637 C649 0.950 . S
H638 C646 0.950 . S
H639 C648 0.950 . S
H640 C650 0.950 . S
H641 C652 0.950 . S
H642 C654 0.950 . S
H643 C655 0.950 . S
C644 H636 0.950 . S
C644 C645 1.386 . S
C644 C646 1.391 . S
C645 C644 1.386 . S
C645 C649 1.393 . S
C646 H638 0.950 . S
C646 C644 1.391 . S
C646 C647 1.400 . S
C647 C646 1.400 . S
C647 C648 1.398 . S
C647 C653 1.491 . S
C648 H639 0.950 . S
C648 C647 1.398 . S
C648 C649 1.391 . S
C649 H637 0.950 . S
C649 C645 1.393 . S
C649 C648 1.391 . S
C650 H640 0.950 . S
C650 C651 1.386 . S
C650 C652 1.391 . S
C651 C650 1.386 . S
C651 C655 1.393 . S
C652 H641 0.950 . S
C652 C650 1.391 . S
C652 C653 1.400 . S
C653 C647 1.491 . S
C653 C652 1.400 . S
C653 C654 1.398 . S
C654 H642 0.950 . S
C654 C653 1.398 . S
C654 C655 1.391 . S
C655 H643 0.950 . S
C655 C651 1.393 . S
C655 C654 1.391 . S
H656 C664 0.950 . S
H657 C669 0.950 . S
H658 C666 0.950 . S
H659 C668 0.950 . S
H660 C670 0.950 . S
H661 C672 0.950 . S
H662 C674 0.950 . S
H663 C675 0.950 . S
C664 H656 0.950 . S
C664 C665 1.386 . S
C664 C666 1.391 . S
C665 C664 1.386 . S
C665 C669 1.393 . S
C666 H658 0.950 . S
C666 C664 1.391 . S
C666 C667 1.400 . S
C667 C666 1.400 . S
C667 C668 1.398 . S
C667 C673 1.491 . S
C668 H659 0.950 . S
C668 C667 1.398 . S
C668 C669 1.391 . S
C669 H657 0.950 . S
C669 C665 1.393 . S
C669 C668 1.391 . S
C670 H660 0.950 . S
C670 C671 1.386 . S
C670 C672 1.391 . S
C671 C670 1.386 . S
C671 C675 1.393 . S
C672 H661 0.950 . S
C672 C670 1.391 . S
C672 C673 1.400 . S
C673 C667 1.491 . S
C673 C672 1.400 . S
C673 C674 1.398 . S
C674 H662 0.950 . S
C674 C673 1.398 . S
C674 C675 1.391 . S
C675 H663 0.950 . S
C675 C671 1.393 . S
C675 C674 1.391 . S
H676 C684 0.950 . S
H677 C689 0.950 . S
H678 C686 0.950 1_556 S
H679 C688 0.950 . S
H680 C690 0.950 . S
H681 C692 0.950 1_554 S
H682 C694 0.950 . S
H683 C695 0.950 . S
C684 H676 0.950 . S
C684 C685 1.386 . S
C684 C686 1.391 . S
C685 C684 1.386 . S
C685 C689 1.393 . S
C686 H678 0.950 1_554 S
C686 C684 1.391 . S
C686 C687 1.400 . S
C687 C686 1.400 . S
C687 C688 1.398 . S
C687 C693 1.491 1_554 S
C688 H679 0.950 . S
C688 C687 1.398 . S
C688 C689 1.391 . S
C689 H677 0.950 . S
C689 C685 1.393 . S
C689 C688 1.391 . S
C690 H680 0.950 . S
C690 C691 1.386 . S
C690 C692 1.391 . S
C691 C690 1.386 . S
C691 C695 1.393 . S
C692 H681 0.950 1_556 S
C692 C690 1.391 . S
C692 C693 1.400 . S
C693 C687 1.491 1_556 S
C693 C692 1.400 . S
C693 C694 1.398 . S
C694 H682 0.950 . S
C694 C693 1.398 . S
C694 C695 1.391 . S
C695 H683 0.950 . S
C695 C691 1.393 . S
C695 C694 1.391 . S
H696 C704 0.950 . S
H697 C709 0.950 . S
H698 C706 0.950 . S
H699 C708 0.950 . S
H700 C710 0.950 . S
H701 C712 0.950 . S
H702 C714 0.950 . S
H703 C715 0.950 . S
C704 H696 0.950 . S
C704 C705 1.386 . S
C704 C706 1.391 . S
C705 C704 1.386 . S
C705 C709 1.393 . S
C706 H698 0.950 . S
C706 C704 1.391 . S
C706 C707 1.400 . S
C707 C706 1.400 . S
C707 C708 1.398 . S
C707 C713 1.491 . S
C708 H699 0.950 . S
C708 C707 1.398 . S
C708 C709 1.391 . S
C709 H697 0.950 . S
C709 C705 1.393 . S
C709 C708 1.391 . S
C710 H700 0.950 . S
C710 C711 1.386 . S
C710 C712 1.391 . S
C711 C710 1.386 . S
C711 C715 1.393 . S
C712 H701 0.950 . S
C712 C710 1.391 . S
C712 C713 1.400 . S
C713 C707 1.491 . S
C713 C712 1.400 . S
C713 C714 1.398 . S
C714 H702 0.950 . S
C714 C713 1.398 . S
C714 C715 1.391 . S
C715 H703 0.950 . S
C715 C711 1.393 . S
C715 C714 1.391 . S
H716 C724 0.950 . S
H717 C729 0.950 . S
H718 C726 0.950 . S
H719 C728 0.950 . S
H720 C730 0.950 . S
H721 C732 0.950 . S
H722 C734 0.950 . S
H723 C735 0.950 . S
C724 H716 0.950 . S
C724 C725 1.386 . S
C724 C726 1.391 . S
C725 C724 1.386 . S
C725 C729 1.393 . S
C726 H718 0.950 . S
C726 C724 1.391 . S
C726 C727 1.400 . S
C727 C726 1.400 . S
C727 C728 1.398 . S
C727 C733 1.491 . S
C728 H719 0.950 . S
C728 C727 1.398 . S
C728 C729 1.391 . S
C729 H717 0.950 . S
C729 C725 1.393 . S
C729 C728 1.391 . S
C730 H720 0.950 . S
C730 C731 1.386 . S
C730 C732 1.391 . S
C731 C730 1.386 . S
C731 C735 1.393 . S
C732 H721 0.950 . S
C732 C730 1.391 . S
C732 C733 1.400 . S
C733 C727 1.491 . S
C733 C732 1.400 . S
C733 C734 1.398 . S
C734 H722 0.950 . S
C734 C733 1.398 . S
C734 C735 1.391 . S
C735 H723 0.950 . S
C735 C731 1.393 . S
C735 C734 1.391 . S
H736 C744 0.950 1_554 S
H737 C749 0.950 . S
H738 C746 0.950 . S
H739 C748 0.950 . S
H740 C750 0.950 . S
H741 C752 0.950 . S
H742 C754 0.950 . S
H743 C755 0.950 . S
C744 H736 0.950 1_556 S
C744 C745 1.386 . S
C744 C746 1.391 . S
C745 C744 1.386 . S
C745 C749 1.393 . S
C746 H738 0.950 . S
C746 C744 1.391 . S
C746 C747 1.400 . S
C747 C746 1.400 . S
C747 C748 1.398 . S
C747 C753 1.491 . S
C748 H739 0.950 . S
C748 C747 1.398 . S
C748 C749 1.391 . S
C749 H737 0.950 . S
C749 C745 1.393 . S
C749 C748 1.391 . S
C750 H740 0.950 . S
C750 C751 1.386 . S
C750 C752 1.391 . S
C751 C750 1.386 . S
C751 C755 1.393 . S
C752 H741 0.950 . S
C752 C750 1.391 . S
C752 C753 1.400 . S
C753 C747 1.491 . S
C753 C752 1.400 . S
C753 C754 1.398 . S
C754 H742 0.950 . S
C754 C753 1.398 . S
C754 C755 1.391 . S
C755 H743 0.950 . S
C755 C751 1.393 . S
C755 C754 1.391 . S
H756 C764 0.950 . S
H757 C769 0.938 1_556 S
H758 C766 0.950 . S
H759 C768 0.950 . S
H760 C770 0.950 . S
H761 C772 0.950 . S
H762 C774 0.950 . S
H763 C775 0.950 . S
C764 H756 0.950 . S
C764 C765 1.386 . S
C764 C766 1.391 . S
C765 C764 1.386 . S
C765 C769 1.394 . S
C766 H758 0.950 . S
C766 C764 1.391 . S
C766 C767 1.400 . S
C767 C766 1.400 . S
C767 C768 1.398 . S
C767 C773 1.491 . S
C768 H759 0.950 . S
C768 C767 1.398 . S
C768 C769 1.402 . S
C769 H757 0.938 1_554 S
C769 C765 1.394 . S
C769 C768 1.402 . S
C770 H760 0.950 . S
C770 C771 1.386 . S
C770 C772 1.391 . S
C771 C770 1.386 . S
C771 C775 1.393 . S
C772 H761 0.950 . S
C772 C770 1.391 . S
C772 C773 1.400 . S
C773 C767 1.491 . S
C773 C772 1.400 . S
C773 C774 1.398 . S
C774 H762 0.950 . S
C774 C773 1.398 . S
C774 C775 1.391 . S
C775 H763 0.950 . S
C775 C771 1.393 . S
C775 C774 1.391 . S
H776 C784 0.950 . S
H777 C789 0.950 . S
H778 C786 0.950 . S
H779 C788 0.950 . S
H780 C790 0.950 . S
H781 C792 0.950 . S
H782 C794 0.950 . S
H783 C795 0.950 . S
C784 H776 0.950 . S
C784 C785 1.386 . S
C784 C786 1.391 . S
C785 C784 1.386 . S
C785 C789 1.393 . S
C786 H778 0.950 . S
C786 C784 1.391 . S
C786 C787 1.400 . S
C787 C786 1.400 . S
C787 C788 1.398 . S
C787 C793 1.491 . S
C788 H779 0.950 . S
C788 C787 1.398 . S
C788 C789 1.391 . S
C789 H777 0.950 . S
C789 C785 1.393 . S
C789 C788 1.391 . S
C790 H780 0.950 . S
C790 C791 1.386 . S
C790 C792 1.391 . S
C791 C790 1.386 . S
C791 C795 1.393 . S
C792 H781 0.950 . S
C792 C790 1.391 . S
C792 C793 1.400 . S
C793 C787 1.491 . S
C793 C792 1.400 . S
C793 C794 1.398 . S
C794 H782 0.950 . S
C794 C793 1.398 . S
C794 C795 1.391 . S
C795 H783 0.950 . S
C795 C791 1.393 . S
C795 C794 1.391 . S
H796 C804 0.950 . S
H797 C809 0.950 . S
H798 C806 0.950 . S
H799 C808 0.950 . S
H800 C810 0.950 . S
H801 C812 0.950 . S
H802 C814 0.950 . S
H803 C815 0.950 . S
C804 H796 0.950 . S
C804 C805 1.386 . S
C804 C806 1.391 . S
C805 C804 1.386 . S
C805 C809 1.393 . S
C806 H798 0.950 . S
C806 C804 1.391 . S
C806 C807 1.400 . S
C807 C806 1.400 . S
C807 C808 1.398 . S
C807 C813 1.491 . S
C808 H799 0.950 . S
C808 C807 1.398 . S
C808 C809 1.391 . S
C809 H797 0.950 . S
C809 C805 1.393 . S
C809 C808 1.391 . S
C810 H800 0.950 . S
C810 C811 1.386 . S
C810 C812 1.391 . S
C811 C810 1.386 . S
C811 C815 1.393 . S
C812 H801 0.950 . S
C812 C810 1.391 . S
C812 C813 1.400 . S
C813 C807 1.491 . S
C813 C812 1.400 . S
C813 C814 1.398 . S
C814 H802 0.950 . S
C814 C813 1.398 . S
C814 C815 1.391 . S
C815 H803 0.950 . S
C815 C811 1.393 . S
C815 C814 1.391 . S
H816 C824 0.950 . S
H817 C829 0.956 . S
H818 C826 0.950 . S
H819 C828 0.950 . S
H820 C830 0.950 . S
H821 C832 0.950 . S
H822 C834 0.950 . S
H823 C835 0.950 . S
C824 H816 0.950 . S
C824 C825 1.386 . S
C824 C826 1.391 . S
C825 C824 1.386 . S
C825 C829 1.392 1_554 S
C826 H818 0.950 . S
C826 C824 1.391 . S
C826 C827 1.400 . S
C827 C826 1.400 . S
C827 C828 1.398 . S
C827 C833 1.491 . S
C828 H819 0.950 . S
C828 C827 1.398 . S
C828 C829 1.385 1_554 S
C829 H817 0.956 . S
C829 C825 1.392 1_556 S
C829 C828 1.385 1_556 S
C830 H820 0.950 . S
C830 C831 1.386 . S
C830 C832 1.391 . S
C831 C830 1.386 . S
C831 C835 1.393 . S
C832 H821 0.950 . S
C832 C830 1.391 . S
C832 C833 1.400 . S
C833 C827 1.491 . S
C833 C832 1.400 . S
C833 C834 1.398 . S
C834 H822 0.950 . S
C834 C833 1.398 . S
C834 C835 1.391 . S
C835 H823 0.950 . S
C835 C831 1.393 . S
C835 C834 1.391 . S
H836 C844 0.950 1_554 S
H837 C849 0.950 . S
H838 C846 0.950 . S
H839 C848 0.950 . S
H840 C850 0.950 . S
H841 C852 0.950 . S
H842 C854 0.950 . S
H843 C855 0.950 . S
C844 H836 0.950 1_556 S
C844 C845 1.386 . S
C844 C846 1.391 . S
C845 C844 1.386 . S
C845 C849 1.393 . S
C846 H838 0.950 . S
C846 C844 1.391 . S
C846 C847 1.400 . S
C847 C846 1.400 . S
C847 C848 1.398 . S
C847 C853 1.491 . S
C848 H839 0.950 . S
C848 C847 1.398 . S
C848 C849 1.391 . S
C849 H837 0.950 . S
C849 C845 1.393 . S
C849 C848 1.391 . S
C850 H840 0.950 . S
C850 C851 1.386 . S
C850 C852 1.391 . S
C851 C850 1.386 . S
C851 C855 1.393 . S
C852 H841 0.950 . S
C852 C850 1.391 . S
C852 C853 1.400 . S
C853 C847 1.491 . S
C853 C852 1.400 . S
C853 C854 1.398 . S
C854 H842 0.950 . S
C854 C853 1.398 . S
C854 C855 1.391 . S
C855 H843 0.950 . S
C855 C851 1.393 . S
C855 C854 1.391 . S
H856 C864 0.950 . S
H857 C869 0.950 . S
H858 C866 0.950 . S
H859 C868 0.950 . S
H860 C870 0.950 . S
H861 C872 0.950 . S
H862 C874 0.950 . S
H863 C875 0.950 . S
C864 H856 0.950 . S
C864 C865 1.386 . S
C864 C866 1.391 . S
C865 C864 1.386 . S
C865 C869 1.393 . S
C866 H858 0.950 . S
C866 C864 1.391 . S
C866 C867 1.400 . S
C867 C866 1.400 . S
C867 C868 1.398 . S
C867 C873 1.491 . S
C868 H859 0.950 . S
C868 C867 1.398 . S
C868 C869 1.391 . S
C869 H857 0.950 . S
C869 C865 1.393 . S
C869 C868 1.391 . S
C870 H860 0.950 . S
C870 C871 1.386 . S
C870 C872 1.391 . S
C871 C870 1.386 . S
C871 C875 1.393 . S
C872 H861 0.950 . S
C872 C870 1.391 . S
C872 C873 1.400 . S
C873 C867 1.491 . S
C873 C872 1.400 . S
C873 C874 1.398 . S
C874 H862 0.950 . S
C874 C873 1.398 . S
C874 C875 1.391 . S
C875 H863 0.950 . S
C875 C871 1.393 . S
C875 C874 1.391 . S
H876 C884 0.950 . S
H877 C889 0.950 . S
H878 C886 0.950 . S
H879 C888 0.950 . S
H880 C890 0.950 . S
H881 C892 0.950 . S
H882 C894 0.950 . S
H883 C895 0.950 . S
C884 H876 0.950 . S
C884 C885 1.386 . S
C884 C886 1.391 . S
C885 C884 1.386 . S
C885 C889 1.393 . S
C886 H878 0.950 . S
C886 C884 1.391 . S
C886 C887 1.400 . S
C887 C886 1.400 . S
C887 C888 1.398 . S
C887 C893 1.491 . S
C888 H879 0.950 . S
C888 C887 1.398 . S
C888 C889 1.391 . S
C889 H877 0.950 . S
C889 C885 1.393 . S
C889 C888 1.391 . S
C890 H880 0.950 . S
C890 C891 1.386 . S
C890 C892 1.391 . S
C891 C890 1.386 . S
C891 C895 1.393 . S
C892 H881 0.950 . S
C892 C890 1.391 . S
C892 C893 1.400 . S
C893 C887 1.491 . S
C893 C892 1.400 . S
C893 C894 1.398 . S
C894 H882 0.950 . S
C894 C893 1.398 . S
C894 C895 1.391 . S
C895 H883 0.950 . S
C895 C891 1.393 . S
C895 C894 1.391 . S
H896 C904 0.950 . S
H897 C909 0.950 . S
H898 C906 0.950 . S
H899 C908 0.950 . S
H900 C910 0.950 . S
H901 C912 0.950 . S
H902 C914 0.950 . S
H903 C915 0.950 . S
C904 H896 0.950 . S
C904 C905 1.386 . S
C904 C906 1.391 . S
C905 C904 1.386 . S
C905 C909 1.393 . S
C906 H898 0.950 . S
C906 C904 1.391 . S
C906 C907 1.400 . S
C907 C906 1.400 . S
C907 C908 1.398 . S
C907 C913 1.491 . S
C908 H899 0.950 . S
C908 C907 1.398 . S
C908 C909 1.391 . S
C909 H897 0.950 . S
C909 C905 1.393 . S
C909 C908 1.391 . S
C910 H900 0.950 . S
C910 C911 1.386 . S
C910 C912 1.391 . S
C911 C910 1.386 . S
C911 C915 1.393 . S
C912 H901 0.950 . S
C912 C910 1.391 . S
C912 C913 1.400 . S
C913 C907 1.491 . S
C913 C912 1.400 . S
C913 C914 1.398 . S
C914 H902 0.950 . S
C914 C913 1.398 . S
C914 C915 1.391 . S
C915 H903 0.950 . S
C915 C911 1.393 . S
C915 C914 1.391 . S
H916 C924 0.950 . S
H917 C929 0.950 . S
H918 C926 0.950 . S
H919 C928 0.950 . S
H920 C930 0.950 . S
H921 C932 0.950 . S
H922 C934 0.950 . S
H923 C935 0.950 . S
C924 H916 0.950 . S
C924 C925 1.386 . S
C924 C926 1.391 . S
C925 C924 1.386 . S
C925 C929 1.393 . S
C926 H918 0.950 . S
C926 C924 1.391 . S
C926 C927 1.400 . S
C927 C926 1.400 . S
C927 C928 1.398 . S
C927 C933 1.491 . S
C928 H919 0.950 . S
C928 C927 1.398 . S
C928 C929 1.391 . S
C929 H917 0.950 . S
C929 C925 1.393 . S
C929 C928 1.391 . S
C930 H920 0.950 . S
C930 C931 1.386 . S
C930 C932 1.391 . S
C931 C930 1.386 . S
C931 C935 1.393 . S
C932 H921 0.950 . S
C932 C930 1.391 . S
C932 C933 1.400 . S
C933 C927 1.491 . S
C933 C932 1.400 . S
C933 C934 1.398 . S
C934 H922 0.950 . S
C934 C933 1.398 . S
C934 C935 1.391 . S
C935 H923 0.950 . S
C935 C931 1.393 . S
C935 C934 1.391 . S
H936 C944 0.950 . S
H937 C949 0.950 . S
H938 C946 0.950 . S
H939 C948 0.950 . S
H940 C950 0.950 . S
H941 C952 0.950 . S
H942 C954 0.950 . S
H943 C955 0.961 . S
C944 H936 0.950 . S
C944 C945 1.386 . S
C944 C946 1.391 . S
C945 C944 1.386 . S
C945 C949 1.393 . S
C946 H938 0.950 . S
C946 C944 1.391 . S
C946 C947 1.400 . S
C947 C946 1.400 . S
C947 C948 1.398 . S
C947 C953 1.491 . S
C948 H939 0.950 . S
C948 C947 1.398 . S
C948 C949 1.391 . S
C949 H937 0.950 . S
C949 C945 1.393 . S
C949 C948 1.391 . S
C950 H940 0.950 . S
C950 C951 1.386 . S
C950 C952 1.391 . S
C951 C950 1.386 . S
C951 C955 1.392 1_556 S
C952 H941 0.950 . S
C952 C950 1.391 . S
C952 C953 1.400 . S
C953 C947 1.491 . S
C953 C952 1.400 . S
C953 C954 1.398 . S
C954 H942 0.950 . S
C954 C953 1.398 . S
C954 C955 1.381 1_556 S
C955 H943 0.961 . S
C955 C951 1.392 1_554 S
C955 C954 1.381 1_554 S
H956 C964 0.950 . S
H957 C969 0.950 . S
H958 C966 0.950 . S
H959 C968 0.950 . S
H960 C970 0.950 1_556 S
H961 C972 0.950 . S
H962 C974 0.950 . S
H963 C975 0.950 . S
C964 H956 0.950 . S
C964 C965 1.386 . S
C964 C966 1.391 . S
C965 C964 1.386 . S
C965 C969 1.393 . S
C966 H958 0.950 . S
C966 C964 1.391 . S
C966 C967 1.400 . S
C967 C966 1.400 . S
C967 C968 1.398 . S
C967 C973 1.491 . S
C968 H959 0.950 . S
C968 C967 1.398 . S
C968 C969 1.391 . S
C969 H957 0.950 . S
C969 C965 1.393 . S
C969 C968 1.391 . S
C970 H960 0.950 1_554 S
C970 C971 1.386 . S
C970 C972 1.391 . S
C971 C970 1.386 . S
C971 C975 1.393 . S
C972 H961 0.950 . S
C972 C970 1.391 . S
C972 C973 1.400 . S
C973 C967 1.491 . S
C973 C972 1.400 . S
C973 C974 1.398 . S
C974 H962 0.950 . S
C974 C973 1.398 . S
C974 C975 1.391 . S
C975 H963 0.950 . S
C975 C971 1.393 . S
C975 C974 1.391 . S
H976 C984 0.950 . S
H977 C989 0.950 . S
H978 C986 0.950 . S
H979 C988 0.950 . S
H980 C990 0.950 . S
H981 C992 0.950 . S
H982 C994 0.950 . S
H983 C995 0.950 . S
C984 H976 0.950 . S
C984 C985 1.386 . S
C984 C986 1.391 . S
C985 C984 1.386 . S
C985 C989 1.393 . S
C986 H978 0.950 . S
C986 C984 1.391 . S
C986 C987 1.400 . S
C987 C986 1.400 . S
C987 C988 1.398 . S
C987 C993 1.491 . S
C988 H979 0.950 . S
C988 C987 1.398 . S
C988 C989 1.391 . S
C989 H977 0.950 . S
C989 C985 1.393 . S
C989 C988 1.391 . S
C990 H980 0.950 . S
C990 C991 1.386 . S
C990 C992 1.391 . S
C991 C990 1.386 . S
C991 C995 1.393 . S
C992 H981 0.950 . S
C992 C990 1.391 . S
C992 C993 1.400 . S
C993 C987 1.491 . S
C993 C992 1.400 . S
C993 C994 1.398 . S
C994 H982 0.950 . S
C994 C993 1.398 . S
C994 C995 1.391 . S
C995 H983 0.950 . S
C995 C991 1.393 . S
C995 C994 1.391 . S
H996 C1004 0.950 . S
H997 C1009 0.950 . S
H998 C1006 0.950 . S
H999 C1008 0.950 . S
H1000 C1010 0.950 . S
H1001 C1012 0.950 . S
H1002 C1014 0.950 . S
H1003 C1015 0.950 . S
C1004 H996 0.950 . S
C1004 C1005 1.386 . S
C1004 C1006 1.391 . S
C1005 C1004 1.386 . S
C1005 C1009 1.393 . S
C1006 H998 0.950 . S
C1006 C1004 1.391 . S
C1006 C1007 1.400 . S
C1007 C1006 1.400 . S
C1007 C1008 1.398 . S
C1007 C1013 1.491 . S
C1008 H999 0.950 . S
C1008 C1007 1.398 . S
C1008 C1009 1.391 . S
C1009 H997 0.950 . S
C1009 C1005 1.393 . S
C1009 C1008 1.391 . S
C1010 H1000 0.950 . S
C1010 C1011 1.386 . S
C1010 C1012 1.391 . S
C1011 C1010 1.386 . S
C1011 C1015 1.393 . S
C1012 H1001 0.950 . S
C1012 C1010 1.391 . S
C1012 C1013 1.400 . S
C1013 C1007 1.491 . S
C1013 C1012 1.400 . S
C1013 C1014 1.398 . S
C1014 H1002 0.950 . S
C1014 C1013 1.398 . S
C1014 C1015 1.391 . S
C1015 H1003 0.950 . S
C1015 C1011 1.393 . S
C1015 C1014 1.391 . S
H1016 C1024 0.950 1_556 S
H1017 C1029 0.950 . S
H1018 C1026 0.950 . S
H1019 C1028 0.950 . S
H1020 C1030 0.950 . S
H1021 C1032 0.950 . S
H1022 C1034 0.950 . S
H1023 C1035 0.950 . S
C1024 H1016 0.950 1_554 S
C1024 C1025 1.386 . S
C1024 C1026 1.391 . S
C1025 C1024 1.386 . S
C1025 C1029 1.393 . S
C1026 H1018 0.950 . S
C1026 C1024 1.391 . S
C1026 C1027 1.400 . S
C1027 C1026 1.400 . S
C1027 C1028 1.398 . S
C1027 C1033 1.491 . S
C1028 H1019 0.950 . S
C1028 C1027 1.398 . S
C1028 C1029 1.391 . S
C1029 H1017 0.950 . S
C1029 C1025 1.393 . S
C1029 C1028 1.391 . S
C1030 H1020 0.950 . S
C1030 C1031 1.386 . S
C1030 C1032 1.391 . S
C1031 C1030 1.386 . S
C1031 C1035 1.393 . S
C1032 H1021 0.950 . S
C1032 C1030 1.391 . S
C1032 C1033 1.400 . S
C1033 C1027 1.491 . S
C1033 C1032 1.400 . S
C1033 C1034 1.398 . S
C1034 H1022 0.950 . S
C1034 C1033 1.398 . S
C1034 C1035 1.391 . S
C1035 H1023 0.950 . S
C1035 C1031 1.393 . S
C1035 C1034 1.391 . S
H1036 C1044 0.950 . S
H1037 C1049 0.950 . S
H1038 C1046 0.950 . S
H1039 C1048 0.950 . S
H1040 C1050 0.950 1_554 S
H1041 C1052 0.950 . S
H1042 C1054 0.950 . S
H1043 C1055 0.950 . S
C1044 H1036 0.950 . S
C1044 C1045 1.386 . S
C1044 C1046 1.391 . S
C1045 C1044 1.386 . S
C1045 C1049 1.393 . S
C1046 H1038 0.950 . S
C1046 C1044 1.391 . S
C1046 C1047 1.400 . S
C1047 C1046 1.400 . S
C1047 C1048 1.398 . S
C1047 C1053 1.491 . S
C1048 H1039 0.950 . S
C1048 C1047 1.398 . S
C1048 C1049 1.391 . S
C1049 H1037 0.950 . S
C1049 C1045 1.393 . S
C1049 C1048 1.391 . S
C1050 H1040 0.950 1_556 S
C1050 C1051 1.386 . S
C1050 C1052 1.391 . S
C1051 C1050 1.386 . S
C1051 C1055 1.393 . S
C1052 H1041 0.950 . S
C1052 C1050 1.391 . S
C1052 C1053 1.400 . S
C1053 C1047 1.491 . S
C1053 C1052 1.400 . S
C1053 C1054 1.398 . S
C1054 H1042 0.950 . S
C1054 C1053 1.398 . S
C1054 C1055 1.391 . S
C1055 H1043 0.950 . S
C1055 C1051 1.393 . S
C1055 C1054 1.391 . S
H1056 C1064 0.950 . S
H1057 C1069 0.950 . S
H1058 C1066 0.950 . S
H1059 C1068 0.950 . S
H1060 C1070 0.950 . S
H1061 C1072 0.950 . S
H1062 C1074 0.950 . S
H1063 C1075 0.950 . S
C1064 H1056 0.950 . S
C1064 C1065 1.386 . S
C1064 C1066 1.391 . S
C1065 C1064 1.386 . S
C1065 C1069 1.393 . S
C1066 H1058 0.950 . S
C1066 C1064 1.391 . S
C1066 C1067 1.400 . S
C1067 C1066 1.400 . S
C1067 C1068 1.398 . S
C1067 C1073 1.491 . S
C1068 H1059 0.950 . S
C1068 C1067 1.398 . S
C1068 C1069 1.391 . S
C1069 H1057 0.950 . S
C1069 C1065 1.393 . S
C1069 C1068 1.391 . S
C1070 H1060 0.950 . S
C1070 C1071 1.386 . S
C1070 C1072 1.391 . S
C1071 C1070 1.386 . S
C1071 C1075 1.393 . S
C1072 H1061 0.950 . S
C1072 C1070 1.391 . S
C1072 C1073 1.400 . S
C1073 C1067 1.491 . S
C1073 C1072 1.400 . S
C1073 C1074 1.398 . S
C1074 H1062 0.950 . S
C1074 C1073 1.398 . S
C1074 C1075 1.391 . S
C1075 H1063 0.950 . S
C1075 C1071 1.393 . S
C1075 C1074 1.391 . S
H1076 C1084 0.950 . S
H1077 C1089 0.950 . S
H1078 C1086 0.950 . S
H1079 C1088 0.950 . S
H1080 C1090 0.950 . S
H1081 C1092 0.950 . S
H1082 C1094 0.950 . S
H1083 C1095 0.950 . S
C1084 H1076 0.950 . S
C1084 C1085 1.386 . S
C1084 C1086 1.391 . S
C1085 C1084 1.386 . S
C1085 C1089 1.393 . S
C1086 H1078 0.950 . S
C1086 C1084 1.391 . S
C1086 C1087 1.400 . S
C1087 C1086 1.400 . S
C1087 C1088 1.398 . S
C1087 C1093 1.491 1_655 S
C1088 H1079 0.950 . S
C1088 C1087 1.398 . S
C1088 C1089 1.391 . S
C1089 H1077 0.950 . S
C1089 C1085 1.393 . S
C1089 C1088 1.391 . S
C1090 H1080 0.950 . S
C1090 C1091 1.386 . S
C1090 C1092 1.391 . S
C1091 C1090 1.386 . S
C1091 C1095 1.393 . S
C1092 H1081 0.950 . S
C1092 C1090 1.391 . S
C1092 C1093 1.400 . S
C1093 C1087 1.491 1_455 S
C1093 C1092 1.400 . S
C1093 C1094 1.398 . S
C1094 H1082 0.950 . S
C1094 C1093 1.398 . S
C1094 C1095 1.391 . S
C1095 H1083 0.950 . S
C1095 C1091 1.393 . S
C1095 C1094 1.391 . S
H1096 C1104 0.950 . S
H1097 C1109 0.950 . S
H1098 C1106 0.950 . S
H1099 C1108 0.950 . S
H1100 C1110 0.950 . S
H1101 C1112 0.950 . S
H1102 C1114 0.950 . S
H1103 C1115 0.950 . S
C1104 H1096 0.950 . S
C1104 C1105 1.386 . S
C1104 C1106 1.391 . S
C1105 C1104 1.386 . S
C1105 C1109 1.393 . S
C1106 H1098 0.950 . S
C1106 C1104 1.391 . S
C1106 C1107 1.400 . S
C1107 C1106 1.400 . S
C1107 C1108 1.398 . S
C1107 C1113 1.491 . S
C1108 H1099 0.950 . S
C1108 C1107 1.398 . S
C1108 C1109 1.391 . S
C1109 H1097 0.950 . S
C1109 C1105 1.393 . S
C1109 C1108 1.391 . S
C1110 H1100 0.950 . S
C1110 C1111 1.386 . S
C1110 C1112 1.391 . S
C1111 C1110 1.386 . S
C1111 C1115 1.393 . S
C1112 H1101 0.950 . S
C1112 C1110 1.391 . S
C1112 C1113 1.400 . S
C1113 C1107 1.491 . S
C1113 C1112 1.400 . S
C1113 C1114 1.398 . S
C1114 H1102 0.950 . S
C1114 C1113 1.398 . S
C1114 C1115 1.391 . S
C1115 H1103 0.950 . S
C1115 C1111 1.393 . S
C1115 C1114 1.391 . S
H1116 C1124 0.950 . S
H1117 C1129 0.950 . S
H1118 C1126 0.950 . S
H1119 C1128 0.950 . S
H1120 C1130 0.950 . S
H1121 C1132 0.950 . S
H1122 C1134 0.950 . S
H1123 C1135 0.950 . S
C1124 H1116 0.950 . S
C1124 C1125 1.386 . S
C1124 C1126 1.391 . S
C1125 C1124 1.386 . S
C1125 C1129 1.393 . S
C1126 H1118 0.950 . S
C1126 C1124 1.391 . S
C1126 C1127 1.400 . S
C1127 C1126 1.400 . S
C1127 C1128 1.398 . S
C1127 C1133 1.491 . S
C1128 H1119 0.950 . S
C1128 C1127 1.398 . S
C1128 C1129 1.391 . S
C1129 H1117 0.950 . S
C1129 C1125 1.393 . S
C1129 C1128 1.391 . S
C1130 H1120 0.950 . S
C1130 C1131 1.386 . S
C1130 C1132 1.391 . S
C1131 C1130 1.386 . S
C1131 C1135 1.393 . S
C1132 H1121 0.950 . S
C1132 C1130 1.391 . S
C1132 C1133 1.400 . S
C1133 C1127 1.491 . S
C1133 C1132 1.400 . S
C1133 C1134 1.398 . S
C1134 H1122 0.950 . S
C1134 C1133 1.398 . S
C1134 C1135 1.391 . S
C1135 H1123 0.950 . S
C1135 C1131 1.393 . S
C1135 C1134 1.391 . S
H1136 C1144 0.950 . S
H1137 C1149 0.950 . S
H1138 C1146 0.950 . S
H1139 C1148 0.950 . S
H1140 C1150 0.950 . S
H1141 C1152 0.950 . S
H1142 C1154 0.950 . S
H1143 C1155 0.950 . S
C1144 H1136 0.950 . S
C1144 C1145 1.386 . S
C1144 C1146 1.391 . S
C1145 C1144 1.386 . S
C1145 C1149 1.393 . S
C1146 H1138 0.950 . S
C1146 C1144 1.391 . S
C1146 C1147 1.400 . S
C1147 C1146 1.400 . S
C1147 C1148 1.398 . S
C1147 C1153 1.491 . S
C1148 H1139 0.950 . S
C1148 C1147 1.398 . S
C1148 C1149 1.391 . S
C1149 H1137 0.950 . S
C1149 C1145 1.393 . S
C1149 C1148 1.391 . S
C1150 H1140 0.950 . S
C1150 C1151 1.386 . S
C1150 C1152 1.391 . S
C1151 C1150 1.386 . S
C1151 C1155 1.393 . S
C1152 H1141 0.950 . S
C1152 C1150 1.391 . S
C1152 C1153 1.400 . S
C1153 C1147 1.491 . S
C1153 C1152 1.400 . S
C1153 C1154 1.398 . S
C1154 H1142 0.950 . S
C1154 C1153 1.398 . S
C1154 C1155 1.391 . S
C1155 H1143 0.950 . S
C1155 C1151 1.393 . S
C1155 C1154 1.391 . S
H1156 C1164 0.950 . S
H1157 C1169 0.950 . S
H1158 C1166 0.950 . S
H1159 C1168 0.950 . S
H1160 C1170 0.950 . S
H1161 C1172 0.950 . S
H1162 C1174 0.950 . S
H1163 C1175 0.950 . S
C1164 H1156 0.950 . S
C1164 C1165 1.386 . S
C1164 C1166 1.391 . S
C1165 C1164 1.386 . S
C1165 C1169 1.393 . S
C1166 H1158 0.950 . S
C1166 C1164 1.391 . S
C1166 C1167 1.400 . S
C1167 C1166 1.400 . S
C1167 C1168 1.398 . S
C1167 C1173 1.491 . S
C1168 H1159 0.950 . S
C1168 C1167 1.398 . S
C1168 C1169 1.391 . S
C1169 H1157 0.950 . S
C1169 C1165 1.393 . S
C1169 C1168 1.391 . S
C1170 H1160 0.950 . S
C1170 C1171 1.386 . S
C1170 C1172 1.391 . S
C1171 C1170 1.386 . S
C1171 C1175 1.393 . S
C1172 H1161 0.950 . S
C1172 C1170 1.391 . S
C1172 C1173 1.400 . S
C1173 C1167 1.491 . S
C1173 C1172 1.400 . S
C1173 C1174 1.398 . S
C1174 H1162 0.950 . S
C1174 C1173 1.398 . S
C1174 C1175 1.391 . S
C1175 H1163 0.950 . S
C1175 C1171 1.393 . S
C1175 C1174 1.391 . S
H1176 C1184 0.950 . S
H1177 C1189 0.950 . S
H1178 C1186 0.950 . S
H1179 C1188 0.950 . S
H1180 C1190 0.950 . S
H1181 C1192 0.950 . S
H1182 C1194 0.950 . S
H1183 C1195 0.950 . S
C1184 H1176 0.950 . S
C1184 C1185 1.386 . S
C1184 C1186 1.391 . S
C1185 C1184 1.386 . S
C1185 C1189 1.393 . S
C1186 H1178 0.950 . S
C1186 C1184 1.391 . S
C1186 C1187 1.400 . S
C1187 C1186 1.400 . S
C1187 C1188 1.398 . S
C1187 C1193 1.491 . S
C1188 H1179 0.950 . S
C1188 C1187 1.398 . S
C1188 C1189 1.391 . S
C1189 H1177 0.950 . S
C1189 C1185 1.393 . S
C1189 C1188 1.391 . S
C1190 H1180 0.950 . S
C1190 C1191 1.386 . S
C1190 C1192 1.391 . S
C1191 C1190 1.386 . S
C1191 C1195 1.393 . S
C1192 H1181 0.950 . S
C1192 C1190 1.391 . S
C1192 C1193 1.400 . S
C1193 C1187 1.491 . S
C1193 C1192 1.400 . S
C1193 C1194 1.398 . S
C1194 H1182 0.950 . S
C1194 C1193 1.398 . S
C1194 C1195 1.391 . S
C1195 H1183 0.950 . S
C1195 C1191 1.393 . S
C1195 C1194 1.391 . S
H1196 C1204 0.950 . S
H1197 C1209 0.950 . S
H1198 C1206 0.950 . S
H1199 C1208 0.950 . S
H1200 C1210 0.950 . S
H1201 C1212 0.950 . S
H1202 C1214 0.950 . S
H1203 C1215 0.950 . S
C1204 H1196 0.950 . S
C1204 C1205 1.386 . S
C1204 C1206 1.391 . S
C1205 C1204 1.386 . S
C1205 C1209 1.393 . S
C1206 H1198 0.950 . S
C1206 C1204 1.391 . S
C1206 C1207 1.400 . S
C1207 C1206 1.400 . S
C1207 C1208 1.398 . S
C1207 C1213 1.491 1_655 S
C1208 H1199 0.950 . S
C1208 C1207 1.398 . S
C1208 C1209 1.391 . S
C1209 H1197 0.950 . S
C1209 C1205 1.393 . S
C1209 C1208 1.391 . S
C1210 H1200 0.950 . S
C1210 C1211 1.386 . S
C1210 C1212 1.391 . S
C1211 C1210 1.386 . S
C1211 C1215 1.393 . S
C1212 H1201 0.950 . S
C1212 C1210 1.391 . S
C1212 C1213 1.400 . S
C1213 C1207 1.491 1_455 S
C1213 C1212 1.400 . S
C1213 C1214 1.398 . S
C1214 H1202 0.950 . S
C1214 C1213 1.398 . S
C1214 C1215 1.391 . S
C1215 H1203 0.950 . S
C1215 C1211 1.393 . S
C1215 C1214 1.391 . S
H1216 C1224 0.950 . S
H1217 C1229 0.950 . S
H1218 C1226 0.950 . S
H1219 C1228 0.950 . S
H1220 C1230 0.950 . S
H1221 C1232 0.950 . S
H1222 C1234 0.950 . S
H1223 C1235 0.950 . S
C1224 H1216 0.950 . S
C1224 C1225 1.386 . S
C1224 C1226 1.391 . S
C1225 C1224 1.386 . S
C1225 C1229 1.393 . S
C1226 H1218 0.950 . S
C1226 C1224 1.391 . S
C1226 C1227 1.400 . S
C1227 C1226 1.400 . S
C1227 C1228 1.398 . S
C1227 C1233 1.491 . S
C1228 H1219 0.950 . S
C1228 C1227 1.398 . S
C1228 C1229 1.391 . S
C1229 H1217 0.950 . S
C1229 C1225 1.393 . S
C1229 C1228 1.391 . S
C1230 H1220 0.950 . S
C1230 C1231 1.386 . S
C1230 C1232 1.391 . S
C1231 C1230 1.386 . S
C1231 C1235 1.393 . S
C1232 H1221 0.950 . S
C1232 C1230 1.391 . S
C1232 C1233 1.400 . S
C1233 C1227 1.491 . S
C1233 C1232 1.400 . S
C1233 C1234 1.398 . S
C1234 H1222 0.950 . S
C1234 C1233 1.398 . S
C1234 C1235 1.391 . S
C1235 H1223 0.950 . S
C1235 C1231 1.393 . S
C1235 C1234 1.391 . S
H1236 C1244 0.950 . S
H1237 C1249 0.950 . S
H1238 C1246 0.950 . S
H1239 C1248 0.950 . S
H1240 C1250 0.950 . S
H1241 C1252 0.950 . S
H1242 C1254 0.950 . S
H1243 C1255 0.950 . S
C1244 H1236 0.950 . S
C1244 C1245 1.386 . S
C1244 C1246 1.391 . S
C1245 C1244 1.386 . S
C1245 C1249 1.393 . S
C1246 H1238 0.950 . S
C1246 C1244 1.391 . S
C1246 C1247 1.400 . S
C1247 C1246 1.400 . S
C1247 C1248 1.398 . S
C1247 C1253 1.491 . S
C1248 H1239 0.950 . S
C1248 C1247 1.398 . S
C1248 C1249 1.391 . S
C1249 H1237 0.950 . S
C1249 C1245 1.393 . S
C1249 C1248 1.391 . S
C1250 H1240 0.950 . S
C1250 C1251 1.386 . S
C1250 C1252 1.391 . S
C1251 C1250 1.386 . S
C1251 C1255 1.393 . S
C1252 H1241 0.950 . S
C1252 C1250 1.391 . S
C1252 C1253 1.400 . S
C1253 C1247 1.491 . S
C1253 C1252 1.400 . S
C1253 C1254 1.398 . S
C1254 H1242 0.950 . S
C1254 C1253 1.398 . S
C1254 C1255 1.391 . S
C1255 H1243 0.950 . S
C1255 C1251 1.393 . S
C1255 C1254 1.391 . S
H1256 C1264 0.950 . S
H1257 C1269 0.950 . S
H1258 C1266 0.950 . S
H1259 C1268 0.950 . S
H1260 C1270 0.950 . S
H1261 C1272 0.950 . S
H1262 C1274 0.950 . S
H1263 C1275 0.950 . S
C1264 H1256 0.950 . S
C1264 C1265 1.386 . S
C1264 C1266 1.391 . S
C1265 C1264 1.386 . S
C1265 C1269 1.393 . S
C1266 H1258 0.950 . S
C1266 C1264 1.391 . S
C1266 C1267 1.400 . S
C1267 C1266 1.400 . S
C1267 C1268 1.398 . S
C1267 C1273 1.491 . S
C1268 H1259 0.950 . S
C1268 C1267 1.398 . S
C1268 C1269 1.391 . S
C1269 H1257 0.950 . S
C1269 C1265 1.393 . S
C1269 C1268 1.391 . S
C1270 H1260 0.950 . S
C1270 C1271 1.386 . S
C1270 C1272 1.391 . S
C1271 C1270 1.386 . S
C1271 C1275 1.393 . S
C1272 H1261 0.950 . S
C1272 C1270 1.391 . S
C1272 C1273 1.400 . S
C1273 C1267 1.491 . S
C1273 C1272 1.400 . S
C1273 C1274 1.398 . S
C1274 H1262 0.950 . S
C1274 C1273 1.398 . S
C1274 C1275 1.391 . S
C1275 H1263 0.950 . S
C1275 C1271 1.393 . S
C1275 C1274 1.391 . S
H1276 C1284 0.950 . S
H1277 C1289 0.950 . S
H1278 C1286 0.950 . S
H1279 C1288 0.950 . S
H1280 C1290 0.950 . S
H1281 C1292 0.950 . S
H1282 C1294 0.950 . S
H1283 C1295 0.950 . S
C1284 H1276 0.950 . S
C1284 C1285 1.386 . S
C1284 C1286 1.391 . S
C1285 C1284 1.386 . S
C1285 C1289 1.393 . S
C1286 H1278 0.950 . S
C1286 C1284 1.391 . S
C1286 C1287 1.400 . S
C1287 C1286 1.400 . S
C1287 C1288 1.398 . S
C1287 C1293 1.491 . S
C1288 H1279 0.950 . S
C1288 C1287 1.398 . S
C1288 C1289 1.391 . S
C1289 H1277 0.950 . S
C1289 C1285 1.393 . S
C1289 C1288 1.391 . S
C1290 H1280 0.950 . S
C1290 C1291 1.386 . S
C1290 C1292 1.391 . S
C1291 C1290 1.386 . S
C1291 C1295 1.393 . S
C1292 H1281 0.950 . S
C1292 C1290 1.391 . S
C1292 C1293 1.400 . S
C1293 C1287 1.491 . S
C1293 C1292 1.400 . S
C1293 C1294 1.398 . S
C1294 H1282 0.950 . S
C1294 C1293 1.398 . S
C1294 C1295 1.391 . S
C1295 H1283 0.950 . S
C1295 C1291 1.393 . S
C1295 C1294 1.391 . S
H1296 C1304 0.950 . S
H1297 C1309 0.950 . S
H1298 C1306 0.950 . S
H1299 C1308 0.950 . S
H1300 C1310 0.950 . S
H1301 C1312 0.950 . S
H1302 C1314 0.950 . S
H1303 C1315 0.950 . S
C1304 H1296 0.950 . S
C1304 C1305 1.386 . S
C1304 C1306 1.391 . S
C1305 C1304 1.386 . S
C1305 C1309 1.393 . S
C1306 H1298 0.950 . S
C1306 C1304 1.391 . S
C1306 C1307 1.400 . S
C1307 C1306 1.400 . S
C1307 C1308 1.398 . S
C1307 C1313 1.491 . S
C1308 H1299 0.950 . S
C1308 C1307 1.398 . S
C1308 C1309 1.391 . S
C1309 H1297 0.950 . S
C1309 C1305 1.393 . S
C1309 C1308 1.391 . S
C1310 H1300 0.950 . S
C1310 C1311 1.386 . S
C1310 C1312 1.391 . S
C1311 C1310 1.386 . S
C1311 C1315 1.393 . S
C1312 H1301 0.950 . S
C1312 C1310 1.391 . S
C1312 C1313 1.400 . S
C1313 C1307 1.491 . S
C1313 C1312 1.400 . S
C1313 C1314 1.398 . S
C1314 H1302 0.950 . S
C1314 C1313 1.398 . S
C1314 C1315 1.391 . S
C1315 H1303 0.950 . S
C1315 C1311 1.393 . S
C1315 C1314 1.391 . S
H1316 C1324 0.950 . S
H1317 C1329 0.950 . S
H1318 C1326 0.950 . S
H1319 C1328 0.950 . S
H1320 C1330 0.950 . S
H1321 C1332 0.950 . S
H1322 C1334 0.950 . S
H1323 C1335 0.950 . S
C1324 H1316 0.950 . S
C1324 C1325 1.386 . S
C1324 C1326 1.391 . S
C1325 C1324 1.386 . S
C1325 C1329 1.393 . S
C1326 H1318 0.950 . S
C1326 C1324 1.391 . S
C1326 C1327 1.400 . S
C1327 C1326 1.400 . S
C1327 C1328 1.398 . S
C1327 C1333 1.491 1_655 S
C1328 H1319 0.950 . S
C1328 C1327 1.398 . S
C1328 C1329 1.391 . S
C1329 H1317 0.950 . S
C1329 C1325 1.393 . S
C1329 C1328 1.391 . S
C1330 H1320 0.950 . S
C1330 C1331 1.386 . S
C1330 C1332 1.391 . S
C1331 C1330 1.386 . S
C1331 C1335 1.393 . S
C1332 H1321 0.950 . S
C1332 C1330 1.391 . S
C1332 C1333 1.400 . S
C1333 C1327 1.491 1_455 S
C1333 C1332 1.400 . S
C1333 C1334 1.398 . S
C1334 H1322 0.950 . S
C1334 C1333 1.398 . S
C1334 C1335 1.391 . S
C1335 H1323 0.950 . S
C1335 C1331 1.393 . S
C1335 C1334 1.391 . S
H1336 C1344 0.950 . S
H1337 C1349 0.950 . S
H1338 C1346 0.950 . S
H1339 C1348 0.950 . S
H1340 C1350 0.950 . S
H1341 C1352 0.950 . S
H1342 C1354 0.950 . S
H1343 C1355 0.950 . S
C1344 H1336 0.950 . S
C1344 C1345 1.386 . S
C1344 C1346 1.391 . S
C1345 C1344 1.386 . S
C1345 C1349 1.393 . S
C1346 H1338 0.950 . S
C1346 C1344 1.391 . S
C1346 C1347 1.400 . S
C1347 C1346 1.400 . S
C1347 C1348 1.398 . S
C1347 C1353 1.491 1_655 S
C1348 H1339 0.950 . S
C1348 C1347 1.398 . S
C1348 C1349 1.391 . S
C1349 H1337 0.950 . S
C1349 C1345 1.393 . S
C1349 C1348 1.391 . S
C1350 H1340 0.950 . S
C1350 C1351 1.386 . S
C1350 C1352 1.391 . S
C1351 C1350 1.386 . S
C1351 C1355 1.393 . S
C1352 H1341 0.950 . S
C1352 C1350 1.391 . S
C1352 C1353 1.400 . S
C1353 C1347 1.491 1_455 S
C1353 C1352 1.400 . S
C1353 C1354 1.398 . S
C1354 H1342 0.950 . S
C1354 C1353 1.398 . S
C1354 C1355 1.391 . S
C1355 H1343 0.950 . S
C1355 C1351 1.393 . S
C1355 C1354 1.391 . S
H1356 C1364 0.950 . S
H1357 C1369 0.950 . S
H1358 C1366 0.950 . S
H1359 C1368 0.950 . S
H1360 C1370 0.950 . S
H1361 C1372 0.950 . S
H1362 C1374 0.950 . S
H1363 C1375 0.950 . S
C1364 H1356 0.950 . S
C1364 C1365 1.386 . S
C1364 C1366 1.391 . S
C1365 C1364 1.386 . S
C1365 C1369 1.393 . S
C1366 H1358 0.950 . S
C1366 C1364 1.391 . S
C1366 C1367 1.400 . S
C1367 C1366 1.400 . S
C1367 C1368 1.398 . S
C1367 C1373 1.491 . S
C1368 H1359 0.950 . S
C1368 C1367 1.398 . S
C1368 C1369 1.391 . S
C1369 H1357 0.950 . S
C1369 C1365 1.393 . S
C1369 C1368 1.391 . S
C1370 H1360 0.950 . S
C1370 C1371 1.386 . S
C1370 C1372 1.391 . S
C1371 C1370 1.386 . S
C1371 C1375 1.393 . S
C1372 H1361 0.950 . S
C1372 C1370 1.391 . S
C1372 C1373 1.400 . S
C1373 C1367 1.491 . S
C1373 C1372 1.400 . S
C1373 C1374 1.398 . S
C1374 H1362 0.950 . S
C1374 C1373 1.398 . S
C1374 C1375 1.391 . S
C1375 H1363 0.950 . S
C1375 C1371 1.393 . S
C1375 C1374 1.391 . S
H1376 C1384 0.950 . S
H1377 C1389 0.950 . S
H1378 C1386 0.950 . S
H1379 C1388 0.950 . S
H1380 C1390 0.950 . S
H1381 C1392 0.950 . S
H1382 C1394 0.950 . S
H1383 C1395 0.950 . S
C1384 H1376 0.950 . S
C1384 C1385 1.386 . S
C1384 C1386 1.391 . S
C1385 C1384 1.386 . S
C1385 C1389 1.393 . S
C1386 H1378 0.950 . S
C1386 C1384 1.391 . S
C1386 C1387 1.400 . S
C1387 C1386 1.400 . S
C1387 C1388 1.398 . S
C1387 C1393 1.491 . S
C1388 H1379 0.950 . S
C1388 C1387 1.398 . S
C1388 C1389 1.391 . S
C1389 H1377 0.950 . S
C1389 C1385 1.393 . S
C1389 C1388 1.391 . S
C1390 H1380 0.950 . S
C1390 C1391 1.386 . S
C1390 C1392 1.391 . S
C1391 C1390 1.386 . S
C1391 C1395 1.393 . S
C1392 H1381 0.950 . S
C1392 C1390 1.391 . S
C1392 C1393 1.400 . S
C1393 C1387 1.491 . S
C1393 C1392 1.400 . S
C1393 C1394 1.398 . S
C1394 H1382 0.950 . S
C1394 C1393 1.398 . S
C1394 C1395 1.391 . S
C1395 H1383 0.950 . S
C1395 C1391 1.393 . S
C1395 C1394 1.391 . S
H1396 C1404 0.950 . S
H1397 C1409 0.950 . S
H1398 C1406 0.950 . S
H1399 C1408 0.950 . S
H1400 C1410 0.950 . S
H1401 C1412 0.950 . S
H1402 C1414 0.950 . S
H1403 C1415 0.950 . S
C1404 H1396 0.950 . S
C1404 C1405 1.386 . S
C1404 C1406 1.391 . S
C1405 C1404 1.386 . S
C1405 C1409 1.393 . S
C1406 H1398 0.950 . S
C1406 C1404 1.391 . S
C1406 C1407 1.400 . S
C1407 C1406 1.400 . S
C1407 C1408 1.398 . S
C1407 C1413 1.491 . S
C1408 H1399 0.950 . S
C1408 C1407 1.398 . S
C1408 C1409 1.391 . S
C1409 H1397 0.950 . S
C1409 C1405 1.393 . S
C1409 C1408 1.391 . S
C1410 H1400 0.950 . S
C1410 C1411 1.386 . S
C1410 C1412 1.391 . S
C1411 C1410 1.386 . S
C1411 C1415 1.393 . S
C1412 H1401 0.950 . S
C1412 C1410 1.391 . S
C1412 C1413 1.400 . S
C1413 C1407 1.491 . S
C1413 C1412 1.400 . S
C1413 C1414 1.398 . S
C1414 H1402 0.950 . S
C1414 C1413 1.398 . S
C1414 C1415 1.391 . S
C1415 H1403 0.950 . S
C1415 C1411 1.393 . S
C1415 C1414 1.391 . S
H1416 C1424 0.950 1_554 S
H1417 C1429 0.950 . S
H1418 C1426 0.950 . S
H1419 C1428 0.950 . S
H1420 C1430 0.950 . S
H1421 C1432 0.950 . S
H1422 C1434 0.950 . S
H1423 C1435 0.950 . S
C1424 H1416 0.950 1_556 S
C1424 C1425 1.386 . S
C1424 C1426 1.391 . S
C1425 C1424 1.386 . S
C1425 C1429 1.393 . S
C1426 H1418 0.950 . S
C1426 C1424 1.391 . S
C1426 C1427 1.400 . S
C1427 C1426 1.400 . S
C1427 C1428 1.398 . S
C1427 C1433 1.491 . S
C1428 H1419 0.950 . S
C1428 C1427 1.398 . S
C1428 C1429 1.391 . S
C1429 H1417 0.950 . S
C1429 C1425 1.393 . S
C1429 C1428 1.391 . S
C1430 H1420 0.950 . S
C1430 C1431 1.386 . S
C1430 C1432 1.391 . S
C1431 C1430 1.386 . S
C1431 C1435 1.393 . S
C1432 H1421 0.950 . S
C1432 C1430 1.391 . S
C1432 C1433 1.400 . S
C1433 C1427 1.491 . S
C1433 C1432 1.400 . S
C1433 C1434 1.398 . S
C1434 H1422 0.950 . S
C1434 C1433 1.398 . S
C1434 C1435 1.391 . S
C1435 H1423 0.950 . S
C1435 C1431 1.393 . S
C1435 C1434 1.391 . S
H1436 C1444 0.950 . S
H1437 C1449 0.950 1_556 S
H1438 C1446 0.950 . S
H1439 C1448 0.950 . S
H1440 C1450 0.950 . S
H1441 C1452 0.950 . S
H1442 C1454 0.950 . S
H1443 C1455 0.950 . S
C1444 H1436 0.950 . S
C1444 C1445 1.386 . S
C1444 C1446 1.391 . S
C1445 C1444 1.386 . S
C1445 C1449 1.393 . S
C1446 H1438 0.950 . S
C1446 C1444 1.391 . S
C1446 C1447 1.400 . S
C1447 C1446 1.400 . S
C1447 C1448 1.398 . S
C1447 C1453 1.491 . S
C1448 H1439 0.950 . S
C1448 C1447 1.398 . S
C1448 C1449 1.391 . S
C1449 H1437 0.950 1_554 S
C1449 C1445 1.393 . S
C1449 C1448 1.391 . S
C1450 H1440 0.950 . S
C1450 C1451 1.386 . S
C1450 C1452 1.391 . S
C1451 C1450 1.386 . S
C1451 C1455 1.393 . S
C1452 H1441 0.950 . S
C1452 C1450 1.391 . S
C1452 C1453 1.400 . S
C1453 C1447 1.491 . S
C1453 C1452 1.400 . S
C1453 C1454 1.398 . S
C1454 H1442 0.950 . S
C1454 C1453 1.398 . S
C1454 C1455 1.391 . S
C1455 H1443 0.950 . S
C1455 C1451 1.393 . S
C1455 C1454 1.391 . S
H1456 C1464 0.950 . S
H1457 C1469 0.950 . S
H1458 C1466 0.950 . S
H1459 C1468 0.950 . S
H1460 C1470 0.950 . S
H1461 C1472 0.950 . S
H1462 C1474 0.950 . S
H1463 C1475 0.950 . S
C1464 H1456 0.950 . S
C1464 C1465 1.386 . S
C1464 C1466 1.391 . S
C1465 C1464 1.386 . S
C1465 C1469 1.393 . S
C1466 H1458 0.950 . S
C1466 C1464 1.391 . S
C1466 C1467 1.400 . S
C1467 C1466 1.400 . S
C1467 C1468 1.398 . S
C1467 C1473 1.491 . S
C1468 H1459 0.950 . S
C1468 C1467 1.398 . S
C1468 C1469 1.391 . S
C1469 H1457 0.950 . S
C1469 C1465 1.393 . S
C1469 C1468 1.391 . S
C1470 H1460 0.950 . S
C1470 C1471 1.386 . S
C1470 C1472 1.391 . S
C1471 C1470 1.386 . S
C1471 C1475 1.393 . S
C1472 H1461 0.950 . S
C1472 C1470 1.391 . S
C1472 C1473 1.400 . S
C1473 C1467 1.491 . S
C1473 C1472 1.400 . S
C1473 C1474 1.398 . S
C1474 H1462 0.950 . S
C1474 C1473 1.398 . S
C1474 C1475 1.391 . S
C1475 H1463 0.950 . S
C1475 C1471 1.393 . S
C1475 C1474 1.391 . S
H1476 C1484 0.950 . S
H1477 C1489 0.950 . S
H1478 C1486 0.950 . S
H1479 C1488 0.950 . S
H1480 C1490 0.950 . S
H1481 C1492 0.950 . S
H1482 C1494 0.950 . S
H1483 C1495 0.950 . S
C1484 H1476 0.950 . S
C1484 C1485 1.386 . S
C1484 C1486 1.391 . S
C1485 C1484 1.386 . S
C1485 C1489 1.393 . S
C1486 H1478 0.950 . S
C1486 C1484 1.391 . S
C1486 C1487 1.400 . S
C1487 C1486 1.400 . S
C1487 C1488 1.398 . S
C1487 C1493 1.491 . S
C1488 H1479 0.950 . S
C1488 C1487 1.398 . S
C1488 C1489 1.391 . S
C1489 H1477 0.950 . S
C1489 C1485 1.393 . S
C1489 C1488 1.391 . S
C1490 H1480 0.950 . S
C1490 C1491 1.386 . S
C1490 C1492 1.391 . S
C1491 C1490 1.386 . S
C1491 C1495 1.393 . S
C1492 H1481 0.950 . S
C1492 C1490 1.391 . S
C1492 C1493 1.400 . S
C1493 C1487 1.491 . S
C1493 C1492 1.400 . S
C1493 C1494 1.398 . S
C1494 H1482 0.950 . S
C1494 C1493 1.398 . S
C1494 C1495 1.391 . S
C1495 H1483 0.950 . S
C1495 C1491 1.393 . S
C1495 C1494 1.391 . S
H1496 C1504 0.950 . S
H1497 C1509 0.950 . S
H1498 C1506 0.950 . S
H1499 C1508 0.950 . S
H1500 C1510 0.950 . S
H1501 C1512 0.950 . S
H1502 C1514 0.950 . S
H1503 C1515 0.950 1_556 S
C1504 H1496 0.950 . S
C1504 C1505 1.386 . S
C1504 C1506 1.391 . S
C1505 C1504 1.386 . S
C1505 C1509 1.393 . S
C1506 H1498 0.950 . S
C1506 C1504 1.391 . S
C1506 C1507 1.400 . S
C1507 C1506 1.400 . S
C1507 C1508 1.398 . S
C1507 C1513 1.491 . S
C1508 H1499 0.950 . S
C1508 C1507 1.398 . S
C1508 C1509 1.391 . S
C1509 H1497 0.950 . S
C1509 C1505 1.393 . S
C1509 C1508 1.391 . S
C1510 H1500 0.950 . S
C1510 C1511 1.386 . S
C1510 C1512 1.391 . S
C1511 C1510 1.386 . S
C1511 C1515 1.393 . S
C1512 H1501 0.950 . S
C1512 C1510 1.391 . S
C1512 C1513 1.400 . S
C1513 C1507 1.491 . S
C1513 C1512 1.400 . S
C1513 C1514 1.398 . S
C1514 H1502 0.950 . S
C1514 C1513 1.398 . S
C1514 C1515 1.391 . S
C1515 H1503 0.950 1_554 S
C1515 C1511 1.393 . S
C1515 C1514 1.391 . S
H1516 C1524 0.950 . S
H1517 C1529 0.950 . S
H1518 C1526 0.950 . S
H1519 C1528 0.950 . S
H1520 C1530 0.950 . S
H1521 C1532 0.950 . S
H1522 C1534 0.950 . S
H1523 C1535 0.950 . S
C1524 H1516 0.950 . S
C1524 C1525 1.386 . S
C1524 C1526 1.391 . S
C1525 C1524 1.386 . S
C1525 C1529 1.393 . S
C1526 H1518 0.950 . S
C1526 C1524 1.391 . S
C1526 C1527 1.400 . S
C1527 C1526 1.400 . S
C1527 C1528 1.398 . S
C1527 C1533 1.491 . S
C1528 H1519 0.950 . S
C1528 C1527 1.398 . S
C1528 C1529 1.391 . S
C1529 H1517 0.950 . S
C1529 C1525 1.393 . S
C1529 C1528 1.391 . S
C1530 H1520 0.950 . S
C1530 C1531 1.386 . S
C1530 C1532 1.391 . S
C1531 C1530 1.386 . S
C1531 C1535 1.393 . S
C1532 H1521 0.950 . S
C1532 C1530 1.391 . S
C1532 C1533 1.400 . S
C1533 C1527 1.491 . S
C1533 C1532 1.400 . S
C1533 C1534 1.398 . S
C1534 H1522 0.950 . S
C1534 C1533 1.398 . S
C1534 C1535 1.391 . S
C1535 H1523 0.950 . S
C1535 C1531 1.393 . S
C1535 C1534 1.391 . S
H1536 C1544 0.950 . S
H1537 C1549 0.950 . S
H1538 C1546 0.950 . S
H1539 C1548 0.950 . S
H1540 C1550 0.950 . S
H1541 C1552 0.950 . S
H1542 C1554 0.950 . S
H1543 C1555 0.950 . S
C1544 H1536 0.950 . S
C1544 C1545 1.386 . S
C1544 C1546 1.391 . S
C1545 C1544 1.386 . S
C1545 C1549 1.393 . S
C1546 H1538 0.950 . S
C1546 C1544 1.391 . S
C1546 C1547 1.400 . S
C1547 C1546 1.400 . S
C1547 C1548 1.398 . S
C1547 C1553 1.491 . S
C1548 H1539 0.950 . S
C1548 C1547 1.398 . S
C1548 C1549 1.391 . S
C1549 H1537 0.950 . S
C1549 C1545 1.393 . S
C1549 C1548 1.391 . S
C1550 H1540 0.950 . S
C1550 C1551 1.386 . S
C1550 C1552 1.391 . S
C1551 C1550 1.386 . S
C1551 C1555 1.393 . S
C1552 H1541 0.950 . S
C1552 C1550 1.391 . S
C1552 C1553 1.400 . S
C1553 C1547 1.491 . S
C1553 C1552 1.400 . S
C1553 C1554 1.398 . S
C1554 H1542 0.950 . S
C1554 C1553 1.398 . S
C1554 C1555 1.391 . S
C1555 H1543 0.950 . S
C1555 C1551 1.393 . S
C1555 C1554 1.391 . S
H1556 C1564 0.950 . S
H1557 C1569 0.950 . S
H1558 C1566 0.950 . S
H1559 C1568 0.950 . S
H1560 C1570 0.950 . S
H1561 C1572 0.950 . S
H1562 C1574 0.950 . S
H1563 C1575 0.950 1_556 S
C1564 H1556 0.950 . S
C1564 C1565 1.386 . S
C1564 C1566 1.391 . S
C1565 C1564 1.386 . S
C1565 C1569 1.393 . S
C1566 H1558 0.950 . S
C1566 C1564 1.391 . S
C1566 C1567 1.400 . S
C1567 C1566 1.400 . S
C1567 C1568 1.398 . S
C1567 C1573 1.491 . S
C1568 H1559 0.950 . S
C1568 C1567 1.398 . S
C1568 C1569 1.391 . S
C1569 H1557 0.950 . S
C1569 C1565 1.393 . S
C1569 C1568 1.391 . S
C1570 H1560 0.950 . S
C1570 C1571 1.386 . S
C1570 C1572 1.391 . S
C1571 C1570 1.386 . S
C1571 C1575 1.393 . S
C1572 H1561 0.950 . S
C1572 C1570 1.391 . S
C1572 C1573 1.400 . S
C1573 C1567 1.491 . S
C1573 C1572 1.400 . S
C1573 C1574 1.398 . S
C1574 H1562 0.950 . S
C1574 C1573 1.398 . S
C1574 C1575 1.391 . S
C1575 H1563 0.950 1_554 S
C1575 C1571 1.393 . S
C1575 C1574 1.391 . S
H1576 C1584 0.950 . S
H1577 C1589 0.950 . S
H1578 C1586 0.950 . S
H1579 C1588 0.950 . S
H1580 C1590 0.950 . S
H1581 C1592 0.950 . S
H1582 C1594 0.950 . S
H1583 C1595 0.950 . S
C1584 H1576 0.950 . S
C1584 C1585 1.386 . S
C1584 C1586 1.391 . S
C1585 C1584 1.386 . S
C1585 C1589 1.393 . S
C1586 H1578 0.950 . S
C1586 C1584 1.391 . S
C1586 C1587 1.400 . S
C1587 C1586 1.400 . S
C1587 C1588 1.398 . S
C1587 C1593 1.491 . S
C1588 H1579 0.950 . S
C1588 C1587 1.398 . S
C1588 C1589 1.391 . S
C1589 H1577 0.950 . S
C1589 C1585 1.393 . S
C1589 C1588 1.391 . S
C1590 H1580 0.950 . S
C1590 C1591 1.386 . S
C1590 C1592 1.391 . S
C1591 C1590 1.386 . S
C1591 C1595 1.393 . S
C1592 H1581 0.950 . S
C1592 C1590 1.391 . S
C1592 C1593 1.400 . S
C1593 C1587 1.491 . S
C1593 C1592 1.400 . S
C1593 C1594 1.398 . S
C1594 H1582 0.950 . S
C1594 C1593 1.398 . S
C1594 C1595 1.391 . S
C1595 H1583 0.950 . S
C1595 C1591 1.393 . S
C1595 C1594 1.391 . S
H1596 C1604 0.950 . S
H1597 C1609 0.950 . S
H1598 C1606 0.950 . S
H1599 C1608 0.950 . S
H1600 C1610 0.950 . S
H1601 C1612 0.950 . S
H1602 C1614 0.950 . S
H1603 C1615 0.950 . S
C1604 H1596 0.950 . S
C1604 C1605 1.386 . S
C1604 C1606 1.391 . S
C1605 C1604 1.386 . S
C1605 C1609 1.393 . S
C1606 H1598 0.950 . S
C1606 C1604 1.391 . S
C1606 C1607 1.400 . S
C1607 C1606 1.400 . S
C1607 C1608 1.398 . S
C1607 C1613 1.491 . S
C1608 H1599 0.950 . S
C1608 C1607 1.398 . S
C1608 C1609 1.391 . S
C1609 H1597 0.950 . S
C1609 C1605 1.393 . S
C1609 C1608 1.391 . S
C1610 H1600 0.950 . S
C1610 C1611 1.386 . S
C1610 C1612 1.391 . S
C1611 C1610 1.386 . S
C1611 C1615 1.393 . S
C1612 H1601 0.950 . S
C1612 C1610 1.391 . S
C1612 C1613 1.400 . S
C1613 C1607 1.491 . S
C1613 C1612 1.400 . S
C1613 C1614 1.398 . S
C1614 H1602 0.950 . S
C1614 C1613 1.398 . S
C1614 C1615 1.391 . S
C1615 H1603 0.950 . S
C1615 C1611 1.393 . S
C1615 C1614 1.391 . S
H1616 C1624 0.950 . S
H1617 C1629 0.950 . S
H1618 C1626 0.950 . S
H1619 C1628 0.950 . S
H1620 C1630 0.950 1_556 S
H1621 C1632 0.950 . S
H1622 C1634 0.950 . S
H1623 C1635 0.950 . S
C1624 H1616 0.950 . S
C1624 C1625 1.386 . S
C1624 C1626 1.391 . S
C1625 C1624 1.386 . S
C1625 C1629 1.393 . S
C1626 H1618 0.950 . S
C1626 C1624 1.391 . S
C1626 C1627 1.400 . S
C1627 C1626 1.400 . S
C1627 C1628 1.398 . S
C1627 C1633 1.491 . S
C1628 H1619 0.950 . S
C1628 C1627 1.398 . S
C1628 C1629 1.391 . S
C1629 H1617 0.950 . S
C1629 C1625 1.393 . S
C1629 C1628 1.391 . S
C1630 H1620 0.950 1_554 S
C1630 C1631 1.386 . S
C1630 C1632 1.391 . S
C1631 C1630 1.386 . S
C1631 C1635 1.393 . S
C1632 H1621 0.950 . S
C1632 C1630 1.391 . S
C1632 C1633 1.400 . S
C1633 C1627 1.491 . S
C1633 C1632 1.400 . S
C1633 C1634 1.398 . S
C1634 H1622 0.950 . S
C1634 C1633 1.398 . S
C1634 C1635 1.391 . S
C1635 H1623 0.950 . S
C1635 C1631 1.393 . S
C1635 C1634 1.391 . S
H1636 C1644 0.950 . S
H1637 C1649 0.950 . S
H1638 C1646 0.950 . S
H1639 C1648 0.950 . S
H1640 C1650 0.950 . S
H1641 C1652 0.950 . S
H1642 C1654 0.950 . S
H1643 C1655 0.950 . S
C1644 H1636 0.950 . S
C1644 C1645 1.386 . S
C1644 C1646 1.391 . S
C1645 C1644 1.386 . S
C1645 C1649 1.393 . S
C1646 H1638 0.950 . S
C1646 C1644 1.391 . S
C1646 C1647 1.400 . S
C1647 C1646 1.400 . S
C1647 C1648 1.398 . S
C1647 C1653 1.491 . S
C1648 H1639 0.950 . S
C1648 C1647 1.398 . S
C1648 C1649 1.391 . S
C1649 H1637 0.950 . S
C1649 C1645 1.393 . S
C1649 C1648 1.391 . S
C1650 H1640 0.950 . S
C1650 C1651 1.386 . S
C1650 C1652 1.391 . S
C1651 C1650 1.386 . S
C1651 C1655 1.393 . S
C1652 H1641 0.950 . S
C1652 C1650 1.391 . S
C1652 C1653 1.400 . S
C1653 C1647 1.491 . S
C1653 C1652 1.400 . S
C1653 C1654 1.398 . S
C1654 H1642 0.950 . S
C1654 C1653 1.398 . S
C1654 C1655 1.391 . S
C1655 H1643 0.950 . S
C1655 C1651 1.393 . S
C1655 C1654 1.391 . S
H1656 C1664 0.950 . S
H1657 C1669 0.950 . S
H1658 C1666 0.950 . S
H1659 C1668 0.950 . S
H1660 C1670 0.950 . S
H1661 C1672 0.950 . S
H1662 C1674 0.950 . S
H1663 C1675 0.950 . S
C1664 H1656 0.950 . S
C1664 C1665 1.386 . S
C1664 C1666 1.391 . S
C1665 C1664 1.386 . S
C1665 C1669 1.393 . S
C1666 H1658 0.950 . S
C1666 C1664 1.391 . S
C1666 C1667 1.400 . S
C1667 C1666 1.400 . S
C1667 C1668 1.398 . S
C1667 C1673 1.491 . S
C1668 H1659 0.950 . S
C1668 C1667 1.398 . S
C1668 C1669 1.391 . S
C1669 H1657 0.950 . S
C1669 C1665 1.393 . S
C1669 C1668 1.391 . S
C1670 H1660 0.950 . S
C1670 C1671 1.386 . S
C1670 C1672 1.391 . S
C1671 C1670 1.386 . S
C1671 C1675 1.393 . S
C1672 H1661 0.950 . S
C1672 C1670 1.391 . S
C1672 C1673 1.400 . S
C1673 C1667 1.491 . S
C1673 C1672 1.400 . S
C1673 C1674 1.398 . S
C1674 H1662 0.950 . S
C1674 C1673 1.398 . S
C1674 C1675 1.391 . S
C1675 H1663 0.950 . S
C1675 C1671 1.393 . S
C1675 C1674 1.391 . S
H1676 C1684 0.950 . S
H1677 C1689 0.950 . S
H1678 C1686 0.950 . S
H1679 C1688 0.950 . S
H1680 C1690 0.950 . S
H1681 C1692 0.950 . S
H1682 C1694 0.950 . S
H1683 C1695 0.950 . S
C1684 H1676 0.950 . S
C1684 C1685 1.386 . S
C1684 C1686 1.391 . S
C1685 C1684 1.386 . S
C1685 C1689 1.393 . S
C1686 H1678 0.950 . S
C1686 C1684 1.391 . S
C1686 C1687 1.400 . S
C1687 C1686 1.400 . S
C1687 C1688 1.398 . S
C1687 C1693 1.491 . S
C1688 H1679 0.950 . S
C1688 C1687 1.398 . S
C1688 C1689 1.391 . S
C1689 H1677 0.950 . S
C1689 C1685 1.393 . S
C1689 C1688 1.391 . S
C1690 H1680 0.950 . S
C1690 C1691 1.386 . S
C1690 C1692 1.391 . S
C1691 C1690 1.386 . S
C1691 C1695 1.393 . S
C1692 H1681 0.950 . S
C1692 C1690 1.391 . S
C1692 C1693 1.400 . S
C1693 C1687 1.491 . S
C1693 C1692 1.400 . S
C1693 C1694 1.398 . S
C1694 H1682 0.950 . S
C1694 C1693 1.398 . S
C1694 C1695 1.391 . S
C1695 H1683 0.950 . S
C1695 C1691 1.393 . S
C1695 C1694 1.391 . S
C425 C83 1.437 . S
C431 C5 1.439 . S
C445 C18 1.443 . S
C451 C96 1.434 . S
C465 C57 1.454 . S
C471 C31 1.455 . S
C485 C44 1.455 . S
C491 C70 1.454 . S
C505 C109 1.453 . S
C511 C187 1.434 . S
C525 C200 1.452 . S
C531 C122 1.433 . S
C545 C135 1.447 . S
C551 C161 1.433 . S
C565 C174 1.448 . S
C571 C148 1.433 . S
C585 C213 1.437 . S
C591 C291 1.457 . S
C605 C226 1.435 . S
C611 C304 1.443 . S
C625 C265 1.459 . S
C631 C239 1.441 . S
C645 C278 1.454 . S
C651 C252 1.455 . S
C665 C317 1.459 . S
C671 C395 1.439 . S
C685 C330 1.450 . S
C691 C408 1.458 . S
C705 C369 1.438 . S
C711 C343 1.438 . S
C725 C356 1.433 . S
C731 C382 1.448 . S
C745 C0 1.516 1_556 S
C751 C91 1.523 . S
C765 C52 1.524 1_554 S
C771 C13 1.507 . S
C785 C65 1.509 . S
C791 C26 1.525 . S
C805 C39 1.507 . S
C811 C78 1.521 . S
C825 C104 1.508 1_554 S
C831 C195 1.525 . S
C845 C156 1.525 1_556 S
C851 C117 1.512 . S
C865 C169 1.516 . S
C871 C130 1.523 . S
C885 C182 1.521 . S
C891 C143 1.507 . S
C905 C208 1.524 . S
C911 C299 1.514 . S
C925 C221 1.516 . S
C931 C260 1.509 . S
C945 C273 1.525 . S
C951 C234 1.508 1_556 S
C965 C247 1.510 . S
C971 C286 1.525 1_554 S
C985 C312 1.525 . S
C991 C403 1.508 . S
C1005 C364 1.509 . S
C1011 C325 1.516 . S
C1025 C338 1.525 1_554 S
C1031 C377 1.510 . S
C1045 C351 1.516 . S
C1051 C390 1.509 1_556 S
C1065 C400 1.428 . S
C1071 C10 1.427 . S
C1085 C205 1.433 . S
C1091 C23 1.422 . S
C1105 C36 1.423 . S
C1111 C374 1.432 . S
C1125 C49 1.422 . S
C1131 C179 1.433 . S
C1145 C62 1.432 . S
C1151 C348 1.423 . S
C1165 C75 1.433 . S
C1171 C153 1.422 . S
C1185 C88 1.422 . S
C1191 C322 1.433 . S
C1205 C127 1.422 . S
C1211 C101 1.432 . S
C1225 C296 1.422 . S
C1231 C114 1.433 . S
C1245 C140 1.433 . S
C1251 C270 1.422 . S
C1265 C244 1.426 . S
C1271 C166 1.429 . S
C1285 C218 1.424 . S
C1291 C192 1.431 . S
C1305 C231 1.432 . S
C1311 C413 1.423 . S
C1325 C257 1.422 . S
C1331 C387 1.433 . S
C1345 C283 1.433 . S
C1351 C361 1.422 . S
C1365 C335 1.422 . S
C1371 C309 1.432 . S
C1385 C8 1.004 . S
C1391 C99 0.981 . S
C1405 C21 1.009 . S
C1411 C60 0.991 . S
C1425 C73 0.997 1_556 S
C1431 C34 1.009 . S
C1445 C47 1.005 1_554 S
C1451 C86 0.982 . S
C1465 C203 0.983 . S
C1471 C112 0.979 . S
C1485 C164 0.978 . S
C1491 C125 1.000 . S
C1505 C138 0.997 . S
C1511 C177 1.009 1_554 S
C1525 C190 1.006 . S
C1531 C151 1.004 1_556 S
C1545 C307 0.983 1_556 S
C1551 C216 0.979 . S
C1565 C268 1.007 . S
C1571 C229 0.984 1_554 S
C1585 C281 0.994 . S
C1591 C242 1.010 . S
C1605 C294 1.002 . S
C1611 C255 1.007 . S
C1625 C320 1.004 . S
C1631 C411 0.981 1_554 S
C1645 C333 0.979 1_556 S
C1651 C372 0.983 . S
C1665 C346 0.992 . S
C1671 C385 0.976 . S
C1685 C398 0.981 . S
C1691 C359 0.981 . S
