# Generated by pormake.
# Topology une, (4)-cn, num edge types: 1
# Building blocks:
#     Node 0, Type 0, BuildingBlock: ICAMEG_clean_sbu_1, # of connection points: 4
#     Node 1, Type 0, BuildingBlock: ICAMEG_clean_sbu_1, # of connection points: 4
#     Node 2, Type 0, BuildingBlock: ICAMEG_clean_sbu_1, # of connection points: 4
#     Node 3, Type 0, BuildingBlock: ICAMEG_clean_sbu_1, # of connection points: 4
#     Node 4, Type 0, BuildingBlock: ICAMEG_clean_sbu_1, # of connection points: 4
#     Node 5, Type 0, BuildingBlock: ICAMEG_clean_sbu_1, # of connection points: 4
#     Node 6, Type 0, BuildingBlock: ICAMEG_clean_sbu_1, # of connection points: 4
#     Node 7, Type 0, BuildingBlock: ICAMEG_clean_sbu_1, # of connection points: 4
#     Node 8, Type 0, BuildingBlock: ICAMEG_clean_sbu_1, # of connection points: 4
#     Node 9, Type 0, BuildingBlock: ICAMEG_clean_sbu_1, # of connection points: 4
#     Node 10, Type 0, BuildingBlock: ICAMEG_clean_sbu_1, # of connection points: 4
#     Node 11, Type 0, BuildingBlock: ICAMEG_clean_sbu_1, # of connection points: 4
#     Node 12, Type 0, BuildingBlock: ICAMEG_clean_sbu_1, # of connection points: 4
#     Node 13, Type 0, BuildingBlock: ICAMEG_clean_sbu_1, # of connection points: 4
#     Node 14, Type 0, BuildingBlock: ICAMEG_clean_sbu_1, # of connection points: 4
#     Node 15, Type 0, BuildingBlock: ICAMEG_clean_sbu_1, # of connection points: 4
#     Node 16, Type 0, BuildingBlock: ICAMEG_clean_sbu_1, # of connection points: 4
#     Node 17, Type 0, BuildingBlock: ICAMEG_clean_sbu_1, # of connection points: 4
#     Edge 18, Type (0, 0), BuildingBlock: KIFKEQ_clean_linker_1, # of connection points: 2
#     Edge 19, Type (0, 0), BuildingBlock: KIFKEQ_clean_linker_1, # of connection points: 2
#     Edge 20, Type (0, 0), BuildingBlock: KIFKEQ_clean_linker_1, # of connection points: 2
#     Edge 21, Type (0, 0), BuildingBlock: KIFKEQ_clean_linker_1, # of connection points: 2
#     Edge 22, Type (0, 0), BuildingBlock: KIFKEQ_clean_linker_1, # of connection points: 2
#     Edge 23, Type (0, 0), BuildingBlock: KIFKEQ_clean_linker_1, # of connection points: 2
#     Edge 24, Type (0, 0), BuildingBlock: KIFKEQ_clean_linker_1, # of connection points: 2
#     Edge 25, Type (0, 0), BuildingBlock: KIFKEQ_clean_linker_1, # of connection points: 2
#     Edge 26, Type (0, 0), BuildingBlock: KIFKEQ_clean_linker_1, # of connection points: 2
#     Edge 27, Type (0, 0), BuildingBlock: KIFKEQ_clean_linker_1, # of connection points: 2
#     Edge 28, Type (0, 0), BuildingBlock: KIFKEQ_clean_linker_1, # of connection points: 2
#     Edge 29, Type (0, 0), BuildingBlock: KIFKEQ_clean_linker_1, # of connection points: 2
#     Edge 30, Type (0, 0), BuildingBlock: KIFKEQ_clean_linker_1, # of connection points: 2
#     Edge 31, Type (0, 0), BuildingBlock: KIFKEQ_clean_linker_1, # of connection points: 2
#     Edge 32, Type (0, 0), BuildingBlock: KIFKEQ_clean_linker_1, # of connection points: 2
#     Edge 33, Type (0, 0), BuildingBlock: KIFKEQ_clean_linker_1, # of connection points: 2
#     Edge 34, Type (0, 0), BuildingBlock: KIFKEQ_clean_linker_1, # of connection points: 2
#     Edge 35, Type (0, 0), BuildingBlock: KIFKEQ_clean_linker_1, # of connection points: 2
#     Edge 36, Type (0, 0), BuildingBlock: KIFKEQ_clean_linker_1, # of connection points: 2
#     Edge 37, Type (0, 0), BuildingBlock: KIFKEQ_clean_linker_1, # of connection points: 2
#     Edge 38, Type (0, 0), BuildingBlock: KIFKEQ_clean_linker_1, # of connection points: 2
#     Edge 39, Type (0, 0), BuildingBlock: KIFKEQ_clean_linker_1, # of connection points: 2
#     Edge 40, Type (0, 0), BuildingBlock: KIFKEQ_clean_linker_1, # of connection points: 2
#     Edge 41, Type (0, 0), BuildingBlock: KIFKEQ_clean_linker_1, # of connection points: 2
#     Edge 42, Type (0, 0), BuildingBlock: KIFKEQ_clean_linker_1, # of connection points: 2
#     Edge 43, Type (0, 0), BuildingBlock: KIFKEQ_clean_linker_1, # of connection points: 2
#     Edge 44, Type (0, 0), BuildingBlock: KIFKEQ_clean_linker_1, # of connection points: 2
#     Edge 45, Type (0, 0), BuildingBlock: KIFKEQ_clean_linker_1, # of connection points: 2
#     Edge 46, Type (0, 0), BuildingBlock: KIFKEQ_clean_linker_1, # of connection points: 2
#     Edge 47, Type (0, 0), BuildingBlock: KIFKEQ_clean_linker_1, # of connection points: 2
#     Edge 48, Type (0, 0), BuildingBlock: KIFKEQ_clean_linker_1, # of connection points: 2
#     Edge 49, Type (0, 0), BuildingBlock: KIFKEQ_clean_linker_1, # of connection points: 2
#     Edge 50, Type (0, 0), BuildingBlock: KIFKEQ_clean_linker_1, # of connection points: 2
#     Edge 51, Type (0, 0), BuildingBlock: KIFKEQ_clean_linker_1, # of connection points: 2
#     Edge 52, Type (0, 0), BuildingBlock: KIFKEQ_clean_linker_1, # of connection points: 2
#     Edge 53, Type (0, 0), BuildingBlock: KIFKEQ_clean_linker_1, # of connection points: 2
# Relax obj value: 0.324
# Max RMSD: 0.226
# Mean RMSD: 0.209
data_MOF--net-une--node1-ICAMEG_clean_sbu_1--edge1-KIFKEQ_clean_linker_1
_symmetry_space_group_name_H-M    P1
_symmetry_Int_Tables_number       1
_symmetry_cell_setting            triclinic
loop_
_symmetry_equiv_pos_as_xyz
'x, y, z'
_cell_length_a     38.997618
_cell_length_b     40.242972
_cell_length_c     57.674759
_cell_angle_alpha  89.723939
_cell_angle_beta   89.152199
_cell_angle_gamma 119.551437
loop_
_atom_site_label
_atom_site_type_symbol
_atom_site_fract_x
_atom_site_fract_y
_atom_site_fract_z
_atom_type_partial_charge
Co0 Co 0.40569 0.06678 0.06907 0.0
Co1 Co 0.35542 1.00088 0.11205 0.0
O2 O 0.38029 0.05255 0.09957 0.0
C3 C 0.35063 0.09658 0.06933 0.0
O4 O 0.3229 0.06144 0.074 0.0
C5 C 0.38434 0.05609 0.1523 0.0
O6 O 0.41214 0.08265 0.13915 0.0
O7 O 0.40618 0.99858 0.10655 0.0
O8 O 0.42473 0.02901 0.07189 0.0
H9 H 0.32208 0.86308 0.11487 0.0
H10 H 0.42399 0.13018 0.10174 0.0
O11 O 0.3861 0.10409 0.0659 0.0
H12 H 0.55131 0.13667 0.08419 0.0
H13 H 0.48224 0.16001 1.00456 0.0
H14 H 0.41263 0.02443 0.02889 0.0
H15 H 0.49029 0.08745 0.06645 0.0
H16 H 0.45113 0.14083 0.04348 0.0
O17 O 0.36671 0.02137 0.14529 0.0
H18 H 0.35276 0.92844 0.09868 0.0
H19 H 0.3039 0.96228 0.15365 0.0
H20 H 0.44356 0.04237 0.9899 0.0
H21 H 0.4844 0.18025 0.11954 0.0
H22 H 0.47869 0.11061 0.97751 0.0
H23 H 0.54864 0.18363 0.11088 0.0
O24 O 0.35729 0.02653 0.05453 0.0
H25 H 0.26887 0.05902 0.13057 0.0
H26 H 0.27208 0.9458 0.10113 0.0
H27 H 0.20894 0.94558 0.104 0.0
H28 H 0.2073 1.0025 0.11906 0.0
H29 H 0.3313 0.05853 0.1268 0.0
H30 H 0.27301 0.89748 0.1707 0.0
H31 H 0.28184 0.84721 0.15124 0.0
O32 O 0.33966 0.97889 0.08036 0.0
C33 C 0.42566 1.00617 0.087 0.0
C34 C 0.31805 0.88473 0.12356 0.0
C35 C 0.2906 0.90405 0.1549 0.0
N36 N 0.3305 0.94937 0.12518 0.0
C37 C 0.33542 0.92183 0.11442 0.0
C38 C 0.30844 0.94084 0.14523 0.0
C39 C 0.29551 0.87585 0.14396 0.0
C40 C 0.45184 0.13158 0.09773 0.0
N41 N 0.4535 0.10571 0.08318 0.0
C42 C 0.48595 0.15994 0.10794 0.0
C43 C 0.52197 0.16179 0.1031 0.0
C44 C 0.52347 0.13541 0.08816 0.0
C45 C 0.48876 0.10743 0.07829 0.0
C46 C 0.46709 0.13019 1.00978 0.0
C47 C 0.42805 0.05418 1.02369 0.0
C48 C 0.44937 0.11917 0.03178 0.0
N49 N 0.43037 0.08159 0.03852 0.0
C50 C 0.44542 0.06417 1.00156 0.0
C51 C 0.46509 0.10246 0.99461 0.0
C52 C 0.3382 0.99169 0.06031 0.0
C53 C 0.26906 0.03375 0.1244 0.0
C54 C 0.27174 0.97065 0.10787 0.0
C55 C 0.23581 0.97035 0.1094 0.0
C56 C 0.23491 1.00228 0.11784 0.0
N57 N 0.30588 1.00167 0.11483 0.0
C58 C 0.30444 0.03303 0.12262 0.0
Co59 Co 0.88769 0.29888 1.00868 0.0
Co60 Co 0.92402 0.32616 0.0626 0.0
O61 O 0.8834 0.29019 0.04209 0.0
C62 C 0.86778 0.21788 1.01284 0.0
O63 O 0.89988 0.22855 1.02476 0.0
C64 C 0.84758 0.28047 0.09084 0.0
O65 O 0.82622 0.27217 0.07218 0.0
O66 O 0.91383 0.36836 0.05046 0.0
O67 O 0.91483 0.35568 1.01249 0.0
H68 H 0.04011 0.45313 0.08248 0.0
H69 H 0.80856 0.24621 0.02906 0.0
O70 O 0.8599 0.24256 1.00441 0.0
H71 H 0.79467 0.34783 0.98971 0.0
H72 H 0.8402 0.26993 0.92667 0.0
H73 H 0.95116 0.35259 0.97653 0.0
H74 H 0.85826 0.34861 0.98878 0.0
H75 H 0.8344 0.2608 0.96917 0.0
O76 O 0.88355 0.30795 0.08988 0.0
H77 H 0.98976 0.40584 0.05701 0.0
H78 H 0.94396 0.32511 0.11247 0.0
H79 H 0.95812 0.36292 0.93413 0.0
H80 H 0.74429 0.24407 0.03019 0.0
H81 H 0.90236 0.32141 0.9089 0.0
H82 H 0.73706 0.29521 1.01049 0.0
O83 O 0.93935 0.30041 1.00877 0.0
H84 H 0.89267 0.19197 0.08416 0.0
H85 H 0.99851 0.32475 0.07105 0.0
H86 H 0.01561 0.27583 0.08239 0.0
H87 H 0.9625 0.2089 0.08934 0.0
H88 H 0.87691 0.24129 0.07213 0.0
H89 H 0.9934 0.3716 0.13869 0.0
H90 H 0.04214 0.43616 0.1237 0.0
O91 O 0.96578 0.34209 0.03756 0.0
C92 C 0.91828 0.3785 0.02875 0.0
C93 C 0.01898 0.42513 0.08924 0.0
C94 C 0.99271 0.37943 0.12079 0.0
N95 N 0.96358 0.36275 0.0832 0.0
C96 C 0.99034 0.39821 0.07487 0.0
C97 C 0.9645 0.35327 0.1059 0.0
C98 C 0.02009 0.41561 0.11237 0.0
C99 C 0.80565 0.26851 1.0204 0.0
N100 N 0.83726 0.29764 1.00904 0.0
C101 C 0.76917 0.26716 1.02111 0.0
C102 C 0.76515 0.29588 1.01007 0.0
C103 C 0.79747 0.32543 0.99843 0.0
C104 C 0.83348 0.32582 0.99807 0.0
C105 C 0.86468 0.28824 0.93748 0.0
C106 C 0.9267 0.33454 0.96567 0.0
C107 C 0.8616 0.28315 0.96155 0.0
N108 N 0.89232 0.30633 0.97531 0.0
C109 C 0.93085 0.34047 0.94167 0.0
C110 C 0.89956 0.31714 0.92752 0.0
C111 C 0.96876 0.32324 1.02068 0.0
C112 C 0.91606 0.22119 0.08167 0.0
C113 C 0.97505 0.29585 0.07428 0.0
C114 C 0.985 0.26819 0.08061 0.0
C115 C 0.95522 0.23066 0.08447 0.0
N116 N 0.93645 0.28665 0.07207 0.0
C117 C 0.90723 0.24959 0.07522 0.0
Co118 Co 0.73796 0.6037 0.09249 0.0
Co119 Co 0.72799 0.66172 0.13244 0.0
O120 O 0.75262 0.63241 0.12123 0.0
C121 C 0.82385 0.65191 0.08657 0.0
O122 O 0.81917 0.68101 0.09212 0.0
C123 C 0.75787 0.63722 0.17418 0.0
O124 O 0.75694 0.60877 0.16269 0.0
O125 O 0.67306 0.61414 0.13063 0.0
O126 O 0.68137 0.589 0.09752 0.0
H127 H 0.6273 0.70553 0.13313 0.0
H128 H 0.7853 0.58691 0.12549 0.0
O129 O 0.79425 0.61832 0.0865 0.0
H130 H 0.66114 0.46541 0.11725 0.0
H131 H 0.74493 0.5169 0.0323 0.0
H132 H 0.68489 0.59555 0.05394 0.0
H133 H 0.6726 0.52305 0.09556 0.0
H134 H 0.76185 0.55216 0.06904 0.0
O135 O 0.73906 0.65351 0.16629 0.0
H136 H 0.65977 0.67034 0.11854 0.0
H137 H 0.74488 0.7169 0.17105 0.0
H138 H 0.66683 0.56043 1.01717 0.0
H139 H 0.77536 0.52982 0.14725 0.0
H140 H 0.69697 0.52077 1.00613 0.0
H141 H 0.71282 0.46854 0.14328 0.0
O142 O 0.74648 0.64982 0.07506 0.0
H143 H 0.87523 0.73978 0.14382 0.0
H144 H 0.75715 0.74161 0.1163 0.0
H145 H 0.82131 0.80076 0.11477 0.0
H146 H 0.88093 0.8003 0.12886 0.0
H147 H 0.81105 0.6812 0.14433 0.0
H148 H 0.7134 0.75241 0.18649 0.0
H149 H 0.65412 0.74694 0.16748 0.0
O150 O 0.71965 0.67365 0.10002 0.0
C151 C 0.6592 0.59247 0.11265 0.0
C152 C 0.6529 0.70792 0.14171 0.0
C153 C 0.70115 0.73416 0.17166 0.0
N154 N 0.70352 0.69057 0.14418 0.0
C155 C 0.67123 0.68783 0.13353 0.0
C156 C 0.71864 0.7136 0.16297 0.0
C157 C 0.66797 0.73115 0.16096 0.0
C158 C 0.75807 0.56032 0.12361 0.0
N159 N 0.72938 0.55844 0.10949 0.0
C160 C 0.75258 0.5281 0.13601 0.0
C161 C 0.71747 0.49374 0.13379 0.0
C162 C 0.68843 0.49198 0.11923 0.0
C163 C 0.69496 0.52479 0.10712 0.0
C164 C 0.73155 0.53403 0.03694 0.0
C165 C 0.69793 0.57815 0.04934 0.0
C166 C 0.74108 0.55413 0.05769 0.0
N167 N 0.72415 0.57567 0.06371 0.0
C168 C 0.68769 0.55843 0.02846 0.0
C169 C 0.70462 0.53619 1.02227 0.0
C170 C 0.73262 0.67173 0.07993 0.0
C171 C 0.84934 0.74056 0.13807 0.0
C172 C 0.78279 0.74105 0.12267 0.0
C173 C 0.81913 0.77472 0.12168 0.0
C174 C 0.85256 0.77445 0.12958 0.0
N175 N 0.77953 0.708 0.13157 0.0
C176 C 0.81251 0.70743 0.13876 0.0
Co177 Co 0.61573 0.86471 1.00727 0.0
Co178 Co 0.61152 0.89225 0.95199 0.0
O179 O 0.61459 0.85717 0.97405 0.0
C180 C 0.68465 0.85348 0.99919 0.0
O181 O 0.70254 0.88554 0.98718 0.0
C182 C 0.5793 0.81414 0.9301 0.0
O183 O 0.56834 0.79636 0.95022 0.0
O184 O 0.56039 0.88318 0.9681 0.0
O185 O 0.57966 0.88672 1.00519 0.0
H186 H 0.58656 0.9989 0.92855 0.0
H187 H 0.59447 0.78722 0.99054 0.0
O188 O 0.65136 0.84244 1.00923 0.0
H189 H 0.48082 0.76956 0.03839 0.0
H190 H 0.61956 0.82856 0.09044 0.0
H191 H 0.62271 0.92692 0.03772 0.0
H192 H 0.53911 0.83342 0.03318 0.0
H193 H 0.61549 0.81908 0.04812 0.0
O194 O 0.58586 0.84871 0.92846 0.0
H195 H 0.59331 0.95541 0.95592 0.0
H196 H 0.61968 0.90263 0.90029 0.0
H197 H 0.62657 0.93746 0.07991 0.0
H198 H 0.53712 0.7227 0.9956 0.0
H199 H 0.62498 0.88805 0.10659 0.0
H200 H 0.4796 0.71356 1.0196 0.0
O201 O 0.66158 0.91661 1.00307 0.0
H202 H 0.71669 0.86125 0.92573 0.0
H203 H 0.68205 0.96297 0.93401 0.0
H204 H 0.74665 0.97854 0.91722 0.0
H205 H 0.76427 0.92742 0.91268 0.0
H206 H 0.65301 0.84708 0.94292 0.0
H207 H 0.61273 0.94511 0.87224 0.0
H208 H 0.59627 0.9939 0.88631 0.0
O209 O 0.64049 0.9367 0.97307 0.0
C210 C 0.55725 0.88874 0.98999 0.0
C211 C 0.5937 0.97773 0.92218 0.0
C212 C 0.60829 0.9475 0.89059 0.0
N213 N 0.60668 0.92626 0.92981 0.0
C214 C 0.59756 0.953 0.93764 0.0
C215 C 0.61188 0.92325 0.90657 0.0
C216 C 0.59912 0.9749 0.89849 0.0
C217 C 0.56978 0.78344 1.00115 0.0
N218 N 0.57018 0.81411 1.01143 0.0
C219 C 0.53727 0.74685 1.00389 0.0
C220 C 0.505 0.74175 1.01733 0.0
C221 C 0.50564 0.77314 1.02785 0.0
C222 C 0.53867 0.80929 1.02471 0.0
C223 C 0.62019 0.85027 0.079 0.0
C224 C 0.62176 0.90519 0.04922 0.0
C225 C 0.61798 0.84508 0.05503 0.0
N226 N 0.61853 0.87228 0.0405 0.0
C227 C 0.62407 0.91136 0.07309 0.0
C228 C 0.62322 0.88365 0.08805 0.0
C229 C 0.66385 0.94306 0.98984 0.0
C230 C 0.70909 0.88366 0.92719 0.0
C231 C 0.68911 0.94036 0.93193 0.0
C232 C 0.72593 0.94945 0.92247 0.0
C233 C 0.73582 0.92079 0.91996 0.0
N234 N 0.66245 0.90364 0.93843 0.0
C235 C 0.6726 0.87568 0.93664 0.0
Co236 Co 0.10592 0.69886 0.95505 0.0
Co237 Co 0.03607 0.69602 0.91813 0.0
O238 O 0.09084 0.71679 0.92758 0.0
C239 C 0.14509 0.78183 0.96202 0.0
O240 O 0.11084 0.77946 0.95834 0.0
C241 C 0.0886 0.72598 0.87441 0.0
O242 O 0.11766 0.7252 0.88507 0.0
O243 O 0.02837 0.64179 0.91849 0.0
O244 O 0.06302 0.64546 0.9503 0.0
H245 H 0.89061 0.60156 0.91982 0.0
H246 H 0.16966 0.74545 0.9208 0.0
O247 O 0.14867 0.75211 0.96087 0.0
H248 H 0.16454 0.62062 0.92419 0.0
H249 H 0.20274 0.69533 1.01039 0.0
H250 H 0.06207 0.64524 0.99399 0.0
H251 H 0.11944 0.63273 0.9485 0.0
H252 H 0.18282 0.71633 0.97534 0.0
O253 O 0.0538 0.70849 0.8837 0.0
H254 H 0.95939 0.62878 0.93207 0.0
H255 H 0.99603 0.71907 0.88284 0.0
H256 H 0.08071 0.62327 0.02912 0.0
H257 H 0.21569 0.73473 0.89641 0.0
H258 H 0.1515 0.64836 0.03752 0.0
H259 H 0.21322 0.67188 0.89796 0.0
O260 O 0.06889 0.70753 0.97463 0.0
H261 H 0.10661 0.8398 0.9082 0.0
H262 H 0.98652 0.7265 0.93792 0.0
H263 H 0.99262 0.79008 0.94158 0.0
H264 H 0.05281 0.84733 0.92643 0.0
H265 H 0.09991 0.77613 0.9055 0.0
H266 H 0.92779 0.69269 0.86974 0.0
H267 H 0.87439 0.63357 0.88834 0.0
O268 O 0.01697 0.68607 0.9512 0.0
C269 C 0.03645 0.62614 0.93573 0.0
C270 C 0.91359 0.6273 0.91154 0.0
C271 C 0.93447 0.67838 0.88341 0.0
N272 N 0.98189 0.67532 0.90819 0.0
C273 C 0.95264 0.64283 0.91846 0.0
C274 C 0.97317 0.69304 0.89081 0.0
C275 C 0.90452 0.64525 0.89388 0.0
C276 C 0.16851 0.71809 0.92165 0.0
N277 N 0.1417 0.68969 0.93593 0.0
C278 C 0.1946 0.71215 0.90776 0.0
C279 C 0.19316 0.67687 0.90861 0.0
C280 C 0.16582 0.64808 0.9233 0.0
C281 C 0.14018 0.65504 0.93692 0.0
C282 C 0.1718 0.68413 1.0069 0.0
C283 C 0.09294 0.65614 0.99743 0.0
C284 C 0.16034 0.69597 0.9871 0.0
N285 N 0.12132 0.68183 0.98252 0.0
C286 C 0.1033 0.64365 1.0174 0.0
C287 C 0.14303 0.65776 1.02211 0.0
C288 C 0.03249 0.69554 0.97114 0.0
C289 C 0.07989 0.815 0.91446 0.0
C290 C 0.01274 0.75114 0.93108 0.0
C291 C 0.01604 0.78714 0.93328 0.0
C292 C 0.04979 0.81923 0.92479 0.0
N293 N 0.04197 0.74697 0.92043 0.0
C294 C 0.07557 0.77855 0.91258 0.0
Co295 Co 0.32673 0.4337 1.01006 0.0
Co296 Co 0.30095 0.34769 0.98309 0.0
O297 O 0.33497 0.39032 1.00309 0.0
C298 C 0.41617 0.46443 1.01121 0.0
O299 O 0.41202 0.43373 1.0009 0.0
C300 C 0.30161 0.30792 1.02615 0.0
O301 O 0.29592 0.33237 0.03824 0.0
O302 O 0.25282 0.33958 1.00031 0.0
O303 O 0.26837 0.39915 1.01069 0.0
H304 H 0.18606 0.27394 0.9309 0.0
H305 H 0.3734 0.40948 0.04033 0.0
O306 O 0.38692 0.47086 1.01173 0.0
H307 H 0.27742 0.41799 0.09278 0.0
H308 H 0.3563 0.55665 0.04926 0.0
H309 H 0.2699 0.4579 0.99477 0.0
H310 H 0.27862 0.43165 0.05109 0.0
H311 H 0.36543 0.50151 0.04106 0.0
O312 O 0.30533 0.31083 1.0042 0.0
H313 H 0.22859 0.32691 0.95633 0.0
H314 H 0.30176 0.2777 0.96698 0.0
H315 H 0.25925 0.51226 1.00264 0.0
H316 H 0.3739 0.39669 0.08184 0.0
H317 H 0.30279 0.56229 0.03004 0.0
H318 H 0.32561 0.40075 0.10853 0.0
O319 O 0.32172 0.44261 0.97535 0.0
H320 H 0.43715 0.36461 0.9747 0.0
H321 H 0.32405 0.35689 0.93298 0.0
H322 H 0.38319 0.36721 0.91087 0.0
H323 H 0.44025 0.37102 0.93175 0.0
H324 H 0.37761 0.35485 0.99614 0.0
H325 H 0.25963 0.22389 0.94188 0.0
H326 H 0.20138 0.22182 0.92356 0.0
O327 O 0.29451 0.38258 0.96185 0.0
C328 C 0.24359 0.36382 1.00808 0.0
C329 C 0.21131 0.27446 0.93881 0.0
C330 C 0.25259 0.24636 0.94499 0.0
N331 N 0.2676 0.30541 0.96326 0.0
C332 C 0.23557 0.30443 0.95324 0.0
C333 C 0.27623 0.27684 0.95929 0.0
C334 C 0.21993 0.24524 0.9347 0.0
C335 C 0.3532 0.41282 0.05167 0.0
N336 N 0.32719 0.42312 0.04312 0.0
C337 C 0.35321 0.40485 0.07527 0.0
C338 C 0.326 0.40695 0.09021 0.0
C339 C 0.29898 0.41661 0.08139 0.0
C340 C 0.29985 0.42438 0.0577 0.0
C341 C 0.33736 0.53524 0.03712 0.0
C342 C 0.28908 0.47957 1.00653 0.0
C343 C 0.34267 0.5041 0.0322 0.0
N344 N 0.31875 0.47676 1.01698 0.0
C345 C 0.28286 0.51029 1.011 0.0
C346 C 0.30727 0.53832 1.02638 0.0
C347 C 0.30279 0.41715 0.95978 0.0
C348 C 0.4125 0.36304 0.9654 0.0
C349 C 0.34894 0.35901 0.94221 0.0
C350 C 0.38226 0.36461 0.92959 0.0
C351 C 0.41424 0.36668 0.94131 0.0
N352 N 0.34752 0.35559 0.96584 0.0
C353 C 0.37867 0.35741 0.97744 0.0
Co354 Co 0.0888 0.42062 0.40428 0.0
Co355 Co 0.03087 0.346 0.44159 0.0
O356 O 0.0584 0.40007 0.43301 0.0
C357 C 0.03324 0.44949 0.40585 0.0
O358 O 1.00584 0.41354 0.40804 0.0
C359 C 0.05771 0.39357 0.48506 0.0
O360 O 0.08905 0.42056 0.47434 0.0
O361 O 0.08156 0.3434 0.43641 0.0
O362 O 0.10749 0.38243 0.40523 0.0
H363 H 0.99505 0.20852 0.43242 0.0
H364 H 0.10072 0.4767 0.44114 0.0
O365 O 0.06917 0.45817 0.40294 0.0
H366 H 0.23071 0.48664 0.42806 0.0
H367 H 0.17514 0.52694 0.34851 0.0
H368 H 0.10378 0.38755 0.36196 0.0
H369 H 0.17335 0.44141 0.40568 0.0
H370 H 0.13741 0.49942 0.38495 0.0
O371 O 0.03963 0.36021 0.47607 0.0
H372 H 0.02747 0.27674 0.42152 0.0
H373 H 0.97675 0.29947 0.48077 0.0
H374 H 0.14135 0.41381 0.32537 0.0
H375 H 0.15746 0.5228 0.46358 0.0
H376 H 0.1774 0.48401 0.31845 0.0
H377 H 0.22301 0.52787 0.4572 0.0
O378 O 0.04365 0.38395 0.38574 0.0
H379 H 0.94558 0.40352 0.46378 0.0
H380 H 0.94798 0.29363 0.42812 0.0
H381 H 0.8852 0.294 0.43149 0.0
H382 H 0.88356 0.34905 0.44963 0.0
H383 H 1.00769 0.40251 0.45954 0.0
H384 H 0.9441 0.23157 0.49242 0.0
H385 H 0.95301 0.18549 0.46813 0.0
O386 O 0.01782 0.33103 0.40842 0.0
C387 C 0.10435 0.3551 0.41814 0.0
C388 C 0.99096 0.22832 0.44318 0.0
C389 C 0.96246 0.24127 0.47687 0.0
N390 N 1.00431 0.29226 0.45055 0.0
C391 C 1.00927 0.26703 0.43709 0.0
C392 C 0.98129 0.2798 0.47026 0.0
C393 C 0.96742 0.21542 0.46322 0.0
C394 C 0.1292 0.47894 0.43807 0.0
N395 N 0.1336 0.45617 0.42219 0.0
C396 C 0.1612 0.505 0.45093 0.0
C397 C 0.19795 0.50778 0.44737 0.0
C398 C 0.20227 0.4846 0.43106 0.0
C399 C 0.1696 0.45883 0.41855 0.0
C400 C 0.15961 0.49631 0.35134 0.0
C401 C 0.11952 0.41811 0.35914 0.0
C402 C 0.13814 0.48056 0.37191 0.0
N403 N 0.11863 0.44192 0.37564 0.0
C404 C 0.14069 0.43282 0.33836 0.0
C405 C 0.16087 0.47221 0.33448 0.0
C406 C 0.02095 0.34831 0.38921 0.0
C407 C 0.94574 0.37902 0.45623 0.0
C408 C 0.94762 0.31759 0.43627 0.0
C409 C 0.91191 0.31766 0.43805 0.0
C410 C 0.911 0.34855 0.4482 0.0
N411 N 0.98157 0.34723 0.44458 0.0
C412 C 0.98091 0.37796 0.45413 0.0
Co413 Co 0.55784 0.64143 0.34531 0.0
Co414 Co 0.58892 0.66889 0.40055 0.0
O415 O 0.55144 0.63254 0.37872 0.0
C416 C 0.54473 0.56234 0.34991 0.0
O417 O 0.57643 0.57474 0.36246 0.0
C418 C 0.51031 0.61955 0.42605 0.0
O419 O 0.49054 0.61163 0.40678 0.0
O420 O 0.57854 0.71069 0.38748 0.0
O421 O 0.57911 0.69778 0.34941 0.0
H422 H 0.70221 0.79568 0.42362 0.0
H423 H 0.48008 0.58426 0.36526 0.0
O424 O 0.53536 0.58558 0.34091 0.0
H425 H 0.45427 0.67319 0.31962 0.0
H426 H 0.51977 0.60948 0.2619 0.0
H427 H 0.62049 0.69983 0.31476 0.0
H428 H 0.52112 0.68118 0.32088 0.0
H429 H 0.51056 0.5997 0.30427 0.0
O430 O 0.5455 0.64842 0.42629 0.0
H431 H 0.65593 0.74819 0.39655 0.0
H432 H 0.60209 0.66785 0.45163 0.0
H433 H 0.63069 0.71092 0.2725 0.0
H434 H 0.41257 0.57454 0.36422 0.0
H435 H 0.5801 0.66554 0.24576 0.0
H436 H 0.39934 0.61941 0.34141 0.0
O437 O 0.61187 0.64832 0.34688 0.0
H438 H 0.56037 0.53539 0.42178 0.0
H439 H 0.66355 0.67021 0.41287 0.0
H440 H 0.68159 0.62269 0.42584 0.0
H441 H 0.62978 0.55472 0.43068 0.0
H442 H 0.54374 0.58339 0.40827 0.0
H443 H 0.64744 0.71439 0.4794 0.0
H444 H 0.69812 0.77893 0.46546 0.0
O445 O 0.63331 0.687 0.3773 0.0
C446 C 0.58222 0.72059 0.36569 0.0
C447 C 0.68001 0.76779 0.42997 0.0
C448 C 0.64924 0.72222 0.46126 0.0
N449 N 0.62539 0.70553 0.42248 0.0
C450 C 0.65351 0.74085 0.4147 0.0
C451 C 0.62324 0.69604 0.44546 0.0
C452 C 0.67773 0.75838 0.45343 0.0
C453 C 0.47466 0.60413 0.35549 0.0
N454 N 0.50487 0.63426 0.34389 0.0
C455 C 0.43632 0.59838 0.35488 0.0
C456 C 0.42891 0.62354 0.34208 0.0
C457 C 0.45973 0.65379 0.32992 0.0
C458 C 0.49767 0.65859 0.33096 0.0
C459 C 0.54199 0.62949 0.27337 0.0
C460 C 0.59822 0.68011 0.30324 0.0
C461 C 0.53701 0.62403 0.29739 0.0
N462 N 0.56482 0.64936 0.31198 0.0
C463 C 0.60422 0.68646 0.27932 0.0
C464 C 0.57584 0.66096 0.26433 0.0
C465 C 0.63948 0.67115 0.3599 0.0
C466 C 0.58311 0.56505 0.42023 0.0
C467 C 0.64059 0.64085 0.41518 0.0
C468 C 0.65111 0.61398 0.42243 0.0
C469 C 0.62206 0.57587 0.42512 0.0
N470 N 0.60211 0.63033 0.41099 0.0
C471 C 0.57373 0.5927 0.41294 0.0
Co472 Co 0.42844 0.94794 0.4226 0.0
Co473 Co 0.40161 0.99951 0.4582 0.0
O474 O 0.43484 0.97703 0.4506 0.0
C475 C 0.51271 1.0047 0.42126 0.0
O476 O 0.50104 0.02989 0.42516 0.0
C477 C 0.42824 0.97863 0.50244 0.0
O478 O 0.42629 0.94839 0.4927 0.0
O479 O 0.35152 0.94749 0.45531 0.0
O480 O 0.36995 0.92653 0.42405 0.0
H481 H 0.28612 0.02196 0.44832 0.0
H482 H 0.47589 0.94022 0.4598 0.0
O483 O 0.48685 0.9695 0.42019 0.0
H484 H 0.36388 0.81051 0.4493 0.0
H485 H 0.45846 0.8677 0.36825 0.0
H486 H 0.38011 0.9321 0.38055 0.0
H487 H 0.37056 0.86449 0.42549 0.0
H488 H 0.46515 0.9035 0.40407 0.0
O489 O 0.41042 0.99471 0.49295 0.0
H490 H 0.32965 0.99528 0.43838 0.0
H491 H 0.40218 0.05157 0.49524 0.0
H492 H 0.37222 0.8963 0.3446 0.0
H493 H 0.47077 0.88694 0.48372 0.0
H494 H 0.41159 0.86379 0.33826 0.0
H495 H 0.41431 0.82154 0.47862 0.0
O496 O 0.43353 0.99127 0.40349 0.0
H497 H 0.54184 0.09479 0.47691 0.0
H498 H 0.4208 0.07564 0.43939 0.0
H499 H 0.47933 0.13973 0.43919 0.0
H500 H 0.54034 0.14981 0.45827 0.0
H501 H 0.48331 0.03111 0.47602 0.0
H502 H 0.35999 0.07895 0.5059 0.0
H503 H 0.30152 0.06431 0.48233 0.0
O504 O 0.39573 1.00814 0.42454 0.0
C505 C 0.34306 0.92616 0.43718 0.0
C506 C 0.31143 0.02845 0.45878 0.0
C507 C 0.35284 0.06036 0.49112 0.0
N508 N 0.36776 0.02113 0.46637 0.0
C509 C 0.33574 0.01313 0.45326 0.0
C510 C 0.37647 0.04449 0.48509 0.0
C511 C 0.32008 0.05219 0.47787 0.0
C512 C 0.45142 0.91179 0.45734 0.0
N513 N 0.4234 0.90556 0.44138 0.0
C514 C 0.44859 0.88176 0.471 0.0
C515 C 0.41688 0.84509 0.46816 0.0
C516 C 0.38852 0.8389 0.45175 0.0
C517 C 0.3923 0.86964 0.43843 0.0
C518 C 0.44108 0.88167 0.37084 0.0
C519 C 0.39716 0.91782 0.378 0.0
C520 C 0.44479 0.90203 0.39106 0.0
N521 N 0.42278 0.91958 0.39449 0.0
C522 C 0.39265 0.89769 0.35757 0.0
C523 C 0.41477 0.87948 0.35402 0.0
C524 C 0.41356 0.00867 0.40594 0.0
C525 C 0.51523 0.09093 0.46887 0.0
C526 C 0.4471 0.07965 0.44785 0.0
C527 C 0.48022 0.1161 0.44763 0.0
C528 C 0.51443 0.12173 0.45833 0.0
N529 N 0.44778 0.04957 0.45856 0.0
C530 C 0.48157 0.05486 0.46868 0.0
Co531 Co 0.30338 0.2046 0.34979 0.0
Co532 Co 0.29114 0.23043 0.29522 0.0
O533 O 0.30011 0.19767 0.3164 0.0
C534 C 0.37559 0.20165 0.33749 0.0
O535 O 0.38573 0.23027 0.32295 0.0
C536 C 0.25912 0.15169 0.27441 0.0
O537 O 0.25068 0.135 0.29489 0.0
O538 O 0.2409 0.21897 0.31346 0.0
O539 O 0.26228 0.22071 0.34974 0.0
H540 H 0.25655 0.33196 0.27524 0.0
H541 H 0.29121 0.13048 0.33191 0.0
O542 O 0.3444 0.18874 0.35003 0.0
H543 H 0.17629 0.09766 0.38315 0.0
H544 H 0.31809 0.1704 0.43169 0.0
H545 H 0.30517 0.26311 0.38159 0.0
H546 H 0.22832 0.16468 0.37754 0.0
H547 H 0.31199 0.16154 0.38936 0.0
O548 O 0.26453 0.18582 0.27252 0.0
H549 H 0.27014 0.29141 0.30136 0.0
H550 H 0.29094 0.23845 0.2435 0.0
H551 H 0.31089 0.27292 0.42385 0.0
H552 H 0.24033 0.063 0.33737 0.0
H553 H 0.31739 0.22634 0.4492 0.0
H554 H 0.18217 0.0462 0.36304 0.0
O555 O 0.34487 0.25854 0.34535 0.0
H556 H 0.39673 0.20577 0.26144 0.0
H557 H 0.3568 0.30274 0.27512 0.0
H558 H 0.41966 0.32122 0.2548 0.0
H559 H 0.43987 0.27248 0.24752 0.0
H560 H 0.33494 0.18879 0.28228 0.0
H561 H 0.27717 0.27812 0.21677 0.0
H562 H 0.25998 0.32545 0.23259 0.0
O563 O 0.32077 0.27592 0.31548 0.0
C564 C 0.2385 0.22291 0.33561 0.0
C565 C 0.26391 0.31138 0.26812 0.0
C566 C 0.27539 0.2811 0.23532 0.0
N567 N 0.28097 0.26221 0.27404 0.0
C568 C 0.27161 0.28828 0.28284 0.0
C569 C 0.28285 0.25845 0.25057 0.0
C570 C 0.26582 0.30769 0.2442 0.0
C571 C 0.26618 0.12345 0.34323 0.0
N572 N 0.26257 0.15165 0.35416 0.0
C573 C 0.23736 0.08516 0.34619 0.0
C574 C 0.20473 0.07575 0.36057 0.0
C575 C 0.20136 0.10462 0.37181 0.0
C576 C 0.23076 0.1426 0.36841 0.0
C577 C 0.31519 0.19084 0.42083 0.0
C578 C 0.30774 0.2426 0.39253 0.0
C579 C 0.31179 0.18601 0.39685 0.0
N580 N 0.30787 0.2116 0.38306 0.0
C581 C 0.31109 0.24836 0.41643 0.0
C582 C 0.31478 0.22223 0.43065 0.0
C583 C 0.3448 0.28388 0.33209 0.0
C584 C 0.38796 0.22715 0.26412 0.0
C585 C 0.36511 0.28121 0.272 0.0
C586 C 0.40088 0.29192 0.26048 0.0
C587 C 0.41221 0.26459 0.25641 0.0
N588 N 0.34089 0.2442 0.27909 0.0
C589 C 0.35246 0.21753 0.27565 0.0
Co590 Co 0.79425 0.0505 0.29211 0.0
Co591 Co 0.71755 0.04593 0.26002 0.0
O592 O 0.77361 0.06598 0.26598 0.0
C593 C 0.83078 0.13336 0.29666 0.0
O594 O 0.79512 0.12827 0.2942 0.0
C595 C 0.76175 0.06528 0.21355 0.0
O596 O 0.79048 0.06163 0.22243 0.0
O597 O 0.70743 0.99097 0.26331 0.0
O598 O 0.75236 0.99688 0.28949 0.0
H599 H 0.57344 0.96 0.27581 0.0
H600 H 0.85164 0.09708 0.25482 0.0
O601 O 0.83649 0.10483 0.29592 0.0
H602 H 0.85193 0.97469 0.25583 0.0
H603 H 0.90266 0.05408 0.3402 0.0
H604 H 0.75964 0.99761 0.33241 0.0
H605 H 0.80969 0.98603 0.28316 0.0
H606 H 0.87524 0.07229 0.30738 0.0
O607 O 0.72853 0.05093 0.22467 0.0
H608 H 0.64438 0.98747 0.28293 0.0
H609 H 0.67126 0.06127 0.22457 0.0
H610 H 0.78578 0.97836 0.36536 0.0
H611 H 0.89488 0.08723 0.22745 0.0
H612 H 0.85819 1.00686 0.36943 0.0
H613 H 0.89467 0.0254 0.22776 0.0
O614 O 0.76003 0.05855 0.31455 0.0
H615 H 0.79376 0.18711 0.24029 0.0
H616 H 0.6731 0.08382 0.27714 0.0
H617 H 0.6835 0.14925 0.27647 0.0
H618 H 0.74402 0.20149 0.25773 0.0
H619 H 0.7829 0.1218 0.24196 0.0
H620 H 0.60068 0.0343 0.21663 0.0
H621 H 0.55151 0.98354 0.24241 0.0
O622 O 0.70598 0.04464 0.29403 0.0
C623 C 0.7206 0.97656 0.27859 0.0
C624 C 0.59491 0.98216 0.26438 0.0
C625 C 0.60986 0.02361 0.23115 0.0
N626 N 0.66176 0.02541 0.25399 0.0
C627 C 0.63518 0.99781 0.26831 0.0
C628 C 0.64988 0.03854 0.2356 0.0
C629 C 0.58262 0.99536 0.24564 0.0
C630 C 0.85162 0.07022 0.25521 0.0
N631 N 0.82755 0.04188 0.27047 0.0
C632 C 0.87605 0.06474 0.2396 0.0
C633 C 0.87587 0.03003 0.23975 0.0
C634 C 0.85217 1.0017 0.25546 0.0
C635 C 0.82809 1.00818 0.27079 0.0
C636 C 0.87106 0.04145 0.33861 0.0
C637 C 0.7904 0.00969 0.33399 0.0
C638 C 0.85536 0.05172 0.3201 0.0
N639 N 0.81548 0.03577 0.31793 0.0
C640 C 0.80581 0.99908 0.35272 0.0
C641 C 0.84566 0.01474 0.355 0.0
C642 C 0.72484 0.05241 0.31296 0.0
C643 C 0.76697 0.16451 0.2482 0.0
C644 C 0.69951 0.10621 0.2689 0.0
C645 C 0.70523 0.14331 0.26858 0.0
C646 C 0.73915 0.17259 0.25807 0.0
N647 N 0.72656 0.09819 0.25886 0.0
C648 C 0.76026 0.12707 0.24888 0.0
Co649 Co 1.00284 0.77464 0.33971 0.0
Co650 Co 0.9618 0.67983 0.32521 0.0
O651 O 1.003 0.7258 0.33987 0.0
C652 C 0.08915 0.79348 0.34186 0.0
O653 O 0.07931 0.75923 0.33443 0.0
C654 C 0.96803 0.65071 0.37154 0.0
O655 O 0.97037 0.68094 0.38151 0.0
O656 O 0.92082 0.684 0.34363 0.0
O657 O 0.94367 0.74713 0.3407 0.0
H658 H 0.83271 0.60223 0.28535 0.0
H659 H 0.0442 0.75489 0.37659 0.0
O660 O 0.06389 0.80517 0.34066 0.0
H661 H 0.9558 0.78945 0.41869 0.0
H662 H 0.05143 0.91125 0.3627 0.0
H663 H 0.95626 0.80437 0.31582 0.0
H664 H 0.95767 0.78981 0.37602 0.0
H665 H 0.05016 0.84947 0.36332 0.0
O666 O 0.96526 0.64684 0.34971 0.0
H667 H 0.88534 0.65962 0.30362 0.0
H668 H 0.94967 0.60173 0.31631 0.0
H669 H 0.9561 0.86547 0.31486 0.0
H670 H 0.04407 0.7553 0.41909 0.0
H671 H 1.00405 0.91956 0.33843 0.0
H672 H 0.99954 0.77254 0.44057 0.0
O673 O 0.9988 0.77341 0.30424 0.0
H674 H 0.08802 0.67644 0.31361 0.0
H675 H 0.97324 0.67038 0.27487 0.0
H676 H 0.02446 0.66637 0.25148 0.0
H677 H 0.08233 0.66928 0.27086 0.0
H678 H 0.03635 0.68087 0.3363 0.0
H679 H 0.89748 0.54357 0.29837 0.0
H680 H 0.83855 0.54362 0.28264 0.0
O681 O 0.9563 0.71064 0.30028 0.0
C682 C 0.91582 0.71299 0.34452 0.0
C683 C 0.85827 0.60186 0.29211 0.0
C684 C 0.8946 0.56894 0.29943 0.0
N685 N 0.92069 0.63415 0.31096 0.0
C686 C 0.88825 0.63432 0.30244 0.0
C687 C 0.92402 0.60194 0.30964 0.0
C688 C 0.86155 0.56899 0.29061 0.0
C689 C 0.0258 0.76385 0.38554 0.0
N690 N 1.00228 0.77396 0.37355 0.0
C691 C 0.02537 0.76339 0.40976 0.0
C692 C 1.00025 0.77288 0.4218 0.0
C693 C 0.97571 0.78236 0.40954 0.0
C694 C 0.97697 0.78254 0.38533 0.0
C695 C 0.03049 0.88795 0.35229 0.0
C696 C 0.97716 0.82765 0.32606 0.0
C697 C 0.0298 0.85291 0.35243 0.0
N698 N 1.00328 0.82322 0.33943 0.0
C699 C 0.97697 0.86225 0.32548 0.0
C700 C 1.00387 0.89258 0.33869 0.0
C701 C 0.97245 0.7448 0.29274 0.0
C702 C 0.06297 0.67517 0.30495 0.0
C703 C 0.99855 0.67214 0.28341 0.0
C704 C 0.02735 0.66962 0.27008 0.0
C705 C 0.05978 0.6712 0.28097 0.0
N706 N 1.00196 0.67617 0.30692 0.0
C707 C 0.03357 0.67758 0.31772 0.0
Co708 Co 0.7454 0.74551 0.73274 0.0
Co709 Co 0.68623 0.67168 0.76985 0.0
O710 O 0.71497 0.72594 0.76152 0.0
C711 C 0.69484 0.7807 0.73431 0.0
O712 O 0.6646 0.74609 0.73653 0.0
C713 C 0.71268 0.71857 0.81362 0.0
O714 O 0.74449 0.74529 0.80312 0.0
O715 O 0.73642 0.66797 0.76525 0.0
O716 O 0.7612 0.70527 0.73336 0.0
H717 H 0.64776 0.53351 0.76059 0.0
H718 H 0.76109 0.80182 0.77003 0.0
O719 O 0.72953 0.78566 0.73167 0.0
H720 H 0.88756 0.8049 0.75557 0.0
H721 H 0.83566 0.84962 0.6768 0.0
H722 H 0.75631 0.71048 0.69008 0.0
H723 H 0.82886 0.76219 0.73329 0.0
H724 H 0.79793 0.82371 0.71341 0.0
O725 O 0.69405 0.68542 0.80442 0.0
H726 H 0.68193 0.60189 0.74994 0.0
H727 H 0.63016 0.62546 0.80835 0.0
H728 H 0.79382 0.73513 0.65331 0.0
H729 H 0.81924 0.84548 0.79238 0.0
H730 H 0.83388 0.80519 0.64648 0.0
H731 H 0.88303 0.84708 0.78531 0.0
O732 O 0.69866 0.71069 0.71455 0.0
H733 H 0.60245 0.73125 0.79098 0.0
H734 H 0.60375 0.62104 0.75501 0.0
H735 H 0.54163 0.62282 0.75747 0.0
H736 H 0.54054 0.67803 0.77577 0.0
H737 H 0.66393 0.72885 0.78766 0.0
H738 H 0.59574 0.5574 0.81974 0.0
H739 H 0.6043 0.51083 0.79574 0.0
O740 O 0.67417 0.65715 0.73654 0.0
C741 C 0.75846 0.67856 0.74666 0.0
C742 C 0.64383 0.55353 0.77122 0.0
C743 C 0.61472 0.56695 0.80443 0.0
N744 N 0.65837 0.61783 0.77858 0.0
C745 C 0.66313 0.59233 0.76528 0.0
C746 C 0.63455 0.60556 0.79798 0.0
C747 C 0.61948 0.54083 0.79094 0.0
C748 C 0.78878 0.80253 0.76668 0.0
N749 N 0.79142 0.7792 0.75047 0.0
C750 C 0.8216 0.82723 0.77948 0.0
C751 C 0.85736 0.82807 0.77553 0.0
C752 C 0.85989 0.80435 0.75888 0.0
C753 C 0.82645 0.78 0.74643 0.0
C754 C 0.81837 0.81903 0.67958 0.0
C755 C 0.7738 0.74098 0.68729 0.0
C756 C 0.79688 0.8042 0.70026 0.0
N757 N 0.77515 0.76561 0.70395 0.0
C758 C 0.79492 0.75478 0.66641 0.0
C759 C 0.81737 0.79409 0.66258 0.0
C760 C 0.67619 0.67493 0.71773 0.0
C761 C 0.60236 0.70669 0.78334 0.0
C762 C 0.60361 0.64506 0.76323 0.0
C763 C 0.56828 0.64594 0.76448 0.0
C764 C 0.56768 0.67692 0.77472 0.0
N765 N 0.63746 0.67399 0.77214 0.0
C766 C 0.63715 0.70485 0.78175 0.0
Co767 Co 0.22849 0.96501 0.67261 0.0
Co768 Co 0.25304 0.99104 0.72866 0.0
O769 O 0.21812 0.95478 0.70588 0.0
C770 C 0.2125 0.88576 0.67848 0.0
O771 O 0.24048 0.89831 0.69384 0.0
C772 C 0.17267 0.94111 0.75201 0.0
O773 O 0.15504 0.93149 0.732 0.0
O774 O 0.24232 0.03179 0.71432 0.0
O775 O 0.25094 0.02107 0.67694 0.0
H776 H 0.35932 0.11959 0.75362 0.0
H777 H 0.14733 0.90779 0.68795 0.0
O778 O 0.20508 0.90896 0.66757 0.0
H779 H 0.13342 1.00704 0.64555 0.0
H780 H 0.19764 0.93777 0.58807 0.0
H781 H 0.29522 0.02187 0.6441 0.0
H782 H 0.19789 0.01172 0.64946 0.0
H783 H 0.18413 0.92676 0.63015 0.0
O784 O 0.20732 0.9707 0.75289 0.0
H785 H 0.31592 0.07163 0.72576 0.0
H786 H 0.26329 0.98981 0.78003 0.0
H787 H 0.30983 0.03409 0.60218 0.0
H788 H 0.08145 0.9014 0.68423 0.0
H789 H 0.2612 0.99204 0.57384 0.0
H790 H 0.07419 0.95134 0.66297 0.0
O791 O 0.28126 0.97006 0.6766 0.0
H792 H 0.22328 0.85823 0.75291 0.0
H793 H 0.32654 0.99305 0.74439 0.0
H794 H 0.34366 0.94616 0.75978 0.0
H795 H 0.29174 0.87821 0.76451 0.0
H796 H 0.20777 0.90551 0.73674 0.0
H797 H 0.30485 0.03658 0.8086 0.0
H798 H 0.35393 0.10223 0.79543 0.0
O799 O 0.29898 0.00876 0.70697 0.0
C800 C 0.25046 0.04284 0.69281 0.0
C801 C 0.33798 0.09112 0.7596 0.0
C802 C 0.30734 0.04459 0.79045 0.0
N803 N 0.28627 0.02773 0.75121 0.0
C804 C 0.31326 0.0638 0.74387 0.0
C805 C 0.28311 0.01805 0.77421 0.0
C806 C 0.33492 0.08137 0.78305 0.0
C807 C 0.14443 0.92959 0.67862 0.0
N808 N 0.17688 0.9604 0.6691 0.0
C809 C 0.10704 0.92583 0.67659 0.0
C810 C 0.10299 0.95387 0.66467 0.0
C811 C 0.1362 0.98515 0.65492 0.0
C812 C 0.17312 0.98794 0.65729 0.0
C813 C 0.21936 0.95649 0.60025 0.0
C814 C 0.27426 1.00379 0.63188 0.0
C815 C 0.21191 0.95035 0.62409 0.0
N816 N 0.23912 0.97402 0.63955 0.0
C817 C 0.28197 0.01042 0.60816 0.0
C818 C 0.25503 0.98696 0.59227 0.0
C819 C 0.30744 0.9926 0.69048 0.0
C820 C 0.24602 0.8879 0.75141 0.0
C821 C 0.30358 0.96366 0.74645 0.0
C822 C 0.31355 0.93717 0.75516 0.0
C823 C 0.28445 0.89908 0.7578 0.0
N824 N 0.26556 0.95281 0.74074 0.0
C825 C 0.2372 0.91518 0.74265 0.0
Co826 Co 0.07512 0.27613 0.76147 0.0
Co827 Co 0.06635 0.34115 0.79633 0.0
O828 O 0.08916 0.30859 0.7887 0.0
C829 C 0.16108 0.32238 0.75668 0.0
O830 O 0.15658 0.35204 0.76081 0.0
C831 C 0.08866 0.31697 0.84126 0.0
O832 O 0.08478 0.28586 0.8317 0.0
O833 O 1.01019 0.29545 0.79421 0.0
O834 O 0.01884 0.2634 0.76474 0.0
H835 H 0.97478 0.39461 0.78611 0.0
H836 H 0.12 0.26292 0.79801 0.0
O837 O 0.13124 0.28894 0.75716 0.0
H838 H 0.99511 0.14141 0.79223 0.0
H839 H 0.08177 0.18045 0.70833 0.0
H840 H 0.02386 0.26372 0.7212 0.0
H841 H 1.00875 0.19641 0.767 0.0
H842 H 0.09813 0.22057 0.74309 0.0
O843 O 0.07353 0.33521 0.83124 0.0
H844 H 1.00466 0.35494 0.77619 0.0
H845 H 0.08145 0.39903 0.83304 0.0
H846 H 1.00636 0.22376 0.68636 0.0
H847 H 0.108 0.20846 0.82329 0.0
H848 H 0.03544 0.18177 0.67973 0.0
H849 H 0.04506 0.14722 0.82058 0.0
O850 O 0.08563 0.31996 0.74098 0.0
H851 H 0.21231 0.41377 0.81256 0.0
H852 H 0.10155 0.41995 0.77684 0.0
H853 H 0.1676 0.47676 0.77568 0.0
H854 H 0.22354 0.47413 0.79387 0.0
H855 H 0.14635 0.35743 0.81265 0.0
H856 H 0.05236 0.43903 0.84374 0.0
H857 H 0.99858 0.43706 0.82021 0.0
O858 O 0.06215 0.35079 0.76274 0.0
C859 C 0.99661 0.27078 0.77763 0.0
C860 C 0.99786 0.3954 0.79669 0.0
C861 C 0.04136 0.42029 0.82902 0.0
N862 N 0.04381 0.37343 0.80441 0.0
C863 C 0.01466 0.3727 0.79122 0.0
C864 C 0.05743 0.39716 0.82302 0.0
C865 C 0.01126 0.41924 0.81579 0.0
C866 C 0.09262 0.23631 0.79667 0.0
N867 N 0.06481 0.23302 0.78132 0.0
C868 C 0.08595 0.2056 0.81107 0.0
C869 C 0.05061 0.17127 0.80956 0.0
C870 C 0.02253 0.16802 0.7937 0.0
C871 C 0.03023 0.19936 0.77961 0.0
C872 C 0.06886 0.19858 0.71105 0.0
C873 C 0.03641 0.24531 0.71854 0.0
C874 C 0.07808 0.22142 0.73067 0.0
N875 N 0.06173 0.24424 0.73427 0.0
C876 C 0.02649 0.22284 0.69873 0.0
C877 C 0.04284 0.19932 0.69501 0.0
C878 C 0.07457 0.3446 0.74358 0.0
C879 C 0.18802 0.41554 0.80497 0.0
C880 C 0.12555 0.41848 0.78499 0.0
C881 C 0.16298 0.45081 0.7842 0.0
C882 C 0.19435 0.44932 0.79439 0.0
N883 N 0.11924 0.38557 0.79585 0.0
C884 C 0.15019 0.38375 0.80538 0.0
Co885 Co 0.9596 0.53029 0.67813 0.0
Co886 Co 0.95139 0.56239 0.62492 0.0
O887 O 0.95893 0.52718 0.64463 0.0
C888 C 0.03259 0.52777 0.66683 0.0
O889 O 0.04566 0.55918 0.65437 0.0
C890 C 0.92094 0.48605 0.60126 0.0
O891 O 0.90812 0.46727 0.62099 0.0
O892 O 0.89923 0.54751 0.64185 0.0
O893 O 0.91891 0.54702 0.67831 0.0
H894 H 0.91611 0.66453 0.6083 0.0
H895 H 0.94746 0.45793 0.65735 0.0
O896 O 0.99991 0.51352 0.67803 0.0
H897 H 0.82974 0.42133 0.70683 0.0
H898 H 0.96799 0.48692 0.7588 0.0
H899 H 0.95964 0.5855 0.71201 0.0
H900 H 0.88272 0.48845 0.70399 0.0
H901 H 0.96491 0.48272 0.71615 0.0
O902 O 0.92837 0.52089 0.60006 0.0
H903 H 0.92794 0.62132 0.63307 0.0
H904 H 0.95654 0.57708 0.5737 0.0
H905 H 0.96228 0.59064 0.75463 0.0
H906 H 0.89563 0.39035 0.66003 0.0
H907 H 0.96649 0.5411 0.77831 0.0
H908 H 0.83607 0.37167 0.68481 0.0
O909 O 1.00189 0.58429 0.67576 0.0
H910 H 0.06205 0.54532 0.59145 0.0
H911 H 0.01834 0.6381 0.61028 0.0
H912 H 0.08378 0.66074 0.59215 0.0
H913 H 0.10594 0.6142 0.58233 0.0
H914 H 0.99748 0.52405 0.6101 0.0
H915 H 0.94468 0.61959 0.54828 0.0
H916 H 0.92443 0.66385 0.56555 0.0
O917 O 0.97772 0.605 0.64766 0.0
C918 C 0.89554 0.54976 0.66406 0.0
C919 C 0.92482 0.64531 0.60055 0.0
C920 C 0.94077 0.62003 0.56687 0.0
N921 N 0.94256 0.59635 0.60489 0.0
C922 C 0.93153 0.62071 0.6145 0.0
C923 C 0.94717 0.59579 0.58137 0.0
C924 C 0.92948 0.6449 0.57657 0.0
C925 C 0.92185 0.45005 0.66833 0.0
N926 N 0.91802 0.47727 0.68032 0.0
C927 C 0.89249 0.41171 0.6697 0.0
C928 C 0.85906 0.40126 0.68357 0.0
C929 C 0.85545 0.42913 0.69588 0.0
C930 C 0.88542 0.46718 0.69406 0.0
C931 C 0.96608 0.50864 0.74867 0.0
C932 C 0.96122 0.56371 0.72221 0.0
C933 C 0.96441 0.50646 0.72452 0.0
N934 N 0.96175 0.53367 0.71164 0.0
C935 C 0.96282 0.56683 0.74633 0.0
C936 C 0.96522 0.53904 0.75961 0.0
C937 C 1.00198 0.61108 0.66389 0.0
C938 C 0.05249 0.56583 0.59526 0.0
C939 C 0.02748 0.6175 0.60592 0.0
C940 C 0.06471 0.63058 0.59571 0.0
C941 C 0.07714 0.60447 0.59023 0.0
N942 N 1.00298 0.5794 0.61036 0.0
C943 C 0.01551 0.55383 0.60555 0.0
Co944 Co 0.44307 0.37057 0.62496 0.0
Co945 Co 0.37257 0.36704 0.58824 0.0
O946 O 0.42734 0.38828 0.59768 0.0
C947 C 0.47952 0.45322 0.6317 0.0
O948 O 0.44441 0.44888 0.62815 0.0
C949 C 0.42538 0.39838 0.54465 0.0
O950 O 0.45435 0.39709 0.55508 0.0
O951 O 0.36575 0.3131 0.58829 0.0
O952 O 0.40095 0.31667 0.61987 0.0
H953 H 0.22749 0.27112 0.58946 0.0
H954 H 0.5065 0.4189 0.59095 0.0
O955 O 0.48479 0.42441 0.63101 0.0
H956 H 0.50489 0.29564 0.59332 0.0
H957 H 0.54136 0.36929 0.68003 0.0
H958 H 0.40021 0.31574 0.66357 0.0
H959 H 0.45866 0.30589 0.6178 0.0
H960 H 0.5205 0.38989 0.64519 0.0
O961 O 0.39051 0.38051 0.55387 0.0
H962 H 0.29628 0.29901 0.60182 0.0
H963 H 0.332 0.38995 0.55323 0.0
H964 H 0.41979 0.29413 0.69849 0.0
H965 H 0.55363 0.41005 0.56641 0.0
H966 H 0.49082 0.32096 0.70691 0.0
H967 H 0.55293 0.348 0.56744 0.0
O968 O 0.40525 0.37766 0.64473 0.0
H969 H 0.44087 0.51087 0.57894 0.0
H970 H 0.32211 0.3961 0.60853 0.0
H971 H 0.32702 0.45914 0.61261 0.0
H972 H 0.38653 0.51711 0.59753 0.0
H973 H 0.4354 0.44774 0.57587 0.0
H974 H 0.26376 0.36297 0.54 0.0
H975 H 0.21081 0.30317 0.55823 0.0
O976 O 0.35331 0.35622 0.62131 0.0
C977 C 0.37424 0.29735 0.60533 0.0
C978 C 0.25028 0.29715 0.58133 0.0
C979 C 0.27065 0.34862 0.55356 0.0
N980 N 0.31835 0.34586 0.57823 0.0
C981 C 0.28934 0.31303 0.58831 0.0
C982 C 0.30936 0.36362 0.56101 0.0
C983 C 0.24095 0.31512 0.56381 0.0
C984 C 0.50613 0.39188 0.59159 0.0
N985 N 0.47968 0.36288 0.60568 0.0
C986 C 0.53283 0.38701 0.5776 0.0
C987 C 0.53239 0.35217 0.57817 0.0
C988 C 0.50541 0.32276 0.59266 0.0
C989 C 0.47913 0.32866 0.60638 0.0
C990 C 0.51032 0.35733 0.67652 0.0
C991 C 0.43119 0.32739 0.66702 0.0
C992 C 0.49833 0.36893 0.65685 0.0
N993 N 0.45919 0.35382 0.65225 0.0
C994 C 0.44209 0.31511 0.68687 0.0
C995 C 0.48195 0.3302 0.6916 0.0
C996 C 0.36878 0.36528 0.64128 0.0
C997 C 0.41443 0.48574 0.58517 0.0
C998 C 0.34805 0.42107 0.60174 0.0
C999 C 0.35067 0.45675 0.60416 0.0
C1000 C 0.38404 0.48926 0.5957 0.0
N1001 N 0.37758 0.41761 0.59091 0.0
C1002 C 0.41079 0.44959 0.58306 0.0
Co1003 Co 0.67108 0.11951 0.66869 0.0
Co1004 Co 0.64198 0.02869 0.6501 0.0
O1005 O 0.67894 0.07532 0.66575 0.0
C1006 C 0.76003 0.14882 0.67086 0.0
O1007 O 0.75562 0.11741 0.66142 0.0
C1008 C 0.64771 0.99408 0.69479 0.0
O1009 O 0.62926 0.00956 0.70598 0.0
O1010 O 0.5976 0.02457 0.66966 0.0
O1011 O 0.61268 0.086 0.66959 0.0
H1012 H 0.51662 0.94124 0.61007 0.0
H1013 H 0.71595 0.09923 0.7028 0.0
O1014 O 0.73136 0.15604 0.6702 0.0
H1015 H 0.61994 0.11711 0.74972 0.0
H1016 H 0.70146 0.24847 0.69892 0.0
H1017 H 0.61694 0.14287 0.64774 0.0
H1018 H 0.62241 0.12455 0.70727 0.0
H1019 H 0.70942 0.19164 0.69594 0.0
O1020 O 0.65414 0.99883 0.67302 0.0
H1021 H 0.56388 1.00039 0.62945 0.0
H1022 H 0.64232 0.95672 0.63841 0.0
H1023 H 0.6074 0.19884 0.65035 0.0
H1024 H 0.71484 0.09221 0.74508 0.0
H1025 H 0.64999 0.25231 0.67609 0.0
H1026 H 0.66664 0.10119 0.76898 0.0
O1027 O 0.66616 0.12144 0.63326 0.0
H1028 H 0.77735 0.04677 0.63413 0.0
H1029 H 0.65348 0.02504 0.59916 0.0
H1030 H 0.70781 0.03101 0.57388 0.0
H1031 H 0.77028 0.04183 0.59136 0.0
H1032 H 0.72245 0.04118 0.65873 0.0
H1033 H 0.59567 0.89691 0.61931 0.0
H1034 H 0.53237 0.88895 0.60489 0.0
O1035 O 0.63028 0.05806 0.62692 0.0
C1036 C 0.58822 0.05052 0.67247 0.0
C1037 C 0.54413 0.94439 0.61624 0.0
C1038 C 0.58848 0.91949 0.62145 0.0
N1039 N 0.60594 0.98212 0.63497 0.0
C1040 C 0.57108 0.97787 0.62719 0.0
C1041 C 0.61473 0.95338 0.63232 0.0
C1042 C 0.55298 0.91505 0.61336 0.0
C1043 C 0.69569 0.10448 0.71288 0.0
N1044 N 0.6707 0.11436 0.70238 0.0
C1045 C 0.69484 0.09988 0.73693 0.0
C1046 C 0.6677 0.10477 0.75033 0.0
C1047 C 0.64154 0.11375 0.73954 0.0
C1048 C 0.64326 0.11814 0.71544 0.0
C1049 C 0.68287 0.22548 0.68753 0.0
C1050 C 0.63559 0.16593 0.65885 0.0
C1051 C 0.68751 0.19333 0.6856 0.0
N1052 N 0.66401 0.164 0.67137 0.0
C1053 C 0.63006 0.19761 0.66032 0.0
C1054 C 0.65395 0.22759 0.67475 0.0
C1055 C 0.64212 0.09254 0.62091 0.0
C1056 C 0.7503 0.04211 0.6263 0.0
C1057 C 0.68073 0.03025 0.60689 0.0
C1058 C 0.71132 0.03336 0.59249 0.0
C1059 C 0.74633 0.03937 0.60231 0.0
N1060 N 0.68489 0.0331 0.63041 0.0
C1061 C 0.71907 0.03885 0.64015 0.0
H1062 H 0.5032 0.02626 0.08324 0.0
H1063 H 0.38812 0.93694 0.06619 0.0
H1064 H 0.53314 0.99743 0.0584 0.0
H1065 H 0.41661 0.9075 0.04169 0.0
H1066 H 0.48451 0.8484 1.01129 0.0
H1067 H 0.45277 0.87392 0.03708 0.0
H1068 H 0.54286 0.98858 1.0186 0.0
H1069 H 0.57464 0.96281 0.99345 0.0
C1070 C 0.48467 0.99966 0.07512 0.0
C1071 C 0.44354 0.98291 0.07823 0.0
C1072 C 0.50136 0.98324 0.06032 0.0
C1073 C 0.47748 0.94974 0.04772 0.0
C1074 C 0.43635 0.93261 0.0513 0.0
C1075 C 0.41979 0.94915 0.06597 0.0
C1076 C 0.49651 0.87905 1.01197 0.0
C1077 C 0.53109 0.9034 0.99916 0.0
C1078 C 0.47858 0.89385 1.02708 0.0
C1079 C 0.49513 0.93364 0.03036 0.0
C1080 C 0.52918 0.95788 1.01702 0.0
C1081 C 0.54692 0.94305 1.0019 0.0
H1082 H 0.99464 0.43136 1.01952 0.0
H1083 H 0.87696 0.41416 1.01541 0.0
H1084 H 0.01943 0.48845 0.99511 0.0
H1085 H 0.90132 0.47094 0.99025 0.0
H1086 H 0.96785 0.59619 0.96091 0.0
H1087 H 0.93847 0.5386 0.98487 0.0
H1088 H 0.02209 0.50829 0.95631 0.0
H1089 H 0.05141 0.56649 0.93226 0.0
C1090 C 0.97421 0.44077 1.0143 0.0
C1091 C 0.934 0.41903 1.02069 0.0
C1092 C 0.98829 0.47309 0.99955 0.0
C1093 C 0.96261 0.48473 0.99013 0.0
C1094 C 0.92244 0.46362 0.99714 0.0
C1095 C 0.90837 0.43116 1.01194 0.0
C1096 C 0.97836 0.57612 0.95846 0.0
C1097 C 0.01055 0.58523 0.94322 0.0
C1098 C 0.96196 0.54313 0.97281 0.0
C1099 C 0.97767 0.51818 0.97298 0.0
C1100 C 1.00913 0.52665 0.95716 0.0
C1101 C 0.02546 0.55969 0.94277 0.0
H1102 H 0.47795 0.45116 1.01843 0.0
H1103 H 0.43511 0.52691 0.03978 0.0
H1104 H 0.53135 0.48073 0.04573 0.0
H1105 H 0.48847 0.55623 0.06766 0.0
H1106 H 0.61629 0.62556 0.0971 0.0
H1107 H 0.55766 0.59621 0.0737 0.0
H1108 H 0.54851 0.4861 0.08514 0.0
H1109 H 0.6076 0.516 0.10866 0.0
C1110 C 0.47984 0.47432 0.02885 0.0
C1111 C 0.45156 0.48631 1.02658 0.0
C1112 C 0.51052 0.4911 0.04493 0.0
C1113 C 0.51456 0.52081 0.05955 0.0
C1114 C 0.48688 0.53358 0.05689 0.0
C1115 C 0.45596 0.51661 0.04078 0.0
C1116 C 0.60077 0.59489 0.09591 0.0
C1117 C 0.61642 0.5733 0.10599 0.0
C1118 C 0.56705 0.57786 0.0819 0.0
C1119 C 0.54784 0.53848 0.07696 0.0
C1120 C 0.56241 0.51656 0.08794 0.0
C1121 C 0.59607 0.53366 0.10198 0.0
H1122 H 0.09472 0.28331 0.43036 0.0
H1123 H 0.16036 0.37869 0.38336 0.0
H1124 H 0.12111 0.24726 0.40962 0.0
H1125 H 0.18606 0.34302 0.3629 0.0
H1126 H 0.20134 0.26036 0.31583 0.0
H1127 H 0.16817 0.29026 0.33642 0.0
H1128 H 0.18029 0.24334 0.40117 0.0
H1129 H 0.21325 0.2141 0.38092 0.0
C1130 C 0.11507 0.29693 0.41591 0.0
C1131 C 0.12495 0.33421 0.40876 0.0
C1132 C 0.13015 0.27609 0.40382 0.0
C1133 C 0.15534 0.29168 0.38405 0.0
C1134 C 0.16603 0.3293 0.37748 0.0
C1135 C 0.15142 0.35008 0.38958 0.0
C1136 C 0.1963 0.25577 0.33436 0.0
C1137 C 0.21044 0.23459 0.34645 0.0
C1138 C 0.17754 0.27333 0.34633 0.0
C1139 C 0.17169 0.26983 0.37074 0.0
C1140 C 0.18377 0.2468 0.38251 0.0
C1141 C 0.20287 0.22982 0.37068 0.0
H1142 H 0.5515 0.74205 0.33004 0.0
H1143 H 0.64204 0.79125 0.38105 0.0
H1144 H 0.58252 0.80136 0.30784 0.0
H1145 H 0.67318 0.8514 0.359 0.0
H1146 H 0.7479 0.93474 0.30135 0.0
H1147 H 0.71148 0.8767 0.32423 0.0
H1148 H 0.60208 0.86704 0.30147 0.0
H1149 H 0.63906 0.92566 0.27803 0.0
C1150 C 0.57771 0.76565 0.33687 0.0
C1151 C 0.59428 0.76073 0.35735 0.0
C1152 C 0.59566 0.80017 0.32401 0.0
C1153 C 0.6313 0.83157 0.33098 0.0
C1154 C 0.64644 0.82777 0.35243 0.0
C1155 C 0.62816 0.79309 0.36543 0.0
C1156 C 0.71603 0.92017 0.30076 0.0
C1157 C 0.69684 0.93572 0.28758 0.0
C1158 C 0.69494 0.88682 0.31439 0.0
C1159 C 0.65345 0.86703 0.31552 0.0
C1160 C 0.63396 0.88121 0.30136 0.0
C1161 C 0.65527 0.91496 0.28765 0.0
H1162 H 0.13886 0.76768 0.35557 0.0
H1163 H 0.12262 0.86571 0.3623 0.0
H1164 H 0.19409 0.79618 0.38123 0.0
H1165 H 0.1802 0.8958 0.38749 0.0
H1166 H 0.2742 0.93146 0.44563 0.0
H1167 H 0.21278 0.90083 0.42353 0.0
H1168 H 0.25841 0.83983 0.38397 0.0
H1169 H 0.31736 0.86844 0.40613 0.0
C1170 C 0.14749 0.79585 0.36211 0.0
C1171 C 0.12599 0.8143 0.35625 0.0
C1172 C 0.1798 0.81257 0.377 0.0
C1173 C 0.19297 0.84907 0.38658 0.0
C1174 C 0.17138 0.86768 0.38083 0.0
C1175 C 0.1384 0.85053 0.36603 0.0
C1176 C 0.27067 0.91083 0.43259 0.0
C1177 C 0.30153 0.90281 0.428 0.0
C1178 C 0.23542 0.89349 0.41956 0.0
C1179 C 0.2297 0.86738 0.40158 0.0
C1180 C 0.26024 0.85879 0.39772 0.0
C1181 C 0.29484 0.87571 0.41064 0.0
H1182 H 0.86919 0.5392 0.70921 0.0
H1183 H 0.85761 0.58652 0.64443 0.0
H1184 H 0.835 0.56714 0.7296 0.0
H1185 H 0.82324 0.61506 0.66515 0.0
H1186 H 0.81502 0.70245 0.71236 0.0
H1187 H 0.84111 0.66722 0.69198 0.0
H1188 H 0.77517 0.5706 0.73795 0.0
H1189 H 0.74828 0.60633 0.7587 0.0
C1190 C 0.85865 0.55489 0.69906 0.0
C1191 C 0.86676 0.56048 0.6749 0.0
C1192 C 0.83882 0.57108 0.71097 0.0
C1193 C 0.82654 0.59405 0.69933 0.0
C1194 C 0.83279 0.59818 0.67496 0.0
C1195 C 0.85228 0.58144 0.66292 0.0
C1196 C 0.80591 0.67375 0.71847 0.0
C1197 C 0.77903 0.65757 0.73744 0.0
C1198 C 0.82075 0.65322 0.70638 0.0
C1199 C 0.80987 0.6155 0.71273 0.0
C1200 C 0.78429 0.59953 0.73232 0.0
C1201 C 0.76896 0.62017 0.74442 0.0
H1202 H 0.39096 0.23871 0.60217 0.0
H1203 H 0.30416 0.26516 0.62943 0.0
H1204 H 0.36019 0.17877 0.62464 0.0
H1205 H 0.27308 0.20564 0.65158 0.0
H1206 H 0.20951 0.0782 0.67771 0.0
H1207 H 0.23583 0.137 0.65414 0.0
H1208 H 0.35372 0.1559 0.66335 0.0
H1209 H 0.32711 0.09709 0.68638 0.0
C1210 C 0.36412 0.23094 0.61201 0.0
C1211 C 0.34868 0.25606 0.61243 0.0
C1212 C 0.34684 0.1968 0.62547 0.0
C1213 C 0.31376 0.18668 0.64027 0.0
C1214 C 0.29777 0.2114 0.64019 0.0
C1215 C 0.3152 0.24554 0.62685 0.0
C1216 C 0.24116 0.09583 0.67552 0.0
C1217 C 0.2662 0.08361 0.68507 0.0
C1218 C 0.2564 0.12948 0.66164 0.0
C1219 C 0.29722 0.1517 0.65635 0.0
C1220 C 0.32218 0.13978 0.66648 0.0
C1221 C 0.30695 0.10635 0.68036 0.0
H1222 H 0.8245 0.13935 0.67661 0.0
H1223 H 0.77485 0.20747 0.70188 0.0
H1224 H 0.87647 0.16782 0.70481 0.0
H1225 H 0.82663 0.23553 0.73077 0.0
H1226 H 0.95056 0.30351 0.76589 0.0
H1227 H 0.89413 0.27645 0.74034 0.0
H1228 H 0.89074 0.16776 0.74391 0.0
H1229 H 0.94769 0.19532 0.76884 0.0
C1230 C 0.82459 0.16059 0.6881 0.0
C1231 C 0.79483 0.17076 0.68663 0.0
C1232 C 0.85444 0.17674 0.7047 0.0
C1233 C 0.856 0.20378 0.7208 0.0
C1234 C 0.82697 0.21496 0.71889 0.0
C1235 C 0.79697 0.19873 0.70216 0.0
C1236 C 0.9372 0.27359 0.76195 0.0
C1237 C 0.9543 0.2519 0.76984 0.0
C1238 C 0.90461 0.2579 0.74693 0.0
C1239 C 0.88781 0.21983 0.73918 0.0
C1240 C 0.90314 0.19746 0.74855 0.0
C1241 C 0.93567 0.21319 0.76339 0.0
H1242 H 0.40913 0.12861 0.16835 0.0
H1243 H 0.31897 0.01165 0.18076 0.0
H1244 H 0.37721 0.14986 0.19655 0.0
H1245 H 0.28647 0.03296 0.20875 0.0
H1246 H 0.25794 0.08267 0.27408 0.0
H1247 H 0.28797 0.0592 0.24598 0.0
H1248 H 0.32196 0.159 0.20288 0.0
H1249 H 0.29232 0.18269 0.2312 0.0
C1250 C 0.38264 0.10719 0.17721 0.0
C1251 C 0.36704 0.06815 0.17207 0.0
C1252 C 0.36388 0.11956 0.19331 0.0
C1253 C 0.32865 0.09343 0.20504 0.0
C1254 C 0.31357 0.05424 0.20037 0.0
C1255 C 0.33235 0.04186 0.18419 0.0
C1256 C 0.27122 0.09948 0.25845 0.0
C1257 C 0.27227 0.13477 0.25514 0.0
C1258 C 0.28862 0.08588 0.24219 0.0
C1259 C 0.30804 0.10708 0.22195 0.0
C1260 C 0.3081 0.14189 0.21832 0.0
C1261 C 0.2905 0.15539 0.23454 0.0
H1262 H 0.88755 0.27626 0.12939 0.0
H1263 H 0.77398 0.21734 0.09734 0.0
H1264 H 0.86592 0.22457 0.15799 0.0
H1265 H 0.75242 0.16546 0.12574 0.0
H1266 H 0.71408 0.08995 0.19255 0.0
H1267 H 0.73344 0.14261 0.16477 0.0
H1268 H 0.85189 0.16016 0.1625 0.0
H1269 H 0.83272 0.10819 0.19045 0.0
C1270 C 0.85782 0.25264 0.12849 0.0
C1271 C 0.83279 0.25163 0.11077 0.0
C1272 C 0.84538 0.22244 0.14488 0.0
C1273 C 0.80728 0.19 0.14435 0.0
C1274 C 0.78182 0.18968 0.12711 0.0
C1275 C 0.79434 0.21975 0.11066 0.0
C1276 C 0.74415 0.10469 0.18601 0.0
C1277 C 0.77155 0.09418 0.19401 0.0
C1278 C 0.75541 0.13517 0.16992 0.0
C1279 C 0.7946 0.15654 0.16125 0.0
C1280 C 0.82168 0.14537 0.1689 0.0
C1281 C 0.81041 0.11491 0.18486 0.0
H1282 H 0.91213 0.76041 0.29136 0.0
H1283 H 0.98151 0.72853 0.24794 0.0
H1284 H 0.86054 0.73683 0.26273 0.0
H1285 H 0.92982 0.70471 0.219 0.0
H1286 H 0.81102 0.61642 0.18971 0.0
H1287 H 0.86615 0.65019 0.21548 0.0
H1288 H 0.83297 0.7368 0.22562 0.0
H1289 H 0.77703 0.70238 0.20002 0.0
C1290 C 0.91786 0.75097 0.27497 0.0
C1291 C 0.95252 0.74856 0.27169 0.0
C1292 C 0.88746 0.73636 0.25859 0.0
C1293 C 0.89014 0.71806 0.2384 0.0
C1294 C 0.92589 0.71786 0.23439 0.0
C1295 C 0.95632 0.73263 0.25076 0.0
C1296 C 0.81499 0.64246 0.19754 0.0
C1297 C 0.78891 0.65629 0.19252 0.0
C1298 C 0.84731 0.66233 0.2122 0.0
C1299 C 0.85509 0.69698 0.22259 0.0
C1300 C 0.8284 0.71036 0.21811 0.0
C1301 C 0.79602 0.69047 0.20331 0.0
H1302 H 0.57253 0.7427 0.92867 0.0
H1303 H 0.62054 0.84783 0.88906 0.0
H1304 H 0.60395 0.71878 0.9018 0.0
H1305 H 0.65177 0.82387 0.86208 0.0
H1306 H 0.73941 0.78939 0.83284 0.0
H1307 H 0.70536 0.81065 0.85949 0.0
H1308 H 0.60657 0.696 0.86352 0.0
H1309 H 0.64099 0.67458 0.83693 0.0
C1310 C 0.58918 0.76062 0.91402 0.0
C1311 C 0.59358 0.79744 0.91127 0.0
C1312 C 0.60737 0.74677 0.89848 0.0
C1313 C 0.63105 0.76928 0.87964 0.0
C1314 C 0.6345 0.80567 0.8765 0.0
C1315 C 0.61602 0.81939 0.89193 0.0
C1316 C 0.71063 0.7684 0.83958 0.0
C1317 C 0.69338 0.72998 0.83259 0.0
C1318 C 0.69072 0.78083 0.85476 0.0
C1319 C 0.65268 0.75538 0.86372 0.0
C1320 C 0.63581 0.71668 0.85727 0.0
C1321 C 0.65571 0.70425 0.84194 0.0
H1322 H 0.03879 0.74283 0.84884 0.0
H1323 H 0.16161 0.77654 0.85588 0.0
H1324 H 0.05696 0.79514 0.82084 0.0
H1325 H 0.17965 0.82825 0.8279 0.0
H1326 H 0.20584 0.94183 0.79463 0.0
H1327 H 0.18474 0.8899 0.823 0.0
H1328 H 0.08244 0.82003 0.78232 0.0
H1329 H 0.10363 0.87194 0.75396 0.0
C1330 C 0.06962 0.76097 0.84431 0.0
C1331 C 0.0985 0.75488 0.85488 0.0
C1332 C 0.08016 0.79121 0.82812 0.0
C1333 C 0.12004 0.81676 0.82202 0.0
C1334 C 0.14873 0.81006 0.83227 0.0
C1335 C 0.1382 0.77979 0.84826 0.0
C1336 C 0.17872 0.91567 0.7917 0.0
C1337 C 0.15686 0.91169 0.77163 0.0
C1338 C 0.16661 0.88544 0.80803 0.0
C1339 C 0.13188 0.85001 0.80511 0.0
C1340 C 0.10918 0.84659 0.78551 0.0
C1341 C 0.12148 0.87669 0.76911 0.0
H1342 H 0.31144 0.40675 0.91397 0.0
H1343 H 0.24148 0.43269 0.961 0.0
H1344 H 0.25925 0.38481 0.8855 0.0
H1345 H 0.18948 0.41144 0.93244 0.0
H1346 H 0.10936 0.3835 0.86616 0.0
H1347 H 0.16443 0.4166 0.89283 0.0
H1348 H 0.19371 0.32701 0.88468 0.0
H1349 H 0.13911 0.29409 0.85843 0.0
C1350 C 0.28591 0.40988 0.91783 0.0
C1351 C 0.28188 0.42297 0.93981 0.0
C1352 C 0.25534 0.39634 0.90162 0.0
C1353 C 0.21939 0.39549 0.90663 0.0
C1354 C 0.21658 0.41166 0.92773 0.0
C1355 C 0.24711 0.42483 0.94409 0.0
C1356 C 0.12723 0.3706 0.87022 0.0
C1357 C 0.11916 0.33575 0.85993 0.0
C1358 C 0.15904 0.38973 0.88555 0.0
C1359 C 0.18437 0.37506 0.89079 0.0
C1360 C 0.17572 0.3399 0.88084 0.0
C1361 C 0.14378 0.32062 0.86587 0.0
H1362 H 0.98635 0.34887 0.50854 0.0
H1363 H 0.08322 0.46445 0.50396 0.0
H1364 H 0.95118 0.36963 0.53496 0.0
H1365 H 0.04849 0.48507 0.53053 0.0
H1366 H 0.96255 0.52063 0.56056 0.0
H1367 H 0.99465 0.49748 0.53354 0.0
H1368 H 0.94758 0.39206 0.57287 0.0
H1369 H 0.91524 0.41505 0.59969 0.0
C1370 C 1.0006 0.37858 0.51342 0.0
C1371 C 0.03805 0.4047 0.50398 0.0
C1372 C 0.98025 0.39064 0.52866 0.0
C1373 C 0.99647 0.42935 0.53498 0.0
C1374 C 0.03431 0.45521 0.52592 0.0
C1375 C 0.05464 0.44316 0.51079 0.0
C1376 C 0.95839 0.49224 0.56329 0.0
C1377 C 0.93585 0.46987 0.58249 0.0
C1378 C 0.97737 0.47902 0.54785 0.0
C1379 C 0.97438 0.44278 0.55088 0.0
C1380 C 0.95065 0.41992 0.56961 0.0
C1381 C 0.93191 0.43323 0.58512 0.0
H1382 H 0.43924 0.55247 0.42914 0.0
H1383 H 0.54719 0.61611 0.46638 0.0
H1384 H 0.41811 0.49921 0.45642 0.0
H1385 H 0.52594 0.563 0.49387 0.0
H1386 H 0.49819 0.44742 0.52516 0.0
H1387 H 0.51692 0.50044 0.4981 0.0
H1388 H 0.39522 0.47259 0.49426 0.0
H1389 H 0.37638 0.41886 0.52114 0.0
C1390 C 0.45841 0.5556 0.44335 0.0
C1391 C 0.49524 0.5893 0.44523 0.0
C1392 C 0.44612 0.5247 0.45917 0.0
C1393 C 0.47019 0.52595 0.47755 0.0
C1394 C 0.50657 0.5601 0.47983 0.0
C1395 C 0.51876 0.59111 0.46406 0.0
C1396 C 0.47513 0.45211 0.51842 0.0
C1397 C 0.4355 0.42817 0.5256 0.0
C1398 C 0.48608 0.48317 0.50296 0.0
C1399 C 0.45792 0.4918 0.49388 0.0
C1400 C 0.41808 0.46724 0.50057 0.0
C1401 C 0.40712 0.43614 0.51614 0.0
H1402 H 0.57812 0.10339 0.62058 0.0
H1403 H 0.65168 0.07886 0.5757 0.0
H1404 H 0.52659 0.07893 0.5918 0.0
H1405 H 0.59965 0.05334 0.54696 0.0
H1406 H 0.48161 0.95949 0.5197 0.0
H1407 H 0.53629 0.9952 0.54552 0.0
H1408 H 0.50091 0.0809 0.55253 0.0
H1409 H 0.44585 0.04502 0.52631 0.0
C1410 C 0.58468 0.09534 0.60396 0.0
C1411 C 0.62057 0.09533 0.60028 0.0
C1412 C 0.55433 0.08019 0.5875 0.0
C1413 C 0.55823 0.06342 0.56694 0.0
C1414 C 0.59495 0.06542 0.56261 0.0
C1415 C 0.62543 0.08103 0.57894 0.0
C1416 C 0.48514 0.98582 0.52683 0.0
C1417 C 0.45893 0.99904 0.5208 0.0
C1418 C 0.51713 1.00674 0.54153 0.0
C1419 C 0.5235 0.04136 0.55109 0.0
C1420 C 0.4967 0.0542 0.54563 0.0
C1421 C 0.46482 0.03342 0.5306 0.0
H1422 H 0.31244 1.00558 1.01926 0.0
H1423 H 0.30738 0.91463 0.06203 0.0
H1424 H 0.26949 0.95828 0.9912 0.0
H1425 H 0.26497 0.86801 0.03419 0.0
H1426 H 0.21867 0.79516 0.97251 0.0
H1427 H 0.2693 0.84956 0.993 0.0
H1428 H 0.1973 0.90359 0.99211 0.0
H1429 H 0.14638 0.84911 0.97141 0.0
C1430 C 0.30239 0.97563 1.02261 0.0
C1431 C 0.31316 0.96384 0.04291 0.0
C1432 C 0.27781 0.94866 1.0066 0.0
C1433 C 0.26424 0.90961 1.01049 0.0
C1434 C 0.27552 0.898 0.03059 0.0
C1435 C 0.29955 0.92474 0.04665 0.0
C1436 C 0.2138 0.81886 0.97631 0.0
C1437 C 0.17817 0.81751 0.97075 0.0
C1438 C 0.2428 0.84995 0.98807 0.0
C1439 C 0.23687 0.88039 0.99441 0.0
C1440 C 0.20258 0.88045 0.98737 0.0
C1441 C 0.17339 0.84919 0.97564 0.0
H1442 H 0.03883 0.38867 1.0215 0.0
H1443 H 0.98639 0.26774 1.00947 0.0
H1444 H 0.10421 0.39546 1.01843 0.0
H1445 H 0.05185 0.27371 1.00792 0.0
H1446 H 0.17926 0.30606 0.98722 0.0
H1447 H 0.11218 0.2955 0.98826 0.0
H1448 H 0.14564 0.38274 0.04027 0.0
H1449 H 0.21295 0.39505 0.03782 0.0
C1450 C 0.04149 0.36357 1.01808 0.0
C1451 C 1.00784 0.32778 1.01557 0.0
C1452 C 0.0789 0.36725 1.01667 0.0
C1453 C 0.0835 0.33498 1.01346 0.0
C1454 C 0.04961 0.29925 1.01023 0.0
C1455 C 0.0121 0.29577 1.01107 0.0
C1456 C 0.17215 0.32274 0.99898 0.0
C1457 C 0.20158 0.35184 1.01214 0.0
C1458 C 0.13357 0.31661 0.99965 0.0
C1459 C 0.1235 0.33889 1.01394 0.0
C1460 C 0.15249 0.36603 0.02836 0.0
C1461 C 0.19109 0.37274 1.02723 0.0
H1462 H 0.78763 0.71481 0.04664 0.0
H1463 H 0.67016 0.68101 0.07219 0.0
H1464 H 0.78332 0.75934 1.01884 0.0
H1465 H 0.66549 0.72415 0.04439 0.0
H1466 H 0.65053 0.78044 0.98565 0.0
H1467 H 0.66781 0.73284 0.99845 0.0
H1468 H 0.7734 0.82167 0.02922 0.0
H1469 H 0.7559 0.86955 1.01626 0.0
C1470 C 0.7607 0.71636 0.04588 0.0
C1471 C 0.72921 0.69483 0.06142 0.0
C1472 C 0.75833 0.74172 0.03013 0.0
C1473 C 0.72398 0.7447 0.02943 0.0
C1474 C 0.69205 0.72188 0.04438 0.0
C1475 C 0.69478 0.69744 0.06036 0.0
C1476 C 0.67803 0.78986 0.9945 0.0
C1477 C 0.70154 0.82822 1.00052 0.0
C1478 C 0.68803 0.76275 1.00163 0.0
C1479 C 0.72156 0.7737 1.01503 0.0
C1480 C 0.7475 0.81269 1.01876 0.0
C1481 C 0.7375 0.83999 1.01147 0.0
H1482 H 0.71583 0.97076 1.02571 0.0
H1483 H 0.68096 1.00587 0.96348 0.0
H1484 H 0.76534 0.03672 0.03214 0.0
H1485 H 0.73118 0.07075 0.96929 0.0
H1486 H 0.79254 0.18801 0.99843 0.0
H1487 H 0.74362 0.12147 0.99445 0.0
H1488 H 0.82776 0.08825 1.01708 0.0
H1489 H 0.87682 0.15562 1.02204 0.0
C1490 C 0.71902 0.9925 1.01334 0.0
C1491 C 0.69431 0.98298 0.9941 0.0
C1492 C 0.74724 0.03003 1.01693 0.0
C1493 C 0.75214 0.05902 1.00129 0.0
C1494 C 0.72771 0.04928 0.98194 0.0
C1495 C 0.69859 0.01168 0.97851 0.0
C1496 C 0.80081 0.16663 1.00253 0.0
C1497 C 0.83873 0.17709 1.0103 0.0
C1498 C 0.77272 0.12839 1.00015 0.0
C1499 C 0.78192 0.09953 1.00513 0.0
C1500 C 0.8197 0.10985 1.01324 0.0
C1501 C 0.84786 0.14836 1.01591 0.0
H1502 H 0.89106 0.72032 0.07822 0.0
H1503 H 0.84196 0.59823 0.07151 0.0
H1504 H 0.94723 0.73088 0.05357 0.0
H1505 H 0.89791 0.60905 0.04696 0.0
H1506 H 0.95293 0.65075 0.97308 0.0
H1507 H 0.90859 0.63986 1.00572 0.0
H1508 H 1.00693 0.71615 0.04738 0.0
H1509 H 0.05217 0.72683 1.01448 0.0
C1510 C 0.89271 0.69578 0.072 0.0
C1511 C 0.86163 0.65846 0.07633 0.0
C1512 C 0.92494 0.70187 0.05801 0.0
C1513 C 0.92636 0.67075 0.04816 0.0
C1514 C 0.89709 0.63347 0.05416 0.0
C1515 C 0.86508 0.62736 0.0682 0.0
C1516 C 0.96534 0.66521 0.98915 0.0
C1517 C 1.00608 0.68973 0.99118 0.0
C1518 C 0.93992 0.65867 1.0079 0.0
C1519 C 0.95452 0.67687 0.02906 0.0
C1520 C 0.99516 0.70171 0.03121 0.0
C1521 C 0.02088 0.70776 1.01244 0.0
H1522 H 0.33524 0.3073 0.06736 0.0
H1523 H 0.27126 0.23656 1.00987 0.0
H1524 H 0.34446 0.25504 0.08267 0.0
H1525 H 0.27959 0.18461 1.02529 0.0
H1526 H 0.2774 0.08929 0.0674 0.0
H1527 H 0.26121 0.14019 0.06197 0.0
H1528 H 0.38486 0.2243 0.06319 0.0
H1529 H 0.40132 0.17352 0.06838 0.0
C1530 C 0.32244 0.28034 0.05837 0.0
C1531 C 0.3028 0.27581 0.03744 0.0
C1532 C 0.32781 0.25066 0.06702 0.0
C1533 C 0.31262 0.21595 0.05513 0.0
C1534 C 0.29122 0.21097 0.03489 0.0
C1535 C 0.28668 0.2407 1.02601 0.0
C1536 C 0.30112 0.11864 0.06675 0.0
C1537 C 0.34066 0.12741 0.0679 0.0
C1538 C 0.29181 0.14769 0.06374 0.0
C1539 C 0.32182 0.186 0.06221 0.0
C1540 C 0.36121 0.19496 0.06457 0.0
C1541 C 0.3706 0.16589 0.06726 0.0
H1542 H 0.94213 0.3165 0.38687 0.0
H1543 H 0.04421 0.32806 0.34966 0.0
H1544 H 0.8991 0.26992 0.3589 0.0
H1545 H 1.00118 0.2816 0.32116 0.0
H1546 H 0.90625 0.15251 0.30752 0.0
H1547 H 0.9555 0.21157 0.32496 0.0
H1548 H 0.87788 0.25892 0.31822 0.0
H1549 H 0.82829 0.19966 0.30101 0.0
C1550 C 0.95522 0.30943 0.3724 0.0
C1551 C 0.99615 0.32539 0.37032 0.0
C1552 C 0.93071 0.28312 0.35625 0.0
C1553 C 0.9468 0.27211 0.33784 0.0
C1554 C 0.98803 0.28947 0.33525 0.0
C1555 C 0.01259 0.31612 0.35138 0.0
C1556 C 0.89996 0.17577 0.30933 0.0
C1557 C 0.86307 0.17115 0.30333 0.0
C1558 C 0.92832 0.20972 0.31918 0.0
C1559 C 0.92032 0.23966 0.32319 0.0
C1560 C 0.88456 0.23605 0.31564 0.0
C1561 C 0.85621 0.20212 0.30577 0.0
H1562 H 0.89341 0.7673 0.34722 0.0
H1563 H 0.84636 0.64488 0.34806 0.0
H1564 H 0.82697 0.7578 0.34886 0.0
H1565 H 0.77959 0.63551 0.35021 0.0
H1566 H 0.66529 0.63439 0.33035 0.0
H1567 H 0.73236 0.64451 0.32634 0.0
H1568 H 0.77234 0.73508 0.37635 0.0
H1569 H 0.70622 0.72579 0.37995 0.0
C1570 C 0.86895 0.73832 0.34801 0.0
C1571 C 0.87534 0.70685 0.3476 0.0
C1572 C 0.8308 0.73291 0.34897 0.0
C1573 C 0.79803 0.69591 0.34961 0.0
C1574 C 0.80428 0.66437 0.34941 0.0
C1575 C 0.84255 0.66977 0.34846 0.0
C1576 C 0.68856 0.65681 0.34021 0.0
C1577 C 0.68035 0.67926 0.35545 0.0
C1578 C 0.72683 0.66232 0.33811 0.0
C1579 C 0.75758 0.69048 0.35112 0.0
C1580 C 0.74945 0.71343 0.3659 0.0
C1581 C 0.71138 0.70794 0.36802 0.0
H1582 H 0.35486 0.13919 0.31202 0.0
H1583 H 0.43825 0.21196 0.36247 0.0
H1584 H 0.37135 0.08916 0.32066 0.0
H1585 H 0.45538 0.16227 0.3709 0.0
H1586 H 0.47684 0.06262 0.38148 0.0
H1587 H 0.47762 0.11211 0.35592 0.0
H1588 H 0.35085 0.0581 0.36274 0.0
H1589 H 0.35033 0.0098 0.38868 0.0
C1590 C 0.37813 0.14504 0.32412 0.0
C1591 C 0.39548 0.17907 0.33663 0.0
C1592 C 0.3875 0.11653 0.32905 0.0
C1593 C 0.41443 0.12193 0.34648 0.0
C1594 C 0.43488 0.15767 0.35718 0.0
C1595 C 0.42513 0.18604 0.35241 0.0
C1596 C 0.44918 0.06086 0.37682 0.0
C1597 C 0.4135 0.03272 0.38687 0.0
C1598 C 0.44965 0.08906 0.36233 0.0
C1599 C 0.41431 0.08861 0.3573 0.0
C1600 C 0.37843 0.05869 0.36605 0.0
C1601 C 0.37809 0.03123 0.38096 0.0
H1602 H 0.55613 0.50172 0.36054 0.0
H1603 H 0.4696 0.52972 0.33507 0.0
H1604 H 0.50837 0.43362 0.35671 0.0
H1605 H 0.42201 0.46277 0.33244 0.0
H1606 H 0.35874 0.345 0.30488 0.0
H1607 H 0.40916 0.41086 0.30904 0.0
H1608 H 0.44732 0.3817 0.37219 0.0
H1609 H 0.39788 0.3147 0.36724 0.0
C1610 C 0.527 0.49337 0.35422 0.0
C1611 C 0.51687 0.52109 0.34779 0.0
C1612 C 0.49955 0.45444 0.35221 0.0
C1613 C 0.46146 0.44271 0.344 0.0
C1614 C 0.45134 0.47064 0.33817 0.0
C1615 C 0.47872 0.50921 0.33982 0.0
C1616 C 0.37792 0.35237 0.31961 0.0
C1617 C 0.37429 0.32441 0.33566 0.0
C1618 C 0.40674 0.39037 0.32212 0.0
C1619 C 0.43217 0.40172 0.34107 0.0
C1620 C 0.42853 0.37386 0.35725 0.0
C1621 C 0.39995 0.33553 0.35452 0.0
H1622 H 0.67696 0.08295 0.31726 0.0
H1623 H 0.72582 0.02489 0.35626 0.0
H1624 H 0.63482 0.0774 0.35014 0.0
H1625 H 0.68292 0.01885 0.38949 0.0
H1626 H 0.5458 0.95979 0.4128 0.0
H1627 H 0.60772 0.97865 0.39208 0.0
H1628 H 0.63345 0.09588 0.3921 0.0
H1629 H 0.57147 0.07718 0.41282 0.0
C1630 C 0.67899 0.06941 0.33299 0.0
C1631 C 0.70408 0.0538 0.3341 0.0
C1632 C 0.65524 0.06666 0.35196 0.0
C1633 C 0.65567 0.04772 0.37236 0.0
C1634 C 0.68213 0.0336 0.37393 0.0
C1635 C 0.70659 0.03707 0.35498 0.0
C1636 C 0.56531 0.98982 0.40896 0.0
C1637 C 0.55294 0.0167 0.41391 0.0
C1638 C 0.60094 1.00064 0.39727 0.0
C1639 C 0.62463 0.03844 0.39025 0.0
C1640 C 0.61481 0.06619 0.39714 0.0
C1641 C 0.57932 0.05544 0.40898 0.0
H1642 H 0.01848 0.65995 0.40653 0.0
H1643 H 0.92503 0.57504 0.36544 0.0
H1644 H 0.03284 0.61074 0.42128 0.0
H1645 H 0.93892 0.5263 0.38003 0.0
H1646 H 0.96029 0.4406 0.41466 0.0
H1647 H 0.94102 0.48969 0.414 0.0
H1648 H 0.06185 0.57565 0.39943 0.0
H1649 H 0.0814 0.52665 0.40038 0.0
C1650 C 1.00021 0.63056 0.40134 0.0
C1651 C 0.97078 0.62105 0.38489 0.0
C1652 C 1.00859 0.60257 0.40957 0.0
C1653 C 0.98712 0.56478 0.4017 0.0
C1654 C 0.95571 0.55502 0.38662 0.0
C1655 C 0.94782 0.58292 0.37819 0.0
C1656 C 0.98285 0.47001 0.41152 0.0
C1657 C 0.02224 0.47967 0.40707 0.0
C1658 C 0.9718 0.4981 0.41126 0.0
C1659 C 0.99989 0.53642 0.40656 0.0
C1660 C 0.03964 0.5464 0.40335 0.0
C1661 C 0.05073 0.51827 0.40361 0.0
H1662 H 0.47979 0.52122 0.63286 0.0
H1663 H 0.55288 0.47031 0.64582 0.0
H1664 H 0.53087 0.58164 0.64812 0.0
H1665 H 0.60336 0.53026 0.66155 0.0
H1666 H 0.69695 0.64557 0.68152 0.0
H1667 H 0.65197 0.59664 0.65494 0.0
H1668 H 0.55382 0.60198 0.68695 0.0
H1669 H 0.5991 0.65155 0.71276 0.0
C1670 C 0.50687 0.523 0.63878 0.0
C1671 C 0.51208 0.49085 0.63845 0.0
C1672 C 0.53609 0.55759 0.64756 0.0
C1673 C 0.57104 0.5607 0.65622 0.0
C1674 C 0.57702 0.52904 0.65477 0.0
C1675 C 0.54789 0.49452 0.64592 0.0
C1676 C 0.66589 0.63702 0.6822 0.0
C1677 C 0.65117 0.6521 0.69891 0.0
C1678 C 0.64012 0.60882 0.66723 0.0
C1679 C 0.59926 0.59517 0.66895 0.0
C1680 C 0.5851 0.6121 0.68492 0.0
C1681 C 0.61088 0.64029 0.69981 0.0
H1682 H 0.5594 0.09839 0.68163 0.0
H1683 H 0.52343 0.97907 0.67313 0.0
H1684 H 0.49141 0.08295 0.6854 0.0
H1685 H 0.45449 0.96345 0.67767 0.0
H1686 H 0.37046 0.04212 0.71496 0.0
H1687 H 0.43708 0.05272 0.7123 0.0
H1688 H 0.40445 0.97218 0.65657 0.0
H1689 H 0.33667 0.96021 0.65982 0.0
C1690 C 0.53685 0.06862 0.68087 0.0
C1691 C 0.54661 0.03976 0.67709 0.0
C1692 C 0.49772 0.05977 0.68315 0.0
C1693 C 0.46718 0.02179 0.68192 0.0
C1694 C 0.47747 0.99305 0.67848 0.0
C1695 C 0.51691 1.00195 0.67613 0.0
C1696 C 0.37707 0.02642 0.70213 0.0
C1697 C 0.34851 1.00049 0.68757 0.0
C1698 C 0.41543 0.03266 0.70056 0.0
C1699 C 0.42569 0.0132 0.68418 0.0
C1700 C 0.39728 0.98726 0.66955 0.0
C1701 C 0.35861 0.98077 0.67123 0.0
H1702 H 0.01138 0.3419 0.72401 0.0
H1703 H 0.13829 0.39822 0.71933 0.0
H1704 H 0.01123 0.3872 0.69589 0.0
H1705 H 0.13849 0.44464 0.69129 0.0
H1706 H 0.09839 0.54284 0.69014 0.0
H1707 H 0.117 0.49501 0.70083 0.0
H1708 H 0.02948 0.41457 0.6547 0.0
H1709 H 0.01098 0.46245 0.64419 0.0
C1710 C 0.03913 0.36341 0.7163 0.0
C1711 C 0.07479 0.36679 0.72348 0.0
C1712 C 0.03914 0.38919 0.70015 0.0
C1713 C 0.07491 0.41926 0.69132 0.0
C1714 C 0.11061 0.42152 0.69774 0.0
C1715 C 0.11051 0.39508 0.71363 0.0
C1716 C 0.08469 0.51558 0.68147 0.0
C1717 C 0.05325 0.50588 0.66655 0.0
C1718 C 0.0953 0.48823 0.68751 0.0
C1719 C 0.07421 0.451 0.67879 0.0
C1720 C 0.04591 0.44299 0.66176 0.0
C1721 C 0.03537 0.47028 0.65576 0.0
H1722 H 0.16619 0.85012 0.64185 0.0
H1723 H 0.19768 0.8285 0.70951 0.0
H1724 H 0.11629 0.7832 0.63915 0.0
H1725 H 0.14643 0.76164 0.70733 0.0
H1726 H 0.07192 0.63613 0.68586 0.0
H1727 H 0.12521 0.70185 0.68908 0.0
H1728 H 0.05345 0.74161 0.65544 0.0
H1729 H 1.00104 0.67601 0.65139 0.0
C1730 C 0.16248 0.83094 0.65612 0.0
C1731 C 0.18572 0.84446 0.6759 0.0
C1732 C 0.13359 0.79265 0.6547 0.0
C1733 C 0.12678 0.7671 0.67321 0.0
C1734 C 0.15102 0.78042 0.69269 0.0
C1735 C 0.18039 0.81873 0.69396 0.0
C1736 C 0.06745 0.65899 0.67937 0.0
C1737 C 0.03237 0.65091 0.66828 0.0
C1738 C 0.09798 0.69668 0.68123 0.0
C1739 C 0.09388 0.72706 0.67226 0.0
C1740 C 0.05811 0.7189 0.66198 0.0
C1741 C 0.02785 0.68129 0.65986 0.0
H1742 H 0.17782 0.26763 0.74181 0.0
H1743 H 0.22937 0.38992 0.74895 0.0
H1744 H 0.23351 0.27751 0.7173 0.0
H1745 H 0.28517 0.39954 0.72435 0.0
H1746 H 0.38856 0.39596 0.68468 0.0
H1747 H 0.34358 0.38458 0.71777 0.0
H1748 H 0.24511 0.30803 0.67627 0.0
H1749 H 0.2893 0.31955 0.64341 0.0
C1750 C 0.20146 0.29657 0.73865 0.0
C1751 C 0.19875 0.32806 0.74683 0.0
C1752 C 0.23328 0.30216 0.72461 0.0
C1753 C 0.2631 0.33926 0.71869 0.0
C1754 C 0.26245 0.37066 0.7287 0.0
C1755 C 0.23042 0.36511 0.74267 0.0
C1756 C 0.3573 0.37664 0.68272 0.0
C1757 C 0.34241 0.35879 0.66143 0.0
C1758 C 0.33172 0.37016 0.70161 0.0
C1759 C 0.29111 0.34512 0.69956 0.0
C1760 C 0.27643 0.32698 0.67839 0.0
C1761 C 0.30173 0.33391 0.6595 0.0
H1762 H 0.75154 0.85569 0.73435 0.0
H1763 H 0.62507 0.78166 0.73516 0.0
H1764 H 0.74259 0.91121 0.73109 0.0
H1765 H 0.61625 0.83747 0.73142 0.0
H1766 H 0.61326 0.94911 0.73351 0.0
H1767 H 0.62624 0.89928 0.74874 0.0
H1768 H 0.7195 0.93164 0.69737 0.0
H1769 H 0.70676 0.98076 0.68243 0.0
C1770 C 0.7218 0.85125 0.73397 0.0
C1771 C 0.689 0.81424 0.73448 0.0
C1772 C 0.71672 0.88308 0.73218 0.0
C1773 C 0.67876 0.87862 0.73076 0.0
C1774 C 0.64585 0.84177 0.73265 0.0
C1775 C 0.65093 0.80981 0.73453 0.0
C1776 C 0.63707 0.94598 0.72593 0.0
C1777 C 0.65883 0.96849 0.70672 0.0
C1778 C 0.6443 0.91741 0.73449 0.0
C1779 C 0.67382 0.91159 0.7242 0.0
C1780 C 0.69689 0.93568 0.70587 0.0
C1781 C 0.68939 0.96368 0.69719 0.0
loop_
_geom_bond_atom_site_label_1
_geom_bond_atom_site_label_2
_geom_bond_distance
_geom_bond_site_symmetry_2
_ccdc_geom_bond_type
Co0 O2 2.143 . S
Co0 O8 2.074 . S
Co0 O11 2.093 . S
Co0 O24 2.097 . S
Co0 N41 2.151 . S
Co0 N49 2.214 1_554 S
Co1 O2 2.160 . S
Co1 O7 2.058 . S
Co1 O17 2.057 . S
Co1 O32 2.037 1_545 S
Co1 N36 2.145 1_545 S
Co1 N57 2.257 . S
O2 Co0 2.143 . S
O2 Co1 2.160 . S
C3 O4 1.278 . S
C3 O11 1.224 . S
O4 C3 1.278 . S
C5 O6 1.245 . S
C5 O17 1.232 . S
O6 C5 1.245 . S
O7 Co1 2.058 . S
O7 C33 1.269 . S
O8 Co0 2.074 . S
O8 C33 1.257 . S
H9 C34 0.930 . S
H10 C40 0.930 . S
O11 Co0 2.093 . S
O11 C3 1.224 . S
H12 C44 0.929 . S
H13 C46 0.930 . S
H14 C47 0.930 1_565 S
H15 C45 0.929 . S
H16 C48 0.928 . S
O17 Co1 2.057 . S
O17 C5 1.232 . S
H18 C37 0.929 . S
H19 C38 0.929 . S
H20 C50 0.931 1_565 S
H21 C42 0.929 . S
H22 C51 0.930 . S
H23 C43 0.931 . S
O24 Co0 2.097 . S
O24 C52 1.214 1_545 S
H25 C53 0.929 . S
H26 C54 0.929 . S
H27 C55 0.930 . S
H28 C56 0.943 . S
H29 C58 0.930 . S
H30 C35 0.930 . S
H31 C39 0.930 . S
O32 Co1 2.037 1_565 S
O32 C52 1.234 . S
C33 O7 1.269 . S
C33 O8 1.257 . S
C34 H9 0.930 . S
C34 C37 1.388 . S
C34 C39 1.418 . S
C35 H30 0.930 . S
C35 C38 1.404 . S
C35 C39 1.353 . S
N36 Co1 2.145 1_565 S
N36 C37 1.397 . S
N36 C38 1.334 . S
C37 H18 0.929 . S
C37 C34 1.388 . S
C37 N36 1.397 . S
C38 H19 0.929 . S
C38 C35 1.404 . S
C38 N36 1.334 . S
C39 H31 0.930 . S
C39 C34 1.418 . S
C39 C35 1.353 . S
C40 H10 0.930 . S
C40 N41 1.330 . S
C40 C42 1.446 . S
N41 Co0 2.151 . S
N41 C40 1.330 . S
N41 C45 1.418 . S
C42 H21 0.929 . S
C42 C40 1.446 . S
C42 C43 1.332 . S
C43 H23 0.931 . S
C43 C42 1.332 . S
C43 C44 1.267 . S
C44 H12 0.929 . S
C44 C43 1.267 . S
C44 C45 1.251 . S
C45 H15 0.929 . S
C45 N41 1.418 . S
C45 C44 1.251 . S
C46 H13 0.930 . S
C46 C48 1.406 . S
C46 C51 1.261 . S
C47 H14 0.930 1_545 S
C47 N49 1.325 . S
C47 C50 1.357 . S
C48 H16 0.928 . S
C48 C46 1.406 . S
C48 N49 1.261 . S
N49 Co0 2.214 1_556 S
N49 C47 1.325 . S
N49 C48 1.261 . S
C50 H20 0.931 1_545 S
C50 C47 1.357 . S
C50 C51 1.312 . S
C51 H22 0.930 . S
C51 C46 1.261 . S
C51 C50 1.312 . S
C52 O24 1.214 1_565 S
C52 O32 1.234 . S
C53 H25 0.929 . S
C53 C56 1.389 1_545 S
C53 C58 1.391 . S
C54 H26 0.929 . S
C54 C55 1.390 . S
C54 N57 1.391 1_565 S
C55 H27 0.930 . S
C55 C54 1.390 . S
C55 C56 1.396 . S
C56 H28 0.943 . S
C56 C53 1.389 1_565 S
C56 C55 1.396 . S
N57 Co1 2.257 . S
N57 C54 1.391 1_545 S
N57 C58 1.388 . S
C58 H29 0.930 . S
C58 C53 1.391 . S
C58 N57 1.388 . S
Co59 O61 2.143 1_556 S
Co59 O67 2.074 1_556 S
Co59 O70 2.093 . S
Co59 O83 2.097 . S
Co59 N100 2.151 . S
Co59 N108 2.214 . S
Co60 O61 2.160 . S
Co60 O66 2.058 . S
Co60 O76 2.057 . S
Co60 O91 2.037 . S
Co60 N95 2.145 . S
Co60 N116 2.257 . S
O61 Co59 2.143 1_554 S
O61 Co60 2.160 . S
C62 O63 1.300 . S
C62 O70 1.210 1_554 S
O63 C62 1.300 . S
C64 O65 1.245 . S
C64 O76 1.232 . S
O65 C64 1.245 . S
O66 Co60 2.058 . S
O66 C92 1.269 . S
O67 Co59 2.074 1_554 S
O67 C92 1.257 . S
H68 C93 0.930 . S
H69 C99 0.930 . S
O70 Co59 2.093 . S
O70 C62 1.210 1_556 S
H71 C103 0.929 . S
H72 C105 0.930 . S
H73 C106 0.930 . S
H74 C104 0.929 . S
H75 C107 0.928 . S
O76 Co60 2.057 . S
O76 C64 1.232 . S
H77 C96 0.929 . S
H78 C97 0.929 . S
H79 C109 0.931 . S
H80 C101 0.929 . S
H81 C110 0.930 . S
H82 C102 0.931 . S
O83 Co59 2.097 . S
O83 C111 1.214 1_556 S
H84 C112 0.929 . S
H85 C113 0.929 1_455 S
H86 C114 0.930 1_455 S
H87 C115 0.929 . S
H88 C117 0.930 . S
H89 C94 0.930 . S
H90 C98 0.930 . S
O91 Co60 2.037 . S
O91 C111 1.234 . S
C92 O66 1.269 . S
C92 O67 1.257 . S
C93 H68 0.930 . S
C93 C96 1.388 . S
C93 C98 1.418 . S
C94 H89 0.930 . S
C94 C97 1.404 1_455 S
C94 C98 1.353 . S
N95 Co60 2.145 . S
N95 C96 1.397 1_655 S
N95 C97 1.334 . S
C96 H77 0.929 . S
C96 C93 1.388 . S
C96 N95 1.397 1_455 S
C97 H78 0.929 . S
C97 C94 1.404 1_655 S
C97 N95 1.334 . S
C98 H90 0.930 . S
C98 C93 1.418 . S
C98 C94 1.353 . S
C99 H69 0.930 . S
C99 N100 1.330 1_554 S
C99 C101 1.446 . S
N100 Co59 2.151 . S
N100 C99 1.330 1_556 S
N100 C104 1.418 . S
C101 H80 0.929 . S
C101 C99 1.446 . S
C101 C102 1.332 1_554 S
C102 H82 0.931 . S
C102 C101 1.332 1_556 S
C102 C103 1.267 . S
C103 H71 0.929 . S
C103 C102 1.267 . S
C103 C104 1.251 . S
C104 H74 0.929 . S
C104 N100 1.418 . S
C104 C103 1.251 . S
C105 H72 0.930 . S
C105 C107 1.406 . S
C105 C110 1.261 . S
C106 H73 0.930 . S
C106 N108 1.325 . S
C106 C109 1.357 . S
C107 H75 0.928 . S
C107 C105 1.406 . S
C107 N108 1.261 . S
N108 Co59 2.214 . S
N108 C106 1.325 . S
N108 C107 1.261 . S
C109 H79 0.931 . S
C109 C106 1.357 . S
C109 C110 1.312 . S
C110 H81 0.930 . S
C110 C105 1.261 . S
C110 C109 1.312 . S
C111 O83 1.214 1_554 S
C111 O91 1.234 . S
C112 H84 0.929 . S
C112 C115 1.391 . S
C112 C117 1.391 . S
C113 H85 0.929 1_655 S
C113 C114 1.390 . S
C113 N116 1.391 . S
C114 H86 0.930 1_655 S
C114 C113 1.390 . S
C114 C115 1.392 . S
C115 H87 0.929 . S
C115 C112 1.391 . S
C115 C114 1.392 . S
N116 Co60 2.257 . S
N116 C113 1.391 . S
N116 C117 1.388 . S
C117 H88 0.930 . S
C117 C112 1.391 . S
C117 N116 1.388 . S
Co118 O120 2.143 . S
Co118 O126 2.074 . S
Co118 O129 2.093 . S
Co118 O142 2.097 . S
Co118 N159 2.151 . S
Co118 N167 2.215 . S
Co119 O120 2.160 . S
Co119 O125 2.058 . S
Co119 O135 2.057 . S
Co119 O150 2.037 . S
Co119 N154 2.145 . S
Co119 N175 2.257 . S
O120 Co118 2.143 . S
O120 Co119 2.160 . S
C121 O122 1.278 . S
C121 O129 1.224 . S
O122 C121 1.278 . S
C123 O124 1.245 . S
C123 O135 1.232 . S
O124 C123 1.245 . S
O125 Co119 2.058 . S
O125 C151 1.269 . S
O126 Co118 2.074 . S
O126 C151 1.257 . S
H127 C152 0.930 . S
H128 C158 0.930 . S
O129 Co118 2.093 . S
O129 C121 1.224 . S
H130 C162 0.929 . S
H131 C164 0.930 . S
H132 C165 0.930 1_554 S
H133 C163 0.929 . S
H134 C166 0.928 . S
O135 Co119 2.057 . S
O135 C123 1.232 . S
H136 C155 0.929 . S
H137 C156 0.929 . S
H138 C168 0.931 . S
H139 C160 0.929 . S
H140 C169 0.930 . S
H141 C161 0.931 . S
O142 Co118 2.097 . S
O142 C170 1.214 . S
H143 C171 0.929 . S
H144 C172 0.929 . S
H145 C173 0.930 . S
H146 C174 0.929 . S
H147 C176 0.930 . S
H148 C153 0.930 . S
H149 C157 0.930 . S
O150 Co119 2.037 . S
O150 C170 1.234 . S
C151 O125 1.269 . S
C151 O126 1.257 . S
C152 H127 0.930 . S
C152 C155 1.388 . S
C152 C157 1.418 . S
C153 H148 0.930 . S
C153 C156 1.404 . S
C153 C157 1.353 . S
N154 Co119 2.145 . S
N154 C155 1.397 . S
N154 C156 1.334 . S
C155 H136 0.929 . S
C155 C152 1.388 . S
C155 N154 1.397 . S
C156 H137 0.929 . S
C156 C153 1.404 . S
C156 N154 1.334 . S
C157 H149 0.930 . S
C157 C152 1.418 . S
C157 C153 1.353 . S
C158 H128 0.930 . S
C158 N159 1.330 . S
C158 C160 1.446 . S
N159 Co118 2.151 . S
N159 C158 1.330 . S
N159 C163 1.418 . S
C160 H139 0.929 . S
C160 C158 1.446 . S
C160 C161 1.332 . S
C161 H141 0.931 . S
C161 C160 1.332 . S
C161 C162 1.267 . S
C162 H130 0.929 . S
C162 C161 1.267 . S
C162 C163 1.251 . S
C163 H133 0.929 . S
C163 N159 1.418 . S
C163 C162 1.251 . S
C164 H131 0.930 . S
C164 C166 1.406 . S
C164 C169 1.261 . S
C165 H132 0.930 1_556 S
C165 N167 1.325 1_556 S
C165 C168 1.357 . S
C166 H134 0.928 . S
C166 C164 1.406 . S
C166 N167 1.261 1_556 S
N167 Co118 2.215 . S
N167 C165 1.325 1_554 S
N167 C166 1.261 1_554 S
C168 H138 0.931 . S
C168 C165 1.357 . S
C168 C169 1.312 . S
C169 H140 0.930 . S
C169 C164 1.261 . S
C169 C168 1.312 . S
C170 O142 1.214 . S
C170 O150 1.234 . S
C171 H143 0.929 . S
C171 C174 1.391 . S
C171 C176 1.391 . S
C172 H144 0.929 . S
C172 C173 1.390 . S
C172 N175 1.391 . S
C173 H145 0.930 . S
C173 C172 1.390 . S
C173 C174 1.392 . S
C174 H146 0.929 . S
C174 C171 1.391 . S
C174 C173 1.392 . S
N175 Co119 2.257 . S
N175 C172 1.391 . S
N175 C176 1.388 . S
C176 H147 0.930 . S
C176 C171 1.391 . S
C176 N175 1.388 . S
Co177 O179 2.143 . S
Co177 O185 2.074 . S
Co177 O188 2.093 . S
Co177 O201 2.097 . S
Co177 N218 2.151 . S
Co177 N226 2.214 1_556 S
Co178 O179 2.160 . S
Co178 O184 2.058 . S
Co178 O194 2.057 . S
Co178 O209 2.037 . S
Co178 N213 2.145 . S
Co178 N234 2.257 . S
O179 Co177 2.143 . S
O179 Co178 2.160 . S
C180 O181 1.278 . S
C180 O188 1.224 . S
O181 C180 1.278 . S
C182 O183 1.245 . S
C182 O194 1.232 . S
O183 C182 1.245 . S
O184 Co178 2.058 . S
O184 C210 1.269 . S
O185 Co177 2.074 . S
O185 C210 1.257 . S
H186 C211 0.930 . S
H187 C217 0.930 . S
O188 Co177 2.093 . S
O188 C180 1.224 . S
H189 C221 0.929 1_554 S
H190 C223 0.930 . S
H191 C224 0.930 . S
H192 C222 0.938 . S
H193 C225 0.928 . S
O194 Co178 2.057 . S
O194 C182 1.232 . S
H195 C214 0.929 . S
H196 C215 0.929 . S
H197 C227 0.931 . S
H198 C219 0.929 . S
H199 C228 0.930 . S
H200 C220 0.931 . S
O201 Co177 2.097 . S
O201 C229 1.214 . S
H202 C230 0.929 . S
H203 C231 0.929 . S
H204 C232 0.930 . S
H205 C233 0.929 . S
H206 C235 0.930 . S
H207 C212 0.930 1_565 S
H208 C216 0.930 . S
O209 Co178 2.037 . S
O209 C229 1.234 . S
C210 O184 1.269 . S
C210 O185 1.257 . S
C211 H186 0.930 . S
C211 C214 1.388 . S
C211 C216 1.418 . S
C212 H207 0.930 1_545 S
C212 C215 1.404 1_545 S
C212 C216 1.353 . S
N213 Co178 2.145 . S
N213 C214 1.397 1_565 S
N213 C215 1.334 . S
C214 H195 0.929 . S
C214 C211 1.388 . S
C214 N213 1.397 1_545 S
C215 H196 0.929 . S
C215 C212 1.404 1_565 S
C215 N213 1.334 . S
C216 H208 0.930 . S
C216 C211 1.418 . S
C216 C212 1.353 . S
C217 H187 0.930 . S
C217 N218 1.330 . S
C217 C219 1.446 . S
N218 Co177 2.151 . S
N218 C217 1.330 . S
N218 C222 1.418 . S
C219 H198 0.929 . S
C219 C217 1.446 . S
C219 C220 1.332 . S
C220 H200 0.931 . S
C220 C219 1.332 . S
C220 C221 1.267 . S
C221 H189 0.929 1_556 S
C221 C220 1.267 . S
C221 C222 1.251 . S
C222 H192 0.938 . S
C222 N218 1.418 . S
C222 C221 1.251 . S
C223 H190 0.930 . S
C223 C225 1.406 . S
C223 C228 1.261 . S
C224 H191 0.930 . S
C224 N226 1.325 . S
C224 C227 1.357 . S
C225 H193 0.928 . S
C225 C223 1.406 . S
C225 N226 1.261 . S
N226 Co177 2.214 1_554 S
N226 C224 1.325 . S
N226 C225 1.261 . S
C227 H197 0.931 . S
C227 C224 1.357 . S
C227 C228 1.312 . S
C228 H199 0.930 . S
C228 C223 1.261 . S
C228 C227 1.312 . S
C229 O201 1.214 . S
C229 O209 1.234 . S
C230 H202 0.929 . S
C230 C233 1.391 . S
C230 C235 1.391 . S
C231 H203 0.929 . S
C231 C232 1.390 . S
C231 N234 1.391 . S
C232 H204 0.930 . S
C232 C231 1.390 . S
C232 C233 1.392 . S
C233 H205 0.929 . S
C233 C230 1.391 . S
C233 C232 1.392 . S
N234 Co178 2.257 . S
N234 C231 1.391 . S
N234 C235 1.388 . S
C235 H206 0.930 . S
C235 C230 1.391 . S
C235 N234 1.388 . S
Co236 O238 2.143 . S
Co236 O244 2.074 . S
Co236 O247 2.093 . S
Co236 O260 2.097 . S
Co236 N277 2.151 . S
Co236 N285 2.214 1_556 S
Co237 O238 2.160 . S
Co237 O243 2.058 . S
Co237 O253 2.057 . S
Co237 O268 2.037 . S
Co237 N272 2.145 1_455 S
Co237 N293 2.257 . S
O238 Co236 2.143 . S
O238 Co237 2.160 . S
C239 O240 1.278 . S
C239 O247 1.224 . S
O240 C239 1.278 . S
C241 O242 1.245 . S
C241 O253 1.232 . S
O242 C241 1.245 . S
O243 Co237 2.058 . S
O243 C269 1.269 . S
O244 Co236 2.074 . S
O244 C269 1.257 . S
H245 C270 0.930 . S
H246 C276 0.930 . S
O247 Co236 2.093 . S
O247 C239 1.224 . S
H248 C280 0.929 . S
H249 C282 0.930 . S
H250 C283 0.930 . S
H251 C281 0.929 . S
H252 C284 0.928 . S
O253 Co237 2.057 . S
O253 C241 1.232 . S
H254 C273 0.929 . S
H255 C274 0.929 1_455 S
H256 C286 0.931 . S
H257 C278 0.929 . S
H258 C287 0.930 . S
H259 C279 0.931 . S
O260 Co236 2.097 . S
O260 C288 1.214 . S
H261 C289 0.929 . S
H262 C290 0.929 1_655 S
H263 C291 0.930 1_655 S
H264 C292 0.929 . S
H265 C294 0.930 . S
H266 C271 0.930 . S
H267 C275 0.930 . S
O268 Co237 2.037 . S
O268 C288 1.234 . S
C269 O243 1.269 . S
C269 O244 1.257 . S
C270 H245 0.930 . S
C270 C273 1.388 . S
C270 C275 1.418 . S
C271 H266 0.930 . S
C271 C274 1.404 . S
C271 C275 1.353 . S
N272 Co237 2.145 1_655 S
N272 C273 1.397 . S
N272 C274 1.334 . S
C273 H254 0.929 . S
C273 C270 1.388 . S
C273 N272 1.397 . S
C274 H255 0.929 1_655 S
C274 C271 1.404 . S
C274 N272 1.334 . S
C275 H267 0.930 . S
C275 C270 1.418 . S
C275 C271 1.353 . S
C276 H246 0.930 . S
C276 N277 1.330 . S
C276 C278 1.446 . S
N277 Co236 2.151 . S
N277 C276 1.330 . S
N277 C281 1.418 . S
C278 H257 0.929 . S
C278 C276 1.446 . S
C278 C279 1.332 . S
C279 H259 0.931 . S
C279 C278 1.332 . S
C279 C280 1.267 . S
C280 H248 0.929 . S
C280 C279 1.267 . S
C280 C281 1.251 . S
C281 H251 0.929 . S
C281 N277 1.418 . S
C281 C280 1.251 . S
C282 H249 0.930 . S
C282 C284 1.406 . S
C282 C287 1.261 . S
C283 H250 0.930 . S
C283 N285 1.325 . S
C283 C286 1.357 . S
C284 H252 0.928 . S
C284 C282 1.406 . S
C284 N285 1.261 . S
N285 Co236 2.214 1_554 S
N285 C283 1.325 . S
N285 C284 1.261 . S
C286 H256 0.931 . S
C286 C283 1.357 . S
C286 C287 1.312 . S
C287 H258 0.930 . S
C287 C282 1.261 . S
C287 C286 1.312 . S
C288 O260 1.214 . S
C288 O268 1.234 . S
C289 H261 0.929 . S
C289 C292 1.391 . S
C289 C294 1.391 . S
C290 H262 0.929 1_455 S
C290 C291 1.390 . S
C290 N293 1.391 . S
C291 H263 0.930 1_455 S
C291 C290 1.390 . S
C291 C292 1.392 . S
C292 H264 0.929 . S
C292 C289 1.391 . S
C292 C291 1.392 . S
N293 Co237 2.257 . S
N293 C290 1.391 . S
N293 C294 1.388 . S
C294 H265 0.930 . S
C294 C289 1.391 . S
C294 N293 1.388 . S
Co295 O297 2.143 . S
Co295 O303 2.074 . S
Co295 O306 2.093 . S
Co295 O319 2.097 . S
Co295 N336 2.107 1_556 S
Co295 N344 2.214 . S
Co296 O297 2.160 . S
Co296 O302 2.058 . S
Co296 O312 2.057 . S
Co296 O327 2.037 . S
Co296 N331 2.145 . S
Co296 N352 2.257 . S
O297 Co295 2.143 . S
O297 Co296 2.160 . S
C298 O299 1.278 . S
C298 O306 1.224 . S
O299 C298 1.278 . S
C300 O301 1.245 . S
C300 O312 1.232 . S
O301 C300 1.245 . S
O302 Co296 2.058 . S
O302 C328 1.269 . S
O303 Co295 2.074 . S
O303 C328 1.257 . S
H304 C329 0.930 . S
H305 C335 0.930 . S
O306 Co295 2.093 . S
O306 C298 1.224 . S
H307 C339 0.929 . S
H308 C341 0.930 . S
H309 C342 0.930 . S
H310 C340 0.929 . S
H311 C343 0.928 . S
O312 Co296 2.057 . S
O312 C300 1.232 . S
H313 C332 0.929 . S
H314 C333 0.929 . S
H315 C345 0.931 . S
H316 C337 0.929 . S
H317 C346 0.930 . S
H318 C338 0.931 . S
O319 Co295 2.097 . S
O319 C347 1.214 . S
H320 C348 0.929 . S
H321 C349 0.929 . S
H322 C350 0.930 . S
H323 C351 0.929 . S
H324 C353 0.930 . S
H325 C330 0.930 . S
H326 C334 0.930 . S
O327 Co296 2.037 . S
O327 C347 1.234 . S
C328 O302 1.269 . S
C328 O303 1.257 . S
C329 H304 0.930 . S
C329 C332 1.388 . S
C329 C334 1.418 . S
C330 H325 0.930 . S
C330 C333 1.404 . S
C330 C334 1.353 . S
N331 Co296 2.145 . S
N331 C332 1.397 . S
N331 C333 1.334 . S
C332 H313 0.929 . S
C332 C329 1.388 . S
C332 N331 1.397 . S
C333 H314 0.929 . S
C333 C330 1.404 . S
C333 N331 1.334 . S
C334 H326 0.930 . S
C334 C329 1.418 . S
C334 C330 1.353 . S
C335 H305 0.930 . S
C335 N336 1.353 . S
C335 C337 1.446 . S
N336 Co295 2.107 1_554 S
N336 C335 1.353 . S
N336 C340 1.441 . S
C337 H316 0.929 . S
C337 C335 1.446 . S
C337 C338 1.332 . S
C338 H318 0.931 . S
C338 C337 1.332 . S
C338 C339 1.267 . S
C339 H307 0.929 . S
C339 C338 1.267 . S
C339 C340 1.251 . S
C340 H310 0.929 . S
C340 N336 1.441 . S
C340 C339 1.251 . S
C341 H308 0.930 . S
C341 C343 1.406 . S
C341 C346 1.261 . S
C342 H309 0.930 . S
C342 N344 1.325 . S
C342 C345 1.357 . S
C343 H311 0.928 . S
C343 C341 1.406 . S
C343 N344 1.261 . S
N344 Co295 2.214 . S
N344 C342 1.325 . S
N344 C343 1.261 . S
C345 H315 0.931 . S
C345 C342 1.357 . S
C345 C346 1.312 . S
C346 H317 0.930 . S
C346 C341 1.261 . S
C346 C345 1.312 . S
C347 O319 1.214 . S
C347 O327 1.234 . S
C348 H320 0.929 . S
C348 C351 1.391 . S
C348 C353 1.391 . S
C349 H321 0.929 . S
C349 C350 1.390 . S
C349 N352 1.391 . S
C350 H322 0.930 . S
C350 C349 1.390 . S
C350 C351 1.392 . S
C351 H323 0.929 . S
C351 C348 1.391 . S
C351 C350 1.392 . S
N352 Co296 2.257 . S
N352 C349 1.391 . S
N352 C353 1.388 . S
C353 H324 0.930 . S
C353 C348 1.391 . S
C353 N352 1.388 . S
Co354 O356 2.143 . S
Co354 O362 2.074 . S
Co354 O365 2.093 1_455 S
Co354 O378 2.097 1_455 S
Co354 N395 2.151 . S
Co354 N403 2.214 . S
Co355 O356 2.160 1_655 S
Co355 O361 2.058 1_655 S
Co355 O371 2.057 1_655 S
Co355 O386 2.037 . S
Co355 N390 2.145 . S
Co355 N411 2.257 . S
O356 Co354 2.143 . S
O356 Co355 2.160 1_455 S
C357 O358 1.278 . S
C357 O365 1.224 . S
O358 C357 1.278 . S
C359 O360 1.245 . S
C359 O371 1.232 . S
O360 C359 1.245 . S
O361 Co355 2.058 1_455 S
O361 C387 1.269 . S
O362 Co354 2.074 . S
O362 C387 1.257 . S
H363 C388 0.930 . S
H364 C394 0.930 . S
O365 Co354 2.093 1_655 S
O365 C357 1.224 . S
H366 C398 0.929 . S
H367 C400 0.930 . S
H368 C401 0.930 . S
H369 C399 0.929 . S
H370 C402 0.928 . S
O371 Co355 2.057 1_455 S
O371 C359 1.232 . S
H372 C391 0.929 . S
H373 C392 0.929 . S
H374 C404 0.931 . S
H375 C396 0.929 . S
H376 C405 0.930 . S
H377 C397 0.931 . S
O378 Co354 2.097 1_655 S
O378 C406 1.214 . S
H379 C407 0.929 . S
H380 C408 0.929 . S
H381 C409 0.930 . S
H382 C410 0.929 . S
H383 C412 0.930 . S
H384 C389 0.930 . S
H385 C393 0.930 . S
O386 Co355 2.037 . S
O386 C406 1.234 . S
C387 O361 1.269 . S
C387 O362 1.257 . S
C388 H363 0.930 . S
C388 C391 1.388 . S
C388 C393 1.418 . S
C389 H384 0.930 . S
C389 C392 1.404 . S
C389 C393 1.353 . S
N390 Co355 2.145 . S
N390 C391 1.397 . S
N390 C392 1.334 . S
C391 H372 0.929 . S
C391 C388 1.388 . S
C391 N390 1.397 . S
C392 H373 0.929 . S
C392 C389 1.404 . S
C392 N390 1.334 . S
C393 H385 0.930 . S
C393 C388 1.418 . S
C393 C389 1.353 . S
C394 H364 0.930 . S
C394 N395 1.330 . S
C394 C396 1.446 . S
N395 Co354 2.151 . S
N395 C394 1.330 . S
N395 C399 1.418 . S
C396 H375 0.929 . S
C396 C394 1.446 . S
C396 C397 1.332 . S
C397 H377 0.931 . S
C397 C396 1.332 . S
C397 C398 1.267 . S
C398 H366 0.929 . S
C398 C397 1.267 . S
C398 C399 1.251 . S
C399 H369 0.929 . S
C399 N395 1.418 . S
C399 C398 1.251 . S
C400 H367 0.930 . S
C400 C402 1.406 . S
C400 C405 1.261 . S
C401 H368 0.930 . S
C401 N403 1.325 . S
C401 C404 1.357 . S
C402 H370 0.928 . S
C402 C400 1.406 . S
C402 N403 1.261 . S
N403 Co354 2.214 . S
N403 C401 1.325 . S
N403 C402 1.261 . S
C404 H374 0.931 . S
C404 C401 1.357 . S
C404 C405 1.312 . S
C405 H376 0.930 . S
C405 C400 1.261 . S
C405 C404 1.312 . S
C406 O378 1.214 . S
C406 O386 1.234 . S
C407 H379 0.929 . S
C407 C410 1.391 . S
C407 C412 1.391 . S
C408 H380 0.929 . S
C408 C409 1.390 . S
C408 N411 1.391 . S
C409 H381 0.930 . S
C409 C408 1.390 . S
C409 C410 1.392 . S
C410 H382 0.929 . S
C410 C407 1.391 . S
C410 C409 1.392 . S
N411 Co355 2.257 . S
N411 C408 1.391 . S
N411 C412 1.388 . S
C412 H383 0.930 . S
C412 C407 1.391 . S
C412 N411 1.388 . S
Co413 O415 2.143 . S
Co413 O421 2.074 . S
Co413 O424 2.093 . S
Co413 O437 2.097 . S
Co413 N454 2.151 . S
Co413 N462 2.214 . S
Co414 O415 2.160 . S
Co414 O420 2.058 . S
Co414 O430 2.057 . S
Co414 O445 2.037 . S
Co414 N449 2.145 . S
Co414 N470 2.257 . S
O415 Co413 2.143 . S
O415 Co414 2.160 . S
C416 O417 1.278 . S
C416 O424 1.224 . S
O417 C416 1.278 . S
C418 O419 1.245 . S
C418 O430 1.232 . S
O419 C418 1.245 . S
O420 Co414 2.058 . S
O420 C446 1.269 . S
O421 Co413 2.074 . S
O421 C446 1.257 . S
H422 C447 0.930 . S
H423 C453 0.930 . S
O424 Co413 2.093 . S
O424 C416 1.224 . S
H425 C457 0.929 . S
H426 C459 0.930 . S
H427 C460 0.930 . S
H428 C458 0.929 . S
H429 C461 0.928 . S
O430 Co414 2.057 . S
O430 C418 1.232 . S
H431 C450 0.929 . S
H432 C451 0.929 . S
H433 C463 0.931 . S
H434 C455 0.929 . S
H435 C464 0.930 . S
H436 C456 0.931 . S
O437 Co413 2.097 . S
O437 C465 1.214 . S
H438 C466 0.929 . S
H439 C467 0.929 . S
H440 C468 0.930 . S
H441 C469 0.929 . S
H442 C471 0.930 . S
H443 C448 0.930 . S
H444 C452 0.930 . S
O445 Co414 2.037 . S
O445 C465 1.234 . S
C446 O420 1.269 . S
C446 O421 1.257 . S
C447 H422 0.930 . S
C447 C450 1.388 . S
C447 C452 1.418 . S
C448 H443 0.930 . S
C448 C451 1.404 . S
C448 C452 1.353 . S
N449 Co414 2.145 . S
N449 C450 1.397 . S
N449 C451 1.334 . S
C450 H431 0.929 . S
C450 C447 1.388 . S
C450 N449 1.397 . S
C451 H432 0.929 . S
C451 C448 1.404 . S
C451 N449 1.334 . S
C452 H444 0.930 . S
C452 C447 1.418 . S
C452 C448 1.353 . S
C453 H423 0.930 . S
C453 N454 1.330 . S
C453 C455 1.446 . S
N454 Co413 2.151 . S
N454 C453 1.330 . S
N454 C458 1.418 . S
C455 H434 0.929 . S
C455 C453 1.446 . S
C455 C456 1.332 . S
C456 H436 0.931 . S
C456 C455 1.332 . S
C456 C457 1.267 . S
C457 H425 0.929 . S
C457 C456 1.267 . S
C457 C458 1.251 . S
C458 H428 0.929 . S
C458 N454 1.418 . S
C458 C457 1.251 . S
C459 H426 0.930 . S
C459 C461 1.406 . S
C459 C464 1.261 . S
C460 H427 0.930 . S
C460 N462 1.325 . S
C460 C463 1.357 . S
C461 H429 0.928 . S
C461 C459 1.406 . S
C461 N462 1.261 . S
N462 Co413 2.214 . S
N462 C460 1.325 . S
N462 C461 1.261 . S
C463 H433 0.931 . S
C463 C460 1.357 . S
C463 C464 1.312 . S
C464 H435 0.930 . S
C464 C459 1.261 . S
C464 C463 1.312 . S
C465 O437 1.214 . S
C465 O445 1.234 . S
C466 H438 0.929 . S
C466 C469 1.391 . S
C466 C471 1.391 . S
C467 H439 0.929 . S
C467 C468 1.390 . S
C467 N470 1.391 . S
C468 H440 0.930 . S
C468 C467 1.390 . S
C468 C469 1.392 . S
C469 H441 0.929 . S
C469 C466 1.391 . S
C469 C468 1.392 . S
N470 Co414 2.257 . S
N470 C467 1.391 . S
N470 C471 1.388 . S
C471 H442 0.930 . S
C471 C466 1.391 . S
C471 N470 1.388 . S
Co472 O474 2.143 . S
Co472 O480 2.074 . S
Co472 O483 2.093 1_565 S
Co472 O496 2.097 1_565 S
Co472 N513 2.151 . S
Co472 N521 2.214 . S
Co473 O474 2.160 1_545 S
Co473 O479 2.058 1_545 S
Co473 O489 2.057 1_545 S
Co473 O504 2.037 . S
Co473 N508 2.145 . S
Co473 N529 2.257 . S
O474 Co472 2.143 . S
O474 Co473 2.160 1_565 S
C475 O476 1.278 . S
C475 O483 1.224 . S
O476 C475 1.278 . S
C477 O478 1.245 . S
C477 O489 1.232 . S
O478 C477 1.245 . S
O479 Co473 2.058 1_565 S
O479 C505 1.269 . S
O480 Co472 2.074 . S
O480 C505 1.257 . S
H481 C506 0.930 . S
H482 C512 0.930 . S
O483 Co472 2.093 1_545 S
O483 C475 1.224 . S
H484 C516 0.929 . S
H485 C518 0.930 . S
H486 C519 0.930 . S
H487 C517 0.929 . S
H488 C520 0.928 . S
O489 Co473 2.057 1_565 S
O489 C477 1.232 . S
H490 C509 0.929 . S
H491 C510 0.929 . S
H492 C522 0.931 . S
H493 C514 0.929 . S
H494 C523 0.930 . S
H495 C515 0.931 . S
O496 Co472 2.097 1_545 S
O496 C524 1.214 . S
H497 C525 0.929 . S
H498 C526 0.929 . S
H499 C527 0.930 . S
H500 C528 0.929 . S
H501 C530 0.930 . S
H502 C507 0.930 . S
H503 C511 0.930 . S
O504 Co473 2.037 . S
O504 C524 1.234 . S
C505 O479 1.269 . S
C505 O480 1.257 . S
C506 H481 0.930 . S
C506 C509 1.388 . S
C506 C511 1.418 . S
C507 H502 0.930 . S
C507 C510 1.404 . S
C507 C511 1.353 . S
N508 Co473 2.145 . S
N508 C509 1.397 . S
N508 C510 1.334 . S
C509 H490 0.929 . S
C509 C506 1.388 . S
C509 N508 1.397 . S
C510 H491 0.929 . S
C510 C507 1.404 . S
C510 N508 1.334 . S
C511 H503 0.930 . S
C511 C506 1.418 . S
C511 C507 1.353 . S
C512 H482 0.930 . S
C512 N513 1.330 . S
C512 C514 1.446 . S
N513 Co472 2.151 . S
N513 C512 1.330 . S
N513 C517 1.418 . S
C514 H493 0.929 . S
C514 C512 1.446 . S
C514 C515 1.332 . S
C515 H495 0.931 . S
C515 C514 1.332 . S
C515 C516 1.267 . S
C516 H484 0.929 . S
C516 C515 1.267 . S
C516 C517 1.251 . S
C517 H487 0.929 . S
C517 N513 1.418 . S
C517 C516 1.251 . S
C518 H485 0.930 . S
C518 C520 1.406 . S
C518 C523 1.261 . S
C519 H486 0.930 . S
C519 N521 1.325 . S
C519 C522 1.357 . S
C520 H488 0.928 . S
C520 C518 1.406 . S
C520 N521 1.261 . S
N521 Co472 2.214 . S
N521 C519 1.325 . S
N521 C520 1.261 . S
C522 H492 0.931 . S
C522 C519 1.357 . S
C522 C523 1.312 . S
C523 H494 0.930 . S
C523 C518 1.261 . S
C523 C522 1.312 . S
C524 O496 1.214 . S
C524 O504 1.234 . S
C525 H497 0.929 . S
C525 C528 1.391 . S
C525 C530 1.391 . S
C526 H498 0.929 . S
C526 C527 1.390 . S
C526 N529 1.391 . S
C527 H499 0.930 . S
C527 C526 1.390 . S
C527 C528 1.392 . S
C528 H500 0.929 . S
C528 C525 1.391 . S
C528 C527 1.392 . S
N529 Co473 2.257 . S
N529 C526 1.391 . S
N529 C530 1.388 . S
C530 H501 0.930 . S
C530 C525 1.391 . S
C530 N529 1.388 . S
Co531 O533 2.143 . S
Co531 O539 2.074 . S
Co531 O542 2.093 . S
Co531 O555 2.097 . S
Co531 N572 2.151 . S
Co531 N580 2.214 . S
Co532 O533 2.160 . S
Co532 O538 2.058 . S
Co532 O548 2.057 . S
Co532 O563 2.037 . S
Co532 N567 2.145 . S
Co532 N588 2.257 . S
O533 Co531 2.143 . S
O533 Co532 2.160 . S
C534 O535 1.278 . S
C534 O542 1.224 . S
O535 C534 1.278 . S
C536 O537 1.245 . S
C536 O548 1.232 . S
O537 C536 1.245 . S
O538 Co532 2.058 . S
O538 C564 1.269 . S
O539 Co531 2.074 . S
O539 C564 1.257 . S
H540 C565 0.930 . S
H541 C571 0.930 . S
O542 Co531 2.093 . S
O542 C534 1.224 . S
H543 C575 0.929 . S
H544 C577 0.930 . S
H545 C578 0.930 . S
H546 C576 0.929 . S
H547 C579 0.928 . S
O548 Co532 2.057 . S
O548 C536 1.232 . S
H549 C568 0.929 . S
H550 C569 0.929 . S
H551 C581 0.931 . S
H552 C573 0.929 . S
H553 C582 0.930 . S
H554 C574 0.931 . S
O555 Co531 2.097 . S
O555 C583 1.214 . S
H556 C584 0.929 . S
H557 C585 0.929 . S
H558 C586 0.930 . S
H559 C587 0.929 . S
H560 C589 0.930 . S
H561 C566 0.930 . S
H562 C570 0.930 . S
O563 Co532 2.037 . S
O563 C583 1.234 . S
C564 O538 1.269 . S
C564 O539 1.257 . S
C565 H540 0.930 . S
C565 C568 1.388 . S
C565 C570 1.418 . S
C566 H561 0.930 . S
C566 C569 1.404 . S
C566 C570 1.353 . S
N567 Co532 2.145 . S
N567 C568 1.397 . S
N567 C569 1.334 . S
C568 H549 0.929 . S
C568 C565 1.388 . S
C568 N567 1.397 . S
C569 H550 0.929 . S
C569 C566 1.404 . S
C569 N567 1.334 . S
C570 H562 0.930 . S
C570 C565 1.418 . S
C570 C566 1.353 . S
C571 H541 0.930 . S
C571 N572 1.330 . S
C571 C573 1.446 . S
N572 Co531 2.151 . S
N572 C571 1.330 . S
N572 C576 1.418 . S
C573 H552 0.929 . S
C573 C571 1.446 . S
C573 C574 1.332 . S
C574 H554 0.931 . S
C574 C573 1.332 . S
C574 C575 1.267 . S
C575 H543 0.929 . S
C575 C574 1.267 . S
C575 C576 1.251 . S
C576 H546 0.929 . S
C576 N572 1.418 . S
C576 C575 1.251 . S
C577 H544 0.930 . S
C577 C579 1.406 . S
C577 C582 1.261 . S
C578 H545 0.930 . S
C578 N580 1.325 . S
C578 C581 1.357 . S
C579 H547 0.928 . S
C579 C577 1.406 . S
C579 N580 1.261 . S
N580 Co531 2.214 . S
N580 C578 1.325 . S
N580 C579 1.261 . S
C581 H551 0.931 . S
C581 C578 1.357 . S
C581 C582 1.312 . S
C582 H553 0.930 . S
C582 C577 1.261 . S
C582 C581 1.312 . S
C583 O555 1.214 . S
C583 O563 1.234 . S
C584 H556 0.929 . S
C584 C587 1.391 . S
C584 C589 1.391 . S
C585 H557 0.929 . S
C585 C586 1.390 . S
C585 N588 1.391 . S
C586 H558 0.930 . S
C586 C585 1.390 . S
C586 C587 1.392 . S
C587 H559 0.929 . S
C587 C584 1.391 . S
C587 C586 1.392 . S
N588 Co532 2.257 . S
N588 C585 1.391 . S
N588 C589 1.388 . S
C589 H560 0.930 . S
C589 C584 1.391 . S
C589 N588 1.388 . S
Co590 O592 2.143 . S
Co590 O598 2.074 1_545 S
Co590 O601 2.093 . S
Co590 O614 2.097 . S
Co590 N631 2.151 . S
Co590 N639 2.214 . S
Co591 O592 2.160 . S
Co591 O597 2.058 1_545 S
Co591 O607 2.057 . S
Co591 O622 2.037 . S
Co591 N626 2.145 . S
Co591 N647 2.257 . S
O592 Co590 2.143 . S
O592 Co591 2.160 . S
C593 O594 1.278 . S
C593 O601 1.224 . S
O594 C593 1.278 . S
C595 O596 1.245 . S
C595 O607 1.232 . S
O596 C595 1.245 . S
O597 Co591 2.058 1_565 S
O597 C623 1.269 . S
O598 Co590 2.074 1_565 S
O598 C623 1.257 . S
H599 C624 0.930 . S
H600 C630 0.930 . S
O601 Co590 2.093 . S
O601 C593 1.224 . S
H602 C634 0.929 1_565 S
H603 C636 0.930 . S
H604 C637 0.930 . S
H605 C635 0.929 1_565 S
H606 C638 0.928 . S
O607 Co591 2.057 . S
O607 C595 1.232 . S
H608 C627 0.929 . S
H609 C628 0.929 . S
H610 C640 0.931 . S
H611 C632 0.929 . S
H612 C641 0.930 . S
H613 C633 0.931 . S
O614 Co590 2.097 . S
O614 C642 1.214 . S
H615 C643 0.929 . S
H616 C644 0.929 . S
H617 C645 0.930 . S
H618 C646 0.929 . S
H619 C648 0.930 . S
H620 C625 0.930 . S
H621 C629 0.930 . S
O622 Co591 2.037 . S
O622 C642 1.234 . S
C623 O597 1.269 . S
C623 O598 1.257 . S
C624 H599 0.930 . S
C624 C627 1.388 . S
C624 C629 1.418 . S
C625 H620 0.930 . S
C625 C628 1.404 1_565 S
C625 C629 1.353 . S
N626 Co591 2.145 . S
N626 C627 1.397 1_545 S
N626 C628 1.334 . S
C627 H608 0.929 . S
C627 C624 1.388 . S
C627 N626 1.397 1_565 S
C628 H609 0.929 . S
C628 C625 1.404 1_545 S
C628 N626 1.334 . S
C629 H621 0.930 . S
C629 C624 1.418 . S
C629 C625 1.353 . S
C630 H600 0.930 . S
C630 N631 1.330 . S
C630 C632 1.446 . S
N631 Co590 2.151 . S
N631 C630 1.330 . S
N631 C635 1.418 . S
C632 H611 0.929 . S
C632 C630 1.446 . S
C632 C633 1.332 . S
C633 H613 0.931 . S
C633 C632 1.332 . S
C633 C634 1.267 . S
C634 H602 0.929 1_545 S
C634 C633 1.267 . S
C634 C635 1.251 . S
C635 H605 0.929 1_545 S
C635 N631 1.418 . S
C635 C634 1.251 . S
C636 H603 0.930 . S
C636 C638 1.406 . S
C636 C641 1.261 1_545 S
C637 H604 0.930 . S
C637 N639 1.325 1_565 S
C637 C640 1.357 . S
C638 H606 0.928 . S
C638 C636 1.406 . S
C638 N639 1.261 . S
N639 Co590 2.214 . S
N639 C637 1.325 1_545 S
N639 C638 1.261 . S
C640 H610 0.931 . S
C640 C637 1.357 . S
C640 C641 1.312 . S
C641 H612 0.930 . S
C641 C636 1.261 1_565 S
C641 C640 1.312 . S
C642 O614 1.214 . S
C642 O622 1.234 . S
C643 H615 0.929 . S
C643 C646 1.391 . S
C643 C648 1.391 . S
C644 H616 0.929 . S
C644 C645 1.390 . S
C644 N647 1.391 . S
C645 H617 0.930 . S
C645 C644 1.390 . S
C645 C646 1.392 . S
C646 H618 0.929 . S
C646 C643 1.391 . S
C646 C645 1.392 . S
N647 Co591 2.257 . S
N647 C644 1.391 . S
N647 C648 1.388 . S
C648 H619 0.930 . S
C648 C643 1.391 . S
C648 N647 1.388 . S
Co649 O651 2.143 . S
Co649 O657 2.074 . S
Co649 O660 2.093 1_655 S
Co649 O673 2.097 . S
Co649 N690 2.151 . S
Co649 N698 2.214 . S
Co650 O651 2.160 . S
Co650 O656 2.058 . S
Co650 O666 2.057 . S
Co650 O681 2.037 . S
Co650 N685 2.145 . S
Co650 N706 2.257 . S
O651 Co649 2.143 . S
O651 Co650 2.160 . S
C652 O653 1.278 . S
C652 O660 1.224 . S
O653 C652 1.278 . S
C654 O655 1.245 . S
C654 O666 1.232 . S
O655 C654 1.245 . S
O656 Co650 2.058 . S
O656 C682 1.269 . S
O657 Co649 2.074 . S
O657 C682 1.257 . S
H658 C683 0.930 . S
H659 C689 0.930 1_455 S
O660 Co649 2.093 1_455 S
O660 C652 1.224 . S
H661 C693 0.929 . S
H662 C695 0.930 . S
H663 C696 0.930 . S
H664 C694 0.929 . S
H665 C697 0.928 . S
O666 Co650 2.057 . S
O666 C654 1.232 . S
H667 C686 0.929 . S
H668 C687 0.929 . S
H669 C699 0.931 . S
H670 C691 0.905 1_455 S
H671 C700 0.930 . S
H672 C692 0.931 . S
O673 Co649 2.097 . S
O673 C701 1.214 . S
H674 C702 0.929 . S
H675 C703 0.929 . S
H676 C704 0.930 . S
H677 C705 0.929 . S
H678 C707 0.930 . S
H679 C684 0.930 . S
H680 C688 0.930 . S
O681 Co650 2.037 . S
O681 C701 1.234 . S
C682 O656 1.269 . S
C682 O657 1.257 . S
C683 H658 0.930 . S
C683 C686 1.388 . S
C683 C688 1.418 . S
C684 H679 0.930 . S
C684 C687 1.404 . S
C684 C688 1.353 . S
N685 Co650 2.145 . S
N685 C686 1.397 . S
N685 C687 1.334 . S
C686 H667 0.929 . S
C686 C683 1.388 . S
C686 N685 1.397 . S
C687 H668 0.929 . S
C687 C684 1.404 . S
C687 N685 1.334 . S
C688 H680 0.930 . S
C688 C683 1.418 . S
C688 C684 1.353 . S
C689 H659 0.930 1_655 S
C689 N690 1.330 . S
C689 C691 1.446 . S
N690 Co649 2.151 . S
N690 C689 1.330 . S
N690 C694 1.418 . S
C691 H670 0.905 1_655 S
C691 C689 1.446 . S
C691 C692 1.357 . S
C692 H672 0.931 . S
C692 C691 1.357 . S
C692 C693 1.267 . S
C693 H661 0.929 . S
C693 C692 1.267 . S
C693 C694 1.251 . S
C694 H664 0.929 . S
C694 N690 1.418 . S
C694 C693 1.251 . S
C695 H662 0.930 . S
C695 C697 1.406 . S
C695 C700 1.261 . S
C696 H663 0.930 . S
C696 N698 1.325 . S
C696 C699 1.357 . S
C697 H665 0.928 . S
C697 C695 1.406 . S
C697 N698 1.261 . S
N698 Co649 2.214 . S
N698 C696 1.325 . S
N698 C697 1.261 . S
C699 H669 0.931 . S
C699 C696 1.357 . S
C699 C700 1.312 . S
C700 H671 0.930 . S
C700 C695 1.261 . S
C700 C699 1.312 . S
C701 O673 1.214 . S
C701 O681 1.234 . S
C702 H674 0.929 . S
C702 C705 1.391 . S
C702 C707 1.391 . S
C703 H675 0.929 . S
C703 C704 1.390 1_655 S
C703 N706 1.391 . S
C704 H676 0.930 . S
C704 C703 1.390 1_455 S
C704 C705 1.392 . S
C705 H677 0.929 . S
C705 C702 1.391 . S
C705 C704 1.392 . S
N706 Co650 2.257 . S
N706 C703 1.391 . S
N706 C707 1.388 1_655 S
C707 H678 0.930 . S
C707 C702 1.391 . S
C707 N706 1.388 1_455 S
Co708 O710 2.143 . S
Co708 O716 2.074 . S
Co708 O719 2.093 . S
Co708 O732 2.097 . S
Co708 N749 2.151 . S
Co708 N757 2.214 . S
Co709 O710 2.160 . S
Co709 O715 2.058 . S
Co709 O725 2.057 . S
Co709 O740 2.037 . S
Co709 N744 2.145 . S
Co709 N765 2.257 . S
O710 Co708 2.143 . S
O710 Co709 2.160 . S
C711 O712 1.278 . S
C711 O719 1.224 . S
O712 C711 1.278 . S
C713 O714 1.245 . S
C713 O725 1.232 . S
O714 C713 1.245 . S
O715 Co709 2.058 . S
O715 C741 1.269 . S
O716 Co708 2.074 . S
O716 C741 1.257 . S
H717 C742 0.930 . S
H718 C748 0.930 . S
O719 Co708 2.093 . S
O719 C711 1.224 . S
H720 C752 0.929 . S
H721 C754 0.930 . S
H722 C755 0.930 . S
H723 C753 0.929 . S
H724 C756 0.928 . S
O725 Co709 2.057 . S
O725 C713 1.232 . S
H726 C745 0.929 . S
H727 C746 0.929 . S
H728 C758 0.931 . S
H729 C750 0.929 . S
H730 C759 0.930 . S
H731 C751 0.931 . S
O732 Co708 2.097 . S
O732 C760 1.214 . S
H733 C761 0.929 . S
H734 C762 0.929 . S
H735 C763 0.930 . S
H736 C764 0.929 . S
H737 C766 0.930 . S
H738 C743 0.930 . S
H739 C747 0.930 . S
O740 Co709 2.037 . S
O740 C760 1.234 . S
C741 O715 1.269 . S
C741 O716 1.257 . S
C742 H717 0.930 . S
C742 C745 1.388 . S
C742 C747 1.418 . S
C743 H738 0.930 . S
C743 C746 1.404 . S
C743 C747 1.353 . S
N744 Co709 2.145 . S
N744 C745 1.397 . S
N744 C746 1.334 . S
C745 H726 0.929 . S
C745 C742 1.388 . S
C745 N744 1.397 . S
C746 H727 0.929 . S
C746 C743 1.404 . S
C746 N744 1.334 . S
C747 H739 0.930 . S
C747 C742 1.418 . S
C747 C743 1.353 . S
C748 H718 0.930 . S
C748 N749 1.330 . S
C748 C750 1.446 . S
N749 Co708 2.151 . S
N749 C748 1.330 . S
N749 C753 1.418 . S
C750 H729 0.929 . S
C750 C748 1.446 . S
C750 C751 1.332 . S
C751 H731 0.931 . S
C751 C750 1.332 . S
C751 C752 1.267 . S
C752 H720 0.929 . S
C752 C751 1.267 . S
C752 C753 1.251 . S
C753 H723 0.929 . S
C753 N749 1.418 . S
C753 C752 1.251 . S
C754 H721 0.930 . S
C754 C756 1.406 . S
C754 C759 1.261 . S
C755 H722 0.930 . S
C755 N757 1.325 . S
C755 C758 1.357 . S
C756 H724 0.928 . S
C756 C754 1.406 . S
C756 N757 1.261 . S
N757 Co708 2.214 . S
N757 C755 1.325 . S
N757 C756 1.261 . S
C758 H728 0.931 . S
C758 C755 1.357 . S
C758 C759 1.312 . S
C759 H730 0.930 . S
C759 C754 1.261 . S
C759 C758 1.312 . S
C760 O732 1.214 . S
C760 O740 1.234 . S
C761 H733 0.929 . S
C761 C764 1.391 . S
C761 C766 1.391 . S
C762 H734 0.929 . S
C762 C763 1.390 . S
C762 N765 1.391 . S
C763 H735 0.930 . S
C763 C762 1.390 . S
C763 C764 1.392 . S
C764 H736 0.929 . S
C764 C761 1.391 . S
C764 C763 1.392 . S
N765 Co709 2.257 . S
N765 C762 1.391 . S
N765 C766 1.388 . S
C766 H737 0.930 . S
C766 C761 1.391 . S
C766 N765 1.388 . S
Co767 O769 2.143 . S
Co767 O775 2.074 . S
Co767 O778 2.093 . S
Co767 O791 2.097 . S
Co767 N808 2.151 . S
Co767 N816 2.214 . S
Co768 O769 2.160 . S
Co768 O774 2.058 . S
Co768 O784 2.057 . S
Co768 O799 2.037 . S
Co768 N803 2.145 . S
Co768 N824 2.257 . S
O769 Co767 2.143 . S
O769 Co768 2.160 . S
C770 O771 1.278 . S
C770 O778 1.224 . S
O771 C770 1.278 . S
C772 O773 1.245 . S
C772 O784 1.232 . S
O773 C772 1.245 . S
O774 Co768 2.058 . S
O774 C800 1.269 1_565 S
O775 Co767 2.074 . S
O775 C800 1.257 1_565 S
H776 C801 0.930 . S
H777 C807 0.930 . S
O778 Co767 2.093 . S
O778 C770 1.224 . S
H779 C811 0.929 . S
H780 C813 0.930 . S
H781 C814 0.930 . S
H782 C812 0.929 . S
H783 C815 0.928 . S
O784 Co768 2.057 . S
O784 C772 1.232 . S
H785 C804 0.929 . S
H786 C805 0.929 . S
H787 C817 0.931 1_545 S
H788 C809 0.929 . S
H789 C818 0.930 . S
H790 C810 0.931 . S
O791 Co767 2.097 . S
O791 C819 1.214 . S
H792 C820 0.929 . S
H793 C821 0.929 . S
H794 C822 0.930 . S
H795 C823 0.929 . S
H796 C825 0.930 . S
H797 C802 0.930 . S
H798 C806 0.930 . S
O799 Co768 2.037 . S
O799 C819 1.234 . S
C800 O774 1.269 1_545 S
C800 O775 1.257 1_545 S
C801 H776 0.930 . S
C801 C804 1.388 . S
C801 C806 1.418 . S
C802 H797 0.930 . S
C802 C805 1.404 . S
C802 C806 1.353 1_565 S
N803 Co768 2.145 . S
N803 C804 1.397 1_565 S
N803 C805 1.334 . S
C804 H785 0.929 . S
C804 C801 1.388 . S
C804 N803 1.397 1_545 S
C805 H786 0.929 . S
C805 C802 1.404 . S
C805 N803 1.334 . S
C806 H798 0.930 . S
C806 C801 1.418 . S
C806 C802 1.353 1_545 S
C807 H777 0.930 . S
C807 N808 1.330 . S
C807 C809 1.446 . S
N808 Co767 2.151 . S
N808 C807 1.330 . S
N808 C812 1.418 . S
C809 H788 0.929 . S
C809 C807 1.446 . S
C809 C810 1.332 . S
C810 H790 0.931 . S
C810 C809 1.332 . S
C810 C811 1.267 . S
C811 H779 0.929 . S
C811 C810 1.267 . S
C811 C812 1.251 . S
C812 H782 0.929 . S
C812 N808 1.418 . S
C812 C811 1.251 . S
C813 H780 0.930 . S
C813 C815 1.406 . S
C813 C818 1.261 . S
C814 H781 0.930 . S
C814 N816 1.325 . S
C814 C817 1.357 . S
C815 H783 0.928 . S
C815 C813 1.406 . S
C815 N816 1.261 . S
N816 Co767 2.214 . S
N816 C814 1.325 . S
N816 C815 1.261 . S
C817 H787 0.931 1_565 S
C817 C814 1.357 . S
C817 C818 1.312 . S
C818 H789 0.930 . S
C818 C813 1.261 . S
C818 C817 1.312 . S
C819 O791 1.214 . S
C819 O799 1.234 . S
C820 H792 0.929 . S
C820 C823 1.391 . S
C820 C825 1.391 . S
C821 H793 0.929 . S
C821 C822 1.390 . S
C821 N824 1.391 . S
C822 H794 0.930 . S
C822 C821 1.390 . S
C822 C823 1.392 . S
C823 H795 0.929 . S
C823 C820 1.391 . S
C823 C822 1.392 . S
N824 Co768 2.257 . S
N824 C821 1.391 . S
N824 C825 1.388 . S
C825 H796 0.930 . S
C825 C820 1.391 . S
C825 N824 1.388 . S
Co826 O828 2.143 . S
Co826 O834 2.074 . S
Co826 O837 2.093 . S
Co826 O850 2.097 . S
Co826 N867 2.151 . S
Co826 N875 2.214 . S
Co827 O828 2.160 . S
Co827 O833 2.058 . S
Co827 O843 2.057 . S
Co827 O858 2.037 . S
Co827 N862 2.145 . S
Co827 N883 2.257 . S
O828 Co826 2.143 . S
O828 Co827 2.160 . S
C829 O830 1.278 . S
C829 O837 1.224 . S
O830 C829 1.278 . S
C831 O832 1.245 . S
C831 O843 1.232 . S
O832 C831 1.245 . S
O833 Co827 2.058 . S
O833 C859 1.269 1_455 S
O834 Co826 2.074 . S
O834 C859 1.257 1_455 S
H835 C860 0.930 . S
H836 C866 0.930 . S
O837 Co826 2.093 . S
O837 C829 1.224 . S
H838 C870 0.929 . S
H839 C872 0.930 . S
H840 C873 0.930 . S
H841 C871 0.929 . S
H842 C874 0.928 . S
O843 Co827 2.057 . S
O843 C831 1.232 . S
H844 C863 0.929 . S
H845 C864 0.929 . S
H846 C876 0.931 1_655 S
H847 C868 0.929 . S
H848 C877 0.930 . S
H849 C869 0.931 . S
O850 Co826 2.097 . S
O850 C878 1.214 . S
H851 C879 0.929 . S
H852 C880 0.929 . S
H853 C881 0.930 . S
H854 C882 0.929 . S
H855 C884 0.930 . S
H856 C861 0.930 . S
H857 C865 0.930 . S
O858 Co827 2.037 . S
O858 C878 1.234 . S
C859 O833 1.269 1_655 S
C859 O834 1.257 1_655 S
C860 H835 0.930 . S
C860 C863 1.388 . S
C860 C865 1.418 . S
C861 H856 0.930 . S
C861 C864 1.404 . S
C861 C865 1.353 1_455 S
N862 Co827 2.145 . S
N862 C863 1.397 1_455 S
N862 C864 1.334 . S
C863 H844 0.929 . S
C863 C860 1.388 . S
C863 N862 1.397 1_655 S
C864 H845 0.929 . S
C864 C861 1.404 . S
C864 N862 1.334 . S
C865 H857 0.930 . S
C865 C860 1.418 . S
C865 C861 1.353 1_655 S
C866 H836 0.930 . S
C866 N867 1.330 . S
C866 C868 1.446 . S
N867 Co826 2.151 . S
N867 C866 1.330 . S
N867 C871 1.418 . S
C868 H847 0.929 . S
C868 C866 1.446 . S
C868 C869 1.332 . S
C869 H849 0.931 . S
C869 C868 1.332 . S
C869 C870 1.267 . S
C870 H838 0.929 . S
C870 C869 1.267 . S
C870 C871 1.251 . S
C871 H841 0.929 . S
C871 N867 1.418 . S
C871 C870 1.251 . S
C872 H839 0.930 . S
C872 C874 1.406 . S
C872 C877 1.261 . S
C873 H840 0.930 . S
C873 N875 1.325 . S
C873 C876 1.357 . S
C874 H842 0.928 . S
C874 C872 1.406 . S
C874 N875 1.261 . S
N875 Co826 2.214 . S
N875 C873 1.325 . S
N875 C874 1.261 . S
C876 H846 0.931 1_455 S
C876 C873 1.357 . S
C876 C877 1.312 . S
C877 H848 0.930 . S
C877 C872 1.261 . S
C877 C876 1.312 . S
C878 O850 1.214 . S
C878 O858 1.234 . S
C879 H851 0.929 . S
C879 C882 1.391 . S
C879 C884 1.391 . S
C880 H852 0.929 . S
C880 C881 1.390 . S
C880 N883 1.391 . S
C881 H853 0.930 . S
C881 C880 1.390 . S
C881 C882 1.392 . S
C882 H854 0.929 . S
C882 C879 1.391 . S
C882 C881 1.392 . S
N883 Co827 2.257 . S
N883 C880 1.391 . S
N883 C884 1.388 . S
C884 H855 0.930 . S
C884 C879 1.391 . S
C884 N883 1.388 . S
Co885 O887 2.143 . S
Co885 O893 2.074 . S
Co885 O896 2.093 . S
Co885 O909 2.097 1_655 S
Co885 N926 2.151 . S
Co885 N934 2.214 . S
Co886 O887 2.160 . S
Co886 O892 2.058 . S
Co886 O902 2.057 . S
Co886 O917 2.037 1_655 S
Co886 N921 2.145 1_655 S
Co886 N942 2.257 1_655 S
O887 Co885 2.143 . S
O887 Co886 2.160 . S
C888 O889 1.278 . S
C888 O896 1.224 1_455 S
O889 C888 1.278 . S
C890 O891 1.245 . S
C890 O902 1.232 . S
O891 C890 1.245 . S
O892 Co886 2.058 . S
O892 C918 1.269 . S
O893 Co885 2.074 . S
O893 C918 1.257 . S
H894 C919 0.930 . S
H895 C925 0.930 . S
O896 Co885 2.093 . S
O896 C888 1.224 1_655 S
H897 C929 0.929 . S
H898 C931 0.930 . S
H899 C932 0.930 . S
H900 C930 0.929 . S
H901 C933 0.928 . S
O902 Co886 2.057 . S
O902 C890 1.232 . S
H903 C922 0.929 . S
H904 C923 0.929 . S
H905 C935 0.931 . S
H906 C927 0.929 . S
H907 C936 0.930 . S
H908 C928 0.931 . S
O909 Co885 2.097 1_455 S
O909 C937 1.214 . S
H910 C938 0.929 . S
H911 C939 0.929 . S
H912 C940 0.930 . S
H913 C941 0.929 . S
H914 C943 0.930 . S
H915 C920 0.930 . S
H916 C924 0.930 . S
O917 Co886 2.037 1_455 S
O917 C937 1.234 . S
C918 O892 1.269 . S
C918 O893 1.257 . S
C919 H894 0.930 . S
C919 C922 1.388 . S
C919 C924 1.418 . S
C920 H915 0.930 . S
C920 C923 1.404 . S
C920 C924 1.353 . S
N921 Co886 2.145 1_455 S
N921 C922 1.397 . S
N921 C923 1.334 . S
C922 H903 0.929 . S
C922 C919 1.388 . S
C922 N921 1.397 . S
C923 H904 0.929 . S
C923 C920 1.404 . S
C923 N921 1.334 . S
C924 H916 0.930 . S
C924 C919 1.418 . S
C924 C920 1.353 . S
C925 H895 0.930 . S
C925 N926 1.330 . S
C925 C927 1.446 . S
N926 Co885 2.151 . S
N926 C925 1.330 . S
N926 C930 1.418 . S
C927 H906 0.929 . S
C927 C925 1.446 . S
C927 C928 1.332 . S
C928 H908 0.931 . S
C928 C927 1.332 . S
C928 C929 1.267 . S
C929 H897 0.929 . S
C929 C928 1.267 . S
C929 C930 1.251 . S
C930 H900 0.929 . S
C930 N926 1.418 . S
C930 C929 1.251 . S
C931 H898 0.930 . S
C931 C933 1.406 . S
C931 C936 1.261 . S
C932 H899 0.930 . S
C932 N934 1.325 . S
C932 C935 1.357 . S
C933 H901 0.928 . S
C933 C931 1.406 . S
C933 N934 1.261 . S
N934 Co885 2.214 . S
N934 C932 1.325 . S
N934 C933 1.261 . S
C935 H905 0.931 . S
C935 C932 1.357 . S
C935 C936 1.312 . S
C936 H907 0.930 . S
C936 C931 1.261 . S
C936 C935 1.312 . S
C937 O909 1.214 . S
C937 O917 1.234 . S
C938 H910 0.929 . S
C938 C941 1.391 . S
C938 C943 1.391 . S
C939 H911 0.929 . S
C939 C940 1.390 . S
C939 N942 1.391 . S
C940 H912 0.930 . S
C940 C939 1.390 . S
C940 C941 1.392 . S
C941 H913 0.929 . S
C941 C938 1.391 . S
C941 C940 1.392 . S
N942 Co886 2.257 1_455 S
N942 C939 1.391 . S
N942 C943 1.388 . S
C943 H914 0.930 . S
C943 C938 1.391 . S
C943 N942 1.388 . S
Co944 O946 2.143 . S
Co944 O952 2.074 . S
Co944 O955 2.093 . S
Co944 O968 2.097 . S
Co944 N985 2.151 . S
Co944 N993 2.214 . S
Co945 O946 2.160 . S
Co945 O951 2.058 . S
Co945 O961 2.057 . S
Co945 O976 2.037 . S
Co945 N980 2.145 . S
Co945 N1001 2.257 . S
O946 Co944 2.143 . S
O946 Co945 2.160 . S
C947 O948 1.278 . S
C947 O955 1.224 . S
O948 C947 1.278 . S
C949 O950 1.245 . S
C949 O961 1.232 . S
O950 C949 1.245 . S
O951 Co945 2.058 . S
O951 C977 1.269 . S
O952 Co944 2.074 . S
O952 C977 1.257 . S
H953 C978 0.930 . S
H954 C984 0.930 . S
O955 Co944 2.093 . S
O955 C947 1.224 . S
H956 C988 0.929 . S
H957 C990 0.930 . S
H958 C991 0.930 . S
H959 C989 0.929 . S
H960 C992 0.928 . S
O961 Co945 2.057 . S
O961 C949 1.232 . S
H962 C981 0.929 . S
H963 C982 0.929 . S
H964 C994 0.931 . S
H965 C986 0.929 . S
H966 C995 0.930 . S
H967 C987 0.931 . S
O968 Co944 2.097 . S
O968 C996 1.214 . S
H969 C997 0.929 . S
H970 C998 0.929 . S
H971 C999 0.930 . S
H972 C1000 0.929 . S
H973 C1002 0.930 . S
H974 C979 0.930 . S
H975 C983 0.930 . S
O976 Co945 2.037 . S
O976 C996 1.234 . S
C977 O951 1.269 . S
C977 O952 1.257 . S
C978 H953 0.930 . S
C978 C981 1.388 . S
C978 C983 1.418 . S
C979 H974 0.930 . S
C979 C982 1.404 . S
C979 C983 1.353 . S
N980 Co945 2.145 . S
N980 C981 1.397 . S
N980 C982 1.334 . S
C981 H962 0.929 . S
C981 C978 1.388 . S
C981 N980 1.397 . S
C982 H963 0.929 . S
C982 C979 1.404 . S
C982 N980 1.334 . S
C983 H975 0.930 . S
C983 C978 1.418 . S
C983 C979 1.353 . S
C984 H954 0.930 . S
C984 N985 1.330 . S
C984 C986 1.446 . S
N985 Co944 2.151 . S
N985 C984 1.330 . S
N985 C989 1.418 . S
C986 H965 0.929 . S
C986 C984 1.446 . S
C986 C987 1.332 . S
C987 H967 0.931 . S
C987 C986 1.332 . S
C987 C988 1.267 . S
C988 H956 0.929 . S
C988 C987 1.267 . S
C988 C989 1.251 . S
C989 H959 0.929 . S
C989 N985 1.418 . S
C989 C988 1.251 . S
C990 H957 0.930 . S
C990 C992 1.406 . S
C990 C995 1.261 . S
C991 H958 0.930 . S
C991 N993 1.325 . S
C991 C994 1.357 . S
C992 H960 0.928 . S
C992 C990 1.406 . S
C992 N993 1.261 . S
N993 Co944 2.214 . S
N993 C991 1.325 . S
N993 C992 1.261 . S
C994 H964 0.931 . S
C994 C991 1.357 . S
C994 C995 1.312 . S
C995 H966 0.930 . S
C995 C990 1.261 . S
C995 C994 1.312 . S
C996 O968 1.214 . S
C996 O976 1.234 . S
C997 H969 0.929 . S
C997 C1000 1.391 . S
C997 C1002 1.391 . S
C998 H970 0.929 . S
C998 C999 1.390 . S
C998 N1001 1.391 . S
C999 H971 0.930 . S
C999 C998 1.390 . S
C999 C1000 1.392 . S
C1000 H972 0.929 . S
C1000 C997 1.391 . S
C1000 C999 1.392 . S
N1001 Co945 2.257 . S
N1001 C998 1.391 . S
N1001 C1002 1.388 . S
C1002 H973 0.930 . S
C1002 C997 1.391 . S
C1002 N1001 1.388 . S
Co1003 O1005 2.143 . S
Co1003 O1011 2.074 . S
Co1003 O1014 2.093 . S
Co1003 O1027 2.097 . S
Co1003 N1044 2.151 . S
Co1003 N1052 2.214 . S
Co1004 O1005 2.160 1_565 S
Co1004 O1010 2.058 . S
Co1004 O1020 2.057 . S
Co1004 O1035 2.037 1_565 S
Co1004 N1039 2.145 . S
Co1004 N1060 2.257 . S
O1005 Co1003 2.143 . S
O1005 Co1004 2.160 1_545 S
C1006 O1007 1.278 . S
C1006 O1014 1.224 . S
O1007 C1006 1.278 . S
C1008 O1009 1.245 . S
C1008 O1020 1.232 . S
O1009 C1008 1.245 . S
O1010 Co1004 2.058 . S
O1010 C1036 1.269 . S
O1011 Co1003 2.074 . S
O1011 C1036 1.257 1_545 S
H1012 C1037 0.930 . S
H1013 C1043 0.930 . S
O1014 Co1003 2.093 . S
O1014 C1006 1.224 . S
H1015 C1047 0.929 . S
H1016 C1049 0.930 . S
H1017 C1050 0.930 . S
H1018 C1048 0.929 . S
H1019 C1051 0.928 . S
O1020 Co1004 2.057 . S
O1020 C1008 1.232 . S
H1021 C1040 0.929 . S
H1022 C1041 0.929 . S
H1023 C1053 0.931 . S
H1024 C1045 0.929 . S
H1025 C1054 0.930 . S
H1026 C1046 0.931 . S
O1027 Co1003 2.097 . S
O1027 C1055 1.214 . S
H1028 C1056 0.929 . S
H1029 C1057 0.929 . S
H1030 C1058 0.930 . S
H1031 C1059 0.929 . S
H1032 C1061 0.930 . S
H1033 C1038 0.930 . S
H1034 C1042 0.930 . S
O1035 Co1004 2.037 1_545 S
O1035 C1055 1.234 . S
C1036 O1010 1.269 . S
C1036 O1011 1.257 1_565 S
C1037 H1012 0.930 . S
C1037 C1040 1.388 . S
C1037 C1042 1.418 . S
C1038 H1033 0.930 . S
C1038 C1041 1.404 . S
C1038 C1042 1.353 . S
N1039 Co1004 2.145 . S
N1039 C1040 1.397 . S
N1039 C1041 1.334 . S
C1040 H1021 0.929 . S
C1040 C1037 1.388 . S
C1040 N1039 1.397 . S
C1041 H1022 0.929 . S
C1041 C1038 1.404 . S
C1041 N1039 1.334 . S
C1042 H1034 0.930 . S
C1042 C1037 1.418 . S
C1042 C1038 1.353 . S
C1043 H1013 0.930 . S
C1043 N1044 1.330 . S
C1043 C1045 1.446 . S
N1044 Co1003 2.151 . S
N1044 C1043 1.330 . S
N1044 C1048 1.418 . S
C1045 H1024 0.929 . S
C1045 C1043 1.446 . S
C1045 C1046 1.332 . S
C1046 H1026 0.931 . S
C1046 C1045 1.332 . S
C1046 C1047 1.267 . S
C1047 H1015 0.929 . S
C1047 C1046 1.267 . S
C1047 C1048 1.251 . S
C1048 H1018 0.929 . S
C1048 N1044 1.418 . S
C1048 C1047 1.251 . S
C1049 H1016 0.930 . S
C1049 C1051 1.406 . S
C1049 C1054 1.261 . S
C1050 H1017 0.930 . S
C1050 N1052 1.325 . S
C1050 C1053 1.357 . S
C1051 H1019 0.928 . S
C1051 C1049 1.406 . S
C1051 N1052 1.261 . S
N1052 Co1003 2.214 . S
N1052 C1050 1.325 . S
N1052 C1051 1.261 . S
C1053 H1023 0.931 . S
C1053 C1050 1.357 . S
C1053 C1054 1.312 . S
C1054 H1025 0.930 . S
C1054 C1049 1.261 . S
C1054 C1053 1.312 . S
C1055 O1027 1.214 . S
C1055 O1035 1.234 . S
C1056 H1028 0.929 . S
C1056 C1059 1.391 . S
C1056 C1061 1.391 . S
C1057 H1029 0.929 . S
C1057 C1058 1.390 . S
C1057 N1060 1.391 . S
C1058 H1030 0.930 . S
C1058 C1057 1.390 . S
C1058 C1059 1.392 . S
C1059 H1031 0.929 . S
C1059 C1056 1.391 . S
C1059 C1058 1.392 . S
N1060 Co1004 2.257 . S
N1060 C1057 1.391 . S
N1060 C1061 1.388 . S
C1061 H1032 0.930 . S
C1061 C1056 1.391 . S
C1061 N1060 1.388 . S
H1062 C1070 0.950 . S
H1063 C1075 0.950 . S
H1064 C1072 0.950 . S
H1065 C1074 0.950 1_556 S
H1066 C1076 0.950 . S
H1067 C1078 0.950 . S
H1068 C1080 0.942 1_544 S
H1069 C1081 0.950 . S
C1070 H1062 0.950 . S
C1070 C1071 1.386 1_545 S
C1070 C1072 1.392 . S
C1071 C1070 1.386 1_565 S
C1071 C1075 1.393 . S
C1072 H1064 0.950 . S
C1072 C1070 1.392 . S
C1072 C1073 1.400 1_545 S
C1073 C1072 1.400 1_565 S
C1073 C1074 1.398 . S
C1073 C1079 1.491 1_554 S
C1074 H1065 0.950 1_554 S
C1074 C1073 1.398 . S
C1074 C1075 1.391 . S
C1075 H1063 0.950 . S
C1075 C1071 1.393 . S
C1075 C1074 1.391 . S
C1076 H1066 0.950 . S
C1076 C1077 1.386 . S
C1076 C1078 1.391 . S
C1077 C1076 1.386 . S
C1077 C1081 1.393 . S
C1078 H1067 0.950 . S
C1078 C1076 1.391 . S
C1078 C1079 1.400 . S
C1079 C1073 1.491 1_556 S
C1079 C1078 1.400 . S
C1079 C1080 1.398 . S
C1080 H1068 0.942 1_566 S
C1080 C1079 1.398 . S
C1080 C1081 1.391 . S
C1081 H1069 0.950 . S
C1081 C1077 1.393 . S
C1081 C1080 1.391 . S
H1082 C1090 0.950 . S
H1083 C1095 0.950 . S
H1084 C1092 0.950 1_455 S
H1085 C1094 0.950 . S
H1086 C1096 0.950 . S
H1087 C1098 0.950 1_554 S
H1088 C1100 0.950 . S
H1089 C1101 0.950 . S
C1090 H1082 0.950 . S
C1090 C1091 1.386 1_556 S
C1090 C1092 1.391 . S
C1091 C1090 1.386 1_554 S
C1091 C1095 1.393 . S
C1092 H1084 0.950 1_655 S
C1092 C1090 1.391 . S
C1092 C1093 1.400 . S
C1093 C1092 1.400 . S
C1093 C1094 1.398 1_556 S
C1093 C1099 1.491 1_655 S
C1094 H1085 0.950 . S
C1094 C1093 1.398 1_554 S
C1094 C1095 1.391 . S
C1095 H1083 0.950 . S
C1095 C1091 1.393 . S
C1095 C1094 1.391 . S
C1096 H1086 0.950 . S
C1096 C1097 1.386 . S
C1096 C1098 1.391 1_455 S
C1097 C1096 1.386 . S
C1097 C1101 1.393 . S
C1098 H1087 0.950 1_556 S
C1098 C1096 1.391 1_655 S
C1098 C1099 1.400 1_655 S
C1099 C1093 1.491 1_455 S
C1099 C1098 1.400 1_455 S
C1099 C1100 1.398 . S
C1100 H1088 0.950 . S
C1100 C1099 1.398 . S
C1100 C1101 1.391 . S
C1101 H1089 0.950 . S
C1101 C1097 1.393 . S
C1101 C1100 1.391 . S
H1102 C1110 0.950 . S
H1103 C1115 0.950 . S
H1104 C1112 0.950 . S
H1105 C1114 0.950 . S
H1106 C1116 0.950 . S
H1107 C1118 0.950 . S
H1108 C1120 0.950 . S
H1109 C1121 0.950 . S
C1110 H1102 0.950 . S
C1110 C1111 1.386 . S
C1110 C1112 1.391 1_556 S
C1111 C1110 1.386 . S
C1111 C1115 1.393 . S
C1112 H1104 0.950 . S
C1112 C1110 1.391 1_554 S
C1112 C1113 1.400 . S
C1113 C1112 1.400 . S
C1113 C1114 1.398 1_554 S
C1113 C1119 1.491 . S
C1114 H1105 0.950 . S
C1114 C1113 1.398 1_556 S
C1114 C1115 1.391 . S
C1115 H1103 0.950 . S
C1115 C1111 1.393 . S
C1115 C1114 1.391 . S
C1116 H1106 0.950 . S
C1116 C1117 1.386 . S
C1116 C1118 1.391 . S
C1117 C1116 1.386 . S
C1117 C1121 1.393 . S
C1118 H1107 0.950 . S
C1118 C1116 1.391 . S
C1118 C1119 1.400 . S
C1119 C1113 1.491 . S
C1119 C1118 1.400 . S
C1119 C1120 1.398 . S
C1120 H1108 0.950 . S
C1120 C1119 1.398 . S
C1120 C1121 1.391 . S
C1121 H1109 0.950 . S
C1121 C1117 1.393 . S
C1121 C1120 1.391 . S
H1122 C1130 0.950 . S
H1123 C1135 0.950 . S
H1124 C1132 0.950 . S
H1125 C1134 0.950 . S
H1126 C1136 0.950 . S
H1127 C1138 0.950 . S
H1128 C1140 0.950 . S
H1129 C1141 0.950 . S
C1130 H1122 0.950 . S
C1130 C1131 1.386 . S
C1130 C1132 1.391 . S
C1131 C1130 1.386 . S
C1131 C1135 1.393 . S
C1132 H1124 0.950 . S
C1132 C1130 1.391 . S
C1132 C1133 1.400 . S
C1133 C1132 1.400 . S
C1133 C1134 1.398 . S
C1133 C1139 1.491 . S
C1134 H1125 0.950 . S
C1134 C1133 1.398 . S
C1134 C1135 1.391 . S
C1135 H1123 0.950 . S
C1135 C1131 1.393 . S
C1135 C1134 1.391 . S
C1136 H1126 0.950 . S
C1136 C1137 1.386 . S
C1136 C1138 1.391 . S
C1137 C1136 1.386 . S
C1137 C1141 1.393 . S
C1138 H1127 0.950 . S
C1138 C1136 1.391 . S
C1138 C1139 1.400 . S
C1139 C1133 1.491 . S
C1139 C1138 1.400 . S
C1139 C1140 1.398 . S
C1140 H1128 0.950 . S
C1140 C1139 1.398 . S
C1140 C1141 1.391 . S
C1141 H1129 0.950 . S
C1141 C1137 1.393 . S
C1141 C1140 1.391 . S
H1142 C1150 0.950 . S
H1143 C1155 0.950 . S
H1144 C1152 0.950 . S
H1145 C1154 0.950 . S
H1146 C1156 0.950 . S
H1147 C1158 0.950 . S
H1148 C1160 0.950 . S
H1149 C1161 0.950 . S
C1150 H1142 0.950 . S
C1150 C1151 1.386 . S
C1150 C1152 1.391 . S
C1151 C1150 1.386 . S
C1151 C1155 1.393 . S
C1152 H1144 0.950 . S
C1152 C1150 1.391 . S
C1152 C1153 1.400 . S
C1153 C1152 1.400 . S
C1153 C1154 1.398 . S
C1153 C1159 1.491 . S
C1154 H1145 0.950 . S
C1154 C1153 1.398 . S
C1154 C1155 1.391 . S
C1155 H1143 0.950 . S
C1155 C1151 1.393 . S
C1155 C1154 1.391 . S
C1156 H1146 0.950 . S
C1156 C1157 1.386 . S
C1156 C1158 1.391 . S
C1157 C1156 1.386 . S
C1157 C1161 1.393 . S
C1158 H1147 0.950 . S
C1158 C1156 1.391 . S
C1158 C1159 1.400 . S
C1159 C1153 1.491 . S
C1159 C1158 1.400 . S
C1159 C1160 1.398 . S
C1160 H1148 0.950 . S
C1160 C1159 1.398 . S
C1160 C1161 1.391 . S
C1161 H1149 0.950 . S
C1161 C1157 1.393 . S
C1161 C1160 1.391 . S
H1162 C1170 0.950 . S
H1163 C1175 0.950 . S
H1164 C1172 0.950 . S
H1165 C1174 0.950 . S
H1166 C1176 0.950 . S
H1167 C1178 0.950 . S
H1168 C1180 0.950 . S
H1169 C1181 0.950 . S
C1170 H1162 0.950 . S
C1170 C1171 1.386 . S
C1170 C1172 1.391 . S
C1171 C1170 1.386 . S
C1171 C1175 1.393 . S
C1172 H1164 0.950 . S
C1172 C1170 1.391 . S
C1172 C1173 1.400 . S
C1173 C1172 1.400 . S
C1173 C1174 1.398 . S
C1173 C1179 1.491 . S
C1174 H1165 0.950 . S
C1174 C1173 1.398 . S
C1174 C1175 1.391 . S
C1175 H1163 0.950 . S
C1175 C1171 1.393 . S
C1175 C1174 1.391 . S
C1176 H1166 0.950 . S
C1176 C1177 1.386 . S
C1176 C1178 1.391 . S
C1177 C1176 1.386 . S
C1177 C1181 1.393 . S
C1178 H1167 0.950 . S
C1178 C1176 1.391 . S
C1178 C1179 1.400 . S
C1179 C1173 1.491 . S
C1179 C1178 1.400 . S
C1179 C1180 1.398 . S
C1180 H1168 0.950 . S
C1180 C1179 1.398 . S
C1180 C1181 1.391 . S
C1181 H1169 0.950 . S
C1181 C1177 1.393 . S
C1181 C1180 1.391 . S
H1182 C1190 0.950 . S
H1183 C1195 0.950 . S
H1184 C1192 0.950 . S
H1185 C1194 0.950 . S
H1186 C1196 0.950 . S
H1187 C1198 0.950 . S
H1188 C1200 0.950 . S
H1189 C1201 0.950 . S
C1190 H1182 0.950 . S
C1190 C1191 1.386 . S
C1190 C1192 1.391 . S
C1191 C1190 1.386 . S
C1191 C1195 1.393 . S
C1192 H1184 0.950 . S
C1192 C1190 1.391 . S
C1192 C1193 1.400 . S
C1193 C1192 1.400 . S
C1193 C1194 1.398 . S
C1193 C1199 1.491 . S
C1194 H1185 0.950 . S
C1194 C1193 1.398 . S
C1194 C1195 1.391 . S
C1195 H1183 0.950 . S
C1195 C1191 1.393 . S
C1195 C1194 1.391 . S
C1196 H1186 0.950 . S
C1196 C1197 1.386 . S
C1196 C1198 1.391 . S
C1197 C1196 1.386 . S
C1197 C1201 1.393 . S
C1198 H1187 0.950 . S
C1198 C1196 1.391 . S
C1198 C1199 1.400 . S
C1199 C1193 1.491 . S
C1199 C1198 1.400 . S
C1199 C1200 1.398 . S
C1200 H1188 0.950 . S
C1200 C1199 1.398 . S
C1200 C1201 1.391 . S
C1201 H1189 0.950 . S
C1201 C1197 1.393 . S
C1201 C1200 1.391 . S
H1202 C1210 0.950 . S
H1203 C1215 0.950 . S
H1204 C1212 0.950 . S
H1205 C1214 0.950 . S
H1206 C1216 0.950 . S
H1207 C1218 0.950 . S
H1208 C1220 0.950 . S
H1209 C1221 0.950 . S
C1210 H1202 0.950 . S
C1210 C1211 1.386 . S
C1210 C1212 1.391 . S
C1211 C1210 1.386 . S
C1211 C1215 1.393 . S
C1212 H1204 0.950 . S
C1212 C1210 1.391 . S
C1212 C1213 1.400 . S
C1213 C1212 1.400 . S
C1213 C1214 1.398 . S
C1213 C1219 1.491 . S
C1214 H1205 0.950 . S
C1214 C1213 1.398 . S
C1214 C1215 1.391 . S
C1215 H1203 0.950 . S
C1215 C1211 1.393 . S
C1215 C1214 1.391 . S
C1216 H1206 0.950 . S
C1216 C1217 1.386 . S
C1216 C1218 1.391 . S
C1217 C1216 1.386 . S
C1217 C1221 1.393 . S
C1218 H1207 0.950 . S
C1218 C1216 1.391 . S
C1218 C1219 1.400 . S
C1219 C1213 1.491 . S
C1219 C1218 1.400 . S
C1219 C1220 1.398 . S
C1220 H1208 0.950 . S
C1220 C1219 1.398 . S
C1220 C1221 1.391 . S
C1221 H1209 0.950 . S
C1221 C1217 1.393 . S
C1221 C1220 1.391 . S
H1222 C1230 0.950 . S
H1223 C1235 0.950 . S
H1224 C1232 0.950 . S
H1225 C1234 0.950 . S
H1226 C1236 0.950 . S
H1227 C1238 0.950 . S
H1228 C1240 0.950 . S
H1229 C1241 0.950 . S
C1230 H1222 0.950 . S
C1230 C1231 1.386 . S
C1230 C1232 1.391 . S
C1231 C1230 1.386 . S
C1231 C1235 1.393 . S
C1232 H1224 0.950 . S
C1232 C1230 1.391 . S
C1232 C1233 1.400 . S
C1233 C1232 1.400 . S
C1233 C1234 1.398 . S
C1233 C1239 1.491 . S
C1234 H1225 0.950 . S
C1234 C1233 1.398 . S
C1234 C1235 1.391 . S
C1235 H1223 0.950 . S
C1235 C1231 1.393 . S
C1235 C1234 1.391 . S
C1236 H1226 0.950 . S
C1236 C1237 1.386 . S
C1236 C1238 1.391 . S
C1237 C1236 1.386 . S
C1237 C1241 1.393 . S
C1238 H1227 0.950 . S
C1238 C1236 1.391 . S
C1238 C1239 1.400 . S
C1239 C1233 1.491 . S
C1239 C1238 1.400 . S
C1239 C1240 1.398 . S
C1240 H1228 0.950 . S
C1240 C1239 1.398 . S
C1240 C1241 1.391 . S
C1241 H1229 0.950 . S
C1241 C1237 1.393 . S
C1241 C1240 1.391 . S
H1242 C1250 0.950 . S
H1243 C1255 0.950 . S
H1244 C1252 0.950 . S
H1245 C1254 0.950 . S
H1246 C1256 0.950 . S
H1247 C1258 0.950 . S
H1248 C1260 0.950 . S
H1249 C1261 0.950 . S
C1250 H1242 0.950 . S
C1250 C1251 1.386 . S
C1250 C1252 1.391 . S
C1251 C1250 1.386 . S
C1251 C1255 1.393 . S
C1252 H1244 0.950 . S
C1252 C1250 1.391 . S
C1252 C1253 1.400 . S
C1253 C1252 1.400 . S
C1253 C1254 1.398 . S
C1253 C1259 1.491 . S
C1254 H1245 0.950 . S
C1254 C1253 1.398 . S
C1254 C1255 1.391 . S
C1255 H1243 0.950 . S
C1255 C1251 1.393 . S
C1255 C1254 1.391 . S
C1256 H1246 0.950 . S
C1256 C1257 1.386 . S
C1256 C1258 1.391 . S
C1257 C1256 1.386 . S
C1257 C1261 1.393 . S
C1258 H1247 0.950 . S
C1258 C1256 1.391 . S
C1258 C1259 1.400 . S
C1259 C1253 1.491 . S
C1259 C1258 1.400 . S
C1259 C1260 1.398 . S
C1260 H1248 0.950 . S
C1260 C1259 1.398 . S
C1260 C1261 1.391 . S
C1261 H1249 0.950 . S
C1261 C1257 1.393 . S
C1261 C1260 1.391 . S
H1262 C1270 0.950 . S
H1263 C1275 0.950 . S
H1264 C1272 0.950 . S
H1265 C1274 0.950 . S
H1266 C1276 0.950 . S
H1267 C1278 0.950 . S
H1268 C1280 0.950 . S
H1269 C1281 0.950 . S
C1270 H1262 0.950 . S
C1270 C1271 1.386 . S
C1270 C1272 1.391 . S
C1271 C1270 1.386 . S
C1271 C1275 1.393 . S
C1272 H1264 0.950 . S
C1272 C1270 1.391 . S
C1272 C1273 1.400 . S
C1273 C1272 1.400 . S
C1273 C1274 1.398 . S
C1273 C1279 1.491 . S
C1274 H1265 0.950 . S
C1274 C1273 1.398 . S
C1274 C1275 1.391 . S
C1275 H1263 0.950 . S
C1275 C1271 1.393 . S
C1275 C1274 1.391 . S
C1276 H1266 0.950 . S
C1276 C1277 1.386 . S
C1276 C1278 1.391 . S
C1277 C1276 1.386 . S
C1277 C1281 1.393 . S
C1278 H1267 0.950 . S
C1278 C1276 1.391 . S
C1278 C1279 1.400 . S
C1279 C1273 1.491 . S
C1279 C1278 1.400 . S
C1279 C1280 1.398 . S
C1280 H1268 0.950 . S
C1280 C1279 1.398 . S
C1280 C1281 1.391 . S
C1281 H1269 0.950 . S
C1281 C1277 1.393 . S
C1281 C1280 1.391 . S
H1282 C1290 0.950 . S
H1283 C1295 0.950 . S
H1284 C1292 0.950 . S
H1285 C1294 0.950 . S
H1286 C1296 0.950 . S
H1287 C1298 0.950 . S
H1288 C1300 0.950 . S
H1289 C1301 0.950 . S
C1290 H1282 0.950 . S
C1290 C1291 1.386 . S
C1290 C1292 1.391 . S
C1291 C1290 1.386 . S
C1291 C1295 1.393 . S
C1292 H1284 0.950 . S
C1292 C1290 1.391 . S
C1292 C1293 1.400 . S
C1293 C1292 1.400 . S
C1293 C1294 1.398 . S
C1293 C1299 1.491 . S
C1294 H1285 0.950 . S
C1294 C1293 1.398 . S
C1294 C1295 1.391 . S
C1295 H1283 0.950 . S
C1295 C1291 1.393 . S
C1295 C1294 1.391 . S
C1296 H1286 0.950 . S
C1296 C1297 1.386 . S
C1296 C1298 1.391 . S
C1297 C1296 1.386 . S
C1297 C1301 1.393 . S
C1298 H1287 0.950 . S
C1298 C1296 1.391 . S
C1298 C1299 1.400 . S
C1299 C1293 1.491 . S
C1299 C1298 1.400 . S
C1299 C1300 1.398 . S
C1300 H1288 0.950 . S
C1300 C1299 1.398 . S
C1300 C1301 1.391 . S
C1301 H1289 0.950 . S
C1301 C1297 1.393 . S
C1301 C1300 1.391 . S
H1302 C1310 0.950 . S
H1303 C1315 0.950 . S
H1304 C1312 0.950 . S
H1305 C1314 0.950 . S
H1306 C1316 0.950 . S
H1307 C1318 0.950 . S
H1308 C1320 0.950 . S
H1309 C1321 0.950 . S
C1310 H1302 0.950 . S
C1310 C1311 1.386 . S
C1310 C1312 1.391 . S
C1311 C1310 1.386 . S
C1311 C1315 1.393 . S
C1312 H1304 0.950 . S
C1312 C1310 1.391 . S
C1312 C1313 1.400 . S
C1313 C1312 1.400 . S
C1313 C1314 1.398 . S
C1313 C1319 1.491 . S
C1314 H1305 0.950 . S
C1314 C1313 1.398 . S
C1314 C1315 1.391 . S
C1315 H1303 0.950 . S
C1315 C1311 1.393 . S
C1315 C1314 1.391 . S
C1316 H1306 0.950 . S
C1316 C1317 1.386 . S
C1316 C1318 1.391 . S
C1317 C1316 1.386 . S
C1317 C1321 1.393 . S
C1318 H1307 0.950 . S
C1318 C1316 1.391 . S
C1318 C1319 1.400 . S
C1319 C1313 1.491 . S
C1319 C1318 1.400 . S
C1319 C1320 1.398 . S
C1320 H1308 0.950 . S
C1320 C1319 1.398 . S
C1320 C1321 1.391 . S
C1321 H1309 0.950 . S
C1321 C1317 1.393 . S
C1321 C1320 1.391 . S
H1322 C1330 0.950 . S
H1323 C1335 0.950 . S
H1324 C1332 0.950 . S
H1325 C1334 0.950 . S
H1326 C1336 0.950 . S
H1327 C1338 0.950 . S
H1328 C1340 0.950 . S
H1329 C1341 0.950 . S
C1330 H1322 0.950 . S
C1330 C1331 1.386 . S
C1330 C1332 1.391 . S
C1331 C1330 1.386 . S
C1331 C1335 1.393 . S
C1332 H1324 0.950 . S
C1332 C1330 1.391 . S
C1332 C1333 1.400 . S
C1333 C1332 1.400 . S
C1333 C1334 1.398 . S
C1333 C1339 1.491 . S
C1334 H1325 0.950 . S
C1334 C1333 1.398 . S
C1334 C1335 1.391 . S
C1335 H1323 0.950 . S
C1335 C1331 1.393 . S
C1335 C1334 1.391 . S
C1336 H1326 0.950 . S
C1336 C1337 1.386 . S
C1336 C1338 1.391 . S
C1337 C1336 1.386 . S
C1337 C1341 1.393 . S
C1338 H1327 0.950 . S
C1338 C1336 1.391 . S
C1338 C1339 1.400 . S
C1339 C1333 1.491 . S
C1339 C1338 1.400 . S
C1339 C1340 1.398 . S
C1340 H1328 0.950 . S
C1340 C1339 1.398 . S
C1340 C1341 1.391 . S
C1341 H1329 0.950 . S
C1341 C1337 1.393 . S
C1341 C1340 1.391 . S
H1342 C1350 0.950 . S
H1343 C1355 0.950 . S
H1344 C1352 0.950 . S
H1345 C1354 0.950 . S
H1346 C1356 0.950 . S
H1347 C1358 0.950 . S
H1348 C1360 0.950 . S
H1349 C1361 0.950 . S
C1350 H1342 0.950 . S
C1350 C1351 1.386 . S
C1350 C1352 1.391 . S
C1351 C1350 1.386 . S
C1351 C1355 1.393 . S
C1352 H1344 0.950 . S
C1352 C1350 1.391 . S
C1352 C1353 1.400 . S
C1353 C1352 1.400 . S
C1353 C1354 1.398 . S
C1353 C1359 1.491 . S
C1354 H1345 0.950 . S
C1354 C1353 1.398 . S
C1354 C1355 1.391 . S
C1355 H1343 0.950 . S
C1355 C1351 1.393 . S
C1355 C1354 1.391 . S
C1356 H1346 0.950 . S
C1356 C1357 1.386 . S
C1356 C1358 1.391 . S
C1357 C1356 1.386 . S
C1357 C1361 1.393 . S
C1358 H1347 0.950 . S
C1358 C1356 1.391 . S
C1358 C1359 1.400 . S
C1359 C1353 1.491 . S
C1359 C1358 1.400 . S
C1359 C1360 1.398 . S
C1360 H1348 0.950 . S
C1360 C1359 1.398 . S
C1360 C1361 1.391 . S
C1361 H1349 0.950 . S
C1361 C1357 1.393 . S
C1361 C1360 1.391 . S
H1362 C1370 0.950 . S
H1363 C1375 0.950 . S
H1364 C1372 0.950 . S
H1365 C1374 0.950 . S
H1366 C1376 0.950 1_455 S
H1367 C1378 0.950 . S
H1368 C1380 0.950 . S
H1369 C1381 0.950 . S
C1370 H1362 0.950 . S
C1370 C1371 1.386 1_655 S
C1370 C1372 1.391 . S
C1371 C1370 1.386 1_455 S
C1371 C1375 1.393 . S
C1372 H1364 0.950 . S
C1372 C1370 1.391 . S
C1372 C1373 1.400 . S
C1373 C1372 1.400 . S
C1373 C1374 1.398 1_655 S
C1373 C1379 1.491 . S
C1374 H1365 0.950 . S
C1374 C1373 1.398 1_455 S
C1374 C1375 1.391 . S
C1375 H1363 0.950 . S
C1375 C1371 1.393 . S
C1375 C1374 1.391 . S
C1376 H1366 0.950 1_655 S
C1376 C1377 1.386 . S
C1376 C1378 1.391 1_655 S
C1377 C1376 1.386 . S
C1377 C1381 1.393 . S
C1378 H1367 0.950 . S
C1378 C1376 1.391 1_455 S
C1378 C1379 1.400 1_455 S
C1379 C1373 1.491 . S
C1379 C1378 1.400 1_655 S
C1379 C1380 1.398 . S
C1380 H1368 0.950 . S
C1380 C1379 1.398 . S
C1380 C1381 1.391 . S
C1381 H1369 0.950 . S
C1381 C1377 1.393 . S
C1381 C1380 1.391 . S
H1382 C1390 0.950 . S
H1383 C1395 0.950 . S
H1384 C1392 0.950 . S
H1385 C1394 0.950 . S
H1386 C1396 0.950 . S
H1387 C1398 0.950 . S
H1388 C1400 0.950 . S
H1389 C1401 0.950 . S
C1390 H1382 0.950 . S
C1390 C1391 1.386 . S
C1390 C1392 1.391 . S
C1391 C1390 1.386 . S
C1391 C1395 1.393 . S
C1392 H1384 0.950 . S
C1392 C1390 1.391 . S
C1392 C1393 1.400 . S
C1393 C1392 1.400 . S
C1393 C1394 1.398 . S
C1393 C1399 1.491 . S
C1394 H1385 0.950 . S
C1394 C1393 1.398 . S
C1394 C1395 1.391 . S
C1395 H1383 0.950 . S
C1395 C1391 1.393 . S
C1395 C1394 1.391 . S
C1396 H1386 0.950 . S
C1396 C1397 1.386 . S
C1396 C1398 1.391 . S
C1397 C1396 1.386 . S
C1397 C1401 1.393 . S
C1398 H1387 0.950 . S
C1398 C1396 1.391 . S
C1398 C1399 1.400 . S
C1399 C1393 1.491 . S
C1399 C1398 1.400 . S
C1399 C1400 1.398 . S
C1400 H1388 0.950 . S
C1400 C1399 1.398 . S
C1400 C1401 1.391 . S
C1401 H1389 0.950 . S
C1401 C1397 1.393 . S
C1401 C1400 1.391 . S
H1402 C1410 0.950 . S
H1403 C1415 0.923 1_565 S
H1404 C1412 0.950 . S
H1405 C1414 0.966 . S
H1406 C1416 0.950 . S
H1407 C1418 0.950 . S
H1408 C1420 0.950 . S
H1409 C1421 0.950 . S
C1410 H1402 0.950 . S
C1410 C1411 1.386 . S
C1410 C1412 1.391 . S
C1411 C1410 1.386 . S
C1411 C1415 1.393 . S
C1412 H1404 0.950 . S
C1412 C1410 1.391 . S
C1412 C1413 1.400 . S
C1413 C1412 1.400 . S
C1413 C1414 1.382 1_545 S
C1413 C1419 1.490 . S
C1414 H1405 0.966 . S
C1414 C1413 1.382 1_565 S
C1414 C1415 1.392 1_565 S
C1415 H1403 0.923 1_545 S
C1415 C1411 1.393 . S
C1415 C1414 1.392 1_545 S
C1416 H1406 0.950 . S
C1416 C1417 1.386 . S
C1416 C1418 1.391 . S
C1417 C1416 1.386 . S
C1417 C1421 1.393 1_565 S
C1418 H1407 0.950 . S
C1418 C1416 1.391 . S
C1418 C1419 1.378 1_565 S
C1419 C1413 1.490 . S
C1419 C1418 1.378 1_545 S
C1419 C1420 1.422 . S
C1420 H1408 0.950 . S
C1420 C1419 1.422 . S
C1420 C1421 1.391 . S
C1421 H1409 0.950 . S
C1421 C1417 1.393 1_545 S
C1421 C1420 1.391 . S
H1422 C1430 0.950 . S
H1423 C1435 0.950 1_556 S
H1424 C1432 0.950 . S
H1425 C1434 0.950 . S
H1426 C1436 0.950 . S
H1427 C1438 0.950 . S
H1428 C1440 0.950 . S
H1429 C1441 0.962 . S
C1430 H1422 0.950 . S
C1430 C1431 1.386 . S
C1430 C1432 1.391 . S
C1431 C1430 1.386 . S
C1431 C1435 1.393 . S
C1432 H1424 0.950 . S
C1432 C1430 1.391 . S
C1432 C1433 1.400 . S
C1433 C1432 1.400 . S
C1433 C1434 1.398 1_554 S
C1433 C1439 1.491 1_554 S
C1434 H1425 0.950 . S
C1434 C1433 1.398 1_556 S
C1434 C1435 1.391 1_556 S
C1435 H1423 0.950 1_554 S
C1435 C1431 1.393 . S
C1435 C1434 1.391 1_554 S
C1436 H1426 0.950 . S
C1436 C1437 1.386 . S
C1436 C1438 1.391 . S
C1437 C1436 1.386 . S
C1437 C1441 1.393 . S
C1438 H1427 0.950 . S
C1438 C1436 1.391 . S
C1438 C1439 1.400 . S
C1439 C1433 1.491 1_556 S
C1439 C1438 1.400 . S
C1439 C1440 1.398 1_556 S
C1440 H1428 0.950 . S
C1440 C1439 1.398 1_554 S
C1440 C1441 1.391 1_554 S
C1441 H1429 0.962 . S
C1441 C1437 1.393 . S
C1441 C1440 1.391 1_556 S
H1442 C1450 0.950 . S
H1443 C1455 0.950 1_655 S
H1444 C1452 0.950 . S
H1445 C1454 0.950 . S
H1446 C1456 0.950 . S
H1447 C1458 0.950 . S
H1448 C1460 0.950 . S
H1449 C1461 0.950 . S
C1450 H1442 0.950 . S
C1450 C1451 1.399 . S
C1450 C1452 1.391 . S
C1451 C1450 1.399 . S
C1451 C1455 1.374 1_554 S
C1452 H1444 0.950 . S
C1452 C1450 1.391 . S
C1452 C1453 1.400 1_554 S
C1453 C1452 1.400 1_556 S
C1453 C1454 1.398 . S
C1453 C1459 1.491 . S
C1454 H1445 0.950 . S
C1454 C1453 1.398 . S
C1454 C1455 1.391 . S
C1455 H1443 0.950 1_455 S
C1455 C1451 1.374 1_556 S
C1455 C1454 1.391 . S
C1456 H1446 0.950 . S
C1456 C1457 1.386 . S
C1456 C1458 1.391 . S
C1457 C1456 1.386 . S
C1457 C1461 1.393 . S
C1458 H1447 0.950 . S
C1458 C1456 1.391 . S
C1458 C1459 1.400 . S
C1459 C1453 1.491 . S
C1459 C1458 1.400 . S
C1459 C1460 1.398 . S
C1460 H1448 0.950 . S
C1460 C1459 1.398 . S
C1460 C1461 1.391 . S
C1461 H1449 0.950 . S
C1461 C1457 1.393 . S
C1461 C1460 1.391 . S
H1462 C1470 0.950 . S
H1463 C1475 0.950 . S
H1464 C1472 0.950 . S
H1465 C1474 0.950 1_556 S
H1466 C1476 0.950 . S
H1467 C1478 0.950 . S
H1468 C1480 0.950 . S
H1469 C1481 0.941 1_554 S
C1470 H1462 0.950 . S
C1470 C1471 1.386 . S
C1470 C1472 1.391 . S
C1471 C1470 1.386 . S
C1471 C1475 1.393 . S
C1472 H1464 0.950 . S
C1472 C1470 1.391 . S
C1472 C1473 1.400 . S
C1473 C1472 1.400 . S
C1473 C1474 1.398 . S
C1473 C1479 1.491 . S
C1474 H1465 0.950 1_554 S
C1474 C1473 1.398 . S
C1474 C1475 1.391 . S
C1475 H1463 0.950 . S
C1475 C1471 1.393 . S
C1475 C1474 1.391 . S
C1476 H1466 0.950 . S
C1476 C1477 1.386 . S
C1476 C1478 1.391 . S
C1477 C1476 1.386 . S
C1477 C1481 1.417 . S
C1478 H1467 0.950 . S
C1478 C1476 1.391 . S
C1478 C1479 1.400 1_556 S
C1479 C1473 1.491 . S
C1479 C1478 1.400 1_554 S
C1479 C1480 1.398 . S
C1480 H1468 0.950 . S
C1480 C1479 1.398 . S
C1480 C1481 1.376 1_554 S
C1481 H1469 0.941 1_556 S
C1481 C1477 1.417 . S
C1481 C1480 1.376 1_556 S
H1482 C1490 0.950 1_554 S
H1483 C1495 0.950 1_565 S
H1484 C1492 0.941 1_554 S
H1485 C1494 0.950 . S
H1486 C1496 0.950 . S
H1487 C1498 0.950 . S
H1488 C1500 0.950 . S
H1489 C1501 0.950 . S
C1490 H1482 0.950 1_556 S
C1490 C1491 1.386 . S
C1490 C1492 1.394 1_565 S
C1491 C1490 1.386 . S
C1491 C1495 1.393 1_565 S
C1492 H1484 0.941 1_556 S
C1492 C1490 1.394 1_545 S
C1492 C1493 1.407 . S
C1493 C1492 1.407 . S
C1493 C1494 1.398 . S
C1493 C1499 1.491 . S
C1494 H1485 0.950 . S
C1494 C1493 1.398 . S
C1494 C1495 1.391 . S
C1495 H1483 0.950 1_545 S
C1495 C1491 1.393 1_545 S
C1495 C1494 1.391 . S
C1496 H1486 0.950 . S
C1496 C1497 1.386 . S
C1496 C1498 1.391 . S
C1497 C1496 1.386 . S
C1497 C1501 1.393 1_556 S
C1498 H1487 0.950 . S
C1498 C1496 1.391 . S
C1498 C1499 1.400 . S
C1499 C1493 1.491 . S
C1499 C1498 1.400 . S
C1499 C1500 1.398 1_556 S
C1500 H1488 0.950 . S
C1500 C1499 1.398 1_554 S
C1500 C1501 1.391 . S
C1501 H1489 0.950 . S
C1501 C1497 1.393 1_554 S
C1501 C1500 1.391 . S
H1502 C1510 0.950 . S
H1503 C1515 0.950 . S
H1504 C1512 0.950 . S
H1505 C1514 0.950 . S
H1506 C1516 0.950 . S
H1507 C1518 0.950 . S
H1508 C1520 0.950 . S
H1509 C1521 0.950 1_455 S
C1510 H1502 0.950 . S
C1510 C1511 1.386 . S
C1510 C1512 1.391 . S
C1511 C1510 1.386 . S
C1511 C1515 1.393 . S
C1512 H1504 0.950 . S
C1512 C1510 1.391 . S
C1512 C1513 1.400 . S
C1513 C1512 1.400 . S
C1513 C1514 1.398 . S
C1513 C1519 1.491 1_554 S
C1514 H1505 0.950 . S
C1514 C1513 1.398 . S
C1514 C1515 1.391 . S
C1515 H1503 0.950 . S
C1515 C1511 1.393 . S
C1515 C1514 1.391 . S
C1516 H1506 0.950 . S
C1516 C1517 1.392 . S
C1516 C1518 1.391 . S
C1517 C1516 1.392 . S
C1517 C1521 1.401 . S
C1518 H1507 0.950 . S
C1518 C1516 1.391 . S
C1518 C1519 1.400 . S
C1519 C1513 1.491 1_556 S
C1519 C1518 1.400 . S
C1519 C1520 1.398 . S
C1520 H1508 0.950 . S
C1520 C1519 1.398 . S
C1520 C1521 1.391 . S
C1521 H1509 0.950 1_655 S
C1521 C1517 1.401 . S
C1521 C1520 1.391 . S
H1522 C1530 0.950 . S
H1523 C1535 0.950 . S
H1524 C1532 0.946 1_554 S
H1525 C1534 0.944 1_554 S
H1526 C1536 0.950 . S
H1527 C1538 0.950 . S
H1528 C1540 0.950 . S
H1529 C1541 0.950 . S
C1530 H1522 0.950 . S
C1530 C1531 1.386 . S
C1530 C1532 1.391 . S
C1531 C1530 1.386 . S
C1531 C1535 1.393 . S
C1532 H1524 0.946 1_556 S
C1532 C1530 1.391 . S
C1532 C1533 1.400 1_556 S
C1533 C1532 1.400 1_554 S
C1533 C1534 1.393 1_554 S
C1533 C1539 1.491 . S
C1534 H1525 0.944 1_556 S
C1534 C1533 1.393 1_556 S
C1534 C1535 1.403 . S
C1535 H1523 0.950 . S
C1535 C1531 1.393 . S
C1535 C1534 1.403 . S
C1536 H1526 0.950 . S
C1536 C1537 1.386 . S
C1536 C1538 1.391 . S
C1537 C1536 1.386 . S
C1537 C1541 1.393 . S
C1538 H1527 0.950 . S
C1538 C1536 1.391 . S
C1538 C1539 1.400 . S
C1539 C1533 1.491 . S
C1539 C1538 1.400 . S
C1539 C1540 1.398 . S
C1540 H1528 0.950 . S
C1540 C1539 1.398 . S
C1540 C1541 1.391 . S
C1541 H1529 0.950 . S
C1541 C1537 1.393 . S
C1541 C1540 1.391 . S
H1542 C1550 0.950 . S
H1543 C1555 0.950 . S
H1544 C1552 0.950 . S
H1545 C1554 0.950 . S
H1546 C1556 0.950 . S
H1547 C1558 0.950 . S
H1548 C1560 0.950 . S
H1549 C1561 0.950 . S
C1550 H1542 0.950 . S
C1550 C1551 1.386 . S
C1550 C1552 1.391 . S
C1551 C1550 1.386 . S
C1551 C1555 1.393 . S
C1552 H1544 0.950 . S
C1552 C1550 1.391 . S
C1552 C1553 1.400 . S
C1553 C1552 1.400 . S
C1553 C1554 1.398 . S
C1553 C1559 1.491 . S
C1554 H1545 0.950 . S
C1554 C1553 1.398 . S
C1554 C1555 1.391 . S
C1555 H1543 0.950 . S
C1555 C1551 1.393 . S
C1555 C1554 1.391 . S
C1556 H1546 0.950 . S
C1556 C1557 1.386 . S
C1556 C1558 1.391 . S
C1557 C1556 1.386 . S
C1557 C1561 1.393 . S
C1558 H1547 0.950 . S
C1558 C1556 1.391 . S
C1558 C1559 1.400 . S
C1559 C1553 1.491 . S
C1559 C1558 1.400 . S
C1559 C1560 1.398 . S
C1560 H1548 0.950 . S
C1560 C1559 1.398 . S
C1560 C1561 1.391 . S
C1561 H1549 0.950 . S
C1561 C1557 1.393 . S
C1561 C1560 1.391 . S
H1562 C1570 0.950 . S
H1563 C1575 0.950 . S
H1564 C1572 0.950 . S
H1565 C1574 0.950 . S
H1566 C1576 0.950 . S
H1567 C1578 0.950 . S
H1568 C1580 0.950 . S
H1569 C1581 0.950 . S
C1570 H1562 0.950 . S
C1570 C1571 1.386 . S
C1570 C1572 1.391 . S
C1571 C1570 1.386 . S
C1571 C1575 1.393 . S
C1572 H1564 0.950 . S
C1572 C1570 1.391 . S
C1572 C1573 1.400 . S
C1573 C1572 1.400 . S
C1573 C1574 1.398 . S
C1573 C1579 1.491 . S
C1574 H1565 0.950 . S
C1574 C1573 1.398 . S
C1574 C1575 1.391 . S
C1575 H1563 0.950 . S
C1575 C1571 1.393 . S
C1575 C1574 1.391 . S
C1576 H1566 0.950 . S
C1576 C1577 1.386 . S
C1576 C1578 1.391 . S
C1577 C1576 1.386 . S
C1577 C1581 1.393 . S
C1578 H1567 0.950 . S
C1578 C1576 1.391 . S
C1578 C1579 1.400 . S
C1579 C1573 1.491 . S
C1579 C1578 1.400 . S
C1579 C1580 1.398 . S
C1580 H1568 0.950 . S
C1580 C1579 1.398 . S
C1580 C1581 1.391 . S
C1581 H1569 0.950 . S
C1581 C1577 1.393 . S
C1581 C1580 1.391 . S
H1582 C1590 0.950 . S
H1583 C1595 0.950 . S
H1584 C1592 0.950 . S
H1585 C1594 0.950 . S
H1586 C1596 0.950 . S
H1587 C1598 0.950 . S
H1588 C1600 0.950 . S
H1589 C1601 0.950 . S
C1590 H1582 0.950 . S
C1590 C1591 1.386 . S
C1590 C1592 1.391 . S
C1591 C1590 1.386 . S
C1591 C1595 1.393 . S
C1592 H1584 0.950 . S
C1592 C1590 1.391 . S
C1592 C1593 1.400 . S
C1593 C1592 1.400 . S
C1593 C1594 1.398 . S
C1593 C1599 1.491 . S
C1594 H1585 0.950 . S
C1594 C1593 1.398 . S
C1594 C1595 1.391 . S
C1595 H1583 0.950 . S
C1595 C1591 1.393 . S
C1595 C1594 1.391 . S
C1596 H1586 0.950 . S
C1596 C1597 1.386 . S
C1596 C1598 1.391 . S
C1597 C1596 1.386 . S
C1597 C1601 1.393 . S
C1598 H1587 0.950 . S
C1598 C1596 1.391 . S
C1598 C1599 1.400 . S
C1599 C1593 1.491 . S
C1599 C1598 1.400 . S
C1599 C1600 1.398 . S
C1600 H1588 0.950 . S
C1600 C1599 1.398 . S
C1600 C1601 1.391 . S
C1601 H1589 0.950 . S
C1601 C1597 1.393 . S
C1601 C1600 1.391 . S
H1602 C1610 0.950 . S
H1603 C1615 0.950 . S
H1604 C1612 0.950 . S
H1605 C1614 0.950 . S
H1606 C1616 0.950 . S
H1607 C1618 0.950 . S
H1608 C1620 0.950 . S
H1609 C1621 0.950 . S
C1610 H1602 0.950 . S
C1610 C1611 1.386 . S
C1610 C1612 1.391 . S
C1611 C1610 1.386 . S
C1611 C1615 1.393 . S
C1612 H1604 0.950 . S
C1612 C1610 1.391 . S
C1612 C1613 1.400 . S
C1613 C1612 1.400 . S
C1613 C1614 1.398 . S
C1613 C1619 1.491 . S
C1614 H1605 0.950 . S
C1614 C1613 1.398 . S
C1614 C1615 1.391 . S
C1615 H1603 0.950 . S
C1615 C1611 1.393 . S
C1615 C1614 1.391 . S
C1616 H1606 0.950 . S
C1616 C1617 1.386 . S
C1616 C1618 1.391 . S
C1617 C1616 1.386 . S
C1617 C1621 1.393 . S
C1618 H1607 0.950 . S
C1618 C1616 1.391 . S
C1618 C1619 1.400 . S
C1619 C1613 1.491 . S
C1619 C1618 1.400 . S
C1619 C1620 1.398 . S
C1620 H1608 0.950 . S
C1620 C1619 1.398 . S
C1620 C1621 1.391 . S
C1621 H1609 0.950 . S
C1621 C1617 1.393 . S
C1621 C1620 1.391 . S
H1622 C1630 0.950 . S
H1623 C1635 0.950 . S
H1624 C1632 0.950 . S
H1625 C1634 0.950 . S
H1626 C1636 0.950 . S
H1627 C1638 0.950 . S
H1628 C1640 0.950 . S
H1629 C1641 0.950 . S
C1630 H1622 0.950 . S
C1630 C1631 1.386 . S
C1630 C1632 1.391 . S
C1631 C1630 1.386 . S
C1631 C1635 1.393 . S
C1632 H1624 0.950 . S
C1632 C1630 1.391 . S
C1632 C1633 1.400 . S
C1633 C1632 1.400 . S
C1633 C1634 1.398 . S
C1633 C1639 1.491 . S
C1634 H1625 0.950 . S
C1634 C1633 1.398 . S
C1634 C1635 1.391 . S
C1635 H1623 0.950 . S
C1635 C1631 1.393 . S
C1635 C1634 1.391 . S
C1636 H1626 0.950 . S
C1636 C1637 1.386 . S
C1636 C1638 1.391 . S
C1637 C1636 1.386 . S
C1637 C1641 1.393 . S
C1638 H1627 0.950 . S
C1638 C1636 1.391 . S
C1638 C1639 1.400 . S
C1639 C1633 1.491 . S
C1639 C1638 1.400 . S
C1639 C1640 1.398 . S
C1640 H1628 0.950 . S
C1640 C1639 1.398 . S
C1640 C1641 1.391 . S
C1641 H1629 0.950 . S
C1641 C1637 1.393 . S
C1641 C1640 1.391 . S
H1642 C1650 0.950 1_455 S
H1643 C1655 0.950 . S
H1644 C1652 0.950 . S
H1645 C1654 0.950 . S
H1646 C1656 0.950 . S
H1647 C1658 0.950 . S
H1648 C1660 0.950 . S
H1649 C1661 0.950 . S
C1650 H1642 0.950 1_655 S
C1650 C1651 1.386 . S
C1650 C1652 1.391 1_655 S
C1651 C1650 1.386 . S
C1651 C1655 1.393 . S
C1652 H1644 0.950 . S
C1652 C1650 1.391 1_455 S
C1652 C1653 1.400 1_455 S
C1653 C1652 1.400 1_655 S
C1653 C1654 1.398 . S
C1653 C1659 1.491 . S
C1654 H1645 0.950 . S
C1654 C1653 1.398 . S
C1654 C1655 1.391 . S
C1655 H1643 0.950 . S
C1655 C1651 1.393 . S
C1655 C1654 1.391 . S
C1656 H1646 0.950 . S
C1656 C1657 1.386 . S
C1656 C1658 1.391 . S
C1657 C1656 1.386 . S
C1657 C1661 1.393 1_655 S
C1658 H1647 0.950 . S
C1658 C1656 1.391 . S
C1658 C1659 1.400 . S
C1659 C1653 1.491 . S
C1659 C1658 1.400 . S
C1659 C1660 1.398 1_655 S
C1660 H1648 0.950 . S
C1660 C1659 1.398 1_455 S
C1660 C1661 1.391 . S
C1661 H1649 0.950 . S
C1661 C1657 1.393 1_455 S
C1661 C1660 1.391 . S
H1662 C1670 0.950 . S
H1663 C1675 0.950 . S
H1664 C1672 0.950 . S
H1665 C1674 0.950 . S
H1666 C1676 0.950 . S
H1667 C1678 0.950 . S
H1668 C1680 0.950 . S
H1669 C1681 0.950 . S
C1670 H1662 0.950 . S
C1670 C1671 1.386 . S
C1670 C1672 1.391 . S
C1671 C1670 1.386 . S
C1671 C1675 1.393 . S
C1672 H1664 0.950 . S
C1672 C1670 1.391 . S
C1672 C1673 1.400 . S
C1673 C1672 1.400 . S
C1673 C1674 1.398 . S
C1673 C1679 1.491 . S
C1674 H1665 0.950 . S
C1674 C1673 1.398 . S
C1674 C1675 1.391 . S
C1675 H1663 0.950 . S
C1675 C1671 1.393 . S
C1675 C1674 1.391 . S
C1676 H1666 0.950 . S
C1676 C1677 1.386 . S
C1676 C1678 1.391 . S
C1677 C1676 1.386 . S
C1677 C1681 1.393 . S
C1678 H1667 0.950 . S
C1678 C1676 1.391 . S
C1678 C1679 1.400 . S
C1679 C1673 1.491 . S
C1679 C1678 1.400 . S
C1679 C1680 1.398 . S
C1680 H1668 0.950 . S
C1680 C1679 1.398 . S
C1680 C1681 1.391 . S
C1681 H1669 0.950 . S
C1681 C1677 1.393 . S
C1681 C1680 1.391 . S
H1682 C1690 0.950 . S
H1683 C1695 0.950 . S
H1684 C1692 0.950 . S
H1685 C1694 0.950 . S
H1686 C1696 0.950 . S
H1687 C1698 0.950 . S
H1688 C1700 0.950 . S
H1689 C1701 0.950 . S
C1690 H1682 0.950 . S
C1690 C1691 1.386 . S
C1690 C1692 1.391 . S
C1691 C1690 1.386 . S
C1691 C1695 1.393 . S
C1692 H1684 0.950 . S
C1692 C1690 1.391 . S
C1692 C1693 1.400 . S
C1693 C1692 1.400 . S
C1693 C1694 1.398 . S
C1693 C1699 1.491 . S
C1694 H1685 0.950 . S
C1694 C1693 1.398 . S
C1694 C1695 1.391 . S
C1695 H1683 0.950 . S
C1695 C1691 1.393 . S
C1695 C1694 1.391 . S
C1696 H1686 0.950 . S
C1696 C1697 1.386 . S
C1696 C1698 1.391 . S
C1697 C1696 1.386 . S
C1697 C1701 1.393 . S
C1698 H1687 0.950 . S
C1698 C1696 1.391 . S
C1698 C1699 1.400 . S
C1699 C1693 1.491 . S
C1699 C1698 1.400 . S
C1699 C1700 1.398 . S
C1700 H1688 0.950 . S
C1700 C1699 1.398 . S
C1700 C1701 1.391 . S
C1701 H1689 0.950 . S
C1701 C1697 1.393 . S
C1701 C1700 1.391 . S
H1702 C1710 0.950 . S
H1703 C1715 0.950 . S
H1704 C1712 0.950 . S
H1705 C1714 0.950 . S
H1706 C1716 0.950 . S
H1707 C1718 0.950 . S
H1708 C1720 0.950 1_655 S
H1709 C1721 0.950 1_655 S
C1710 H1702 0.950 . S
C1710 C1711 1.386 . S
C1710 C1712 1.391 . S
C1711 C1710 1.386 . S
C1711 C1715 1.393 . S
C1712 H1704 0.950 . S
C1712 C1710 1.391 . S
C1712 C1713 1.400 . S
C1713 C1712 1.400 . S
C1713 C1714 1.398 . S
C1713 C1719 1.491 . S
C1714 H1705 0.950 . S
C1714 C1713 1.398 . S
C1714 C1715 1.391 . S
C1715 H1703 0.950 . S
C1715 C1711 1.393 . S
C1715 C1714 1.391 . S
C1716 H1706 0.950 . S
C1716 C1717 1.386 . S
C1716 C1718 1.391 . S
C1717 C1716 1.386 . S
C1717 C1721 1.393 . S
C1718 H1707 0.950 . S
C1718 C1716 1.391 . S
C1718 C1719 1.400 . S
C1719 C1713 1.491 . S
C1719 C1718 1.400 . S
C1719 C1720 1.398 . S
C1720 H1708 0.950 1_455 S
C1720 C1719 1.398 . S
C1720 C1721 1.391 . S
C1721 H1709 0.950 1_455 S
C1721 C1717 1.393 . S
C1721 C1720 1.391 . S
H1722 C1730 0.950 . S
H1723 C1735 0.950 . S
H1724 C1732 0.950 . S
H1725 C1734 0.950 . S
H1726 C1736 0.950 . S
H1727 C1738 0.950 . S
H1728 C1740 0.950 . S
H1729 C1741 0.950 . S
C1730 H1722 0.950 . S
C1730 C1731 1.386 . S
C1730 C1732 1.391 . S
C1731 C1730 1.386 . S
C1731 C1735 1.393 . S
C1732 H1724 0.950 . S
C1732 C1730 1.391 . S
C1732 C1733 1.400 . S
C1733 C1732 1.400 . S
C1733 C1734 1.398 . S
C1733 C1739 1.491 . S
C1734 H1725 0.950 . S
C1734 C1733 1.398 . S
C1734 C1735 1.391 . S
C1735 H1723 0.950 . S
C1735 C1731 1.393 . S
C1735 C1734 1.391 . S
C1736 H1726 0.950 . S
C1736 C1737 1.386 . S
C1736 C1738 1.391 . S
C1737 C1736 1.386 . S
C1737 C1741 1.393 . S
C1738 H1727 0.950 . S
C1738 C1736 1.391 . S
C1738 C1739 1.400 . S
C1739 C1733 1.491 . S
C1739 C1738 1.400 . S
C1739 C1740 1.398 . S
C1740 H1728 0.950 . S
C1740 C1739 1.398 . S
C1740 C1741 1.391 . S
C1741 H1729 0.950 . S
C1741 C1737 1.393 . S
C1741 C1740 1.391 . S
H1742 C1750 0.950 . S
H1743 C1755 0.950 . S
H1744 C1752 0.950 . S
H1745 C1754 0.950 . S
H1746 C1756 0.950 . S
H1747 C1758 0.950 . S
H1748 C1760 0.950 . S
H1749 C1761 0.950 . S
C1750 H1742 0.950 . S
C1750 C1751 1.386 . S
C1750 C1752 1.391 . S
C1751 C1750 1.386 . S
C1751 C1755 1.393 . S
C1752 H1744 0.950 . S
C1752 C1750 1.391 . S
C1752 C1753 1.400 . S
C1753 C1752 1.400 . S
C1753 C1754 1.398 . S
C1753 C1759 1.491 . S
C1754 H1745 0.950 . S
C1754 C1753 1.398 . S
C1754 C1755 1.391 . S
C1755 H1743 0.950 . S
C1755 C1751 1.393 . S
C1755 C1754 1.391 . S
C1756 H1746 0.950 . S
C1756 C1757 1.386 . S
C1756 C1758 1.391 . S
C1757 C1756 1.386 . S
C1757 C1761 1.393 . S
C1758 H1747 0.950 . S
C1758 C1756 1.391 . S
C1758 C1759 1.400 . S
C1759 C1753 1.491 . S
C1759 C1758 1.400 . S
C1759 C1760 1.398 . S
C1760 H1748 0.950 . S
C1760 C1759 1.398 . S
C1760 C1761 1.391 . S
C1761 H1749 0.950 . S
C1761 C1757 1.393 . S
C1761 C1760 1.391 . S
H1762 C1770 0.950 . S
H1763 C1775 0.950 . S
H1764 C1772 0.950 . S
H1765 C1774 0.950 . S
H1766 C1776 0.950 . S
H1767 C1778 0.950 . S
H1768 C1780 0.950 . S
H1769 C1781 0.950 . S
C1770 H1762 0.950 . S
C1770 C1771 1.386 . S
C1770 C1772 1.391 . S
C1771 C1770 1.386 . S
C1771 C1775 1.393 . S
C1772 H1764 0.950 . S
C1772 C1770 1.391 . S
C1772 C1773 1.400 . S
C1773 C1772 1.400 . S
C1773 C1774 1.398 . S
C1773 C1779 1.491 . S
C1774 H1765 0.950 . S
C1774 C1773 1.398 . S
C1774 C1775 1.391 . S
C1775 H1763 0.950 . S
C1775 C1771 1.393 . S
C1775 C1774 1.391 . S
C1776 H1766 0.950 . S
C1776 C1777 1.386 . S
C1776 C1778 1.391 . S
C1777 C1776 1.386 . S
C1777 C1781 1.393 . S
C1778 H1767 0.950 . S
C1778 C1776 1.391 . S
C1778 C1779 1.400 . S
C1779 C1773 1.491 . S
C1779 C1778 1.400 . S
C1779 C1780 1.398 . S
C1780 H1768 0.950 . S
C1780 C1779 1.398 . S
C1780 C1781 1.391 . S
C1781 H1769 0.950 . S
C1781 C1777 1.393 . S
C1781 C1780 1.391 . S
C1071 C33 2.270 1_565 S
C1077 C210 2.267 . S
C1091 C92 2.325 . S
C1097 C269 2.317 . S
C1111 C298 2.376 . S
C1117 C151 2.328 . S
C1131 C387 2.263 . S
C1137 C564 2.259 . S
C1151 C446 2.325 . S
C1157 C623 2.319 . S
C1171 C652 2.373 . S
C1177 C505 2.324 . S
C1191 C918 2.259 . S
C1197 C741 2.261 . S
C1211 C977 2.315 . S
C1217 C800 2.323 . S
C1231 C1006 2.375 . S
C1237 C859 2.327 . S
C1251 C5 1.687 . S
C1257 C536 1.694 . S
C1271 C64 1.896 . S
C1277 C595 1.908 . S
C1291 C701 1.812 . S
C1297 C123 1.819 . S
C1311 C182 1.716 . S
C1317 C713 1.710 . S
C1331 C241 1.891 . S
C1337 C772 1.879 . S
C1351 C347 1.793 . S
C1357 C831 1.800 . S
C1371 C359 1.710 . S
C1377 C890 1.715 . S
C1391 C418 1.887 . S
C1397 C949 1.899 . S
C1411 C1055 1.812 . S
C1417 C477 1.819 . S
C1431 C52 0.292 . S
C1437 C239 0.310 . S
C1451 C111 0.735 1_455 S
C1457 C328 0.726 . S
C1471 C170 0.269 . S
C1477 C180 0.269 . S
C1491 C229 0.486 . S
C1497 C62 0.481 1_556 S
C1511 C121 0.583 . S
C1517 C288 0.554 1_655 S
C1531 C300 0.445 . S
C1537 C3 0.430 . S
C1551 C406 0.308 . S
C1557 C593 0.293 . S
C1571 C682 0.731 . S
C1577 C465 0.730 . S
C1591 C534 0.307 . S
C1597 C524 0.273 . S
C1611 C416 0.489 . S
C1617 C583 0.484 . S
C1631 C642 0.586 . S
C1637 C475 0.569 . S
C1651 C654 0.444 . S
C1657 C357 0.429 . S
C1671 C947 0.292 . S
C1677 C760 0.303 . S
C1691 C1036 0.738 . S
C1697 C819 0.743 . S
C1711 C878 0.293 . S
C1717 C888 0.305 . S
C1731 C770 0.481 . S
C1737 C937 0.505 . S
C1751 C829 0.555 . S
C1757 C996 0.564 . S
C1771 C711 0.429 . S
C1777 C1008 0.442 . S
