# Generated by pormake.
# Topology uml, (4)-cn, num edge types: 1
# Building blocks:
#     Node 0, Type 0, BuildingBlock: GALJAG_clean_sbu_0, # of connection points: 4
#     Node 1, Type 0, BuildingBlock: GALJAG_clean_sbu_0, # of connection points: 4
#     Node 2, Type 0, BuildingBlock: GALJAG_clean_sbu_0, # of connection points: 4
#     Node 3, Type 0, BuildingBlock: GALJAG_clean_sbu_0, # of connection points: 4
#     Node 4, Type 0, BuildingBlock: GALJAG_clean_sbu_0, # of connection points: 4
#     Node 5, Type 0, BuildingBlock: GALJAG_clean_sbu_0, # of connection points: 4
#     Node 6, Type 0, BuildingBlock: GALJAG_clean_sbu_0, # of connection points: 4
#     Node 7, Type 0, BuildingBlock: GALJAG_clean_sbu_0, # of connection points: 4
#     Node 8, Type 0, BuildingBlock: GALJAG_clean_sbu_0, # of connection points: 4
#     Node 9, Type 0, BuildingBlock: GALJAG_clean_sbu_0, # of connection points: 4
#     Node 10, Type 0, BuildingBlock: GALJAG_clean_sbu_0, # of connection points: 4
#     Node 11, Type 0, BuildingBlock: GALJAG_clean_sbu_0, # of connection points: 4
#     Node 12, Type 0, BuildingBlock: GALJAG_clean_sbu_0, # of connection points: 4
#     Node 13, Type 0, BuildingBlock: GALJAG_clean_sbu_0, # of connection points: 4
#     Node 14, Type 0, BuildingBlock: GALJAG_clean_sbu_0, # of connection points: 4
#     Node 15, Type 0, BuildingBlock: GALJAG_clean_sbu_0, # of connection points: 4
#     Node 16, Type 0, BuildingBlock: GALJAG_clean_sbu_0, # of connection points: 4
#     Node 17, Type 0, BuildingBlock: GALJAG_clean_sbu_0, # of connection points: 4
#     Node 18, Type 0, BuildingBlock: GALJAG_clean_sbu_0, # of connection points: 4
#     Node 19, Type 0, BuildingBlock: GALJAG_clean_sbu_0, # of connection points: 4
#     Node 20, Type 0, BuildingBlock: GALJAG_clean_sbu_0, # of connection points: 4
#     Node 21, Type 0, BuildingBlock: GALJAG_clean_sbu_0, # of connection points: 4
#     Node 22, Type 0, BuildingBlock: GALJAG_clean_sbu_0, # of connection points: 4
#     Node 23, Type 0, BuildingBlock: GALJAG_clean_sbu_0, # of connection points: 4
#     Node 24, Type 0, BuildingBlock: GALJAG_clean_sbu_0, # of connection points: 4
#     Node 25, Type 0, BuildingBlock: GALJAG_clean_sbu_0, # of connection points: 4
#     Node 26, Type 0, BuildingBlock: GALJAG_clean_sbu_0, # of connection points: 4
#     Node 27, Type 0, BuildingBlock: GALJAG_clean_sbu_0, # of connection points: 4
#     Node 28, Type 0, BuildingBlock: GALJAG_clean_sbu_0, # of connection points: 4
#     Node 29, Type 0, BuildingBlock: GALJAG_clean_sbu_0, # of connection points: 4
#     Node 30, Type 0, BuildingBlock: GALJAG_clean_sbu_0, # of connection points: 4
#     Node 31, Type 0, BuildingBlock: GALJAG_clean_sbu_0, # of connection points: 4
#     Node 32, Type 0, BuildingBlock: GALJAG_clean_sbu_0, # of connection points: 4
#     Node 33, Type 0, BuildingBlock: GALJAG_clean_sbu_0, # of connection points: 4
#     Node 34, Type 0, BuildingBlock: GALJAG_clean_sbu_0, # of connection points: 4
#     Node 35, Type 0, BuildingBlock: GALJAG_clean_sbu_0, # of connection points: 4
#     Edge 36, Type (0, 0), None
#     Edge 37, Type (0, 0), None
#     Edge 38, Type (0, 0), None
#     Edge 39, Type (0, 0), None
#     Edge 40, Type (0, 0), None
#     Edge 41, Type (0, 0), None
#     Edge 42, Type (0, 0), None
#     Edge 43, Type (0, 0), None
#     Edge 44, Type (0, 0), None
#     Edge 45, Type (0, 0), None
#     Edge 46, Type (0, 0), None
#     Edge 47, Type (0, 0), None
#     Edge 48, Type (0, 0), None
#     Edge 49, Type (0, 0), None
#     Edge 50, Type (0, 0), None
#     Edge 51, Type (0, 0), None
#     Edge 52, Type (0, 0), None
#     Edge 53, Type (0, 0), None
#     Edge 54, Type (0, 0), None
#     Edge 55, Type (0, 0), None
#     Edge 56, Type (0, 0), None
#     Edge 57, Type (0, 0), None
#     Edge 58, Type (0, 0), None
#     Edge 59, Type (0, 0), None
#     Edge 60, Type (0, 0), None
#     Edge 61, Type (0, 0), None
#     Edge 62, Type (0, 0), None
#     Edge 63, Type (0, 0), None
#     Edge 64, Type (0, 0), None
#     Edge 65, Type (0, 0), None
#     Edge 66, Type (0, 0), None
#     Edge 67, Type (0, 0), None
#     Edge 68, Type (0, 0), None
#     Edge 69, Type (0, 0), None
#     Edge 70, Type (0, 0), None
#     Edge 71, Type (0, 0), None
#     Edge 72, Type (0, 0), None
#     Edge 73, Type (0, 0), None
#     Edge 74, Type (0, 0), None
#     Edge 75, Type (0, 0), None
#     Edge 76, Type (0, 0), None
#     Edge 77, Type (0, 0), None
#     Edge 78, Type (0, 0), None
#     Edge 79, Type (0, 0), None
#     Edge 80, Type (0, 0), None
#     Edge 81, Type (0, 0), None
#     Edge 82, Type (0, 0), None
#     Edge 83, Type (0, 0), None
#     Edge 84, Type (0, 0), None
#     Edge 85, Type (0, 0), None
#     Edge 86, Type (0, 0), None
#     Edge 87, Type (0, 0), None
#     Edge 88, Type (0, 0), None
#     Edge 89, Type (0, 0), None
#     Edge 90, Type (0, 0), None
#     Edge 91, Type (0, 0), None
#     Edge 92, Type (0, 0), None
#     Edge 93, Type (0, 0), None
#     Edge 94, Type (0, 0), None
#     Edge 95, Type (0, 0), None
#     Edge 96, Type (0, 0), None
#     Edge 97, Type (0, 0), None
#     Edge 98, Type (0, 0), None
#     Edge 99, Type (0, 0), None
#     Edge 100, Type (0, 0), None
#     Edge 101, Type (0, 0), None
#     Edge 102, Type (0, 0), None
#     Edge 103, Type (0, 0), None
#     Edge 104, Type (0, 0), None
#     Edge 105, Type (0, 0), None
#     Edge 106, Type (0, 0), None
#     Edge 107, Type (0, 0), None
# Relax obj value: 0.084
# Max RMSD: 0.315
# Mean RMSD: 0.220
data_MOF--net-uml--node1-GALJAG_clean_sbu_0--edge1-none
_symmetry_space_group_name_H-M    P1
_symmetry_Int_Tables_number       1
_symmetry_cell_setting            triclinic
loop_
_symmetry_equiv_pos_as_xyz
'x, y, z'
_cell_length_a     43.193446
_cell_length_b     43.106748
_cell_length_c     13.118574
_cell_angle_alpha  89.812578
_cell_angle_beta   90.258322
_cell_angle_gamma 115.84672
loop_
_atom_site_label
_atom_site_type_symbol
_atom_site_fract_x
_atom_site_fract_y
_atom_site_fract_z
_atom_type_partial_charge
In0 In 0.32114 0.07924 0.15203 0.0
O1 O 0.28317 0.05187 0.28005 0.0
O2 O 0.33675 0.08053 0.31686 0.0
C3 C 0.30557 0.07694 0.95899 0.0
C4 C 0.31951 0.13951 0.15634 0.0
C5 C 0.35611 0.04521 0.09346 0.0
O6 O 0.28267 0.05887 0.02348 0.0
O7 O 0.3353 0.09588 -0.00697 0.0
O8 O 0.37122 0.07685 0.11833 0.0
O9 O 0.3239 0.03007 0.10891 0.0
C10 C 0.30636 0.06299 0.34853 0.0
O11 O 0.34775 0.13709 0.1644 0.0
O12 O 0.29237 0.11156 0.15157 0.0
In13 In 0.88177 0.2371 0.15525 0.0
O14 O 0.82538 0.19936 0.1656 0.0
O15 O 0.86341 0.17964 0.15469 0.0
C16 C 0.90989 0.30258 0.09697 0.0
C17 C 0.89896 0.24055 0.35261 0.0
C18 C 0.88697 0.22763 0.96134 0.0
O19 O 0.87799 0.28709 0.11897 0.0
O20 O 0.92756 0.28607 0.11484 0.0
O21 O 0.90713 0.2236 0.02601 0.0
O22 O 0.86397 0.23561 -0.00453 0.0
C23 C 0.83194 0.17327 0.15909 0.0
O24 O 0.91438 0.23169 0.28451 0.0
O25 O 0.87598 0.24907 0.3204 0.0
In26 In 0.73149 0.62734 0.15181 0.0
O27 O 0.77886 0.61722 0.16195 0.0
O28 O 0.78558 0.66981 0.15169 0.0
C29 C 0.66653 0.59457 0.09335 0.0
C30 C 0.72311 0.63628 0.34872 0.0
C31 C 0.73764 0.63752 0.95695 0.0
O32 O 0.684 0.57787 0.11438 0.0
O33 O 0.68098 0.62676 0.11171 0.0
O34 O 0.73895 0.66107 0.01819 0.0
O35 O 0.73437 0.60906 -0.00495 0.0
C36 C 0.79945 0.64926 0.15576 0.0
O37 O 0.72832 0.65965 0.28257 0.0
O38 O 0.72123 0.60788 0.3149 0.0
In39 In 0.07596 0.32479 0.32466 0.0
O40 O 0.13371 0.35112 0.31261 0.0
O41 O 0.10795 0.29565 0.32508 0.0
C42 C 0.0422 0.36004 0.38322 0.0
C43 C 0.05951 0.31009 0.12814 0.0
C44 C 0.07341 0.30916 0.51764 0.0
O45 O 0.0738 0.3751 0.35868 0.0
O46 O 0.02701 0.32778 0.3675 0.0
O47 O 0.05534 0.28626 0.45291 0.0
O48 O 0.0925 0.3389 0.48385 0.0
C49 C 0.13595 0.32273 0.32054 0.0
O50 O 0.04841 0.28683 0.19644 0.0
O51 O 0.0772 0.3405 0.16 0.0
In52 In 0.62309 0.73484 0.32373 0.0
O53 O 0.65505 0.73164 0.19253 0.0
O54 O 0.60332 0.72457 0.16084 0.0
C55 C 0.63267 0.74117 0.51868 0.0
C56 C 0.64528 0.80296 0.3203 0.0
C57 C 0.59122 0.66978 0.38235 0.0
O58 O 0.65638 0.74262 0.45822 0.0
O59 O 0.60426 0.73766 0.47974 0.0
O60 O 0.57419 0.68689 0.3611 0.0
O61 O 0.62334 0.6846 0.36407 0.0
C62 C 0.63161 0.72644 0.12666 0.0
O63 O 0.61326 0.78244 0.31382 0.0
O64 O 0.66569 0.78894 0.32428 0.0
In65 In 0.23339 0.88514 0.32143 0.0
O66 O 0.22815 0.91796 0.19239 0.0
O67 O 0.24511 0.87922 0.1561 0.0
C68 C 0.22415 0.89055 0.51542 0.0
C69 C 0.16948 0.83548 0.31788 0.0
C70 C 0.29882 0.91306 0.37942 0.0
O71 O 0.22019 0.91076 0.45072 0.0
O72 O 0.23198 0.8674 0.48131 0.0
O73 O 0.2832 0.88109 0.35742 0.0
O74 O 0.28244 0.93087 0.36179 0.0
C75 C 0.23682 0.90242 0.12411 0.0
O76 O 0.19537 0.8287 0.31121 0.0
O77 O 0.17608 0.86709 0.32219 0.0
In78 In 0.64845 0.89789 0.82484 0.0
O79 O 0.68642 0.92524 0.69682 0.0
O80 O 0.63284 0.89662 0.66003 0.0
C81 C 0.66402 0.90017 0.01787 0.0
C82 C 0.65002 0.83759 0.82049 0.0
C83 C 0.61347 0.93191 0.88344 0.0
O84 O 0.68692 0.91825 0.95339 0.0
O85 O 0.6343 0.88123 0.98383 0.0
O86 O 0.59837 0.90027 0.85854 0.0
O87 O 0.64568 0.94706 0.868 0.0
C88 C 0.66322 0.91414 0.62835 0.0
O89 O 0.6218 0.84004 0.81244 0.0
O90 O 0.67717 0.86553 0.82526 0.0
In91 In 0.08766 0.74002 0.82162 0.0
O92 O 0.14405 0.77776 0.81128 0.0
O93 O 0.10603 0.79748 0.82219 0.0
C94 C 0.05954 0.67454 0.8799 0.0
C95 C 0.07047 0.73657 0.62426 0.0
C96 C 0.08246 0.74949 0.01554 0.0
O97 O 0.09144 0.69003 0.85789 0.0
O98 O 0.04187 0.69105 0.86204 0.0
O99 O 0.0623 0.75352 0.95087 0.0
O100 O 0.10547 0.74151 0.9814 0.0
C101 C 0.1375 0.80385 0.81779 0.0
O102 O 0.05505 0.74543 0.69236 0.0
O103 O 0.09345 0.72805 0.65647 0.0
In104 In 0.23794 0.34973 0.82504 0.0
O105 O 0.19058 0.35987 0.8149 0.0
O106 O 0.18384 0.30727 0.82516 0.0
C107 C 0.30289 0.38251 0.88349 0.0
C108 C 0.24631 0.34078 0.62812 0.0
C109 C 0.23179 0.33953 0.01989 0.0
O110 O 0.28542 0.39921 0.86246 0.0
O111 O 0.28845 0.35032 0.86513 0.0
O112 O 0.23047 0.31599 0.95864 0.0
O113 O 0.23505 0.368 0.98182 0.0
C114 C 0.16998 0.32783 0.8211 0.0
O115 O 0.24109 0.3174 0.69429 0.0
O116 O 0.24819 0.36918 0.66193 0.0
In117 In 0.89348 0.65232 0.6522 0.0
O118 O 0.83573 0.62596 0.66424 0.0
O119 O 0.86147 0.68143 0.65177 0.0
C120 C 0.92723 0.61706 0.59364 0.0
C121 C 0.90993 0.66702 0.84872 0.0
C122 C 0.89603 0.66795 0.45922 0.0
O123 O 0.89564 0.60201 0.61818 0.0
O124 O 0.94243 0.64932 0.60936 0.0
O125 O 0.91409 0.69085 0.52396 0.0
O126 O 0.87694 0.63821 0.493 0.0
C127 C 0.83348 0.65434 0.65631 0.0
O128 O 0.92102 0.69028 0.78042 0.0
O129 O 0.89225 0.63661 0.81687 0.0
In130 In 0.34633 0.24225 0.65311 0.0
O131 O 0.35619 0.19467 0.66303 0.0
O132 O 0.30375 0.18814 0.65257 0.0
C133 C 0.37818 0.30732 0.59449 0.0
C134 C 0.33779 0.25064 0.85018 0.0
C135 C 0.33675 0.2359 0.45816 0.0
O136 O 0.39522 0.29021 0.61575 0.0
O137 O 0.34606 0.29249 0.61275 0.0
O138 O 0.31303 0.23445 0.51862 0.0
O139 O 0.36516 0.23943 0.49711 0.0
C140 C 0.32418 0.17414 0.65656 0.0
O141 O 0.31435 0.24543 0.78431 0.0
O142 O 0.36609 0.25252 0.81599 0.0
In143 In 0.73606 0.09198 0.65547 0.0
O144 O 0.7413 0.05915 0.78451 0.0
O145 O 0.72434 0.09789 0.8208 0.0
C146 C 0.74529 0.08656 0.46148 0.0
C147 C 0.79996 0.14163 0.65901 0.0
C148 C 0.67063 0.06403 0.59748 0.0
O149 O 0.74926 0.06635 0.52618 0.0
O150 O 0.73745 0.1097 0.49559 0.0
O151 O 0.68624 0.096 0.61948 0.0
O152 O 0.68702 0.04623 0.61512 0.0
C153 C 0.73263 0.07469 0.85279 0.0
O154 O 0.77407 0.14842 0.66568 0.0
O155 O 0.79337 0.11003 0.6547 0.0
In156 In -0.00981 0.4132 0.48816 0.0
O157 O 0.9529 0.38534 0.61671 0.0
O158 O 0.0064 0.41535 0.65275 0.0
C159 C 0.9756 0.4111 0.29473 0.0
C160 C -0.01391 0.47235 0.4914 0.0
C161 C 0.0244 0.37843 0.43001 0.0
O162 O 0.95245 0.39298 0.35856 0.0
O163 O 0.00523 0.43011 0.32956 0.0
O164 O 0.03994 0.41012 0.45435 0.0
O165 O -0.00781 0.36369 0.44571 0.0
C166 C 0.97619 0.39707 0.68481 0.0
O167 O 0.01493 0.47112 0.49957 0.0
O168 O 0.9596 0.44378 0.48713 0.0
In169 In 0.54854 0.56979 0.48615 0.0
O170 O 0.58132 0.56425 0.61493 0.0
O171 O 0.54309 0.58178 0.65145 0.0
C172 C 0.55428 0.56037 0.29229 0.0
C173 C 0.49832 0.50621 0.49011 0.0
C174 C 0.5757 0.6353 0.42856 0.0
O175 O 0.57439 0.55648 0.3574 0.0
O176 O 0.53112 0.56818 0.32594 0.0
O177 O 0.54384 0.61934 0.45054 0.0
O178 O 0.5938 0.61923 0.44605 0.0
C179 C 0.56605 0.57318 0.6833 0.0
O180 O 0.49205 0.53246 0.49671 0.0
O181 O 0.52971 0.51229 0.48555 0.0
In182 In 0.39822 0.96185 0.48487 0.0
O183 O 0.39581 -0.00534 0.61556 0.0
O184 O 0.38801 0.94269 0.64819 0.0
C185 C 0.40499 0.97251 0.2902 0.0
C186 C 0.46596 0.9825 0.48973 0.0
C187 C 0.33325 0.92905 0.42583 0.0
O188 O 0.40628 -0.00401 0.35166 0.0
O189 O 0.40139 0.94391 0.32801 0.0
O190 O 0.35071 0.91239 0.44727 0.0
O191 O 0.34766 0.96124 0.44424 0.0
C192 C 0.39052 0.97133 0.68194 0.0
O193 O 0.44488 0.9506 0.49566 0.0
O194 O 0.45268 0.00354 0.48521 0.0
In195 In 0.74067 0.65797 0.6552 0.0
O196 O 0.71369 0.62032 0.52612 0.0
O197 O 0.74256 0.67413 0.49092 0.0
C198 C 0.73937 0.64323 0.84829 0.0
C199 C 0.8006 0.65591 0.65096 0.0
C200 C 0.70572 0.69196 0.7139 0.0
O201 O 0.72124 0.61994 0.78459 0.0
O202 O 0.75787 0.673 0.81346 0.0
O203 O 0.73727 0.70757 0.68913 0.0
O204 O 0.69107 0.65966 0.69829 0.0
C205 C 0.72512 0.64375 0.45835 0.0
O206 O 0.79838 0.68432 0.64322 0.0
O207 O 0.7726 0.6288 0.6554 0.0
In208 In 0.28947 0.06833 0.65538 0.0
O209 O 0.27938 0.11583 0.64601 0.0
O210 O 0.33186 0.12249 0.65648 0.0
C211 C 0.25719 0.00319 0.71349 0.0
C212 C 0.29866 0.06054 0.4581 0.0
C213 C 0.29962 0.07465 0.85036 0.0
O214 O 0.24032 0.02048 0.69243 0.0
O215 O 0.2893 0.01787 0.69513 0.0
O216 O 0.32311 0.076 0.7892 0.0
O217 O 0.27114 0.07119 0.81216 0.0
C218 C 0.31138 0.13643 0.65262 0.0
O219 O 0.32187 0.06553 0.52458 0.0
O220 O 0.27023 0.05846 0.49174 0.0
In221 In 0.8994 0.21816 0.65917 0.0
O222 O 0.86134 0.16173 0.64867 0.0
O223 O 0.84207 0.20013 0.65974 0.0
C224 C 0.96485 0.24536 0.71696 0.0
C225 C 0.90323 0.23584 0.46213 0.0
C226 C 0.89034 0.22395 0.85308 0.0
O227 O 0.94889 0.21342 0.69497 0.0
O228 O 0.94878 0.26348 0.69957 0.0
O229 O 0.88652 0.24419 0.7882 0.0
O230 O 0.8979 0.2006 0.81918 0.0
C231 C 0.83546 0.16853 0.65534 0.0
O232 O 0.89448 0.2513 0.53046 0.0
O233 O 0.91132 0.2125 0.49394 0.0
In234 In 0.31629 0.23266 0.15643 0.0
O235 O 0.35387 0.25983 0.02765 0.0
O236 O 0.30015 0.23106 -0.00771 0.0
C237 C 0.33119 0.23398 0.34942 0.0
C238 C 0.31813 0.17253 0.15124 0.0
C239 C 0.28187 0.26715 0.21573 0.0
O240 O 0.35435 0.25233 0.28591 0.0
O241 O 0.30153 0.21528 0.3144 0.0
O242 O 0.26654 0.23556 0.19045 0.0
O243 O 0.3141 0.2821 0.20038 0.0
C244 C 0.33044 0.24852 0.95984 0.0
O245 O 0.28984 0.17489 0.14353 0.0
O246 O 0.34525 0.20051 0.15608 0.0
In247 In 0.75501 0.07396 0.1594 0.0
O248 O 0.722 0.07917 0.03074 0.0
O249 O 0.76043 0.06194 -0.006 0.0
C250 C 0.74904 0.08316 0.35325 0.0
C251 C 0.80491 0.13781 0.15564 0.0
C252 C 0.72791 0.00842 0.21718 0.0
O253 O 0.72895 0.08702 0.28801 0.0
O254 O 0.77235 0.07554 0.31974 0.0
O255 O 0.75978 0.0244 0.19531 0.0
O256 O 0.70982 0.02449 0.19953 0.0
C257 C 0.73729 0.07029 0.96228 0.0
O258 O 0.81143 0.11172 0.14902 0.0
O259 O 0.77344 0.13144 0.1601 0.0
In260 In 0.90502 0.6839 0.1557 0.0
O261 O 0.90765 0.65144 0.02458 0.0
O262 O 0.91476 0.70323 -0.0077 0.0
C263 C 0.89853 0.67389 0.35062 0.0
C264 C 0.83708 0.66201 0.15228 0.0
C265 C 0.97009 0.71611 0.21389 0.0
O266 O 0.8972 0.65028 0.28963 0.0
O267 O 0.90211 0.70243 0.31227 0.0
O268 O 0.95288 0.73307 0.19284 0.0
O269 O 0.95534 0.68392 0.19559 0.0
C270 C 0.91257 0.67472 0.95833 0.0
O271 O 0.85767 0.69406 0.14598 0.0
O272 O 0.85094 0.64144 0.15627 0.0
In273 In 0.56039 0.98397 -0.0114 0.0
O274 O 0.58797 0.02144 0.11744 0.0
O275 O 0.55838 0.96778 0.15308 0.0
C276 C 0.56237 -0.00131 0.79532 0.0
C277 C 0.50103 0.98737 -0.00842 0.0
C278 C 0.59516 0.94977 0.93033 0.0
O279 O 0.58042 0.02189 0.85933 0.0
O280 O 0.54354 0.96896 0.82991 0.0
O281 O 0.56356 0.93419 0.95465 0.0
O282 O 0.60986 0.98205 0.94613 0.0
C283 C 0.57641 -0.00191 0.18537 0.0
O284 O 0.5026 0.95864 -0.00032 0.0
O285 O 0.52937 0.01411 0.9876 0.0
In286 In 0.01059 0.57508 0.98545 0.0
O287 O 0.02233 0.52867 -0.00386 0.0
O288 O 0.96935 0.52036 0.98535 0.0
C289 C 0.04349 0.64012 0.9265 0.0
C290 C 0.00092 0.58269 0.18249 0.0
C291 C -0.00029 0.56817 0.79077 0.0
O292 O 0.06003 0.62256 0.94815 0.0
O293 O 0.01137 0.62579 0.94478 0.0
O294 O 0.97632 0.56688 0.85232 0.0
O295 O 0.0283 0.57185 0.82849 0.0
C296 C -0.00943 0.50733 -0.01011 0.0
O297 O 0.97764 0.57728 0.11587 0.0
O298 O 0.02958 0.58539 0.14901 0.0
In299 In 0.40277 0.42603 0.98693 0.0
O300 O 0.40758 0.39296 0.11584 0.0
O301 O 0.39101 0.43199 0.15216 0.0
C302 C 0.4116 0.42031 0.79282 0.0
C303 C 0.4669 0.47523 -0.00967 0.0
C304 C 0.33735 0.39843 0.92954 0.0
O305 O 0.41553 0.4001 0.85758 0.0
O306 O 0.40405 0.44365 0.82692 0.0
O307 O 0.35313 0.43042 0.95123 0.0
O308 O 0.35361 0.38049 0.9471 0.0
C309 C 0.39896 0.40855 0.18409 0.0
O310 O 0.44121 0.48232 -0.00298 0.0
O311 O 0.46001 0.44355 0.98609 0.0
In312 In 0.65314 0.74439 0.82041 0.0
O313 O 0.61554 0.71725 0.94918 0.0
O314 O 0.66927 0.74599 0.98456 0.0
C315 C 0.63822 0.74309 0.62742 0.0
C316 C 0.65137 0.80456 0.82559 0.0
C317 C 0.68754 0.70989 0.7611 0.0
O318 O 0.61507 0.72475 0.69093 0.0
O319 O 0.66789 0.76177 0.66243 0.0
O320 O 0.70287 0.74148 0.7864 0.0
O321 O 0.65531 0.69495 0.77645 0.0
C322 C 0.63896 0.72855 0.017 0.0
O323 O 0.67963 0.80217 0.8333 0.0
O324 O 0.62423 0.77659 0.82075 0.0
In325 In 0.21444 0.90316 0.8175 0.0
O326 O 0.15801 0.8654 0.82787 0.0
O327 O 0.196 0.84567 0.81679 0.0
C328 C 0.24156 0.96869 0.75968 0.0
C329 C 0.23216 0.90682 0.01461 0.0
C330 C 0.2204 0.89395 0.62364 0.0
O331 O 0.20969 0.95272 0.78156 0.0
O332 O 0.25965 0.95261 0.77735 0.0
O333 O 0.24049 0.89008 0.68888 0.0
O334 O 0.1971 0.90158 0.65716 0.0
C335 C 0.16453 0.83931 0.82125 0.0
O336 O 0.24744 0.89794 0.94616 0.0
O337 O 0.20902 0.91518 0.9829 0.0
In338 In 0.06441 0.29321 0.82116 0.0
O339 O 0.11175 0.28304 0.83089 0.0
O340 O 0.1185 0.33566 0.82059 0.0
C341 C -0.00065 0.26102 0.76296 0.0
C342 C 0.05686 0.30239 0.01853 0.0
C343 C 0.07091 0.30322 0.62624 0.0
O344 O 0.01655 0.24405 0.78402 0.0
O345 O 0.0141 0.29321 0.78126 0.0
O346 O 0.07224 0.32683 0.68723 0.0
O347 O 0.06732 0.27468 0.6646 0.0
C348 C 0.13235 0.31509 0.82459 0.0
O349 O 0.06179 0.32568 0.95229 0.0
O350 O 0.05467 0.27388 0.98456 0.0
In351 In 0.40914 -0.0069 0.98831 0.0
O352 O 0.38154 0.95562 0.85951 0.0
O353 O 0.41114 0.00927 0.82382 0.0
C354 C 0.40712 0.97836 0.18159 0.0
C355 C 0.46851 -0.0103 0.98535 0.0
C356 C 0.3744 0.02734 0.04658 0.0
O357 O 0.38908 0.95517 0.11755 0.0
O358 O 0.42598 0.00809 0.14703 0.0
O359 O 0.40601 0.0429 0.02226 0.0
O360 O 0.35969 -0.00495 0.03077 0.0
C361 C 0.3931 0.97897 0.79156 0.0
O362 O 0.46694 0.01843 0.97723 0.0
O363 O 0.44017 0.96297 -0.01067 0.0
In364 In 0.95885 0.40204 -0.00859 0.0
O365 O -0.0082 0.39984 0.86101 0.0
O366 O 0.93986 0.39172 0.82784 0.0
C367 C 0.96972 0.40894 0.18609 0.0
C368 C 0.97886 0.46979 0.98697 0.0
C369 C 0.92594 0.337 0.05036 0.0
O370 O -0.00689 0.41023 0.12454 0.0
O371 O 0.94114 0.40526 0.14837 0.0
O372 O 0.9094 0.35456 0.02871 0.0
O373 O 0.95806 0.35132 0.03208 0.0
C374 C 0.96853 0.39443 0.79438 0.0
O375 O 0.9471 0.44845 0.98072 0.0
O376 O 8e-05 0.45675 -0.00849 0.0
In377 In 0.56665 0.55107 -0.01007 0.0
O378 O 0.52821 0.49478 0.97984 0.0
O379 O 0.50941 0.53355 -0.00922 0.0
C380 C 0.63207 0.57866 0.04731 0.0
C381 C 0.57044 0.56854 0.79278 0.0
C382 C 0.55782 0.55679 0.18404 0.0
O383 O 0.61629 0.54667 0.02562 0.0
O384 O 0.61582 0.5966 0.02975 0.0
O385 O 0.5539 0.577 0.11928 0.0
O386 O 0.56537 0.53345 0.14995 0.0
C387 C 0.50252 0.50187 0.98654 0.0
O388 O 0.56184 0.58415 0.86104 0.0
O389 O 0.5784 0.54511 0.82469 0.0
In390 In 0.97925 0.5639 0.4887 0.0
O391 O 0.95451 0.50598 0.47729 0.0
O392 O 0.00984 0.53332 0.48975 0.0
C393 C 0.94503 0.59867 0.54685 0.0
C394 C -0.00675 0.58003 0.29206 0.0
C395 C -0.00616 0.56601 0.68214 0.0
O396 O 0.9295 0.56698 0.52251 0.0
O397 O 0.97725 0.61342 0.53115 0.0
O398 O 0.01698 0.58413 0.6183 0.0
O399 O 0.96421 0.547 0.64731 0.0
C400 C 0.98335 0.50475 0.48547 0.0
O401 O 0.01654 0.59177 0.36017 0.0
O402 O 0.96304 0.56175 0.32411 0.0
In403 In 0.42086 0.4073 0.49072 0.0
O404 O 0.38808 0.41284 0.36194 0.0
O405 O 0.42632 0.39533 0.32541 0.0
C406 C 0.41514 0.41672 0.68458 0.0
C407 C 0.47108 0.47089 0.48676 0.0
C408 C 0.3937 0.34179 0.54828 0.0
O409 O 0.39502 0.42062 0.61948 0.0
O410 O 0.43829 0.40891 0.65092 0.0
O411 O 0.42556 0.35776 0.52631 0.0
O412 O 0.3756 0.35787 0.53081 0.0
C413 C 0.40337 0.40393 0.29357 0.0
O414 O 0.47735 0.44464 0.48015 0.0
O415 O 0.4397 0.46481 0.49132 0.0
In416 In 0.57123 0.0152 0.49204 0.0
O417 O 0.52458 0.02645 0.48123 0.0
O418 O 0.51677 0.97351 0.49169 0.0
C419 C 0.6362 0.04803 0.55107 0.0
C420 C 0.57895 0.00572 0.29499 0.0
C421 C 0.56449 0.00453 0.6867 0.0
O422 O 0.61873 0.06468 0.52963 0.0
O423 O 0.6218 0.01584 0.53267 0.0
O424 O 0.5632 0.98106 0.62523 0.0
O425 O 0.56807 0.03313 0.64891 0.0
C426 C 0.50349 -0.00545 0.48716 0.0
O427 O 0.57366 0.98239 0.36137 0.0
O428 O 0.58146 0.03436 0.32871 0.0
In429 In 0.22874 0.31908 0.32165 0.0
O430 O 0.25573 0.35672 0.45072 0.0
O431 O 0.22685 0.30292 0.48593 0.0
C432 C 0.23005 0.33382 0.12855 0.0
C433 C 0.16882 0.32116 0.32588 0.0
C434 C 0.26369 0.28508 0.26294 0.0
O435 O 0.24818 0.3571 0.19226 0.0
O436 O 0.21155 0.30405 0.16337 0.0
O437 O 0.23214 0.26947 0.2877 0.0
O438 O 0.27834 0.31738 0.27856 0.0
C439 C 0.2443 0.33329 0.51849 0.0
O440 O 0.17103 0.29274 0.33362 0.0
O441 O 0.19682 0.34826 0.32144 0.0
In442 In 0.68007 0.90878 0.32149 0.0
O443 O 0.6477 0.9116 0.45232 0.0
O444 O 0.69934 0.91865 0.4851 0.0
C445 C 0.66996 0.90246 0.1265 0.0
C446 C 0.65811 0.84068 0.32425 0.0
C447 C 0.71231 0.97392 0.26337 0.0
O448 O 0.64645 0.90111 0.18762 0.0
O449 O 0.69844 0.90592 0.16475 0.0
O450 O 0.7292 0.95665 0.28443 0.0
O451 O 0.6802 0.95922 0.28173 0.0
C452 C 0.67091 0.91658 0.51878 0.0
O453 O 0.69011 0.86125 0.33085 0.0
O454 O 0.63764 0.85464 0.32039 0.0
In455 In 0.07003 0.75897 0.31771 0.0
O456 O 0.1081 0.81539 0.3282 0.0
O457 O 0.12736 0.77699 0.31714 0.0
C458 C 0.00459 0.73176 0.25989 0.0
C459 C 0.06621 0.74128 0.51474 0.0
C460 C 0.07909 0.75317 0.12379 0.0
O461 O 0.02055 0.7637 0.28189 0.0
O462 O 0.02066 0.71364 0.27729 0.0
O463 O 0.08292 0.73294 0.18868 0.0
O464 O 0.07154 0.77652 0.1577 0.0
C465 C 0.13398 0.80859 0.32154 0.0
O466 O 0.07495 0.72583 0.44641 0.0
O467 O 0.05811 0.76463 0.48294 0.0
loop_
_geom_bond_atom_site_label_1
_geom_bond_atom_site_label_2
_geom_bond_distance
_geom_bond_site_symmetry_2
_ccdc_geom_bond_type
In0 O1 2.294 . S
In0 O2 2.326 . S
In0 O6 2.266 . S
In0 O7 2.326 1_554 S
In0 O8 2.266 . S
In0 O9 2.326 . S
In0 O11 2.294 . S
In0 O12 2.326 . S
O1 In0 2.294 . S
O1 C10 1.240 . S
O2 In0 2.326 . S
O2 C10 1.252 . S
C3 O6 1.252 1_556 S
C3 O7 1.260 . S
C4 O11 1.240 . S
C4 O12 1.252 . S
C5 O8 1.252 . S
C5 O9 1.260 . S
O6 In0 2.266 . S
O6 C3 1.252 1_554 S
O7 In0 2.326 1_556 S
O7 C3 1.260 . S
O8 In0 2.266 . S
O8 C5 1.252 . S
O9 In0 2.326 . S
O9 C5 1.260 . S
C10 O1 1.240 . S
C10 O2 1.252 . S
O11 In0 2.294 . S
O11 C4 1.240 . S
O12 In0 2.326 . S
O12 C4 1.252 . S
In13 O14 2.294 . S
In13 O15 2.326 . S
In13 O19 2.266 . S
In13 O20 2.326 . S
In13 O21 2.266 . S
In13 O22 2.326 1_554 S
In13 O24 2.294 . S
In13 O25 2.326 . S
O14 In13 2.294 . S
O14 C23 1.240 . S
O15 In13 2.326 . S
O15 C23 1.252 . S
C16 O19 1.252 . S
C16 O20 1.260 . S
C17 O24 1.240 . S
C17 O25 1.252 . S
C18 O21 1.252 1_556 S
C18 O22 1.260 . S
O19 In13 2.266 . S
O19 C16 1.252 . S
O20 In13 2.326 . S
O20 C16 1.260 . S
O21 In13 2.266 . S
O21 C18 1.252 1_554 S
O22 In13 2.326 1_556 S
O22 C18 1.260 . S
C23 O14 1.240 . S
C23 O15 1.252 . S
O24 In13 2.294 . S
O24 C17 1.240 . S
O25 In13 2.326 . S
O25 C17 1.252 . S
In26 O27 2.294 . S
In26 O28 2.326 . S
In26 O32 2.266 . S
In26 O33 2.326 . S
In26 O34 2.266 . S
In26 O35 2.326 1_554 S
In26 O37 2.294 . S
In26 O38 2.326 . S
O27 In26 2.294 . S
O27 C36 1.240 . S
O28 In26 2.326 . S
O28 C36 1.252 . S
C29 O32 1.252 . S
C29 O33 1.260 . S
C30 O37 1.240 . S
C30 O38 1.252 . S
C31 O34 1.252 1_556 S
C31 O35 1.260 . S
O32 In26 2.266 . S
O32 C29 1.252 . S
O33 In26 2.326 . S
O33 C29 1.260 . S
O34 In26 2.266 . S
O34 C31 1.252 1_554 S
O35 In26 2.326 1_556 S
O35 C31 1.260 . S
C36 O27 1.240 . S
C36 O28 1.252 . S
O37 In26 2.294 . S
O37 C30 1.240 . S
O38 In26 2.326 . S
O38 C30 1.252 . S
In39 O40 2.294 . S
In39 O41 2.326 . S
In39 O45 2.266 . S
In39 O46 2.326 . S
In39 O47 2.266 . S
In39 O48 2.326 . S
In39 O50 2.294 . S
In39 O51 2.326 . S
O40 In39 2.294 . S
O40 C49 1.240 . S
O41 In39 2.326 . S
O41 C49 1.252 . S
C42 O45 1.252 . S
C42 O46 1.260 . S
C43 O50 1.240 . S
C43 O51 1.252 . S
C44 O47 1.252 . S
C44 O48 1.260 . S
O45 In39 2.266 . S
O45 C42 1.252 . S
O46 In39 2.326 . S
O46 C42 1.260 . S
O47 In39 2.266 . S
O47 C44 1.252 . S
O48 In39 2.326 . S
O48 C44 1.260 . S
C49 O40 1.240 . S
C49 O41 1.252 . S
O50 In39 2.294 . S
O50 C43 1.240 . S
O51 In39 2.326 . S
O51 C43 1.252 . S
In52 O53 2.294 . S
In52 O54 2.326 . S
In52 O58 2.266 . S
In52 O59 2.326 . S
In52 O60 2.266 . S
In52 O61 2.326 . S
In52 O63 2.294 . S
In52 O64 2.326 . S
O53 In52 2.294 . S
O53 C62 1.240 . S
O54 In52 2.326 . S
O54 C62 1.252 . S
C55 O58 1.252 . S
C55 O59 1.260 . S
C56 O63 1.240 . S
C56 O64 1.252 . S
C57 O60 1.252 . S
C57 O61 1.260 . S
O58 In52 2.266 . S
O58 C55 1.252 . S
O59 In52 2.326 . S
O59 C55 1.260 . S
O60 In52 2.266 . S
O60 C57 1.252 . S
O61 In52 2.326 . S
O61 C57 1.260 . S
C62 O53 1.240 . S
C62 O54 1.252 . S
O63 In52 2.294 . S
O63 C56 1.240 . S
O64 In52 2.326 . S
O64 C56 1.252 . S
In65 O66 2.294 . S
In65 O67 2.326 . S
In65 O71 2.266 . S
In65 O72 2.326 . S
In65 O73 2.266 . S
In65 O74 2.326 . S
In65 O76 2.294 . S
In65 O77 2.326 . S
O66 In65 2.294 . S
O66 C75 1.240 . S
O67 In65 2.326 . S
O67 C75 1.252 . S
C68 O71 1.252 . S
C68 O72 1.260 . S
C69 O76 1.240 . S
C69 O77 1.252 . S
C70 O73 1.252 . S
C70 O74 1.260 . S
O71 In65 2.266 . S
O71 C68 1.252 . S
O72 In65 2.326 . S
O72 C68 1.260 . S
O73 In65 2.266 . S
O73 C70 1.252 . S
O74 In65 2.326 . S
O74 C70 1.260 . S
C75 O66 1.240 . S
C75 O67 1.252 . S
O76 In65 2.294 . S
O76 C69 1.240 . S
O77 In65 2.326 . S
O77 C69 1.252 . S
In78 O79 2.294 . S
In78 O80 2.326 . S
In78 O84 2.266 . S
In78 O85 2.326 1_556 S
In78 O86 2.266 . S
In78 O87 2.326 . S
In78 O89 2.294 . S
In78 O90 2.326 . S
O79 In78 2.294 . S
O79 C88 1.240 . S
O80 In78 2.326 . S
O80 C88 1.252 . S
C81 O84 1.252 1_554 S
C81 O85 1.260 . S
C82 O89 1.240 . S
C82 O90 1.252 . S
C83 O86 1.252 . S
C83 O87 1.260 . S
O84 In78 2.266 . S
O84 C81 1.252 1_556 S
O85 In78 2.326 1_554 S
O85 C81 1.260 . S
O86 In78 2.266 . S
O86 C83 1.252 . S
O87 In78 2.326 . S
O87 C83 1.260 . S
C88 O79 1.240 . S
C88 O80 1.252 . S
O89 In78 2.294 . S
O89 C82 1.240 . S
O90 In78 2.326 . S
O90 C82 1.252 . S
In91 O92 2.294 . S
In91 O93 2.326 . S
In91 O97 2.266 . S
In91 O98 2.326 . S
In91 O99 2.266 . S
In91 O100 2.326 1_556 S
In91 O102 2.294 . S
In91 O103 2.326 . S
O92 In91 2.294 . S
O92 C101 1.240 . S
O93 In91 2.326 . S
O93 C101 1.252 . S
C94 O97 1.252 . S
C94 O98 1.260 . S
C95 O102 1.240 . S
C95 O103 1.252 . S
C96 O99 1.252 1_554 S
C96 O100 1.260 . S
O97 In91 2.266 . S
O97 C94 1.252 . S
O98 In91 2.326 . S
O98 C94 1.260 . S
O99 In91 2.266 . S
O99 C96 1.252 1_556 S
O100 In91 2.326 1_554 S
O100 C96 1.260 . S
C101 O92 1.240 . S
C101 O93 1.252 . S
O102 In91 2.294 . S
O102 C95 1.240 . S
O103 In91 2.326 . S
O103 C95 1.252 . S
In104 O105 2.294 . S
In104 O106 2.326 . S
In104 O110 2.266 . S
In104 O111 2.326 . S
In104 O112 2.266 . S
In104 O113 2.326 1_556 S
In104 O115 2.294 . S
In104 O116 2.326 . S
O105 In104 2.294 . S
O105 C114 1.240 . S
O106 In104 2.326 . S
O106 C114 1.252 . S
C107 O110 1.252 . S
C107 O111 1.260 . S
C108 O115 1.240 . S
C108 O116 1.252 . S
C109 O112 1.252 1_554 S
C109 O113 1.260 . S
O110 In104 2.266 . S
O110 C107 1.252 . S
O111 In104 2.326 . S
O111 C107 1.260 . S
O112 In104 2.266 . S
O112 C109 1.252 1_556 S
O113 In104 2.326 1_554 S
O113 C109 1.260 . S
C114 O105 1.240 . S
C114 O106 1.252 . S
O115 In104 2.294 . S
O115 C108 1.240 . S
O116 In104 2.326 . S
O116 C108 1.252 . S
In117 O118 2.294 . S
In117 O119 2.326 . S
In117 O123 2.266 . S
In117 O124 2.326 . S
In117 O125 2.266 . S
In117 O126 2.326 . S
In117 O128 2.294 . S
In117 O129 2.326 . S
O118 In117 2.294 . S
O118 C127 1.240 . S
O119 In117 2.326 . S
O119 C127 1.252 . S
C120 O123 1.252 . S
C120 O124 1.260 . S
C121 O128 1.240 . S
C121 O129 1.252 . S
C122 O125 1.252 . S
C122 O126 1.260 . S
O123 In117 2.266 . S
O123 C120 1.252 . S
O124 In117 2.326 . S
O124 C120 1.260 . S
O125 In117 2.266 . S
O125 C122 1.252 . S
O126 In117 2.326 . S
O126 C122 1.260 . S
C127 O118 1.240 . S
C127 O119 1.252 . S
O128 In117 2.294 . S
O128 C121 1.240 . S
O129 In117 2.326 . S
O129 C121 1.252 . S
In130 O131 2.294 . S
In130 O132 2.326 . S
In130 O136 2.266 . S
In130 O137 2.326 . S
In130 O138 2.266 . S
In130 O139 2.326 . S
In130 O141 2.294 . S
In130 O142 2.326 . S
O131 In130 2.294 . S
O131 C140 1.240 . S
O132 In130 2.326 . S
O132 C140 1.252 . S
C133 O136 1.252 . S
C133 O137 1.260 . S
C134 O141 1.240 . S
C134 O142 1.252 . S
C135 O138 1.252 . S
C135 O139 1.260 . S
O136 In130 2.266 . S
O136 C133 1.252 . S
O137 In130 2.326 . S
O137 C133 1.260 . S
O138 In130 2.266 . S
O138 C135 1.252 . S
O139 In130 2.326 . S
O139 C135 1.260 . S
C140 O131 1.240 . S
C140 O132 1.252 . S
O141 In130 2.294 . S
O141 C134 1.240 . S
O142 In130 2.326 . S
O142 C134 1.252 . S
In143 O144 2.294 . S
In143 O145 2.326 . S
In143 O149 2.266 . S
In143 O150 2.326 . S
In143 O151 2.266 . S
In143 O152 2.326 . S
In143 O154 2.294 . S
In143 O155 2.326 . S
O144 In143 2.294 . S
O144 C153 1.240 . S
O145 In143 2.326 . S
O145 C153 1.252 . S
C146 O149 1.252 . S
C146 O150 1.260 . S
C147 O154 1.240 . S
C147 O155 1.252 . S
C148 O151 1.252 . S
C148 O152 1.260 . S
O149 In143 2.266 . S
O149 C146 1.252 . S
O150 In143 2.326 . S
O150 C146 1.260 . S
O151 In143 2.266 . S
O151 C148 1.252 . S
O152 In143 2.326 . S
O152 C148 1.260 . S
C153 O144 1.240 . S
C153 O145 1.252 . S
O154 In143 2.294 . S
O154 C147 1.240 . S
O155 In143 2.326 . S
O155 C147 1.252 . S
In156 O157 2.294 1_455 S
In156 O158 2.326 . S
In156 O162 2.267 1_455 S
In156 O163 2.326 . S
In156 O164 2.265 . S
In156 O165 2.325 . S
In156 O167 2.294 . S
In156 O168 2.327 1_455 S
O157 In156 2.294 1_655 S
O157 C166 1.240 . S
O158 In156 2.326 . S
O158 C166 1.252 1_455 S
C159 O162 1.252 . S
C159 O163 1.260 1_655 S
C160 O167 1.240 . S
C160 O168 1.252 1_455 S
C161 O164 1.252 . S
C161 O165 1.260 . S
O162 In156 2.267 1_655 S
O162 C159 1.252 . S
O163 In156 2.326 . S
O163 C159 1.260 1_455 S
O164 In156 2.265 . S
O164 C161 1.252 . S
O165 In156 2.325 . S
O165 C161 1.260 . S
C166 O157 1.240 . S
C166 O158 1.252 1_655 S
O167 In156 2.294 . S
O167 C160 1.240 . S
O168 In156 2.327 1_655 S
O168 C160 1.252 1_655 S
In169 O170 2.294 . S
In169 O171 2.326 . S
In169 O175 2.266 . S
In169 O176 2.326 . S
In169 O177 2.266 . S
In169 O178 2.326 . S
In169 O180 2.294 . S
In169 O181 2.326 . S
O170 In169 2.294 . S
O170 C179 1.240 . S
O171 In169 2.326 . S
O171 C179 1.252 . S
C172 O175 1.252 . S
C172 O176 1.260 . S
C173 O180 1.240 . S
C173 O181 1.252 . S
C174 O177 1.252 . S
C174 O178 1.260 . S
O175 In169 2.266 . S
O175 C172 1.252 . S
O176 In169 2.326 . S
O176 C172 1.260 . S
O177 In169 2.266 . S
O177 C174 1.252 . S
O178 In169 2.326 . S
O178 C174 1.260 . S
C179 O170 1.240 . S
C179 O171 1.252 . S
O180 In169 2.294 . S
O180 C173 1.240 . S
O181 In169 2.326 . S
O181 C173 1.252 . S
In182 O183 2.294 1_565 S
In182 O184 2.326 . S
In182 O188 2.266 1_565 S
In182 O189 2.326 . S
In182 O190 2.266 . S
In182 O191 2.326 . S
In182 O193 2.294 . S
In182 O194 2.327 . S
O183 In182 2.294 1_545 S
O183 C192 1.240 1_545 S
O184 In182 2.326 . S
O184 C192 1.252 . S
C185 O188 1.252 1_565 S
C185 O189 1.260 . S
C186 O193 1.240 . S
C186 O194 1.257 . S
C187 O190 1.252 . S
C187 O191 1.260 . S
O188 In182 2.266 1_545 S
O188 C185 1.252 1_545 S
O189 In182 2.326 . S
O189 C185 1.260 . S
O190 In182 2.266 . S
O190 C187 1.252 . S
O191 In182 2.326 . S
O191 C187 1.260 . S
C192 O183 1.240 1_565 S
C192 O184 1.252 . S
O193 In182 2.294 . S
O193 C186 1.240 . S
O194 In182 2.327 . S
O194 C186 1.257 . S
In195 O196 2.294 . S
In195 O197 2.326 . S
In195 O201 2.266 . S
In195 O202 2.326 . S
In195 O203 2.266 . S
In195 O204 2.326 . S
In195 O206 2.294 . S
In195 O207 2.326 . S
O196 In195 2.294 . S
O196 C205 1.240 . S
O197 In195 2.326 . S
O197 C205 1.252 . S
C198 O201 1.252 . S
C198 O202 1.260 . S
C199 O206 1.240 . S
C199 O207 1.252 . S
C200 O203 1.252 . S
C200 O204 1.260 . S
O201 In195 2.266 . S
O201 C198 1.252 . S
O202 In195 2.326 . S
O202 C198 1.260 . S
O203 In195 2.266 . S
O203 C200 1.252 . S
O204 In195 2.326 . S
O204 C200 1.260 . S
C205 O196 1.240 . S
C205 O197 1.252 . S
O206 In195 2.294 . S
O206 C199 1.240 . S
O207 In195 2.326 . S
O207 C199 1.252 . S
In208 O209 2.294 . S
In208 O210 2.326 . S
In208 O214 2.266 . S
In208 O215 2.326 . S
In208 O216 2.266 . S
In208 O217 2.326 . S
In208 O219 2.294 . S
In208 O220 2.326 . S
O209 In208 2.294 . S
O209 C218 1.240 . S
O210 In208 2.326 . S
O210 C218 1.252 . S
C211 O214 1.252 . S
C211 O215 1.260 . S
C212 O219 1.240 . S
C212 O220 1.252 . S
C213 O216 1.252 . S
C213 O217 1.260 . S
O214 In208 2.266 . S
O214 C211 1.252 . S
O215 In208 2.326 . S
O215 C211 1.260 . S
O216 In208 2.266 . S
O216 C213 1.252 . S
O217 In208 2.326 . S
O217 C213 1.260 . S
C218 O209 1.240 . S
C218 O210 1.252 . S
O219 In208 2.294 . S
O219 C212 1.240 . S
O220 In208 2.326 . S
O220 C212 1.252 . S
In221 O222 2.294 . S
In221 O223 2.326 . S
In221 O227 2.266 . S
In221 O228 2.326 . S
In221 O229 2.266 . S
In221 O230 2.326 . S
In221 O232 2.294 . S
In221 O233 2.326 . S
O222 In221 2.294 . S
O222 C231 1.240 . S
O223 In221 2.326 . S
O223 C231 1.252 . S
C224 O227 1.252 . S
C224 O228 1.260 . S
C225 O232 1.240 . S
C225 O233 1.252 . S
C226 O229 1.252 . S
C226 O230 1.260 . S
O227 In221 2.266 . S
O227 C224 1.252 . S
O228 In221 2.326 . S
O228 C224 1.260 . S
O229 In221 2.266 . S
O229 C226 1.252 . S
O230 In221 2.326 . S
O230 C226 1.260 . S
C231 O222 1.240 . S
C231 O223 1.252 . S
O232 In221 2.294 . S
O232 C225 1.240 . S
O233 In221 2.326 . S
O233 C225 1.252 . S
In234 O235 2.294 . S
In234 O236 2.326 . S
In234 O240 2.266 . S
In234 O241 2.326 . S
In234 O242 2.266 . S
In234 O243 2.326 . S
In234 O245 2.294 . S
In234 O246 2.326 . S
O235 In234 2.294 . S
O235 C244 1.240 1_554 S
O236 In234 2.326 . S
O236 C244 1.252 1_554 S
C237 O240 1.252 . S
C237 O241 1.260 . S
C238 O245 1.240 . S
C238 O246 1.252 . S
C239 O242 1.252 . S
C239 O243 1.260 . S
O240 In234 2.266 . S
O240 C237 1.252 . S
O241 In234 2.326 . S
O241 C237 1.260 . S
O242 In234 2.266 . S
O242 C239 1.252 . S
O243 In234 2.326 . S
O243 C239 1.260 . S
C244 O235 1.240 1_556 S
C244 O236 1.252 1_556 S
O245 In234 2.294 . S
O245 C238 1.240 . S
O246 In234 2.326 . S
O246 C238 1.252 . S
In247 O248 2.294 . S
In247 O249 2.326 . S
In247 O253 2.266 . S
In247 O254 2.326 . S
In247 O255 2.266 . S
In247 O256 2.326 . S
In247 O258 2.294 . S
In247 O259 2.326 . S
O248 In247 2.294 . S
O248 C257 1.240 1_554 S
O249 In247 2.326 . S
O249 C257 1.252 1_554 S
C250 O253 1.252 . S
C250 O254 1.260 . S
C251 O258 1.240 . S
C251 O259 1.252 . S
C252 O255 1.252 . S
C252 O256 1.260 . S
O253 In247 2.266 . S
O253 C250 1.252 . S
O254 In247 2.326 . S
O254 C250 1.260 . S
O255 In247 2.266 . S
O255 C252 1.252 . S
O256 In247 2.326 . S
O256 C252 1.260 . S
C257 O248 1.240 1_556 S
C257 O249 1.252 1_556 S
O258 In247 2.294 . S
O258 C251 1.240 . S
O259 In247 2.326 . S
O259 C251 1.252 . S
In260 O261 2.294 . S
In260 O262 2.326 1_554 S
In260 O266 2.266 . S
In260 O267 2.326 . S
In260 O268 2.266 . S
In260 O269 2.326 . S
In260 O271 2.294 . S
In260 O272 2.326 . S
O261 In260 2.294 . S
O261 C270 1.240 1_554 S
O262 In260 2.326 1_556 S
O262 C270 1.252 . S
C263 O266 1.252 . S
C263 O267 1.260 . S
C264 O271 1.240 . S
C264 O272 1.252 . S
C265 O268 1.252 . S
C265 O269 1.260 . S
O266 In260 2.266 . S
O266 C263 1.252 . S
O267 In260 2.326 . S
O267 C263 1.260 . S
O268 In260 2.266 . S
O268 C265 1.252 . S
O269 In260 2.326 . S
O269 C265 1.260 . S
C270 O261 1.240 1_556 S
C270 O262 1.252 . S
O271 In260 2.294 . S
O271 C264 1.240 . S
O272 In260 2.326 . S
O272 C264 1.252 . S
In273 O274 2.297 1_565 S
In273 O275 2.330 . S
In273 O279 2.264 1_564 S
In273 O280 2.322 1_554 S
In273 O281 2.265 1_554 S
In273 O282 2.325 1_554 S
In273 O284 2.294 . S
In273 O285 2.327 1_565 S
O274 In273 2.297 1_545 S
O274 C283 1.240 . S
O275 In273 2.330 . S
O275 C283 1.252 1_565 S
C276 O279 1.252 . S
C276 O280 1.260 1_545 S
C277 O284 1.240 . S
C277 O285 1.252 1_565 S
C278 O281 1.252 . S
C278 O282 1.260 . S
O279 In273 2.264 1_546 S
O279 C276 1.252 . S
O280 In273 2.322 1_556 S
O280 C276 1.260 1_565 S
O281 In273 2.265 1_556 S
O281 C278 1.252 . S
O282 In273 2.325 1_556 S
O282 C278 1.260 . S
C283 O274 1.240 . S
C283 O275 1.252 1_545 S
O284 In273 2.294 . S
O284 C277 1.240 . S
O285 In273 2.327 1_545 S
O285 C277 1.252 1_545 S
In286 O287 2.294 . S
In286 O288 2.327 . S
In286 O292 2.265 1_554 S
In286 O293 2.325 1_554 S
In286 O294 2.264 1_454 S
In286 O295 2.322 1_554 S
In286 O297 2.296 1_455 S
In286 O298 2.330 . S
O287 In286 2.294 . S
O287 C296 1.240 . S
O288 In286 2.327 . S
O288 C296 1.252 . S
C289 O292 1.252 . S
C289 O293 1.260 . S
C290 O297 1.240 1_455 S
C290 O298 1.252 . S
C291 O294 1.252 1_455 S
C291 O295 1.260 . S
O292 In286 2.265 1_556 S
O292 C289 1.252 . S
O293 In286 2.325 1_556 S
O293 C289 1.260 . S
O294 In286 2.264 1_656 S
O294 C291 1.252 1_655 S
O295 In286 2.322 1_556 S
O295 C291 1.260 . S
C296 O287 1.240 . S
C296 O288 1.252 . S
O297 In286 2.296 1_655 S
O297 C290 1.240 1_655 S
O298 In286 2.330 . S
O298 C290 1.252 . S
In299 O300 2.296 . S
In299 O301 2.330 . S
In299 O305 2.264 1_554 S
In299 O306 2.322 1_554 S
In299 O307 2.265 1_554 S
In299 O308 2.325 1_554 S
In299 O310 2.294 . S
In299 O311 2.327 . S
O300 In299 2.296 . S
O300 C309 1.240 . S
O301 In299 2.330 . S
O301 C309 1.252 . S
C302 O305 1.252 . S
C302 O306 1.260 . S
C303 O310 1.240 . S
C303 O311 1.252 . S
C304 O307 1.252 . S
C304 O308 1.260 . S
O305 In299 2.264 1_556 S
O305 C302 1.252 . S
O306 In299 2.322 1_556 S
O306 C302 1.260 . S
O307 In299 2.265 1_556 S
O307 C304 1.252 . S
O308 In299 2.325 1_556 S
O308 C304 1.260 . S
C309 O300 1.240 . S
C309 O301 1.252 . S
O310 In299 2.294 . S
O310 C303 1.240 . S
O311 In299 2.327 . S
O311 C303 1.252 . S
In312 O313 2.294 . S
In312 O314 2.326 . S
In312 O318 2.266 . S
In312 O319 2.326 . S
In312 O320 2.266 . S
In312 O321 2.326 . S
In312 O323 2.294 . S
In312 O324 2.326 . S
O313 In312 2.294 . S
O313 C322 1.240 1_556 S
O314 In312 2.326 . S
O314 C322 1.252 1_556 S
C315 O318 1.252 . S
C315 O319 1.260 . S
C316 O323 1.240 . S
C316 O324 1.252 . S
C317 O320 1.252 . S
C317 O321 1.260 . S
O318 In312 2.266 . S
O318 C315 1.252 . S
O319 In312 2.326 . S
O319 C315 1.260 . S
O320 In312 2.266 . S
O320 C317 1.252 . S
O321 In312 2.326 . S
O321 C317 1.260 . S
C322 O313 1.240 1_554 S
C322 O314 1.252 1_554 S
O323 In312 2.294 . S
O323 C316 1.240 . S
O324 In312 2.326 . S
O324 C316 1.252 . S
In325 O326 2.294 . S
In325 O327 2.326 . S
In325 O331 2.266 . S
In325 O332 2.326 . S
In325 O333 2.266 . S
In325 O334 2.326 . S
In325 O336 2.294 . S
In325 O337 2.326 . S
O326 In325 2.294 . S
O326 C335 1.240 . S
O327 In325 2.326 . S
O327 C335 1.252 . S
C328 O331 1.252 . S
C328 O332 1.260 . S
C329 O336 1.240 1_554 S
C329 O337 1.252 1_554 S
C330 O333 1.252 . S
C330 O334 1.260 . S
O331 In325 2.266 . S
O331 C328 1.252 . S
O332 In325 2.326 . S
O332 C328 1.260 . S
O333 In325 2.266 . S
O333 C330 1.252 . S
O334 In325 2.326 . S
O334 C330 1.260 . S
C335 O326 1.240 . S
C335 O327 1.252 . S
O336 In325 2.294 . S
O336 C329 1.240 1_556 S
O337 In325 2.326 . S
O337 C329 1.252 1_556 S
In338 O339 2.294 . S
In338 O340 2.326 . S
In338 O344 2.266 . S
In338 O345 2.326 . S
In338 O346 2.266 . S
In338 O347 2.326 . S
In338 O349 2.294 . S
In338 O350 2.326 1_556 S
O339 In338 2.294 . S
O339 C348 1.240 . S
O340 In338 2.326 . S
O340 C348 1.252 . S
C341 O344 1.252 . S
C341 O345 1.260 . S
C342 O349 1.240 1_554 S
C342 O350 1.252 . S
C343 O346 1.252 . S
C343 O347 1.260 . S
O344 In338 2.266 . S
O344 C341 1.252 . S
O345 In338 2.326 . S
O345 C341 1.260 . S
O346 In338 2.266 . S
O346 C343 1.252 . S
O347 In338 2.326 . S
O347 C343 1.260 . S
C348 O339 1.240 . S
C348 O340 1.252 . S
O349 In338 2.294 . S
O349 C342 1.240 1_556 S
O350 In338 2.326 1_554 S
O350 C342 1.252 . S
In351 O352 2.297 1_545 S
In351 O353 2.330 . S
In351 O357 2.264 1_546 S
In351 O358 2.322 1_556 S
In351 O359 2.265 1_556 S
In351 O360 2.325 1_556 S
In351 O362 2.294 . S
In351 O363 2.327 1_545 S
O352 In351 2.297 1_565 S
O352 C361 1.240 . S
O353 In351 2.330 . S
O353 C361 1.252 1_545 S
C354 O357 1.252 . S
C354 O358 1.260 1_565 S
C355 O362 1.240 . S
C355 O363 1.252 1_545 S
C356 O359 1.252 . S
C356 O360 1.260 . S
O357 In351 2.264 1_564 S
O357 C354 1.252 . S
O358 In351 2.322 1_554 S
O358 C354 1.260 1_545 S
O359 In351 2.265 1_554 S
O359 C356 1.252 . S
O360 In351 2.325 1_554 S
O360 C356 1.260 . S
C361 O352 1.240 . S
C361 O353 1.252 1_565 S
O362 In351 2.294 . S
O362 C355 1.240 . S
O363 In351 2.327 1_565 S
O363 C355 1.252 1_565 S
In364 O365 2.296 1_655 S
In364 O366 2.330 . S
In364 O370 2.264 1_656 S
In364 O371 2.322 1_556 S
In364 O372 2.265 1_556 S
In364 O373 2.325 1_556 S
In364 O375 2.294 . S
In364 O376 2.327 . S
O365 In364 2.296 1_455 S
O365 C374 1.240 1_455 S
O366 In364 2.330 . S
O366 C374 1.252 . S
C367 O370 1.252 1_655 S
C367 O371 1.260 . S
C368 O375 1.240 . S
C368 O376 1.252 . S
C369 O372 1.252 . S
C369 O373 1.260 . S
O370 In364 2.264 1_454 S
O370 C367 1.252 1_455 S
O371 In364 2.322 1_554 S
O371 C367 1.260 . S
O372 In364 2.265 1_554 S
O372 C369 1.252 . S
O373 In364 2.325 1_554 S
O373 C369 1.260 . S
C374 O365 1.240 1_655 S
C374 O366 1.252 . S
O375 In364 2.294 . S
O375 C368 1.240 . S
O376 In364 2.327 . S
O376 C368 1.252 . S
In377 O378 2.294 . S
In377 O379 2.327 . S
In377 O383 2.265 1_556 S
In377 O384 2.325 1_556 S
In377 O385 2.264 1_556 S
In377 O386 2.322 1_556 S
In377 O388 2.296 . S
In377 O389 2.330 . S
O378 In377 2.294 . S
O378 C387 1.240 . S
O379 In377 2.327 . S
O379 C387 1.252 . S
C380 O383 1.252 . S
C380 O384 1.260 . S
C381 O388 1.240 . S
C381 O389 1.252 . S
C382 O385 1.252 . S
C382 O386 1.260 . S
O383 In377 2.265 1_554 S
O383 C380 1.252 . S
O384 In377 2.325 1_554 S
O384 C380 1.260 . S
O385 In377 2.264 1_554 S
O385 C382 1.252 . S
O386 In377 2.322 1_554 S
O386 C382 1.260 . S
C387 O378 1.240 . S
C387 O379 1.252 . S
O388 In377 2.296 . S
O388 C381 1.240 . S
O389 In377 2.330 . S
O389 C381 1.252 . S
In390 O391 2.294 . S
In390 O392 2.327 1_655 S
In390 O396 2.265 . S
In390 O397 2.325 . S
In390 O398 2.267 1_655 S
In390 O399 2.326 . S
In390 O401 2.294 1_655 S
In390 O402 2.326 . S
O391 In390 2.294 . S
O391 C400 1.240 . S
O392 In390 2.327 1_455 S
O392 C400 1.252 1_455 S
C393 O396 1.252 . S
C393 O397 1.260 . S
C394 O401 1.240 . S
C394 O402 1.252 1_455 S
C395 O398 1.252 . S
C395 O399 1.260 1_455 S
O396 In390 2.265 . S
O396 C393 1.252 . S
O397 In390 2.325 . S
O397 C393 1.260 . S
O398 In390 2.267 1_455 S
O398 C395 1.252 . S
O399 In390 2.326 . S
O399 C395 1.260 1_655 S
C400 O391 1.240 . S
C400 O392 1.252 1_655 S
O401 In390 2.294 1_455 S
O401 C394 1.240 . S
O402 In390 2.326 . S
O402 C394 1.252 1_655 S
In403 O404 2.294 . S
In403 O405 2.326 . S
In403 O409 2.266 . S
In403 O410 2.326 . S
In403 O411 2.266 . S
In403 O412 2.326 . S
In403 O414 2.294 . S
In403 O415 2.326 . S
O404 In403 2.294 . S
O404 C413 1.240 . S
O405 In403 2.326 . S
O405 C413 1.252 . S
C406 O409 1.252 . S
C406 O410 1.260 . S
C407 O414 1.240 . S
C407 O415 1.252 . S
C408 O411 1.252 . S
C408 O412 1.260 . S
O409 In403 2.266 . S
O409 C406 1.252 . S
O410 In403 2.326 . S
O410 C406 1.260 . S
O411 In403 2.266 . S
O411 C408 1.252 . S
O412 In403 2.326 . S
O412 C408 1.260 . S
C413 O404 1.240 . S
C413 O405 1.252 . S
O414 In403 2.294 . S
O414 C407 1.240 . S
O415 In403 2.326 . S
O415 C407 1.252 . S
In416 O417 2.294 . S
In416 O418 2.327 . S
In416 O422 2.266 . S
In416 O423 2.326 . S
In416 O424 2.266 1_545 S
In416 O425 2.326 . S
In416 O427 2.294 1_545 S
In416 O428 2.326 . S
O417 In416 2.294 . S
O417 C426 1.240 . S
O418 In416 2.327 . S
O418 C426 1.257 . S
C419 O422 1.252 . S
C419 O423 1.260 . S
C420 O427 1.240 1_545 S
C420 O428 1.252 . S
C421 O424 1.252 1_545 S
C421 O425 1.260 . S
O422 In416 2.266 . S
O422 C419 1.252 . S
O423 In416 2.326 . S
O423 C419 1.260 . S
O424 In416 2.266 1_565 S
O424 C421 1.252 1_565 S
O425 In416 2.326 . S
O425 C421 1.260 . S
C426 O417 1.240 . S
C426 O418 1.257 . S
O427 In416 2.294 1_565 S
O427 C420 1.240 1_565 S
O428 In416 2.326 . S
O428 C420 1.252 . S
In429 O430 2.294 . S
In429 O431 2.326 . S
In429 O435 2.266 . S
In429 O436 2.326 . S
In429 O437 2.266 . S
In429 O438 2.326 . S
In429 O440 2.294 . S
In429 O441 2.326 . S
O430 In429 2.294 . S
O430 C439 1.240 . S
O431 In429 2.326 . S
O431 C439 1.252 . S
C432 O435 1.252 . S
C432 O436 1.260 . S
C433 O440 1.240 . S
C433 O441 1.252 . S
C434 O437 1.252 . S
C434 O438 1.260 . S
O435 In429 2.266 . S
O435 C432 1.252 . S
O436 In429 2.326 . S
O436 C432 1.260 . S
O437 In429 2.266 . S
O437 C434 1.252 . S
O438 In429 2.326 . S
O438 C434 1.260 . S
C439 O430 1.240 . S
C439 O431 1.252 . S
O440 In429 2.294 . S
O440 C433 1.240 . S
O441 In429 2.326 . S
O441 C433 1.252 . S
In442 O443 2.294 . S
In442 O444 2.326 . S
In442 O448 2.266 . S
In442 O449 2.326 . S
In442 O450 2.266 . S
In442 O451 2.326 . S
In442 O453 2.294 . S
In442 O454 2.326 . S
O443 In442 2.294 . S
O443 C452 1.240 . S
O444 In442 2.326 . S
O444 C452 1.252 . S
C445 O448 1.252 . S
C445 O449 1.260 . S
C446 O453 1.240 . S
C446 O454 1.252 . S
C447 O450 1.252 . S
C447 O451 1.260 . S
O448 In442 2.266 . S
O448 C445 1.252 . S
O449 In442 2.326 . S
O449 C445 1.260 . S
O450 In442 2.266 . S
O450 C447 1.252 . S
O451 In442 2.326 . S
O451 C447 1.260 . S
C452 O443 1.240 . S
C452 O444 1.252 . S
O453 In442 2.294 . S
O453 C446 1.240 . S
O454 In442 2.326 . S
O454 C446 1.252 . S
In455 O456 2.294 . S
In455 O457 2.326 . S
In455 O461 2.266 . S
In455 O462 2.326 . S
In455 O463 2.266 . S
In455 O464 2.326 . S
In455 O466 2.294 . S
In455 O467 2.326 . S
O456 In455 2.294 . S
O456 C465 1.240 . S
O457 In455 2.326 . S
O457 C465 1.252 . S
C458 O461 1.252 . S
C458 O462 1.260 . S
C459 O466 1.240 . S
C459 O467 1.252 . S
C460 O463 1.252 . S
C460 O464 1.260 . S
O461 In455 2.266 . S
O461 C458 1.252 . S
O462 In455 2.326 . S
O462 C458 1.260 . S
O463 In455 2.266 . S
O463 C460 1.252 . S
O464 In455 2.326 . S
O464 C460 1.260 . S
C465 O456 1.240 . S
C465 O457 1.252 . S
O466 In455 2.294 . S
O466 C459 1.240 . S
O467 In455 2.326 . S
O467 C459 1.252 . S
C212 C10 1.810 . S
C225 C17 1.924 . S
C205 C30 1.853 . S
C342 C43 1.777 . S
C62 C322 1.822 . S
C75 C329 1.830 . S
C88 C452 1.810 . S
C459 C95 1.924 . S
C439 C108 1.853 . S
C121 C270 1.777 . S
C244 C134 1.822 . S
C153 C257 1.830 . S
C374 C166 1.753 . S
C179 C381 1.811 . S
C361 C192 1.748 . S
C420 C283 1.748 . S
C394 C290 1.753 . S
C309 C413 1.811 . S
C238 C4 1.524 . S
C251 C23 1.790 . S
C264 C36 2.793 . S
C49 C433 1.554 . S
C56 C446 2.880 . S
C69 C465 1.835 . S
C82 C316 1.524 . S
C335 C101 1.790 . S
C348 C114 2.793 . S
C199 C127 1.554 . S
C140 C218 2.880 . S
C147 C231 1.835 . S
C160 C400 1.620 1_455 S
C407 C173 1.673 . S
C426 C186 2.423 1_545 S
C355 C277 1.812 1_546 S
C296 C368 2.661 1_454 S
C303 C387 2.002 1_554 S
C356 C5 1.539 . S
C16 C369 1.638 . S
C29 C380 1.658 . S
C161 C42 1.472 . S
C57 C174 1.732 . S
C70 C187 1.509 . S
C278 C83 1.539 . S
C94 C289 1.638 . S
C304 C107 1.658 . S
C120 C393 1.472 . S
C408 C133 1.732 . S
C419 C148 1.509 . S
C317 C200 1.509 . S
C328 C211 1.731 1_565 S
C341 C224 1.732 1_455 S
C239 C434 1.509 . S
C447 C252 1.731 1_565 S
C458 C265 1.732 1_455 S
C3 C213 1.410 . S
C18 C226 1.632 . S
C31 C198 1.492 . S
C343 C44 1.403 . S
C315 C55 1.453 . S
C330 C68 1.515 . S
C445 C81 1.410 . S
C460 C96 1.632 . S
C432 C109 1.492 . S
C122 C263 1.403 . S
C135 C237 1.453 . S
C146 C250 1.515 . S
C367 C159 1.468 . S
C382 C172 1.607 . S
C185 C354 1.531 . S
C276 C421 1.531 . S
C395 C291 1.468 . S
C406 C302 1.607 . S
