# Generated by pormake.
# Topology whk, (6)-cn, num edge types: 1
# Building blocks:
#     Node 0, Type 0, BuildingBlock: PAMTOO_clean_sbu_0, # of connection points: 6
#     Node 1, Type 0, BuildingBlock: PAMTOO_clean_sbu_0, # of connection points: 6
#     Node 2, Type 0, BuildingBlock: PAMTOO_clean_sbu_0, # of connection points: 6
#     Node 3, Type 0, BuildingBlock: PAMTOO_clean_sbu_0, # of connection points: 6
#     Node 4, Type 0, BuildingBlock: PAMTOO_clean_sbu_0, # of connection points: 6
#     Node 5, Type 0, BuildingBlock: PAMTOO_clean_sbu_0, # of connection points: 6
#     Node 6, Type 0, BuildingBlock: PAMTOO_clean_sbu_0, # of connection points: 6
#     Node 7, Type 0, BuildingBlock: PAMTOO_clean_sbu_0, # of connection points: 6
#     Node 8, Type 0, BuildingBlock: PAMTOO_clean_sbu_0, # of connection points: 6
#     Node 9, Type 0, BuildingBlock: PAMTOO_clean_sbu_0, # of connection points: 6
#     Node 10, Type 0, BuildingBlock: PAMTOO_clean_sbu_0, # of connection points: 6
#     Node 11, Type 0, BuildingBlock: PAMTOO_clean_sbu_0, # of connection points: 6
#     Node 12, Type 0, BuildingBlock: PAMTOO_clean_sbu_0, # of connection points: 6
#     Node 13, Type 0, BuildingBlock: PAMTOO_clean_sbu_0, # of connection points: 6
#     Node 14, Type 0, BuildingBlock: PAMTOO_clean_sbu_0, # of connection points: 6
#     Node 15, Type 0, BuildingBlock: PAMTOO_clean_sbu_0, # of connection points: 6
#     Edge 16, Type (0, 0), BuildingBlock: ZUJKAS_clean_linker_0, # of connection points: 2
#     Edge 17, Type (0, 0), BuildingBlock: ZUJKAS_clean_linker_0, # of connection points: 2
#     Edge 18, Type (0, 0), BuildingBlock: ZUJKAS_clean_linker_0, # of connection points: 2
#     Edge 19, Type (0, 0), BuildingBlock: ZUJKAS_clean_linker_0, # of connection points: 2
#     Edge 20, Type (0, 0), BuildingBlock: ZUJKAS_clean_linker_0, # of connection points: 2
#     Edge 21, Type (0, 0), BuildingBlock: ZUJKAS_clean_linker_0, # of connection points: 2
#     Edge 22, Type (0, 0), BuildingBlock: ZUJKAS_clean_linker_0, # of connection points: 2
#     Edge 23, Type (0, 0), BuildingBlock: ZUJKAS_clean_linker_0, # of connection points: 2
#     Edge 24, Type (0, 0), BuildingBlock: ZUJKAS_clean_linker_0, # of connection points: 2
#     Edge 25, Type (0, 0), BuildingBlock: ZUJKAS_clean_linker_0, # of connection points: 2
#     Edge 26, Type (0, 0), BuildingBlock: ZUJKAS_clean_linker_0, # of connection points: 2
#     Edge 27, Type (0, 0), BuildingBlock: ZUJKAS_clean_linker_0, # of connection points: 2
#     Edge 28, Type (0, 0), BuildingBlock: ZUJKAS_clean_linker_0, # of connection points: 2
#     Edge 29, Type (0, 0), BuildingBlock: ZUJKAS_clean_linker_0, # of connection points: 2
#     Edge 30, Type (0, 0), BuildingBlock: ZUJKAS_clean_linker_0, # of connection points: 2
#     Edge 31, Type (0, 0), BuildingBlock: ZUJKAS_clean_linker_0, # of connection points: 2
#     Edge 32, Type (0, 0), BuildingBlock: ZUJKAS_clean_linker_0, # of connection points: 2
#     Edge 33, Type (0, 0), BuildingBlock: ZUJKAS_clean_linker_0, # of connection points: 2
#     Edge 34, Type (0, 0), BuildingBlock: ZUJKAS_clean_linker_0, # of connection points: 2
#     Edge 35, Type (0, 0), BuildingBlock: ZUJKAS_clean_linker_0, # of connection points: 2
#     Edge 36, Type (0, 0), BuildingBlock: ZUJKAS_clean_linker_0, # of connection points: 2
#     Edge 37, Type (0, 0), BuildingBlock: ZUJKAS_clean_linker_0, # of connection points: 2
#     Edge 38, Type (0, 0), BuildingBlock: ZUJKAS_clean_linker_0, # of connection points: 2
#     Edge 39, Type (0, 0), BuildingBlock: ZUJKAS_clean_linker_0, # of connection points: 2
#     Edge 40, Type (0, 0), BuildingBlock: ZUJKAS_clean_linker_0, # of connection points: 2
#     Edge 41, Type (0, 0), BuildingBlock: ZUJKAS_clean_linker_0, # of connection points: 2
#     Edge 42, Type (0, 0), BuildingBlock: ZUJKAS_clean_linker_0, # of connection points: 2
#     Edge 43, Type (0, 0), BuildingBlock: ZUJKAS_clean_linker_0, # of connection points: 2
#     Edge 44, Type (0, 0), BuildingBlock: ZUJKAS_clean_linker_0, # of connection points: 2
#     Edge 45, Type (0, 0), BuildingBlock: ZUJKAS_clean_linker_0, # of connection points: 2
#     Edge 46, Type (0, 0), BuildingBlock: ZUJKAS_clean_linker_0, # of connection points: 2
#     Edge 47, Type (0, 0), BuildingBlock: ZUJKAS_clean_linker_0, # of connection points: 2
#     Edge 48, Type (0, 0), BuildingBlock: ZUJKAS_clean_linker_0, # of connection points: 2
#     Edge 49, Type (0, 0), BuildingBlock: ZUJKAS_clean_linker_0, # of connection points: 2
#     Edge 50, Type (0, 0), BuildingBlock: ZUJKAS_clean_linker_0, # of connection points: 2
#     Edge 51, Type (0, 0), BuildingBlock: ZUJKAS_clean_linker_0, # of connection points: 2
#     Edge 52, Type (0, 0), BuildingBlock: ZUJKAS_clean_linker_0, # of connection points: 2
#     Edge 53, Type (0, 0), BuildingBlock: ZUJKAS_clean_linker_0, # of connection points: 2
#     Edge 54, Type (0, 0), BuildingBlock: ZUJKAS_clean_linker_0, # of connection points: 2
#     Edge 55, Type (0, 0), BuildingBlock: ZUJKAS_clean_linker_0, # of connection points: 2
#     Edge 56, Type (0, 0), BuildingBlock: ZUJKAS_clean_linker_0, # of connection points: 2
#     Edge 57, Type (0, 0), BuildingBlock: ZUJKAS_clean_linker_0, # of connection points: 2
#     Edge 58, Type (0, 0), BuildingBlock: ZUJKAS_clean_linker_0, # of connection points: 2
#     Edge 59, Type (0, 0), BuildingBlock: ZUJKAS_clean_linker_0, # of connection points: 2
#     Edge 60, Type (0, 0), BuildingBlock: ZUJKAS_clean_linker_0, # of connection points: 2
#     Edge 61, Type (0, 0), BuildingBlock: ZUJKAS_clean_linker_0, # of connection points: 2
#     Edge 62, Type (0, 0), BuildingBlock: ZUJKAS_clean_linker_0, # of connection points: 2
#     Edge 63, Type (0, 0), BuildingBlock: ZUJKAS_clean_linker_0, # of connection points: 2
# Relax obj value: 0.519
# Max RMSD: 0.303
# Mean RMSD: 0.303
data_MOF--net-whk--node1-PAMTOO_clean_sbu_0--edge1-ZUJKAS_clean_linker_0
_symmetry_space_group_name_H-M    P1
_symmetry_Int_Tables_number       1
_symmetry_cell_setting            triclinic
loop_
_symmetry_equiv_pos_as_xyz
'x, y, z'
_cell_length_a     56.634703
_cell_length_b     56.441465
_cell_length_c     53.809687
_cell_angle_alpha  90.236729
_cell_angle_beta   90.014805
_cell_angle_gamma 90.042213
loop_
_atom_site_label
_atom_site_type_symbol
_atom_site_fract_x
_atom_site_fract_y
_atom_site_fract_z
_atom_type_partial_charge
Dy0 Dy 0.55968 0.1991 0.42656 0.0
Dy1 Dy 0.59885 0.23314 0.39988 0.0
C2 C 0.58359 0.18465 0.37586 0.0
O3 O 0.59434 0.18277 0.43738 0.0
O4 O 0.61957 0.21359 0.42874 0.0
O5 O 0.54633 0.1641 0.43445 0.0
O6 O 0.52764 0.19485 0.44827 0.0
O7 O 0.58288 0.25461 0.42998 0.0
O8 O 0.57444 0.22393 0.45615 0.0
O9 O 0.56465 0.24549 0.38362 0.0
O10 O 0.53939 0.23053 0.41301 0.0
O11 O 0.62734 0.25847 0.40158 0.0
O12 O 0.61561 0.2447 0.36591 0.0
C13 C 0.61538 0.19268 0.4385 0.0
O14 O 0.56281 0.18741 0.38638 0.0
O15 O 0.60154 0.19688 0.38409 0.0
C16 C 0.5046 0.16086 0.43827 0.0
C17 C 0.46169 0.13732 0.42679 0.0
C18 C 0.4804 0.13775 0.40956 0.0
C19 C 0.5016 0.14946 0.41519 0.0
C20 C 0.48582 0.16082 0.45528 0.0
C21 C 0.46459 0.14925 0.4496 0.0
C22 C 0.52735 0.1719 0.44547 0.0
C23 C 0.57896 0.24662 0.45239 0.0
C24 C 0.54407 0.24543 0.39494 0.0
C25 C 0.65645 0.24365 0.37511 0.0
C26 C 0.69563 0.21477 0.38552 0.0
C27 C 0.69511 0.23845 0.39375 0.0
C28 C 0.67565 0.25279 0.38856 0.0
C29 C 0.65825 0.22083 0.36461 0.0
C30 C 0.67757 0.20645 0.36995 0.0
C31 C 0.63295 0.25446 0.37838 0.0
H32 H 0.47867 0.12901 0.39169 0.0
H33 H 0.51572 0.14932 0.40162 0.0
H34 H 0.48774 0.16941 0.47321 0.0
H35 H 0.4507 0.14908 0.46342 0.0
H36 H 0.70887 0.24533 0.40577 0.0
H37 H 0.67464 0.27022 0.39702 0.0
H38 H 0.64386 0.21328 0.35397 0.0
H39 H 0.67784 0.18844 0.3629 0.0
Dy40 Dy 0.34382 0.55428 0.42785 0.0
Dy41 Dy 0.31489 0.59683 0.40088 0.0
C42 C 0.35592 0.57221 0.3721 0.0
O43 O 0.35432 0.58794 0.44724 0.0
O44 O 0.34969 0.61175 0.41337 0.0
O45 O 0.345 0.5195 0.44477 0.0
O46 O 0.37715 0.53959 0.43993 0.0
O47 O 0.30562 0.60083 0.4407 0.0
O48 O 0.31393 0.5633 0.45457 0.0
O49 O 0.29009 0.56689 0.40779 0.0
O50 O 0.31673 0.53721 0.40315 0.0
O51 O 0.28572 0.60715 0.37735 0.0
O52 O 0.30919 0.63378 0.3927 0.0
C53 C 0.35852 0.60797 0.43562 0.0
O54 O 0.3645 0.5654 0.39369 0.0
O55 O 0.33387 0.57879 0.37019 0.0
C56 C 0.3802 0.49765 0.43825 0.0
C57 C 0.40435 0.45582 0.42372 0.0
C58 C 0.40005 0.47407 0.40648 0.0
C59 C 0.38804 0.49475 0.41366 0.0
C60 C 0.38436 0.47952 0.45543 0.0
C61 C 0.39627 0.45886 0.44828 0.0
C62 C 0.36794 0.51941 0.44656 0.0
C63 C 0.30311 0.58394 0.45711 0.0
C64 C 0.29472 0.54454 0.40342 0.0
C65 C 0.26824 0.64062 0.39531 0.0
C66 C 0.22849 0.65847 0.4205 0.0
C67 C 0.24994 0.65533 0.43313 0.0
C68 C 0.26958 0.64646 0.4207 0.0
C69 C 0.2467 0.64319 0.38276 0.0
C70 C 0.22692 0.65206 0.39528 0.0
C71 C 0.28854 0.62947 0.38288 0.0
H72 H 0.40576 0.47227 0.38736 0.0
H73 H 0.38491 0.50849 0.40004 0.0
H74 H 0.37853 0.48142 0.47451 0.0
H75 H 0.39953 0.44543 0.46218 0.0
H76 H 0.25163 0.66009 0.45259 0.0
H77 H 0.28581 0.64417 0.43104 0.0
H78 H 0.2452 0.63833 0.36332 0.0
H79 H 0.21066 0.65465 0.38505 0.0
Dy80 Dy 0.98709 0.33992 0.43078 0.0
Dy81 Dy 0.94607 0.30954 0.40302 0.0
C82 C 0.97075 0.35007 0.3742 0.0
O83 O 0.95289 0.35106 0.44825 0.0
O84 O 0.93018 0.34462 0.41376 0.0
O85 O 1.00104 0.374 0.44245 0.0
O86 O 0.02103 0.34202 0.44907 0.0
O87 O 0.94032 0.30172 0.44286 0.0
O88 O 0.97706 0.31104 0.45828 0.0
O89 O 0.97582 0.28525 0.41223 0.0
O90 O 1.00521 0.31218 0.40762 0.0
O91 O 0.93727 0.27917 0.38022 0.0
O92 O 0.90984 0.30324 0.3925 0.0
C93 C 0.93333 0.35468 0.43564 0.0
O94 O 0.97638 0.35958 0.3958 0.0
O95 O 0.96536 0.32762 0.37275 0.0
C96 C 0.04284 0.37765 0.44289 0.0
C97 C 0.08528 0.40191 0.43124 0.0
C98 C 0.06922 0.4113 0.44865 0.0
C99 C 0.0483 0.39931 0.45439 0.0
C100 C 0.05866 0.36821 0.42531 0.0
C101 C 0.0797 0.38019 0.41961 0.0
C102 C 0.02094 0.3651 0.45017 0.0
C103 C 0.95641 0.30023 0.46026 0.0
C104 C 0.99813 0.29002 0.40829 0.0
C105 C 0.90276 0.2623 0.39609 0.0
C106 C 0.88208 0.2237 0.42073 0.0
C107 C 0.88534 0.24533 0.43317 0.0
C108 C 0.8957 0.2644 0.42104 0.0
C109 C 0.90023 0.24049 0.38382 0.0
C110 C 0.88997 0.22126 0.39608 0.0
C111 C 0.91473 0.28217 0.38384 0.0
H112 H 0.07303 0.42776 0.45827 0.0
H113 H 0.03645 0.40686 0.46809 0.0
H114 H 0.05483 0.35155 0.41609 0.0
H115 H 0.0915 0.37255 0.40593 0.0
H116 H 0.87935 0.24767 0.4521 0.0
H117 H 0.89798 0.28085 0.43119 0.0
H118 H 0.90604 0.2384 0.36475 0.0
H119 H 0.88727 0.20483 0.38599 0.0
Dy120 Dy 0.20435 0.98152 0.42825 0.0
Dy121 Dy 0.23174 0.93943 0.39819 0.0
C122 C 0.19379 0.96755 0.3719 0.0
O123 O 0.19235 0.94838 0.4472 0.0
O124 O 0.1982 0.92398 0.41371 0.0
O125 O 0.17132 0.99698 0.44022 0.0
O126 O 0.20402 1.01579 0.44675 0.0
O127 O 0.24134 0.93281 0.43744 0.0
O128 O 0.23323 0.96935 0.45464 0.0
O129 O 0.2585 0.96822 0.40111 0.0
O130 O 0.23261 0.99922 0.40553 0.0
O131 O 0.26022 0.91511 0.38993 0.0
O132 O 0.22868 0.91541 0.3671 0.0
C133 C 0.18888 0.92806 0.43573 0.0
O134 O 0.18389 0.97079 0.39371 0.0
O135 O 0.21656 0.96462 0.37122 0.0
C136 C 0.16952 0.03927 0.4407 0.0
C137 C 0.14548 0.08229 0.43038 0.0
C138 C 0.141 0.06169 0.41626 0.0
C139 C 0.1529 0.04045 0.42131 0.0
C140 C 0.17432 0.05989 0.45451 0.0
C141 C 0.16252 0.08114 0.44939 0.0
C142 C 0.18105 1.01666 0.44783 0.0
C143 C 0.2438 0.94844 0.45539 0.0
C144 C 0.25413 0.99107 0.40171 0.0
C145 C 0.24134 0.87858 0.38112 0.0
C146 C 0.2164 0.83938 0.39978 0.0
C147 C 0.23251 0.85164 0.41493 0.0
C148 C 0.24487 0.87102 0.40571 0.0
C149 C 0.22686 0.86504 0.36532 0.0
C150 C 0.21439 0.84563 0.37461 0.0
C151 C 0.24698 0.90321 0.37435 0.0
H152 H 0.12824 0.06197 0.40127 0.0
H153 H 0.14885 0.0249 0.41024 0.0
H154 H 0.18693 0.05944 0.46964 0.0
H155 H 0.16627 0.09649 0.46086 0.0
H156 H 0.23437 0.84734 0.43443 0.0
H157 H 0.25569 0.88116 0.41852 0.0
H158 H 0.22368 0.87063 0.34637 0.0
H159 H 0.20242 0.83616 0.3624 0.0
Dy160 Dy 0.06123 0.84628 0.10894 0.0
Dy161 Dy 0.11181 0.81798 0.11488 0.0
C162 C 0.09307 0.84826 0.15927 0.0
O163 O 0.08817 0.86885 0.08899 0.0
O164 O 0.1209 0.85618 0.11036 0.0
O165 O 0.0315 0.86022 0.12869 0.0
O166 O 0.03386 0.86569 0.08833 0.0
O167 O 0.10212 0.82473 0.07557 0.0
O168 O 0.06326 0.81803 0.07903 0.0
O169 O 0.08485 0.78931 0.11979 0.0
O170 O 0.05079 0.81116 0.12489 0.0
O171 O 0.13308 0.78895 0.10149 0.0
O172 O 0.14821 0.81495 0.12661 0.0
C173 C 0.1104 0.87146 0.09578 0.0
O174 O 0.08068 0.86008 0.14268 0.0
O175 O 0.10217 0.82747 0.1538 0.0
C176 C 0.99956 0.88295 0.11076 0.0
C177 C 0.95715 0.90937 0.11552 0.0
C178 C 0.97031 0.903 0.1366 0.0
C179 C 0.99117 0.88997 0.13426 0.0
C180 C 0.98646 0.88919 0.08959 0.0
C181 C 0.9654 0.90218 0.09195 0.0
C182 C 0.022 0.86942 0.10887 0.0
C183 C 0.08306 0.81488 0.06676 0.0
C184 C 0.06208 0.79077 0.1245 0.0
C185 C 0.17121 0.80269 0.09267 0.0
C186 C 0.20762 0.81493 0.05934 0.0
C187 C 0.1841 0.82107 0.05413 0.0
C188 C 0.16609 0.81504 0.07068 0.0
C189 C 0.1945 0.7962 0.09778 0.0
C190 C 0.21256 0.80228 0.08131 0.0
C191 C 0.15242 0.7979 0.11078 0.0
H192 H 0.96436 0.90788 0.15505 0.0
H193 H 1.0008 0.88549 0.15099 0.0
H194 H 0.99248 0.88406 0.07124 0.0
H195 H 0.95578 0.90691 0.0753 0.0
H196 H 0.17963 0.83062 0.03736 0.0
H197 H 0.14818 0.82038 0.06647 0.0
H198 H 0.1988 0.7869 0.11477 0.0
H199 H 0.23052 0.79774 0.08627 0.0
Dy200 Dy 0.69732 0.06291 0.10831 0.0
Dy201 Dy 0.72856 0.10182 0.13912 0.0
C202 C 0.68017 0.08397 0.15881 0.0
O203 O 0.68129 0.09806 0.09799 0.0
O204 O 0.71123 0.12341 0.10958 0.0
O205 O 0.66271 0.04949 0.09868 0.0
O206 O 0.69382 0.03141 0.08528 0.0
O207 O 0.75236 0.09074 0.10865 0.0
O208 O 0.72371 0.07872 0.08086 0.0
O209 O 0.74356 0.06695 0.15128 0.0
O210 O 0.72879 0.04253 0.12076 0.0
O211 O 0.74929 0.13365 0.14413 0.0
O212 O 0.73792 0.11326 0.17615 0.0
C213 C 0.69102 0.1193 0.09831 0.0
O214 O 0.68504 0.06346 0.14844 0.0
O215 O 0.69108 0.10266 0.15072 0.0
C216 C 0.66005 1.00735 0.09411 0.0
C217 C 0.63782 0.963 0.10367 0.0
C218 C 0.62905 0.98414 0.11419 0.0
C219 C 0.63997 1.00597 0.10947 0.0
C220 C 0.66896 0.98625 0.08377 0.0
C221 C 0.65807 0.9644 0.08853 0.0
C222 C 0.67092 0.03061 0.08763 0.0
C223 C 0.74566 0.08547 0.08594 0.0
C224 C 0.74388 0.04691 0.1387 0.0
C225 C 0.73143 0.15459 0.17686 0.0
C226 C 0.69934 0.1926 0.17967 0.0
C227 C 0.72266 0.19632 0.17149 0.0
C228 C 0.73856 0.17745 0.17006 0.0
C229 C 0.70878 0.15136 0.18715 0.0
C230 C 0.69285 0.17017 0.18841 0.0
C231 C 0.74502 0.13389 0.16802 0.0
H232 H 0.61331 0.98395 0.12561 0.0
H233 H 0.63239 0.02183 0.11759 0.0
H234 H 0.68428 0.98667 0.07173 0.0
H235 H 0.6656 0.94856 0.08034 0.0
H236 H 0.72812 0.21344 0.16449 0.0
H237 H 0.7558 0.18036 0.16188 0.0
H238 H 0.7027 0.13397 0.19268 0.0
H239 H 0.67512 0.16692 0.19515 0.0
Dy240 Dy 0.486 0.70138 0.11402 0.0
Dy241 Dy 0.4443 0.73203 0.14162 0.0
C242 C 0.46868 0.69028 0.17042 0.0
O243 O 0.45178 0.6897 0.09687 0.0
O244 O 0.42779 0.69748 0.13024 0.0
O245 O 0.52049 0.69959 0.0965 0.0
O246 O 0.5 0.66768 0.10172 0.0
O247 O 0.43941 0.73993 0.10181 0.0
O248 O 0.47571 0.72961 0.08592 0.0
O249 O 0.47407 0.75627 0.13224 0.0
O250 O 0.50375 0.72969 0.13683 0.0
O251 O 0.43547 0.76013 0.16739 0.0
O252 O 0.40778 0.74155 0.14749 0.0
C253 C 0.43161 0.68693 0.10872 0.0
O254 O 0.47596 0.68154 0.149 0.0
O255 O 0.46144 0.71223 0.17225 0.0
C256 C 0.54208 0.6637 0.10196 0.0
C257 C 0.58373 0.63727 0.11179 0.0
C258 C 0.56244 0.6321 0.12419 0.0
C259 C 0.54187 0.64516 0.11937 0.0
C260 C 0.56339 0.66914 0.08991 0.0
C261 C 0.58395 0.65617 0.09479 0.0
C262 C 0.52021 0.67655 0.09483 0.0
C263 C 0.45524 0.74078 0.08414 0.0
C264 C 0.49645 0.75176 0.13595 0.0
C265 C 0.40558 0.78284 0.14842 0.0
C266 C 0.3887 0.81922 0.11728 0.0
C267 C 0.37314 0.80634 0.13265 0.0
C268 C 0.38153 0.78837 0.14807 0.0
C269 C 0.42134 0.79635 0.13403 0.0
C270 C 0.413 0.81444 0.11872 0.0
C271 C 0.41356 0.7606 0.15986 0.0
H272 H 0.56164 0.61789 0.13763 0.0
H273 H 0.52576 0.64051 0.12903 0.0
H274 H 0.56403 0.68318 0.07625 0.0
H275 H 0.59987 0.66051 0.08464 0.0
H276 H 0.35425 0.80909 0.13171 0.0
H277 H 0.36905 0.77787 0.15861 0.0
H278 H 0.43999 0.79219 0.13363 0.0
H279 H 0.42551 0.82408 0.10738 0.0
Dy280 Dy 0.8447 0.48147 0.11391 0.0
Dy281 Dy 0.81186 0.43579 0.12933 0.0
C282 C 0.85187 0.45363 0.16524 0.0
O283 O 0.86148 0.4501 0.09471 0.0
O284 O 0.84722 0.42069 0.1202 0.0
O285 O 0.86181 0.51164 0.12992 0.0
O286 O 0.86573 0.50502 0.08988 0.0
O287 O 0.80902 0.43956 0.08831 0.0
O288 O 0.81626 0.47939 0.08433 0.0
O289 O 0.78667 0.46573 0.12493 0.0
O290 O 0.81226 0.49614 0.13282 0.0
O291 O 0.78471 0.42106 0.15289 0.0
O292 O 0.80117 0.39939 0.12439 0.0
C293 C 0.86146 0.4279 0.10242 0.0
O294 O 0.8624 0.46242 0.1456 0.0
O295 O 0.82949 0.44788 0.16425 0.0
C296 C 0.88647 0.53988 0.10829 0.0
C297 C 0.91685 0.58003 0.10853 0.0
C298 C 0.90765 0.57093 0.1308 0.0
C299 C 0.89273 0.55121 0.13068 0.0
C300 C 0.89536 0.54902 0.08589 0.0
C301 C 0.91033 0.56895 0.086 0.0
C302 C 0.87115 0.51843 0.10898 0.0
C303 C 0.8068 0.45945 0.07605 0.0
C304 C 0.79057 0.488 0.13051 0.0
C305 C 0.76016 0.39375 0.13169 0.0
C306 C 0.71549 0.37627 0.11734 0.0
C307 C 0.71913 0.38527 0.14143 0.0
C308 C 0.74127 0.39381 0.14856 0.0
C309 C 0.75624 0.38592 0.10718 0.0
C310 C 0.73413 0.37717 0.10014 0.0
C311 C 0.78381 0.40134 0.1402 0.0
H312 H 0.91185 0.57919 0.14846 0.0
H313 H 0.88621 0.54475 0.14833 0.0
H314 H 0.8909 0.54069 0.06834 0.0
H315 H 0.91716 0.5754 0.06849 0.0
H316 H 0.70526 0.38441 0.15527 0.0
H317 H 0.74383 0.39981 0.16752 0.0
H318 H 0.77035 0.38589 0.09359 0.0
H319 H 0.7318 0.37033 0.08147 0.0
Dy320 Dy 0.43306 0.80279 0.63791 0.0
Dy321 Dy 0.47802 0.8345 0.61941 0.0
C322 C 0.45091 0.79957 0.58255 0.0
O323 O 0.46243 0.77703 0.63188 0.0
O324 O 0.49402 0.8018 0.63604 0.0
O325 O 0.41967 0.7678 0.64616 0.0
O326 O 0.39624 0.79794 0.64754 0.0
O327 O 0.46029 0.85151 0.65262 0.0
O328 O 0.44765 0.81846 0.67262 0.0
O329 O 0.44689 0.85274 0.60197 0.0
O330 O 0.41764 0.83801 0.62743 0.0
O331 O 0.50841 0.8517 0.63437 0.0
O332 O 0.50125 0.85492 0.59438 0.0
C333 C 0.4851 0.78034 0.63503 0.0
O334 O 0.4327 0.80395 0.59676 0.0
O335 O 0.47222 0.80672 0.58925 0.0
C336 C 0.38427 0.7643 0.62434 0.0
C337 C 0.36714 0.74327 0.58016 0.0
C338 C 0.37329 0.72914 0.60065 0.0
C339 C 0.3818 0.7396 0.62257 0.0
C340 C 0.37783 0.77836 0.60394 0.0
C341 C 0.36937 0.76799 0.5822 0.0
C342 C 0.39788 0.775 0.64489 0.0
C343 C 0.45321 0.84098 0.6731 0.0
C344 C 0.42494 0.8529 0.61024 0.0
C345 C 0.53622 0.876 0.61199 0.0
C346 C 0.57763 0.90446 0.61146 0.0
C347 C 0.56652 0.89857 0.63396 0.0
C348 C 0.5462 0.88455 0.63422 0.0
C349 C 0.54693 0.88216 0.58935 0.0
C350 C 0.56744 0.89627 0.58908 0.0
C351 C 0.51494 0.86059 0.61313 0.0
H352 H 0.37144 0.71006 0.59979 0.0
H353 H 0.38721 0.72836 0.63782 0.0
H354 H 0.38022 0.79741 0.60432 0.0
H355 H 0.36513 0.77939 0.56668 0.0
H356 H 0.57341 0.90496 0.65152 0.0
H357 H 0.53829 0.88043 0.65201 0.0
H358 H 0.53965 0.87586 0.57192 0.0
H359 H 0.57555 0.90037 0.5714 0.0
Dy360 Dy 0.73426 0.4312 0.62859 0.0
Dy361 Dy 0.7064 0.47919 0.61055 0.0
C362 C 0.74106 0.45055 0.57478 0.0
O363 O 0.76224 0.45891 0.62539 0.0
O364 O 0.73938 0.49203 0.62944 0.0
O365 O 0.76707 0.41393 0.63835 0.0
O366 O 0.7351 0.39339 0.63497 0.0
O367 O 0.6883 0.4649 0.64497 0.0
O368 O 0.71993 0.44681 0.66346 0.0
O369 O 0.68639 0.44875 0.59316 0.0
O370 O 0.69718 0.41993 0.62088 0.0
O371 O 0.69705 0.51499 0.6199 0.0
O372 O 0.68564 0.50034 0.58451 0.0
C373 C 0.76016 0.48174 0.62923 0.0
O374 O 0.73374 0.43229 0.58745 0.0
O375 O 0.73531 0.47208 0.58217 0.0
C376 C 0.76919 0.37905 0.61421 0.0
C377 C 0.78909 0.35962 0.57045 0.0
C378 C 0.80333 0.37171 0.58775 0.0
C379 C 0.79349 0.38129 0.60941 0.0
C380 C 0.75511 0.36632 0.59722 0.0
C381 C 0.76495 0.35675 0.57563 0.0
C382 C 0.75811 0.39296 0.63451 0.0
C383 C 0.69836 0.45527 0.66466 0.0
C384 C 0.68381 0.42733 0.60254 0.0
C385 C 0.66471 0.5345 0.60059 0.0
C386 C 0.6315 0.5718 0.60606 0.0
C387 C 0.63423 0.55463 0.62479 0.0
C388 C 0.65076 0.53623 0.62215 0.0
C389 C 0.66107 0.55081 0.58137 0.0
C390 C 0.6447 0.56924 0.58405 0.0
C391 C 0.68563 0.51878 0.59927 0.0
H392 H 0.82201 0.3742 0.5843 0.0
H393 H 0.80475 0.39118 0.622 0.0
H394 H 0.7363 0.36428 0.60017 0.0
H395 H 0.75359 0.347 0.56301 0.0
H396 H 0.62445 0.55609 0.64202 0.0
H397 H 0.65336 0.52402 0.63738 0.0
H398 H 0.67172 0.54999 0.56467 0.0
H399 H 0.6428 0.58186 0.56908 0.0
Dy400 Dy 0.11192 0.73219 0.61841 0.0
Dy401 Dy 0.06214 0.70292 0.60998 0.0
C402 C 0.08393 0.73606 0.56971 0.0
O403 O 0.08454 0.75989 0.62543 0.0
O404 O 0.05059 0.73739 0.62701 0.0
O405 O 0.13149 0.76397 0.6099 0.0
O406 O 0.14916 0.73447 0.62743 0.0
O407 O 0.07978 0.6886 0.64453 0.0
O408 O 0.102 0.72079 0.6567 0.0
O409 O 0.09037 0.68135 0.59028 0.0
O410 O 0.12194 0.69443 0.61317 0.0
O411 O 0.02933 0.69013 0.62496 0.0
O412 O 0.03751 0.68397 0.58589 0.0
C413 C 0.06166 0.75785 0.62895 0.0
O414 O 0.10326 0.72686 0.57841 0.0
O415 O 0.0644 0.73267 0.58218 0.0
C416 C 0.16796 0.75215 0.59332 0.0
C417 C 0.19822 0.74109 0.55344 0.0
C418 C 0.17376 0.74135 0.54993 0.0
C419 C 0.15882 0.74722 0.56954 0.0
C420 C 0.19246 0.75249 0.59678 0.0
C421 C 0.20754 0.74725 0.57686 0.0
C422 C 0.1517 0.75389 0.61462 0.0
C423 C 0.09237 0.70004 0.66146 0.0
C424 C 0.11266 0.67944 0.59725 0.0
C425 C 1.00658 0.66029 0.60428 0.0
C426 C 0.97102 0.62509 0.60893 0.0
C427 C 0.99059 0.62555 0.62518 0.0
C428 C 1.00813 0.64304 0.62296 0.0
C429 C 0.98768 0.6593 0.5875 0.0
C430 C 0.9701 0.64203 0.5898 0.0
C431 C 0.02213 0.68135 0.60379 0.0
H432 H 0.16618 0.73663 0.53215 0.0
H433 H 0.14005 0.74716 0.56619 0.0
H434 H 0.19988 0.75604 0.61498 0.0
H435 H 0.22643 0.74697 0.58003 0.0
H436 H 0.99222 0.61262 0.63989 0.0
H437 H 0.02249 0.64351 0.63626 0.0
H438 H 0.9859 0.67264 0.57318 0.0
H439 H 0.95525 0.6427 0.57715 0.0
Dy440 Dy 0.81055 0.1042 0.62898 0.0
Dy441 Dy 0.83925 0.05721 0.61016 0.0
C442 C 0.80583 0.08665 0.57444 0.0
O443 O 0.78241 0.07655 0.62704 0.0
O444 O 0.80594 0.04353 0.62762 0.0
O445 O 0.77974 0.12657 0.62659 0.0
O446 O 0.80896 0.13676 0.65031 0.0
O447 O 0.85679 0.07252 0.64447 0.0
O448 O 0.8232 0.08579 0.66282 0.0
O449 O 0.85956 0.08738 0.59307 0.0
O450 O 0.84695 0.11674 0.61961 0.0
O451 O 0.8501 0.02207 0.62024 0.0
O452 O 0.85921 0.03565 0.58374 0.0
C453 C 0.78499 0.05351 0.62863 0.0
O454 O 0.81283 0.10465 0.58783 0.0
O455 O 0.8105 0.06495 0.5819 0.0
C456 C 0.79508 0.16466 0.62093 0.0
C457 C 0.80806 0.19128 0.57888 0.0
C458 C 0.78468 0.18346 0.58187 0.0
C459 C 0.77822 0.17035 0.60274 0.0
C460 C 0.81794 0.1743 0.61892 0.0
C461 C 0.82438 0.1874 0.59806 0.0
C462 C 0.7909 0.1441 0.63729 0.0
C463 C 0.84558 0.08021 0.66439 0.0
C464 C 0.86115 0.10913 0.60198 0.0
C465 C 0.88182 1.00277 0.59966 0.0
C466 C 0.9177 0.96805 0.60531 0.0
C467 C 0.91722 0.98846 0.62058 0.0
C468 C 0.89938 1.00558 0.61787 0.0
C469 C 0.88281 0.98305 0.58379 0.0
C470 C 0.90042 0.9659 0.58659 0.0
C471 C 0.86042 1.01776 0.59904 0.0
H472 H 0.77154 0.18702 0.56777 0.0
H473 H 0.76049 0.16319 0.60373 0.0
H474 H 0.83143 0.17034 0.63255 0.0
H475 H 0.84245 0.19348 0.5964 0.0
H476 H 0.93037 0.99107 0.63493 0.0
H477 H 0.89887 1.02057 0.63049 0.0
H478 H 0.86923 0.9803 0.56988 0.0
H479 H 0.89973 0.95039 0.57471 0.0
Dy480 Dy 0.93755 0.23862 0.91267 0.0
Dy481 Dy 0.98274 0.20433 0.92447 0.0
C482 C 0.96207 0.23975 0.96468 0.0
O483 O 0.96874 0.26265 0.91581 0.0
O484 O 0.99799 0.23657 0.90592 0.0
O485 O 0.92511 0.27405 0.90465 0.0
O486 O 0.9001 0.24587 0.91121 0.0
O487 O 0.96239 0.18932 0.89192 0.0
O488 O 0.94709 0.22338 0.87573 0.0
O489 O 0.95185 0.18658 0.94358 0.0
O490 O 0.92176 0.20317 0.92075 0.0
O491 O 1.01199 0.1865 0.90744 0.0
O492 O 1.00663 0.18314 0.94771 0.0
C493 C 0.99053 0.25842 0.90901 0.0
O494 O 0.94205 0.23543 0.95353 0.0
O495 O 0.98198 0.23248 0.9546 0.0
C496 C 0.89424 0.28205 0.93228 0.0
C497 C 0.8787 0.30762 0.97427 0.0
C498 C 0.87991 0.3186 0.95086 0.0
C499 C 0.88768 0.30588 0.93 0.0
C500 C 0.8939 0.27143 0.95585 0.0
C501 C 0.88623 0.28406 0.97659 0.0
C502 C 0.90355 0.26871 0.91086 0.0
C503 C 0.95275 0.20093 0.87331 0.0
C504 C 0.9294 0.18741 0.93681 0.0
C505 C 0.04087 0.16231 0.92887 0.0
C506 C 0.08272 0.13457 0.92886 0.0
C507 C 0.07283 0.14267 0.90648 0.0
C508 C 0.05225 0.15631 0.90649 0.0
C509 C 0.05055 0.15416 0.95132 0.0
C510 C 0.07129 0.14048 0.95132 0.0
C511 C 1.01952 0.17763 0.92833 0.0
H512 H 0.87394 0.33668 0.9485 0.0
H513 H 0.88835 0.31455 0.91209 0.0
H514 H 0.89933 0.2532 0.95828 0.0
H515 H 0.88558 0.27519 0.99439 0.0
H516 H 0.08127 0.13888 0.88885 0.0
H517 H 0.04539 0.16235 0.88882 0.0
H518 H 0.04222 0.15851 0.96887 0.0
H519 H 0.07826 0.13439 0.96891 0.0
Dy520 Dy 0.31777 0.9416 0.91652 0.0
Dy521 Dy 0.34657 0.98811 0.93659 0.0
C522 C 0.30902 0.96034 0.97119 0.0
O523 O 0.29165 0.97079 0.92149 0.0
O524 O 0.31654 1.00158 0.91334 0.0
O525 O 0.28802 0.92514 0.89815 0.0
O526 O 0.31583 0.90352 0.91383 0.0
O527 O 0.36378 0.97574 0.90067 0.0
O528 O 0.33189 0.95806 0.88231 0.0
O529 O 0.36014 0.95625 0.95715 0.0
O530 O 0.35524 0.93163 0.92408 0.0
O531 O 0.38008 1.00463 0.94533 0.0
O532 O 0.34768 0.02433 0.95028 0.0
C533 C 0.29499 0.99308 0.91559 0.0
O534 O 0.31293 0.94162 0.95736 0.0
O535 O 0.31812 0.98115 0.9654 0.0
C536 C 0.27716 0.89052 0.91947 0.0
C537 C 0.24634 0.86351 0.94904 0.0
C538 C 0.25148 0.88708 0.95553 0.0
C539 C 0.26685 0.90047 0.94086 0.0
C540 C 0.2721 0.86709 0.91295 0.0
C541 C 0.25677 0.85372 0.92754 0.0
C542 C 0.29444 0.90395 0.90497 0.0
C543 C 0.35341 0.96637 0.88096 0.0
C544 C 0.36513 0.93632 0.94557 0.0
C545 C 0.38245 0.04693 0.94182 0.0
C546 C 0.40732 0.08898 0.92908 0.0
C547 C 0.41345 0.06699 0.91835 0.0
C548 C 0.40117 0.04622 0.92464 0.0
C549 C 0.37603 0.06891 0.95213 0.0
C550 C 0.38823 0.08964 0.94583 0.0
C551 C 0.37068 0.02505 0.95091 0.0
H552 H 0.24376 0.89509 0.97195 0.0
H553 H 0.27077 0.91856 0.94626 0.0
H554 H 0.28004 0.85912 0.89663 0.0
H555 H 0.25275 0.83579 0.92167 0.0
H556 H 0.42782 0.06578 0.90514 0.0
H557 H 0.40662 0.02959 0.91635 0.0
H558 H 0.36188 0.06997 0.96563 0.0
H559 H 0.38315 0.10609 0.95476 0.0
Dy560 Dy 0.60623 0.31913 0.91287 0.0
Dy561 Dy 0.56034 0.34891 0.93224 0.0
C562 C 0.58998 0.3147 0.96799 0.0
O563 O 0.57632 0.29325 0.91376 0.0
O564 O 0.54565 0.31926 0.90895 0.0
O565 O 0.62727 0.28729 0.91518 0.0
O566 O 0.639 0.31654 0.89239 0.0
O567 O 0.57277 0.36454 0.89569 0.0
O568 O 0.58902 0.33141 0.8782 0.0
O569 O 0.59161 0.36519 0.95176 0.0
O570 O 0.61826 0.35607 0.92142 0.0
O571 O 0.54391 0.38276 0.93961 0.0
O572 O 0.52454 0.35048 0.94679 0.0
C573 C 0.55394 0.29746 0.90905 0.0
O574 O 0.60794 0.32008 0.95394 0.0
O575 O 0.56846 0.32088 0.96131 0.0
C576 C 0.66598 0.30127 0.92191 0.0
C577 C 0.69522 0.31571 0.9617 0.0
C578 C 0.68296 0.29412 0.96284 0.0
C579 C 0.66848 0.28695 0.94314 0.0
C580 C 0.67981 0.3219 0.92006 0.0
C581 C 0.69414 0.3291 0.93979 0.0
C582 C 0.64539 0.29797 0.90521 0.0
C583 C 0.58135 0.35321 0.87617 0.0
C584 C 0.61234 0.36839 0.94121 0.0
C585 C 0.50177 0.38501 0.93735 0.0
C586 C 0.46002 0.41023 0.92479 0.0
C587 C 0.48115 0.4138 0.91148 0.0
C588 C 0.50178 0.40134 0.91766 0.0
C589 C 0.4806 0.38102 0.95024 0.0
C590 C 0.46 0.39341 0.94405 0.0
C591 C 0.5238 0.37356 0.94631 0.0
H592 H 0.68367 0.28336 0.97944 0.0
H593 H 0.65806 0.27097 0.94526 0.0
H594 H 0.67848 0.33334 0.90401 0.0
H595 H 0.70398 0.34548 0.9381 0.0
H596 H 0.48181 0.42634 0.89632 0.0
H597 H 0.51781 0.40484 0.90734 0.0
H598 H 0.48014 0.36874 0.96566 0.0
H599 H 0.44424 0.39035 0.95497 0.0
Dy600 Dy 0.2277 0.60814 0.90004 0.0
Dy601 Dy 0.20183 0.56488 0.92976 0.0
C602 C 0.24269 0.59695 0.95671 0.0
O603 O 0.25614 0.58105 0.90286 0.0
O604 O 0.23108 0.54919 0.90637 0.0
O605 O 0.24554 0.64187 0.89643 0.0
O606 O 0.2317 0.62422 0.86384 0.0
O607 O 0.17976 0.57618 0.8967 0.0
O608 O 0.21183 0.58245 0.87368 0.0
O609 O 0.1902 0.59771 0.94977 0.0
O610 O 0.19359 0.62166 0.91578 0.0
O611 O 0.16965 0.549 0.94351 0.0
O612 O 0.20231 0.52932 0.94512 0.0
C613 C 0.25249 0.55803 0.90321 0.0
O614 O 0.24228 0.61203 0.93814 0.0
O615 O 0.23022 0.57707 0.95674 0.0
C616 C 0.22235 0.66454 0.86964 0.0
C617 C 0.18978 0.70136 0.87844 0.0
C618 C 0.21429 0.70582 0.87876 0.0
C619 C 0.23041 0.68755 0.87442 0.0
C620 C 0.19792 0.66054 0.86695 0.0
C621 C 0.18179 0.67879 0.8713 0.0
C622 C 0.23835 0.64433 0.87357 0.0
C623 C 0.18908 0.57977 0.87476 0.0
C624 C 0.18577 0.61778 0.93841 0.0
C625 C 0.16683 0.5068 0.94084 0.0
C626 C 0.14075 0.46497 0.92985 0.0
C627 C 0.13588 0.48639 0.91748 0.0
C628 C 0.14879 0.50704 0.92287 0.0
C629 C 0.17197 0.48539 0.95288 0.0
C630 C 0.15916 0.46474 0.94744 0.0
C631 C 0.17953 0.52872 0.94847 0.0
H632 H 0.22112 0.72292 0.88449 0.0
H633 H 0.2491 0.69097 0.87691 0.0
H634 H 0.19112 0.6429 0.86343 0.0
H635 H 0.16308 0.67485 0.87062 0.0
H636 H 0.12208 0.48722 0.90358 0.0
H637 H 0.14442 0.52325 0.91319 0.0
H638 H 0.18566 0.48473 0.96694 0.0
H639 H 0.16327 0.44873 0.95758 0.0
H640 H 0.62565 0.17457 0.35407 0.0
H641 H 0.63379 0.15005 0.31819 0.0
H642 H 0.56025 0.13053 0.31381 0.0
H643 H 0.55163 0.15644 0.34967 0.0
H644 H 0.6305 0.10461 0.30943 0.0
H645 H 0.57108 0.1515 0.24367 0.0
H646 H 0.57728 0.16291 0.27431 0.0
H647 H 0.55704 0.13864 0.27032 0.0
C648 C 0.61099 0.16535 0.3455 0.0
C649 C 0.58783 0.16798 0.35466 0.0
C650 C 0.61579 0.15103 0.32494 0.0
C651 C 0.59769 0.13856 0.31283 0.0
C652 C 0.57453 0.14038 0.32234 0.0
H653 H 0.66078 0.05056 0.19095 0.0
H654 H 0.63625 0.05874 0.2279 0.0
C655 C 0.56962 0.15507 0.343 0.0
C656 C 0.60372 0.12431 0.2901 0.0
H657 H 0.59558 0.12208 0.22713 0.0
C658 C 0.62263 0.10819 0.29146 0.0
C659 C 0.59352 0.1289 0.26656 0.0
C660 C 0.57373 0.14653 0.26343 0.0
C661 C 0.63264 0.0979 0.27 0.0
C662 C 0.62298 0.10315 0.24635 0.0
C663 C 0.60302 0.11797 0.24517 0.0
C664 C 0.6354 0.0968 0.22262 0.0
C665 C 0.65454 0.08292 0.27282 0.0
C666 C 0.64206 0.11511 0.20653 0.0
C667 C 0.6555 0.11042 0.18538 0.0
C668 C 0.66304 0.08726 0.17961 0.0
C669 C 0.65546 0.06861 0.19494 0.0
C670 C 0.64165 0.07334 0.21623 0.0
H671 H 0.6623 0.0844 0.29172 0.0
H672 H 0.64997 0.06405 0.26952 0.0
H673 H 0.66819 0.08814 0.25907 0.0
H674 H 0.63752 0.13333 0.21075 0.0
H675 H 0.66054 0.12526 0.17384 0.0
H676 H 0.46499 0.70329 0.21916 0.0
H677 H 0.45151 0.67915 0.25391 0.0
H678 H 0.44851 0.61788 0.20586 0.0
H679 H 0.46272 0.64191 0.17108 0.0
H680 H 0.40977 0.65938 0.25661 0.0
H681 H 0.47635 0.58835 0.26708 0.0
H682 H 0.48173 0.61456 0.24881 0.0
H683 H 0.4649 0.59034 0.23606 0.0
C684 C 0.46207 0.68453 0.21609 0.0
C685 C 0.46499 0.67457 0.19227 0.0
C686 C 0.45426 0.67072 0.23602 0.0
C687 C 0.449 0.64657 0.23272 0.0
C688 C 0.45288 0.6363 0.20918 0.0
H689 H 0.34349 0.57618 0.32332 0.0
H690 H 0.36731 0.59184 0.28931 0.0
C691 C 0.46099 0.65011 0.18922 0.0
C692 C 0.43714 0.6331 0.25317 0.0
H693 H 0.43967 0.5827 0.2884 0.0
C694 C 0.41647 0.64269 0.26359 0.0
C695 C 0.44583 0.61136 0.26259 0.0
C696 C 0.46855 0.60064 0.25324 0.0
C697 C 0.40418 0.63118 0.28276 0.0
C698 C 0.41231 0.60899 0.29152 0.0
C699 C 0.43322 0.59952 0.28149 0.0
C700 C 0.39917 0.5957 0.31113 0.0
C701 C 0.38275 0.64319 0.29375 0.0
C702 C 0.40949 0.59115 0.33441 0.0
C703 C 0.39591 0.58179 0.35394 0.0
C704 C 0.37173 0.57689 0.35054 0.0
C705 C 0.36197 0.57995 0.3267 0.0
C706 C 0.37556 0.58906 0.30723 0.0
H707 H 0.38274 0.66253 0.29001 0.0
H708 H 0.36658 0.63553 0.28527 0.0
H709 H 0.38186 0.64049 0.31416 0.0
H710 H 0.42772 0.59596 0.33787 0.0
H711 H 0.40398 0.57977 0.37206 0.0
H712 H 0.95711 0.39682 0.37324 0.0
H713 H 0.93936 0.4179 0.33802 0.0
H714 H 0.95395 0.35813 0.29032 0.0
H715 H 0.97101 0.33682 0.32544 0.0
H716 H 0.95217 0.43212 0.29088 0.0
H717 H 0.88294 0.36302 0.28487 0.0
H718 H 0.90346 0.36471 0.31044 0.0
H719 H 0.91213 0.35115 0.28151 0.0
C720 C 0.95705 0.38841 0.35511 0.0
C721 C 0.96532 0.36505 0.35221 0.0
C722 C 0.94676 0.40043 0.33499 0.0
C723 C 0.94464 0.38937 0.31161 0.0
C724 C 0.95467 0.36682 0.30829 0.0
H725 H 0.9001 0.4517 0.17041 0.0
H726 H 0.92271 0.43792 0.2063 0.0
C727 C 0.96465 0.35472 0.32837 0.0
C728 C 0.93078 0.4006 0.29112 0.0
H729 H 0.88426 0.39074 0.25186 0.0
C730 C 0.93726 0.42313 0.2824 0.0
C731 C 0.91094 0.38917 0.28033 0.0
C732 C 0.90177 0.3658 0.28992 0.0
C733 C 0.92488 0.4342 0.26286 0.0
C734 C 0.90574 0.42223 0.25129 0.0
C735 C 0.89901 0.39993 0.26042 0.0
C736 C 0.89222 0.43233 0.22985 0.0
C737 C 0.93216 0.45882 0.25521 0.0
C738 C 0.86742 0.4335 0.2307 0.0
C739 C 0.85441 0.44099 0.21 0.0
C740 C 0.86584 0.44763 0.18788 0.0
C741 C 0.89069 0.44699 0.1872 0.0
C742 C 0.9037 0.43923 0.20784 0.0
H743 H 0.94151 0.46822 0.27051 0.0
H744 H 0.94446 0.45759 0.23921 0.0
H745 H 0.91667 0.46957 0.24956 0.0
H746 H 0.85804 0.42826 0.24734 0.0
H747 H 0.83532 0.44125 0.21126 0.0
H748 H 0.14616 0.9574 0.36881 0.0
H749 H 0.12523 0.93905 0.33368 0.0
H750 H 0.18905 0.94138 0.2901 0.0
H751 H 0.20981 0.96007 0.3247 0.0
H752 H 0.15109 0.95274 0.26225 0.0
H753 H 0.13304 0.86988 0.31416 0.0
H754 H 0.12135 0.89621 0.32839 0.0
H755 H 0.15277 0.8925 0.3257 0.0
C756 C 0.15561 0.95441 0.35159 0.0
C757 C 0.17975 0.96015 0.34971 0.0
C758 C 0.14369 0.94361 0.33159 0.0
C759 C 0.15567 0.93824 0.30934 0.0
C760 C 0.1794 0.94511 0.30705 0.0
H761 H 0.12545 0.83407 0.19435 0.0
H762 H 0.13903 0.85611 0.23096 0.0
C763 C 0.19127 0.95587 0.32694 0.0
C764 C 0.14396 0.92501 0.28853 0.0
H765 H 0.118 0.87208 0.27328 0.0
C766 C 0.14373 0.93516 0.26472 0.0
C767 C 0.13472 0.90184 0.29154 0.0
C768 C 0.13562 0.88931 0.31624 0.0
C769 C 0.13465 0.92288 0.24396 0.0
C770 C 0.12497 0.8999 0.24705 0.0
C771 C 0.12517 0.88975 0.27087 0.0
C772 C 0.11544 0.88581 0.22563 0.0
C773 C 0.13636 0.93437 0.21874 0.0
C774 C 0.09712 0.89471 0.21071 0.0
C775 C 0.08939 0.88218 0.18966 0.0
C776 C 0.09957 0.86025 0.18312 0.0
C777 C 0.11717 0.85086 0.19873 0.0
C778 C 0.12499 0.8635 0.21971 0.0
H779 H 0.14979 0.94873 0.21849 0.0
H780 H 0.14096 0.92118 0.20417 0.0
H781 H 0.11905 0.94232 0.21393 0.0
H782 H 0.08896 0.91154 0.21517 0.0
H783 H 0.07566 0.88991 0.17827 0.0
H784 H 0.33696 0.9609 0.83367 0.0
H785 H 0.35736 0.94254 0.79852 0.0
H786 H 0.421 0.93762 0.84219 0.0
H787 H 0.40082 0.95686 0.87724 0.0
H788 H 0.43151 0.94663 0.79424 0.0
H789 H 0.36792 0.87228 0.79767 0.0
H790 H 0.35351 0.90008 0.79243 0.0
H791 H 0.36889 0.89504 0.82125 0.0
C792 C 0.35546 0.95641 0.83562 0.0
C793 C 0.36722 0.96027 0.85831 0.0
C794 C 0.36705 0.94563 0.81558 0.0
C795 C 0.39052 0.93787 0.81789 0.0
C796 C 0.40282 0.94318 0.83996 0.0
H797 H 0.44392 0.82551 0.72041 0.0
H798 H 0.43144 0.84912 0.75632 0.0
C799 C 0.3913 0.95434 0.85997 0.0
C800 C 0.40168 0.92323 0.79784 0.0
H801 H 0.39335 0.87338 0.76255 0.0
C802 C 0.42322 0.93055 0.78739 0.0
C803 C 0.39129 0.90185 0.78922 0.0
C804 C 0.36928 0.89169 0.8009 0.0
C805 C 0.43422 0.91751 0.76819 0.0
C806 C 0.4231 0.89686 0.75862 0.0
C807 C 0.40187 0.88928 0.76954 0.0
C808 C 0.43288 0.88283 0.73727 0.0
C809 C 0.4579 0.92581 0.75879 0.0
C810 C 0.43811 0.89372 0.71446 0.0
C811 C 0.44564 0.88025 0.69399 0.0
C812 C 0.44764 0.85544 0.6956 0.0
C813 C 0.44261 0.84455 0.71847 0.0
C814 C 0.4354 0.85808 0.73904 0.0
H815 H 0.46743 0.93632 0.77314 0.0
H816 H 0.46922 0.91067 0.75312 0.0
H817 H 0.45521 0.93742 0.74245 0.0
H818 H 0.43567 0.91261 0.71219 0.0
H819 H 0.44904 0.88925 0.67661 0.0
H820 H 0.58928 0.4008 0.87044 0.0
H821 H 0.60588 0.42071 0.83414 0.0
H822 H 0.60287 0.35511 0.79282 0.0
H823 H 0.58736 0.33494 0.82947 0.0
H824 H 0.64379 0.37295 0.78713 0.0
H825 H 0.58095 0.44609 0.77101 0.0
H826 H 0.59248 0.44694 0.80201 0.0
H827 H 0.57459 0.4222 0.79214 0.0
C828 C 0.59158 0.39075 0.85342 0.0
C829 C 0.58687 0.36626 0.85287 0.0
C830 C 0.60105 0.40221 0.83254 0.0
C831 C 0.60548 0.38961 0.81039 0.0
C832 C 0.59973 0.36535 0.80956 0.0
H833 H 0.65014 0.45184 0.66872 0.0
H834 H 0.62745 0.43683 0.70411 0.0
C835 C 0.59071 0.35382 0.83054 0.0
C836 C 0.61801 0.40095 0.78891 0.0
H837 H 0.61845 0.44931 0.75062 0.0
C838 C 0.63805 0.38957 0.77909 0.0
C839 C 0.61058 0.42254 0.77799 0.0
C840 C 0.58833 0.43501 0.78616 0.0
C841 C 0.65087 0.3991 0.75908 0.0
C842 C 0.64419 0.42129 0.74901 0.0
C843 C 0.62393 0.43254 0.75851 0.0
C844 C 0.65772 0.43268 0.72829 0.0
C845 C 0.67109 0.38481 0.74856 0.0
C846 C 0.68222 0.43637 0.73022 0.0
C847 C 0.69527 0.44463 0.70988 0.0
C848 C 0.68408 0.45006 0.68726 0.0
C849 C 0.65935 0.44792 0.68586 0.0
C850 C 0.64633 0.43925 0.70612 0.0
H851 H 0.66912 0.36565 0.75276 0.0
H852 H 0.67241 0.38688 0.72809 0.0
H853 H 0.68787 0.39091 0.75709 0.0
H854 H 0.69141 0.43231 0.74732 0.0
H855 H 0.71424 0.4463 0.71173 0.0
H856 H 0.08856 0.65282 0.67257 0.0
H857 H 0.10156 0.63253 0.71012 0.0
H858 H 0.1219 0.69951 0.74256 0.0
H859 H 0.1099 0.71981 0.70448 0.0
H860 H 0.15498 0.66991 0.75068 0.0
H861 H 0.07266 0.62369 0.77613 0.0
H862 H 0.08146 0.61586 0.74521 0.0
H863 H 0.07345 0.64606 0.75232 0.0
C864 C 0.09547 0.66333 0.68782 0.0
C865 C 0.09804 0.68804 0.68544 0.0
C866 C 0.10278 0.65165 0.70948 0.0
C867 C 0.11235 0.66438 0.72965 0.0
C868 C 0.11454 0.68914 0.72744 0.0
H869 H 0.14467 0.59971 0.87509 0.0
H870 H 0.12517 0.62045 0.84067 0.0
C871 C 0.10759 0.70079 0.70561 0.0
C872 C 0.1215 0.65181 0.75226 0.0
H873 H 0.10822 0.60906 0.79515 0.0
C874 C 0.14458 0.65678 0.76047 0.0
C875 C 0.10799 0.63491 0.76562 0.0
C876 C 0.08244 0.63002 0.75953 0.0
C877 C 0.15465 0.645 0.7809 0.0
C878 C 0.14174 0.62693 0.79312 0.0
C879 C 0.11839 0.62249 0.78554 0.0
C880 C 0.15233 0.61248 0.8136 0.0
C881 C 0.17897 0.6524 0.78945 0.0
C882 C 0.17359 0.60017 0.80975 0.0
C883 C 0.18477 0.58843 0.82938 0.0
C884 C 0.17478 0.58824 0.85331 0.0
C885 C 0.15274 0.59927 0.85685 0.0
C886 C 0.14165 0.6113 0.83719 0.0
H887 H 0.18308 0.67086 0.78381 0.0
H888 H 0.18071 0.65113 0.80996 0.0
H889 H 0.19234 0.64063 0.78077 0.0
H890 H 0.1819 0.6001 0.79163 0.0
H891 H 0.20168 0.58007 0.82597 0.0
H892 H 0.82862 0.0877 0.71135 0.0
H893 H 0.84906 0.10621 0.74646 0.0
H894 H 0.91278 0.1107 0.70287 0.0
H895 H 0.89267 0.09121 0.66804 0.0
H896 H 0.9239 0.10095 0.74903 0.0
H897 H 0.86075 0.17555 0.7512 0.0
H898 H 0.8462 0.14776 0.75607 0.0
H899 H 0.86052 0.15358 0.72681 0.0
C900 C 0.8471 0.0923 0.70936 0.0
C901 C 0.85895 0.08804 0.68681 0.0
C902 C 0.85872 0.10318 0.72939 0.0
C903 C 0.88231 0.11068 0.72718 0.0
C904 C 0.89453 0.10535 0.70508 0.0
H905 H 0.93997 0.21879 0.82781 0.0
H906 H 0.92515 0.19692 0.79162 0.0
C907 C 0.88302 0.09408 0.68516 0.0
C908 C 0.89403 0.12447 0.74761 0.0
H909 H 0.88717 0.17281 0.78551 0.0
C910 C 0.9159 0.11673 0.7569 0.0
C911 C 0.88403 0.14549 0.75762 0.0
C912 C 0.86173 0.15624 0.74722 0.0
C913 C 0.92768 0.12899 0.77614 0.0
C914 C 0.91698 0.14921 0.78713 0.0
C915 C 0.89536 0.15721 0.77745 0.0
C916 C 0.92768 0.16232 0.80868 0.0
C917 C 0.95176 0.12038 0.78399 0.0
C918 C 0.93423 0.15036 0.8305 0.0
C919 C 0.94316 0.16282 0.85105 0.0
C920 C 0.94525 0.18767 0.85061 0.0
C921 C 0.93867 0.19967 0.82881 0.0
C922 C 0.93011 0.18714 0.80809 0.0
H923 H 0.9607 0.11064 0.76866 0.0
H924 H 0.96329 0.13528 0.78992 0.0
H925 H 0.94979 0.10794 0.79977 0.0
H926 H 0.93186 0.13138 0.83195 0.0
H927 H 0.94767 0.15298 0.86763 0.0
H928 H 0.45736 0.09337 0.40538 0.0
H929 H 0.42124 0.07046 0.39828 0.0
H930 H 0.37984 0.12725 0.42957 0.0
H931 H 0.41586 0.15047 0.43638 0.0
H932 H 0.38857 0.05639 0.43588 0.0
H933 H 0.3454 0.11142 0.36356 0.0
H934 H 0.3765 0.11371 0.37067 0.0
H935 H 0.35505 0.12706 0.39091 0.0
C936 C 0.44055 0.10119 0.41037 0.0
C937 C 0.43955 0.12383 0.4214 0.0
C938 C 0.41992 0.08799 0.40642 0.0
C939 C 0.39779 0.09722 0.41313 0.0
C940 C 0.39666 0.1199 0.4239 0.0
H941 H 0.25476 0.03887 0.41186 0.0
H942 H 0.28934 0.06496 0.41391 0.0
C943 C 0.41731 0.13306 0.428 0.0
C944 C 0.3761 0.08256 0.41008 0.0
H945 H 0.323 0.07961 0.3799 0.0
C946 C 0.37428 0.06141 0.42356 0.0
C947 C 0.35736 0.08925 0.39418 0.0
C948 C 0.35862 0.1115 0.37882 0.0
C949 C 0.35417 0.04688 0.4218 0.0
C950 C 0.33555 0.05332 0.40558 0.0
C951 C 0.33728 0.0746 0.39223 0.0
C952 C 0.31425 0.03808 0.40226 0.0
C953 C 0.35285 0.02505 0.43786 0.0
C954 C 0.31656 1.01451 0.39415 0.0
C955 C 0.29688 0.99955 0.39305 0.0
C956 C 0.27432 1.00787 0.39973 0.0
C957 C 0.27183 0.03184 0.40656 0.0
C958 C 0.29161 0.04679 0.4078 0.0
H959 H 0.36493 0.02633 0.45409 0.0
H960 H 0.33462 0.02208 0.44477 0.0
H961 H 0.3582 1.00936 0.42672 0.0
H962 H 0.33371 1.00753 0.3891 0.0
H963 H 0.29948 0.98127 0.38748 0.0
H964 H 0.44328 0.45175 0.39342 0.0
H965 H 0.46541 0.41582 0.38281 0.0
H966 H 0.41783 0.37431 0.42752 0.0
H967 H 0.39524 0.40993 0.4376 0.0
H968 H 0.48874 0.3858 0.41487 0.0
H969 H 0.41995 0.33591 0.36345 0.0
H970 H 0.4174 0.36718 0.37012 0.0
H971 H 0.41045 0.34568 0.3936 0.0
C972 C 0.43724 0.43492 0.40064 0.0
C973 C 0.41739 0.43382 0.41636 0.0
C974 C 0.45003 0.41439 0.39467 0.0
C975 C 0.44314 0.39224 0.40406 0.0
C976 C 0.42327 0.39106 0.41962 0.0
H977 H 0.49963 0.25107 0.41424 0.0
H978 H 0.47528 0.28675 0.41361 0.0
C979 C 0.41052 0.41156 0.42563 0.0
C980 C 0.45742 0.37058 0.39874 0.0
H981 H 0.45393 0.31393 0.37609 0.0
C982 C 0.48121 0.37019 0.4061 0.0
C983 C 0.4476 0.35014 0.38736 0.0
C984 C 0.42251 0.34975 0.37795 0.0
C985 C 0.49517 0.34974 0.40324 0.0
C986 C 0.48525 0.32916 0.39224 0.0
C987 C 0.46157 0.32967 0.38448 0.0
C988 C 0.49885 0.30663 0.38992 0.0
C989 C 0.52018 0.35004 0.41297 0.0
C990 C 0.51977 0.30547 0.37592 0.0
C991 C 0.53379 0.28499 0.37617 0.0
C992 C 0.52715 0.26518 0.39041 0.0
C993 C 0.50542 0.26593 0.40313 0.0
C994 C 0.49143 0.28639 0.40283 0.0
H995 H 0.52335 0.36519 0.4258 0.0
H996 H 0.52431 0.33335 0.42291 0.0
H997 H 0.5326 0.35169 0.39712 0.0
H998 H 0.52562 0.32068 0.36536 0.0
H999 H 0.55036 0.28512 0.36612 0.0
H1000 H 0.09205 0.4497 0.42548 0.0
H1001 H 0.12912 0.47085 0.41862 0.0
H1002 H 0.16678 0.4045 0.41758 0.0
H1003 H 0.1297 0.38316 0.42452 0.0
H1004 H 0.16826 0.47134 0.44892 0.0
H1005 H 0.19231 0.43681 0.35548 0.0
H1006 H 0.16312 0.43335 0.36844 0.0
H1007 H 0.18679 0.4145 0.37847 0.0
C1008 C 0.10819 0.43955 0.42379 0.0
C1009 C 0.10781 0.41468 0.42562 0.0
C1010 C 0.1294 0.45169 0.41975 0.0
C1011 C 0.15078 0.43931 0.41729 0.0
C1012 C 0.15049 0.41446 0.41885 0.0
H1013 H 0.29581 0.49558 0.40422 0.0
H1014 H 0.26182 0.46856 0.40719 0.0
C1015 C 0.12923 0.40227 0.42285 0.0
C1016 C 0.17337 0.45265 0.41438 0.0
H1017 H 0.22029 0.46169 0.3754 0.0
C1018 C 0.17961 0.46918 0.43283 0.0
C1019 C 0.18836 0.44974 0.3935 0.0
C1020 C 0.18229 0.4328 0.37271 0.0
C1021 C 0.2002 0.48297 0.43092 0.0
C1022 C 0.21487 0.4805 0.40977 0.0
C1023 C 0.20902 0.46357 0.39158 0.0
C1024 C 0.23557 0.49635 0.4058 0.0
C1025 C 0.20611 0.50008 0.45165 0.0
C1026 C 0.2321 0.52081 0.40319 0.0
C1027 C 0.25135 0.53619 0.40144 0.0
C1028 C 0.27465 0.52752 0.40214 0.0
C1029 C 0.27814 0.50287 0.40361 0.0
C1030 C 0.25873 0.48741 0.40536 0.0
H1031 H 0.19698 0.49533 0.46921 0.0
H1032 H 0.22543 0.50061 0.45514 0.0
H1033 H 0.20032 0.51814 0.44631 0.0
H1034 H 0.2144 0.52809 0.40299 0.0
H1035 H 0.2479 0.55502 0.40012 0.0
H1036 H 0.0982 0.08713 0.42039 0.0
H1037 H 0.07569 0.1237 0.41474 0.0
H1038 H 0.13907 0.16478 0.42558 0.0
H1039 H 0.16185 0.12825 0.43073 0.0
H1040 H 0.07094 0.16089 0.44968 0.0
H1041 H 0.11077 0.19336 0.3618 0.0
H1042 H 0.11389 0.16311 0.37211 0.0
H1043 H 0.13133 0.18618 0.38607 0.0
C1044 C 0.10748 0.1039 0.42115 0.0
C1045 C 0.13192 0.10464 0.42593 0.0
C1046 C 0.09453 0.12483 0.41807 0.0
C1047 C 0.10569 0.14704 0.41945 0.0
C1048 C 0.13009 0.14789 0.42403 0.0
H1049 H 0.04687 0.29147 0.41077 0.0
H1050 H 0.07401 0.25755 0.41351 0.0
C1051 C 0.14306 0.12695 0.42724 0.0
C1052 C 0.0915 0.16921 0.41725 0.0
H1053 H 0.08332 0.21871 0.3817 0.0
C1054 C 0.07365 0.1735 0.43479 0.0
C1055 C 0.09517 0.18584 0.39799 0.0
C1056 C 0.11369 0.18191 0.37826 0.0
C1057 C 0.05939 0.19385 0.43362 0.0
C1058 C 0.06262 0.21021 0.41399 0.0
C1059 C 0.08079 0.20619 0.3967 0.0
C1060 C 0.04659 0.23095 0.41066 0.0
C1061 C 0.04114 0.19778 0.45366 0.0
C1062 C 0.02228 0.22734 0.40733 0.0
C1063 C 1.00682 0.24657 0.40581 0.0
C1064 C 1.01526 0.27001 0.40732 0.0
C1065 C 0.03976 0.27368 0.40954 0.0
C1066 C 0.05529 0.25431 0.41116 0.0
H1067 H 0.0456 0.18794 0.47088 0.0
H1068 H 0.0394 0.21688 0.45833 0.0
H1069 H 0.02376 0.19125 0.44699 0.0
H1070 H 1.01517 0.20954 0.40623 0.0
H1071 H 0.98812 0.24299 0.40383 0.0
H1072 H 0.9493 0.94741 0.14622 0.0
H1073 H 0.91253 0.96932 0.15258 0.0
H1074 H 0.87807 0.92572 0.09751 0.0
H1075 H 0.91474 0.90336 0.09134 0.0
H1076 H 0.88545 0.99507 0.11763 0.0
H1077 H 0.83391 0.92108 0.15844 0.0
H1078 H 0.8657 0.92038 0.15582 0.0
H1079 H 0.84759 0.91463 0.12905 0.0
C1080 C 0.93386 0.94232 0.13557 0.0
C1081 C 0.93497 0.92345 0.1184 0.0
C1082 C 0.91287 0.95497 0.13916 0.0
C1083 C 0.89241 0.94894 0.12584 0.0
C1084 C 0.89351 0.93043 0.10833 0.0
H1085 H 0.75017 1.00365 0.11645 0.0
H1086 H 0.78612 0.97991 0.11527 0.0
C1087 C 0.91457 0.91782 0.10462 0.0
C1088 C 0.87009 0.96233 0.13006 0.0
H1089 H 0.81298 0.95645 0.14976 0.0
C1090 C 0.86963 0.98667 0.12479 0.0
C1091 C 0.84945 0.95136 0.13938 0.0
C1092 C 0.8491 0.92547 0.14623 0.0
C1093 C 0.84898 1.0002 0.12798 0.0
C1094 C 0.82831 0.98924 0.13734 0.0
C1095 C 0.82881 0.9649 0.14274 0.0
C1096 C 0.80572 1.0025 0.14046 0.0
C1097 C 0.84931 0.02594 0.12049 0.0
C1098 C 0.8043 0.02262 0.15589 0.0
C1099 C 0.78367 0.03636 0.15661 0.0
C1100 C 0.76395 0.03015 0.14203 0.0
C1101 C 0.76497 1.00912 0.12787 0.0
C1102 C 0.78559 0.99547 0.12713 0.0
H1103 H 0.86438 0.03001 0.108 0.0
H1104 H 0.83267 0.0309 0.11091 0.0
H1105 H 0.85109 0.03716 0.13736 0.0
H1106 H 0.8194 0.02809 0.16687 0.0
H1107 H 0.78357 0.05237 0.16777 0.0
H1108 H 0.54502 0.75107 0.13083 0.0
H1109 H 0.57148 0.78534 0.12656 0.0
H1110 H 0.51243 0.83249 0.13712 0.0
H1111 H 0.48605 0.79863 0.14098 0.0
H1112 H 0.53792 0.84471 0.09696 0.0
H1113 H 0.59803 0.83187 0.17725 0.0
H1114 H 0.59605 0.80686 0.1566 0.0
H1115 H 0.57053 0.81595 0.17403 0.0
C1116 C 0.53777 0.76874 0.13266 0.0
C1117 C 0.51337 0.77202 0.13626 0.0
C1118 C 0.55294 0.78836 0.13027 0.0
C1119 C 0.54405 0.81162 0.13169 0.0
C1120 C 0.5198 0.81481 0.13591 0.0
H1121 H 0.61657 0.94687 0.14649 0.0
H1122 H 0.59473 0.90994 0.15261 0.0
C1123 C 0.50469 0.79533 0.13817 0.0
C1124 C 0.55943 0.83278 0.12743 0.0
H1125 H 0.60769 0.86285 0.14939 0.0
C1126 C 0.5532 0.84862 0.10843 0.0
C1127 C 0.57927 0.83811 0.1425 0.0
C1128 C 0.58632 0.82245 0.1639 0.0
C1129 C 0.56608 0.86953 0.10413 0.0
C1130 C 0.58618 0.87468 0.11888 0.0
C1131 C 0.59244 0.85887 0.13791 0.0
C1132 C 0.6004 0.89674 0.11529 0.0
C1133 C 0.55755 0.88629 0.08427 0.0
C1134 C 0.61129 0.90158 0.0924 0.0
C1135 C 0.6236 0.92286 0.08873 0.0
C1136 C 0.62553 0.9398 0.10794 0.0
C1137 C 0.61515 0.93455 0.13109 0.0
C1138 C 0.6028 0.91328 0.13471 0.0
H1139 H 0.53877 0.88301 0.07935 0.0
H1140 H 0.55942 0.90502 0.09034 0.0
H1141 H 0.56828 0.8837 0.06722 0.0
H1142 H 0.61012 0.88896 0.07724 0.0
H1143 H 0.63113 0.92621 0.0706 0.0
H1144 H 0.62987 0.65221 0.11574 0.0
H1145 H 0.66541 0.62786 0.12024 0.0
H1146 H 0.6224 0.56487 0.12209 0.0
H1147 H 0.58686 0.58898 0.11704 0.0
H1148 H 0.67848 0.59514 0.1581 0.0
H1149 H 0.67012 0.55093 0.06621 0.0
H1150 H 0.65382 0.57736 0.07423 0.0
H1151 H 0.64423 0.54896 0.08536 0.0
C1152 C 0.62795 0.63316 0.11695 0.0
C1153 C 0.60541 0.6226 0.11586 0.0
C1154 C 0.64831 0.61927 0.11968 0.0
C1155 C 0.64666 0.59448 0.12115 0.0
C1156 C 0.62419 0.58392 0.12061 0.0
H1157 H 0.74372 0.47644 0.12903 0.0
H1158 H 0.7098 0.50298 0.12808 0.0
C1159 C 0.60382 0.59779 0.11798 0.0
C1160 C 0.66838 0.57965 0.12307 0.0
H1161 H 0.69931 0.53589 0.09343 0.0
C1162 C 0.68313 0.58226 0.14391 0.0
C1163 C 0.6745 0.56287 0.10453 0.0
C1164 C 0.65999 0.55994 0.08119 0.0
C1165 C 0.70339 0.56807 0.14707 0.0
C1166 C 0.70938 0.55113 0.12862 0.0
C1167 C 0.69475 0.54878 0.10764 0.0
C1168 C 0.73035 0.53521 0.13082 0.0
C1169 C 0.71774 0.57086 0.17052 0.0
C1170 C 0.7534 0.54436 0.1328 0.0
C1171 C 0.773 0.52911 0.13352 0.0
C1172 C 0.76997 0.50439 0.13202 0.0
C1173 C 0.74683 0.49534 0.1303 0.0
C1174 C 0.72734 0.51054 0.12968 0.0
H1175 H 0.70752 0.57979 0.18548 0.0
H1176 H 0.72385 0.5534 0.17744 0.0
H1177 H 0.73352 0.58187 0.16653 0.0
H1178 H 0.75632 0.56331 0.13316 0.0
H1179 H 0.79052 0.53674 0.13458 0.0
H1180 H 1.01453 0.78594 0.1333 0.0
H1181 H 0.99086 0.74979 0.13127 0.0
H1182 H 0.05368 0.70876 0.11738 0.0
H1183 H 0.07751 0.74488 0.11898 0.0
H1184 H 1.01816 0.69772 0.08473 0.0
H1185 H 0.98351 0.6965 0.18101 0.0
H1186 H 0.97793 0.72383 0.16513 0.0
H1187 H 1.00783 0.71519 0.1718 0.0
C1188 C 0.02344 0.76922 0.13022 0.0
C1189 C 0.04806 0.76845 0.1265 0.0
C1190 C 1.00982 0.74848 0.12913 0.0
C1191 C 0.02045 0.72642 0.12445 0.0
C1192 C 0.04504 0.72552 0.12111 0.0
H1193 H 0.9528 0.58889 0.14141 0.0
H1194 H 0.97804 0.62389 0.14425 0.0
C1195 C 0.05869 0.74624 0.1222 0.0
C1196 C 1.00583 0.70448 0.12193 0.0
H1197 H 0.96566 0.6698 0.15229 0.0
C1198 C 1.00675 0.69157 0.09955 0.0
C1199 C 0.99108 0.69625 0.14131 0.0
C1200 C 0.99014 0.70851 0.16626 0.0
C1201 C 0.99315 0.67093 0.0959 0.0
C1202 C 0.97784 0.66312 0.11501 0.0
C1203 C 0.97718 0.67585 0.13751 0.0
C1204 C 0.96282 0.64145 0.1124 0.0
C1205 C 0.99567 0.65744 0.07179 0.0
C1206 C 0.94575 0.63949 0.09349 0.0
C1207 C 0.93119 0.61939 0.09181 0.0
C1208 C 0.93319 0.6009 0.10918 0.0
C1209 C 0.95047 0.60288 0.12792 0.0
C1210 C 0.96502 0.62289 0.12953 0.0
H1211 H 1.0124 0.66193 0.0621 0.0
H1212 H 0.99519 0.63802 0.07499 0.0
H1213 H 0.98081 0.6621 0.0593 0.0
H1214 H 0.94332 0.65374 0.08033 0.0
H1215 H 0.91791 0.61865 0.07735 0.0
H1216 H 0.73846 0.06716 0.63041 0.0
H1217 H 0.70341 0.04193 0.62764 0.0
H1218 H 0.74764 0.97987 0.62507 0.0
H1219 H 0.78283 1.00491 0.62773 0.0
H1220 H 0.71243 0.98094 0.58761 0.0
H1221 H 0.67451 0.99848 0.68105 0.0
H1222 H 0.68138 0.02449 0.66329 0.0
H1223 H 0.70478 1.00531 0.67336 0.0
C1224 C 0.7408 0.04813 0.62961 0.0
C1225 C 0.76358 0.03813 0.62945 0.0
C1226 C 0.72068 0.03371 0.62806 0.0
C1227 C 0.72285 1.00897 0.62634 0.0
C1228 C 0.74551 0.99891 0.62643 0.0
H1229 H 0.61476 0.90165 0.64402 0.0
H1230 H 0.64962 0.92699 0.64651 0.0
C1231 C 0.76564 1.01329 0.62809 0.0
C1232 C 0.70156 0.99361 0.62361 0.0
H1233 H 0.65087 0.97641 0.65296 0.0
C1234 C 0.69896 0.97994 0.60189 0.0
C1235 C 0.68407 0.99216 0.64232 0.0
C1236 C 0.68631 1.00571 0.66644 0.0
C1237 C 0.67929 0.96503 0.59831 0.0
C1238 C 0.6616 0.96388 0.61685 0.0
C1239 C 0.66431 0.97742 0.63865 0.0
C1240 C 0.64057 0.94812 0.61448 0.0
C1241 C 0.67784 0.95023 0.57496 0.0
C1242 C 0.62378 0.95146 0.59556 0.0
C1243 C 0.60361 0.93702 0.59415 0.0
C1244 C 0.59974 0.91902 0.61175 0.0
C1245 C 0.61685 0.91556 0.6304 0.0
C1246 C 0.63691 0.92999 0.63181 0.0
H1247 H 0.69514 0.94909 0.5653 0.0
H1248 H 0.67167 0.93201 0.57921 0.0
H1249 H 0.66495 0.95837 0.56202 0.0
H1250 H 0.62602 0.96557 0.58218 0.0
H1251 H 0.59074 0.94042 0.57973 0.0
H1252 H 0.64135 0.61798 0.5946 0.0
H1253 H 0.61685 0.653 0.60145 0.0
H1254 H 0.56222 0.6091 0.63287 0.0
H1255 H 0.58691 0.57395 0.62644 0.0
H1256 H 0.57508 0.66541 0.58346 0.0
H1257 H 0.56731 0.65893 0.68585 0.0
H1258 H 0.58772 0.64099 0.66823 0.0
H1259 H 0.55702 0.63286 0.67004 0.0
C1260 C 0.62407 0.61571 0.60288 0.0
C1261 C 0.61614 0.59307 0.60996 0.0
C1262 C 0.61009 0.63583 0.6069 0.0
C1263 C 0.58777 0.63391 0.6181 0.0
C1264 C 0.57961 0.61127 0.62486 0.0
H1265 H 0.47263 0.73373 0.63998 0.0
H1266 H 0.49798 0.69878 0.63661 0.0
C1267 C 0.59371 0.59112 0.62104 0.0
C1268 C 0.57295 0.65556 0.62203 0.0
H1269 H 0.54276 0.68744 0.66604 0.0
C1270 C 0.56818 0.67025 0.60158 0.0
C1271 C 0.5639 0.66208 0.64568 0.0
C1272 C 0.56942 0.64803 0.66875 0.0
C1273 C 0.5544 0.69089 0.60402 0.0
C1274 C 0.54517 0.69718 0.62754 0.0
C1275 C 0.54985 0.68258 0.64801 0.0
C1276 C 0.53018 0.71862 0.63103 0.0
C1277 C 0.54941 0.70567 0.58133 0.0
C1278 C 0.53992 0.74148 0.62951 0.0
C1279 C 0.52548 0.7616 0.63167 0.0
C1280 C 0.50096 0.75925 0.6352 0.0
C1281 C 0.4914 0.73628 0.63724 0.0
C1282 C 0.50587 0.71623 0.63532 0.0
H1283 H 0.55487 0.69661 0.56388 0.0
H1284 H 0.5303 0.7099 0.58017 0.0
H1285 H 0.5592 0.72267 0.58278 0.0
H1286 H 0.55868 0.74375 0.62637 0.0
H1287 H 0.53346 0.77896 0.62991 0.0
H1288 H 0.95263 0.60799 0.65281 0.0
H1289 H 0.91871 0.58184 0.6585 0.0
H1290 H 0.90865 0.57879 0.57912 0.0
H1291 H 0.94343 0.6035 0.57316 0.0
H1292 H 0.87406 0.58827 0.64832 0.0
H1293 H 0.9036 0.51025 0.59444 0.0
H1294 H 0.9233 0.53426 0.60228 0.0
H1295 H 0.90397 0.53646 0.57577 0.0
C1296 C 0.94366 0.60127 0.63647 0.0
C1297 C 0.95104 0.60794 0.61248 0.0
C1298 C 0.92401 0.58647 0.63979 0.0
C1299 C 0.91116 0.57796 0.61926 0.0
C1300 C 0.91848 0.58455 0.59531 0.0
H1301 H 0.76483 0.52964 0.62228 0.0
H1302 H 0.8013 0.55281 0.62123 0.0
C1303 C 0.93827 0.59908 0.59195 0.0
C1304 C 0.88954 0.56312 0.62289 0.0
H1305 H 0.86229 0.51214 0.60372 0.0
C1306 C 0.87161 0.57151 0.63873 0.0
C1307 C 0.88633 0.541 0.61078 0.0
C1308 C 0.90544 0.52985 0.5951 0.0
C1309 C 0.8505 0.55877 0.64231 0.0
C1310 C 0.84673 0.53734 0.62906 0.0
C1311 C 0.86489 0.52869 0.61369 0.0
C1312 C 0.82422 0.52351 0.63079 0.0
C1313 C 0.8327 0.56829 0.66066 0.0
C1314 C 0.82475 0.49911 0.63592 0.0
C1315 C 0.80392 0.48571 0.63602 0.0
C1316 C 0.78196 0.4964 0.63119 0.0
C1317 C 0.78136 0.52089 0.62648 0.0
C1318 C 0.80227 0.53422 0.626 0.0
H1319 H 0.84127 0.57971 0.67492 0.0
H1320 H 0.81959 0.57931 0.65066 0.0
H1321 H 0.82321 0.55375 0.67026 0.0
H1322 H 0.84137 0.49032 0.63962 0.0
H1323 H 0.80506 0.46688 0.63966 0.0
H1324 H 0.93877 0.93879 0.57062 0.0
H1325 H 0.96359 0.90427 0.57794 0.0
H1326 H 0.96282 0.9189 0.65663 0.0
H1327 H 0.93654 0.95247 0.64971 0.0
H1328 H 1.00576 0.89768 0.59585 0.0
H1329 H 0.94295 0.85128 0.65776 0.0
H1330 H 0.93492 0.87755 0.64082 0.0
H1331 H 0.95126 0.87988 0.66945 0.0
C1332 C 0.94352 0.93456 0.58958 0.0
C1333 C 0.93514 0.94842 0.60957 0.0
C1334 C 0.95799 0.91484 0.59372 0.0
C1335 C 0.9647 0.90845 0.61792 0.0
C1336 C 0.95736 0.92289 0.63783 0.0
H1337 H 0.07724 0.80283 0.63996 0.0
H1338 H 0.0544 0.83959 0.63946 0.0
C1339 C 0.9426 0.94246 0.63375 0.0
C1340 C 0.97929 0.88671 0.62211 0.0
H1341 H 0.98102 0.83426 0.65378 0.0
C1342 C 1.00031 0.88383 0.60853 0.0
C1343 C 0.97212 0.86832 0.63836 0.0
C1344 C 0.94897 0.86925 0.65223 0.0
C1345 C 1.01422 0.86325 0.61063 0.0
C1346 C 1.00745 0.84523 0.62749 0.0
C1347 C 0.98646 0.84812 0.64111 0.0
C1348 C 0.02115 0.82272 0.63027 0.0
C1349 C 0.03553 0.86073 0.59398 0.0
C1350 C 1.00995 0.80071 0.62684 0.0
C1351 C 0.02288 0.77957 0.62774 0.0
C1352 C 0.04742 0.77988 0.63198 0.0
C1353 C 0.05843 0.80186 0.63648 0.0
C1354 C 0.0454 0.82299 0.63591 0.0
H1355 H 0.03432 0.87244 0.57749 0.0
H1356 H 0.05161 0.86586 0.6045 0.0
H1357 H 0.03766 0.84218 0.58741 0.0
H1358 H 0.99126 0.7999 0.62264 0.0
H1359 H 1.01376 0.76305 0.62407 0.0
H1360 H 0.12065 0.13723 0.96083 0.0
H1361 H 0.15788 0.1152 0.9586 0.0
H1362 H 0.13265 0.07778 0.89385 0.0
H1363 H 0.09541 0.09947 0.89604 0.0
H1364 H 0.16699 0.06684 0.96033 0.0
H1365 H 0.19613 0.10378 0.87014 0.0
H1366 H 0.17237 0.11661 0.88806 0.0
H1367 H 0.16717 0.09086 0.86901 0.0
C1368 C 0.12291 0.12416 0.94624 0.0
C1369 C 0.10502 0.12035 0.92848 0.0
C1370 C 0.1443 0.11168 0.9449 0.0
C1371 C 0.14833 0.09519 0.92572 0.0
C1372 C 0.13027 0.09087 0.9084 0.0
H1373 H 0.24853 0.98053 0.91838 0.0
H1374 H 0.21417 1.00636 0.92096 0.0
C1375 C 0.10893 0.10331 0.90972 0.0
C1376 C 0.17117 0.08214 0.92402 0.0
H1377 H 0.21742 0.0702 0.88502 0.0
C1378 C 0.17809 0.06771 0.94393 0.0
C1379 C 0.18591 0.08353 0.90279 0.0
C1380 C 0.18019 0.09971 0.88137 0.0
C1381 C 0.19883 0.05404 0.94284 0.0
C1382 C 0.21295 0.05453 0.9211 0.0
C1383 C 0.2065 0.0696 0.90155 0.0
C1384 C 0.23402 0.03897 0.91811 0.0
C1385 C 0.20549 0.03923 0.96505 0.0
C1386 C 0.25667 0.04862 0.91455 0.0
C1387 C 0.27654 0.03379 0.91287 0.0
C1388 C 0.27407 1.00903 0.91455 0.0
C1389 C 0.25122 0.99949 0.91716 0.0
C1390 C 0.23148 1.01426 0.91884 0.0
H1391 H 0.19699 0.04587 0.98232 0.0
H1392 H 0.19948 1.02073 0.96196 0.0
H1393 H 0.22492 0.03902 0.96783 0.0
H1394 H 0.25905 0.06764 0.91371 0.0
H1395 H 0.29384 0.04176 0.91091 0.0
H1396 H 0.45539 0.09361 0.92341 0.0
H1397 H 0.47817 0.12986 0.91664 0.0
H1398 H 0.41383 0.17057 0.91571 0.0
H1399 H 0.39088 0.13441 0.92236 0.0
H1400 H 0.47737 0.16322 0.8787 0.0
H1401 H 0.45248 0.20506 0.9685 0.0
H1402 H 0.44705 0.17417 0.96188 0.0
H1403 H 0.42792 0.19654 0.94935 0.0
C1404 C 0.446 0.11021 0.92149 0.0
C1405 C 0.42121 0.11098 0.92362 0.0
C1406 C 0.45911 0.13099 0.91774 0.0
C1407 C 0.44782 0.15309 0.91613 0.0
C1408 C 0.42305 0.15387 0.91753 0.0
H1409 H 0.50533 0.2976 0.90602 0.0
H1410 H 0.47877 0.26323 0.90534 0.0
C1411 C 0.40992 0.13311 0.92132 0.0
C1412 C 0.46201 0.17524 0.91309 0.0
H1413 H 0.47527 0.22821 0.94099 0.0
C1414 C 0.47689 0.17743 0.89233 0.0
C1415 C 0.46137 0.1939 0.93079 0.0
C1416 C 0.44653 0.19232 0.95401 0.0
C1417 C 0.49103 0.19768 0.88875 0.0
C1418 C 0.49068 0.21616 0.90665 0.0
C1419 C 0.47552 0.21414 0.9272 0.0
C1420 C 0.50675 0.23713 0.90514 0.0
C1421 C 0.50603 0.19919 0.86565 0.0
C1422 C 0.53135 0.23403 0.90519 0.0
C1423 C 0.54655 0.25361 0.90554 0.0
C1424 C 0.53758 0.27689 0.90598 0.0
C1425 C 0.51291 0.28 0.90549 0.0
C1426 C 0.49768 0.26033 0.90521 0.0
H1427 H 0.49902 0.18768 0.85055 0.0
H1428 H 0.50707 0.21767 0.85873 0.0
H1429 H 0.52418 0.19312 0.87003 0.0
H1430 H 0.53885 0.2164 0.90571 0.0
H1431 H 0.5654 0.25042 0.90607 0.0
H1432 H 0.41362 0.39556 0.92452 0.0
H1433 H 0.37819 0.41951 0.91786 0.0
H1434 H 0.42156 0.48129 0.90641 0.0
H1435 H 0.45705 0.45754 0.91316 0.0
H1436 H 0.36252 0.45778 0.94462 0.0
H1437 H 0.37767 0.4845 0.84693 0.0
H1438 H 0.39415 0.461 0.86155 0.0
H1439 H 0.40191 0.49146 0.86718 0.0
C1440 C 0.41568 0.41425 0.92056 0.0
C1441 C 0.43833 0.42453 0.91933 0.0
C1442 C 0.39535 0.42792 0.91665 0.0
C1443 C 0.3971 0.45219 0.91125 0.0
C1444 C 0.41966 0.46251 0.90991 0.0
H1445 H 0.29917 0.56964 0.89683 0.0
H1446 H 0.33338 0.54329 0.89797 0.0
C1447 C 0.44001 0.44885 0.91378 0.0
C1448 C 0.37534 0.4669 0.90824 0.0
H1449 H 0.34695 0.50468 0.86861 0.0
C1450 C 0.35903 0.46786 0.9279 0.0
C1451 C 0.37074 0.48016 0.88647 0.0
C1452 C 0.38691 0.47911 0.86423 0.0
C1453 C 0.33866 0.48211 0.92666 0.0
C1454 C 0.33413 0.4955 0.90497 0.0
C1455 C 0.35036 0.49443 0.88523 0.0
C1456 C 0.31301 0.5112 0.90273 0.0
C1457 C 0.32254 0.48326 0.94897 0.0
C1458 C 0.29 0.50196 0.90432 0.0
C1459 C 0.2703 0.51702 0.90365 0.0
C1460 C 0.27314 0.5417 0.90123 0.0
C1461 C 0.2962 0.55078 0.89873 0.0
C1462 C 0.31586 0.5357 0.89939 0.0
H1463 H 0.3314 0.47679 0.96607 0.0
H1464 H 0.31634 0.50166 0.95231 0.0
H1465 H 0.30686 0.47192 0.94554 0.0
H1466 H 0.28726 0.48308 0.90637 0.0
H1467 H 0.25287 0.50933 0.90558 0.0
H1468 H 0.15586 0.41871 0.9262 0.0
H1469 H 0.13199 0.38303 0.91968 0.0
H1470 H 0.06907 0.42585 0.9165 0.0
H1471 H 0.09278 0.46155 0.92292 0.0
H1472 H 0.09707 0.36432 0.94774 0.0
H1473 H 0.06091 0.38577 0.85496 0.0
H1474 H 0.08509 0.40208 0.86862 0.0
H1475 H 0.05512 0.40853 0.87749 0.0
C1476 C 0.13694 0.42058 0.9241 0.0
C1477 C 0.12633 0.44314 0.92497 0.0
C1478 C 0.12329 0.40011 0.92027 0.0
C1479 C 0.0987 0.40165 0.91714 0.0
C1480 C 0.08805 0.42413 0.91814 0.0
H1481 H 0.98012 0.3057 0.91094 0.0
H1482 H 1.00743 0.33918 0.91182 0.0
C1483 C 0.10168 0.4446 0.92185 0.0
C1484 C 0.08411 0.37974 0.91384 0.0
H1485 H 0.04237 0.35383 0.87653 0.0
C1486 C 0.08531 0.36193 0.93201 0.0
C1487 C 0.06873 0.37647 0.89331 0.0
C1488 C 0.06752 0.39411 0.87236 0.0
C1489 C 0.07108 0.34147 0.93065 0.0
C1490 C 0.05535 0.3385 0.91042 0.0
C1491 C 0.05439 0.35609 0.89206 0.0
C1492 C 0.03895 0.31782 0.90862 0.0
C1493 C 0.07238 0.32357 0.95135 0.0
C1494 C 0.04749 0.29454 0.90599 0.0
C1495 C 0.03183 0.27521 0.90533 0.0
C1496 C 1.0073 0.27877 0.90735 0.0
C1497 C 0.99886 0.30218 0.90937 0.0
C1498 C 1.01447 0.32143 0.90988 0.0
H1499 H 0.08181 0.33065 0.96789 0.0
H1500 H 0.0544 0.31792 0.95706 0.0
H1501 H 0.082 0.30765 0.94468 0.0
H1502 H 0.06629 0.29131 0.90461 0.0
H1503 H 0.039 0.25748 0.90379 0.0
H1504 H 0.68939 0.17021 0.40428 0.0
H1505 H 0.71968 0.14437 0.42265 0.0
H1506 H 0.77275 0.19697 0.40687 0.0
H1507 H 0.7429 0.22266 0.3884 0.0
H1508 H 0.77906 0.14054 0.39309 0.0
H1509 H 0.76023 0.16832 0.49021 0.0
H1510 H 0.7372 0.16126 0.46797 0.0
H1511 H 0.75279 0.18881 0.46601 0.0
C1512 C 0.70763 0.176 0.40435 0.0
C1513 C 0.71392 0.19838 0.39482 0.0
C1514 C 0.72475 0.16131 0.41495 0.0
C1515 C 0.74826 0.16883 0.41596 0.0
C1516 C 0.75459 0.19092 0.4061 0.0
H1517 H 0.83911 0.23001 0.44065 0.0
H1518 H 0.81022 0.20002 0.44977 0.0
C1519 C 0.73758 0.20559 0.39566 0.0
C1520 C 0.76686 0.1547 0.42789 0.0
H1521 H 0.80084 0.16249 0.47923 0.0
C1522 C 0.78372 0.14438 0.41225 0.0
C1523 C 0.77242 0.15869 0.45311 0.0
C1524 C 0.7547 0.16972 0.4705 0.0
C1525 C 0.80744 0.14334 0.41958 0.0
C1526 C 0.81385 0.15305 0.44297 0.0
C1527 C 0.79598 0.15641 0.46079 0.0
C1528 C 0.83382 0.17011 0.44392 0.0
C1529 C 0.8256 0.13592 0.40061 0.0
C1530 C 0.85715 0.1637 0.43807 0.0
C1531 C 0.8736 0.18119 0.43156 0.0
C1532 C 0.8671 0.20523 0.43192 0.0
C1533 C 0.84464 0.21163 0.44039 0.0
C1534 C 0.82812 0.19432 0.44594 0.0
H1535 H 0.81746 0.12623 0.38476 0.0
H1536 H 0.83468 0.15181 0.39315 0.0
H1537 H 0.83894 0.1242 0.4093 0.0
H1538 H 0.86223 0.14526 0.43696 0.0
H1539 H 0.89104 0.17595 0.42538 0.0
H1540 H 0.18109 0.64725 0.42135 0.0
H1541 H 0.14892 0.67251 0.43683 0.0
H1542 H 0.20058 0.72423 0.46089 0.0
H1543 H 0.23196 0.69871 0.44703 0.0
H1544 H 0.16201 0.72838 0.48944 0.0
H1545 H 0.12762 0.72319 0.3932 0.0
H1546 H 0.12629 0.69858 0.41431 0.0
H1547 H 0.15355 0.70562 0.39858 0.0
C1548 C 0.18533 0.66386 0.43048 0.0
C1549 C 0.20894 0.6713 0.43272 0.0
C1550 C 0.16698 0.67826 0.43933 0.0
C1551 C 0.17206 0.70068 0.44952 0.0
C1552 C 0.19583 0.70705 0.45333 0.0
H1553 H 0.22823 0.80488 0.43269 0.0
H1554 H 0.20246 0.77585 0.45171 0.0
C1555 C 0.21396 0.69251 0.44516 0.0
C1556 C 0.15416 0.71985 0.45132 0.0
H1557 H 0.14294 0.7602 0.40634 0.0
C1558 C 0.15648 0.73542 0.47167 0.0
C1559 C 0.14483 0.72902 0.42891 0.0
C1560 C 0.13761 0.71325 0.40755 0.0
C1561 C 0.15828 0.7599 0.46759 0.0
C1562 C 0.15604 0.76839 0.44302 0.0
C1563 C 0.14617 0.75348 0.42488 0.0
C1564 C 0.17039 0.78859 0.43412 0.0
C1565 C 0.166 0.77581 0.48869 0.0
C1566 C 0.1614 0.80465 0.41667 0.0
C1567 C 0.17644 0.82083 0.40503 0.0
C1568 C 0.20066 0.82135 0.41084 0.0
C1569 C 0.20958 0.80526 0.42825 0.0
C1570 C 0.19468 0.78893 0.43954 0.0
H1571 H 0.15674 0.771 0.5061 0.0
H1572 H 0.18514 0.77328 0.4922 0.0
H1573 H 0.16261 0.79477 0.48454 0.0
H1574 H 0.14287 0.80435 0.41171 0.0
H1575 H 0.169 0.83328 0.39192 0.0
H1576 H 0.4045 0.82623 0.06945 0.0
H1577 H 0.38322 0.84559 0.03587 0.0
H1578 H 0.32887 0.86631 0.08786 0.0
H1579 H 0.351 0.84917 0.12143 0.0
H1580 H 0.34851 0.83168 1.01621 0.0
H1581 H 0.31675 0.91723 0.04293 0.0
H1582 H 0.34219 0.90528 0.05879 0.0
H1583 H 0.31272 0.90223 0.07172 0.0
C1584 C 0.38859 0.83595 0.07391 0.0
C1585 C 0.37913 0.83558 0.09812 0.0
C1586 C 0.37634 0.84697 0.05454 0.0
C1587 C 0.35427 0.85759 0.05889 0.0
C1588 C 0.34604 0.85899 0.08356 0.0
H1589 H 0.24741 0.79047 0.04671 0.0
H1590 H 0.28344 0.80667 0.03017 0.0
C1591 C 0.35849 0.84851 0.10292 0.0
C1592 C 0.33736 0.86199 0.03814 0.0
H1593 H 0.28238 0.88507 0.03743 0.0
C1594 C 0.33442 0.84415 0.02002 0.0
C1595 C 0.31948 0.87932 0.04041 0.0
C1596 C 0.32327 0.90223 0.05433 0.0
C1597 C 0.31218 0.84 1.00933 0.0
C1598 C 0.2925 0.85279 0.01844 0.0
C1599 C 0.29685 0.87399 0.03149 0.0
C1600 C 0.2689 0.84132 0.02146 0.0
C1601 C 0.30969 0.82068 0.99011 0.0
C1602 C 0.24807 0.85489 0.02209 0.0
C1603 C 0.2275 0.84584 0.03293 0.0
C1604 C 0.22726 0.82287 0.04302 0.0
C1605 C 0.24719 0.80846 0.03979 0.0
C1606 C 0.26782 0.81765 0.02956 0.0
H1607 H 0.32327 0.82306 0.97544 0.0
H1608 H 0.31305 0.80318 0.99878 0.0
H1609 H 0.29196 0.82068 0.98131 0.0
H1610 H 0.24808 0.87302 1.0157 0.0
H1611 H 0.21239 0.85745 0.03489 0.0
H1612 H 0.71325 0.33304 0.09589 0.0
H1613 H 0.68119 0.30534 0.09789 0.0
H1614 H 0.63619 0.35943 0.1295 0.0
H1615 H 0.66919 0.38752 0.12778 0.0
H1616 H 0.63669 0.32756 0.1598 0.0
H1617 H 0.62183 0.27797 0.07612 0.0
H1618 H 0.65332 0.2791 0.07566 0.0
H1619 H 0.63637 0.30633 0.07406 0.0
C1620 C 0.69624 0.33953 0.10194 0.0
C1621 C 0.69386 0.3624 0.11182 0.0
C1622 C 0.67758 0.32355 0.10299 0.0
C1623 C 0.65592 0.33007 0.11385 0.0
C1624 C 0.65267 0.35383 0.12112 0.0
H1625 H 0.65514 0.18832 0.15963 0.0
H1626 H 0.62867 0.22055 0.14729 0.0
C1627 C 0.67156 0.36985 0.12026 0.0
C1628 C 0.64048 0.31091 0.12369 0.0
H1629 H 0.63861 0.25146 0.11369 0.0
C1630 C 0.63595 0.31109 0.14939 0.0
C1631 C 0.6375 0.28937 0.11048 0.0
C1632 C 0.6373 0.28842 0.08248 0.0
C1633 C 0.63456 0.28983 0.16264 0.0
C1634 C 0.63849 0.26827 0.14988 0.0
C1635 C 0.63712 0.26806 0.1238 0.0
C1636 C 0.65086 0.24838 0.16224 0.0
C1637 C 0.63172 0.2908 0.19047 0.0
C1638 C 0.67191 0.25322 0.17523 0.0
C1639 C 0.68692 0.23495 0.18236 0.0
C1640 C 0.68139 0.21141 0.17645 0.0
C1641 C 0.65972 0.20634 0.1647 0.0
C1642 C 0.64461 0.22472 0.15754 0.0
H1643 H 0.61803 0.30403 0.19558 0.0
H1644 H 0.62668 0.2733 0.19822 0.0
H1645 H 0.64854 0.29669 0.1991 0.0
H1646 H 0.67765 0.27129 0.1784 0.0
H1647 H 0.70344 0.23935 0.19144 0.0
H1648 H 0.23615 0.76414 0.53453 0.0
H1649 H 0.26624 0.74794 0.50713 0.0
H1650 H 0.22631 0.68305 0.50001 0.0
H1651 H 0.19583 0.69959 0.52739 0.0
H1652 H 0.26733 0.67358 0.51717 0.0
H1653 H 0.28509 0.72956 0.43831 0.0
H1654 H 0.2819 0.75063 0.46298 0.0
H1655 H 0.25719 0.73202 0.45446 0.0
C1656 C 0.23348 0.74673 0.52646 0.0
C1657 C 0.21396 0.73299 0.53326 0.0
C1658 C 0.25049 0.73754 0.51041 0.0
C1659 C 0.24846 0.7143 0.50101 0.0
C1660 C 0.22811 0.70111 0.5066 0.0
H1661 H 0.38089 0.70254 0.55529 0.0
H1662 H 0.36085 0.68382 0.51971 0.0
C1663 C 0.21081 0.71052 0.52236 0.0
C1664 C 0.27006 0.70258 0.49133 0.0
H1665 H 0.32171 0.72434 0.46912 0.0
C1666 C 0.27909 0.68379 0.50546 0.0
C1667 C 0.28549 0.71455 0.47497 0.0
C1668 C 0.27666 0.73262 0.45668 0.0
C1669 C 0.30352 0.6813 0.50871 0.0
C1670 C 0.31853 0.69875 0.49853 0.0
C1671 C 0.30994 0.7121 0.47846 0.0
C1672 C 0.33458 0.71136 0.51594 0.0
C1673 C 0.31252 0.66324 0.52691 0.0
C1674 C 0.32689 0.73332 0.52532 0.0
C1675 C 0.33792 0.74375 0.54562 0.0
C1676 C 0.35712 0.73265 0.55717 0.0
C1677 C 0.36578 0.71127 0.54707 0.0
C1678 C 0.35454 0.70067 0.52658 0.0
H1679 H 0.29965 0.64858 0.52949 0.0
H1680 H 0.32948 0.65564 0.52029 0.0
H1681 H 0.31557 0.67184 0.54522 0.0
H1682 H 0.31126 0.74183 0.51794 0.0
H1683 H 0.33053 0.76001 0.55302 0.0
H1684 H 0.83492 0.23105 0.57533 0.0
H1685 H 0.84143 0.25508 0.53879 0.0
H1686 H 0.80475 0.20342 0.49367 0.0
H1687 H 0.79776 0.17936 0.53063 0.0
H1688 H 0.85871 0.25578 0.491 0.0
H1689 H 0.76083 0.25599 0.48355 0.0
H1690 H 0.7728 0.23937 0.50904 0.0
H1691 H 0.77808 0.22988 0.47748 0.0
C1692 C 0.82875 0.22448 0.55754 0.0
C1693 C 0.81525 0.20372 0.55594 0.0
C1694 C 0.83267 0.23814 0.53647 0.0
C1695 C 0.82325 0.23133 0.5133 0.0
C1696 C 0.81183 0.20933 0.51125 0.0
H1697 H 0.77077 0.35879 0.52315 0.0
H1698 H 0.7842 0.33471 0.48819 0.0
C1699 C 0.80766 0.1957 0.53245 0.0
C1700 C 0.82121 0.24985 0.49391 0.0
H1701 H 0.77958 0.29263 0.48933 0.0
C1702 C 0.84137 0.26367 0.48919 0.0
C1703 C 0.79877 0.25999 0.48934 0.0
C1704 C 0.77634 0.24556 0.48984 0.0
C1705 C 0.83949 0.2884 0.48753 0.0
C1706 C 0.81717 0.29897 0.49139 0.0
C1707 C 0.79699 0.28473 0.48837 0.0
C1708 C 0.81459 0.3204 0.50742 0.0
C1709 C 0.8616 0.303 0.48497 0.0
C1710 C 0.82798 0.32185 0.52946 0.0
C1711 C 0.82062 0.33604 0.54925 0.0
C1712 C 0.79942 0.34877 0.54772 0.0
C1713 C 0.78708 0.34896 0.52502 0.0
C1714 C 0.79484 0.33527 0.50491 0.0
H1715 H 0.87187 0.29657 0.46872 0.0
H1716 H 0.85767 0.32212 0.48244 0.0
H1717 H 0.87289 0.30065 0.50165 0.0
H1718 H 0.84286 0.31021 0.53258 0.0
H1719 H 0.83045 0.33533 0.5665 0.0
H1720 H 0.84511 0.28823 1.00332 0.0
H1721 H 0.81742 0.30869 0.02949 0.0
H1722 H 0.857 0.3737 0.02095 0.0
H1723 H 0.88369 0.35327 0.99213 0.0
H1724 H 0.80777 0.33509 0.06748 0.0
H1725 H 0.80163 0.39774 0.98815 0.0
H1726 H 0.82291 0.37441 0.98475 0.0
H1727 H 0.82692 0.39709 1.00818 0.0
C1728 C 0.84834 0.30676 1.00741 0.0
C1729 C 0.86624 0.31927 0.99518 0.0
C1730 C 0.83249 0.31859 0.02271 0.0
C1731 C 0.83429 0.34323 0.0265 0.0
C1732 C 0.85433 0.35504 0.01731 0.0
H1733 H 0.69625 0.36042 0.98135 0.0
H1734 H 0.72482 0.3762 1.0112 0.0
C1735 C 0.86978 0.34331 1.00106 0.0
C1736 C 0.81247 0.35596 0.03439 0.0
H1737 H 0.76761 0.3772 0.99903 0.0
C1738 C 0.79891 0.34527 0.05319 0.0
C1739 C 0.80071 0.37071 1.01707 0.0
C1740 C 0.81372 0.38584 0.99851 0.0
C1741 C 0.77437 0.34283 0.05042 0.0
C1742 C 0.76334 0.35279 0.02935 0.0
C1743 C 0.77617 0.36871 1.01467 0.0
C1744 C 0.74164 0.34254 0.01816 0.0
C1745 C 0.76122 0.32729 0.06839 0.0
C1746 C 0.74111 0.31816 1.01261 0.0
C1747 C 0.72499 0.30913 0.99536 0.0
C1748 C 0.70931 0.32436 0.9831 0.0
C1749 C 0.70853 0.34837 0.99014 0.0
C1750 C 0.72456 0.35736 1.00751 0.0
H1751 H 0.76557 0.33255 0.08777 0.0
H1752 H 0.74186 0.32825 0.06569 0.0
H1753 H 0.76702 0.30864 0.06592 0.0
H1754 H 0.75446 0.30637 0.01994 0.0
H1755 H 0.72601 0.29056 0.99029 0.0
H1756 H 0.20386 0.87765 0.96894 0.0
H1757 H 0.17163 0.85155 0.98163 0.0
H1758 H 0.21781 0.79119 0.97229 0.0
H1759 H 0.24997 0.81713 0.96189 0.0
H1760 H 0.15245 0.82777 0.95043 0.0
H1761 H 0.17461 0.76068 1.01632 0.0
H1762 H 0.193 0.7866 1.01486 0.0
H1763 H 0.20091 0.7598 0.99818 0.0
C1764 C 0.20733 0.85888 0.97082 0.0
C1765 C 0.22914 0.84926 0.96341 0.0
C1766 C 0.18884 0.84392 0.97805 0.0
C1767 C 0.19183 0.81917 0.97754 0.0
C1768 C 0.21462 0.81005 0.97329 0.0
H1769 H 0.18968 0.74945 0.87249 0.0
H1770 H 0.17282 0.77795 0.90126 0.0
C1771 C 0.23309 0.82495 0.96662 0.0
C1772 C 0.17122 0.80305 0.97397 0.0
H1773 H 0.16576 0.74321 0.96991 0.0
C1774 C 0.15462 0.80938 0.95567 0.0
C1775 C 0.17218 0.77908 0.98155 0.0
C1776 C 0.18605 0.77138 1.00402 0.0
C1777 C 0.1439 0.792 0.94081 0.0
C1778 C 0.15032 0.7681 0.94421 0.0
C1779 C 0.16192 0.76169 0.96628 0.0
C1780 C 0.15303 0.75206 0.92251 0.0
C1781 C 0.12841 0.79955 0.91951 0.0
C1782 C 0.1467 0.7281 0.92393 0.0
C1783 C 0.15662 0.71164 0.90744 0.0
C1784 C 0.17335 0.71892 0.88964 0.0
C1785 C 0.1773 0.74324 0.88636 0.0
C1786 C 0.16732 0.75963 0.90268 0.0
H1787 H 0.11646 0.81408 0.92553 0.0
H1788 H 0.13959 0.80656 0.90428 0.0
H1789 H 0.11766 0.78457 0.91225 0.0
H1790 H 0.13571 0.72188 0.93902 0.0
H1791 H 0.15296 0.69302 0.9103 0.0
H1792 H 0.66158 0.20683 0.44367 0.0
H1793 H 0.69402 0.18559 0.46366 0.0
H1794 H 0.64698 0.12792 0.481 0.0
H1795 H 0.61435 0.14901 0.46104 0.0
H1796 H 0.69624 0.17038 0.51378 0.0
H1797 H 0.70434 0.09503 0.44787 0.0
H1798 H 0.68682 0.12093 0.4411 0.0
H1799 H 0.67548 0.09841 0.4613 0.0
C1800 C 0.65802 0.18965 0.45175 0.0
C1801 C 0.63518 0.17976 0.45081 0.0
C1802 C 0.67667 0.17749 0.46315 0.0
C1803 C 0.67304 0.15503 0.47367 0.0
C1804 C 0.65033 0.14505 0.47271 0.0
H1805 H 0.76604 0.06211 0.56021 0.0
H1806 H 0.73381 0.07745 0.53412 0.0
C1807 C 0.63162 0.15725 0.4614 0.0
C1808 C 0.69282 0.14261 0.48652 0.0
H1809 H 0.72778 0.09313 0.4846 0.0
C1810 C 0.70311 0.15349 0.50738 0.0
C1811 C 0.70177 0.12049 0.47828 0.0
C1812 C 0.6917 0.10808 0.45578 0.0
C1813 C 0.72198 0.14293 0.52022 0.0
C1814 C 0.73131 0.12103 0.51172 0.0
C1815 C 0.72079 0.10994 0.49107 0.0
C1816 C 0.75207 0.10973 0.52407 0.0
C1817 C 0.73169 0.1554 0.54289 0.0
C1818 C 0.77355 0.12204 0.52601 0.0
C1819 C 0.79182 0.11339 0.54088 0.0
C1820 C 0.78931 0.09191 0.55379 0.0
C1821 C 0.76863 0.07852 0.5502 0.0
C1822 C 0.75013 0.08739 0.53546 0.0
H1823 H 0.71866 0.16793 0.55101 0.0
H1824 H 0.737 0.14256 0.55744 0.0
H1825 H 0.74748 0.16577 0.53742 0.0
H1826 H 0.77583 0.13897 0.51697 0.0
H1827 H 0.80752 0.12414 0.54328 0.0
H1828 H 0.40946 0.79398 0.55841 0.0
H1829 H 0.39788 0.76172 0.53122 0.0
H1830 H 0.47013 0.73757 0.52846 0.0
H1831 H 0.48151 0.76913 0.55784 0.0
H1832 H 0.40426 0.74744 0.48855 0.0
H1833 H 0.44099 0.67755 0.54921 0.0
H1834 H 0.44054 0.70827 0.5583 0.0
H1835 H 0.46334 0.69726 0.53792 0.0
C1836 C 0.42301 0.78188 0.55201 0.0
C1837 C 0.44636 0.78391 0.56076 0.0
C1838 C 0.41633 0.76336 0.53627 0.0
C1839 C 0.43286 0.74649 0.52825 0.0
C1840 C 0.45674 0.74968 0.53511 0.0
H1841 H 0.38207 0.64535 0.41477 0.0
H1842 H 0.40189 0.67815 0.43612 0.0
C1843 C 0.46339 0.76808 0.55148 0.0
C1844 C 0.42449 0.72553 0.51339 0.0
H1845 H 0.42453 0.6649 0.51108 0.0
C1846 C 0.40879 0.72941 0.49354 0.0
C1847 C 0.42969 0.70181 0.52012 0.0
C1848 C 0.44433 0.69591 0.54271 0.0
C1849 C 0.398 0.71057 0.48063 0.0
C1850 C 0.40418 0.68689 0.48648 0.0
C1851 C 0.42003 0.68296 0.50617 0.0
C1852 C 0.39358 0.66601 0.47326 0.0
C1853 C 0.37905 0.71639 0.46188 0.0
C1854 C 0.3834 0.64733 0.48681 0.0
C1855 C 0.37265 0.62818 0.47458 0.0
C1856 C 0.37163 0.62729 0.44848 0.0
C1857 C 0.38231 0.64564 0.4349 0.0
C1858 C 0.39347 0.66456 0.44713 0.0
H1859 H 0.37085 0.73389 0.46583 0.0
H1860 H 0.38703 0.71727 0.44308 0.0
H1861 H 0.36487 0.70281 0.46173 0.0
H1862 H 0.38332 0.64775 0.50693 0.0
H1863 H 0.3645 0.61441 0.48563 0.0
H1864 H 0.8967 0.37692 0.4119 0.0
H1865 H 0.86442 0.39968 0.43062 0.0
H1866 H 0.89311 0.38629 0.5035 0.0
H1867 H 0.92594 0.36463 0.48479 0.0
H1868 H 0.83059 0.38762 0.45883 0.0
H1869 H 0.88072 0.45465 0.51171 0.0
H1870 H 0.8947 0.43546 0.48923 0.0
H1871 H 0.88986 0.42555 0.52067 0.0
C1872 C 0.89629 0.37914 0.4319 0.0
C1873 C 0.91407 0.36917 0.44681 0.0
C1874 C 0.87779 0.39216 0.44263 0.0
C1875 C 0.87643 0.39532 0.46856 0.0
C1876 C 0.89406 0.38504 0.48345 0.0
H1877 H 0.75345 0.40763 0.55613 0.0
H1878 H 0.78544 0.39809 0.52824 0.0
C1879 C 0.9128 0.37243 0.47271 0.0
C1880 C 0.85582 0.40789 0.4801 0.0
H1881 H 0.84055 0.44783 0.52541 0.0
C1882 C 0.83288 0.40108 0.47308 0.0
C1883 C 0.85845 0.42597 0.49833 0.0
C1884 C 0.88228 0.43601 0.50518 0.0
C1885 C 0.81277 0.41081 0.48453 0.0
C1886 C 0.81548 0.42721 0.50439 0.0
C1887 C 0.83832 0.43503 0.5105 0.0
C1888 C 0.79518 0.43424 0.52064 0.0
C1889 C 0.78879 0.40329 0.47514 0.0
C1890 C 0.79022 0.45808 0.52662 0.0
C1891 C 0.7719 0.46384 0.54336 0.0
C1892 C 0.75831 0.44583 0.55441 0.0
C1893 C 0.76322 0.42213 0.54793 0.0
C1894 C 0.78149 0.4165 0.53166 0.0
H1895 H 0.78938 0.39922 0.45493 0.0
H1896 H 0.78327 0.38687 0.4848 0.0
H1897 H 0.77525 0.41717 0.47841 0.0
H1898 H 0.80071 0.47218 0.51864 0.0
H1899 H 0.76889 0.48223 0.54819 0.0
H1900 H 0.10312 0.73381 0.52344 0.0
H1901 H 0.11556 0.76735 0.49766 0.0
H1902 H 0.08618 0.81594 0.55131 0.0
H1903 H 0.07216 0.78237 0.57622 0.0
H1904 H 0.0928 0.81098 0.4774 0.0
H1905 H 0.16012 0.82812 0.55051 0.0
H1906 H 0.14487 0.80015 0.54754 0.0
H1907 H 0.13012 0.8252 0.56106 0.0
C1908 C 0.09857 0.75165 0.52921 0.0
C1909 C 0.08642 0.75552 0.55161 0.0
C1910 C 0.10602 0.7708 0.51469 0.0
C1911 C 0.10254 0.79417 0.52295 0.0
C1912 C 0.08932 0.79806 0.5447 0.0
H1913 H 0.16472 0.93002 0.4801 0.0
H1914 H 0.14284 0.8981 0.5006 0.0
C1915 C 0.08112 0.77889 0.5588 0.0
C1916 C 0.11442 0.81427 0.51007 0.0
H1917 H 0.15862 0.8551 0.51722 0.0
C1918 C 0.10714 0.82068 0.4861 0.0
C1919 C 0.13334 0.82674 0.52131 0.0
C1920 C 0.14281 0.81969 0.54644 0.0
C1921 C 0.11783 0.83966 0.47335 0.0
C1922 C 0.13669 0.85229 0.48467 0.0
C1923 C 0.14404 0.84568 0.5086 0.0
C1924 C 0.14941 0.87202 0.47183 0.0
C1925 C 0.10842 0.84634 0.44811 0.0
C1926 C 0.16068 0.86811 0.44896 0.0
C1927 C 0.17313 0.88631 0.43711 0.0
C1928 C 0.17484 0.90899 0.44799 0.0
C1929 C 0.16369 0.91288 0.47105 0.0
C1930 C 0.15118 0.89459 0.48285 0.0
H1931 H 0.09007 0.83987 0.44534 0.0
H1932 H 0.10869 0.86584 0.44549 0.0
H1933 H 0.11963 0.83814 0.43354 0.0
H1934 H 0.16012 0.85078 0.44048 0.0
H1935 H 0.1817 0.88244 0.41956 0.0
H1936 H 0.28113 0.99477 0.99306 0.0
H1937 H 0.24612 0.98803 0.0193 0.0
H1938 H 0.25959 0.91303 0.0175 0.0
H1939 H 0.29485 0.91945 0.99289 0.0
H1940 H 0.20652 0.96292 1.00766 0.0
H1941 H 0.24722 0.92326 0.09011 0.0
H1942 H 0.26496 0.9365 0.06605 0.0
H1943 H 0.2556 0.90597 0.06367 0.0
C1944 C 0.27713 0.97694 0.99915 0.0
C1945 C 0.29101 0.95771 0.99108 0.0
C1946 C 0.25695 0.97308 1.01388 0.0
C1947 C 0.25045 0.94995 0.02085 0.0
C1948 C 0.26467 0.93099 1.01321 0.0
H1949 H 0.11759 0.88101 0.04678 0.0
H1950 H 0.15008 0.90425 0.02927 0.0
C1951 C 0.2848 0.93477 0.99889 0.0
C1952 C 0.22812 0.94488 0.03455 0.0
H1953 H 0.20647 0.91088 0.08164 0.0
C1954 C 0.20648 0.95198 0.02418 0.0
C1955 C 0.2279 0.93084 0.0563 0.0
C1956 C 0.25026 0.92398 0.06972 0.0
C1957 C 0.18475 0.9444 0.03418 0.0
C1958 C 0.18463 0.92873 0.05472 0.0
C1959 C 0.2063 0.92265 0.06576 0.0
C1960 C 0.1626 0.91762 0.06475 0.0
C1961 C 0.16223 0.9533 0.02255 0.0
C1962 C 0.15859 0.91715 0.09054 0.0
C1963 C 0.14043 0.90334 0.10054 0.0
C1964 C 0.12545 0.89014 0.08497 0.0
C1965 C 0.12846 0.89161 0.05912 0.0
C1966 C 0.14706 0.90497 0.04911 0.0
H1967 H 0.16488 0.97099 1.014 0.0
H1968 H 0.15675 0.94092 1.00754 0.0
H1969 H 0.14774 0.9546 0.03637 0.0
H1970 H 0.17023 0.92663 0.1031 0.0
H1971 H 0.13868 0.90219 0.12055 0.0
H1972 H 0.70775 0.16423 0.09045 0.0
H1973 H 0.687 0.1979 0.07219 0.0
H1974 H 0.62503 0.15468 0.06171 0.0
H1975 H 0.6457 0.12069 0.07984 0.0
H1976 H 0.66522 0.19803 0.02213 0.0
H1977 H 0.60225 0.21758 0.09877 0.0
H1978 H 0.62906 0.20084 0.1034 0.0
H1979 H 0.60412 0.18717 0.08862 0.0
C1980 C 0.68971 0.16177 0.08427 0.0
C1981 C 0.67848 0.1396 0.08655 0.0
C1982 C 0.67785 0.18111 0.07388 0.0
C1983 C 0.65438 0.1789 0.06582 0.0
C1984 C 0.64304 0.15687 0.06808 0.0
H1985 H 0.56253 0.27827 0.98588 0.0
H1986 H 0.57644 0.24532 1.01195 0.0
C1987 C 0.65497 0.1374 0.07828 0.0
C1988 C 0.6423 0.19937 0.05394 0.0
H1989 H 0.5982 0.24017 0.06197 0.0
C1990 C 0.65057 0.20723 0.03084 0.0
C1991 C 0.62314 0.21133 0.0653 0.0
C1992 C 0.61411 0.20401 0.09048 0.0
C1993 C 0.6402 0.22662 0.01874 0.0
C1994 C 0.62128 0.2389 0.03023 0.0
C1995 C 0.61271 0.23083 0.05319 0.0
C1996 C 0.61095 0.26053 0.01872 0.0
C1997 C 0.64956 0.23373 0.99358 0.0
C1998 C 0.6252 0.28055 1.01504 0.0
C1999 C 0.61731 0.29925 1.00029 0.0
C2000 C 0.59486 0.29854 0.98907 0.0
C2001 C 0.57976 0.27947 0.99453 0.0
C2002 C 0.58778 0.26056 1.00926 0.0
H2003 H 0.65936 0.21903 0.98447 0.0
H2004 H 0.63504 0.23942 0.98108 0.0
H2005 H 0.66191 0.24883 0.99593 0.0
H2006 H 0.64298 0.28112 0.02246 0.0
H2007 H 0.62939 0.31369 0.99645 0.0
H2008 H 0.26967 0.56722 0.98573 0.0
H2009 H 0.30106 0.57903 1.0149 0.0
H2010 H 0.28302 0.65248 1.00393 0.0
H2011 H 0.25241 0.64085 0.97446 0.0
H2012 H 0.32857 0.64622 0.9974 0.0
H2013 H 0.30303 0.60281 0.08566 0.0
H2014 H 0.3054 0.58278 0.05978 0.0
H2015 H 0.28301 0.60537 0.0597 0.0
C2016 C 0.27207 0.58582 0.99008 0.0
C2017 C 0.25858 0.60309 0.97778 0.0
C2018 C 0.29002 0.59259 1.00679 0.0
C2019 C 0.29448 0.61672 1.01181 0.0
C2020 C 0.28013 0.63379 1.00038 0.0
H2021 H 0.38478 0.68484 0.12207 0.0
H2022 H 0.35227 0.66626 0.09912 0.0
C2023 C 0.26254 0.6271 0.98355 0.0
C2024 C 0.31514 0.62464 0.02713 0.0
H2025 H 0.34093 0.62096 0.08457 0.0
C2026 C 0.3312 0.64066 1.01647 0.0
C2027 C 0.31862 0.61762 0.05213 0.0
C2028 C 0.3015 0.60138 0.06513 0.0
C2029 C 0.35038 0.64994 0.02997 0.0
C2030 C 0.35423 0.64252 0.05476 0.0
C2031 C 0.3382 0.62649 0.0655 0.0
C2032 C 0.37435 0.65189 0.06993 0.0
C2033 C 0.36588 0.66825 0.01768 0.0
C2034 C 0.39777 0.64946 0.06168 0.0
C2035 C 0.4164 0.66025 0.07464 0.0
C2036 C 0.41213 0.67346 0.09643 0.0
C2037 C 0.38879 0.67485 0.10537 0.0
C2038 C 0.37013 0.6642 0.09225 0.0
H2039 H 0.35687 0.67675 1.00169 0.0
H2040 H 0.37119 0.68231 0.03106 0.0
H2041 H 0.3821 0.65954 1.01055 0.0
H2042 H 0.40164 0.63956 0.04489 0.0
H2043 H 0.43413 0.65855 0.06731 0.0
H2044 H 0.85651 0.37991 0.10317 0.0
H2045 H 0.88058 0.3501 0.08248 0.0
H2046 H 0.92568 0.40486 0.05317 0.0
H2047 H 0.9009 0.43513 0.07325 0.0
H2048 H 0.91668 0.37247 0.01845 0.0
H2049 H 0.94327 0.32479 0.10315 0.0
H2050 H 0.91175 0.32669 0.10131 0.0
H2051 H 0.92907 0.35337 0.10436 0.0
C2052 C 0.87171 0.38572 0.0926 0.0
C2053 C 0.87697 0.40998 0.09025 0.0
C2054 C 0.88559 0.36855 0.08084 0.0
C2055 C 0.90549 0.37505 0.06687 0.0
C2056 C 0.91063 0.39931 0.06412 0.0
H2057 H 0.99131 0.27768 0.97327 0.0
H2058 H 0.98225 0.31203 0.99996 0.0
C2059 C 0.89648 0.41661 0.07564 0.0
C2060 C 0.92015 0.35642 0.05448 0.0
H2061 H 0.94624 0.30266 0.06469 0.0
C2062 C 0.92353 0.35743 0.02862 0.0
C2063 C 0.92946 0.33686 0.06772 0.0
C2064 C 0.92843 0.3355 0.0957 0.0
C2065 C 0.93436 0.3387 1.01552 0.0
C2066 C 0.94231 0.31852 0.02865 0.0
C2067 C 0.94003 0.31805 0.0546 0.0
C2068 C 0.95049 0.29673 1.01553 0.0
C2069 C 0.93615 0.34006 0.98757 0.0
C2070 C 0.93647 0.27627 1.01649 0.0
C2071 C 0.94168 0.25671 1.00148 0.0
C2072 C 0.96125 0.25701 0.98542 0.0
C2073 C 0.97639 0.27676 0.98583 0.0
C2074 C 0.971 0.29654 1.00076 0.0
H2075 H 0.92619 0.35531 0.97989 0.0
H2076 H 0.95495 0.34206 0.98218 0.0
H2077 H 0.92944 0.32349 0.97889 0.0
H2078 H 0.92062 0.27594 0.02777 0.0
H2079 H 0.92954 0.24186 1.00131 0.0
H2080 H 0.42656 0.87352 0.56421 0.0
H2081 H 0.39489 0.89474 0.54293 0.0
H2082 H 0.35133 0.88947 0.60844 0.0
H2083 H 0.38257 0.86734 0.62938 0.0
H2084 H 0.32671 0.87695 0.57096 0.0
H2085 H 0.37039 0.96042 0.54427 0.0
H2086 H 0.38665 0.9355 0.53271 0.0
H2087 H 0.38368 0.93992 0.56577 0.0
C2088 C 0.41042 0.87731 0.57427 0.0
C2089 C 0.40716 0.86875 0.59854 0.0
C2090 C 0.39229 0.88962 0.56209 0.0
C2091 C 0.37067 0.89418 0.5741 0.0
C2092 C 0.36776 0.8863 0.59867 0.0
H2093 H 0.26062 0.97635 0.49413 0.0
H2094 H 0.28968 0.96499 0.52601 0.0
C2095 C 0.3857 0.87366 0.61069 0.0
C2096 C 0.3504 0.90508 0.56039 0.0
H2097 H 0.33522 0.95012 0.52106 0.0
C2098 C 0.32858 0.89317 0.5604 0.0
C2099 C 0.35239 0.92652 0.54687 0.0
C2100 C 0.37447 0.94145 0.54763 0.0
C2101 C 0.30924 0.90138 0.5465 0.0
C2102 C 0.31184 0.92171 0.53138 0.0
C2103 C 0.33323 0.93434 0.53231 0.0
C2104 C 0.29336 0.92881 0.51303 0.0
C2105 C 0.2862 0.88801 0.54813 0.0
C2106 C 0.28578 0.91241 0.49508 0.0
C2107 C 0.26916 0.91874 0.47716 0.0
C2108 C 0.25977 0.94184 0.47631 0.0
C2109 C 0.26726 0.95836 0.49435 0.0
C2110 C 0.28398 0.95192 0.51249 0.0
H2111 H 0.28436 0.87912 0.56642 0.0
H2112 H 0.27082 0.89991 0.54539 0.0
H2113 H 0.28581 0.87404 0.53357 0.0
H2114 H 0.29312 0.8947 0.49456 0.0
H2115 H 0.26406 0.90545 0.46361 0.0
H2116 H 0.65699 0.4325 0.56016 0.0
H2117 H 0.63417 0.40182 0.53845 0.0
H2118 H 0.65164 0.35172 0.59583 0.0
H2119 H 0.67397 0.38218 0.61779 0.0
H2120 H 0.65206 0.36072 0.51961 0.0
H2121 H 0.5819 0.33884 0.5875 0.0
H2122 H 0.59969 0.3653 0.59004 0.0
H2123 H 0.61108 0.33726 0.60037 0.0
C2124 C 0.65554 0.41511 0.56846 0.0
C2125 C 0.66733 0.40994 0.59081 0.0
C2126 C 0.64254 0.39753 0.55596 0.0
C2127 C 0.64088 0.37445 0.5656 0.0
C2128 C 0.65212 0.36945 0.58823 0.0
H2129 H 0.59673 0.23879 0.49944 0.0
H2130 H 0.61037 0.26943 0.52895 0.0
C2131 C 0.66507 0.38697 0.60072 0.0
C2132 C 0.62924 0.35512 0.55102 0.0
H2133 H 0.58684 0.31183 0.55358 0.0
C2134 C 0.63768 0.35019 0.52702 0.0
C2135 C 0.61062 0.3411 0.56072 0.0
C2136 C 0.60012 0.346 0.58598 0.0
C2137 C 0.62826 0.33163 0.5126 0.0
C2138 C 0.6096 0.31771 0.52222 0.0
C2139 C 0.60119 0.32245 0.54627 0.0
C2140 C 0.59813 0.29893 0.50685 0.0
C2141 C 0.63858 0.32687 0.4872 0.0
C2142 C 0.58578 0.30529 0.48531 0.0
C2143 C 0.57803 0.28796 0.46861 0.0
C2144 C 0.58226 0.26378 0.47309 0.0
C2145 C 0.59304 0.25724 0.49559 0.0
C2146 C 0.60096 0.27474 0.51236 0.0
H2147 H 0.65622 0.33521 0.48496 0.0
H2148 H 0.64025 0.30753 0.48375 0.0
H2149 H 0.62666 0.33429 0.47283 0.0
H2150 H 0.58306 0.32379 0.48085 0.0
H2151 H 0.56962 0.29359 0.45153 0.0
H2152 H 0.27431 0.55174 0.48096 0.0
H2153 H 0.23916 0.56108 0.50617 0.0
H2154 H 0.25593 0.63541 0.50192 0.0
H2155 H 0.29077 0.62637 0.47713 0.0
H2156 H 0.23012 0.58539 0.55091 0.0
H2157 H 0.19003 0.63232 0.4719 0.0
H2158 H 0.21635 0.61463 0.46848 0.0
H2159 H 0.21829 0.64475 0.47948 0.0
C2160 C 0.27084 0.57 0.48605 0.0
C2161 C 0.28531 0.58829 0.47694 0.0
C2162 C 0.25063 0.57535 0.50025 0.0
C2163 C 0.24456 0.59905 0.50544 0.0
C2164 C 0.25992 0.61708 0.49774 0.0
H2165 H 0.1578 0.66931 0.6111 0.0
H2166 H 0.18705 0.64612 0.5889 0.0
C2167 C 0.27996 0.61182 0.48366 0.0
C2168 C 0.22193 0.60542 0.51808 0.0
H2169 H 0.17383 0.64155 0.51217 0.0
C2170 C 0.21762 0.59737 0.54232 0.0
C2171 C 0.20518 0.62057 0.50675 0.0
C2172 C 0.20757 0.62833 0.4801 0.0
C2173 C 0.19782 0.60521 0.55596 0.0
C2174 C 0.18218 0.622 0.54532 0.0
C2175 C 0.18581 0.62892 0.52058 0.0
C2176 C 0.16324 0.63413 0.56001 0.0
C2177 C 0.19401 0.59546 0.5817 0.0
C2178 C 0.13986 0.63564 0.55115 0.0
C2179 C 0.12288 0.64934 0.56379 0.0
C2180 C 0.12901 0.66197 0.58545 0.0
C2181 C 0.15225 0.65981 0.59457 0.0
C2182 C 0.1691 0.64628 0.58196 0.0
H2183 H 0.20129 0.57726 0.5833 0.0
H2184 H 0.20342 0.6068 0.59538 0.0
H2185 H 0.17498 0.59502 0.58665 0.0
H2186 H 0.13488 0.62663 0.53412 0.0
H2187 H 0.10528 0.65075 0.55608 0.0
H2188 H 0.88716 0.10477 0.55889 0.0
H2189 H 0.90902 0.13608 0.53732 0.0
H2190 H 0.89216 0.18512 0.59632 0.0
H2191 H 0.87109 0.15399 0.61823 0.0
H2192 H 0.89093 0.17632 0.51934 0.0
H2193 H 0.96091 0.20003 0.58659 0.0
H2194 H 0.94369 0.17323 0.58927 0.0
H2195 H 0.93214 0.20102 0.60045 0.0
C2196 C 0.88863 0.12205 0.56759 0.0
C2197 C 0.87732 0.12676 0.59035 0.0
C2198 C 0.90104 0.14 0.55516 0.0
C2199 C 0.90257 0.16299 0.56529 0.0
C2200 C 0.89184 0.16749 0.58833 0.0
H2201 H 0.91394 0.29247 0.48163 0.0
H2202 H 0.90241 0.25924 0.5079 0.0
C2203 C 0.87954 0.1496 0.60077 0.0
C2204 C 0.91344 0.18278 0.55089 0.0
H2205 H 0.9526 0.2289 0.55496 0.0
C2206 C 0.90464 0.18759 0.52705 0.0
C2207 C 0.93149 0.1975 0.56073 0.0
C2208 C 0.94278 0.19254 0.58556 0.0
C2209 C 0.91279 0.20698 0.51316 0.0
C2210 C 0.92984 0.22255 0.52358 0.0
C2211 C 0.93929 0.21727 0.54706 0.0
C2212 C 0.9376 0.24453 0.5105 0.0
C2213 C 0.90295 0.21042 0.48737 0.0
C2214 C 0.96152 0.24842 0.50459 0.0
C2215 C 0.96824 0.26786 0.48988 0.0
C2216 C 0.95111 0.28365 0.48086 0.0
C2217 C 0.92749 0.28054 0.48824 0.0
C2218 C 0.92084 0.26138 0.50304 0.0
H2219 H 0.89733 0.19326 0.47908 0.0
H2220 H 0.88711 0.22191 0.48853 0.0
H2221 H 0.916 0.21878 0.47476 0.0
H2222 H 0.97484 0.23581 0.51032 0.0
H2223 H 0.98651 0.26959 0.48423 0.0
H2224 H 0.93456 0.15877 0.97791 0.0
H2225 H 0.90351 0.13699 1.00002 0.0
H2226 H 0.85241 0.15968 0.94575 0.0
H2227 H 0.88316 0.18113 0.9235 0.0
H2228 H 0.8635 0.15687 0.02118 0.0
H2229 H 0.83676 0.08958 0.95132 0.0
H2230 H 0.86405 0.10599 0.94903 0.0
H2231 H 0.83664 0.11935 0.93971 0.0
C2232 C 0.91682 0.15872 0.97038 0.0
C2233 C 0.91149 0.17172 0.94883 0.0
C2234 C 0.89903 0.14633 0.98312 0.0
C2235 C 0.87557 0.14639 0.97445 0.0
C2236 C 0.87037 0.15886 0.95261 0.0
H2237 H 0.73943 0.10202 0.03807 0.0
H2238 H 0.77073 0.11569 1.00965 0.0
C2239 C 0.88806 0.1713 0.93995 0.0
C2240 C 0.85622 0.13508 0.98918 0.0
H2241 H 0.81123 0.09449 0.98622 0.0
C2242 C 0.85223 0.14308 1.01356 0.0
C2243 C 0.8412 0.11729 0.97923 0.0
C2244 C 0.84495 0.10737 0.95346 0.0
C2245 C 0.8336 0.13412 0.02808 0.0
C2246 C 0.81871 0.11617 0.01825 0.0
C2247 C 0.82257 0.10821 0.9938 0.0
C2248 C 0.79961 0.10514 0.03354 0.0
C2249 C 0.82973 0.1444 0.0537 0.0
C2250 C 0.80535 0.09363 0.0558 0.0
C2251 C 0.78761 0.08593 0.07193 0.0
C2252 C 0.7636 0.08918 0.06612 0.0
C2253 C 0.75774 0.09911 0.04299 0.0
C2254 C 0.77563 0.10706 0.02683 0.0
H2255 H 0.838 0.16216 0.05568 0.0
H2256 H 0.81061 0.14597 0.05796 0.0
H2257 H 0.83788 0.13255 0.06769 0.0
H2258 H 0.82364 0.09134 0.06115 0.0
H2259 H 0.79275 0.07814 0.08949 0.0
H2260 H 0.38967 0.90064 0.92318 0.0
H2261 H 0.40946 0.86715 0.94294 0.0
H2262 H 0.39127 0.8951 1.01516 0.0
H2263 H 0.37223 0.92924 0.99541 0.0
H2264 H 0.43524 0.87683 1.01546 0.0
H2265 H 0.37381 0.81235 0.97229 0.0
H2266 H 0.3894 0.82962 0.94968 0.0
H2267 H 0.36919 0.84388 0.97079 0.0
C2268 C 0.39014 0.89981 0.94328 0.0
C2269 C 0.37936 0.91758 0.95773 0.0
C2270 C 0.40131 0.88054 0.95456 0.0
C2271 C 0.40145 0.87826 0.98055 0.0
C2272 C 0.3914 0.89641 0.99507 0.0
H2273 H 0.41174 0.7533 0.06813 0.0
H2274 H 0.40129 0.78597 0.04116 0.0
C2275 C 0.38056 0.91596 0.98378 0.0
C2276 C 0.41141 0.85664 0.9925 0.0
H2277 H 0.40619 0.79633 0.99433 0.0
C2278 C 0.42899 0.8592 1.01076 0.0
C2279 C 0.40292 0.83364 0.98677 0.0
C2280 C 0.38263 0.82966 0.96902 0.0
C2281 C 0.43815 0.8395 0.02353 0.0
C2282 C 0.43015 0.81642 0.01726 0.0
C2283 C 0.41274 0.8139 0.99881 0.0
C2284 C 0.4373 0.795 0.03162 0.0
C2285 C 0.45539 0.84373 0.04447 0.0
C2286 C 0.46112 0.78834 0.03465 0.0
C2287 C 0.46726 0.76945 0.05039 0.0
C2288 C 0.44964 0.75688 0.06318 0.0
C2289 C 0.42583 0.76265 0.05871 0.0
C2290 C 0.41977 0.78142 0.04322 0.0
H2291 H 0.45538 0.86252 0.05071 0.0
H2292 H 0.4512 0.83236 0.06068 0.0
H2293 H 0.47348 0.83933 0.03804 0.0
H2294 H 0.47498 0.79813 0.02539 0.0
H2295 H 0.48574 0.76555 0.05354 0.0
H2296 H 0.77093 0.49072 0.06673 0.0
H2297 H 0.73569 0.48244 0.04126 0.0
H2298 H 0.76773 0.41802 1.01478 0.0
H2299 H 0.80259 0.42579 0.04041 0.0
H2300 H 0.7306 0.4637 0.98279 0.0
H2301 H 0.70419 0.40345 0.05963 0.0
H2302 H 0.72255 0.42921 0.06489 0.0
H2303 H 0.73469 0.40349 0.05005 0.0
C2304 C 0.77085 0.47533 0.05463 0.0
C2305 C 0.78962 0.45903 0.05533 0.0
C2306 C 0.75062 0.4705 0.04029 0.0
C2307 C 0.74906 0.44942 0.02636 0.0
C2308 C 0.76857 0.43421 0.02552 0.0
H2309 H 0.65737 0.37688 0.92509 0.0
H2310 H 0.68839 0.39937 0.94583 0.0
C2311 C 0.78856 0.43882 0.03999 0.0
C2312 C 0.72641 0.44163 1.01495 0.0
H2313 H 0.68208 0.40117 0.02257 0.0
C2314 C 0.71979 0.45026 0.99157 0.0
C2315 C 0.71223 0.42424 0.02653 0.0
C2316 C 0.71855 0.41453 0.05174 0.0
C2317 C 0.69978 0.44129 0.97907 0.0
C2318 C 0.68625 0.42297 0.99012 0.0
C2319 C 0.69236 0.41517 1.01402 0.0
C2320 C 0.66663 0.41065 0.97673 0.0
C2321 C 0.69336 0.4515 0.95412 0.0
C2322 C 0.64399 0.40894 0.98734 0.0
C2323 C 0.62608 0.39585 0.97553 0.0
C2324 C 0.63048 0.38402 0.95293 0.0
C2325 C 0.65313 0.38595 0.9423 0.0
C2326 C 0.67096 0.399 0.95408 0.0
H2327 H 0.7002 0.46985 0.95208 0.0
H2328 H 0.70141 0.44049 0.93925 0.0
H2329 H 0.67394 0.45169 0.95132 0.0
H2330 H 0.64025 0.41754 1.00493 0.0
H2331 H 0.60896 0.39462 0.98438 0.0
H2332 H 0.11568 0.81296 0.03009 0.0
H2333 H 0.12844 0.77802 1.00696 0.0
H2334 H 0.07242 0.73716 0.03999 0.0
H2335 H 0.05926 0.77242 0.06315 0.0
H2336 H 0.14373 0.73727 0.03276 0.0
H2337 H 0.07199 0.71543 0.96592 0.0
H2338 H 0.07531 0.7446 0.97945 0.0
H2339 H 0.06335 0.72086 0.99763 0.0
C2340 C 0.10556 0.79675 0.03183 0.0
C2341 C 0.08633 0.79553 0.04831 0.0
C2342 C 0.113 0.77671 0.01869 0.0
C2343 C 0.1015 0.75488 0.02168 0.0
C2344 C 0.08141 0.75385 0.03705 0.0
H2345 H 0.14917 0.61364 0.97164 0.0
H2346 H 0.12779 0.64593 0.99282 0.0
C2347 C 0.07381 0.77406 0.0502 0.0
C2348 C 0.11227 0.73305 1.0108 0.0
H2349 H 0.10418 0.68881 0.96793 0.0
C2350 C 0.13515 0.7268 0.01844 0.0
C2351 C 0.10088 0.71907 0.9925 0.0
C2352 C 0.07658 0.7253 0.98317 0.0
C2353 C 0.14717 0.70746 1.00785 0.0
C2354 C 0.13594 0.69366 0.98932 0.0
C2355 C 0.11275 0.69937 0.98221 0.0
C2356 C 0.14852 0.67398 0.97637 0.0
C2357 C 0.17195 0.70204 1.01639 0.0
C2358 C 0.1672 0.679 0.96008 0.0
C2359 C 0.17883 0.66073 0.94737 0.0
C2360 C 0.17263 0.63692 0.95139 0.0
C2361 C 0.15429 0.63182 0.96816 0.0
C2362 C 0.14206 0.65023 0.98023 0.0
H2363 H 0.17624 0.71107 0.03422 0.0
H2364 H 0.17444 0.68266 0.01869 0.0
H2365 H 0.18465 0.70825 1.00212 0.0
H2366 H 0.17274 0.69713 0.95709 0.0
H2367 H 0.19304 0.66523 0.93475 0.0
loop_
_geom_bond_atom_site_label_1
_geom_bond_atom_site_label_2
_geom_bond_distance
_geom_bond_site_symmetry_2
_ccdc_geom_bond_type
Dy0 O3 2.307 . S
Dy0 O5 2.395 . S
Dy0 O6 2.379 . S
Dy0 O8 2.339 . S
Dy0 O10 2.298 . S
Dy0 O14 2.275 . S
Dy0 C22 2.738 . S
Dy1 O4 2.298 . S
Dy1 O7 2.275 . S
Dy1 O9 2.307 . S
Dy1 O11 2.395 . S
Dy1 O12 2.379 . S
Dy1 O15 2.339 . S
Dy1 C31 2.738 . S
C2 O14 1.254 . S
C2 O15 1.257 . S
O3 Dy0 2.307 . S
O3 C13 1.266 . S
O4 Dy1 2.298 . S
O4 C13 1.236 . S
O5 Dy0 2.395 . S
O5 C22 1.255 . S
O6 Dy0 2.379 . S
O6 C22 1.249 . S
O7 Dy1 2.275 . S
O7 C23 1.254 . S
O8 Dy0 2.339 . S
O8 C23 1.257 . S
O9 Dy1 2.307 . S
O9 C24 1.266 . S
O10 Dy0 2.298 . S
O10 C24 1.236 . S
O11 Dy1 2.395 . S
O11 C31 1.255 . S
O12 Dy1 2.379 . S
O12 C31 1.249 . S
C13 O3 1.266 . S
C13 O4 1.236 . S
O14 Dy0 2.275 . S
O14 C2 1.254 . S
O15 Dy1 2.339 . S
O15 C2 1.257 . S
C16 C19 1.344 . S
C16 C20 1.328 . S
C16 C22 1.516 . S
C17 C18 1.304 . S
C17 C21 1.323 . S
C18 C17 1.304 . S
C18 C19 1.371 . S
C18 H32 0.930 . S
C19 C16 1.344 . S
C19 C18 1.371 . S
C19 H33 0.931 . S
C20 C16 1.328 . S
C20 C21 1.433 . S
C20 H34 0.931 . S
C21 C17 1.323 . S
C21 C20 1.433 . S
C21 H35 0.933 . S
C22 Dy0 2.738 . S
C22 O5 1.255 . S
C22 O6 1.249 . S
C22 C16 1.516 . S
C23 O7 1.254 . S
C23 O8 1.257 . S
C24 O9 1.266 . S
C24 O10 1.236 . S
C25 C28 1.344 . S
C25 C29 1.328 . S
C25 C31 1.516 . S
C26 C27 1.304 . S
C26 C30 1.323 . S
C27 C26 1.304 . S
C27 C28 1.371 . S
C27 H36 0.930 . S
C28 C25 1.344 . S
C28 C27 1.371 . S
C28 H37 0.931 . S
C29 C25 1.328 . S
C29 C30 1.433 . S
C29 H38 0.931 . S
C30 C26 1.323 . S
C30 C29 1.433 . S
C30 H39 0.933 . S
C31 Dy1 2.738 . S
C31 O11 1.255 . S
C31 O12 1.249 . S
C31 C25 1.516 . S
H32 C18 0.930 . S
H33 C19 0.931 . S
H34 C20 0.931 . S
H35 C21 0.933 . S
H36 C27 0.930 . S
H37 C28 0.931 . S
H38 C29 0.931 . S
H39 C30 0.933 . S
Dy40 O43 2.307 . S
Dy40 O45 2.395 . S
Dy40 O46 2.379 . S
Dy40 O48 2.339 . S
Dy40 O50 2.298 . S
Dy40 O54 2.275 . S
Dy40 C62 2.738 . S
Dy41 O44 2.298 . S
Dy41 O47 2.275 . S
Dy41 O49 2.307 . S
Dy41 O51 2.395 . S
Dy41 O52 2.379 . S
Dy41 O55 2.339 . S
Dy41 C71 2.738 . S
C42 O54 1.254 . S
C42 O55 1.257 . S
O43 Dy40 2.307 . S
O43 C53 1.266 . S
O44 Dy41 2.298 . S
O44 C53 1.236 . S
O45 Dy40 2.395 . S
O45 C62 1.255 . S
O46 Dy40 2.379 . S
O46 C62 1.249 . S
O47 Dy41 2.275 . S
O47 C63 1.254 . S
O48 Dy40 2.339 . S
O48 C63 1.257 . S
O49 Dy41 2.307 . S
O49 C64 1.266 . S
O50 Dy40 2.298 . S
O50 C64 1.236 . S
O51 Dy41 2.395 . S
O51 C71 1.255 . S
O52 Dy41 2.379 . S
O52 C71 1.249 . S
C53 O43 1.266 . S
C53 O44 1.236 . S
O54 Dy40 2.275 . S
O54 C42 1.254 . S
O55 Dy41 2.339 . S
O55 C42 1.257 . S
C56 C59 1.344 . S
C56 C60 1.328 . S
C56 C62 1.516 . S
C57 C58 1.304 . S
C57 C61 1.323 . S
C58 C57 1.304 . S
C58 C59 1.371 . S
C58 H72 0.930 . S
C59 C56 1.344 . S
C59 C58 1.371 . S
C59 H73 0.931 . S
C60 C56 1.328 . S
C60 C61 1.433 . S
C60 H74 0.931 . S
C61 C57 1.323 . S
C61 C60 1.433 . S
C61 H75 0.933 . S
C62 Dy40 2.738 . S
C62 O45 1.255 . S
C62 O46 1.249 . S
C62 C56 1.516 . S
C63 O47 1.254 . S
C63 O48 1.257 . S
C64 O49 1.266 . S
C64 O50 1.236 . S
C65 C68 1.344 . S
C65 C69 1.328 . S
C65 C71 1.516 . S
C66 C67 1.304 . S
C66 C70 1.323 . S
C67 C66 1.304 . S
C67 C68 1.371 . S
C67 H76 0.930 . S
C68 C65 1.344 . S
C68 C67 1.371 . S
C68 H77 0.931 . S
C69 C65 1.328 . S
C69 C70 1.433 . S
C69 H78 0.931 . S
C70 C66 1.323 . S
C70 C69 1.433 . S
C70 H79 0.933 . S
C71 Dy41 2.738 . S
C71 O51 1.255 . S
C71 O52 1.249 . S
C71 C65 1.516 . S
H72 C58 0.930 . S
H73 C59 0.931 . S
H74 C60 0.931 . S
H75 C61 0.933 . S
H76 C67 0.930 . S
H77 C68 0.931 . S
H78 C69 0.931 . S
H79 C70 0.933 . S
Dy80 O83 2.307 . S
Dy80 O85 2.395 1_655 S
Dy80 O86 2.379 1_655 S
Dy80 O88 2.339 . S
Dy80 O90 2.298 . S
Dy80 O94 2.275 . S
Dy80 C102 2.738 1_655 S
Dy81 O84 2.298 . S
Dy81 O87 2.275 . S
Dy81 O89 2.307 . S
Dy81 O91 2.395 . S
Dy81 O92 2.379 . S
Dy81 O95 2.339 . S
Dy81 C111 2.738 . S
C82 O94 1.254 . S
C82 O95 1.257 . S
O83 Dy80 2.307 . S
O83 C93 1.266 . S
O84 Dy81 2.298 . S
O84 C93 1.236 . S
O85 Dy80 2.395 1_455 S
O85 C102 1.255 . S
O86 Dy80 2.379 1_455 S
O86 C102 1.249 . S
O87 Dy81 2.275 . S
O87 C103 1.254 . S
O88 Dy80 2.339 . S
O88 C103 1.257 . S
O89 Dy81 2.307 . S
O89 C104 1.266 . S
O90 Dy80 2.298 . S
O90 C104 1.236 . S
O91 Dy81 2.395 . S
O91 C111 1.255 . S
O92 Dy81 2.379 . S
O92 C111 1.249 . S
C93 O83 1.266 . S
C93 O84 1.236 . S
O94 Dy80 2.275 . S
O94 C82 1.254 . S
O95 Dy81 2.339 . S
O95 C82 1.257 . S
C96 C99 1.344 . S
C96 C100 1.328 . S
C96 C102 1.516 . S
C97 C98 1.304 . S
C97 C101 1.323 . S
C98 C97 1.304 . S
C98 C99 1.371 . S
C98 H112 0.930 . S
C99 C96 1.344 . S
C99 C98 1.371 . S
C99 H113 0.931 . S
C100 C96 1.328 . S
C100 C101 1.433 . S
C100 H114 0.931 . S
C101 C97 1.323 . S
C101 C100 1.433 . S
C101 H115 0.933 . S
C102 Dy80 2.738 1_455 S
C102 O85 1.255 . S
C102 O86 1.249 . S
C102 C96 1.516 . S
C103 O87 1.254 . S
C103 O88 1.257 . S
C104 O89 1.266 . S
C104 O90 1.236 . S
C105 C108 1.344 . S
C105 C109 1.328 . S
C105 C111 1.516 . S
C106 C107 1.304 . S
C106 C110 1.323 . S
C107 C106 1.304 . S
C107 C108 1.371 . S
C107 H116 0.930 . S
C108 C105 1.344 . S
C108 C107 1.371 . S
C108 H117 0.931 . S
C109 C105 1.328 . S
C109 C110 1.433 . S
C109 H118 0.931 . S
C110 C106 1.323 . S
C110 C109 1.433 . S
C110 H119 0.933 . S
C111 Dy81 2.738 . S
C111 O91 1.255 . S
C111 O92 1.249 . S
C111 C105 1.516 . S
H112 C98 0.930 . S
H113 C99 0.931 . S
H114 C100 0.931 . S
H115 C101 0.933 . S
H116 C107 0.930 . S
H117 C108 0.931 . S
H118 C109 0.931 . S
H119 C110 0.933 . S
Dy120 O123 2.307 . S
Dy120 O125 2.395 1_565 S
Dy120 O126 2.379 1_565 S
Dy120 O128 2.339 . S
Dy120 O130 2.298 . S
Dy120 O134 2.275 . S
Dy120 C142 2.738 1_565 S
Dy121 O124 2.298 . S
Dy121 O127 2.275 . S
Dy121 O129 2.307 . S
Dy121 O131 2.395 . S
Dy121 O132 2.379 . S
Dy121 O135 2.339 . S
Dy121 C151 2.738 . S
C122 O134 1.254 . S
C122 O135 1.257 . S
O123 Dy120 2.307 . S
O123 C133 1.266 . S
O124 Dy121 2.298 . S
O124 C133 1.236 . S
O125 Dy120 2.395 1_545 S
O125 C142 1.255 . S
O126 Dy120 2.379 1_545 S
O126 C142 1.249 . S
O127 Dy121 2.275 . S
O127 C143 1.254 . S
O128 Dy120 2.339 . S
O128 C143 1.257 . S
O129 Dy121 2.307 . S
O129 C144 1.266 . S
O130 Dy120 2.298 . S
O130 C144 1.236 . S
O131 Dy121 2.395 . S
O131 C151 1.255 . S
O132 Dy121 2.379 . S
O132 C151 1.249 . S
C133 O123 1.266 . S
C133 O124 1.236 . S
O134 Dy120 2.275 . S
O134 C122 1.254 . S
O135 Dy121 2.339 . S
O135 C122 1.257 . S
C136 C139 1.344 . S
C136 C140 1.328 . S
C136 C142 1.516 . S
C137 C138 1.304 . S
C137 C141 1.323 . S
C138 C137 1.304 . S
C138 C139 1.371 . S
C138 H152 0.930 . S
C139 C136 1.344 . S
C139 C138 1.371 . S
C139 H153 0.931 . S
C140 C136 1.328 . S
C140 C141 1.433 . S
C140 H154 0.931 . S
C141 C137 1.323 . S
C141 C140 1.433 . S
C141 H155 0.933 . S
C142 Dy120 2.738 1_545 S
C142 O125 1.255 . S
C142 O126 1.249 . S
C142 C136 1.516 . S
C143 O127 1.254 . S
C143 O128 1.257 . S
C144 O129 1.266 . S
C144 O130 1.236 . S
C145 C148 1.344 . S
C145 C149 1.328 . S
C145 C151 1.516 . S
C146 C147 1.304 . S
C146 C150 1.323 . S
C147 C146 1.304 . S
C147 C148 1.371 . S
C147 H156 0.930 . S
C148 C145 1.344 . S
C148 C147 1.371 . S
C148 H157 0.931 . S
C149 C145 1.328 . S
C149 C150 1.433 . S
C149 H158 0.931 . S
C150 C146 1.323 . S
C150 C149 1.433 . S
C150 H159 0.933 . S
C151 Dy121 2.738 . S
C151 O131 1.255 . S
C151 O132 1.249 . S
C151 C145 1.516 . S
H152 C138 0.930 . S
H153 C139 0.931 . S
H154 C140 0.931 . S
H155 C141 0.933 . S
H156 C147 0.930 . S
H157 C148 0.931 . S
H158 C149 0.931 . S
H159 C150 0.933 . S
Dy160 O163 2.307 . S
Dy160 O165 2.395 1_455 S
Dy160 O166 2.379 1_455 S
Dy160 O168 2.339 . S
Dy160 O170 2.298 . S
Dy160 O174 2.275 . S
Dy160 C182 2.738 1_455 S
Dy161 O164 2.298 . S
Dy161 O167 2.275 . S
Dy161 O169 2.307 . S
Dy161 O171 2.395 . S
Dy161 O172 2.379 . S
Dy161 O175 2.339 . S
Dy161 C191 2.738 . S
C162 O174 1.254 . S
C162 O175 1.257 . S
O163 Dy160 2.307 . S
O163 C173 1.266 . S
O164 Dy161 2.298 . S
O164 C173 1.236 . S
O165 Dy160 2.395 1_655 S
O165 C182 1.255 . S
O166 Dy160 2.379 1_655 S
O166 C182 1.249 . S
O167 Dy161 2.275 . S
O167 C183 1.254 . S
O168 Dy160 2.339 . S
O168 C183 1.257 . S
O169 Dy161 2.307 . S
O169 C184 1.266 . S
O170 Dy160 2.298 . S
O170 C184 1.236 . S
O171 Dy161 2.395 . S
O171 C191 1.255 . S
O172 Dy161 2.379 . S
O172 C191 1.249 . S
C173 O163 1.266 . S
C173 O164 1.236 . S
O174 Dy160 2.275 . S
O174 C162 1.254 . S
O175 Dy161 2.339 . S
O175 C162 1.257 . S
C176 C179 1.344 . S
C176 C180 1.328 . S
C176 C182 1.516 . S
C177 C178 1.304 . S
C177 C181 1.323 . S
C178 C177 1.304 . S
C178 C179 1.371 . S
C178 H192 0.930 . S
C179 C176 1.344 . S
C179 C178 1.371 . S
C179 H193 0.931 . S
C180 C176 1.328 . S
C180 C181 1.433 . S
C180 H194 0.931 . S
C181 C177 1.323 . S
C181 C180 1.433 . S
C181 H195 0.933 . S
C182 Dy160 2.738 1_655 S
C182 O165 1.255 . S
C182 O166 1.249 . S
C182 C176 1.516 . S
C183 O167 1.254 . S
C183 O168 1.257 . S
C184 O169 1.266 . S
C184 O170 1.236 . S
C185 C188 1.344 . S
C185 C189 1.328 . S
C185 C191 1.516 . S
C186 C187 1.304 . S
C186 C190 1.323 . S
C187 C186 1.304 . S
C187 C188 1.371 . S
C187 H196 0.930 . S
C188 C185 1.344 . S
C188 C187 1.371 . S
C188 H197 0.931 . S
C189 C185 1.328 . S
C189 C190 1.433 . S
C189 H198 0.931 . S
C190 C186 1.323 . S
C190 C189 1.433 . S
C190 H199 0.933 . S
C191 Dy161 2.738 . S
C191 O171 1.255 . S
C191 O172 1.249 . S
C191 C185 1.516 . S
H192 C178 0.930 . S
H193 C179 0.931 . S
H194 C180 0.931 . S
H195 C181 0.933 . S
H196 C187 0.930 . S
H197 C188 0.931 . S
H198 C189 0.931 . S
H199 C190 0.933 . S
Dy200 O203 2.307 . S
Dy200 O205 2.395 1_545 S
Dy200 O206 2.379 1_545 S
Dy200 O208 2.339 . S
Dy200 O210 2.298 . S
Dy200 O214 2.275 . S
Dy200 C222 2.738 1_545 S
Dy201 O204 2.298 . S
Dy201 O207 2.275 . S
Dy201 O209 2.307 . S
Dy201 O211 2.395 . S
Dy201 O212 2.379 . S
Dy201 O215 2.339 . S
Dy201 C231 2.738 . S
C202 O214 1.254 . S
C202 O215 1.257 . S
O203 Dy200 2.307 . S
O203 C213 1.266 . S
O204 Dy201 2.298 . S
O204 C213 1.236 . S
O205 Dy200 2.395 1_565 S
O205 C222 1.255 . S
O206 Dy200 2.379 1_565 S
O206 C222 1.249 . S
O207 Dy201 2.275 . S
O207 C223 1.254 . S
O208 Dy200 2.339 . S
O208 C223 1.257 . S
O209 Dy201 2.307 . S
O209 C224 1.266 . S
O210 Dy200 2.298 . S
O210 C224 1.236 . S
O211 Dy201 2.395 . S
O211 C231 1.255 . S
O212 Dy201 2.379 . S
O212 C231 1.249 . S
C213 O203 1.266 . S
C213 O204 1.236 . S
O214 Dy200 2.275 . S
O214 C202 1.254 . S
O215 Dy201 2.339 . S
O215 C202 1.257 . S
C216 C219 1.344 . S
C216 C220 1.328 . S
C216 C222 1.516 . S
C217 C218 1.304 . S
C217 C221 1.323 . S
C218 C217 1.304 . S
C218 C219 1.371 . S
C218 H232 0.930 . S
C219 C216 1.344 . S
C219 C218 1.371 . S
C219 H233 0.931 . S
C220 C216 1.328 . S
C220 C221 1.433 . S
C220 H234 0.931 . S
C221 C217 1.323 . S
C221 C220 1.433 . S
C221 H235 0.933 . S
C222 Dy200 2.738 1_565 S
C222 O205 1.255 . S
C222 O206 1.249 . S
C222 C216 1.516 . S
C223 O207 1.254 . S
C223 O208 1.257 . S
C224 O209 1.266 . S
C224 O210 1.236 . S
C225 C228 1.344 . S
C225 C229 1.328 . S
C225 C231 1.516 . S
C226 C227 1.304 . S
C226 C230 1.323 . S
C227 C226 1.304 . S
C227 C228 1.371 . S
C227 H236 0.930 . S
C228 C225 1.344 . S
C228 C227 1.371 . S
C228 H237 0.931 . S
C229 C225 1.328 . S
C229 C230 1.433 . S
C229 H238 0.931 . S
C230 C226 1.323 . S
C230 C229 1.433 . S
C230 H239 0.933 . S
C231 Dy201 2.738 . S
C231 O211 1.255 . S
C231 O212 1.249 . S
C231 C225 1.516 . S
H232 C218 0.930 . S
H233 C219 0.931 . S
H234 C220 0.931 . S
H235 C221 0.933 . S
H236 C227 0.930 . S
H237 C228 0.931 . S
H238 C229 0.931 . S
H239 C230 0.933 . S
Dy240 O243 2.307 . S
Dy240 O245 2.395 . S
Dy240 O246 2.379 . S
Dy240 O248 2.339 . S
Dy240 O250 2.298 . S
Dy240 O254 2.275 . S
Dy240 C262 2.738 . S
Dy241 O244 2.298 . S
Dy241 O247 2.275 . S
Dy241 O249 2.307 . S
Dy241 O251 2.395 . S
Dy241 O252 2.379 . S
Dy241 O255 2.339 . S
Dy241 C271 2.738 . S
C242 O254 1.254 . S
C242 O255 1.257 . S
O243 Dy240 2.307 . S
O243 C253 1.266 . S
O244 Dy241 2.298 . S
O244 C253 1.236 . S
O245 Dy240 2.395 . S
O245 C262 1.255 . S
O246 Dy240 2.379 . S
O246 C262 1.249 . S
O247 Dy241 2.275 . S
O247 C263 1.254 . S
O248 Dy240 2.339 . S
O248 C263 1.257 . S
O249 Dy241 2.307 . S
O249 C264 1.266 . S
O250 Dy240 2.298 . S
O250 C264 1.236 . S
O251 Dy241 2.395 . S
O251 C271 1.255 . S
O252 Dy241 2.379 . S
O252 C271 1.249 . S
C253 O243 1.266 . S
C253 O244 1.236 . S
O254 Dy240 2.275 . S
O254 C242 1.254 . S
O255 Dy241 2.339 . S
O255 C242 1.257 . S
C256 C259 1.344 . S
C256 C260 1.328 . S
C256 C262 1.516 . S
C257 C258 1.304 . S
C257 C261 1.323 . S
C258 C257 1.304 . S
C258 C259 1.371 . S
C258 H272 0.930 . S
C259 C256 1.344 . S
C259 C258 1.371 . S
C259 H273 0.931 . S
C260 C256 1.328 . S
C260 C261 1.433 . S
C260 H274 0.931 . S
C261 C257 1.323 . S
C261 C260 1.433 . S
C261 H275 0.933 . S
C262 Dy240 2.738 . S
C262 O245 1.255 . S
C262 O246 1.249 . S
C262 C256 1.516 . S
C263 O247 1.254 . S
C263 O248 1.257 . S
C264 O249 1.266 . S
C264 O250 1.236 . S
C265 C268 1.344 . S
C265 C269 1.328 . S
C265 C271 1.516 . S
C266 C267 1.304 . S
C266 C270 1.323 . S
C267 C266 1.304 . S
C267 C268 1.371 . S
C267 H276 0.930 . S
C268 C265 1.344 . S
C268 C267 1.371 . S
C268 H277 0.931 . S
C269 C265 1.328 . S
C269 C270 1.433 . S
C269 H278 0.931 . S
C270 C266 1.323 . S
C270 C269 1.433 . S
C270 H279 0.933 . S
C271 Dy241 2.738 . S
C271 O251 1.255 . S
C271 O252 1.249 . S
C271 C265 1.516 . S
H272 C258 0.930 . S
H273 C259 0.931 . S
H274 C260 0.931 . S
H275 C261 0.933 . S
H276 C267 0.930 . S
H277 C268 0.931 . S
H278 C269 0.931 . S
H279 C270 0.933 . S
Dy280 O283 2.307 . S
Dy280 O285 2.395 . S
Dy280 O286 2.379 . S
Dy280 O288 2.339 . S
Dy280 O290 2.298 . S
Dy280 O294 2.275 . S
Dy280 C302 2.738 . S
Dy281 O284 2.298 . S
Dy281 O287 2.275 . S
Dy281 O289 2.307 . S
Dy281 O291 2.395 . S
Dy281 O292 2.379 . S
Dy281 O295 2.339 . S
Dy281 C311 2.738 . S
C282 O294 1.254 . S
C282 O295 1.257 . S
O283 Dy280 2.307 . S
O283 C293 1.266 . S
O284 Dy281 2.298 . S
O284 C293 1.236 . S
O285 Dy280 2.395 . S
O285 C302 1.255 . S
O286 Dy280 2.379 . S
O286 C302 1.249 . S
O287 Dy281 2.275 . S
O287 C303 1.254 . S
O288 Dy280 2.339 . S
O288 C303 1.257 . S
O289 Dy281 2.307 . S
O289 C304 1.266 . S
O290 Dy280 2.298 . S
O290 C304 1.236 . S
O291 Dy281 2.395 . S
O291 C311 1.255 . S
O292 Dy281 2.379 . S
O292 C311 1.249 . S
C293 O283 1.266 . S
C293 O284 1.236 . S
O294 Dy280 2.275 . S
O294 C282 1.254 . S
O295 Dy281 2.339 . S
O295 C282 1.257 . S
C296 C299 1.344 . S
C296 C300 1.328 . S
C296 C302 1.516 . S
C297 C298 1.304 . S
C297 C301 1.323 . S
C298 C297 1.304 . S
C298 C299 1.371 . S
C298 H312 0.930 . S
C299 C296 1.344 . S
C299 C298 1.371 . S
C299 H313 0.931 . S
C300 C296 1.328 . S
C300 C301 1.433 . S
C300 H314 0.931 . S
C301 C297 1.323 . S
C301 C300 1.433 . S
C301 H315 0.933 . S
C302 Dy280 2.738 . S
C302 O285 1.255 . S
C302 O286 1.249 . S
C302 C296 1.516 . S
C303 O287 1.254 . S
C303 O288 1.257 . S
C304 O289 1.266 . S
C304 O290 1.236 . S
C305 C308 1.344 . S
C305 C309 1.328 . S
C305 C311 1.516 . S
C306 C307 1.304 . S
C306 C310 1.323 . S
C307 C306 1.304 . S
C307 C308 1.371 . S
C307 H316 0.930 . S
C308 C305 1.344 . S
C308 C307 1.371 . S
C308 H317 0.931 . S
C309 C305 1.328 . S
C309 C310 1.433 . S
C309 H318 0.931 . S
C310 C306 1.323 . S
C310 C309 1.433 . S
C310 H319 0.933 . S
C311 Dy281 2.738 . S
C311 O291 1.255 . S
C311 O292 1.249 . S
C311 C305 1.516 . S
H312 C298 0.930 . S
H313 C299 0.931 . S
H314 C300 0.931 . S
H315 C301 0.933 . S
H316 C307 0.930 . S
H317 C308 0.931 . S
H318 C309 0.931 . S
H319 C310 0.933 . S
Dy320 O323 2.307 . S
Dy320 O325 2.395 . S
Dy320 O326 2.379 . S
Dy320 O328 2.339 . S
Dy320 O330 2.298 . S
Dy320 O334 2.275 . S
Dy320 C342 2.738 . S
Dy321 O324 2.298 . S
Dy321 O327 2.275 . S
Dy321 O329 2.307 . S
Dy321 O331 2.395 . S
Dy321 O332 2.379 . S
Dy321 O335 2.339 . S
Dy321 C351 2.738 . S
C322 O334 1.254 . S
C322 O335 1.257 . S
O323 Dy320 2.307 . S
O323 C333 1.266 . S
O324 Dy321 2.298 . S
O324 C333 1.236 . S
O325 Dy320 2.395 . S
O325 C342 1.255 . S
O326 Dy320 2.379 . S
O326 C342 1.249 . S
O327 Dy321 2.275 . S
O327 C343 1.254 . S
O328 Dy320 2.339 . S
O328 C343 1.257 . S
O329 Dy321 2.307 . S
O329 C344 1.266 . S
O330 Dy320 2.298 . S
O330 C344 1.236 . S
O331 Dy321 2.395 . S
O331 C351 1.255 . S
O332 Dy321 2.379 . S
O332 C351 1.249 . S
C333 O323 1.266 . S
C333 O324 1.236 . S
O334 Dy320 2.275 . S
O334 C322 1.254 . S
O335 Dy321 2.339 . S
O335 C322 1.257 . S
C336 C339 1.344 . S
C336 C340 1.328 . S
C336 C342 1.516 . S
C337 C338 1.304 . S
C337 C341 1.323 . S
C338 C337 1.304 . S
C338 C339 1.371 . S
C338 H352 0.930 . S
C339 C336 1.344 . S
C339 C338 1.371 . S
C339 H353 0.931 . S
C340 C336 1.328 . S
C340 C341 1.433 . S
C340 H354 0.931 . S
C341 C337 1.323 . S
C341 C340 1.433 . S
C341 H355 0.933 . S
C342 Dy320 2.738 . S
C342 O325 1.255 . S
C342 O326 1.249 . S
C342 C336 1.516 . S
C343 O327 1.254 . S
C343 O328 1.257 . S
C344 O329 1.266 . S
C344 O330 1.236 . S
C345 C348 1.344 . S
C345 C349 1.328 . S
C345 C351 1.516 . S
C346 C347 1.304 . S
C346 C350 1.323 . S
C347 C346 1.304 . S
C347 C348 1.371 . S
C347 H356 0.930 . S
C348 C345 1.344 . S
C348 C347 1.371 . S
C348 H357 0.931 . S
C349 C345 1.328 . S
C349 C350 1.433 . S
C349 H358 0.931 . S
C350 C346 1.323 . S
C350 C349 1.433 . S
C350 H359 0.933 . S
C351 Dy321 2.738 . S
C351 O331 1.255 . S
C351 O332 1.249 . S
C351 C345 1.516 . S
H352 C338 0.930 . S
H353 C339 0.931 . S
H354 C340 0.931 . S
H355 C341 0.933 . S
H356 C347 0.930 . S
H357 C348 0.931 . S
H358 C349 0.931 . S
H359 C350 0.933 . S
Dy360 O363 2.307 . S
Dy360 O365 2.395 . S
Dy360 O366 2.379 . S
Dy360 O368 2.339 . S
Dy360 O370 2.298 . S
Dy360 O374 2.275 . S
Dy360 C382 2.738 . S
Dy361 O364 2.298 . S
Dy361 O367 2.275 . S
Dy361 O369 2.307 . S
Dy361 O371 2.395 . S
Dy361 O372 2.379 . S
Dy361 O375 2.339 . S
Dy361 C391 2.738 . S
C362 O374 1.254 . S
C362 O375 1.257 . S
O363 Dy360 2.307 . S
O363 C373 1.266 . S
O364 Dy361 2.298 . S
O364 C373 1.236 . S
O365 Dy360 2.395 . S
O365 C382 1.255 . S
O366 Dy360 2.379 . S
O366 C382 1.249 . S
O367 Dy361 2.275 . S
O367 C383 1.254 . S
O368 Dy360 2.339 . S
O368 C383 1.257 . S
O369 Dy361 2.307 . S
O369 C384 1.266 . S
O370 Dy360 2.298 . S
O370 C384 1.236 . S
O371 Dy361 2.395 . S
O371 C391 1.255 . S
O372 Dy361 2.379 . S
O372 C391 1.249 . S
C373 O363 1.266 . S
C373 O364 1.236 . S
O374 Dy360 2.275 . S
O374 C362 1.254 . S
O375 Dy361 2.339 . S
O375 C362 1.257 . S
C376 C379 1.344 . S
C376 C380 1.328 . S
C376 C382 1.516 . S
C377 C378 1.304 . S
C377 C381 1.323 . S
C378 C377 1.304 . S
C378 C379 1.371 . S
C378 H392 0.930 . S
C379 C376 1.344 . S
C379 C378 1.371 . S
C379 H393 0.931 . S
C380 C376 1.328 . S
C380 C381 1.433 . S
C380 H394 0.931 . S
C381 C377 1.323 . S
C381 C380 1.433 . S
C381 H395 0.933 . S
C382 Dy360 2.738 . S
C382 O365 1.255 . S
C382 O366 1.249 . S
C382 C376 1.516 . S
C383 O367 1.254 . S
C383 O368 1.257 . S
C384 O369 1.266 . S
C384 O370 1.236 . S
C385 C388 1.344 . S
C385 C389 1.328 . S
C385 C391 1.516 . S
C386 C387 1.304 . S
C386 C390 1.323 . S
C387 C386 1.304 . S
C387 C388 1.371 . S
C387 H396 0.930 . S
C388 C385 1.344 . S
C388 C387 1.371 . S
C388 H397 0.931 . S
C389 C385 1.328 . S
C389 C390 1.433 . S
C389 H398 0.931 . S
C390 C386 1.323 . S
C390 C389 1.433 . S
C390 H399 0.933 . S
C391 Dy361 2.738 . S
C391 O371 1.255 . S
C391 O372 1.249 . S
C391 C385 1.516 . S
H392 C378 0.930 . S
H393 C379 0.931 . S
H394 C380 0.931 . S
H395 C381 0.933 . S
H396 C387 0.930 . S
H397 C388 0.931 . S
H398 C389 0.931 . S
H399 C390 0.933 . S
Dy400 O403 2.307 . S
Dy400 O405 2.395 . S
Dy400 O406 2.379 . S
Dy400 O408 2.339 . S
Dy400 O410 2.298 . S
Dy400 O414 2.275 . S
Dy400 C422 2.738 . S
Dy401 O404 2.298 . S
Dy401 O407 2.275 . S
Dy401 O409 2.307 . S
Dy401 O411 2.395 1_455 S
Dy401 O412 2.379 1_455 S
Dy401 O415 2.339 . S
Dy401 C431 2.738 1_455 S
C402 O414 1.254 . S
C402 O415 1.257 . S
O403 Dy400 2.307 . S
O403 C413 1.266 . S
O404 Dy401 2.298 . S
O404 C413 1.236 . S
O405 Dy400 2.395 . S
O405 C422 1.255 . S
O406 Dy400 2.379 . S
O406 C422 1.249 . S
O407 Dy401 2.275 . S
O407 C423 1.254 . S
O408 Dy400 2.339 . S
O408 C423 1.257 . S
O409 Dy401 2.307 . S
O409 C424 1.266 . S
O410 Dy400 2.298 . S
O410 C424 1.236 . S
O411 Dy401 2.395 1_655 S
O411 C431 1.255 . S
O412 Dy401 2.379 1_655 S
O412 C431 1.249 . S
C413 O403 1.266 . S
C413 O404 1.236 . S
O414 Dy400 2.275 . S
O414 C402 1.254 . S
O415 Dy401 2.339 . S
O415 C402 1.257 . S
C416 C419 1.344 . S
C416 C420 1.328 . S
C416 C422 1.516 . S
C417 C418 1.304 . S
C417 C421 1.323 . S
C418 C417 1.304 . S
C418 C419 1.371 . S
C418 H432 0.930 . S
C419 C416 1.344 . S
C419 C418 1.371 . S
C419 H433 0.931 . S
C420 C416 1.328 . S
C420 C421 1.433 . S
C420 H434 0.931 . S
C421 C417 1.323 . S
C421 C420 1.433 . S
C421 H435 0.933 . S
C422 Dy400 2.738 . S
C422 O405 1.255 . S
C422 O406 1.249 . S
C422 C416 1.516 . S
C423 O407 1.254 . S
C423 O408 1.257 . S
C424 O409 1.266 . S
C424 O410 1.236 . S
C425 C428 1.344 . S
C425 C429 1.328 . S
C425 C431 1.516 . S
C426 C427 1.304 . S
C426 C430 1.323 . S
C427 C426 1.304 . S
C427 C428 1.371 . S
C427 H436 0.930 . S
C428 C425 1.344 . S
C428 C427 1.371 . S
C428 H437 0.931 . S
C429 C425 1.328 . S
C429 C430 1.433 . S
C429 H438 0.931 . S
C430 C426 1.323 . S
C430 C429 1.433 . S
C430 H439 0.933 . S
C431 Dy401 2.738 1_655 S
C431 O411 1.255 . S
C431 O412 1.249 . S
C431 C425 1.516 . S
H432 C418 0.930 . S
H433 C419 0.931 . S
H434 C420 0.931 . S
H435 C421 0.933 . S
H436 C427 0.930 . S
H437 C428 0.931 . S
H438 C429 0.931 . S
H439 C430 0.933 . S
Dy440 O443 2.307 . S
Dy440 O445 2.395 . S
Dy440 O446 2.379 . S
Dy440 O448 2.339 . S
Dy440 O450 2.298 . S
Dy440 O454 2.275 . S
Dy440 C462 2.738 . S
Dy441 O444 2.298 . S
Dy441 O447 2.275 . S
Dy441 O449 2.307 . S
Dy441 O451 2.395 1_545 S
Dy441 O452 2.379 1_545 S
Dy441 O455 2.339 . S
Dy441 C471 2.738 1_545 S
C442 O454 1.254 . S
C442 O455 1.257 . S
O443 Dy440 2.307 . S
O443 C453 1.266 . S
O444 Dy441 2.298 . S
O444 C453 1.236 . S
O445 Dy440 2.395 . S
O445 C462 1.255 . S
O446 Dy440 2.379 . S
O446 C462 1.249 . S
O447 Dy441 2.275 . S
O447 C463 1.254 . S
O448 Dy440 2.339 . S
O448 C463 1.257 . S
O449 Dy441 2.307 . S
O449 C464 1.266 . S
O450 Dy440 2.298 . S
O450 C464 1.236 . S
O451 Dy441 2.395 1_565 S
O451 C471 1.255 . S
O452 Dy441 2.379 1_565 S
O452 C471 1.249 . S
C453 O443 1.266 . S
C453 O444 1.236 . S
O454 Dy440 2.275 . S
O454 C442 1.254 . S
O455 Dy441 2.339 . S
O455 C442 1.257 . S
C456 C459 1.344 . S
C456 C460 1.328 . S
C456 C462 1.516 . S
C457 C458 1.304 . S
C457 C461 1.323 . S
C458 C457 1.304 . S
C458 C459 1.371 . S
C458 H472 0.930 . S
C459 C456 1.344 . S
C459 C458 1.371 . S
C459 H473 0.931 . S
C460 C456 1.328 . S
C460 C461 1.433 . S
C460 H474 0.931 . S
C461 C457 1.323 . S
C461 C460 1.433 . S
C461 H475 0.933 . S
C462 Dy440 2.738 . S
C462 O445 1.255 . S
C462 O446 1.249 . S
C462 C456 1.516 . S
C463 O447 1.254 . S
C463 O448 1.257 . S
C464 O449 1.266 . S
C464 O450 1.236 . S
C465 C468 1.344 . S
C465 C469 1.328 . S
C465 C471 1.516 . S
C466 C467 1.304 . S
C466 C470 1.323 . S
C467 C466 1.304 . S
C467 C468 1.371 . S
C467 H476 0.930 . S
C468 C465 1.344 . S
C468 C467 1.371 . S
C468 H477 0.931 . S
C469 C465 1.328 . S
C469 C470 1.433 . S
C469 H478 0.931 . S
C470 C466 1.323 . S
C470 C469 1.433 . S
C470 H479 0.933 . S
C471 Dy441 2.738 1_565 S
C471 O451 1.255 . S
C471 O452 1.249 . S
C471 C465 1.516 . S
H472 C458 0.930 . S
H473 C459 0.931 . S
H474 C460 0.931 . S
H475 C461 0.933 . S
H476 C467 0.930 . S
H477 C468 0.931 . S
H478 C469 0.931 . S
H479 C470 0.933 . S
Dy480 O483 2.307 . S
Dy480 O485 2.395 . S
Dy480 O486 2.379 . S
Dy480 O488 2.339 . S
Dy480 O490 2.298 . S
Dy480 O494 2.275 . S
Dy480 C502 2.738 . S
Dy481 O484 2.298 . S
Dy481 O487 2.275 . S
Dy481 O489 2.307 . S
Dy481 O491 2.395 1_655 S
Dy481 O492 2.379 1_655 S
Dy481 O495 2.339 . S
Dy481 C511 2.738 1_655 S
C482 O494 1.254 . S
C482 O495 1.257 . S
O483 Dy480 2.307 . S
O483 C493 1.266 . S
O484 Dy481 2.298 . S
O484 C493 1.236 . S
O485 Dy480 2.395 . S
O485 C502 1.255 . S
O486 Dy480 2.379 . S
O486 C502 1.249 . S
O487 Dy481 2.275 . S
O487 C503 1.254 . S
O488 Dy480 2.339 . S
O488 C503 1.257 . S
O489 Dy481 2.307 . S
O489 C504 1.266 . S
O490 Dy480 2.298 . S
O490 C504 1.236 . S
O491 Dy481 2.395 1_455 S
O491 C511 1.255 . S
O492 Dy481 2.379 1_455 S
O492 C511 1.249 . S
C493 O483 1.266 . S
C493 O484 1.236 . S
O494 Dy480 2.275 . S
O494 C482 1.254 . S
O495 Dy481 2.339 . S
O495 C482 1.257 . S
C496 C499 1.344 . S
C496 C500 1.328 . S
C496 C502 1.516 . S
C497 C498 1.304 . S
C497 C501 1.323 . S
C498 C497 1.304 . S
C498 C499 1.371 . S
C498 H512 0.930 . S
C499 C496 1.344 . S
C499 C498 1.371 . S
C499 H513 0.931 . S
C500 C496 1.328 . S
C500 C501 1.433 . S
C500 H514 0.931 . S
C501 C497 1.323 . S
C501 C500 1.433 . S
C501 H515 0.933 . S
C502 Dy480 2.738 . S
C502 O485 1.255 . S
C502 O486 1.249 . S
C502 C496 1.516 . S
C503 O487 1.254 . S
C503 O488 1.257 . S
C504 O489 1.266 . S
C504 O490 1.236 . S
C505 C508 1.344 . S
C505 C509 1.328 . S
C505 C511 1.516 . S
C506 C507 1.304 . S
C506 C510 1.323 . S
C507 C506 1.304 . S
C507 C508 1.371 . S
C507 H516 0.930 . S
C508 C505 1.344 . S
C508 C507 1.371 . S
C508 H517 0.931 . S
C509 C505 1.328 . S
C509 C510 1.433 . S
C509 H518 0.931 . S
C510 C506 1.323 . S
C510 C509 1.433 . S
C510 H519 0.933 . S
C511 Dy481 2.738 1_455 S
C511 O491 1.255 . S
C511 O492 1.249 . S
C511 C505 1.516 . S
H512 C498 0.930 . S
H513 C499 0.931 . S
H514 C500 0.931 . S
H515 C501 0.933 . S
H516 C507 0.930 . S
H517 C508 0.931 . S
H518 C509 0.931 . S
H519 C510 0.933 . S
Dy520 O523 2.307 . S
Dy520 O525 2.395 . S
Dy520 O526 2.379 . S
Dy520 O528 2.339 . S
Dy520 O530 2.298 . S
Dy520 O534 2.275 . S
Dy520 C542 2.738 . S
Dy521 O524 2.298 . S
Dy521 O527 2.275 . S
Dy521 O529 2.307 . S
Dy521 O531 2.395 1_565 S
Dy521 O532 2.379 1_565 S
Dy521 O535 2.339 . S
Dy521 C551 2.738 1_565 S
C522 O534 1.254 . S
C522 O535 1.257 . S
O523 Dy520 2.307 . S
O523 C533 1.266 . S
O524 Dy521 2.298 . S
O524 C533 1.236 . S
O525 Dy520 2.395 . S
O525 C542 1.255 . S
O526 Dy520 2.379 . S
O526 C542 1.249 . S
O527 Dy521 2.275 . S
O527 C543 1.254 . S
O528 Dy520 2.339 . S
O528 C543 1.257 . S
O529 Dy521 2.307 . S
O529 C544 1.266 . S
O530 Dy520 2.298 . S
O530 C544 1.236 . S
O531 Dy521 2.395 1_545 S
O531 C551 1.255 . S
O532 Dy521 2.379 1_545 S
O532 C551 1.249 . S
C533 O523 1.266 . S
C533 O524 1.236 . S
O534 Dy520 2.275 . S
O534 C522 1.254 . S
O535 Dy521 2.339 . S
O535 C522 1.257 . S
C536 C539 1.344 . S
C536 C540 1.328 . S
C536 C542 1.516 . S
C537 C538 1.304 . S
C537 C541 1.323 . S
C538 C537 1.304 . S
C538 C539 1.371 . S
C538 H552 0.930 . S
C539 C536 1.344 . S
C539 C538 1.371 . S
C539 H553 0.931 . S
C540 C536 1.328 . S
C540 C541 1.433 . S
C540 H554 0.931 . S
C541 C537 1.323 . S
C541 C540 1.433 . S
C541 H555 0.933 . S
C542 Dy520 2.738 . S
C542 O525 1.255 . S
C542 O526 1.249 . S
C542 C536 1.516 . S
C543 O527 1.254 . S
C543 O528 1.257 . S
C544 O529 1.266 . S
C544 O530 1.236 . S
C545 C548 1.344 . S
C545 C549 1.328 . S
C545 C551 1.516 . S
C546 C547 1.304 . S
C546 C550 1.323 . S
C547 C546 1.304 . S
C547 C548 1.371 . S
C547 H556 0.930 . S
C548 C545 1.344 . S
C548 C547 1.371 . S
C548 H557 0.931 . S
C549 C545 1.328 . S
C549 C550 1.433 . S
C549 H558 0.931 . S
C550 C546 1.323 . S
C550 C549 1.433 . S
C550 H559 0.933 . S
C551 Dy521 2.738 1_545 S
C551 O531 1.255 . S
C551 O532 1.249 . S
C551 C545 1.516 . S
H552 C538 0.930 . S
H553 C539 0.931 . S
H554 C540 0.931 . S
H555 C541 0.933 . S
H556 C547 0.930 . S
H557 C548 0.931 . S
H558 C549 0.931 . S
H559 C550 0.933 . S
Dy560 O563 2.307 . S
Dy560 O565 2.395 . S
Dy560 O566 2.379 . S
Dy560 O568 2.339 . S
Dy560 O570 2.298 . S
Dy560 O574 2.275 . S
Dy560 C582 2.738 . S
Dy561 O564 2.298 . S
Dy561 O567 2.275 . S
Dy561 O569 2.307 . S
Dy561 O571 2.395 . S
Dy561 O572 2.379 . S
Dy561 O575 2.339 . S
Dy561 C591 2.738 . S
C562 O574 1.254 . S
C562 O575 1.257 . S
O563 Dy560 2.307 . S
O563 C573 1.266 . S
O564 Dy561 2.298 . S
O564 C573 1.236 . S
O565 Dy560 2.395 . S
O565 C582 1.255 . S
O566 Dy560 2.379 . S
O566 C582 1.249 . S
O567 Dy561 2.275 . S
O567 C583 1.254 . S
O568 Dy560 2.339 . S
O568 C583 1.257 . S
O569 Dy561 2.307 . S
O569 C584 1.266 . S
O570 Dy560 2.298 . S
O570 C584 1.236 . S
O571 Dy561 2.395 . S
O571 C591 1.255 . S
O572 Dy561 2.379 . S
O572 C591 1.249 . S
C573 O563 1.266 . S
C573 O564 1.236 . S
O574 Dy560 2.275 . S
O574 C562 1.254 . S
O575 Dy561 2.339 . S
O575 C562 1.257 . S
C576 C579 1.344 . S
C576 C580 1.328 . S
C576 C582 1.516 . S
C577 C578 1.304 . S
C577 C581 1.323 . S
C578 C577 1.304 . S
C578 C579 1.371 . S
C578 H592 0.930 . S
C579 C576 1.344 . S
C579 C578 1.371 . S
C579 H593 0.931 . S
C580 C576 1.328 . S
C580 C581 1.433 . S
C580 H594 0.931 . S
C581 C577 1.323 . S
C581 C580 1.433 . S
C581 H595 0.933 . S
C582 Dy560 2.738 . S
C582 O565 1.255 . S
C582 O566 1.249 . S
C582 C576 1.516 . S
C583 O567 1.254 . S
C583 O568 1.257 . S
C584 O569 1.266 . S
C584 O570 1.236 . S
C585 C588 1.344 . S
C585 C589 1.328 . S
C585 C591 1.516 . S
C586 C587 1.304 . S
C586 C590 1.323 . S
C587 C586 1.304 . S
C587 C588 1.371 . S
C587 H596 0.930 . S
C588 C585 1.344 . S
C588 C587 1.371 . S
C588 H597 0.931 . S
C589 C585 1.328 . S
C589 C590 1.433 . S
C589 H598 0.931 . S
C590 C586 1.323 . S
C590 C589 1.433 . S
C590 H599 0.933 . S
C591 Dy561 2.738 . S
C591 O571 1.255 . S
C591 O572 1.249 . S
C591 C585 1.516 . S
H592 C578 0.930 . S
H593 C579 0.931 . S
H594 C580 0.931 . S
H595 C581 0.933 . S
H596 C587 0.930 . S
H597 C588 0.931 . S
H598 C589 0.931 . S
H599 C590 0.933 . S
Dy600 O603 2.307 . S
Dy600 O605 2.395 . S
Dy600 O606 2.379 . S
Dy600 O608 2.339 . S
Dy600 O610 2.298 . S
Dy600 O614 2.275 . S
Dy600 C622 2.738 . S
Dy601 O604 2.298 . S
Dy601 O607 2.275 . S
Dy601 O609 2.307 . S
Dy601 O611 2.395 . S
Dy601 O612 2.379 . S
Dy601 O615 2.339 . S
Dy601 C631 2.738 . S
C602 O614 1.254 . S
C602 O615 1.257 . S
O603 Dy600 2.307 . S
O603 C613 1.266 . S
O604 Dy601 2.298 . S
O604 C613 1.236 . S
O605 Dy600 2.395 . S
O605 C622 1.255 . S
O606 Dy600 2.379 . S
O606 C622 1.249 . S
O607 Dy601 2.275 . S
O607 C623 1.254 . S
O608 Dy600 2.339 . S
O608 C623 1.257 . S
O609 Dy601 2.307 . S
O609 C624 1.266 . S
O610 Dy600 2.298 . S
O610 C624 1.236 . S
O611 Dy601 2.395 . S
O611 C631 1.255 . S
O612 Dy601 2.379 . S
O612 C631 1.249 . S
C613 O603 1.266 . S
C613 O604 1.236 . S
O614 Dy600 2.275 . S
O614 C602 1.254 . S
O615 Dy601 2.339 . S
O615 C602 1.257 . S
C616 C619 1.344 . S
C616 C620 1.328 . S
C616 C622 1.516 . S
C617 C618 1.304 . S
C617 C621 1.323 . S
C618 C617 1.304 . S
C618 C619 1.371 . S
C618 H632 0.930 . S
C619 C616 1.344 . S
C619 C618 1.371 . S
C619 H633 0.931 . S
C620 C616 1.328 . S
C620 C621 1.433 . S
C620 H634 0.931 . S
C621 C617 1.323 . S
C621 C620 1.433 . S
C621 H635 0.933 . S
C622 Dy600 2.738 . S
C622 O605 1.255 . S
C622 O606 1.249 . S
C622 C616 1.516 . S
C623 O607 1.254 . S
C623 O608 1.257 . S
C624 O609 1.266 . S
C624 O610 1.236 . S
C625 C628 1.344 . S
C625 C629 1.328 . S
C625 C631 1.516 . S
C626 C627 1.304 . S
C626 C630 1.323 . S
C627 C626 1.304 . S
C627 C628 1.371 . S
C627 H636 0.930 . S
C628 C625 1.344 . S
C628 C627 1.371 . S
C628 H637 0.931 . S
C629 C625 1.328 . S
C629 C630 1.433 . S
C629 H638 0.931 . S
C630 C626 1.323 . S
C630 C629 1.433 . S
C630 H639 0.933 . S
C631 Dy601 2.738 . S
C631 O611 1.255 . S
C631 O612 1.249 . S
C631 C625 1.516 . S
H632 C618 0.930 . S
H633 C619 0.931 . S
H634 C620 0.931 . S
H635 C621 0.933 . S
H636 C627 0.930 . S
H637 C628 0.931 . S
H638 C629 0.931 . S
H639 C630 0.933 . S
H640 C648 0.929 . S
H641 C650 0.930 . S
H642 C652 0.930 . S
H643 C655 0.929 . S
H644 C658 0.930 . S
H645 C660 0.960 . S
H646 C660 0.960 . S
H647 C660 0.960 . S
C648 H640 0.929 . S
C648 C649 1.377 . S
C648 C650 1.384 . S
C649 C648 1.377 . S
C649 C655 1.390 . S
C650 H641 0.930 . S
C650 C648 1.384 . S
C650 C651 1.372 . S
C651 C650 1.372 . S
C651 C652 1.400 . S
C651 C656 1.490 . S
C652 H642 0.930 . S
C652 C651 1.400 . S
C652 C655 1.386 . S
H653 C669 0.930 . S
H654 C670 0.931 . S
C655 H643 0.929 . S
C655 C649 1.390 . S
C655 C652 1.386 . S
C656 C651 1.490 . S
C656 C658 1.395 . S
C656 C659 1.403 . S
H657 C663 0.930 . S
C658 H644 0.930 . S
C658 C656 1.395 . S
C658 C661 1.403 . S
C659 C656 1.403 . S
C659 C660 1.524 . S
C659 C663 1.400 . S
C660 H645 0.960 . S
C660 H646 0.960 . S
C660 H647 0.960 . S
C660 C659 1.524 . S
C661 C658 1.403 . S
C661 C662 1.392 . S
C661 C665 1.495 . S
C662 C661 1.392 . S
C662 C663 1.385 . S
C662 C664 1.478 . S
C663 H657 0.930 . S
C663 C659 1.400 . S
C663 C662 1.385 . S
C664 C662 1.478 . S
C664 C666 1.381 . S
C664 C670 1.383 . S
C665 C661 1.495 . S
C665 H671 0.959 . S
C665 H672 0.961 . S
C665 H673 0.960 . S
C666 C664 1.381 . S
C666 C667 1.394 . S
C666 H674 0.930 . S
C667 C666 1.394 . S
C667 C668 1.383 . S
C667 H675 0.929 . S
C668 C667 1.383 . S
C668 C669 1.377 . S
C669 H653 0.930 . S
C669 C668 1.377 . S
C669 C670 1.379 . S
C670 H654 0.931 . S
C670 C664 1.383 . S
C670 C669 1.379 . S
H671 C665 0.959 . S
H672 C665 0.961 . S
H673 C665 0.960 . S
H674 C666 0.930 . S
H675 C667 0.929 . S
H676 C684 0.929 . S
H677 C686 0.930 . S
H678 C688 0.930 . S
H679 C691 0.929 . S
H680 C694 0.930 . S
H681 C696 0.960 . S
H682 C696 0.960 . S
H683 C696 0.960 . S
C684 H676 0.929 . S
C684 C685 1.377 . S
C684 C686 1.384 . S
C685 C684 1.377 . S
C685 C691 1.390 . S
C686 H677 0.930 . S
C686 C684 1.384 . S
C686 C687 1.372 . S
C687 C686 1.372 . S
C687 C688 1.400 . S
C687 C692 1.490 . S
C688 H678 0.930 . S
C688 C687 1.400 . S
C688 C691 1.386 . S
H689 C705 0.930 . S
H690 C706 0.931 . S
C691 H679 0.929 . S
C691 C685 1.390 . S
C691 C688 1.386 . S
C692 C687 1.490 . S
C692 C694 1.395 . S
C692 C695 1.403 . S
H693 C699 0.930 . S
C694 H680 0.930 . S
C694 C692 1.395 . S
C694 C697 1.403 . S
C695 C692 1.403 . S
C695 C696 1.524 . S
C695 C699 1.400 . S
C696 H681 0.960 . S
C696 H682 0.960 . S
C696 H683 0.960 . S
C696 C695 1.524 . S
C697 C694 1.403 . S
C697 C698 1.392 . S
C697 C701 1.495 . S
C698 C697 1.392 . S
C698 C699 1.385 . S
C698 C700 1.478 . S
C699 H693 0.930 . S
C699 C695 1.400 . S
C699 C698 1.385 . S
C700 C698 1.478 . S
C700 C702 1.381 . S
C700 C706 1.383 . S
C701 C697 1.495 . S
C701 H707 0.959 . S
C701 H708 0.961 . S
C701 H709 0.960 . S
C702 C700 1.381 . S
C702 C703 1.394 . S
C702 H710 0.930 . S
C703 C702 1.394 . S
C703 C704 1.383 . S
C703 H711 0.929 . S
C704 C703 1.383 . S
C704 C705 1.377 . S
C705 H689 0.930 . S
C705 C704 1.377 . S
C705 C706 1.379 . S
C706 H690 0.931 . S
C706 C700 1.383 . S
C706 C705 1.379 . S
H707 C701 0.959 . S
H708 C701 0.961 . S
H709 C701 0.960 . S
H710 C702 0.930 . S
H711 C703 0.929 . S
H712 C720 0.929 . S
H713 C722 0.930 . S
H714 C724 0.930 . S
H715 C727 0.929 . S
H716 C730 0.930 . S
H717 C732 0.960 . S
H718 C732 0.960 . S
H719 C732 0.960 . S
C720 H712 0.929 . S
C720 C721 1.377 . S
C720 C722 1.384 . S
C721 C720 1.377 . S
C721 C727 1.390 . S
C722 H713 0.930 . S
C722 C720 1.384 . S
C722 C723 1.372 . S
C723 C722 1.372 . S
C723 C724 1.400 . S
C723 C728 1.490 . S
C724 H714 0.930 . S
C724 C723 1.400 . S
C724 C727 1.386 . S
H725 C741 0.930 . S
H726 C742 0.931 . S
C727 H715 0.929 . S
C727 C721 1.390 . S
C727 C724 1.386 . S
C728 C723 1.490 . S
C728 C730 1.395 . S
C728 C731 1.403 . S
H729 C735 0.930 . S
C730 H716 0.930 . S
C730 C728 1.395 . S
C730 C733 1.403 . S
C731 C728 1.403 . S
C731 C732 1.524 . S
C731 C735 1.400 . S
C732 H717 0.960 . S
C732 H718 0.960 . S
C732 H719 0.960 . S
C732 C731 1.524 . S
C733 C730 1.403 . S
C733 C734 1.392 . S
C733 C737 1.495 . S
C734 C733 1.392 . S
C734 C735 1.385 . S
C734 C736 1.478 . S
C735 H729 0.930 . S
C735 C731 1.400 . S
C735 C734 1.385 . S
C736 C734 1.478 . S
C736 C738 1.381 . S
C736 C742 1.383 . S
C737 C733 1.495 . S
C737 H743 0.959 . S
C737 H744 0.961 . S
C737 H745 0.960 . S
C738 C736 1.381 . S
C738 C739 1.394 . S
C738 H746 0.930 . S
C739 C738 1.394 . S
C739 C740 1.383 . S
C739 H747 0.929 . S
C740 C739 1.383 . S
C740 C741 1.377 . S
C741 H725 0.930 . S
C741 C740 1.377 . S
C741 C742 1.379 . S
C742 H726 0.931 . S
C742 C736 1.383 . S
C742 C741 1.379 . S
H743 C737 0.959 . S
H744 C737 0.961 . S
H745 C737 0.960 . S
H746 C738 0.930 . S
H747 C739 0.929 . S
H748 C756 0.929 . S
H749 C758 0.930 . S
H750 C760 0.930 . S
H751 C763 0.929 . S
H752 C766 0.930 . S
H753 C768 0.960 . S
H754 C768 0.960 . S
H755 C768 0.960 . S
C756 H748 0.929 . S
C756 C757 1.377 . S
C756 C758 1.384 . S
C757 C756 1.377 . S
C757 C763 1.390 . S
C758 H749 0.930 . S
C758 C756 1.384 . S
C758 C759 1.372 . S
C759 C758 1.372 . S
C759 C760 1.400 . S
C759 C764 1.490 . S
C760 H750 0.930 . S
C760 C759 1.400 . S
C760 C763 1.386 . S
H761 C777 0.930 . S
H762 C778 0.931 . S
C763 H751 0.929 . S
C763 C757 1.390 . S
C763 C760 1.386 . S
C764 C759 1.490 . S
C764 C766 1.395 . S
C764 C767 1.403 . S
H765 C771 0.930 . S
C766 H752 0.930 . S
C766 C764 1.395 . S
C766 C769 1.403 . S
C767 C764 1.403 . S
C767 C768 1.524 . S
C767 C771 1.400 . S
C768 H753 0.960 . S
C768 H754 0.960 . S
C768 H755 0.960 . S
C768 C767 1.524 . S
C769 C766 1.403 . S
C769 C770 1.392 . S
C769 C773 1.495 . S
C770 C769 1.392 . S
C770 C771 1.385 . S
C770 C772 1.478 . S
C771 H765 0.930 . S
C771 C767 1.400 . S
C771 C770 1.385 . S
C772 C770 1.478 . S
C772 C774 1.381 . S
C772 C778 1.383 . S
C773 C769 1.495 . S
C773 H779 0.959 . S
C773 H780 0.961 . S
C773 H781 0.960 . S
C774 C772 1.381 . S
C774 C775 1.394 . S
C774 H782 0.930 . S
C775 C774 1.394 . S
C775 C776 1.383 . S
C775 H783 0.929 . S
C776 C775 1.383 . S
C776 C777 1.377 . S
C777 H761 0.930 . S
C777 C776 1.377 . S
C777 C778 1.379 . S
C778 H762 0.931 . S
C778 C772 1.383 . S
C778 C777 1.379 . S
H779 C773 0.959 . S
H780 C773 0.961 . S
H781 C773 0.960 . S
H782 C774 0.930 . S
H783 C775 0.929 . S
H784 C792 0.929 . S
H785 C794 0.930 . S
H786 C796 0.930 . S
H787 C799 0.929 . S
H788 C802 0.930 . S
H789 C804 0.960 . S
H790 C804 0.960 . S
H791 C804 0.960 . S
C792 H784 0.929 . S
C792 C793 1.377 . S
C792 C794 1.384 . S
C793 C792 1.377 . S
C793 C799 1.390 . S
C794 H785 0.930 . S
C794 C792 1.384 . S
C794 C795 1.372 . S
C795 C794 1.372 . S
C795 C796 1.400 . S
C795 C800 1.490 . S
C796 H786 0.930 . S
C796 C795 1.400 . S
C796 C799 1.386 . S
H797 C813 0.930 . S
H798 C814 0.931 . S
C799 H787 0.929 . S
C799 C793 1.390 . S
C799 C796 1.386 . S
C800 C795 1.490 . S
C800 C802 1.395 . S
C800 C803 1.403 . S
H801 C807 0.930 . S
C802 H788 0.930 . S
C802 C800 1.395 . S
C802 C805 1.403 . S
C803 C800 1.403 . S
C803 C804 1.524 . S
C803 C807 1.400 . S
C804 H789 0.960 . S
C804 H790 0.960 . S
C804 H791 0.960 . S
C804 C803 1.524 . S
C805 C802 1.403 . S
C805 C806 1.392 . S
C805 C809 1.495 . S
C806 C805 1.392 . S
C806 C807 1.385 . S
C806 C808 1.478 . S
C807 H801 0.930 . S
C807 C803 1.400 . S
C807 C806 1.385 . S
C808 C806 1.478 . S
C808 C810 1.381 . S
C808 C814 1.383 . S
C809 C805 1.495 . S
C809 H815 0.959 . S
C809 H816 0.961 . S
C809 H817 0.960 . S
C810 C808 1.381 . S
C810 C811 1.394 . S
C810 H818 0.930 . S
C811 C810 1.394 . S
C811 C812 1.383 . S
C811 H819 0.929 . S
C812 C811 1.383 . S
C812 C813 1.377 . S
C813 H797 0.930 . S
C813 C812 1.377 . S
C813 C814 1.379 . S
C814 H798 0.931 . S
C814 C808 1.383 . S
C814 C813 1.379 . S
H815 C809 0.959 . S
H816 C809 0.961 . S
H817 C809 0.960 . S
H818 C810 0.930 . S
H819 C811 0.929 . S
H820 C828 0.929 . S
H821 C830 0.930 . S
H822 C832 0.930 . S
H823 C835 0.929 . S
H824 C838 0.930 . S
H825 C840 0.960 . S
H826 C840 0.960 . S
H827 C840 0.960 . S
C828 H820 0.929 . S
C828 C829 1.377 . S
C828 C830 1.384 . S
C829 C828 1.377 . S
C829 C835 1.390 . S
C830 H821 0.930 . S
C830 C828 1.384 . S
C830 C831 1.372 . S
C831 C830 1.372 . S
C831 C832 1.400 . S
C831 C836 1.490 . S
C832 H822 0.930 . S
C832 C831 1.400 . S
C832 C835 1.386 . S
H833 C849 0.930 . S
H834 C850 0.931 . S
C835 H823 0.929 . S
C835 C829 1.390 . S
C835 C832 1.386 . S
C836 C831 1.490 . S
C836 C838 1.395 . S
C836 C839 1.403 . S
H837 C843 0.930 . S
C838 H824 0.930 . S
C838 C836 1.395 . S
C838 C841 1.403 . S
C839 C836 1.403 . S
C839 C840 1.524 . S
C839 C843 1.400 . S
C840 H825 0.960 . S
C840 H826 0.960 . S
C840 H827 0.960 . S
C840 C839 1.524 . S
C841 C838 1.403 . S
C841 C842 1.392 . S
C841 C845 1.495 . S
C842 C841 1.392 . S
C842 C843 1.385 . S
C842 C844 1.478 . S
C843 H837 0.930 . S
C843 C839 1.400 . S
C843 C842 1.385 . S
C844 C842 1.478 . S
C844 C846 1.381 . S
C844 C850 1.383 . S
C845 C841 1.495 . S
C845 H851 0.959 . S
C845 H852 0.961 . S
C845 H853 0.960 . S
C846 C844 1.381 . S
C846 C847 1.394 . S
C846 H854 0.930 . S
C847 C846 1.394 . S
C847 C848 1.383 . S
C847 H855 0.929 . S
C848 C847 1.383 . S
C848 C849 1.377 . S
C849 H833 0.930 . S
C849 C848 1.377 . S
C849 C850 1.379 . S
C850 H834 0.931 . S
C850 C844 1.383 . S
C850 C849 1.379 . S
H851 C845 0.959 . S
H852 C845 0.961 . S
H853 C845 0.960 . S
H854 C846 0.930 . S
H855 C847 0.929 . S
H856 C864 0.929 . S
H857 C866 0.930 . S
H858 C868 0.930 . S
H859 C871 0.929 . S
H860 C874 0.930 . S
H861 C876 0.960 . S
H862 C876 0.960 . S
H863 C876 0.960 . S
C864 H856 0.929 . S
C864 C865 1.377 . S
C864 C866 1.384 . S
C865 C864 1.377 . S
C865 C871 1.390 . S
C866 H857 0.930 . S
C866 C864 1.384 . S
C866 C867 1.372 . S
C867 C866 1.372 . S
C867 C868 1.400 . S
C867 C872 1.490 . S
C868 H858 0.930 . S
C868 C867 1.400 . S
C868 C871 1.386 . S
H869 C885 0.930 . S
H870 C886 0.931 . S
C871 H859 0.929 . S
C871 C865 1.390 . S
C871 C868 1.386 . S
C872 C867 1.490 . S
C872 C874 1.395 . S
C872 C875 1.403 . S
H873 C879 0.930 . S
C874 H860 0.930 . S
C874 C872 1.395 . S
C874 C877 1.403 . S
C875 C872 1.403 . S
C875 C876 1.524 . S
C875 C879 1.400 . S
C876 H861 0.960 . S
C876 H862 0.960 . S
C876 H863 0.960 . S
C876 C875 1.524 . S
C877 C874 1.403 . S
C877 C878 1.392 . S
C877 C881 1.495 . S
C878 C877 1.392 . S
C878 C879 1.385 . S
C878 C880 1.478 . S
C879 H873 0.930 . S
C879 C875 1.400 . S
C879 C878 1.385 . S
C880 C878 1.478 . S
C880 C882 1.381 . S
C880 C886 1.383 . S
C881 C877 1.495 . S
C881 H887 0.959 . S
C881 H888 0.961 . S
C881 H889 0.960 . S
C882 C880 1.381 . S
C882 C883 1.394 . S
C882 H890 0.930 . S
C883 C882 1.394 . S
C883 C884 1.383 . S
C883 H891 0.929 . S
C884 C883 1.383 . S
C884 C885 1.377 . S
C885 H869 0.930 . S
C885 C884 1.377 . S
C885 C886 1.379 . S
C886 H870 0.931 . S
C886 C880 1.383 . S
C886 C885 1.379 . S
H887 C881 0.959 . S
H888 C881 0.961 . S
H889 C881 0.960 . S
H890 C882 0.930 . S
H891 C883 0.929 . S
H892 C900 0.929 . S
H893 C902 0.930 . S
H894 C904 0.930 . S
H895 C907 0.929 . S
H896 C910 0.930 . S
H897 C912 0.960 . S
H898 C912 0.960 . S
H899 C912 0.960 . S
C900 H892 0.929 . S
C900 C901 1.377 . S
C900 C902 1.384 . S
C901 C900 1.377 . S
C901 C907 1.390 . S
C902 H893 0.930 . S
C902 C900 1.384 . S
C902 C903 1.372 . S
C903 C902 1.372 . S
C903 C904 1.400 . S
C903 C908 1.490 . S
C904 H894 0.930 . S
C904 C903 1.400 . S
C904 C907 1.386 . S
H905 C921 0.930 . S
H906 C922 0.931 . S
C907 H895 0.929 . S
C907 C901 1.390 . S
C907 C904 1.386 . S
C908 C903 1.490 . S
C908 C910 1.395 . S
C908 C911 1.403 . S
H909 C915 0.930 . S
C910 H896 0.930 . S
C910 C908 1.395 . S
C910 C913 1.403 . S
C911 C908 1.403 . S
C911 C912 1.524 . S
C911 C915 1.400 . S
C912 H897 0.960 . S
C912 H898 0.960 . S
C912 H899 0.960 . S
C912 C911 1.524 . S
C913 C910 1.403 . S
C913 C914 1.392 . S
C913 C917 1.495 . S
C914 C913 1.392 . S
C914 C915 1.385 . S
C914 C916 1.478 . S
C915 H909 0.930 . S
C915 C911 1.400 . S
C915 C914 1.385 . S
C916 C914 1.478 . S
C916 C918 1.381 . S
C916 C922 1.383 . S
C917 C913 1.495 . S
C917 H923 0.959 . S
C917 H924 0.961 . S
C917 H925 0.960 . S
C918 C916 1.381 . S
C918 C919 1.394 . S
C918 H926 0.930 . S
C919 C918 1.394 . S
C919 C920 1.383 . S
C919 H927 0.929 . S
C920 C919 1.383 . S
C920 C921 1.377 . S
C921 H905 0.930 . S
C921 C920 1.377 . S
C921 C922 1.379 . S
C922 H906 0.931 . S
C922 C916 1.383 . S
C922 C921 1.379 . S
H923 C917 0.959 . S
H924 C917 0.961 . S
H925 C917 0.960 . S
H926 C918 0.930 . S
H927 C919 0.929 . S
H928 C936 0.929 . S
H929 C938 0.930 . S
H930 C940 0.930 . S
H931 C943 0.929 . S
H932 C946 0.930 . S
H933 C948 0.960 . S
H934 C948 0.960 . S
H935 C948 0.960 . S
C936 H928 0.929 . S
C936 C937 1.377 . S
C936 C938 1.384 . S
C937 C936 1.377 . S
C937 C943 1.390 . S
C938 H929 0.930 . S
C938 C936 1.384 . S
C938 C939 1.372 . S
C939 C938 1.372 . S
C939 C940 1.400 . S
C939 C944 1.490 . S
C940 H930 0.930 . S
C940 C939 1.400 . S
C940 C943 1.386 . S
H941 C957 0.930 . S
H942 C958 0.931 . S
C943 H931 0.929 . S
C943 C937 1.390 . S
C943 C940 1.386 . S
C944 C939 1.490 . S
C944 C946 1.395 . S
C944 C947 1.403 . S
H945 C951 0.930 . S
C946 H932 0.930 . S
C946 C944 1.395 . S
C946 C949 1.403 . S
C947 C944 1.403 . S
C947 C948 1.524 . S
C947 C951 1.400 . S
C948 H933 0.960 . S
C948 H934 0.960 . S
C948 H935 0.960 . S
C948 C947 1.524 . S
C949 C946 1.403 . S
C949 C950 1.392 . S
C949 C953 1.495 . S
C950 C949 1.392 . S
C950 C951 1.385 . S
C950 C952 1.478 . S
C951 H945 0.930 . S
C951 C947 1.400 . S
C951 C950 1.385 . S
C952 C950 1.478 . S
C952 C954 1.381 . S
C952 C958 1.383 . S
C953 C949 1.495 . S
C953 H959 0.959 . S
C953 H960 0.961 . S
C953 H961 0.960 . S
C954 C952 1.381 . S
C954 C955 1.394 . S
C954 H962 0.930 . S
C955 C954 1.394 . S
C955 C956 1.383 . S
C955 H963 0.929 . S
C956 C955 1.383 . S
C956 C957 1.377 . S
C957 H941 0.930 . S
C957 C956 1.377 . S
C957 C958 1.379 . S
C958 H942 0.931 . S
C958 C952 1.383 . S
C958 C957 1.379 . S
H959 C953 0.959 . S
H960 C953 0.961 . S
H961 C953 0.960 . S
H962 C954 0.930 . S
H963 C955 0.929 . S
H964 C972 0.929 . S
H965 C974 0.930 . S
H966 C976 0.930 . S
H967 C979 0.929 . S
H968 C982 0.930 . S
H969 C984 0.960 . S
H970 C984 0.960 . S
H971 C984 0.960 . S
C972 H964 0.929 . S
C972 C973 1.377 . S
C972 C974 1.384 . S
C973 C972 1.377 . S
C973 C979 1.390 . S
C974 H965 0.930 . S
C974 C972 1.384 . S
C974 C975 1.372 . S
C975 C974 1.372 . S
C975 C976 1.400 . S
C975 C980 1.490 . S
C976 H966 0.930 . S
C976 C975 1.400 . S
C976 C979 1.386 . S
H977 C993 0.930 . S
H978 C994 0.931 . S
C979 H967 0.929 . S
C979 C973 1.390 . S
C979 C976 1.386 . S
C980 C975 1.490 . S
C980 C982 1.395 . S
C980 C983 1.403 . S
H981 C987 0.930 . S
C982 H968 0.930 . S
C982 C980 1.395 . S
C982 C985 1.403 . S
C983 C980 1.403 . S
C983 C984 1.524 . S
C983 C987 1.400 . S
C984 H969 0.960 . S
C984 H970 0.960 . S
C984 H971 0.960 . S
C984 C983 1.524 . S
C985 C982 1.403 . S
C985 C986 1.392 . S
C985 C989 1.495 . S
C986 C985 1.392 . S
C986 C987 1.385 . S
C986 C988 1.478 . S
C987 H981 0.930 . S
C987 C983 1.400 . S
C987 C986 1.385 . S
C988 C986 1.478 . S
C988 C990 1.381 . S
C988 C994 1.383 . S
C989 C985 1.495 . S
C989 H995 0.959 . S
C989 H996 0.961 . S
C989 H997 0.960 . S
C990 C988 1.381 . S
C990 C991 1.394 . S
C990 H998 0.930 . S
C991 C990 1.394 . S
C991 C992 1.383 . S
C991 H999 0.929 . S
C992 C991 1.383 . S
C992 C993 1.377 . S
C993 H977 0.930 . S
C993 C992 1.377 . S
C993 C994 1.379 . S
C994 H978 0.931 . S
C994 C988 1.383 . S
C994 C993 1.379 . S
H995 C989 0.959 . S
H996 C989 0.961 . S
H997 C989 0.960 . S
H998 C990 0.930 . S
H999 C991 0.929 . S
H1000 C1008 0.929 . S
H1001 C1010 0.930 . S
H1002 C1012 0.930 . S
H1003 C1015 0.929 . S
H1004 C1018 0.930 . S
H1005 C1020 0.960 . S
H1006 C1020 0.960 . S
H1007 C1020 0.960 . S
C1008 H1000 0.929 . S
C1008 C1009 1.377 . S
C1008 C1010 1.384 . S
C1009 C1008 1.377 . S
C1009 C1015 1.390 . S
C1010 H1001 0.930 . S
C1010 C1008 1.384 . S
C1010 C1011 1.372 . S
C1011 C1010 1.372 . S
C1011 C1012 1.400 . S
C1011 C1016 1.490 . S
C1012 H1002 0.930 . S
C1012 C1011 1.400 . S
C1012 C1015 1.386 . S
H1013 C1029 0.930 . S
H1014 C1030 0.931 . S
C1015 H1003 0.929 . S
C1015 C1009 1.390 . S
C1015 C1012 1.386 . S
C1016 C1011 1.490 . S
C1016 C1018 1.395 . S
C1016 C1019 1.403 . S
H1017 C1023 0.930 . S
C1018 H1004 0.930 . S
C1018 C1016 1.395 . S
C1018 C1021 1.403 . S
C1019 C1016 1.403 . S
C1019 C1020 1.524 . S
C1019 C1023 1.400 . S
C1020 H1005 0.960 . S
C1020 H1006 0.960 . S
C1020 H1007 0.960 . S
C1020 C1019 1.524 . S
C1021 C1018 1.403 . S
C1021 C1022 1.392 . S
C1021 C1025 1.495 . S
C1022 C1021 1.392 . S
C1022 C1023 1.385 . S
C1022 C1024 1.478 . S
C1023 H1017 0.930 . S
C1023 C1019 1.400 . S
C1023 C1022 1.385 . S
C1024 C1022 1.478 . S
C1024 C1026 1.381 . S
C1024 C1030 1.383 . S
C1025 C1021 1.495 . S
C1025 H1031 0.959 . S
C1025 H1032 0.961 . S
C1025 H1033 0.960 . S
C1026 C1024 1.381 . S
C1026 C1027 1.394 . S
C1026 H1034 0.930 . S
C1027 C1026 1.394 . S
C1027 C1028 1.383 . S
C1027 H1035 0.929 . S
C1028 C1027 1.383 . S
C1028 C1029 1.377 . S
C1029 H1013 0.930 . S
C1029 C1028 1.377 . S
C1029 C1030 1.379 . S
C1030 H1014 0.931 . S
C1030 C1024 1.383 . S
C1030 C1029 1.379 . S
H1031 C1025 0.959 . S
H1032 C1025 0.961 . S
H1033 C1025 0.960 . S
H1034 C1026 0.930 . S
H1035 C1027 0.929 . S
H1036 C1044 0.929 . S
H1037 C1046 0.930 . S
H1038 C1048 0.930 . S
H1039 C1051 0.929 . S
H1040 C1054 0.930 . S
H1041 C1056 0.960 . S
H1042 C1056 0.960 . S
H1043 C1056 0.960 . S
C1044 H1036 0.929 . S
C1044 C1045 1.377 . S
C1044 C1046 1.384 . S
C1045 C1044 1.377 . S
C1045 C1051 1.390 . S
C1046 H1037 0.930 . S
C1046 C1044 1.384 . S
C1046 C1047 1.372 . S
C1047 C1046 1.372 . S
C1047 C1048 1.400 . S
C1047 C1052 1.490 . S
C1048 H1038 0.930 . S
C1048 C1047 1.400 . S
C1048 C1051 1.386 . S
H1049 C1065 0.930 . S
H1050 C1066 0.931 . S
C1051 H1039 0.929 . S
C1051 C1045 1.390 . S
C1051 C1048 1.386 . S
C1052 C1047 1.490 . S
C1052 C1054 1.395 . S
C1052 C1055 1.403 . S
H1053 C1059 0.930 . S
C1054 H1040 0.930 . S
C1054 C1052 1.395 . S
C1054 C1057 1.403 . S
C1055 C1052 1.403 . S
C1055 C1056 1.524 . S
C1055 C1059 1.400 . S
C1056 H1041 0.960 . S
C1056 H1042 0.960 . S
C1056 H1043 0.960 . S
C1056 C1055 1.524 . S
C1057 C1054 1.403 . S
C1057 C1058 1.392 . S
C1057 C1061 1.495 . S
C1058 C1057 1.392 . S
C1058 C1059 1.385 . S
C1058 C1060 1.478 . S
C1059 H1053 0.930 . S
C1059 C1055 1.400 . S
C1059 C1058 1.385 . S
C1060 C1058 1.478 . S
C1060 C1062 1.381 . S
C1060 C1066 1.383 . S
C1061 C1057 1.495 . S
C1061 H1067 0.959 . S
C1061 H1068 0.961 . S
C1061 H1069 0.960 . S
C1062 C1060 1.381 . S
C1062 C1063 1.394 . S
C1062 H1070 0.930 . S
C1063 C1062 1.394 . S
C1063 C1064 1.383 . S
C1063 H1071 0.929 . S
C1064 C1063 1.383 . S
C1064 C1065 1.377 . S
C1065 H1049 0.930 . S
C1065 C1064 1.377 . S
C1065 C1066 1.379 . S
C1066 H1050 0.931 . S
C1066 C1060 1.383 . S
C1066 C1065 1.379 . S
H1067 C1061 0.959 . S
H1068 C1061 0.961 . S
H1069 C1061 0.960 . S
H1070 C1062 0.930 . S
H1071 C1063 0.929 . S
H1072 C1080 0.929 . S
H1073 C1082 0.930 . S
H1074 C1084 0.930 . S
H1075 C1087 0.929 . S
H1076 C1090 0.930 . S
H1077 C1092 0.960 . S
H1078 C1092 0.960 . S
H1079 C1092 0.960 . S
C1080 H1072 0.929 . S
C1080 C1081 1.377 . S
C1080 C1082 1.384 . S
C1081 C1080 1.377 . S
C1081 C1087 1.390 . S
C1082 H1073 0.930 . S
C1082 C1080 1.384 . S
C1082 C1083 1.372 . S
C1083 C1082 1.372 . S
C1083 C1084 1.400 . S
C1083 C1088 1.490 . S
C1084 H1074 0.930 . S
C1084 C1083 1.400 . S
C1084 C1087 1.386 . S
H1085 C1101 0.930 . S
H1086 C1102 0.931 . S
C1087 H1075 0.929 . S
C1087 C1081 1.390 . S
C1087 C1084 1.386 . S
C1088 C1083 1.490 . S
C1088 C1090 1.395 . S
C1088 C1091 1.403 . S
H1089 C1095 0.930 . S
C1090 H1076 0.930 . S
C1090 C1088 1.395 . S
C1090 C1093 1.403 . S
C1091 C1088 1.403 . S
C1091 C1092 1.524 . S
C1091 C1095 1.400 . S
C1092 H1077 0.960 . S
C1092 H1078 0.960 . S
C1092 H1079 0.960 . S
C1092 C1091 1.524 . S
C1093 C1090 1.403 . S
C1093 C1094 1.392 . S
C1093 C1097 1.495 . S
C1094 C1093 1.392 . S
C1094 C1095 1.385 . S
C1094 C1096 1.478 . S
C1095 H1089 0.930 . S
C1095 C1091 1.400 . S
C1095 C1094 1.385 . S
C1096 C1094 1.478 . S
C1096 C1098 1.381 . S
C1096 C1102 1.383 . S
C1097 C1093 1.495 . S
C1097 H1103 0.959 . S
C1097 H1104 0.961 . S
C1097 H1105 0.960 . S
C1098 C1096 1.381 . S
C1098 C1099 1.394 . S
C1098 H1106 0.930 . S
C1099 C1098 1.394 . S
C1099 C1100 1.383 . S
C1099 H1107 0.929 1_565 S
C1100 C1099 1.383 . S
C1100 C1101 1.377 . S
C1101 H1085 0.930 . S
C1101 C1100 1.377 . S
C1101 C1102 1.379 . S
C1102 H1086 0.931 . S
C1102 C1096 1.383 . S
C1102 C1101 1.379 . S
H1103 C1097 0.959 . S
H1104 C1097 0.961 . S
H1105 C1097 0.960 . S
H1106 C1098 0.930 . S
H1107 C1099 0.929 1_545 S
H1108 C1116 0.929 . S
H1109 C1118 0.930 . S
H1110 C1120 0.930 . S
H1111 C1123 0.929 . S
H1112 C1126 0.930 . S
H1113 C1128 0.960 . S
H1114 C1128 0.960 . S
H1115 C1128 0.960 . S
C1116 H1108 0.929 . S
C1116 C1117 1.377 . S
C1116 C1118 1.384 . S
C1117 C1116 1.377 . S
C1117 C1123 1.390 . S
C1118 H1109 0.930 . S
C1118 C1116 1.384 . S
C1118 C1119 1.372 . S
C1119 C1118 1.372 . S
C1119 C1120 1.400 . S
C1119 C1124 1.490 . S
C1120 H1110 0.930 . S
C1120 C1119 1.400 . S
C1120 C1123 1.386 . S
H1121 C1137 0.930 . S
H1122 C1138 0.931 . S
C1123 H1111 0.929 . S
C1123 C1117 1.390 . S
C1123 C1120 1.386 . S
C1124 C1119 1.490 . S
C1124 C1126 1.395 . S
C1124 C1127 1.403 . S
H1125 C1131 0.930 . S
C1126 H1112 0.930 . S
C1126 C1124 1.395 . S
C1126 C1129 1.403 . S
C1127 C1124 1.403 . S
C1127 C1128 1.524 . S
C1127 C1131 1.400 . S
C1128 H1113 0.960 . S
C1128 H1114 0.960 . S
C1128 H1115 0.960 . S
C1128 C1127 1.524 . S
C1129 C1126 1.403 . S
C1129 C1130 1.392 . S
C1129 C1133 1.495 . S
C1130 C1129 1.392 . S
C1130 C1131 1.385 . S
C1130 C1132 1.478 . S
C1131 H1125 0.930 . S
C1131 C1127 1.400 . S
C1131 C1130 1.385 . S
C1132 C1130 1.478 . S
C1132 C1134 1.381 . S
C1132 C1138 1.383 . S
C1133 C1129 1.495 . S
C1133 H1139 0.959 . S
C1133 H1140 0.961 . S
C1133 H1141 0.960 . S
C1134 C1132 1.381 . S
C1134 C1135 1.394 . S
C1134 H1142 0.930 . S
C1135 C1134 1.394 . S
C1135 C1136 1.383 . S
C1135 H1143 0.929 . S
C1136 C1135 1.383 . S
C1136 C1137 1.377 . S
C1137 H1121 0.930 . S
C1137 C1136 1.377 . S
C1137 C1138 1.379 . S
C1138 H1122 0.931 . S
C1138 C1132 1.383 . S
C1138 C1137 1.379 . S
H1139 C1133 0.959 . S
H1140 C1133 0.961 . S
H1141 C1133 0.960 . S
H1142 C1134 0.930 . S
H1143 C1135 0.929 . S
H1144 C1152 0.929 . S
H1145 C1154 0.930 . S
H1146 C1156 0.930 . S
H1147 C1159 0.929 . S
H1148 C1162 0.930 . S
H1149 C1164 0.960 . S
H1150 C1164 0.960 . S
H1151 C1164 0.960 . S
C1152 H1144 0.929 . S
C1152 C1153 1.377 . S
C1152 C1154 1.384 . S
C1153 C1152 1.377 . S
C1153 C1159 1.390 . S
C1154 H1145 0.930 . S
C1154 C1152 1.384 . S
C1154 C1155 1.372 . S
C1155 C1154 1.372 . S
C1155 C1156 1.400 . S
C1155 C1160 1.490 . S
C1156 H1146 0.930 . S
C1156 C1155 1.400 . S
C1156 C1159 1.386 . S
H1157 C1173 0.930 . S
H1158 C1174 0.931 . S
C1159 H1147 0.929 . S
C1159 C1153 1.390 . S
C1159 C1156 1.386 . S
C1160 C1155 1.490 . S
C1160 C1162 1.395 . S
C1160 C1163 1.403 . S
H1161 C1167 0.930 . S
C1162 H1148 0.930 . S
C1162 C1160 1.395 . S
C1162 C1165 1.403 . S
C1163 C1160 1.403 . S
C1163 C1164 1.524 . S
C1163 C1167 1.400 . S
C1164 H1149 0.960 . S
C1164 H1150 0.960 . S
C1164 H1151 0.960 . S
C1164 C1163 1.524 . S
C1165 C1162 1.403 . S
C1165 C1166 1.392 . S
C1165 C1169 1.495 . S
C1166 C1165 1.392 . S
C1166 C1167 1.385 . S
C1166 C1168 1.478 . S
C1167 H1161 0.930 . S
C1167 C1163 1.400 . S
C1167 C1166 1.385 . S
C1168 C1166 1.478 . S
C1168 C1170 1.381 . S
C1168 C1174 1.383 . S
C1169 C1165 1.495 . S
C1169 H1175 0.959 . S
C1169 H1176 0.961 . S
C1169 H1177 0.960 . S
C1170 C1168 1.381 . S
C1170 C1171 1.394 . S
C1170 H1178 0.930 . S
C1171 C1170 1.394 . S
C1171 C1172 1.383 . S
C1171 H1179 0.929 . S
C1172 C1171 1.383 . S
C1172 C1173 1.377 . S
C1173 H1157 0.930 . S
C1173 C1172 1.377 . S
C1173 C1174 1.379 . S
C1174 H1158 0.931 . S
C1174 C1168 1.383 . S
C1174 C1173 1.379 . S
H1175 C1169 0.959 . S
H1176 C1169 0.961 . S
H1177 C1169 0.960 . S
H1178 C1170 0.930 . S
H1179 C1171 0.929 . S
H1180 C1188 0.929 . S
H1181 C1190 0.930 . S
H1182 C1192 0.930 . S
H1183 C1195 0.929 . S
H1184 C1198 0.930 . S
H1185 C1200 0.960 . S
H1186 C1200 0.960 . S
H1187 C1200 0.960 . S
C1188 H1180 0.929 . S
C1188 C1189 1.377 . S
C1188 C1190 1.384 . S
C1189 C1188 1.377 . S
C1189 C1195 1.390 . S
C1190 H1181 0.930 . S
C1190 C1188 1.384 . S
C1190 C1191 1.372 . S
C1191 C1190 1.372 . S
C1191 C1192 1.400 . S
C1191 C1196 1.490 . S
C1192 H1182 0.930 . S
C1192 C1191 1.400 . S
C1192 C1195 1.386 . S
H1193 C1209 0.930 . S
H1194 C1210 0.931 . S
C1195 H1183 0.929 . S
C1195 C1189 1.390 . S
C1195 C1192 1.386 . S
C1196 C1191 1.490 . S
C1196 C1198 1.395 . S
C1196 C1199 1.403 . S
H1197 C1203 0.930 . S
C1198 H1184 0.930 . S
C1198 C1196 1.395 . S
C1198 C1201 1.403 . S
C1199 C1196 1.403 . S
C1199 C1200 1.524 . S
C1199 C1203 1.400 . S
C1200 H1185 0.960 . S
C1200 H1186 0.960 . S
C1200 H1187 0.960 . S
C1200 C1199 1.524 . S
C1201 C1198 1.403 . S
C1201 C1202 1.392 . S
C1201 C1205 1.495 . S
C1202 C1201 1.392 . S
C1202 C1203 1.385 . S
C1202 C1204 1.478 . S
C1203 H1197 0.930 . S
C1203 C1199 1.400 . S
C1203 C1202 1.385 . S
C1204 C1202 1.478 . S
C1204 C1206 1.381 . S
C1204 C1210 1.383 . S
C1205 C1201 1.495 . S
C1205 H1211 0.959 . S
C1205 H1212 0.961 . S
C1205 H1213 0.960 . S
C1206 C1204 1.381 . S
C1206 C1207 1.394 . S
C1206 H1214 0.930 . S
C1207 C1206 1.394 . S
C1207 C1208 1.383 . S
C1207 H1215 0.929 . S
C1208 C1207 1.383 . S
C1208 C1209 1.377 . S
C1209 H1193 0.930 . S
C1209 C1208 1.377 . S
C1209 C1210 1.379 . S
C1210 H1194 0.931 . S
C1210 C1204 1.383 . S
C1210 C1209 1.379 . S
H1211 C1205 0.959 . S
H1212 C1205 0.961 . S
H1213 C1205 0.960 . S
H1214 C1206 0.930 . S
H1215 C1207 0.929 . S
H1216 C1224 0.929 . S
H1217 C1226 0.930 . S
H1218 C1228 0.930 . S
H1219 C1231 0.929 . S
H1220 C1234 0.930 . S
H1221 C1236 0.960 . S
H1222 C1236 0.960 . S
H1223 C1236 0.960 . S
C1224 H1216 0.929 . S
C1224 C1225 1.377 1_545 S
C1224 C1226 1.384 1_545 S
C1225 C1224 1.377 1_565 S
C1225 C1231 1.390 . S
C1226 H1217 0.930 . S
C1226 C1224 1.384 1_565 S
C1226 C1227 1.372 . S
C1227 C1226 1.372 . S
C1227 C1228 1.400 . S
C1227 C1232 1.490 . S
C1228 H1218 0.930 . S
C1228 C1227 1.400 . S
C1228 C1231 1.386 . S
H1229 C1245 0.930 . S
H1230 C1246 0.931 . S
C1231 H1219 0.929 . S
C1231 C1225 1.390 . S
C1231 C1228 1.386 . S
C1232 C1227 1.490 . S
C1232 C1234 1.395 . S
C1232 C1235 1.403 . S
H1233 C1239 0.930 . S
C1234 H1220 0.930 . S
C1234 C1232 1.395 . S
C1234 C1237 1.403 . S
C1235 C1232 1.403 . S
C1235 C1236 1.524 . S
C1235 C1239 1.400 . S
C1236 H1221 0.960 . S
C1236 H1222 0.960 . S
C1236 H1223 0.960 . S
C1236 C1235 1.524 . S
C1237 C1234 1.403 . S
C1237 C1238 1.392 . S
C1237 C1241 1.495 . S
C1238 C1237 1.392 . S
C1238 C1239 1.385 . S
C1238 C1240 1.478 . S
C1239 H1233 0.930 . S
C1239 C1235 1.400 . S
C1239 C1238 1.385 . S
C1240 C1238 1.478 . S
C1240 C1242 1.381 . S
C1240 C1246 1.383 . S
C1241 C1237 1.495 . S
C1241 H1247 0.959 . S
C1241 H1248 0.961 . S
C1241 H1249 0.960 . S
C1242 C1240 1.381 . S
C1242 C1243 1.394 . S
C1242 H1250 0.930 . S
C1243 C1242 1.394 . S
C1243 C1244 1.383 . S
C1243 H1251 0.929 . S
C1244 C1243 1.383 . S
C1244 C1245 1.377 . S
C1245 H1229 0.930 . S
C1245 C1244 1.377 . S
C1245 C1246 1.379 . S
C1246 H1230 0.931 . S
C1246 C1240 1.383 . S
C1246 C1245 1.379 . S
H1247 C1241 0.959 . S
H1248 C1241 0.961 . S
H1249 C1241 0.960 . S
H1250 C1242 0.930 . S
H1251 C1243 0.929 . S
H1252 C1260 0.929 . S
H1253 C1262 0.930 . S
H1254 C1264 0.930 . S
H1255 C1267 0.929 . S
H1256 C1270 0.930 . S
H1257 C1272 0.960 . S
H1258 C1272 0.960 . S
H1259 C1272 0.960 . S
C1260 H1252 0.929 . S
C1260 C1261 1.377 . S
C1260 C1262 1.384 . S
C1261 C1260 1.377 . S
C1261 C1267 1.390 . S
C1262 H1253 0.930 . S
C1262 C1260 1.384 . S
C1262 C1263 1.372 . S
C1263 C1262 1.372 . S
C1263 C1264 1.400 . S
C1263 C1268 1.490 . S
C1264 H1254 0.930 . S
C1264 C1263 1.400 . S
C1264 C1267 1.386 . S
H1265 C1281 0.930 . S
H1266 C1282 0.931 . S
C1267 H1255 0.929 . S
C1267 C1261 1.390 . S
C1267 C1264 1.386 . S
C1268 C1263 1.490 . S
C1268 C1270 1.395 . S
C1268 C1271 1.403 . S
H1269 C1275 0.930 . S
C1270 H1256 0.930 . S
C1270 C1268 1.395 . S
C1270 C1273 1.403 . S
C1271 C1268 1.403 . S
C1271 C1272 1.524 . S
C1271 C1275 1.400 . S
C1272 H1257 0.960 . S
C1272 H1258 0.960 . S
C1272 H1259 0.960 . S
C1272 C1271 1.524 . S
C1273 C1270 1.403 . S
C1273 C1274 1.392 . S
C1273 C1277 1.495 . S
C1274 C1273 1.392 . S
C1274 C1275 1.385 . S
C1274 C1276 1.478 . S
C1275 H1269 0.930 . S
C1275 C1271 1.400 . S
C1275 C1274 1.385 . S
C1276 C1274 1.478 . S
C1276 C1278 1.381 . S
C1276 C1282 1.383 . S
C1277 C1273 1.495 . S
C1277 H1283 0.959 . S
C1277 H1284 0.961 . S
C1277 H1285 0.960 . S
C1278 C1276 1.381 . S
C1278 C1279 1.394 . S
C1278 H1286 0.930 . S
C1279 C1278 1.394 . S
C1279 C1280 1.383 . S
C1279 H1287 0.929 . S
C1280 C1279 1.383 . S
C1280 C1281 1.377 . S
C1281 H1265 0.930 . S
C1281 C1280 1.377 . S
C1281 C1282 1.379 . S
C1282 H1266 0.931 . S
C1282 C1276 1.383 . S
C1282 C1281 1.379 . S
H1283 C1277 0.959 . S
H1284 C1277 0.961 . S
H1285 C1277 0.960 . S
H1286 C1278 0.930 . S
H1287 C1279 0.929 . S
H1288 C1296 0.929 . S
H1289 C1298 0.930 . S
H1290 C1300 0.930 . S
H1291 C1303 0.929 . S
H1292 C1306 0.930 . S
H1293 C1308 0.960 . S
H1294 C1308 0.960 . S
H1295 C1308 0.960 . S
C1296 H1288 0.929 . S
C1296 C1297 1.377 . S
C1296 C1298 1.384 . S
C1297 C1296 1.377 . S
C1297 C1303 1.390 . S
C1298 H1289 0.930 . S
C1298 C1296 1.384 . S
C1298 C1299 1.372 . S
C1299 C1298 1.372 . S
C1299 C1300 1.400 . S
C1299 C1304 1.490 . S
C1300 H1290 0.930 . S
C1300 C1299 1.400 . S
C1300 C1303 1.386 . S
H1301 C1317 0.930 . S
H1302 C1318 0.931 . S
C1303 H1291 0.929 . S
C1303 C1297 1.390 . S
C1303 C1300 1.386 . S
C1304 C1299 1.490 . S
C1304 C1306 1.395 . S
C1304 C1307 1.403 . S
H1305 C1311 0.930 . S
C1306 H1292 0.930 . S
C1306 C1304 1.395 . S
C1306 C1309 1.403 . S
C1307 C1304 1.403 . S
C1307 C1308 1.524 . S
C1307 C1311 1.400 . S
C1308 H1293 0.960 . S
C1308 H1294 0.960 . S
C1308 H1295 0.960 . S
C1308 C1307 1.524 . S
C1309 C1306 1.403 . S
C1309 C1310 1.392 . S
C1309 C1313 1.495 . S
C1310 C1309 1.392 . S
C1310 C1311 1.385 . S
C1310 C1312 1.478 . S
C1311 H1305 0.930 . S
C1311 C1307 1.400 . S
C1311 C1310 1.385 . S
C1312 C1310 1.478 . S
C1312 C1314 1.381 . S
C1312 C1318 1.383 . S
C1313 C1309 1.495 . S
C1313 H1319 0.959 . S
C1313 H1320 0.961 . S
C1313 H1321 0.960 . S
C1314 C1312 1.381 . S
C1314 C1315 1.394 . S
C1314 H1322 0.930 . S
C1315 C1314 1.394 . S
C1315 C1316 1.383 . S
C1315 H1323 0.929 . S
C1316 C1315 1.383 . S
C1316 C1317 1.377 . S
C1317 H1301 0.930 . S
C1317 C1316 1.377 . S
C1317 C1318 1.379 . S
C1318 H1302 0.931 . S
C1318 C1312 1.383 . S
C1318 C1317 1.379 . S
H1319 C1313 0.959 . S
H1320 C1313 0.961 . S
H1321 C1313 0.960 . S
H1322 C1314 0.930 . S
H1323 C1315 0.929 . S
H1324 C1332 0.929 . S
H1325 C1334 0.930 . S
H1326 C1336 0.930 . S
H1327 C1339 0.929 . S
H1328 C1342 0.930 . S
H1329 C1344 0.960 . S
H1330 C1344 0.960 . S
H1331 C1344 0.960 . S
C1332 H1324 0.929 . S
C1332 C1333 1.377 . S
C1332 C1334 1.384 . S
C1333 C1332 1.377 . S
C1333 C1339 1.390 . S
C1334 H1325 0.930 . S
C1334 C1332 1.384 . S
C1334 C1335 1.372 . S
C1335 C1334 1.372 . S
C1335 C1336 1.400 . S
C1335 C1340 1.490 . S
C1336 H1326 0.930 . S
C1336 C1335 1.400 . S
C1336 C1339 1.386 . S
H1337 C1353 0.930 . S
H1338 C1354 0.931 . S
C1339 H1327 0.929 . S
C1339 C1333 1.390 . S
C1339 C1336 1.386 . S
C1340 C1335 1.490 . S
C1340 C1342 1.395 . S
C1340 C1343 1.403 . S
H1341 C1347 0.930 . S
C1342 H1328 0.930 . S
C1342 C1340 1.395 . S
C1342 C1345 1.403 . S
C1343 C1340 1.403 . S
C1343 C1344 1.524 . S
C1343 C1347 1.400 . S
C1344 H1329 0.960 . S
C1344 H1330 0.960 . S
C1344 H1331 0.960 . S
C1344 C1343 1.524 . S
C1345 C1342 1.403 . S
C1345 C1346 1.392 . S
C1345 C1349 1.495 . S
C1346 C1345 1.392 . S
C1346 C1347 1.385 . S
C1346 C1348 1.478 . S
C1347 H1341 0.930 . S
C1347 C1343 1.400 . S
C1347 C1346 1.385 . S
C1348 C1346 1.478 . S
C1348 C1350 1.381 . S
C1348 C1354 1.383 . S
C1349 C1345 1.495 . S
C1349 H1355 0.959 . S
C1349 H1356 0.961 . S
C1349 H1357 0.960 . S
C1350 C1348 1.381 . S
C1350 C1351 1.394 . S
C1350 H1358 0.930 . S
C1351 C1350 1.394 . S
C1351 C1352 1.383 . S
C1351 H1359 0.929 1_655 S
C1352 C1351 1.383 . S
C1352 C1353 1.377 . S
C1353 H1337 0.930 . S
C1353 C1352 1.377 . S
C1353 C1354 1.379 . S
C1354 H1338 0.931 . S
C1354 C1348 1.383 . S
C1354 C1353 1.379 . S
H1355 C1349 0.959 . S
H1356 C1349 0.961 . S
H1357 C1349 0.960 . S
H1358 C1350 0.930 . S
H1359 C1351 0.929 1_455 S
H1360 C1368 0.929 . S
H1361 C1370 0.930 . S
H1362 C1372 0.930 . S
H1363 C1375 0.929 . S
H1364 C1378 0.930 . S
H1365 C1380 0.960 . S
H1366 C1380 0.960 . S
H1367 C1380 0.960 . S
C1368 H1360 0.929 . S
C1368 C1369 1.377 . S
C1368 C1370 1.384 . S
C1369 C1368 1.377 . S
C1369 C1375 1.390 . S
C1370 H1361 0.930 . S
C1370 C1368 1.384 . S
C1370 C1371 1.372 . S
C1371 C1370 1.372 . S
C1371 C1372 1.400 . S
C1371 C1376 1.490 . S
C1372 H1362 0.930 . S
C1372 C1371 1.400 . S
C1372 C1375 1.386 . S
H1373 C1389 0.930 1_565 S
H1374 C1390 0.931 . S
C1375 H1363 0.929 . S
C1375 C1369 1.390 . S
C1375 C1372 1.386 . S
C1376 C1371 1.490 . S
C1376 C1378 1.395 . S
C1376 C1379 1.403 . S
H1377 C1383 0.930 . S
C1378 H1364 0.930 . S
C1378 C1376 1.395 . S
C1378 C1381 1.403 . S
C1379 C1376 1.403 . S
C1379 C1380 1.524 . S
C1379 C1383 1.400 . S
C1380 H1365 0.960 . S
C1380 H1366 0.960 . S
C1380 H1367 0.960 . S
C1380 C1379 1.524 . S
C1381 C1378 1.403 . S
C1381 C1382 1.392 . S
C1381 C1385 1.495 . S
C1382 C1381 1.392 . S
C1382 C1383 1.385 . S
C1382 C1384 1.478 . S
C1383 H1377 0.930 . S
C1383 C1379 1.400 . S
C1383 C1382 1.385 . S
C1384 C1382 1.478 . S
C1384 C1386 1.381 . S
C1384 C1390 1.383 . S
C1385 C1381 1.495 . S
C1385 H1391 0.959 . S
C1385 H1392 0.961 . S
C1385 H1393 0.960 . S
C1386 C1384 1.381 . S
C1386 C1387 1.394 . S
C1386 H1394 0.930 . S
C1387 C1386 1.394 . S
C1387 C1388 1.383 . S
C1387 H1395 0.929 . S
C1388 C1387 1.383 . S
C1388 C1389 1.377 . S
C1389 H1373 0.930 1_545 S
C1389 C1388 1.377 . S
C1389 C1390 1.379 . S
C1390 H1374 0.931 . S
C1390 C1384 1.383 . S
C1390 C1389 1.379 . S
H1391 C1385 0.959 . S
H1392 C1385 0.961 . S
H1393 C1385 0.960 . S
H1394 C1386 0.930 . S
H1395 C1387 0.929 . S
H1396 C1404 0.929 . S
H1397 C1406 0.930 . S
H1398 C1408 0.930 . S
H1399 C1411 0.929 . S
H1400 C1414 0.930 . S
H1401 C1416 0.960 . S
H1402 C1416 0.960 . S
H1403 C1416 0.960 . S
C1404 H1396 0.929 . S
C1404 C1405 1.377 . S
C1404 C1406 1.384 . S
C1405 C1404 1.377 . S
C1405 C1411 1.390 . S
C1406 H1397 0.930 . S
C1406 C1404 1.384 . S
C1406 C1407 1.372 . S
C1407 C1406 1.372 . S
C1407 C1408 1.400 . S
C1407 C1412 1.490 . S
C1408 H1398 0.930 . S
C1408 C1407 1.400 . S
C1408 C1411 1.386 . S
H1409 C1425 0.930 . S
H1410 C1426 0.931 . S
C1411 H1399 0.929 . S
C1411 C1405 1.390 . S
C1411 C1408 1.386 . S
C1412 C1407 1.490 . S
C1412 C1414 1.395 . S
C1412 C1415 1.403 . S
H1413 C1419 0.930 . S
C1414 H1400 0.930 . S
C1414 C1412 1.395 . S
C1414 C1417 1.403 . S
C1415 C1412 1.403 . S
C1415 C1416 1.524 . S
C1415 C1419 1.400 . S
C1416 H1401 0.960 . S
C1416 H1402 0.960 . S
C1416 H1403 0.960 . S
C1416 C1415 1.524 . S
C1417 C1414 1.403 . S
C1417 C1418 1.392 . S
C1417 C1421 1.495 . S
C1418 C1417 1.392 . S
C1418 C1419 1.385 . S
C1418 C1420 1.478 . S
C1419 H1413 0.930 . S
C1419 C1415 1.400 . S
C1419 C1418 1.385 . S
C1420 C1418 1.478 . S
C1420 C1422 1.381 . S
C1420 C1426 1.383 . S
C1421 C1417 1.495 . S
C1421 H1427 0.959 . S
C1421 H1428 0.961 . S
C1421 H1429 0.960 . S
C1422 C1420 1.381 . S
C1422 C1423 1.394 . S
C1422 H1430 0.930 . S
C1423 C1422 1.394 . S
C1423 C1424 1.383 . S
C1423 H1431 0.929 . S
C1424 C1423 1.383 . S
C1424 C1425 1.377 . S
C1425 H1409 0.930 . S
C1425 C1424 1.377 . S
C1425 C1426 1.379 . S
C1426 H1410 0.931 . S
C1426 C1420 1.383 . S
C1426 C1425 1.379 . S
H1427 C1421 0.959 . S
H1428 C1421 0.961 . S
H1429 C1421 0.960 . S
H1430 C1422 0.930 . S
H1431 C1423 0.929 . S
H1432 C1440 0.929 . S
H1433 C1442 0.930 . S
H1434 C1444 0.930 . S
H1435 C1447 0.929 . S
H1436 C1450 0.930 . S
H1437 C1452 0.960 . S
H1438 C1452 0.960 . S
H1439 C1452 0.960 . S
C1440 H1432 0.929 . S
C1440 C1441 1.377 . S
C1440 C1442 1.384 . S
C1441 C1440 1.377 . S
C1441 C1447 1.390 . S
C1442 H1433 0.930 . S
C1442 C1440 1.384 . S
C1442 C1443 1.372 . S
C1443 C1442 1.372 . S
C1443 C1444 1.400 . S
C1443 C1448 1.490 . S
C1444 H1434 0.930 . S
C1444 C1443 1.400 . S
C1444 C1447 1.386 . S
H1445 C1461 0.930 . S
H1446 C1462 0.931 . S
C1447 H1435 0.929 . S
C1447 C1441 1.390 . S
C1447 C1444 1.386 . S
C1448 C1443 1.490 . S
C1448 C1450 1.395 . S
C1448 C1451 1.403 . S
H1449 C1455 0.930 . S
C1450 H1436 0.930 . S
C1450 C1448 1.395 . S
C1450 C1453 1.403 . S
C1451 C1448 1.403 . S
C1451 C1452 1.524 . S
C1451 C1455 1.400 . S
C1452 H1437 0.960 . S
C1452 H1438 0.960 . S
C1452 H1439 0.960 . S
C1452 C1451 1.524 . S
C1453 C1450 1.403 . S
C1453 C1454 1.392 . S
C1453 C1457 1.495 . S
C1454 C1453 1.392 . S
C1454 C1455 1.385 . S
C1454 C1456 1.478 . S
C1455 H1449 0.930 . S
C1455 C1451 1.400 . S
C1455 C1454 1.385 . S
C1456 C1454 1.478 . S
C1456 C1458 1.381 . S
C1456 C1462 1.383 . S
C1457 C1453 1.495 . S
C1457 H1463 0.959 . S
C1457 H1464 0.961 . S
C1457 H1465 0.960 . S
C1458 C1456 1.381 . S
C1458 C1459 1.394 . S
C1458 H1466 0.930 . S
C1459 C1458 1.394 . S
C1459 C1460 1.383 . S
C1459 H1467 0.929 . S
C1460 C1459 1.383 . S
C1460 C1461 1.377 . S
C1461 H1445 0.930 . S
C1461 C1460 1.377 . S
C1461 C1462 1.379 . S
C1462 H1446 0.931 . S
C1462 C1456 1.383 . S
C1462 C1461 1.379 . S
H1463 C1457 0.959 . S
H1464 C1457 0.961 . S
H1465 C1457 0.960 . S
H1466 C1458 0.930 . S
H1467 C1459 0.929 . S
H1468 C1476 0.929 . S
H1469 C1478 0.930 . S
H1470 C1480 0.930 . S
H1471 C1483 0.929 . S
H1472 C1486 0.930 . S
H1473 C1488 0.960 . S
H1474 C1488 0.960 . S
H1475 C1488 0.960 . S
C1476 H1468 0.929 . S
C1476 C1477 1.377 . S
C1476 C1478 1.384 . S
C1477 C1476 1.377 . S
C1477 C1483 1.390 . S
C1478 H1469 0.930 . S
C1478 C1476 1.384 . S
C1478 C1479 1.372 . S
C1479 C1478 1.372 . S
C1479 C1480 1.400 . S
C1479 C1484 1.490 . S
C1480 H1470 0.930 . S
C1480 C1479 1.400 . S
C1480 C1483 1.386 . S
H1481 C1497 0.890 1_655 S
H1482 C1498 0.931 . S
C1483 H1471 0.929 . S
C1483 C1477 1.390 . S
C1483 C1480 1.386 . S
C1484 C1479 1.490 . S
C1484 C1486 1.395 . S
C1484 C1487 1.403 . S
H1485 C1491 0.930 . S
C1486 H1472 0.930 . S
C1486 C1484 1.395 . S
C1486 C1489 1.403 . S
C1487 C1484 1.403 . S
C1487 C1488 1.524 . S
C1487 C1491 1.400 . S
C1488 H1473 0.960 . S
C1488 H1474 0.960 . S
C1488 H1475 0.960 . S
C1488 C1487 1.524 . S
C1489 C1486 1.403 . S
C1489 C1490 1.392 . S
C1489 C1493 1.495 . S
C1490 C1489 1.392 . S
C1490 C1491 1.385 . S
C1490 C1492 1.478 . S
C1491 H1485 0.930 . S
C1491 C1487 1.400 . S
C1491 C1490 1.385 . S
C1492 C1490 1.478 . S
C1492 C1494 1.381 . S
C1492 C1498 1.383 . S
C1493 C1489 1.495 . S
C1493 H1499 0.959 . S
C1493 H1500 0.961 . S
C1493 H1501 0.960 . S
C1494 C1492 1.381 . S
C1494 C1495 1.394 . S
C1494 H1502 0.930 . S
C1495 C1494 1.394 . S
C1495 C1496 1.383 . S
C1495 H1503 0.929 . S
C1496 C1495 1.383 . S
C1496 C1497 1.390 . S
C1497 H1481 0.890 1_455 S
C1497 C1496 1.390 . S
C1497 C1498 1.407 . S
C1498 H1482 0.931 . S
C1498 C1492 1.383 . S
C1498 C1497 1.407 . S
H1499 C1493 0.959 . S
H1500 C1493 0.961 . S
H1501 C1493 0.960 . S
H1502 C1494 0.930 . S
H1503 C1495 0.929 . S
H1504 C1512 0.929 . S
H1505 C1514 0.930 . S
H1506 C1516 0.930 . S
H1507 C1519 0.929 . S
H1508 C1522 0.930 . S
H1509 C1524 0.960 . S
H1510 C1524 0.960 . S
H1511 C1524 0.960 . S
C1512 H1504 0.929 . S
C1512 C1513 1.377 . S
C1512 C1514 1.384 . S
C1513 C1512 1.377 . S
C1513 C1519 1.390 . S
C1514 H1505 0.930 . S
C1514 C1512 1.384 . S
C1514 C1515 1.372 . S
C1515 C1514 1.372 . S
C1515 C1516 1.400 . S
C1515 C1520 1.490 . S
C1516 H1506 0.930 . S
C1516 C1515 1.400 . S
C1516 C1519 1.386 . S
H1517 C1533 0.930 . S
H1518 C1534 0.931 . S
C1519 H1507 0.929 . S
C1519 C1513 1.390 . S
C1519 C1516 1.386 . S
C1520 C1515 1.490 . S
C1520 C1522 1.395 . S
C1520 C1523 1.403 . S
H1521 C1527 0.930 . S
C1522 H1508 0.930 . S
C1522 C1520 1.395 . S
C1522 C1525 1.403 . S
C1523 C1520 1.403 . S
C1523 C1524 1.524 . S
C1523 C1527 1.400 . S
C1524 H1509 0.960 . S
C1524 H1510 0.960 . S
C1524 H1511 0.960 . S
C1524 C1523 1.524 . S
C1525 C1522 1.403 . S
C1525 C1526 1.392 . S
C1525 C1529 1.495 . S
C1526 C1525 1.392 . S
C1526 C1527 1.385 . S
C1526 C1528 1.478 . S
C1527 H1521 0.930 . S
C1527 C1523 1.400 . S
C1527 C1526 1.385 . S
C1528 C1526 1.478 . S
C1528 C1530 1.381 . S
C1528 C1534 1.383 . S
C1529 C1525 1.495 . S
C1529 H1535 0.959 . S
C1529 H1536 0.961 . S
C1529 H1537 0.960 . S
C1530 C1528 1.381 . S
C1530 C1531 1.394 . S
C1530 H1538 0.930 . S
C1531 C1530 1.394 . S
C1531 C1532 1.383 . S
C1531 H1539 0.929 . S
C1532 C1531 1.383 . S
C1532 C1533 1.377 . S
C1533 H1517 0.930 . S
C1533 C1532 1.377 . S
C1533 C1534 1.379 . S
C1534 H1518 0.931 . S
C1534 C1528 1.383 . S
C1534 C1533 1.379 . S
H1535 C1529 0.959 . S
H1536 C1529 0.961 . S
H1537 C1529 0.960 . S
H1538 C1530 0.930 . S
H1539 C1531 0.929 . S
H1540 C1548 0.929 . S
H1541 C1550 0.930 . S
H1542 C1552 0.930 . S
H1543 C1555 0.929 . S
H1544 C1558 0.930 . S
H1545 C1560 0.960 . S
H1546 C1560 0.960 . S
H1547 C1560 0.960 . S
C1548 H1540 0.929 . S
C1548 C1549 1.377 . S
C1548 C1550 1.384 . S
C1549 C1548 1.377 . S
C1549 C1555 1.390 . S
C1550 H1541 0.930 . S
C1550 C1548 1.384 . S
C1550 C1551 1.372 . S
C1551 C1550 1.372 . S
C1551 C1552 1.400 . S
C1551 C1556 1.490 . S
C1552 H1542 0.930 . S
C1552 C1551 1.400 . S
C1552 C1555 1.386 . S
H1553 C1569 0.930 . S
H1554 C1570 0.931 . S
C1555 H1543 0.929 . S
C1555 C1549 1.390 . S
C1555 C1552 1.386 . S
C1556 C1551 1.490 . S
C1556 C1558 1.395 . S
C1556 C1559 1.403 . S
H1557 C1563 0.930 . S
C1558 H1544 0.930 . S
C1558 C1556 1.395 . S
C1558 C1561 1.403 . S
C1559 C1556 1.403 . S
C1559 C1560 1.524 . S
C1559 C1563 1.400 . S
C1560 H1545 0.960 . S
C1560 H1546 0.960 . S
C1560 H1547 0.960 . S
C1560 C1559 1.524 . S
C1561 C1558 1.403 . S
C1561 C1562 1.392 . S
C1561 C1565 1.495 . S
C1562 C1561 1.392 . S
C1562 C1563 1.385 . S
C1562 C1564 1.478 . S
C1563 H1557 0.930 . S
C1563 C1559 1.400 . S
C1563 C1562 1.385 . S
C1564 C1562 1.478 . S
C1564 C1566 1.381 . S
C1564 C1570 1.383 . S
C1565 C1561 1.495 . S
C1565 H1571 0.959 . S
C1565 H1572 0.961 . S
C1565 H1573 0.960 . S
C1566 C1564 1.381 . S
C1566 C1567 1.394 . S
C1566 H1574 0.930 . S
C1567 C1566 1.394 . S
C1567 C1568 1.383 . S
C1567 H1575 0.929 . S
C1568 C1567 1.383 . S
C1568 C1569 1.377 . S
C1569 H1553 0.930 . S
C1569 C1568 1.377 . S
C1569 C1570 1.379 . S
C1570 H1554 0.931 . S
C1570 C1564 1.383 . S
C1570 C1569 1.379 . S
H1571 C1565 0.959 . S
H1572 C1565 0.961 . S
H1573 C1565 0.960 . S
H1574 C1566 0.930 . S
H1575 C1567 0.929 . S
H1576 C1584 0.929 . S
H1577 C1586 0.930 . S
H1578 C1588 0.930 . S
H1579 C1591 0.929 . S
H1580 C1594 0.930 . S
H1581 C1596 0.960 . S
H1582 C1596 0.960 . S
H1583 C1596 0.960 . S
C1584 H1576 0.929 . S
C1584 C1585 1.377 . S
C1584 C1586 1.384 . S
C1585 C1584 1.377 . S
C1585 C1591 1.390 . S
C1586 H1577 0.930 . S
C1586 C1584 1.384 . S
C1586 C1587 1.372 . S
C1587 C1586 1.372 . S
C1587 C1588 1.400 . S
C1587 C1592 1.490 . S
C1588 H1578 0.930 . S
C1588 C1587 1.400 . S
C1588 C1591 1.386 . S
H1589 C1605 0.930 . S
H1590 C1606 0.931 . S
C1591 H1579 0.929 . S
C1591 C1585 1.390 . S
C1591 C1588 1.386 . S
C1592 C1587 1.490 . S
C1592 C1594 1.395 . S
C1592 C1595 1.403 . S
H1593 C1599 0.930 . S
C1594 H1580 0.930 . S
C1594 C1592 1.395 . S
C1594 C1597 1.403 . S
C1595 C1592 1.403 . S
C1595 C1596 1.524 . S
C1595 C1599 1.400 . S
C1596 H1581 0.960 . S
C1596 H1582 0.960 . S
C1596 H1583 0.960 . S
C1596 C1595 1.524 . S
C1597 C1594 1.403 . S
C1597 C1598 1.392 . S
C1597 C1601 1.495 . S
C1598 C1597 1.392 . S
C1598 C1599 1.385 . S
C1598 C1600 1.478 . S
C1599 H1593 0.930 . S
C1599 C1595 1.400 . S
C1599 C1598 1.385 . S
C1600 C1598 1.478 . S
C1600 C1602 1.381 . S
C1600 C1606 1.383 . S
C1601 C1597 1.495 . S
C1601 H1607 0.959 . S
C1601 H1608 0.961 . S
C1601 H1609 0.960 . S
C1602 C1600 1.381 . S
C1602 C1603 1.394 . S
C1602 H1610 0.930 . S
C1603 C1602 1.394 . S
C1603 C1604 1.383 . S
C1603 H1611 0.929 . S
C1604 C1603 1.383 . S
C1604 C1605 1.377 . S
C1605 H1589 0.930 . S
C1605 C1604 1.377 . S
C1605 C1606 1.379 . S
C1606 H1590 0.931 . S
C1606 C1600 1.383 . S
C1606 C1605 1.379 . S
H1607 C1601 0.959 . S
H1608 C1601 0.961 . S
H1609 C1601 0.960 . S
H1610 C1602 0.930 . S
H1611 C1603 0.929 . S
H1612 C1620 0.929 . S
H1613 C1622 0.930 . S
H1614 C1624 0.930 . S
H1615 C1627 0.929 . S
H1616 C1630 0.930 . S
H1617 C1632 0.960 . S
H1618 C1632 0.960 . S
H1619 C1632 0.960 . S
C1620 H1612 0.929 . S
C1620 C1621 1.377 . S
C1620 C1622 1.384 . S
C1621 C1620 1.377 . S
C1621 C1627 1.390 . S
C1622 H1613 0.930 . S
C1622 C1620 1.384 . S
C1622 C1623 1.372 . S
C1623 C1622 1.372 . S
C1623 C1624 1.400 . S
C1623 C1628 1.490 . S
C1624 H1614 0.930 . S
C1624 C1623 1.400 . S
C1624 C1627 1.386 . S
H1625 C1641 0.930 . S
H1626 C1642 0.931 . S
C1627 H1615 0.929 . S
C1627 C1621 1.390 . S
C1627 C1624 1.386 . S
C1628 C1623 1.490 . S
C1628 C1630 1.395 . S
C1628 C1631 1.403 . S
H1629 C1635 0.930 . S
C1630 H1616 0.930 . S
C1630 C1628 1.395 . S
C1630 C1633 1.403 . S
C1631 C1628 1.403 . S
C1631 C1632 1.524 . S
C1631 C1635 1.400 . S
C1632 H1617 0.960 . S
C1632 H1618 0.960 . S
C1632 H1619 0.960 . S
C1632 C1631 1.524 . S
C1633 C1630 1.403 . S
C1633 C1634 1.392 . S
C1633 C1637 1.495 . S
C1634 C1633 1.392 . S
C1634 C1635 1.385 . S
C1634 C1636 1.478 . S
C1635 H1629 0.930 . S
C1635 C1631 1.400 . S
C1635 C1634 1.385 . S
C1636 C1634 1.478 . S
C1636 C1638 1.381 . S
C1636 C1642 1.383 . S
C1637 C1633 1.495 . S
C1637 H1643 0.959 . S
C1637 H1644 0.961 . S
C1637 H1645 0.960 . S
C1638 C1636 1.381 . S
C1638 C1639 1.394 . S
C1638 H1646 0.930 . S
C1639 C1638 1.394 . S
C1639 C1640 1.383 . S
C1639 H1647 0.929 . S
C1640 C1639 1.383 . S
C1640 C1641 1.377 . S
C1641 H1625 0.930 . S
C1641 C1640 1.377 . S
C1641 C1642 1.379 . S
C1642 H1626 0.931 . S
C1642 C1636 1.383 . S
C1642 C1641 1.379 . S
H1643 C1637 0.959 . S
H1644 C1637 0.961 . S
H1645 C1637 0.960 . S
H1646 C1638 0.930 . S
H1647 C1639 0.929 . S
H1648 C1656 0.929 . S
H1649 C1658 0.930 . S
H1650 C1660 0.930 . S
H1651 C1663 0.929 . S
H1652 C1666 0.930 . S
H1653 C1668 0.960 . S
H1654 C1668 0.960 . S
H1655 C1668 0.960 . S
C1656 H1648 0.929 . S
C1656 C1657 1.377 . S
C1656 C1658 1.384 . S
C1657 C1656 1.377 . S
C1657 C1663 1.390 . S
C1658 H1649 0.930 . S
C1658 C1656 1.384 . S
C1658 C1659 1.372 . S
C1659 C1658 1.372 . S
C1659 C1660 1.400 . S
C1659 C1664 1.490 . S
C1660 H1650 0.930 . S
C1660 C1659 1.400 . S
C1660 C1663 1.386 . S
H1661 C1677 0.930 . S
H1662 C1678 0.931 . S
C1663 H1651 0.929 . S
C1663 C1657 1.390 . S
C1663 C1660 1.386 . S
C1664 C1659 1.490 . S
C1664 C1666 1.395 . S
C1664 C1667 1.403 . S
H1665 C1671 0.930 . S
C1666 H1652 0.930 . S
C1666 C1664 1.395 . S
C1666 C1669 1.403 . S
C1667 C1664 1.403 . S
C1667 C1668 1.524 . S
C1667 C1671 1.400 . S
C1668 H1653 0.960 . S
C1668 H1654 0.960 . S
C1668 H1655 0.960 . S
C1668 C1667 1.524 . S
C1669 C1666 1.403 . S
C1669 C1670 1.392 . S
C1669 C1673 1.495 . S
C1670 C1669 1.392 . S
C1670 C1671 1.385 . S
C1670 C1672 1.478 . S
C1671 H1665 0.930 . S
C1671 C1667 1.400 . S
C1671 C1670 1.385 . S
C1672 C1670 1.478 . S
C1672 C1674 1.381 . S
C1672 C1678 1.383 . S
C1673 C1669 1.495 . S
C1673 H1679 0.959 . S
C1673 H1680 0.961 . S
C1673 H1681 0.960 . S
C1674 C1672 1.381 . S
C1674 C1675 1.394 . S
C1674 H1682 0.930 . S
C1675 C1674 1.394 . S
C1675 C1676 1.383 . S
C1675 H1683 0.929 . S
C1676 C1675 1.383 . S
C1676 C1677 1.377 . S
C1677 H1661 0.930 . S
C1677 C1676 1.377 . S
C1677 C1678 1.379 . S
C1678 H1662 0.931 . S
C1678 C1672 1.383 . S
C1678 C1677 1.379 . S
H1679 C1673 0.959 . S
H1680 C1673 0.961 . S
H1681 C1673 0.960 . S
H1682 C1674 0.930 . S
H1683 C1675 0.929 . S
H1684 C1692 0.929 . S
H1685 C1694 0.930 . S
H1686 C1696 0.930 . S
H1687 C1699 0.929 . S
H1688 C1702 0.930 . S
H1689 C1704 0.960 . S
H1690 C1704 0.960 . S
H1691 C1704 0.960 . S
C1692 H1684 0.929 . S
C1692 C1693 1.377 . S
C1692 C1694 1.384 . S
C1693 C1692 1.377 . S
C1693 C1699 1.390 . S
C1694 H1685 0.930 . S
C1694 C1692 1.384 . S
C1694 C1695 1.372 . S
C1695 C1694 1.372 . S
C1695 C1696 1.400 . S
C1695 C1700 1.490 . S
C1696 H1686 0.930 . S
C1696 C1695 1.400 . S
C1696 C1699 1.386 . S
H1697 C1713 0.930 . S
H1698 C1714 0.931 . S
C1699 H1687 0.929 . S
C1699 C1693 1.390 . S
C1699 C1696 1.386 . S
C1700 C1695 1.490 . S
C1700 C1702 1.395 . S
C1700 C1703 1.403 . S
H1701 C1707 0.930 . S
C1702 H1688 0.930 . S
C1702 C1700 1.395 . S
C1702 C1705 1.403 . S
C1703 C1700 1.403 . S
C1703 C1704 1.524 . S
C1703 C1707 1.400 . S
C1704 H1689 0.960 . S
C1704 H1690 0.960 . S
C1704 H1691 0.960 . S
C1704 C1703 1.524 . S
C1705 C1702 1.403 . S
C1705 C1706 1.392 . S
C1705 C1709 1.495 . S
C1706 C1705 1.392 . S
C1706 C1707 1.385 . S
C1706 C1708 1.478 . S
C1707 H1701 0.930 . S
C1707 C1703 1.400 . S
C1707 C1706 1.385 . S
C1708 C1706 1.478 . S
C1708 C1710 1.381 . S
C1708 C1714 1.383 . S
C1709 C1705 1.495 . S
C1709 H1715 0.959 . S
C1709 H1716 0.961 . S
C1709 H1717 0.960 . S
C1710 C1708 1.381 . S
C1710 C1711 1.394 . S
C1710 H1718 0.930 . S
C1711 C1710 1.394 . S
C1711 C1712 1.383 . S
C1711 H1719 0.929 . S
C1712 C1711 1.383 . S
C1712 C1713 1.377 . S
C1713 H1697 0.930 . S
C1713 C1712 1.377 . S
C1713 C1714 1.379 . S
C1714 H1698 0.931 . S
C1714 C1708 1.383 . S
C1714 C1713 1.379 . S
H1715 C1709 0.959 . S
H1716 C1709 0.961 . S
H1717 C1709 0.960 . S
H1718 C1710 0.930 . S
H1719 C1711 0.929 . S
H1720 C1728 0.929 . S
H1721 C1730 0.930 . S
H1722 C1732 0.930 . S
H1723 C1735 0.929 . S
H1724 C1738 0.930 . S
H1725 C1740 0.960 . S
H1726 C1740 0.960 . S
H1727 C1740 0.960 . S
C1728 H1720 0.929 . S
C1728 C1729 1.377 . S
C1728 C1730 1.384 . S
C1729 C1728 1.377 . S
C1729 C1735 1.390 . S
C1730 H1721 0.930 . S
C1730 C1728 1.384 . S
C1730 C1731 1.372 . S
C1731 C1730 1.372 . S
C1731 C1732 1.400 . S
C1731 C1736 1.490 . S
C1732 H1722 0.930 . S
C1732 C1731 1.400 . S
C1732 C1735 1.386 . S
H1733 C1749 0.930 . S
H1734 C1750 0.931 . S
C1735 H1723 0.929 . S
C1735 C1729 1.390 . S
C1735 C1732 1.386 . S
C1736 C1731 1.490 . S
C1736 C1738 1.395 . S
C1736 C1739 1.403 . S
H1737 C1743 0.930 . S
C1738 H1724 0.930 . S
C1738 C1736 1.395 . S
C1738 C1741 1.403 . S
C1739 C1736 1.403 . S
C1739 C1740 1.524 . S
C1739 C1743 1.400 . S
C1740 H1725 0.960 . S
C1740 H1726 0.960 . S
C1740 H1727 0.960 . S
C1740 C1739 1.524 . S
C1741 C1738 1.403 . S
C1741 C1742 1.392 . S
C1741 C1745 1.495 . S
C1742 C1741 1.392 . S
C1742 C1743 1.385 . S
C1742 C1744 1.478 . S
C1743 H1737 0.930 . S
C1743 C1739 1.400 . S
C1743 C1742 1.385 . S
C1744 C1742 1.478 . S
C1744 C1746 1.381 . S
C1744 C1750 1.383 . S
C1745 C1741 1.495 . S
C1745 H1751 0.959 . S
C1745 H1752 0.961 . S
C1745 H1753 0.960 . S
C1746 C1744 1.381 . S
C1746 C1747 1.394 . S
C1746 H1754 0.930 . S
C1747 C1746 1.394 . S
C1747 C1748 1.383 . S
C1747 H1755 0.929 . S
C1748 C1747 1.383 . S
C1748 C1749 1.377 . S
C1749 H1733 0.930 . S
C1749 C1748 1.377 . S
C1749 C1750 1.379 . S
C1750 H1734 0.931 . S
C1750 C1744 1.383 . S
C1750 C1749 1.379 . S
H1751 C1745 0.959 . S
H1752 C1745 0.961 . S
H1753 C1745 0.960 . S
H1754 C1746 0.930 . S
H1755 C1747 0.929 . S
H1756 C1764 0.929 . S
H1757 C1766 0.930 . S
H1758 C1768 0.930 . S
H1759 C1771 0.929 . S
H1760 C1774 0.930 . S
H1761 C1776 0.960 . S
H1762 C1776 0.960 . S
H1763 C1776 0.960 . S
C1764 H1756 0.929 . S
C1764 C1765 1.377 . S
C1764 C1766 1.384 . S
C1765 C1764 1.377 . S
C1765 C1771 1.390 . S
C1766 H1757 0.930 . S
C1766 C1764 1.384 . S
C1766 C1767 1.372 . S
C1767 C1766 1.372 . S
C1767 C1768 1.400 . S
C1767 C1772 1.490 . S
C1768 H1758 0.930 . S
C1768 C1767 1.400 . S
C1768 C1771 1.386 . S
H1769 C1785 0.930 . S
H1770 C1786 0.931 . S
C1771 H1759 0.929 . S
C1771 C1765 1.390 . S
C1771 C1768 1.386 . S
C1772 C1767 1.490 . S
C1772 C1774 1.395 . S
C1772 C1775 1.403 . S
H1773 C1779 0.930 . S
C1774 H1760 0.930 . S
C1774 C1772 1.395 . S
C1774 C1777 1.403 . S
C1775 C1772 1.403 . S
C1775 C1776 1.524 . S
C1775 C1779 1.400 . S
C1776 H1761 0.960 . S
C1776 H1762 0.960 . S
C1776 H1763 0.960 . S
C1776 C1775 1.524 . S
C1777 C1774 1.403 . S
C1777 C1778 1.392 . S
C1777 C1781 1.495 . S
C1778 C1777 1.392 . S
C1778 C1779 1.385 . S
C1778 C1780 1.478 . S
C1779 H1773 0.930 . S
C1779 C1775 1.400 . S
C1779 C1778 1.385 . S
C1780 C1778 1.478 . S
C1780 C1782 1.381 . S
C1780 C1786 1.383 . S
C1781 C1777 1.495 . S
C1781 H1787 0.959 . S
C1781 H1788 0.961 . S
C1781 H1789 0.960 . S
C1782 C1780 1.381 . S
C1782 C1783 1.394 . S
C1782 H1790 0.930 . S
C1783 C1782 1.394 . S
C1783 C1784 1.383 . S
C1783 H1791 0.929 . S
C1784 C1783 1.383 . S
C1784 C1785 1.377 . S
C1785 H1769 0.930 . S
C1785 C1784 1.377 . S
C1785 C1786 1.379 . S
C1786 H1770 0.931 . S
C1786 C1780 1.383 . S
C1786 C1785 1.379 . S
H1787 C1781 0.959 . S
H1788 C1781 0.961 . S
H1789 C1781 0.960 . S
H1790 C1782 0.930 . S
H1791 C1783 0.929 . S
H1792 C1800 0.929 . S
H1793 C1802 0.930 . S
H1794 C1804 0.930 . S
H1795 C1807 0.929 . S
H1796 C1810 0.930 . S
H1797 C1812 0.960 . S
H1798 C1812 0.960 . S
H1799 C1812 0.960 . S
C1800 H1792 0.929 . S
C1800 C1801 1.377 . S
C1800 C1802 1.384 . S
C1801 C1800 1.377 . S
C1801 C1807 1.390 . S
C1802 H1793 0.930 . S
C1802 C1800 1.384 . S
C1802 C1803 1.372 . S
C1803 C1802 1.372 . S
C1803 C1804 1.400 . S
C1803 C1808 1.490 . S
C1804 H1794 0.930 . S
C1804 C1803 1.400 . S
C1804 C1807 1.386 . S
H1805 C1821 0.930 . S
H1806 C1822 0.931 . S
C1807 H1795 0.929 . S
C1807 C1801 1.390 . S
C1807 C1804 1.386 . S
C1808 C1803 1.490 . S
C1808 C1810 1.395 . S
C1808 C1811 1.403 . S
H1809 C1815 0.930 . S
C1810 H1796 0.930 . S
C1810 C1808 1.395 . S
C1810 C1813 1.403 . S
C1811 C1808 1.403 . S
C1811 C1812 1.524 . S
C1811 C1815 1.400 . S
C1812 H1797 0.960 . S
C1812 H1798 0.960 . S
C1812 H1799 0.960 . S
C1812 C1811 1.524 . S
C1813 C1810 1.403 . S
C1813 C1814 1.392 . S
C1813 C1817 1.495 . S
C1814 C1813 1.392 . S
C1814 C1815 1.385 . S
C1814 C1816 1.478 . S
C1815 H1809 0.930 . S
C1815 C1811 1.400 . S
C1815 C1814 1.385 . S
C1816 C1814 1.478 . S
C1816 C1818 1.381 . S
C1816 C1822 1.383 . S
C1817 C1813 1.495 . S
C1817 H1823 0.959 . S
C1817 H1824 0.961 . S
C1817 H1825 0.960 . S
C1818 C1816 1.381 . S
C1818 C1819 1.394 . S
C1818 H1826 0.930 . S
C1819 C1818 1.394 . S
C1819 C1820 1.383 . S
C1819 H1827 0.929 . S
C1820 C1819 1.383 . S
C1820 C1821 1.377 . S
C1821 H1805 0.930 . S
C1821 C1820 1.377 . S
C1821 C1822 1.379 . S
C1822 H1806 0.931 . S
C1822 C1816 1.383 . S
C1822 C1821 1.379 . S
H1823 C1817 0.959 . S
H1824 C1817 0.961 . S
H1825 C1817 0.960 . S
H1826 C1818 0.930 . S
H1827 C1819 0.929 . S
H1828 C1836 0.929 . S
H1829 C1838 0.930 . S
H1830 C1840 0.930 . S
H1831 C1843 0.929 . S
H1832 C1846 0.930 . S
H1833 C1848 0.960 . S
H1834 C1848 0.960 . S
H1835 C1848 0.960 . S
C1836 H1828 0.929 . S
C1836 C1837 1.377 . S
C1836 C1838 1.384 . S
C1837 C1836 1.377 . S
C1837 C1843 1.390 . S
C1838 H1829 0.930 . S
C1838 C1836 1.384 . S
C1838 C1839 1.372 . S
C1839 C1838 1.372 . S
C1839 C1840 1.400 . S
C1839 C1844 1.490 . S
C1840 H1830 0.930 . S
C1840 C1839 1.400 . S
C1840 C1843 1.386 . S
H1841 C1857 0.930 . S
H1842 C1858 0.931 . S
C1843 H1831 0.929 . S
C1843 C1837 1.390 . S
C1843 C1840 1.386 . S
C1844 C1839 1.490 . S
C1844 C1846 1.395 . S
C1844 C1847 1.403 . S
H1845 C1851 0.930 . S
C1846 H1832 0.930 . S
C1846 C1844 1.395 . S
C1846 C1849 1.403 . S
C1847 C1844 1.403 . S
C1847 C1848 1.524 . S
C1847 C1851 1.400 . S
C1848 H1833 0.960 . S
C1848 H1834 0.960 . S
C1848 H1835 0.960 . S
C1848 C1847 1.524 . S
C1849 C1846 1.403 . S
C1849 C1850 1.392 . S
C1849 C1853 1.495 . S
C1850 C1849 1.392 . S
C1850 C1851 1.385 . S
C1850 C1852 1.478 . S
C1851 H1845 0.930 . S
C1851 C1847 1.400 . S
C1851 C1850 1.385 . S
C1852 C1850 1.478 . S
C1852 C1854 1.381 . S
C1852 C1858 1.383 . S
C1853 C1849 1.495 . S
C1853 H1859 0.959 . S
C1853 H1860 0.961 . S
C1853 H1861 0.960 . S
C1854 C1852 1.381 . S
C1854 C1855 1.394 . S
C1854 H1862 0.930 . S
C1855 C1854 1.394 . S
C1855 C1856 1.383 . S
C1855 H1863 0.929 . S
C1856 C1855 1.383 . S
C1856 C1857 1.377 . S
C1857 H1841 0.930 . S
C1857 C1856 1.377 . S
C1857 C1858 1.379 . S
C1858 H1842 0.931 . S
C1858 C1852 1.383 . S
C1858 C1857 1.379 . S
H1859 C1853 0.959 . S
H1860 C1853 0.961 . S
H1861 C1853 0.960 . S
H1862 C1854 0.930 . S
H1863 C1855 0.929 . S
H1864 C1872 0.929 . S
H1865 C1874 0.930 . S
H1866 C1876 0.930 . S
H1867 C1879 0.929 . S
H1868 C1882 0.930 . S
H1869 C1884 0.960 . S
H1870 C1884 0.960 . S
H1871 C1884 0.960 . S
C1872 H1864 0.929 . S
C1872 C1873 1.377 . S
C1872 C1874 1.384 . S
C1873 C1872 1.377 . S
C1873 C1879 1.390 . S
C1874 H1865 0.930 . S
C1874 C1872 1.384 . S
C1874 C1875 1.372 . S
C1875 C1874 1.372 . S
C1875 C1876 1.400 . S
C1875 C1880 1.490 . S
C1876 H1866 0.930 . S
C1876 C1875 1.400 . S
C1876 C1879 1.386 . S
H1877 C1893 0.930 . S
H1878 C1894 0.931 . S
C1879 H1867 0.929 . S
C1879 C1873 1.390 . S
C1879 C1876 1.386 . S
C1880 C1875 1.490 . S
C1880 C1882 1.395 . S
C1880 C1883 1.403 . S
H1881 C1887 0.930 . S
C1882 H1868 0.930 . S
C1882 C1880 1.395 . S
C1882 C1885 1.403 . S
C1883 C1880 1.403 . S
C1883 C1884 1.524 . S
C1883 C1887 1.400 . S
C1884 H1869 0.960 . S
C1884 H1870 0.960 . S
C1884 H1871 0.960 . S
C1884 C1883 1.524 . S
C1885 C1882 1.403 . S
C1885 C1886 1.392 . S
C1885 C1889 1.495 . S
C1886 C1885 1.392 . S
C1886 C1887 1.385 . S
C1886 C1888 1.478 . S
C1887 H1881 0.930 . S
C1887 C1883 1.400 . S
C1887 C1886 1.385 . S
C1888 C1886 1.478 . S
C1888 C1890 1.381 . S
C1888 C1894 1.383 . S
C1889 C1885 1.495 . S
C1889 H1895 0.959 . S
C1889 H1896 0.961 . S
C1889 H1897 0.960 . S
C1890 C1888 1.381 . S
C1890 C1891 1.394 . S
C1890 H1898 0.930 . S
C1891 C1890 1.394 . S
C1891 C1892 1.383 . S
C1891 H1899 0.929 . S
C1892 C1891 1.383 . S
C1892 C1893 1.377 . S
C1893 H1877 0.930 . S
C1893 C1892 1.377 . S
C1893 C1894 1.379 . S
C1894 H1878 0.931 . S
C1894 C1888 1.383 . S
C1894 C1893 1.379 . S
H1895 C1889 0.959 . S
H1896 C1889 0.961 . S
H1897 C1889 0.960 . S
H1898 C1890 0.930 . S
H1899 C1891 0.929 . S
H1900 C1908 0.929 . S
H1901 C1910 0.930 . S
H1902 C1912 0.930 . S
H1903 C1915 0.929 . S
H1904 C1918 0.930 . S
H1905 C1920 0.960 . S
H1906 C1920 0.960 . S
H1907 C1920 0.960 . S
C1908 H1900 0.929 . S
C1908 C1909 1.377 . S
C1908 C1910 1.384 . S
C1909 C1908 1.377 . S
C1909 C1915 1.390 . S
C1910 H1901 0.930 . S
C1910 C1908 1.384 . S
C1910 C1911 1.372 . S
C1911 C1910 1.372 . S
C1911 C1912 1.400 . S
C1911 C1916 1.490 . S
C1912 H1902 0.930 . S
C1912 C1911 1.400 . S
C1912 C1915 1.386 . S
H1913 C1929 0.930 . S
H1914 C1930 0.931 . S
C1915 H1903 0.929 . S
C1915 C1909 1.390 . S
C1915 C1912 1.386 . S
C1916 C1911 1.490 . S
C1916 C1918 1.395 . S
C1916 C1919 1.403 . S
H1917 C1923 0.930 . S
C1918 H1904 0.930 . S
C1918 C1916 1.395 . S
C1918 C1921 1.403 . S
C1919 C1916 1.403 . S
C1919 C1920 1.524 . S
C1919 C1923 1.400 . S
C1920 H1905 0.960 . S
C1920 H1906 0.960 . S
C1920 H1907 0.960 . S
C1920 C1919 1.524 . S
C1921 C1918 1.403 . S
C1921 C1922 1.392 . S
C1921 C1925 1.495 . S
C1922 C1921 1.392 . S
C1922 C1923 1.385 . S
C1922 C1924 1.478 . S
C1923 H1917 0.930 . S
C1923 C1919 1.400 . S
C1923 C1922 1.385 . S
C1924 C1922 1.478 . S
C1924 C1926 1.381 . S
C1924 C1930 1.383 . S
C1925 C1921 1.495 . S
C1925 H1931 0.959 . S
C1925 H1932 0.961 . S
C1925 H1933 0.960 . S
C1926 C1924 1.381 . S
C1926 C1927 1.394 . S
C1926 H1934 0.930 . S
C1927 C1926 1.394 . S
C1927 C1928 1.383 . S
C1927 H1935 0.929 . S
C1928 C1927 1.383 . S
C1928 C1929 1.377 . S
C1929 H1913 0.930 . S
C1929 C1928 1.377 . S
C1929 C1930 1.379 . S
C1930 H1914 0.931 . S
C1930 C1924 1.383 . S
C1930 C1929 1.379 . S
H1931 C1925 0.959 . S
H1932 C1925 0.961 . S
H1933 C1925 0.960 . S
H1934 C1926 0.930 . S
H1935 C1927 0.929 . S
H1936 C1944 0.929 . S
H1937 C1946 0.949 . S
H1938 C1948 0.930 . S
H1939 C1951 0.929 . S
H1940 C1954 0.930 1_556 S
H1941 C1956 0.960 . S
H1942 C1956 0.960 . S
H1943 C1956 0.960 1_556 S
C1944 H1936 0.929 . S
C1944 C1945 1.377 . S
C1944 C1946 1.374 1_556 S
C1945 C1944 1.377 . S
C1945 C1951 1.390 . S
C1946 H1937 0.949 . S
C1946 C1944 1.374 1_554 S
C1946 C1947 1.363 1_554 S
C1947 C1946 1.363 1_556 S
C1947 C1948 1.400 . S
C1947 C1952 1.490 1_556 S
C1948 H1938 0.930 . S
C1948 C1947 1.400 . S
C1948 C1951 1.386 . S
H1949 C1965 0.930 . S
H1950 C1966 0.931 . S
C1951 H1939 0.929 . S
C1951 C1945 1.390 . S
C1951 C1948 1.386 . S
C1952 C1947 1.490 1_554 S
C1952 C1954 1.395 . S
C1952 C1955 1.403 . S
H1953 C1959 0.930 . S
C1954 H1940 0.930 1_554 S
C1954 C1952 1.395 . S
C1954 C1957 1.403 . S
C1955 C1952 1.403 . S
C1955 C1956 1.524 . S
C1955 C1959 1.400 . S
C1956 H1941 0.960 . S
C1956 H1942 0.960 . S
C1956 H1943 0.960 1_554 S
C1956 C1955 1.524 . S
C1957 C1954 1.403 . S
C1957 C1958 1.392 . S
C1957 C1961 1.495 . S
C1958 C1957 1.392 . S
C1958 C1959 1.385 . S
C1958 C1960 1.478 . S
C1959 H1953 0.930 . S
C1959 C1955 1.400 . S
C1959 C1958 1.385 . S
C1960 C1958 1.478 . S
C1960 C1962 1.381 . S
C1960 C1966 1.383 . S
C1961 C1957 1.495 . S
C1961 H1967 0.959 . S
C1961 H1968 0.961 . S
C1961 H1969 0.960 . S
C1962 C1960 1.381 . S
C1962 C1963 1.394 . S
C1962 H1970 0.930 . S
C1963 C1962 1.394 . S
C1963 C1964 1.383 . S
C1963 H1971 0.929 . S
C1964 C1963 1.383 . S
C1964 C1965 1.377 . S
C1965 H1949 0.930 . S
C1965 C1964 1.377 . S
C1965 C1966 1.379 . S
C1966 H1950 0.931 . S
C1966 C1960 1.383 . S
C1966 C1965 1.379 . S
H1967 C1961 0.959 . S
H1968 C1961 0.961 . S
H1969 C1961 0.960 . S
H1970 C1962 0.930 . S
H1971 C1963 0.929 . S
H1972 C1980 0.929 . S
H1973 C1982 0.930 . S
H1974 C1984 0.930 . S
H1975 C1987 0.929 . S
H1976 C1990 0.930 . S
H1977 C1992 0.960 . S
H1978 C1992 0.960 . S
H1979 C1992 0.960 . S
C1980 H1972 0.929 . S
C1980 C1981 1.377 . S
C1980 C1982 1.384 . S
C1981 C1980 1.377 . S
C1981 C1987 1.390 . S
C1982 H1973 0.930 . S
C1982 C1980 1.384 . S
C1982 C1983 1.372 . S
C1983 C1982 1.372 . S
C1983 C1984 1.400 . S
C1983 C1988 1.490 . S
C1984 H1974 0.930 . S
C1984 C1983 1.400 . S
C1984 C1987 1.386 . S
H1985 C2001 0.930 . S
H1986 C2002 0.931 . S
C1987 H1975 0.929 . S
C1987 C1981 1.390 . S
C1987 C1984 1.386 . S
C1988 C1983 1.490 . S
C1988 C1990 1.395 . S
C1988 C1991 1.403 . S
H1989 C1995 0.930 . S
C1990 H1976 0.930 . S
C1990 C1988 1.395 . S
C1990 C1993 1.401 . S
C1991 C1988 1.403 . S
C1991 C1992 1.524 . S
C1991 C1995 1.400 . S
C1992 H1977 0.960 . S
C1992 H1978 0.960 . S
C1992 H1979 0.960 . S
C1992 C1991 1.524 . S
C1993 C1990 1.401 . S
C1993 C1994 1.392 . S
C1993 C1997 1.498 1_554 S
C1994 C1993 1.392 . S
C1994 C1995 1.388 . S
C1994 C1996 1.475 1_554 S
C1995 H1989 0.930 . S
C1995 C1991 1.400 . S
C1995 C1994 1.388 . S
C1996 C1994 1.475 1_556 S
C1996 C1998 1.381 . S
C1996 C2002 1.383 . S
C1997 C1993 1.498 1_556 S
C1997 H2003 0.959 . S
C1997 H2004 0.961 . S
C1997 H2005 0.960 . S
C1998 C1996 1.381 . S
C1998 C1999 1.394 . S
C1998 H2006 0.930 1_556 S
C1999 C1998 1.394 . S
C1999 C2000 1.383 . S
C1999 H2007 0.929 . S
C2000 C1999 1.383 . S
C2000 C2001 1.377 . S
C2001 H1985 0.930 . S
C2001 C2000 1.377 . S
C2001 C2002 1.379 . S
C2002 H1986 0.931 . S
C2002 C1996 1.383 . S
C2002 C2001 1.379 . S
H2003 C1997 0.959 . S
H2004 C1997 0.961 . S
H2005 C1997 0.960 . S
H2006 C1998 0.930 1_554 S
H2007 C1999 0.929 . S
H2008 C2016 0.929 . S
H2009 C2018 0.894 1_554 S
H2010 C2020 0.930 . S
H2011 C2023 0.929 . S
H2012 C2026 0.930 1_556 S
H2013 C2028 0.960 . S
H2014 C2028 0.960 . S
H2015 C2028 0.979 . S
C2016 H2008 0.929 . S
C2016 C2017 1.377 . S
C2016 C2018 1.405 . S
C2017 C2016 1.377 . S
C2017 C2023 1.390 . S
C2018 H2009 0.894 1_556 S
C2018 C2016 1.405 . S
C2018 C2019 1.388 . S
C2019 C2018 1.388 . S
C2019 C2020 1.400 . S
C2019 C2024 1.490 1_556 S
C2020 H2010 0.930 . S
C2020 C2019 1.400 . S
C2020 C2023 1.386 . S
H2021 C2037 0.930 . S
H2022 C2038 0.931 . S
C2023 H2011 0.929 . S
C2023 C2017 1.390 . S
C2023 C2020 1.386 . S
C2024 C2019 1.490 1_554 S
C2024 C2026 1.395 . S
C2024 C2027 1.403 . S
H2025 C2031 0.930 . S
C2026 H2012 0.930 1_554 S
C2026 C2024 1.395 . S
C2026 C2029 1.403 . S
C2027 C2024 1.403 . S
C2027 C2028 1.524 . S
C2027 C2031 1.400 . S
C2028 H2013 0.960 . S
C2028 H2014 0.960 . S
C2028 H2015 0.979 . S
C2028 C2027 1.524 . S
C2029 C2026 1.403 . S
C2029 C2030 1.392 . S
C2029 C2033 1.495 . S
C2030 C2029 1.392 . S
C2030 C2031 1.385 . S
C2030 C2032 1.478 . S
C2031 H2025 0.930 . S
C2031 C2027 1.400 . S
C2031 C2030 1.385 . S
C2032 C2030 1.478 . S
C2032 C2034 1.381 . S
C2032 C2038 1.383 . S
C2033 C2029 1.495 . S
C2033 H2039 0.959 . S
C2033 H2040 0.957 1_554 S
C2033 H2041 0.960 . S
C2034 C2032 1.381 . S
C2034 C2035 1.394 . S
C2034 H2042 0.930 . S
C2035 C2034 1.394 . S
C2035 C2036 1.383 . S
C2035 H2043 0.929 . S
C2036 C2035 1.383 . S
C2036 C2037 1.377 . S
C2037 H2021 0.930 . S
C2037 C2036 1.377 . S
C2037 C2038 1.379 . S
C2038 H2022 0.931 . S
C2038 C2032 1.383 . S
C2038 C2037 1.379 . S
H2039 C2033 0.959 . S
H2040 C2033 0.957 1_556 S
H2041 C2033 0.960 . S
H2042 C2034 0.930 . S
H2043 C2035 0.929 . S
H2044 C2052 0.929 . S
H2045 C2054 0.930 . S
H2046 C2056 0.930 . S
H2047 C2059 0.929 . S
H2048 C2062 0.930 . S
H2049 C2064 0.960 . S
H2050 C2064 0.960 . S
H2051 C2064 0.960 . S
C2052 H2044 0.929 . S
C2052 C2053 1.377 . S
C2052 C2054 1.384 . S
C2053 C2052 1.377 . S
C2053 C2059 1.390 . S
C2054 H2045 0.930 . S
C2054 C2052 1.384 . S
C2054 C2055 1.372 . S
C2055 C2054 1.372 . S
C2055 C2056 1.400 . S
C2055 C2060 1.490 . S
C2056 H2046 0.930 . S
C2056 C2055 1.400 . S
C2056 C2059 1.386 . S
H2057 C2073 0.930 . S
H2058 C2074 0.931 . S
C2059 H2047 0.929 . S
C2059 C2053 1.390 . S
C2059 C2056 1.386 . S
C2060 C2055 1.490 . S
C2060 C2062 1.395 . S
C2060 C2063 1.403 . S
H2061 C2067 0.930 . S
C2062 H2048 0.930 . S
C2062 C2060 1.395 . S
C2062 C2065 1.403 1_554 S
C2063 C2060 1.403 . S
C2063 C2064 1.524 . S
C2063 C2067 1.400 . S
C2064 H2049 0.960 . S
C2064 H2050 0.960 . S
C2064 H2051 0.960 . S
C2064 C2063 1.524 . S
C2065 C2062 1.403 1_556 S
C2065 C2066 1.394 . S
C2065 C2069 1.495 . S
C2066 C2065 1.394 . S
C2066 C2067 1.376 1_556 S
C2066 C2068 1.485 . S
C2067 H2061 0.930 . S
C2067 C2063 1.400 . S
C2067 C2066 1.376 1_554 S
C2068 C2066 1.485 . S
C2068 C2070 1.381 . S
C2068 C2074 1.383 . S
C2069 C2065 1.495 . S
C2069 H2075 0.959 . S
C2069 H2076 0.961 . S
C2069 H2077 0.960 . S
C2070 C2068 1.381 . S
C2070 C2071 1.394 . S
C2070 H2078 0.930 1_556 S
C2071 C2070 1.394 . S
C2071 C2072 1.383 . S
C2071 H2079 0.929 . S
C2072 C2071 1.383 . S
C2072 C2073 1.377 . S
C2073 H2057 0.930 . S
C2073 C2072 1.377 . S
C2073 C2074 1.379 . S
C2074 H2058 0.931 . S
C2074 C2068 1.383 . S
C2074 C2073 1.379 . S
H2075 C2069 0.959 . S
H2076 C2069 0.961 . S
H2077 C2069 0.960 . S
H2078 C2070 0.930 1_554 S
H2079 C2071 0.929 . S
H2080 C2088 0.929 . S
H2081 C2090 0.930 . S
H2082 C2092 0.930 . S
H2083 C2095 0.929 . S
H2084 C2098 0.930 . S
H2085 C2100 0.960 . S
H2086 C2100 0.960 . S
H2087 C2100 0.960 . S
C2088 H2080 0.929 . S
C2088 C2089 1.377 . S
C2088 C2090 1.384 . S
C2089 C2088 1.377 . S
C2089 C2095 1.390 . S
C2090 H2081 0.930 . S
C2090 C2088 1.384 . S
C2090 C2091 1.372 . S
C2091 C2090 1.372 . S
C2091 C2092 1.400 . S
C2091 C2096 1.490 . S
C2092 H2082 0.930 . S
C2092 C2091 1.400 . S
C2092 C2095 1.386 . S
H2093 C2109 0.930 . S
H2094 C2110 0.931 . S
C2095 H2083 0.929 . S
C2095 C2089 1.390 . S
C2095 C2092 1.386 . S
C2096 C2091 1.490 . S
C2096 C2098 1.395 . S
C2096 C2099 1.403 . S
H2097 C2103 0.930 . S
C2098 H2084 0.930 . S
C2098 C2096 1.395 . S
C2098 C2101 1.403 . S
C2099 C2096 1.403 . S
C2099 C2100 1.524 . S
C2099 C2103 1.400 . S
C2100 H2085 0.960 . S
C2100 H2086 0.960 . S
C2100 H2087 0.960 . S
C2100 C2099 1.524 . S
C2101 C2098 1.403 . S
C2101 C2102 1.392 . S
C2101 C2105 1.495 . S
C2102 C2101 1.392 . S
C2102 C2103 1.385 . S
C2102 C2104 1.478 . S
C2103 H2097 0.930 . S
C2103 C2099 1.400 . S
C2103 C2102 1.385 . S
C2104 C2102 1.478 . S
C2104 C2106 1.381 . S
C2104 C2110 1.383 . S
C2105 C2101 1.495 . S
C2105 H2111 0.959 . S
C2105 H2112 0.961 . S
C2105 H2113 0.960 . S
C2106 C2104 1.381 . S
C2106 C2107 1.394 . S
C2106 H2114 0.930 . S
C2107 C2106 1.394 . S
C2107 C2108 1.383 . S
C2107 H2115 0.929 . S
C2108 C2107 1.383 . S
C2108 C2109 1.377 . S
C2109 H2093 0.930 . S
C2109 C2108 1.377 . S
C2109 C2110 1.379 . S
C2110 H2094 0.931 . S
C2110 C2104 1.383 . S
C2110 C2109 1.379 . S
H2111 C2105 0.959 . S
H2112 C2105 0.961 . S
H2113 C2105 0.960 . S
H2114 C2106 0.930 . S
H2115 C2107 0.929 . S
H2116 C2124 0.929 . S
H2117 C2126 0.930 . S
H2118 C2128 0.930 . S
H2119 C2131 0.929 . S
H2120 C2134 0.930 . S
H2121 C2136 0.960 . S
H2122 C2136 0.960 . S
H2123 C2136 0.960 . S
C2124 H2116 0.929 . S
C2124 C2125 1.377 . S
C2124 C2126 1.384 . S
C2125 C2124 1.377 . S
C2125 C2131 1.390 . S
C2126 H2117 0.930 . S
C2126 C2124 1.384 . S
C2126 C2127 1.372 . S
C2127 C2126 1.372 . S
C2127 C2128 1.400 . S
C2127 C2132 1.490 . S
C2128 H2118 0.930 . S
C2128 C2127 1.400 . S
C2128 C2131 1.386 . S
H2129 C2145 0.930 . S
H2130 C2146 0.931 . S
C2131 H2119 0.929 . S
C2131 C2125 1.390 . S
C2131 C2128 1.386 . S
C2132 C2127 1.490 . S
C2132 C2134 1.395 . S
C2132 C2135 1.403 . S
H2133 C2139 0.930 . S
C2134 H2120 0.930 . S
C2134 C2132 1.395 . S
C2134 C2137 1.403 . S
C2135 C2132 1.403 . S
C2135 C2136 1.524 . S
C2135 C2139 1.400 . S
C2136 H2121 0.960 . S
C2136 H2122 0.960 . S
C2136 H2123 0.960 . S
C2136 C2135 1.524 . S
C2137 C2134 1.403 . S
C2137 C2138 1.392 . S
C2137 C2141 1.495 . S
C2138 C2137 1.392 . S
C2138 C2139 1.385 . S
C2138 C2140 1.478 . S
C2139 H2133 0.930 . S
C2139 C2135 1.400 . S
C2139 C2138 1.385 . S
C2140 C2138 1.478 . S
C2140 C2142 1.381 . S
C2140 C2146 1.383 . S
C2141 C2137 1.495 . S
C2141 H2147 0.959 . S
C2141 H2148 0.961 . S
C2141 H2149 0.960 . S
C2142 C2140 1.381 . S
C2142 C2143 1.394 . S
C2142 H2150 0.930 . S
C2143 C2142 1.394 . S
C2143 C2144 1.383 . S
C2143 H2151 0.929 . S
C2144 C2143 1.383 . S
C2144 C2145 1.377 . S
C2145 H2129 0.930 . S
C2145 C2144 1.377 . S
C2145 C2146 1.379 . S
C2146 H2130 0.931 . S
C2146 C2140 1.383 . S
C2146 C2145 1.379 . S
H2147 C2141 0.959 . S
H2148 C2141 0.961 . S
H2149 C2141 0.960 . S
H2150 C2142 0.930 . S
H2151 C2143 0.929 . S
H2152 C2160 0.929 . S
H2153 C2162 0.930 . S
H2154 C2164 0.930 . S
H2155 C2167 0.929 . S
H2156 C2170 0.930 . S
H2157 C2172 0.960 . S
H2158 C2172 0.960 . S
H2159 C2172 0.960 . S
C2160 H2152 0.929 . S
C2160 C2161 1.377 . S
C2160 C2162 1.384 . S
C2161 C2160 1.377 . S
C2161 C2167 1.390 . S
C2162 H2153 0.930 . S
C2162 C2160 1.384 . S
C2162 C2163 1.372 . S
C2163 C2162 1.372 . S
C2163 C2164 1.400 . S
C2163 C2168 1.490 . S
C2164 H2154 0.930 . S
C2164 C2163 1.400 . S
C2164 C2167 1.386 . S
H2165 C2181 0.930 . S
H2166 C2182 0.931 . S
C2167 H2155 0.929 . S
C2167 C2161 1.390 . S
C2167 C2164 1.386 . S
C2168 C2163 1.490 . S
C2168 C2170 1.395 . S
C2168 C2171 1.403 . S
H2169 C2175 0.930 . S
C2170 H2156 0.930 . S
C2170 C2168 1.395 . S
C2170 C2173 1.403 . S
C2171 C2168 1.403 . S
C2171 C2172 1.524 . S
C2171 C2175 1.400 . S
C2172 H2157 0.960 . S
C2172 H2158 0.960 . S
C2172 H2159 0.960 . S
C2172 C2171 1.524 . S
C2173 C2170 1.403 . S
C2173 C2174 1.392 . S
C2173 C2177 1.495 . S
C2174 C2173 1.392 . S
C2174 C2175 1.385 . S
C2174 C2176 1.478 . S
C2175 H2169 0.930 . S
C2175 C2171 1.400 . S
C2175 C2174 1.385 . S
C2176 C2174 1.478 . S
C2176 C2178 1.381 . S
C2176 C2182 1.383 . S
C2177 C2173 1.495 . S
C2177 H2183 0.959 . S
C2177 H2184 0.961 . S
C2177 H2185 0.960 . S
C2178 C2176 1.381 . S
C2178 C2179 1.394 . S
C2178 H2186 0.930 . S
C2179 C2178 1.394 . S
C2179 C2180 1.383 . S
C2179 H2187 0.929 . S
C2180 C2179 1.383 . S
C2180 C2181 1.377 . S
C2181 H2165 0.930 . S
C2181 C2180 1.377 . S
C2181 C2182 1.379 . S
C2182 H2166 0.931 . S
C2182 C2176 1.383 . S
C2182 C2181 1.379 . S
H2183 C2177 0.959 . S
H2184 C2177 0.961 . S
H2185 C2177 0.960 . S
H2186 C2178 0.930 . S
H2187 C2179 0.929 . S
H2188 C2196 0.929 . S
H2189 C2198 0.930 . S
H2190 C2200 0.930 . S
H2191 C2203 0.929 . S
H2192 C2206 0.930 . S
H2193 C2208 0.960 . S
H2194 C2208 0.960 . S
H2195 C2208 0.960 . S
C2196 H2188 0.929 . S
C2196 C2197 1.377 . S
C2196 C2198 1.384 . S
C2197 C2196 1.377 . S
C2197 C2203 1.390 . S
C2198 H2189 0.930 . S
C2198 C2196 1.384 . S
C2198 C2199 1.372 . S
C2199 C2198 1.372 . S
C2199 C2200 1.400 . S
C2199 C2204 1.490 . S
C2200 H2190 0.930 . S
C2200 C2199 1.400 . S
C2200 C2203 1.386 . S
H2201 C2217 0.930 . S
H2202 C2218 0.931 . S
C2203 H2191 0.929 . S
C2203 C2197 1.390 . S
C2203 C2200 1.386 . S
C2204 C2199 1.490 . S
C2204 C2206 1.395 . S
C2204 C2207 1.403 . S
H2205 C2211 0.930 . S
C2206 H2192 0.930 . S
C2206 C2204 1.395 . S
C2206 C2209 1.403 . S
C2207 C2204 1.403 . S
C2207 C2208 1.524 . S
C2207 C2211 1.400 . S
C2208 H2193 0.960 . S
C2208 H2194 0.960 . S
C2208 H2195 0.960 . S
C2208 C2207 1.524 . S
C2209 C2206 1.403 . S
C2209 C2210 1.392 . S
C2209 C2213 1.495 . S
C2210 C2209 1.392 . S
C2210 C2211 1.385 . S
C2210 C2212 1.478 . S
C2211 H2205 0.930 . S
C2211 C2207 1.400 . S
C2211 C2210 1.385 . S
C2212 C2210 1.478 . S
C2212 C2214 1.381 . S
C2212 C2218 1.383 . S
C2213 C2209 1.495 . S
C2213 H2219 0.959 . S
C2213 H2220 0.961 . S
C2213 H2221 0.960 . S
C2214 C2212 1.381 . S
C2214 C2215 1.394 . S
C2214 H2222 0.930 . S
C2215 C2214 1.394 . S
C2215 C2216 1.383 . S
C2215 H2223 0.929 . S
C2216 C2215 1.383 . S
C2216 C2217 1.377 . S
C2217 H2201 0.930 . S
C2217 C2216 1.377 . S
C2217 C2218 1.379 . S
C2218 H2202 0.931 . S
C2218 C2212 1.383 . S
C2218 C2217 1.379 . S
H2219 C2213 0.959 . S
H2220 C2213 0.961 . S
H2221 C2213 0.960 . S
H2222 C2214 0.930 . S
H2223 C2215 0.929 . S
H2224 C2232 0.929 . S
H2225 C2234 0.930 . S
H2226 C2236 0.930 . S
H2227 C2239 0.929 . S
H2228 C2242 0.930 . S
H2229 C2244 0.960 . S
H2230 C2244 0.960 . S
H2231 C2244 0.960 . S
C2232 H2224 0.929 . S
C2232 C2233 1.377 . S
C2232 C2234 1.384 . S
C2233 C2232 1.377 . S
C2233 C2239 1.390 . S
C2234 H2225 0.930 . S
C2234 C2232 1.384 . S
C2234 C2235 1.372 . S
C2235 C2234 1.372 . S
C2235 C2236 1.400 . S
C2235 C2240 1.490 . S
C2236 H2226 0.930 . S
C2236 C2235 1.400 . S
C2236 C2239 1.386 . S
H2237 C2253 0.930 . S
H2238 C2254 0.931 . S
C2239 H2227 0.929 . S
C2239 C2233 1.390 . S
C2239 C2236 1.386 . S
C2240 C2235 1.490 . S
C2240 C2242 1.395 1_556 S
C2240 C2243 1.403 . S
H2241 C2247 0.930 . S
C2242 H2228 0.930 . S
C2242 C2240 1.395 1_554 S
C2242 C2245 1.403 . S
C2243 C2240 1.403 . S
C2243 C2244 1.524 . S
C2243 C2247 1.400 . S
C2244 H2229 0.960 . S
C2244 H2230 0.960 . S
C2244 H2231 0.960 . S
C2244 C2243 1.524 . S
C2245 C2242 1.403 . S
C2245 C2246 1.392 . S
C2245 C2249 1.495 . S
C2246 C2245 1.392 . S
C2246 C2247 1.385 1_554 S
C2246 C2248 1.478 . S
C2247 H2241 0.930 . S
C2247 C2243 1.400 . S
C2247 C2246 1.385 1_556 S
C2248 C2246 1.478 . S
C2248 C2250 1.381 . S
C2248 C2254 1.383 . S
C2249 C2245 1.495 . S
C2249 H2255 0.959 . S
C2249 H2256 0.961 . S
C2249 H2257 0.960 . S
C2250 C2248 1.381 . S
C2250 C2251 1.394 . S
C2250 H2258 0.930 . S
C2251 C2250 1.394 . S
C2251 C2252 1.383 . S
C2251 H2259 0.929 . S
C2252 C2251 1.383 . S
C2252 C2253 1.377 . S
C2253 H2237 0.930 . S
C2253 C2252 1.377 . S
C2253 C2254 1.379 . S
C2254 H2238 0.931 . S
C2254 C2248 1.383 . S
C2254 C2253 1.379 . S
H2255 C2249 0.959 . S
H2256 C2249 0.961 . S
H2257 C2249 0.960 . S
H2258 C2250 0.930 . S
H2259 C2251 0.929 . S
H2260 C2268 0.929 . S
H2261 C2270 0.930 . S
H2262 C2272 0.930 . S
H2263 C2275 0.929 . S
H2264 C2278 0.930 . S
H2265 C2280 0.960 . S
H2266 C2280 0.960 . S
H2267 C2280 0.960 . S
C2268 H2260 0.929 . S
C2268 C2269 1.377 . S
C2268 C2270 1.384 . S
C2269 C2268 1.377 . S
C2269 C2275 1.390 . S
C2270 H2261 0.930 . S
C2270 C2268 1.384 . S
C2270 C2271 1.372 . S
C2271 C2270 1.372 . S
C2271 C2272 1.400 . S
C2271 C2276 1.490 . S
C2272 H2262 0.930 . S
C2272 C2271 1.400 . S
C2272 C2275 1.386 . S
H2273 C2289 0.930 . S
H2274 C2290 0.931 . S
C2275 H2263 0.929 . S
C2275 C2269 1.390 . S
C2275 C2272 1.386 . S
C2276 C2271 1.490 . S
C2276 C2278 1.395 . S
C2276 C2279 1.382 1_556 S
H2277 C2283 0.930 . S
C2278 H2264 0.930 . S
C2278 C2276 1.395 . S
C2278 C2281 1.403 . S
C2279 C2276 1.382 1_554 S
C2279 C2280 1.537 . S
C2279 C2283 1.407 . S
C2280 H2265 0.960 . S
C2280 H2266 0.960 . S
C2280 H2267 0.960 . S
C2280 C2279 1.537 . S
C2281 C2278 1.403 . S
C2281 C2282 1.392 . S
C2281 C2285 1.495 . S
C2282 C2281 1.392 . S
C2282 C2283 1.385 1_556 S
C2282 C2284 1.478 1_556 S
C2283 H2277 0.930 . S
C2283 C2279 1.407 . S
C2283 C2282 1.385 1_554 S
C2284 C2282 1.478 1_554 S
C2284 C2286 1.381 1_554 S
C2284 C2290 1.383 . S
C2285 C2281 1.495 . S
C2285 H2291 0.959 . S
C2285 H2292 0.961 . S
C2285 H2293 0.960 . S
C2286 C2284 1.381 1_556 S
C2286 C2287 1.394 1_556 S
C2286 H2294 0.930 . S
C2287 C2286 1.394 1_554 S
C2287 C2288 1.383 . S
C2287 H2295 0.929 . S
C2288 C2287 1.383 . S
C2288 C2289 1.377 . S
C2289 H2273 0.930 . S
C2289 C2288 1.377 . S
C2289 C2290 1.379 . S
C2290 H2274 0.931 . S
C2290 C2284 1.383 . S
C2290 C2289 1.379 . S
H2291 C2285 0.959 . S
H2292 C2285 0.961 . S
H2293 C2285 0.960 . S
H2294 C2286 0.930 . S
H2295 C2287 0.929 . S
H2296 C2304 0.929 . S
H2297 C2306 0.930 . S
H2298 C2308 0.930 . S
H2299 C2311 0.929 1_556 S
H2300 C2314 0.930 . S
H2301 C2316 0.960 . S
H2302 C2316 0.960 . S
H2303 C2316 0.960 . S
C2304 H2296 0.929 . S
C2304 C2305 1.377 . S
C2304 C2306 1.384 . S
C2305 C2304 1.377 . S
C2305 C2311 1.390 . S
C2306 H2297 0.930 . S
C2306 C2304 1.384 . S
C2306 C2307 1.372 . S
C2307 C2306 1.372 . S
C2307 C2308 1.400 1_554 S
C2307 C2312 1.497 . S
C2308 H2298 0.930 . S
C2308 C2307 1.400 1_556 S
C2308 C2311 1.386 1_556 S
H2309 C2325 0.930 . S
H2310 C2326 0.931 . S
C2311 H2299 0.929 1_554 S
C2311 C2305 1.390 . S
C2311 C2308 1.386 1_554 S
C2312 C2307 1.497 . S
C2312 C2314 1.401 . S
C2312 C2315 1.389 1_554 S
H2313 C2319 0.930 . S
C2314 H2300 0.930 . S
C2314 C2312 1.401 . S
C2314 C2317 1.403 1_554 S
C2315 C2312 1.389 1_556 S
C2315 C2316 1.524 . S
C2315 C2319 1.400 . S
C2316 H2301 0.960 . S
C2316 H2302 0.960 . S
C2316 H2303 0.960 . S
C2316 C2315 1.524 . S
C2317 C2314 1.403 1_556 S
C2317 C2318 1.393 . S
C2317 C2321 1.495 1_556 S
C2318 C2317 1.393 . S
C2318 C2319 1.385 . S
C2318 C2320 1.478 . S
C2319 H2313 0.930 . S
C2319 C2315 1.400 . S
C2319 C2318 1.385 . S
C2320 C2318 1.478 . S
C2320 C2322 1.381 . S
C2320 C2326 1.383 . S
C2321 C2317 1.495 1_554 S
C2321 H2327 0.959 . S
C2321 H2328 0.961 1_554 S
C2321 H2329 0.960 . S
C2322 C2320 1.381 . S
C2322 C2323 1.394 . S
C2322 H2330 0.930 . S
C2323 C2322 1.394 . S
C2323 C2324 1.383 . S
C2323 H2331 0.929 . S
C2324 C2323 1.383 . S
C2324 C2325 1.377 . S
C2325 H2309 0.930 . S
C2325 C2324 1.377 . S
C2325 C2326 1.379 . S
C2326 H2310 0.931 . S
C2326 C2320 1.383 . S
C2326 C2325 1.379 . S
H2327 C2321 0.959 . S
H2328 C2321 0.961 1_556 S
H2329 C2321 0.960 . S
H2330 C2322 0.930 . S
H2331 C2323 0.929 . S
H2332 C2340 0.929 . S
H2333 C2342 0.930 1_556 S
H2334 C2344 0.930 . S
H2335 C2347 0.929 . S
H2336 C2350 0.930 . S
H2337 C2352 0.960 . S
H2338 C2352 0.960 . S
H2339 C2352 0.960 . S
C2340 H2332 0.929 . S
C2340 C2341 1.377 . S
C2340 C2342 1.384 . S
C2341 C2340 1.377 . S
C2341 C2347 1.390 . S
C2342 H2333 0.930 1_554 S
C2342 C2340 1.384 . S
C2342 C2343 1.372 . S
C2343 C2342 1.372 . S
C2343 C2344 1.400 . S
C2343 C2348 1.490 1_554 S
C2344 H2334 0.930 . S
C2344 C2343 1.400 . S
C2344 C2347 1.386 . S
H2345 C2361 0.930 . S
H2346 C2362 0.931 . S
C2347 H2335 0.929 . S
C2347 C2341 1.390 . S
C2347 C2344 1.386 . S
C2348 C2343 1.490 1_556 S
C2348 C2350 1.395 1_556 S
C2348 C2351 1.403 . S
H2349 C2355 0.930 . S
C2350 H2336 0.930 . S
C2350 C2348 1.395 1_554 S
C2350 C2353 1.403 1_554 S
C2351 C2348 1.403 . S
C2351 C2352 1.524 . S
C2351 C2355 1.400 . S
C2352 H2337 0.960 . S
C2352 H2338 0.960 . S
C2352 H2339 0.960 . S
C2352 C2351 1.524 . S
C2353 C2350 1.403 1_556 S
C2353 C2354 1.392 . S
C2353 C2357 1.495 1_556 S
C2354 C2353 1.392 . S
C2354 C2355 1.385 . S
C2354 C2356 1.478 . S
C2355 H2349 0.930 . S
C2355 C2351 1.400 . S
C2355 C2354 1.385 . S
C2356 C2354 1.478 . S
C2356 C2358 1.381 . S
C2356 C2362 1.383 . S
C2357 C2353 1.495 1_554 S
C2357 H2363 0.959 . S
C2357 H2364 0.961 . S
C2357 H2365 0.960 1_554 S
C2358 C2356 1.381 . S
C2358 C2359 1.394 . S
C2358 H2366 0.930 . S
C2359 C2358 1.394 . S
C2359 C2360 1.383 . S
C2359 H2367 0.929 . S
C2360 C2359 1.383 . S
C2360 C2361 1.377 . S
C2361 H2345 0.930 . S
C2361 C2360 1.377 . S
C2361 C2362 1.379 . S
C2362 H2346 0.931 . S
C2362 C2356 1.383 . S
C2362 C2361 1.379 . S
H2363 C2357 0.959 . S
H2364 C2357 0.961 . S
H2365 C2357 0.960 1_556 S
H2366 C2358 0.930 . S
H2367 C2359 0.929 . S
C649 C2 2.350 . S
C668 C202 2.334 . S
C685 C242 2.353 . S
C704 C42 2.323 . S
C721 C82 2.346 . S
C740 C282 2.369 . S
C757 C122 2.349 . S
C776 C162 2.360 . S
C793 C543 2.346 . S
C812 C343 2.362 . S
C829 C583 2.349 . S
C848 C383 2.320 . S
C865 C423 2.352 . S
C884 C623 2.324 . S
C901 C463 2.346 . S
C920 C503 2.361 . S
C937 C17 1.806 . S
C956 C144 1.694 1_545 S
C973 C57 1.807 . S
C992 C24 1.700 . S
C1009 C97 1.808 . S
C1028 C64 1.710 . S
C1045 C137 1.807 . S
C1064 C104 1.695 1_455 S
C1081 C177 1.805 . S
C1100 C224 1.684 1_565 S
C1117 C264 1.710 . S
C1136 C217 1.798 . S
C1153 C257 1.810 . S
C1172 C304 1.734 . S
C1189 C184 1.712 1_655 S
C1208 C297 1.801 . S
C1225 C453 1.712 1_565 S
C1244 C346 1.817 . S
C1261 C386 1.811 . S
C1280 C333 1.677 . S
C1297 C426 1.804 . S
C1316 C373 1.717 . S
C1333 C466 1.811 . S
C1352 C413 1.698 1_655 S
C1369 C506 1.810 . S
C1388 C533 1.676 1_545 S
C1405 C546 1.805 . S
C1424 C573 1.740 . S
C1441 C586 1.807 . S
C1460 C613 1.685 . S
C1477 C626 1.810 . S
C1496 C493 1.677 1_455 S
C1513 C26 1.574 . S
C1532 C106 1.589 . S
C1549 C66 1.576 . S
C1568 C146 1.577 . S
C1585 C266 1.577 . S
C1604 C186 1.579 . S
C1621 C306 1.577 . S
C1640 C226 1.591 . S
C1657 C417 1.577 . S
C1676 C337 1.583 . S
C1693 C457 1.577 . S
C1712 C377 1.583 . S
C1729 C497 1.577 . S
C1748 C577 1.581 . S
C1765 C537 1.574 . S
C1784 C617 1.594 . S
C1801 C13 2.421 . S
C1820 C442 2.393 . S
C1837 C322 2.404 . S
C1856 C53 2.414 . S
C1873 C93 2.422 . S
C1892 C362 2.407 . S
C1909 C402 2.408 . S
C1928 C133 2.419 . S
C1945 C522 2.408 . S
C1964 C173 2.421 . S
C1981 C213 2.421 . S
C2000 C562 2.401 . S
C2017 C602 2.408 . S
C2036 C253 2.421 . S
C2053 C293 2.421 . S
C2072 C482 2.399 . S
C2089 C344 2.423 . S
C2108 C143 2.405 . S
C2125 C384 2.421 . S
C2144 C23 2.395 . S
C2161 C63 2.406 . S
C2180 C424 2.422 . S
C2197 C464 2.421 . S
C2216 C103 2.394 . S
C2233 C504 2.422 . S
C2252 C223 2.393 . S
C2269 C544 2.421 . S
C2288 C263 2.408 . S
C2305 C303 2.406 . S
C2324 C584 2.422 . S
C2341 C183 2.408 . S
C2360 C624 2.417 . S
