# Generated by pormake.
# Topology gis, (4)-cn, num edge types: 1
# Building blocks:
#     Node 0, Type 0, BuildingBlock: ICAMEG_clean_sbu_1, # of connection points: 4
#     Node 1, Type 0, BuildingBlock: ICAMEG_clean_sbu_1, # of connection points: 4
#     Node 2, Type 0, BuildingBlock: ICAMEG_clean_sbu_1, # of connection points: 4
#     Node 3, Type 0, BuildingBlock: ICAMEG_clean_sbu_1, # of connection points: 4
#     Node 4, Type 0, BuildingBlock: ICAMEG_clean_sbu_1, # of connection points: 4
#     Node 5, Type 0, BuildingBlock: ICAMEG_clean_sbu_1, # of connection points: 4
#     Node 6, Type 0, BuildingBlock: ICAMEG_clean_sbu_1, # of connection points: 4
#     Node 7, Type 0, BuildingBlock: ICAMEG_clean_sbu_1, # of connection points: 4
#     Node 8, Type 0, BuildingBlock: ICAMEG_clean_sbu_1, # of connection points: 4
#     Node 9, Type 0, BuildingBlock: ICAMEG_clean_sbu_1, # of connection points: 4
#     Node 10, Type 0, BuildingBlock: ICAMEG_clean_sbu_1, # of connection points: 4
#     Node 11, Type 0, BuildingBlock: ICAMEG_clean_sbu_1, # of connection points: 4
#     Node 12, Type 0, BuildingBlock: ICAMEG_clean_sbu_1, # of connection points: 4
#     Node 13, Type 0, BuildingBlock: ICAMEG_clean_sbu_1, # of connection points: 4
#     Node 14, Type 0, BuildingBlock: ICAMEG_clean_sbu_1, # of connection points: 4
#     Node 15, Type 0, BuildingBlock: ICAMEG_clean_sbu_1, # of connection points: 4
#     Edge 16, Type (0, 0), BuildingBlock: TEMPAE_clean_linker_10, # of connection points: 2
#     Edge 17, Type (0, 0), BuildingBlock: TEMPAE_clean_linker_10, # of connection points: 2
#     Edge 18, Type (0, 0), BuildingBlock: TEMPAE_clean_linker_10, # of connection points: 2
#     Edge 19, Type (0, 0), BuildingBlock: TEMPAE_clean_linker_10, # of connection points: 2
#     Edge 20, Type (0, 0), BuildingBlock: TEMPAE_clean_linker_10, # of connection points: 2
#     Edge 21, Type (0, 0), BuildingBlock: TEMPAE_clean_linker_10, # of connection points: 2
#     Edge 22, Type (0, 0), BuildingBlock: TEMPAE_clean_linker_10, # of connection points: 2
#     Edge 23, Type (0, 0), BuildingBlock: TEMPAE_clean_linker_10, # of connection points: 2
#     Edge 24, Type (0, 0), BuildingBlock: TEMPAE_clean_linker_10, # of connection points: 2
#     Edge 25, Type (0, 0), BuildingBlock: TEMPAE_clean_linker_10, # of connection points: 2
#     Edge 26, Type (0, 0), BuildingBlock: TEMPAE_clean_linker_10, # of connection points: 2
#     Edge 27, Type (0, 0), BuildingBlock: TEMPAE_clean_linker_10, # of connection points: 2
#     Edge 28, Type (0, 0), BuildingBlock: TEMPAE_clean_linker_10, # of connection points: 2
#     Edge 29, Type (0, 0), BuildingBlock: TEMPAE_clean_linker_10, # of connection points: 2
#     Edge 30, Type (0, 0), BuildingBlock: TEMPAE_clean_linker_10, # of connection points: 2
#     Edge 31, Type (0, 0), BuildingBlock: TEMPAE_clean_linker_10, # of connection points: 2
#     Edge 32, Type (0, 0), BuildingBlock: TEMPAE_clean_linker_10, # of connection points: 2
#     Edge 33, Type (0, 0), BuildingBlock: TEMPAE_clean_linker_10, # of connection points: 2
#     Edge 34, Type (0, 0), BuildingBlock: TEMPAE_clean_linker_10, # of connection points: 2
#     Edge 35, Type (0, 0), BuildingBlock: TEMPAE_clean_linker_10, # of connection points: 2
#     Edge 36, Type (0, 0), BuildingBlock: TEMPAE_clean_linker_10, # of connection points: 2
#     Edge 37, Type (0, 0), BuildingBlock: TEMPAE_clean_linker_10, # of connection points: 2
#     Edge 38, Type (0, 0), BuildingBlock: TEMPAE_clean_linker_10, # of connection points: 2
#     Edge 39, Type (0, 0), BuildingBlock: TEMPAE_clean_linker_10, # of connection points: 2
#     Edge 40, Type (0, 0), BuildingBlock: TEMPAE_clean_linker_10, # of connection points: 2
#     Edge 41, Type (0, 0), BuildingBlock: TEMPAE_clean_linker_10, # of connection points: 2
#     Edge 42, Type (0, 0), BuildingBlock: TEMPAE_clean_linker_10, # of connection points: 2
#     Edge 43, Type (0, 0), BuildingBlock: TEMPAE_clean_linker_10, # of connection points: 2
#     Edge 44, Type (0, 0), BuildingBlock: TEMPAE_clean_linker_10, # of connection points: 2
#     Edge 45, Type (0, 0), BuildingBlock: TEMPAE_clean_linker_10, # of connection points: 2
#     Edge 46, Type (0, 0), BuildingBlock: TEMPAE_clean_linker_10, # of connection points: 2
#     Edge 47, Type (0, 0), BuildingBlock: TEMPAE_clean_linker_10, # of connection points: 2
# Relax obj value: 0.027
# Max RMSD: 0.089
# Mean RMSD: 0.088
data_MOF--net-gis--node1-ICAMEG_clean_sbu_1--edge1-TEMPAE_clean_linker_10
_symmetry_space_group_name_H-M    P1
_symmetry_Int_Tables_number       1
_symmetry_cell_setting            triclinic
loop_
_symmetry_equiv_pos_as_xyz
'x, y, z'
_cell_length_a     58.669947
_cell_length_b     58.625054
_cell_length_c     36.088841
_cell_angle_alpha  90.085417
_cell_angle_beta   90.062492
_cell_angle_gamma 89.998464
loop_
_atom_site_label
_atom_site_type_symbol
_atom_site_fract_x
_atom_site_fract_y
_atom_site_fract_z
_atom_type_partial_charge
Co0 Co 0.13007 0.62452 0.07955 0.0
Co1 Co 0.12639 0.61901 0.17483 0.0
O2 O 0.13896 0.61079 0.12659 0.0
C3 C 0.11867 0.5758 0.07084 0.0
O4 O 0.10889 0.57712 0.10345 0.0
C5 C 0.17553 0.62906 0.18131 0.0
O6 O 0.1738 0.63939 0.14919 0.0
O7 O 0.12827 0.65233 0.16353 0.0
O8 O 0.13204 0.65563 0.10164 0.0
H9 H 0.07422 0.66071 0.26201 0.0
H10 H 0.16869 0.59192 0.08261 0.0
O11 O 0.12807 0.59335 0.05674 0.0
H12 H 0.20127 0.66356 0.03463 0.0
H13 H 0.13099 0.63179 0.94059 0.0
H14 H 0.09926 0.66215 0.05715 0.0
H15 H 0.16029 0.66082 0.04912 0.0
H16 H 0.14216 0.61523 0.00075 0.0
O17 O 0.15803 0.61991 0.196 0.0
H18 H 0.08992 0.65009 0.20098 0.0
H19 H 0.13704 0.60511 0.25236 0.0
H20 H 0.08774 0.67933 0.99764 0.0
H21 H 0.20973 0.59382 0.06813 0.0
H22 H 0.10365 0.66413 0.93881 0.0
H23 H 0.22628 0.62987 0.0441 0.0
O24 O 0.097 0.62306 0.09258 0.0
H25 H 0.15552 0.53846 0.17987 0.0
H26 H 0.09019 0.5889 0.20583 0.0
H27 H 0.08686 0.54766 0.2181 0.0
H28 H 0.1197 0.52214 0.20513 0.0
H29 H 0.15803 0.57977 0.16767 0.0
H30 H 0.12197 0.61536 0.31398 0.0
H31 H 0.09027 0.64328 0.31906 0.0
O32 O 0.09482 0.61812 0.15438 0.0
C33 C 0.13061 0.66415 0.13409 0.0
C34 C 0.08799 0.64847 0.26015 0.0
C35 C 0.11481 0.62304 0.28933 0.0
N36 N 0.11426 0.62689 0.22312 0.0
C37 C 0.0969 0.64235 0.22567 0.0
C38 C 0.12331 0.61734 0.25438 0.0
C39 C 0.09702 0.6387 0.29215 0.0
C40 C 0.17573 0.6076 0.07184 0.0
N41 N 0.16211 0.62622 0.06662 0.0
C42 C 0.199 0.6086 0.06382 0.0
C43 C 0.20828 0.62884 0.05038 0.0
C44 C 0.19426 0.64775 0.04509 0.0
C45 C 0.17108 0.64612 0.05343 0.0
C46 C 0.12397 0.63858 0.96604 0.0
C47 C 0.10635 0.65554 0.03167 0.0
C48 C 0.13019 0.62925 0.00017 0.0
N49 N 0.12147 0.63782 0.03241 0.0
C50 C 0.09972 0.66529 0.99806 0.0
C51 C 0.10864 0.65674 0.96506 0.0
C52 C 0.0857 0.62038 0.12249 0.0
C53 C 0.14111 0.54941 0.1857 0.0
C54 C 0.10452 0.57789 0.19999 0.0
C55 C 0.10255 0.55457 0.20709 0.0
C56 C 0.12099 0.54026 0.19983 0.0
N57 N 0.12429 0.58673 0.18609 0.0
C58 C 0.14245 0.57283 0.17897 0.0
Co59 Co 0.62727 0.87805 0.42049 0.0
Co60 Co 0.62862 0.8804 0.32479 0.0
O61 O 0.63973 0.8896 0.37381 0.0
C62 C 0.63496 0.92859 0.43124 0.0
O63 O 0.64275 0.9306 0.39742 0.0
C64 C 0.67784 0.87092 0.32141 0.0
O65 O 0.67536 0.85985 0.35275 0.0
O66 O 0.63178 0.84774 0.33779 0.0
O67 O 0.62447 0.84658 0.39888 0.0
H68 H 0.58116 0.83476 0.2355 0.0
H69 H 0.67229 0.90213 0.41956 0.0
O70 O 0.62896 0.90925 0.44413 0.0
H71 H 0.68763 0.8266 0.47369 0.0
H72 H 0.62196 0.87089 0.55927 0.0
H73 H 0.58908 0.84713 0.43945 0.0
H74 H 0.64871 0.8372 0.45471 0.0
H75 H 0.63814 0.88499 0.50051 0.0
O76 O 0.66073 0.88042 0.3061 0.0
H77 H 0.59481 0.84681 0.29718 0.0
H78 H 0.64044 0.89397 0.24759 0.0
H79 H 0.57251 0.83245 0.49751 0.0
H80 H 0.71131 0.89236 0.43854 0.0
H81 H 0.58897 0.84434 0.55797 0.0
H82 H 0.71927 0.85431 0.46578 0.0
O83 O 0.59595 0.88565 0.40417 0.0
H84 H 0.65587 0.96125 0.31045 0.0
H85 H 0.59105 0.90874 0.29329 0.0
H86 H 0.5867 0.94926 0.27675 0.0
H87 H 0.61927 0.97583 0.28519 0.0
H88 H 0.65937 0.92068 0.3273 0.0
H89 H 0.62744 0.88229 0.18536 0.0
H90 H 0.59751 0.85256 0.17904 0.0
O91 O 0.59628 0.87993 0.34257 0.0
C92 C 0.62802 0.8369 0.3677 0.0
C93 C 0.59414 0.84781 0.23789 0.0
C94 C 0.62013 0.87447 0.20975 0.0
N95 N 0.61819 0.87126 0.27598 0.0
C96 C 0.60186 0.85476 0.27274 0.0
C97 C 0.62744 0.88099 0.24506 0.0
C98 C 0.60334 0.85778 0.20623 0.0
C99 C 0.67538 0.88574 0.43198 0.0
N100 N 0.65801 0.8705 0.43665 0.0
C101 C 0.69763 0.88021 0.44243 0.0
C102 C 0.7021 0.85884 0.45762 0.0
C103 C 0.68436 0.84329 0.46207 0.0
C104 C 0.66234 0.84942 0.45125 0.0
C105 C 0.61467 0.86554 0.5331 0.0
C106 C 0.59644 0.85224 0.46566 0.0
C107 C 0.62373 0.8735 0.49975 0.0
N108 N 0.6147 0.8667 0.4666 0.0
C109 C 0.58694 0.84394 0.49843 0.0
C110 C 0.59617 0.85064 0.53235 0.0
C111 C 0.58592 0.88371 0.37304 0.0
C112 C 0.64154 0.94985 0.30668 0.0
C113 C 0.60522 0.92022 0.29758 0.0
C114 C 0.6027 0.94314 0.2879 0.0
C115 C 0.62099 0.95803 0.29256 0.0
N116 N 0.62539 0.91234 0.31164 0.0
C117 C 0.64344 0.92682 0.31604 0.0
Co118 Co 0.3744 0.37949 0.67517 0.0
Co119 Co 0.36881 0.37706 0.57977 0.0
O120 O 0.36096 0.38933 0.62832 0.0
C121 C 0.32541 0.37054 0.68423 0.0
O122 O 0.3264 0.36039 0.65183 0.0
C123 C 0.37889 0.42619 0.57276 0.0
O124 O 0.39001 0.42446 0.60421 0.0
O125 O 0.40208 0.37971 0.5906 0.0
O126 O 0.40547 0.37903 0.65283 0.0
H127 H 0.4107 0.32597 0.49111 0.0
H128 H 0.34433 0.42015 0.67342 0.0
O129 O 0.34328 0.37949 0.69816 0.0
H130 H 0.41861 0.44807 0.71869 0.0
H131 H 0.38242 0.3804 0.81403 0.0
H132 H 0.40981 0.34606 0.6975 0.0
H133 H 0.41306 0.40733 0.70406 0.0
H134 H 0.36639 0.39245 0.75393 0.0
O135 O 0.36904 0.40877 0.55893 0.0
H136 H 0.40041 0.34135 0.55254 0.0
H137 H 0.35398 0.38766 0.50264 0.0
H138 H 0.42644 0.33361 0.7569 0.0
H139 H 0.34908 0.461 0.68802 0.0
H140 H 0.41274 0.35083 0.81574 0.0
H141 H 0.38647 0.4752 0.71071 0.0
O142 O 0.37081 0.34672 0.66201 0.0
H143 H 0.28783 0.40485 0.57678 0.0
H144 H 0.33907 0.34047 0.54864 0.0
H145 H 0.29781 0.33648 0.53718 0.0
H146 H 0.27189 0.36885 0.55126 0.0
H147 H 0.32919 0.40799 0.58817 0.0
H148 H 0.36391 0.37293 0.44065 0.0
H149 H 0.39239 0.34179 0.43463 0.0
O150 O 0.3686 0.34521 0.59971 0.0
C151 C 0.41391 0.37949 0.62029 0.0
C152 C 0.39821 0.33949 0.49338 0.0
C153 C 0.37197 0.36587 0.46506 0.0
N154 N 0.37649 0.36524 0.53116 0.0
C155 C 0.39227 0.34821 0.52809 0.0
C156 C 0.36646 0.37417 0.50022 0.0
C157 C 0.38795 0.34839 0.4617 0.0
C158 C 0.36058 0.42617 0.68364 0.0
N159 N 0.37835 0.41136 0.6881 0.0
C160 C 0.3632 0.44933 0.69171 0.0
C161 C 0.38419 0.4573 0.7044 0.0
C162 C 0.40223 0.44208 0.70886 0.0
C163 C 0.399 0.41904 0.70048 0.0
C164 C 0.38857 0.3728 0.78858 0.0
C165 C 0.40387 0.35372 0.72295 0.0
C166 C 0.37952 0.37952 0.75448 0.0
N167 N 0.38729 0.37008 0.72223 0.0
C168 C 0.4133 0.34656 0.75652 0.0
C169 C 0.40558 0.35621 0.78952 0.0
C170 C 0.3693 0.33576 0.63155 0.0
C171 C 0.29895 0.39064 0.57049 0.0
C172 C 0.32788 0.35457 0.55499 0.0
C173 C 0.30455 0.35225 0.54833 0.0
C174 C 0.29001 0.37043 0.55621 0.0
N175 N 0.33651 0.37443 0.56907 0.0
C176 C 0.32239 0.39235 0.57676 0.0
Co177 Co 0.87398 0.11769 0.82946 0.0
Co178 Co 0.8698 0.12439 0.92452 0.0
O179 O 0.86098 0.11019 0.87769 0.0
C180 C 0.82524 0.12897 0.82199 0.0
O181 O 0.82699 0.13927 0.85417 0.0
C182 C 0.88083 0.07574 0.9344 0.0
O183 O 0.89033 0.07655 0.90153 0.0
O184 O 0.90291 0.12264 0.91185 0.0
O185 O 0.90535 0.11632 0.8504 0.0
H186 H 0.91205 0.17996 0.00541 0.0
H187 H 0.84139 0.07928 0.83668 0.0
O188 O 0.84253 0.11917 0.80776 0.0
H189 H 0.91218 0.04506 0.78835 0.0
H190 H 0.87917 0.11261 0.69047 0.0
H191 H 0.91125 0.14776 0.80327 0.0
H192 H 0.90973 0.08647 0.79984 0.0
H193 H 0.86351 0.10328 0.75204 0.0
O194 O 0.87164 0.09353 0.94814 0.0
H195 H 0.90069 0.16213 0.94625 0.0
H196 H 0.85738 0.11606 0.00343 0.0
H197 H 0.92754 0.15744 0.7423 0.0
H198 H 0.84301 0.03782 0.82524 0.0
H199 H 0.91147 0.13981 0.68535 0.0
H200 H 0.87863 0.02044 0.80104 0.0
O201 O 0.87276 0.15114 0.84004 0.0
H202 H 0.78998 0.09414 0.93595 0.0
H203 H 0.83962 0.16114 0.95377 0.0
H204 H 0.7986 0.16421 0.96779 0.0
H205 H 0.77348 0.13052 0.95893 0.0
H206 H 0.83106 0.09191 0.92191 0.0
H207 H 0.8684 0.13328 0.06326 0.0
H208 H 0.89586 0.16553 0.06447 0.0
O209 O 0.86804 0.15519 0.90165 0.0
C210 C 0.91432 0.11917 0.88227 0.0
C211 C 0.90002 0.16597 0.00524 0.0
C212 C 0.87554 0.13974 0.03771 0.0
N213 N 0.87829 0.13819 0.97139 0.0
C214 C 0.89348 0.15585 0.97182 0.0
C215 C 0.86941 0.13003 0.00377 0.0
C216 C 0.89095 0.15784 0.03837 0.0
C217 C 0.85688 0.07187 0.82583 0.0
N218 N 0.87542 0.08528 0.81885 0.0
C219 C 0.85772 0.04837 0.81954 0.0
C220 C 0.87773 0.03863 0.806 0.0
C221 C 0.89656 0.05243 0.79889 0.0
C222 C 0.89509 0.07586 0.80555 0.0
C223 C 0.88634 0.12037 0.71508 0.0
C224 C 0.90426 0.13992 0.77863 0.0
C225 C 0.87751 0.1152 0.75 0.0
N226 N 0.88657 0.12485 0.78121 0.0
C227 C 0.91351 0.14551 0.74418 0.0
C228 C 0.90447 0.13563 0.71224 0.0
C229 C 0.87008 0.1633 0.86908 0.0
C230 C 0.80075 0.10892 0.93999 0.0
C231 C 0.82879 0.14644 0.94972 0.0
C232 C 0.80558 0.14826 0.9578 0.0
C233 C 0.7915 0.12935 0.95284 0.0
N234 N 0.83773 0.12636 0.93711 0.0
C235 C 0.82404 0.10774 0.93222 0.0
Co236 Co 0.13085 0.37722 0.92511 0.0
Co237 Co 0.12732 0.38171 0.82966 0.0
O238 O 0.13989 0.39038 0.87773 0.0
C239 C 0.11958 0.42607 0.93238 0.0
O240 O 0.10985 0.42445 0.89972 0.0
C241 C 0.17636 0.37118 0.82346 0.0
O242 O 0.17464 0.36104 0.85574 0.0
O243 O 0.12901 0.34852 0.84198 0.0
O244 O 0.13271 0.34587 0.90397 0.0
H245 H 0.07504 0.33925 0.74343 0.0
H246 H 0.16962 0.40962 0.92136 0.0
O247 O 0.12894 0.40864 0.94699 0.0
H248 H 0.20181 0.33841 0.97177 0.0
H249 H 0.13152 0.37152 0.06427 0.0
H250 H 0.09984 0.33999 0.94839 0.0
H251 H 0.16087 0.34115 0.95686 0.0
H252 H 0.14286 0.38734 0.00372 0.0
O253 O 0.15892 0.38042 0.80869 0.0
H254 H 0.09071 0.35051 0.80422 0.0
H255 H 0.13809 0.39466 0.75176 0.0
H256 H 0.08815 0.32354 0.00831 0.0
H257 H 0.21062 0.40771 0.93623 0.0
H258 H 0.10403 0.33933 0.0668 0.0
H259 H 0.22698 0.37187 0.9615 0.0
O260 O 0.09781 0.37866 0.91179 0.0
H261 H 0.1569 0.46201 0.82227 0.0
H262 H 0.09131 0.41163 0.79749 0.0
H263 H 0.08823 0.45273 0.78384 0.0
H264 H 0.12121 0.47822 0.79621 0.0
H265 H 0.15914 0.42084 0.83585 0.0
H266 H 0.12305 0.38376 0.69038 0.0
H267 H 0.09124 0.35592 0.68596 0.0
O268 O 0.09577 0.38297 0.84985 0.0
C269 C 0.13124 0.33701 0.87177 0.0
C270 C 0.08885 0.35145 0.745 0.0
C271 C 0.11582 0.3764 0.71522 0.0
N272 N 0.11518 0.37333 0.78153 0.0
C273 C 0.09775 0.35793 0.77934 0.0
C274 C 0.12431 0.38247 0.75004 0.0
C275 C 0.09797 0.36079 0.71276 0.0
C276 C 0.17658 0.39403 0.93265 0.0
N277 N 0.16286 0.37553 0.93833 0.0
C278 C 0.19982 0.39302 0.94089 0.0
C279 C 0.20899 0.3729 0.95503 0.0
C280 C 0.19489 0.35412 0.96078 0.0
C281 C 0.17173 0.35575 0.95219 0.0
C282 C 0.12451 0.36447 0.03897 0.0
C283 C 0.10692 0.34686 0.97372 0.0
C284 C 0.13083 0.37339 0.00462 0.0
N285 N 0.12213 0.36449 0.97257 0.0
C286 C 0.10019 0.33752 0.00756 0.0
C287 C 0.10909 0.3464 0.04037 0.0
C288 C 0.08659 0.38108 0.88171 0.0
C289 C 0.14243 0.45107 0.81671 0.0
C290 C 0.10569 0.42263 0.80309 0.0
C291 C 0.10387 0.44588 0.7952 0.0
C292 C 0.12239 0.46016 0.80212 0.0
N293 N 0.12539 0.41385 0.81742 0.0
C294 C 0.14363 0.42774 0.82422 0.0
Co295 Co 0.86989 0.878 0.0795 0.0
Co296 Co 0.87634 0.87909 0.1748 0.0
O297 O 0.86261 0.8897 0.12864 0.0
C298 C 0.88069 0.92697 0.07434 0.0
O299 O 0.89211 0.9246 0.1054 0.0
C300 C 0.82739 0.87043 0.18427 0.0
O301 O 0.82811 0.86083 0.15142 0.0
O302 O 0.87241 0.84655 0.16041 0.0
O303 O 0.86934 0.84593 0.09817 0.0
H304 H 0.92846 0.83147 0.25369 0.0
H305 H 0.83083 0.90942 0.09001 0.0
O306 O 0.87046 0.90994 0.06 0.0
H307 H 0.79793 0.83926 0.03663 0.0
H308 H 0.86396 0.87611 0.94036 0.0
H309 H 0.9007 0.84221 0.05022 0.0
H310 H 0.83934 0.8424 0.04743 0.0
H311 H 0.85468 0.89001 0.00312 0.0
O312 O 0.84541 0.87896 0.19836 0.0
H313 H 0.91147 0.84492 0.19513 0.0
H314 H 0.8691 0.89103 0.25417 0.0
H315 H 0.91033 0.82764 0.98799 0.0
H316 H 0.78935 0.90712 0.07931 0.0
H317 H 0.8919 0.84464 0.93252 0.0
H318 H 0.77264 0.8718 0.0526 0.0
O319 O 0.90326 0.87993 0.08972 0.0
H320 H 0.85167 0.96055 0.19137 0.0
H321 H 0.91539 0.90624 0.20403 0.0
H322 H 0.92132 0.9467 0.22022 0.0
H323 H 0.88931 0.97416 0.21395 0.0
H324 H 0.84654 0.91997 0.17521 0.0
H325 H 0.88548 0.87797 0.31346 0.0
H326 H 0.91545 0.84804 0.31344 0.0
O327 O 0.90721 0.87879 0.15182 0.0
C328 C 0.87037 0.83604 0.12961 0.0
C329 C 0.91548 0.84459 0.25407 0.0
C330 C 0.89133 0.87066 0.28761 0.0
N331 N 0.8895 0.86889 0.22121 0.0
C332 C 0.90586 0.85232 0.22098 0.0
C333 C 0.88209 0.87796 0.25397 0.0
C334 C 0.90815 0.85387 0.28757 0.0
C335 C 0.8237 0.89407 0.07809 0.0
N336 N 0.83748 0.87606 0.06937 0.0
C337 C 0.8002 0.89284 0.07221 0.0
C338 C 0.79083 0.873 0.05726 0.0
C339 C 0.80501 0.85474 0.04832 0.0
C340 C 0.82842 0.85657 0.05462 0.0
C341 C 0.87207 0.86854 0.96432 0.0
C342 C 0.8925 0.84957 0.02622 0.0
C343 C 0.86692 0.87637 0.99991 0.0
N344 N 0.87701 0.86679 0.03029 0.0
C345 C 0.89807 0.84131 0.99105 0.0
C346 C 0.88774 0.85087 0.95994 0.0
C347 C 0.91538 0.8794 0.1191 0.0
C348 C 0.86573 0.94874 0.19433 0.0
C349 C 0.90138 0.91809 0.20119 0.0
C350 C 0.90484 0.94097 0.21045 0.0
C351 C 0.88686 0.95637 0.20695 0.0
N352 N 0.8806 0.91074 0.1889 0.0
C353 C 0.8629 0.92573 0.18536 0.0
Co354 Co 0.37465 0.61962 0.327 0.0
Co355 Co 0.36965 0.62366 0.42232 0.0
O356 O 0.36153 0.61058 0.37443 0.0
C357 C 0.3256 0.62855 0.3184 0.0
O358 O 0.32691 0.63914 0.3504 0.0
C359 C 0.37984 0.57467 0.43103 0.0
O360 O 0.39077 0.576 0.39939 0.0
O361 O 0.40285 0.62102 0.41115 0.0
O362 O 0.40592 0.62038 0.34891 0.0
H363 H 0.41192 0.67628 0.50824 0.0
H364 H 0.34452 0.57906 0.33093 0.0
O365 O 0.34333 0.61932 0.30448 0.0
H366 H 0.41845 0.55027 0.28578 0.0
H367 H 0.38174 0.61635 0.18813 0.0
H368 H 0.40978 0.65276 0.30267 0.0
H369 H 0.41306 0.59124 0.29876 0.0
H370 H 0.36614 0.60531 0.24898 0.0
O371 O 0.37012 0.59228 0.44444 0.0
H372 H 0.40127 0.65992 0.4476 0.0
H373 H 0.35538 0.61421 0.50006 0.0
H374 H 0.42601 0.66421 0.24249 0.0
H375 H 0.34911 0.53799 0.31801 0.0
H376 H 0.41197 0.64595 0.18465 0.0
H377 H 0.38631 0.52334 0.29538 0.0
O378 O 0.3712 0.6526 0.33881 0.0
H379 H 0.2888 0.59561 0.42754 0.0
H380 H 0.33996 0.66059 0.45238 0.0
H381 H 0.29876 0.6646 0.46425 0.0
H382 H 0.27288 0.63193 0.45183 0.0
H383 H 0.33009 0.59246 0.4157 0.0
H384 H 0.36568 0.62993 0.56129 0.0
H385 H 0.39406 0.66126 0.56562 0.0
O386 O 0.36919 0.65518 0.40102 0.0
C387 C 0.41457 0.62064 0.38138 0.0
C388 C 0.39947 0.66269 0.5067 0.0
C389 C 0.37354 0.63665 0.53648 0.0
N390 N 0.37759 0.63628 0.4703 0.0
C391 C 0.39332 0.65341 0.47245 0.0
C392 C 0.36782 0.62778 0.50175 0.0
C393 C 0.38946 0.65424 0.53889 0.0
C394 C 0.36069 0.57285 0.32073 0.0
N395 N 0.37846 0.58754 0.31539 0.0
C396 C 0.36322 0.54956 0.31361 0.0
C397 C 0.3841 0.54135 0.30096 0.0
C398 C 0.40215 0.55645 0.29559 0.0
C399 C 0.39901 0.57962 0.30304 0.0
C400 C 0.38804 0.6244 0.21314 0.0
C401 C 0.40372 0.64463 0.27766 0.0
C402 C 0.37924 0.61824 0.24766 0.0
N403 N 0.38721 0.62824 0.27936 0.0
C404 C 0.41291 0.65123 0.24365 0.0
C405 C 0.40501 0.641 0.21121 0.0
C406 C 0.36979 0.66408 0.36876 0.0
C407 C 0.2999 0.60996 0.4331 0.0
C408 C 0.32879 0.64636 0.44674 0.0
C409 C 0.30549 0.64869 0.45364 0.0
C410 C 0.29098 0.63035 0.44669 0.0
N411 N 0.33741 0.62633 0.43334 0.0
C412 C 0.3233 0.60824 0.42657 0.0
Co413 Co 0.6264 0.122 0.67761 0.0
Co414 Co 0.63003 0.12415 0.58186 0.0
O415 O 0.63928 0.11235 0.63015 0.0
C416 C 0.67542 0.13188 0.68463 0.0
O417 O 0.67387 0.14204 0.65235 0.0
C418 C 0.62299 0.07439 0.57711 0.0
O419 O 0.61525 0.07518 0.61117 0.0
O420 O 0.59719 0.12065 0.59446 0.0
O421 O 0.59489 0.12155 0.65675 0.0
H422 H 0.58484 0.17393 0.49566 0.0
H423 H 0.65756 0.08216 0.67522 0.0
O424 O 0.65786 0.1228 0.69922 0.0
H425 H 0.58481 0.05249 0.72362 0.0
H426 H 0.6208 0.12146 0.81678 0.0
H427 H 0.59081 0.15486 0.70129 0.0
H428 H 0.58897 0.09326 0.70825 0.0
H429 H 0.63603 0.10949 0.75608 0.0
O430 O 0.62978 0.09245 0.56097 0.0
H431 H 0.59701 0.15903 0.55647 0.0
H432 H 0.64326 0.11365 0.50391 0.0
H433 H 0.57495 0.16721 0.76131 0.0
H434 H 0.65419 0.04131 0.69054 0.0
H435 H 0.58997 0.15046 0.81963 0.0
H436 H 0.61758 0.02622 0.71479 0.0
O437 O 0.629 0.15478 0.66408 0.0
H438 H 0.71148 0.09815 0.57451 0.0
H439 H 0.65821 0.16125 0.5488 0.0
H440 H 0.69909 0.16607 0.53496 0.0
H441 H 0.72603 0.13435 0.54781 0.0
H442 H 0.67049 0.09416 0.58826 0.0
H443 H 0.63145 0.1279 0.44252 0.0
H444 H 0.60211 0.15832 0.43815 0.0
O445 O 0.63007 0.15604 0.60169 0.0
C446 C 0.58588 0.12062 0.62461 0.0
C447 C 0.5977 0.16073 0.49721 0.0
C448 C 0.62384 0.13487 0.46738 0.0
N449 N 0.62095 0.13565 0.53372 0.0
C450 C 0.6047 0.15228 0.53156 0.0
C451 C 0.63042 0.12684 0.5022 0.0
C452 C 0.60738 0.15195 0.46495 0.0
C453 C 0.64165 0.07577 0.68617 0.0
N454 N 0.62352 0.0901 0.691 0.0
C455 C 0.63982 0.05261 0.69463 0.0
C456 C 0.61926 0.04414 0.70817 0.0
C457 C 0.60086 0.05887 0.7131 0.0
C458 C 0.6033 0.08193 0.70427 0.0
C459 C 0.61407 0.12884 0.79156 0.0
C460 C 0.5973 0.14738 0.72651 0.0
C461 C 0.62265 0.12216 0.75713 0.0
N462 N 0.61415 0.13132 0.72517 0.0
C463 C 0.58832 0.15449 0.76044 0.0
C464 C 0.59677 0.14511 0.79314 0.0
C465 C 0.62981 0.1656 0.63349 0.0
C466 C 0.69991 0.11208 0.56873 0.0
C467 C 0.66985 0.14741 0.5546 0.0
C468 C 0.69296 0.15021 0.5466 0.0
C469 C 0.70806 0.13241 0.55379 0.0
N470 N 0.66199 0.12744 0.5693 0.0
C471 C 0.67667 0.10989 0.57634 0.0
Co472 Co 0.87149 0.37553 0.92023 0.0
Co473 Co 0.87395 0.37858 0.8249 0.0
O474 O 0.86166 0.38795 0.87275 0.0
C475 C 0.8787 0.4249 0.92853 0.0
O476 O 0.88952 0.42391 0.89674 0.0
C477 C 0.82465 0.37059 0.81743 0.0
O478 O 0.82607 0.35958 0.849 0.0
O479 O 0.86948 0.34587 0.83705 0.0
O480 O 0.87342 0.34401 0.89903 0.0
H481 H 0.9228 0.33215 0.73894 0.0
H482 H 0.82962 0.40375 0.9165 0.0
O483 O 0.86993 0.40691 0.94226 0.0
H484 H 0.80461 0.32892 0.96367 0.0
H485 H 0.86974 0.36906 0.05925 0.0
H486 H 0.90658 0.34231 0.94437 0.0
H487 H 0.84515 0.33605 0.94983 0.0
H488 H 0.85743 0.38379 0.99842 0.0
O489 O 0.84239 0.37972 0.80346 0.0
H490 H 0.90766 0.34425 0.79961 0.0
H491 H 0.8649 0.39294 0.74711 0.0
H492 H 0.91929 0.32695 0.00456 0.0
H493 H 0.78893 0.39742 0.9303 0.0
H494 H 0.90082 0.34035 0.06255 0.0
H495 H 0.7762 0.35976 0.95394 0.0
O496 O 0.90402 0.38067 0.90763 0.0
H497 H 0.85058 0.46087 0.8166 0.0
H498 H 0.91274 0.4058 0.79508 0.0
H499 H 0.91908 0.44658 0.78181 0.0
H500 H 0.88785 0.47441 0.79255 0.0
H501 H 0.84505 0.41996 0.8298 0.0
H502 H 0.87942 0.38122 0.68582 0.0
H503 H 0.90865 0.35069 0.68149 0.0
O504 O 0.90565 0.37707 0.84556 0.0
C505 C 0.87128 0.33471 0.86719 0.0
C506 C 0.91013 0.34554 0.74047 0.0
C507 C 0.88576 0.37306 0.71065 0.0
N508 N 0.88562 0.36944 0.77689 0.0
C509 C 0.90156 0.35252 0.77475 0.0
C510 C 0.87758 0.3796 0.74542 0.0
C511 C 0.90217 0.35593 0.70825 0.0
C512 C 0.82423 0.38739 0.92714 0.0
N513 N 0.83975 0.37033 0.93254 0.0
C514 C 0.80116 0.38388 0.93476 0.0
C515 C 0.79402 0.36273 0.94797 0.0
C516 C 0.80996 0.34542 0.95341 0.0
C517 C 0.83288 0.34954 0.94546 0.0
C518 C 0.87788 0.36304 0.03417 0.0
C519 C 0.89834 0.34806 0.96947 0.0
C520 C 0.871 0.37134 0.99967 0.0
N521 N 0.88111 0.36371 0.96788 0.0
C522 C 0.90567 0.33938 0.00347 0.0
C523 C 0.89531 0.34692 0.036 0.0
C524 C 0.91505 0.37922 0.87731 0.0
C525 C 0.8643 0.44889 0.81171 0.0
C526 C 0.89908 0.41782 0.79988 0.0
C527 C 0.90276 0.44088 0.79225 0.0
C528 C 0.88522 0.45649 0.79826 0.0
N529 N 0.87851 0.41051 0.81303 0.0
C530 C 0.86123 0.4257 0.81898 0.0
Co531 Co 0.37101 0.12386 0.574 0.0
Co532 Co 0.37303 0.11943 0.66951 0.0
O533 O 0.36094 0.11103 0.62109 0.0
C534 C 0.37953 0.07464 0.56649 0.0
O535 O 0.38972 0.07597 0.59881 0.0
C536 C 0.32395 0.12962 0.67567 0.0
O537 O 0.32585 0.1407 0.64424 0.0
O538 O 0.37051 0.15258 0.65772 0.0
O539 O 0.37158 0.15524 0.59545 0.0
H540 H 0.42375 0.16236 0.75753 0.0
H541 H 0.33013 0.0941 0.57634 0.0
O542 O 0.37081 0.09243 0.55195 0.0
H543 H 0.30296 0.16803 0.5285 0.0
H544 H 0.37061 0.13017 0.43494 0.0
H545 H 0.40485 0.15864 0.55094 0.0
H546 H 0.34357 0.16236 0.54368 0.0
H547 H 0.35822 0.11499 0.49539 0.0
O548 O 0.34129 0.11989 0.68989 0.0
H549 H 0.40867 0.15129 0.69623 0.0
H550 H 0.36203 0.1056 0.74693 0.0
H551 H 0.41763 0.17444 0.49117 0.0
H552 H 0.28941 0.09897 0.56122 0.0
H553 H 0.40046 0.16018 0.43259 0.0
H554 H 0.27558 0.13617 0.53722 0.0
O555 O 0.40369 0.12017 0.58756 0.0
H556 H 0.34512 0.03846 0.67434 0.0
H557 H 0.40932 0.09001 0.70216 0.0
H558 H 0.41316 0.04887 0.71491 0.0
H559 H 0.38088 0.02279 0.701 0.0
H560 H 0.34212 0.0797 0.66166 0.0
H561 H 0.37646 0.11631 0.8088 0.0
H562 H 0.40761 0.14481 0.81435 0.0
O563 O 0.40491 0.1189 0.64994 0.0
C564 C 0.37094 0.1641 0.62774 0.0
C565 C 0.41023 0.14986 0.75546 0.0
C566 C 0.38366 0.12404 0.78424 0.0
N567 N 0.38464 0.12769 0.71802 0.0
C568 C 0.40167 0.14348 0.72083 0.0
C569 C 0.37553 0.11808 0.74915 0.0
C570 C 0.40115 0.14003 0.78733 0.0
C571 C 0.32428 0.11027 0.56556 0.0
N572 N 0.33923 0.12788 0.56068 0.0
C573 C 0.30119 0.11295 0.55719 0.0
C574 C 0.29344 0.13384 0.54378 0.0
C575 C 0.30879 0.15173 0.53889 0.0
C576 C 0.33175 0.14843 0.5476 0.0
C577 C 0.37818 0.13656 0.46027 0.0
C578 C 0.39719 0.15248 0.5256 0.0
C579 C 0.37126 0.128 0.49456 0.0
N580 N 0.38067 0.13608 0.52666 0.0
C581 C 0.40455 0.16143 0.49182 0.0
C582 C 0.39493 0.1534 0.45897 0.0
C583 C 0.41449 0.11905 0.61819 0.0
C584 C 0.35929 0.04965 0.68055 0.0
C585 C 0.39526 0.07875 0.69585 0.0
C586 C 0.3975 0.05548 0.70325 0.0
C587 C 0.37937 0.04087 0.69547 0.0
N588 N 0.37554 0.08723 0.68114 0.0
C589 C 0.35767 0.07302 0.67355 0.0
Co590 Co 0.62519 0.62007 0.32794 0.0
Co591 Co 0.63136 0.62528 0.42297 0.0
O592 O 0.63922 0.61192 0.37511 0.0
C593 C 0.67391 0.63112 0.31804 0.0
O594 O 0.67287 0.64156 0.35019 0.0
C595 C 0.62092 0.57641 0.43117 0.0
O596 O 0.61051 0.57785 0.39907 0.0
O597 O 0.59798 0.6234 0.41217 0.0
O598 O 0.59425 0.61853 0.35052 0.0
H599 H 0.59052 0.67908 0.50867 0.0
H600 H 0.6577 0.5814 0.33209 0.0
O601 O 0.6562 0.62158 0.30462 0.0
H602 H 0.58569 0.54818 0.28653 0.0
H603 H 0.61695 0.61682 0.18918 0.0
H604 H 0.5875 0.65061 0.30485 0.0
H605 H 0.58864 0.58942 0.29924 0.0
H606 H 0.63391 0.60664 0.24953 0.0
O607 O 0.63038 0.59398 0.44525 0.0
H608 H 0.60064 0.66235 0.44813 0.0
H609 H 0.64566 0.61576 0.5007 0.0
H610 H 0.56993 0.66115 0.24514 0.0
H611 H 0.65558 0.5401 0.31937 0.0
H612 H 0.58467 0.6442 0.18676 0.0
H613 H 0.61935 0.52322 0.29657 0.0
O614 O 0.62679 0.65337 0.33971 0.0
H615 H 0.7117 0.59575 0.42838 0.0
H616 H 0.66181 0.66186 0.45209 0.0
H617 H 0.7031 0.66516 0.46385 0.0
H618 H 0.72834 0.63192 0.45201 0.0
H619 H 0.67034 0.59329 0.41666 0.0
H620 H 0.6359 0.63188 0.56186 0.0
H621 H 0.60821 0.66383 0.56609 0.0
O622 O 0.63224 0.65649 0.40133 0.0
C623 C 0.58597 0.62058 0.38302 0.0
C624 C 0.60266 0.66521 0.50718 0.0
C625 C 0.62811 0.63869 0.53704 0.0
N626 N 0.62383 0.63822 0.47089 0.0
C627 C 0.6085 0.65571 0.47298 0.0
C628 C 0.63352 0.6296 0.50235 0.0
C629 C 0.61257 0.65663 0.53939 0.0
C630 C 0.64194 0.57421 0.32183 0.0
N631 N 0.62334 0.58781 0.3163 0.0
C632 C 0.64082 0.5508 0.31482 0.0
C633 C 0.62047 0.54134 0.30207 0.0
C634 C 0.60158 0.55533 0.29645 0.0
C635 C 0.60333 0.57866 0.30378 0.0
C636 C 0.61036 0.6243 0.21443 0.0
C637 C 0.59392 0.64308 0.27957 0.0
C638 C 0.61992 0.61864 0.24866 0.0
N639 N 0.6116 0.62792 0.28066 0.0
C640 C 0.58395 0.64915 0.24584 0.0
C641 C 0.59224 0.63965 0.2131 0.0
C642 C 0.62971 0.66512 0.36917 0.0
C643 C 0.70087 0.61034 0.43371 0.0
C644 C 0.6727 0.64736 0.44675 0.0
C645 C 0.69606 0.6493 0.45355 0.0
C646 C 0.7102 0.63064 0.44692 0.0
N647 N 0.66368 0.62739 0.43377 0.0
C648 C 0.67743 0.60902 0.42725 0.0
Co649 Co 0.12661 0.88101 0.16822 0.0
Co650 Co 0.13093 0.87493 0.07307 0.0
O651 O 0.14002 0.88841 0.12034 0.0
C652 C 0.1752 0.86979 0.17775 0.0
O653 O 0.17376 0.85877 0.14615 0.0
C654 C 0.12283 0.92409 0.06356 0.0
O655 O 0.11232 0.92319 0.0956 0.0
O656 O 0.09798 0.87892 0.08438 0.0
O657 O 0.09528 0.88192 0.14648 0.0
H658 H 0.08605 0.82317 0.9892 0.0
H659 H 0.15866 0.91986 0.1614 0.0
O660 O 0.15781 0.88005 0.19077 0.0
H661 H 0.087 0.95317 0.208 0.0
H662 H 0.11989 0.88641 0.307 0.0
H663 H 0.08964 0.85036 0.1936 0.0
H664 H 0.09018 0.91176 0.19699 0.0
H665 H 0.13604 0.89581 0.24581 0.0
O666 O 0.13169 0.90608 0.04989 0.0
H667 H 0.09752 0.83988 0.04915 0.0
H668 H 0.1455 0.88255 0.99503 0.0
H669 H 0.07283 0.84061 0.2542 0.0
H670 H 0.15632 0.96135 0.17239 0.0
H671 H 0.08798 0.85869 0.31144 0.0
H672 H 0.12025 0.97826 0.19569 0.0
O673 O 0.12864 0.84765 0.15779 0.0
H674 H 0.21285 0.89936 0.06459 0.0
H675 H 0.15888 0.83587 0.04597 0.0
H676 H 0.19979 0.82984 0.03365 0.0
H677 H 0.22708 0.86173 0.04294 0.0
H678 H 0.17183 0.9046 0.07686 0.0
H679 H 0.13445 0.86646 0.9344 0.0
H680 H 0.10458 0.83648 0.93126 0.0
O681 O 0.12973 0.84385 0.09564 0.0
C682 C 0.08649 0.88102 0.11416 0.0
C683 C 0.09915 0.83616 0.99021 0.0
C684 C 0.12628 0.86048 0.95946 0.0
N685 N 0.12229 0.862 0.02561 0.0
C686 C 0.10576 0.84563 0.02409 0.0
C687 C 0.13244 0.86956 0.99385 0.0
C688 C 0.10953 0.84366 0.95771 0.0
C689 C 0.14297 0.92708 0.17185 0.0
N690 N 0.12458 0.91342 0.17856 0.0
C691 C 0.14172 0.95059 0.1779 0.0
C692 C 0.12147 0.96007 0.19093 0.0
C693 C 0.1028 0.94601 0.19781 0.0
C694 C 0.10468 0.92258 0.19142 0.0
C695 C 0.11311 0.87845 0.28226 0.0
C696 C 0.09621 0.85841 0.21838 0.0
C697 C 0.12222 0.88367 0.24755 0.0
N698 N 0.11365 0.87377 0.21617 0.0
C699 C 0.08668 0.85277 0.25261 0.0
C700 C 0.0952 0.8629 0.28472 0.0
C701 C 0.12912 0.83559 0.12833 0.0
C702 C 0.20112 0.88535 0.06033 0.0
C703 C 0.17065 0.84983 0.0501 0.0
C704 C 0.19379 0.84632 0.04303 0.0
C705 C 0.20909 0.86423 0.04823 0.0
N706 N 0.16297 0.87061 0.06191 0.0
C707 C 0.17786 0.88825 0.06708 0.0
Co708 Co 0.87085 0.62251 0.07664 0.0
Co709 Co 0.87221 0.62163 0.17212 0.0
O710 O 0.86056 0.61104 0.12448 0.0
C711 C 0.87824 0.57297 0.07106 0.0
O712 O 0.88895 0.57449 0.10293 0.0
C713 C 0.82274 0.6292 0.17782 0.0
O714 O 0.82428 0.63949 0.14563 0.0
O715 O 0.86739 0.65396 0.15786 0.0
O716 O 0.87242 0.65448 0.09604 0.0
H717 H 0.91948 0.67077 0.25661 0.0
H718 H 0.82903 0.59423 0.08071 0.0
O719 O 0.86958 0.59071 0.05633 0.0
H720 H 0.80426 0.66787 0.02848 0.0
H721 H 0.87054 0.62602 0.9373 0.0
H722 H 0.90606 0.65536 0.05174 0.0
H723 H 0.84467 0.66121 0.04396 0.0
H724 H 0.85763 0.61254 0.99853 0.0
O725 O 0.84045 0.62055 0.19271 0.0
H726 H 0.90513 0.65704 0.19629 0.0
H727 H 0.86259 0.60893 0.25047 0.0
H728 H 0.91935 0.66947 0.99113 0.0
H729 H 0.78848 0.60008 0.06531 0.0
H730 H 0.90154 0.65477 0.93336 0.0
H731 H 0.77586 0.63715 0.03913 0.0
O732 O 0.90328 0.61779 0.09058 0.0
H733 H 0.84987 0.53929 0.18478 0.0
H734 H 0.91105 0.59568 0.20478 0.0
H735 H 0.91778 0.55535 0.2208 0.0
H736 H 0.88704 0.52685 0.21085 0.0
H737 H 0.84395 0.57977 0.16883 0.0
H738 H 0.87631 0.62227 0.31143 0.0
H739 H 0.90504 0.65334 0.31473 0.0
O740 O 0.90411 0.62312 0.15236 0.0
C741 C 0.86958 0.66445 0.12717 0.0
C742 C 0.90703 0.65715 0.25553 0.0
C743 C 0.88278 0.62995 0.2863 0.0
N744 N 0.88325 0.63204 0.21988 0.0
C745 C 0.89892 0.64925 0.22146 0.0
C746 C 0.87506 0.62249 0.25172 0.0
C747 C 0.89891 0.64738 0.28813 0.0
C748 C 0.8237 0.61032 0.06896 0.0
N749 N 0.83922 0.62731 0.06306 0.0
C750 C 0.80071 0.61357 0.06045 0.0
C751 C 0.79363 0.63439 0.04581 0.0
C752 C 0.80956 0.65163 0.03985 0.0
C753 C 0.83241 0.64778 0.04874 0.0
C754 C 0.87839 0.6326 0.96228 0.0
C755 C 0.89811 0.64903 0.02673 0.0
C756 C 0.87118 0.62501 0.99701 0.0
N757 N 0.88093 0.63335 0.02866 0.0
C758 C 0.90577 0.65701 0.99249 0.0
C759 C 0.89578 0.64873 0.96008 0.0
C760 C 0.91394 0.6202 0.12114 0.0
C761 C 0.86337 0.55156 0.18934 0.0
C762 C 0.89761 0.58337 0.2003 0.0
C763 C 0.9015 0.56056 0.20949 0.0
C764 C 0.88424 0.54458 0.20392 0.0
N765 N 0.87708 0.59007 0.18605 0.0
C766 C 0.86008 0.57451 0.18051 0.0
Co767 Co 0.12989 0.12321 0.9204 0.0
Co768 Co 0.12632 0.1224 0.82503 0.0
O769 O 0.13905 0.11182 0.87186 0.0
C770 C 0.12237 0.07366 0.92546 0.0
O771 O 0.11112 0.07551 0.89414 0.0
C772 C 0.17557 0.13005 0.81673 0.0
O773 O 0.17467 0.14024 0.84911 0.0
O774 O 0.1313 0.15475 0.83922 0.0
O775 O 0.1281 0.1553 0.90139 0.0
H776 H 0.07698 0.17134 0.74364 0.0
H777 H 0.1714 0.09467 0.91358 0.0
O778 O 0.13138 0.09127 0.94022 0.0
H779 H 0.19778 0.16802 0.96517 0.0
H780 H 0.13323 0.12624 0.05968 0.0
H781 H 0.09553 0.15628 0.94772 0.0
H782 H 0.15701 0.16166 0.95197 0.0
H783 H 0.1447 0.11288 0.99757 0.0
O784 O 0.15758 0.12146 0.80264 0.0
H785 H 0.09274 0.15768 0.80301 0.0
H786 H 0.13425 0.10977 0.74609 0.0
H787 H 0.08366 0.17027 0.00924 0.0
H788 H 0.21231 0.10023 0.92668 0.0
H789 H 0.10256 0.15522 0.06577 0.0
H790 H 0.22573 0.13715 0.95254 0.0
O791 O 0.09716 0.11873 0.90836 0.0
H792 H 0.14871 0.04015 0.8106 0.0
H793 H 0.08689 0.09629 0.79448 0.0
H794 H 0.07998 0.05593 0.77868 0.0
H795 H 0.11103 0.02755 0.78669 0.0
H796 H 0.15482 0.08066 0.82637 0.0
H797 H 0.11912 0.12305 0.68605 0.0
H798 H 0.09019 0.15398 0.68461 0.0
O799 O 0.0949 0.12372 0.84663 0.0
C800 C 0.13003 0.16526 0.87009 0.0
C801 C 0.08951 0.15779 0.74391 0.0
C802 C 0.11318 0.1307 0.71159 0.0
N803 N 0.11418 0.13278 0.778 0.0
C804 C 0.09842 0.14993 0.77745 0.0
C805 C 0.12171 0.12328 0.74565 0.0
C806 C 0.09694 0.14806 0.7108 0.0
C807 C 0.17709 0.1107 0.92519 0.0
N808 N 0.16183 0.12777 0.93218 0.0
C809 C 0.20028 0.11378 0.9324 0.0
C810 C 0.20781 0.13452 0.94686 0.0
C811 C 0.19213 0.15185 0.95393 0.0
C812 C 0.16908 0.14816 0.94633 0.0
C813 C 0.1249 0.13297 0.03525 0.0
C814 C 0.10395 0.14979 0.97218 0.0
C815 C 0.1313 0.12545 1.00003 0.0
N816 N 0.12095 0.13398 0.96907 0.0
C817 C 0.0971 0.15771 0.00694 0.0
C818 C 0.1077 0.14924 0.03865 0.0
C819 C 0.08581 0.12096 0.87844 0.0
C820 C 0.13507 0.05237 0.80689 0.0
C821 C 0.10048 0.08403 0.7981 0.0
C822 C 0.09648 0.06121 0.78904 0.0
C823 C 0.11391 0.0453 0.79352 0.0
N824 N 0.12128 0.09083 0.81117 0.0
C825 C 0.13846 0.07534 0.81562 0.0
Co826 Co 0.62625 0.38179 0.6711 0.0
Co827 Co 0.6293 0.37753 0.57563 0.0
O828 O 0.6388 0.39032 0.62314 0.0
C829 C 0.67531 0.37176 0.67823 0.0
O830 O 0.67361 0.36099 0.64644 0.0
C831 C 0.62056 0.42668 0.56846 0.0
O832 O 0.6102 0.42521 0.60058 0.0
O833 O 0.59648 0.38099 0.58823 0.0
O834 O 0.59454 0.38227 0.65055 0.0
H835 H 0.58381 0.32687 0.49086 0.0
H836 H 0.65718 0.42158 0.66464 0.0
O837 O 0.65784 0.38131 0.6924 0.0
H838 H 0.58556 0.4522 0.71598 0.0
H839 H 0.62148 0.38462 0.8103 0.0
H840 H 0.5904 0.34983 0.69645 0.0
H841 H 0.58959 0.41109 0.70292 0.0
H842 H 0.63649 0.39547 0.74897 0.0
O843 O 0.62949 0.40899 0.5539 0.0
H844 H 0.5959 0.3426 0.55117 0.0
H845 H 0.64285 0.38662 0.49752 0.0
H846 H 0.57474 0.33863 0.75719 0.0
H847 H 0.65399 0.46278 0.67765 0.0
H848 H 0.59031 0.35608 0.81465 0.0
H849 H 0.61794 0.47835 0.70335 0.0
O850 O 0.62893 0.34868 0.65907 0.0
H851 H 0.71086 0.40295 0.56564 0.0
H852 H 0.65729 0.33925 0.54582 0.0
H853 H 0.69809 0.33386 0.53189 0.0
H854 H 0.72518 0.36586 0.54178 0.0
H855 H 0.66995 0.40754 0.57948 0.0
H856 H 0.63116 0.37151 0.43654 0.0
H857 H 0.6015 0.34135 0.43297 0.0
O858 O 0.62869 0.34609 0.59675 0.0
C859 C 0.5853 0.38205 0.61848 0.0
C860 C 0.59682 0.33994 0.49205 0.0
C861 C 0.62337 0.36502 0.46157 0.0
N862 N 0.6202 0.36533 0.52788 0.0
C863 C 0.60378 0.34885 0.52614 0.0
C864 C 0.62989 0.37354 0.49616 0.0
C865 C 0.60673 0.34809 0.45958 0.0
C866 C 0.64151 0.42821 0.6761 0.0
N867 N 0.62358 0.41396 0.68298 0.0
C868 C 0.63977 0.45156 0.6833 0.0
C869 C 0.61953 0.46029 0.69768 0.0
C870 C 0.60135 0.44563 0.70474 0.0
C871 C 0.60369 0.42238 0.69716 0.0
C872 C 0.61452 0.37693 0.78546 0.0
C873 C 0.59715 0.3576 0.72134 0.0
C874 C 0.62299 0.38297 0.75067 0.0
N875 N 0.61419 0.37342 0.71918 0.0
C876 C 0.58826 0.35115 0.75565 0.0
C877 C 0.59703 0.36092 0.78788 0.0
C878 C 0.62892 0.3372 0.629 0.0
C879 C 0.69921 0.3889 0.56111 0.0
C880 C 0.66898 0.35325 0.55022 0.0
C881 C 0.69205 0.35011 0.54224 0.0
C882 C 0.70724 0.36808 0.54777 0.0
N883 N 0.66124 0.37373 0.56324 0.0
C884 C 0.67602 0.39143 0.56875 0.0
Co885 Co 0.37151 0.87591 0.42014 0.0
Co886 Co 0.3727 0.88032 0.32457 0.0
O887 O 0.36086 0.88858 0.37321 0.0
C888 C 0.37945 0.92523 0.42759 0.0
O889 O 0.38935 0.92406 0.39504 0.0
C890 C 0.32369 0.86959 0.31901 0.0
O891 O 0.32578 0.85868 0.35057 0.0
O892 O 0.37065 0.84714 0.33642 0.0
O893 O 0.37236 0.84456 0.39868 0.0
H894 H 0.42331 0.83798 0.23581 0.0
H895 H 0.3302 0.90508 0.41862 0.0
O896 O 0.37107 0.90733 0.44224 0.0
H897 H 0.30451 0.83075 0.46686 0.0
H898 H 0.37235 0.8695 0.5592 0.0
H899 H 0.40606 0.84162 0.44253 0.0
H900 H 0.3449 0.837 0.45091 0.0
H901 H 0.35925 0.88456 0.49901 0.0
O902 O 0.34088 0.87944 0.30462 0.0
H903 H 0.4085 0.84885 0.29733 0.0
H904 H 0.36104 0.89405 0.24731 0.0
H905 H 0.41954 0.82596 0.50203 0.0
H906 H 0.28969 0.89963 0.43452 0.0
H907 H 0.40264 0.83992 0.56094 0.0
H908 H 0.2766 0.86222 0.45872 0.0
O909 O 0.40402 0.88008 0.40599 0.0
H910 H 0.34378 0.96094 0.32026 0.0
H911 H 0.40841 0.91019 0.29143 0.0
H912 H 0.41168 0.95139 0.27876 0.0
H913 H 0.37918 0.97707 0.29318 0.0
H914 H 0.34136 0.91966 0.33286 0.0
H915 H 0.37518 0.88353 0.18524 0.0
H916 H 0.40661 0.85537 0.17923 0.0
O917 O 0.40468 0.88128 0.34359 0.0
C918 C 0.37152 0.83567 0.36643 0.0
C919 C 0.40966 0.85032 0.23808 0.0
C920 C 0.38263 0.87587 0.20969 0.0
N921 N 0.38407 0.8722 0.27589 0.0
C922 C 0.40126 0.85659 0.27283 0.0
C923 C 0.37466 0.88172 0.24489 0.0
C924 C 0.40027 0.86007 0.20634 0.0
C925 C 0.32467 0.88883 0.42948 0.0
N926 N 0.33991 0.87143 0.43405 0.0
C927 C 0.3017 0.88581 0.43829 0.0
C928 C 0.29436 0.86481 0.45182 0.0
C929 C 0.31001 0.84714 0.45638 0.0
C930 C 0.33285 0.85077 0.44724 0.0
C931 C 0.37981 0.86325 0.53372 0.0
C932 C 0.39852 0.84765 0.46802 0.0
C933 C 0.37249 0.87173 0.49957 0.0
N934 N 0.38175 0.86381 0.46729 0.0
C935 C 0.40627 0.83878 0.50164 0.0
C936 C 0.3968 0.84664 0.53467 0.0
C937 C 0.41452 0.88133 0.37513 0.0
C938 C 0.35805 0.94992 0.31382 0.0
C939 C 0.39426 0.92127 0.29794 0.0
C940 C 0.39617 0.94458 0.29059 0.0
C941 C 0.37792 0.95897 0.29867 0.0
N942 N 0.37473 0.91254 0.3129 0.0
C943 C 0.35674 0.92653 0.32077 0.0
C944 C 0.11671 0.79706 0.10745 0.0
C945 C 0.12929 0.81055 0.13213 0.0
C946 C 0.1168 0.77321 0.11032 0.0
C947 C 0.13042 0.76259 0.13775 0.0
C948 C 0.14327 0.77618 0.16267 0.0
C949 C 0.14224 0.80007 0.15994 0.0
C950 C 0.10236 0.75937 0.08388 0.0
C951 C 0.15856 0.76549 0.19149 0.0
C952 C 0.11722 0.70083 0.16168 0.0
C953 C 0.13178 0.68918 0.13744 0.0
C954 C 0.11676 0.72479 0.16249 0.0
C955 C 0.13174 0.73726 0.13934 0.0
C956 C 0.14721 0.72547 0.11608 0.0
C957 C 0.14677 0.70157 0.11498 0.0
C958 C 0.09961 0.73672 0.18691 0.0
C959 C 0.16391 0.73811 0.0918 0.0
H960 H 0.10652 0.80519 0.08618 0.0
H961 H 0.15212 0.81055 0.17883 0.0
H962 H 0.11346 0.74873 0.06597 0.0
H963 H 0.09114 0.74762 0.09959 0.0
H964 H 0.09158 0.77029 0.06583 0.0
H965 H 0.16733 0.77846 0.20888 0.0
H966 H 0.14851 0.75414 0.20981 0.0
H967 H 0.17164 0.75477 0.17769 0.0
H968 H 0.10551 0.69121 0.17885 0.0
H969 H 0.15823 0.69252 0.09656 0.0
H970 H 0.08749 0.74649 0.16943 0.0
H971 H 0.10829 0.74914 0.20535 0.0
H972 H 0.08978 0.72458 0.20428 0.0
H973 H 0.15456 0.74772 0.07014 0.0
H974 H 0.17615 0.72642 0.07796 0.0
H975 H 0.17364 0.7507 0.10849 0.0
C976 C 0.45224 0.86896 0.3994 0.0
C977 C 0.43952 0.88301 0.37585 0.0
C978 C 0.47614 0.86951 0.39893 0.0
C979 C 0.48747 0.88504 0.37521 0.0
C980 C 0.47462 0.89979 0.35223 0.0
C981 C 0.45076 0.89833 0.3524 0.0
C982 C 0.48926 0.85309 0.4231 0.0
C983 C 0.48606 0.91706 0.32745 0.0
C984 C 0.54917 0.89824 0.39871 0.0
C985 C 0.5608 0.88497 0.3725 0.0
C986 C 0.52527 0.89891 0.39931 0.0
C987 C 0.51277 0.88545 0.37379 0.0
C988 C 0.52446 0.87202 0.34727 0.0
C989 C 0.54835 0.8722 0.34661 0.0
C990 C 0.5134 0.91394 0.42729 0.0
C991 C 0.51174 0.85701 0.3202 0.0
H992 H 0.44349 0.85701 0.41733 0.0
H993 H 0.44085 0.9094 0.33457 0.0
H994 H 0.50028 0.8421 0.40559 0.0
H995 H 0.50061 0.86261 0.44224 0.0
H996 H 0.47786 0.84199 0.43976 0.0
H997 H 0.47356 0.92815 0.31292 0.0
H998 H 0.49768 0.92801 0.344 0.0
H999 H 0.49659 0.9082 0.30637 0.0
H1000 H 0.55879 0.90825 0.41861 0.0
H1001 H 0.55731 0.86176 0.32654 0.0
H1002 H 0.50328 0.90331 0.44662 0.0
H1003 H 0.50133 0.92557 0.413 0.0
H1004 H 0.5256 0.92435 0.44372 0.0
H1005 H 0.50107 0.84458 0.33554 0.0
H1006 H 0.5234 0.84746 0.30155 0.0
H1007 H 0.5001 0.86748 0.30297 0.0
C1008 C 0.35388 0.29845 0.60969 0.0
C1009 C 0.36845 0.31066 0.63322 0.0
C1010 C 0.35329 0.27453 0.61049 0.0
C1011 C 0.36818 0.26258 0.63452 0.0
C1012 C 0.38291 0.27489 0.6584 0.0
C1013 C 0.38259 0.29882 0.65788 0.0
C1014 C 0.33686 0.26204 0.5854 0.0
C1015 C 0.39952 0.26279 0.68361 0.0
C1016 C 0.35696 0.20018 0.6568 0.0
C1017 C 0.37051 0.1892 0.63027 0.0
C1018 C 0.3558 0.2241 0.65828 0.0
C1019 C 0.36909 0.23723 0.63344 0.0
C1020 C 0.38319 0.22614 0.60718 0.0
C1021 C 0.38344 0.20226 0.60553 0.0
C1022 C 0.34004 0.23531 0.68589 0.0
C1023 C 0.39811 0.2395 0.58093 0.0
H1024 H 0.34274 0.30764 0.59096 0.0
H1025 H 0.39397 0.30829 0.6759 0.0
H1026 H 0.34645 0.25196 0.56459 0.0
H1027 H 0.32647 0.24987 0.60176 0.0
H1028 H 0.32522 0.27386 0.57054 0.0
H1029 H 0.40961 0.27487 0.7008 0.0
H1030 H 0.3903 0.25096 0.70227 0.0
H1031 H 0.41146 0.25237 0.6668 0.0
H1032 H 0.3468 0.19004 0.6757 0.0
H1033 H 0.39407 0.19376 0.58523 0.0
H1034 H 0.32759 0.24628 0.67112 0.0
H1035 H 0.34991 0.2465 0.70482 0.0
H1036 H 0.33053 0.22265 0.70276 0.0
H1037 H 0.3874 0.2502 0.56252 0.0
H1038 H 0.40889 0.22825 0.56339 0.0
H1039 H 0.40938 0.25118 0.5968 0.0
C1040 C 0.04753 0.13305 0.85572 0.0
C1041 C 0.0607 0.12035 0.88067 0.0
C1042 C 0.02366 0.13293 0.85775 0.0
C1043 C 0.01272 0.11925 0.88471 0.0
C1044 C 0.02594 0.10619 0.90975 0.0
C1045 C 0.04982 0.10715 0.90777 0.0
C1046 C 0.01017 0.1475 0.83111 0.0
C1047 C 0.01488 0.09091 0.93816 0.0
C1048 C 0.95115 0.13289 0.90881 0.0
C1049 C 0.93938 0.11823 0.88482 0.0
C1050 C 0.97508 0.13332 0.90929 0.0
C1051 C 0.98741 0.11826 0.88601 0.0
C1052 C 0.97552 0.10282 0.8628 0.0
C1053 C 0.95164 0.10323 0.8621 0.0
C1054 C 0.98716 0.15041 0.93374 0.0
C1055 C 0.98803 0.08607 0.83834 0.0
H1056 H 0.05591 0.14343 0.83498 0.0
H1057 H 0.06 0.09718 0.92691 0.0
H1058 H 0.99933 0.13652 0.81328 0.0
H1059 H 0.99863 0.15903 0.84671 0.0
H1060 H 0.02131 0.15799 0.81302 0.0
H1061 H 0.0276 0.08171 0.95538 0.0
H1062 H 0.00376 0.1011 0.9567 0.0
H1063 H 0.00387 0.07817 0.92406 0.0
H1064 H 0.94165 0.14461 0.92619 0.0
H1065 H 0.94252 0.09169 0.84387 0.0
H1066 H 0.99729 0.16226 0.91635 0.0
H1067 H 0.99924 0.14158 0.9525 0.0
H1068 H 0.97509 0.16057 0.95079 0.0
H1069 H 0.99795 0.0954 0.81707 0.0
H1070 H 0.97625 0.0741 0.82403 0.0
H1071 H 0.00033 0.07602 0.85504 0.0
C1072 C 0.11801 0.30019 0.84448 0.0
C1073 C 0.13228 0.31194 0.8691 0.0
C1074 C 0.11767 0.27623 0.84375 0.0
C1075 C 0.13249 0.26386 0.86737 0.0
C1076 C 0.14752 0.27574 0.8913 0.0
C1077 C 0.14697 0.29965 0.89229 0.0
C1078 C 0.10099 0.26418 0.81856 0.0
C1079 C 0.16405 0.2632 0.91607 0.0
C1080 C 0.11791 0.20308 0.8949 0.0
C1081 C 0.13081 0.19041 0.86954 0.0
C1082 C 0.11796 0.22701 0.89401 0.0
C1083 C 0.13183 0.23849 0.86789 0.0
C1084 C 0.14521 0.22574 0.84265 0.0
C1085 C 0.14426 0.20182 0.84339 0.0
C1086 C 0.103 0.23999 0.92076 0.0
C1087 C 0.16075 0.23735 0.81519 0.0
H1088 H 0.10653 0.30972 0.82676 0.0
H1089 H 0.15819 0.30877 0.91103 0.0
H1090 H 0.11018 0.25251 0.79954 0.0
H1091 H 0.08921 0.25359 0.83535 0.0
H1092 H 0.09074 0.2763 0.80176 0.0
H1093 H 0.17564 0.27499 0.93114 0.0
H1094 H 0.15456 0.25292 0.9367 0.0
H1095 H 0.1745 0.25119 0.89941 0.0
H1096 H 0.10734 0.19426 0.91492 0.0
H1097 H 0.15439 0.192 0.82396 0.0
H1098 H 0.09143 0.25153 0.90526 0.0
H1099 H 0.11365 0.25081 0.93913 0.0
H1100 H 0.09254 0.22848 0.93829 0.0
H1101 H 0.15066 0.2484 0.79642 0.0
H1102 H 0.1705 0.22494 0.79814 0.0
H1103 H 0.17299 0.24852 0.83008 0.0
C1104 C 0.95085 0.89296 0.08789 0.0
C1105 C 0.94038 0.87975 0.11534 0.0
C1106 C 0.97471 0.8942 0.08547 0.0
C1107 C 0.98826 0.88136 0.11037 0.0
C1108 C 0.97768 0.86751 0.13746 0.0
C1109 C 0.95386 0.86716 0.13997 0.0
C1110 C 0.98541 0.90964 0.05693 0.0
C1111 C 0.9915 0.8531 0.1639 0.0
C1112 C 0.04983 0.86786 0.08671 0.0
C1113 C 0.0615 0.88229 0.11117 0.0
C1114 C 0.02592 0.8676 0.08568 0.0
C1115 C 0.01353 0.88265 0.10886 0.0
C1116 C 0.02534 0.89798 0.1324 0.0
C1117 C 0.04922 0.89734 0.13371 0.0
C1118 C 0.01395 0.85056 0.061 0.0
C1119 C 0.01275 0.91473 0.15674 0.0
H1120 H 0.94038 0.90285 0.06906 0.0
H1121 H 0.94576 0.85678 0.16098 0.0
H1122 H 0.9961 0.92268 0.07097 0.0
H1123 H 0.99679 0.89968 0.03849 0.0
H1124 H 0.97247 0.91848 0.03964 0.0
H1125 H 0.9806 0.8423 0.1819 0.0
H1126 H 0.00326 0.84186 0.14816 0.0
H1127 H 0.00212 0.86422 0.18184 0.0
H1128 H 0.05938 0.85612 0.06945 0.0
H1129 H 0.0583 0.90871 0.15225 0.0
H1130 H 0.00164 0.85936 0.04258 0.0
H1131 H 0.00407 0.83844 0.0783 0.0
H1132 H 0.02606 0.84068 0.04362 0.0
H1133 H 0.00025 0.92455 0.14006 0.0
H1134 H 0.02447 0.92691 0.17071 0.0
H1135 H 0.00306 0.9054 0.17829 0.0
C1136 C 0.35537 0.70188 0.39031 0.0
C1137 C 0.36892 0.68917 0.36593 0.0
C1138 C 0.35484 0.72578 0.38844 0.0
C1139 C 0.36875 0.73721 0.36233 0.0
C1140 C 0.38239 0.72441 0.33752 0.0
C1141 C 0.38203 0.70049 0.33925 0.0
C1142 C 0.33957 0.73881 0.41466 0.0
C1143 C 0.39795 0.73595 0.31002 0.0
C1144 C 0.35676 0.79937 0.33925 0.0
C1145 C 0.37132 0.81059 0.36408 0.0
C1146 C 0.35558 0.77543 0.3385 0.0
C1147 C 0.36987 0.76255 0.36227 0.0
C1148 C 0.38506 0.7739 0.3866 0.0
C1149 C 0.38532 0.7978 0.38764 0.0
C1150 C 0.33869 0.76395 0.313 0.0
C1151 C 0.40104 0.76081 0.4116 0.0
H1152 H 0.345 0.69313 0.41063 0.0
H1153 H 0.39262 0.69067 0.32052 0.0
H1154 H 0.35007 0.74909 0.43402 0.0
H1155 H 0.32863 0.75084 0.39893 0.0
H1156 H 0.32846 0.72733 0.43117 0.0
H1157 H 0.40712 0.72352 0.29219 0.0
H1158 H 0.38805 0.74764 0.29202 0.0
H1159 H 0.41071 0.74646 0.32504 0.0
H1160 H 0.34579 0.80934 0.3213 0.0
H1161 H 0.39672 0.80651 0.40659 0.0
H1162 H 0.32668 0.75345 0.32948 0.0
H1163 H 0.34767 0.75227 0.29374 0.0
H1164 H 0.32872 0.77643 0.29645 0.0
H1165 H 0.39111 0.75053 0.43167 0.0
H1166 H 0.41268 0.77223 0.42732 0.0
H1167 H 0.41146 0.74877 0.39497 0.0
C1168 C 0.54766 0.13335 0.64595 0.0
C1169 C 0.56084 0.11976 0.62231 0.0
C1170 C 0.52381 0.13308 0.64387 0.0
C1171 C 0.5129 0.11826 0.6184 0.0
C1172 C 0.52618 0.10423 0.59481 0.0
C1173 C 0.55006 0.10545 0.59659 0.0
C1174 C 0.51029 0.14881 0.66871 0.0
C1175 C 0.51516 0.08769 0.56815 0.0
C1176 C 0.45149 0.10399 0.64173 0.0
C1177 C 0.43957 0.11794 0.61693 0.0
C1178 C 0.47539 0.10328 0.64155 0.0
C1179 C 0.4876 0.11743 0.61676 0.0
C1180 C 0.47559 0.13149 0.59152 0.0
C1181 C 0.45167 0.1313 0.59152 0.0
C1182 C 0.48756 0.08755 0.66811 0.0
C1183 C 0.48798 0.1473 0.5654 0.0
H1184 H 0.55605 0.14459 0.66555 0.0
H1185 H 0.56033 0.09483 0.57851 0.0
H1186 H 0.49888 0.15971 0.65174 0.0
H1187 H 0.49932 0.13868 0.68753 0.0
H1188 H 0.52142 0.16 0.68579 0.0
H1189 H 0.52791 0.07757 0.55242 0.0
H1190 H 0.50393 0.07579 0.58354 0.0
H1191 H 0.50427 0.09704 0.54814 0.0
H1192 H 0.44212 0.09343 0.66104 0.0
H1193 H 0.44243 0.1422 0.57249 0.0
H1194 H 0.49746 0.09771 0.68847 0.0
H1195 H 0.49986 0.07665 0.65284 0.0
H1196 H 0.47557 0.07637 0.68349 0.0
H1197 H 0.49828 0.1597 0.58156 0.0
H1198 H 0.47612 0.1569 0.54717 0.0
H1199 H 0.49995 0.13749 0.54774 0.0
C1200 C 0.88364 0.19959 0.84063 0.0
C1201 C 0.86898 0.18826 0.86504 0.0
C1202 C 0.88401 0.22352 0.83903 0.0
C1203 C 0.86888 0.23625 0.86159 0.0
C1204 C 0.85337 0.22477 0.88509 0.0
C1205 C 0.85385 0.20091 0.88693 0.0
C1206 C 0.90117 0.23517 0.81431 0.0
C1207 C 0.83653 0.2377 0.90879 0.0
C1208 C 0.88354 0.29669 0.8906 0.0
C1209 C 0.87088 0.30959 0.86524 0.0
C1210 C 0.88352 0.2728 0.88902 0.0
C1211 C 0.86997 0.26157 0.8621 0.0
C1212 C 0.85701 0.27453 0.83657 0.0
C1213 C 0.85789 0.29844 0.83811 0.0
C1214 C 0.89798 0.25958 0.91618 0.0
C1215 C 0.84186 0.26315 0.80819 0.0
H1216 H 0.89543 0.18976 0.82389 0.0
H1217 H 0.8423 0.19209 0.90547 0.0
H1218 H 0.89245 0.24713 0.79521 0.0
H1219 H 0.9131 0.24539 0.8315 0.0
H1220 H 0.91121 0.22281 0.79763 0.0
H1221 H 0.82441 0.22617 0.92318 0.0
H1222 H 0.84578 0.24785 0.92997 0.0
H1223 H 0.82667 0.24985 0.8915 0.0
H1224 H 0.89378 0.3053 0.91137 0.0
H1225 H 0.84796 0.30843 0.81865 0.0
H1226 H 0.90945 0.24775 0.90106 0.0
H1227 H 0.88693 0.24907 0.9343 0.0
H1228 H 0.90852 0.27092 0.93398 0.0
H1229 H 0.85208 0.25165 0.7903 0.0
H1230 H 0.8329 0.27569 0.79031 0.0
H1231 H 0.82895 0.25246 0.8224 0.0
C1232 C 0.61562 0.70157 0.34178 0.0
C1233 C 0.63031 0.69019 0.36616 0.0
C1234 C 0.6149 0.72551 0.34078 0.0
C1235 C 0.62971 0.73825 0.36394 0.0
C1236 C 0.64512 0.72676 0.38766 0.0
C1237 C 0.645 0.70286 0.38887 0.0
C1238 C 0.59786 0.73716 0.31578 0.0
C1239 C 0.66163 0.73971 0.41199 0.0
C1240 C 0.64134 0.80023 0.33984 0.0
C1241 C 0.6281 0.81171 0.36628 0.0
C1242 C 0.64206 0.77631 0.33876 0.0
C1243 C 0.62876 0.76361 0.36412 0.0
C1244 C 0.61501 0.77513 0.39039 0.0
C1245 C 0.61508 0.79906 0.39149 0.0
C1246 C 0.6574 0.76464 0.31102 0.0
C1247 C 0.60022 0.76218 0.41737 0.0
H1248 H 0.60413 0.69175 0.32443 0.0
H1249 H 0.65654 0.69405 0.40743 0.0
H1250 H 0.58602 0.74764 0.33267 0.0
H1251 H 0.60674 0.74888 0.29651 0.0
H1252 H 0.58771 0.72478 0.29925 0.0
H1253 H 0.67343 0.72819 0.42714 0.0
H1254 H 0.67187 0.75167 0.39498 0.0
H1255 H 0.65211 0.75006 0.43254 0.0
H1256 H 0.65158 0.80997 0.32051 0.0
H1257 H 0.6047 0.80788 0.41178 0.0
H1258 H 0.64726 0.75317 0.29293 0.0
H1259 H 0.67006 0.75389 0.32576 0.0
H1260 H 0.66669 0.77701 0.29327 0.0
H1261 H 0.58878 0.75037 0.40211 0.0
H1262 H 0.58964 0.77371 0.43473 0.0
H1263 H 0.61103 0.75167 0.4359 0.0
C1264 C 0.8824 0.70206 0.10293 0.0
C1265 C 0.8689 0.68956 0.12763 0.0
C1266 C 0.88247 0.72597 0.10373 0.0
C1267 C 0.86818 0.7376 0.12909 0.0
C1268 C 0.85414 0.72503 0.15356 0.0
C1269 C 0.85494 0.70111 0.15293 0.0
C1270 C 0.89812 0.73878 0.07787 0.0
C1271 C 0.83819 0.73683 0.18022 0.0
C1272 C 0.8828 0.79861 0.15512 0.0
C1273 C 0.86918 0.81096 0.13035 0.0
C1274 C 0.88271 0.77469 0.15493 0.0
C1275 C 0.8681 0.76293 0.13016 0.0
C1276 C 0.85382 0.77536 0.10584 0.0
C1277 C 0.8548 0.79927 0.10583 0.0
C1278 C 0.89863 0.76202 0.18057 0.0
C1279 C 0.83753 0.76343 0.07981 0.0
H1280 H 0.89334 0.69312 0.08356 0.0
H1281 H 0.84434 0.69141 0.17181 0.0
H1282 H 0.88802 0.75002 0.0594 0.0
H1283 H 0.90975 0.74989 0.09412 0.0
H1284 H 0.90854 0.72715 0.06043 0.0
H1285 H 0.82769 0.72456 0.19625 0.0
H1286 H 0.84808 0.74745 0.19997 0.0
H1287 H 0.82664 0.74845 0.16483 0.0
H1288 H 0.89405 0.80767 0.17389 0.0
H1289 H 0.84406 0.80884 0.087 0.0
H1290 H 0.9103 0.75109 0.16412 0.0
H1291 H 0.88878 0.75062 0.19908 0.0
H1292 H 0.90901 0.77374 0.19795 0.0
H1293 H 0.8472 0.75294 0.05963 0.0
H1294 H 0.82667 0.77563 0.06422 0.0
H1295 H 0.82634 0.75169 0.0956 0.0
C1296 C 0.61653 0.29909 0.60624 0.0
C1297 C 0.62926 0.31211 0.6314 0.0
C1298 C 0.61656 0.2752 0.60797 0.0
C1299 C 0.63026 0.26409 0.63475 0.0
C1300 C 0.64337 0.27718 0.66001 0.0
C1301 C 0.6424 0.30111 0.65842 0.0
C1302 C 0.60185 0.26188 0.58124 0.0
C1303 C 0.65871 0.26594 0.68819 0.0
C1304 C 0.6162 0.20265 0.65903 0.0
C1305 C 0.63058 0.19069 0.63492 0.0
C1306 C 0.61594 0.22659 0.65937 0.0
C1307 C 0.63098 0.23874 0.63592 0.0
C1308 C 0.6461 0.22665 0.61244 0.0
C1309 C 0.64544 0.20273 0.61178 0.0
C1310 C 0.59909 0.23885 0.68394 0.0
C1311 C 0.66287 0.23898 0.58786 0.0
H1312 H 0.60619 0.30761 0.58558 0.0
H1313 H 0.6524 0.31122 0.67767 0.0
H1314 H 0.61268 0.25104 0.56325 0.0
H1315 H 0.5903 0.25035 0.59677 0.0
H1316 H 0.59137 0.27316 0.56331 0.0
H1317 H 0.66813 0.27857 0.70532 0.0
H1318 H 0.64853 0.2549 0.70683 0.0
H1319 H 0.67123 0.2548 0.67389 0.0
H1320 H 0.60461 0.19327 0.67674 0.0
H1321 H 0.65677 0.19343 0.59352 0.0
H1322 H 0.58745 0.24933 0.66669 0.0
H1323 H 0.60815 0.25065 0.70295 0.0
H1324 H 0.5887 0.22687 0.70075 0.0
H1325 H 0.65357 0.2491 0.56677 0.0
H1326 H 0.67457 0.22705 0.57335 0.0
H1327 H 0.67318 0.2511 0.60455 0.0
C1328 C 0.04931 0.396 0.85926 0.0
C1329 C 0.06149 0.38195 0.88362 0.0
C1330 C 0.02542 0.3964 0.85954 0.0
C1331 C 0.01344 0.38191 0.88408 0.0
C1332 C 0.02567 0.36777 0.90894 0.0
C1333 C 0.04961 0.36822 0.90878 0.0
C1334 C 0.01301 0.41219 0.83335 0.0
C1335 C 0.0135 0.35168 0.93487 0.0
C1336 C 0.95112 0.39408 0.90488 0.0
C1337 C 0.94013 0.37998 0.87907 0.0
C1338 C 0.97501 0.39507 0.90661 0.0
C1339 C 0.98812 0.38104 0.8828 0.0
C1340 C 0.97703 0.36646 0.85715 0.0
C1341 C 0.95315 0.36639 0.85519 0.0
C1342 C 0.9862 0.41136 0.93348 0.0
C1343 C 0.99039 0.35081 0.83196 0.0
H1344 H 0.05849 0.40684 0.8401 0.0
H1345 H 0.05904 0.35723 0.92745 0.0
H1346 H 0.00301 0.40207 0.81306 0.0
H1347 H 0.00078 0.42298 0.84894 0.0
H1348 H 0.02485 0.42347 0.81787 0.0
H1349 H 0.02552 0.34202 0.95276 0.0
H1350 H 0.00156 0.36129 0.95286 0.0
H1351 H 0.00321 0.33935 0.91858 0.0
H1352 H 0.94101 0.40473 0.92317 0.0
H1353 H 0.94463 0.35531 0.83549 0.0
H1354 H 0.99738 0.42337 0.91819 0.0
H1355 H 0.99717 0.40183 0.95313 0.0
H1356 H 0.97356 0.4214 0.94959 0.0
H1357 H 0.00132 0.36101 0.81317 0.0
H1358 H 0.97915 0.33975 0.81485 0.0
H1359 H 0.00184 0.33979 0.84865 0.0
C1360 C 0.54944 0.63438 0.41041 0.0
C1361 C 0.561 0.6193 0.38688 0.0
C1362 C 0.52551 0.63455 0.41183 0.0
C1363 C 0.51299 0.61876 0.39008 0.0
C1364 C 0.52471 0.60282 0.36758 0.0
C1365 C 0.54858 0.60353 0.36579 0.0
C1366 C 0.51363 0.65223 0.43535 0.0
C1367 C 0.51204 0.58528 0.34482 0.0
C1368 C 0.45052 0.60833 0.41281 0.0
C1369 C 0.43965 0.6205 0.38446 0.0
C1370 C 0.47443 0.60752 0.41502 0.0
C1371 C 0.48765 0.61979 0.38896 0.0
C1372 C 0.47667 0.6326 0.3609 0.0
C1373 C 0.45282 0.6325 0.35865 0.0
C1374 C 0.48552 0.59312 0.44461 0.0
C1375 C 0.49011 0.6464 0.33316 0.0
H1376 H 0.5591 0.64666 0.42653 0.0
H1377 H 0.55757 0.59168 0.34796 0.0
H1378 H 0.50355 0.66376 0.41731 0.0
H1379 H 0.50152 0.64391 0.45466 0.0
H1380 H 0.52583 0.66267 0.45174 0.0
H1381 H 0.52373 0.57278 0.33158 0.0
H1382 H 0.49975 0.57589 0.36248 0.0
H1383 H 0.5021 0.5939 0.32274 0.0
H1384 H 0.44032 0.59891 0.43262 0.0
H1385 H 0.44443 0.64212 0.33695 0.0
H1386 H 0.49691 0.60377 0.46202 0.0
H1387 H 0.49626 0.57979 0.43149 0.0
H1388 H 0.47282 0.58468 0.46282 0.0
H1389 H 0.50186 0.6582 0.34782 0.0
H1390 H 0.47894 0.65654 0.31456 0.0
H1391 H 0.50071 0.63489 0.31588 0.0
C1392 C 0.54765 0.3954 0.64229 0.0
C1393 C 0.56019 0.38289 0.61625 0.0
C1394 C 0.52375 0.39585 0.64101 0.0
C1395 C 0.51214 0.3829 0.61372 0.0
C1396 C 0.52476 0.37033 0.58722 0.0
C1397 C 0.54866 0.37076 0.58848 0.0
C1398 C 0.51092 0.40998 0.66912 0.0
C1399 C 0.51302 0.3558 0.55836 0.0
C1400 C 0.452 0.36504 0.63884 0.0
C1401 C 0.43889 0.37987 0.61718 0.0
C1402 C 0.47586 0.36543 0.63712 0.0
C1403 C 0.48683 0.38161 0.61415 0.0
C1404 C 0.47362 0.39673 0.5923 0.0
C1405 C 0.44972 0.3954 0.5936 0.0
C1406 C 0.4893 0.34855 0.65997 0.0
C1407 C 0.4847 0.41466 0.56837 0.0
H1408 H 0.55653 0.40502 0.66349 0.0
H1409 H 0.55833 0.36097 0.56843 0.0
H1410 H 0.49865 0.42142 0.6549 0.0
H1411 H 0.50093 0.39865 0.68757 0.0
H1412 H 0.52249 0.42052 0.68651 0.0
H1413 H 0.52531 0.34744 0.53927 0.0
H1414 H 0.50276 0.34239 0.5722 0.0
H1415 H 0.50109 0.36632 0.54175 0.0
H1416 H 0.44354 0.35291 0.6568 0.0
H1417 H 0.43947 0.40699 0.57713 0.0
H1418 H 0.49971 0.35774 0.68087 0.0
H1419 H 0.50122 0.33892 0.64194 0.0
H1420 H 0.47813 0.33621 0.67462 0.0
H1421 H 0.49528 0.42611 0.58585 0.0
H1422 H 0.47199 0.42516 0.55319 0.0
H1423 H 0.49624 0.40653 0.54794 0.0
C1424 C 0.04834 0.60501 0.14375 0.0
C1425 C 0.0606 0.61948 0.1202 0.0
C1426 C 0.02445 0.60434 0.14271 0.0
C1427 C 0.01254 0.61899 0.11827 0.0
C1428 C 0.02486 0.63361 0.09434 0.0
C1429 C 0.0488 0.63343 0.0952 0.0
C1430 C 0.01196 0.58804 0.16791 0.0
C1431 C 0.01277 0.64989 0.06857 0.0
C1432 C 0.95067 0.60615 0.0946 0.0
C1433 C 0.93909 0.6198 0.12035 0.0
C1434 C 0.97459 0.60553 0.0938 0.0
C1435 C 0.98717 0.61944 0.1186 0.0
C1436 C 0.97552 0.63355 0.14423 0.0
C1437 C 0.95161 0.63329 0.14517 0.0
C1438 C 0.9864 0.58977 0.06684 0.0
C1439 C 0.98829 0.64904 0.1705 0.0
H1440 H 0.05746 0.594 0.16276 0.0
H1441 H 0.05829 0.64473 0.07714 0.0
H1442 H 0.00149 0.59774 0.18806 0.0
H1443 H 0.00017 0.57721 0.15148 0.0
H1444 H 0.02379 0.57679 0.18354 0.0
H1445 H 0.02485 0.66004 0.05159 0.0
H1446 H 0.00127 0.64035 0.0497 0.0
H1447 H 0.00201 0.66178 0.08491 0.0
H1448 H 0.94099 0.59558 0.07556 0.0
H1449 H 0.94269 0.64403 0.16485 0.0
H1450 H 0.99757 0.57775 0.08214 0.0
H1451 H 0.99746 0.59974 0.04794 0.0
H1452 H 0.97413 0.57975 0.0499 0.0
H1453 H 0.99914 0.63876 0.18931 0.0
H1454 H 0.97666 0.65967 0.18758 0.0
H1455 H 0.99976 0.66048 0.15465 0.0
C1456 C 0.10487 0.53581 0.06171 0.0
C1457 C 0.1189 0.55388 0.05044 0.0
C1458 C 0.10478 0.515 0.04242 0.0
C1459 C 0.11931 0.51208 0.01147 0.0
C1460 C 0.13365 0.53019 0.00016 0.0
C1461 C 0.13317 0.55093 0.01963 0.0
C1462 C 0.08903 0.49617 0.05504 0.0
C1463 C 0.1496 0.52762 0.96761 0.0
C1464 C 0.134 0.45142 0.98303 0.0
C1465 C 0.11965 0.44812 0.95237 0.0
C1466 C 0.13422 0.47224 0.00229 0.0
C1467 C 0.11951 0.49005 0.99095 0.0
C1468 C 0.10494 0.4868 0.96009 0.0
C1469 C 0.10531 0.46593 0.94099 0.0
C1470 C 0.15025 0.47518 0.03473 0.0
C1471 C 0.0888 0.5053 0.94746 0.0
H1472 H 0.09375 0.53799 0.08541 0.0
H1473 H 0.14416 0.56477 0.01089 0.0
H1474 H 0.07745 0.4912 0.03208 0.0
H1475 H 0.09909 0.48084 0.06259 0.0
H1476 H 0.07856 0.50129 0.07929 0.0
H1477 H 0.15989 0.54323 0.96268 0.0
H1478 H 0.16136 0.51309 0.9724 0.0
H1479 H 0.13974 0.52373 0.94214 0.0
H1480 H 0.14524 0.43778 0.99183 0.0
H1481 H 0.09411 0.46346 0.91741 0.0
H1482 H 0.14039 0.47881 0.06028 0.0
H1483 H 0.16163 0.48999 0.02989 0.0
H1484 H 0.16093 0.45982 0.03955 0.0
H1485 H 0.07712 0.51 0.9704 0.0
H1486 H 0.07843 0.49999 0.92316 0.0
H1487 H 0.09853 0.52085 0.93998 0.0
C1488 C 0.70417 0.88723 0.274 0.0
C1489 C 0.70034 0.87186 0.30309 0.0
C1490 C 0.72514 0.88781 0.25543 0.0
C1491 C 0.74259 0.87243 0.26587 0.0
C1492 C 0.73893 0.85704 0.29547 0.0
C1493 C 0.71788 0.85705 0.31393 0.0
C1494 C 0.72853 0.90468 0.22434 0.0
C1495 C 0.75705 0.84021 0.30709 0.0
C1496 C 0.7871 0.85792 0.19337 0.0
C1497 C 0.80571 0.8711 0.20509 0.0
C1498 C 0.76652 0.85807 0.2131 0.0
C1499 C 0.76441 0.87197 0.24502 0.0
C1500 C 0.78306 0.88547 0.25682 0.0
C1501 C 0.80356 0.88476 0.23684 0.0
C1502 C 0.74707 0.84325 0.19988 0.0
C1503 C 0.78132 0.90074 0.29043 0.0
H1504 H 0.69073 0.89885 0.26568 0.0
H1505 H 0.71501 0.84509 0.33632 0.0
H1506 H 0.7439 0.91522 0.2297 0.0
H1507 H 0.7314 0.89544 0.19791 0.0
H1508 H 0.71365 0.9162 0.22081 0.0
H1509 H 0.75169 0.82971 0.33115 0.0
H1510 H 0.7611 0.82865 0.28362 0.0
H1511 H 0.77298 0.84935 0.31447 0.0
H1512 H 0.78866 0.84726 0.16894 0.0
H1513 H 0.81785 0.89508 0.24594 0.0
H1514 H 0.73206 0.854 0.19323 0.0
H1515 H 0.74188 0.83134 0.2222 0.0
H1516 H 0.75161 0.83314 0.1749 0.0
H1517 H 0.76721 0.91312 0.28667 0.0
H1518 H 0.79732 0.91034 0.29573 0.0
H1519 H 0.77727 0.89042 0.31531 0.0
C1520 C 0.39268 0.46618 0.56331 0.0
C1521 C 0.3783 0.44821 0.55267 0.0
C1522 C 0.39285 0.48685 0.5437 0.0
C1523 C 0.37809 0.48972 0.51297 0.0
C1524 C 0.36329 0.47177 0.50245 0.0
C1525 C 0.36366 0.45119 0.52228 0.0
C1526 C 0.40904 0.50552 0.55556 0.0
C1527 C 0.34711 0.47427 0.47013 0.0
C1528 C 0.36472 0.55029 0.48234 0.0
C1529 C 0.3791 0.55281 0.45157 0.0
C1530 C 0.36406 0.52978 0.50237 0.0
C1531 C 0.3783 0.51144 0.49162 0.0
C1532 C 0.39283 0.51387 0.46057 0.0
C1533 C 0.39296 0.53448 0.44078 0.0
C1534 C 0.34814 0.52775 0.53505 0.0
C1535 C 0.40841 0.49476 0.44844 0.0
H1536 H 0.4041 0.46399 0.58667 0.0
H1537 H 0.35241 0.43742 0.51398 0.0
H1538 H 0.42074 0.50975 0.53244 0.0
H1539 H 0.39936 0.52123 0.56234 0.0
H1540 H 0.41938 0.50061 0.58008 0.0
H1541 H 0.3363 0.45891 0.46608 0.0
H1542 H 0.33586 0.48924 0.47451 0.0
H1543 H 0.35687 0.47738 0.44432 0.0
H1544 H 0.35386 0.56433 0.49076 0.0
H1545 H 0.40416 0.5363 0.41711 0.0
H1546 H 0.35805 0.52431 0.56063 0.0
H1547 H 0.33638 0.51315 0.53089 0.0
H1548 H 0.33786 0.54344 0.53938 0.0
H1549 H 0.42014 0.49017 0.47139 0.0
H1550 H 0.41873 0.4994 0.42379 0.0
H1551 H 0.39825 0.47934 0.44175 0.0
C1552 C 0.71578 0.1447 0.69274 0.0
C1553 C 0.69754 0.13101 0.7043 0.0
C1554 C 0.73668 0.14439 0.71167 0.0
C1555 C 0.73949 0.1298 0.74257 0.0
C1556 C 0.72124 0.11569 0.75405 0.0
C1557 C 0.70043 0.11657 0.73492 0.0
C1558 C 0.75568 0.15986 0.69888 0.0
C1559 C 0.72369 0.09968 0.78655 0.0
C1560 C 0.79987 0.11455 0.77138 0.0
C1561 C 0.80323 0.12897 0.80196 0.0
C1562 C 0.77913 0.1145 0.75197 0.0
C1563 C 0.76146 0.12944 0.76312 0.0
C1564 C 0.76477 0.14407 0.79391 0.0
C1565 C 0.78556 0.14354 0.81313 0.0
C1566 C 0.77611 0.09844 0.71958 0.0
C1567 C 0.7464 0.16041 0.80637 0.0
H1568 H 0.71364 0.15594 0.66916 0.0
H1569 H 0.68645 0.10582 0.74386 0.0
H1570 H 0.76069 0.17157 0.72167 0.0
H1571 H 0.77093 0.14961 0.69162 0.0
H1572 H 0.75074 0.17023 0.67441 0.0
H1573 H 0.70805 0.08943 0.79136 0.0
H1574 H 0.73818 0.08787 0.78182 0.0
H1575 H 0.72754 0.10953 0.81207 0.0
H1576 H 0.81341 0.10315 0.76272 0.0
H1577 H 0.78807 0.15479 0.83665 0.0
H1578 H 0.7726 0.10829 0.69399 0.0
H1579 H 0.76122 0.08717 0.72443 0.0
H1580 H 0.79139 0.08762 0.71485 0.0
H1581 H 0.74185 0.17208 0.78334 0.0
H1582 H 0.75176 0.17081 0.83062 0.0
H1583 H 0.73077 0.15084 0.81385 0.0
C1584 C 0.89121 0.46516 0.93882 0.0
C1585 C 0.87743 0.44669 0.94913 0.0
C1586 C 0.89088 0.48564 0.95897 0.0
C1587 C 0.87619 0.48781 0.98987 0.0
C1588 C 0.86193 0.46938 1.00003 0.0
C1589 C 0.86283 0.44897 0.97968 0.0
C1590 C 0.90651 0.50485 0.94753 0.0
C1591 C 0.8458 0.47118 0.03249 0.0
C1592 C 0.8909 0.5326 0.0622 0.0
C1593 C 0.87696 0.55085 0.05139 0.0
C1594 C 0.89069 0.51191 0.04257 0.0
C1595 C 0.87596 0.50932 0.01176 0.0
C1596 C 0.86144 0.52749 0.00128 0.0
C1597 C 0.86223 0.5481 0.02107 0.0
C1598 C 0.9066 0.493 0.05433 0.0
C1599 C 0.84525 0.52525 0.96891 0.0
H1600 H 0.9026 0.4635 0.91533 0.0
H1601 H 0.85205 0.4348 0.98769 0.0
H1602 H 0.89639 0.52034 0.94118 0.0
H1603 H 0.91817 0.50922 0.9707 0.0
H1604 H 0.91692 0.50042 0.92284 0.0
H1605 H 0.83538 0.45552 0.0361 0.0
H1606 H 0.85557 0.47426 0.05835 0.0
H1607 H 0.83419 0.48592 0.02862 0.0
H1608 H 0.90237 0.53463 0.08554 0.0
H1609 H 0.85129 0.56209 0.01272 0.0
H1610 H 0.91851 0.48891 0.0314 0.0
H1611 H 0.89676 0.47729 0.06039 0.0
H1612 H 0.91674 0.4976 0.07927 0.0
H1613 H 0.85503 0.52249 0.94299 0.0
H1614 H 0.83437 0.54061 0.96538 0.0
H1615 H 0.83408 0.51018 0.97276 0.0
C1616 C 0.21608 0.14209 0.8079 0.0
C1617 C 0.19733 0.12914 0.79607 0.0
C1618 C 0.23661 0.14197 0.78797 0.0
C1619 C 0.23852 0.12835 0.75569 0.0
C1620 C 0.21976 0.115 0.74387 0.0
C1621 C 0.19934 0.11564 0.76409 0.0
C1622 C 0.25617 0.1566 0.80125 0.0
C1623 C 0.22126 0.10004 0.70986 0.0
C1624 C 0.28421 0.14383 0.68553 0.0
C1625 C 0.30182 0.12881 0.69521 0.0
C1626 C 0.26347 0.14382 0.7049 0.0
C1627 C 0.26016 0.12817 0.73426 0.0
C1628 C 0.27771 0.11264 0.74365 0.0
C1629 C 0.29839 0.11325 0.72419 0.0
C1630 C 0.24524 0.16081 0.69438 0.0
C1631 C 0.2747 0.09548 0.77444 0.0
H1632 H 0.21465 0.15261 0.83251 0.0
H1633 H 0.18496 0.1055 0.75487 0.0
H1634 H 0.27128 0.14579 0.80702 0.0
H1635 H 0.26109 0.16887 0.77928 0.0
H1636 H 0.25188 0.16632 0.82676 0.0
H1637 H 0.20528 0.09034 0.7048 0.0
H1638 H 0.22493 0.11062 0.68513 0.0
H1639 H 0.23552 0.08775 0.71289 0.0
H1640 H 0.28678 0.15595 0.66326 0.0
H1641 H 0.31188 0.10148 0.73165 0.0
H1642 H 0.24137 0.17199 0.7184 0.0
H1643 H 0.22927 0.15177 0.68695 0.0
H1644 H 0.2504 0.17169 0.67065 0.0
H1645 H 0.27197 0.10447 0.80113 0.0
H1646 H 0.28969 0.08404 0.77737 0.0
H1647 H 0.25936 0.08489 0.76916 0.0
C1648 C 0.63626 0.55138 0.48144 0.0
C1649 C 0.62158 0.55441 0.45114 0.0
C1650 C 0.63694 0.53062 0.50073 0.0
C1651 C 0.62235 0.51259 0.48976 0.0
C1652 C 0.6075 0.51555 0.4592 0.0
C1653 C 0.60741 0.53637 0.44008 0.0
C1654 C 0.65322 0.52799 0.53288 0.0
C1655 C 0.59151 0.49681 0.44695 0.0
C1656 C 0.63588 0.45172 0.51823 0.0
C1657 C 0.62147 0.4488 0.54885 0.0
C1658 C 0.63662 0.47253 0.49908 0.0
C1659 C 0.62238 0.49071 0.51053 0.0
C1660 C 0.60786 0.48789 0.54149 0.0
C1661 C 0.60771 0.46701 0.56045 0.0
C1662 C 0.65256 0.47503 0.46652 0.0
C1663 C 0.59225 0.5068 0.55427 0.0
H1664 H 0.64737 0.56521 0.48999 0.0
H1665 H 0.59598 0.53861 0.41676 0.0
H1666 H 0.64357 0.52452 0.55867 0.0
H1667 H 0.66463 0.51319 0.52804 0.0
H1668 H 0.66387 0.54343 0.53725 0.0
H1669 H 0.58101 0.50184 0.42267 0.0
H1670 H 0.60135 0.48129 0.43962 0.0
H1671 H 0.57994 0.49217 0.47006 0.0
H1672 H 0.64668 0.43776 0.50928 0.0
H1673 H 0.59649 0.46486 0.58403 0.0
H1674 H 0.66411 0.48977 0.47101 0.0
H1675 H 0.64264 0.47853 0.44097 0.0
H1676 H 0.66306 0.45952 0.46192 0.0
H1677 H 0.60234 0.52223 0.5612 0.0
H1678 H 0.58207 0.50189 0.57894 0.0
H1679 H 0.58038 0.51152 0.53158 0.0
C1680 C 0.29838 0.88461 0.26896 0.0
C1681 C 0.30153 0.87011 0.29944 0.0
C1682 C 0.27771 0.88494 0.24944 0.0
C1683 C 0.25981 0.87026 0.26042 0.0
C1684 C 0.26281 0.85566 0.29127 0.0
C1685 C 0.28361 0.85585 0.31056 0.0
C1686 C 0.27506 0.90094 0.21694 0.0
C1687 C 0.24416 0.83964 0.30359 0.0
C1688 C 0.19955 0.88437 0.22956 0.0
C1689 C 0.19689 0.87002 0.1987 0.0
C1690 C 0.21994 0.88464 0.24989 0.0
C1691 C 0.23803 0.87005 0.23933 0.0
C1692 C 0.23543 0.85546 0.2083 0.0
C1693 C 0.21493 0.85571 0.18823 0.0
C1694 C 0.22218 0.90061 0.28256 0.0
C1695 C 0.25429 0.83953 0.19638 0.0
H1696 H 0.3121 0.89578 0.2603 0.0
H1697 H 0.28594 0.84456 0.33402 0.0
H1698 H 0.27174 0.89102 0.1913 0.0
H1699 H 0.26018 0.9123 0.22137 0.0
H1700 H 0.29042 0.91167 0.21254 0.0
H1701 H 0.24916 0.82947 0.32825 0.0
H1702 H 0.22853 0.84943 0.31035 0.0
H1703 H 0.23977 0.82775 0.28072 0.0
H1704 H 0.18571 0.89554 0.23775 0.0
H1705 H 0.21298 0.84451 0.16451 0.0
H1706 H 0.23673 0.91239 0.27816 0.0
H1707 H 0.22582 0.89076 0.3081 0.0
H1708 H 0.20653 0.91091 0.28711 0.0
H1709 H 0.26975 0.84948 0.18924 0.0
H1710 H 0.24941 0.82898 0.17204 0.0
H1711 H 0.25892 0.82801 0.21956 0.0
C1712 C 0.61848 0.05141 0.51963 0.0
C1713 C 0.62405 0.05246 0.55731 0.0
C1714 C 0.61953 0.03069 0.5002 0.0
C1715 C 0.62725 0.01081 0.5186 0.0
C1716 C 0.63313 0.01188 0.55666 0.0
C1717 C 0.631 0.03266 0.57579 0.0
C1718 C 0.61233 0.0301 0.46001 0.0
C1719 C 0.64223 0.99128 0.57688 0.0
C1720 C 0.61397 0.95283 0.47645 0.0
C1721 C 0.63342 0.949 0.45488 0.0
C1722 C 0.61166 0.97294 0.4973 0.0
C1723 C 0.62966 0.98906 0.49766 0.0
C1724 C 0.6497 0.98477 0.47692 0.0
C1725 C 0.65113 0.96498 0.45511 0.0
C1726 C 0.5897 0.97729 0.5179 0.0
C1727 C 0.6696 0.00111 0.47763 0.0
H1728 H 0.61294 0.06676 0.5055 0.0
H1729 H 0.63548 0.03361 0.60492 0.0
H1730 H 0.62715 0.02582 0.44227 0.0
H1731 H 0.59932 0.01661 0.45567 0.0
H1732 H 0.60518 0.04666 0.45062 0.0
H1733 H 0.64625 0.99504 0.60635 0.0
H1734 H 0.62964 0.97719 0.57587 0.0
H1735 H 0.65794 0.98508 0.56302 0.0
H1736 H 0.60022 0.94047 0.47592 0.0
H1737 H 0.66623 0.96184 0.43859 0.0
H1738 H 0.58169 0.9932 0.50752 0.0
H1739 H 0.59317 0.97979 0.54783 0.0
H1740 H 0.57734 0.96306 0.51468 0.0
H1741 H 0.66459 0.01755 0.46484 0.0
H1742 H 0.68463 0.99431 0.46251 0.0
H1743 H 0.67466 0.00475 0.50669 0.0
C1744 C 0.30114 0.3854 0.73592 0.0
C1745 C 0.30363 0.37123 0.70483 0.0
C1746 C 0.28059 0.38605 0.7558 0.0
C1747 C 0.26222 0.37197 0.7446 0.0
C1748 C 0.26466 0.3576 0.7133 0.0
C1749 C 0.28527 0.35752 0.69363 0.0
C1750 C 0.27851 0.40184 0.78871 0.0
C1751 C 0.24554 0.34214 0.70074 0.0
C1752 C 0.21637 0.35741 0.81499 0.0
C1753 C 0.19851 0.37176 0.80394 0.0
C1754 C 0.23724 0.35734 0.79598 0.0
C1755 C 0.24041 0.37224 0.76557 0.0
C1756 C 0.22259 0.38708 0.75473 0.0
C1757 C 0.20179 0.38654 0.77387 0.0
C1758 C 0.25576 0.34107 0.80806 0.0
C1759 C 0.22544 0.40344 0.72279 0.0
H1760 H 0.31522 0.39613 0.74462 0.0
H1761 H 0.28709 0.34646 0.66971 0.0
H1762 H 0.26405 0.41376 0.78453 0.0
H1763 H 0.27483 0.39185 0.81408 0.0
H1764 H 0.29425 0.41198 0.79344 0.0
H1765 H 0.25027 0.3318 0.67611 0.0
H1766 H 0.2407 0.33043 0.72354 0.0
H1767 H 0.23025 0.35243 0.69382 0.0
H1768 H 0.21393 0.3459 0.83814 0.0
H1769 H 0.18811 0.39782 0.76535 0.0
H1770 H 0.27145 0.35067 0.8152 0.0
H1771 H 0.2601 0.32937 0.78492 0.0
H1772 H 0.25064 0.3307 0.83241 0.0
H1773 H 0.24048 0.41454 0.72762 0.0
H1774 H 0.21022 0.41443 0.71872 0.0
H1775 H 0.22861 0.3938 0.69683 0.0
C1776 C 0.89375 0.03549 0.94359 0.0
C1777 C 0.88071 0.05414 0.95556 0.0
C1778 C 0.89389 0.01496 0.96351 0.0
C1779 C 0.88047 0.01296 0.99592 0.0
C1780 C 0.86719 0.03168 0.00806 0.0
C1781 C 0.86756 0.0521 0.98784 0.0
C1782 C 0.90842 0.99541 0.94989 0.0
C1783 C 0.85246 0.03009 0.04225 0.0
C1784 C 0.86463 0.95309 0.02632 0.0
C1785 C 0.88017 0.94925 0.05523 0.0
C1786 C 0.86432 0.97388 0.00717 0.0
C1787 C 0.88012 0.99114 0.01685 0.0
C1788 C 0.89576 0.98744 0.04613 0.0
C1789 C 0.89549 0.96657 0.06516 0.0
C1790 C 0.84718 0.97733 0.97643 0.0
C1791 C 0.91301 0.00537 0.05696 0.0
H1792 H 0.904 0.03696 0.91874 0.0
H1793 H 0.85736 0.06641 0.99718 0.0
H1794 H 0.92057 0.99016 0.97187 0.0
H1795 H 0.89752 0.98044 0.94357 0.0
H1796 H 0.91824 0.99989 0.92462 0.0
H1797 H 0.84312 0.0462 0.04795 0.0
H1798 H 0.83988 0.0161 0.03894 0.0
H1799 H 0.86312 0.0259 0.06673 0.0
H1800 H 0.85264 0.93982 0.01865 0.0
H1801 H 0.90759 0.96368 0.08738 0.0
H1802 H 0.85617 0.98021 0.94981 0.0
H1803 H 0.83674 0.99273 0.98206 0.0
H1804 H 0.8356 0.96247 0.97311 0.0
H1805 H 0.92417 0.00928 0.03299 0.0
H1806 H 0.92387 0.99989 0.08056 0.0
H1807 H 0.9042 0.02142 0.06473 0.0
C1808 C 0.20084 0.61377 0.23132 0.0
C1809 C 0.19778 0.62813 0.20063 0.0
C1810 C 0.22176 0.61294 0.25018 0.0
C1811 C 0.23997 0.627 0.23838 0.0
C1812 C 0.23703 0.64143 0.2073 0.0
C1813 C 0.21602 0.6417 0.18865 0.0
C1814 C 0.22434 0.59711 0.2829 0.0
C1815 C 0.25596 0.65686 0.19413 0.0
C1816 C 0.28565 0.64212 0.3089 0.0
C1817 C 0.30364 0.62781 0.2982 0.0
C1818 C 0.26489 0.64208 0.28957 0.0
C1819 C 0.2619 0.6271 0.25915 0.0
C1820 C 0.27988 0.61237 0.24851 0.0
C1821 C 0.30061 0.61302 0.268 0.0
C1822 C 0.24623 0.65825 0.30148 0.0
C1823 C 0.2772 0.59592 0.21657 0.0
H1824 H 0.18688 0.6031 0.24059 0.0
H1825 H 0.21379 0.65286 0.16499 0.0
H1826 H 0.23905 0.58553 0.27852 0.0
H1827 H 0.22788 0.60715 0.30834 0.0
H1828 H 0.20884 0.58662 0.28763 0.0
H1829 H 0.25103 0.66685 0.16924 0.0
H1830 H 0.26077 0.66892 0.21655 0.0
H1831 H 0.27132 0.64665 0.18741 0.0
H1832 H 0.28789 0.65367 0.33211 0.0
H1833 H 0.3144 0.60181 0.25972 0.0
H1834 H 0.23071 0.6485 0.30903 0.0
H1835 H 0.24159 0.66965 0.27814 0.0
H1836 H 0.25133 0.66894 0.32554 0.0
H1837 H 0.26242 0.58453 0.22155 0.0
H1838 H 0.29263 0.58524 0.21234 0.0
H1839 H 0.27369 0.60545 0.19066 0.0
C1840 C 0.39252 0.03441 0.55765 0.0
C1841 C 0.37851 0.05257 0.54665 0.0
C1842 C 0.39229 0.0136 0.53842 0.0
C1843 C 0.37742 0.01075 0.50783 0.0
C1844 C 0.36292 0.02887 0.49703 0.0
C1845 C 0.36376 0.04963 0.5164 0.0
C1846 C 0.40822 0.99478 0.55047 0.0
C1847 C 0.34658 0.02634 0.46493 0.0
C1848 C 0.39216 0.96555 0.43631 0.0
C1849 C 0.37846 0.94724 0.44759 0.0
C1850 C 0.39196 0.98633 0.45566 0.0
C1851 C 0.37743 0.98896 0.48667 0.0
C1852 C 0.36325 0.97068 0.4978 0.0
C1853 C 0.36406 0.94996 0.47829 0.0
C1854 C 0.40755 0.00533 0.44325 0.0
C1855 C 0.34729 0.97298 0.53039 0.0
H1856 H 0.404 0.03658 0.58094 0.0
H1857 H 0.35277 0.06355 0.50792 0.0
H1858 H 0.39836 0.97922 0.55743 0.0
H1859 H 0.41987 0.99026 0.52738 0.0
H1860 H 0.41865 0.99968 0.57493 0.0
H1861 H 0.33583 0.04175 0.46096 0.0
H1862 H 0.35621 0.0231 0.43901 0.0
H1863 H 0.33527 0.01143 0.46949 0.0
H1864 H 0.40338 0.96355 0.41268 0.0
H1865 H 0.35332 0.93592 0.48701 0.0
H1866 H 0.41937 0.00998 0.46607 0.0
H1867 H 0.39743 0.02076 0.43652 0.0
H1868 H 0.41779 0.00054 0.41855 0.0
H1869 H 0.35719 0.97635 0.55602 0.0
H1870 H 0.33681 0.95743 0.53467 0.0
H1871 H 0.33572 0.98773 0.52617 0.0
C1872 C 0.79785 0.6147 0.22897 0.0
C1873 C 0.80062 0.62848 0.19754 0.0
C1874 C 0.77717 0.61438 0.24851 0.0
C1875 C 0.75893 0.6284 0.23663 0.0
C1876 C 0.76158 0.64225 0.20481 0.0
C1877 C 0.78234 0.642 0.18551 0.0
C1878 C 0.77489 0.59916 0.28202 0.0
C1879 C 0.74261 0.65761 0.1915 0.0
C1880 C 0.6985 0.61506 0.26775 0.0
C1881 C 0.69569 0.6303 0.29741 0.0
C1882 C 0.71909 0.61406 0.24801 0.0
C1883 C 0.73717 0.62889 0.25781 0.0
C1884 C 0.7344 0.64435 0.28765 0.0
C1885 C 0.71376 0.64474 0.30728 0.0
C1886 C 0.72151 0.5971 0.21672 0.0
C1887 C 0.75318 0.66064 0.29863 0.0
H1888 H 0.81186 0.60411 0.23834 0.0
H1889 H 0.78436 0.65275 0.16132 0.0
H1890 H 0.77161 0.60965 0.30705 0.0
H1891 H 0.7601 0.58755 0.2785 0.0
H1892 H 0.7904 0.58871 0.28689 0.0
H1893 H 0.74735 0.66723 0.16615 0.0
H1894 H 0.72713 0.64739 0.18548 0.0
H1895 H 0.73808 0.67 0.21357 0.0
H1896 H 0.68466 0.60372 0.26013 0.0
H1897 H 0.71169 0.65661 0.33009 0.0
H1898 H 0.7363 0.58576 0.22195 0.0
H1899 H 0.72486 0.60622 0.19036 0.0
H1900 H 0.70603 0.5864 0.21315 0.0
H1901 H 0.76873 0.65097 0.30633 0.0
H1902 H 0.74827 0.6717 0.32234 0.0
H1903 H 0.75768 0.67167 0.27477 0.0
C1904 C 0.1104 0.96444 0.05417 0.0
C1905 C 0.12393 0.94593 0.04307 0.0
C1906 C 0.11074 0.9851 0.03461 0.0
C1907 C 0.1252 0.98744 0.00347 0.0
C1908 C 0.13918 0.96895 0.99244 0.0
C1909 C 0.13826 0.94834 0.01222 0.0
C1910 C 0.09538 0.00433 0.047 0.0
C1911 C 0.15505 0.97092 0.9597 0.0
C1912 C 0.10986 0.03316 0.9332 0.0
C1913 C 0.12389 0.0513 0.94433 0.0
C1914 C 0.11031 0.0122 0.95195 0.0
C1915 C 0.12538 0.00919 0.98221 0.0
C1916 C 0.14001 0.02724 0.99297 0.0
C1917 C 0.13898 0.04813 0.97407 0.0
C1918 C 0.09424 0.99347 0.93992 0.0
C1919 C 0.15655 0.02457 0.02477 0.0
H1920 H 0.09924 0.96271 0.07791 0.0
H1921 H 0.14887 0.93415 0.00361 0.0
H1922 H 0.1057 0.01965 0.05365 0.0
H1923 H 0.08359 0.00905 0.02421 0.0
H1924 H 0.08513 0.99975 0.07175 0.0
H1925 H 0.16529 0.9552 0.95537 0.0
H1926 H 0.14511 0.97437 0.93416 0.0
H1927 H 0.16684 0.98551 0.96378 0.0
H1928 H 0.09812 0.03548 0.9103 0.0
H1929 H 0.14999 0.06202 0.98267 0.0
H1930 H 0.08248 0.9892 0.96295 0.0
H1931 H 0.10397 0.97778 0.9332 0.0
H1932 H 0.08395 0.99835 0.91532 0.0
H1933 H 0.14704 0.02166 0.05089 0.0
H1934 H 0.16759 0.0398 0.0284 0.0
H1935 H 0.16755 0.00943 0.02016 0.0
C1936 C 0.70044 0.38711 0.72851 0.0
C1937 C 0.69741 0.37251 0.69806 0.0
C1938 C 0.72116 0.38769 0.74798 0.0
C1939 C 0.73918 0.37312 0.73702 0.0
C1940 C 0.73626 0.35841 0.70621 0.0
C1941 C 0.71546 0.35839 0.68695 0.0
C1942 C 0.72373 0.40381 0.78039 0.0
C1943 C 0.755 0.34245 0.69392 0.0
C1944 C 0.7999 0.38637 0.76704 0.0
C1945 C 0.80262 0.37176 0.79748 0.0
C1946 C 0.77923 0.38723 0.74741 0.0
C1947 C 0.76097 0.37293 0.75819 0.0
C1948 C 0.76359 0.35821 0.78897 0.0
C1949 C 0.78432 0.35792 0.8084 0.0
C1950 C 0.77698 0.40338 0.71505 0.0
C1951 C 0.74458 0.34254 0.80109 0.0
H1952 H 0.68661 0.39817 0.73713 0.0
H1953 H 0.71323 0.34702 0.66351 0.0
H1954 H 0.72697 0.39399 0.80611 0.0
H1955 H 0.73863 0.41514 0.77601 0.0
H1956 H 0.70835 0.41456 0.7846 0.0
H1957 H 0.75007 0.33219 0.66928 0.0
H1958 H 0.77059 0.3523 0.68716 0.0
H1959 H 0.75944 0.33064 0.71682 0.0
H1960 H 0.81392 0.39721 0.75856 0.0
H1961 H 0.7863 0.34653 0.83181 0.0
H1962 H 0.76228 0.41498 0.71945 0.0
H1963 H 0.77357 0.3936 0.68929 0.0
H1964 H 0.79255 0.41384 0.71089 0.0
H1965 H 0.72916 0.35263 0.80794 0.0
H1966 H 0.74933 0.33216 0.82565 0.0
H1967 H 0.73996 0.33084 0.77808 0.0
loop_
_geom_bond_atom_site_label_1
_geom_bond_atom_site_label_2
_geom_bond_distance
_geom_bond_site_symmetry_2
_ccdc_geom_bond_type
Co0 O2 2.143 . S
Co0 O8 2.074 . S
Co0 O11 2.093 . S
Co0 O24 2.097 . S
Co0 N41 2.151 . S
Co0 N49 2.214 . S
Co1 O2 2.160 . S
Co1 O7 2.058 . S
Co1 O17 2.057 . S
Co1 O32 2.037 . S
Co1 N36 2.145 . S
Co1 N57 2.257 . S
O2 Co0 2.143 . S
O2 Co1 2.160 . S
C3 O4 1.278 . S
C3 O11 1.224 . S
O4 C3 1.278 . S
C5 O6 1.245 . S
C5 O17 1.232 . S
O6 C5 1.245 . S
O7 Co1 2.058 . S
O7 C33 1.269 . S
O8 Co0 2.074 . S
O8 C33 1.257 . S
H9 C34 0.930 . S
H10 C40 0.930 . S
O11 Co0 2.093 . S
O11 C3 1.224 . S
H12 C44 0.931 1_556 S
H13 C46 0.930 . S
H14 C47 0.930 . S
H15 C45 0.929 . S
H16 C48 0.928 . S
O17 Co1 2.057 . S
O17 C5 1.232 . S
H18 C37 0.929 . S
H19 C38 0.929 . S
H20 C50 0.931 . S
H21 C42 0.929 . S
H22 C51 0.930 . S
H23 C43 0.931 . S
O24 Co0 2.097 . S
O24 C52 1.214 . S
H25 C53 0.929 . S
H26 C54 0.929 . S
H27 C55 0.930 . S
H28 C56 0.929 . S
H29 C58 0.930 . S
H30 C35 0.930 . S
H31 C39 0.930 . S
O32 Co1 2.037 . S
O32 C52 1.234 . S
C33 O7 1.269 . S
C33 O8 1.257 . S
C34 H9 0.930 . S
C34 C37 1.388 . S
C34 C39 1.418 . S
C35 H30 0.930 . S
C35 C38 1.404 . S
C35 C39 1.353 . S
N36 Co1 2.145 . S
N36 C37 1.397 . S
N36 C38 1.334 . S
C37 H18 0.929 . S
C37 C34 1.388 . S
C37 N36 1.397 . S
C38 H19 0.929 . S
C38 C35 1.404 . S
C38 N36 1.334 . S
C39 H31 0.930 . S
C39 C34 1.418 . S
C39 C35 1.353 . S
C40 H10 0.930 . S
C40 N41 1.330 . S
C40 C42 1.446 . S
N41 Co0 2.151 . S
N41 C40 1.330 . S
N41 C45 1.418 . S
C42 H21 0.929 . S
C42 C40 1.446 . S
C42 C43 1.332 1_554 S
C43 H23 0.931 . S
C43 C42 1.332 1_556 S
C43 C44 1.267 1_556 S
C44 H12 0.931 1_554 S
C44 C43 1.267 1_554 S
C44 C45 1.249 . S
C45 H15 0.929 . S
C45 N41 1.418 . S
C45 C44 1.249 . S
C46 H13 0.930 . S
C46 C48 1.406 . S
C46 C51 1.261 . S
C47 H14 0.930 . S
C47 N49 1.325 . S
C47 C50 1.357 . S
C48 H16 0.928 . S
C48 C46 1.406 . S
C48 N49 1.261 1_556 S
N49 Co0 2.214 . S
N49 C47 1.325 . S
N49 C48 1.261 1_554 S
C50 H20 0.931 . S
C50 C47 1.357 . S
C50 C51 1.312 1_554 S
C51 H22 0.930 . S
C51 C46 1.261 . S
C51 C50 1.312 1_556 S
C52 O24 1.214 . S
C52 O32 1.234 . S
C53 H25 0.929 . S
C53 C56 1.391 . S
C53 C58 1.391 . S
C54 H26 0.929 . S
C54 C55 1.390 . S
C54 N57 1.391 . S
C55 H27 0.930 . S
C55 C54 1.390 . S
C55 C56 1.392 . S
C56 H28 0.929 . S
C56 C53 1.391 . S
C56 C55 1.392 . S
N57 Co1 2.257 . S
N57 C54 1.391 . S
N57 C58 1.388 . S
C58 H29 0.930 . S
C58 C53 1.391 . S
C58 N57 1.388 . S
Co59 O61 2.143 . S
Co59 O67 2.074 . S
Co59 O70 2.093 . S
Co59 O83 2.097 . S
Co59 N100 2.151 . S
Co59 N108 2.214 . S
Co60 O61 2.160 . S
Co60 O66 2.058 . S
Co60 O76 2.057 . S
Co60 O91 2.037 . S
Co60 N95 2.145 . S
Co60 N116 2.257 . S
O61 Co59 2.143 . S
O61 Co60 2.160 . S
C62 O63 1.278 . S
C62 O70 1.224 . S
O63 C62 1.278 . S
C64 O65 1.245 . S
C64 O76 1.232 . S
O65 C64 1.245 . S
O66 Co60 2.058 . S
O66 C92 1.269 . S
O67 Co59 2.074 . S
O67 C92 1.257 . S
H68 C93 0.930 . S
H69 C99 0.930 . S
O70 Co59 2.093 . S
O70 C62 1.224 . S
H71 C103 0.929 . S
H72 C105 0.930 . S
H73 C106 0.930 . S
H74 C104 0.929 . S
H75 C107 0.928 . S
O76 Co60 2.057 . S
O76 C64 1.232 . S
H77 C96 0.929 . S
H78 C97 0.929 . S
H79 C109 0.931 . S
H80 C101 0.929 . S
H81 C110 0.930 . S
H82 C102 0.931 . S
O83 Co59 2.097 . S
O83 C111 1.214 . S
H84 C112 0.929 . S
H85 C113 0.929 . S
H86 C114 0.930 . S
H87 C115 0.929 . S
H88 C117 0.930 . S
H89 C94 0.930 . S
H90 C98 0.930 . S
O91 Co60 2.037 . S
O91 C111 1.234 . S
C92 O66 1.269 . S
C92 O67 1.257 . S
C93 H68 0.930 . S
C93 C96 1.388 . S
C93 C98 1.418 . S
C94 H89 0.930 . S
C94 C97 1.404 . S
C94 C98 1.353 . S
N95 Co60 2.145 . S
N95 C96 1.397 . S
N95 C97 1.334 . S
C96 H77 0.929 . S
C96 C93 1.388 . S
C96 N95 1.397 . S
C97 H78 0.929 . S
C97 C94 1.404 . S
C97 N95 1.334 . S
C98 H90 0.930 . S
C98 C93 1.418 . S
C98 C94 1.353 . S
C99 H69 0.930 . S
C99 N100 1.330 . S
C99 C101 1.446 . S
N100 Co59 2.151 . S
N100 C99 1.330 . S
N100 C104 1.418 . S
C101 H80 0.929 . S
C101 C99 1.446 . S
C101 C102 1.332 . S
C102 H82 0.931 . S
C102 C101 1.332 . S
C102 C103 1.267 . S
C103 H71 0.929 . S
C103 C102 1.267 . S
C103 C104 1.251 . S
C104 H74 0.929 . S
C104 N100 1.418 . S
C104 C103 1.251 . S
C105 H72 0.930 . S
C105 C107 1.406 . S
C105 C110 1.261 . S
C106 H73 0.930 . S
C106 N108 1.325 . S
C106 C109 1.357 . S
C107 H75 0.928 . S
C107 C105 1.406 . S
C107 N108 1.261 . S
N108 Co59 2.214 . S
N108 C106 1.325 . S
N108 C107 1.261 . S
C109 H79 0.931 . S
C109 C106 1.357 . S
C109 C110 1.312 . S
C110 H81 0.930 . S
C110 C105 1.261 . S
C110 C109 1.312 . S
C111 O83 1.214 . S
C111 O91 1.234 . S
C112 H84 0.929 . S
C112 C115 1.391 . S
C112 C117 1.391 . S
C113 H85 0.929 . S
C113 C114 1.390 . S
C113 N116 1.391 . S
C114 H86 0.930 . S
C114 C113 1.390 . S
C114 C115 1.392 . S
C115 H87 0.929 . S
C115 C112 1.391 . S
C115 C114 1.392 . S
N116 Co60 2.257 . S
N116 C113 1.391 . S
N116 C117 1.388 . S
C117 H88 0.930 . S
C117 C112 1.391 . S
C117 N116 1.388 . S
Co118 O120 2.143 . S
Co118 O126 2.074 . S
Co118 O129 2.093 . S
Co118 O142 2.097 . S
Co118 N159 2.151 . S
Co118 N167 2.214 . S
Co119 O120 2.160 . S
Co119 O125 2.058 . S
Co119 O135 2.057 . S
Co119 O150 2.037 . S
Co119 N154 2.145 . S
Co119 N175 2.257 . S
O120 Co118 2.143 . S
O120 Co119 2.160 . S
C121 O122 1.278 . S
C121 O129 1.224 . S
O122 C121 1.278 . S
C123 O124 1.245 . S
C123 O135 1.232 . S
O124 C123 1.245 . S
O125 Co119 2.058 . S
O125 C151 1.269 . S
O126 Co118 2.074 . S
O126 C151 1.257 . S
H127 C152 0.930 . S
H128 C158 0.930 . S
O129 Co118 2.093 . S
O129 C121 1.224 . S
H130 C162 0.929 . S
H131 C164 0.930 . S
H132 C165 0.930 . S
H133 C163 0.929 . S
H134 C166 0.928 . S
O135 Co119 2.057 . S
O135 C123 1.232 . S
H136 C155 0.929 . S
H137 C156 0.929 . S
H138 C168 0.931 . S
H139 C160 0.929 . S
H140 C169 0.930 . S
H141 C161 0.931 . S
O142 Co118 2.097 . S
O142 C170 1.214 . S
H143 C171 0.929 . S
H144 C172 0.929 . S
H145 C173 0.930 . S
H146 C174 0.929 . S
H147 C176 0.930 . S
H148 C153 0.930 . S
H149 C157 0.930 . S
O150 Co119 2.037 . S
O150 C170 1.234 . S
C151 O125 1.269 . S
C151 O126 1.257 . S
C152 H127 0.930 . S
C152 C155 1.388 . S
C152 C157 1.418 . S
C153 H148 0.930 . S
C153 C156 1.404 . S
C153 C157 1.353 . S
N154 Co119 2.145 . S
N154 C155 1.397 . S
N154 C156 1.334 . S
C155 H136 0.929 . S
C155 C152 1.388 . S
C155 N154 1.397 . S
C156 H137 0.929 . S
C156 C153 1.404 . S
C156 N154 1.334 . S
C157 H149 0.930 . S
C157 C152 1.418 . S
C157 C153 1.353 . S
C158 H128 0.930 . S
C158 N159 1.330 . S
C158 C160 1.446 . S
N159 Co118 2.151 . S
N159 C158 1.330 . S
N159 C163 1.418 . S
C160 H139 0.929 . S
C160 C158 1.446 . S
C160 C161 1.332 . S
C161 H141 0.931 . S
C161 C160 1.332 . S
C161 C162 1.267 . S
C162 H130 0.929 . S
C162 C161 1.267 . S
C162 C163 1.251 . S
C163 H133 0.929 . S
C163 N159 1.418 . S
C163 C162 1.251 . S
C164 H131 0.930 . S
C164 C166 1.406 . S
C164 C169 1.261 . S
C165 H132 0.930 . S
C165 N167 1.325 . S
C165 C168 1.357 . S
C166 H134 0.928 . S
C166 C164 1.406 . S
C166 N167 1.261 . S
N167 Co118 2.214 . S
N167 C165 1.325 . S
N167 C166 1.261 . S
C168 H138 0.931 . S
C168 C165 1.357 . S
C168 C169 1.312 . S
C169 H140 0.930 . S
C169 C164 1.261 . S
C169 C168 1.312 . S
C170 O142 1.214 . S
C170 O150 1.234 . S
C171 H143 0.929 . S
C171 C174 1.391 . S
C171 C176 1.391 . S
C172 H144 0.929 . S
C172 C173 1.390 . S
C172 N175 1.391 . S
C173 H145 0.930 . S
C173 C172 1.390 . S
C173 C174 1.392 . S
C174 H146 0.929 . S
C174 C171 1.391 . S
C174 C173 1.392 . S
N175 Co119 2.257 . S
N175 C172 1.391 . S
N175 C176 1.388 . S
C176 H147 0.930 . S
C176 C171 1.391 . S
C176 N175 1.388 . S
Co177 O179 2.143 . S
Co177 O185 2.074 . S
Co177 O188 2.093 . S
Co177 O201 2.097 . S
Co177 N218 2.151 . S
Co177 N226 2.214 . S
Co178 O179 2.160 . S
Co178 O184 2.058 . S
Co178 O194 2.057 . S
Co178 O209 2.037 . S
Co178 N213 2.145 . S
Co178 N234 2.257 . S
O179 Co177 2.143 . S
O179 Co178 2.160 . S
C180 O181 1.278 . S
C180 O188 1.224 . S
O181 C180 1.278 . S
C182 O183 1.245 . S
C182 O194 1.232 . S
O183 C182 1.245 . S
O184 Co178 2.058 . S
O184 C210 1.269 . S
O185 Co177 2.074 . S
O185 C210 1.257 . S
H186 C211 0.930 . S
H187 C217 0.930 . S
O188 Co177 2.093 . S
O188 C180 1.224 . S
H189 C221 0.929 . S
H190 C223 0.930 . S
H191 C224 0.930 . S
H192 C222 0.929 . S
H193 C225 0.928 . S
O194 Co178 2.057 . S
O194 C182 1.232 . S
H195 C214 0.929 . S
H196 C215 0.929 . S
H197 C227 0.931 . S
H198 C219 0.929 . S
H199 C228 0.930 . S
H200 C220 0.931 . S
O201 Co177 2.097 . S
O201 C229 1.214 . S
H202 C230 0.929 . S
H203 C231 0.929 . S
H204 C232 0.930 . S
H205 C233 0.929 . S
H206 C235 0.930 . S
H207 C212 0.930 . S
H208 C216 0.930 . S
O209 Co178 2.037 . S
O209 C229 1.234 . S
C210 O184 1.269 . S
C210 O185 1.257 . S
C211 H186 0.930 . S
C211 C214 1.388 1_554 S
C211 C216 1.418 . S
C212 H207 0.930 . S
C212 C215 1.404 . S
C212 C216 1.353 . S
N213 Co178 2.145 . S
N213 C214 1.397 . S
N213 C215 1.334 1_556 S
C214 H195 0.929 . S
C214 C211 1.388 1_556 S
C214 N213 1.397 . S
C215 H196 0.929 . S
C215 C212 1.404 . S
C215 N213 1.334 1_554 S
C216 H208 0.930 . S
C216 C211 1.418 . S
C216 C212 1.353 . S
C217 H187 0.930 . S
C217 N218 1.330 . S
C217 C219 1.446 . S
N218 Co177 2.151 . S
N218 C217 1.330 . S
N218 C222 1.418 . S
C219 H198 0.929 . S
C219 C217 1.446 . S
C219 C220 1.332 . S
C220 H200 0.931 . S
C220 C219 1.332 . S
C220 C221 1.267 . S
C221 H189 0.929 . S
C221 C220 1.267 . S
C221 C222 1.251 . S
C222 H192 0.929 . S
C222 N218 1.418 . S
C222 C221 1.251 . S
C223 H190 0.930 . S
C223 C225 1.406 . S
C223 C228 1.261 . S
C224 H191 0.930 . S
C224 N226 1.325 . S
C224 C227 1.357 . S
C225 H193 0.928 . S
C225 C223 1.406 . S
C225 N226 1.261 . S
N226 Co177 2.214 . S
N226 C224 1.325 . S
N226 C225 1.261 . S
C227 H197 0.931 . S
C227 C224 1.357 . S
C227 C228 1.312 . S
C228 H199 0.930 . S
C228 C223 1.261 . S
C228 C227 1.312 . S
C229 O201 1.214 . S
C229 O209 1.234 . S
C230 H202 0.929 . S
C230 C233 1.391 . S
C230 C235 1.391 . S
C231 H203 0.929 . S
C231 C232 1.390 . S
C231 N234 1.391 . S
C232 H204 0.930 . S
C232 C231 1.390 . S
C232 C233 1.392 . S
C233 H205 0.929 . S
C233 C230 1.391 . S
C233 C232 1.392 . S
N234 Co178 2.257 . S
N234 C231 1.391 . S
N234 C235 1.388 . S
C235 H206 0.930 . S
C235 C230 1.391 . S
C235 N234 1.388 . S
Co236 O238 2.143 . S
Co236 O244 2.074 . S
Co236 O247 2.093 . S
Co236 O260 2.097 . S
Co236 N277 2.151 . S
Co236 N285 2.214 . S
Co237 O238 2.160 . S
Co237 O243 2.058 . S
Co237 O253 2.057 . S
Co237 O268 2.037 . S
Co237 N272 2.145 . S
Co237 N293 2.257 . S
O238 Co236 2.143 . S
O238 Co237 2.160 . S
C239 O240 1.278 . S
C239 O247 1.224 . S
O240 C239 1.278 . S
C241 O242 1.245 . S
C241 O253 1.232 . S
O242 C241 1.245 . S
O243 Co237 2.058 . S
O243 C269 1.269 . S
O244 Co236 2.074 . S
O244 C269 1.257 . S
H245 C270 0.930 . S
H246 C276 0.930 . S
O247 Co236 2.093 . S
O247 C239 1.224 . S
H248 C280 0.929 . S
H249 C282 0.930 . S
H250 C283 0.930 . S
H251 C281 0.929 . S
H252 C284 0.928 . S
O253 Co237 2.057 . S
O253 C241 1.232 . S
H254 C273 0.929 . S
H255 C274 0.929 . S
H256 C286 0.931 . S
H257 C278 0.929 . S
H258 C287 0.930 . S
H259 C279 0.931 . S
O260 Co236 2.097 . S
O260 C288 1.214 . S
H261 C289 0.929 . S
H262 C290 0.929 . S
H263 C291 0.930 . S
H264 C292 0.929 . S
H265 C294 0.930 . S
H266 C271 0.930 . S
H267 C275 0.930 . S
O268 Co237 2.037 . S
O268 C288 1.234 . S
C269 O243 1.269 . S
C269 O244 1.257 . S
C270 H245 0.930 . S
C270 C273 1.388 . S
C270 C275 1.418 . S
C271 H266 0.930 . S
C271 C274 1.404 . S
C271 C275 1.353 . S
N272 Co237 2.145 . S
N272 C273 1.397 . S
N272 C274 1.334 . S
C273 H254 0.929 . S
C273 C270 1.388 . S
C273 N272 1.397 . S
C274 H255 0.929 . S
C274 C271 1.404 . S
C274 N272 1.334 . S
C275 H267 0.930 . S
C275 C270 1.418 . S
C275 C271 1.353 . S
C276 H246 0.930 . S
C276 N277 1.330 . S
C276 C278 1.446 . S
N277 Co236 2.151 . S
N277 C276 1.330 . S
N277 C281 1.418 . S
C278 H257 0.929 . S
C278 C276 1.446 . S
C278 C279 1.332 1_556 S
C279 H259 0.931 . S
C279 C278 1.332 1_554 S
C279 C280 1.267 . S
C280 H248 0.929 . S
C280 C279 1.267 . S
C280 C281 1.251 1_554 S
C281 H251 0.929 . S
C281 N277 1.418 . S
C281 C280 1.251 1_556 S
C282 H249 0.930 . S
C282 C284 1.406 . S
C282 C287 1.261 . S
C283 H250 0.930 . S
C283 N285 1.325 . S
C283 C286 1.357 . S
C284 H252 0.928 . S
C284 C282 1.406 . S
C284 N285 1.261 1_554 S
N285 Co236 2.214 . S
N285 C283 1.325 . S
N285 C284 1.261 1_556 S
C286 H256 0.931 . S
C286 C283 1.357 . S
C286 C287 1.312 1_556 S
C287 H258 0.930 . S
C287 C282 1.261 . S
C287 C286 1.312 1_554 S
C288 O260 1.214 . S
C288 O268 1.234 . S
C289 H261 0.929 . S
C289 C292 1.391 . S
C289 C294 1.391 . S
C290 H262 0.929 . S
C290 C291 1.390 . S
C290 N293 1.391 . S
C291 H263 0.930 . S
C291 C290 1.390 . S
C291 C292 1.392 . S
C292 H264 0.929 . S
C292 C289 1.391 . S
C292 C291 1.392 . S
N293 Co237 2.257 . S
N293 C290 1.391 . S
N293 C294 1.388 . S
C294 H265 0.930 . S
C294 C289 1.391 . S
C294 N293 1.388 . S
Co295 O297 2.143 . S
Co295 O303 2.074 . S
Co295 O306 2.093 . S
Co295 O319 2.097 . S
Co295 N336 2.151 . S
Co295 N344 2.214 . S
Co296 O297 2.160 . S
Co296 O302 2.058 . S
Co296 O312 2.057 . S
Co296 O327 2.037 . S
Co296 N331 2.145 . S
Co296 N352 2.257 . S
O297 Co295 2.143 . S
O297 Co296 2.160 . S
C298 O299 1.278 . S
C298 O306 1.224 . S
O299 C298 1.278 . S
C300 O301 1.245 . S
C300 O312 1.232 . S
O301 C300 1.245 . S
O302 Co296 2.058 . S
O302 C328 1.269 . S
O303 Co295 2.074 . S
O303 C328 1.257 . S
H304 C329 0.930 . S
H305 C335 0.930 . S
O306 Co295 2.093 . S
O306 C298 1.224 . S
H307 C339 0.931 . S
H308 C341 0.930 . S
H309 C342 0.930 . S
H310 C340 0.929 . S
H311 C343 0.928 . S
O312 Co296 2.057 . S
O312 C300 1.232 . S
H313 C332 0.929 . S
H314 C333 0.929 . S
H315 C345 0.931 . S
H316 C337 0.929 . S
H317 C346 0.930 . S
H318 C338 0.931 . S
O319 Co295 2.097 . S
O319 C347 1.214 . S
H320 C348 0.929 . S
H321 C349 0.929 . S
H322 C350 0.930 . S
H323 C351 0.929 . S
H324 C353 0.930 . S
H325 C330 0.930 . S
H326 C334 0.930 . S
O327 Co296 2.037 . S
O327 C347 1.234 . S
C328 O302 1.269 . S
C328 O303 1.257 . S
C329 H304 0.930 . S
C329 C332 1.388 . S
C329 C334 1.418 . S
C330 H325 0.930 . S
C330 C333 1.404 . S
C330 C334 1.353 . S
N331 Co296 2.145 . S
N331 C332 1.397 . S
N331 C333 1.334 . S
C332 H313 0.929 . S
C332 C329 1.388 . S
C332 N331 1.397 . S
C333 H314 0.929 . S
C333 C330 1.404 . S
C333 N331 1.334 . S
C334 H326 0.930 . S
C334 C329 1.418 . S
C334 C330 1.353 . S
C335 H305 0.930 . S
C335 N336 1.330 . S
C335 C337 1.446 . S
N336 Co295 2.151 . S
N336 C335 1.330 . S
N336 C340 1.418 . S
C337 H316 0.929 . S
C337 C335 1.446 . S
C337 C338 1.332 1_554 S
C338 H318 0.931 . S
C338 C337 1.332 1_556 S
C338 C339 1.267 . S
C339 H307 0.931 . S
C339 C338 1.267 . S
C339 C340 1.249 1_556 S
C340 H310 0.929 . S
C340 N336 1.418 . S
C340 C339 1.249 1_554 S
C341 H308 0.930 . S
C341 C343 1.406 . S
C341 C346 1.261 . S
C342 H309 0.930 . S
C342 N344 1.325 . S
C342 C345 1.357 . S
C343 H311 0.928 . S
C343 C341 1.406 . S
C343 N344 1.261 1_556 S
N344 Co295 2.214 . S
N344 C342 1.325 . S
N344 C343 1.261 1_554 S
C345 H315 0.931 . S
C345 C342 1.357 . S
C345 C346 1.312 1_554 S
C346 H317 0.930 . S
C346 C341 1.261 . S
C346 C345 1.312 1_556 S
C347 O319 1.214 . S
C347 O327 1.234 . S
C348 H320 0.929 . S
C348 C351 1.391 . S
C348 C353 1.391 . S
C349 H321 0.929 . S
C349 C350 1.390 . S
C349 N352 1.391 . S
C350 H322 0.930 . S
C350 C349 1.390 . S
C350 C351 1.392 . S
C351 H323 0.929 . S
C351 C348 1.391 . S
C351 C350 1.392 . S
N352 Co296 2.257 . S
N352 C349 1.391 . S
N352 C353 1.388 . S
C353 H324 0.930 . S
C353 C348 1.391 . S
C353 N352 1.388 . S
Co354 O356 2.143 . S
Co354 O362 2.074 . S
Co354 O365 2.093 . S
Co354 O378 2.097 . S
Co354 N395 2.151 . S
Co354 N403 2.214 . S
Co355 O356 2.160 . S
Co355 O361 2.058 . S
Co355 O371 2.057 . S
Co355 O386 2.037 . S
Co355 N390 2.145 . S
Co355 N411 2.257 . S
O356 Co354 2.143 . S
O356 Co355 2.160 . S
C357 O358 1.278 . S
C357 O365 1.224 . S
O358 C357 1.278 . S
C359 O360 1.245 . S
C359 O371 1.232 . S
O360 C359 1.245 . S
O361 Co355 2.058 . S
O361 C387 1.269 . S
O362 Co354 2.074 . S
O362 C387 1.257 . S
H363 C388 0.930 . S
H364 C394 0.930 . S
O365 Co354 2.093 . S
O365 C357 1.224 . S
H366 C398 0.929 . S
H367 C400 0.930 . S
H368 C401 0.930 . S
H369 C399 0.929 . S
H370 C402 0.928 . S
O371 Co355 2.057 . S
O371 C359 1.232 . S
H372 C391 0.929 . S
H373 C392 0.929 . S
H374 C404 0.931 . S
H375 C396 0.929 . S
H376 C405 0.930 . S
H377 C397 0.931 . S
O378 Co354 2.097 . S
O378 C406 1.214 . S
H379 C407 0.929 . S
H380 C408 0.929 . S
H381 C409 0.930 . S
H382 C410 0.929 . S
H383 C412 0.930 . S
H384 C389 0.930 . S
H385 C393 0.930 . S
O386 Co355 2.037 . S
O386 C406 1.234 . S
C387 O361 1.269 . S
C387 O362 1.257 . S
C388 H363 0.930 . S
C388 C391 1.388 . S
C388 C393 1.418 . S
C389 H384 0.930 . S
C389 C392 1.404 . S
C389 C393 1.353 . S
N390 Co355 2.145 . S
N390 C391 1.397 . S
N390 C392 1.334 . S
C391 H372 0.929 . S
C391 C388 1.388 . S
C391 N390 1.397 . S
C392 H373 0.929 . S
C392 C389 1.404 . S
C392 N390 1.334 . S
C393 H385 0.930 . S
C393 C388 1.418 . S
C393 C389 1.353 . S
C394 H364 0.930 . S
C394 N395 1.330 . S
C394 C396 1.446 . S
N395 Co354 2.151 . S
N395 C394 1.330 . S
N395 C399 1.418 . S
C396 H375 0.929 . S
C396 C394 1.446 . S
C396 C397 1.332 . S
C397 H377 0.931 . S
C397 C396 1.332 . S
C397 C398 1.267 . S
C398 H366 0.929 . S
C398 C397 1.267 . S
C398 C399 1.251 . S
C399 H369 0.929 . S
C399 N395 1.418 . S
C399 C398 1.251 . S
C400 H367 0.930 . S
C400 C402 1.406 . S
C400 C405 1.261 . S
C401 H368 0.930 . S
C401 N403 1.325 . S
C401 C404 1.357 . S
C402 H370 0.928 . S
C402 C400 1.406 . S
C402 N403 1.261 . S
N403 Co354 2.214 . S
N403 C401 1.325 . S
N403 C402 1.261 . S
C404 H374 0.931 . S
C404 C401 1.357 . S
C404 C405 1.312 . S
C405 H376 0.930 . S
C405 C400 1.261 . S
C405 C404 1.312 . S
C406 O378 1.214 . S
C406 O386 1.234 . S
C407 H379 0.929 . S
C407 C410 1.391 . S
C407 C412 1.391 . S
C408 H380 0.929 . S
C408 C409 1.390 . S
C408 N411 1.391 . S
C409 H381 0.930 . S
C409 C408 1.390 . S
C409 C410 1.392 . S
C410 H382 0.929 . S
C410 C407 1.391 . S
C410 C409 1.392 . S
N411 Co355 2.257 . S
N411 C408 1.391 . S
N411 C412 1.388 . S
C412 H383 0.930 . S
C412 C407 1.391 . S
C412 N411 1.388 . S
Co413 O415 2.143 . S
Co413 O421 2.074 . S
Co413 O424 2.093 . S
Co413 O437 2.097 . S
Co413 N454 2.151 . S
Co413 N462 2.214 . S
Co414 O415 2.160 . S
Co414 O420 2.058 . S
Co414 O430 2.057 . S
Co414 O445 2.037 . S
Co414 N449 2.145 . S
Co414 N470 2.257 . S
O415 Co413 2.143 . S
O415 Co414 2.160 . S
C416 O417 1.278 . S
C416 O424 1.224 . S
O417 C416 1.278 . S
C418 O419 1.245 . S
C418 O430 1.232 . S
O419 C418 1.245 . S
O420 Co414 2.058 . S
O420 C446 1.269 . S
O421 Co413 2.074 . S
O421 C446 1.257 . S
H422 C447 0.930 . S
H423 C453 0.930 . S
O424 Co413 2.093 . S
O424 C416 1.224 . S
H425 C457 0.929 . S
H426 C459 0.930 . S
H427 C460 0.930 . S
H428 C458 0.929 . S
H429 C461 0.928 . S
O430 Co414 2.057 . S
O430 C418 1.232 . S
H431 C450 0.929 . S
H432 C451 0.929 . S
H433 C463 0.931 . S
H434 C455 0.929 . S
H435 C464 0.930 . S
H436 C456 0.931 . S
O437 Co413 2.097 . S
O437 C465 1.214 . S
H438 C466 0.929 . S
H439 C467 0.929 . S
H440 C468 0.930 . S
H441 C469 0.929 . S
H442 C471 0.930 . S
H443 C448 0.930 . S
H444 C452 0.930 . S
O445 Co414 2.037 . S
O445 C465 1.234 . S
C446 O420 1.269 . S
C446 O421 1.257 . S
C447 H422 0.930 . S
C447 C450 1.388 . S
C447 C452 1.418 . S
C448 H443 0.930 . S
C448 C451 1.404 . S
C448 C452 1.353 . S
N449 Co414 2.145 . S
N449 C450 1.397 . S
N449 C451 1.334 . S
C450 H431 0.929 . S
C450 C447 1.388 . S
C450 N449 1.397 . S
C451 H432 0.929 . S
C451 C448 1.404 . S
C451 N449 1.334 . S
C452 H444 0.930 . S
C452 C447 1.418 . S
C452 C448 1.353 . S
C453 H423 0.930 . S
C453 N454 1.330 . S
C453 C455 1.446 . S
N454 Co413 2.151 . S
N454 C453 1.330 . S
N454 C458 1.418 . S
C455 H434 0.929 . S
C455 C453 1.446 . S
C455 C456 1.332 . S
C456 H436 0.931 . S
C456 C455 1.332 . S
C456 C457 1.267 . S
C457 H425 0.929 . S
C457 C456 1.267 . S
C457 C458 1.251 . S
C458 H428 0.929 . S
C458 N454 1.418 . S
C458 C457 1.251 . S
C459 H426 0.930 . S
C459 C461 1.406 . S
C459 C464 1.261 . S
C460 H427 0.930 . S
C460 N462 1.325 . S
C460 C463 1.357 . S
C461 H429 0.928 . S
C461 C459 1.406 . S
C461 N462 1.261 . S
N462 Co413 2.214 . S
N462 C460 1.325 . S
N462 C461 1.261 . S
C463 H433 0.931 . S
C463 C460 1.357 . S
C463 C464 1.312 . S
C464 H435 0.930 . S
C464 C459 1.261 . S
C464 C463 1.312 . S
C465 O437 1.214 . S
C465 O445 1.234 . S
C466 H438 0.929 . S
C466 C469 1.391 . S
C466 C471 1.391 . S
C467 H439 0.929 . S
C467 C468 1.390 . S
C467 N470 1.391 . S
C468 H440 0.930 . S
C468 C467 1.390 . S
C468 C469 1.392 . S
C469 H441 0.929 . S
C469 C466 1.391 . S
C469 C468 1.392 . S
N470 Co414 2.257 . S
N470 C467 1.391 . S
N470 C471 1.388 . S
C471 H442 0.930 . S
C471 C466 1.391 . S
C471 N470 1.388 . S
Co472 O474 2.143 . S
Co472 O480 2.074 . S
Co472 O483 2.093 . S
Co472 O496 2.097 . S
Co472 N513 2.151 . S
Co472 N521 2.214 . S
Co473 O474 2.160 . S
Co473 O479 2.058 . S
Co473 O489 2.057 . S
Co473 O504 2.037 . S
Co473 N508 2.145 . S
Co473 N529 2.257 . S
O474 Co472 2.143 . S
O474 Co473 2.160 . S
C475 O476 1.278 . S
C475 O483 1.224 . S
O476 C475 1.278 . S
C477 O478 1.245 . S
C477 O489 1.232 . S
O478 C477 1.245 . S
O479 Co473 2.058 . S
O479 C505 1.269 . S
O480 Co472 2.074 . S
O480 C505 1.257 . S
H481 C506 0.930 . S
H482 C512 0.930 . S
O483 Co472 2.093 . S
O483 C475 1.224 . S
H484 C516 0.928 . S
H485 C518 0.930 . S
H486 C519 0.930 . S
H487 C517 0.929 . S
H488 C520 0.928 . S
O489 Co473 2.057 . S
O489 C477 1.232 . S
H490 C509 0.929 . S
H491 C510 0.929 . S
H492 C522 0.931 . S
H493 C514 0.929 . S
H494 C523 0.930 . S
H495 C515 0.931 . S
O496 Co472 2.097 . S
O496 C524 1.214 . S
H497 C525 0.929 . S
H498 C526 0.929 . S
H499 C527 0.930 . S
H500 C528 0.929 . S
H501 C530 0.930 . S
H502 C507 0.930 . S
H503 C511 0.930 . S
O504 Co473 2.037 . S
O504 C524 1.234 . S
C505 O479 1.269 . S
C505 O480 1.257 . S
C506 H481 0.930 . S
C506 C509 1.388 . S
C506 C511 1.418 . S
C507 H502 0.930 . S
C507 C510 1.404 . S
C507 C511 1.353 . S
N508 Co473 2.145 . S
N508 C509 1.397 . S
N508 C510 1.334 . S
C509 H490 0.929 . S
C509 C506 1.388 . S
C509 N508 1.397 . S
C510 H491 0.929 . S
C510 C507 1.404 . S
C510 N508 1.334 . S
C511 H503 0.930 . S
C511 C506 1.418 . S
C511 C507 1.353 . S
C512 H482 0.930 . S
C512 N513 1.330 . S
C512 C514 1.446 . S
N513 Co472 2.151 . S
N513 C512 1.330 . S
N513 C517 1.418 . S
C514 H493 0.929 . S
C514 C512 1.446 . S
C514 C515 1.332 1_556 S
C515 H495 0.931 . S
C515 C514 1.332 1_554 S
C515 C516 1.266 . S
C516 H484 0.928 . S
C516 C515 1.266 . S
C516 C517 1.253 1_554 S
C517 H487 0.929 . S
C517 N513 1.418 . S
C517 C516 1.253 1_556 S
C518 H485 0.930 . S
C518 C520 1.406 . S
C518 C523 1.261 . S
C519 H486 0.930 . S
C519 N521 1.325 . S
C519 C522 1.357 . S
C520 H488 0.928 . S
C520 C518 1.406 . S
C520 N521 1.261 1_554 S
N521 Co472 2.214 . S
N521 C519 1.325 . S
N521 C520 1.261 1_556 S
C522 H492 0.931 . S
C522 C519 1.357 . S
C522 C523 1.312 1_556 S
C523 H494 0.930 . S
C523 C518 1.261 . S
C523 C522 1.312 1_554 S
C524 O496 1.214 . S
C524 O504 1.234 . S
C525 H497 0.929 . S
C525 C528 1.391 . S
C525 C530 1.391 . S
C526 H498 0.929 . S
C526 C527 1.390 . S
C526 N529 1.391 . S
C527 H499 0.930 . S
C527 C526 1.390 . S
C527 C528 1.392 . S
C528 H500 0.929 . S
C528 C525 1.391 . S
C528 C527 1.392 . S
N529 Co473 2.257 . S
N529 C526 1.391 . S
N529 C530 1.388 . S
C530 H501 0.930 . S
C530 C525 1.391 . S
C530 N529 1.388 . S
Co531 O533 2.143 . S
Co531 O539 2.074 . S
Co531 O542 2.093 . S
Co531 O555 2.097 . S
Co531 N572 2.151 . S
Co531 N580 2.214 . S
Co532 O533 2.160 . S
Co532 O538 2.058 . S
Co532 O548 2.057 . S
Co532 O563 2.037 . S
Co532 N567 2.145 . S
Co532 N588 2.257 . S
O533 Co531 2.143 . S
O533 Co532 2.160 . S
C534 O535 1.278 . S
C534 O542 1.224 . S
O535 C534 1.278 . S
C536 O537 1.245 . S
C536 O548 1.232 . S
O537 C536 1.245 . S
O538 Co532 2.058 . S
O538 C564 1.269 . S
O539 Co531 2.074 . S
O539 C564 1.257 . S
H540 C565 0.930 . S
H541 C571 0.930 . S
O542 Co531 2.093 . S
O542 C534 1.224 . S
H543 C575 0.929 . S
H544 C577 0.930 . S
H545 C578 0.930 . S
H546 C576 0.929 . S
H547 C579 0.928 . S
O548 Co532 2.057 . S
O548 C536 1.232 . S
H549 C568 0.929 . S
H550 C569 0.929 . S
H551 C581 0.931 . S
H552 C573 0.929 . S
H553 C582 0.930 . S
H554 C574 0.931 . S
O555 Co531 2.097 . S
O555 C583 1.214 . S
H556 C584 0.929 . S
H557 C585 0.929 . S
H558 C586 0.930 . S
H559 C587 0.929 . S
H560 C589 0.930 . S
H561 C566 0.930 . S
H562 C570 0.930 . S
O563 Co532 2.037 . S
O563 C583 1.234 . S
C564 O538 1.269 . S
C564 O539 1.257 . S
C565 H540 0.930 . S
C565 C568 1.388 . S
C565 C570 1.418 . S
C566 H561 0.930 . S
C566 C569 1.404 . S
C566 C570 1.353 . S
N567 Co532 2.145 . S
N567 C568 1.397 . S
N567 C569 1.334 . S
C568 H549 0.929 . S
C568 C565 1.388 . S
C568 N567 1.397 . S
C569 H550 0.929 . S
C569 C566 1.404 . S
C569 N567 1.334 . S
C570 H562 0.930 . S
C570 C565 1.418 . S
C570 C566 1.353 . S
C571 H541 0.930 . S
C571 N572 1.330 . S
C571 C573 1.446 . S
N572 Co531 2.151 . S
N572 C571 1.330 . S
N572 C576 1.418 . S
C573 H552 0.929 . S
C573 C571 1.446 . S
C573 C574 1.332 . S
C574 H554 0.931 . S
C574 C573 1.332 . S
C574 C575 1.267 . S
C575 H543 0.929 . S
C575 C574 1.267 . S
C575 C576 1.251 . S
C576 H546 0.929 . S
C576 N572 1.418 . S
C576 C575 1.251 . S
C577 H544 0.930 . S
C577 C579 1.406 . S
C577 C582 1.261 . S
C578 H545 0.930 . S
C578 N580 1.325 . S
C578 C581 1.357 . S
C579 H547 0.928 . S
C579 C577 1.406 . S
C579 N580 1.261 . S
N580 Co531 2.214 . S
N580 C578 1.325 . S
N580 C579 1.261 . S
C581 H551 0.931 . S
C581 C578 1.357 . S
C581 C582 1.312 . S
C582 H553 0.930 . S
C582 C577 1.261 . S
C582 C581 1.312 . S
C583 O555 1.214 . S
C583 O563 1.234 . S
C584 H556 0.929 . S
C584 C587 1.391 . S
C584 C589 1.391 . S
C585 H557 0.929 . S
C585 C586 1.390 . S
C585 N588 1.391 . S
C586 H558 0.930 . S
C586 C585 1.390 . S
C586 C587 1.392 . S
C587 H559 0.929 . S
C587 C584 1.391 . S
C587 C586 1.392 . S
N588 Co532 2.257 . S
N588 C585 1.391 . S
N588 C589 1.388 . S
C589 H560 0.930 . S
C589 C584 1.391 . S
C589 N588 1.388 . S
Co590 O592 2.143 . S
Co590 O598 2.074 . S
Co590 O601 2.093 . S
Co590 O614 2.097 . S
Co590 N631 2.151 . S
Co590 N639 2.214 . S
Co591 O592 2.160 . S
Co591 O597 2.058 . S
Co591 O607 2.057 . S
Co591 O622 2.037 . S
Co591 N626 2.145 . S
Co591 N647 2.257 . S
O592 Co590 2.143 . S
O592 Co591 2.160 . S
C593 O594 1.278 . S
C593 O601 1.224 . S
O594 C593 1.278 . S
C595 O596 1.245 . S
C595 O607 1.232 . S
O596 C595 1.245 . S
O597 Co591 2.058 . S
O597 C623 1.269 . S
O598 Co590 2.074 . S
O598 C623 1.257 . S
H599 C624 0.930 . S
H600 C630 0.930 . S
O601 Co590 2.093 . S
O601 C593 1.224 . S
H602 C634 0.929 . S
H603 C636 0.930 . S
H604 C637 0.930 . S
H605 C635 0.929 . S
H606 C638 0.928 . S
O607 Co591 2.057 . S
O607 C595 1.232 . S
H608 C627 0.929 . S
H609 C628 0.929 . S
H610 C640 0.931 . S
H611 C632 0.929 . S
H612 C641 0.930 . S
H613 C633 0.931 . S
O614 Co590 2.097 . S
O614 C642 1.214 . S
H615 C643 0.929 . S
H616 C644 0.929 . S
H617 C645 0.930 . S
H618 C646 0.929 . S
H619 C648 0.930 . S
H620 C625 0.930 . S
H621 C629 0.930 . S
O622 Co591 2.037 . S
O622 C642 1.234 . S
C623 O597 1.269 . S
C623 O598 1.257 . S
C624 H599 0.930 . S
C624 C627 1.388 . S
C624 C629 1.418 . S
C625 H620 0.930 . S
C625 C628 1.404 . S
C625 C629 1.353 . S
N626 Co591 2.145 . S
N626 C627 1.397 . S
N626 C628 1.334 . S
C627 H608 0.929 . S
C627 C624 1.388 . S
C627 N626 1.397 . S
C628 H609 0.929 . S
C628 C625 1.404 . S
C628 N626 1.334 . S
C629 H621 0.930 . S
C629 C624 1.418 . S
C629 C625 1.353 . S
C630 H600 0.930 . S
C630 N631 1.330 . S
C630 C632 1.446 . S
N631 Co590 2.151 . S
N631 C630 1.330 . S
N631 C635 1.418 . S
C632 H611 0.929 . S
C632 C630 1.446 . S
C632 C633 1.332 . S
C633 H613 0.931 . S
C633 C632 1.332 . S
C633 C634 1.267 . S
C634 H602 0.929 . S
C634 C633 1.267 . S
C634 C635 1.251 . S
C635 H605 0.929 . S
C635 N631 1.418 . S
C635 C634 1.251 . S
C636 H603 0.930 . S
C636 C638 1.406 . S
C636 C641 1.261 . S
C637 H604 0.930 . S
C637 N639 1.325 . S
C637 C640 1.357 . S
C638 H606 0.928 . S
C638 C636 1.406 . S
C638 N639 1.261 . S
N639 Co590 2.214 . S
N639 C637 1.325 . S
N639 C638 1.261 . S
C640 H610 0.931 . S
C640 C637 1.357 . S
C640 C641 1.312 . S
C641 H612 0.930 . S
C641 C636 1.261 . S
C641 C640 1.312 . S
C642 O614 1.214 . S
C642 O622 1.234 . S
C643 H615 0.929 . S
C643 C646 1.391 . S
C643 C648 1.391 . S
C644 H616 0.929 . S
C644 C645 1.390 . S
C644 N647 1.391 . S
C645 H617 0.930 . S
C645 C644 1.390 . S
C645 C646 1.392 . S
C646 H618 0.929 . S
C646 C643 1.391 . S
C646 C645 1.392 . S
N647 Co591 2.257 . S
N647 C644 1.391 . S
N647 C648 1.388 . S
C648 H619 0.930 . S
C648 C643 1.391 . S
C648 N647 1.388 . S
Co649 O651 2.143 . S
Co649 O657 2.074 . S
Co649 O660 2.093 . S
Co649 O673 2.097 . S
Co649 N690 2.151 . S
Co649 N698 2.214 . S
Co650 O651 2.160 . S
Co650 O656 2.058 . S
Co650 O666 2.057 . S
Co650 O681 2.037 . S
Co650 N685 2.145 . S
Co650 N706 2.257 . S
O651 Co649 2.143 . S
O651 Co650 2.160 . S
C652 O653 1.278 . S
C652 O660 1.224 . S
O653 C652 1.278 . S
C654 O655 1.245 . S
C654 O666 1.232 . S
O655 C654 1.245 . S
O656 Co650 2.058 . S
O656 C682 1.269 . S
O657 Co649 2.074 . S
O657 C682 1.257 . S
H658 C683 0.930 . S
H659 C689 0.930 . S
O660 Co649 2.093 . S
O660 C652 1.224 . S
H661 C693 0.929 . S
H662 C695 0.930 . S
H663 C696 0.930 . S
H664 C694 0.929 . S
H665 C697 0.928 . S
O666 Co650 2.057 . S
O666 C654 1.232 . S
H667 C686 0.929 . S
H668 C687 0.929 . S
H669 C699 0.931 . S
H670 C691 0.929 . S
H671 C700 0.930 . S
H672 C692 0.931 . S
O673 Co649 2.097 . S
O673 C701 1.214 . S
H674 C702 0.929 . S
H675 C703 0.929 . S
H676 C704 0.930 . S
H677 C705 0.929 . S
H678 C707 0.930 . S
H679 C684 0.930 . S
H680 C688 0.930 . S
O681 Co650 2.037 . S
O681 C701 1.234 . S
C682 O656 1.269 . S
C682 O657 1.257 . S
C683 H658 0.930 . S
C683 C686 1.388 1_556 S
C683 C688 1.418 . S
C684 H679 0.930 . S
C684 C687 1.404 . S
C684 C688 1.353 . S
N685 Co650 2.145 . S
N685 C686 1.397 . S
N685 C687 1.334 1_554 S
C686 H667 0.929 . S
C686 C683 1.388 1_554 S
C686 N685 1.397 . S
C687 H668 0.929 . S
C687 C684 1.404 . S
C687 N685 1.334 1_556 S
C688 H680 0.930 . S
C688 C683 1.418 . S
C688 C684 1.353 . S
C689 H659 0.930 . S
C689 N690 1.330 . S
C689 C691 1.446 . S
N690 Co649 2.151 . S
N690 C689 1.330 . S
N690 C694 1.418 . S
C691 H670 0.929 . S
C691 C689 1.446 . S
C691 C692 1.332 . S
C692 H672 0.931 . S
C692 C691 1.332 . S
C692 C693 1.267 . S
C693 H661 0.929 . S
C693 C692 1.267 . S
C693 C694 1.251 . S
C694 H664 0.929 . S
C694 N690 1.418 . S
C694 C693 1.251 . S
C695 H662 0.930 . S
C695 C697 1.406 . S
C695 C700 1.261 . S
C696 H663 0.930 . S
C696 N698 1.325 . S
C696 C699 1.357 . S
C697 H665 0.928 . S
C697 C695 1.406 . S
C697 N698 1.261 . S
N698 Co649 2.214 . S
N698 C696 1.325 . S
N698 C697 1.261 . S
C699 H669 0.931 . S
C699 C696 1.357 . S
C699 C700 1.312 . S
C700 H671 0.930 . S
C700 C695 1.261 . S
C700 C699 1.312 . S
C701 O673 1.214 . S
C701 O681 1.234 . S
C702 H674 0.929 . S
C702 C705 1.391 . S
C702 C707 1.391 . S
C703 H675 0.929 . S
C703 C704 1.390 . S
C703 N706 1.391 . S
C704 H676 0.930 . S
C704 C703 1.390 . S
C704 C705 1.392 . S
C705 H677 0.929 . S
C705 C702 1.391 . S
C705 C704 1.392 . S
N706 Co650 2.257 . S
N706 C703 1.391 . S
N706 C707 1.388 . S
C707 H678 0.930 . S
C707 C702 1.391 . S
C707 N706 1.388 . S
Co708 O710 2.143 . S
Co708 O716 2.074 . S
Co708 O719 2.093 . S
Co708 O732 2.097 . S
Co708 N749 2.151 . S
Co708 N757 2.214 . S
Co709 O710 2.160 . S
Co709 O715 2.058 . S
Co709 O725 2.057 . S
Co709 O740 2.037 . S
Co709 N744 2.145 . S
Co709 N765 2.257 . S
O710 Co708 2.143 . S
O710 Co709 2.160 . S
C711 O712 1.278 . S
C711 O719 1.224 . S
O712 C711 1.278 . S
C713 O714 1.245 . S
C713 O725 1.232 . S
O714 C713 1.245 . S
O715 Co709 2.058 . S
O715 C741 1.269 . S
O716 Co708 2.074 . S
O716 C741 1.257 . S
H717 C742 0.930 . S
H718 C748 0.930 . S
O719 Co708 2.093 . S
O719 C711 1.224 . S
H720 C752 0.928 . S
H721 C754 0.930 . S
H722 C755 0.930 . S
H723 C753 0.929 . S
H724 C756 0.928 . S
O725 Co709 2.057 . S
O725 C713 1.232 . S
H726 C745 0.929 . S
H727 C746 0.929 . S
H728 C758 0.931 . S
H729 C750 0.929 . S
H730 C759 0.930 . S
H731 C751 0.931 . S
O732 Co708 2.097 . S
O732 C760 1.214 . S
H733 C761 0.929 . S
H734 C762 0.929 . S
H735 C763 0.930 . S
H736 C764 0.929 . S
H737 C766 0.930 . S
H738 C743 0.930 . S
H739 C747 0.930 . S
O740 Co709 2.037 . S
O740 C760 1.234 . S
C741 O715 1.269 . S
C741 O716 1.257 . S
C742 H717 0.930 . S
C742 C745 1.388 . S
C742 C747 1.418 . S
C743 H738 0.930 . S
C743 C746 1.404 . S
C743 C747 1.353 . S
N744 Co709 2.145 . S
N744 C745 1.397 . S
N744 C746 1.334 . S
C745 H726 0.929 . S
C745 C742 1.388 . S
C745 N744 1.397 . S
C746 H727 0.929 . S
C746 C743 1.404 . S
C746 N744 1.334 . S
C747 H739 0.930 . S
C747 C742 1.418 . S
C747 C743 1.353 . S
C748 H718 0.930 . S
C748 N749 1.330 . S
C748 C750 1.446 . S
N749 Co708 2.151 . S
N749 C748 1.330 . S
N749 C753 1.418 . S
C750 H729 0.929 . S
C750 C748 1.446 . S
C750 C751 1.332 1_554 S
C751 H731 0.931 . S
C751 C750 1.332 1_556 S
C751 C752 1.267 . S
C752 H720 0.928 . S
C752 C751 1.267 . S
C752 C753 1.252 1_556 S
C753 H723 0.929 . S
C753 N749 1.418 . S
C753 C752 1.252 1_554 S
C754 H721 0.930 . S
C754 C756 1.406 . S
C754 C759 1.261 . S
C755 H722 0.930 . S
C755 N757 1.325 . S
C755 C758 1.357 . S
C756 H724 0.928 . S
C756 C754 1.406 . S
C756 N757 1.261 1_556 S
N757 Co708 2.214 . S
N757 C755 1.325 . S
N757 C756 1.261 1_554 S
C758 H728 0.931 . S
C758 C755 1.357 . S
C758 C759 1.312 1_554 S
C759 H730 0.930 . S
C759 C754 1.261 . S
C759 C758 1.312 1_556 S
C760 O732 1.214 . S
C760 O740 1.234 . S
C761 H733 0.929 . S
C761 C764 1.391 . S
C761 C766 1.391 . S
C762 H734 0.929 . S
C762 C763 1.390 . S
C762 N765 1.391 . S
C763 H735 0.930 . S
C763 C762 1.390 . S
C763 C764 1.392 . S
C764 H736 0.929 . S
C764 C761 1.391 . S
C764 C763 1.392 . S
N765 Co709 2.257 . S
N765 C762 1.391 . S
N765 C766 1.388 . S
C766 H737 0.930 . S
C766 C761 1.391 . S
C766 N765 1.388 . S
Co767 O769 2.143 . S
Co767 O775 2.074 . S
Co767 O778 2.093 . S
Co767 O791 2.097 . S
Co767 N808 2.151 . S
Co767 N816 2.214 . S
Co768 O769 2.160 . S
Co768 O774 2.058 . S
Co768 O784 2.057 . S
Co768 O799 2.037 . S
Co768 N803 2.145 . S
Co768 N824 2.257 . S
O769 Co767 2.143 . S
O769 Co768 2.160 . S
C770 O771 1.278 . S
C770 O778 1.224 . S
O771 C770 1.278 . S
C772 O773 1.245 . S
C772 O784 1.232 . S
O773 C772 1.245 . S
O774 Co768 2.058 . S
O774 C800 1.269 . S
O775 Co767 2.074 . S
O775 C800 1.257 . S
H776 C801 0.930 . S
H777 C807 0.930 . S
O778 Co767 2.093 . S
O778 C770 1.224 . S
H779 C811 0.930 1_554 S
H780 C813 0.930 . S
H781 C814 0.930 . S
H782 C812 0.929 . S
H783 C815 0.928 . S
O784 Co768 2.057 . S
O784 C772 1.232 . S
H785 C804 0.929 . S
H786 C805 0.929 . S
H787 C817 0.931 . S
H788 C809 0.929 . S
H789 C818 0.930 . S
H790 C810 0.931 . S
O791 Co767 2.097 . S
O791 C819 1.214 . S
H792 C820 0.929 . S
H793 C821 0.929 . S
H794 C822 0.930 . S
H795 C823 0.929 . S
H796 C825 0.930 . S
H797 C802 0.930 . S
H798 C806 0.930 . S
O799 Co768 2.037 . S
O799 C819 1.234 . S
C800 O774 1.269 . S
C800 O775 1.257 . S
C801 H776 0.930 . S
C801 C804 1.388 . S
C801 C806 1.418 . S
C802 H797 0.930 . S
C802 C805 1.404 . S
C802 C806 1.353 . S
N803 Co768 2.145 . S
N803 C804 1.397 . S
N803 C805 1.334 . S
C804 H785 0.929 . S
C804 C801 1.388 . S
C804 N803 1.397 . S
C805 H786 0.929 . S
C805 C802 1.404 . S
C805 N803 1.334 . S
C806 H798 0.930 . S
C806 C801 1.418 . S
C806 C802 1.353 . S
C807 H777 0.930 . S
C807 N808 1.330 . S
C807 C809 1.446 . S
N808 Co767 2.151 . S
N808 C807 1.330 . S
N808 C812 1.418 . S
C809 H788 0.929 . S
C809 C807 1.446 . S
C809 C810 1.332 1_556 S
C810 H790 0.931 . S
C810 C809 1.332 1_554 S
C810 C811 1.267 1_554 S
C811 H779 0.930 1_556 S
C811 C810 1.267 1_556 S
C811 C812 1.251 . S
C812 H782 0.929 . S
C812 N808 1.418 . S
C812 C811 1.251 . S
C813 H780 0.930 . S
C813 C815 1.406 . S
C813 C818 1.261 . S
C814 H781 0.930 . S
C814 N816 1.325 . S
C814 C817 1.357 . S
C815 H783 0.928 . S
C815 C813 1.406 . S
C815 N816 1.261 1_554 S
N816 Co767 2.214 . S
N816 C814 1.325 . S
N816 C815 1.261 1_556 S
C817 H787 0.931 . S
C817 C814 1.357 . S
C817 C818 1.312 1_556 S
C818 H789 0.930 . S
C818 C813 1.261 . S
C818 C817 1.312 1_554 S
C819 O791 1.214 . S
C819 O799 1.234 . S
C820 H792 0.929 . S
C820 C823 1.391 . S
C820 C825 1.391 . S
C821 H793 0.929 . S
C821 C822 1.390 . S
C821 N824 1.391 . S
C822 H794 0.930 . S
C822 C821 1.390 . S
C822 C823 1.392 . S
C823 H795 0.929 . S
C823 C820 1.391 . S
C823 C822 1.392 . S
N824 Co768 2.257 . S
N824 C821 1.391 . S
N824 C825 1.388 . S
C825 H796 0.930 . S
C825 C820 1.391 . S
C825 N824 1.388 . S
Co826 O828 2.143 . S
Co826 O834 2.074 . S
Co826 O837 2.093 . S
Co826 O850 2.097 . S
Co826 N867 2.151 . S
Co826 N875 2.214 . S
Co827 O828 2.160 . S
Co827 O833 2.058 . S
Co827 O843 2.057 . S
Co827 O858 2.037 . S
Co827 N862 2.145 . S
Co827 N883 2.257 . S
O828 Co826 2.143 . S
O828 Co827 2.160 . S
C829 O830 1.278 . S
C829 O837 1.224 . S
O830 C829 1.278 . S
C831 O832 1.245 . S
C831 O843 1.232 . S
O832 C831 1.245 . S
O833 Co827 2.058 . S
O833 C859 1.269 . S
O834 Co826 2.074 . S
O834 C859 1.257 . S
H835 C860 0.930 . S
H836 C866 0.930 . S
O837 Co826 2.093 . S
O837 C829 1.224 . S
H838 C870 0.929 . S
H839 C872 0.930 . S
H840 C873 0.930 . S
H841 C871 0.929 . S
H842 C874 0.928 . S
O843 Co827 2.057 . S
O843 C831 1.232 . S
H844 C863 0.929 . S
H845 C864 0.929 . S
H846 C876 0.931 . S
H847 C868 0.929 . S
H848 C877 0.930 . S
H849 C869 0.931 . S
O850 Co826 2.097 . S
O850 C878 1.214 . S
H851 C879 0.929 . S
H852 C880 0.929 . S
H853 C881 0.930 . S
H854 C882 0.929 . S
H855 C884 0.930 . S
H856 C861 0.930 . S
H857 C865 0.930 . S
O858 Co827 2.037 . S
O858 C878 1.234 . S
C859 O833 1.269 . S
C859 O834 1.257 . S
C860 H835 0.930 . S
C860 C863 1.388 . S
C860 C865 1.418 . S
C861 H856 0.930 . S
C861 C864 1.404 . S
C861 C865 1.353 . S
N862 Co827 2.145 . S
N862 C863 1.397 . S
N862 C864 1.334 . S
C863 H844 0.929 . S
C863 C860 1.388 . S
C863 N862 1.397 . S
C864 H845 0.929 . S
C864 C861 1.404 . S
C864 N862 1.334 . S
C865 H857 0.930 . S
C865 C860 1.418 . S
C865 C861 1.353 . S
C866 H836 0.930 . S
C866 N867 1.330 . S
C866 C868 1.446 . S
N867 Co826 2.151 . S
N867 C866 1.330 . S
N867 C871 1.418 . S
C868 H847 0.929 . S
C868 C866 1.446 . S
C868 C869 1.332 . S
C869 H849 0.931 . S
C869 C868 1.332 . S
C869 C870 1.267 . S
C870 H838 0.929 . S
C870 C869 1.267 . S
C870 C871 1.251 . S
C871 H841 0.929 . S
C871 N867 1.418 . S
C871 C870 1.251 . S
C872 H839 0.930 . S
C872 C874 1.406 . S
C872 C877 1.261 . S
C873 H840 0.930 . S
C873 N875 1.325 . S
C873 C876 1.357 . S
C874 H842 0.928 . S
C874 C872 1.406 . S
C874 N875 1.261 . S
N875 Co826 2.214 . S
N875 C873 1.325 . S
N875 C874 1.261 . S
C876 H846 0.931 . S
C876 C873 1.357 . S
C876 C877 1.312 . S
C877 H848 0.930 . S
C877 C872 1.261 . S
C877 C876 1.312 . S
C878 O850 1.214 . S
C878 O858 1.234 . S
C879 H851 0.929 . S
C879 C882 1.391 . S
C879 C884 1.391 . S
C880 H852 0.929 . S
C880 C881 1.390 . S
C880 N883 1.391 . S
C881 H853 0.930 . S
C881 C880 1.390 . S
C881 C882 1.392 . S
C882 H854 0.929 . S
C882 C879 1.391 . S
C882 C881 1.392 . S
N883 Co827 2.257 . S
N883 C880 1.391 . S
N883 C884 1.388 . S
C884 H855 0.930 . S
C884 C879 1.391 . S
C884 N883 1.388 . S
Co885 O887 2.143 . S
Co885 O893 2.074 . S
Co885 O896 2.093 . S
Co885 O909 2.097 . S
Co885 N926 2.151 . S
Co885 N934 2.214 . S
Co886 O887 2.160 . S
Co886 O892 2.058 . S
Co886 O902 2.057 . S
Co886 O917 2.037 . S
Co886 N921 2.145 . S
Co886 N942 2.257 . S
O887 Co885 2.143 . S
O887 Co886 2.160 . S
C888 O889 1.278 . S
C888 O896 1.224 . S
O889 C888 1.278 . S
C890 O891 1.245 . S
C890 O902 1.232 . S
O891 C890 1.245 . S
O892 Co886 2.058 . S
O892 C918 1.269 . S
O893 Co885 2.074 . S
O893 C918 1.257 . S
H894 C919 0.930 . S
H895 C925 0.930 . S
O896 Co885 2.093 . S
O896 C888 1.224 . S
H897 C929 0.929 . S
H898 C931 0.930 . S
H899 C932 0.930 . S
H900 C930 0.929 . S
H901 C933 0.928 . S
O902 Co886 2.057 . S
O902 C890 1.232 . S
H903 C922 0.929 . S
H904 C923 0.929 . S
H905 C935 0.931 . S
H906 C927 0.929 . S
H907 C936 0.930 . S
H908 C928 0.931 . S
O909 Co885 2.097 . S
O909 C937 1.214 . S
H910 C938 0.929 . S
H911 C939 0.929 . S
H912 C940 0.930 . S
H913 C941 0.929 . S
H914 C943 0.930 . S
H915 C920 0.930 . S
H916 C924 0.930 . S
O917 Co886 2.037 . S
O917 C937 1.234 . S
C918 O892 1.269 . S
C918 O893 1.257 . S
C919 H894 0.930 . S
C919 C922 1.388 . S
C919 C924 1.418 . S
C920 H915 0.930 . S
C920 C923 1.404 . S
C920 C924 1.353 . S
N921 Co886 2.145 . S
N921 C922 1.397 . S
N921 C923 1.334 . S
C922 H903 0.929 . S
C922 C919 1.388 . S
C922 N921 1.397 . S
C923 H904 0.929 . S
C923 C920 1.404 . S
C923 N921 1.334 . S
C924 H916 0.930 . S
C924 C919 1.418 . S
C924 C920 1.353 . S
C925 H895 0.930 . S
C925 N926 1.330 . S
C925 C927 1.446 . S
N926 Co885 2.151 . S
N926 C925 1.330 . S
N926 C930 1.418 . S
C927 H906 0.929 . S
C927 C925 1.446 . S
C927 C928 1.332 . S
C928 H908 0.931 . S
C928 C927 1.332 . S
C928 C929 1.267 . S
C929 H897 0.929 . S
C929 C928 1.267 . S
C929 C930 1.251 . S
C930 H900 0.929 . S
C930 N926 1.418 . S
C930 C929 1.251 . S
C931 H898 0.930 . S
C931 C933 1.406 . S
C931 C936 1.261 . S
C932 H899 0.930 . S
C932 N934 1.325 . S
C932 C935 1.357 . S
C933 H901 0.928 . S
C933 C931 1.406 . S
C933 N934 1.261 . S
N934 Co885 2.214 . S
N934 C932 1.325 . S
N934 C933 1.261 . S
C935 H905 0.931 . S
C935 C932 1.357 . S
C935 C936 1.312 . S
C936 H907 0.930 . S
C936 C931 1.261 . S
C936 C935 1.312 . S
C937 O909 1.214 . S
C937 O917 1.234 . S
C938 H910 0.929 . S
C938 C941 1.391 . S
C938 C943 1.391 . S
C939 H911 0.929 . S
C939 C940 1.390 . S
C939 N942 1.391 . S
C940 H912 0.930 . S
C940 C939 1.390 . S
C940 C941 1.392 . S
C941 H913 0.929 . S
C941 C938 1.391 . S
C941 C940 1.392 . S
N942 Co886 2.257 . S
N942 C939 1.391 . S
N942 C943 1.388 . S
C943 H914 0.930 . S
C943 C938 1.391 . S
C943 N942 1.388 . S
C944 C945 1.391 . S
C944 C946 1.394 . S
C944 H960 0.931 . S
C945 C944 1.391 . S
C945 C949 1.376 . S
C946 C944 1.394 . S
C946 C947 1.369 . S
C946 C950 1.531 . S
C947 C946 1.369 . S
C947 C948 1.410 . S
C947 C955 1.503 . S
C948 C947 1.410 . S
C948 C949 1.392 . S
C948 C951 1.511 . S
C949 C945 1.376 . S
C949 C948 1.392 . S
C949 H961 0.929 . S
C950 C946 1.531 . S
C950 H962 0.960 . S
C950 H963 0.962 . S
C950 H964 0.960 . S
C951 C948 1.511 . S
C951 H965 0.961 . S
C951 H966 0.961 . S
C951 H967 0.961 . S
C952 C953 1.370 . S
C952 C954 1.363 . S
C952 H968 0.931 . S
C953 C952 1.370 . S
C953 C957 1.408 . S
C954 C952 1.363 . S
C954 C955 1.370 . S
C954 C958 1.524 . S
C955 C947 1.503 . S
C955 C954 1.370 . S
C955 C956 1.403 . S
C956 C955 1.403 . S
C956 C957 1.404 . S
C956 C959 1.539 . S
C957 C953 1.408 . S
C957 C956 1.404 . S
C957 H969 0.930 . S
C958 C954 1.524 . S
C958 H970 0.956 . S
C958 H971 0.961 . S
C958 H972 0.961 . S
C959 C956 1.539 . S
C959 H973 0.958 . S
C959 H974 0.961 . S
C959 H975 0.960 . S
H960 C944 0.931 . S
H961 C949 0.929 . S
H962 C950 0.960 . S
H963 C950 0.962 . S
H964 C950 0.960 . S
H965 C951 0.961 . S
H966 C951 0.961 . S
H967 C951 0.961 . S
H968 C952 0.931 . S
H969 C957 0.930 . S
H970 C958 0.956 . S
H971 C958 0.961 . S
H972 C958 0.961 . S
H973 C959 0.958 . S
H974 C959 0.961 . S
H975 C959 0.960 . S
C976 C977 1.391 . S
C976 C978 1.394 . S
C976 H992 0.931 . S
C977 C976 1.391 . S
C977 C981 1.376 . S
C978 C976 1.394 . S
C978 C979 1.369 . S
C978 C982 1.531 . S
C979 C978 1.369 . S
C979 C980 1.410 . S
C979 C987 1.503 . S
C980 C979 1.410 . S
C980 C981 1.392 . S
C980 C983 1.511 . S
C981 C977 1.376 . S
C981 C980 1.392 . S
C981 H993 0.929 . S
C982 C978 1.531 . S
C982 H994 0.960 . S
C982 H995 0.962 . S
C982 H996 0.960 . S
C983 C980 1.511 . S
C983 H997 0.961 . S
C983 H998 0.961 . S
C983 H999 0.961 . S
C984 C985 1.370 . S
C984 C986 1.363 . S
C984 H1000 0.931 . S
C985 C984 1.370 . S
C985 C989 1.408 . S
C986 C984 1.363 . S
C986 C987 1.370 . S
C986 C990 1.524 . S
C987 C979 1.503 . S
C987 C986 1.370 . S
C987 C988 1.403 . S
C988 C987 1.403 . S
C988 C989 1.404 . S
C988 C991 1.539 . S
C989 C985 1.408 . S
C989 C988 1.404 . S
C989 H1001 0.930 . S
C990 C986 1.524 . S
C990 H1002 0.956 . S
C990 H1003 0.961 . S
C990 H1004 0.961 . S
C991 C988 1.539 . S
C991 H1005 0.958 . S
C991 H1006 0.961 . S
C991 H1007 0.960 . S
H992 C976 0.931 . S
H993 C981 0.929 . S
H994 C982 0.960 . S
H995 C982 0.962 . S
H996 C982 0.960 . S
H997 C983 0.961 . S
H998 C983 0.961 . S
H999 C983 0.961 . S
H1000 C984 0.931 . S
H1001 C989 0.930 . S
H1002 C990 0.956 . S
H1003 C990 0.961 . S
H1004 C990 0.961 . S
H1005 C991 0.958 . S
H1006 C991 0.961 . S
H1007 C991 0.960 . S
C1008 C1009 1.391 . S
C1008 C1010 1.394 . S
C1008 H1024 0.931 . S
C1009 C1008 1.391 . S
C1009 C1013 1.376 . S
C1010 C1008 1.394 . S
C1010 C1011 1.369 . S
C1010 C1014 1.531 . S
C1011 C1010 1.369 . S
C1011 C1012 1.410 . S
C1011 C1019 1.503 . S
C1012 C1011 1.410 . S
C1012 C1013 1.392 . S
C1012 C1015 1.511 . S
C1013 C1009 1.376 . S
C1013 C1012 1.392 . S
C1013 H1025 0.929 . S
C1014 C1010 1.531 . S
C1014 H1026 0.960 . S
C1014 H1027 0.962 . S
C1014 H1028 0.960 . S
C1015 C1012 1.511 . S
C1015 H1029 0.961 . S
C1015 H1030 0.961 . S
C1015 H1031 0.961 . S
C1016 C1017 1.370 . S
C1016 C1018 1.363 . S
C1016 H1032 0.931 . S
C1017 C1016 1.370 . S
C1017 C1021 1.408 . S
C1018 C1016 1.363 . S
C1018 C1019 1.370 . S
C1018 C1022 1.524 . S
C1019 C1011 1.503 . S
C1019 C1018 1.370 . S
C1019 C1020 1.403 . S
C1020 C1019 1.403 . S
C1020 C1021 1.404 . S
C1020 C1023 1.539 . S
C1021 C1017 1.408 . S
C1021 C1020 1.404 . S
C1021 H1033 0.930 . S
C1022 C1018 1.524 . S
C1022 H1034 0.956 . S
C1022 H1035 0.961 . S
C1022 H1036 0.961 . S
C1023 C1020 1.539 . S
C1023 H1037 0.958 . S
C1023 H1038 0.961 . S
C1023 H1039 0.960 . S
H1024 C1008 0.931 . S
H1025 C1013 0.929 . S
H1026 C1014 0.960 . S
H1027 C1014 0.962 . S
H1028 C1014 0.960 . S
H1029 C1015 0.961 . S
H1030 C1015 0.961 . S
H1031 C1015 0.961 . S
H1032 C1016 0.931 . S
H1033 C1021 0.930 . S
H1034 C1022 0.956 . S
H1035 C1022 0.961 . S
H1036 C1022 0.961 . S
H1037 C1023 0.958 . S
H1038 C1023 0.961 . S
H1039 C1023 0.960 . S
C1040 C1041 1.391 . S
C1040 C1042 1.394 . S
C1040 H1056 0.931 . S
C1041 C1040 1.391 . S
C1041 C1045 1.376 . S
C1042 C1040 1.394 . S
C1042 C1043 1.369 . S
C1042 C1046 1.531 . S
C1043 C1042 1.369 . S
C1043 C1044 1.410 . S
C1043 C1051 1.503 1_455 S
C1044 C1043 1.410 . S
C1044 C1045 1.392 . S
C1044 C1047 1.511 . S
C1045 C1041 1.376 . S
C1045 C1044 1.392 . S
C1045 H1057 0.929 . S
C1046 C1042 1.531 . S
C1046 H1058 0.960 1_455 S
C1046 H1059 0.962 . S
C1046 H1060 0.960 . S
C1047 C1044 1.511 . S
C1047 H1061 0.961 . S
C1047 H1062 0.961 1_455 S
C1047 H1063 0.961 . S
C1048 C1049 1.370 . S
C1048 C1050 1.363 . S
C1048 H1064 0.931 . S
C1049 C1048 1.370 . S
C1049 C1053 1.408 . S
C1050 C1048 1.363 . S
C1050 C1051 1.370 . S
C1050 C1054 1.524 . S
C1051 C1043 1.503 1_655 S
C1051 C1050 1.370 . S
C1051 C1052 1.403 . S
C1052 C1051 1.403 . S
C1052 C1053 1.404 . S
C1052 C1055 1.539 . S
C1053 C1049 1.408 . S
C1053 C1052 1.404 . S
C1053 H1065 0.930 . S
C1054 C1050 1.524 . S
C1054 H1066 0.956 . S
C1054 H1067 0.961 1_655 S
C1054 H1068 0.961 . S
C1055 C1052 1.539 . S
C1055 H1069 0.958 . S
C1055 H1070 0.961 . S
C1055 H1071 0.978 . S
H1056 C1040 0.931 . S
H1057 C1045 0.929 . S
H1058 C1046 0.960 1_655 S
H1059 C1046 0.962 . S
H1060 C1046 0.960 . S
H1061 C1047 0.961 . S
H1062 C1047 0.961 1_655 S
H1063 C1047 0.961 . S
H1064 C1048 0.931 . S
H1065 C1053 0.930 . S
H1066 C1054 0.956 . S
H1067 C1054 0.961 1_455 S
H1068 C1054 0.961 . S
H1069 C1055 0.958 . S
H1070 C1055 0.961 . S
H1071 C1055 0.978 . S
C1072 C1073 1.391 . S
C1072 C1074 1.394 . S
C1072 H1088 0.931 . S
C1073 C1072 1.391 . S
C1073 C1077 1.376 . S
C1074 C1072 1.394 . S
C1074 C1075 1.369 . S
C1074 C1078 1.531 . S
C1075 C1074 1.369 . S
C1075 C1076 1.410 . S
C1075 C1083 1.503 . S
C1076 C1075 1.410 . S
C1076 C1077 1.392 . S
C1076 C1079 1.511 . S
C1077 C1073 1.376 . S
C1077 C1076 1.392 . S
C1077 H1089 0.929 . S
C1078 C1074 1.531 . S
C1078 H1090 0.960 . S
C1078 H1091 0.962 . S
C1078 H1092 0.960 . S
C1079 C1076 1.511 . S
C1079 H1093 0.961 . S
C1079 H1094 0.961 . S
C1079 H1095 0.961 . S
C1080 C1081 1.370 . S
C1080 C1082 1.363 . S
C1080 H1096 0.931 . S
C1081 C1080 1.370 . S
C1081 C1085 1.408 . S
C1082 C1080 1.363 . S
C1082 C1083 1.370 . S
C1082 C1086 1.524 . S
C1083 C1075 1.503 . S
C1083 C1082 1.370 . S
C1083 C1084 1.403 . S
C1084 C1083 1.403 . S
C1084 C1085 1.404 . S
C1084 C1087 1.539 . S
C1085 C1081 1.408 . S
C1085 C1084 1.404 . S
C1085 H1097 0.930 . S
C1086 C1082 1.524 . S
C1086 H1098 0.956 . S
C1086 H1099 0.961 . S
C1086 H1100 0.961 . S
C1087 C1084 1.539 . S
C1087 H1101 0.958 . S
C1087 H1102 0.961 . S
C1087 H1103 0.960 . S
H1088 C1072 0.931 . S
H1089 C1077 0.929 . S
H1090 C1078 0.960 . S
H1091 C1078 0.962 . S
H1092 C1078 0.960 . S
H1093 C1079 0.961 . S
H1094 C1079 0.961 . S
H1095 C1079 0.961 . S
H1096 C1080 0.931 . S
H1097 C1085 0.930 . S
H1098 C1086 0.956 . S
H1099 C1086 0.961 . S
H1100 C1086 0.961 . S
H1101 C1087 0.958 . S
H1102 C1087 0.961 . S
H1103 C1087 0.960 . S
C1104 C1105 1.391 . S
C1104 C1106 1.394 . S
C1104 H1120 0.931 . S
C1105 C1104 1.391 . S
C1105 C1109 1.376 . S
C1106 C1104 1.394 . S
C1106 C1107 1.369 . S
C1106 C1110 1.531 . S
C1107 C1106 1.369 . S
C1107 C1108 1.410 . S
C1107 C1115 1.503 1_655 S
C1108 C1107 1.410 . S
C1108 C1109 1.392 . S
C1108 C1111 1.511 . S
C1109 C1105 1.376 . S
C1109 C1108 1.392 . S
C1109 H1121 0.929 . S
C1110 C1106 1.531 . S
C1110 H1122 0.960 1_655 S
C1110 H1123 0.962 . S
C1110 H1124 0.960 . S
C1111 C1108 1.511 . S
C1111 H1125 0.961 . S
C1111 H1126 0.961 1_655 S
C1111 H1127 0.961 . S
C1112 C1113 1.370 . S
C1112 C1114 1.363 . S
C1112 H1128 0.931 . S
C1113 C1112 1.370 . S
C1113 C1117 1.408 . S
C1114 C1112 1.363 . S
C1114 C1115 1.370 . S
C1114 C1118 1.524 . S
C1115 C1107 1.503 1_455 S
C1115 C1114 1.370 . S
C1115 C1116 1.403 . S
C1116 C1115 1.403 . S
C1116 C1117 1.404 . S
C1116 C1119 1.539 . S
C1117 C1113 1.408 . S
C1117 C1116 1.404 . S
C1117 H1129 0.930 . S
C1118 C1114 1.524 . S
C1118 H1130 0.956 . S
C1118 H1131 0.961 1_455 S
C1118 H1132 0.961 . S
C1119 C1116 1.539 . S
C1119 H1133 0.958 . S
C1119 H1134 0.961 . S
C1119 H1135 0.973 . S
H1120 C1104 0.931 . S
H1121 C1109 0.929 . S
H1122 C1110 0.960 1_455 S
H1123 C1110 0.962 . S
H1124 C1110 0.960 . S
H1125 C1111 0.961 . S
H1126 C1111 0.961 1_455 S
H1127 C1111 0.961 . S
H1128 C1112 0.931 . S
H1129 C1117 0.930 . S
H1130 C1118 0.956 . S
H1131 C1118 0.961 1_655 S
H1132 C1118 0.961 . S
H1133 C1119 0.958 . S
H1134 C1119 0.961 . S
H1135 C1119 0.973 . S
C1136 C1137 1.391 . S
C1136 C1138 1.394 . S
C1136 H1152 0.931 . S
C1137 C1136 1.391 . S
C1137 C1141 1.376 . S
C1138 C1136 1.394 . S
C1138 C1139 1.369 . S
C1138 C1142 1.531 . S
C1139 C1138 1.369 . S
C1139 C1140 1.410 . S
C1139 C1147 1.503 . S
C1140 C1139 1.410 . S
C1140 C1141 1.392 . S
C1140 C1143 1.511 . S
C1141 C1137 1.376 . S
C1141 C1140 1.392 . S
C1141 H1153 0.929 . S
C1142 C1138 1.531 . S
C1142 H1154 0.960 . S
C1142 H1155 0.962 . S
C1142 H1156 0.960 . S
C1143 C1140 1.511 . S
C1143 H1157 0.961 . S
C1143 H1158 0.961 . S
C1143 H1159 0.961 . S
C1144 C1145 1.370 . S
C1144 C1146 1.363 . S
C1144 H1160 0.931 . S
C1145 C1144 1.370 . S
C1145 C1149 1.408 . S
C1146 C1144 1.363 . S
C1146 C1147 1.370 . S
C1146 C1150 1.524 . S
C1147 C1139 1.503 . S
C1147 C1146 1.370 . S
C1147 C1148 1.403 . S
C1148 C1147 1.403 . S
C1148 C1149 1.404 . S
C1148 C1151 1.539 . S
C1149 C1145 1.408 . S
C1149 C1148 1.404 . S
C1149 H1161 0.930 . S
C1150 C1146 1.524 . S
C1150 H1162 0.956 . S
C1150 H1163 0.961 . S
C1150 H1164 0.961 . S
C1151 C1148 1.539 . S
C1151 H1165 0.958 . S
C1151 H1166 0.961 . S
C1151 H1167 0.960 . S
H1152 C1136 0.931 . S
H1153 C1141 0.929 . S
H1154 C1142 0.960 . S
H1155 C1142 0.962 . S
H1156 C1142 0.960 . S
H1157 C1143 0.961 . S
H1158 C1143 0.961 . S
H1159 C1143 0.961 . S
H1160 C1144 0.931 . S
H1161 C1149 0.930 . S
H1162 C1150 0.956 . S
H1163 C1150 0.961 . S
H1164 C1150 0.961 . S
H1165 C1151 0.958 . S
H1166 C1151 0.961 . S
H1167 C1151 0.960 . S
C1168 C1169 1.391 . S
C1168 C1170 1.394 . S
C1168 H1184 0.931 . S
C1169 C1168 1.391 . S
C1169 C1173 1.376 . S
C1170 C1168 1.394 . S
C1170 C1171 1.369 . S
C1170 C1174 1.531 . S
C1171 C1170 1.369 . S
C1171 C1172 1.410 . S
C1171 C1179 1.503 . S
C1172 C1171 1.410 . S
C1172 C1173 1.392 . S
C1172 C1175 1.511 . S
C1173 C1169 1.376 . S
C1173 C1172 1.392 . S
C1173 H1185 0.929 . S
C1174 C1170 1.531 . S
C1174 H1186 0.960 . S
C1174 H1187 0.962 . S
C1174 H1188 0.960 . S
C1175 C1172 1.511 . S
C1175 H1189 0.961 . S
C1175 H1190 0.961 . S
C1175 H1191 0.961 . S
C1176 C1177 1.370 . S
C1176 C1178 1.363 . S
C1176 H1192 0.931 . S
C1177 C1176 1.370 . S
C1177 C1181 1.408 . S
C1178 C1176 1.363 . S
C1178 C1179 1.370 . S
C1178 C1182 1.524 . S
C1179 C1171 1.503 . S
C1179 C1178 1.370 . S
C1179 C1180 1.403 . S
C1180 C1179 1.403 . S
C1180 C1181 1.404 . S
C1180 C1183 1.539 . S
C1181 C1177 1.408 . S
C1181 C1180 1.404 . S
C1181 H1193 0.930 . S
C1182 C1178 1.524 . S
C1182 H1194 0.956 . S
C1182 H1195 0.961 . S
C1182 H1196 0.961 . S
C1183 C1180 1.539 . S
C1183 H1197 0.958 . S
C1183 H1198 0.961 . S
C1183 H1199 0.960 . S
H1184 C1168 0.931 . S
H1185 C1173 0.929 . S
H1186 C1174 0.960 . S
H1187 C1174 0.962 . S
H1188 C1174 0.960 . S
H1189 C1175 0.961 . S
H1190 C1175 0.961 . S
H1191 C1175 0.961 . S
H1192 C1176 0.931 . S
H1193 C1181 0.930 . S
H1194 C1182 0.956 . S
H1195 C1182 0.961 . S
H1196 C1182 0.961 . S
H1197 C1183 0.958 . S
H1198 C1183 0.961 . S
H1199 C1183 0.960 . S
C1200 C1201 1.391 . S
C1200 C1202 1.394 . S
C1200 H1216 0.931 . S
C1201 C1200 1.391 . S
C1201 C1205 1.376 . S
C1202 C1200 1.394 . S
C1202 C1203 1.369 . S
C1202 C1206 1.531 . S
C1203 C1202 1.369 . S
C1203 C1204 1.410 . S
C1203 C1211 1.503 . S
C1204 C1203 1.410 . S
C1204 C1205 1.392 . S
C1204 C1207 1.511 . S
C1205 C1201 1.376 . S
C1205 C1204 1.392 . S
C1205 H1217 0.929 . S
C1206 C1202 1.531 . S
C1206 H1218 0.960 . S
C1206 H1219 0.962 . S
C1206 H1220 0.960 . S
C1207 C1204 1.511 . S
C1207 H1221 0.961 . S
C1207 H1222 0.961 . S
C1207 H1223 0.961 . S
C1208 C1209 1.370 . S
C1208 C1210 1.363 . S
C1208 H1224 0.931 . S
C1209 C1208 1.370 . S
C1209 C1213 1.408 . S
C1210 C1208 1.363 . S
C1210 C1211 1.370 . S
C1210 C1214 1.524 . S
C1211 C1203 1.503 . S
C1211 C1210 1.370 . S
C1211 C1212 1.403 . S
C1212 C1211 1.403 . S
C1212 C1213 1.404 . S
C1212 C1215 1.539 . S
C1213 C1209 1.408 . S
C1213 C1212 1.404 . S
C1213 H1225 0.930 . S
C1214 C1210 1.524 . S
C1214 H1226 0.956 . S
C1214 H1227 0.961 . S
C1214 H1228 0.961 . S
C1215 C1212 1.539 . S
C1215 H1229 0.958 . S
C1215 H1230 0.961 . S
C1215 H1231 0.960 . S
H1216 C1200 0.931 . S
H1217 C1205 0.929 . S
H1218 C1206 0.960 . S
H1219 C1206 0.962 . S
H1220 C1206 0.960 . S
H1221 C1207 0.961 . S
H1222 C1207 0.961 . S
H1223 C1207 0.961 . S
H1224 C1208 0.931 . S
H1225 C1213 0.930 . S
H1226 C1214 0.956 . S
H1227 C1214 0.961 . S
H1228 C1214 0.961 . S
H1229 C1215 0.958 . S
H1230 C1215 0.961 . S
H1231 C1215 0.960 . S
C1232 C1233 1.391 . S
C1232 C1234 1.394 . S
C1232 H1248 0.931 . S
C1233 C1232 1.391 . S
C1233 C1237 1.376 . S
C1234 C1232 1.394 . S
C1234 C1235 1.369 . S
C1234 C1238 1.531 . S
C1235 C1234 1.369 . S
C1235 C1236 1.410 . S
C1235 C1243 1.503 . S
C1236 C1235 1.410 . S
C1236 C1237 1.392 . S
C1236 C1239 1.511 . S
C1237 C1233 1.376 . S
C1237 C1236 1.392 . S
C1237 H1249 0.929 . S
C1238 C1234 1.531 . S
C1238 H1250 0.960 . S
C1238 H1251 0.962 . S
C1238 H1252 0.960 . S
C1239 C1236 1.511 . S
C1239 H1253 0.961 . S
C1239 H1254 0.961 . S
C1239 H1255 0.961 . S
C1240 C1241 1.370 . S
C1240 C1242 1.363 . S
C1240 H1256 0.931 . S
C1241 C1240 1.370 . S
C1241 C1245 1.408 . S
C1242 C1240 1.363 . S
C1242 C1243 1.370 . S
C1242 C1246 1.524 . S
C1243 C1235 1.503 . S
C1243 C1242 1.370 . S
C1243 C1244 1.403 . S
C1244 C1243 1.403 . S
C1244 C1245 1.404 . S
C1244 C1247 1.539 . S
C1245 C1241 1.408 . S
C1245 C1244 1.404 . S
C1245 H1257 0.930 . S
C1246 C1242 1.524 . S
C1246 H1258 0.956 . S
C1246 H1259 0.961 . S
C1246 H1260 0.961 . S
C1247 C1244 1.539 . S
C1247 H1261 0.958 . S
C1247 H1262 0.961 . S
C1247 H1263 0.960 . S
H1248 C1232 0.931 . S
H1249 C1237 0.929 . S
H1250 C1238 0.960 . S
H1251 C1238 0.962 . S
H1252 C1238 0.960 . S
H1253 C1239 0.961 . S
H1254 C1239 0.961 . S
H1255 C1239 0.961 . S
H1256 C1240 0.931 . S
H1257 C1245 0.930 . S
H1258 C1246 0.956 . S
H1259 C1246 0.961 . S
H1260 C1246 0.961 . S
H1261 C1247 0.958 . S
H1262 C1247 0.961 . S
H1263 C1247 0.960 . S
C1264 C1265 1.391 . S
C1264 C1266 1.394 . S
C1264 H1280 0.931 . S
C1265 C1264 1.391 . S
C1265 C1269 1.376 . S
C1266 C1264 1.394 . S
C1266 C1267 1.369 . S
C1266 C1270 1.531 . S
C1267 C1266 1.369 . S
C1267 C1268 1.410 . S
C1267 C1275 1.503 . S
C1268 C1267 1.410 . S
C1268 C1269 1.392 . S
C1268 C1271 1.511 . S
C1269 C1265 1.376 . S
C1269 C1268 1.392 . S
C1269 H1281 0.929 . S
C1270 C1266 1.531 . S
C1270 H1282 0.960 . S
C1270 H1283 0.962 . S
C1270 H1284 0.960 . S
C1271 C1268 1.511 . S
C1271 H1285 0.961 . S
C1271 H1286 0.961 . S
C1271 H1287 0.961 . S
C1272 C1273 1.370 . S
C1272 C1274 1.363 . S
C1272 H1288 0.931 . S
C1273 C1272 1.370 . S
C1273 C1277 1.408 . S
C1274 C1272 1.363 . S
C1274 C1275 1.370 . S
C1274 C1278 1.524 . S
C1275 C1267 1.503 . S
C1275 C1274 1.370 . S
C1275 C1276 1.403 . S
C1276 C1275 1.403 . S
C1276 C1277 1.404 . S
C1276 C1279 1.539 . S
C1277 C1273 1.408 . S
C1277 C1276 1.404 . S
C1277 H1289 0.930 . S
C1278 C1274 1.524 . S
C1278 H1290 0.956 . S
C1278 H1291 0.961 . S
C1278 H1292 0.961 . S
C1279 C1276 1.539 . S
C1279 H1293 0.958 . S
C1279 H1294 0.961 . S
C1279 H1295 0.960 . S
H1280 C1264 0.931 . S
H1281 C1269 0.929 . S
H1282 C1270 0.960 . S
H1283 C1270 0.962 . S
H1284 C1270 0.960 . S
H1285 C1271 0.961 . S
H1286 C1271 0.961 . S
H1287 C1271 0.961 . S
H1288 C1272 0.931 . S
H1289 C1277 0.930 . S
H1290 C1278 0.956 . S
H1291 C1278 0.961 . S
H1292 C1278 0.961 . S
H1293 C1279 0.958 . S
H1294 C1279 0.961 . S
H1295 C1279 0.960 . S
C1296 C1297 1.391 . S
C1296 C1298 1.394 . S
C1296 H1312 0.931 . S
C1297 C1296 1.391 . S
C1297 C1301 1.376 . S
C1298 C1296 1.394 . S
C1298 C1299 1.369 . S
C1298 C1302 1.531 . S
C1299 C1298 1.369 . S
C1299 C1300 1.410 . S
C1299 C1307 1.503 . S
C1300 C1299 1.410 . S
C1300 C1301 1.392 . S
C1300 C1303 1.511 . S
C1301 C1297 1.376 . S
C1301 C1300 1.392 . S
C1301 H1313 0.929 . S
C1302 C1298 1.531 . S
C1302 H1314 0.960 . S
C1302 H1315 0.962 . S
C1302 H1316 0.960 . S
C1303 C1300 1.511 . S
C1303 H1317 0.961 . S
C1303 H1318 0.961 . S
C1303 H1319 0.961 . S
C1304 C1305 1.370 . S
C1304 C1306 1.363 . S
C1304 H1320 0.931 . S
C1305 C1304 1.370 . S
C1305 C1309 1.408 . S
C1306 C1304 1.363 . S
C1306 C1307 1.370 . S
C1306 C1310 1.524 . S
C1307 C1299 1.503 . S
C1307 C1306 1.370 . S
C1307 C1308 1.403 . S
C1308 C1307 1.403 . S
C1308 C1309 1.404 . S
C1308 C1311 1.539 . S
C1309 C1305 1.408 . S
C1309 C1308 1.404 . S
C1309 H1321 0.930 . S
C1310 C1306 1.524 . S
C1310 H1322 0.956 . S
C1310 H1323 0.961 . S
C1310 H1324 0.961 . S
C1311 C1308 1.539 . S
C1311 H1325 0.958 . S
C1311 H1326 0.961 . S
C1311 H1327 0.960 . S
H1312 C1296 0.931 . S
H1313 C1301 0.929 . S
H1314 C1302 0.960 . S
H1315 C1302 0.962 . S
H1316 C1302 0.960 . S
H1317 C1303 0.961 . S
H1318 C1303 0.961 . S
H1319 C1303 0.961 . S
H1320 C1304 0.931 . S
H1321 C1309 0.930 . S
H1322 C1310 0.956 . S
H1323 C1310 0.961 . S
H1324 C1310 0.961 . S
H1325 C1311 0.958 . S
H1326 C1311 0.961 . S
H1327 C1311 0.960 . S
C1328 C1329 1.391 . S
C1328 C1330 1.394 . S
C1328 H1344 0.931 . S
C1329 C1328 1.391 . S
C1329 C1333 1.376 . S
C1330 C1328 1.394 . S
C1330 C1331 1.369 . S
C1330 C1334 1.531 . S
C1331 C1330 1.369 . S
C1331 C1332 1.410 . S
C1331 C1339 1.503 1_455 S
C1332 C1331 1.410 . S
C1332 C1333 1.392 . S
C1332 C1335 1.511 . S
C1333 C1329 1.376 . S
C1333 C1332 1.392 . S
C1333 H1345 0.929 . S
C1334 C1330 1.531 . S
C1334 H1346 0.960 1_455 S
C1334 H1347 0.962 . S
C1334 H1348 0.960 . S
C1335 C1332 1.511 . S
C1335 H1349 0.961 . S
C1335 H1350 0.961 1_455 S
C1335 H1351 0.961 . S
C1336 C1337 1.370 . S
C1336 C1338 1.363 . S
C1336 H1352 0.931 . S
C1337 C1336 1.370 . S
C1337 C1341 1.408 . S
C1338 C1336 1.363 . S
C1338 C1339 1.370 . S
C1338 C1342 1.524 . S
C1339 C1331 1.503 1_655 S
C1339 C1338 1.370 . S
C1339 C1340 1.403 . S
C1340 C1339 1.403 . S
C1340 C1341 1.404 . S
C1340 C1343 1.539 . S
C1341 C1337 1.408 . S
C1341 C1340 1.404 . S
C1341 H1353 0.930 . S
C1342 C1338 1.524 . S
C1342 H1354 0.956 . S
C1342 H1355 0.961 1_655 S
C1342 H1356 0.961 . S
C1343 C1340 1.539 . S
C1343 H1357 0.958 . S
C1343 H1358 0.961 . S
C1343 H1359 0.969 . S
H1344 C1328 0.931 . S
H1345 C1333 0.929 . S
H1346 C1334 0.960 1_655 S
H1347 C1334 0.962 . S
H1348 C1334 0.960 . S
H1349 C1335 0.961 . S
H1350 C1335 0.961 1_655 S
H1351 C1335 0.961 . S
H1352 C1336 0.931 . S
H1353 C1341 0.930 . S
H1354 C1342 0.956 . S
H1355 C1342 0.961 1_455 S
H1356 C1342 0.961 . S
H1357 C1343 0.958 . S
H1358 C1343 0.961 . S
H1359 C1343 0.969 . S
C1360 C1361 1.391 . S
C1360 C1362 1.394 . S
C1360 H1376 0.931 . S
C1361 C1360 1.391 . S
C1361 C1365 1.376 . S
C1362 C1360 1.394 . S
C1362 C1363 1.369 . S
C1362 C1366 1.531 . S
C1363 C1362 1.369 . S
C1363 C1364 1.410 . S
C1363 C1371 1.503 . S
C1364 C1363 1.410 . S
C1364 C1365 1.392 . S
C1364 C1367 1.511 . S
C1365 C1361 1.376 . S
C1365 C1364 1.392 . S
C1365 H1377 0.929 . S
C1366 C1362 1.531 . S
C1366 H1378 0.960 . S
C1366 H1379 0.962 . S
C1366 H1380 0.960 . S
C1367 C1364 1.511 . S
C1367 H1381 0.961 . S
C1367 H1382 0.961 . S
C1367 H1383 0.961 . S
C1368 C1369 1.370 . S
C1368 C1370 1.363 . S
C1368 H1384 0.931 . S
C1369 C1368 1.370 . S
C1369 C1373 1.408 . S
C1370 C1368 1.363 . S
C1370 C1371 1.370 . S
C1370 C1374 1.524 . S
C1371 C1363 1.503 . S
C1371 C1370 1.370 . S
C1371 C1372 1.403 . S
C1372 C1371 1.403 . S
C1372 C1373 1.404 . S
C1372 C1375 1.539 . S
C1373 C1369 1.408 . S
C1373 C1372 1.404 . S
C1373 H1385 0.930 . S
C1374 C1370 1.524 . S
C1374 H1386 0.956 . S
C1374 H1387 0.961 . S
C1374 H1388 0.961 . S
C1375 C1372 1.539 . S
C1375 H1389 0.958 . S
C1375 H1390 0.961 . S
C1375 H1391 0.960 . S
H1376 C1360 0.931 . S
H1377 C1365 0.929 . S
H1378 C1366 0.960 . S
H1379 C1366 0.962 . S
H1380 C1366 0.960 . S
H1381 C1367 0.961 . S
H1382 C1367 0.961 . S
H1383 C1367 0.961 . S
H1384 C1368 0.931 . S
H1385 C1373 0.930 . S
H1386 C1374 0.956 . S
H1387 C1374 0.961 . S
H1388 C1374 0.961 . S
H1389 C1375 0.958 . S
H1390 C1375 0.961 . S
H1391 C1375 0.960 . S
C1392 C1393 1.391 . S
C1392 C1394 1.394 . S
C1392 H1408 0.931 . S
C1393 C1392 1.391 . S
C1393 C1397 1.376 . S
C1394 C1392 1.394 . S
C1394 C1395 1.369 . S
C1394 C1398 1.531 . S
C1395 C1394 1.369 . S
C1395 C1396 1.410 . S
C1395 C1403 1.503 . S
C1396 C1395 1.410 . S
C1396 C1397 1.392 . S
C1396 C1399 1.511 . S
C1397 C1393 1.376 . S
C1397 C1396 1.392 . S
C1397 H1409 0.929 . S
C1398 C1394 1.531 . S
C1398 H1410 0.960 . S
C1398 H1411 0.962 . S
C1398 H1412 0.960 . S
C1399 C1396 1.511 . S
C1399 H1413 0.961 . S
C1399 H1414 0.961 . S
C1399 H1415 0.961 . S
C1400 C1401 1.370 . S
C1400 C1402 1.363 . S
C1400 H1416 0.931 . S
C1401 C1400 1.370 . S
C1401 C1405 1.408 . S
C1402 C1400 1.363 . S
C1402 C1403 1.370 . S
C1402 C1406 1.524 . S
C1403 C1395 1.503 . S
C1403 C1402 1.370 . S
C1403 C1404 1.403 . S
C1404 C1403 1.403 . S
C1404 C1405 1.404 . S
C1404 C1407 1.539 . S
C1405 C1401 1.408 . S
C1405 C1404 1.404 . S
C1405 H1417 0.930 . S
C1406 C1402 1.524 . S
C1406 H1418 0.956 . S
C1406 H1419 0.961 . S
C1406 H1420 0.961 . S
C1407 C1404 1.539 . S
C1407 H1421 0.958 . S
C1407 H1422 0.961 . S
C1407 H1423 0.960 . S
H1408 C1392 0.931 . S
H1409 C1397 0.929 . S
H1410 C1398 0.960 . S
H1411 C1398 0.962 . S
H1412 C1398 0.960 . S
H1413 C1399 0.961 . S
H1414 C1399 0.961 . S
H1415 C1399 0.961 . S
H1416 C1400 0.931 . S
H1417 C1405 0.930 . S
H1418 C1406 0.956 . S
H1419 C1406 0.961 . S
H1420 C1406 0.961 . S
H1421 C1407 0.958 . S
H1422 C1407 0.961 . S
H1423 C1407 0.960 . S
C1424 C1425 1.391 . S
C1424 C1426 1.394 . S
C1424 H1440 0.931 . S
C1425 C1424 1.391 . S
C1425 C1429 1.376 . S
C1426 C1424 1.394 . S
C1426 C1427 1.369 . S
C1426 C1430 1.531 . S
C1427 C1426 1.369 . S
C1427 C1428 1.410 . S
C1427 C1435 1.503 1_455 S
C1428 C1427 1.410 . S
C1428 C1429 1.392 . S
C1428 C1431 1.511 . S
C1429 C1425 1.376 . S
C1429 C1428 1.392 . S
C1429 H1441 0.929 . S
C1430 C1426 1.531 . S
C1430 H1442 0.960 1_455 S
C1430 H1443 0.962 . S
C1430 H1444 0.960 . S
C1431 C1428 1.511 . S
C1431 H1445 0.961 . S
C1431 H1446 0.961 1_455 S
C1431 H1447 0.961 . S
C1432 C1433 1.370 . S
C1432 C1434 1.363 . S
C1432 H1448 0.931 . S
C1433 C1432 1.370 . S
C1433 C1437 1.408 . S
C1434 C1432 1.363 . S
C1434 C1435 1.370 . S
C1434 C1438 1.524 . S
C1435 C1427 1.503 1_655 S
C1435 C1434 1.370 . S
C1435 C1436 1.403 . S
C1436 C1435 1.403 . S
C1436 C1437 1.404 . S
C1436 C1439 1.539 . S
C1437 C1433 1.408 . S
C1437 C1436 1.404 . S
C1437 H1449 0.930 . S
C1438 C1434 1.524 . S
C1438 H1450 0.984 . S
C1438 H1451 0.961 1_655 S
C1438 H1452 0.961 . S
C1439 C1436 1.539 . S
C1439 H1453 0.958 . S
C1439 H1454 0.961 . S
C1439 H1455 0.970 . S
H1440 C1424 0.931 . S
H1441 C1429 0.929 . S
H1442 C1430 0.960 1_655 S
H1443 C1430 0.962 . S
H1444 C1430 0.960 . S
H1445 C1431 0.961 . S
H1446 C1431 0.961 1_655 S
H1447 C1431 0.961 . S
H1448 C1432 0.931 . S
H1449 C1437 0.930 . S
H1450 C1438 0.984 . S
H1451 C1438 0.961 1_455 S
H1452 C1438 0.961 . S
H1453 C1439 0.958 . S
H1454 C1439 0.961 . S
H1455 C1439 0.970 . S
C1456 C1457 1.391 . S
C1456 C1458 1.394 . S
C1456 H1472 0.931 . S
C1457 C1456 1.391 . S
C1457 C1461 1.376 . S
C1458 C1456 1.394 . S
C1458 C1459 1.369 . S
C1458 C1462 1.531 . S
C1459 C1458 1.369 . S
C1459 C1460 1.410 1_554 S
C1459 C1467 1.503 1_554 S
C1460 C1459 1.410 1_556 S
C1460 C1461 1.392 1_556 S
C1460 C1463 1.511 . S
C1461 C1457 1.376 . S
C1461 C1460 1.392 1_554 S
C1461 H1473 0.920 1_554 S
C1462 C1458 1.531 . S
C1462 H1474 0.960 . S
C1462 H1475 0.962 . S
C1462 H1476 0.960 . S
C1463 C1460 1.511 . S
C1463 H1477 0.961 . S
C1463 H1478 0.961 . S
C1463 H1479 0.961 . S
C1464 C1465 1.370 . S
C1464 C1466 1.363 . S
C1464 H1480 0.931 . S
C1465 C1464 1.370 . S
C1465 C1469 1.408 . S
C1466 C1464 1.363 . S
C1466 C1467 1.370 . S
C1466 C1470 1.524 . S
C1467 C1459 1.503 1_556 S
C1467 C1466 1.370 . S
C1467 C1468 1.403 . S
C1468 C1467 1.403 . S
C1468 C1469 1.404 . S
C1468 C1471 1.539 . S
C1469 C1465 1.408 . S
C1469 C1468 1.404 . S
C1469 H1481 0.930 . S
C1470 C1466 1.524 . S
C1470 H1482 0.956 1_556 S
C1470 H1483 0.961 . S
C1470 H1484 0.961 . S
C1471 C1468 1.539 . S
C1471 H1485 0.958 1_556 S
C1471 H1486 0.961 . S
C1471 H1487 0.960 . S
H1472 C1456 0.931 . S
H1473 C1461 0.920 1_556 S
H1474 C1462 0.960 . S
H1475 C1462 0.962 . S
H1476 C1462 0.960 . S
H1477 C1463 0.961 . S
H1478 C1463 0.961 . S
H1479 C1463 0.961 . S
H1480 C1464 0.931 . S
H1481 C1469 0.930 . S
H1482 C1470 0.956 1_554 S
H1483 C1470 0.961 . S
H1484 C1470 0.961 . S
H1485 C1471 0.958 1_554 S
H1486 C1471 0.961 . S
H1487 C1471 0.960 . S
C1488 C1489 1.391 . S
C1488 C1490 1.394 . S
C1488 H1504 0.931 . S
C1489 C1488 1.391 . S
C1489 C1493 1.376 . S
C1490 C1488 1.394 . S
C1490 C1491 1.369 . S
C1490 C1494 1.531 . S
C1491 C1490 1.369 . S
C1491 C1492 1.410 . S
C1491 C1499 1.503 . S
C1492 C1491 1.410 . S
C1492 C1493 1.392 . S
C1492 C1495 1.511 . S
C1493 C1489 1.376 . S
C1493 C1492 1.392 . S
C1493 H1505 0.929 . S
C1494 C1490 1.531 . S
C1494 H1506 0.960 . S
C1494 H1507 0.962 . S
C1494 H1508 0.960 . S
C1495 C1492 1.511 . S
C1495 H1509 0.961 . S
C1495 H1510 0.961 . S
C1495 H1511 0.961 . S
C1496 C1497 1.370 . S
C1496 C1498 1.363 . S
C1496 H1512 0.931 . S
C1497 C1496 1.370 . S
C1497 C1501 1.408 . S
C1498 C1496 1.363 . S
C1498 C1499 1.370 . S
C1498 C1502 1.524 . S
C1499 C1491 1.503 . S
C1499 C1498 1.370 . S
C1499 C1500 1.403 . S
C1500 C1499 1.403 . S
C1500 C1501 1.404 . S
C1500 C1503 1.539 . S
C1501 C1497 1.408 . S
C1501 C1500 1.404 . S
C1501 H1513 0.930 . S
C1502 C1498 1.524 . S
C1502 H1514 0.956 . S
C1502 H1515 0.961 . S
C1502 H1516 0.961 . S
C1503 C1500 1.539 . S
C1503 H1517 0.958 . S
C1503 H1518 0.961 . S
C1503 H1519 0.960 . S
H1504 C1488 0.931 . S
H1505 C1493 0.929 . S
H1506 C1494 0.960 . S
H1507 C1494 0.962 . S
H1508 C1494 0.960 . S
H1509 C1495 0.961 . S
H1510 C1495 0.961 . S
H1511 C1495 0.961 . S
H1512 C1496 0.931 . S
H1513 C1501 0.930 . S
H1514 C1502 0.956 . S
H1515 C1502 0.961 . S
H1516 C1502 0.961 . S
H1517 C1503 0.958 . S
H1518 C1503 0.961 . S
H1519 C1503 0.960 . S
C1520 C1521 1.391 . S
C1520 C1522 1.394 . S
C1520 H1536 0.931 . S
C1521 C1520 1.391 . S
C1521 C1525 1.376 . S
C1522 C1520 1.394 . S
C1522 C1523 1.369 . S
C1522 C1526 1.531 . S
C1523 C1522 1.369 . S
C1523 C1524 1.410 . S
C1523 C1531 1.503 . S
C1524 C1523 1.410 . S
C1524 C1525 1.392 . S
C1524 C1527 1.511 . S
C1525 C1521 1.376 . S
C1525 C1524 1.392 . S
C1525 H1537 0.929 . S
C1526 C1522 1.531 . S
C1526 H1538 0.960 . S
C1526 H1539 0.962 . S
C1526 H1540 0.960 . S
C1527 C1524 1.511 . S
C1527 H1541 0.961 . S
C1527 H1542 0.961 . S
C1527 H1543 0.961 . S
C1528 C1529 1.370 . S
C1528 C1530 1.363 . S
C1528 H1544 0.931 . S
C1529 C1528 1.370 . S
C1529 C1533 1.408 . S
C1530 C1528 1.363 . S
C1530 C1531 1.370 . S
C1530 C1534 1.524 . S
C1531 C1523 1.503 . S
C1531 C1530 1.370 . S
C1531 C1532 1.403 . S
C1532 C1531 1.403 . S
C1532 C1533 1.404 . S
C1532 C1535 1.539 . S
C1533 C1529 1.408 . S
C1533 C1532 1.404 . S
C1533 H1545 0.930 . S
C1534 C1530 1.524 . S
C1534 H1546 0.956 . S
C1534 H1547 0.961 . S
C1534 H1548 0.961 . S
C1535 C1532 1.539 . S
C1535 H1549 0.958 . S
C1535 H1550 0.961 . S
C1535 H1551 0.960 . S
H1536 C1520 0.931 . S
H1537 C1525 0.929 . S
H1538 C1526 0.960 . S
H1539 C1526 0.962 . S
H1540 C1526 0.960 . S
H1541 C1527 0.961 . S
H1542 C1527 0.961 . S
H1543 C1527 0.961 . S
H1544 C1528 0.931 . S
H1545 C1533 0.930 . S
H1546 C1534 0.956 . S
H1547 C1534 0.961 . S
H1548 C1534 0.961 . S
H1549 C1535 0.958 . S
H1550 C1535 0.961 . S
H1551 C1535 0.960 . S
C1552 C1553 1.391 . S
C1552 C1554 1.394 . S
C1552 H1568 0.931 . S
C1553 C1552 1.391 . S
C1553 C1557 1.376 . S
C1554 C1552 1.394 . S
C1554 C1555 1.369 . S
C1554 C1558 1.531 . S
C1555 C1554 1.369 . S
C1555 C1556 1.410 . S
C1555 C1563 1.503 . S
C1556 C1555 1.410 . S
C1556 C1557 1.392 . S
C1556 C1559 1.511 . S
C1557 C1553 1.376 . S
C1557 C1556 1.392 . S
C1557 H1569 0.929 . S
C1558 C1554 1.531 . S
C1558 H1570 0.960 . S
C1558 H1571 0.962 . S
C1558 H1572 0.960 . S
C1559 C1556 1.511 . S
C1559 H1573 0.961 . S
C1559 H1574 0.961 . S
C1559 H1575 0.961 . S
C1560 C1561 1.370 . S
C1560 C1562 1.363 . S
C1560 H1576 0.931 . S
C1561 C1560 1.370 . S
C1561 C1565 1.408 . S
C1562 C1560 1.363 . S
C1562 C1563 1.370 . S
C1562 C1566 1.524 . S
C1563 C1555 1.503 . S
C1563 C1562 1.370 . S
C1563 C1564 1.403 . S
C1564 C1563 1.403 . S
C1564 C1565 1.404 . S
C1564 C1567 1.539 . S
C1565 C1561 1.408 . S
C1565 C1564 1.404 . S
C1565 H1577 0.930 . S
C1566 C1562 1.524 . S
C1566 H1578 0.956 . S
C1566 H1579 0.961 . S
C1566 H1580 0.961 . S
C1567 C1564 1.539 . S
C1567 H1581 0.958 . S
C1567 H1582 0.961 . S
C1567 H1583 0.960 . S
H1568 C1552 0.931 . S
H1569 C1557 0.929 . S
H1570 C1558 0.960 . S
H1571 C1558 0.962 . S
H1572 C1558 0.960 . S
H1573 C1559 0.961 . S
H1574 C1559 0.961 . S
H1575 C1559 0.961 . S
H1576 C1560 0.931 . S
H1577 C1565 0.930 . S
H1578 C1566 0.956 . S
H1579 C1566 0.961 . S
H1580 C1566 0.961 . S
H1581 C1567 0.958 . S
H1582 C1567 0.961 . S
H1583 C1567 0.960 . S
C1584 C1585 1.391 . S
C1584 C1586 1.394 . S
C1584 H1600 0.931 . S
C1585 C1584 1.391 . S
C1585 C1589 1.376 . S
C1586 C1584 1.394 . S
C1586 C1587 1.369 . S
C1586 C1590 1.531 . S
C1587 C1586 1.369 . S
C1587 C1588 1.410 . S
C1587 C1595 1.503 1_556 S
C1588 C1587 1.410 . S
C1588 C1589 1.392 . S
C1588 C1591 1.511 1_556 S
C1589 C1585 1.376 . S
C1589 C1588 1.392 . S
C1589 H1601 0.929 . S
C1590 C1586 1.531 . S
C1590 H1602 0.960 . S
C1590 H1603 0.962 . S
C1590 H1604 0.960 . S
C1591 C1588 1.511 1_554 S
C1591 H1605 0.961 . S
C1591 H1606 0.961 . S
C1591 H1607 0.961 . S
C1592 C1593 1.370 . S
C1592 C1594 1.363 . S
C1592 H1608 0.931 . S
C1593 C1592 1.370 . S
C1593 C1597 1.408 . S
C1594 C1592 1.363 . S
C1594 C1595 1.370 . S
C1594 C1598 1.524 . S
C1595 C1587 1.503 1_554 S
C1595 C1594 1.370 . S
C1595 C1596 1.403 1_554 S
C1596 C1595 1.403 1_556 S
C1596 C1597 1.404 1_556 S
C1596 C1599 1.539 . S
C1597 C1593 1.408 . S
C1597 C1596 1.404 1_554 S
C1597 H1609 0.930 . S
C1598 C1594 1.524 . S
C1598 H1610 0.956 . S
C1598 H1611 0.961 . S
C1598 H1612 0.961 . S
C1599 C1596 1.539 . S
C1599 H1613 0.958 . S
C1599 H1614 0.961 . S
C1599 H1615 0.960 . S
H1600 C1584 0.931 . S
H1601 C1589 0.929 . S
H1602 C1590 0.960 . S
H1603 C1590 0.962 . S
H1604 C1590 0.960 . S
H1605 C1591 0.961 . S
H1606 C1591 0.961 . S
H1607 C1591 0.961 . S
H1608 C1592 0.931 . S
H1609 C1597 0.930 . S
H1610 C1598 0.956 . S
H1611 C1598 0.961 . S
H1612 C1598 0.961 . S
H1613 C1599 0.958 . S
H1614 C1599 0.961 . S
H1615 C1599 0.960 . S
C1616 C1617 1.391 . S
C1616 C1618 1.394 . S
C1616 H1632 0.931 . S
C1617 C1616 1.391 . S
C1617 C1621 1.376 . S
C1618 C1616 1.394 . S
C1618 C1619 1.369 . S
C1618 C1622 1.531 . S
C1619 C1618 1.369 . S
C1619 C1620 1.410 . S
C1619 C1627 1.503 . S
C1620 C1619 1.410 . S
C1620 C1621 1.392 . S
C1620 C1623 1.511 . S
C1621 C1617 1.376 . S
C1621 C1620 1.392 . S
C1621 H1633 0.929 . S
C1622 C1618 1.531 . S
C1622 H1634 0.960 . S
C1622 H1635 0.962 . S
C1622 H1636 0.960 . S
C1623 C1620 1.511 . S
C1623 H1637 0.961 . S
C1623 H1638 0.961 . S
C1623 H1639 0.961 . S
C1624 C1625 1.370 . S
C1624 C1626 1.363 . S
C1624 H1640 0.931 . S
C1625 C1624 1.370 . S
C1625 C1629 1.408 . S
C1626 C1624 1.363 . S
C1626 C1627 1.370 . S
C1626 C1630 1.524 . S
C1627 C1619 1.503 . S
C1627 C1626 1.370 . S
C1627 C1628 1.403 . S
C1628 C1627 1.403 . S
C1628 C1629 1.404 . S
C1628 C1631 1.539 . S
C1629 C1625 1.408 . S
C1629 C1628 1.404 . S
C1629 H1641 0.930 . S
C1630 C1626 1.524 . S
C1630 H1642 0.956 . S
C1630 H1643 0.961 . S
C1630 H1644 0.961 . S
C1631 C1628 1.539 . S
C1631 H1645 0.958 . S
C1631 H1646 0.961 . S
C1631 H1647 0.960 . S
H1632 C1616 0.931 . S
H1633 C1621 0.929 . S
H1634 C1622 0.960 . S
H1635 C1622 0.962 . S
H1636 C1622 0.960 . S
H1637 C1623 0.961 . S
H1638 C1623 0.961 . S
H1639 C1623 0.961 . S
H1640 C1624 0.931 . S
H1641 C1629 0.930 . S
H1642 C1630 0.956 . S
H1643 C1630 0.961 . S
H1644 C1630 0.961 . S
H1645 C1631 0.958 . S
H1646 C1631 0.961 . S
H1647 C1631 0.960 . S
C1648 C1649 1.391 . S
C1648 C1650 1.394 . S
C1648 H1664 0.931 . S
C1649 C1648 1.391 . S
C1649 C1653 1.376 . S
C1650 C1648 1.394 . S
C1650 C1651 1.369 . S
C1650 C1654 1.531 . S
C1651 C1650 1.369 . S
C1651 C1652 1.410 . S
C1651 C1659 1.503 . S
C1652 C1651 1.410 . S
C1652 C1653 1.392 . S
C1652 C1655 1.511 . S
C1653 C1649 1.376 . S
C1653 C1652 1.392 . S
C1653 H1665 0.929 . S
C1654 C1650 1.531 . S
C1654 H1666 0.960 . S
C1654 H1667 0.962 . S
C1654 H1668 0.960 . S
C1655 C1652 1.511 . S
C1655 H1669 0.961 . S
C1655 H1670 0.961 . S
C1655 H1671 0.961 . S
C1656 C1657 1.370 . S
C1656 C1658 1.363 . S
C1656 H1672 0.931 . S
C1657 C1656 1.370 . S
C1657 C1661 1.408 . S
C1658 C1656 1.363 . S
C1658 C1659 1.370 . S
C1658 C1662 1.524 . S
C1659 C1651 1.503 . S
C1659 C1658 1.370 . S
C1659 C1660 1.403 . S
C1660 C1659 1.403 . S
C1660 C1661 1.404 . S
C1660 C1663 1.539 . S
C1661 C1657 1.408 . S
C1661 C1660 1.404 . S
C1661 H1673 0.930 . S
C1662 C1658 1.524 . S
C1662 H1674 0.956 . S
C1662 H1675 0.961 . S
C1662 H1676 0.961 . S
C1663 C1660 1.539 . S
C1663 H1677 0.958 . S
C1663 H1678 0.961 . S
C1663 H1679 0.960 . S
H1664 C1648 0.931 . S
H1665 C1653 0.929 . S
H1666 C1654 0.960 . S
H1667 C1654 0.962 . S
H1668 C1654 0.960 . S
H1669 C1655 0.961 . S
H1670 C1655 0.961 . S
H1671 C1655 0.961 . S
H1672 C1656 0.931 . S
H1673 C1661 0.930 . S
H1674 C1662 0.956 . S
H1675 C1662 0.961 . S
H1676 C1662 0.961 . S
H1677 C1663 0.958 . S
H1678 C1663 0.961 . S
H1679 C1663 0.960 . S
C1680 C1681 1.391 . S
C1680 C1682 1.394 . S
C1680 H1696 0.931 . S
C1681 C1680 1.391 . S
C1681 C1685 1.376 . S
C1682 C1680 1.394 . S
C1682 C1683 1.369 . S
C1682 C1686 1.531 . S
C1683 C1682 1.369 . S
C1683 C1684 1.410 . S
C1683 C1691 1.503 . S
C1684 C1683 1.410 . S
C1684 C1685 1.392 . S
C1684 C1687 1.511 . S
C1685 C1681 1.376 . S
C1685 C1684 1.392 . S
C1685 H1697 0.929 . S
C1686 C1682 1.531 . S
C1686 H1698 0.960 . S
C1686 H1699 0.962 . S
C1686 H1700 0.960 . S
C1687 C1684 1.511 . S
C1687 H1701 0.961 . S
C1687 H1702 0.961 . S
C1687 H1703 0.961 . S
C1688 C1689 1.370 . S
C1688 C1690 1.363 . S
C1688 H1704 0.931 . S
C1689 C1688 1.370 . S
C1689 C1693 1.408 . S
C1690 C1688 1.363 . S
C1690 C1691 1.370 . S
C1690 C1694 1.524 . S
C1691 C1683 1.503 . S
C1691 C1690 1.370 . S
C1691 C1692 1.403 . S
C1692 C1691 1.403 . S
C1692 C1693 1.404 . S
C1692 C1695 1.539 . S
C1693 C1689 1.408 . S
C1693 C1692 1.404 . S
C1693 H1705 0.930 . S
C1694 C1690 1.524 . S
C1694 H1706 0.956 . S
C1694 H1707 0.961 . S
C1694 H1708 0.961 . S
C1695 C1692 1.539 . S
C1695 H1709 0.958 . S
C1695 H1710 0.961 . S
C1695 H1711 0.960 . S
H1696 C1680 0.931 . S
H1697 C1685 0.929 . S
H1698 C1686 0.960 . S
H1699 C1686 0.962 . S
H1700 C1686 0.960 . S
H1701 C1687 0.961 . S
H1702 C1687 0.961 . S
H1703 C1687 0.961 . S
H1704 C1688 0.931 . S
H1705 C1693 0.930 . S
H1706 C1694 0.956 . S
H1707 C1694 0.961 . S
H1708 C1694 0.961 . S
H1709 C1695 0.958 . S
H1710 C1695 0.961 . S
H1711 C1695 0.960 . S
C1712 C1713 1.391 . S
C1712 C1714 1.394 . S
C1712 H1728 0.931 . S
C1713 C1712 1.391 . S
C1713 C1717 1.376 . S
C1714 C1712 1.394 . S
C1714 C1715 1.369 . S
C1714 C1718 1.531 . S
C1715 C1714 1.369 . S
C1715 C1716 1.410 . S
C1715 C1723 1.503 1_545 S
C1716 C1715 1.410 . S
C1716 C1717 1.392 . S
C1716 C1719 1.511 1_545 S
C1717 C1713 1.376 . S
C1717 C1716 1.392 . S
C1717 H1729 0.929 . S
C1718 C1714 1.531 . S
C1718 H1730 0.960 . S
C1718 H1731 0.962 . S
C1718 H1732 0.960 . S
C1719 C1716 1.511 1_565 S
C1719 H1733 0.961 . S
C1719 H1734 0.961 . S
C1719 H1735 0.961 . S
C1720 C1721 1.370 . S
C1720 C1722 1.363 . S
C1720 H1736 0.931 . S
C1721 C1720 1.370 . S
C1721 C1725 1.408 . S
C1722 C1720 1.363 . S
C1722 C1723 1.370 . S
C1722 C1726 1.524 . S
C1723 C1715 1.503 1_565 S
C1723 C1722 1.370 . S
C1723 C1724 1.403 . S
C1724 C1723 1.403 . S
C1724 C1725 1.404 . S
C1724 C1727 1.539 . S
C1725 C1721 1.408 . S
C1725 C1724 1.404 . S
C1725 H1737 0.930 . S
C1726 C1722 1.524 . S
C1726 H1738 0.956 1_565 S
C1726 H1739 0.961 . S
C1726 H1740 0.961 . S
C1727 C1724 1.539 . S
C1727 H1741 0.976 . S
C1727 H1742 0.961 . S
C1727 H1743 0.960 . S
H1728 C1712 0.931 . S
H1729 C1717 0.929 . S
H1730 C1718 0.960 . S
H1731 C1718 0.962 . S
H1732 C1718 0.960 . S
H1733 C1719 0.961 . S
H1734 C1719 0.961 . S
H1735 C1719 0.961 . S
H1736 C1720 0.931 . S
H1737 C1725 0.930 . S
H1738 C1726 0.956 1_545 S
H1739 C1726 0.961 . S
H1740 C1726 0.961 . S
H1741 C1727 0.976 . S
H1742 C1727 0.961 . S
H1743 C1727 0.960 . S
C1744 C1745 1.391 . S
C1744 C1746 1.394 . S
C1744 H1760 0.931 . S
C1745 C1744 1.391 . S
C1745 C1749 1.376 . S
C1746 C1744 1.394 . S
C1746 C1747 1.369 . S
C1746 C1750 1.531 . S
C1747 C1746 1.369 . S
C1747 C1748 1.410 . S
C1747 C1755 1.503 . S
C1748 C1747 1.410 . S
C1748 C1749 1.392 . S
C1748 C1751 1.511 . S
C1749 C1745 1.376 . S
C1749 C1748 1.392 . S
C1749 H1761 0.929 . S
C1750 C1746 1.531 . S
C1750 H1762 0.960 . S
C1750 H1763 0.962 . S
C1750 H1764 0.960 . S
C1751 C1748 1.511 . S
C1751 H1765 0.961 . S
C1751 H1766 0.961 . S
C1751 H1767 0.961 . S
C1752 C1753 1.370 . S
C1752 C1754 1.363 . S
C1752 H1768 0.931 . S
C1753 C1752 1.370 . S
C1753 C1757 1.408 . S
C1754 C1752 1.363 . S
C1754 C1755 1.370 . S
C1754 C1758 1.524 . S
C1755 C1747 1.503 . S
C1755 C1754 1.370 . S
C1755 C1756 1.403 . S
C1756 C1755 1.403 . S
C1756 C1757 1.404 . S
C1756 C1759 1.539 . S
C1757 C1753 1.408 . S
C1757 C1756 1.404 . S
C1757 H1769 0.930 . S
C1758 C1754 1.524 . S
C1758 H1770 0.956 . S
C1758 H1771 0.961 . S
C1758 H1772 0.961 . S
C1759 C1756 1.539 . S
C1759 H1773 0.958 . S
C1759 H1774 0.961 . S
C1759 H1775 0.960 . S
H1760 C1744 0.931 . S
H1761 C1749 0.929 . S
H1762 C1750 0.960 . S
H1763 C1750 0.962 . S
H1764 C1750 0.960 . S
H1765 C1751 0.961 . S
H1766 C1751 0.961 . S
H1767 C1751 0.961 . S
H1768 C1752 0.931 . S
H1769 C1757 0.930 . S
H1770 C1758 0.956 . S
H1771 C1758 0.961 . S
H1772 C1758 0.961 . S
H1773 C1759 0.958 . S
H1774 C1759 0.961 . S
H1775 C1759 0.960 . S
C1776 C1777 1.391 . S
C1776 C1778 1.394 . S
C1776 H1792 0.931 . S
C1777 C1776 1.391 . S
C1777 C1781 1.376 . S
C1778 C1776 1.394 . S
C1778 C1779 1.369 . S
C1778 C1782 1.531 1_545 S
C1779 C1778 1.369 . S
C1779 C1780 1.410 1_556 S
C1779 C1787 1.503 1_546 S
C1780 C1779 1.410 1_554 S
C1780 C1781 1.392 1_554 S
C1780 C1783 1.511 . S
C1781 C1777 1.376 . S
C1781 C1780 1.392 1_556 S
C1781 H1793 0.929 . S
C1782 C1778 1.531 1_565 S
C1782 H1794 0.960 . S
C1782 H1795 0.962 . S
C1782 H1796 0.960 . S
C1783 C1780 1.511 . S
C1783 H1797 0.961 . S
C1783 H1798 0.961 . S
C1783 H1799 0.961 . S
C1784 C1785 1.370 . S
C1784 C1786 1.363 . S
C1784 H1800 0.931 . S
C1785 C1784 1.370 . S
C1785 C1789 1.408 . S
C1786 C1784 1.363 . S
C1786 C1787 1.370 . S
C1786 C1790 1.525 1_565 S
C1787 C1779 1.503 1_564 S
C1787 C1786 1.370 . S
C1787 C1788 1.403 . S
C1788 C1787 1.403 . S
C1788 C1789 1.404 . S
C1788 C1791 1.539 1_554 S
C1789 C1785 1.408 . S
C1789 C1788 1.404 . S
C1789 H1801 0.930 . S
C1790 C1786 1.525 1_545 S
C1790 H1802 0.956 . S
C1790 H1803 0.959 . S
C1790 H1804 0.961 1_545 S
C1791 C1788 1.539 1_556 S
C1791 H1805 0.958 . S
C1791 H1806 0.961 . S
C1791 H1807 0.960 . S
H1792 C1776 0.931 . S
H1793 C1781 0.929 . S
H1794 C1782 0.960 . S
H1795 C1782 0.962 . S
H1796 C1782 0.960 . S
H1797 C1783 0.961 . S
H1798 C1783 0.961 . S
H1799 C1783 0.961 . S
H1800 C1784 0.931 . S
H1801 C1789 0.930 . S
H1802 C1790 0.956 . S
H1803 C1790 0.959 . S
H1804 C1790 0.961 1_565 S
H1805 C1791 0.958 . S
H1806 C1791 0.961 . S
H1807 C1791 0.960 . S
C1808 C1809 1.391 . S
C1808 C1810 1.394 . S
C1808 H1824 0.931 . S
C1809 C1808 1.391 . S
C1809 C1813 1.376 . S
C1810 C1808 1.394 . S
C1810 C1811 1.369 . S
C1810 C1814 1.531 . S
C1811 C1810 1.369 . S
C1811 C1812 1.410 . S
C1811 C1819 1.503 . S
C1812 C1811 1.410 . S
C1812 C1813 1.392 . S
C1812 C1815 1.511 . S
C1813 C1809 1.376 . S
C1813 C1812 1.392 . S
C1813 H1825 0.929 . S
C1814 C1810 1.531 . S
C1814 H1826 0.960 . S
C1814 H1827 0.962 . S
C1814 H1828 0.960 . S
C1815 C1812 1.511 . S
C1815 H1829 0.961 . S
C1815 H1830 0.961 . S
C1815 H1831 0.961 . S
C1816 C1817 1.370 . S
C1816 C1818 1.363 . S
C1816 H1832 0.931 . S
C1817 C1816 1.370 . S
C1817 C1821 1.408 . S
C1818 C1816 1.363 . S
C1818 C1819 1.370 . S
C1818 C1822 1.524 . S
C1819 C1811 1.503 . S
C1819 C1818 1.370 . S
C1819 C1820 1.403 . S
C1820 C1819 1.403 . S
C1820 C1821 1.404 . S
C1820 C1823 1.539 . S
C1821 C1817 1.408 . S
C1821 C1820 1.404 . S
C1821 H1833 0.930 . S
C1822 C1818 1.524 . S
C1822 H1834 0.956 . S
C1822 H1835 0.961 . S
C1822 H1836 0.961 . S
C1823 C1820 1.539 . S
C1823 H1837 0.958 . S
C1823 H1838 0.961 . S
C1823 H1839 0.960 . S
H1824 C1808 0.931 . S
H1825 C1813 0.929 . S
H1826 C1814 0.960 . S
H1827 C1814 0.962 . S
H1828 C1814 0.960 . S
H1829 C1815 0.961 . S
H1830 C1815 0.961 . S
H1831 C1815 0.961 . S
H1832 C1816 0.931 . S
H1833 C1821 0.930 . S
H1834 C1822 0.956 . S
H1835 C1822 0.961 . S
H1836 C1822 0.961 . S
H1837 C1823 0.958 . S
H1838 C1823 0.961 . S
H1839 C1823 0.960 . S
C1840 C1841 1.391 . S
C1840 C1842 1.394 . S
C1840 H1856 0.931 . S
C1841 C1840 1.391 . S
C1841 C1845 1.376 . S
C1842 C1840 1.394 . S
C1842 C1843 1.369 . S
C1842 C1846 1.531 . S
C1843 C1842 1.369 . S
C1843 C1844 1.410 . S
C1843 C1851 1.503 1_545 S
C1844 C1843 1.410 . S
C1844 C1845 1.392 . S
C1844 C1847 1.511 . S
C1845 C1841 1.376 . S
C1845 C1844 1.392 . S
C1845 H1857 0.929 . S
C1846 C1842 1.531 . S
C1846 H1858 0.960 1_545 S
C1846 H1859 0.962 . S
C1846 H1860 0.960 . S
C1847 C1844 1.511 . S
C1847 H1861 0.961 . S
C1847 H1862 0.961 . S
C1847 H1863 0.961 . S
C1848 C1849 1.370 . S
C1848 C1850 1.363 . S
C1848 H1864 0.931 . S
C1849 C1848 1.370 . S
C1849 C1853 1.408 . S
C1850 C1848 1.363 . S
C1850 C1851 1.370 . S
C1850 C1854 1.524 1_565 S
C1851 C1843 1.503 1_565 S
C1851 C1850 1.370 . S
C1851 C1852 1.403 . S
C1852 C1851 1.403 . S
C1852 C1853 1.404 . S
C1852 C1855 1.539 . S
C1853 C1849 1.408 . S
C1853 C1852 1.404 . S
C1853 H1865 0.930 . S
C1854 C1850 1.524 1_545 S
C1854 H1866 0.956 . S
C1854 H1867 0.961 . S
C1854 H1868 0.961 . S
C1855 C1852 1.539 . S
C1855 H1869 0.958 . S
C1855 H1870 0.961 . S
C1855 H1871 0.960 . S
H1856 C1840 0.931 . S
H1857 C1845 0.929 . S
H1858 C1846 0.960 1_565 S
H1859 C1846 0.962 . S
H1860 C1846 0.960 . S
H1861 C1847 0.961 . S
H1862 C1847 0.961 . S
H1863 C1847 0.961 . S
H1864 C1848 0.931 . S
H1865 C1853 0.930 . S
H1866 C1854 0.956 . S
H1867 C1854 0.961 . S
H1868 C1854 0.961 . S
H1869 C1855 0.958 . S
H1870 C1855 0.961 . S
H1871 C1855 0.960 . S
C1872 C1873 1.391 . S
C1872 C1874 1.394 . S
C1872 H1888 0.931 . S
C1873 C1872 1.391 . S
C1873 C1877 1.376 . S
C1874 C1872 1.394 . S
C1874 C1875 1.369 . S
C1874 C1878 1.531 . S
C1875 C1874 1.369 . S
C1875 C1876 1.410 . S
C1875 C1883 1.503 . S
C1876 C1875 1.410 . S
C1876 C1877 1.392 . S
C1876 C1879 1.511 . S
C1877 C1873 1.376 . S
C1877 C1876 1.392 . S
C1877 H1889 0.929 . S
C1878 C1874 1.531 . S
C1878 H1890 0.960 . S
C1878 H1891 0.962 . S
C1878 H1892 0.960 . S
C1879 C1876 1.511 . S
C1879 H1893 0.961 . S
C1879 H1894 0.961 . S
C1879 H1895 0.961 . S
C1880 C1881 1.370 . S
C1880 C1882 1.363 . S
C1880 H1896 0.931 . S
C1881 C1880 1.370 . S
C1881 C1885 1.408 . S
C1882 C1880 1.363 . S
C1882 C1883 1.370 . S
C1882 C1886 1.524 . S
C1883 C1875 1.503 . S
C1883 C1882 1.370 . S
C1883 C1884 1.403 . S
C1884 C1883 1.403 . S
C1884 C1885 1.404 . S
C1884 C1887 1.539 . S
C1885 C1881 1.408 . S
C1885 C1884 1.404 . S
C1885 H1897 0.930 . S
C1886 C1882 1.524 . S
C1886 H1898 0.956 . S
C1886 H1899 0.961 . S
C1886 H1900 0.961 . S
C1887 C1884 1.539 . S
C1887 H1901 0.958 . S
C1887 H1902 0.961 . S
C1887 H1903 0.960 . S
H1888 C1872 0.931 . S
H1889 C1877 0.929 . S
H1890 C1878 0.960 . S
H1891 C1878 0.962 . S
H1892 C1878 0.960 . S
H1893 C1879 0.961 . S
H1894 C1879 0.961 . S
H1895 C1879 0.961 . S
H1896 C1880 0.931 . S
H1897 C1885 0.930 . S
H1898 C1886 0.956 . S
H1899 C1886 0.961 . S
H1900 C1886 0.961 . S
H1901 C1887 0.958 . S
H1902 C1887 0.961 . S
H1903 C1887 0.960 . S
C1904 C1905 1.391 . S
C1904 C1906 1.394 . S
C1904 H1920 0.931 . S
C1905 C1904 1.391 . S
C1905 C1909 1.376 . S
C1906 C1904 1.394 . S
C1906 C1907 1.369 . S
C1906 C1910 1.531 1_565 S
C1907 C1906 1.369 . S
C1907 C1908 1.410 1_554 S
C1907 C1915 1.503 1_564 S
C1908 C1907 1.410 1_556 S
C1908 C1909 1.392 1_556 S
C1908 C1911 1.511 . S
C1909 C1905 1.376 . S
C1909 C1908 1.392 1_554 S
C1909 H1921 0.929 . S
C1910 C1906 1.531 1_545 S
C1910 H1922 0.960 . S
C1910 H1923 0.962 . S
C1910 H1924 0.960 . S
C1911 C1908 1.511 . S
C1911 H1925 0.961 . S
C1911 H1926 0.961 . S
C1911 H1927 0.961 . S
C1912 C1913 1.370 . S
C1912 C1914 1.363 . S
C1912 H1928 0.931 . S
C1913 C1912 1.370 . S
C1913 C1917 1.408 . S
C1914 C1912 1.363 . S
C1914 C1915 1.370 . S
C1914 C1918 1.518 1_545 S
C1915 C1907 1.503 1_546 S
C1915 C1914 1.370 . S
C1915 C1916 1.403 . S
C1916 C1915 1.403 . S
C1916 C1917 1.404 . S
C1916 C1919 1.539 1_556 S
C1917 C1913 1.408 . S
C1917 C1916 1.404 . S
C1917 H1929 0.930 . S
C1918 C1914 1.518 1_565 S
C1918 H1930 0.957 . S
C1918 H1931 0.970 . S
C1918 H1932 0.958 1_565 S
C1919 C1916 1.539 1_554 S
C1919 H1933 0.958 . S
C1919 H1934 0.961 . S
C1919 H1935 0.960 . S
H1920 C1904 0.931 . S
H1921 C1909 0.929 . S
H1922 C1910 0.960 . S
H1923 C1910 0.962 . S
H1924 C1910 0.960 . S
H1925 C1911 0.961 . S
H1926 C1911 0.961 . S
H1927 C1911 0.961 . S
H1928 C1912 0.931 . S
H1929 C1917 0.930 . S
H1930 C1918 0.957 . S
H1931 C1918 0.970 . S
H1932 C1918 0.958 1_545 S
H1933 C1919 0.958 . S
H1934 C1919 0.961 . S
H1935 C1919 0.960 . S
C1936 C1937 1.391 . S
C1936 C1938 1.394 . S
C1936 H1952 0.931 . S
C1937 C1936 1.391 . S
C1937 C1941 1.376 . S
C1938 C1936 1.394 . S
C1938 C1939 1.369 . S
C1938 C1942 1.531 . S
C1939 C1938 1.369 . S
C1939 C1940 1.410 . S
C1939 C1947 1.503 . S
C1940 C1939 1.410 . S
C1940 C1941 1.392 . S
C1940 C1943 1.511 . S
C1941 C1937 1.376 . S
C1941 C1940 1.392 . S
C1941 H1953 0.929 . S
C1942 C1938 1.531 . S
C1942 H1954 0.960 . S
C1942 H1955 0.962 . S
C1942 H1956 0.960 . S
C1943 C1940 1.511 . S
C1943 H1957 0.961 . S
C1943 H1958 0.961 . S
C1943 H1959 0.961 . S
C1944 C1945 1.370 . S
C1944 C1946 1.363 . S
C1944 H1960 0.931 . S
C1945 C1944 1.370 . S
C1945 C1949 1.408 . S
C1946 C1944 1.363 . S
C1946 C1947 1.370 . S
C1946 C1950 1.524 . S
C1947 C1939 1.503 . S
C1947 C1946 1.370 . S
C1947 C1948 1.403 . S
C1948 C1947 1.403 . S
C1948 C1949 1.404 . S
C1948 C1951 1.539 . S
C1949 C1945 1.408 . S
C1949 C1948 1.404 . S
C1949 H1961 0.930 . S
C1950 C1946 1.524 . S
C1950 H1962 0.956 . S
C1950 H1963 0.961 . S
C1950 H1964 0.961 . S
C1951 C1948 1.539 . S
C1951 H1965 0.958 . S
C1951 H1966 0.961 . S
C1951 H1967 0.960 . S
H1952 C1936 0.931 . S
H1953 C1941 0.929 . S
H1954 C1942 0.960 . S
H1955 C1942 0.962 . S
H1956 C1942 0.960 . S
H1957 C1943 0.961 . S
H1958 C1943 0.961 . S
H1959 C1943 0.961 . S
H1960 C1944 0.931 . S
H1961 C1949 0.930 . S
H1962 C1950 0.956 . S
H1963 C1950 0.961 . S
H1964 C1950 0.961 . S
H1965 C1951 0.958 . S
H1966 C1951 0.961 . S
H1967 C1951 0.960 . S
C945 C701 1.416 . S
C953 C33 1.418 . S
C977 C937 1.415 . S
C985 C111 1.414 . S
C1009 C170 1.418 . S
C1017 C564 1.416 . S
C1041 C819 1.405 . S
C1049 C210 1.414 . S
C1073 C269 1.404 . S
C1081 C800 1.411 . S
C1105 C347 1.403 . S
C1113 C682 1.413 . S
C1137 C406 1.416 . S
C1145 C918 1.413 . S
C1169 C446 1.400 . S
C1177 C583 1.409 . S
C1201 C229 1.402 . S
C1209 C505 1.411 . S
C1233 C642 1.413 . S
C1241 C92 1.414 . S
C1265 C741 1.413 . S
C1273 C328 1.414 . S
C1297 C878 1.406 . S
C1305 C465 1.410 . S
C1329 C288 1.415 . S
C1337 C524 1.415 . S
C1361 C623 1.414 . S
C1369 C387 1.415 . S
C1393 C859 1.408 . S
C1401 C151 1.411 . S
C1425 C52 1.416 . S
C1433 C760 1.416 . S
C1457 C3 1.370 . S
C1465 C239 1.385 . S
C1489 C64 1.390 . S
C1497 C300 1.400 . S
C1521 C123 1.400 . S
C1529 C359 1.398 . S
C1553 C416 1.379 . S
C1561 C180 1.388 . S
C1585 C475 1.396 . S
C1593 C711 1.399 . S
C1617 C772 1.407 . S
C1625 C536 1.401 . S
C1649 C595 1.396 . S
C1657 C831 1.396 . S
C1681 C890 1.391 . S
C1689 C652 1.384 . S
C1713 C418 1.404 . S
C1721 C62 1.395 . S
C1745 C121 1.411 . S
C1753 C241 1.410 . S
C1777 C182 1.388 . S
C1785 C298 1.386 . S
C1809 C5 1.409 . S
C1817 C357 1.398 . S
C1841 C534 1.391 . S
C1849 C888 1.398 . S
C1873 C713 1.391 . S
C1881 C593 1.389 . S
C1905 C654 1.404 . S
C1913 C770 1.400 . S
C1937 C829 1.367 . S
C1945 C477 1.393 . S
