# Generated by pormake.
# Topology uot, (4)-cn, num edge types: 1
# Building blocks:
#     Node 0, Type 0, BuildingBlock: UXUYUI_clean_sbu_0, # of connection points: 4
#     Node 1, Type 0, BuildingBlock: UXUYUI_clean_sbu_0, # of connection points: 4
#     Node 2, Type 0, BuildingBlock: UXUYUI_clean_sbu_0, # of connection points: 4
#     Node 3, Type 0, BuildingBlock: UXUYUI_clean_sbu_0, # of connection points: 4
#     Node 4, Type 0, BuildingBlock: UXUYUI_clean_sbu_0, # of connection points: 4
#     Node 5, Type 0, BuildingBlock: UXUYUI_clean_sbu_0, # of connection points: 4
#     Node 6, Type 0, BuildingBlock: UXUYUI_clean_sbu_0, # of connection points: 4
#     Node 7, Type 0, BuildingBlock: UXUYUI_clean_sbu_0, # of connection points: 4
#     Node 8, Type 0, BuildingBlock: UXUYUI_clean_sbu_0, # of connection points: 4
#     Node 9, Type 0, BuildingBlock: UXUYUI_clean_sbu_0, # of connection points: 4
#     Node 10, Type 0, BuildingBlock: UXUYUI_clean_sbu_0, # of connection points: 4
#     Node 11, Type 0, BuildingBlock: UXUYUI_clean_sbu_0, # of connection points: 4
#     Node 12, Type 0, BuildingBlock: UXUYUI_clean_sbu_0, # of connection points: 4
#     Node 13, Type 0, BuildingBlock: UXUYUI_clean_sbu_0, # of connection points: 4
#     Node 14, Type 0, BuildingBlock: UXUYUI_clean_sbu_0, # of connection points: 4
#     Node 15, Type 0, BuildingBlock: UXUYUI_clean_sbu_0, # of connection points: 4
#     Edge 16, Type (0, 0), BuildingBlock: TEMPAE_clean_linker_10, # of connection points: 2
#     Edge 17, Type (0, 0), BuildingBlock: TEMPAE_clean_linker_10, # of connection points: 2
#     Edge 18, Type (0, 0), BuildingBlock: TEMPAE_clean_linker_10, # of connection points: 2
#     Edge 19, Type (0, 0), BuildingBlock: TEMPAE_clean_linker_10, # of connection points: 2
#     Edge 20, Type (0, 0), BuildingBlock: TEMPAE_clean_linker_10, # of connection points: 2
#     Edge 21, Type (0, 0), BuildingBlock: TEMPAE_clean_linker_10, # of connection points: 2
#     Edge 22, Type (0, 0), BuildingBlock: TEMPAE_clean_linker_10, # of connection points: 2
#     Edge 23, Type (0, 0), BuildingBlock: TEMPAE_clean_linker_10, # of connection points: 2
#     Edge 24, Type (0, 0), BuildingBlock: TEMPAE_clean_linker_10, # of connection points: 2
#     Edge 25, Type (0, 0), BuildingBlock: TEMPAE_clean_linker_10, # of connection points: 2
#     Edge 26, Type (0, 0), BuildingBlock: TEMPAE_clean_linker_10, # of connection points: 2
#     Edge 27, Type (0, 0), BuildingBlock: TEMPAE_clean_linker_10, # of connection points: 2
#     Edge 28, Type (0, 0), BuildingBlock: TEMPAE_clean_linker_10, # of connection points: 2
#     Edge 29, Type (0, 0), BuildingBlock: TEMPAE_clean_linker_10, # of connection points: 2
#     Edge 30, Type (0, 0), BuildingBlock: TEMPAE_clean_linker_10, # of connection points: 2
#     Edge 31, Type (0, 0), BuildingBlock: TEMPAE_clean_linker_10, # of connection points: 2
#     Edge 32, Type (0, 0), BuildingBlock: TEMPAE_clean_linker_10, # of connection points: 2
#     Edge 33, Type (0, 0), BuildingBlock: TEMPAE_clean_linker_10, # of connection points: 2
#     Edge 34, Type (0, 0), BuildingBlock: TEMPAE_clean_linker_10, # of connection points: 2
#     Edge 35, Type (0, 0), BuildingBlock: TEMPAE_clean_linker_10, # of connection points: 2
#     Edge 36, Type (0, 0), BuildingBlock: TEMPAE_clean_linker_10, # of connection points: 2
#     Edge 37, Type (0, 0), BuildingBlock: TEMPAE_clean_linker_10, # of connection points: 2
#     Edge 38, Type (0, 0), BuildingBlock: TEMPAE_clean_linker_10, # of connection points: 2
#     Edge 39, Type (0, 0), BuildingBlock: TEMPAE_clean_linker_10, # of connection points: 2
#     Edge 40, Type (0, 0), BuildingBlock: TEMPAE_clean_linker_10, # of connection points: 2
#     Edge 41, Type (0, 0), BuildingBlock: TEMPAE_clean_linker_10, # of connection points: 2
#     Edge 42, Type (0, 0), BuildingBlock: TEMPAE_clean_linker_10, # of connection points: 2
#     Edge 43, Type (0, 0), BuildingBlock: TEMPAE_clean_linker_10, # of connection points: 2
#     Edge 44, Type (0, 0), BuildingBlock: TEMPAE_clean_linker_10, # of connection points: 2
#     Edge 45, Type (0, 0), BuildingBlock: TEMPAE_clean_linker_10, # of connection points: 2
#     Edge 46, Type (0, 0), BuildingBlock: TEMPAE_clean_linker_10, # of connection points: 2
#     Edge 47, Type (0, 0), BuildingBlock: TEMPAE_clean_linker_10, # of connection points: 2
# Relax obj value: 0.272
# Max RMSD: 0.247
# Mean RMSD: 0.247
data_MOF--net-uot--node1-UXUYUI_clean_sbu_0--edge1-TEMPAE_clean_linker_10
_symmetry_space_group_name_H-M    P1
_symmetry_Int_Tables_number       1
_symmetry_cell_setting            triclinic
loop_
_symmetry_equiv_pos_as_xyz
'x, y, z'
_cell_length_a     63.940645
_cell_length_b     63.725907
_cell_length_c     59.531452
_cell_angle_alpha  89.989816
_cell_angle_beta   89.991852
_cell_angle_gamma 90.015357
loop_
_atom_site_label
_atom_site_type_symbol
_atom_site_fract_x
_atom_site_fract_y
_atom_site_fract_z
_atom_type_partial_charge
Li0 Li 0.21715 0.47356 0.30338 0.0
Li1 Li 0.21967 0.4577 0.34187 0.0
Li2 Li 0.24045 0.44423 0.30854 0.0
Li3 Li 0.20387 0.4387 0.31071 0.0
C4 C 0.24984 0.49197 0.32427 0.0
N5 N 0.26507 0.53255 0.32508 0.0
C6 C 0.24333 0.50593 0.34097 0.0
C7 C 0.26436 0.49856 0.3082 0.0
C8 C 0.25113 0.52641 0.34103 0.0
C9 C 0.27181 0.51916 0.30883 0.0
C10 C 0.17361 0.46477 0.32214 0.0
C11 C 0.1393 0.45658 0.33648 0.0
N12 N 0.13089 0.46162 0.3162 0.0
C13 C 0.16464 0.46991 0.30145 0.0
C14 C 0.16088 0.45807 0.33982 0.0
C15 C 0.143 0.4682 0.29878 0.0
C16 C 0.21015 0.50155 0.26653 0.0
N17 N 0.21085 0.49956 0.28926 0.0
C18 C 0.1966 0.53392 0.29399 0.0
C19 C 0.20433 0.51528 0.30299 0.0
C20 C 0.19519 0.53628 0.27058 0.0
C21 C 0.20247 0.51995 0.25678 0.0
H22 H 0.21457 0.48854 0.25594 0.0
H23 H 0.2043 0.51298 0.32098 0.0
C24 C 0.23507 0.45616 0.38626 0.0
N25 N 0.21945 0.46355 0.37296 0.0
C26 C 0.2352 0.46074 0.40921 0.0
C27 C 0.20323 0.48047 0.4042 0.0
C28 C 0.20375 0.47555 0.38138 0.0
C29 C 0.21911 0.47305 0.41843 0.0
H30 H 0.24739 0.44671 0.379 0.0
H31 H 0.19177 0.48154 0.37028 0.0
C32 C 0.23149 0.44443 0.26551 0.0
N33 N 0.25637 0.43595 0.22862 0.0
C34 C 0.22891 0.42572 0.25355 0.0
C35 C 0.24668 0.45883 0.25863 0.0
C36 C 0.24165 0.42172 0.23496 0.0
C37 C 0.25911 0.45426 0.23997 0.0
C38 C 0.21849 0.40915 0.33906 0.0
C39 C 0.21848 0.39232 0.32401 0.0
C40 C 0.21157 0.40608 0.3611 0.0
C41 C 0.21136 0.37271 0.3312 0.0
C42 C 0.20462 0.38622 0.36766 0.0
N43 N 0.20464 0.37009 0.3527 0.0
C44 C 0.28483 0.44038 0.30794 0.0
C45 C 0.26615 0.41257 0.29077 0.0
C46 C 0.30375 0.42973 0.30478 0.0
N47 N 0.26653 0.43154 0.30115 0.0
C48 C 0.2846 0.40153 0.28708 0.0
C49 C 0.3037 0.40982 0.29462 0.0
H50 H 0.28467 0.45531 0.31656 0.0
H51 H 0.25145 0.4057 0.28585 0.0
C52 C 0.17592 0.4181 0.28174 0.0
N53 N 0.18116 0.4202 0.30374 0.0
C54 C 0.15958 0.40488 0.2754 0.0
C55 C 0.15374 0.39676 0.31456 0.0
C56 C 0.17018 0.4102 0.32014 0.0
C57 C 0.14833 0.39389 0.29191 0.0
H58 H 0.1843 0.42688 0.26911 0.0
H59 H 0.17404 0.41278 0.33757 0.0
O60 O 0.24224 0.4719 0.32384 0.0
O61 O 0.19482 0.46578 0.32486 0.0
O62 O 0.21938 0.44855 0.28397 0.0
O63 O 0.22539 0.42849 0.33239 0.0
H64 H 0.23217 0.5011 0.3536 0.0
H65 H 0.26994 0.48786 0.29544 0.0
H66 H 0.24608 0.53742 0.35375 0.0
H67 H 0.28299 0.52449 0.29644 0.0
H68 H 0.12926 0.45131 0.34997 0.0
H69 H 0.1743 0.47488 0.28751 0.0
H70 H 0.16761 0.45376 0.35585 0.0
H71 H 0.13584 0.47202 0.28283 0.0
H72 H 0.19124 0.54613 0.30525 0.0
H73 H 0.20126 0.52094 0.23866 0.0
H74 H 0.24765 0.45459 0.41964 0.0
H75 H 0.19074 0.49031 0.41055 0.0
H76 H 0.2175 0.41418 0.25879 0.0
H77 H 0.24883 0.47339 0.26762 0.0
H78 H 0.23991 0.40725 0.22566 0.0
H79 H 0.27095 0.46527 0.23452 0.0
H80 H 0.22343 0.39446 0.30682 0.0
H81 H 0.21142 0.41892 0.37297 0.0
H82 H 0.21109 0.3596 0.31967 0.0
H83 H 0.19915 0.38364 0.38464 0.0
H84 H 0.31808 0.4366 0.3111 0.0
H85 H 0.28384 0.38639 0.27885 0.0
H86 H 0.15591 0.40315 0.25774 0.0
H87 H 0.14514 0.38898 0.32784 0.0
Li88 Li 0.43856 0.79319 0.69092 0.0
Li89 Li 0.474 0.78195 0.70021 0.0
Li90 Li 0.46026 0.7781 0.66209 0.0
Li91 Li 0.44801 0.756 0.69268 0.0
C92 C 0.47488 0.81623 0.66357 0.0
N93 N 0.4951 0.83874 0.63036 0.0
C94 C 0.4967 0.81754 0.66342 0.0
C95 C 0.46334 0.82644 0.64688 0.0
C96 C 0.50663 0.82901 0.64649 0.0
C97 C 0.47386 0.83769 0.63021 0.0
C98 C 0.45388 0.78141 0.7385 0.0
C99 C 0.47325 0.7731 0.77209 0.0
N100 N 0.46794 0.79207 0.78086 0.0
C101 C 0.44852 0.80078 0.74787 0.0
C102 C 0.46625 0.76739 0.75072 0.0
C103 C 0.45581 0.80589 0.76931 0.0
C104 C 0.39974 0.80815 0.70788 0.0
N105 N 0.41798 0.81372 0.69775 0.0
C106 C 0.40862 0.84994 0.69922 0.0
C107 C 0.42263 0.83411 0.69336 0.0
C108 C 0.38964 0.84468 0.70964 0.0
C109 C 0.38511 0.82348 0.71376 0.0
H110 H 0.39671 0.79185 0.71172 0.0
H111 H 0.43742 0.83814 0.68573 0.0
C112 C 0.51473 0.77757 0.71977 0.0
N113 N 0.49773 0.79012 0.71719 0.0
C114 C 0.53239 0.78501 0.73112 0.0
C115 C 0.51443 0.81794 0.73714 0.0
C116 C 0.49725 0.80992 0.72561 0.0
C117 C 0.5324 0.80552 0.73983 0.0
H118 H 0.51476 0.76198 0.71262 0.0
H119 H 0.48363 0.81966 0.72288 0.0
C120 C 0.41046 0.77412 0.66606 0.0
N121 N 0.36829 0.78219 0.66069 0.0
C122 C 0.39559 0.76105 0.67612 0.0
C123 C 0.40387 0.79126 0.65323 0.0
C124 C 0.37435 0.76539 0.67318 0.0
C125 C 0.38249 0.7951 0.65074 0.0
C126 C 0.48173 0.73711 0.67796 0.0
C127 C 0.48043 0.72724 0.65704 0.0
C128 C 0.48738 0.72546 0.69691 0.0
C129 C 0.48467 0.70579 0.65546 0.0
C130 C 0.49146 0.70403 0.69463 0.0
N131 N 0.49002 0.69472 0.67413 0.0
C132 C 0.48773 0.77831 0.62505 0.0
C133 C 0.45177 0.77999 0.61552 0.0
C134 C 0.49335 0.77928 0.60242 0.0
N135 N 0.46724 0.77884 0.6311 0.0
C136 C 0.45667 0.78103 0.59272 0.0
C137 C 0.4777 0.78073 0.58592 0.0
H138 H 0.49969 0.77724 0.63785 0.0
H139 H 0.43561 0.78004 0.62078 0.0
C140 C 0.43347 0.7227 0.72063 0.0
N141 N 0.43759 0.72883 0.69921 0.0
C142 C 0.42369 0.70346 0.7247 0.0
C143 C 0.4232 0.69707 0.68466 0.0
C144 C 0.43284 0.71643 0.68137 0.0
C145 C 0.41816 0.69052 0.70653 0.0
H146 H 0.43715 0.73303 0.73447 0.0
H147 H 0.43587 0.72197 0.66451 0.0
O148 O 0.46487 0.80465 0.67966 0.0
O149 O 0.44728 0.77629 0.71735 0.0
O150 O 0.43135 0.77024 0.66888 0.0
O151 O 0.47729 0.75801 0.67993 0.0
H152 H 0.5059 0.80959 0.67607 0.0
H153 H 0.44645 0.82544 0.64664 0.0
H154 H 0.52351 0.83008 0.64611 0.0
H155 H 0.46513 0.84555 0.61711 0.0
H156 H 0.48296 0.76247 0.78168 0.0
H157 H 0.43902 0.81185 0.73863 0.0
H158 H 0.4706 0.75237 0.74367 0.0
H159 H 0.45188 0.82087 0.77673 0.0
H160 H 0.41262 0.86614 0.69578 0.0
H161 H 0.37075 0.81888 0.72206 0.0
H162 H 0.54593 0.77495 0.73287 0.0
H163 H 0.51392 0.83396 0.74316 0.0
H164 H 0.40035 0.74781 0.68624 0.0
H165 H 0.41514 0.8017 0.64557 0.0
H166 H 0.36268 0.75545 0.68092 0.0
H167 H 0.37718 0.80839 0.64099 0.0
H168 H 0.47598 0.736 0.64222 0.0
H169 H 0.48837 0.73284 0.71323 0.0
H170 H 0.48362 0.69792 0.6394 0.0
H171 H 0.49572 0.69479 0.70917 0.0
H172 H 0.50976 0.77915 0.59789 0.0
H173 H 0.44412 0.78177 0.58052 0.0
H174 H 0.42007 0.69895 0.74181 0.0
H175 H 0.41881 0.68782 0.67014 0.0
Li176 Li 0.75573 0.54964 0.3128 0.0
Li177 Li 0.79203 0.55766 0.31273 0.0
Li178 Li 0.78224 0.52176 0.30684 0.0
Li179 Li 0.77778 0.53912 0.34345 0.0
C180 C 0.76612 0.5394 0.26826 0.0
N181 N 0.74643 0.52542 0.22975 0.0
C182 C 0.77156 0.54775 0.24735 0.0
C183 C 0.75068 0.5239 0.26958 0.0
C184 C 0.76141 0.54049 0.22808 0.0
C185 C 0.74091 0.51705 0.24991 0.0
C186 C 0.76578 0.58832 0.32997 0.0
C187 C 0.75505 0.62252 0.34291 0.0
N188 N 0.75477 0.62947 0.32131 0.0
C189 C 0.76539 0.5958 0.30788 0.0
C190 C 0.76056 0.60177 0.34763 0.0
C191 C 0.75978 0.61665 0.30386 0.0
C192 C 0.71543 0.56246 0.32374 0.0
N193 N 0.7287 0.56047 0.30604 0.0
C194 C 0.70491 0.57887 0.28216 0.0
C195 C 0.72379 0.56835 0.28547 0.0
C196 C 0.6911 0.58159 0.30027 0.0
C197 C 0.6964 0.5729 0.3212 0.0
H198 H 0.72012 0.55682 0.34011 0.0
H199 H 0.73485 0.56739 0.27183 0.0
C200 C 0.82093 0.57515 0.28294 0.0
N201 N 0.81249 0.57766 0.30369 0.0
C202 C 0.83677 0.5885 0.27555 0.0
C203 C 0.83488 0.60689 0.31102 0.0
C204 C 0.81893 0.59324 0.31766 0.0
C205 C 0.84415 0.60451 0.28975 0.0
H206 H 0.81553 0.56254 0.27226 0.0
H207 H 0.81202 0.59476 0.33417 0.0
C208 C 0.75104 0.5078 0.34309 0.0
N209 N 0.73986 0.48142 0.37793 0.0
C210 C 0.76546 0.49337 0.35166 0.0
C211 C 0.73088 0.50866 0.35209 0.0
C212 C 0.75952 0.48022 0.36932 0.0
C213 C 0.72554 0.49522 0.36974 0.0
C214 C 0.82409 0.53853 0.33008 0.0
C215 C 0.8392 0.53254 0.31438 0.0
C216 C 0.82968 0.55165 0.34792 0.0
C217 C 0.85965 0.53995 0.31667 0.0
C218 C 0.85032 0.55868 0.34965 0.0
N219 N 0.86474 0.55276 0.33411 0.0
C220 C 0.80372 0.49913 0.2744 0.0
C221 C 0.78041 0.47809 0.29567 0.0
C222 C 0.81073 0.48159 0.2626 0.0
N223 N 0.78918 0.497 0.29088 0.0
C224 C 0.78705 0.46008 0.28436 0.0
C225 C 0.80263 0.46169 0.26781 0.0
H226 H 0.81012 0.51446 0.2707 0.0
H227 H 0.76844 0.47691 0.3084 0.0
C228 C 0.76108 0.54094 0.38713 0.0
N229 N 0.77802 0.53477 0.37503 0.0
C230 C 0.75995 0.53659 0.41009 0.0
C231 C 0.79401 0.52022 0.40776 0.0
C232 C 0.79435 0.5246 0.3848 0.0
C233 C 0.77656 0.52608 0.42062 0.0
H234 H 0.74827 0.54885 0.37881 0.0
H235 H 0.80741 0.51948 0.37467 0.0
O236 O 0.77616 0.54631 0.28718 0.0
O237 O 0.77089 0.56789 0.33446 0.0
O238 O 0.75681 0.52128 0.32629 0.0
O239 O 0.80384 0.53193 0.3278 0.0
H240 H 0.78349 0.55974 0.24604 0.0
H241 H 0.74622 0.51719 0.28553 0.0
H242 H 0.76546 0.54684 0.21179 0.0
H243 H 0.72893 0.50508 0.25068 0.0
H244 H 0.75095 0.6331 0.35642 0.0
H245 H 0.7693 0.58567 0.29395 0.0
H246 H 0.76071 0.59619 0.36481 0.0
H247 H 0.75938 0.62262 0.28685 0.0
H248 H 0.70144 0.58535 0.26576 0.0
H249 H 0.68647 0.57508 0.33575 0.0
H250 H 0.84317 0.58628 0.25888 0.0
H251 H 0.84023 0.61881 0.32264 0.0
H252 H 0.78121 0.49265 0.34502 0.0
H253 H 0.71947 0.51958 0.34556 0.0
H254 H 0.77059 0.46913 0.37625 0.0
H255 H 0.71001 0.49578 0.37693 0.0
H256 H 0.83516 0.5224 0.3005 0.0
H257 H 0.81812 0.55668 0.36005 0.0
H258 H 0.87148 0.53553 0.30457 0.0
H259 H 0.85483 0.56897 0.36327 0.0
H260 H 0.82287 0.48351 0.25007 0.0
H261 H 0.78021 0.44505 0.28862 0.0
H262 H 0.74627 0.54139 0.41951 0.0
H263 H 0.80698 0.51184 0.41527 0.0
Li264 Li 0.55393 0.2034 0.68817 0.0
Li265 Li 0.51889 0.2186 0.6985 0.0
Li266 Li 0.53287 0.22211 0.65969 0.0
Li267 Li 0.54842 0.24031 0.69014 0.0
C268 C 0.51742 0.17687 0.67358 0.0
N269 N 0.50003 0.13743 0.66839 0.0
C270 C 0.50928 0.16618 0.69213 0.0
C271 C 0.51662 0.1675 0.65235 0.0
C272 C 0.50058 0.14626 0.68918 0.0
C273 C 0.5078 0.14756 0.65008 0.0
C274 C 0.55424 0.23094 0.73196 0.0
C275 C 0.55125 0.25747 0.76063 0.0
N276 N 0.57204 0.25551 0.76502 0.0
C277 C 0.57554 0.22908 0.73682 0.0
C278 C 0.54194 0.24515 0.744 0.0
C279 C 0.58426 0.24169 0.75358 0.0
C280 C 0.5939 0.18527 0.69198 0.0
N281 N 0.57311 0.18124 0.69409 0.0
C282 C 0.58024 0.14641 0.70677 0.0
C283 C 0.5661 0.1623 0.70138 0.0
C284 C 0.60183 0.1501 0.70477 0.0
C285 C 0.60861 0.16982 0.69714 0.0
H286 H 0.59909 0.20062 0.68659 0.0
H287 H 0.54958 0.15964 0.70354 0.0
C288 C 0.47554 0.2145 0.70548 0.0
N289 N 0.49458 0.21312 0.7155 0.0
C290 C 0.45771 0.20724 0.71662 0.0
C291 C 0.47946 0.19788 0.74833 0.0
C292 C 0.4968 0.20553 0.7367 0.0
C293 C 0.4597 0.19828 0.73807 0.0
H294 H 0.47436 0.22037 0.68847 0.0
H295 H 0.51221 0.2044 0.74409 0.0
C296 C 0.57502 0.21587 0.6496 0.0
N297 N 0.5985 0.19781 0.61576 0.0
C298 C 0.59188 0.22676 0.64024 0.0
C299 C 0.57016 0.19577 0.6418 0.0
C300 C 0.60354 0.21737 0.62312 0.0
C301 C 0.5822 0.18691 0.62468 0.0
C302 C 0.51712 0.26189 0.66663 0.0
C303 C 0.53364 0.26914 0.65332 0.0
C304 C 0.49829 0.27298 0.66707 0.0
C305 C 0.53101 0.2874 0.64066 0.0
C306 C 0.49627 0.29119 0.65416 0.0
N307 N 0.51253 0.29796 0.64133 0.0
C308 C 0.5053 0.21526 0.62358 0.0
C309 C 0.53749 0.2309 0.61312 0.0
C310 C 0.49862 0.21522 0.60124 0.0
N311 N 0.52454 0.22278 0.62901 0.0
C312 C 0.5315 0.23108 0.59061 0.0
C313 C 0.51185 0.22311 0.58437 0.0
H314 H 0.49519 0.20923 0.63665 0.0
H315 H 0.55249 0.23727 0.61785 0.0
C316 C 0.58392 0.26453 0.69523 0.0
N317 N 0.56284 0.26537 0.69778 0.0
C318 C 0.59607 0.28232 0.69886 0.0
C319 C 0.56463 0.30154 0.7082 0.0
C320 C 0.55304 0.28326 0.70445 0.0
C321 C 0.58642 0.30126 0.70501 0.0
H322 H 0.59126 0.25 0.69012 0.0
H323 H 0.53622 0.28343 0.70639 0.0
O324 O 0.52561 0.1966 0.67604 0.0
O325 O 0.54554 0.21919 0.7152 0.0
O326 O 0.56346 0.225 0.66629 0.0
O327 O 0.51921 0.24401 0.67916 0.0
H328 H 0.50995 0.17302 0.70871 0.0
H329 H 0.52272 0.17553 0.63774 0.0
H330 H 0.49431 0.1378 0.70342 0.0
H331 H 0.5071 0.14013 0.63376 0.0
H332 H 0.54197 0.26864 0.77 0.0
H333 H 0.58525 0.21819 0.72758 0.0
H334 H 0.52544 0.24682 0.74032 0.0
H335 H 0.60075 0.24053 0.75744 0.0
H336 H 0.57432 0.13161 0.71307 0.0
H337 H 0.62509 0.17332 0.69527 0.0
H338 H 0.44275 0.20759 0.70809 0.0
H339 H 0.48155 0.19114 0.76488 0.0
H340 H 0.59583 0.24235 0.64608 0.0
H341 H 0.55735 0.18703 0.64899 0.0
H342 H 0.61659 0.22565 0.61569 0.0
H343 H 0.5786 0.17136 0.61851 0.0
H344 H 0.54836 0.26084 0.65278 0.0
H345 H 0.48535 0.26755 0.67727 0.0
H346 H 0.54366 0.29319 0.6303 0.0
H347 H 0.48177 0.29992 0.65434 0.0
H348 H 0.4832 0.20926 0.59727 0.0
H349 H 0.54231 0.23715 0.57819 0.0
H350 H 0.61285 0.28129 0.69669 0.0
H351 H 0.55659 0.31585 0.71285 0.0
Li352 Li 0.2069 0.55796 0.6863 0.0
Li353 Li 0.24349 0.54737 0.68721 0.0
Li354 Li 0.22141 0.5354 0.65718 0.0
Li355 Li 0.21702 0.52225 0.69585 0.0
C356 C 0.23492 0.5854 0.6659 0.0
N357 N 0.24729 0.62678 0.67013 0.0
C358 C 0.23658 0.59459 0.68716 0.0
C359 C 0.23955 0.59729 0.64681 0.0
C360 C 0.24286 0.61552 0.68894 0.0
C361 C 0.24577 0.61818 0.64929 0.0
C362 C 0.2257 0.54319 0.73455 0.0
C363 C 0.24144 0.52184 0.76341 0.0
N364 N 0.2296 0.53176 0.77913 0.0
C365 C 0.21379 0.55328 0.751 0.0
C366 C 0.23973 0.52744 0.7408 0.0
C367 C 0.21595 0.54725 0.77345 0.0
C368 C 0.17331 0.5736 0.71017 0.0
N369 N 0.18616 0.5784 0.69276 0.0
C370 C 0.16753 0.61031 0.68602 0.0
C371 C 0.18347 0.59621 0.68049 0.0
C372 C 0.15418 0.60588 0.70417 0.0
C373 C 0.15726 0.58722 0.71631 0.0
H374 H 0.17552 0.55905 0.71922 0.0
H375 H 0.19348 0.59938 0.66627 0.0
C376 C 0.28215 0.56341 0.67457 0.0
N377 N 0.27091 0.55773 0.69296 0.0
C378 C 0.30093 0.57425 0.67697 0.0
C379 C 0.29657 0.57283 0.71728 0.0
C380 C 0.27783 0.56195 0.71409 0.0
C381 C 0.30809 0.57958 0.69852 0.0
H382 H 0.276 0.56043 0.65797 0.0
H383 H 0.26835 0.55786 0.72843 0.0
C384 C 0.17792 0.53576 0.66155 0.0
N385 N 0.14314 0.54435 0.63561 0.0
C386 C 0.15956 0.52419 0.66448 0.0
C387 C 0.17859 0.55173 0.64546 0.0
C388 C 0.14214 0.52876 0.65119 0.0
C389 C 0.16084 0.55582 0.63251 0.0
C390 C 0.26109 0.51212 0.67147 0.0
C391 C 0.27075 0.51702 0.65107 0.0
C392 C 0.27213 0.50086 0.68776 0.0
C393 C 0.29148 0.51097 0.6475 0.0
C394 C 0.29283 0.49508 0.68354 0.0
N395 N 0.30201 0.50024 0.66368 0.0
C396 C 0.22862 0.54032 0.61072 0.0
C397 C 0.21021 0.50947 0.62099 0.0
C398 C 0.22807 0.53454 0.58812 0.0
N399 N 0.21984 0.52775 0.62655 0.0
C400 C 0.20924 0.5031 0.59859 0.0
C401 C 0.21835 0.51565 0.58181 0.0
H402 H 0.23633 0.55467 0.61572 0.0
H403 H 0.20334 0.49984 0.63402 0.0
C404 C 0.19276 0.502 0.72821 0.0
N405 N 0.20806 0.49884 0.71276 0.0
C406 C 0.1837 0.48499 0.73925 0.0
C407 C 0.20641 0.46177 0.71834 0.0
C408 C 0.21521 0.4793 0.70785 0.0
C409 C 0.19013 0.46448 0.73397 0.0
H410 H 0.18717 0.51772 0.73146 0.0
H411 H 0.22715 0.47728 0.69516 0.0
O412 O 0.22919 0.56479 0.66362 0.0
O413 O 0.22351 0.54861 0.71242 0.0
O414 O 0.19501 0.53153 0.67459 0.0
O415 O 0.24084 0.51806 0.67534 0.0
H416 H 0.23311 0.58576 0.70218 0.0
H417 H 0.23838 0.59046 0.63022 0.0
H418 H 0.24424 0.6228 0.70529 0.0
H419 H 0.2494 0.62755 0.63464 0.0
H420 H 0.25218 0.5096 0.76845 0.0
H421 H 0.20306 0.56572 0.74654 0.0
H422 H 0.24912 0.5196 0.72829 0.0
H423 H 0.2068 0.5549 0.78635 0.0
H424 H 0.16547 0.62431 0.67595 0.0
H425 H 0.14747 0.58323 0.73053 0.0
H426 H 0.3094 0.57904 0.66207 0.0
H427 H 0.30138 0.57691 0.73416 0.0
H428 H 0.1588 0.51182 0.67692 0.0
H429 H 0.19262 0.56093 0.64301 0.0
H430 H 0.12782 0.51992 0.65327 0.0
H431 H 0.16114 0.56814 0.62 0.0
H432 H 0.26244 0.52565 0.63825 0.0
H433 H 0.26478 0.49648 0.70342 0.0
H434 H 0.2992 0.51483 0.63186 0.0
H435 H 0.30159 0.48643 0.69603 0.0
H436 H 0.23554 0.54454 0.57579 0.0
H437 H 0.20136 0.48856 0.59444 0.0
H438 H 0.17144 0.48787 0.75142 0.0
H439 H 0.21166 0.44626 0.7135 0.0
Li440 Li 0.53489 0.78001 0.34582 0.0
Li441 Li 0.54755 0.75646 0.31672 0.0
Li442 Li 0.55799 0.7934 0.31742 0.0
Li443 Li 0.52256 0.78295 0.30703 0.0
C444 C 0.58466 0.77458 0.34378 0.0
N445 N 0.62688 0.78205 0.3497 0.0
C446 C 0.59944 0.76115 0.33416 0.0
C447 C 0.59137 0.79179 0.35646 0.0
C448 C 0.62071 0.76519 0.33737 0.0
C449 C 0.61277 0.79531 0.35922 0.0
C450 C 0.5124 0.73921 0.33038 0.0
C451 C 0.50125 0.70638 0.31419 0.0
N452 N 0.50167 0.69744 0.33494 0.0
C453 C 0.51261 0.72974 0.35156 0.0
C454 C 0.50656 0.72751 0.31155 0.0
C455 C 0.50717 0.70858 0.35351 0.0
C456 C 0.50624 0.78196 0.38183 0.0
N457 N 0.5269 0.7816 0.37647 0.0
C458 C 0.53643 0.78297 0.4152 0.0
C459 C 0.54194 0.78197 0.39257 0.0
C460 C 0.51521 0.78342 0.4213 0.0
C461 C 0.5 0.78292 0.40428 0.0
H462 H 0.49462 0.78145 0.36863 0.0
H463 H 0.55822 0.78127 0.38785 0.0
C464 C 0.56376 0.72248 0.29109 0.0
N465 N 0.55771 0.72893 0.31185 0.0
C466 C 0.57441 0.70348 0.2885 0.0
C467 C 0.57152 0.69785 0.32856 0.0
C468 C 0.56109 0.71696 0.33038 0.0
C469 C 0.57889 0.69118 0.30751 0.0
H470 H 0.56127 0.73255 0.27673 0.0
H471 H 0.55655 0.72276 0.34673 0.0
C472 C 0.5212 0.81831 0.34232 0.0
N473 N 0.49999 0.84211 0.37372 0.0
C474 C 0.4995 0.82059 0.34087 0.0
C475 C 0.53212 0.82821 0.35969 0.0
C476 C 0.48906 0.83269 0.3569 0.0
C477 C 0.52111 0.84013 0.37542 0.0
C478 C 0.54454 0.77966 0.26946 0.0
C479 C 0.55148 0.79795 0.25885 0.0
C480 C 0.53225 0.76531 0.25759 0.0
C481 C 0.5458 0.80169 0.23654 0.0
C482 C 0.52688 0.76963 0.23532 0.0
N483 N 0.5337 0.78758 0.22535 0.0
C484 C 0.59711 0.80618 0.29978 0.0
C485 C 0.57672 0.8333 0.31598 0.0
C486 C 0.61265 0.82054 0.29381 0.0
N487 N 0.57963 0.81279 0.31067 0.0
C488 C 0.59177 0.84819 0.31025 0.0
C489 C 0.60999 0.84192 0.29888 0.0
H490 H 0.59883 0.78979 0.29545 0.0
H491 H 0.56247 0.83818 0.3242 0.0
C492 C 0.48125 0.78017 0.2892 0.0
N493 N 0.49955 0.79103 0.28892 0.0
C494 C 0.46381 0.78791 0.2777 0.0
C495 C 0.48468 0.8174 0.26534 0.0
C496 C 0.50154 0.80931 0.27735 0.0
C497 C 0.46543 0.80684 0.26573 0.0
H498 H 0.47999 0.76592 0.29895 0.0
H499 H 0.51608 0.81795 0.27808 0.0
O500 O 0.56375 0.77109 0.34058 0.0
O501 O 0.51795 0.75981 0.32808 0.0
O502 O 0.53166 0.80613 0.32709 0.0
O503 O 0.54969 0.77585 0.29137 0.0
H504 H 0.59461 0.74786 0.32416 0.0
H505 H 0.58017 0.80251 0.36378 0.0
H506 H 0.63232 0.75496 0.32996 0.0
H507 H 0.61817 0.80864 0.36886 0.0
H508 H 0.49681 0.6971 0.29975 0.0
H509 H 0.51715 0.73856 0.3663 0.0
H510 H 0.50625 0.73463 0.29507 0.0
H511 H 0.50738 0.70101 0.36977 0.0
H512 H 0.54863 0.78296 0.42782 0.0
H513 H 0.48348 0.78337 0.40826 0.0
H514 H 0.58008 0.69909 0.27202 0.0
H515 H 0.57445 0.68876 0.34361 0.0
H516 H 0.49076 0.81295 0.32765 0.0
H517 H 0.54889 0.82645 0.36119 0.0
H518 H 0.47226 0.83453 0.35604 0.0
H519 H 0.52934 0.84775 0.38904 0.0
H520 H 0.56097 0.80925 0.26779 0.0
H521 H 0.52679 0.75107 0.26555 0.0
H522 H 0.55096 0.81583 0.22815 0.0
H523 H 0.51727 0.75873 0.22597 0.0
H524 H 0.62649 0.81499 0.28517 0.0
H525 H 0.58881 0.86454 0.31404 0.0
H526 H 0.44915 0.77942 0.27845 0.0
H527 H 0.4864 0.83226 0.25669 0.0
Li528 Li 0.7807 0.47438 0.69785 0.0
Li529 Li 0.77429 0.46247 0.65929 0.0
Li530 Li 0.75352 0.44942 0.69072 0.0
Li531 Li 0.79008 0.43876 0.68595 0.0
C532 C 0.73513 0.48444 0.67875 0.0
N533 N 0.69309 0.49434 0.67776 0.0
C534 C 0.72413 0.48379 0.65848 0.0
C535 C 0.72483 0.4903 0.69848 0.0
C536 C 0.70286 0.48882 0.65834 0.0
C537 C 0.70354 0.49519 0.69764 0.0
C538 C 0.81363 0.4753 0.65958 0.0
C539 C 0.83333 0.4746 0.62504 0.0
N540 N 0.83697 0.49554 0.62709 0.0
C541 C 0.81764 0.49679 0.66141 0.0
C542 C 0.82162 0.46407 0.64134 0.0
C543 C 0.82946 0.50675 0.64478 0.0
C544 C 0.80885 0.49524 0.72589 0.0
N545 N 0.7902 0.4974 0.71523 0.0
C546 C 0.78797 0.53332 0.72642 0.0
C547 C 0.77959 0.51586 0.71541 0.0
C548 C 0.80738 0.53165 0.73744 0.0
C549 C 0.81758 0.5121 0.73745 0.0
H550 H 0.81718 0.48051 0.72498 0.0
H551 H 0.76499 0.51723 0.70637 0.0
C552 C 0.76961 0.45649 0.6125 0.0
N553 N 0.77345 0.47097 0.62872 0.0
C554 C 0.76923 0.46242 0.58993 0.0
C555 C 0.77659 0.4981 0.60123 0.0
C556 C 0.77655 0.49151 0.62359 0.0
C557 C 0.77294 0.48346 0.58399 0.0
H558 H 0.76675 0.44034 0.61708 0.0
H559 H 0.7792 0.50275 0.63689 0.0
C560 C 0.78087 0.45175 0.73533 0.0
N561 N 0.79269 0.46175 0.77866 0.0
C562 C 0.79949 0.44381 0.74419 0.0
C563 C 0.76816 0.46463 0.74855 0.0
C564 C 0.80521 0.44908 0.76613 0.0
C565 C 0.77444 0.46956 0.7704 0.0
C566 C 0.76873 0.41265 0.66061 0.0
C567 C 0.75647 0.39746 0.67128 0.0
C568 C 0.78417 0.40644 0.64537 0.0
C569 C 0.75995 0.37627 0.66659 0.0
C570 C 0.78719 0.38509 0.64118 0.0
N571 N 0.77512 0.37057 0.65179 0.0
C572 C 0.71287 0.43533 0.68211 0.0
C573 C 0.72252 0.43396 0.72054 0.0
C574 C 0.69409 0.42507 0.68671 0.0
N575 N 0.72671 0.43927 0.6989 0.0
C576 C 0.70395 0.42355 0.72589 0.0
C577 C 0.68968 0.41858 0.70875 0.0
H578 H 0.7169 0.43924 0.66497 0.0
H579 H 0.73397 0.43696 0.73349 0.0
C580 C 0.8303 0.42103 0.68517 0.0
N581 N 0.81002 0.41706 0.69051 0.0
C582 C 0.84582 0.40641 0.69025 0.0
C583 C 0.81924 0.38358 0.70569 0.0
C584 C 0.80424 0.39879 0.70057 0.0
C585 C 0.84036 0.38752 0.70086 0.0
H586 H 0.83453 0.43585 0.67761 0.0
H587 H 0.78809 0.3963 0.70523 0.0
O588 O 0.75585 0.47923 0.67931 0.0
O589 O 0.80181 0.46533 0.67549 0.0
O590 O 0.77511 0.44697 0.71381 0.0
O591 O 0.76574 0.43347 0.66515 0.0
H592 H 0.73187 0.47925 0.64306 0.0
H593 H 0.73315 0.49092 0.71428 0.0
H594 H 0.69411 0.48828 0.6428 0.0
H595 H 0.69533 0.49963 0.7128 0.0
H596 H 0.83949 0.46613 0.61075 0.0
H597 H 0.81155 0.50575 0.67538 0.0
H598 H 0.81863 0.44743 0.63967 0.0
H599 H 0.83261 0.52339 0.64592 0.0
H600 H 0.77968 0.54811 0.72559 0.0
H601 H 0.83236 0.50988 0.74599 0.0
H602 H 0.76587 0.45066 0.57731 0.0
H603 H 0.77974 0.51443 0.59752 0.0
H604 H 0.80953 0.43384 0.7342 0.0
H605 H 0.75371 0.47091 0.74193 0.0
H606 H 0.81963 0.44313 0.77318 0.0
H607 H 0.76483 0.47962 0.78077 0.0
H608 H 0.74453 0.40194 0.68322 0.0
H609 H 0.79384 0.41798 0.63703 0.0
H610 H 0.75063 0.36434 0.6748 0.0
H611 H 0.79916 0.38006 0.62952 0.0
H612 H 0.68374 0.42117 0.67292 0.0
H613 H 0.7011 0.41883 0.7431 0.0
H614 H 0.86196 0.40998 0.68627 0.0
H615 H 0.8145 0.36933 0.7142 0.0
Li616 Li 0.4537 0.24332 0.31046 0.0
Li617 Li 0.46447 0.22084 0.34165 0.0
Li618 Li 0.4801 0.2159 0.30316 0.0
Li619 Li 0.44422 0.20504 0.31191 0.0
C620 C 0.49504 0.25741 0.32168 0.0
N621 N 0.52148 0.29151 0.31748 0.0
C622 C 0.49956 0.26992 0.34034 0.0
C623 C 0.50427 0.26203 0.30098 0.0
C624 C 0.51287 0.28716 0.33785 0.0
C625 C 0.51751 0.27938 0.29917 0.0
C626 C 0.42543 0.23291 0.35168 0.0
C627 C 0.40917 0.22227 0.38642 0.0
N628 N 0.40579 0.24276 0.39165 0.0
C629 C 0.42162 0.25386 0.35729 0.0
C630 C 0.41899 0.21696 0.36624 0.0
C631 C 0.41172 0.25852 0.37761 0.0
C632 C 0.42615 0.27003 0.28879 0.0
N633 N 0.44309 0.27015 0.30254 0.0
C634 C 0.44008 0.30721 0.3077 0.0
C635 C 0.45036 0.28825 0.31176 0.0
C636 C 0.42204 0.30746 0.29421 0.0
C637 C 0.41537 0.28858 0.28432 0.0
H638 H 0.42051 0.25532 0.28203 0.0
H639 H 0.46353 0.28792 0.32306 0.0
C640 C 0.47712 0.20274 0.38285 0.0
N641 N 0.47008 0.22065 0.37301 0.0
C642 C 0.48104 0.20221 0.40592 0.0
C643 C 0.47044 0.23857 0.40826 0.0
C644 C 0.46694 0.23845 0.38513 0.0
C645 C 0.47759 0.22027 0.41891 0.0
H646 H 0.47973 0.18888 0.37279 0.0
H647 H 0.46169 0.25257 0.37682 0.0
C648 C 0.4561 0.22623 0.2637 0.0
N649 N 0.4597 0.23497 0.21839 0.0
C650 C 0.44895 0.21181 0.24776 0.0
C651 C 0.46474 0.24525 0.25658 0.0
C652 C 0.45102 0.21646 0.22493 0.0
C653 C 0.4665 0.24934 0.23361 0.0
C654 C 0.46812 0.17322 0.32614 0.0
C655 C 0.47912 0.16024 0.31135 0.0
C656 C 0.45428 0.16433 0.34163 0.0
C657 C 0.47579 0.13858 0.31204 0.0
C658 C 0.45137 0.1426 0.34178 0.0
N659 N 0.46208 0.13029 0.32709 0.0
C660 C 0.5235 0.21119 0.29674 0.0
C661 C 0.50261 0.1978 0.26713 0.0
C662 C 0.54161 0.20358 0.28645 0.0
N663 N 0.50451 0.20807 0.28704 0.0
C664 C 0.52028 0.19 0.25623 0.0
C665 C 0.54008 0.19257 0.26607 0.0
H666 H 0.5245 0.21911 0.31277 0.0
H667 H 0.48731 0.19483 0.26019 0.0
C668 C 0.40388 0.1862 0.31308 0.0
N669 N 0.42351 0.18484 0.30441 0.0
C670 C 0.38882 0.17117 0.30753 0.0
C671 C 0.41453 0.15367 0.28437 0.0
C672 C 0.42895 0.16918 0.29006 0.0
C673 C 0.39419 0.15456 0.29316 0.0
H674 H 0.39992 0.19897 0.32424 0.0
H675 H 0.44453 0.16875 0.28303 0.0
O676 O 0.48211 0.24042 0.3239 0.0
O677 O 0.43533 0.22805 0.33198 0.0
O678 O 0.45407 0.22192 0.28612 0.0
O679 O 0.47093 0.1945 0.32547 0.0
H680 H 0.49277 0.26644 0.35656 0.0
H681 H 0.50148 0.25219 0.28651 0.0
H682 H 0.51638 0.29706 0.35212 0.0
H683 H 0.52472 0.28315 0.28323 0.0
H684 H 0.40424 0.21009 0.39793 0.0
H685 H 0.42639 0.2664 0.34619 0.0
H686 H 0.42163 0.20068 0.36207 0.0
H687 H 0.40879 0.27467 0.38223 0.0
H688 H 0.44581 0.3214 0.31559 0.0
H689 H 0.40132 0.28791 0.27419 0.0
H690 H 0.48648 0.18778 0.41354 0.0
H691 H 0.46791 0.2529 0.41765 0.0
H692 H 0.44199 0.19712 0.25295 0.0
H693 H 0.46977 0.25687 0.26863 0.0
H694 H 0.44569 0.20537 0.21242 0.0
H695 H 0.4732 0.26399 0.22788 0.0
H696 H 0.49 0.16682 0.29937 0.0
H697 H 0.44579 0.17411 0.35331 0.0
H698 H 0.4841 0.12837 0.3006 0.0
H699 H 0.44059 0.13554 0.35357 0.0
H700 H 0.55659 0.20595 0.29455 0.0
H701 H 0.51835 0.18121 0.2408 0.0
H702 H 0.37324 0.17235 0.31457 0.0
H703 H 0.41913 0.14128 0.27293 0.0
Li704 Li 0.71725 0.9739 0.80235 0.0
Li705 Li 0.72087 0.95927 0.84159 0.0
Li706 Li 0.74395 0.94689 0.80911 0.0
Li707 Li 0.70752 0.93917 0.81076 0.0
C708 C 0.75154 0.99371 0.82733 0.0
N709 N 0.77127 0.03138 0.83633 0.0
C710 C 0.74278 0.00786 0.8426 0.0
C711 C 0.77058 0.99855 0.817 0.0
C712 C 0.75291 0.02687 0.84682 0.0
C713 C 0.78024 0.01772 0.82166 0.0
C714 C 0.67473 0.96142 0.82213 0.0
C715 C 0.64213 0.94965 0.83811 0.0
N716 N 0.63267 0.95243 0.81786 0.0
C717 C 0.66467 0.9643 0.80152 0.0
C718 C 0.66339 0.95414 0.84062 0.0
C719 C 0.6434 0.9596 0.79968 0.0
C720 C 0.7047 0.99895 0.76464 0.0
N721 N 0.70908 0.99893 0.78701 0.0
C722 C 0.69646 0.03407 0.79057 0.0
C723 C 0.70508 0.016 0.79999 0.0
C724 C 0.69161 0.03447 0.76758 0.0
C725 C 0.69615 0.01673 0.75448 0.0
H726 H 0.7069 0.98492 0.75478 0.0
H727 H 0.70769 0.01528 0.81787 0.0
C728 C 0.73596 0.95778 0.88582 0.0
N729 N 0.72039 0.96537 0.8726 0.0
C730 C 0.73629 0.96241 0.90874 0.0
C731 C 0.70448 0.98246 0.90392 0.0
C732 C 0.7048 0.97747 0.88109 0.0
C733 C 0.72042 0.97495 0.91805 0.0
H734 H 0.74815 0.94819 0.8785 0.0
H735 H 0.69276 0.98346 0.87006 0.0
C736 C 0.73408 0.9537 0.76474 0.0
N737 N 0.75607 0.96411 0.72633 0.0
C738 C 0.73122 0.94219 0.74498 0.0
C739 C 0.74817 0.97046 0.76494 0.0
C740 C 0.74247 0.9477 0.72575 0.0
C741 C 0.75911 0.9755 0.74536 0.0
C742 C 0.72699 0.90955 0.83533 0.0
C743 C 0.73118 0.89613 0.81733 0.0
C744 C 0.72037 0.90127 0.85586 0.0
C745 C 0.72844 0.87454 0.82012 0.0
C746 C 0.71784 0.87958 0.85798 0.0
N747 N 0.72188 0.86678 0.84022 0.0
C748 C 0.78626 0.94085 0.81871 0.0
C749 C 0.77493 0.92429 0.78518 0.0
C750 C 0.80591 0.93148 0.81683 0.0
N751 N 0.77121 0.93685 0.80319 0.0
C752 C 0.79441 0.91475 0.78252 0.0
C753 C 0.81001 0.91793 0.79876 0.0
H754 H 0.78271 0.95071 0.83301 0.0
H755 H 0.76253 0.92091 0.7734 0.0
C756 C 0.68225 0.91547 0.7819 0.0
N757 N 0.68699 0.91832 0.80392 0.0
C758 C 0.66648 0.90154 0.77564 0.0
C759 C 0.66087 0.89349 0.81486 0.0
C760 C 0.67673 0.90765 0.82037 0.0
C761 C 0.65544 0.89047 0.79223 0.0
H762 H 0.69043 0.92438 0.76921 0.0
H763 H 0.68046 0.91056 0.8378 0.0
O764 O 0.74199 0.97487 0.82322 0.0
O765 O 0.69565 0.96542 0.82408 0.0
O766 O 0.72344 0.94815 0.78381 0.0
O767 O 0.72935 0.93073 0.83287 0.0
H768 H 0.72821 0.00427 0.85099 0.0
H769 H 0.7779 0.98757 0.80557 0.0
H770 H 0.7462 0.03803 0.85846 0.0
H771 H 0.79492 0.0217 0.81369 0.0
H772 H 0.63317 0.94387 0.85223 0.0
H773 H 0.67328 0.96981 0.78702 0.0
H774 H 0.67099 0.95169 0.85665 0.0
H775 H 0.63544 0.96159 0.78379 0.0
H776 H 0.69312 0.04739 0.80127 0.0
H777 H 0.69216 0.01623 0.7368 0.0
H778 H 0.74873 0.95613 0.91909 0.0
H779 H 0.69213 0.99241 0.91034 0.0
H780 H 0.72055 0.92902 0.74455 0.0
H781 H 0.75042 0.97964 0.77993 0.0
H782 H 0.74043 0.9389 0.71036 0.0
H783 H 0.77 0.9885 0.7453 0.0
H784 H 0.73621 0.90235 0.8013 0.0
H785 H 0.71709 0.91151 0.86994 0.0
H786 H 0.73148 0.86395 0.8063 0.0
H787 H 0.71264 0.87292 0.87374 0.0
H788 H 0.81757 0.9343 0.82968 0.0
H789 H 0.79683 0.90409 0.76859 0.0
H790 H 0.66289 0.89955 0.75799 0.0
H791 H 0.65252 0.8855 0.82818 0.0
Li792 Li 0.9367 0.29252 0.18467 0.0
Li793 Li 0.97181 0.28146 0.19499 0.0
Li794 Li 0.95892 0.27715 0.15662 0.0
Li795 Li 0.94603 0.25539 0.18706 0.0
C796 C 0.97393 0.31495 0.1578 0.0
N797 N 0.99564 0.3362 0.12472 0.0
C798 C 0.99575 0.31609 0.15859 0.0
C799 C 0.96315 0.32467 0.14022 0.0
C800 C 0.00644 0.32693 0.14171 0.0
C801 C 0.97441 0.3353 0.12363 0.0
C802 C 0.9509 0.28091 0.23281 0.0
C803 C 0.96933 0.27242 0.26697 0.0
N804 N 0.96403 0.29146 0.27556 0.0
C805 C 0.94555 0.30036 0.24201 0.0
C806 C 0.96279 0.26676 0.24541 0.0
C807 C 0.95236 0.30541 0.26365 0.0
C808 C 0.89878 0.30744 0.20322 0.0
N809 N 0.9159 0.31291 0.191 0.0
C810 C 0.90506 0.34873 0.19027 0.0
C811 C 0.91922 0.33304 0.18439 0.0
C812 C 0.88739 0.34365 0.20319 0.0
C813 C 0.88415 0.32263 0.20941 0.0
H814 H 0.8968 0.29136 0.20863 0.0
H815 H 0.93313 0.33701 0.17503 0.0
C816 C 0.012 0.27766 0.21617 0.0
N817 N 0.99496 0.28997 0.21264 0.0
C818 C 0.02912 0.2855 0.22816 0.0
C819 C 0.01054 0.31828 0.2328 0.0
C820 C 0.99393 0.30989 0.22066 0.0
C821 C 0.02852 0.30613 0.23651 0.0
H822 H 0.01248 0.26196 0.20933 0.0
H823 H 0.98032 0.31941 0.21716 0.0
C824 C 0.90899 0.2736 0.16007 0.0
N825 N 0.86692 0.28248 0.15528 0.0
C826 C 0.89402 0.26124 0.17095 0.0
C827 C 0.90254 0.29046 0.14673 0.0
C828 C 0.87283 0.26598 0.16829 0.0
C829 C 0.88121 0.29472 0.14455 0.0
C830 C 0.98004 0.23634 0.1737 0.0
C831 C 0.97894 0.22606 0.153 0.0
C832 C 0.98547 0.22507 0.19297 0.0
C833 C 0.98314 0.20457 0.15196 0.0
C834 C 0.98952 0.20359 0.19125 0.0
N835 N 0.98828 0.19387 0.17095 0.0
C836 C 0.98715 0.27613 0.12023 0.0
C837 C 0.95142 0.27829 0.10987 0.0
C838 C 0.99321 0.27628 0.09771 0.0
N839 N 0.96657 0.27724 0.12581 0.0
C840 C 0.95676 0.27853 0.08716 0.0
C841 C 0.97791 0.2775 0.08082 0.0
H842 H 0.99884 0.27507 0.13332 0.0
H843 H 0.93519 0.27893 0.11477 0.0
C844 C 0.93111 0.2217 0.21449 0.0
N845 N 0.93538 0.22827 0.19326 0.0
C846 C 0.92096 0.20253 0.21799 0.0
C847 C 0.92043 0.19719 0.17777 0.0
C848 C 0.93051 0.21638 0.17507 0.0
C849 C 0.91507 0.19027 0.19942 0.0
H850 H 0.93485 0.23166 0.22862 0.0
H851 H 0.93382 0.22221 0.15838 0.0
O852 O 0.9632 0.30397 0.17385 0.0
O853 O 0.94477 0.27585 0.21148 0.0
O854 O 0.92984 0.26943 0.16274 0.0
O855 O 0.9756 0.25729 0.17513 0.0
H856 H 0.00439 0.30849 0.17191 0.0
H857 H 0.94628 0.3237 0.13917 0.0
H858 H 0.02333 0.32786 0.14206 0.0
H859 H 0.96628 0.34276 0.10984 0.0
H860 H 0.97866 0.26168 0.27685 0.0
H861 H 0.93646 0.31156 0.23247 0.0
H862 H 0.96714 0.25169 0.23851 0.0
H863 H 0.94844 0.32046 0.27093 0.0
H864 H 0.90805 0.36473 0.18502 0.0
H865 H 0.87088 0.31813 0.21965 0.0
H866 H 0.04271 0.27565 0.23068 0.0
H867 H 0.0096 0.33439 0.23852 0.0
H868 H 0.89866 0.24827 0.18153 0.0
H869 H 0.9139 0.30041 0.13849 0.0
H870 H 0.86108 0.25658 0.17666 0.0
H871 H 0.87602 0.3078 0.13441 0.0
H872 H 0.97464 0.23451 0.13793 0.0
H873 H 0.98631 0.23278 0.20913 0.0
H874 H 0.98224 0.19638 0.13608 0.0
H875 H 0.99361 0.19465 0.20605 0.0
H876 H 0.00967 0.27515 0.09358 0.0
H877 H 0.94446 0.27971 0.07472 0.0
H878 H 0.91688 0.19786 0.23493 0.0
H879 H 0.91635 0.18811 0.16303 0.0
Li880 Li 0.25387 0.05052 0.81021 0.0
Li881 Li 0.29065 0.06032 0.81391 0.0
Li882 Li 0.2804 0.02458 0.80402 0.0
Li883 Li 0.27484 0.03827 0.84186 0.0
C884 C 0.28 0.04475 0.76543 0.0
N885 N 0.29006 0.03103 0.72275 0.0
C886 C 0.29924 0.05011 0.75585 0.0
C887 C 0.26583 0.03252 0.75325 0.0
C888 C 0.30404 0.043 0.73425 0.0
C889 C 0.27123 0.0257 0.73172 0.0
C890 C 0.27079 0.0882 0.83706 0.0
C891 C 0.29046 0.11661 0.85351 0.0
N892 N 0.27966 0.13051 0.84062 0.0
C893 C 0.25987 0.10276 0.82399 0.0
C894 C 0.28619 0.09516 0.85198 0.0
C895 C 0.26458 0.12408 0.82604 0.0
C896 C 0.21349 0.06507 0.81902 0.0
N897 N 0.22718 0.06101 0.80212 0.0
C898 C 0.20433 0.07687 0.7753 0.0
C899 C 0.22292 0.06644 0.78052 0.0
C900 C 0.1901 0.08169 0.79253 0.0
C901 C 0.19466 0.07526 0.81455 0.0
H902 H 0.21762 0.06119 0.83613 0.0
H903 H 0.23432 0.06349 0.7675 0.0
C904 C 0.32909 0.08244 0.81842 0.0
N905 N 0.31031 0.08198 0.80776 0.0
C906 C 0.34386 0.09774 0.8129 0.0
C907 C 0.31964 0.11179 0.78557 0.0
C908 C 0.30525 0.09638 0.79181 0.0
C909 C 0.3393 0.11245 0.79603 0.0
H910 H 0.33278 0.0707 0.83086 0.0
H911 H 0.29018 0.09558 0.78359 0.0
C912 C 0.23487 0.01633 0.82434 0.0
N913 N 0.19275 0.00696 0.82688 0.0
C914 C 0.2244 0.0176 0.8449 0.0
C915 C 0.22397 0.01013 0.8051 0.0
C916 C 0.20309 0.01283 0.84583 0.0
C917 C 0.20267 0.00551 0.80672 0.0
C918 C 0.31315 0.02382 0.84202 0.0
C919 C 0.31618 0.00213 0.84076 0.0
C920 C 0.32105 0.03496 0.86039 0.0
C921 C 0.327 0.99192 0.85797 0.0
C922 C 0.33173 0.02417 0.87728 0.0
N923 N 0.33447 0.00306 0.87573 0.0
C924 C 0.30771 0.00121 0.77728 0.0
C925 C 0.27666 0.983 0.7871 0.0
C926 C 0.31529 0.98367 0.76595 0.0
N927 N 0.28869 0.00059 0.78745 0.0
C928 C 0.28381 0.96493 0.77624 0.0
C929 C 0.3034 0.96517 0.76557 0.0
H930 H 0.31719 0.01522 0.77846 0.0
H931 H 0.26178 0.98284 0.7957 0.0
C932 C 0.27268 0.04563 0.88887 0.0
N933 N 0.27399 0.03064 0.8727 0.0
C934 C 0.27236 0.03994 0.91151 0.0
C935 C 0.27441 0.00351 0.90039 0.0
C936 C 0.27463 0.0099 0.87797 0.0
C937 C 0.27331 0.01863 0.91753 0.0
H938 H 0.27182 0.06198 0.88418 0.0
H939 H 0.27545 0.99833 0.86471 0.0
O940 O 0.27514 0.05128 0.78669 0.0
O941 O 0.26681 0.06721 0.83485 0.0
O942 O 0.25566 0.02123 0.823 0.0
O943 O 0.30225 0.03405 0.82554 0.0
H944 H 0.31049 0.05939 0.76509 0.0
H945 H 0.25091 0.0282 0.76043 0.0
H946 H 0.31891 0.04692 0.72668 0.0
H947 H 0.26046 0.01613 0.72216 0.0
H948 H 0.30244 0.1222 0.86486 0.0
H949 H 0.24805 0.09767 0.81221 0.0
H950 H 0.295 0.08409 0.86198 0.0
H951 H 0.25631 0.13552 0.81598 0.0
H952 H 0.20138 0.08165 0.75813 0.0
H953 H 0.18433 0.07909 0.82837 0.0
H954 H 0.35896 0.09761 0.82115 0.0
H955 H 0.31554 0.12293 0.77255 0.0
H956 H 0.23256 0.02245 0.85994 0.0
H957 H 0.23185 0.00903 0.78907 0.0
H958 H 0.19476 0.01385 0.86161 0.0
H959 H 0.19401 0.00081 0.79195 0.0
H960 H 0.31009 0.99321 0.82677 0.0
H961 H 0.31858 0.0517 0.86183 0.0
H962 H 0.32939 0.97513 0.85725 0.0
H963 H 0.33776 0.03257 0.89168 0.0
H964 H 0.33066 0.98431 0.75831 0.0
H965 H 0.27428 0.95087 0.77636 0.0
H966 H 0.27113 0.05209 0.92416 0.0
H967 H 0.27537 0.98693 0.90424 0.0
Li968 Li 0.02423 0.71588 0.19492 0.0
Li969 Li 0.06007 0.70507 0.1868 0.0
Li970 Li 0.05005 0.74265 0.18876 0.0
Li971 Li 0.03894 0.72183 0.15706 0.0
C972 C 0.04484 0.71995 0.23487 0.0
N973 N 0.03426 0.71692 0.27974 0.0
C974 C 0.04727 0.70093 0.24625 0.0
C975 C 0.03748 0.73755 0.24641 0.0
C976 C 0.04169 0.69967 0.26891 0.0
C977 C 0.0321 0.73567 0.26907 0.0
C978 C 0.03742 0.67837 0.1583 0.0
C979 C 0.05931 0.66079 0.13122 0.0
N980 N 0.04435 0.64581 0.1286 0.0
C981 C 0.02227 0.66282 0.15536 0.0
C982 C 0.05611 0.67737 0.14616 0.0
C983 C 0.02607 0.64647 0.14026 0.0
C984 C 0.98175 0.71733 0.21009 0.0
N985 N 0.00017 0.7067 0.21084 0.0
C986 C 0.98463 0.67944 0.23276 0.0
C987 C 0.00184 0.68801 0.22168 0.0
C988 C 0.96537 0.68998 0.23221 0.0
C989 C 0.96403 0.7092 0.22074 0.0
H990 H 0.98063 0.73182 0.20077 0.0
H991 H 0.01646 0.6795 0.22125 0.0
C992 C 0.10109 0.68943 0.19427 0.0
N993 N 0.08041 0.68454 0.19398 0.0
C994 C 0.11586 0.67425 0.20024 0.0
C995 C 0.08768 0.6494 0.20546 0.0
C996 C 0.0735 0.66504 0.19945 0.0
C997 C 0.10919 0.65392 0.20597 0.0
H998 H 0.10607 0.70515 0.19011 0.0
H999 H 0.05691 0.66172 0.19942 0.0
C1000 C 0.01164 0.75977 0.17685 0.0
N1001 N 0.99197 0.79827 0.17985 0.0
C1002 C 0.00725 0.77125 0.1574 0.0
C1003 C 0.00581 0.76776 0.19779 0.0
C1004 C 0.99735 0.79071 0.15927 0.0
C1005 C 0.99594 0.78729 0.19896 0.0
C1006 C 0.07825 0.74339 0.15387 0.0
C1007 C 0.06677 0.75854 0.14221 0.0
C1008 C 0.10008 0.74426 0.15369 0.0
C1009 C 0.07733 0.7743 0.13049 0.0
C1010 C 0.11008 0.76028 0.14177 0.0
N1011 N 0.09859 0.77484 0.13051 0.0
C1012 C 0.07779 0.76758 0.21207 0.0
C1013 C 0.05618 0.78764 0.18787 0.0
C1014 C 0.08989 0.78519 0.217 0.0
N1015 N 0.06151 0.76902 0.19748 0.0
C1016 C 0.06769 0.80574 0.19258 0.0
C1017 C 0.08509 0.80447 0.20686 0.0
H1018 H 0.08194 0.75249 0.21909 0.0
H1019 H 0.04377 0.78835 0.17565 0.0
C1020 C 0.01266 0.72288 0.11932 0.0
N1021 N 0.03294 0.72116 0.12585 0.0
C1022 C 0.00747 0.72238 0.09655 0.0
C1023 C 0.04414 0.7181 0.08772 0.0
C1024 C 0.04861 0.71867 0.11066 0.0
C1025 C 0.02333 0.72 0.0804 0.0
H1026 H 0.00052 0.72462 0.13185 0.0
H1027 H 0.06459 0.71716 0.11634 0.0
O1028 O 0.05014 0.72145 0.21268 0.0
O1029 O 0.03384 0.69451 0.17295 0.0
O1030 O 0.02138 0.74072 0.17531 0.0
O1031 O 0.06818 0.72817 0.16598 0.0
H1032 H 0.05323 0.68724 0.23763 0.0
H1033 H 0.03612 0.75254 0.23803 0.0
H1034 H 0.04329 0.685 0.27787 0.0
H1035 H 0.02629 0.74914 0.27819 0.0
H1036 H 0.07369 0.65983 0.12169 0.0
H1037 H 0.00772 0.6634 0.16466 0.0
H1038 H 0.06803 0.68927 0.14821 0.0
H1039 H 0.01448 0.63432 0.13781 0.0
H1040 H 0.98618 0.66434 0.24096 0.0
H1041 H 0.9494 0.71773 0.21986 0.0
H1042 H 0.1323 0.67836 0.20034 0.0
H1043 H 0.08181 0.63408 0.21019 0.0
H1044 H 0.01152 0.76525 0.14103 0.0
H1045 H 0.00878 0.75894 0.21295 0.0
H1046 H 0.99394 0.79981 0.14437 0.0
H1047 H 0.9914 0.79368 0.21507 0.0
H1048 H 0.04988 0.75826 0.14239 0.0
H1049 H 0.10923 0.73275 0.16272 0.0
H1050 H 0.06861 0.78614 0.12145 0.0
H1051 H 0.12697 0.76115 0.14151 0.0
H1052 H 0.10325 0.78364 0.22806 0.0
H1053 H 0.0638 0.82029 0.18413 0.0
H1054 H 0.9912 0.72357 0.09167 0.0
H1055 H 0.05687 0.71644 0.07586 0.0
Li1056 Li 0.70966 0.05586 0.18702 0.0
Li1057 Li 0.7461 0.04434 0.18924 0.0
Li1058 Li 0.72474 0.03327 0.15812 0.0
Li1059 Li 0.71906 0.02015 0.19639 0.0
C1060 C 0.73926 0.08279 0.16781 0.0
N1061 N 0.75269 0.12381 0.17249 0.0
C1062 C 0.74137 0.09167 0.18919 0.0
C1063 C 0.74398 0.09482 0.14884 0.0
C1064 C 0.74819 0.11241 0.19119 0.0
C1065 C 0.75073 0.11552 0.15155 0.0
C1066 C 0.72381 0.03949 0.23549 0.0
C1067 C 0.73517 0.01706 0.26578 0.0
N1068 N 0.72014 0.02542 0.27924 0.0
C1069 C 0.70866 0.04804 0.24972 0.0
C1070 C 0.73735 0.02406 0.24367 0.0
C1071 C 0.70699 0.04066 0.27174 0.0
C1072 C 0.67329 0.07004 0.2067 0.0
N1073 N 0.68878 0.07653 0.19272 0.0
C1074 C 0.67252 0.11012 0.18873 0.0
C1075 C 0.68848 0.096 0.18334 0.0
C1076 C 0.65662 0.10401 0.20367 0.0
C1077 C 0.65709 0.08359 0.21256 0.0
H1078 H 0.67363 0.05426 0.21339 0.0
H1079 H 0.70047 0.10061 0.17157 0.0
C1080 C 0.78606 0.05925 0.17915 0.0
N1081 N 0.77347 0.05377 0.19657 0.0
C1082 C 0.80509 0.06922 0.18314 0.0
C1083 C 0.79805 0.06746 0.223 0.0
C1084 C 0.77916 0.05738 0.21823 0.0
C1085 C 0.81106 0.07389 0.20528 0.0
H1086 H 0.78083 0.0568 0.16208 0.0
H1087 H 0.76865 0.05335 0.23175 0.0
C1088 C 0.68138 0.03446 0.16068 0.0
N1089 N 0.64803 0.04384 0.13295 0.0
C1090 C 0.66301 0.02264 0.16188 0.0
C1091 C 0.68279 0.05108 0.14542 0.0
C1092 C 0.64631 0.02762 0.1477 0.0
C1093 C 0.66576 0.05556 0.13153 0.0
C1094 C 0.76388 0.01001 0.17366 0.0
C1095 C 0.7736 0.01354 0.15297 0.0
C1096 C 0.77527 0.00101 0.19123 0.0
C1097 C 0.79469 0.00835 0.15033 0.0
C1098 C 0.79633 0.99606 0.18793 0.0
N1099 N 0.80553 -0.00018 0.16773 0.0
C1100 C 0.73283 0.03878 0.11181 0.0
C1101 C 0.71364 0.00818 0.12124 0.0
C1102 C 0.73226 0.03348 0.08906 0.0
N1103 N 0.72364 0.02612 0.12728 0.0
C1104 C 0.71265 0.00228 0.09868 0.0
C1105 C 0.7221 0.01498 0.08225 0.0
H1106 H 0.74082 0.05285 0.11718 0.0
H1107 H 0.70643 0.99848 0.13399 0.0
C1108 C 0.69117 -0.00059 0.22449 0.0
N1109 N 0.70926 0.99678 0.21288 0.0
C1110 C 0.68222 0.98258 0.23591 0.0
C1111 C 0.71069 0.9606 0.22317 0.0
C1112 C 0.71921 0.97796 0.21212 0.0
C1113 C 0.69178 0.96274 0.23503 0.0
H1114 H 0.68357 0.01457 0.22459 0.0
H1115 H 0.73345 0.97632 0.20249 0.0
O1116 O 0.73305 0.06235 0.16532 0.0
O1117 O 0.72549 0.04628 0.21374 0.0
O1118 O 0.69777 0.02979 0.17458 0.0
O1119 O 0.74331 0.01527 0.17666 0.0
H1120 H 0.73782 0.08274 0.20412 0.0
H1121 H 0.74246 0.08824 0.13217 0.0
H1122 H 0.74992 0.11944 0.20763 0.0
H1123 H 0.75443 0.12499 0.137 0.0
H1124 H 0.74543 0.00499 0.27224 0.0
H1125 H 0.69838 0.06035 0.24391 0.0
H1126 H 0.74928 0.01745 0.23297 0.0
H1127 H 0.69527 0.04708 0.2829 0.0
H1128 H 0.67251 0.12556 0.18113 0.0
H1129 H 0.64526 0.07822 0.22424 0.0
H1130 H 0.81441 0.07434 0.16896 0.0
H1131 H 0.80209 0.07082 0.2403 0.0
H1132 H 0.66167 0.00977 0.17367 0.0
H1133 H 0.69684 0.06047 0.1443 0.0
H1134 H 0.63199 0.01861 0.14844 0.0
H1135 H 0.66663 0.06837 0.11964 0.0
H1136 H 0.76506 0.02045 0.13917 0.0
H1137 H 0.76796 0.99784 0.20724 0.0
H1138 H 0.80244 0.01116 0.13446 0.0
H1139 H 0.80536 0.98919 0.20143 0.0
H1140 H 0.74 0.04357 0.07701 0.0
H1141 H 0.70443 0.98804 0.09415 0.0
H1142 H 0.66782 0.98504 0.24513 0.0
H1143 H 0.71844 0.94555 0.22181 0.0
Li1144 Li 0.03229 0.27773 0.83988 0.0
Li1145 Li 0.04625 0.25675 0.80802 0.0
Li1146 Li 0.05187 0.29381 0.80969 0.0
Li1147 Li 0.01755 0.28076 0.80149 0.0
C1148 C 0.08206 0.27795 0.83394 0.0
N1149 N 0.12326 0.29054 0.83762 0.0
C1150 C 0.09748 0.26844 0.82078 0.0
C1151 C 0.08761 0.29374 0.84911 0.0
C1152 C 0.11822 0.27505 0.82287 0.0
C1153 C 0.10852 0.29993 0.85067 0.0
C1154 C 0.0058 0.24016 0.81224 0.0
C1155 C 0.99614 0.21887 0.7804 0.0
N1156 N 0.98176 0.20878 0.79332 0.0
C1157 C 0.99093 0.2296 0.8252 0.0
C1158 C 0.00846 0.23478 0.78966 0.0
C1159 C 0.97892 0.21378 0.81533 0.0
C1160 C 0.0058 0.28143 0.8772 0.0
N1161 N 0.02577 0.27734 0.87077 0.0
C1162 C 0.03653 0.27338 0.90891 0.0
C1163 C 0.04106 0.27327 0.88598 0.0
C1164 C 0.01604 0.2776 0.91617 0.0
C1165 C 0.00055 0.28162 0.89996 0.0
H1166 H 0.99401 0.28457 0.86462 0.0
H1167 H 0.05681 0.27009 0.8803 0.0
C1168 C 0.06608 0.22582 0.78092 0.0
N1169 N 0.05841 0.23049 0.80162 0.0
C1170 C 0.07732 0.20728 0.77757 0.0
C1171 C 0.07195 0.19862 0.81672 0.0
C1172 C 0.06077 0.21723 0.81928 0.0
C1173 C 0.08078 0.19368 0.79578 0.0
H1174 H 0.06411 0.23684 0.76728 0.0
H1175 H 0.05455 0.22152 0.83555 0.0
C1176 C 0.02287 0.32249 0.83236 0.0
N1177 N 0.0179 0.36163 0.85165 0.0
C1178 C 0.01154 0.33809 0.82118 0.0
C1179 C 0.03154 0.32679 0.85343 0.0
C1180 C 0.00925 0.35779 0.83119 0.0
C1181 C 0.02888 0.34667 0.86288 0.0
C1182 C 0.04184 0.28941 0.76429 0.0
C1183 C 0.03507 0.31019 0.76622 0.0
C1184 C 0.04703 0.28141 0.74316 0.0
C1185 C 0.0336 0.32262 0.74697 0.0
C1186 C 0.04534 0.29434 0.72429 0.0
N1187 N 0.03872 0.31451 0.72657 0.0
C1188 C 0.08688 0.30935 0.78664 0.0
C1189 C 0.07264 0.3341 0.81203 0.0
C1190 C 0.10235 0.32356 0.78013 0.0
N1191 N 0.07236 0.31482 0.80228 0.0
C1192 C 0.08773 0.34884 0.80594 0.0
C1193 C 0.10284 0.34369 0.78973 0.0
H1194 H 0.08645 0.29386 0.77923 0.0
H1195 H 0.0612 0.33824 0.82447 0.0
C1196 C 0.97771 0.29735 0.79794 0.0
N1197 N 0.99211 0.28618 0.78622 0.0
C1198 C 0.9594 0.30414 0.78756 0.0
C1199 C 0.97052 0.28683 0.75346 0.0
C1200 C 0.98876 0.2805 0.7645 0.0
C1201 C 0.95571 0.29916 0.7649 0.0
H1202 H 0.9808 0.30156 0.81523 0.0
H1203 H 0.00044 0.27148 0.75559 0.0
O1204 O 0.0616 0.27209 0.8317 0.0
O1205 O 0.01758 0.25575 0.8217 0.0
O1206 O 0.02491 0.30299 0.82295 0.0
O1207 O 0.04332 0.27681 0.78286 0.0
H1208 H 0.09345 0.25626 0.80889 0.0
H1209 H 0.07587 0.30129 0.85939 0.0
H1210 H 0.1303 0.26792 0.8127 0.0
H1211 H 0.11302 0.31223 0.86222 0.0
H1212 H 0.99802 0.21455 0.76294 0.0
H1213 H 0.98869 0.23363 0.84271 0.0
H1214 H 0.01985 0.24279 0.77934 0.0
H1215 H 0.96734 0.20547 0.82515 0.0
H1216 H 0.049 0.27047 0.92082 0.0
H1217 H 0.9845 0.28465 0.90478 0.0
H1218 H 0.08407 0.20412 0.76123 0.0
H1219 H 0.07411 0.18843 0.83111 0.0
H1220 H 0.00457 0.33504 0.80495 0.0
H1221 H 0.04049 0.31505 0.86228 0.0
H1222 H 0.00057 0.37 0.8227 0.0
H1223 H 0.0356 0.35022 0.87911 0.0
H1224 H 0.03105 0.31669 0.78237 0.0
H1225 H 0.05224 0.26535 0.74134 0.0
H1226 H 0.02839 0.33873 0.74825 0.0
H1227 H 0.04929 0.28833 0.70783 0.0
H1228 H 0.11384 0.3188 0.76777 0.0
H1229 H 0.08726 0.36426 0.81355 0.0
H1230 H 0.94868 0.31388 0.79701 0.0
H1231 H 0.96821 0.28237 0.73608 0.0
Li1232 Li 0.27742 0.96206 0.15805 0.0
Li1233 Li 0.28117 0.97849 0.19503 0.0
Li1234 Li 0.29441 0.943 0.18757 0.0
Li1235 Li 0.25688 0.94976 0.1902 0.0
C1236 C 0.3245 0.96775 0.17561 0.0
N1237 N 0.36697 0.96161 0.18115 0.0
C1238 C 0.33507 0.97745 0.19334 0.0
C1239 C 0.33555 0.955 0.16063 0.0
C1240 C 0.35655 0.97415 0.19586 0.0
C1241 C 0.35701 0.95206 0.16375 0.0
C1242 C 0.24779 0.99708 0.17616 0.0
C1243 C 0.22857 0.02424 0.19537 0.0
N1244 N 0.23232 0.03752 0.17793 0.0
C1245 C 0.25133 0.01094 0.15836 0.0
C1246 C 0.2362 0.00371 0.19475 0.0
C1247 C 0.24342 0.03134 0.1596 0.0
C1248 C 0.25765 0.96778 0.11613 0.0
N1249 N 0.27648 0.96778 0.12673 0.0
C1250 C 0.29399 0.97674 0.09263 0.0
C1251 C 0.29447 0.97223 0.11556 0.0
C1252 C 0.27478 0.97686 0.08118 0.0
C1253 C 0.25644 0.97228 0.09321 0.0
H1254 H 0.24358 0.96437 0.12553 0.0
H1255 H 0.30916 0.97251 0.12449 0.0
C1256 C 0.29115 0.0041 0.23241 0.0
N1257 N 0.28756 0.00406 0.20992 0.0
C1258 C 0.29912 0.02201 0.24289 0.0
C1259 C 0.29865 0.03973 0.207 0.0
C1260 C 0.29107 0.02139 0.19718 0.0
C1261 C 0.30337 0.04007 0.23007 0.0
H1262 H 0.28886 0.98989 0.24203 0.0
H1263 H 0.28882 0.02071 0.17921 0.0
C1264 C 0.26639 0.92383 0.14779 0.0
N1265 N 0.25446 0.90777 0.10662 0.0
C1266 C 0.24529 0.91994 0.14328 0.0
C1267 C 0.28143 0.91946 0.13139 0.0
C1268 C 0.23958 0.91181 0.12236 0.0
C1269 C 0.27508 0.9114 0.11066 0.0
C1270 C 0.26914 0.94648 0.23302 0.0
C1271 C 0.27386 0.9266 0.24155 0.0
C1272 C 0.25439 0.95902 0.24395 0.0
C1273 C 0.26352 0.91949 0.26078 0.0
C1274 C 0.24439 0.95135 0.26313 0.0
N1275 N 0.24911 0.9319 0.27106 0.0
C1276 C 0.32608 0.92701 0.2151 0.0
C1277 C 0.32083 0.90738 0.18177 0.0
C1278 C 0.34203 0.91349 0.22183 0.0
N1279 N 0.31588 0.92373 0.19541 0.0
C1280 C 0.33687 0.89357 0.18771 0.0
C1281 C 0.34772 0.89651 0.20802 0.0
H1282 H 0.32171 0.94013 0.22564 0.0
H1283 H 0.31243 0.90512 0.16623 0.0
C1284 C 0.21261 0.94746 0.19497 0.0
N1285 N 0.23109 0.93759 0.19899 0.0
C1286 C 0.19372 0.93713 0.19922 0.0
C1287 C 0.21334 0.9071 0.21237 0.0
C1288 C 0.23178 0.91779 0.20744 0.0
C1289 C 0.19403 0.91666 0.20791 0.0
H1290 H 0.21254 0.96301 0.18772 0.0
H1291 H 0.24667 0.91003 0.20959 0.0
O1292 O 0.30336 0.97029 0.17325 0.0
O1293 O 0.2555 0.97708 0.17533 0.0
O1294 O 0.27228 0.93216 0.16801 0.0
O1295 O 0.27891 0.95362 0.21406 0.0
H1296 H 0.32679 0.98726 0.20518 0.0
H1297 H 0.32758 0.9471 0.14702 0.0
H1298 H 0.36491 0.9815 0.20956 0.0
H1299 H 0.36572 0.94208 0.1524 0.0
H1300 H 0.21965 0.02962 0.2097 0.0
H1301 H 0.2603 0.00609 0.14385 0.0
H1302 H 0.23314 0.99313 0.20856 0.0
H1303 H 0.24615 0.04227 0.14601 0.0
H1304 H 0.30845 0.98054 0.08406 0.0
H1305 H 0.24133 0.97208 0.08498 0.0
H1306 H 0.30287 0.02131 0.26061 0.0
H1307 H 0.30139 0.0533 0.19645 0.0
H1308 H 0.23342 0.92328 0.1557 0.0
H1309 H 0.2978 0.92267 0.13445 0.0
H1310 H 0.2233 0.90879 0.11862 0.0
H1311 H 0.28653 0.90813 0.09776 0.0
H1312 H 0.28517 0.91664 0.23324 0.0
H1313 H 0.25069 0.9745 0.23767 0.0
H1314 H 0.26691 0.90408 0.26748 0.0
H1315 H 0.23287 0.96085 0.2717 0.0
H1316 H 0.34963 0.91619 0.23781 0.0
H1317 H 0.34086 0.8809 0.17638 0.0
H1318 H 0.17906 0.94485 0.19536 0.0
H1319 H 0.21416 0.89113 0.21856 0.0
Li1320 Li 0.95081 0.74135 0.80979 0.0
Li1321 Li 0.96547 0.71864 0.84022 0.0
Li1322 Li 0.97536 0.7149 0.80049 0.0
Li1323 Li 0.94129 0.70394 0.81107 0.0
C1324 C 0.98724 0.75896 0.82204 0.0
N1325 N 0.00061 0.80009 0.82491 0.0
C1326 C 0.9881 0.769 0.84289 0.0
C1327 C 0.99341 0.76973 0.80269 0.0
C1328 C 0.99485 0.78983 0.84398 0.0
C1329 C 4e-05 0.79055 0.80448 0.0
C1330 C 0.91513 0.72302 0.83846 0.0
C1331 C 0.88775 0.70235 0.85545 0.0
N1332 N 0.87319 0.71487 0.84555 0.0
C1333 C 0.8999 0.73568 0.82846 0.0
C1334 C 0.90903 0.70623 0.8521 0.0
C1335 C 0.87878 0.73131 0.83227 0.0
C1336 C 0.93125 0.77234 0.78351 0.0
N1337 N 0.94012 0.76854 0.80386 0.0
C1338 C 0.92922 0.80207 0.81743 0.0
C1339 C 0.93938 0.78293 0.82069 0.0
C1340 C 0.9193 0.80609 0.79686 0.0
C1341 C 0.92064 0.79112 0.77964 0.0
H1342 H 0.93158 0.76041 0.77063 0.0
H1343 H 0.94587 0.77918 0.83696 0.0
C1344 C 0.99456 0.71817 0.876 0.0
N1345 N 0.97388 0.71803 0.87073 0.0
C1346 C 0.0009 0.71793 0.89846 0.0
C1347 C 0.96453 0.71774 0.90957 0.0
C1348 C 0.95892 0.718 0.88693 0.0
C1349 C 0.98577 0.71763 0.91559 0.0
H1350 H 0.00613 0.71865 0.86276 0.0
H1351 H 0.94261 0.71841 0.88229 0.0
C1352 C 0.95206 0.71877 0.76258 0.0
N1353 N 0.95911 0.71388 0.7171 0.0
C1354 C 0.94386 0.70142 0.75122 0.0
C1355 C 0.96361 0.73376 0.75076 0.0
C1356 C 0.94765 0.6992 0.72823 0.0
C1357 C 0.96708 0.73097 0.72779 0.0
C1358 C 0.98151 0.67691 0.8169 0.0
C1359 C 0.97612 0.66168 0.80103 0.0
C1360 C 0.00151 0.67677 0.82638 0.0
C1361 C 0.99089 0.64661 0.79481 0.0
C1362 C 0.01586 0.66149 0.81965 0.0
N1363 N 0.0103 0.64685 0.80414 0.0
C1364 C 0.01795 0.71593 0.78842 0.0
C1365 C 0.99746 0.69367 0.76536 0.0
C1366 C 0.03623 0.70913 0.77784 0.0
N1367 N -0.00092 0.70793 0.78226 0.0
C1368 C 0.01527 0.68659 0.75421 0.0
C1369 C 0.03501 0.69402 0.76072 0.0
H1370 H 0.01889 0.72697 0.80218 0.0
H1371 H 0.9825 0.68687 0.76129 0.0
C1372 C 0.90243 0.69036 0.79389 0.0
N1373 N 0.91928 0.68447 0.80627 0.0
C1374 C 0.8866 0.67593 0.78913 0.0
C1375 C 0.9057 0.64978 0.81023 0.0
C1376 C 0.92096 0.66481 0.81488 0.0
C1377 C 0.88832 0.65515 0.79692 0.0
H1378 H 0.90146 0.7062 0.78744 0.0
H1379 H 0.93443 0.66067 0.82493 0.0
O1380 O 0.98057 0.73863 0.8206 0.0
O1381 O 0.93588 0.72671 0.83449 0.0
O1382 O 0.94838 0.72128 0.78504 0.0
O1383 O 0.96743 0.6921 0.82284 0.0
H1384 H 0.98339 0.76088 0.85803 0.0
H1385 H 0.99308 0.76208 0.78649 0.0
H1386 H 0.99547 0.79786 0.85997 0.0
H1387 H 0.00478 0.79911 0.78964 0.0
H1388 H 0.88281 0.68932 0.86582 0.0
H1389 H 0.90429 0.74864 0.81774 0.0
H1390 H 0.9206 0.69603 0.85964 0.0
H1391 H 0.86683 0.74095 0.82459 0.0
H1392 H 0.92812 0.81309 0.83123 0.0
H1393 H 0.91303 0.79367 0.76362 0.0
H1394 H 0.01744 0.71779 0.90236 0.0
H1395 H 0.95236 0.71797 0.92222 0.0
H1396 H 0.93489 0.68966 0.7601 0.0
H1397 H 0.96985 0.74739 0.75925 0.0
H1398 H 0.94153 0.68578 0.71925 0.0
H1399 H 0.97609 0.74239 0.71845 0.0
H1400 H 0.96085 0.66176 0.7932 0.0
H1401 H 0.00598 0.68849 0.83858 0.0
H1402 H 0.98698 0.63483 0.78242 0.0
H1403 H 0.03145 0.66131 0.82672 0.0
H1404 H 0.05119 0.71523 0.78334 0.0
H1405 H 0.01369 0.67458 0.74145 0.0
H1406 H 0.87333 0.68095 0.77921 0.0
H1407 H 0.90794 0.63396 0.81639 0.0
C1408 C 0.34235 0.40603 0.28751 0.0
C1409 C 0.32306 0.39699 0.29329 0.0
C1410 C 0.36063 0.3938 0.28651 0.0
C1411 C 0.35953 0.37208 0.29139 0.0
C1412 C 0.34011 0.36292 0.29722 0.0
C1413 C 0.32219 0.37548 0.29821 0.0
C1414 C 0.38111 0.40408 0.28032 0.0
C1415 C 0.33825 0.33981 0.30261 0.0
C1416 C 0.39877 0.33148 0.27206 0.0
C1417 C 0.40894 0.32664 0.29229 0.0
C1418 C 0.38358 0.34735 0.27109 0.0
C1419 C 0.37854 0.35868 0.29081 0.0
C1420 C 0.38985 0.35494 0.31084 0.0
C1421 C 0.40486 0.33891 0.31137 0.0
C1422 C 0.37192 0.35093 0.24938 0.0
C1423 C 0.38502 0.36677 0.3322 0.0
H1424 H 0.34311 0.42262 0.28357 0.0
H1425 H 0.30747 0.36845 0.3032 0.0
H1426 H 0.39257 0.40199 0.29413 0.0
H1427 H 0.38778 0.39645 0.26519 0.0
H1428 H 0.37932 0.42113 0.27693 0.0
H1429 H 0.3219 0.33508 0.30642 0.0
H1430 H 0.34393 0.33031 0.28824 0.0
H1431 H 0.34818 0.33591 0.31731 0.0
H1432 H 0.40213 0.32233 0.25715 0.0
H1433 H 0.41248 0.33519 0.32714 0.0
H1434 H 0.37071 0.36794 0.24567 0.0
H1435 H 0.35577 0.34474 0.25101 0.0
H1436 H 0.37957 0.34298 0.23495 0.0
H1437 H 0.38369 0.38383 0.32883 0.0
H1438 H 0.39716 0.36425 0.34528 0.0
H1439 H 0.36976 0.3614 0.33898 0.0
C1440 C 0.38775 0.672 0.72392 0.0
C1441 C 0.40536 0.67136 0.70989 0.0
C1442 C 0.37341 0.65534 0.72436 0.0
C1443 C 0.37681 0.63765 0.71044 0.0
C1444 C 0.3953 0.63629 0.69746 0.0
C1445 C 0.40935 0.6532 0.69731 0.0
C1446 C 0.35388 0.6574 0.73844 0.0
C1447 C 0.39957 0.6176 0.68256 0.0
C1448 C 0.34138 0.59017 0.71794 0.0
C1449 C 0.32632 0.59376 0.70124 0.0
C1450 C 0.35816 0.60414 0.721 0.0
C1451 C 0.35976 0.62212 0.70713 0.0
C1452 C 0.34465 0.62571 0.69018 0.0
C1453 C 0.32815 0.61151 0.68747 0.0
C1454 C 0.37405 0.59979 0.73917 0.0
C1455 C 0.3457 0.64477 0.67512 0.0
H1456 H 0.38447 0.68605 0.73355 0.0
H1457 H 0.42312 0.65252 0.6867 0.0
H1458 H 0.34021 0.66 0.72728 0.0
H1459 H 0.35093 0.64277 0.74802 0.0
H1460 H 0.35487 0.67072 0.75044 0.0
H1461 H 0.41585 0.61759 0.67604 0.0
H1462 H 0.3968 0.60275 0.69183 0.0
H1463 H 0.38868 0.61786 0.66806 0.0
H1464 H 0.34007 0.5764 0.72855 0.0
H1465 H 0.31632 0.61461 0.67485 0.0
H1466 H 0.3739 0.61271 0.75166 0.0
H1467 H 0.38999 0.59924 0.73184 0.0
H1468 H 0.37097 0.58476 0.74803 0.0
H1469 H 0.3447 0.65927 0.68539 0.0
H1470 H 0.33291 0.64504 0.66249 0.0
H1471 H 0.36089 0.64516 0.66612 0.0
C1472 C 0.59137 0.65861 0.28777 0.0
C1473 C 0.59295 0.6727 0.3058 0.0
C1474 C 0.60568 0.64201 0.28535 0.0
C1475 C 0.62192 0.63958 0.30129 0.0
C1476 C 0.62328 0.65346 0.31978 0.0
C1477 C 0.60883 0.66985 0.32177 0.0
C1478 C 0.60373 0.62744 0.26548 0.0
C1479 C 0.64044 0.65146 0.3371 0.0
C1480 C 0.65345 0.58964 0.30854 0.0
C1481 C 0.67231 0.59512 0.29802 0.0
C1482 C 0.63641 0.60352 0.30871 0.0
C1483 C 0.63835 0.62335 0.29819 0.0
C1484 C 0.65699 0.62854 0.28663 0.0
C1485 C 0.67375 0.61437 0.28671 0.0
C1486 C 0.61673 0.5974 0.32109 0.0
C1487 C 0.6597 0.64956 0.27525 0.0
H1488 H 0.57904 0.66064 0.27548 0.0
H1489 H 0.61043 0.6809 0.3355 0.0
H1490 H 0.61756 0.62927 0.25439 0.0
H1491 H 0.60346 0.61088 0.27122 0.0
H1492 H 0.58941 0.63055 0.25547 0.0
H1493 H 0.63867 0.66291 0.35105 0.0
H1494 H 0.64053 0.6354 0.3443 0.0
H1495 H 0.65587 0.65403 0.32903 0.0
H1496 H 0.65217 0.57466 0.31705 0.0
H1497 H 0.68835 0.61885 0.2788 0.0
H1498 H 0.60276 0.60038 0.31051 0.0
H1499 H 0.61514 0.60715 0.33644 0.0
H1500 H 0.6168 0.58061 0.32614 0.0
H1501 H 0.64623 0.65288 0.26407 0.0
H1502 H 0.67431 0.65035 0.26518 0.0
H1503 H 0.66019 0.66214 0.28813 0.0
C1504 C 0.59597 0.33465 0.72509 0.0
C1505 C 0.59913 0.32065 0.70722 0.0
C1506 C 0.6087 0.35248 0.72764 0.0
C1507 C 0.62495 0.35628 0.71199 0.0
C1508 C 0.62783 0.34247 0.69364 0.0
C1509 C 0.61484 0.32491 0.69144 0.0
C1510 C 0.60512 0.36696 0.74733 0.0
C1511 C 0.64493 0.34598 0.67651 0.0
C1512 C 0.65222 0.40832 0.70285 0.0
C1513 C 0.67159 0.40457 0.71313 0.0
C1514 C 0.63616 0.39331 0.70375 0.0
C1515 C 0.63969 0.37408 0.71504 0.0
C1516 C 0.6587 0.37083 0.72671 0.0
C1517 C 0.67442 0.38614 0.72564 0.0
C1518 C 0.61599 0.39748 0.69137 0.0
C1519 C 0.66312 0.35051 0.73886 0.0
H1520 H 0.58389 0.33139 0.73738 0.0
H1521 H 0.61705 0.31442 0.6773 0.0
H1522 H 0.61876 0.36629 0.75883 0.0
H1523 H 0.60368 0.38342 0.74146 0.0
H1524 H 0.59084 0.36274 0.75696 0.0
H1525 H 0.64478 0.33398 0.66298 0.0
H1526 H 0.64323 0.3617 0.66873 0.0
H1527 H 0.66043 0.34554 0.6849 0.0
H1528 H 0.64988 0.42268 0.69341 0.0
H1529 H 0.68942 0.38305 0.73344 0.0
H1530 H 0.60234 0.39305 0.70186 0.0
H1531 H 0.61545 0.38772 0.67594 0.0
H1532 H 0.61444 0.41421 0.68641 0.0
H1533 H 0.64975 0.34613 0.74977 0.0
H1534 H 0.67745 0.35147 0.74936 0.0
H1535 H 0.66522 0.33773 0.72641 0.0
C1536 C 0.84054 0.90275 0.77796 0.0
C1537 C 0.82945 0.90532 0.79809 0.0
C1538 C 0.85737 0.88866 0.77658 0.0
C1539 C 0.8629 0.87664 0.79568 0.0
C1540 C 0.85232 0.87986 0.81628 0.0
C1541 C 0.83579 0.89426 0.81726 0.0
C1542 C 0.86857 0.88594 0.75445 0.0
C1543 C 0.85756 0.86717 0.83696 0.0
C1544 C 0.88484 0.82198 0.78774 0.0
C1545 C 0.90569 0.82468 0.79433 0.0
C1546 C 0.87091 0.83893 0.78752 0.0
C1547 C 0.87813 0.85914 0.79367 0.0
C1548 C 0.89942 0.86213 0.79939 0.0
C1549 C 0.91293 0.84476 0.79994 0.0
C1550 C 0.84825 0.835 0.78169 0.0
C1551 C 0.90775 0.88353 0.80555 0.0
H1552 H 0.83574 0.91144 0.76317 0.0
H1553 H 0.82709 0.89603 0.83277 0.0
H1554 H 0.88576 0.8862 0.757 0.0
H1555 H 0.86451 0.87047 0.74712 0.0
H1556 H 0.8643 0.89835 0.74218 0.0
H1557 H 0.84892 0.87266 0.85204 0.0
H1558 H 0.85358 0.85044 0.834 0.0
H1559 H 0.87457 0.86795 0.84051 0.0
H1560 H 0.87919 0.80639 0.78369 0.0
H1561 H 0.9291 0.84681 0.80495 0.0
H1562 H 0.84326 0.84553 0.76786 0.0
H1563 H 0.83825 0.83858 0.79645 0.0
H1564 H 0.84534 0.8185 0.77653 0.0
H1565 H 0.90316 0.89525 0.79268 0.0
H1566 H 0.92506 0.8836 0.80721 0.0
H1567 H 0.90085 0.88864 0.82175 0.0
C1568 C 0.84799 0.08465 0.19723 0.0
C1569 C 0.82945 0.08753 0.20942 0.0
C1570 C 0.86404 0.09965 0.19795 0.0
C1571 C 0.86137 0.11798 0.21107 0.0
C1572 C 0.84334 0.12023 0.22465 0.0
C1573 C 0.82759 0.10495 0.22367 0.0
C1574 C 0.88315 0.09658 0.18343 0.0
C1575 C 0.83988 0.13956 0.23883 0.0
C1576 C 0.9062 0.15655 0.21917 0.0
C1577 C 0.9019 0.17132 0.20232 0.0
C1578 C 0.89333 0.13887 0.22212 0.0
C1579 C 0.87573 0.13608 0.208 0.0
C1580 C 0.87138 0.15095 0.19097 0.0
C1581 C 0.8845 0.16835 0.18835 0.0
C1582 C 0.89847 0.12325 0.24037 0.0
C1583 C 0.85266 0.14866 0.17566 0.0
H1584 H 0.84959 0.07105 0.18643 0.0
H1585 H 0.81321 0.10737 0.23298 0.0
H1586 H 0.88241 0.10743 0.16887 0.0
H1587 H 0.89758 0.10034 0.19295 0.0
H1588 H 0.88433 0.08027 0.17696 0.0
H1589 H 0.8266 0.1376 0.25069 0.0
H1590 H 0.85415 0.14345 0.24856 0.0
H1591 H 0.83645 0.15312 0.22772 0.0
H1592 H 0.9197 0.15876 0.22992 0.0
H1593 H 0.88086 0.17993 0.17559 0.0
H1594 H 0.90032 0.10736 0.23303 0.0
H1595 H 0.8854 0.12242 0.2526 0.0
H1596 H 0.91303 0.1274 0.24953 0.0
H1597 H 0.85343 0.13348 0.16658 0.0
H1598 H 0.85164 0.16151 0.1631 0.0
H1599 H 0.83806 0.1486 0.18575 0.0
C1600 C 0.09346 0.16182 0.77502 0.0
C1601 C 0.09492 0.17539 0.7935 0.0
C1602 C 0.1074 0.14492 0.77255 0.0
C1603 C 0.12326 0.14177 0.78881 0.0
C1604 C 0.1247 0.15539 0.80753 0.0
C1605 C 0.11048 0.17197 0.80966 0.0
C1606 C 0.10529 0.13056 0.75252 0.0
C1607 C 0.14153 0.15272 0.82511 0.0
C1608 C 0.15234 0.09076 0.79806 0.0
C1609 C 0.17175 0.0953 0.78823 0.0
C1610 C 0.13581 0.1052 0.79704 0.0
C1611 C 0.1389 0.12471 0.78617 0.0
C1612 C 0.15806 0.12886 0.7751 0.0
C1613 C 0.17424 0.11405 0.7762 0.0
C1614 C 0.1155 0.1001 0.80877 0.0
C1615 C 0.16203 0.14954 0.76346 0.0
H1616 H 0.08137 0.16438 0.76256 0.0
H1617 H 0.11189 0.18265 0.82376 0.0
H1618 H 0.11961 0.13147 0.74204 0.0
H1619 H 0.10372 0.11405 0.7582 0.0
H1620 H 0.09158 0.13461 0.74191 0.0
H1621 H 0.14032 0.16454 0.83877 0.0
H1622 H 0.14054 0.13684 0.83267 0.0
H1623 H 0.15718 0.15415 0.81721 0.0
H1624 H 0.15032 0.07615 0.80716 0.0
H1625 H 0.18929 0.11773 0.76877 0.0
H1626 H 0.10199 0.10388 0.7978 0.0
H1627 H 0.11405 0.10982 0.82415 0.0
H1628 H 0.11457 0.0833 0.81369 0.0
H1629 H 0.14888 0.1535 0.75208 0.0
H1630 H 0.17676 0.14937 0.75356 0.0
H1631 H 0.16311 0.16221 0.77619 0.0
C1632 C 0.17043 0.8934 0.23022 0.0
C1633 C 0.17459 0.90431 0.21028 0.0
C1634 C 0.15386 0.87901 0.23146 0.0
C1635 C 0.14156 0.87513 0.21213 0.0
C1636 C 0.14505 0.88692 0.19231 0.0
C1637 C 0.16146 0.90153 0.1917 0.0
C1638 C 0.15032 0.86709 0.25305 0.0
C1639 C 0.13251 0.88302 0.17123 0.0
C1640 C 0.12073 0.81991 0.20481 0.0
C1641 C 0.09941 0.82254 0.20932 0.0
C1642 C 0.13456 0.83692 0.20574 0.0
C1643 C 0.12692 0.85702 0.21171 0.0
C1644 C 0.10543 0.85971 0.21673 0.0
C1645 C 0.09183 0.84243 0.21521 0.0
C1646 C 0.15729 0.83345 0.19987 0.0
C1647 C 0.09684 0.88081 0.22359 0.0
H1648 H 0.18056 0.89568 0.24462 0.0
H1649 H 0.16483 0.90984 0.17621 0.0
H1650 H 0.13343 0.86677 0.25733 0.0
H1651 H 0.15551 0.8506 0.25091 0.0
H1652 H 0.15909 0.87406 0.26733 0.0
H1653 H 0.13572 0.89492 0.15803 0.0
H1654 H 0.13643 0.86729 0.16443 0.0
H1655 H 0.11553 0.88309 0.17499 0.0
H1656 H 0.12651 0.80457 0.19992 0.0
H1657 H 0.07532 0.8444 0.21874 0.0
H1658 H 0.16737 0.83789 0.21427 0.0
H1659 H 0.16175 0.8436 0.18549 0.0
H1660 H 0.16064 0.81687 0.19536 0.0
H1661 H 0.10558 0.88689 0.23831 0.0
H1662 H 0.07995 0.88006 0.22791 0.0
H1663 H 0.09896 0.89226 0.20974 0.0
C1664 C 0.19251 0.56463 0.24137 0.0
C1665 C 0.18461 0.55487 0.26072 0.0
C1666 C 0.18191 0.58155 0.23139 0.0
C1667 C 0.16296 0.58877 0.24096 0.0
C1668 C 0.15509 0.57917 0.26066 0.0
C1669 C 0.16599 0.56234 0.27026 0.0
C1670 C 0.19081 0.5915 0.21045 0.0
C1671 C 0.13488 0.58634 0.27132 0.0
C1672 C 0.14051 0.64262 0.22824 0.0
C1673 C 0.12436 0.63762 0.21321 0.0
C1674 C 0.1538 0.62698 0.23674 0.0
C1675 C 0.15082 0.60587 0.23007 0.0
C1676 C 0.13507 0.60086 0.21424 0.0
C1677 C 0.12205 0.6168 0.20599 0.0
C1678 C 0.17044 0.63292 0.25357 0.0
C1679 C 0.13145 0.57854 0.20665 0.0
H1680 H 0.20698 0.55903 0.23403 0.0
H1681 H 0.15958 0.55463 0.28497 0.0
H1682 H 0.17973 0.58946 0.19628 0.0
H1683 H 0.19287 0.60862 0.21302 0.0
H1684 H 0.20611 0.58459 0.20561 0.0
H1685 H 0.13129 0.57768 0.28706 0.0
H1686 H 0.13568 0.60334 0.27521 0.0
H1687 H 0.12175 0.58403 0.25939 0.0
H1688 H 0.14228 0.65864 0.23404 0.0
H1689 H 0.10983 0.61291 0.19408 0.0
H1690 H 0.18579 0.62632 0.24852 0.0
H1691 H 0.16647 0.62617 0.27022 0.0
H1692 H 0.17203 0.6502 0.2554 0.0
H1693 H 0.14626 0.57156 0.20047 0.0
H1694 H 0.11953 0.57748 0.19312 0.0
H1695 H 0.12611 0.56891 0.22109 0.0
C1696 C 0.571 0.81203 0.7402 0.0
C1697 C 0.55138 0.81462 0.75035 0.0
C1698 C 0.58864 0.82274 0.74827 0.0
C1699 C 0.58658 0.83635 0.76694 0.0
C1700 C 0.56704 0.8382 0.77795 0.0
C1701 C 0.54967 0.82731 0.76951 0.0
C1702 C 0.60922 0.82035 0.7361 0.0
C1703 C 0.56425 0.85245 0.79798 0.0
C1704 C 0.63552 0.8567 0.796 0.0
C1705 C 0.63784 0.87647 0.78593 0.0
C1706 C 0.61891 0.84339 0.79 0.0
C1707 C 0.6043 0.85009 0.77364 0.0
C1708 C 0.60652 0.87008 0.76354 0.0
C1709 C 0.62326 0.88301 0.76981 0.0
C1710 C 0.61705 0.82215 0.80105 0.0
C1711 C 0.59118 0.87786 0.74613 0.0
H1712 H 0.57239 0.80239 0.72526 0.0
H1713 H 0.53459 0.82911 0.77761 0.0
H1714 H 0.61319 0.83529 0.72751 0.0
H1715 H 0.62198 0.81696 0.74819 0.0
H1716 H 0.60874 0.80764 0.72334 0.0
H1717 H 0.54859 0.85067 0.80585 0.0
H1718 H 0.57639 0.84919 0.81082 0.0
H1719 H 0.56617 0.86903 0.79267 0.0
H1720 H 0.64686 0.85152 0.80834 0.0
H1721 H 0.62478 0.89843 0.76228 0.0
H1722 H 0.61779 0.80962 0.78814 0.0
H1723 H 0.60168 0.82073 0.80956 0.0
H1724 H 0.6296 0.81937 0.8136 0.0
H1725 H 0.5908 0.86692 0.73164 0.0
H1726 H 0.59518 0.89379 0.73987 0.0
H1727 H 0.57519 0.87831 0.75336 0.0
C1728 C 0.85139 0.35772 0.21063 0.0
C1729 C 0.87316 0.36039 0.21126 0.0
C1730 C 0.83793 0.37337 0.21882 0.0
C1731 C 0.84649 0.39197 0.22799 0.0
C1732 C 0.86845 0.39476 0.22857 0.0
C1733 C 0.8815 0.37895 0.22018 0.0
C1734 C 0.81458 0.36995 0.2178 0.0
C1735 C 0.8782 0.41432 0.23838 0.0
C1736 C 0.81575 0.44252 0.23389 0.0
C1737 C 0.81142 0.44269 0.25698 0.0
C1738 C 0.82626 0.42557 0.22395 0.0
C1739 C 0.83268 0.40849 0.23749 0.0
C1740 C 0.82753 0.40815 0.26061 0.0
C1741 C 0.81692 0.42525 0.27007 0.0
C1742 C 0.8313 0.42639 0.19919 0.0
C1743 C 0.8342 0.39025 0.27561 0.0
H1744 H 0.8449 0.34345 0.20359 0.0
H1745 H 0.89832 0.38093 0.22105 0.0
H1746 H 0.80795 0.37007 0.23502 0.0
H1747 H 0.80706 0.38295 0.20839 0.0
H1748 H 0.81042 0.35486 0.20961 0.0
H1749 H 0.89554 0.41414 0.2373 0.0
H1750 H 0.87233 0.42841 0.22944 0.0
H1751 H 0.87365 0.41592 0.25629 0.0
H1752 H 0.81127 0.45586 0.22366 0.0
H1753 H 0.81379 0.4254 0.28797 0.0
H1754 H 0.8266 0.41154 0.19088 0.0
H1755 H 0.84844 0.42813 0.19689 0.0
H1756 H 0.82339 0.43968 0.19061 0.0
H1757 H 0.82949 0.375 0.26818 0.0
H1758 H 0.82737 0.39147 0.29272 0.0
H1759 H 0.85149 0.39015 0.27714 0.0
C1760 C 0.44386 0.16701 0.75658 0.0
C1761 C 0.44166 0.18763 0.74874 0.0
C1762 C 0.42669 0.15593 0.76516 0.0
C1763 C 0.40689 0.16582 0.76619 0.0
C1764 C 0.4047 0.18687 0.75892 0.0
C1765 C 0.42211 0.19748 0.75005 0.0
C1766 C 0.42961 0.1334 0.7724 0.0
C1767 C 0.38391 0.19803 0.76013 0.0
C1768 C 0.35999 0.12939 0.76547 0.0
C1769 C 0.35548 0.12748 0.78842 0.0
C1770 C 0.37638 0.14223 0.75798 0.0
C1771 C 0.38835 0.15366 0.77381 0.0
C1772 C 0.38338 0.15237 0.79695 0.0
C1773 C 0.3671 0.13913 0.80401 0.0
C1774 C 0.38138 0.14293 0.73319 0.0
C1775 C 0.39558 0.16459 0.81428 0.0
H1776 H 0.45891 0.15927 0.75527 0.0
H1777 H 0.42044 0.21346 0.74407 0.0
H1778 H 0.42437 0.13133 0.79002 0.0
H1779 H 0.41983 0.12297 0.76179 0.0
H1780 H 0.44615 0.12822 0.77108 0.0
H1781 H 0.38516 0.21483 0.75532 0.0
H1782 H 0.37255 0.19029 0.74874 0.0
H1783 H 0.37745 0.19701 0.7774 0.0
H1784 H 0.35117 0.12021 0.75341 0.0
H1785 H 0.3635 0.13778 0.82175 0.0
H1786 H 0.39727 0.13647 0.73027 0.0
H1787 H 0.38143 0.15938 0.72712 0.0
H1788 H 0.37003 0.13379 0.723 0.0
H1789 H 0.41192 0.15876 0.81492 0.0
H1790 H 0.38866 0.16322 0.83133 0.0
H1791 H 0.39624 0.18142 0.80956 0.0
C1792 C 0.18975 0.4278 0.74964 0.0
C1793 C 0.17891 0.44608 0.74351 0.0
C1794 C 0.17903 0.4101 0.75775 0.0
C1795 C 0.15699 0.41078 0.7599 0.0
C1796 C 0.14601 0.42925 0.75404 0.0
C1797 C 0.15707 0.4466 0.7458 0.0
C1798 C 0.19123 0.39062 0.76376 0.0
C1799 C 0.1225 0.43062 0.75616 0.0
C1800 C 0.12361 0.36161 0.75957 0.0
C1801 C 0.11846 0.35956 0.78238 0.0
C1802 C 0.13696 0.37765 0.75215 0.0
C1803 C 0.14518 0.39212 0.76788 0.0
C1804 C 0.14066 0.38971 0.791 0.0
C1805 C 0.12744 0.3734 0.79799 0.0
C1806 C 0.14153 0.37964 0.72735 0.0
C1807 C 0.14911 0.40486 0.80827 0.0
H1808 H 0.20663 0.42733 0.74813 0.0
H1809 H 0.14849 0.46045 0.74067 0.0
H1810 H 0.18821 0.38624 0.7815 0.0
H1811 H 0.18598 0.37729 0.75318 0.0
H1812 H 0.20834 0.39273 0.76142 0.0
H1813 H 0.1164 0.44637 0.75159 0.0
H1814 H 0.11503 0.41879 0.74509 0.0
H1815 H 0.11768 0.42703 0.77365 0.0
H1816 H 0.1166 0.35115 0.74736 0.0
H1817 H 0.12387 0.37167 0.81569 0.0
H1818 H 0.15861 0.38107 0.72448 0.0
H1819 H 0.13411 0.39411 0.72071 0.0
H1820 H 0.13558 0.36602 0.71762 0.0
H1821 H 0.16631 0.4064 0.80654 0.0
H1822 H 0.14543 0.3999 0.82572 0.0
H1823 H 0.14227 0.42064 0.80542 0.0
C1824 C 0.38258 0.88973 0.22593 0.0
C1825 C 0.36479 0.88198 0.21488 0.0
C1826 C 0.39845 0.87621 0.23329 0.0
C1827 C 0.39674 0.85441 0.22916 0.0
C1828 C 0.37911 0.84648 0.21757 0.0
C1829 C 0.36327 0.86033 0.21072 0.0
C1830 C 0.41697 0.88527 0.24573 0.0
C1831 C 0.37689 0.82335 0.21263 0.0
C1832 C 0.44798 0.82468 0.23336 0.0
C1833 C 0.44686 0.81662 0.25523 0.0
C1834 C 0.43132 0.83617 0.2242 0.0
C1835 C 0.4133 0.83998 0.23742 0.0
C1836 C 0.41181 0.83124 0.25924 0.0
C1837 C 0.42858 0.81953 0.26783 0.0
C1838 C 0.43331 0.84489 0.20071 0.0
C1839 C 0.39299 0.83518 0.27397 0.0
H1840 H 0.38415 0.90644 0.22881 0.0
H1841 H 0.3495 0.85412 0.20245 0.0
H1842 H 0.41817 0.87803 0.26263 0.0
H1843 H 0.43164 0.88158 0.2366 0.0
H1844 H 0.41584 0.90256 0.24775 0.0
H1845 H 0.36275 0.81984 0.20245 0.0
H1846 H 0.39087 0.8176 0.20346 0.0
H1847 H 0.37593 0.81442 0.22859 0.0
H1848 H 0.46208 0.82229 0.22356 0.0
H1849 H 0.4278 0.8135 0.28484 0.0
H1850 H 0.4344 0.86225 0.20144 0.0
H1851 H 0.41923 0.84094 0.19067 0.0
H1852 H 0.44736 0.83878 0.19188 0.0
H1853 H 0.39204 0.85213 0.27809 0.0
H1854 H 0.39365 0.82614 0.28991 0.0
H1855 H 0.37841 0.83096 0.26494 0.0
C1856 C 0.80563 0.56584 0.75865 0.0
C1857 C 0.81753 0.55036 0.74776 0.0
C1858 C 0.81515 0.58382 0.76772 0.0
C1859 C 0.83711 0.5862 0.76618 0.0
C1860 C 0.84923 0.57052 0.75553 0.0
C1861 C 0.83929 0.55296 0.74625 0.0
C1862 C 0.80171 0.60039 0.77868 0.0
C1863 C 0.87273 0.57238 0.75371 0.0
C1864 C 0.86453 0.63884 0.76827 0.0
C1865 C 0.87292 0.63881 0.79007 0.0
C1866 C 0.85176 0.62239 0.76073 0.0
C1867 C 0.8476 0.60525 0.77516 0.0
C1868 C 0.85526 0.60548 0.79746 0.0
C1869 C 0.86764 0.62235 0.80471 0.0
C1870 C 0.8436 0.62287 0.73693 0.0
C1871 C 0.85131 0.58738 0.81329 0.0
H1872 H 0.78885 0.5639 0.76016 0.0
H1873 H 0.84864 0.54144 0.73742 0.0
H1874 H 0.80677 0.6029 0.7963 0.0
H1875 H 0.80365 0.61555 0.76975 0.0
H1876 H 0.78486 0.59613 0.77863 0.0
H1877 H 0.87996 0.55832 0.74588 0.0
H1878 H 0.87687 0.58633 0.74349 0.0
H1879 H 0.87968 0.57464 0.77062 0.0
H1880 H 0.86864 0.65127 0.75666 0.0
H1881 H 0.8736 0.62238 0.82175 0.0
H1882 H 0.82667 0.61909 0.7366 0.0
H1883 H 0.85177 0.6108 0.72676 0.0
H1884 H 0.84601 0.6384 0.72883 0.0
H1885 H 0.8344 0.58358 0.81389 0.0
H1886 H 0.85682 0.59076 0.83061 0.0
H1887 H 0.85957 0.57322 0.80705 0.0
C1888 C 0.64442 0.13982 0.21535 0.0
C1889 C 0.63977 0.11881 0.21032 0.0
C1890 C 0.62887 0.15352 0.22324 0.0
C1891 C 0.60823 0.14601 0.22624 0.0
C1892 C 0.60331 0.12501 0.22055 0.0
C1893 C 0.61911 0.11171 0.21259 0.0
C1894 C 0.63467 0.17584 0.22903 0.0
C1895 C 0.58145 0.11642 0.22346 0.0
C1896 C 0.57256 0.17099 0.26952 0.0
C1897 C 0.5587 0.18238 0.25595 0.0
C1898 C 0.58913 0.15959 0.26009 0.0
C1899 C 0.59196 0.15964 0.2365 0.0
C1900 C 0.57847 0.17169 0.22275 0.0
C1901 C 0.56194 0.18287 0.23264 0.0
C1902 C 0.60312 0.14683 0.27531 0.0
C1903 C 0.58113 0.17228 0.19756 0.0
H1904 H 0.66038 0.14538 0.21383 0.0
H1905 H 0.61531 0.09562 0.20832 0.0
H1906 H 0.62388 0.18698 0.22062 0.0
H1907 H 0.63307 0.1783 0.2474 0.0
H1908 H 0.65097 0.17971 0.22404 0.0
H1909 H 0.58003 0.09999 0.2174 0.0
H1910 H 0.57703 0.11687 0.24148 0.0
H1911 H 0.57006 0.12629 0.21421 0.0
H1912 H 0.56998 0.17031 0.28751 0.0
H1913 H 0.55139 0.19184 0.22211 0.0
H1914 H 0.61976 0.15085 0.27227 0.0
H1915 H 0.60119 0.12989 0.27153 0.0
H1916 H 0.59957 0.14942 0.29337 0.0
H1917 H 0.59744 0.17659 0.19317 0.0
H1918 H 0.57032 0.18362 0.18944 0.0
H1919 H 0.57814 0.15647 0.19046 0.0
C1920 C 0.68602 0.06064 0.73667 0.0
C1921 C 0.68031 0.05257 0.75771 0.0
C1922 C 0.67469 0.07712 0.7268 0.0
C1923 C 0.65716 0.08553 0.73819 0.0
C1924 C 0.65148 0.07758 0.75954 0.0
C1925 C 0.66314 0.06123 0.76905 0.0
C1926 C 0.6813 0.08535 0.70411 0.0
C1927 C 0.63278 0.08603 0.77215 0.0
C1928 C 0.63485 0.1391 0.72419 0.0
C1929 C 0.6171 0.13373 0.71158 0.0
C1930 C 0.64852 0.12361 0.73224 0.0
C1931 C 0.64427 0.10225 0.72766 0.0
C1932 C 0.62679 0.09676 0.71432 0.0
C1933 C 0.61344 0.11257 0.70639 0.0
C1934 C 0.66706 0.13006 0.74636 0.0
C1935 C 0.62176 0.07413 0.70905 0.0
H1936 H 0.69938 0.05407 0.72794 0.0
H1937 H 0.65845 0.05481 0.78514 0.0
H1938 H 0.66861 0.08275 0.69171 0.0
H1939 H 0.68405 0.10252 0.70503 0.0
H1940 H 0.69575 0.07764 0.69785 0.0
H1941 H 0.63077 0.07847 0.78883 0.0
H1942 H 0.63442 0.1032 0.77465 0.0
H1943 H 0.61836 0.08343 0.76217 0.0
H1944 H 0.63767 0.15539 0.72848 0.0
H1945 H 0.59996 0.10834 0.69633 0.0
H1946 H 0.68157 0.12269 0.73988 0.0
H1947 H 0.66484 0.12449 0.76385 0.0
H1948 H 0.66925 0.14736 0.74668 0.0
H1949 H 0.63554 0.06628 0.70148 0.0
H1950 H 0.60831 0.07258 0.69736 0.0
H1951 H 0.61797 0.06565 0.72482 0.0
C1952 C 0.11661 0.38588 0.26888 0.0
C1953 C 0.1309 0.37974 0.28549 0.0
C1954 C 0.1003 0.37256 0.26224 0.0
C1955 C 0.09818 0.35262 0.27249 0.0
C1956 C 0.11243 0.34638 0.28941 0.0
C1957 C 0.12864 0.36003 0.29572 0.0
C1958 C 0.08534 0.37984 0.24421 0.0
C1959 C 0.11065 0.32523 0.30068 0.0
C1960 C 0.04429 0.32851 0.26661 0.0
C1961 C 0.04694 0.31566 0.24771 0.0
C1962 C 0.0611 0.33991 0.27555 0.0
C1963 C 0.08102 0.33841 0.2653 0.0
C1964 C 0.08403 0.32463 0.24694 0.0
C1965 C 0.06694 0.31339 0.23835 0.0
C1966 C 0.05732 0.35431 0.29528 0.0
C1967 C 0.10505 0.32261 0.23558 0.0
H1968 H 0.11808 0.40122 0.26118 0.0
H1969 H 0.13978 0.35513 0.3084 0.0
H1970 H 0.08569 0.36877 0.22983 0.0
H1971 H 0.06912 0.37996 0.25084 0.0
H1972 H 0.08916 0.39581 0.23794 0.0
H1973 H 0.12275 0.32291 0.31384 0.0
H1974 H 0.09498 0.3235 0.30848 0.0
H1975 H 0.11223 0.31258 0.28799 0.0
H1976 H 0.02891 0.33006 0.27409 0.0
H1977 H 0.06903 0.30362 0.22362 0.0
H1978 H 0.05898 0.37087 0.28982 0.0
H1979 H 0.06912 0.3515 0.3086 0.0
H1980 H 0.04147 0.3522 0.3026 0.0
H1981 H 0.10896 0.33755 0.22697 0.0
H1982 H 0.10529 0.30976 0.22296 0.0
H1983 H 0.11747 0.31962 0.24818 0.0
C1984 C 0.32144 0.94665 0.73408 0.0
C1985 C 0.31223 0.94593 0.75542 0.0
C1986 C 0.33213 0.92923 0.72541 0.0
C1987 C 0.3339 0.91081 0.73858 0.0
C1988 C 0.32386 0.90972 0.75975 0.0
C1989 C 0.31301 0.92728 0.76787 0.0
C1990 C 0.34233 0.93088 0.7026 0.0
C1991 C 0.32561 0.89045 0.7744 0.0
C1992 C 0.35382 0.86046 0.7118 0.0
C1993 C 0.37515 0.86139 0.71709 0.0
C1994 C 0.34012 0.87649 0.71857 0.0
C1995 C 0.34797 0.89358 0.73123 0.0
C1996 C 0.36947 0.89439 0.73686 0.0
C1997 C 0.38282 0.87834 0.72959 0.0
C1998 C 0.31735 0.87529 0.712 0.0
C1999 C 0.37839 0.91219 0.75061 0.0
H2000 H 0.32066 0.96103 0.72438 0.0
H2001 H 0.30604 0.92679 0.78446 0.0
H2002 H 0.35958 0.9311 0.70457 0.0
H2003 H 0.33833 0.91702 0.69217 0.0
H2004 H 0.33752 0.9453 0.69348 0.0
H2005 H 0.31536 0.89139 0.78944 0.0
H2006 H 0.32146 0.87617 0.76474 0.0
H2007 H 0.34203 0.8886 0.7801 0.0
H2008 H 0.34794 0.84738 0.70201 0.0
H2009 H 0.39928 0.87891 0.73393 0.0
H2010 H 0.31308 0.88923 0.70182 0.0
H2011 H 0.30736 0.87548 0.72724 0.0
H2012 H 0.31373 0.86092 0.70217 0.0
H2013 H 0.37608 0.92728 0.74167 0.0
H2014 H 0.39536 0.91018 0.754 0.0
H2015 H 0.37004 0.91333 0.7669 0.0
C2016 C 0.8785 0.60991 0.27032 0.0
C2017 C 0.86167 0.6183 0.28249 0.0
C2018 C 0.89496 0.62267 0.2629 0.0
C2019 C 0.89479 0.64436 0.26802 0.0
C2020 C 0.87806 0.65292 0.2806 0.0
C2021 C 0.86164 0.63981 0.2876 0.0
C2022 C 0.91251 0.61295 0.24946 0.0
C2023 C 0.87745 0.67595 0.28652 0.0
C2024 C 0.94763 0.67119 0.26384 0.0
C2025 C 0.94659 0.6802 0.24238 0.0
C2026 C 0.93054 0.66021 0.27282 0.0
C2027 C 0.91208 0.65799 0.25989 0.0
C2028 C 0.91072 0.66762 0.2385 0.0
C2029 C 0.92798 0.6787 0.23004 0.0
C2030 C 0.93247 0.65042 0.29583 0.0
C2031 C 0.89139 0.66543 0.22413 0.0
H2032 H 0.87891 0.59324 0.2667 0.0
H2033 H 0.84861 0.64649 0.29678 0.0
H2034 H 0.91373 0.62075 0.23285 0.0
H2035 H 0.92762 0.61532 0.25824 0.0
H2036 H 0.91019 0.59586 0.24674 0.0
H2037 H 0.8637 0.68002 0.29707 0.0
H2038 H 0.89189 0.68041 0.29568 0.0
H2039 H 0.87691 0.68551 0.27096 0.0
H2040 H 0.96194 0.67253 0.27349 0.0
H2041 H 0.9272 0.68546 0.21335 0.0
H2042 H 0.93218 0.63307 0.29431 0.0
H2043 H 0.919 0.65503 0.30649 0.0
H2044 H 0.94716 0.65507 0.30445 0.0
H2045 H 0.88925 0.64873 0.21935 0.0
H2046 H 0.89231 0.67498 0.20855 0.0
H2047 H 0.87731 0.67024 0.23371 0.0
C2048 C 0.69326 0.92893 0.25679 0.0
C2049 C 0.68149 0.94426 0.24552 0.0
C2050 C 0.68355 0.91131 0.2664 0.0
C2051 C 0.66158 0.90905 0.26478 0.0
C2052 C 0.64963 0.92449 0.25351 0.0
C2053 C 0.65974 0.94182 0.24393 0.0
C2054 C 0.69677 0.89508 0.27822 0.0
C2055 C 0.62615 0.92267 0.25145 0.0
C2056 C 0.63412 0.85656 0.26963 0.0
C2057 C 0.62539 0.85785 0.29121 0.0
C2058 C 0.64688 0.87266 0.26123 0.0
C2059 C 0.65086 0.89054 0.27466 0.0
C2060 C 0.64289 0.89151 0.29681 0.0
C2061 C 0.63032 0.87512 0.30485 0.0
C2062 C 0.65522 0.87099 0.23756 0.0
C2063 C 0.6468 0.91034 0.31164 0.0
H2064 H 0.71005 0.93081 0.25826 0.0
H2065 H 0.65056 0.95333 0.23486 0.0
H2066 H 0.69167 0.89349 0.29595 0.0
H2067 H 0.69463 0.87954 0.27013 0.0
H2068 H 0.71367 0.89912 0.27795 0.0
H2069 H 0.61912 0.93626 0.24251 0.0
H2070 H 0.62203 0.90813 0.24221 0.0
H2071 H 0.61897 0.92154 0.26837 0.0
H2072 H 0.63024 0.8434 0.25888 0.0
H2073 H 0.62395 0.87603 0.3217 0.0
H2074 H 0.67221 0.87451 0.23721 0.0
H2075 H 0.64733 0.88273 0.22672 0.0
H2076 H 0.65265 0.85517 0.23024 0.0
H2077 H 0.66374 0.91404 0.31224 0.0
H2078 H 0.64109 0.90785 0.32907 0.0
H2079 H 0.63872 0.92424 0.30452 0.0
C2080 C 0.87398 0.38027 0.72052 0.0
C2081 C 0.85682 0.37274 0.70832 0.0
C2082 C 0.8894 0.36658 0.72854 0.0
C2083 C 0.88777 0.34483 0.72398 0.0
C2084 C 0.87063 0.33714 0.71136 0.0
C2085 C 0.85521 0.3512 0.70384 0.0
C2086 C 0.90727 0.37537 0.74223 0.0
C2087 C 0.86858 0.31411 0.70586 0.0
C2088 C 0.93912 0.31588 0.73112 0.0
C2089 C 0.93721 0.30809 0.75308 0.0
C2090 C 0.92261 0.32679 0.72086 0.0
C2091 C 0.90389 0.33027 0.73297 0.0
C2092 C 0.90147 0.32155 0.75468 0.0
C2093 C 0.91808 0.31042 0.76438 0.0
C2094 C 0.92567 0.33558 0.69753 0.0
C2095 C 0.88177 0.325 0.76819 0.0
H2096 H 0.87508 0.39689 0.72426 0.0
H2097 H 0.84197 0.34541 0.69429 0.0
H2098 H 0.9074 0.36803 0.75914 0.0
H2099 H 0.9224 0.37157 0.73408 0.0
H2100 H 0.9062 0.39266 0.74428 0.0
H2101 H 0.85469 0.31078 0.69524 0.0
H2102 H 0.88279 0.3086 0.69694 0.0
H2103 H 0.8673 0.30485 0.72158 0.0
H2104 H 0.95385 0.31436 0.72227 0.0
H2105 H 0.91628 0.30403 0.78115 0.0
H2106 H 0.92721 0.3529 0.69847 0.0
H2107 H 0.91189 0.33208 0.68684 0.0
H2108 H 0.93988 0.32916 0.68927 0.0
H2109 H 0.88034 0.34188 0.77251 0.0
H2110 H 0.88168 0.31575 0.78402 0.0
H2111 H 0.86779 0.3207 0.75818 0.0
C2112 C 0.38394 0.11707 0.2883 0.0
C2113 C 0.37868 0.13836 0.28687 0.0
C2114 C 0.37014 0.10152 0.28069 0.0
C2115 C 0.35077 0.10747 0.27108 0.0
C2116 C 0.3451 0.12894 0.27025 0.0
C2117 C 0.3591 0.14415 0.27832 0.0
C2118 C 0.37662 0.07878 0.2822 0.0
C2119 C 0.32471 0.1359 0.25986 0.0
C2120 C 0.32967 0.0692 0.228 0.0
C2121 C 0.31427 0.05842 0.24025 0.0
C2122 C 0.34108 0.08567 0.23763 0.0
C2123 C 0.33735 0.09132 0.26025 0.0
C2124 C 0.32164 0.08081 0.27267 0.0
C2125 C 0.31019 0.06458 0.26248 0.0
C2126 C 0.35759 0.09661 0.22374 0.0
C2127 C 0.31736 0.08631 0.29691 0.0
H2128 H 0.399 0.1126 0.29516 0.0
H2129 H 0.3551 0.16065 0.27709 0.0
H2130 H 0.3641 0.06936 0.29026 0.0
H2131 H 0.37903 0.07237 0.26507 0.0
H2132 H 0.39131 0.07669 0.29191 0.0
H2133 H 0.32185 0.15295 0.26222 0.0
H2134 H 0.32492 0.13248 0.24158 0.0
H2135 H 0.31144 0.12705 0.26722 0.0
H2136 H 0.33333 0.06436 0.211 0.0
H2137 H 0.29815 0.05658 0.27201 0.0
H2138 H 0.37329 0.09342 0.23089 0.0
H2139 H 0.35517 0.11384 0.22419 0.0
H2140 H 0.35749 0.09139 0.20593 0.0
H2141 H 0.33144 0.08298 0.3072 0.0
H2142 H 0.30397 0.07733 0.30392 0.0
H2143 H 0.31401 0.10332 0.29854 0.0
C2144 C 0.1403 0.64226 0.71064 0.0
C2145 C 0.13703 0.62048 0.71047 0.0
C2146 C 0.12446 0.65607 0.7176 0.0
C2147 C 0.10495 0.64788 0.72465 0.0
C2148 C 0.10142 0.62596 0.72407 0.0
C2149 C 0.11746 0.61255 0.7169 0.0
C2150 C 0.12872 0.67937 0.71788 0.0
C2151 C 0.08081 0.6166 0.73142 0.0
C2152 C 0.07023 0.67764 0.76523 0.0
C2153 C 0.05417 0.68457 0.75103 0.0
C2154 C 0.0873 0.66636 0.75671 0.0
C2155 C 0.08837 0.66202 0.73341 0.0
C2156 C 0.07269 0.66981 0.71885 0.0
C2157 C 0.0557 0.68092 0.72786 0.0
C2158 C 0.10364 0.65818 0.7728 0.0
C2159 C 0.07342 0.6657 0.69389 0.0
H2160 H 0.15544 0.6485 0.70588 0.0
H2161 H 0.11466 0.59578 0.71637 0.0
H2162 H 0.11646 0.68783 0.70831 0.0
H2163 H 0.12818 0.68526 0.73541 0.0
H2164 H 0.14424 0.68331 0.7106 0.0
H2165 H 0.08047 0.59926 0.72957 0.0
H2166 H 0.07781 0.62056 0.74929 0.0
H2167 H 0.06784 0.62338 0.72141 0.0
H2168 H 0.06896 0.68018 0.78319 0.0
H2169 H 0.04338 0.68644 0.71683 0.0
H2170 H 0.11952 0.6626 0.76699 0.0
H2171 H 0.10296 0.64079 0.77331 0.0
H2172 H 0.10138 0.66425 0.79013 0.0
H2173 H 0.08894 0.6701 0.687 0.0
H2174 H 0.06114 0.67451 0.68465 0.0
H2175 H 0.07119 0.6487 0.69067 0.0
C2176 C 0.22178 0.48795 0.55213 0.0
C2177 C 0.21801 0.50896 0.55791 0.0
C2178 C 0.22187 0.48147 0.52961 0.0
C2179 C 0.21817 0.49638 0.51244 0.0
C2180 C 0.21426 0.51759 0.51814 0.0
C2181 C 0.2142 0.52361 0.5408 0.0
C2182 C 0.2261 0.45872 0.52416 0.0
C2183 C 0.2102 0.53392 0.50029 0.0
C2184 C 0.23747 0.48479 0.45342 0.0
C2185 C 0.219 0.47843 0.44269 0.0
C2186 C 0.23745 0.49053 0.47617 0.0
C2187 C 0.21852 0.48985 0.48848 0.0
C2188 C 0.19987 0.48322 0.47782 0.0
C2189 C 0.20033 0.47761 0.45504 0.0
C2190 C 0.25763 0.49762 0.48695 0.0
C2191 C 0.17941 0.48215 0.49045 0.0
H2192 H 0.22504 0.47659 0.56523 0.0
H2193 H 0.21098 0.53981 0.54516 0.0
H2194 H 0.21295 0.45212 0.51428 0.0
H2195 H 0.24038 0.45744 0.51365 0.0
H2196 H 0.22828 0.44903 0.5395 0.0
H2197 H 0.20743 0.54975 0.50752 0.0
H2198 H 0.22373 0.53483 0.48866 0.0
H2199 H 0.19635 0.5294 0.49015 0.0
H2200 H 0.25188 0.48569 0.44388 0.0
H2201 H 0.18607 0.47244 0.44689 0.0
H2202 H 0.26117 0.48771 0.50179 0.0
H2203 H 0.256 0.514 0.49299 0.0
H2204 H 0.27108 0.49685 0.47517 0.0
H2205 H 0.181 0.47162 0.50519 0.0
H2206 H 0.16638 0.47636 0.47978 0.0
H2207 H 0.17524 0.49794 0.4969 0.0
C2208 C 0.49299 0.77094 0.45326 0.0
C2209 C 0.50907 0.78395 0.44532 0.0
C2210 C 0.48755 0.7707 0.47608 0.0
C2211 C 0.49844 0.78381 0.49131 0.0
C2212 C 0.51449 0.79719 0.48336 0.0
C2213 C 0.51962 0.79708 0.46045 0.0
C2214 C 0.47038 0.75618 0.48397 0.0
C2215 C 0.52635 0.81147 0.49909 0.0
C2216 C 0.47289 0.79581 0.54742 0.0
C2217 C 0.48323 0.78175 0.56174 0.0
C2218 C 0.47775 0.79673 0.52446 0.0
C2219 C 0.49328 0.78323 0.51564 0.0
C2220 C 0.50384 0.76907 0.53002 0.0
C2221 C 0.4987 0.76852 0.55292 0.0
C2222 C 0.46624 0.8121 0.50963 0.0
C2223 C 0.52045 0.75438 0.52119 0.0
H2224 H 0.48496 0.76058 0.44168 0.0
H2225 H 0.53188 0.80736 0.45434 0.0
H2226 H 0.47677 0.74477 0.49627 0.0
H2227 H 0.45801 0.76528 0.49268 0.0
H2228 H 0.46313 0.74733 0.4699 0.0
H2229 H 0.53809 0.82124 0.49014 0.0
H2230 H 0.51532 0.822 0.50801 0.0
H2231 H 0.53453 0.802 0.51202 0.0
H2232 H 0.46111 0.80626 0.55422 0.0
H2233 H 0.50655 0.75744 0.56387 0.0
H2234 H 0.45791 0.80357 0.49608 0.0
H2235 H 0.47754 0.82288 0.50144 0.0
H2236 H 0.45468 0.82161 0.51915 0.0
H2237 H 0.51369 0.74399 0.50812 0.0
H2238 H 0.52732 0.74445 0.53464 0.0
H2239 H 0.5332 0.76351 0.51316 0.0
C2240 C 0.79245 0.52517 0.45897 0.0
C2241 C 0.77553 0.52073 0.4448 0.0
C2242 C 0.79188 0.51971 0.4818 0.0
C2243 C 0.7741 0.50925 0.49052 0.0
C2244 C 0.75694 0.50478 0.47626 0.0
C2245 C 0.75781 0.51071 0.45358 0.0
C2246 C 0.81034 0.52504 0.49656 0.0
C2247 C 0.73786 0.49337 0.48486 0.0
C2248 C 0.7816 0.47689 0.54345 0.0
C2249 C 0.77308 0.49006 0.55999 0.0
C2250 C 0.78182 0.48285 0.52076 0.0
C2251 C 0.77364 0.50262 0.51446 0.0
C2252 C 0.76514 0.51607 0.53102 0.0
C2253 C 0.76481 0.50957 0.55354 0.0
C2254 C 0.79087 0.468 0.50354 0.0
C2255 C 0.75643 0.53736 0.52495 0.0
H2256 H 0.80608 0.53308 0.4522 0.0
H2257 H 0.74482 0.50707 0.44254 0.0
H2258 H 0.80512 0.53462 0.51107 0.0
H2259 H 0.81733 0.51045 0.5034 0.0
H2260 H 0.82265 0.53383 0.48734 0.0
H2261 H 0.72576 0.49129 0.47165 0.0
H2262 H 0.74242 0.47767 0.49128 0.0
H2263 H 0.73085 0.50211 0.4991 0.0
H2264 H 0.78837 0.46196 0.54824 0.0
H2265 H 0.75788 0.51973 0.56609 0.0
H2266 H 0.80447 0.47541 0.49512 0.0
H2267 H 0.77907 0.4646 0.49037 0.0
H2268 H 0.79603 0.45293 0.51111 0.0
H2269 H 0.76864 0.54688 0.51648 0.0
H2270 H 0.75073 0.5461 0.53988 0.0
H2271 H 0.74329 0.53556 0.51293 0.0
C2272 C 0.50031 0.21156 0.45181 0.0
C2273 C 0.4817 0.22014 0.44341 0.0
C2274 C 0.50469 0.21185 0.47489 0.0
C2275 C 0.49001 0.22077 0.48993 0.0
C2276 C 0.47105 0.22917 0.48158 0.0
C2277 C 0.46717 0.22886 0.45838 0.0
C2278 C 0.52518 0.20294 0.48315 0.0
C2279 C 0.45493 0.23858 0.49714 0.0
C2280 C 0.49474 0.20553 0.55141 0.0
C2281 C 0.50539 0.22287 0.56037 0.0
C2282 C 0.48928 0.20479 0.52859 0.0
C2283 C 0.49477 0.22171 0.51435 0.0
C2284 C 0.50527 0.23937 0.52332 0.0
C2285 C 0.51035 0.23978 0.54623 0.0
C2286 C 0.47795 0.18576 0.51963 0.0
C2287 C 0.51142 0.2577 0.50865 0.0
H2288 H 0.51166 0.20502 0.44024 0.0
H2289 H 0.45267 0.23528 0.45194 0.0
H2290 H 0.53437 0.2154 0.49164 0.0
H2291 H 0.52224 0.19042 0.49572 0.0
H2292 H 0.53475 0.19629 0.4693 0.0
H2293 H 0.44074 0.24392 0.48802 0.0
H2294 H 0.45021 0.22689 0.50999 0.0
H2295 H 0.46174 0.25217 0.50619 0.0
H2296 H 0.49106 0.19229 0.56213 0.0
H2297 H 0.51824 0.25341 0.55309 0.0
H2298 H 0.48785 0.17768 0.507 0.0
H2299 H 0.46334 0.1906 0.51101 0.0
H2300 H 0.47393 0.17439 0.5331 0.0
H2301 H 0.5221 0.2523 0.49515 0.0
H2302 H 0.51935 0.27033 0.51829 0.0
H2303 H 0.49738 0.2644 0.5004 0.0
C2304 C 0.71794 0.02401 0.04149 0.0
C2305 C 0.72154 0.00888 0.05817 0.0
C2306 C 0.71763 0.01851 0.01867 0.0
C2307 C 0.72093 0.99735 0.01238 0.0
C2308 C 0.72446 0.98197 0.02911 0.0
C2309 C 0.72475 0.98792 0.0518 0.0
C2310 C 0.71377 0.03534 0.0013 0.0
C2311 C 0.72808 0.95925 0.02303 0.0
C2312 C 0.70203 0.9799 0.95486 0.0
C2313 C 0.72059 0.98039 0.94231 0.0
C2314 C 0.70192 0.98529 0.97772 0.0
C2315 C 0.72083 0.99133 0.98825 0.0
C2316 C 0.73964 0.99177 0.97571 0.0
C2317 C 0.73929 0.98628 0.95289 0.0
C2318 C 0.68158 0.98453 0.99058 0.0
C2319 C 0.7601 0.99821 0.98635 0.0
H2320 H 0.71516 0.04017 0.0463 0.0
H2321 H 0.72782 0.97619 0.06456 0.0
H2322 H 0.72718 0.03616 0.9895 0.0
H2323 H 0.69969 0.0314 0.99126 0.0
H2324 H 0.7115 0.05106 0.00897 0.0
H2325 H 0.73026 0.94917 0.03808 0.0
H2326 H 0.71463 0.95317 0.01322 0.0
H2327 H 0.74216 0.95787 0.01224 0.0
H2328 H 0.68758 0.9751 0.94684 0.0
H2329 H 0.75363 0.98695 0.9432 0.0
H2330 H 0.67797 0.00026 0.99756 0.0
H2331 H 0.68301 0.97358 0.00499 0.0
H2332 H 0.66826 0.97941 0.97993 0.0
H2333 H 0.75887 0.01448 0.99287 0.0
H2334 H 0.77337 0.99747 0.97433 0.0
H2335 H 0.76364 0.98788 0.00085 0.0
C2336 C 0.01936 0.26268 0.95498 0.0
C2337 C 0.01084 0.2778 0.9405 0.0
C2338 C 0.01451 0.26262 0.97797 0.0
C2339 C 0.00071 0.27797 0.98664 0.0
C2340 C 0.9921 0.29331 0.97215 0.0
C2341 C 0.99732 0.29308 0.94927 0.0
C2342 C 0.02402 0.24603 0.99293 0.0
C2343 C 0.9773 0.30991 0.98081 0.0
C2344 C 0.97222 0.26597 0.04105 0.0
C2345 C 0.9839 0.27752 0.05671 0.0
C2346 C 0.97751 0.266 0.01819 0.0
C2347 C 0.99499 0.27776 0.01083 0.0
C2348 C 0.00694 0.28935 0.02654 0.0
C2349 C 0.00122 0.28913 0.04929 0.0
C2350 C 0.96439 0.25347 0.00192 0.0
C2351 C 0.02572 0.30203 0.01929 0.0
H2352 H 0.0296 0.25065 0.94829 0.0
H2353 H 0.99093 0.30501 0.93825 0.0
H2354 H 0.0327 0.25354 0.00691 0.0
H2355 H 0.01147 0.23632 0.00053 0.0
H2356 H 0.03488 0.23553 0.98366 0.0
H2357 H 0.97204 0.32078 0.96736 0.0
H2358 H 0.96333 0.30237 0.98838 0.0
H2359 H 0.985 0.31921 0.99421 0.0
H2360 H 0.95902 0.2567 0.0467 0.0
H2361 H 0.01015 0.29831 0.06125 0.0
H2362 H 0.97424 0.24162 0.9933 0.0
H2363 H 0.95791 0.26396 0.98878 0.0
H2364 H 0.95122 0.24526 0.01035 0.0
H2365 H 0.03726 0.29172 0.01081 0.0
H2366 H 0.03353 0.30994 0.03365 0.0
H2367 H 0.02089 0.31415 0.00695 0.0
C2368 C 0.28484 0.02346 0.95744 0.0
C2369 C 0.27318 0.0122 0.94152 0.0
C2370 C 0.2849 0.01757 0.98014 0.0
C2371 C 0.2731 -7e-05 0.9871 0.0
C2372 C 0.26132 0.98847 0.97114 0.0
C2373 C 0.26147 0.99477 0.94855 0.0
C2374 C 0.29767 0.03017 0.99668 0.0
C2375 C 0.24853 0.96958 0.97794 0.0
C2376 C 0.28864 0.97384 0.04196 0.0
C2377 C 0.27391 0.98221 0.05693 0.0
C2378 C 0.28841 0.97928 0.01912 0.0
C2379 C 0.27311 0.99348 0.0111 0.0
C2380 C 0.25806 0.00182 0.02609 0.0
C2381 C 0.25862 0.99605 0.04883 0.0
C2382 C 0.30461 0.96995 0.0036 0.0
C2383 C 0.24158 0.01709 0.01817 0.0
H2384 H 0.29416 0.03676 0.95208 0.0
H2385 H 0.2522 0.98616 0.93641 0.0
H2386 H 0.28743 0.0363 0.01022 0.0
H2387 H 0.30955 0.01996 0.00475 0.0
H2388 H 0.3058 0.0436 0.9886 0.0
H2389 H 0.24039 0.96226 0.96344 0.0
H2390 H 0.25877 0.95765 0.98589 0.0
H2391 H 0.23666 0.97421 0.99061 0.0
H2392 H 0.30032 0.96293 0.0481 0.0
H2393 H 0.24736 0.00276 0.06039 0.0
H2394 H 0.31422 0.98263 0.99608 0.0
H2395 H 0.29682 0.96155 0.98959 0.0
H2396 H 0.31517 0.95882 0.01241 0.0
H2397 H 0.24917 0.03143 0.01142 0.0
H2398 H 0.23071 0.02175 0.03185 0.0
H2399 H 0.23234 0.01005 0.00432 0.0
C2400 C 0.98132 0.70472 0.95507 0.0
C2401 C 0.99201 0.71745 0.93963 0.0
C2402 C 0.98661 0.7048 0.97793 0.0
C2403 C 0.00301 0.7179 0.98555 0.0
C2404 C 0.01404 0.73061 0.97004 0.0
C2405 C 0.00839 0.73024 0.94726 0.0
C2406 C 0.97453 0.69099 0.99396 0.0
C2407 C 0.03162 0.74479 0.97756 0.0
C2408 C 0.00333 0.73337 0.04713 0.0
C2409 C 0.01821 0.7195 0.05606 0.0
C2410 C 0.99828 0.73304 0.0242 0.0
C2411 C 0.0084 0.71855 0.00983 0.0
C2412 C 0.02349 0.70457 0.01869 0.0
C2413 C 0.02819 0.7052 0.04171 0.0
C2414 C 0.98211 0.74821 0.01536 0.0
C2415 C 0.03458 0.68888 0.00388 0.0
H2416 H 0.96885 0.69456 0.94923 0.0
H2417 H 0.01655 0.7403 0.93548 0.0
H2418 H 0.98537 0.68018 0.0028 0.0
H2419 H 0.96682 0.70078 0.00695 0.0
H2420 H 0.96239 0.68151 0.98529 0.0
H2421 H 0.03897 0.7533 0.96331 0.0
H2422 H 0.02563 0.75647 0.98978 0.0
H2423 H 0.04384 0.73547 0.98626 0.0
H2424 H 0.99578 0.74467 0.05805 0.0
H2425 H 0.0395 0.69425 0.04853 0.0
H2426 H 0.96899 0.73942 0.00758 0.0
H2427 H 0.98909 0.75822 0.00208 0.0
H2428 H 0.97571 0.75851 0.02875 0.0
H2429 H 0.02301 0.67817 0.99604 0.0
H2430 H 0.04614 0.67932 0.01332 0.0
H2431 H 0.04282 0.69715 0.99006 0.0
loop_
_geom_bond_atom_site_label_1
_geom_bond_atom_site_label_2
_geom_bond_distance
_geom_bond_site_symmetry_2
_ccdc_geom_bond_type
Li0 N17 1.990 . S
Li0 O60 1.956 . S
Li0 O61 1.970 . S
Li0 O62 1.961 . S
Li1 N25 1.990 . S
Li1 O60 1.970 . S
Li1 O61 1.956 . S
Li1 O63 1.961 . S
Li2 N47 1.990 . S
Li2 O60 1.961 . S
Li2 O62 1.956 . S
Li2 O63 1.970 . S
Li3 N53 1.990 . S
Li3 O61 1.961 . S
Li3 O62 1.970 . S
Li3 O63 1.956 . S
C4 C6 1.348 . S
C4 C7 1.356 . S
C4 O60 1.325 . S
N5 C8 1.314 . S
N5 C9 1.279 . S
C6 C4 1.348 . S
C6 C8 1.353 . S
C6 H64 0.929 . S
C7 C4 1.356 . S
C7 C9 1.358 . S
C7 H65 0.930 . S
C8 N5 1.314 . S
C8 C6 1.353 . S
C8 H66 0.930 . S
C9 N5 1.279 . S
C9 C7 1.358 . S
C9 H67 0.930 . S
C10 C13 1.348 . S
C10 C14 1.356 . S
C10 O61 1.325 . S
C11 N12 1.279 . S
C11 C14 1.358 . S
C11 H68 0.930 . S
N12 C11 1.279 . S
N12 C15 1.314 . S
C13 C10 1.348 . S
C13 C15 1.353 . S
C13 H69 0.929 . S
C14 C10 1.356 . S
C14 C11 1.358 . S
C14 H70 0.930 . S
C15 N12 1.314 . S
C15 C13 1.353 . S
C15 H71 0.930 . S
C16 N17 1.314 . S
C16 C21 1.353 . S
C16 H22 0.930 . S
N17 Li0 1.990 . S
N17 C16 1.314 . S
N17 C19 1.279 . S
C18 C19 1.358 . S
C18 C20 1.356 . S
C18 H72 0.930 . S
C19 N17 1.279 . S
C19 C18 1.358 . S
C19 H23 0.930 . S
C20 C18 1.356 . S
C20 C21 1.348 . S
C21 C16 1.353 . S
C21 C20 1.348 . S
C21 H73 0.929 . S
H22 C16 0.930 . S
H23 C19 0.930 . S
C24 N25 1.314 . S
C24 C26 1.353 . S
C24 H30 0.930 . S
N25 Li1 1.990 . S
N25 C24 1.314 . S
N25 C28 1.279 . S
C26 C24 1.353 . S
C26 C29 1.348 . S
C26 H74 0.929 . S
C27 C28 1.358 . S
C27 C29 1.356 . S
C27 H75 0.930 . S
C28 N25 1.279 . S
C28 C27 1.358 . S
C28 H31 0.930 . S
C29 C26 1.348 . S
C29 C27 1.356 . S
H30 C24 0.930 . S
H31 C28 0.930 . S
C32 C34 1.348 . S
C32 C35 1.356 . S
C32 O62 1.325 . S
N33 C36 1.314 . S
N33 C37 1.279 . S
C34 C32 1.348 . S
C34 C36 1.353 . S
C34 H76 0.929 . S
C35 C32 1.356 . S
C35 C37 1.358 . S
C35 H77 0.930 . S
C36 N33 1.314 . S
C36 C34 1.353 . S
C36 H78 0.930 . S
C37 N33 1.279 . S
C37 C35 1.358 . S
C37 H79 0.930 . S
C38 C39 1.348 . S
C38 C40 1.356 . S
C38 O63 1.325 . S
C39 C38 1.348 . S
C39 C41 1.353 . S
C39 H80 0.929 . S
C40 C38 1.356 . S
C40 C42 1.358 . S
C40 H81 0.930 . S
C41 C39 1.353 . S
C41 N43 1.314 . S
C41 H82 0.930 . S
C42 C40 1.358 . S
C42 N43 1.279 . S
C42 H83 0.930 . S
N43 C41 1.314 . S
N43 C42 1.279 . S
C44 C46 1.353 . S
C44 N47 1.314 . S
C44 H50 0.930 . S
C45 N47 1.279 . S
C45 C48 1.358 . S
C45 H51 0.930 . S
C46 C44 1.353 . S
C46 C49 1.348 . S
C46 H84 0.929 . S
N47 Li2 1.990 . S
N47 C44 1.314 . S
N47 C45 1.279 . S
C48 C45 1.358 . S
C48 C49 1.356 . S
C48 H85 0.930 . S
C49 C46 1.348 . S
C49 C48 1.356 . S
H50 C44 0.930 . S
H51 C45 0.930 . S
C52 N53 1.314 . S
C52 C54 1.353 . S
C52 H58 0.930 . S
N53 Li3 1.990 . S
N53 C52 1.314 . S
N53 C56 1.279 . S
C54 C52 1.353 . S
C54 C57 1.348 . S
C54 H86 0.929 . S
C55 C56 1.358 . S
C55 C57 1.356 . S
C55 H87 0.930 . S
C56 N53 1.279 . S
C56 C55 1.358 . S
C56 H59 0.930 . S
C57 C54 1.348 . S
C57 C55 1.356 . S
H58 C52 0.930 . S
H59 C56 0.930 . S
O60 Li0 1.956 . S
O60 Li1 1.970 . S
O60 Li2 1.961 . S
O60 C4 1.325 . S
O61 Li0 1.970 . S
O61 Li1 1.956 . S
O61 Li3 1.961 . S
O61 C10 1.325 . S
O62 Li0 1.961 . S
O62 Li2 1.956 . S
O62 Li3 1.970 . S
O62 C32 1.325 . S
O63 Li1 1.961 . S
O63 Li2 1.970 . S
O63 Li3 1.956 . S
O63 C38 1.325 . S
H64 C6 0.929 . S
H65 C7 0.930 . S
H66 C8 0.930 . S
H67 C9 0.930 . S
H68 C11 0.930 . S
H69 C13 0.929 . S
H70 C14 0.930 . S
H71 C15 0.930 . S
H72 C18 0.930 . S
H73 C21 0.929 . S
H74 C26 0.929 . S
H75 C27 0.930 . S
H76 C34 0.929 . S
H77 C35 0.930 . S
H78 C36 0.930 . S
H79 C37 0.930 . S
H80 C39 0.929 . S
H81 C40 0.930 . S
H82 C41 0.930 . S
H83 C42 0.930 . S
H84 C46 0.929 . S
H85 C48 0.930 . S
H86 C54 0.929 . S
H87 C55 0.930 . S
Li88 N105 1.990 . S
Li88 O148 1.956 . S
Li88 O149 1.970 . S
Li88 O150 1.961 . S
Li89 N113 1.990 . S
Li89 O148 1.970 . S
Li89 O149 1.956 . S
Li89 O151 1.961 . S
Li90 N135 1.990 . S
Li90 O148 1.961 . S
Li90 O150 1.956 . S
Li90 O151 1.970 . S
Li91 N141 1.990 . S
Li91 O149 1.961 . S
Li91 O150 1.970 . S
Li91 O151 1.956 . S
C92 C94 1.348 . S
C92 C95 1.356 . S
C92 O148 1.325 . S
N93 C96 1.314 . S
N93 C97 1.279 . S
C94 C92 1.348 . S
C94 C96 1.353 . S
C94 H152 0.929 . S
C95 C92 1.356 . S
C95 C97 1.358 . S
C95 H153 0.930 . S
C96 N93 1.314 . S
C96 C94 1.353 . S
C96 H154 0.930 . S
C97 N93 1.279 . S
C97 C95 1.358 . S
C97 H155 0.930 . S
C98 C101 1.348 . S
C98 C102 1.356 . S
C98 O149 1.325 . S
C99 N100 1.279 . S
C99 C102 1.358 . S
C99 H156 0.930 . S
N100 C99 1.279 . S
N100 C103 1.314 . S
C101 C98 1.348 . S
C101 C103 1.353 . S
C101 H157 0.929 . S
C102 C98 1.356 . S
C102 C99 1.358 . S
C102 H158 0.930 . S
C103 N100 1.314 . S
C103 C101 1.353 . S
C103 H159 0.930 . S
C104 N105 1.314 . S
C104 C109 1.353 . S
C104 H110 0.930 . S
N105 Li88 1.990 . S
N105 C104 1.314 . S
N105 C107 1.279 . S
C106 C107 1.358 . S
C106 C108 1.356 . S
C106 H160 0.930 . S
C107 N105 1.279 . S
C107 C106 1.358 . S
C107 H111 0.930 . S
C108 C106 1.356 . S
C108 C109 1.348 . S
C109 C104 1.353 . S
C109 C108 1.348 . S
C109 H161 0.929 . S
H110 C104 0.930 . S
H111 C107 0.930 . S
C112 N113 1.314 . S
C112 C114 1.353 . S
C112 H118 0.930 . S
N113 Li89 1.990 . S
N113 C112 1.314 . S
N113 C116 1.279 . S
C114 C112 1.353 . S
C114 C117 1.348 . S
C114 H162 0.929 . S
C115 C116 1.358 . S
C115 C117 1.356 . S
C115 H163 0.930 . S
C116 N113 1.279 . S
C116 C115 1.358 . S
C116 H119 0.930 . S
C117 C114 1.348 . S
C117 C115 1.356 . S
H118 C112 0.930 . S
H119 C116 0.930 . S
C120 C122 1.348 . S
C120 C123 1.356 . S
C120 O150 1.325 . S
N121 C124 1.314 . S
N121 C125 1.279 . S
C122 C120 1.348 . S
C122 C124 1.353 . S
C122 H164 0.929 . S
C123 C120 1.356 . S
C123 C125 1.358 . S
C123 H165 0.930 . S
C124 N121 1.314 . S
C124 C122 1.353 . S
C124 H166 0.930 . S
C125 N121 1.279 . S
C125 C123 1.358 . S
C125 H167 0.930 . S
C126 C127 1.348 . S
C126 C128 1.356 . S
C126 O151 1.325 . S
C127 C126 1.348 . S
C127 C129 1.353 . S
C127 H168 0.929 . S
C128 C126 1.356 . S
C128 C130 1.358 . S
C128 H169 0.930 . S
C129 C127 1.353 . S
C129 N131 1.314 . S
C129 H170 0.930 . S
C130 C128 1.358 . S
C130 N131 1.279 . S
C130 H171 0.930 . S
N131 C129 1.314 . S
N131 C130 1.279 . S
C132 C134 1.353 . S
C132 N135 1.314 . S
C132 H138 0.930 . S
C133 N135 1.279 . S
C133 C136 1.358 . S
C133 H139 0.930 . S
C134 C132 1.353 . S
C134 C137 1.348 . S
C134 H172 0.929 . S
N135 Li90 1.990 . S
N135 C132 1.314 . S
N135 C133 1.279 . S
C136 C133 1.358 . S
C136 C137 1.356 . S
C136 H173 0.930 . S
C137 C134 1.348 . S
C137 C136 1.356 . S
H138 C132 0.930 . S
H139 C133 0.930 . S
C140 N141 1.314 . S
C140 C142 1.353 . S
C140 H146 0.930 . S
N141 Li91 1.990 . S
N141 C140 1.314 . S
N141 C144 1.279 . S
C142 C140 1.353 . S
C142 C145 1.348 . S
C142 H174 0.929 . S
C143 C144 1.358 . S
C143 C145 1.356 . S
C143 H175 0.930 . S
C144 N141 1.279 . S
C144 C143 1.358 . S
C144 H147 0.930 . S
C145 C142 1.348 . S
C145 C143 1.356 . S
H146 C140 0.930 . S
H147 C144 0.930 . S
O148 Li88 1.956 . S
O148 Li89 1.970 . S
O148 Li90 1.961 . S
O148 C92 1.325 . S
O149 Li88 1.970 . S
O149 Li89 1.956 . S
O149 Li91 1.961 . S
O149 C98 1.325 . S
O150 Li88 1.961 . S
O150 Li90 1.956 . S
O150 Li91 1.970 . S
O150 C120 1.325 . S
O151 Li89 1.961 . S
O151 Li90 1.970 . S
O151 Li91 1.956 . S
O151 C126 1.325 . S
H152 C94 0.929 . S
H153 C95 0.930 . S
H154 C96 0.930 . S
H155 C97 0.930 . S
H156 C99 0.930 . S
H157 C101 0.929 . S
H158 C102 0.930 . S
H159 C103 0.930 . S
H160 C106 0.930 . S
H161 C109 0.929 . S
H162 C114 0.929 . S
H163 C115 0.930 . S
H164 C122 0.929 . S
H165 C123 0.930 . S
H166 C124 0.930 . S
H167 C125 0.930 . S
H168 C127 0.929 . S
H169 C128 0.930 . S
H170 C129 0.930 . S
H171 C130 0.930 . S
H172 C134 0.929 . S
H173 C136 0.930 . S
H174 C142 0.929 . S
H175 C143 0.930 . S
Li176 N193 1.990 . S
Li176 O236 1.956 . S
Li176 O237 1.970 . S
Li176 O238 1.961 . S
Li177 N201 1.990 . S
Li177 O236 1.970 . S
Li177 O237 1.956 . S
Li177 O239 1.961 . S
Li178 N223 1.990 . S
Li178 O236 1.961 . S
Li178 O238 1.956 . S
Li178 O239 1.970 . S
Li179 N229 1.990 . S
Li179 O237 1.961 . S
Li179 O238 1.970 . S
Li179 O239 1.956 . S
C180 C182 1.348 . S
C180 C183 1.356 . S
C180 O236 1.325 . S
N181 C184 1.314 . S
N181 C185 1.279 . S
C182 C180 1.348 . S
C182 C184 1.353 . S
C182 H240 0.929 . S
C183 C180 1.356 . S
C183 C185 1.358 . S
C183 H241 0.930 . S
C184 N181 1.314 . S
C184 C182 1.353 . S
C184 H242 0.930 . S
C185 N181 1.279 . S
C185 C183 1.358 . S
C185 H243 0.930 . S
C186 C189 1.348 . S
C186 C190 1.356 . S
C186 O237 1.325 . S
C187 N188 1.279 . S
C187 C190 1.358 . S
C187 H244 0.930 . S
N188 C187 1.279 . S
N188 C191 1.314 . S
C189 C186 1.348 . S
C189 C191 1.353 . S
C189 H245 0.929 . S
C190 C186 1.356 . S
C190 C187 1.358 . S
C190 H246 0.930 . S
C191 N188 1.314 . S
C191 C189 1.353 . S
C191 H247 0.930 . S
C192 N193 1.314 . S
C192 C197 1.353 . S
C192 H198 0.930 . S
N193 Li176 1.990 . S
N193 C192 1.314 . S
N193 C195 1.279 . S
C194 C195 1.358 . S
C194 C196 1.356 . S
C194 H248 0.930 . S
C195 N193 1.279 . S
C195 C194 1.358 . S
C195 H199 0.930 . S
C196 C194 1.356 . S
C196 C197 1.348 . S
C197 C192 1.353 . S
C197 C196 1.348 . S
C197 H249 0.929 . S
H198 C192 0.930 . S
H199 C195 0.930 . S
C200 N201 1.314 . S
C200 C202 1.353 . S
C200 H206 0.930 . S
N201 Li177 1.990 . S
N201 C200 1.314 . S
N201 C204 1.279 . S
C202 C200 1.353 . S
C202 C205 1.348 . S
C202 H250 0.929 . S
C203 C204 1.358 . S
C203 C205 1.356 . S
C203 H251 0.930 . S
C204 N201 1.279 . S
C204 C203 1.358 . S
C204 H207 0.930 . S
C205 C202 1.348 . S
C205 C203 1.356 . S
H206 C200 0.930 . S
H207 C204 0.930 . S
C208 C210 1.348 . S
C208 C211 1.356 . S
C208 O238 1.325 . S
N209 C212 1.314 . S
N209 C213 1.279 . S
C210 C208 1.348 . S
C210 C212 1.353 . S
C210 H252 0.929 . S
C211 C208 1.356 . S
C211 C213 1.358 . S
C211 H253 0.930 . S
C212 N209 1.314 . S
C212 C210 1.353 . S
C212 H254 0.930 . S
C213 N209 1.279 . S
C213 C211 1.358 . S
C213 H255 0.930 . S
C214 C215 1.348 . S
C214 C216 1.356 . S
C214 O239 1.325 . S
C215 C214 1.348 . S
C215 C217 1.353 . S
C215 H256 0.929 . S
C216 C214 1.356 . S
C216 C218 1.358 . S
C216 H257 0.930 . S
C217 C215 1.353 . S
C217 N219 1.314 . S
C217 H258 0.930 . S
C218 C216 1.358 . S
C218 N219 1.279 . S
C218 H259 0.930 . S
N219 C217 1.314 . S
N219 C218 1.279 . S
C220 C222 1.353 . S
C220 N223 1.314 . S
C220 H226 0.930 . S
C221 N223 1.279 . S
C221 C224 1.358 . S
C221 H227 0.930 . S
C222 C220 1.353 . S
C222 C225 1.348 . S
C222 H260 0.929 . S
N223 Li178 1.990 . S
N223 C220 1.314 . S
N223 C221 1.279 . S
C224 C221 1.358 . S
C224 C225 1.356 . S
C224 H261 0.930 . S
C225 C222 1.348 . S
C225 C224 1.356 . S
H226 C220 0.930 . S
H227 C221 0.930 . S
C228 N229 1.314 . S
C228 C230 1.353 . S
C228 H234 0.930 . S
N229 Li179 1.990 . S
N229 C228 1.314 . S
N229 C232 1.279 . S
C230 C228 1.353 . S
C230 C233 1.348 . S
C230 H262 0.929 . S
C231 C232 1.358 . S
C231 C233 1.356 . S
C231 H263 0.930 . S
C232 N229 1.279 . S
C232 C231 1.358 . S
C232 H235 0.930 . S
C233 C230 1.348 . S
C233 C231 1.356 . S
H234 C228 0.930 . S
H235 C232 0.930 . S
O236 Li176 1.956 . S
O236 Li177 1.970 . S
O236 Li178 1.961 . S
O236 C180 1.325 . S
O237 Li176 1.970 . S
O237 Li177 1.956 . S
O237 Li179 1.961 . S
O237 C186 1.325 . S
O238 Li176 1.961 . S
O238 Li178 1.956 . S
O238 Li179 1.970 . S
O238 C208 1.325 . S
O239 Li177 1.961 . S
O239 Li178 1.970 . S
O239 Li179 1.956 . S
O239 C214 1.325 . S
H240 C182 0.929 . S
H241 C183 0.930 . S
H242 C184 0.930 . S
H243 C185 0.930 . S
H244 C187 0.930 . S
H245 C189 0.929 . S
H246 C190 0.930 . S
H247 C191 0.930 . S
H248 C194 0.930 . S
H249 C197 0.929 . S
H250 C202 0.929 . S
H251 C203 0.930 . S
H252 C210 0.929 . S
H253 C211 0.930 . S
H254 C212 0.930 . S
H255 C213 0.930 . S
H256 C215 0.929 . S
H257 C216 0.930 . S
H258 C217 0.930 . S
H259 C218 0.930 . S
H260 C222 0.929 . S
H261 C224 0.930 . S
H262 C230 0.929 . S
H263 C231 0.930 . S
Li264 N281 1.990 . S
Li264 O324 1.956 . S
Li264 O325 1.970 . S
Li264 O326 1.961 . S
Li265 N289 1.990 . S
Li265 O324 1.970 . S
Li265 O325 1.956 . S
Li265 O327 1.961 . S
Li266 N311 1.990 . S
Li266 O324 1.961 . S
Li266 O326 1.956 . S
Li266 O327 1.970 . S
Li267 N317 1.990 . S
Li267 O325 1.961 . S
Li267 O326 1.970 . S
Li267 O327 1.956 . S
C268 C270 1.348 . S
C268 C271 1.356 . S
C268 O324 1.325 . S
N269 C272 1.314 . S
N269 C273 1.279 . S
C270 C268 1.348 . S
C270 C272 1.353 . S
C270 H328 0.929 . S
C271 C268 1.356 . S
C271 C273 1.358 . S
C271 H329 0.930 . S
C272 N269 1.314 . S
C272 C270 1.353 . S
C272 H330 0.930 . S
C273 N269 1.279 . S
C273 C271 1.358 . S
C273 H331 0.930 . S
C274 C277 1.348 . S
C274 C278 1.356 . S
C274 O325 1.325 . S
C275 N276 1.279 . S
C275 C278 1.358 . S
C275 H332 0.930 . S
N276 C275 1.279 . S
N276 C279 1.314 . S
C277 C274 1.348 . S
C277 C279 1.353 . S
C277 H333 0.929 . S
C278 C274 1.356 . S
C278 C275 1.358 . S
C278 H334 0.930 . S
C279 N276 1.314 . S
C279 C277 1.353 . S
C279 H335 0.930 . S
C280 N281 1.314 . S
C280 C285 1.353 . S
C280 H286 0.930 . S
N281 Li264 1.990 . S
N281 C280 1.314 . S
N281 C283 1.279 . S
C282 C283 1.358 . S
C282 C284 1.356 . S
C282 H336 0.930 . S
C283 N281 1.279 . S
C283 C282 1.358 . S
C283 H287 0.930 . S
C284 C282 1.356 . S
C284 C285 1.348 . S
C285 C280 1.353 . S
C285 C284 1.348 . S
C285 H337 0.929 . S
H286 C280 0.930 . S
H287 C283 0.930 . S
C288 N289 1.314 . S
C288 C290 1.353 . S
C288 H294 0.930 . S
N289 Li265 1.990 . S
N289 C288 1.314 . S
N289 C292 1.279 . S
C290 C288 1.353 . S
C290 C293 1.348 . S
C290 H338 0.929 . S
C291 C292 1.358 . S
C291 C293 1.356 . S
C291 H339 0.930 . S
C292 N289 1.279 . S
C292 C291 1.358 . S
C292 H295 0.930 . S
C293 C290 1.348 . S
C293 C291 1.356 . S
H294 C288 0.930 . S
H295 C292 0.930 . S
C296 C298 1.348 . S
C296 C299 1.356 . S
C296 O326 1.325 . S
N297 C300 1.314 . S
N297 C301 1.279 . S
C298 C296 1.348 . S
C298 C300 1.353 . S
C298 H340 0.929 . S
C299 C296 1.356 . S
C299 C301 1.358 . S
C299 H341 0.930 . S
C300 N297 1.314 . S
C300 C298 1.353 . S
C300 H342 0.930 . S
C301 N297 1.279 . S
C301 C299 1.358 . S
C301 H343 0.930 . S
C302 C303 1.348 . S
C302 C304 1.356 . S
C302 O327 1.325 . S
C303 C302 1.348 . S
C303 C305 1.353 . S
C303 H344 0.929 . S
C304 C302 1.356 . S
C304 C306 1.358 . S
C304 H345 0.930 . S
C305 C303 1.353 . S
C305 N307 1.314 . S
C305 H346 0.930 . S
C306 C304 1.358 . S
C306 N307 1.279 . S
C306 H347 0.930 . S
N307 C305 1.314 . S
N307 C306 1.279 . S
C308 C310 1.353 . S
C308 N311 1.314 . S
C308 H314 0.930 . S
C309 N311 1.279 . S
C309 C312 1.358 . S
C309 H315 0.930 . S
C310 C308 1.353 . S
C310 C313 1.348 . S
C310 H348 0.929 . S
N311 Li266 1.990 . S
N311 C308 1.314 . S
N311 C309 1.279 . S
C312 C309 1.358 . S
C312 C313 1.356 . S
C312 H349 0.930 . S
C313 C310 1.348 . S
C313 C312 1.356 . S
H314 C308 0.930 . S
H315 C309 0.930 . S
C316 N317 1.314 . S
C316 C318 1.353 . S
C316 H322 0.930 . S
N317 Li267 1.990 . S
N317 C316 1.314 . S
N317 C320 1.279 . S
C318 C316 1.353 . S
C318 C321 1.348 . S
C318 H350 0.929 . S
C319 C320 1.358 . S
C319 C321 1.356 . S
C319 H351 0.930 . S
C320 N317 1.279 . S
C320 C319 1.358 . S
C320 H323 0.930 . S
C321 C318 1.348 . S
C321 C319 1.356 . S
H322 C316 0.930 . S
H323 C320 0.930 . S
O324 Li264 1.956 . S
O324 Li265 1.970 . S
O324 Li266 1.961 . S
O324 C268 1.325 . S
O325 Li264 1.970 . S
O325 Li265 1.956 . S
O325 Li267 1.961 . S
O325 C274 1.325 . S
O326 Li264 1.961 . S
O326 Li266 1.956 . S
O326 Li267 1.970 . S
O326 C296 1.325 . S
O327 Li265 1.961 . S
O327 Li266 1.970 . S
O327 Li267 1.956 . S
O327 C302 1.325 . S
H328 C270 0.929 . S
H329 C271 0.930 . S
H330 C272 0.930 . S
H331 C273 0.930 . S
H332 C275 0.930 . S
H333 C277 0.929 . S
H334 C278 0.930 . S
H335 C279 0.930 . S
H336 C282 0.930 . S
H337 C285 0.929 . S
H338 C290 0.929 . S
H339 C291 0.930 . S
H340 C298 0.929 . S
H341 C299 0.930 . S
H342 C300 0.930 . S
H343 C301 0.930 . S
H344 C303 0.929 . S
H345 C304 0.930 . S
H346 C305 0.930 . S
H347 C306 0.930 . S
H348 C310 0.929 . S
H349 C312 0.930 . S
H350 C318 0.929 . S
H351 C319 0.930 . S
Li352 N369 1.990 . S
Li352 O412 1.956 . S
Li352 O413 1.970 . S
Li352 O414 1.961 . S
Li353 N377 1.990 . S
Li353 O412 1.970 . S
Li353 O413 1.956 . S
Li353 O415 1.961 . S
Li354 N399 1.990 . S
Li354 O412 1.961 . S
Li354 O414 1.956 . S
Li354 O415 1.970 . S
Li355 N405 1.990 . S
Li355 O413 1.961 . S
Li355 O414 1.970 . S
Li355 O415 1.956 . S
C356 C358 1.348 . S
C356 C359 1.356 . S
C356 O412 1.325 . S
N357 C360 1.314 . S
N357 C361 1.279 . S
C358 C356 1.348 . S
C358 C360 1.353 . S
C358 H416 0.929 . S
C359 C356 1.356 . S
C359 C361 1.358 . S
C359 H417 0.930 . S
C360 N357 1.314 . S
C360 C358 1.353 . S
C360 H418 0.930 . S
C361 N357 1.279 . S
C361 C359 1.358 . S
C361 H419 0.930 . S
C362 C365 1.348 . S
C362 C366 1.356 . S
C362 O413 1.325 . S
C363 N364 1.279 . S
C363 C366 1.358 . S
C363 H420 0.930 . S
N364 C363 1.279 . S
N364 C367 1.314 . S
C365 C362 1.348 . S
C365 C367 1.353 . S
C365 H421 0.929 . S
C366 C362 1.356 . S
C366 C363 1.358 . S
C366 H422 0.930 . S
C367 N364 1.314 . S
C367 C365 1.353 . S
C367 H423 0.930 . S
C368 N369 1.314 . S
C368 C373 1.353 . S
C368 H374 0.930 . S
N369 Li352 1.990 . S
N369 C368 1.314 . S
N369 C371 1.279 . S
C370 C371 1.358 . S
C370 C372 1.356 . S
C370 H424 0.930 . S
C371 N369 1.279 . S
C371 C370 1.358 . S
C371 H375 0.930 . S
C372 C370 1.356 . S
C372 C373 1.348 . S
C373 C368 1.353 . S
C373 C372 1.348 . S
C373 H425 0.929 . S
H374 C368 0.930 . S
H375 C371 0.930 . S
C376 N377 1.314 . S
C376 C378 1.353 . S
C376 H382 0.930 . S
N377 Li353 1.990 . S
N377 C376 1.314 . S
N377 C380 1.279 . S
C378 C376 1.353 . S
C378 C381 1.348 . S
C378 H426 0.929 . S
C379 C380 1.358 . S
C379 C381 1.356 . S
C379 H427 0.930 . S
C380 N377 1.279 . S
C380 C379 1.358 . S
C380 H383 0.930 . S
C381 C378 1.348 . S
C381 C379 1.356 . S
H382 C376 0.930 . S
H383 C380 0.930 . S
C384 C386 1.348 . S
C384 C387 1.356 . S
C384 O414 1.325 . S
N385 C388 1.314 . S
N385 C389 1.279 . S
C386 C384 1.348 . S
C386 C388 1.353 . S
C386 H428 0.929 . S
C387 C384 1.356 . S
C387 C389 1.358 . S
C387 H429 0.930 . S
C388 N385 1.314 . S
C388 C386 1.353 . S
C388 H430 0.930 . S
C389 N385 1.279 . S
C389 C387 1.358 . S
C389 H431 0.930 . S
C390 C391 1.348 . S
C390 C392 1.356 . S
C390 O415 1.325 . S
C391 C390 1.348 . S
C391 C393 1.353 . S
C391 H432 0.929 . S
C392 C390 1.356 . S
C392 C394 1.358 . S
C392 H433 0.930 . S
C393 C391 1.353 . S
C393 N395 1.314 . S
C393 H434 0.930 . S
C394 C392 1.358 . S
C394 N395 1.279 . S
C394 H435 0.930 . S
N395 C393 1.314 . S
N395 C394 1.279 . S
C396 C398 1.353 . S
C396 N399 1.314 . S
C396 H402 0.930 . S
C397 N399 1.279 . S
C397 C400 1.358 . S
C397 H403 0.930 . S
C398 C396 1.353 . S
C398 C401 1.348 . S
C398 H436 0.929 . S
N399 Li354 1.990 . S
N399 C396 1.314 . S
N399 C397 1.279 . S
C400 C397 1.358 . S
C400 C401 1.356 . S
C400 H437 0.930 . S
C401 C398 1.348 . S
C401 C400 1.356 . S
H402 C396 0.930 . S
H403 C397 0.930 . S
C404 N405 1.314 . S
C404 C406 1.353 . S
C404 H410 0.930 . S
N405 Li355 1.990 . S
N405 C404 1.314 . S
N405 C408 1.279 . S
C406 C404 1.353 . S
C406 C409 1.348 . S
C406 H438 0.929 . S
C407 C408 1.358 . S
C407 C409 1.356 . S
C407 H439 0.930 . S
C408 N405 1.279 . S
C408 C407 1.358 . S
C408 H411 0.930 . S
C409 C406 1.348 . S
C409 C407 1.356 . S
H410 C404 0.930 . S
H411 C408 0.930 . S
O412 Li352 1.956 . S
O412 Li353 1.970 . S
O412 Li354 1.961 . S
O412 C356 1.325 . S
O413 Li352 1.970 . S
O413 Li353 1.956 . S
O413 Li355 1.961 . S
O413 C362 1.325 . S
O414 Li352 1.961 . S
O414 Li354 1.956 . S
O414 Li355 1.970 . S
O414 C384 1.325 . S
O415 Li353 1.961 . S
O415 Li354 1.970 . S
O415 Li355 1.956 . S
O415 C390 1.325 . S
H416 C358 0.929 . S
H417 C359 0.930 . S
H418 C360 0.930 . S
H419 C361 0.930 . S
H420 C363 0.930 . S
H421 C365 0.929 . S
H422 C366 0.930 . S
H423 C367 0.930 . S
H424 C370 0.930 . S
H425 C373 0.929 . S
H426 C378 0.929 . S
H427 C379 0.930 . S
H428 C386 0.929 . S
H429 C387 0.930 . S
H430 C388 0.930 . S
H431 C389 0.930 . S
H432 C391 0.929 . S
H433 C392 0.930 . S
H434 C393 0.930 . S
H435 C394 0.930 . S
H436 C398 0.929 . S
H437 C400 0.930 . S
H438 C406 0.929 . S
H439 C407 0.930 . S
Li440 N457 1.990 . S
Li440 O500 1.956 . S
Li440 O501 1.970 . S
Li440 O502 1.961 . S
Li441 N465 1.990 . S
Li441 O500 1.970 . S
Li441 O501 1.956 . S
Li441 O503 1.961 . S
Li442 N487 1.990 . S
Li442 O500 1.961 . S
Li442 O502 1.956 . S
Li442 O503 1.970 . S
Li443 N493 1.990 . S
Li443 O501 1.961 . S
Li443 O502 1.970 . S
Li443 O503 1.956 . S
C444 C446 1.348 . S
C444 C447 1.356 . S
C444 O500 1.325 . S
N445 C448 1.314 . S
N445 C449 1.279 . S
C446 C444 1.348 . S
C446 C448 1.353 . S
C446 H504 0.929 . S
C447 C444 1.356 . S
C447 C449 1.358 . S
C447 H505 0.930 . S
C448 N445 1.314 . S
C448 C446 1.353 . S
C448 H506 0.930 . S
C449 N445 1.279 . S
C449 C447 1.358 . S
C449 H507 0.930 . S
C450 C453 1.348 . S
C450 C454 1.356 . S
C450 O501 1.325 . S
C451 N452 1.279 . S
C451 C454 1.358 . S
C451 H508 0.930 . S
N452 C451 1.279 . S
N452 C455 1.314 . S
C453 C450 1.348 . S
C453 C455 1.353 . S
C453 H509 0.929 . S
C454 C450 1.356 . S
C454 C451 1.358 . S
C454 H510 0.930 . S
C455 N452 1.314 . S
C455 C453 1.353 . S
C455 H511 0.930 . S
C456 N457 1.314 . S
C456 C461 1.353 . S
C456 H462 0.930 . S
N457 Li440 1.990 . S
N457 C456 1.314 . S
N457 C459 1.279 . S
C458 C459 1.358 . S
C458 C460 1.356 . S
C458 H512 0.930 . S
C459 N457 1.279 . S
C459 C458 1.358 . S
C459 H463 0.930 . S
C460 C458 1.356 . S
C460 C461 1.348 . S
C461 C456 1.353 . S
C461 C460 1.348 . S
C461 H513 0.929 . S
H462 C456 0.930 . S
H463 C459 0.930 . S
C464 N465 1.314 . S
C464 C466 1.353 . S
C464 H470 0.930 . S
N465 Li441 1.990 . S
N465 C464 1.314 . S
N465 C468 1.279 . S
C466 C464 1.353 . S
C466 C469 1.348 . S
C466 H514 0.929 . S
C467 C468 1.358 . S
C467 C469 1.356 . S
C467 H515 0.930 . S
C468 N465 1.279 . S
C468 C467 1.358 . S
C468 H471 0.930 . S
C469 C466 1.348 . S
C469 C467 1.356 . S
H470 C464 0.930 . S
H471 C468 0.930 . S
C472 C474 1.348 . S
C472 C475 1.356 . S
C472 O502 1.325 . S
N473 C476 1.314 . S
N473 C477 1.279 . S
C474 C472 1.348 . S
C474 C476 1.353 . S
C474 H516 0.929 . S
C475 C472 1.356 . S
C475 C477 1.358 . S
C475 H517 0.930 . S
C476 N473 1.314 . S
C476 C474 1.353 . S
C476 H518 0.930 . S
C477 N473 1.279 . S
C477 C475 1.358 . S
C477 H519 0.930 . S
C478 C479 1.348 . S
C478 C480 1.356 . S
C478 O503 1.325 . S
C479 C478 1.348 . S
C479 C481 1.353 . S
C479 H520 0.929 . S
C480 C478 1.356 . S
C480 C482 1.358 . S
C480 H521 0.930 . S
C481 C479 1.353 . S
C481 N483 1.314 . S
C481 H522 0.930 . S
C482 C480 1.358 . S
C482 N483 1.279 . S
C482 H523 0.930 . S
N483 C481 1.314 . S
N483 C482 1.279 . S
C484 C486 1.353 . S
C484 N487 1.314 . S
C484 H490 0.930 . S
C485 N487 1.279 . S
C485 C488 1.358 . S
C485 H491 0.930 . S
C486 C484 1.353 . S
C486 C489 1.348 . S
C486 H524 0.929 . S
N487 Li442 1.990 . S
N487 C484 1.314 . S
N487 C485 1.279 . S
C488 C485 1.358 . S
C488 C489 1.356 . S
C488 H525 0.930 . S
C489 C486 1.348 . S
C489 C488 1.356 . S
H490 C484 0.930 . S
H491 C485 0.930 . S
C492 N493 1.314 . S
C492 C494 1.353 . S
C492 H498 0.930 . S
N493 Li443 1.990 . S
N493 C492 1.314 . S
N493 C496 1.279 . S
C494 C492 1.353 . S
C494 C497 1.348 . S
C494 H526 0.929 . S
C495 C496 1.358 . S
C495 C497 1.356 . S
C495 H527 0.930 . S
C496 N493 1.279 . S
C496 C495 1.358 . S
C496 H499 0.930 . S
C497 C494 1.348 . S
C497 C495 1.356 . S
H498 C492 0.930 . S
H499 C496 0.930 . S
O500 Li440 1.956 . S
O500 Li441 1.970 . S
O500 Li442 1.961 . S
O500 C444 1.325 . S
O501 Li440 1.970 . S
O501 Li441 1.956 . S
O501 Li443 1.961 . S
O501 C450 1.325 . S
O502 Li440 1.961 . S
O502 Li442 1.956 . S
O502 Li443 1.970 . S
O502 C472 1.325 . S
O503 Li441 1.961 . S
O503 Li442 1.970 . S
O503 Li443 1.956 . S
O503 C478 1.325 . S
H504 C446 0.929 . S
H505 C447 0.930 . S
H506 C448 0.930 . S
H507 C449 0.930 . S
H508 C451 0.930 . S
H509 C453 0.929 . S
H510 C454 0.930 . S
H511 C455 0.930 . S
H512 C458 0.930 . S
H513 C461 0.929 . S
H514 C466 0.929 . S
H515 C467 0.930 . S
H516 C474 0.929 . S
H517 C475 0.930 . S
H518 C476 0.930 . S
H519 C477 0.930 . S
H520 C479 0.929 . S
H521 C480 0.930 . S
H522 C481 0.930 . S
H523 C482 0.930 . S
H524 C486 0.929 . S
H525 C488 0.930 . S
H526 C494 0.929 . S
H527 C495 0.930 . S
Li528 N545 1.990 . S
Li528 O588 1.956 . S
Li528 O589 1.970 . S
Li528 O590 1.961 . S
Li529 N553 1.990 . S
Li529 O588 1.970 . S
Li529 O589 1.956 . S
Li529 O591 1.961 . S
Li530 N575 1.990 . S
Li530 O588 1.961 . S
Li530 O590 1.956 . S
Li530 O591 1.970 . S
Li531 N581 1.990 . S
Li531 O589 1.961 . S
Li531 O590 1.970 . S
Li531 O591 1.956 . S
C532 C534 1.348 . S
C532 C535 1.356 . S
C532 O588 1.325 . S
N533 C536 1.314 . S
N533 C537 1.279 . S
C534 C532 1.348 . S
C534 C536 1.353 . S
C534 H592 0.929 . S
C535 C532 1.356 . S
C535 C537 1.358 . S
C535 H593 0.930 . S
C536 N533 1.314 . S
C536 C534 1.353 . S
C536 H594 0.930 . S
C537 N533 1.279 . S
C537 C535 1.358 . S
C537 H595 0.930 . S
C538 C541 1.348 . S
C538 C542 1.356 . S
C538 O589 1.325 . S
C539 N540 1.279 . S
C539 C542 1.358 . S
C539 H596 0.930 . S
N540 C539 1.279 . S
N540 C543 1.314 . S
C541 C538 1.348 . S
C541 C543 1.353 . S
C541 H597 0.929 . S
C542 C538 1.356 . S
C542 C539 1.358 . S
C542 H598 0.930 . S
C543 N540 1.314 . S
C543 C541 1.353 . S
C543 H599 0.930 . S
C544 N545 1.314 . S
C544 C549 1.353 . S
C544 H550 0.930 . S
N545 Li528 1.990 . S
N545 C544 1.314 . S
N545 C547 1.279 . S
C546 C547 1.358 . S
C546 C548 1.356 . S
C546 H600 0.930 . S
C547 N545 1.279 . S
C547 C546 1.358 . S
C547 H551 0.930 . S
C548 C546 1.356 . S
C548 C549 1.348 . S
C549 C544 1.353 . S
C549 C548 1.348 . S
C549 H601 0.929 . S
H550 C544 0.930 . S
H551 C547 0.930 . S
C552 N553 1.314 . S
C552 C554 1.353 . S
C552 H558 0.930 . S
N553 Li529 1.990 . S
N553 C552 1.314 . S
N553 C556 1.279 . S
C554 C552 1.353 . S
C554 C557 1.348 . S
C554 H602 0.929 . S
C555 C556 1.358 . S
C555 C557 1.356 . S
C555 H603 0.930 . S
C556 N553 1.279 . S
C556 C555 1.358 . S
C556 H559 0.930 . S
C557 C554 1.348 . S
C557 C555 1.356 . S
H558 C552 0.930 . S
H559 C556 0.930 . S
C560 C562 1.348 . S
C560 C563 1.356 . S
C560 O590 1.325 . S
N561 C564 1.314 . S
N561 C565 1.279 . S
C562 C560 1.348 . S
C562 C564 1.353 . S
C562 H604 0.929 . S
C563 C560 1.356 . S
C563 C565 1.358 . S
C563 H605 0.930 . S
C564 N561 1.314 . S
C564 C562 1.353 . S
C564 H606 0.930 . S
C565 N561 1.279 . S
C565 C563 1.358 . S
C565 H607 0.930 . S
C566 C567 1.348 . S
C566 C568 1.356 . S
C566 O591 1.325 . S
C567 C566 1.348 . S
C567 C569 1.353 . S
C567 H608 0.929 . S
C568 C566 1.356 . S
C568 C570 1.358 . S
C568 H609 0.930 . S
C569 C567 1.353 . S
C569 N571 1.314 . S
C569 H610 0.930 . S
C570 C568 1.358 . S
C570 N571 1.279 . S
C570 H611 0.930 . S
N571 C569 1.314 . S
N571 C570 1.279 . S
C572 C574 1.353 . S
C572 N575 1.314 . S
C572 H578 0.930 . S
C573 N575 1.279 . S
C573 C576 1.358 . S
C573 H579 0.930 . S
C574 C572 1.353 . S
C574 C577 1.348 . S
C574 H612 0.929 . S
N575 Li530 1.990 . S
N575 C572 1.314 . S
N575 C573 1.279 . S
C576 C573 1.358 . S
C576 C577 1.356 . S
C576 H613 0.930 . S
C577 C574 1.348 . S
C577 C576 1.356 . S
H578 C572 0.930 . S
H579 C573 0.930 . S
C580 N581 1.314 . S
C580 C582 1.353 . S
C580 H586 0.930 . S
N581 Li531 1.990 . S
N581 C580 1.314 . S
N581 C584 1.279 . S
C582 C580 1.353 . S
C582 C585 1.348 . S
C582 H614 0.929 . S
C583 C584 1.358 . S
C583 C585 1.356 . S
C583 H615 0.930 . S
C584 N581 1.279 . S
C584 C583 1.358 . S
C584 H587 0.930 . S
C585 C582 1.348 . S
C585 C583 1.356 . S
H586 C580 0.930 . S
H587 C584 0.930 . S
O588 Li528 1.956 . S
O588 Li529 1.970 . S
O588 Li530 1.961 . S
O588 C532 1.325 . S
O589 Li528 1.970 . S
O589 Li529 1.956 . S
O589 Li531 1.961 . S
O589 C538 1.325 . S
O590 Li528 1.961 . S
O590 Li530 1.956 . S
O590 Li531 1.970 . S
O590 C560 1.325 . S
O591 Li529 1.961 . S
O591 Li530 1.970 . S
O591 Li531 1.956 . S
O591 C566 1.325 . S
H592 C534 0.929 . S
H593 C535 0.930 . S
H594 C536 0.930 . S
H595 C537 0.930 . S
H596 C539 0.930 . S
H597 C541 0.929 . S
H598 C542 0.930 . S
H599 C543 0.930 . S
H600 C546 0.930 . S
H601 C549 0.929 . S
H602 C554 0.929 . S
H603 C555 0.930 . S
H604 C562 0.929 . S
H605 C563 0.930 . S
H606 C564 0.930 . S
H607 C565 0.930 . S
H608 C567 0.929 . S
H609 C568 0.930 . S
H610 C569 0.930 . S
H611 C570 0.930 . S
H612 C574 0.929 . S
H613 C576 0.930 . S
H614 C582 0.929 . S
H615 C583 0.930 . S
Li616 N633 1.990 . S
Li616 O676 1.956 . S
Li616 O677 1.970 . S
Li616 O678 1.961 . S
Li617 N641 1.990 . S
Li617 O676 1.970 . S
Li617 O677 1.956 . S
Li617 O679 1.961 . S
Li618 N663 1.990 . S
Li618 O676 1.961 . S
Li618 O678 1.956 . S
Li618 O679 1.970 . S
Li619 N669 1.990 . S
Li619 O677 1.961 . S
Li619 O678 1.970 . S
Li619 O679 1.956 . S
C620 C622 1.348 . S
C620 C623 1.356 . S
C620 O676 1.325 . S
N621 C624 1.314 . S
N621 C625 1.279 . S
C622 C620 1.348 . S
C622 C624 1.353 . S
C622 H680 0.929 . S
C623 C620 1.356 . S
C623 C625 1.358 . S
C623 H681 0.930 . S
C624 N621 1.314 . S
C624 C622 1.353 . S
C624 H682 0.930 . S
C625 N621 1.279 . S
C625 C623 1.358 . S
C625 H683 0.930 . S
C626 C629 1.348 . S
C626 C630 1.356 . S
C626 O677 1.325 . S
C627 N628 1.279 . S
C627 C630 1.358 . S
C627 H684 0.930 . S
N628 C627 1.279 . S
N628 C631 1.314 . S
C629 C626 1.348 . S
C629 C631 1.353 . S
C629 H685 0.929 . S
C630 C626 1.356 . S
C630 C627 1.358 . S
C630 H686 0.930 . S
C631 N628 1.314 . S
C631 C629 1.353 . S
C631 H687 0.930 . S
C632 N633 1.314 . S
C632 C637 1.353 . S
C632 H638 0.930 . S
N633 Li616 1.990 . S
N633 C632 1.314 . S
N633 C635 1.279 . S
C634 C635 1.358 . S
C634 C636 1.356 . S
C634 H688 0.930 . S
C635 N633 1.279 . S
C635 C634 1.358 . S
C635 H639 0.930 . S
C636 C634 1.356 . S
C636 C637 1.348 . S
C637 C632 1.353 . S
C637 C636 1.348 . S
C637 H689 0.929 . S
H638 C632 0.930 . S
H639 C635 0.930 . S
C640 N641 1.314 . S
C640 C642 1.353 . S
C640 H646 0.930 . S
N641 Li617 1.990 . S
N641 C640 1.314 . S
N641 C644 1.279 . S
C642 C640 1.353 . S
C642 C645 1.348 . S
C642 H690 0.929 . S
C643 C644 1.358 . S
C643 C645 1.356 . S
C643 H691 0.930 . S
C644 N641 1.279 . S
C644 C643 1.358 . S
C644 H647 0.930 . S
C645 C642 1.348 . S
C645 C643 1.356 . S
H646 C640 0.930 . S
H647 C644 0.930 . S
C648 C650 1.348 . S
C648 C651 1.356 . S
C648 O678 1.325 . S
N649 C652 1.314 . S
N649 C653 1.279 . S
C650 C648 1.348 . S
C650 C652 1.353 . S
C650 H692 0.929 . S
C651 C648 1.356 . S
C651 C653 1.358 . S
C651 H693 0.930 . S
C652 N649 1.314 . S
C652 C650 1.353 . S
C652 H694 0.930 . S
C653 N649 1.279 . S
C653 C651 1.358 . S
C653 H695 0.930 . S
C654 C655 1.348 . S
C654 C656 1.356 . S
C654 O679 1.325 . S
C655 C654 1.348 . S
C655 C657 1.353 . S
C655 H696 0.929 . S
C656 C654 1.356 . S
C656 C658 1.358 . S
C656 H697 0.930 . S
C657 C655 1.353 . S
C657 N659 1.314 . S
C657 H698 0.930 . S
C658 C656 1.358 . S
C658 N659 1.279 . S
C658 H699 0.930 . S
N659 C657 1.314 . S
N659 C658 1.279 . S
C660 C662 1.353 . S
C660 N663 1.314 . S
C660 H666 0.930 . S
C661 N663 1.279 . S
C661 C664 1.358 . S
C661 H667 0.930 . S
C662 C660 1.353 . S
C662 C665 1.348 . S
C662 H700 0.929 . S
N663 Li618 1.990 . S
N663 C660 1.314 . S
N663 C661 1.279 . S
C664 C661 1.358 . S
C664 C665 1.356 . S
C664 H701 0.930 . S
C665 C662 1.348 . S
C665 C664 1.356 . S
H666 C660 0.930 . S
H667 C661 0.930 . S
C668 N669 1.314 . S
C668 C670 1.353 . S
C668 H674 0.930 . S
N669 Li619 1.990 . S
N669 C668 1.314 . S
N669 C672 1.279 . S
C670 C668 1.353 . S
C670 C673 1.348 . S
C670 H702 0.929 . S
C671 C672 1.358 . S
C671 C673 1.356 . S
C671 H703 0.930 . S
C672 N669 1.279 . S
C672 C671 1.358 . S
C672 H675 0.930 . S
C673 C670 1.348 . S
C673 C671 1.356 . S
H674 C668 0.930 . S
H675 C672 0.930 . S
O676 Li616 1.956 . S
O676 Li617 1.970 . S
O676 Li618 1.961 . S
O676 C620 1.325 . S
O677 Li616 1.970 . S
O677 Li617 1.956 . S
O677 Li619 1.961 . S
O677 C626 1.325 . S
O678 Li616 1.961 . S
O678 Li618 1.956 . S
O678 Li619 1.970 . S
O678 C648 1.325 . S
O679 Li617 1.961 . S
O679 Li618 1.970 . S
O679 Li619 1.956 . S
O679 C654 1.325 . S
H680 C622 0.929 . S
H681 C623 0.930 . S
H682 C624 0.930 . S
H683 C625 0.930 . S
H684 C627 0.930 . S
H685 C629 0.929 . S
H686 C630 0.930 . S
H687 C631 0.930 . S
H688 C634 0.930 . S
H689 C637 0.929 . S
H690 C642 0.929 . S
H691 C643 0.930 . S
H692 C650 0.929 . S
H693 C651 0.930 . S
H694 C652 0.930 . S
H695 C653 0.930 . S
H696 C655 0.929 . S
H697 C656 0.930 . S
H698 C657 0.930 . S
H699 C658 0.930 . S
H700 C662 0.929 . S
H701 C664 0.930 . S
H702 C670 0.929 . S
H703 C671 0.930 . S
Li704 N721 1.990 . S
Li704 O764 1.956 . S
Li704 O765 1.970 . S
Li704 O766 1.961 . S
Li705 N729 1.990 . S
Li705 O764 1.970 . S
Li705 O765 1.956 . S
Li705 O767 1.961 . S
Li706 N751 1.990 . S
Li706 O764 1.961 . S
Li706 O766 1.956 . S
Li706 O767 1.970 . S
Li707 N757 1.990 . S
Li707 O765 1.961 . S
Li707 O766 1.970 . S
Li707 O767 1.956 . S
C708 C710 1.348 . S
C708 C711 1.356 . S
C708 O764 1.325 . S
N709 C712 1.309 1_545 S
N709 C713 1.253 1_545 S
C710 C708 1.348 . S
C710 C712 1.353 . S
C710 H768 0.929 . S
C711 C708 1.356 . S
C711 C713 1.358 . S
C711 H769 0.930 . S
C712 N709 1.309 1_565 S
C712 C710 1.353 . S
C712 H770 0.930 1_565 S
C713 N709 1.253 1_565 S
C713 C711 1.358 . S
C713 H771 0.930 . S
C714 C717 1.348 . S
C714 C718 1.356 . S
C714 O765 1.325 . S
C715 N716 1.279 . S
C715 C718 1.358 . S
C715 H772 0.930 . S
N716 C715 1.279 . S
N716 C719 1.314 . S
C717 C714 1.348 . S
C717 C719 1.353 . S
C717 H773 0.929 . S
C718 C714 1.356 . S
C718 C715 1.358 . S
C718 H774 0.930 . S
C719 N716 1.314 . S
C719 C717 1.353 . S
C719 H775 0.930 1_565 S
C720 N721 1.314 . S
C720 C725 1.353 1_565 S
C720 H726 0.930 . S
N721 Li704 1.990 . S
N721 C720 1.314 . S
N721 C723 1.279 1_565 S
C722 C723 1.358 . S
C722 C724 1.356 . S
C722 H776 0.930 . S
C723 N721 1.279 1_545 S
C723 C722 1.358 . S
C723 H727 0.930 . S
C724 C722 1.356 . S
C724 C725 1.348 . S
C725 C720 1.353 1_545 S
C725 C724 1.348 . S
C725 H777 0.929 . S
H726 C720 0.930 . S
H727 C723 0.930 . S
C728 N729 1.314 . S
C728 C730 1.353 . S
C728 H734 0.930 . S
N729 Li705 1.990 . S
N729 C728 1.314 . S
N729 C732 1.279 . S
C730 C728 1.353 . S
C730 C733 1.348 . S
C730 H778 0.929 . S
C731 C732 1.358 . S
C731 C733 1.356 . S
C731 H779 0.930 . S
C732 N729 1.279 . S
C732 C731 1.358 . S
C732 H735 0.930 . S
C733 C730 1.348 . S
C733 C731 1.356 . S
H734 C728 0.930 . S
H735 C732 0.930 . S
C736 C738 1.348 . S
C736 C739 1.356 . S
C736 O766 1.325 . S
N737 C740 1.314 . S
N737 C741 1.279 . S
C738 C736 1.348 . S
C738 C740 1.353 . S
C738 H780 0.929 . S
C739 C736 1.356 . S
C739 C741 1.358 . S
C739 H781 0.930 . S
C740 N737 1.314 . S
C740 C738 1.353 . S
C740 H782 0.930 . S
C741 N737 1.279 . S
C741 C739 1.358 . S
C741 H783 0.930 . S
C742 C743 1.348 . S
C742 C744 1.356 . S
C742 O767 1.325 . S
C743 C742 1.348 . S
C743 C745 1.353 . S
C743 H784 0.929 . S
C744 C742 1.356 . S
C744 C746 1.358 . S
C744 H785 0.930 . S
C745 C743 1.353 . S
C745 N747 1.314 . S
C745 H786 0.930 . S
C746 C744 1.358 . S
C746 N747 1.279 . S
C746 H787 0.930 . S
N747 C745 1.314 . S
N747 C746 1.279 . S
C748 C750 1.353 . S
C748 N751 1.314 . S
C748 H754 0.930 . S
C749 N751 1.279 . S
C749 C752 1.358 . S
C749 H755 0.930 . S
C750 C748 1.353 . S
C750 C753 1.348 . S
C750 H788 0.929 . S
N751 Li706 1.990 . S
N751 C748 1.314 . S
N751 C749 1.279 . S
C752 C749 1.358 . S
C752 C753 1.356 . S
C752 H789 0.930 . S
C753 C750 1.348 . S
C753 C752 1.356 . S
H754 C748 0.930 . S
H755 C749 0.930 . S
C756 N757 1.314 . S
C756 C758 1.353 . S
C756 H762 0.930 . S
N757 Li707 1.990 . S
N757 C756 1.314 . S
N757 C760 1.279 . S
C758 C756 1.353 . S
C758 C761 1.348 . S
C758 H790 0.929 . S
C759 C760 1.358 . S
C759 C761 1.356 . S
C759 H791 0.930 . S
C760 N757 1.279 . S
C760 C759 1.358 . S
C760 H763 0.930 . S
C761 C758 1.348 . S
C761 C759 1.356 . S
H762 C756 0.930 . S
H763 C760 0.930 . S
O764 Li704 1.956 . S
O764 Li705 1.970 . S
O764 Li706 1.961 . S
O764 C708 1.325 . S
O765 Li704 1.970 . S
O765 Li705 1.956 . S
O765 Li707 1.961 . S
O765 C714 1.325 . S
O766 Li704 1.961 . S
O766 Li706 1.956 . S
O766 Li707 1.970 . S
O766 C736 1.325 . S
O767 Li705 1.961 . S
O767 Li706 1.970 . S
O767 Li707 1.956 . S
O767 C742 1.325 . S
H768 C710 0.929 . S
H769 C711 0.930 . S
H770 C712 0.930 1_545 S
H771 C713 0.930 . S
H772 C715 0.930 . S
H773 C717 0.929 . S
H774 C718 0.930 . S
H775 C719 0.930 1_545 S
H776 C722 0.930 . S
H777 C725 0.929 . S
H778 C730 0.929 . S
H779 C731 0.930 . S
H780 C738 0.929 . S
H781 C739 0.930 . S
H782 C740 0.930 . S
H783 C741 0.930 . S
H784 C743 0.929 . S
H785 C744 0.930 . S
H786 C745 0.930 . S
H787 C746 0.930 . S
H788 C750 0.929 . S
H789 C752 0.930 . S
H790 C758 0.929 . S
H791 C759 0.930 . S
Li792 N809 1.990 . S
Li792 O852 1.956 . S
Li792 O853 1.970 . S
Li792 O854 1.961 . S
Li793 N817 1.990 . S
Li793 O852 1.970 . S
Li793 O853 1.956 . S
Li793 O855 1.961 . S
Li794 N839 1.990 . S
Li794 O852 1.961 . S
Li794 O854 1.956 . S
Li794 O855 1.970 . S
Li795 N845 1.990 . S
Li795 O853 1.961 . S
Li795 O854 1.970 . S
Li795 O855 1.956 . S
C796 C798 1.348 . S
C796 C799 1.356 . S
C796 O852 1.325 . S
N797 C800 1.314 . S
N797 C801 1.279 . S
C798 C796 1.348 . S
C798 C800 1.353 . S
C798 H856 0.929 . S
C799 C796 1.356 . S
C799 C801 1.358 . S
C799 H857 0.930 . S
C800 N797 1.314 . S
C800 C798 1.353 . S
C800 H858 0.930 1_655 S
C801 N797 1.279 . S
C801 C799 1.358 . S
C801 H859 0.930 . S
C802 C805 1.348 . S
C802 C806 1.356 . S
C802 O853 1.325 . S
C803 N804 1.279 . S
C803 C806 1.358 . S
C803 H860 0.930 . S
N804 C803 1.279 . S
N804 C807 1.314 . S
C805 C802 1.348 . S
C805 C807 1.353 . S
C805 H861 0.929 . S
C806 C802 1.356 . S
C806 C803 1.358 . S
C806 H862 0.930 . S
C807 N804 1.314 . S
C807 C805 1.353 . S
C807 H863 0.930 . S
C808 N809 1.314 . S
C808 C813 1.353 . S
C808 H814 0.930 . S
N809 Li792 1.990 . S
N809 C808 1.314 . S
N809 C811 1.279 . S
C810 C811 1.358 . S
C810 C812 1.356 . S
C810 H864 0.930 . S
C811 N809 1.279 . S
C811 C810 1.358 . S
C811 H815 0.930 . S
C812 C810 1.356 . S
C812 C813 1.348 . S
C813 C808 1.353 . S
C813 C812 1.348 . S
C813 H865 0.929 . S
H814 C808 0.930 . S
H815 C811 0.930 . S
C816 N817 1.314 1_455 S
C816 C818 1.353 . S
C816 H822 0.930 . S
N817 Li793 1.990 . S
N817 C816 1.314 1_655 S
N817 C820 1.279 . S
C818 C816 1.353 . S
C818 C821 1.348 . S
C818 H866 0.929 . S
C819 C820 1.358 1_455 S
C819 C821 1.356 . S
C819 H867 0.930 . S
C820 N817 1.279 . S
C820 C819 1.358 1_655 S
C820 H823 0.930 . S
C821 C818 1.348 . S
C821 C819 1.356 . S
H822 C816 0.930 . S
H823 C820 0.930 . S
C824 C826 1.348 . S
C824 C827 1.356 . S
C824 O854 1.325 . S
N825 C828 1.314 . S
N825 C829 1.279 . S
C826 C824 1.348 . S
C826 C828 1.353 . S
C826 H868 0.929 . S
C827 C824 1.356 . S
C827 C829 1.358 . S
C827 H869 0.930 . S
C828 N825 1.314 . S
C828 C826 1.353 . S
C828 H870 0.930 . S
C829 N825 1.279 . S
C829 C827 1.358 . S
C829 H871 0.930 . S
C830 C831 1.348 . S
C830 C832 1.356 . S
C830 O855 1.325 . S
C831 C830 1.348 . S
C831 C833 1.353 . S
C831 H872 0.929 . S
C832 C830 1.356 . S
C832 C834 1.358 . S
C832 H873 0.930 . S
C833 C831 1.353 . S
C833 N835 1.314 . S
C833 H874 0.930 . S
C834 C832 1.358 . S
C834 N835 1.279 . S
C834 H875 0.930 1_655 S
N835 C833 1.314 . S
N835 C834 1.279 . S
C836 C838 1.353 . S
C836 N839 1.314 . S
C836 H842 0.930 . S
C837 N839 1.279 . S
C837 C840 1.358 . S
C837 H843 0.930 . S
C838 C836 1.353 . S
C838 C841 1.348 . S
C838 H876 0.929 . S
N839 Li794 1.990 . S
N839 C836 1.314 . S
N839 C837 1.279 . S
C840 C837 1.358 . S
C840 C841 1.356 . S
C840 H877 0.930 . S
C841 C838 1.348 . S
C841 C840 1.356 . S
H842 C836 0.930 . S
H843 C837 0.930 . S
C844 N845 1.314 . S
C844 C846 1.353 . S
C844 H850 0.930 . S
N845 Li795 1.990 . S
N845 C844 1.314 . S
N845 C848 1.279 . S
C846 C844 1.353 . S
C846 C849 1.348 . S
C846 H878 0.929 . S
C847 C848 1.358 . S
C847 C849 1.356 . S
C847 H879 0.930 . S
C848 N845 1.279 . S
C848 C847 1.358 . S
C848 H851 0.930 . S
C849 C846 1.348 . S
C849 C847 1.356 . S
H850 C844 0.930 . S
H851 C848 0.930 . S
O852 Li792 1.956 . S
O852 Li793 1.970 . S
O852 Li794 1.961 . S
O852 C796 1.325 . S
O853 Li792 1.970 . S
O853 Li793 1.956 . S
O853 Li795 1.961 . S
O853 C802 1.325 . S
O854 Li792 1.961 . S
O854 Li794 1.956 . S
O854 Li795 1.970 . S
O854 C824 1.325 . S
O855 Li793 1.961 . S
O855 Li794 1.970 . S
O855 Li795 1.956 . S
O855 C830 1.325 . S
H856 C798 0.929 . S
H857 C799 0.930 . S
H858 C800 0.930 1_455 S
H859 C801 0.930 . S
H860 C803 0.930 . S
H861 C805 0.929 . S
H862 C806 0.930 . S
H863 C807 0.930 . S
H864 C810 0.930 . S
H865 C813 0.929 . S
H866 C818 0.929 . S
H867 C819 0.930 . S
H868 C826 0.929 . S
H869 C827 0.930 . S
H870 C828 0.930 . S
H871 C829 0.930 . S
H872 C831 0.929 . S
H873 C832 0.930 . S
H874 C833 0.930 . S
H875 C834 0.930 1_455 S
H876 C838 0.929 . S
H877 C840 0.930 . S
H878 C846 0.929 . S
H879 C847 0.930 . S
Li880 N897 1.990 . S
Li880 O940 1.956 . S
Li880 O941 1.970 . S
Li880 O942 1.961 . S
Li881 N905 1.990 . S
Li881 O940 1.970 . S
Li881 O941 1.956 . S
Li881 O943 1.961 . S
Li882 N927 1.990 . S
Li882 O940 1.961 . S
Li882 O942 1.956 . S
Li882 O943 1.970 . S
Li883 N933 1.990 . S
Li883 O941 1.961 . S
Li883 O942 1.970 . S
Li883 O943 1.956 . S
C884 C886 1.348 . S
C884 C887 1.356 . S
C884 O940 1.325 . S
N885 C888 1.314 . S
N885 C889 1.279 . S
C886 C884 1.348 . S
C886 C888 1.353 . S
C886 H944 0.929 . S
C887 C884 1.356 . S
C887 C889 1.358 . S
C887 H945 0.930 . S
C888 N885 1.314 . S
C888 C886 1.353 . S
C888 H946 0.930 . S
C889 N885 1.279 . S
C889 C887 1.358 . S
C889 H947 0.930 . S
C890 C893 1.348 . S
C890 C894 1.356 . S
C890 O941 1.325 . S
C891 N892 1.279 . S
C891 C894 1.358 . S
C891 H948 0.930 . S
N892 C891 1.279 . S
N892 C895 1.314 . S
C893 C890 1.348 . S
C893 C895 1.353 . S
C893 H949 0.929 . S
C894 C890 1.356 . S
C894 C891 1.358 . S
C894 H950 0.930 . S
C895 N892 1.314 . S
C895 C893 1.353 . S
C895 H951 0.930 . S
C896 N897 1.314 . S
C896 C901 1.353 . S
C896 H902 0.930 . S
N897 Li880 1.990 . S
N897 C896 1.314 . S
N897 C899 1.279 . S
C898 C899 1.358 . S
C898 C900 1.356 . S
C898 H952 0.930 . S
C899 N897 1.279 . S
C899 C898 1.358 . S
C899 H903 0.930 . S
C900 C898 1.356 . S
C900 C901 1.348 . S
C901 C896 1.353 . S
C901 C900 1.348 . S
C901 H953 0.929 . S
H902 C896 0.930 . S
H903 C899 0.930 . S
C904 N905 1.314 . S
C904 C906 1.353 . S
C904 H910 0.930 . S
N905 Li881 1.990 . S
N905 C904 1.314 . S
N905 C908 1.279 . S
C906 C904 1.353 . S
C906 C909 1.348 . S
C906 H954 0.929 . S
C907 C908 1.358 . S
C907 C909 1.356 . S
C907 H955 0.930 . S
C908 N905 1.279 . S
C908 C907 1.358 . S
C908 H911 0.930 . S
C909 C906 1.348 . S
C909 C907 1.356 . S
H910 C904 0.930 . S
H911 C908 0.930 . S
C912 C914 1.348 . S
C912 C915 1.356 . S
C912 O942 1.325 . S
N913 C916 1.309 1_565 S
N913 C917 1.253 1_565 S
C914 C912 1.348 . S
C914 C916 1.353 . S
C914 H956 0.929 . S
C915 C912 1.356 . S
C915 C917 1.358 . S
C915 H957 0.930 . S
C916 N913 1.309 1_545 S
C916 C914 1.353 . S
C916 H958 0.930 1_545 S
C917 N913 1.253 1_545 S
C917 C915 1.358 . S
C917 H959 0.930 . S
C918 C919 1.348 . S
C918 C920 1.356 . S
C918 O943 1.325 . S
C919 C918 1.348 . S
C919 C921 1.353 . S
C919 H960 0.929 . S
C920 C918 1.356 . S
C920 C922 1.358 . S
C920 H961 0.930 . S
C921 C919 1.353 . S
C921 N923 1.314 . S
C921 H962 0.930 1_545 S
C922 C920 1.358 . S
C922 N923 1.279 . S
C922 H963 0.930 . S
N923 C921 1.314 . S
N923 C922 1.279 . S
C924 C926 1.353 1_545 S
C924 N927 1.314 . S
C924 H930 0.930 . S
C925 N927 1.279 1_565 S
C925 C928 1.358 . S
C925 H931 0.930 . S
C926 C924 1.353 1_565 S
C926 C929 1.348 . S
C926 H964 0.929 . S
N927 Li882 1.990 . S
N927 C924 1.314 . S
N927 C925 1.279 1_545 S
C928 C925 1.358 . S
C928 C929 1.356 . S
C928 H965 0.930 . S
C929 C926 1.348 . S
C929 C928 1.356 . S
H930 C924 0.930 . S
H931 C925 0.930 . S
C932 N933 1.314 . S
C932 C934 1.353 . S
C932 H938 0.930 . S
N933 Li883 1.990 . S
N933 C932 1.314 . S
N933 C936 1.279 . S
C934 C932 1.353 . S
C934 C937 1.348 . S
C934 H966 0.929 . S
C935 C936 1.358 . S
C935 C937 1.356 . S
C935 H967 0.930 . S
C936 N933 1.279 . S
C936 C935 1.358 . S
C936 H939 0.930 . S
C937 C934 1.348 . S
C937 C935 1.356 . S
H938 C932 0.930 . S
H939 C936 0.930 . S
O940 Li880 1.956 . S
O940 Li881 1.970 . S
O940 Li882 1.961 . S
O940 C884 1.325 . S
O941 Li880 1.970 . S
O941 Li881 1.956 . S
O941 Li883 1.961 . S
O941 C890 1.325 . S
O942 Li880 1.961 . S
O942 Li882 1.956 . S
O942 Li883 1.970 . S
O942 C912 1.325 . S
O943 Li881 1.961 . S
O943 Li882 1.970 . S
O943 Li883 1.956 . S
O943 C918 1.325 . S
H944 C886 0.929 . S
H945 C887 0.930 . S
H946 C888 0.930 . S
H947 C889 0.930 . S
H948 C891 0.930 . S
H949 C893 0.929 . S
H950 C894 0.930 . S
H951 C895 0.930 . S
H952 C898 0.930 . S
H953 C901 0.929 . S
H954 C906 0.929 . S
H955 C907 0.930 . S
H956 C914 0.929 . S
H957 C915 0.930 . S
H958 C916 0.930 1_565 S
H959 C917 0.930 . S
H960 C919 0.929 . S
H961 C920 0.930 . S
H962 C921 0.930 1_565 S
H963 C922 0.930 . S
H964 C926 0.929 . S
H965 C928 0.930 . S
H966 C934 0.929 . S
H967 C935 0.930 . S
Li968 N985 1.990 . S
Li968 O1028 1.956 . S
Li968 O1029 1.970 . S
Li968 O1030 1.961 . S
Li969 N993 1.990 . S
Li969 O1028 1.970 . S
Li969 O1029 1.956 . S
Li969 O1031 1.961 . S
Li970 N1015 1.990 . S
Li970 O1028 1.961 . S
Li970 O1030 1.956 . S
Li970 O1031 1.970 . S
Li971 N1021 1.990 . S
Li971 O1029 1.961 . S
Li971 O1030 1.970 . S
Li971 O1031 1.956 . S
C972 C974 1.348 . S
C972 C975 1.356 . S
C972 O1028 1.325 . S
N973 C976 1.314 . S
N973 C977 1.279 . S
C974 C972 1.348 . S
C974 C976 1.353 . S
C974 H1032 0.929 . S
C975 C972 1.356 . S
C975 C977 1.358 . S
C975 H1033 0.930 . S
C976 N973 1.314 . S
C976 C974 1.353 . S
C976 H1034 0.930 . S
C977 N973 1.279 . S
C977 C975 1.358 . S
C977 H1035 0.930 . S
C978 C981 1.348 . S
C978 C982 1.356 . S
C978 O1029 1.325 . S
C979 N980 1.279 . S
C979 C982 1.358 . S
C979 H1036 0.930 . S
N980 C979 1.279 . S
N980 C983 1.314 . S
C981 C978 1.348 . S
C981 C983 1.353 . S
C981 H1037 0.929 . S
C982 C978 1.356 . S
C982 C979 1.358 . S
C982 H1038 0.930 . S
C983 N980 1.314 . S
C983 C981 1.353 . S
C983 H1039 0.930 1_455 S
C984 N985 1.314 1_655 S
C984 C989 1.353 . S
C984 H990 0.930 . S
N985 Li968 1.990 . S
N985 C984 1.314 1_455 S
N985 C987 1.279 . S
C986 C987 1.358 1_655 S
C986 C988 1.356 . S
C986 H1040 0.930 . S
C987 N985 1.279 . S
C987 C986 1.358 1_455 S
C987 H991 0.930 . S
C988 C986 1.356 . S
C988 C989 1.348 . S
C989 C984 1.353 . S
C989 C988 1.348 . S
C989 H1041 0.929 . S
H990 C984 0.930 . S
H991 C987 0.930 . S
C992 N993 1.314 . S
C992 C994 1.353 . S
C992 H998 0.930 . S
N993 Li969 1.990 . S
N993 C992 1.314 . S
N993 C996 1.279 . S
C994 C992 1.353 . S
C994 C997 1.348 . S
C994 H1042 0.929 . S
C995 C996 1.358 . S
C995 C997 1.356 . S
C995 H1043 0.930 . S
C996 N993 1.279 . S
C996 C995 1.358 . S
C996 H999 0.930 . S
C997 C994 1.348 . S
C997 C995 1.356 . S
H998 C992 0.930 . S
H999 C996 0.930 . S
C1000 C1002 1.348 . S
C1000 C1003 1.356 . S
C1000 O1030 1.325 . S
N1001 C1004 1.314 . S
N1001 C1005 1.279 . S
C1002 C1000 1.348 . S
C1002 C1004 1.353 . S
C1002 H1044 0.929 . S
C1003 C1000 1.356 . S
C1003 C1005 1.358 . S
C1003 H1045 0.930 . S
C1004 N1001 1.314 . S
C1004 C1002 1.353 . S
C1004 H1046 0.930 . S
C1005 N1001 1.279 . S
C1005 C1003 1.358 . S
C1005 H1047 0.930 1_455 S
C1006 C1007 1.348 . S
C1006 C1008 1.356 . S
C1006 O1031 1.325 . S
C1007 C1006 1.348 . S
C1007 C1009 1.353 . S
C1007 H1048 0.929 . S
C1008 C1006 1.356 . S
C1008 C1010 1.358 . S
C1008 H1049 0.930 . S
C1009 C1007 1.353 . S
C1009 N1011 1.314 . S
C1009 H1050 0.930 . S
C1010 C1008 1.358 . S
C1010 N1011 1.279 . S
C1010 H1051 0.930 . S
N1011 C1009 1.314 . S
N1011 C1010 1.279 . S
C1012 C1014 1.353 . S
C1012 N1015 1.314 . S
C1012 H1018 0.930 . S
C1013 N1015 1.279 . S
C1013 C1016 1.358 . S
C1013 H1019 0.930 . S
C1014 C1012 1.353 . S
C1014 C1017 1.348 . S
C1014 H1052 0.929 . S
N1015 Li970 1.990 . S
N1015 C1012 1.314 . S
N1015 C1013 1.279 . S
C1016 C1013 1.358 . S
C1016 C1017 1.356 . S
C1016 H1053 0.930 . S
C1017 C1014 1.348 . S
C1017 C1016 1.356 . S
H1018 C1012 0.930 . S
H1019 C1013 0.930 . S
C1020 N1021 1.314 . S
C1020 C1022 1.353 . S
C1020 H1026 0.930 . S
N1021 Li971 1.990 . S
N1021 C1020 1.314 . S
N1021 C1024 1.279 . S
C1022 C1020 1.353 . S
C1022 C1025 1.348 . S
C1022 H1054 0.929 . S
C1023 C1024 1.358 . S
C1023 C1025 1.356 . S
C1023 H1055 0.930 . S
C1024 N1021 1.279 . S
C1024 C1023 1.358 . S
C1024 H1027 0.930 . S
C1025 C1022 1.348 . S
C1025 C1023 1.356 . S
H1026 C1020 0.930 . S
H1027 C1024 0.930 . S
O1028 Li968 1.956 . S
O1028 Li969 1.970 . S
O1028 Li970 1.961 . S
O1028 C972 1.325 . S
O1029 Li968 1.970 . S
O1029 Li969 1.956 . S
O1029 Li971 1.961 . S
O1029 C978 1.325 . S
O1030 Li968 1.961 . S
O1030 Li970 1.956 . S
O1030 Li971 1.970 . S
O1030 C1000 1.325 . S
O1031 Li969 1.961 . S
O1031 Li970 1.970 . S
O1031 Li971 1.956 . S
O1031 C1006 1.325 . S
H1032 C974 0.929 . S
H1033 C975 0.930 . S
H1034 C976 0.930 . S
H1035 C977 0.930 . S
H1036 C979 0.930 . S
H1037 C981 0.929 . S
H1038 C982 0.930 . S
H1039 C983 0.930 1_655 S
H1040 C986 0.930 . S
H1041 C989 0.929 . S
H1042 C994 0.929 . S
H1043 C995 0.930 . S
H1044 C1002 0.929 . S
H1045 C1003 0.930 . S
H1046 C1004 0.930 . S
H1047 C1005 0.930 1_655 S
H1048 C1007 0.929 . S
H1049 C1008 0.930 . S
H1050 C1009 0.930 . S
H1051 C1010 0.930 . S
H1052 C1014 0.929 . S
H1053 C1016 0.930 . S
H1054 C1022 0.929 . S
H1055 C1023 0.930 . S
Li1056 N1073 1.990 . S
Li1056 O1116 1.956 . S
Li1056 O1117 1.970 . S
Li1056 O1118 1.961 . S
Li1057 N1081 1.990 . S
Li1057 O1116 1.970 . S
Li1057 O1117 1.956 . S
Li1057 O1119 1.961 . S
Li1058 N1103 1.990 . S
Li1058 O1116 1.961 . S
Li1058 O1118 1.956 . S
Li1058 O1119 1.970 . S
Li1059 N1109 1.990 . S
Li1059 O1117 1.961 . S
Li1059 O1118 1.970 . S
Li1059 O1119 1.956 . S
C1060 C1062 1.348 . S
C1060 C1063 1.356 . S
C1060 O1116 1.325 . S
N1061 C1064 1.314 . S
N1061 C1065 1.279 . S
C1062 C1060 1.348 . S
C1062 C1064 1.353 . S
C1062 H1120 0.929 . S
C1063 C1060 1.356 . S
C1063 C1065 1.358 . S
C1063 H1121 0.930 . S
C1064 N1061 1.314 . S
C1064 C1062 1.353 . S
C1064 H1122 0.930 . S
C1065 N1061 1.279 . S
C1065 C1063 1.358 . S
C1065 H1123 0.930 . S
C1066 C1069 1.348 . S
C1066 C1070 1.356 . S
C1066 O1117 1.325 . S
C1067 N1068 1.279 . S
C1067 C1070 1.358 . S
C1067 H1124 0.930 . S
N1068 C1067 1.279 . S
N1068 C1071 1.314 . S
C1069 C1066 1.348 . S
C1069 C1071 1.353 . S
C1069 H1125 0.929 . S
C1070 C1066 1.356 . S
C1070 C1067 1.358 . S
C1070 H1126 0.930 . S
C1071 N1068 1.314 . S
C1071 C1069 1.353 . S
C1071 H1127 0.930 . S
C1072 N1073 1.314 . S
C1072 C1077 1.353 . S
C1072 H1078 0.930 . S
N1073 Li1056 1.990 . S
N1073 C1072 1.314 . S
N1073 C1075 1.279 . S
C1074 C1075 1.358 . S
C1074 C1076 1.356 . S
C1074 H1128 0.930 . S
C1075 N1073 1.279 . S
C1075 C1074 1.358 . S
C1075 H1079 0.930 . S
C1076 C1074 1.356 . S
C1076 C1077 1.348 . S
C1077 C1072 1.353 . S
C1077 C1076 1.348 . S
C1077 H1129 0.929 . S
H1078 C1072 0.930 . S
H1079 C1075 0.930 . S
C1080 N1081 1.314 . S
C1080 C1082 1.353 . S
C1080 H1086 0.930 . S
N1081 Li1057 1.990 . S
N1081 C1080 1.314 . S
N1081 C1084 1.279 . S
C1082 C1080 1.353 . S
C1082 C1085 1.348 . S
C1082 H1130 0.929 . S
C1083 C1084 1.358 . S
C1083 C1085 1.356 . S
C1083 H1131 0.930 . S
C1084 N1081 1.279 . S
C1084 C1083 1.358 . S
C1084 H1087 0.930 . S
C1085 C1082 1.348 . S
C1085 C1083 1.356 . S
H1086 C1080 0.930 . S
H1087 C1084 0.930 . S
C1088 C1090 1.348 . S
C1088 C1091 1.356 . S
C1088 O1118 1.325 . S
N1089 C1092 1.314 . S
N1089 C1093 1.279 . S
C1090 C1088 1.348 . S
C1090 C1092 1.353 . S
C1090 H1132 0.929 . S
C1091 C1088 1.356 . S
C1091 C1093 1.358 . S
C1091 H1133 0.930 . S
C1092 N1089 1.314 . S
C1092 C1090 1.353 . S
C1092 H1134 0.930 1_545 S
C1093 N1089 1.279 . S
C1093 C1091 1.358 . S
C1093 H1135 0.930 . S
C1094 C1095 1.348 . S
C1094 C1096 1.356 . S
C1094 O1119 1.325 . S
C1095 C1094 1.348 . S
C1095 C1097 1.353 . S
C1095 H1136 0.929 . S
C1096 C1094 1.356 . S
C1096 C1098 1.358 . S
C1096 H1137 0.930 . S
C1097 C1095 1.353 . S
C1097 N1099 1.309 1_545 S
C1097 H1138 0.930 1_545 S
C1098 C1096 1.358 . S
C1098 N1099 1.253 1_545 S
C1098 H1139 0.930 . S
N1099 C1097 1.309 1_565 S
N1099 C1098 1.253 1_565 S
C1100 C1102 1.353 . S
C1100 N1103 1.314 . S
C1100 H1106 0.930 . S
C1101 N1103 1.279 . S
C1101 C1104 1.358 . S
C1101 H1107 0.930 . S
C1102 C1100 1.353 . S
C1102 C1105 1.348 . S
C1102 H1140 0.929 . S
N1103 Li1058 1.990 . S
N1103 C1100 1.314 . S
N1103 C1101 1.279 . S
C1104 C1101 1.358 . S
C1104 C1105 1.356 . S
C1104 H1141 0.930 . S
C1105 C1102 1.348 . S
C1105 C1104 1.356 . S
H1106 C1100 0.930 . S
H1107 C1101 0.930 . S
C1108 N1109 1.314 . S
C1108 C1110 1.353 1_545 S
C1108 H1114 0.930 . S
N1109 Li1059 1.990 . S
N1109 C1108 1.314 . S
N1109 C1112 1.279 1_545 S
C1110 C1108 1.353 1_565 S
C1110 C1113 1.348 . S
C1110 H1142 0.929 . S
C1111 C1112 1.358 . S
C1111 C1113 1.356 . S
C1111 H1143 0.930 . S
C1112 N1109 1.279 1_565 S
C1112 C1111 1.358 . S
C1112 H1115 0.930 . S
C1113 C1110 1.348 . S
C1113 C1111 1.356 . S
H1114 C1108 0.930 . S
H1115 C1112 0.930 . S
O1116 Li1056 1.956 . S
O1116 Li1057 1.970 . S
O1116 Li1058 1.961 . S
O1116 C1060 1.325 . S
O1117 Li1056 1.970 . S
O1117 Li1057 1.956 . S
O1117 Li1059 1.961 . S
O1117 C1066 1.325 . S
O1118 Li1056 1.961 . S
O1118 Li1058 1.956 . S
O1118 Li1059 1.970 . S
O1118 C1088 1.325 . S
O1119 Li1057 1.961 . S
O1119 Li1058 1.970 . S
O1119 Li1059 1.956 . S
O1119 C1094 1.325 . S
H1120 C1062 0.929 . S
H1121 C1063 0.930 . S
H1122 C1064 0.930 . S
H1123 C1065 0.930 . S
H1124 C1067 0.930 . S
H1125 C1069 0.929 . S
H1126 C1070 0.930 . S
H1127 C1071 0.930 . S
H1128 C1074 0.930 . S
H1129 C1077 0.929 . S
H1130 C1082 0.929 . S
H1131 C1083 0.930 . S
H1132 C1090 0.929 . S
H1133 C1091 0.930 . S
H1134 C1092 0.930 1_565 S
H1135 C1093 0.930 . S
H1136 C1095 0.929 . S
H1137 C1096 0.930 . S
H1138 C1097 0.930 1_565 S
H1139 C1098 0.930 . S
H1140 C1102 0.929 . S
H1141 C1104 0.930 . S
H1142 C1110 0.929 . S
H1143 C1111 0.930 . S
Li1144 N1161 1.990 . S
Li1144 O1204 1.956 . S
Li1144 O1205 1.970 . S
Li1144 O1206 1.961 . S
Li1145 N1169 1.990 . S
Li1145 O1204 1.970 . S
Li1145 O1205 1.956 . S
Li1145 O1207 1.961 . S
Li1146 N1191 1.990 . S
Li1146 O1204 1.961 . S
Li1146 O1206 1.956 . S
Li1146 O1207 1.970 . S
Li1147 N1197 1.990 . S
Li1147 O1205 1.961 . S
Li1147 O1206 1.970 . S
Li1147 O1207 1.956 . S
C1148 C1150 1.348 . S
C1148 C1151 1.356 . S
C1148 O1204 1.325 . S
N1149 C1152 1.314 . S
N1149 C1153 1.279 . S
C1150 C1148 1.348 . S
C1150 C1152 1.353 . S
C1150 H1208 0.929 . S
C1151 C1148 1.356 . S
C1151 C1153 1.358 . S
C1151 H1209 0.930 . S
C1152 N1149 1.314 . S
C1152 C1150 1.353 . S
C1152 H1210 0.930 . S
C1153 N1149 1.279 . S
C1153 C1151 1.358 . S
C1153 H1211 0.930 . S
C1154 C1157 1.348 . S
C1154 C1158 1.356 . S
C1154 O1205 1.325 . S
C1155 N1156 1.279 . S
C1155 C1158 1.358 . S
C1155 H1212 0.930 1_455 S
N1156 C1155 1.279 . S
N1156 C1159 1.314 . S
C1157 C1154 1.348 . S
C1157 C1159 1.353 . S
C1157 H1213 0.929 . S
C1158 C1154 1.356 . S
C1158 C1155 1.358 . S
C1158 H1214 0.930 . S
C1159 N1156 1.314 . S
C1159 C1157 1.353 . S
C1159 H1215 0.930 . S
C1160 N1161 1.314 . S
C1160 C1165 1.353 . S
C1160 H1166 0.930 . S
N1161 Li1144 1.990 . S
N1161 C1160 1.314 . S
N1161 C1163 1.279 . S
C1162 C1163 1.358 . S
C1162 C1164 1.356 . S
C1162 H1216 0.930 . S
C1163 N1161 1.279 . S
C1163 C1162 1.358 . S
C1163 H1167 0.930 . S
C1164 C1162 1.356 . S
C1164 C1165 1.348 . S
C1165 C1160 1.353 . S
C1165 C1164 1.348 . S
C1165 H1217 0.929 . S
H1166 C1160 0.930 . S
H1167 C1163 0.930 . S
C1168 N1169 1.314 . S
C1168 C1170 1.353 . S
C1168 H1174 0.930 . S
N1169 Li1145 1.990 . S
N1169 C1168 1.314 . S
N1169 C1172 1.279 . S
C1170 C1168 1.353 . S
C1170 C1173 1.348 . S
C1170 H1218 0.929 . S
C1171 C1172 1.358 . S
C1171 C1173 1.356 . S
C1171 H1219 0.930 . S
C1172 N1169 1.279 . S
C1172 C1171 1.358 . S
C1172 H1175 0.930 . S
C1173 C1170 1.348 . S
C1173 C1171 1.356 . S
H1174 C1168 0.930 . S
H1175 C1172 0.930 . S
C1176 C1178 1.348 . S
C1176 C1179 1.356 . S
C1176 O1206 1.325 . S
N1177 C1180 1.314 . S
N1177 C1181 1.279 . S
C1178 C1176 1.348 . S
C1178 C1180 1.353 . S
C1178 H1220 0.929 . S
C1179 C1176 1.356 . S
C1179 C1181 1.358 . S
C1179 H1221 0.930 . S
C1180 N1177 1.314 . S
C1180 C1178 1.353 . S
C1180 H1222 0.930 1_455 S
C1181 N1177 1.279 . S
C1181 C1179 1.358 . S
C1181 H1223 0.930 . S
C1182 C1183 1.348 . S
C1182 C1184 1.356 . S
C1182 O1207 1.325 . S
C1183 C1182 1.348 . S
C1183 C1185 1.353 . S
C1183 H1224 0.929 . S
C1184 C1182 1.356 . S
C1184 C1186 1.358 . S
C1184 H1225 0.930 . S
C1185 C1183 1.353 . S
C1185 N1187 1.314 . S
C1185 H1226 0.930 . S
C1186 C1184 1.358 . S
C1186 N1187 1.279 . S
C1186 H1227 0.930 . S
N1187 C1185 1.314 . S
N1187 C1186 1.279 . S
C1188 C1190 1.353 . S
C1188 N1191 1.314 . S
C1188 H1194 0.930 . S
C1189 N1191 1.279 . S
C1189 C1192 1.358 . S
C1189 H1195 0.930 . S
C1190 C1188 1.353 . S
C1190 C1193 1.348 . S
C1190 H1228 0.929 . S
N1191 Li1146 1.990 . S
N1191 C1188 1.314 . S
N1191 C1189 1.279 . S
C1192 C1189 1.358 . S
C1192 C1193 1.356 . S
C1192 H1229 0.930 . S
C1193 C1190 1.348 . S
C1193 C1192 1.356 . S
H1194 C1188 0.930 . S
H1195 C1189 0.930 . S
C1196 N1197 1.314 1_655 S
C1196 C1198 1.353 . S
C1196 H1202 0.930 . S
N1197 Li1147 1.990 . S
N1197 C1196 1.314 1_455 S
N1197 C1200 1.279 . S
C1198 C1196 1.353 . S
C1198 C1201 1.348 . S
C1198 H1230 0.929 . S
C1199 C1200 1.358 1_655 S
C1199 C1201 1.356 . S
C1199 H1231 0.930 . S
C1200 N1197 1.279 . S
C1200 C1199 1.358 1_455 S
C1200 H1203 0.930 . S
C1201 C1198 1.348 . S
C1201 C1199 1.356 . S
H1202 C1196 0.930 . S
H1203 C1200 0.930 . S
O1204 Li1144 1.956 . S
O1204 Li1145 1.970 . S
O1204 Li1146 1.961 . S
O1204 C1148 1.325 . S
O1205 Li1144 1.970 . S
O1205 Li1145 1.956 . S
O1205 Li1147 1.961 . S
O1205 C1154 1.325 . S
O1206 Li1144 1.961 . S
O1206 Li1146 1.956 . S
O1206 Li1147 1.970 . S
O1206 C1176 1.325 . S
O1207 Li1145 1.961 . S
O1207 Li1146 1.970 . S
O1207 Li1147 1.956 . S
O1207 C1182 1.325 . S
H1208 C1150 0.929 . S
H1209 C1151 0.930 . S
H1210 C1152 0.930 . S
H1211 C1153 0.930 . S
H1212 C1155 0.930 1_655 S
H1213 C1157 0.929 . S
H1214 C1158 0.930 . S
H1215 C1159 0.930 . S
H1216 C1162 0.930 . S
H1217 C1165 0.929 . S
H1218 C1170 0.929 . S
H1219 C1171 0.930 . S
H1220 C1178 0.929 . S
H1221 C1179 0.930 . S
H1222 C1180 0.930 1_655 S
H1223 C1181 0.930 . S
H1224 C1183 0.929 . S
H1225 C1184 0.930 . S
H1226 C1185 0.930 . S
H1227 C1186 0.930 . S
H1228 C1190 0.929 . S
H1229 C1192 0.930 . S
H1230 C1198 0.929 . S
H1231 C1199 0.930 . S
Li1232 N1249 1.990 . S
Li1232 O1292 1.956 . S
Li1232 O1293 1.970 . S
Li1232 O1294 1.961 . S
Li1233 N1257 1.990 . S
Li1233 O1292 1.970 . S
Li1233 O1293 1.956 . S
Li1233 O1295 1.961 . S
Li1234 N1279 1.990 . S
Li1234 O1292 1.961 . S
Li1234 O1294 1.956 . S
Li1234 O1295 1.970 . S
Li1235 N1285 1.990 . S
Li1235 O1293 1.961 . S
Li1235 O1294 1.970 . S
Li1235 O1295 1.956 . S
C1236 C1238 1.348 . S
C1236 C1239 1.356 . S
C1236 O1292 1.325 . S
N1237 C1240 1.314 . S
N1237 C1241 1.279 . S
C1238 C1236 1.348 . S
C1238 C1240 1.353 . S
C1238 H1296 0.929 . S
C1239 C1236 1.356 . S
C1239 C1241 1.358 . S
C1239 H1297 0.930 . S
C1240 N1237 1.314 . S
C1240 C1238 1.353 . S
C1240 H1298 0.930 1_565 S
C1241 N1237 1.279 . S
C1241 C1239 1.358 . S
C1241 H1299 0.930 . S
C1242 C1245 1.348 . S
C1242 C1246 1.356 . S
C1242 O1293 1.325 . S
C1243 N1244 1.253 1_565 S
C1243 C1246 1.358 . S
C1243 H1300 0.930 . S
N1244 C1243 1.253 1_545 S
N1244 C1247 1.309 1_545 S
C1245 C1242 1.348 . S
C1245 C1247 1.353 . S
C1245 H1301 0.929 . S
C1246 C1242 1.356 . S
C1246 C1243 1.358 . S
C1246 H1302 0.930 . S
C1247 N1244 1.309 1_565 S
C1247 C1245 1.353 . S
C1247 H1303 0.930 1_565 S
C1248 N1249 1.314 . S
C1248 C1253 1.353 . S
C1248 H1254 0.930 . S
N1249 Li1232 1.990 . S
N1249 C1248 1.314 . S
N1249 C1251 1.279 . S
C1250 C1251 1.358 . S
C1250 C1252 1.356 . S
C1250 H1304 0.930 . S
C1251 N1249 1.279 . S
C1251 C1250 1.358 . S
C1251 H1255 0.930 . S
C1252 C1250 1.356 . S
C1252 C1253 1.348 . S
C1253 C1248 1.353 . S
C1253 C1252 1.348 . S
C1253 H1305 0.929 . S
H1254 C1248 0.930 . S
H1255 C1251 0.930 . S
C1256 N1257 1.314 . S
C1256 C1258 1.353 1_565 S
C1256 H1262 0.930 . S
N1257 Li1233 1.990 . S
N1257 C1256 1.314 . S
N1257 C1260 1.279 1_565 S
C1258 C1256 1.353 1_545 S
C1258 C1261 1.348 . S
C1258 H1306 0.929 . S
C1259 C1260 1.358 . S
C1259 C1261 1.356 . S
C1259 H1307 0.930 . S
C1260 N1257 1.279 1_545 S
C1260 C1259 1.358 . S
C1260 H1263 0.930 . S
C1261 C1258 1.348 . S
C1261 C1259 1.356 . S
H1262 C1256 0.930 . S
H1263 C1260 0.930 . S
C1264 C1266 1.348 . S
C1264 C1267 1.356 . S
C1264 O1294 1.325 . S
N1265 C1268 1.314 . S
N1265 C1269 1.279 . S
C1266 C1264 1.348 . S
C1266 C1268 1.353 . S
C1266 H1308 0.929 . S
C1267 C1264 1.356 . S
C1267 C1269 1.358 . S
C1267 H1309 0.930 . S
C1268 N1265 1.314 . S
C1268 C1266 1.353 . S
C1268 H1310 0.930 . S
C1269 N1265 1.279 . S
C1269 C1267 1.358 . S
C1269 H1311 0.930 . S
C1270 C1271 1.348 . S
C1270 C1272 1.356 . S
C1270 O1295 1.325 . S
C1271 C1270 1.348 . S
C1271 C1273 1.353 . S
C1271 H1312 0.929 . S
C1272 C1270 1.356 . S
C1272 C1274 1.358 . S
C1272 H1313 0.930 . S
C1273 C1271 1.353 . S
C1273 N1275 1.314 . S
C1273 H1314 0.930 . S
C1274 C1272 1.358 . S
C1274 N1275 1.279 . S
C1274 H1315 0.930 . S
N1275 C1273 1.314 . S
N1275 C1274 1.279 . S
C1276 C1278 1.353 . S
C1276 N1279 1.314 . S
C1276 H1282 0.930 . S
C1277 N1279 1.279 . S
C1277 C1280 1.358 . S
C1277 H1283 0.930 . S
C1278 C1276 1.353 . S
C1278 C1281 1.348 . S
C1278 H1316 0.929 . S
N1279 Li1234 1.990 . S
N1279 C1276 1.314 . S
N1279 C1277 1.279 . S
C1280 C1277 1.358 . S
C1280 C1281 1.356 . S
C1280 H1317 0.930 . S
C1281 C1278 1.348 . S
C1281 C1280 1.356 . S
H1282 C1276 0.930 . S
H1283 C1277 0.930 . S
C1284 N1285 1.314 . S
C1284 C1286 1.353 . S
C1284 H1290 0.930 . S
N1285 Li1235 1.990 . S
N1285 C1284 1.314 . S
N1285 C1288 1.279 . S
C1286 C1284 1.353 . S
C1286 C1289 1.348 . S
C1286 H1318 0.929 . S
C1287 C1288 1.358 . S
C1287 C1289 1.356 . S
C1287 H1319 0.930 . S
C1288 N1285 1.279 . S
C1288 C1287 1.358 . S
C1288 H1291 0.930 . S
C1289 C1286 1.348 . S
C1289 C1287 1.356 . S
H1290 C1284 0.930 . S
H1291 C1288 0.930 . S
O1292 Li1232 1.956 . S
O1292 Li1233 1.970 . S
O1292 Li1234 1.961 . S
O1292 C1236 1.325 . S
O1293 Li1232 1.970 . S
O1293 Li1233 1.956 . S
O1293 Li1235 1.961 . S
O1293 C1242 1.325 . S
O1294 Li1232 1.961 . S
O1294 Li1234 1.956 . S
O1294 Li1235 1.970 . S
O1294 C1264 1.325 . S
O1295 Li1233 1.961 . S
O1295 Li1234 1.970 . S
O1295 Li1235 1.956 . S
O1295 C1270 1.325 . S
H1296 C1238 0.929 . S
H1297 C1239 0.930 . S
H1298 C1240 0.930 1_545 S
H1299 C1241 0.930 . S
H1300 C1243 0.930 . S
H1301 C1245 0.929 . S
H1302 C1246 0.930 . S
H1303 C1247 0.930 1_545 S
H1304 C1250 0.930 . S
H1305 C1253 0.929 . S
H1306 C1258 0.929 . S
H1307 C1259 0.930 . S
H1308 C1266 0.929 . S
H1309 C1267 0.930 . S
H1310 C1268 0.930 . S
H1311 C1269 0.930 . S
H1312 C1271 0.929 . S
H1313 C1272 0.930 . S
H1314 C1273 0.930 . S
H1315 C1274 0.930 . S
H1316 C1278 0.929 . S
H1317 C1280 0.930 . S
H1318 C1286 0.929 . S
H1319 C1287 0.930 . S
Li1320 N1337 1.990 . S
Li1320 O1380 1.956 . S
Li1320 O1381 1.970 . S
Li1320 O1382 1.961 . S
Li1321 N1345 1.990 . S
Li1321 O1380 1.970 . S
Li1321 O1381 1.956 . S
Li1321 O1383 1.961 . S
Li1322 N1367 1.990 . S
Li1322 O1380 1.961 . S
Li1322 O1382 1.956 . S
Li1322 O1383 1.970 . S
Li1323 N1373 1.990 . S
Li1323 O1381 1.961 . S
Li1323 O1382 1.970 . S
Li1323 O1383 1.956 . S
C1324 C1326 1.348 . S
C1324 C1327 1.356 . S
C1324 O1380 1.325 . S
N1325 C1328 1.314 . S
N1325 C1329 1.279 . S
C1326 C1324 1.348 . S
C1326 C1328 1.353 . S
C1326 H1384 0.929 . S
C1327 C1324 1.356 . S
C1327 C1329 1.358 . S
C1327 H1385 0.930 . S
C1328 N1325 1.314 . S
C1328 C1326 1.353 . S
C1328 H1386 0.930 . S
C1329 N1325 1.279 . S
C1329 C1327 1.358 . S
C1329 H1387 0.930 1_655 S
C1330 C1333 1.348 . S
C1330 C1334 1.356 . S
C1330 O1381 1.325 . S
C1331 N1332 1.279 . S
C1331 C1334 1.358 . S
C1331 H1388 0.930 . S
N1332 C1331 1.279 . S
N1332 C1335 1.314 . S
C1333 C1330 1.348 . S
C1333 C1335 1.353 . S
C1333 H1389 0.929 . S
C1334 C1330 1.356 . S
C1334 C1331 1.358 . S
C1334 H1390 0.930 . S
C1335 N1332 1.314 . S
C1335 C1333 1.353 . S
C1335 H1391 0.930 . S
C1336 N1337 1.314 . S
C1336 C1341 1.353 . S
C1336 H1342 0.930 . S
N1337 Li1320 1.990 . S
N1337 C1336 1.314 . S
N1337 C1339 1.279 . S
C1338 C1339 1.358 . S
C1338 C1340 1.356 . S
C1338 H1392 0.930 . S
C1339 N1337 1.279 . S
C1339 C1338 1.358 . S
C1339 H1343 0.930 . S
C1340 C1338 1.356 . S
C1340 C1341 1.348 . S
C1341 C1336 1.353 . S
C1341 C1340 1.348 . S
C1341 H1393 0.929 . S
H1342 C1336 0.930 . S
H1343 C1339 0.930 . S
C1344 N1345 1.314 . S
C1344 C1346 1.353 . S
C1344 H1350 0.930 . S
N1345 Li1321 1.990 . S
N1345 C1344 1.314 . S
N1345 C1348 1.279 . S
C1346 C1344 1.353 . S
C1346 C1349 1.348 . S
C1346 H1394 0.929 . S
C1347 C1348 1.358 . S
C1347 C1349 1.356 . S
C1347 H1395 0.930 . S
C1348 N1345 1.279 . S
C1348 C1347 1.358 . S
C1348 H1351 0.930 . S
C1349 C1346 1.348 . S
C1349 C1347 1.356 . S
H1350 C1344 0.930 . S
H1351 C1348 0.930 . S
C1352 C1354 1.348 . S
C1352 C1355 1.356 . S
C1352 O1382 1.325 . S
N1353 C1356 1.314 . S
N1353 C1357 1.279 . S
C1354 C1352 1.348 . S
C1354 C1356 1.353 . S
C1354 H1396 0.929 . S
C1355 C1352 1.356 . S
C1355 C1357 1.358 . S
C1355 H1397 0.930 . S
C1356 N1353 1.314 . S
C1356 C1354 1.353 . S
C1356 H1398 0.930 . S
C1357 N1353 1.279 . S
C1357 C1355 1.358 . S
C1357 H1399 0.930 . S
C1358 C1359 1.348 . S
C1358 C1360 1.356 . S
C1358 O1383 1.325 . S
C1359 C1358 1.348 . S
C1359 C1361 1.353 . S
C1359 H1400 0.929 . S
C1360 C1358 1.356 . S
C1360 C1362 1.358 . S
C1360 H1401 0.930 . S
C1361 C1359 1.353 . S
C1361 N1363 1.314 . S
C1361 H1402 0.930 1_655 S
C1362 C1360 1.358 . S
C1362 N1363 1.279 . S
C1362 H1403 0.930 . S
N1363 C1361 1.314 . S
N1363 C1362 1.279 . S
C1364 C1366 1.353 . S
C1364 N1367 1.314 1_455 S
C1364 H1370 0.930 . S
C1365 N1367 1.279 . S
C1365 C1368 1.358 1_655 S
C1365 H1371 0.930 . S
C1366 C1364 1.353 . S
C1366 C1369 1.348 . S
C1366 H1404 0.929 . S
N1367 Li1322 1.990 . S
N1367 C1364 1.314 1_655 S
N1367 C1365 1.279 . S
C1368 C1365 1.358 1_455 S
C1368 C1369 1.356 . S
C1368 H1405 0.930 . S
C1369 C1366 1.348 . S
C1369 C1368 1.356 . S
H1370 C1364 0.930 . S
H1371 C1365 0.930 . S
C1372 N1373 1.314 . S
C1372 C1374 1.353 . S
C1372 H1378 0.930 . S
N1373 Li1323 1.990 . S
N1373 C1372 1.314 . S
N1373 C1376 1.279 . S
C1374 C1372 1.353 . S
C1374 C1377 1.348 . S
C1374 H1406 0.929 . S
C1375 C1376 1.358 . S
C1375 C1377 1.356 . S
C1375 H1407 0.930 . S
C1376 N1373 1.279 . S
C1376 C1375 1.358 . S
C1376 H1379 0.930 . S
C1377 C1374 1.348 . S
C1377 C1375 1.356 . S
H1378 C1372 0.930 . S
H1379 C1376 0.930 . S
O1380 Li1320 1.956 . S
O1380 Li1321 1.970 . S
O1380 Li1322 1.961 . S
O1380 C1324 1.325 . S
O1381 Li1320 1.970 . S
O1381 Li1321 1.956 . S
O1381 Li1323 1.961 . S
O1381 C1330 1.325 . S
O1382 Li1320 1.961 . S
O1382 Li1322 1.956 . S
O1382 Li1323 1.970 . S
O1382 C1352 1.325 . S
O1383 Li1321 1.961 . S
O1383 Li1322 1.970 . S
O1383 Li1323 1.956 . S
O1383 C1358 1.325 . S
H1384 C1326 0.929 . S
H1385 C1327 0.930 . S
H1386 C1328 0.930 . S
H1387 C1329 0.930 1_455 S
H1388 C1331 0.930 . S
H1389 C1333 0.929 . S
H1390 C1334 0.930 . S
H1391 C1335 0.930 . S
H1392 C1338 0.930 . S
H1393 C1341 0.929 . S
H1394 C1346 0.929 . S
H1395 C1347 0.930 . S
H1396 C1354 0.929 . S
H1397 C1355 0.930 . S
H1398 C1356 0.930 . S
H1399 C1357 0.930 . S
H1400 C1359 0.929 . S
H1401 C1360 0.930 . S
H1402 C1361 0.930 1_455 S
H1403 C1362 0.930 . S
H1404 C1366 0.929 . S
H1405 C1368 0.930 . S
H1406 C1374 0.929 . S
H1407 C1375 0.930 . S
C1408 C1409 1.391 . S
C1408 C1410 1.394 . S
C1408 H1424 0.931 . S
C1409 C1408 1.391 . S
C1409 C1413 1.376 . S
C1410 C1408 1.394 . S
C1410 C1411 1.369 . S
C1410 C1414 1.531 . S
C1411 C1410 1.369 . S
C1411 C1412 1.410 . S
C1411 C1419 1.503 . S
C1412 C1411 1.410 . S
C1412 C1413 1.392 . S
C1412 C1415 1.511 . S
C1413 C1409 1.376 . S
C1413 C1412 1.392 . S
C1413 H1425 0.929 . S
C1414 C1410 1.531 . S
C1414 H1426 0.960 . S
C1414 H1427 0.962 . S
C1414 H1428 0.960 . S
C1415 C1412 1.511 . S
C1415 H1429 0.961 . S
C1415 H1430 0.961 . S
C1415 H1431 0.961 . S
C1416 C1417 1.370 . S
C1416 C1418 1.363 . S
C1416 H1432 0.931 . S
C1417 C1416 1.370 . S
C1417 C1421 1.408 . S
C1418 C1416 1.363 . S
C1418 C1419 1.370 . S
C1418 C1422 1.524 . S
C1419 C1411 1.503 . S
C1419 C1418 1.370 . S
C1419 C1420 1.403 . S
C1420 C1419 1.403 . S
C1420 C1421 1.404 . S
C1420 C1423 1.539 . S
C1421 C1417 1.408 . S
C1421 C1420 1.404 . S
C1421 H1433 0.930 . S
C1422 C1418 1.524 . S
C1422 H1434 0.956 . S
C1422 H1435 0.961 . S
C1422 H1436 0.961 . S
C1423 C1420 1.539 . S
C1423 H1437 0.958 . S
C1423 H1438 0.961 . S
C1423 H1439 0.960 . S
H1424 C1408 0.931 . S
H1425 C1413 0.929 . S
H1426 C1414 0.960 . S
H1427 C1414 0.962 . S
H1428 C1414 0.960 . S
H1429 C1415 0.961 . S
H1430 C1415 0.961 . S
H1431 C1415 0.961 . S
H1432 C1416 0.931 . S
H1433 C1421 0.930 . S
H1434 C1422 0.956 . S
H1435 C1422 0.961 . S
H1436 C1422 0.961 . S
H1437 C1423 0.958 . S
H1438 C1423 0.961 . S
H1439 C1423 0.960 . S
C1440 C1441 1.391 . S
C1440 C1442 1.394 . S
C1440 H1456 0.931 . S
C1441 C1440 1.391 . S
C1441 C1445 1.376 . S
C1442 C1440 1.394 . S
C1442 C1443 1.369 . S
C1442 C1446 1.531 . S
C1443 C1442 1.369 . S
C1443 C1444 1.410 . S
C1443 C1451 1.503 . S
C1444 C1443 1.410 . S
C1444 C1445 1.392 . S
C1444 C1447 1.511 . S
C1445 C1441 1.376 . S
C1445 C1444 1.392 . S
C1445 H1457 0.929 . S
C1446 C1442 1.531 . S
C1446 H1458 0.960 . S
C1446 H1459 0.962 . S
C1446 H1460 0.960 . S
C1447 C1444 1.511 . S
C1447 H1461 0.961 . S
C1447 H1462 0.961 . S
C1447 H1463 0.961 . S
C1448 C1449 1.370 . S
C1448 C1450 1.363 . S
C1448 H1464 0.931 . S
C1449 C1448 1.370 . S
C1449 C1453 1.408 . S
C1450 C1448 1.363 . S
C1450 C1451 1.370 . S
C1450 C1454 1.524 . S
C1451 C1443 1.503 . S
C1451 C1450 1.370 . S
C1451 C1452 1.403 . S
C1452 C1451 1.403 . S
C1452 C1453 1.404 . S
C1452 C1455 1.539 . S
C1453 C1449 1.408 . S
C1453 C1452 1.404 . S
C1453 H1465 0.930 . S
C1454 C1450 1.524 . S
C1454 H1466 0.956 . S
C1454 H1467 0.961 . S
C1454 H1468 0.961 . S
C1455 C1452 1.539 . S
C1455 H1469 0.958 . S
C1455 H1470 0.961 . S
C1455 H1471 0.960 . S
H1456 C1440 0.931 . S
H1457 C1445 0.929 . S
H1458 C1446 0.960 . S
H1459 C1446 0.962 . S
H1460 C1446 0.960 . S
H1461 C1447 0.961 . S
H1462 C1447 0.961 . S
H1463 C1447 0.961 . S
H1464 C1448 0.931 . S
H1465 C1453 0.930 . S
H1466 C1454 0.956 . S
H1467 C1454 0.961 . S
H1468 C1454 0.961 . S
H1469 C1455 0.958 . S
H1470 C1455 0.961 . S
H1471 C1455 0.960 . S
C1472 C1473 1.391 . S
C1472 C1474 1.394 . S
C1472 H1488 0.931 . S
C1473 C1472 1.391 . S
C1473 C1477 1.376 . S
C1474 C1472 1.394 . S
C1474 C1475 1.369 . S
C1474 C1478 1.531 . S
C1475 C1474 1.369 . S
C1475 C1476 1.410 . S
C1475 C1483 1.503 . S
C1476 C1475 1.410 . S
C1476 C1477 1.392 . S
C1476 C1479 1.511 . S
C1477 C1473 1.376 . S
C1477 C1476 1.392 . S
C1477 H1489 0.929 . S
C1478 C1474 1.531 . S
C1478 H1490 0.960 . S
C1478 H1491 0.962 . S
C1478 H1492 0.960 . S
C1479 C1476 1.511 . S
C1479 H1493 0.961 . S
C1479 H1494 0.961 . S
C1479 H1495 0.961 . S
C1480 C1481 1.370 . S
C1480 C1482 1.363 . S
C1480 H1496 0.931 . S
C1481 C1480 1.370 . S
C1481 C1485 1.408 . S
C1482 C1480 1.363 . S
C1482 C1483 1.370 . S
C1482 C1486 1.524 . S
C1483 C1475 1.503 . S
C1483 C1482 1.370 . S
C1483 C1484 1.403 . S
C1484 C1483 1.403 . S
C1484 C1485 1.404 . S
C1484 C1487 1.539 . S
C1485 C1481 1.408 . S
C1485 C1484 1.404 . S
C1485 H1497 0.930 . S
C1486 C1482 1.524 . S
C1486 H1498 0.956 . S
C1486 H1499 0.961 . S
C1486 H1500 0.961 . S
C1487 C1484 1.539 . S
C1487 H1501 0.958 . S
C1487 H1502 0.961 . S
C1487 H1503 0.960 . S
H1488 C1472 0.931 . S
H1489 C1477 0.929 . S
H1490 C1478 0.960 . S
H1491 C1478 0.962 . S
H1492 C1478 0.960 . S
H1493 C1479 0.961 . S
H1494 C1479 0.961 . S
H1495 C1479 0.961 . S
H1496 C1480 0.931 . S
H1497 C1485 0.930 . S
H1498 C1486 0.956 . S
H1499 C1486 0.961 . S
H1500 C1486 0.961 . S
H1501 C1487 0.958 . S
H1502 C1487 0.961 . S
H1503 C1487 0.960 . S
C1504 C1505 1.391 . S
C1504 C1506 1.394 . S
C1504 H1520 0.931 . S
C1505 C1504 1.391 . S
C1505 C1509 1.376 . S
C1506 C1504 1.394 . S
C1506 C1507 1.369 . S
C1506 C1510 1.531 . S
C1507 C1506 1.369 . S
C1507 C1508 1.410 . S
C1507 C1515 1.503 . S
C1508 C1507 1.410 . S
C1508 C1509 1.392 . S
C1508 C1511 1.511 . S
C1509 C1505 1.376 . S
C1509 C1508 1.392 . S
C1509 H1521 0.929 . S
C1510 C1506 1.531 . S
C1510 H1522 0.960 . S
C1510 H1523 0.962 . S
C1510 H1524 0.960 . S
C1511 C1508 1.511 . S
C1511 H1525 0.961 . S
C1511 H1526 0.961 . S
C1511 H1527 0.961 . S
C1512 C1513 1.370 . S
C1512 C1514 1.363 . S
C1512 H1528 0.931 . S
C1513 C1512 1.370 . S
C1513 C1517 1.408 . S
C1514 C1512 1.363 . S
C1514 C1515 1.370 . S
C1514 C1518 1.524 . S
C1515 C1507 1.503 . S
C1515 C1514 1.370 . S
C1515 C1516 1.403 . S
C1516 C1515 1.403 . S
C1516 C1517 1.404 . S
C1516 C1519 1.539 . S
C1517 C1513 1.408 . S
C1517 C1516 1.404 . S
C1517 H1529 0.930 . S
C1518 C1514 1.524 . S
C1518 H1530 0.956 . S
C1518 H1531 0.961 . S
C1518 H1532 0.961 . S
C1519 C1516 1.539 . S
C1519 H1533 0.958 . S
C1519 H1534 0.961 . S
C1519 H1535 0.960 . S
H1520 C1504 0.931 . S
H1521 C1509 0.929 . S
H1522 C1510 0.960 . S
H1523 C1510 0.962 . S
H1524 C1510 0.960 . S
H1525 C1511 0.961 . S
H1526 C1511 0.961 . S
H1527 C1511 0.961 . S
H1528 C1512 0.931 . S
H1529 C1517 0.930 . S
H1530 C1518 0.956 . S
H1531 C1518 0.961 . S
H1532 C1518 0.961 . S
H1533 C1519 0.958 . S
H1534 C1519 0.961 . S
H1535 C1519 0.960 . S
C1536 C1537 1.391 . S
C1536 C1538 1.394 . S
C1536 H1552 0.931 . S
C1537 C1536 1.391 . S
C1537 C1541 1.376 . S
C1538 C1536 1.394 . S
C1538 C1539 1.369 . S
C1538 C1542 1.531 . S
C1539 C1538 1.369 . S
C1539 C1540 1.410 . S
C1539 C1547 1.503 . S
C1540 C1539 1.410 . S
C1540 C1541 1.392 . S
C1540 C1543 1.511 . S
C1541 C1537 1.376 . S
C1541 C1540 1.392 . S
C1541 H1553 0.929 . S
C1542 C1538 1.531 . S
C1542 H1554 0.960 . S
C1542 H1555 0.962 . S
C1542 H1556 0.960 . S
C1543 C1540 1.511 . S
C1543 H1557 0.961 . S
C1543 H1558 0.961 . S
C1543 H1559 0.961 . S
C1544 C1545 1.370 . S
C1544 C1546 1.363 . S
C1544 H1560 0.931 . S
C1545 C1544 1.370 . S
C1545 C1549 1.408 . S
C1546 C1544 1.363 . S
C1546 C1547 1.370 . S
C1546 C1550 1.524 . S
C1547 C1539 1.503 . S
C1547 C1546 1.370 . S
C1547 C1548 1.403 . S
C1548 C1547 1.403 . S
C1548 C1549 1.404 . S
C1548 C1551 1.539 . S
C1549 C1545 1.408 . S
C1549 C1548 1.404 . S
C1549 H1561 0.930 . S
C1550 C1546 1.524 . S
C1550 H1562 0.956 . S
C1550 H1563 0.961 . S
C1550 H1564 0.961 . S
C1551 C1548 1.539 . S
C1551 H1565 0.958 . S
C1551 H1566 0.961 . S
C1551 H1567 0.960 . S
H1552 C1536 0.931 . S
H1553 C1541 0.929 . S
H1554 C1542 0.960 . S
H1555 C1542 0.962 . S
H1556 C1542 0.960 . S
H1557 C1543 0.961 . S
H1558 C1543 0.961 . S
H1559 C1543 0.961 . S
H1560 C1544 0.931 . S
H1561 C1549 0.930 . S
H1562 C1550 0.956 . S
H1563 C1550 0.961 . S
H1564 C1550 0.961 . S
H1565 C1551 0.958 . S
H1566 C1551 0.961 . S
H1567 C1551 0.960 . S
C1568 C1569 1.391 . S
C1568 C1570 1.394 . S
C1568 H1584 0.931 . S
C1569 C1568 1.391 . S
C1569 C1573 1.376 . S
C1570 C1568 1.394 . S
C1570 C1571 1.369 . S
C1570 C1574 1.531 . S
C1571 C1570 1.369 . S
C1571 C1572 1.410 . S
C1571 C1579 1.503 . S
C1572 C1571 1.410 . S
C1572 C1573 1.392 . S
C1572 C1575 1.511 . S
C1573 C1569 1.376 . S
C1573 C1572 1.392 . S
C1573 H1585 0.929 . S
C1574 C1570 1.531 . S
C1574 H1586 0.960 . S
C1574 H1587 0.962 . S
C1574 H1588 0.960 . S
C1575 C1572 1.511 . S
C1575 H1589 0.961 . S
C1575 H1590 0.961 . S
C1575 H1591 0.961 . S
C1576 C1577 1.370 . S
C1576 C1578 1.363 . S
C1576 H1592 0.931 . S
C1577 C1576 1.370 . S
C1577 C1581 1.408 . S
C1578 C1576 1.363 . S
C1578 C1579 1.370 . S
C1578 C1582 1.524 . S
C1579 C1571 1.503 . S
C1579 C1578 1.370 . S
C1579 C1580 1.403 . S
C1580 C1579 1.403 . S
C1580 C1581 1.404 . S
C1580 C1583 1.539 . S
C1581 C1577 1.408 . S
C1581 C1580 1.404 . S
C1581 H1593 0.930 . S
C1582 C1578 1.524 . S
C1582 H1594 0.956 . S
C1582 H1595 0.961 . S
C1582 H1596 0.961 . S
C1583 C1580 1.539 . S
C1583 H1597 0.958 . S
C1583 H1598 0.961 . S
C1583 H1599 0.960 . S
H1584 C1568 0.931 . S
H1585 C1573 0.929 . S
H1586 C1574 0.960 . S
H1587 C1574 0.962 . S
H1588 C1574 0.960 . S
H1589 C1575 0.961 . S
H1590 C1575 0.961 . S
H1591 C1575 0.961 . S
H1592 C1576 0.931 . S
H1593 C1581 0.930 . S
H1594 C1582 0.956 . S
H1595 C1582 0.961 . S
H1596 C1582 0.961 . S
H1597 C1583 0.958 . S
H1598 C1583 0.961 . S
H1599 C1583 0.960 . S
C1600 C1601 1.391 . S
C1600 C1602 1.394 . S
C1600 H1616 0.931 . S
C1601 C1600 1.391 . S
C1601 C1605 1.376 . S
C1602 C1600 1.394 . S
C1602 C1603 1.369 . S
C1602 C1606 1.531 . S
C1603 C1602 1.369 . S
C1603 C1604 1.410 . S
C1603 C1611 1.503 . S
C1604 C1603 1.410 . S
C1604 C1605 1.392 . S
C1604 C1607 1.511 . S
C1605 C1601 1.376 . S
C1605 C1604 1.392 . S
C1605 H1617 0.929 . S
C1606 C1602 1.531 . S
C1606 H1618 0.960 . S
C1606 H1619 0.962 . S
C1606 H1620 0.960 . S
C1607 C1604 1.511 . S
C1607 H1621 0.961 . S
C1607 H1622 0.961 . S
C1607 H1623 0.961 . S
C1608 C1609 1.370 . S
C1608 C1610 1.363 . S
C1608 H1624 0.931 . S
C1609 C1608 1.370 . S
C1609 C1613 1.408 . S
C1610 C1608 1.363 . S
C1610 C1611 1.370 . S
C1610 C1614 1.524 . S
C1611 C1603 1.503 . S
C1611 C1610 1.370 . S
C1611 C1612 1.403 . S
C1612 C1611 1.403 . S
C1612 C1613 1.404 . S
C1612 C1615 1.539 . S
C1613 C1609 1.408 . S
C1613 C1612 1.404 . S
C1613 H1625 0.930 . S
C1614 C1610 1.524 . S
C1614 H1626 0.956 . S
C1614 H1627 0.961 . S
C1614 H1628 0.961 . S
C1615 C1612 1.539 . S
C1615 H1629 0.958 . S
C1615 H1630 0.961 . S
C1615 H1631 0.960 . S
H1616 C1600 0.931 . S
H1617 C1605 0.929 . S
H1618 C1606 0.960 . S
H1619 C1606 0.962 . S
H1620 C1606 0.960 . S
H1621 C1607 0.961 . S
H1622 C1607 0.961 . S
H1623 C1607 0.961 . S
H1624 C1608 0.931 . S
H1625 C1613 0.930 . S
H1626 C1614 0.956 . S
H1627 C1614 0.961 . S
H1628 C1614 0.961 . S
H1629 C1615 0.958 . S
H1630 C1615 0.961 . S
H1631 C1615 0.960 . S
C1632 C1633 1.391 . S
C1632 C1634 1.394 . S
C1632 H1648 0.931 . S
C1633 C1632 1.391 . S
C1633 C1637 1.376 . S
C1634 C1632 1.394 . S
C1634 C1635 1.369 . S
C1634 C1638 1.531 . S
C1635 C1634 1.369 . S
C1635 C1636 1.410 . S
C1635 C1643 1.503 . S
C1636 C1635 1.410 . S
C1636 C1637 1.392 . S
C1636 C1639 1.511 . S
C1637 C1633 1.376 . S
C1637 C1636 1.392 . S
C1637 H1649 0.929 . S
C1638 C1634 1.531 . S
C1638 H1650 0.960 . S
C1638 H1651 0.962 . S
C1638 H1652 0.960 . S
C1639 C1636 1.511 . S
C1639 H1653 0.961 . S
C1639 H1654 0.961 . S
C1639 H1655 0.961 . S
C1640 C1641 1.370 . S
C1640 C1642 1.363 . S
C1640 H1656 0.931 . S
C1641 C1640 1.370 . S
C1641 C1645 1.408 . S
C1642 C1640 1.363 . S
C1642 C1643 1.370 . S
C1642 C1646 1.524 . S
C1643 C1635 1.503 . S
C1643 C1642 1.370 . S
C1643 C1644 1.403 . S
C1644 C1643 1.403 . S
C1644 C1645 1.404 . S
C1644 C1647 1.539 . S
C1645 C1641 1.408 . S
C1645 C1644 1.404 . S
C1645 H1657 0.930 . S
C1646 C1642 1.524 . S
C1646 H1658 0.956 . S
C1646 H1659 0.961 . S
C1646 H1660 0.961 . S
C1647 C1644 1.539 . S
C1647 H1661 0.958 . S
C1647 H1662 0.961 . S
C1647 H1663 0.960 . S
H1648 C1632 0.931 . S
H1649 C1637 0.929 . S
H1650 C1638 0.960 . S
H1651 C1638 0.962 . S
H1652 C1638 0.960 . S
H1653 C1639 0.961 . S
H1654 C1639 0.961 . S
H1655 C1639 0.961 . S
H1656 C1640 0.931 . S
H1657 C1645 0.930 . S
H1658 C1646 0.956 . S
H1659 C1646 0.961 . S
H1660 C1646 0.961 . S
H1661 C1647 0.958 . S
H1662 C1647 0.961 . S
H1663 C1647 0.960 . S
C1664 C1665 1.391 . S
C1664 C1666 1.394 . S
C1664 H1680 0.931 . S
C1665 C1664 1.391 . S
C1665 C1669 1.376 . S
C1666 C1664 1.394 . S
C1666 C1667 1.369 . S
C1666 C1670 1.531 . S
C1667 C1666 1.369 . S
C1667 C1668 1.410 . S
C1667 C1675 1.503 . S
C1668 C1667 1.410 . S
C1668 C1669 1.392 . S
C1668 C1671 1.511 . S
C1669 C1665 1.376 . S
C1669 C1668 1.392 . S
C1669 H1681 0.929 . S
C1670 C1666 1.531 . S
C1670 H1682 0.960 . S
C1670 H1683 0.962 . S
C1670 H1684 0.960 . S
C1671 C1668 1.511 . S
C1671 H1685 0.961 . S
C1671 H1686 0.961 . S
C1671 H1687 0.961 . S
C1672 C1673 1.370 . S
C1672 C1674 1.363 . S
C1672 H1688 0.931 . S
C1673 C1672 1.370 . S
C1673 C1677 1.408 . S
C1674 C1672 1.363 . S
C1674 C1675 1.370 . S
C1674 C1678 1.524 . S
C1675 C1667 1.503 . S
C1675 C1674 1.370 . S
C1675 C1676 1.403 . S
C1676 C1675 1.403 . S
C1676 C1677 1.404 . S
C1676 C1679 1.539 . S
C1677 C1673 1.408 . S
C1677 C1676 1.404 . S
C1677 H1689 0.930 . S
C1678 C1674 1.524 . S
C1678 H1690 0.956 . S
C1678 H1691 0.961 . S
C1678 H1692 0.961 . S
C1679 C1676 1.539 . S
C1679 H1693 0.958 . S
C1679 H1694 0.961 . S
C1679 H1695 0.960 . S
H1680 C1664 0.931 . S
H1681 C1669 0.929 . S
H1682 C1670 0.960 . S
H1683 C1670 0.962 . S
H1684 C1670 0.960 . S
H1685 C1671 0.961 . S
H1686 C1671 0.961 . S
H1687 C1671 0.961 . S
H1688 C1672 0.931 . S
H1689 C1677 0.930 . S
H1690 C1678 0.956 . S
H1691 C1678 0.961 . S
H1692 C1678 0.961 . S
H1693 C1679 0.958 . S
H1694 C1679 0.961 . S
H1695 C1679 0.960 . S
C1696 C1697 1.391 . S
C1696 C1698 1.394 . S
C1696 H1712 0.931 . S
C1697 C1696 1.391 . S
C1697 C1701 1.376 . S
C1698 C1696 1.394 . S
C1698 C1699 1.369 . S
C1698 C1702 1.531 . S
C1699 C1698 1.369 . S
C1699 C1700 1.410 . S
C1699 C1707 1.503 . S
C1700 C1699 1.410 . S
C1700 C1701 1.392 . S
C1700 C1703 1.511 . S
C1701 C1697 1.376 . S
C1701 C1700 1.392 . S
C1701 H1713 0.929 . S
C1702 C1698 1.531 . S
C1702 H1714 0.960 . S
C1702 H1715 0.962 . S
C1702 H1716 0.960 . S
C1703 C1700 1.511 . S
C1703 H1717 0.961 . S
C1703 H1718 0.961 . S
C1703 H1719 0.961 . S
C1704 C1705 1.370 . S
C1704 C1706 1.363 . S
C1704 H1720 0.931 . S
C1705 C1704 1.370 . S
C1705 C1709 1.408 . S
C1706 C1704 1.363 . S
C1706 C1707 1.370 . S
C1706 C1710 1.524 . S
C1707 C1699 1.503 . S
C1707 C1706 1.370 . S
C1707 C1708 1.403 . S
C1708 C1707 1.403 . S
C1708 C1709 1.404 . S
C1708 C1711 1.539 . S
C1709 C1705 1.408 . S
C1709 C1708 1.404 . S
C1709 H1721 0.930 . S
C1710 C1706 1.524 . S
C1710 H1722 0.956 . S
C1710 H1723 0.961 . S
C1710 H1724 0.961 . S
C1711 C1708 1.539 . S
C1711 H1725 0.958 . S
C1711 H1726 0.961 . S
C1711 H1727 0.960 . S
H1712 C1696 0.931 . S
H1713 C1701 0.929 . S
H1714 C1702 0.960 . S
H1715 C1702 0.962 . S
H1716 C1702 0.960 . S
H1717 C1703 0.961 . S
H1718 C1703 0.961 . S
H1719 C1703 0.961 . S
H1720 C1704 0.931 . S
H1721 C1709 0.930 . S
H1722 C1710 0.956 . S
H1723 C1710 0.961 . S
H1724 C1710 0.961 . S
H1725 C1711 0.958 . S
H1726 C1711 0.961 . S
H1727 C1711 0.960 . S
C1728 C1729 1.391 . S
C1728 C1730 1.394 . S
C1728 H1744 0.931 . S
C1729 C1728 1.391 . S
C1729 C1733 1.376 . S
C1730 C1728 1.394 . S
C1730 C1731 1.369 . S
C1730 C1734 1.531 . S
C1731 C1730 1.369 . S
C1731 C1732 1.410 . S
C1731 C1739 1.503 . S
C1732 C1731 1.410 . S
C1732 C1733 1.392 . S
C1732 C1735 1.511 . S
C1733 C1729 1.376 . S
C1733 C1732 1.392 . S
C1733 H1745 0.929 . S
C1734 C1730 1.531 . S
C1734 H1746 0.960 . S
C1734 H1747 0.962 . S
C1734 H1748 0.960 . S
C1735 C1732 1.511 . S
C1735 H1749 0.961 . S
C1735 H1750 0.961 . S
C1735 H1751 0.961 . S
C1736 C1737 1.370 . S
C1736 C1738 1.363 . S
C1736 H1752 0.931 . S
C1737 C1736 1.370 . S
C1737 C1741 1.408 . S
C1738 C1736 1.363 . S
C1738 C1739 1.370 . S
C1738 C1742 1.524 . S
C1739 C1731 1.503 . S
C1739 C1738 1.370 . S
C1739 C1740 1.403 . S
C1740 C1739 1.403 . S
C1740 C1741 1.404 . S
C1740 C1743 1.539 . S
C1741 C1737 1.408 . S
C1741 C1740 1.404 . S
C1741 H1753 0.930 . S
C1742 C1738 1.524 . S
C1742 H1754 0.956 . S
C1742 H1755 0.961 . S
C1742 H1756 0.961 . S
C1743 C1740 1.539 . S
C1743 H1757 0.958 . S
C1743 H1758 0.961 . S
C1743 H1759 0.960 . S
H1744 C1728 0.931 . S
H1745 C1733 0.929 . S
H1746 C1734 0.960 . S
H1747 C1734 0.962 . S
H1748 C1734 0.960 . S
H1749 C1735 0.961 . S
H1750 C1735 0.961 . S
H1751 C1735 0.961 . S
H1752 C1736 0.931 . S
H1753 C1741 0.930 . S
H1754 C1742 0.956 . S
H1755 C1742 0.961 . S
H1756 C1742 0.961 . S
H1757 C1743 0.958 . S
H1758 C1743 0.961 . S
H1759 C1743 0.960 . S
C1760 C1761 1.391 . S
C1760 C1762 1.394 . S
C1760 H1776 0.931 . S
C1761 C1760 1.391 . S
C1761 C1765 1.376 . S
C1762 C1760 1.394 . S
C1762 C1763 1.369 . S
C1762 C1766 1.531 . S
C1763 C1762 1.369 . S
C1763 C1764 1.410 . S
C1763 C1771 1.503 . S
C1764 C1763 1.410 . S
C1764 C1765 1.392 . S
C1764 C1767 1.511 . S
C1765 C1761 1.376 . S
C1765 C1764 1.392 . S
C1765 H1777 0.929 . S
C1766 C1762 1.531 . S
C1766 H1778 0.960 . S
C1766 H1779 0.962 . S
C1766 H1780 0.960 . S
C1767 C1764 1.511 . S
C1767 H1781 0.961 . S
C1767 H1782 0.961 . S
C1767 H1783 0.961 . S
C1768 C1769 1.370 . S
C1768 C1770 1.363 . S
C1768 H1784 0.931 . S
C1769 C1768 1.370 . S
C1769 C1773 1.408 . S
C1770 C1768 1.363 . S
C1770 C1771 1.370 . S
C1770 C1774 1.524 . S
C1771 C1763 1.503 . S
C1771 C1770 1.370 . S
C1771 C1772 1.403 . S
C1772 C1771 1.403 . S
C1772 C1773 1.404 . S
C1772 C1775 1.539 . S
C1773 C1769 1.408 . S
C1773 C1772 1.404 . S
C1773 H1785 0.930 . S
C1774 C1770 1.524 . S
C1774 H1786 0.956 . S
C1774 H1787 0.961 . S
C1774 H1788 0.961 . S
C1775 C1772 1.539 . S
C1775 H1789 0.958 . S
C1775 H1790 0.961 . S
C1775 H1791 0.960 . S
H1776 C1760 0.931 . S
H1777 C1765 0.929 . S
H1778 C1766 0.960 . S
H1779 C1766 0.962 . S
H1780 C1766 0.960 . S
H1781 C1767 0.961 . S
H1782 C1767 0.961 . S
H1783 C1767 0.961 . S
H1784 C1768 0.931 . S
H1785 C1773 0.930 . S
H1786 C1774 0.956 . S
H1787 C1774 0.961 . S
H1788 C1774 0.961 . S
H1789 C1775 0.958 . S
H1790 C1775 0.961 . S
H1791 C1775 0.960 . S
C1792 C1793 1.391 . S
C1792 C1794 1.394 . S
C1792 H1808 0.931 . S
C1793 C1792 1.391 . S
C1793 C1797 1.376 . S
C1794 C1792 1.394 . S
C1794 C1795 1.369 . S
C1794 C1798 1.531 . S
C1795 C1794 1.369 . S
C1795 C1796 1.410 . S
C1795 C1803 1.503 . S
C1796 C1795 1.410 . S
C1796 C1797 1.392 . S
C1796 C1799 1.511 . S
C1797 C1793 1.376 . S
C1797 C1796 1.392 . S
C1797 H1809 0.929 . S
C1798 C1794 1.531 . S
C1798 H1810 0.960 . S
C1798 H1811 0.962 . S
C1798 H1812 0.960 . S
C1799 C1796 1.511 . S
C1799 H1813 0.961 . S
C1799 H1814 0.961 . S
C1799 H1815 0.961 . S
C1800 C1801 1.370 . S
C1800 C1802 1.363 . S
C1800 H1816 0.931 . S
C1801 C1800 1.370 . S
C1801 C1805 1.408 . S
C1802 C1800 1.363 . S
C1802 C1803 1.370 . S
C1802 C1806 1.524 . S
C1803 C1795 1.503 . S
C1803 C1802 1.370 . S
C1803 C1804 1.403 . S
C1804 C1803 1.403 . S
C1804 C1805 1.404 . S
C1804 C1807 1.539 . S
C1805 C1801 1.408 . S
C1805 C1804 1.404 . S
C1805 H1817 0.930 . S
C1806 C1802 1.524 . S
C1806 H1818 0.956 . S
C1806 H1819 0.961 . S
C1806 H1820 0.961 . S
C1807 C1804 1.539 . S
C1807 H1821 0.958 . S
C1807 H1822 0.961 . S
C1807 H1823 0.960 . S
H1808 C1792 0.931 . S
H1809 C1797 0.929 . S
H1810 C1798 0.960 . S
H1811 C1798 0.962 . S
H1812 C1798 0.960 . S
H1813 C1799 0.961 . S
H1814 C1799 0.961 . S
H1815 C1799 0.961 . S
H1816 C1800 0.931 . S
H1817 C1805 0.930 . S
H1818 C1806 0.956 . S
H1819 C1806 0.961 . S
H1820 C1806 0.961 . S
H1821 C1807 0.958 . S
H1822 C1807 0.961 . S
H1823 C1807 0.960 . S
C1824 C1825 1.391 . S
C1824 C1826 1.394 . S
C1824 H1840 0.931 . S
C1825 C1824 1.391 . S
C1825 C1829 1.376 . S
C1826 C1824 1.394 . S
C1826 C1827 1.369 . S
C1826 C1830 1.531 . S
C1827 C1826 1.369 . S
C1827 C1828 1.410 . S
C1827 C1835 1.503 . S
C1828 C1827 1.410 . S
C1828 C1829 1.392 . S
C1828 C1831 1.511 . S
C1829 C1825 1.376 . S
C1829 C1828 1.392 . S
C1829 H1841 0.929 . S
C1830 C1826 1.531 . S
C1830 H1842 0.960 . S
C1830 H1843 0.962 . S
C1830 H1844 0.960 . S
C1831 C1828 1.511 . S
C1831 H1845 0.961 . S
C1831 H1846 0.961 . S
C1831 H1847 0.961 . S
C1832 C1833 1.370 . S
C1832 C1834 1.363 . S
C1832 H1848 0.931 . S
C1833 C1832 1.370 . S
C1833 C1837 1.408 . S
C1834 C1832 1.363 . S
C1834 C1835 1.370 . S
C1834 C1838 1.524 . S
C1835 C1827 1.503 . S
C1835 C1834 1.370 . S
C1835 C1836 1.403 . S
C1836 C1835 1.403 . S
C1836 C1837 1.404 . S
C1836 C1839 1.539 . S
C1837 C1833 1.408 . S
C1837 C1836 1.404 . S
C1837 H1849 0.930 . S
C1838 C1834 1.524 . S
C1838 H1850 0.956 . S
C1838 H1851 0.961 . S
C1838 H1852 0.961 . S
C1839 C1836 1.539 . S
C1839 H1853 0.958 . S
C1839 H1854 0.961 . S
C1839 H1855 0.960 . S
H1840 C1824 0.931 . S
H1841 C1829 0.929 . S
H1842 C1830 0.960 . S
H1843 C1830 0.962 . S
H1844 C1830 0.960 . S
H1845 C1831 0.961 . S
H1846 C1831 0.961 . S
H1847 C1831 0.961 . S
H1848 C1832 0.931 . S
H1849 C1837 0.930 . S
H1850 C1838 0.956 . S
H1851 C1838 0.961 . S
H1852 C1838 0.961 . S
H1853 C1839 0.958 . S
H1854 C1839 0.961 . S
H1855 C1839 0.960 . S
C1856 C1857 1.391 . S
C1856 C1858 1.394 . S
C1856 H1872 0.931 . S
C1857 C1856 1.391 . S
C1857 C1861 1.376 . S
C1858 C1856 1.394 . S
C1858 C1859 1.369 . S
C1858 C1862 1.531 . S
C1859 C1858 1.369 . S
C1859 C1860 1.410 . S
C1859 C1867 1.503 . S
C1860 C1859 1.410 . S
C1860 C1861 1.392 . S
C1860 C1863 1.511 . S
C1861 C1857 1.376 . S
C1861 C1860 1.392 . S
C1861 H1873 0.929 . S
C1862 C1858 1.531 . S
C1862 H1874 0.960 . S
C1862 H1875 0.962 . S
C1862 H1876 0.960 . S
C1863 C1860 1.511 . S
C1863 H1877 0.961 . S
C1863 H1878 0.961 . S
C1863 H1879 0.961 . S
C1864 C1865 1.370 . S
C1864 C1866 1.363 . S
C1864 H1880 0.931 . S
C1865 C1864 1.370 . S
C1865 C1869 1.408 . S
C1866 C1864 1.363 . S
C1866 C1867 1.370 . S
C1866 C1870 1.524 . S
C1867 C1859 1.503 . S
C1867 C1866 1.370 . S
C1867 C1868 1.403 . S
C1868 C1867 1.403 . S
C1868 C1869 1.404 . S
C1868 C1871 1.539 . S
C1869 C1865 1.408 . S
C1869 C1868 1.404 . S
C1869 H1881 0.930 . S
C1870 C1866 1.524 . S
C1870 H1882 0.956 . S
C1870 H1883 0.961 . S
C1870 H1884 0.961 . S
C1871 C1868 1.539 . S
C1871 H1885 0.958 . S
C1871 H1886 0.961 . S
C1871 H1887 0.960 . S
H1872 C1856 0.931 . S
H1873 C1861 0.929 . S
H1874 C1862 0.960 . S
H1875 C1862 0.962 . S
H1876 C1862 0.960 . S
H1877 C1863 0.961 . S
H1878 C1863 0.961 . S
H1879 C1863 0.961 . S
H1880 C1864 0.931 . S
H1881 C1869 0.930 . S
H1882 C1870 0.956 . S
H1883 C1870 0.961 . S
H1884 C1870 0.961 . S
H1885 C1871 0.958 . S
H1886 C1871 0.961 . S
H1887 C1871 0.960 . S
C1888 C1889 1.391 . S
C1888 C1890 1.394 . S
C1888 H1904 0.931 . S
C1889 C1888 1.391 . S
C1889 C1893 1.376 . S
C1890 C1888 1.394 . S
C1890 C1891 1.369 . S
C1890 C1894 1.531 . S
C1891 C1890 1.369 . S
C1891 C1892 1.410 . S
C1891 C1899 1.503 . S
C1892 C1891 1.410 . S
C1892 C1893 1.392 . S
C1892 C1895 1.511 . S
C1893 C1889 1.376 . S
C1893 C1892 1.392 . S
C1893 H1905 0.929 . S
C1894 C1890 1.531 . S
C1894 H1906 0.960 . S
C1894 H1907 0.962 . S
C1894 H1908 0.960 . S
C1895 C1892 1.511 . S
C1895 H1909 0.961 . S
C1895 H1910 0.961 . S
C1895 H1911 0.961 . S
C1896 C1897 1.370 . S
C1896 C1898 1.363 . S
C1896 H1912 0.931 . S
C1897 C1896 1.370 . S
C1897 C1901 1.408 . S
C1898 C1896 1.363 . S
C1898 C1899 1.370 . S
C1898 C1902 1.524 . S
C1899 C1891 1.503 . S
C1899 C1898 1.370 . S
C1899 C1900 1.403 . S
C1900 C1899 1.403 . S
C1900 C1901 1.404 . S
C1900 C1903 1.539 . S
C1901 C1897 1.408 . S
C1901 C1900 1.404 . S
C1901 H1913 0.930 . S
C1902 C1898 1.524 . S
C1902 H1914 0.956 . S
C1902 H1915 0.961 . S
C1902 H1916 0.961 . S
C1903 C1900 1.539 . S
C1903 H1917 0.958 . S
C1903 H1918 0.961 . S
C1903 H1919 0.960 . S
H1904 C1888 0.931 . S
H1905 C1893 0.929 . S
H1906 C1894 0.960 . S
H1907 C1894 0.962 . S
H1908 C1894 0.960 . S
H1909 C1895 0.961 . S
H1910 C1895 0.961 . S
H1911 C1895 0.961 . S
H1912 C1896 0.931 . S
H1913 C1901 0.930 . S
H1914 C1902 0.956 . S
H1915 C1902 0.961 . S
H1916 C1902 0.961 . S
H1917 C1903 0.958 . S
H1918 C1903 0.961 . S
H1919 C1903 0.960 . S
C1920 C1921 1.391 . S
C1920 C1922 1.394 . S
C1920 H1936 0.931 . S
C1921 C1920 1.391 . S
C1921 C1925 1.376 . S
C1922 C1920 1.394 . S
C1922 C1923 1.369 . S
C1922 C1926 1.531 . S
C1923 C1922 1.369 . S
C1923 C1924 1.410 . S
C1923 C1931 1.503 . S
C1924 C1923 1.410 . S
C1924 C1925 1.392 . S
C1924 C1927 1.511 . S
C1925 C1921 1.376 . S
C1925 C1924 1.392 . S
C1925 H1937 0.929 . S
C1926 C1922 1.531 . S
C1926 H1938 0.960 . S
C1926 H1939 0.962 . S
C1926 H1940 0.960 . S
C1927 C1924 1.511 . S
C1927 H1941 0.961 . S
C1927 H1942 0.961 . S
C1927 H1943 0.961 . S
C1928 C1929 1.370 . S
C1928 C1930 1.363 . S
C1928 H1944 0.931 . S
C1929 C1928 1.370 . S
C1929 C1933 1.408 . S
C1930 C1928 1.363 . S
C1930 C1931 1.370 . S
C1930 C1934 1.524 . S
C1931 C1923 1.503 . S
C1931 C1930 1.370 . S
C1931 C1932 1.403 . S
C1932 C1931 1.403 . S
C1932 C1933 1.404 . S
C1932 C1935 1.539 . S
C1933 C1929 1.408 . S
C1933 C1932 1.404 . S
C1933 H1945 0.930 . S
C1934 C1930 1.524 . S
C1934 H1946 0.956 . S
C1934 H1947 0.961 . S
C1934 H1948 0.961 . S
C1935 C1932 1.539 . S
C1935 H1949 0.958 . S
C1935 H1950 0.961 . S
C1935 H1951 0.960 . S
H1936 C1920 0.931 . S
H1937 C1925 0.929 . S
H1938 C1926 0.960 . S
H1939 C1926 0.962 . S
H1940 C1926 0.960 . S
H1941 C1927 0.961 . S
H1942 C1927 0.961 . S
H1943 C1927 0.961 . S
H1944 C1928 0.931 . S
H1945 C1933 0.930 . S
H1946 C1934 0.956 . S
H1947 C1934 0.961 . S
H1948 C1934 0.961 . S
H1949 C1935 0.958 . S
H1950 C1935 0.961 . S
H1951 C1935 0.960 . S
C1952 C1953 1.391 . S
C1952 C1954 1.394 . S
C1952 H1968 0.931 . S
C1953 C1952 1.391 . S
C1953 C1957 1.376 . S
C1954 C1952 1.394 . S
C1954 C1955 1.369 . S
C1954 C1958 1.531 . S
C1955 C1954 1.369 . S
C1955 C1956 1.410 . S
C1955 C1963 1.503 . S
C1956 C1955 1.410 . S
C1956 C1957 1.392 . S
C1956 C1959 1.511 . S
C1957 C1953 1.376 . S
C1957 C1956 1.392 . S
C1957 H1969 0.929 . S
C1958 C1954 1.531 . S
C1958 H1970 0.960 . S
C1958 H1971 0.962 . S
C1958 H1972 0.960 . S
C1959 C1956 1.511 . S
C1959 H1973 0.961 . S
C1959 H1974 0.961 . S
C1959 H1975 0.961 . S
C1960 C1961 1.370 . S
C1960 C1962 1.363 . S
C1960 H1976 0.931 . S
C1961 C1960 1.370 . S
C1961 C1965 1.408 . S
C1962 C1960 1.363 . S
C1962 C1963 1.370 . S
C1962 C1966 1.524 . S
C1963 C1955 1.503 . S
C1963 C1962 1.370 . S
C1963 C1964 1.403 . S
C1964 C1963 1.403 . S
C1964 C1965 1.404 . S
C1964 C1967 1.539 . S
C1965 C1961 1.408 . S
C1965 C1964 1.404 . S
C1965 H1977 0.930 . S
C1966 C1962 1.524 . S
C1966 H1978 0.956 . S
C1966 H1979 0.961 . S
C1966 H1980 0.961 . S
C1967 C1964 1.539 . S
C1967 H1981 0.958 . S
C1967 H1982 0.961 . S
C1967 H1983 0.960 . S
H1968 C1952 0.931 . S
H1969 C1957 0.929 . S
H1970 C1958 0.960 . S
H1971 C1958 0.962 . S
H1972 C1958 0.960 . S
H1973 C1959 0.961 . S
H1974 C1959 0.961 . S
H1975 C1959 0.961 . S
H1976 C1960 0.931 . S
H1977 C1965 0.930 . S
H1978 C1966 0.956 . S
H1979 C1966 0.961 . S
H1980 C1966 0.961 . S
H1981 C1967 0.958 . S
H1982 C1967 0.961 . S
H1983 C1967 0.960 . S
C1984 C1985 1.391 . S
C1984 C1986 1.394 . S
C1984 H2000 0.931 . S
C1985 C1984 1.391 . S
C1985 C1989 1.376 . S
C1986 C1984 1.394 . S
C1986 C1987 1.369 . S
C1986 C1990 1.531 . S
C1987 C1986 1.369 . S
C1987 C1988 1.410 . S
C1987 C1995 1.503 . S
C1988 C1987 1.410 . S
C1988 C1989 1.392 . S
C1988 C1991 1.511 . S
C1989 C1985 1.376 . S
C1989 C1988 1.392 . S
C1989 H2001 0.929 . S
C1990 C1986 1.531 . S
C1990 H2002 0.960 . S
C1990 H2003 0.962 . S
C1990 H2004 0.960 . S
C1991 C1988 1.511 . S
C1991 H2005 0.961 . S
C1991 H2006 0.961 . S
C1991 H2007 0.961 . S
C1992 C1993 1.370 . S
C1992 C1994 1.363 . S
C1992 H2008 0.931 . S
C1993 C1992 1.370 . S
C1993 C1997 1.408 . S
C1994 C1992 1.363 . S
C1994 C1995 1.370 . S
C1994 C1998 1.524 . S
C1995 C1987 1.503 . S
C1995 C1994 1.370 . S
C1995 C1996 1.403 . S
C1996 C1995 1.403 . S
C1996 C1997 1.404 . S
C1996 C1999 1.539 . S
C1997 C1993 1.408 . S
C1997 C1996 1.404 . S
C1997 H2009 0.930 . S
C1998 C1994 1.524 . S
C1998 H2010 0.956 . S
C1998 H2011 0.961 . S
C1998 H2012 0.961 . S
C1999 C1996 1.539 . S
C1999 H2013 0.958 . S
C1999 H2014 0.961 . S
C1999 H2015 0.960 . S
H2000 C1984 0.931 . S
H2001 C1989 0.929 . S
H2002 C1990 0.960 . S
H2003 C1990 0.962 . S
H2004 C1990 0.960 . S
H2005 C1991 0.961 . S
H2006 C1991 0.961 . S
H2007 C1991 0.961 . S
H2008 C1992 0.931 . S
H2009 C1997 0.930 . S
H2010 C1998 0.956 . S
H2011 C1998 0.961 . S
H2012 C1998 0.961 . S
H2013 C1999 0.958 . S
H2014 C1999 0.961 . S
H2015 C1999 0.960 . S
C2016 C2017 1.391 . S
C2016 C2018 1.394 . S
C2016 H2032 0.931 . S
C2017 C2016 1.391 . S
C2017 C2021 1.376 . S
C2018 C2016 1.394 . S
C2018 C2019 1.369 . S
C2018 C2022 1.531 . S
C2019 C2018 1.369 . S
C2019 C2020 1.410 . S
C2019 C2027 1.503 . S
C2020 C2019 1.410 . S
C2020 C2021 1.392 . S
C2020 C2023 1.511 . S
C2021 C2017 1.376 . S
C2021 C2020 1.392 . S
C2021 H2033 0.929 . S
C2022 C2018 1.531 . S
C2022 H2034 0.960 . S
C2022 H2035 0.962 . S
C2022 H2036 0.960 . S
C2023 C2020 1.511 . S
C2023 H2037 0.961 . S
C2023 H2038 0.961 . S
C2023 H2039 0.961 . S
C2024 C2025 1.370 . S
C2024 C2026 1.363 . S
C2024 H2040 0.931 . S
C2025 C2024 1.370 . S
C2025 C2029 1.408 . S
C2026 C2024 1.363 . S
C2026 C2027 1.370 . S
C2026 C2030 1.524 . S
C2027 C2019 1.503 . S
C2027 C2026 1.370 . S
C2027 C2028 1.403 . S
C2028 C2027 1.403 . S
C2028 C2029 1.404 . S
C2028 C2031 1.539 . S
C2029 C2025 1.408 . S
C2029 C2028 1.404 . S
C2029 H2041 0.930 . S
C2030 C2026 1.524 . S
C2030 H2042 0.956 . S
C2030 H2043 0.961 . S
C2030 H2044 0.961 . S
C2031 C2028 1.539 . S
C2031 H2045 0.958 . S
C2031 H2046 0.961 . S
C2031 H2047 0.960 . S
H2032 C2016 0.931 . S
H2033 C2021 0.929 . S
H2034 C2022 0.960 . S
H2035 C2022 0.962 . S
H2036 C2022 0.960 . S
H2037 C2023 0.961 . S
H2038 C2023 0.961 . S
H2039 C2023 0.961 . S
H2040 C2024 0.931 . S
H2041 C2029 0.930 . S
H2042 C2030 0.956 . S
H2043 C2030 0.961 . S
H2044 C2030 0.961 . S
H2045 C2031 0.958 . S
H2046 C2031 0.961 . S
H2047 C2031 0.960 . S
C2048 C2049 1.391 . S
C2048 C2050 1.394 . S
C2048 H2064 0.931 . S
C2049 C2048 1.391 . S
C2049 C2053 1.376 . S
C2050 C2048 1.394 . S
C2050 C2051 1.369 . S
C2050 C2054 1.531 . S
C2051 C2050 1.369 . S
C2051 C2052 1.410 . S
C2051 C2059 1.503 . S
C2052 C2051 1.410 . S
C2052 C2053 1.392 . S
C2052 C2055 1.511 . S
C2053 C2049 1.376 . S
C2053 C2052 1.392 . S
C2053 H2065 0.929 . S
C2054 C2050 1.531 . S
C2054 H2066 0.960 . S
C2054 H2067 0.962 . S
C2054 H2068 0.960 . S
C2055 C2052 1.511 . S
C2055 H2069 0.961 . S
C2055 H2070 0.961 . S
C2055 H2071 0.961 . S
C2056 C2057 1.370 . S
C2056 C2058 1.363 . S
C2056 H2072 0.931 . S
C2057 C2056 1.370 . S
C2057 C2061 1.408 . S
C2058 C2056 1.363 . S
C2058 C2059 1.370 . S
C2058 C2062 1.524 . S
C2059 C2051 1.503 . S
C2059 C2058 1.370 . S
C2059 C2060 1.403 . S
C2060 C2059 1.403 . S
C2060 C2061 1.404 . S
C2060 C2063 1.539 . S
C2061 C2057 1.408 . S
C2061 C2060 1.404 . S
C2061 H2073 0.930 . S
C2062 C2058 1.524 . S
C2062 H2074 0.956 . S
C2062 H2075 0.961 . S
C2062 H2076 0.961 . S
C2063 C2060 1.539 . S
C2063 H2077 0.958 . S
C2063 H2078 0.961 . S
C2063 H2079 0.960 . S
H2064 C2048 0.931 . S
H2065 C2053 0.929 . S
H2066 C2054 0.960 . S
H2067 C2054 0.962 . S
H2068 C2054 0.960 . S
H2069 C2055 0.961 . S
H2070 C2055 0.961 . S
H2071 C2055 0.961 . S
H2072 C2056 0.931 . S
H2073 C2061 0.930 . S
H2074 C2062 0.956 . S
H2075 C2062 0.961 . S
H2076 C2062 0.961 . S
H2077 C2063 0.958 . S
H2078 C2063 0.961 . S
H2079 C2063 0.960 . S
C2080 C2081 1.391 . S
C2080 C2082 1.394 . S
C2080 H2096 0.931 . S
C2081 C2080 1.391 . S
C2081 C2085 1.376 . S
C2082 C2080 1.394 . S
C2082 C2083 1.369 . S
C2082 C2086 1.531 . S
C2083 C2082 1.369 . S
C2083 C2084 1.410 . S
C2083 C2091 1.503 . S
C2084 C2083 1.410 . S
C2084 C2085 1.392 . S
C2084 C2087 1.511 . S
C2085 C2081 1.376 . S
C2085 C2084 1.392 . S
C2085 H2097 0.929 . S
C2086 C2082 1.531 . S
C2086 H2098 0.960 . S
C2086 H2099 0.962 . S
C2086 H2100 0.960 . S
C2087 C2084 1.511 . S
C2087 H2101 0.961 . S
C2087 H2102 0.961 . S
C2087 H2103 0.961 . S
C2088 C2089 1.370 . S
C2088 C2090 1.363 . S
C2088 H2104 0.931 . S
C2089 C2088 1.370 . S
C2089 C2093 1.408 . S
C2090 C2088 1.363 . S
C2090 C2091 1.370 . S
C2090 C2094 1.524 . S
C2091 C2083 1.503 . S
C2091 C2090 1.370 . S
C2091 C2092 1.403 . S
C2092 C2091 1.403 . S
C2092 C2093 1.404 . S
C2092 C2095 1.539 . S
C2093 C2089 1.408 . S
C2093 C2092 1.404 . S
C2093 H2105 0.930 . S
C2094 C2090 1.524 . S
C2094 H2106 0.956 . S
C2094 H2107 0.961 . S
C2094 H2108 0.961 . S
C2095 C2092 1.539 . S
C2095 H2109 0.958 . S
C2095 H2110 0.961 . S
C2095 H2111 0.960 . S
H2096 C2080 0.931 . S
H2097 C2085 0.929 . S
H2098 C2086 0.960 . S
H2099 C2086 0.962 . S
H2100 C2086 0.960 . S
H2101 C2087 0.961 . S
H2102 C2087 0.961 . S
H2103 C2087 0.961 . S
H2104 C2088 0.931 . S
H2105 C2093 0.930 . S
H2106 C2094 0.956 . S
H2107 C2094 0.961 . S
H2108 C2094 0.961 . S
H2109 C2095 0.958 . S
H2110 C2095 0.961 . S
H2111 C2095 0.960 . S
C2112 C2113 1.391 . S
C2112 C2114 1.394 . S
C2112 H2128 0.931 . S
C2113 C2112 1.391 . S
C2113 C2117 1.376 . S
C2114 C2112 1.394 . S
C2114 C2115 1.369 . S
C2114 C2118 1.531 . S
C2115 C2114 1.369 . S
C2115 C2116 1.410 . S
C2115 C2123 1.503 . S
C2116 C2115 1.410 . S
C2116 C2117 1.392 . S
C2116 C2119 1.511 . S
C2117 C2113 1.376 . S
C2117 C2116 1.392 . S
C2117 H2129 0.929 . S
C2118 C2114 1.531 . S
C2118 H2130 0.960 . S
C2118 H2131 0.962 . S
C2118 H2132 0.960 . S
C2119 C2116 1.511 . S
C2119 H2133 0.961 . S
C2119 H2134 0.961 . S
C2119 H2135 0.961 . S
C2120 C2121 1.370 . S
C2120 C2122 1.363 . S
C2120 H2136 0.931 . S
C2121 C2120 1.370 . S
C2121 C2125 1.408 . S
C2122 C2120 1.363 . S
C2122 C2123 1.370 . S
C2122 C2126 1.524 . S
C2123 C2115 1.503 . S
C2123 C2122 1.370 . S
C2123 C2124 1.403 . S
C2124 C2123 1.403 . S
C2124 C2125 1.404 . S
C2124 C2127 1.539 . S
C2125 C2121 1.408 . S
C2125 C2124 1.404 . S
C2125 H2137 0.930 . S
C2126 C2122 1.524 . S
C2126 H2138 0.956 . S
C2126 H2139 0.961 . S
C2126 H2140 0.961 . S
C2127 C2124 1.539 . S
C2127 H2141 0.958 . S
C2127 H2142 0.961 . S
C2127 H2143 0.960 . S
H2128 C2112 0.931 . S
H2129 C2117 0.929 . S
H2130 C2118 0.960 . S
H2131 C2118 0.962 . S
H2132 C2118 0.960 . S
H2133 C2119 0.961 . S
H2134 C2119 0.961 . S
H2135 C2119 0.961 . S
H2136 C2120 0.931 . S
H2137 C2125 0.930 . S
H2138 C2126 0.956 . S
H2139 C2126 0.961 . S
H2140 C2126 0.961 . S
H2141 C2127 0.958 . S
H2142 C2127 0.961 . S
H2143 C2127 0.960 . S
C2144 C2145 1.391 . S
C2144 C2146 1.394 . S
C2144 H2160 0.931 . S
C2145 C2144 1.391 . S
C2145 C2149 1.376 . S
C2146 C2144 1.394 . S
C2146 C2147 1.369 . S
C2146 C2150 1.531 . S
C2147 C2146 1.369 . S
C2147 C2148 1.410 . S
C2147 C2155 1.503 . S
C2148 C2147 1.410 . S
C2148 C2149 1.392 . S
C2148 C2151 1.511 . S
C2149 C2145 1.376 . S
C2149 C2148 1.392 . S
C2149 H2161 0.929 . S
C2150 C2146 1.531 . S
C2150 H2162 0.960 . S
C2150 H2163 0.962 . S
C2150 H2164 0.960 . S
C2151 C2148 1.511 . S
C2151 H2165 0.961 . S
C2151 H2166 0.961 . S
C2151 H2167 0.961 . S
C2152 C2153 1.370 . S
C2152 C2154 1.363 . S
C2152 H2168 0.931 . S
C2153 C2152 1.370 . S
C2153 C2157 1.408 . S
C2154 C2152 1.363 . S
C2154 C2155 1.370 . S
C2154 C2158 1.524 . S
C2155 C2147 1.503 . S
C2155 C2154 1.370 . S
C2155 C2156 1.403 . S
C2156 C2155 1.403 . S
C2156 C2157 1.404 . S
C2156 C2159 1.539 . S
C2157 C2153 1.408 . S
C2157 C2156 1.404 . S
C2157 H2169 0.930 . S
C2158 C2154 1.524 . S
C2158 H2170 0.956 . S
C2158 H2171 0.961 . S
C2158 H2172 0.961 . S
C2159 C2156 1.539 . S
C2159 H2173 0.958 . S
C2159 H2174 0.961 . S
C2159 H2175 0.960 . S
H2160 C2144 0.931 . S
H2161 C2149 0.929 . S
H2162 C2150 0.960 . S
H2163 C2150 0.962 . S
H2164 C2150 0.960 . S
H2165 C2151 0.961 . S
H2166 C2151 0.961 . S
H2167 C2151 0.961 . S
H2168 C2152 0.931 . S
H2169 C2157 0.930 . S
H2170 C2158 0.956 . S
H2171 C2158 0.961 . S
H2172 C2158 0.961 . S
H2173 C2159 0.958 . S
H2174 C2159 0.961 . S
H2175 C2159 0.960 . S
C2176 C2177 1.391 . S
C2176 C2178 1.394 . S
C2176 H2192 0.931 . S
C2177 C2176 1.391 . S
C2177 C2181 1.376 . S
C2178 C2176 1.394 . S
C2178 C2179 1.369 . S
C2178 C2182 1.531 . S
C2179 C2178 1.369 . S
C2179 C2180 1.410 . S
C2179 C2187 1.503 . S
C2180 C2179 1.410 . S
C2180 C2181 1.392 . S
C2180 C2183 1.511 . S
C2181 C2177 1.376 . S
C2181 C2180 1.392 . S
C2181 H2193 0.929 . S
C2182 C2178 1.531 . S
C2182 H2194 0.960 . S
C2182 H2195 0.962 . S
C2182 H2196 0.960 . S
C2183 C2180 1.511 . S
C2183 H2197 0.961 . S
C2183 H2198 0.961 . S
C2183 H2199 0.961 . S
C2184 C2185 1.370 . S
C2184 C2186 1.363 . S
C2184 H2200 0.931 . S
C2185 C2184 1.370 . S
C2185 C2189 1.408 . S
C2186 C2184 1.363 . S
C2186 C2187 1.370 . S
C2186 C2190 1.524 . S
C2187 C2179 1.503 . S
C2187 C2186 1.370 . S
C2187 C2188 1.403 . S
C2188 C2187 1.403 . S
C2188 C2189 1.404 . S
C2188 C2191 1.539 . S
C2189 C2185 1.408 . S
C2189 C2188 1.404 . S
C2189 H2201 0.930 . S
C2190 C2186 1.524 . S
C2190 H2202 0.956 . S
C2190 H2203 0.961 . S
C2190 H2204 0.961 . S
C2191 C2188 1.539 . S
C2191 H2205 0.958 . S
C2191 H2206 0.961 . S
C2191 H2207 0.960 . S
H2192 C2176 0.931 . S
H2193 C2181 0.929 . S
H2194 C2182 0.960 . S
H2195 C2182 0.962 . S
H2196 C2182 0.960 . S
H2197 C2183 0.961 . S
H2198 C2183 0.961 . S
H2199 C2183 0.961 . S
H2200 C2184 0.931 . S
H2201 C2189 0.930 . S
H2202 C2190 0.956 . S
H2203 C2190 0.961 . S
H2204 C2190 0.961 . S
H2205 C2191 0.958 . S
H2206 C2191 0.961 . S
H2207 C2191 0.960 . S
C2208 C2209 1.391 . S
C2208 C2210 1.394 . S
C2208 H2224 0.931 . S
C2209 C2208 1.391 . S
C2209 C2213 1.376 . S
C2210 C2208 1.394 . S
C2210 C2211 1.369 . S
C2210 C2214 1.531 . S
C2211 C2210 1.369 . S
C2211 C2212 1.410 . S
C2211 C2219 1.503 . S
C2212 C2211 1.410 . S
C2212 C2213 1.392 . S
C2212 C2215 1.511 . S
C2213 C2209 1.376 . S
C2213 C2212 1.392 . S
C2213 H2225 0.929 . S
C2214 C2210 1.531 . S
C2214 H2226 0.960 . S
C2214 H2227 0.962 . S
C2214 H2228 0.960 . S
C2215 C2212 1.511 . S
C2215 H2229 0.961 . S
C2215 H2230 0.961 . S
C2215 H2231 0.961 . S
C2216 C2217 1.370 . S
C2216 C2218 1.363 . S
C2216 H2232 0.931 . S
C2217 C2216 1.370 . S
C2217 C2221 1.408 . S
C2218 C2216 1.363 . S
C2218 C2219 1.370 . S
C2218 C2222 1.524 . S
C2219 C2211 1.503 . S
C2219 C2218 1.370 . S
C2219 C2220 1.403 . S
C2220 C2219 1.403 . S
C2220 C2221 1.404 . S
C2220 C2223 1.539 . S
C2221 C2217 1.408 . S
C2221 C2220 1.404 . S
C2221 H2233 0.930 . S
C2222 C2218 1.524 . S
C2222 H2234 0.956 . S
C2222 H2235 0.961 . S
C2222 H2236 0.961 . S
C2223 C2220 1.539 . S
C2223 H2237 0.958 . S
C2223 H2238 0.961 . S
C2223 H2239 0.960 . S
H2224 C2208 0.931 . S
H2225 C2213 0.929 . S
H2226 C2214 0.960 . S
H2227 C2214 0.962 . S
H2228 C2214 0.960 . S
H2229 C2215 0.961 . S
H2230 C2215 0.961 . S
H2231 C2215 0.961 . S
H2232 C2216 0.931 . S
H2233 C2221 0.930 . S
H2234 C2222 0.956 . S
H2235 C2222 0.961 . S
H2236 C2222 0.961 . S
H2237 C2223 0.958 . S
H2238 C2223 0.961 . S
H2239 C2223 0.960 . S
C2240 C2241 1.391 . S
C2240 C2242 1.394 . S
C2240 H2256 0.931 . S
C2241 C2240 1.391 . S
C2241 C2245 1.376 . S
C2242 C2240 1.394 . S
C2242 C2243 1.369 . S
C2242 C2246 1.531 . S
C2243 C2242 1.369 . S
C2243 C2244 1.410 . S
C2243 C2251 1.503 . S
C2244 C2243 1.410 . S
C2244 C2245 1.392 . S
C2244 C2247 1.511 . S
C2245 C2241 1.376 . S
C2245 C2244 1.392 . S
C2245 H2257 0.929 . S
C2246 C2242 1.531 . S
C2246 H2258 0.960 . S
C2246 H2259 0.962 . S
C2246 H2260 0.960 . S
C2247 C2244 1.511 . S
C2247 H2261 0.961 . S
C2247 H2262 0.961 . S
C2247 H2263 0.961 . S
C2248 C2249 1.370 . S
C2248 C2250 1.363 . S
C2248 H2264 0.931 . S
C2249 C2248 1.370 . S
C2249 C2253 1.408 . S
C2250 C2248 1.363 . S
C2250 C2251 1.370 . S
C2250 C2254 1.524 . S
C2251 C2243 1.503 . S
C2251 C2250 1.370 . S
C2251 C2252 1.403 . S
C2252 C2251 1.403 . S
C2252 C2253 1.404 . S
C2252 C2255 1.539 . S
C2253 C2249 1.408 . S
C2253 C2252 1.404 . S
C2253 H2265 0.930 . S
C2254 C2250 1.524 . S
C2254 H2266 0.956 . S
C2254 H2267 0.961 . S
C2254 H2268 0.961 . S
C2255 C2252 1.539 . S
C2255 H2269 0.958 . S
C2255 H2270 0.961 . S
C2255 H2271 0.960 . S
H2256 C2240 0.931 . S
H2257 C2245 0.929 . S
H2258 C2246 0.960 . S
H2259 C2246 0.962 . S
H2260 C2246 0.960 . S
H2261 C2247 0.961 . S
H2262 C2247 0.961 . S
H2263 C2247 0.961 . S
H2264 C2248 0.931 . S
H2265 C2253 0.930 . S
H2266 C2254 0.956 . S
H2267 C2254 0.961 . S
H2268 C2254 0.961 . S
H2269 C2255 0.958 . S
H2270 C2255 0.961 . S
H2271 C2255 0.960 . S
C2272 C2273 1.391 . S
C2272 C2274 1.394 . S
C2272 H2288 0.931 . S
C2273 C2272 1.391 . S
C2273 C2277 1.376 . S
C2274 C2272 1.394 . S
C2274 C2275 1.369 . S
C2274 C2278 1.531 . S
C2275 C2274 1.369 . S
C2275 C2276 1.410 . S
C2275 C2283 1.503 . S
C2276 C2275 1.410 . S
C2276 C2277 1.392 . S
C2276 C2279 1.511 . S
C2277 C2273 1.376 . S
C2277 C2276 1.392 . S
C2277 H2289 0.929 . S
C2278 C2274 1.531 . S
C2278 H2290 0.960 . S
C2278 H2291 0.962 . S
C2278 H2292 0.960 . S
C2279 C2276 1.511 . S
C2279 H2293 0.961 . S
C2279 H2294 0.961 . S
C2279 H2295 0.961 . S
C2280 C2281 1.370 . S
C2280 C2282 1.363 . S
C2280 H2296 0.931 . S
C2281 C2280 1.370 . S
C2281 C2285 1.408 . S
C2282 C2280 1.363 . S
C2282 C2283 1.370 . S
C2282 C2286 1.524 . S
C2283 C2275 1.503 . S
C2283 C2282 1.370 . S
C2283 C2284 1.403 . S
C2284 C2283 1.403 . S
C2284 C2285 1.404 . S
C2284 C2287 1.539 . S
C2285 C2281 1.408 . S
C2285 C2284 1.404 . S
C2285 H2297 0.930 . S
C2286 C2282 1.524 . S
C2286 H2298 0.956 . S
C2286 H2299 0.961 . S
C2286 H2300 0.961 . S
C2287 C2284 1.539 . S
C2287 H2301 0.958 . S
C2287 H2302 0.961 . S
C2287 H2303 0.960 . S
H2288 C2272 0.931 . S
H2289 C2277 0.929 . S
H2290 C2278 0.960 . S
H2291 C2278 0.962 . S
H2292 C2278 0.960 . S
H2293 C2279 0.961 . S
H2294 C2279 0.961 . S
H2295 C2279 0.961 . S
H2296 C2280 0.931 . S
H2297 C2285 0.930 . S
H2298 C2286 0.956 . S
H2299 C2286 0.961 . S
H2300 C2286 0.961 . S
H2301 C2287 0.958 . S
H2302 C2287 0.961 . S
H2303 C2287 0.960 . S
C2304 C2305 1.391 . S
C2304 C2306 1.394 . S
C2304 H2320 0.931 . S
C2305 C2304 1.391 . S
C2305 C2309 1.376 . S
C2306 C2304 1.394 . S
C2306 C2307 1.369 . S
C2306 C2310 1.531 1_554 S
C2307 C2306 1.369 . S
C2307 C2308 1.410 1_545 S
C2307 C2315 1.503 1_544 S
C2308 C2307 1.410 1_565 S
C2308 C2309 1.392 1_565 S
C2308 C2311 1.511 . S
C2309 C2305 1.376 . S
C2309 C2308 1.392 1_545 S
C2309 H2321 0.945 . S
C2310 C2306 1.531 1_556 S
C2310 H2322 0.960 . S
C2310 H2323 0.962 . S
C2310 H2324 0.960 . S
C2311 C2308 1.511 . S
C2311 H2325 0.961 . S
C2311 H2326 0.961 . S
C2311 H2327 0.961 . S
C2312 C2313 1.370 . S
C2312 C2314 1.363 . S
C2312 H2328 0.931 . S
C2313 C2312 1.370 . S
C2313 C2317 1.408 . S
C2314 C2312 1.363 . S
C2314 C2315 1.370 . S
C2314 C2318 1.524 1_556 S
C2315 C2307 1.503 1_566 S
C2315 C2314 1.370 . S
C2315 C2316 1.403 1_565 S
C2316 C2315 1.403 1_545 S
C2316 C2317 1.404 1_545 S
C2316 C2319 1.539 . S
C2317 C2313 1.408 . S
C2317 C2316 1.404 1_565 S
C2317 H2329 0.930 . S
C2318 C2314 1.524 1_554 S
C2318 H2330 0.956 . S
C2318 H2331 0.961 . S
C2318 H2332 0.961 1_554 S
C2319 C2316 1.539 . S
C2319 H2333 0.958 . S
C2319 H2334 0.961 . S
C2319 H2335 0.960 . S
H2320 C2304 0.931 . S
H2321 C2309 0.945 . S
H2322 C2310 0.960 . S
H2323 C2310 0.962 . S
H2324 C2310 0.960 . S
H2325 C2311 0.961 . S
H2326 C2311 0.961 . S
H2327 C2311 0.961 . S
H2328 C2312 0.931 . S
H2329 C2317 0.930 . S
H2330 C2318 0.956 . S
H2331 C2318 0.961 . S
H2332 C2318 0.961 1_556 S
H2333 C2319 0.958 . S
H2334 C2319 0.961 . S
H2335 C2319 0.960 . S
C2336 C2337 1.391 . S
C2336 C2338 1.394 . S
C2336 H2352 0.931 . S
C2337 C2336 1.391 . S
C2337 C2341 1.376 . S
C2338 C2336 1.394 . S
C2338 C2339 1.369 . S
C2338 C2342 1.531 1_556 S
C2339 C2338 1.369 . S
C2339 C2340 1.410 1_455 S
C2339 C2347 1.503 1_456 S
C2340 C2339 1.410 1_655 S
C2340 C2341 1.392 1_655 S
C2340 C2343 1.511 . S
C2341 C2337 1.376 . S
C2341 C2340 1.392 1_455 S
C2341 H2353 0.951 . S
C2342 C2338 1.531 1_554 S
C2342 H2354 0.960 . S
C2342 H2355 0.962 . S
C2342 H2356 0.960 . S
C2343 C2340 1.511 . S
C2343 H2357 0.961 . S
C2343 H2358 0.961 . S
C2343 H2359 0.961 . S
C2344 C2345 1.370 . S
C2344 C2346 1.363 . S
C2344 H2360 0.931 . S
C2345 C2344 1.370 . S
C2345 C2349 1.408 . S
C2346 C2344 1.363 . S
C2346 C2347 1.370 . S
C2346 C2350 1.524 1_554 S
C2347 C2339 1.503 1_654 S
C2347 C2346 1.370 . S
C2347 C2348 1.403 1_655 S
C2348 C2347 1.403 1_455 S
C2348 C2349 1.404 1_455 S
C2348 C2351 1.539 . S
C2349 C2345 1.408 . S
C2349 C2348 1.404 1_655 S
C2349 H2361 0.930 . S
C2350 C2346 1.524 1_556 S
C2350 H2362 0.956 . S
C2350 H2363 0.961 . S
C2350 H2364 0.961 1_556 S
C2351 C2348 1.539 . S
C2351 H2365 0.958 . S
C2351 H2366 0.961 . S
C2351 H2367 0.960 . S
H2352 C2336 0.931 . S
H2353 C2341 0.951 . S
H2354 C2342 0.960 . S
H2355 C2342 0.962 . S
H2356 C2342 0.960 . S
H2357 C2343 0.961 . S
H2358 C2343 0.961 . S
H2359 C2343 0.961 . S
H2360 C2344 0.931 . S
H2361 C2349 0.930 . S
H2362 C2350 0.956 . S
H2363 C2350 0.961 . S
H2364 C2350 0.961 1_554 S
H2365 C2351 0.958 . S
H2366 C2351 0.961 . S
H2367 C2351 0.960 . S
C2368 C2369 1.391 . S
C2368 C2370 1.394 . S
C2368 H2384 0.931 . S
C2369 C2368 1.391 . S
C2369 C2373 1.376 . S
C2370 C2368 1.394 . S
C2370 C2371 1.369 . S
C2370 C2374 1.531 1_556 S
C2371 C2370 1.369 . S
C2371 C2372 1.410 1_545 S
C2371 C2379 1.503 1_546 S
C2372 C2371 1.410 1_565 S
C2372 C2373 1.392 1_565 S
C2372 C2375 1.511 . S
C2373 C2369 1.376 . S
C2373 C2372 1.392 1_545 S
C2373 H2385 0.929 . S
C2374 C2370 1.531 1_554 S
C2374 H2386 0.960 . S
C2374 H2387 0.962 . S
C2374 H2388 0.960 . S
C2375 C2372 1.511 . S
C2375 H2389 0.961 . S
C2375 H2390 0.961 . S
C2375 H2391 0.961 . S
C2376 C2377 1.370 . S
C2376 C2378 1.363 . S
C2376 H2392 0.931 . S
C2377 C2376 1.370 . S
C2377 C2381 1.408 . S
C2378 C2376 1.363 . S
C2378 C2379 1.370 . S
C2378 C2382 1.524 1_554 S
C2379 C2371 1.503 1_564 S
C2379 C2378 1.370 . S
C2379 C2380 1.403 1_565 S
C2380 C2379 1.403 1_545 S
C2380 C2381 1.404 1_545 S
C2380 C2383 1.539 . S
C2381 C2377 1.408 . S
C2381 C2380 1.404 1_565 S
C2381 H2393 0.930 . S
C2382 C2378 1.524 1_556 S
C2382 H2394 0.956 . S
C2382 H2395 0.961 . S
C2382 H2396 0.961 1_556 S
C2383 C2380 1.539 . S
C2383 H2397 0.958 . S
C2383 H2398 0.961 . S
C2383 H2399 0.960 . S
H2384 C2368 0.931 . S
H2385 C2373 0.929 . S
H2386 C2374 0.960 . S
H2387 C2374 0.962 . S
H2388 C2374 0.960 . S
H2389 C2375 0.961 . S
H2390 C2375 0.961 . S
H2391 C2375 0.961 . S
H2392 C2376 0.931 . S
H2393 C2381 0.930 . S
H2394 C2382 0.956 . S
H2395 C2382 0.961 . S
H2396 C2382 0.961 1_554 S
H2397 C2383 0.958 . S
H2398 C2383 0.961 . S
H2399 C2383 0.960 . S
C2400 C2401 1.391 . S
C2400 C2402 1.394 . S
C2400 H2416 0.931 . S
C2401 C2400 1.391 . S
C2401 C2405 1.376 . S
C2402 C2400 1.394 . S
C2402 C2403 1.369 . S
C2402 C2406 1.531 . S
C2403 C2402 1.369 . S
C2403 C2404 1.410 1_655 S
C2403 C2411 1.503 1_656 S
C2404 C2403 1.410 1_455 S
C2404 C2405 1.392 1_455 S
C2404 C2407 1.511 . S
C2405 C2401 1.376 . S
C2405 C2404 1.392 1_655 S
C2405 H2417 0.929 . S
C2406 C2402 1.531 . S
C2406 H2418 0.960 1_556 S
C2406 H2419 0.962 1_556 S
C2406 H2420 0.960 . S
C2407 C2404 1.511 . S
C2407 H2421 0.961 . S
C2407 H2422 0.961 . S
C2407 H2423 0.961 . S
C2408 C2409 1.370 . S
C2408 C2410 1.363 1_455 S
C2408 H2424 0.926 1_455 S
C2409 C2408 1.370 . S
C2409 C2413 1.408 . S
C2410 C2408 1.363 1_655 S
C2410 C2411 1.370 1_655 S
C2410 C2414 1.524 . S
C2411 C2403 1.503 1_454 S
C2411 C2410 1.370 1_455 S
C2411 C2412 1.403 . S
C2412 C2411 1.403 . S
C2412 C2413 1.404 . S
C2412 C2415 1.539 1_554 S
C2413 C2409 1.408 . S
C2413 C2412 1.404 . S
C2413 H2425 0.930 . S
C2414 C2410 1.524 . S
C2414 H2426 0.956 . S
C2414 H2427 0.961 . S
C2414 H2428 0.961 . S
C2415 C2412 1.539 1_556 S
C2415 H2429 0.958 . S
C2415 H2430 0.962 . S
C2415 H2431 0.960 . S
H2416 C2400 0.931 . S
H2417 C2405 0.929 . S
H2418 C2406 0.960 1_554 S
H2419 C2406 0.962 1_554 S
H2420 C2406 0.960 . S
H2421 C2407 0.961 . S
H2422 C2407 0.961 . S
H2423 C2407 0.961 . S
H2424 C2408 0.926 1_655 S
H2425 C2413 0.930 . S
H2426 C2414 0.956 . S
H2427 C2414 0.961 . S
H2428 C2414 0.961 . S
H2429 C2415 0.958 . S
H2430 C2415 0.962 . S
H2431 C2415 0.960 . S
C1409 C49 0.936 . S
C1417 C636 0.939 . S
C1441 C145 0.915 . S
C1449 C381 0.935 . S
C1473 C469 0.921 . S
C1481 C196 0.934 . S
C1505 C321 0.944 . S
C1513 C577 0.942 . S
C1537 C753 0.967 . S
C1545 C1340 0.952 . S
C1569 C1085 0.914 . S
C1577 C849 0.932 . S
C1601 C1173 0.923 . S
C1609 C900 0.935 . S
C1633 C1289 0.964 . S
C1641 C1017 0.951 . S
C1665 C20 1.112 . S
C1673 C997 1.221 . S
C1697 C117 1.116 . S
C1705 C761 1.231 . S
C1729 C812 1.211 . S
C1737 C225 1.150 . S
C1761 C293 1.171 . S
C1769 C909 1.227 . S
C1793 C409 1.144 . S
C1801 C1193 1.221 . S
C1825 C1281 1.224 . S
C1833 C497 1.154 . S
C1857 C548 1.168 . S
C1865 C1377 1.219 . S
C1889 C1076 1.225 . S
C1897 C665 1.167 . S
C1921 C724 1.131 . S
C1929 C284 1.221 . S
C1953 C57 1.218 . S
C1961 C821 1.166 . S
C1985 C929 1.107 . S
C1993 C108 1.219 . S
C2017 C205 1.221 . S
C2025 C988 1.160 . S
C2049 C1113 1.131 . S
C2057 C489 1.221 . S
C2081 C585 1.216 . S
C2089 C1201 1.171 . S
C2113 C673 1.215 . S
C2121 C1261 1.170 . S
C2145 C372 1.226 . S
C2153 C1369 1.165 . S
C2177 C401 1.670 . S
C2185 C29 1.684 . S
C2209 C460 1.680 . S
C2217 C137 1.673 . S
C2241 C233 1.688 . S
C2249 C557 1.679 . S
C2273 C645 1.676 . S
C2281 C313 1.674 . S
C2305 C1105 1.685 . S
C2313 C733 1.680 . S
C2337 C1164 1.678 . S
C2345 C841 1.675 . S
C2369 C937 1.685 . S
C2377 C1252 1.680 . S
C2401 C1349 1.664 . S
C2409 C1025 1.680 . S
