# Generated by pormake.
# Topology wjd, (6)-cn, num edge types: 1
# Building blocks:
#     Node 0, Type 0, BuildingBlock: KUMBOL_clean_sbu_0, # of connection points: 6
#     Node 1, Type 0, BuildingBlock: KUMBOL_clean_sbu_0, # of connection points: 6
#     Node 2, Type 0, BuildingBlock: KUMBOL_clean_sbu_0, # of connection points: 6
#     Node 3, Type 0, BuildingBlock: KUMBOL_clean_sbu_0, # of connection points: 6
#     Node 4, Type 0, BuildingBlock: KUMBOL_clean_sbu_0, # of connection points: 6
#     Node 5, Type 0, BuildingBlock: KUMBOL_clean_sbu_0, # of connection points: 6
#     Node 6, Type 0, BuildingBlock: KUMBOL_clean_sbu_0, # of connection points: 6
#     Node 7, Type 0, BuildingBlock: KUMBOL_clean_sbu_0, # of connection points: 6
#     Node 8, Type 0, BuildingBlock: KUMBOL_clean_sbu_0, # of connection points: 6
#     Node 9, Type 0, BuildingBlock: KUMBOL_clean_sbu_0, # of connection points: 6
#     Node 10, Type 0, BuildingBlock: KUMBOL_clean_sbu_0, # of connection points: 6
#     Node 11, Type 0, BuildingBlock: KUMBOL_clean_sbu_0, # of connection points: 6
#     Edge 12, Type (0, 0), BuildingBlock: ZUJKAS_clean_linker_0, # of connection points: 2
#     Edge 13, Type (0, 0), BuildingBlock: ZUJKAS_clean_linker_0, # of connection points: 2
#     Edge 14, Type (0, 0), BuildingBlock: ZUJKAS_clean_linker_0, # of connection points: 2
#     Edge 15, Type (0, 0), BuildingBlock: ZUJKAS_clean_linker_0, # of connection points: 2
#     Edge 16, Type (0, 0), BuildingBlock: ZUJKAS_clean_linker_0, # of connection points: 2
#     Edge 17, Type (0, 0), BuildingBlock: ZUJKAS_clean_linker_0, # of connection points: 2
#     Edge 18, Type (0, 0), BuildingBlock: ZUJKAS_clean_linker_0, # of connection points: 2
#     Edge 19, Type (0, 0), BuildingBlock: ZUJKAS_clean_linker_0, # of connection points: 2
#     Edge 20, Type (0, 0), BuildingBlock: ZUJKAS_clean_linker_0, # of connection points: 2
#     Edge 21, Type (0, 0), BuildingBlock: ZUJKAS_clean_linker_0, # of connection points: 2
#     Edge 22, Type (0, 0), BuildingBlock: ZUJKAS_clean_linker_0, # of connection points: 2
#     Edge 23, Type (0, 0), BuildingBlock: ZUJKAS_clean_linker_0, # of connection points: 2
#     Edge 24, Type (0, 0), BuildingBlock: ZUJKAS_clean_linker_0, # of connection points: 2
#     Edge 25, Type (0, 0), BuildingBlock: ZUJKAS_clean_linker_0, # of connection points: 2
#     Edge 26, Type (0, 0), BuildingBlock: ZUJKAS_clean_linker_0, # of connection points: 2
#     Edge 27, Type (0, 0), BuildingBlock: ZUJKAS_clean_linker_0, # of connection points: 2
#     Edge 28, Type (0, 0), BuildingBlock: ZUJKAS_clean_linker_0, # of connection points: 2
#     Edge 29, Type (0, 0), BuildingBlock: ZUJKAS_clean_linker_0, # of connection points: 2
#     Edge 30, Type (0, 0), BuildingBlock: ZUJKAS_clean_linker_0, # of connection points: 2
#     Edge 31, Type (0, 0), BuildingBlock: ZUJKAS_clean_linker_0, # of connection points: 2
#     Edge 32, Type (0, 0), BuildingBlock: ZUJKAS_clean_linker_0, # of connection points: 2
#     Edge 33, Type (0, 0), BuildingBlock: ZUJKAS_clean_linker_0, # of connection points: 2
#     Edge 34, Type (0, 0), BuildingBlock: ZUJKAS_clean_linker_0, # of connection points: 2
#     Edge 35, Type (0, 0), BuildingBlock: ZUJKAS_clean_linker_0, # of connection points: 2
#     Edge 36, Type (0, 0), BuildingBlock: ZUJKAS_clean_linker_0, # of connection points: 2
#     Edge 37, Type (0, 0), BuildingBlock: ZUJKAS_clean_linker_0, # of connection points: 2
#     Edge 38, Type (0, 0), BuildingBlock: ZUJKAS_clean_linker_0, # of connection points: 2
#     Edge 39, Type (0, 0), BuildingBlock: ZUJKAS_clean_linker_0, # of connection points: 2
#     Edge 40, Type (0, 0), BuildingBlock: ZUJKAS_clean_linker_0, # of connection points: 2
#     Edge 41, Type (0, 0), BuildingBlock: ZUJKAS_clean_linker_0, # of connection points: 2
#     Edge 42, Type (0, 0), BuildingBlock: ZUJKAS_clean_linker_0, # of connection points: 2
#     Edge 43, Type (0, 0), BuildingBlock: ZUJKAS_clean_linker_0, # of connection points: 2
#     Edge 44, Type (0, 0), BuildingBlock: ZUJKAS_clean_linker_0, # of connection points: 2
#     Edge 45, Type (0, 0), BuildingBlock: ZUJKAS_clean_linker_0, # of connection points: 2
#     Edge 46, Type (0, 0), BuildingBlock: ZUJKAS_clean_linker_0, # of connection points: 2
#     Edge 47, Type (0, 0), BuildingBlock: ZUJKAS_clean_linker_0, # of connection points: 2
# Relax obj value: 0.099
# Max RMSD: 0.208
# Mean RMSD: 0.208
data_MOF--net-wjd--node1-KUMBOL_clean_sbu_0--edge1-ZUJKAS_clean_linker_0
_symmetry_space_group_name_H-M    P1
_symmetry_Int_Tables_number       1
_symmetry_cell_setting            triclinic
loop_
_symmetry_equiv_pos_as_xyz
'x, y, z'
_cell_length_a     46.997181
_cell_length_b     47.025852
_cell_length_c     71.216638
_cell_angle_alpha  90.058761
_cell_angle_beta   90.002684
_cell_angle_gamma 119.94301
loop_
_atom_site_label
_atom_site_type_symbol
_atom_site_fract_x
_atom_site_fract_y
_atom_site_fract_z
_atom_type_partial_charge
Gd0 Gd 0.34002 0.10819 0.13861 0.0
Gd1 Gd 0.37832 0.18751 0.11341 0.0
C2 C 0.32967 0.24432 0.09212 0.0
C3 C 0.33031 0.23778 0.05832 0.0
C4 C 0.35159 0.2117 0.0791 0.0
C5 C 0.34311 0.22365 0.09456 0.0
C6 C 0.34584 0.21914 0.06078 0.0
C7 C 0.3225 0.2506 0.07397 0.0
C8 C 0.32541 0.25944 0.10791 0.0
C9 C 0.33356 0.25313 0.12565 0.0
N10 N 0.35061 0.21742 0.11192 0.0
C11 C 0.34643 0.23215 0.12739 0.0
H12 H 0.3534 0.22809 0.14113 0.0
C13 C 0.38156 0.1876 0.06711 0.0
N14 N 0.36823 0.19541 0.08196 0.0
C15 C 0.37573 0.19364 0.04869 0.0
C16 C 0.35743 0.20912 0.0455 0.0
H17 H 0.39599 0.17586 0.06944 0.0
H18 H 0.31177 0.2661 0.07187 0.0
H19 H 0.37023 0.07199 0.11054 0.0
H20 H 0.31659 0.27666 0.10648 0.0
H21 H 0.33044 0.26483 0.13795 0.0
H22 H 0.32551 0.24358 0.04437 0.0
H23 H 0.31749 0.11351 0.1826 0.0
H24 H 0.42338 0.03926 0.14439 0.0
H25 H 0.40424 0.04592 0.11321 0.0
H26 H 0.40206 0.06062 0.20715 0.0
H27 H 0.38558 0.18659 0.03699 0.0
H28 H 0.35341 0.21428 0.03122 0.0
H29 H 0.42263 0.04507 0.17946 0.0
H30 H 0.32933 0.10387 0.21492 0.0
N31 N 0.37054 0.08089 0.13988 0.0
C32 C 0.40837 0.05073 0.14331 0.0
C33 C 0.39754 0.05436 0.1257 0.0
C34 C 0.39889 0.06107 0.15936 0.0
C35 C 0.37949 0.07601 0.15715 0.0
C36 C 0.37817 0.06916 0.12426 0.0
N37 N 0.34831 0.09776 0.1699 0.0
C38 C 0.36793 0.08465 0.17268 0.0
C39 C 0.34047 0.09848 0.20317 0.0
C40 C 0.36175 0.08629 0.20628 0.0
C41 C 0.33372 0.1038 0.18479 0.0
C42 C 0.37544 0.07879 0.19093 0.0
H43 H 0.36694 0.0822 0.22053 0.0
O44 O 0.28874 0.07865 0.14646 0.0
O45 O 0.3328 0.14746 0.1259 0.0
O46 O 0.37826 0.19313 0.14573 0.0
O47 O 0.3772 0.14642 0.15769 0.0
O48 O 0.30906 0.12805 0.15099 0.0
O49 O 0.30982 0.05982 0.12634 0.0
O50 O 0.4283 0.21895 0.10363 0.0
O51 O 0.38572 0.14896 0.12649 0.0
O52 O 0.34133 0.10233 0.10713 0.0
O53 O 0.34113 0.14745 0.09394 0.0
O54 O 0.41062 0.16865 0.10189 0.0
O55 O 0.40942 0.23544 0.12624 0.0
C56 C 0.31372 0.14878 0.1379 0.0
C57 C 0.39578 0.06507 0.19325 0.0
C58 C 0.40751 0.05624 0.17748 0.0
C59 C 0.28389 0.05384 0.13606 0.0
C60 C 0.26538 0.0214 0.14487 0.0
C61 C 0.28086 1.00979 0.15695 0.0
C62 C 0.23141 1.0023 0.14165 0.0
C63 C 0.21271 0.97167 0.15052 0.0
C64 C 0.26255 0.97938 0.16572 0.0
C65 C 0.22873 0.96044 0.16258 0.0
C66 C 0.38281 0.17674 0.1596 0.0
C67 C 0.4058 0.14806 0.11509 0.0
C68 C 0.43349 0.24345 0.11449 0.0
C69 C 0.4469 0.27589 0.10533 0.0
C70 C 0.43445 0.27848 0.08791 0.0
C71 C 0.47222 0.30449 0.11387 0.0
C72 C 0.48468 0.33541 0.10505 0.0
C73 C 0.44641 0.30882 0.07923 0.0
C74 C 0.47129 0.33704 0.08766 0.0
C75 C 0.33485 0.11658 0.09306 0.0
H76 H 0.30697 0.02427 0.15964 0.0
H77 H 0.21949 1.01164 0.13252 0.0
H78 H 0.27459 0.97046 0.17501 0.0
H79 H 0.2152 0.93681 0.16943 0.0
H80 H 0.41576 0.25703 0.08084 0.0
H81 H 0.48205 0.30266 0.12729 0.0
H82 H 0.43661 0.31041 0.06576 0.0
H83 H 0.48063 0.36012 0.08027 0.0
Gd84 Gd 0.85015 0.66941 0.40409 0.0
Gd85 Gd 0.80169 0.70236 0.38097 0.0
C86 C 0.69536 0.63933 0.36148 0.0
C87 C 0.70093 0.64374 0.32752 0.0
C88 C 0.74897 0.67289 0.34754 0.0
C89 C 0.7296 0.66008 0.36329 0.0
C90 C 0.73484 0.66529 0.32946 0.0
C91 C 0.68122 0.63078 0.34351 0.0
C92 C 0.6763 0.62834 0.37779 0.0
C93 C 0.69135 0.63886 0.39528 0.0
N94 N 0.74408 0.66891 0.38041 0.0
C95 C 0.72538 0.65959 0.39633 0.0
H96 H 0.73658 0.6673 0.40997 0.0
C97 C 0.80124 0.70925 0.33486 0.0
N98 N 0.78158 0.69368 0.34994 0.0
C99 C 0.78842 0.70233 0.31663 0.0
C100 C 0.75513 0.68 0.3139 0.0
H101 H 0.82707 0.72633 0.33675 0.0
H102 H 0.65501 0.61466 0.34184 0.0
H103 H 0.91381 0.69667 0.37449 0.0
H104 H 0.64994 0.61226 0.37701 0.0
H105 H 0.67679 0.6309 0.40798 0.0
H106 H 0.68964 0.6374 0.31375 0.0
H107 H 0.82722 0.64898 0.44877 0.0
H108 H 1.00263 0.75302 0.40556 0.0
H109 H 0.97415 0.72953 0.37547 0.0
H110 H 0.96543 0.74067 0.46919 0.0
H111 H 0.80426 0.71414 0.30471 0.0
H112 H 0.74525 0.67472 0.29977 0.0
H113 H 0.99902 0.7582 0.44047 0.0
H114 H 0.8515 0.66415 0.48053 0.0
N115 N 0.9078 0.70201 0.40367 0.0
C116 C 0.97606 0.73868 0.40521 0.0
C117 C 0.96009 0.72538 0.38822 0.0
C118 C 0.95759 0.73235 0.42165 0.0
C119 C 0.92308 0.71331 0.42044 0.0
C120 C 0.9258 0.70677 0.38773 0.0
N121 N 0.87166 0.68194 0.4348 0.0
C122 C 0.90431 0.70319 0.43656 0.0
C123 C 0.86661 0.67545 0.46829 0.0
C124 C 0.89985 0.69863 0.47036 0.0
C125 C 0.85296 0.66686 0.4503 0.0
C126 C 0.91933 0.71222 0.45437 0.0
H127 H 0.91045 0.70497 0.4843 0.0
O128 O 0.83779 0.62099 0.41435 0.0
O129 O 0.8019 0.65843 0.39244 0.0
O130 O 0.7957 0.69901 0.41252 0.0
O131 O 0.84377 0.70345 0.42453 0.0
O132 O 0.80062 0.6332 0.41631 0.0
O133 O 0.8679 0.64047 0.3896 0.0
O134 O 0.81986 0.75357 0.37414 0.0
O135 O 0.85008 0.71295 0.3924 0.0
O136 O 0.85362 0.67024 0.37167 0.0
O137 O 0.80521 0.66741 0.36107 0.0
O138 O 0.85115 0.73732 0.36808 0.0
O139 O 0.78076 0.7293 0.39445 0.0
C140 C 0.7828 0.63672 0.40384 0.0
C141 C 0.95346 0.73316 0.45563 0.0
C142 C 0.97258 0.74314 0.43928 0.0
C143 C 0.85566 0.61677 0.40187 0.0
C144 C 0.87824 0.60598 0.4091 0.0
C145 C 0.90355 0.6263 0.42144 0.0
C146 C 0.87449 0.57525 0.40401 0.0
C147 C 0.8957 0.56493 0.41152 0.0
C148 C 0.92488 0.61651 0.42862 0.0
C149 C 0.92101 0.58608 0.42375 0.0
C150 C 0.81759 0.70715 0.42612 0.0
C151 C 0.86895 0.73373 0.38052 0.0
C152 C 0.79905 0.75617 0.38503 0.0
C153 C 0.78281 0.77309 0.37686 0.0
C154 C 0.75496 0.75611 0.36546 0.0
C155 C 0.79646 0.80708 0.37966 0.0
C156 C 0.78273 0.82424 0.37083 0.0
C157 C 0.74099 0.7729 0.35686 0.0
C158 C 0.75482 0.80673 0.35941 0.0
C159 C 0.83122 0.66406 0.35838 0.0
H160 H 0.90677 0.64968 0.42564 0.0
H161 H 0.85477 0.55923 0.39462 0.0
H162 H 0.94438 0.63252 0.43809 0.0
H163 H 0.93795 0.57909 0.42954 0.0
H164 H 0.74425 0.73 0.36308 0.0
H165 H 0.81827 0.8203 0.38827 0.0
H166 H 0.7195 0.7597 0.34805 0.0
H167 H 0.74357 0.81921 0.35255 0.0
Gd168 Gd 0.93786 0.241 0.13969 0.0
Gd169 Gd 0.85757 0.19757 0.11514 0.0
C170 C 0.80418 0.0902 0.09682 0.0
C171 C 0.80925 0.09468 0.06286 0.0
C172 C 0.83376 0.14379 0.08232 0.0
C173 C 0.82321 0.12467 0.09831 0.0
C174 C 0.82624 0.12904 0.06438 0.0
C175 C 0.79804 0.07529 0.07905 0.0
C176 C 0.79071 0.07183 0.11316 0.0
C177 C 0.79608 0.08784 0.13037 0.0
N178 N 0.8291 0.13984 0.11524 0.0
C179 C 0.81504 0.12204 0.13112 0.0
H180 H 0.81844 0.13403 0.1445 0.0
C181 C 0.85452 0.19646 0.06891 0.0
N182 N 0.84862 0.17683 0.08428 0.0
C183 C 0.84826 0.18306 0.05083 0.0
C184 C 0.83448 0.14922 0.04854 0.0
H185 H 0.86496 0.22263 0.07062 0.0
H186 H 0.78384 0.04884 0.07765 0.0
H187 H 0.97128 0.30701 0.11134 0.0
H188 H 0.77567 0.04533 0.1126 0.0
H189 H 0.78543 0.0739 0.14307 0.0
H190 H 0.80347 0.08289 0.04921 0.0
H191 H 0.93475 0.21405 0.18363 0.0
H192 H 1.00305 0.39291 0.14503 0.0
H193 H 0.99589 0.36689 0.11387 0.0
H194 H 0.98504 0.35118 0.20793 0.0
H195 H 0.85385 0.1988 0.03869 0.0
H196 H 0.82918 0.13883 0.03452 0.0
H197 H 0.99872 0.38679 0.18015 0.0
H198 H 0.94469 0.23587 0.21594 0.0
N199 N 0.96367 0.2987 0.14077 0.0
C200 C 0.99223 0.36652 0.14402 0.0
C201 C 0.98831 0.35194 0.12642 0.0
C202 C 0.983 0.34694 0.16014 0.0
C203 C 0.96885 0.31269 0.15802 0.0
C204 C 0.97433 0.31787 0.12506 0.0
N205 N 0.94888 0.26016 0.1709 0.0
C206 C 0.96127 0.29278 0.1736 0.0
C207 C 0.94942 0.25215 0.20415 0.0
C208 C 0.96091 0.28549 0.20719 0.0
C209 C 0.9439 0.23989 0.18581 0.0
C210 C 0.96742 0.30636 0.19181 0.0
H211 H 0.96521 0.29494 0.22141 0.0
O212 O 0.96875 0.22051 0.14711 0.0
O213 O 0.89913 0.19427 0.12714 0.0
O214 O 0.85291 0.19294 0.14749 0.0
O215 O 0.89978 0.2386 0.15945 0.0
O216 O 0.9197 0.19035 0.15192 0.0
O217 O 0.98609 0.26027 0.12703 0.0
O218 O 0.82482 0.21406 0.1046 0.0
O219 O 0.89568 0.24401 0.12792 0.0
O220 O 0.94267 0.24791 0.10816 0.0
O221 O 0.89779 0.20192 0.09525 0.0
O222 O 0.8749 0.24831 0.10346 0.0
O223 O 0.81009 0.18129 0.12841 0.0
C224 C 0.89872 0.17413 0.13894 0.0
C225 C 0.98037 0.3403 0.19405 0.0
C226 C 0.98814 0.36056 0.17824 0.0
C227 C 0.99305 0.24086 0.13657 0.0
C228 C 0.02581 0.25559 0.14514 0.0
C229 C 0.03707 0.28269 0.15719 0.0
C230 C 0.04557 0.24148 0.14174 0.0
C231 C 0.07648 0.25414 0.15044 0.0
C232 C 0.06776 0.29553 0.16577 0.0
C233 C 0.08734 0.28138 0.16249 0.0
C234 C 0.8695 0.21385 0.16136 0.0
C235 C 0.89554 0.26453 0.1166 0.0
C236 C 0.80104 0.1957 0.1161 0.0
C237 C 0.76817 0.17528 0.10762 0.0
C238 C 0.76485 0.15809 0.0909 0.0
C239 C 0.73987 0.17281 0.11611 0.0
C240 C 0.70851 0.15311 0.10794 0.0
C241 C 0.73411 0.13857 0.08283 0.0
C242 C 0.70618 0.1361 0.0912 0.0
C243 C 0.92837 0.22699 0.09416 0.0
H244 H 1.02209 0.29376 0.16 0.0
H245 H 0.03655 0.22022 0.13263 0.0
H246 H 0.0764 0.31649 0.17504 0.0
H247 H 0.11114 0.29197 0.16923 0.0
H248 H 0.78603 0.15998 0.08391 0.0
H249 H 0.74227 0.18603 0.12903 0.0
H250 H 0.73195 0.12556 0.06987 0.0
H251 H 0.68277 0.12139 0.08426 0.0
Gd252 Gd 0.37007 0.18773 0.40329 0.0
Gd253 Gd 0.33706 0.10457 0.38228 0.0
C254 C 0.39988 0.06014 0.36412 0.0
C255 C 0.39359 0.05779 0.33019 0.0
C256 C 0.36543 0.07862 0.3496 0.0
C257 C 0.37921 0.07381 0.3655 0.0
C258 C 0.37195 0.07013 0.33176 0.0
C259 C 0.40754 0.0528 0.34635 0.0
C260 C 0.4115 0.05344 0.38065 0.0
C261 C 0.40167 0.0595 0.39797 0.0
N262 N 0.37109 0.08099 0.38242 0.0
C263 C 0.38106 0.07299 0.3986 0.0
H264 H 0.3739 0.07766 0.4121 0.0
C265 C 0.32761 0.09232 0.33656 0.0
N266 N 0.34448 0.09034 0.35167 0.0
C267 C 0.33323 0.0842 0.31858 0.0
C268 C 0.35585 0.07349 0.31611 0.0
H269 H 0.31027 0.10081 0.33823 0.0
H270 H 0.42361 0.04257 0.34499 0.0
H271 H 0.3429 0.22249 0.37242 0.0
H272 H 0.42743 0.04295 0.3802 0.0
H273 H 0.41001 0.05387 0.41087 0.0
H274 H 0.39911 0.05135 0.31659 0.0
H275 H 0.38967 0.18681 0.44837 0.0
H276 H 0.28662 0.25687 0.40189 0.0
H277 H 0.31009 0.25006 0.37226 0.0
H278 H 0.29823 0.23499 0.46624 0.0
H279 H 0.32004 0.08612 0.30666 0.0
H280 H 0.36013 0.06718 0.30216 0.0
H281 H 0.28122 0.24993 0.43691 0.0
H282 H 0.3737 0.1969 0.47968 0.0
N283 N 0.33751 0.2128 0.40177 0.0
C284 C 0.30093 0.24459 0.40204 0.0
C285 C 0.31421 0.24087 0.3853 0.0
C286 C 0.3072 0.23336 0.41885 0.0
C287 C 0.32621 0.21778 0.41828 0.0
C288 C 0.33276 0.2251 0.38545 0.0
N289 N 0.35736 0.19832 0.43359 0.0
C290 C 0.33621 0.20995 0.43475 0.0
C291 C 0.36286 0.20055 0.46716 0.0
C292 C 0.33987 0.21101 0.46861 0.0
C293 C 0.37193 0.19498 0.44943 0.0
C294 C 0.32685 0.21663 0.45228 0.0
H295 H 0.33319 0.21572 0.48235 0.0
O296 O 0.41776 0.22541 0.41377 0.0
O297 O 0.38117 0.14991 0.39264 0.0
O298 O 0.34187 0.1048 0.41388 0.0
O299 O 0.33593 0.14844 0.4242 0.0
O300 O 0.4069 0.17568 0.41604 0.0
O301 O 0.39967 0.23252 0.38736 0.0
O302 O 0.28584 0.07012 0.37598 0.0
O303 O 0.3266 0.1431 0.3925 0.0
O304 O 0.36809 0.18788 0.37085 0.0
O305 O 0.37033 0.14147 0.36116 0.0
O306 O 0.30085 0.1172 0.36908 0.0
O307 O 0.31083 0.05853 0.39756 0.0
C308 C 0.40333 0.15362 0.40406 0.0
C309 C 0.30597 0.22998 0.45291 0.0
C310 C 0.29627 0.23846 0.43621 0.0
C311 C 0.42266 0.24573 0.40006 0.0
C312 C 0.43295 0.27998 0.40539 0.0
C313 C 0.41171 0.28649 0.416 0.0
C314 C 0.46353 0.30646 0.39961 0.0
C315 C 0.47212 0.33914 0.40404 0.0
C316 C 0.42009 0.3186 0.42041 0.0
C317 C 0.44993 0.34475 0.4144 0.0
C318 C 0.33338 0.11928 0.42687 0.0
C319 C 0.30503 0.13982 0.38078 0.0
C320 C 0.2838 0.04829 0.38794 0.0
C321 C 0.2675 1.0142 0.38108 0.0
C322 C 0.28541 1.00212 0.37159 0.0
C323 C 0.23336 0.99386 0.38344 0.0
C324 C 0.21703 0.96164 0.37618 0.0
C325 C 0.26949 0.97015 0.36454 0.0
C326 C 0.23559 0.95006 0.36676 0.0
C327 C 0.37351 0.17061 0.35787 0.0
H328 H 0.3886 0.26675 0.42088 0.0
H329 H 0.48026 0.30175 0.3915 0.0
H330 H 0.40337 0.32324 0.42855 0.0
H331 H 0.45596 0.36948 0.41815 0.0
H332 H 0.31162 0.01742 0.36956 0.0
H333 H 0.21946 1.00341 0.39054 0.0
H334 H 0.28345 0.96092 0.35726 0.0
H335 H 0.22393 0.92531 0.36121 0.0
Gd336 Gd 0.80426 0.70593 0.13654 0.0
Gd337 Gd 0.84822 0.66787 0.11413 0.0
C338 C 0.95736 0.71938 0.09958 0.0
C339 C 0.95657 0.72024 0.0655 0.0
C340 C 0.90554 0.69729 0.0832 0.0
C341 C 0.92293 0.70542 0.09984 0.0
C342 C 0.92211 0.70381 0.06582 0.0
C343 C 0.97416 0.72769 0.08237 0.0
C344 C 0.97369 0.72279 0.11655 0.0
C345 C 0.95599 0.71341 0.13327 0.0
N346 N 0.90594 0.69651 0.11623 0.0
C347 C 0.92196 0.70001 0.13283 0.0
H348 H 0.90863 0.69211 0.14585 0.0
C349 C 0.85441 0.66472 0.06824 0.0
N350 N 0.87233 0.67929 0.08407 0.0
C351 C 0.86957 0.67147 0.05065 0.0
C352 C 0.90356 0.6916 0.04939 0.0
H353 H 0.82818 0.64852 0.0692 0.0
H354 H 1.00065 0.73887 0.08194 0.0
H355 H 0.7421 0.67561 0.10529 0.0
H356 H 0.99979 0.73151 0.11681 0.0
H357 H 0.96842 0.71582 0.14646 0.0
H358 H 0.96973 0.72569 0.0523 0.0
H359 H 0.82519 0.72966 0.18101 0.0
H360 H 0.65172 0.6222 0.1352 0.0
H361 H 0.6819 0.64173 0.10524 0.0
H362 H 0.68509 0.64297 0.19968 0.0
H363 H 0.85509 0.66076 0.03811 0.0
H364 H 0.91536 0.69616 0.03579 0.0
H365 H 0.65321 0.62191 0.17048 0.0
H366 H 0.79883 0.71913 0.21214 0.0
N367 N 0.74651 0.67452 0.13502 0.0
C368 C 0.67827 0.63688 0.13533 0.0
C369 C 0.6952 0.64801 0.1184 0.0
C370 C 0.69571 0.64585 0.15225 0.0
C371 C 0.73024 0.66522 0.15162 0.0
C372 C 0.72945 0.6673 0.11851 0.0
N373 N 0.78098 0.69709 0.16668 0.0
C374 C 0.74806 0.67696 0.168 0.0
C375 C 0.78435 0.70664 0.1999 0.0
C376 C 0.75075 0.68455 0.20163 0.0
C377 C 0.79915 0.71277 0.18221 0.0
C378 C 0.73204 0.66977 0.18553 0.0
H379 H 0.73936 0.67987 0.21536 0.0
O380 O 0.8234 0.75654 0.1452 0.0
O381 O 0.85182 0.71338 0.12544 0.0
O382 O 0.85009 0.66756 0.14662 0.0
O383 O 0.80432 0.67007 0.1571 0.0
O384 O 0.854 0.73733 0.15016 0.0
O385 O 0.78744 0.73605 0.12281 0.0
O386 O 0.83075 0.61816 0.10406 0.0
O387 O 0.801 0.66026 0.12544 0.0
O388 O 0.80123 0.70678 0.10488 0.0
O389 O 0.84532 0.7027 0.09282 0.0
O390 O 0.79847 0.63614 0.10086 0.0
O391 O 0.86299 0.63597 0.12806 0.0
C392 C 0.87117 0.73273 0.13771 0.0
C393 C 0.69783 0.64908 0.18633 0.0
C394 C 0.67969 0.6371 0.16971 0.0
C395 C 0.80495 0.76143 0.13352 0.0
C396 C 0.78843 0.77841 0.14114 0.0
C397 C 0.76007 0.76171 0.15213 0.0
C398 C 0.80167 0.81204 0.13757 0.0
C399 C 0.78685 0.82926 0.14503 0.0
C400 C 0.74516 0.77851 0.15956 0.0
C401 C 0.75842 0.81203 0.1561 0.0
C402 C 0.82854 0.66397 0.15992 0.0
C403 C 0.78132 0.64047 0.11344 0.0
C404 C 0.84827 0.61226 0.11594 0.0
C405 C 0.86806 0.59868 0.10792 0.0
C406 C 0.88851 0.61401 0.09245 0.0
C407 C 0.86618 0.56995 0.11533 0.0
C408 C 0.88419 0.55659 0.10696 0.0
C409 C 0.90685 0.60132 0.08445 0.0
C410 C 0.90466 0.57277 0.09158 0.0
C411 C 0.82222 0.71106 0.09132 0.0
H412 H 0.74955 0.7358 0.15499 0.0
H413 H 0.82337 0.82465 0.12884 0.0
H414 H 0.72335 0.76556 0.16813 0.0
H415 H 0.74666 0.82452 0.16236 0.0
H416 H 0.89009 0.63558 0.08634 0.0
H417 H 0.85021 0.55764 0.12715 0.0
H418 H 0.92256 0.6135 0.07254 0.0
H419 H 0.91901 0.56323 0.08504 0.0
Gd420 Gd 0.85339 0.19286 0.40422 0.0
Gd421 Gd 0.93454 0.23856 0.3807 0.0
C422 C 0.9791 0.34524 0.36178 0.0
C423 C 0.97738 0.34 0.32778 0.0
C424 C 0.95822 0.29171 0.34754 0.0
C425 C 0.96519 0.31094 0.3634 0.0
C426 C 0.96468 0.30602 0.32953 0.0
C427 C 0.98458 0.35958 0.34388 0.0
C428 C 0.98779 0.36414 0.37818 0.0
C429 C 0.98358 0.34887 0.39556 0.0
N430 N 0.95973 0.29625 0.38043 0.0
C431 C 0.96988 0.31479 0.39642 0.0
H432 H 0.96662 0.3034 0.40997 0.0
C433 C 0.94157 0.23943 0.33457 0.0
N434 N 0.94608 0.25904 0.34978 0.0
C435 C 0.94742 0.25243 0.31641 0.0
C436 C 0.95873 0.28583 0.31385 0.0
H437 H 0.93254 0.21354 0.33634 0.0
H438 H 0.99497 0.38585 0.34235 0.0
H439 H 0.81153 0.13151 0.37395 0.0
H440 H 0.99841 0.39054 0.37755 0.0
H441 H 0.99075 0.36331 0.40833 0.0
H442 H 0.98229 0.35144 0.31406 0.0
H443 H 0.85843 0.2141 0.44946 0.0
H444 H 0.77276 0.04047 0.40318 0.0
H445 H 0.77783 0.0717 0.37415 0.0
H446 H 0.80315 0.07348 0.46706 0.0
H447 H 0.94307 0.23665 0.30439 0.0
H448 H 0.96328 0.29585 0.29977 0.0
H449 H 0.78364 0.04145 0.43782 0.0
H450 H 0.84855 0.18805 0.48073 0.0
N451 N 0.82467 0.13521 0.40282 0.0
C452 C 0.78739 0.06701 0.40326 0.0
C453 C 0.79045 0.08443 0.38682 0.0
C454 C 0.80182 0.08418 0.41984 0.0
C455 C 0.81993 0.11877 0.41922 0.0
C456 C 0.80949 0.1186 0.3868 0.0
N457 N 0.84388 0.1697 0.43453 0.0
C458 C 0.83037 0.13669 0.43564 0.0
C459 C 0.84349 0.17332 0.46817 0.0
C460 C 0.83133 0.13957 0.46953 0.0
C461 C 0.84899 0.18797 0.45046 0.0
C462 C 0.82374 0.12066 0.45315 0.0
H463 H 0.82667 0.1282 0.48326 0.0
O464 O 0.81871 0.20593 0.41609 0.0
O465 O 0.8917 0.2405 0.39259 0.0
O466 O 0.93832 0.24412 0.41226 0.0
O467 O 0.89355 0.19702 0.42418 0.0
O468 O 0.86977 0.24258 0.41715 0.0
O469 O 0.80814 0.18082 0.38944 0.0
O470 O 0.96733 0.22054 0.37266 0.0
O471 O 0.89551 0.19059 0.39199 0.0
O472 O 0.8502 0.18945 0.37183 0.0
O473 O 0.89657 0.23673 0.36101 0.0
O474 O 0.91827 0.18882 0.36761 0.0
O475 O 0.98175 0.25713 0.39456 0.0
C476 C 0.89075 0.25996 0.40445 0.0
C477 C 0.80813 0.08625 0.45375 0.0
C478 C 0.79704 0.06801 0.43711 0.0
C479 C 0.79695 0.1914 0.40286 0.0
C480 C 0.7629 0.16855 0.40901 0.0
C481 C 0.75684 0.14315 0.42153 0.0
C482 C 0.73616 0.17125 0.40208 0.0
C483 C 0.70367 0.14807 0.40736 0.0
C484 C 0.72488 0.12028 0.42676 0.0
C485 C 0.69846 0.12256 0.41966 0.0
C486 C 0.92386 0.22241 0.42583 0.0
C487 C 0.8965 0.17137 0.37994 0.0
C488 C 0.99044 0.23983 0.38422 0.0
C489 C 1.02397 0.25692 0.37653 0.0
C490 C 0.03512 0.28574 0.36602 0.0
C491 C 0.04475 0.24374 0.37932 0.0
C492 C 0.07654 0.25908 0.37149 0.0
C493 C 0.06665 0.30122 0.35836 0.0
C494 C 0.08721 0.28803 0.36101 0.0
C495 C 0.8668 0.21139 0.35844 0.0
H496 H 0.77679 0.14096 0.42732 0.0
H497 H 0.74054 0.19088 0.39247 0.0
H498 H 0.72058 0.10073 0.43638 0.0
H499 H 0.67385 0.10462 0.42406 0.0
H500 H 1.01945 0.29617 0.3637 0.0
H501 H 0.0359 0.22121 0.38725 0.0
H502 H 0.07517 0.32351 0.35029 0.0
H503 H 0.11163 0.30068 0.35499 0.0
Gd504 Gd 0.19907 0.36782 0.61298 0.0
Gd505 Gd 0.11776 0.33087 0.63618 0.0
C506 C 0.06886 0.39033 0.6525 0.0
C507 C 0.07061 0.38929 0.68659 0.0
C508 C 0.09205 0.36077 0.66801 0.0
C509 C 0.08444 0.37135 0.65168 0.0
C510 C 0.08476 0.36914 0.68567 0.0
C511 C 0.06264 0.39985 0.67003 0.0
C512 C 0.05913 0.39836 0.6357 0.0
C513 C 0.06436 0.38689 0.61871 0.0
N514 N 0.0907 0.36161 0.63501 0.0
C515 C 0.07989 0.36811 0.61863 0.0
H516 H 0.08379 0.35954 0.60537 0.0
C517 C 0.11041 0.3274 0.68225 0.0
N518 N 0.10546 0.34117 0.66658 0.0
C519 C 0.10377 0.33512 0.70009 0.0
C520 C 0.09123 0.35639 0.70183 0.0
H521 H 0.12038 0.31119 0.68102 0.0
H522 H 0.05104 0.41476 0.67093 0.0
H523 H 0.23696 0.34498 0.64433 0.0
H524 H 0.04691 0.41273 0.63571 0.0
H525 H 0.05649 0.39254 0.60565 0.0
H526 H 0.06507 0.39623 0.70003 0.0
H527 H 0.19878 0.38694 0.56799 0.0
H528 H 0.27858 0.29461 0.61572 0.0
H529 H 0.26861 0.31637 0.64505 0.0
H530 H 0.25587 0.30294 0.55109 0.0
H531 H 0.10843 0.32476 0.71248 0.0
H532 H 0.08606 0.3623 0.71567 0.0
H533 H 0.27285 0.28885 0.58067 0.0
H534 H 0.2114 0.37262 0.53687 0.0
N535 N 0.22692 0.33787 0.61501 0.0
C536 C 0.26406 0.30668 0.61535 0.0
C537 C 0.25859 0.31901 0.63191 0.0
C538 C 0.25172 0.31106 0.59839 0.0
C539 C 0.23311 0.32708 0.59867 0.0
C540 C 0.24037 0.3351 0.63143 0.0
N541 N 0.21088 0.35529 0.58295 0.0
C542 C 0.22427 0.33563 0.58205 0.0
C543 C 0.21493 0.36184 0.54945 0.0
C544 C 0.22709 0.34021 0.5482 0.0
C545 C 0.20779 0.36986 0.56706 0.0
C546 C 0.23296 0.3277 0.56465 0.0
H547 H 0.2333 0.33459 0.53457 0.0
O548 O 0.23405 0.41586 0.60169 0.0
O549 O 0.15966 0.37585 0.6242 0.0
O550 O 0.11249 0.32914 0.60457 0.0
O551 O 0.16039 0.33338 0.59192 0.0
O552 O 0.18179 0.40045 0.59991 0.0
O553 O 0.24388 0.40045 0.62822 0.0
O554 O 0.08645 0.28096 0.64601 0.0
O555 O 0.15714 0.32265 0.62464 0.0
O556 O 0.20183 0.36835 0.64542 0.0
O557 O 0.15485 0.36866 0.65553 0.0
O558 O 0.13641 0.29964 0.64969 0.0
O559 O 0.07072 0.29978 0.62283 0.0
C560 C 0.15993 0.3958 0.61229 0.0
C561 C 0.24919 0.30947 0.5643 0.0
C562 C 0.25887 0.30147 0.58115 0.0
C563 C 0.25548 0.42253 0.61503 0.0
C564 C 0.28958 0.43344 0.60911 0.0
C565 C 0.2958 0.41398 0.59673 0.0
C566 C 0.31625 0.46259 0.61626 0.0
C567 C 0.34877 0.47139 0.61138 0.0
C568 C 0.32782 0.42256 0.59194 0.0
C569 C 0.35417 0.45094 0.59929 0.0
C570 C 0.12888 0.32494 0.59077 0.0
C571 C 0.15747 0.30356 0.63694 0.0
C572 C 0.06309 0.27515 0.63411 0.0
C573 C 0.02948 0.25807 0.64152 0.0
C574 C 1.01611 0.27532 0.65044 0.0
C575 C 1.01053 0.22384 0.6396 0.0
C576 C 0.97808 0.20658 0.64642 0.0
C577 C 0.98399 0.25848 0.65725 0.0
C578 C 0.96504 0.2244 0.65524 0.0
C579 C 0.18473 0.37366 0.65851 0.0
H580 H 0.27595 0.39213 0.59074 0.0
H581 H 0.31181 0.47802 0.62573 0.0
H582 H 0.33221 0.40716 0.58244 0.0
H583 H 0.37888 0.45731 0.59523 0.0
H584 H 0.03042 0.3017 0.65206 0.0
H585 H 1.0213 0.21067 0.63297 0.0
H586 H 0.97367 0.27189 0.66404 0.0
H587 H 0.94003 0.21211 0.66039 0.0
Gd588 Gd 0.24775 0.9261 0.88178 0.0
Gd589 Gd 0.19827 0.8436 0.90351 0.0
C590 C 0.08848 0.79892 0.91579 0.0
C591 C 0.08755 0.80029 0.94987 0.0
C592 C 0.13927 0.8205 0.93321 0.0
C593 C 0.12303 0.8139 0.91627 0.0
C594 C 0.12163 0.81272 0.95023 0.0
C595 C 0.07096 0.79331 0.93265 0.0
C596 C 0.07248 0.78854 0.89848 0.0
C597 C 0.09081 0.79232 0.88233 0.0
N598 N 0.14072 0.81905 0.90031 0.0
C599 C 0.12501 0.80733 0.88354 0.0
H600 H 0.13866 0.80984 0.87093 0.0
C601 C 0.1878 0.83153 0.94912 0.0
N602 N 0.17187 0.83108 0.93296 0.0
C603 C 0.17159 0.82472 0.96641 0.0
C604 C 0.13847 0.81588 0.96701 0.0
H605 H 0.21341 0.83831 0.94869 0.0
H606 H 0.04448 0.78234 0.93255 0.0
H607 H 0.30922 0.95417 0.91339 0.0
H608 H 0.04597 0.77664 0.89751 0.0
H609 H 0.07864 0.7837 0.86892 0.0
H610 H 0.07362 0.79457 0.9628 0.0
H611 H 0.22805 0.92884 0.83693 0.0
H612 H 0.39932 0.98553 0.88397 0.0
H613 H 0.36901 0.97658 0.91378 0.0
H614 H 0.36741 0.9755 0.81927 0.0
H615 H 0.1846 0.82618 0.97924 0.0
H616 H 0.12584 0.81018 0.98039 0.0
H617 H 0.39845 0.98482 0.84867 0.0
H618 H 0.25468 0.94141 0.80579 0.0
N619 N 0.3052 0.94949 0.88361 0.0
C620 C 0.37299 0.97568 0.88369 0.0
C621 C 0.35598 0.97073 0.90054 0.0
C622 C 0.35594 0.96875 0.86666 0.0
C623 C 0.32164 0.95575 0.8671 0.0
C624 C 0.32198 0.95801 0.90023 0.0
N625 N 0.27156 0.93927 0.85171 0.0
C626 C 0.30427 0.95054 0.85061 0.0
C627 C 0.26891 0.94401 0.81828 0.0
C628 C 0.3023 0.95424 0.81685 0.0
C629 C 0.25393 0.93699 0.83595 0.0
C630 C 0.32054 0.95808 0.83314 0.0
H631 H 0.31387 0.95971 0.80315 0.0
O632 O 0.23059 0.95939 0.87336 0.0
O633 O 0.19891 0.88796 0.89244 0.0
O634 O 0.19748 0.84252 0.87108 0.0
O635 O 0.24568 0.88899 0.8613 0.0
O636 O 0.1991 0.91129 0.86778 0.0
O637 O 0.26726 0.97375 0.89523 0.0
O638 O 0.21092 0.80782 0.91407 0.0
O639 O 0.24705 0.88166 0.89304 0.0
O640 O 0.2501 0.92922 0.91349 0.0
O641 O 0.2045 0.88205 0.92534 0.0
O642 O 0.24691 0.85774 0.91724 0.0
O643 O 0.18291 0.79772 0.88856 0.0
C644 C 0.18073 0.88993 0.88007 0.0
C645 C 0.35449 0.96982 0.83256 0.0
C646 C 0.37216 0.97512 0.84929 0.0
C647 C 0.25009 0.98253 0.88483 0.0
C648 C 0.26728 1.01594 0.87704 0.0
C649 C 0.29623 0.02704 0.86664 0.0
C650 C 0.25389 0.03662 0.87953 0.0
C651 C 0.26911 0.0682 0.87148 0.0
C652 C 0.31161 0.05839 0.85876 0.0
C653 C 0.29817 0.07881 0.86109 0.0
C654 C 0.22015 0.85958 0.85812 0.0
C655 C 0.26547 0.87939 0.90511 0.0
C656 C 0.19448 0.7861 0.90116 0.0
C657 C 0.17173 0.75239 0.90784 0.0
C658 C 0.14421 0.74641 0.91849 0.0
C659 C 0.17739 0.72612 0.90396 0.0
C660 C 0.15587 0.69438 0.9111 0.0
C661 C 0.12277 0.71516 0.92535 0.0
C662 C 0.12855 0.68936 0.92176 0.0
C663 C 0.2287 0.913 0.92698 0.0
H664 H 0.30682 1.01145 0.86456 0.0
H665 H 0.23126 0.02781 0.88737 0.0
H666 H 0.33398 0.06686 0.85076 0.0
H667 H 0.3107 0.10307 0.85489 0.0
H668 H 0.13929 0.76593 0.92157 0.0
H669 H 0.19864 0.73047 0.89579 0.0
H670 H 0.1016 0.71093 0.93354 0.0
H671 H 0.11141 0.66527 0.92722 0.0
Gd672 Gd 0.67902 0.84263 0.61486 0.0
Gd673 Gd 0.71462 0.79519 0.63617 0.0
C674 C 0.65274 0.68662 0.65133 0.0
C675 C 0.65598 0.68814 0.68541 0.0
C676 C 0.6849 0.73854 0.66734 0.0
C677 C 0.67291 0.72105 0.65087 0.0
C678 C 0.67705 0.72228 0.6848 0.0
C679 C 0.64383 0.67034 0.6687 0.0
C680 C 0.64276 0.66953 0.63431 0.0
C681 C 0.65381 0.68669 0.61744 0.0
N682 N 0.68212 0.73759 0.63436 0.0
C683 C 0.67397 0.72083 0.61773 0.0
H684 H 0.68212 0.73365 0.60455 0.0
C685 C 0.72028 0.78937 0.68195 0.0
N686 N 0.70525 0.77141 0.66621 0.0
C687 C 0.71313 0.77441 0.69961 0.0
C688 C 0.69114 0.74076 0.70108 0.0
H689 H 0.73705 0.81544 0.68093 0.0
H690 H 0.62812 0.64393 0.66934 0.0
H691 H 0.70488 0.90236 0.64713 0.0
H692 H 0.62715 0.64309 0.63404 0.0
H693 H 0.64671 0.67366 0.60419 0.0
H694 H 0.64944 0.67522 0.6987 0.0
H695 H 0.65862 0.82488 0.56985 0.0
H696 H 0.75466 0.99504 0.61949 0.0
H697 H 0.73421 0.96249 0.64859 0.0
H698 H 0.74358 0.96614 0.55438 0.0
H699 H 0.72447 0.78887 0.71208 0.0
H700 H 0.68567 0.72921 0.71477 0.0
H701 H 0.75912 0.99617 0.58434 0.0
H702 H 0.67236 0.85282 0.53905 0.0
N703 N 0.71027 0.90023 0.61756 0.0
C704 C 0.74232 0.96849 0.61878 0.0
C705 C 0.73073 0.95023 0.63522 0.0
C706 C 0.73701 0.9523 0.60154 0.0
C707 C 0.72057 0.9177 0.60138 0.0
C708 C 0.71422 0.91598 0.63431 0.0
N709 N 0.69109 0.86791 0.58513 0.0
C710 C 0.71111 0.90088 0.58456 0.0
C711 C 0.68363 0.86663 0.55172 0.0
C712 C 0.7055 0.90034 0.55079 0.0
C713 C 0.67595 0.85089 0.56915 0.0
C714 C 0.71869 0.91808 0.56738 0.0
H715 H 0.71085 0.91263 0.53732 0.0
O716 O 0.63071 0.83057 0.60431 0.0
O717 O 0.66987 0.79439 0.62534 0.0
O718 O 0.7144 0.79256 0.60446 0.0
O719 O 0.7124 0.83819 0.59312 0.0
O720 O 0.64491 0.7936 0.60143 0.0
O721 O 0.64767 0.85571 0.63079 0.0
O722 O 0.76443 0.81051 0.64532 0.0
O723 O 0.72364 0.84356 0.6257 0.0
O724 O 0.67958 0.84387 0.64726 0.0
O725 O 0.67932 0.79631 0.65687 0.0
O726 O 0.74819 0.84435 0.64986 0.0
O727 O 0.74409 0.77942 0.6208 0.0
C728 C 0.64903 0.77557 0.61347 0.0
C729 C 0.73732 0.95249 0.56742 0.0
C730 C 0.74615 0.96958 0.58448 0.0
C731 C 0.62487 0.84539 0.61798 0.0
C732 C 0.61379 0.8687 0.61258 0.0
C733 C 0.63404 0.89588 0.60138 0.0
C734 C 0.58354 0.86467 0.61898 0.0
C735 C 0.57439 0.88831 0.61453 0.0
C736 C 0.6251 0.91919 0.59696 0.0
C737 C 0.59561 0.9156 0.60357 0.0
C738 C 0.71944 0.81423 0.59119 0.0
C739 C 0.74391 0.86225 0.63782 0.0
C740 C 0.76908 0.79393 0.63219 0.0
C741 C 0.78469 0.77488 0.63786 0.0
C742 C 0.76594 0.743 0.645 0.0
C743 C 0.81876 0.7885 0.63557 0.0
C744 C 0.83411 0.7702 0.64008 0.0
C745 C 0.78101 0.72478 0.6496 0.0
C746 C 0.81482 0.73816 0.64709 0.0
C747 C 0.67471 0.82137 0.66017 0.0
H748 H 0.65683 0.89917 0.59603 0.0
H749 H 0.56753 0.84366 0.62755 0.0
H750 H 0.6411 0.94011 0.58835 0.0
H751 H 0.58904 0.93391 0.59982 0.0
H752 H 0.7397 0.73214 0.64688 0.0
H753 H 0.83318 0.81307 0.62991 0.0
H754 H 0.76643 0.70016 0.65508 0.0
H755 H 0.82595 0.72359 0.65086 0.0
Gd756 Gd 0.11345 0.3277 0.88244 0.0
Gd757 Gd 0.19706 0.3614 0.90275 0.0
C758 C 0.24332 0.29799 0.9158 0.0
C759 C 0.24304 0.29732 0.9499 0.0
C760 C 0.22161 0.32743 0.93288 0.0
C761 C 0.22784 0.31711 0.91604 0.0
C762 C 0.23012 0.31857 0.95001 0.0
C763 C 0.24974 0.28712 0.93279 0.0
C764 C 0.25335 0.29176 0.89855 0.0
C765 C 0.24867 0.30523 0.88219 0.0
N766 N 0.22187 0.32862 0.89993 0.0
C767 C 0.23312 0.32396 0.88317 0.0
H768 H 0.22978 0.33423 0.8704 0.0
C769 C 0.2103 0.36513 0.94834 0.0
N770 N 0.21061 0.34912 0.93237 0.0
C771 C 0.21777 0.35666 0.96574 0.0
C772 C 0.22716 0.33282 0.96662 0.0
H773 H 0.20316 0.38367 0.94771 0.0
H774 H 0.26109 0.27195 0.93287 0.0
H775 H 0.08628 0.36152 0.91425 0.0
H776 H 0.26559 0.27744 0.89779 0.0
H777 H 0.25697 0.30116 0.86881 0.0
H778 H 0.24935 0.28989 0.96292 0.0
H779 H 0.10904 0.30393 0.83773 0.0
H780 H 0.04913 0.41556 0.88506 0.0
H781 H 0.06147 0.39682 0.91483 0.0
H782 H 0.05691 0.3922 0.82039 0.0
H783 H 0.21645 0.36864 0.97842 0.0
H784 H 0.2334 0.32663 0.98007 0.0
H785 H 0.04823 0.41433 0.84982 0.0
H786 H 0.09304 0.3152 0.80688 0.0
N787 N 0.08923 0.36102 0.88442 0.0
C788 C 0.0603 0.40023 0.88472 0.0
C789 C 0.06708 0.38958 0.90154 0.0
C790 C 0.06706 0.39012 0.86765 0.0
C791 C 0.08143 0.37001 0.86797 0.0
C792 C 0.0812 0.36951 0.90113 0.0
N793 N 0.09835 0.33685 0.85252 0.0
C794 C 0.08613 0.3575 0.85148 0.0
C795 C 0.09131 0.32755 0.81927 0.0
C796 C 0.08007 0.34991 0.81786 0.0
C797 C 0.10016 0.32107 0.83682 0.0
C798 C 0.07689 0.36484 0.83411 0.0
H799 H 0.07318 0.35484 0.80424 0.0
O800 O 0.07888 0.27744 0.87429 0.0
O801 O 0.1524 0.31735 0.89216 0.0
O802 O 0.19643 0.36056 0.8703 0.0
O803 O 0.14958 0.36257 0.86153 0.0
O804 O 0.12714 0.29318 0.86816 0.0
O805 O 0.06789 0.29968 0.8978 0.0
O806 O 0.23337 0.41025 0.91239 0.0
O807 O 0.15834 0.37183 0.89295 0.0
O808 O 0.11236 0.32839 0.91418 0.0
O809 O 0.15972 0.32903 0.92493 0.0
O810 O 0.18386 0.39657 0.9166 0.0
O811 O 0.24226 0.39081 0.88706 0.0
C812 C 0.1495 0.2967 0.87987 0.0
C813 C 0.06393 0.38604 0.8336 0.0
C814 C 0.059 0.39865 0.85035 0.0
C815 C 0.05751 0.27386 0.88707 0.0
C816 C 1.02305 0.25792 0.88102 0.0
C817 C 1.01029 0.27605 0.87253 0.0
C818 C 1.00265 0.224 0.88383 0.0
C819 C 0.96943 0.20808 0.87831 0.0
C820 C 0.97742 0.26047 0.86698 0.0
C821 C 0.95709 0.22678 0.86985 0.0
C822 C 0.17875 0.36619 0.85774 0.0
C823 C 0.16134 0.39295 0.90494 0.0
C824 C 0.2545 0.41461 0.89928 0.0
C825 C 0.28841 0.42566 0.90562 0.0
C826 C 0.29488 0.40457 0.91636 0.0
C827 C 0.31443 0.45738 0.90132 0.0
C828 C 0.34642 0.46787 0.90813 0.0
C829 C 0.32643 0.41463 0.92288 0.0
C830 C 0.35202 0.44607 0.91888 0.0
C831 C 0.12904 0.32281 0.92721 0.0
H832 H 0.02567 0.30215 0.87021 0.0
H833 H 1.0126 0.21014 0.89053 0.0
H834 H 0.96767 0.27455 0.86039 0.0
H835 H 0.93181 0.21529 0.86518 0.0
H836 H 0.27553 0.38032 0.9198 0.0
H837 H 0.30969 0.47398 0.89312 0.0
H838 H 0.33103 0.39804 0.93115 0.0
H839 H 0.37636 0.45333 0.92412 0.0
Gd840 Gd 0.19922 0.84586 0.61446 0.0
Gd841 Gd 0.24997 0.92809 0.63648 0.0
C842 C 0.35689 0.97037 0.65465 0.0
C843 C 0.35284 0.97152 0.68863 0.0
C844 C 0.30407 0.95236 0.6692 0.0
C845 C 0.32267 0.9575 0.65326 0.0
C846 C 0.31897 0.95977 0.68708 0.0
C847 C 0.37177 0.97681 0.67243 0.0
C848 C 0.37519 0.97699 0.63811 0.0
C849 C 0.35944 0.9717 0.62079 0.0
N850 N 0.30747 0.95106 0.63633 0.0
C851 C 0.32547 0.95908 0.62016 0.0
H852 H 0.3137 0.95493 0.60666 0.0
C853 C 0.25261 0.93842 0.68241 0.0
N854 N 0.27149 0.94108 0.66717 0.0
C855 C 0.2662 0.94525 0.70045 0.0
C856 C 0.29947 0.95568 0.70283 0.0
H857 H 0.22681 0.93011 0.68079 0.0
H858 H 0.39798 0.98645 0.67379 0.0
H859 H 0.13707 0.81147 0.64524 0.0
H860 H 0.4015 0.98674 0.63856 0.0
H861 H 0.37341 0.97717 0.6079 0.0
H862 H 0.36471 0.97714 0.70225 0.0
H863 H 0.22034 0.84906 0.56931 0.0
H864 H 0.04673 0.77752 0.61555 0.0
H865 H 0.07673 0.78419 0.64526 0.0
H866 H 0.08077 0.80053 0.55129 0.0
H867 H 0.25096 0.94236 0.71251 0.0
H868 H 0.30995 0.96101 0.71682 0.0
H869 H 0.04857 0.78469 0.58053 0.0
H870 H 0.19456 0.83993 0.53796 0.0
N871 N 0.14161 0.82089 0.61586 0.0
C872 C 0.07329 0.78952 0.61545 0.0
C873 C 0.09013 0.7932 0.63223 0.0
C874 C 0.09092 0.80072 0.59867 0.0
C875 C 0.12549 0.81615 0.59932 0.0
C876 C 0.12443 0.80879 0.63216 0.0
N877 N 0.17635 0.83681 0.58408 0.0
C878 C 0.14352 0.82485 0.5829 0.0
C879 C 0.17994 0.83575 0.55048 0.0
C880 C 0.14645 0.82507 0.54902 0.0
C881 C 0.19443 0.84081 0.56823 0.0
C882 C 0.12763 0.8187 0.56534 0.0
H883 H 0.13519 0.82077 0.53526 0.0
O884 O 0.21152 0.8098 0.60411 0.0
O885 O 0.24801 0.88276 0.62556 0.0
O886 O 0.25448 0.92883 0.60481 0.0
O887 O 0.20459 0.88604 0.59421 0.0
O888 O 0.24808 0.85803 0.60168 0.0
O889 O 0.18108 0.79899 0.62877 0.0
O890 O 0.23295 0.96223 0.64297 0.0
O891 O 0.20101 0.89032 0.62601 0.0
O892 O 0.19712 0.84445 0.64691 0.0
O893 O 0.24577 0.89031 0.6571 0.0
O894 O 0.20124 0.91556 0.64977 0.0
O895 O 0.2708 0.97497 0.62201 0.0
C896 C 0.26647 0.87935 0.61403 0.0
C897 C 0.0934 0.80514 0.56464 0.0
C898 C 0.07506 0.79609 0.58129 0.0
C899 C 0.19343 0.78761 0.61647 0.0
C900 C 0.17097 0.75436 0.60902 0.0
C901 C 0.14844 0.75021 0.59491 0.0
C902 C 0.17209 0.72667 0.61573 0.0
C903 C 0.15069 0.69503 0.60832 0.0
C904 C 0.12736 0.71926 0.58753 0.0
C905 C 0.12849 0.69193 0.59408 0.0
C906 C 0.23141 0.91512 0.5918 0.0
C907 C 0.18279 0.89345 0.63783 0.0
C908 C 0.25329 0.98458 0.63144 0.0
C909 C 0.27021 0.01835 0.63871 0.0
C910 C 0.29923 0.03035 0.64916 0.0
C911 C 0.25632 0.03841 0.63569 0.0
C912 C 0.27121 0.0705 0.64309 0.0
C913 C 0.31425 0.06212 0.65649 0.0
C914 C 0.30039 0.08205 0.65354 0.0
C915 C 0.2197 0.86113 0.66005 0.0
H916 H 0.14736 0.77094 0.5894 0.0
H917 H 0.1894 0.72977 0.6267 0.0
H918 H 0.11026 0.71647 0.57652 0.0
H919 H 0.11232 0.6684 0.58763 0.0
H920 H 0.3101 1.01513 0.65174 0.0
H921 H 0.23399 0.02899 0.62747 0.0
H922 H 0.33658 0.07126 0.66463 0.0
H923 H 0.31229 0.10632 0.65974 0.0
Gd924 Gd 0.71137 0.7924 0.88062 0.0
Gd925 Gd 0.67684 0.83933 0.90384 0.0
C926 C 0.7352 0.948 0.91954 0.0
C927 C 0.73857 0.9459 0.95351 0.0
C928 C 0.71019 0.89547 0.93533 0.0
C929 C 0.71818 0.91339 0.91892 0.0
C930 C 0.7194 0.91152 0.95287 0.0
C931 C 0.74635 0.96414 0.93686 0.0
C932 C 0.73893 0.96528 0.90289 0.0
C933 C 0.72509 0.94797 0.88632 0.0
N934 N 0.70676 0.897 0.90245 0.0
C935 C 0.70934 0.91374 0.8863 0.0
H936 H 0.69893 0.90086 0.87335 0.0
C937 C 0.67674 0.84433 0.95005 0.0
N938 N 0.69038 0.86249 0.93418 0.0
C939 C 0.68567 0.85901 0.96778 0.0
C940 C 0.70757 0.89269 0.96922 0.0
H941 H 0.6598 0.81827 0.949 0.0
H942 H 0.75989 0.9907 0.93759 0.0
H943 H 0.67771 0.72795 0.91001 0.0
H944 H 0.75134 0.99185 0.9028 0.0
H945 H 0.72608 0.96086 0.87357 0.0
H946 H 0.74622 0.95867 0.96684 0.0
H947 H 0.7344 0.81717 0.83621 0.0
H948 H 0.62523 0.64025 0.87758 0.0
H949 H 0.64308 0.6679 0.9084 0.0
H950 H 0.64793 0.67882 0.81411 0.0
H951 H 0.6756 0.84436 0.98032 0.0
H952 H 0.71412 0.90408 0.98296 0.0
H953 H 0.62638 0.64461 0.84243 0.0
H954 H 0.72234 0.79371 0.80433 0.0
N955 N 0.67879 0.73474 0.88041 0.0
C956 C 0.64021 0.66673 0.87821 0.0
C957 C 0.65039 0.68223 0.89561 0.0
C958 C 0.65028 0.6855 0.86179 0.0
C959 C 0.67011 0.71987 0.86338 0.0
C960 C 0.67011 0.71639 0.89645 0.0
N961 N 0.70263 0.77173 0.8497 0.0
C962 C 0.68239 0.73899 0.84751 0.0
C963 C 0.7109 0.77803 0.81635 0.0
C964 C 0.68916 0.74455 0.81383 0.0
C965 C 0.71774 0.79122 0.83449 0.0
C966 C 0.67495 0.72447 0.82952 0.0
H967 H 0.68397 0.73437 0.79977 0.0
O968 O 0.76253 0.81097 0.8734 0.0
O969 O 0.72094 0.84068 0.89177 0.0
O970 O 0.67677 0.84203 0.87141 0.0
O971 O 0.67554 0.7944 0.86078 0.0
O972 O 0.74513 0.84172 0.86736 0.0
O973 O 0.73921 0.77265 0.89425 0.0
O974 O 0.62841 0.82513 0.91498 0.0
O975 O 0.66705 0.79147 0.89232 0.0
O976 O 0.70925 0.78726 0.91221 0.0
O977 O 0.71239 0.83488 0.924 0.0
O978 O 0.64283 0.78977 0.91672 0.0
O979 O 0.64514 0.85416 0.88973 0.0
C980 C 0.74121 0.85953 0.87966 0.0
C981 C 0.65413 0.69041 0.8278 0.0
C982 C 0.64186 0.67095 0.84392 0.0
C983 C 0.7658 0.79093 0.8846 0.0
C984 C 0.78323 0.77494 0.8768 0.0
C985 C 0.76744 0.74825 0.86449 0.0
C986 C 0.81658 0.78753 0.88115 0.0
C987 C 0.83456 0.77394 0.87307 0.0
C988 C 0.78488 0.73443 0.85651 0.0
C989 C 0.81815 0.7472 0.86065 0.0
C990 C 0.67125 0.81982 0.85811 0.0
C991 C 0.64635 0.77217 0.90408 0.0
C992 C 0.62232 0.84169 0.90252 0.0
C993 C 0.61065 0.86353 0.90989 0.0
C994 C 0.63021 0.88842 0.92265 0.0
C995 C 0.57984 0.85944 0.90459 0.0
C996 C 0.56873 0.87989 0.91236 0.0
C997 C 0.61968 0.90902 0.93002 0.0
C998 C 0.58919 0.9048 0.92498 0.0
C999 C 0.71696 0.80926 0.9257 0.0
H1000 H 0.74182 0.73835 0.86094 0.0
H1001 H 0.8284 0.80794 0.89087 0.0
H1002 H 0.77265 0.71398 0.84689 0.0
H1003 H 0.83111 0.73645 0.85379 0.0
H1004 H 0.65354 0.89181 0.92707 0.0
H1005 H 0.56434 0.84005 0.8949 0.0
H1006 H 0.63514 0.92819 0.93982 0.0
H1007 H 0.58157 0.92114 0.93096 0.0
H1008 H 0.08931 0.23375 0.11699 0.0
H1009 H 0.12575 0.21123 0.11147 0.0
H1010 H 0.14777 0.21856 0.17064 0.0
H1011 H 0.11112 0.24058 0.1763 0.0
H1012 H 0.19332 0.24372 0.11999 0.0
H1013 H 0.12763 0.12505 0.15753 0.0
H1014 H 0.10786 0.14793 0.15058 0.0
H1015 H 0.13298 0.15936 0.17134 0.0
C1016 C 0.1015 0.23005 0.12886 0.0
C1017 C 0.09736 0.23903 0.14709 0.0
C1018 C 0.12238 0.21727 0.12568 0.0
C1019 C 0.13912 0.21275 0.14068 0.0
C1020 C 0.13464 0.22123 0.1589 0.0
H1021 H 0.29203 0.17206 0.16556 0.0
H1022 H 0.2497 0.18776 0.16378 0.0
C1023 C 0.11398 0.2342 0.16208 0.0
C1024 C 0.16331 0.20172 0.13722 0.0
H1025 H 0.18445 0.14498 0.15064 0.0
C1026 C 0.19108 0.22172 0.12632 0.0
C1027 C 0.16045 0.17319 0.14564 0.0
C1028 C 0.13047 0.14994 0.15679 0.0
C1029 C 0.21685 0.21491 0.12442 0.0
C1030 C 0.21472 0.18714 0.13347 0.0
C1031 C 0.18626 0.16638 0.14375 0.0
C1032 C 0.24259 0.18047 0.13378 0.0
C1033 C 0.24746 0.23918 0.11429 0.0
C1034 C 0.25308 0.17149 0.11744 0.0
C1035 C 0.27761 0.16274 0.11843 0.0
C1036 C 0.29195 0.16286 0.13577 0.0
C1037 C 0.28169 0.17223 0.15198 0.0
C1038 C 0.25743 0.18109 0.15099 0.0
H1039 H 0.24507 0.25936 0.10778 0.0
H1040 H 0.26786 0.25 0.12459 0.0
H1041 H 0.25367 0.22676 0.10312 0.0
H1042 H 0.24155 0.17017 0.10406 0.0
H1043 H 0.28446 0.15473 0.10581 0.0
H1044 H 0.1785 0.95177 0.40733 0.0
H1045 H 0.11927 0.91371 0.41061 0.0
H1046 H 0.11435 0.88549 0.35255 0.0
H1047 H 0.1733 0.92293 0.34928 0.0
H1048 H 0.06518 0.90867 0.39315 0.0
H1049 H 0.07288 0.79736 0.37807 0.0
H1050 H 0.10881 0.83664 0.38266 0.0
H1051 H 0.09062 0.82702 0.35959 0.0
C1052 C 0.16472 0.93754 0.39525 0.0
C1053 C 0.18074 0.94006 0.37811 0.0
C1054 C 0.13088 0.91573 0.39716 0.0
C1055 C 0.1124 0.89605 0.38196 0.0
C1056 C 0.12817 0.89954 0.36466 0.0
H1057 H 0.91331 0.7567 0.35248 0.0
H1058 H 0.97197 0.79728 0.35437 0.0
C1059 C 0.16192 0.92107 0.36279 0.0
C1060 C 0.07667 0.87189 0.38401 0.0
H1061 H 1.0194 0.79154 0.37616 0.0
C1062 C 0.05519 0.88295 0.38971 0.0
C1063 C 0.06354 0.83821 0.37968 0.0
C1064 C 0.08522 0.82402 0.37486 0.0
C1065 C 1.02095 0.86159 0.39034 0.0
C1066 C 1.00785 0.82826 0.38525 0.0
C1067 C 0.02938 0.81708 0.38003 0.0
C1068 C 0.97187 0.80478 0.38435 0.0
C1069 C 0.99894 0.87507 0.39574 0.0
C1070 C 0.9522 0.79549 0.40058 0.0
C1071 C 0.91867 0.77196 0.39953 0.0
C1072 C 0.90446 0.75717 0.38227 0.0
C1073 C 0.92392 0.76724 0.36601 0.0
C1074 C 0.95736 0.79046 0.36707 0.0
H1075 H 1.01227 0.90233 0.39578 0.0
H1076 H 0.97777 0.86607 0.38596 0.0
H1077 H 0.9891 0.86647 0.41006 0.0
H1078 H 0.96289 0.80591 0.41409 0.0
H1079 H 0.9039 0.76523 0.41217 0.0
H1080 H 0.90255 0.14302 0.1074 0.0
H1081 H 0.88922 0.08565 0.1049 0.0
H1082 H 0.85204 0.06855 0.16173 0.0
H1083 H 0.86889 0.12652 0.16474 0.0
H1084 H 0.88443 0.04131 0.15898 0.0
H1085 H 0.81008 1.00507 0.0937 0.0
H1086 H 0.85244 0.03428 0.0894 0.0
H1087 H 0.82771 0.04584 0.10302 0.0
C1088 C 0.89114 0.12671 0.1192 0.0
C1089 C 0.88605 0.1388 0.13614 0.0
C1090 C 0.88328 0.0938 0.11776 0.0
C1091 C 0.86882 0.07208 0.13297 0.0
C1092 C 0.86322 0.08444 0.14974 0.0
H1093 H 0.75413 0.86286 0.13823 0.0
H1094 H 0.77739 0.92193 0.13424 0.0
C1095 C 0.87254 0.11754 0.15145 0.0
C1096 C 0.86098 0.03702 0.13224 0.0
H1097 H 0.81973 0.96493 0.10772 0.0
C1098 C 0.87007 0.02472 0.14775 0.0
C1099 C 0.84303 1.01509 0.1174 0.0
C1100 C 0.83256 0.02568 0.10002 0.0
C1101 C 0.86016 0.9913 0.14943 0.0
C1102 C 0.84153 0.96945 0.13487 0.0
C1103 C 0.83378 0.98175 0.11894 0.0
C1104 C 0.82796 0.93344 0.13648 0.0
C1105 C 0.86857 0.97954 0.16718 0.0
C1106 C 0.84865 0.92014 0.13875 0.0
C1107 C 0.83539 0.88635 0.14135 0.0
C1108 C 0.80113 0.8651 0.14151 0.0
C1109 C 0.78057 0.87848 0.13859 0.0
C1110 C 0.79384 0.91225 0.13611 0.0
H1111 H 0.87618 0.9979 0.17869 0.0
H1112 H 0.84733 0.95616 0.1721 0.0
H1113 H 0.88927 0.97514 0.16433 0.0
H1114 H 0.87507 0.93592 0.13872 0.0
H1115 H 0.85201 0.87701 0.14365 0.0
H1116 H 0.27446 0.14603 0.412 0.0
H1117 H 0.23403 0.16478 0.41307 0.0
H1118 H 0.24158 0.17801 0.35298 0.0
H1119 H 0.28198 0.15955 0.35196 0.0
H1120 H 0.24748 0.23248 0.37299 0.0
H1121 H 0.13742 0.11656 0.39555 0.0
H1122 H 0.1735 0.13056 0.40987 0.0
H1123 H 0.17362 0.11755 0.38618 0.0
C1124 C 0.26759 0.15324 0.3991 0.0
C1125 C 0.28201 0.15245 0.38197 0.0
C1126 C 0.24418 0.16345 0.39966 0.0
C1127 C 0.23463 0.17266 0.38308 0.0
C1128 C 0.24861 0.17114 0.36595 0.0
H1129 H 0.11436 0.25183 0.34489 0.0
H1130 H 0.15231 0.23104 0.34898 0.0
C1131 C 0.27173 0.16071 0.36538 0.0
C1132 C 0.21113 0.18517 0.38343 0.0
H1133 H 0.13097 0.16287 0.39169 0.0
C1134 C 0.22209 0.21732 0.37723 0.0
C1135 C 0.17798 0.16544 0.38899 0.0
C1136 C 0.1647 0.13051 0.39541 0.0
C1137 C 0.2009 0.23027 0.37637 0.0
C1138 C 0.1674 0.21017 0.38121 0.0
C1139 C 0.15657 0.17824 0.38787 0.0
C1140 C 0.14312 0.2215 0.37873 0.0
C1141 C 0.21483 0.26558 0.37046 0.0
C1142 C 0.12412 0.22177 0.3939 0.0
C1143 C 0.10205 0.23341 0.39154 0.0
C1144 C 0.09858 0.24501 0.37396 0.0
C1145 C 0.11696 0.24378 0.35871 0.0
C1146 C 0.13876 0.23196 0.36104 0.0
H1147 H 0.24164 0.28017 0.37327 0.0
H1148 H 0.21113 0.26653 0.35514 0.0
H1149 H 0.20253 0.27727 0.37789 0.0
H1150 H 0.12683 0.21359 0.40765 0.0
H1151 H 0.08834 0.2341 0.40358 0.0
H1152 H 0.17942 0.95982 0.11715 0.0
H1153 H 0.12045 0.92415 0.11163 0.0
H1154 H 0.10571 0.90127 0.17068 0.0
H1155 H 0.16438 0.93735 0.17637 0.0
H1156 H 0.08589 0.85769 0.11893 0.0
H1157 H 0.03155 0.91992 0.15873 0.0
H1158 H 0.07439 0.9403 0.1522 0.0
H1159 H 0.06017 0.91385 0.1724 0.0
C1160 C 0.16352 0.9477 0.12902 0.0
C1161 C 0.17666 0.9514 0.14721 0.0
C1162 C 0.12984 0.92725 0.12583 0.0
C1163 C 0.10854 0.91042 0.14078 0.0
C1164 C 0.1215 0.91452 0.15898 0.0
H1165 H 0.91607 0.75615 0.16553 0.0
H1166 H 0.97386 0.79903 0.16363 0.0
C1167 C 0.15515 0.93482 0.16217 0.0
C1168 C 0.07339 0.88618 0.1372 0.0
H1169 H 0.99539 0.86298 0.15143 0.0
C1170 C 0.06596 0.85924 0.12562 0.0
C1171 C 0.04749 0.88805 0.14612 0.0
C1172 C 0.05372 0.91727 0.15791 0.0
C1173 C 0.0336 0.83324 0.12347 0.0
C1174 C 1.00775 0.83413 0.13321 0.0
C1175 C 1.0151 0.86194 0.14412 0.0
C1176 C 0.97343 0.80583 0.1336 0.0
C1177 C 0.02849 0.80367 0.11258 0.0
C1178 C 0.95374 0.79513 0.11735 0.0
C1179 C 0.92079 0.77 0.11838 0.0
C1180 C 0.90682 0.75563 0.13574 0.0
C1181 C 0.92642 0.76649 0.15195 0.0
C1182 C 0.95941 0.79104 0.15086 0.0
H1183 H 0.04864 0.80993 0.10236 0.0
H1184 H 0.02863 0.78595 0.12275 0.0
H1185 H 1.00499 0.79185 0.10482 0.0
H1186 H 0.96359 0.80679 0.10395 0.0
H1187 H 0.90591 0.76269 0.10576 0.0
H1188 H 0.79817 0.86978 0.34327 0.0
H1189 H 0.81954 0.92871 0.34675 0.0
H1190 H 0.82097 0.91922 0.40696 0.0
H1191 H 0.8006 0.86023 0.40342 0.0
H1192 H 0.7905 0.95714 0.3628 0.0
H1193 H 0.90876 0.99944 0.39964 0.0
H1194 H 0.88591 0.95916 0.38924 0.0
H1195 H 0.87432 0.96732 0.41183 0.0
C1196 C 0.80337 0.88033 0.35724 0.0
C1197 C 0.79764 0.86038 0.37308 0.0
C1198 C 0.81567 0.91406 0.35923 0.0
C1199 C 0.8223 0.92871 0.37711 0.0
C1200 C 0.81696 0.90885 0.39298 0.0
H1201 H 0.88664 0.13227 0.41074 0.0
H1202 H 0.86642 0.07285 0.41082 0.0
C1203 C 0.80509 0.87507 0.39096 0.0
C1204 C 0.83217 0.9641 0.37896 0.0
H1205 H 0.8905 0.03809 0.39681 0.0
C1206 C 0.81246 0.97482 0.37021 0.0
C1207 C 0.86068 0.98729 0.38872 0.0
C1208 C 0.88382 0.97784 0.39774 0.0
C1209 C 0.82032 1.00778 0.37079 0.0
C1210 C 0.84896 0.03121 0.38044 0.0
C1211 C 0.86843 0.02036 0.38952 0.0
C1212 C 0.85988 0.06709 0.38065 0.0
C1213 C 0.79737 0.01663 0.36103 0.0
C1214 C 0.8634 0.08399 0.36376 0.0
C1215 C 0.87395 0.11755 0.36381 0.0
C1216 C 0.88166 0.13527 0.38072 0.0
C1217 C 0.87944 0.11886 0.3976 0.0
C1218 C 0.86834 0.08502 0.39758 0.0
H1219 H 0.77166 0.99588 0.36129 0.0
H1220 H 0.79794 0.03813 0.36756 0.0
H1221 H 0.80478 0.02236 0.3461 0.0
H1222 H 0.8585 0.07134 0.35041 0.0
H1223 H 0.87658 0.12986 0.35053 0.0
H1224 H 0.30278 0.13673 0.63625 0.0
H1225 H 0.27872 0.17202 0.63306 0.0
H1226 H 0.1818 0.08795 0.63907 0.0
H1227 H 0.20574 0.05258 0.64315 0.0
H1228 H 0.23544 0.17175 0.60725 0.0
H1229 H 0.18072 0.14949 0.67857 0.0
H1230 H 0.20965 0.13671 0.67186 0.0
H1231 H 0.16755 0.11341 0.66442 0.0
C1232 C 0.27635 0.12571 0.63714 0.0
C1233 C 0.25629 0.09176 0.64018 0.0
C1234 C 0.26259 0.14593 0.63514 0.0
C1235 C 0.22845 0.13279 0.63613 0.0
C1236 C 0.20823 0.09881 0.63864 0.0
H1237 H 0.15309 0.26715 0.60591 0.0
H1238 H 0.1656 0.22247 0.60412 0.0
C1239 C 0.22199 0.07853 0.64073 0.0
C1240 C 0.21442 0.15495 0.63458 0.0
H1241 H 0.17143 0.18391 0.65873 0.0
C1242 C 0.22153 0.17459 0.61852 0.0
C1243 C 0.19598 0.15835 0.6492 0.0
C1244 C 0.18817 0.13859 0.66706 0.0
C1245 C 0.21189 0.19841 0.61691 0.0
C1246 C 0.19407 0.20259 0.63178 0.0
C1247 C 0.18565 0.18161 0.64745 0.0
C1248 C 0.18574 0.2296 0.6323 0.0
C1249 C 0.22201 0.21914 0.59943 0.0
C1250 C 0.19106 0.24782 0.64895 0.0
C1251 C 0.1821 0.27198 0.65027 0.0
C1252 C 0.16924 0.27992 0.63468 0.0
C1253 C 0.16409 0.26222 0.61793 0.0
C1254 C 0.17153 0.23679 0.61689 0.0
H1255 H 0.24438 0.22089 0.593 0.0
H1256 H 0.20193 0.20779 0.58893 0.0
H1257 H 0.22695 0.24415 0.60244 0.0
H1258 H 0.20199 0.24322 0.66112 0.0
H1259 H 0.18574 0.28492 0.66344 0.0
H1260 H 0.13622 0.86991 0.85211 0.0
H1261 H 0.0783 0.85427 0.85412 0.0
H1262 H 0.08904 0.87423 0.91367 0.0
H1263 H 0.14689 0.88837 0.91173 0.0
H1264 H 0.0343 0.82087 0.90799 0.0
H1265 H 0.03843 0.91067 0.85699 0.0
H1266 H 0.05283 0.88596 0.846 0.0
H1267 H 0.07523 0.91209 0.86554 0.0
C1268 C 0.1261 0.87086 0.86562 0.0
C1269 C 0.14563 0.87957 0.88183 0.0
C1270 C 0.09311 0.86235 0.86674 0.0
C1271 C 0.07928 0.86379 0.88397 0.0
C1272 C 0.09906 0.87304 0.90019 0.0
H1273 H 0.88153 0.83866 0.87886 0.0
H1274 H 0.94015 0.86152 0.88451 0.0
C1275 C 0.13201 0.88096 0.89912 0.0
C1276 C 0.0439 0.85427 0.88503 0.0
H1277 H 0.98482 0.86367 0.86265 0.0
C1278 C 1.02357 0.83039 0.89813 0.0
C1279 C 0.02979 0.86752 0.87273 0.0
C1280 C 0.05034 0.89575 0.85971 0.0
C1281 C 0.98946 0.81803 0.89849 0.0
C1282 C 0.97504 0.82926 0.88508 0.0
C1283 C 0.99559 0.85443 0.87269 0.0
C1284 C 0.93877 0.81486 0.88327 0.0
C1285 C 0.9694 0.79324 0.91337 0.0
C1286 C 0.91817 0.78092 0.88074 0.0
C1287 C 0.8844 0.76762 0.87793 0.0
C1288 C 0.87037 0.78799 0.87714 0.0
C1289 C 0.89111 0.82201 0.8797 0.0
C1290 C 0.92483 0.83523 0.88277 0.0
H1291 H 0.98443 0.79618 0.92605 0.0
H1292 H 0.94784 0.79541 0.91762 0.0
H1293 H 0.96055 0.76816 0.90779 0.0
H1294 H 0.92826 0.76466 0.88054 0.0
H1295 H 0.86935 0.7413 0.87627 0.0
H1296 H 0.76535 0.90802 0.6651 0.0
H1297 H 0.80836 0.96549 0.66314 0.0
H1298 H 0.8238 0.95166 0.60481 0.0
H1299 H 0.77819 0.89492 0.60644 0.0
H1300 H 0.86843 0.99133 0.65865 0.0
H1301 H 0.82696 0.03415 0.5974 0.0
H1302 H 0.80379 0.99287 0.60589 0.0
H1303 H 0.83887 1.00457 0.5912 0.0
C1304 C 0.77742 0.91764 0.65175 0.0
C1305 C 0.76788 0.8975 0.63579 0.0
C1306 C 0.80226 0.95044 0.65063 0.0
C1307 C 0.81938 0.9636 0.63372 0.0
C1308 C 0.81042 0.94294 0.61785 0.0
H1309 H 0.97544 0.16873 0.61628 0.0
H1310 H 0.94165 0.10922 0.61272 0.0
C1311 C 0.78444 0.91039 0.61878 0.0
C1312 C 0.84725 0.99838 0.63342 0.0
H1313 H 0.87695 0.07264 0.61152 0.0
C1314 C 0.87002 1.00899 0.64832 0.0
C1315 C 0.85075 0.02167 0.61957 0.0
C1316 C 0.82869 1.01283 0.60267 0.0
C1317 C 0.89457 0.04201 0.65035 0.0
C1318 C 0.8963 0.06545 0.6373 0.0
C1319 C 0.87517 0.05474 0.62174 0.0
C1320 C 0.91857 0.10133 0.63998 0.0
C1321 C 0.91844 0.05136 0.66647 0.0
C1322 C 0.91679 0.11685 0.65644 0.0
C1323 C 0.93635 0.15082 0.65862 0.0
C1324 C 0.95789 0.17022 0.64427 0.0
C1325 C 0.95958 0.1546 0.62776 0.0
C1326 C 0.9401 0.12055 0.62564 0.0
H1327 H 0.92141 0.03034 0.6709 0.0
H1328 H 0.94293 0.07224 0.66273 0.0
H1329 H 0.90884 0.05865 0.67869 0.0
H1330 H 0.89979 0.10275 0.66751 0.0
H1331 H 0.93458 0.16187 0.67159 0.0
H1332 H 0.167 0.27208 0.85076 0.0
H1333 H 0.18478 0.23118 0.85151 0.0
H1334 H 0.17394 0.22497 0.91176 0.0
H1335 H 0.15581 0.26586 0.91097 0.0
H1336 H 0.23988 0.23753 0.87047 0.0
H1337 H 0.12556 0.12808 0.89529 0.0
H1338 H 0.12591 0.16395 0.88594 0.0
H1339 H 0.14007 0.16443 0.90942 0.0
C1340 C 0.16844 0.26194 0.86415 0.0
C1341 C 0.16111 0.2728 0.88087 0.0
C1342 C 0.17849 0.23854 0.86457 0.0
C1343 C 0.18059 0.22485 0.88167 0.0
C1344 C 0.17214 0.23485 0.89838 0.0
H1345 H 0.24431 0.08091 0.90335 0.0
H1346 H 0.22324 0.11904 0.90686 0.0
C1347 C 0.16227 0.25853 0.89796 0.0
C1348 C 0.19327 0.20148 0.88189 0.0
H1349 H 0.17214 0.12201 0.89124 0.0
C1350 C 0.22513 0.21235 0.87516 0.0
C1351 C 0.17406 0.1686 0.88799 0.0
C1352 C 0.13939 0.15534 0.89495 0.0
C1353 C 0.2384 0.19143 0.87443 0.0
C1354 C 0.21882 0.15818 0.87988 0.0
C1355 C 0.18712 0.1474 0.88696 0.0
C1356 C 0.23052 0.13412 0.87773 0.0
C1357 C 0.27352 0.20544 0.86807 0.0
C1358 C 0.24083 0.12918 0.86012 0.0
C1359 C 0.25305 0.10764 0.85811 0.0
C1360 C 0.25475 0.09004 0.87362 0.0
C1361 C 0.24327 0.09404 0.89112 0.0
C1362 C 0.2313 0.11589 0.89316 0.0
H1363 H 0.28797 0.23237 0.87048 0.0
H1364 H 0.28578 0.19374 0.87551 0.0
H1365 H 0.2739 0.2011 0.85278 0.0
H1366 H 0.2395 0.14208 0.84786 0.0
H1367 H 0.26101 0.10461 0.84436 0.0
H1368 H 0.14686 0.88719 0.60623 0.0
H1369 H 0.08781 0.86819 0.60455 0.0
H1370 H 0.08113 0.85778 0.66486 0.0
H1371 H 0.13972 0.87561 0.6664 0.0
H1372 H 0.03372 0.80491 0.64886 0.0
H1373 H 0.0373 0.91373 0.61642 0.0
H1374 H 0.05742 0.89706 0.6026 0.0
H1375 H 0.07364 0.91452 0.62529 0.0
C1376 C 0.13257 0.88051 0.61905 0.0
C1377 C 0.14735 0.88161 0.63637 0.0
C1378 C 0.09899 0.87026 0.61814 0.0
C1379 C 0.07992 0.86171 0.6346 0.0
C1380 C 0.09517 0.86401 0.65195 0.0
H1381 H 0.88343 0.83109 0.65058 0.0
H1382 H 0.9428 0.85295 0.64823 0.0
C1383 C 0.12859 0.87412 0.65284 0.0
C1384 C 0.04381 0.84872 0.63389 0.0
H1385 H 0.98471 0.86604 0.61945 0.0
C1386 C 1.02306 0.81833 0.64243 0.0
C1387 C 0.02979 0.86632 0.62567 0.0
C1388 C 0.05069 0.89985 0.61714 0.0
C1389 C 0.98889 0.80516 0.64312 0.0
C1390 C 0.97476 0.82233 0.6345 0.0
C1391 C 0.99546 0.85271 0.6259 0.0
C1392 C 0.9387 0.80968 0.63486 0.0
C1393 C 0.96847 0.77345 0.65364 0.0
C1394 C 0.91656 0.77842 0.62772 0.0
C1395 C 0.88266 0.76577 0.62925 0.0
C1396 C 0.87014 0.78437 0.63761 0.0
C1397 C 0.89231 0.81621 0.64402 0.0
C1398 C 0.92625 0.8287 0.6427 0.0
H1399 H 0.98352 0.76864 0.6638 0.0
H1400 H 0.94815 0.77376 0.66142 0.0
H1401 H 0.95768 0.75278 0.6435 0.0
H1402 H 0.92548 0.76364 0.62109 0.0
H1403 H 0.86619 0.74141 0.62385 0.0
H1404 H 0.90574 0.17578 0.89058 0.0
H1405 H 0.86876 0.11659 0.89313 0.0
H1406 H 0.94646 0.09952 0.87489 0.0
H1407 H 0.98367 0.15881 0.87231 0.0
H1408 H 0.85033 0.07327 0.86413 0.0
H1409 H 0.90902 0.03759 0.91971 0.0
H1410 H 0.91964 0.07967 0.91569 0.0
H1411 H 0.93592 0.06041 0.90073 0.0
C1412 C 0.91504 0.15947 0.88718 0.0
C1413 C 0.94766 0.17209 0.88114 0.0
C1414 C 0.89391 0.12562 0.88875 0.0
C1415 C 0.90487 0.10354 0.88441 0.0
C1416 C 0.93761 0.11602 0.87874 0.0
H1417 H 0.7681 0.9013 0.85066 0.0
H1418 H 0.80922 0.95952 0.85159 0.0
C1419 C 0.95884 0.14996 0.87721 0.0
C1420 C 0.88118 0.06762 0.88428 0.0
H1421 H 0.86568 0.99413 0.90257 0.0
C1422 C 0.85352 0.05595 0.87265 0.0
C1423 C 0.88533 0.04506 0.89541 0.0
C1424 C 0.91392 0.05626 0.90873 0.0
C1425 C 0.82991 0.02248 0.87173 0.0
C1426 C 0.83425 0.99951 0.88254 0.0
C1427 C 0.86201 1.01136 0.89428 0.0
C1428 C 0.81048 0.96333 0.88195 0.0
C1429 C 0.80059 1.01279 0.85922 0.0
C1430 C 0.79908 0.94496 0.89865 0.0
C1431 C 0.77642 0.91117 0.89808 0.0
C1432 C 0.76384 0.89534 0.88085 0.0
C1433 C 0.77629 0.91327 0.86419 0.0
C1434 C 0.79965 0.94669 0.86472 0.0
H1435 H 0.79419 0.03254 0.85853 0.0
H1436 H 0.80663 1.00876 0.84475 0.0
H1437 H 0.7788 0.99015 0.86407 0.0
H1438 H 0.80743 0.95678 0.91218 0.0
H1439 H 0.7686 0.89748 0.91109 0.0
H1440 H 0.3581 0.21286 0.33954 0.0
H1441 H 0.36208 0.22395 0.30557 0.0
H1442 H 0.40803 0.16513 0.29777 0.0
H1443 H 0.40417 0.15399 0.33135 0.0
H1444 H 0.41705 0.24965 0.27808 0.0
H1445 H 0.32292 0.11962 0.26568 0.0
H1446 H 0.3301 0.13862 0.28855 0.0
H1447 H 0.3568 0.12451 0.27972 0.0
C1448 C 0.36969 0.20291 0.33062 0.0
C1449 C 0.38051 0.18227 0.33813 0.0
C1450 C 0.37184 0.20917 0.31121 0.0
C1451 C 0.38484 0.19489 0.2991 0.0
C1452 C 0.39743 0.17598 0.30679 0.0
H1453 H 0.41643 0.1645 0.18616 0.0
H1454 H 0.41765 0.17451 0.21981 0.0
C1455 C 0.39523 0.16968 0.32603 0.0
C1456 C 0.3835 0.19754 0.27833 0.0
H1457 H 0.35375 0.14999 0.239 0.0
C1458 C 0.40283 0.22801 0.26949 0.0
C1459 C 0.36472 0.16932 0.26713 0.0
C1460 C 0.34219 0.13621 0.27573 0.0
C1461 C 0.4052 0.23055 0.24974 0.0
C1462 C 0.38771 0.20196 0.23866 0.0
C1463 C 0.36733 0.17186 0.24752 0.0
C1464 C 0.39185 0.20173 0.21798 0.0
C1465 C 0.42745 0.26333 0.24079 0.0
C1466 C 0.37775 0.21458 0.20563 0.0
C1467 C 0.37707 0.20892 0.18619 0.0
C1468 C 0.39026 0.19011 0.17895 0.0
C1469 C 0.40608 0.17911 0.19129 0.0
C1470 C 0.40677 0.18477 0.21056 0.0
H1471 H 0.44132 0.28281 0.25137 0.0
H1472 H 0.44516 0.26142 0.23128 0.0
H1473 H 0.41259 0.27074 0.23213 0.0
H1474 H 0.36572 0.22738 0.21109 0.0
H1475 H 0.36429 0.21725 0.17706 0.0
H1476 H 0.78437 0.63056 0.33218 0.0
H1477 H 0.79195 0.62733 0.29856 0.0
H1478 H 0.89692 0.67789 0.30623 0.0
H1479 H 0.88951 0.68151 0.34023 0.0
H1480 H 0.83258 0.69031 0.27799 0.0
H1481 H 0.87271 0.59808 0.26777 0.0
H1482 H 0.84807 0.59626 0.28772 0.0
H1483 H 0.89032 0.62773 0.28653 0.0
C1484 C 0.80912 0.64039 0.32684 0.0
C1485 C 0.83637 0.65645 0.33888 0.0
C1486 C 0.81337 0.63846 0.30759 0.0
C1487 C 0.84495 0.65226 0.29989 0.0
C1488 C 0.87231 0.66672 0.31194 0.0
H1489 H 0.88582 0.67666 0.17778 0.0
H1490 H 0.8936 0.67374 0.21176 0.0
C1491 C 0.86805 0.6687 0.33135 0.0
C1492 C 0.84866 0.6548 0.27913 0.0
H1493 H 0.86353 0.62091 0.24048 0.0
C1494 C 0.83973 0.67542 0.2698 0.0
C1495 C 0.85821 0.63554 0.2685 0.0
C1496 C 0.86785 0.61299 0.27801 0.0
C1497 C 0.83911 0.67659 0.25014 0.0
C1498 C 0.84694 0.65607 0.2394 0.0
C1499 C 0.85731 0.63645 0.2487 0.0
C1500 C 0.84224 0.65345 0.21866 0.0
C1501 C 0.82937 0.69941 0.24104 0.0
C1502 C 0.81069 0.64174 0.2112 0.0
C1503 C 0.80621 0.64332 0.19193 0.0
C1504 C 0.83317 0.65652 0.17958 0.0
C1505 C 0.86454 0.6662 0.18688 0.0
C1506 C 0.86904 0.66468 0.2063 0.0
H1507 H 0.83375 0.71999 0.25052 0.0
H1508 H 0.84308 0.70976 0.22777 0.0
H1509 H 0.80273 0.68546 0.23777 0.0
H1510 H 0.78958 0.63251 0.22041 0.0
H1511 H 0.78166 0.63535 0.18679 0.0
H1512 H 0.82622 0.15535 0.17826 0.0
H1513 H 0.81163 0.14658 0.21179 0.0
H1514 H 0.8688 0.25091 0.22141 0.0
H1515 H 0.88312 0.25977 0.18823 0.0
H1516 H 0.85884 0.16573 0.24124 0.0
H1517 H 0.78339 0.22504 0.24995 0.0
H1518 H 0.79035 0.21211 0.22733 0.0
H1519 H 0.82097 0.25028 0.23752 0.0
C1520 C 0.83481 0.17642 0.18745 0.0
C1521 C 0.85565 0.20825 0.18058 0.0
C1522 C 0.82669 0.17138 0.20662 0.0
C1523 C 0.83879 0.19813 0.2191 0.0
C1524 C 0.85859 0.22994 0.21205 0.0
H1525 H 0.8816 0.25781 0.3317 0.0
H1526 H 0.86869 0.24944 0.29829 0.0
C1527 C 0.86688 0.23494 0.19305 0.0
C1528 C 0.83353 0.19319 0.23973 0.0
H1529 H 0.80895 0.21944 0.27794 0.0
C1530 C 0.84723 0.17675 0.24928 0.0
C1531 C 0.81854 0.20775 0.2502 0.0
C1532 C 0.80219 0.22453 0.24072 0.0
C1533 C 0.84818 0.1763 0.26903 0.0
C1534 C 0.83449 0.19217 0.27951 0.0
C1535 C 0.8194 0.20724 0.26993 0.0
C1536 C 0.83893 0.19661 0.30021 0.0
C1537 C 0.8657 0.16068 0.27852 0.0
C1538 C 0.82565 0.16975 0.3126 0.0
C1539 C 0.83302 0.17448 0.33187 0.0
C1540 C 0.85384 0.20617 0.33899 0.0
C1541 C 0.86562 0.23306 0.32666 0.0
C1542 C 0.85822 0.22833 0.30753 0.0
H1543 H 0.87959 0.15429 0.26837 0.0
H1544 H 0.88303 0.17742 0.28933 0.0
H1545 H 0.84743 0.13783 0.28566 0.0
H1546 H 0.81029 0.14507 0.30731 0.0
H1547 H 0.82375 0.15327 0.34096 0.0
H1548 H 0.16985 0.40657 0.68436 0.0
H1549 H 0.1788 0.4089 0.71818 0.0
H1550 H 0.23427 0.35917 0.71143 0.0
H1551 H 0.22521 0.35658 0.6773 0.0
H1552 H 0.15519 0.34818 0.7387 0.0
H1553 H 0.28836 0.43474 0.75059 0.0
H1554 H 0.26736 0.43639 0.7297 0.0
H1555 H 0.27685 0.40415 0.73246 0.0
C1556 C 0.1847 0.39685 0.68997 0.0
C1557 C 0.19678 0.38132 0.67814 0.0
C1558 C 0.18976 0.39819 0.70934 0.0
C1559 C 0.20726 0.3843 0.71737 0.0
C1560 C 0.22107 0.37045 0.70552 0.0
H1561 H 0.2207 0.35147 0.83848 0.0
H1562 H 0.23071 0.35588 0.80441 0.0
C1563 C 0.21597 0.36908 0.68601 0.0
C1564 C 0.2074 0.38113 0.73815 0.0
H1565 H 0.25567 0.40984 0.77739 0.0
C1566 C 0.17721 0.36154 0.74713 0.0
C1567 C 0.23619 0.39823 0.74913 0.0
C1568 C 0.26912 0.41976 0.7401 0.0
C1569 C 0.17484 0.35911 0.76677 0.0
C1570 C 0.20333 0.37735 0.77786 0.0
C1571 C 0.23382 0.39606 0.7689 0.0
C1572 C 0.20116 0.37838 0.79869 0.0
C1573 C 0.14169 0.33704 0.77548 0.0
C1574 C 0.18237 0.39074 0.80687 0.0
C1575 C 0.17667 0.38828 0.8262 0.0
C1576 C 0.18979 0.37356 0.8379 0.0
C1577 C 0.21034 0.36303 0.82989 0.0
C1578 C 0.21598 0.36542 0.81041 0.0
H1579 H 0.1247 0.31802 0.76543 0.0
H1580 H 0.14397 0.32465 0.78818 0.0
H1581 H 0.1305 0.35203 0.77966 0.0
H1582 H 0.17118 0.40139 0.79818 0.0
H1583 H 0.16104 0.39701 0.83191 0.0
H1584 H 0.16255 0.81759 0.83988 0.0
H1585 H 0.15532 0.80492 0.80616 0.0
H1586 H 0.26004 0.86317 0.79817 0.0
H1587 H 0.26744 0.87545 0.83167 0.0
H1588 H 0.17431 0.85246 0.77761 0.0
H1589 H 0.23662 0.77994 0.76828 0.0
H1590 H 0.22319 0.78599 0.79095 0.0
H1591 H 0.26113 0.81741 0.78098 0.0
C1592 C 0.18407 0.82692 0.83102 0.0
C1593 C 0.21557 0.84745 0.83849 0.0
C1594 C 0.17989 0.81986 0.81173 0.0
C1595 C 0.20716 0.83276 0.79964 0.0
C1596 C 0.23866 0.85234 0.80722 0.0
H1597 H 0.26655 0.87701 0.68677 0.0
H1598 H 0.25872 0.86445 0.72018 0.0
C1599 C 0.24283 0.85952 0.8264 0.0
C1600 C 0.20294 0.82834 0.77892 0.0
H1601 H 0.23019 0.80529 0.7405 0.0
C1602 C 0.1859 0.84151 0.76948 0.0
C1603 C 0.21816 0.81414 0.76833 0.0
C1604 C 0.23554 0.79828 0.77766 0.0
C1605 C 0.18536 0.84264 0.74974 0.0
C1606 C 0.20177 0.82966 0.73914 0.0
C1607 C 0.21757 0.8152 0.7486 0.0
C1608 C 0.20589 0.83413 0.71843 0.0
C1609 C 0.16895 0.85951 0.7404 0.0
C1610 C 0.17884 0.82046 0.70613 0.0
C1611 C 0.18324 0.82769 0.68685 0.0
C1612 C 0.21478 0.84874 0.67962 0.0
C1613 C 0.24187 0.86094 0.69188 0.0
C1614 C 0.23746 0.85371 0.71102 0.0
H1615 H 0.16239 0.87317 0.75063 0.0
H1616 H 0.18522 0.87692 0.72951 0.0
H1617 H 0.14607 0.84088 0.7334 0.0
H1618 H 0.15427 0.80484 0.7115 0.0
H1619 H 0.16189 0.81798 0.67781 0.0
H1620 H 0.68654 0.87813 0.67815 0.0
H1621 H 0.6805 0.88517 0.71182 0.0
H1622 H 0.6404 0.78133 0.72035 0.0
H1623 H 0.64581 0.77403 0.68688 0.0
H1624 H 0.60705 0.80901 0.74051 0.0
H1625 H 0.74255 0.87897 0.75109 0.0
H1626 H 0.72599 0.89402 0.73345 0.0
H1627 H 0.724 0.85523 0.73013 0.0
C1628 C 0.67586 0.85674 0.68714 0.0
C1629 C 0.66692 0.82557 0.67983 0.0
C1630 C 0.67271 0.86084 0.70641 0.0
C1631 C 0.66047 0.83384 0.71866 0.0
C1632 C 0.65002 0.80254 0.71121 0.0
H1633 H 0.63899 0.77282 0.83173 0.0
H1634 H 0.63406 0.78035 0.79831 0.0
C1635 C 0.65323 0.79844 0.69205 0.0
C1636 C 0.65978 0.83793 0.73935 0.0
H1637 H 0.70956 0.86649 0.77795 0.0
C1638 C 0.62944 0.82196 0.74869 0.0
C1639 C 0.68899 0.85486 0.75003 0.0
C1640 C 0.72232 0.87162 0.74077 0.0
C1641 C 0.62757 0.82174 0.76841 0.0
C1642 C 0.65686 0.8374 0.77911 0.0
C1643 C 0.68712 0.85458 0.76976 0.0
C1644 C 0.65692 0.83324 0.79984 0.0
C1645 C 0.59423 0.80432 0.77759 0.0
C1646 C 0.67157 0.86049 0.81198 0.0
C1647 C 0.67451 0.85623 0.83127 0.0
C1648 C 0.6633 0.82467 0.83865 0.0
C1649 C 0.64778 0.79747 0.82652 0.0
C1650 C 0.64475 0.80171 0.80738 0.0
H1651 H 0.57499 0.80351 0.76817 0.0
H1652 H 0.58765 0.77864 0.78072 0.0
H1653 H 0.59409 0.81642 0.79096 0.0
H1654 H 0.68143 0.88508 0.80645 0.0
H1655 H 0.68701 0.87768 0.84018 0.0
H1656 H 0.24211 0.9759 0.93 0.0
H1657 H 0.25642 1.01005 0.95822 0.0
H1658 H 0.24068 0.92748 0.99203 0.0
H1659 H 0.22655 0.8932 0.9637 0.0
H1660 H 0.21966 0.99994 0.99451 0.0
H1661 H 0.33914 1.00308 1.00112 0.0
H1662 H 0.31598 0.99206 0.97949 0.0
H1663 H 0.30308 0.96331 0.99852 0.0
C1664 C 0.2413 0.96486 0.94347 0.0
C1665 C 0.23296 0.93169 0.9446 0.0
C1666 C 0.2494 0.98442 0.9596 0.0
C1667 C 0.24985 0.97144 0.97724 0.0
C1668 C 0.24057 0.93805 0.97854 0.0
H1669 H 0.3229 0.05438 0.08654 0.0
H1670 H 0.30128 0.02107 0.05854 0.0
C1671 C 0.2321 0.91832 0.96236 0.0
C1672 C 0.26178 0.99339 0.99399 0.0
H1673 H 0.32627 0.03013 0.02456 0.0
C1674 C 0.24294 1.00657 1.00113 0.0
C1675 C 0.29229 1.00224 1.00249 0.0
C1676 C 0.31405 0.98972 0.99502 0.0
C1677 C 0.25334 0.02757 0.0169 0.0
C1678 C 0.28392 0.03643 0.02546 0.0
C1679 C 0.30287 0.02349 0.01808 0.0
C1680 C 0.29607 0.05742 0.04271 0.0
C1681 C 0.23097 0.03918 0.02458 0.0
C1682 C 0.30047 0.08934 0.04339 0.0
C1683 C 0.31265 0.10867 0.05971 0.0
C1684 C 0.32129 0.09673 0.07556 0.0
C1685 C 0.31679 0.06478 0.07471 0.0
C1686 C 0.3044 0.04551 0.05859 0.0
H1687 H 0.20526 0.0235 0.01968 0.0
H1688 H 0.23114 0.03931 0.04017 0.0
H1689 H 0.23958 0.06457 0.01965 0.0
H1690 H 0.29488 0.09949 0.03124 0.0
H1691 H 0.31531 0.13289 0.05988 0.0
H1692 H 0.76417 0.71331 0.43413 0.0
H1693 H 0.75269 0.73504 0.46212 0.0
H1694 H 0.84345 0.75165 0.48692 0.0
H1695 H 0.85601 0.73089 0.45824 0.0
H1696 H 0.74253 0.7132 0.49711 0.0
H1697 H 0.85 0.83946 0.496 0.0
H1698 H 0.83954 0.81174 0.47635 0.0
H1699 H 0.8603 0.80748 0.49643 0.0
C1700 C 0.78199 0.72161 0.44541 0.0
C1701 C 0.81107 0.72003 0.44382 0.0
C1702 C 0.77524 0.73408 0.46153 0.0
C1703 C 0.79724 0.74539 0.47668 0.0
C1704 C 0.82628 0.7437 0.47532 0.0
H1705 H 0.77387 0.80881 0.5879 0.0
H1706 H 0.79411 0.79416 0.55994 0.0
C1707 C 0.83326 0.73138 0.45899 0.0
C1708 C 0.78873 0.75799 0.49384 0.0
H1709 H 0.81403 0.82549 0.52204 0.0
C1710 C 0.75822 0.7378 0.5025 0.0
C1711 C 0.80907 0.79013 0.50097 0.0
C1712 C 0.84143 0.81362 0.49189 0.0
C1713 C 0.74753 0.74873 0.51791 0.0
C1714 C 0.76771 0.78087 0.52491 0.0
C1715 C 0.79847 0.80095 0.51655 0.0
C1716 C 0.75747 0.79343 0.54129 0.0
C1717 C 0.71481 0.72565 0.52678 0.0
C1718 C 0.73065 0.79884 0.54004 0.0
C1719 C 0.71915 0.80748 0.55604 0.0
C1720 C 0.73422 0.81074 0.57356 0.0
C1721 C 0.76175 0.80646 0.57459 0.0
C1722 C 0.7734 0.79815 0.55861 0.0
H1723 H 0.70497 0.69993 0.52199 0.0
H1724 H 0.71695 0.7264 0.54233 0.0
H1725 H 0.69684 0.73345 0.52296 0.0
H1726 H 0.71803 0.79542 0.52679 0.0
H1727 H 0.69749 0.8098 0.55486 0.0
H1728 H 0.06802 0.27043 0.931 0.0
H1729 H 0.03439 0.25099 0.95943 0.0
H1730 H 0.11518 0.32406 0.99205 0.0
H1731 H 0.14882 0.34384 0.9635 0.0
H1732 H 0.04586 0.22867 0.9962 0.0
H1733 H 0.03655 0.34187 0.99994 0.0
H1734 H 0.04917 0.32974 0.97889 0.0
H1735 H 0.07733 0.34777 0.99811 0.0
C1736 C 0.07879 0.28207 0.94428 0.0
C1737 C 0.11122 0.30852 0.94503 0.0
C1738 C 0.05954 0.27087 0.96053 0.0
C1739 C 0.07211 0.28619 0.97787 0.0
C1740 C 0.1049 0.31193 0.9788 0.0
H1741 H 0.98945 0.27864 0.08692 0.0
H1742 H 1.02242 0.29018 0.05879 0.0
C1743 C 0.12431 0.32297 0.96252 0.0
C1744 C 0.05025 0.27637 0.99465 0.0
H1745 H 1.0117 0.30348 0.02434 0.0
C1746 C 0.03836 0.24498 1.0024 0.0
C1747 C 0.04022 0.29754 1.0026 0.0
C1748 C 0.05118 0.33104 0.99444 0.0
C1749 C 1.01755 0.23459 0.01823 0.0
C1750 C 1.00759 0.25585 0.02626 0.0
C1751 C 1.01921 0.28708 0.01827 0.0
C1752 C 0.98679 0.24728 0.04355 0.0
C1753 C 1.00734 0.20137 0.02656 0.0
C1754 C 0.95537 0.21912 0.04458 0.0
C1755 C 0.93624 0.2121 0.06096 0.0
C1756 C 0.9479 0.23341 0.07653 0.0
C1757 C 0.97931 0.26155 0.07532 0.0
C1758 C 0.99838 0.26833 0.05912 0.0
H1759 H 1.02368 0.19195 0.02193 0.0
H1760 H 1.00752 0.20234 0.04214 0.0
H1761 H 0.98202 0.18363 0.02189 0.0
H1762 H 0.94547 0.20272 0.03267 0.0
H1763 H 0.91245 0.19003 0.06141 0.0
H1764 H 0.29638 0.12743 0.45442 0.0
H1765 H 0.27205 0.09314 0.48247 0.0
H1766 H 0.31827 0.03658 0.46811 0.0
H1767 H 0.34161 0.06971 0.44022 0.0
H1768 H 0.25567 0.99676 0.47699 0.0
H1769 H 0.31363 0.09303 0.53192 0.0
H1770 H 0.28974 0.10007 0.51483 0.0
H1771 H 0.32663 0.10045 0.50773 0.0
C1772 C 0.30159 0.1079 0.4574 0.0
C1773 C 0.3209 0.10135 0.44496 0.0
C1774 C 0.28771 0.08831 0.47347 0.0
C1775 C 0.29333 0.06217 0.47754 0.0
C1776 C 0.31323 0.05629 0.46531 0.0
H1777 H 0.28944 0.96448 0.57858 0.0
H1778 H 0.2995 0.99817 0.55088 0.0
C1779 C 0.32672 0.07548 0.4493 0.0
C1780 C 0.27847 0.04022 0.4942 0.0
H1781 H 0.27828 0.03909 0.54222 0.0
C1782 C 0.2604 1.00605 0.49126 0.0
C1783 C 0.28468 0.05219 0.51287 0.0
C1784 C 0.30494 0.08839 0.51713 0.0
C1785 C 0.24958 0.98365 0.50632 0.0
C1786 C 0.25617 0.99561 0.525 0.0
C1787 C 0.2731 0.0298 0.52794 0.0
C1788 C 0.24891 0.9735 0.54161 0.0
C1789 C 0.23274 0.94741 0.50201 0.0
C1790 C 0.21701 0.94774 0.54573 0.0
C1791 C 0.21115 0.9278 0.56165 0.0
C1792 C 0.237 0.93365 0.57392 0.0
C1793 C 0.26881 0.95924 0.5696 0.0
C1794 C 0.27465 0.97875 0.55371 0.0
H1795 H 0.23642 0.94264 0.48717 0.0
H1796 H 0.24193 0.93479 0.5113 0.0
H1797 H 0.20596 0.9364 0.5044 0.0
H1798 H 0.19652 0.94341 0.53686 0.0
H1799 H 0.18632 0.90851 0.56464 0.0
H1800 H 0.81655 0.76542 0.08855 0.0
H1801 H 0.80216 0.78633 0.06077 0.0
H1802 H 0.8037 0.71106 0.02696 0.0
H1803 H 0.81766 0.68985 0.05478 0.0
H1804 H 0.83398 0.807 0.02283 0.0
H1805 H 0.70827 0.6982 0.02224 0.0
H1806 H 0.73462 0.70983 0.04263 0.0
H1807 H 0.74164 0.68981 0.02317 0.0
C1808 C 0.81437 0.75366 0.07512 0.0
C1809 C 0.81872 0.7262 0.07383 0.0
C1810 C 0.80619 0.76569 0.05926 0.0
C1811 C 0.80165 0.75018 0.04179 0.0
C1812 C 0.80704 0.72341 0.04031 0.0
H1813 H 0.72384 0.75646 0.93412 0.0
H1814 H 0.74521 0.7455 0.96242 0.0
C1815 C 0.81552 0.71153 0.05619 0.0
C1816 C 0.78927 0.76071 0.02548 0.0
H1817 H 0.72217 0.73556 0.9972 0.0
C1818 C 0.80953 0.79148 0.01721 0.0
C1819 C 0.75724 0.74058 0.0183 0.0
C1820 C 0.73396 0.70784 0.02707 0.0
C1821 C 0.79904 0.80209 1.00148 0.0
C1822 C 0.76708 0.78172 0.99413 0.0
C1823 C 0.74665 0.75126 1.00275 0.0
C1824 C 0.75494 0.79006 0.97672 0.0
C1825 C 0.82274 0.83443 0.99249 0.0
C1826 C 0.75312 0.81898 0.97509 0.0
C1827 C 0.74102 0.82566 0.95858 0.0
C1828 C 0.73001 0.80329 0.94349 0.0
C1829 C 0.73186 0.7744 0.94532 0.0
C1830 C 0.74411 0.76795 0.96163 0.0
H1831 H 0.84848 0.84314 0.9969 0.0
H1832 H 0.82135 0.83248 0.97694 0.0
H1833 H 0.81631 0.85322 0.99679 0.0
H1834 H 0.76074 0.83625 0.98664 0.0
H1835 H 0.74042 0.84831 0.95763 0.0
H1836 H 0.0685 0.27099 0.58871 0.0
H1837 H 0.03332 0.24783 0.56113 0.0
H1838 H 0.10941 0.32168 0.52634 0.0
H1839 H 0.14479 0.34447 0.55395 0.0
H1840 H 1.00813 0.27453 0.53944 0.0
H1841 H 0.08417 0.2426 0.49456 0.0
H1842 H 0.09355 0.25338 0.519 0.0
H1843 H 0.10582 0.28492 0.50145 0.0
C1844 C 0.07795 0.28195 0.57511 0.0
C1845 C 0.10973 0.30925 0.57348 0.0
C1846 C 0.05776 0.2687 0.55933 0.0
C1847 C 0.06868 0.28255 0.54147 0.0
C1848 C 0.10061 0.30975 0.53978 0.0
H1849 H 0.98361 0.27514 0.43434 0.0
H1850 H 1.01607 0.28578 0.46267 0.0
C1851 C 0.121 0.3228 0.5556 0.0
C1852 C 0.04586 0.26983 0.52498 0.0
H1853 H 0.03943 0.24417 0.47938 0.0
C1854 C 1.01486 0.26746 0.52641 0.0
C1855 C 0.05436 0.26039 0.50791 0.0
C1856 C 0.08614 0.26011 0.50568 0.0
C1857 C 0.99284 0.25717 0.51115 0.0
C1858 C 1.00185 0.24885 0.49395 0.0
C1859 C 0.03249 0.25053 0.49259 0.0
C1860 C 0.98116 0.24118 0.47674 0.0
C1861 C 0.96056 0.25647 0.51326 0.0
C1862 C 0.95051 0.21226 0.47506 0.0
C1863 C 0.93162 0.20579 0.4586 0.0
C1864 C 0.94293 0.22831 0.44361 0.0
C1865 C 0.97374 0.25712 0.44548 0.0
C1866 C 0.99256 0.26335 0.46174 0.0
H1867 H 0.959 0.26762 0.5267 0.0
H1868 H 0.95694 0.26976 0.50145 0.0
H1869 H 0.94017 0.23065 0.51282 0.0
H1870 H 0.94137 0.19455 0.48638 0.0
H1871 H 0.90844 0.1831 0.45756 0.0
H1872 H 0.70048 0.20246 0.12322 0.0
H1873 H 0.6488 0.19987 0.13191 0.0
H1874 H 0.59589 0.09668 0.1184 0.0
H1875 H 0.64733 0.09872 0.1107 0.0
H1876 H 0.60136 0.18771 0.10871 0.0
H1877 H 0.54771 0.09478 0.16469 0.0
H1878 H 0.5901 0.11255 0.15763 0.0
H1879 H 0.55816 0.07842 0.14482 0.0
C1880 C 0.67797 0.17899 0.1227 0.0
C1881 C 0.67813 0.15088 0.11607 0.0
C1882 C 0.64835 0.17757 0.12757 0.0
C1883 C 0.61826 0.148 0.126 0.0
C1884 C 0.61862 0.11965 0.12019 0.0
H1885 H 0.43643 0.12922 0.09041 0.0
H1886 H 0.48696 0.12734 0.09533 0.0
C1887 C 0.64815 0.12099 0.11547 0.0
C1888 C 0.58639 0.14752 0.12806 0.0
H1889 H 0.509 0.10378 0.14661 0.0
C1890 C 0.58144 0.16967 0.11728 0.0
C1891 C 0.56024 0.12429 0.13938 0.0
C1892 C 0.56446 0.10144 0.15243 0.0
C1893 C 0.5509 0.16825 0.11677 0.0
C1894 C 0.5241 0.14343 0.12692 0.0
C1895 C 0.52934 0.12234 0.13851 0.0
C1896 C 0.49047 0.1387 0.12498 0.0
C1897 C 0.54757 0.1933 0.10517 0.0
C1898 C 0.47444 0.14356 0.14027 0.0
C1899 C 0.44516 0.14417 0.13751 0.0
C1900 C 0.43148 0.13968 0.11944 0.0
C1901 C 0.44645 0.13269 0.10447 0.0
C1902 C 0.47542 0.13183 0.10725 0.0
H1903 H 0.57172 0.2158 0.10294 0.0
H1904 H 0.5374 0.18266 0.09118 0.0
H1905 H 0.53072 0.20036 0.11196 0.0
H1906 H 0.4855 0.14869 0.1541 0.0
H1907 H 0.43441 0.1501 0.14924 0.0
H1908 H 0.73747 0.60214 0.43012 0.0
H1909 H 0.68406 0.55274 0.42585 0.0
H1910 H 0.69745 0.56122 0.36578 0.0
H1911 H 0.75173 0.61021 0.37011 0.0
H1912 H 0.62835 0.53976 0.40874 0.0
H1913 H 0.67912 0.46861 0.37436 0.0
H1914 H 0.70491 0.50786 0.38536 0.0
H1915 H 0.68792 0.50576 0.36244 0.0
C1916 C 0.72883 0.59368 0.41598 0.0
C1917 C 0.74856 0.61031 0.40046 0.0
C1918 C 0.69829 0.5654 0.41354 0.0
C1919 C 0.68679 0.55274 0.39551 0.0
C1920 C 0.70599 0.56997 0.37987 0.0
H1921 H 0.48215 0.39351 0.38489 0.0
H1922 H 0.534 0.44476 0.38033 0.0
C1923 C 0.7368 0.59832 0.38233 0.0
C1924 C 0.65511 0.52115 0.39348 0.0
H1925 H 0.62159 0.44171 0.37823 0.0
C1926 C 0.62686 0.51839 0.40196 0.0
C1927 C 0.65316 0.493 0.3849 0.0
C1928 C 0.68291 0.4937 0.37639 0.0
C1929 C 0.59703 0.48843 0.40237 0.0
C1930 C 0.59489 0.46037 0.39353 0.0
C1931 C 0.62305 0.46317 0.38486 0.0
C1932 C 0.564 0.42774 0.39386 0.0
C1933 C 0.56851 0.48691 0.41301 0.0
C1934 C 0.56367 0.40016 0.4018 0.0
C1935 C 0.534 0.37048 0.40403 0.0
C1936 C 0.50412 0.36791 0.39844 0.0
C1937 C 0.50478 0.39489 0.3895 0.0
C1938 C 0.53439 0.42431 0.38705 0.0
H1939 H 0.57675 0.50743 0.42321 0.0
H1940 H 0.55154 0.48884 0.40294 0.0
H1941 H 0.55468 0.46341 0.42075 0.0
H1942 H 0.58617 0.40201 0.40704 0.0
H1943 H 0.53422 0.35017 0.41105 0.0
H1944 H 0.89403 0.29007 0.15112 0.0
H1945 H 0.89483 0.342 0.15695 0.0
H1946 H 0.91194 0.36549 0.09806 0.0
H1947 H 0.91108 0.31375 0.09217 0.0
H1948 H 0.94967 0.42022 0.13351 0.0
H1949 H 0.81337 0.34912 0.1262 0.0
H1950 H 0.83534 0.3323 0.1384 0.0
H1951 H 0.8384 0.33657 0.11338 0.0
C1952 C 0.89905 0.30681 0.13955 0.0
C1953 C 0.90285 0.29812 0.1212 0.0
C1954 C 0.89934 0.33636 0.14289 0.0
C1955 C 0.90342 0.35746 0.12791 0.0
C1956 C 0.90894 0.34957 0.1098 0.0
H1957 H 0.86965 0.50296 0.08595 0.0
H1958 H 0.8729 0.45461 0.09514 0.0
C1959 C 0.90842 0.32007 0.10645 0.0
C1960 C 0.89815 0.38576 0.13042 0.0
H1961 H 0.83868 0.40674 0.12542 0.0
C1962 C 0.92539 0.41738 0.13223 0.0
C1963 C 0.86643 0.38179 0.12858 0.0
C1964 C 0.83652 0.34819 0.12655 0.0
C1965 C 0.92179 0.44534 0.13139 0.0
C1966 C 0.89018 0.44141 0.12865 0.0
C1967 C 0.86284 0.40967 0.12766 0.0
C1968 C 0.8856 0.46966 0.12407 0.0
C1969 C 0.95195 0.47895 0.13229 0.0
C1970 C 0.89072 0.49377 0.13745 0.0
C1971 C 0.88857 0.52144 0.13223 0.0
C1972 C 0.8816 0.52543 0.11354 0.0
C1973 C 0.87525 0.50059 0.10043 0.0
C1974 C 0.87708 0.47296 0.10566 0.0
H1975 H 0.97498 0.47778 0.13286 0.0
H1976 H 0.9529 0.49363 0.11986 0.0
H1977 H 0.95076 0.492 0.14499 0.0
H1978 H 0.89701 0.49149 0.15179 0.0
H1979 H 0.89372 0.54033 0.14257 0.0
H1980 H 0.42891 0.14696 0.37057 0.0
H1981 H 0.47808 0.14176 0.36643 0.0
H1982 H 0.48884 0.14165 0.42658 0.0
H1983 H 0.43941 0.14572 0.43068 0.0
H1984 H 0.54058 0.18463 0.37734 0.0
H1985 H 0.50099 0.06584 0.41223 0.0
H1986 H 0.47239 0.07901 0.40553 0.0
H1987 H 0.49505 0.09316 0.42717 0.0
C1988 C 0.44123 0.14476 0.38286 0.0
C1989 C 0.42985 0.14583 0.40096 0.0
C1990 C 0.46953 0.14216 0.3805 0.0
C1991 C 0.48701 0.14077 0.3962 0.0
C1992 C 0.47543 0.14172 0.41423 0.0
H1993 H 0.69212 0.1995 0.41052 0.0
H1994 H 0.63996 0.19826 0.40507 0.0
C1995 C 0.44722 0.1442 0.41658 0.0
C1996 C 0.51851 0.14054 0.394 0.0
H1997 H 0.55919 0.10172 0.40932 0.0
C1998 C 0.54452 0.16623 0.3841 0.0
C1999 C 0.52373 0.11638 0.40258 0.0
C2000 C 0.49643 0.08687 0.41231 0.0
C2001 C 0.57583 0.1691 0.38322 0.0
C2002 C 0.58156 0.14606 0.39284 0.0
C2003 C 0.55515 0.1197 0.4021 0.0
C2004 C 0.61462 0.14877 0.39388 0.0
C2005 C 0.60231 0.1967 0.3719 0.0
C2006 C 0.61809 0.12153 0.38944 0.0
C2007 C 0.64769 0.12209 0.39283 0.0
C2008 C 0.67469 0.14999 0.40063 0.0
C2009 C 0.67189 0.17788 0.40422 0.0
C2010 C 0.64204 0.17717 0.40105 0.0
H2011 H 0.59164 0.20492 0.36066 0.0
H2012 H 0.61695 0.21798 0.38127 0.0
H2013 H 0.61908 0.18931 0.36534 0.0
H2014 H 0.59748 0.09933 0.38389 0.0
H2015 H 0.64916 0.10023 0.38995 0.0
H2016 H 0.49146 0.39668 0.10639 0.0
H2017 H 0.54098 0.44848 0.1136 0.0
H2018 H 0.59029 0.39582 0.12995 0.0
H2019 H 0.54111 0.34376 0.12188 0.0
H2020 H 0.58146 0.47775 0.1436 0.0
H2021 H 0.64753 0.45205 0.08732 0.0
H2022 H 0.60386 0.42702 0.09074 0.0
H2023 H 0.63187 0.42227 0.10586 0.0
C2024 C 0.51278 0.39603 0.11159 0.0
C2025 C 0.51251 0.36603 0.11311 0.0
C2026 C 0.54104 0.42573 0.11587 0.0
C2027 C 0.56971 0.4262 0.12186 0.0
C2028 C 0.56873 0.39616 0.12489 0.0
H2029 H 0.75286 0.6115 0.14712 0.0
H2030 H 0.70054 0.56033 0.1513 0.0
C2031 C 0.54044 0.36635 0.12048 0.0
C2032 C 0.60102 0.45816 0.12325 0.0
H2033 H 0.67704 0.502 0.10338 0.0
C2034 C 0.60249 0.48302 0.13492 0.0
C2035 C 0.62833 0.46524 0.11171 0.0
C2036 C 0.62788 0.44041 0.09807 0.0
C2037 C 0.63023 0.51481 0.13513 0.0
C2038 C 0.65743 0.52181 0.12354 0.0
C2039 C 0.6562 0.49671 0.11225 0.0
C2040 C 0.68685 0.55523 0.12192 0.0
C2041 C 0.62962 0.54092 0.14715 0.0
C2042 C 0.69656 0.56976 0.10411 0.0
C2043 C 0.72651 0.59866 0.1017 0.0
C2044 C 0.74728 0.61407 0.11707 0.0
C2045 C 0.737 0.60055 0.13508 0.0
C2046 C 0.70705 0.57127 0.13748 0.0
H2047 H 0.60432 0.5338 0.15172 0.0
H2048 H 0.64474 0.54493 0.15989 0.0
H2049 H 0.64007 0.56449 0.13942 0.0
H2050 H 0.68147 0.55799 0.09189 0.0
H2051 H 0.73402 0.60844 0.08766 0.0
H2052 H 0.89491 0.52069 0.43638 0.0
H2053 H 0.89413 0.46936 0.42973 0.0
H2054 H 0.88687 0.48317 0.37045 0.0
H2055 H 0.88791 0.53514 0.37707 0.0
H2056 H 0.84524 0.41244 0.40987 0.0
H2057 H 0.9682 0.46942 0.37569 0.0
H2058 H 0.9558 0.49281 0.39026 0.0
H2059 H 0.93902 0.48054 0.36711 0.0
C2060 C 0.89309 0.51282 0.42191 0.0
C2061 C 0.89173 0.53211 0.40724 0.0
C2062 C 0.89259 0.48343 0.41813 0.0
C2063 C 0.89097 0.47265 0.39959 0.0
C2064 C 0.88864 0.49129 0.38486 0.0
H2065 H 0.8921 0.28972 0.37083 0.0
H2066 H 0.89367 0.34249 0.3669 0.0
C2067 C 0.88889 0.52075 0.38866 0.0
C2068 C 0.89168 0.4418 0.39608 0.0
H2069 H 0.94128 0.41237 0.38092 0.0
C2070 C 0.86603 0.41238 0.4033 0.0
C2071 C 0.9188 0.44169 0.38746 0.0
C2072 C 0.94721 0.47274 0.37973 0.0
C2073 C 0.86721 0.38314 0.40267 0.0
C2074 C 0.89504 0.38334 0.39493 0.0
C2075 C 0.92006 0.41235 0.38691 0.0
C2076 C 0.8993 0.35417 0.39654 0.0
C2077 C 0.8389 0.35228 0.41071 0.0
C2078 C 0.90335 0.344 0.41436 0.0
C2079 C 0.90266 0.31418 0.4166 0.0
C2080 C 0.89834 0.29405 0.40104 0.0
C2081 C 0.89607 0.30501 0.38302 0.0
C2082 C 0.89676 0.33503 0.38078 0.0
H2083 H 0.81625 0.35406 0.41172 0.0
H2084 H 0.83362 0.33058 0.402 0.0
H2085 H 0.84541 0.34823 0.42505 0.0
H2086 H 0.90565 0.35854 0.42668 0.0
H2087 H 0.90425 0.3062 0.43063 0.0
H2088 H 0.20462 0.68916 0.61757 0.0
H2089 H 0.20594 0.63854 0.62361 0.0
H2090 H 0.10055 0.58236 0.61826 0.0
H2091 H 0.09884 0.63275 0.61348 0.0
H2092 H 0.1199 0.556 0.64448 0.0
H2093 H 0.19758 0.57895 0.58132 0.0
H2094 H 0.2164 0.61013 0.59898 0.0
H2095 H 0.17993 0.60414 0.58716 0.0
C2096 C 0.18165 0.66614 0.61811 0.0
C2097 C 0.15168 0.66513 0.61459 0.0
C2098 C 0.18247 0.63708 0.6213 0.0
C2099 C 0.15343 0.60636 0.62076 0.0
C2100 C 0.12338 0.60557 0.61849 0.0
H2101 H 0.141 0.4249 0.58652 0.0
H2102 H 0.13658 0.47421 0.59038 0.0
C2103 C 0.1225 0.63452 0.61555 0.0
C2104 C 0.15408 0.5749 0.62145 0.0
H2105 H 0.1843 0.53152 0.59876 0.0
C2106 C 0.13404 0.55065 0.6345 0.0
C2107 C 0.17211 0.56759 0.60827 0.0
C2108 C 0.19247 0.5914 0.59303 0.0
C2109 C 0.13124 0.51936 0.63459 0.0
C2110 C 0.14961 0.51225 0.62154 0.0
C2111 C 0.1701 0.53676 0.60876 0.0
C2112 C 0.14737 0.47942 0.62018 0.0
C2113 C 0.10767 0.49395 0.6482 0.0
C2114 C 0.15378 0.46497 0.63572 0.0
C2115 C 0.15546 0.43615 0.63357 0.0
C2116 C 0.15125 0.42156 0.61578 0.0
C2117 C 0.14398 0.43547 0.60041 0.0
C2118 C 0.14167 0.46379 0.60261 0.0
H2119 H 0.08868 0.49974 0.65308 0.0
H2120 H 0.0952 0.46919 0.64174 0.0
H2121 H 0.12144 0.49335 0.6607 0.0
H2122 H 0.1591 0.47677 0.64933 0.0
H2123 H 0.16196 0.42648 0.64557 0.0
H2124 H 0.29637 0.88188 0.87169 0.0
H2125 H 0.34863 0.8823 0.86798 0.0
H2126 H 0.36176 0.88917 0.92805 0.0
H2127 H 0.30993 0.88901 0.93179 0.0
H2128 H 0.41774 0.92784 0.88312 0.0
H2129 H 0.35724 0.80083 0.91106 0.0
H2130 H 0.33442 0.81926 0.9018 0.0
H2131 H 0.35138 0.82931 0.92508 0.0
C2132 C 0.3109 0.88444 0.88403 0.0
C2133 C 0.2993 0.88577 0.90204 0.0
C2134 C 0.34064 0.88448 0.88191 0.0
C2135 C 0.35883 0.88531 0.89777 0.0
C2136 C 0.34795 0.88818 0.91564 0.0
H2137 H 0.52302 0.87587 0.9372 0.0
H2138 H 0.47182 0.87545 0.93063 0.0
C2139 C 0.31843 0.8882 0.91776 0.0
C2140 C 0.38786 0.88078 0.89609 0.0
H2141 H 0.41569 0.82932 0.90974 0.0
C2142 C 0.41727 0.9061 0.88861 0.0
C2143 C 0.38707 0.85229 0.90317 0.0
C2144 C 0.35578 0.82369 0.91059 0.0
C2145 C 0.44641 0.90444 0.88907 0.0
C2146 C 0.44591 0.87657 0.89701 0.0
C2147 C 0.41611 0.85068 0.90369 0.0
C2148 C 0.47649 0.87523 0.90043 0.0
C2149 C 0.47787 0.93318 0.882 0.0
C2150 C 0.49583 0.87432 0.88561 0.0
C2151 C 0.52522 0.87435 0.88937 0.0
C2152 C 0.53578 0.87553 0.90798 0.0
C2153 C 0.51572 0.8753 0.92271 0.0
C2154 C 0.48642 0.87503 0.91898 0.0
H2155 H 0.47501 0.9547 0.87869 0.0
H2156 H 0.4977 0.94061 0.89259 0.0
H2157 H 0.48574 0.9259 0.86904 0.0
H2158 H 0.48837 0.87394 0.87118 0.0
H2159 H 0.54023 0.87462 0.87775 0.0
H2160 H 0.61308 0.7308 0.58715 0.0
H2161 H 0.5634 0.67769 0.59167 0.0
H2162 H 0.57473 0.69039 0.65173 0.0
H2163 H 0.62377 0.74433 0.64718 0.0
H2164 H 0.55018 0.62154 0.6085 0.0
H2165 H 0.48278 0.67498 0.64454 0.0
H2166 H 0.52174 0.7 0.6331 0.0
H2167 H 0.52014 0.68284 0.65589 0.0
C2168 C 0.60515 0.72206 0.60132 0.0
C2169 C 0.62251 0.74149 0.61679 0.0
C2170 C 0.57677 0.69171 0.6039 0.0
C2171 C 0.56489 0.68021 0.62204 0.0
C2172 C 0.58294 0.69902 0.63759 0.0
H2173 H 0.40123 0.47768 0.63104 0.0
H2174 H 0.45343 0.52814 0.63678 0.0
C2175 C 0.6113 0.72962 0.63499 0.0
C2176 C 0.53307 0.64909 0.6243 0.0
H2177 H 0.45441 0.61757 0.64038 0.0
C2178 C 0.5293 0.62061 0.6156 0.0
C2179 C 0.50565 0.64799 0.63332 0.0
C2180 C 0.50754 0.6781 0.64211 0.0
C2181 C 0.49887 0.59135 0.61529 0.0
C2182 C 0.4715 0.59009 0.62449 0.0
C2183 C 0.47539 0.61841 0.63349 0.0
C2184 C 0.43831 0.56018 0.62392 0.0
C2185 C 0.49609 0.56258 0.6043 0.0
C2186 C 0.41156 0.56157 0.61605 0.0
C2187 C 0.38139 0.53279 0.61322 0.0
C2188 C 0.37759 0.50216 0.61811 0.0
C2189 C 0.40365 0.50102 0.62706 0.0
C2190 C 0.43357 0.52979 0.63015 0.0
H2191 H 0.51648 0.57031 0.59407 0.0
H2192 H 0.49722 0.54489 0.61414 0.0
H2193 H 0.47248 0.54973 0.59653 0.0
H2194 H 0.41448 0.58473 0.61125 0.0
H2195 H 0.36174 0.53426 0.60618 0.0
H2196 H 0.15638 0.65262 0.93728 0.0
H2197 H 0.15635 0.60126 0.93212 0.0
H2198 H 0.16534 0.61926 0.87245 0.0
H2199 H 0.16594 0.6713 0.87766 0.0
H2200 H 0.10991 0.54908 0.91258 0.0
H2201 H 0.23252 0.5902 0.881 0.0
H2202 H 0.22259 0.61812 0.8928 0.0
H2203 H 0.20807 0.60445 0.86935 0.0
C2204 C 0.15892 0.64592 0.92307 0.0
C2205 C 0.16113 0.666 0.90787 0.0
C2206 C 0.15881 0.61649 0.92012 0.0
C2207 C 0.16088 0.60623 0.9019 0.0
C2208 C 0.16426 0.62678 0.88668 0.0
H2209 H 0.15611 0.42094 0.87203 0.0
H2210 H 0.15193 0.47088 0.86905 0.0
C2211 C 0.16462 0.65654 0.88965 0.0
C2212 C 0.15723 0.57306 0.89909 0.0
H2213 H 0.19694 0.53305 0.88378 0.0
C2214 C 0.12893 0.54564 0.90619 0.0
C2215 C 0.18179 0.56833 0.89057 0.0
C2216 C 0.2131 0.5968 0.88311 0.0
C2217 C 0.12489 0.51396 0.90547 0.0
C2218 C 0.14995 0.50936 0.8976 0.0
C2219 C 0.17768 0.53651 0.88979 0.0
C2220 C 0.14928 0.47735 0.89898 0.0
C2221 C 0.09385 0.48573 0.91337 0.0
C2222 C 0.14887 0.46414 0.91672 0.0
C2223 C 0.15105 0.43569 0.9184 0.0
C2224 C 0.15351 0.41956 0.90241 0.0
C2225 C 0.15337 0.43234 0.88458 0.0
C2226 C 0.15131 0.46105 0.88289 0.0
H2227 H 0.07317 0.49081 0.91289 0.0
H2228 H 0.08665 0.46269 0.90559 0.0
H2229 H 0.098 0.48198 0.92828 0.0
H2230 H 0.14806 0.47654 0.92936 0.0
H2231 H 0.15174 0.42672 0.93231 0.0
H2232 H 0.31107 0.88732 0.58779 0.0
H2233 H 0.3641 0.89045 0.5924 0.0
H2234 H 0.35114 0.88883 0.65244 0.0
H2235 H 0.29732 0.88444 0.64779 0.0
H2236 H 0.42009 0.93401 0.60958 0.0
H2237 H 0.3679 0.81296 0.64497 0.0
H2238 H 0.34255 0.82646 0.63343 0.0
H2239 H 0.35921 0.8419 0.65634 0.0
C2240 C 0.31972 0.88798 0.60198 0.0
C2241 C 0.30032 0.88613 0.61742 0.0
C2242 C 0.35002 0.88975 0.60461 0.0
C2243 C 0.36148 0.88934 0.62276 0.0
C2244 C 0.34257 0.88849 0.63829 0.0
H2245 H 0.56506 0.93246 0.63436 0.0
H2246 H 0.51338 0.93229 0.63918 0.0
C2247 C 0.31204 0.88652 0.63564 0.0
C2248 C 0.39288 0.88907 0.62508 0.0
H2249 H 0.42547 0.84284 0.64118 0.0
C2250 C 0.42131 0.91418 0.61661 0.0
C2251 C 0.39438 0.86292 0.63401 0.0
C2252 C 0.36437 0.83435 0.64257 0.0
C2253 C 0.45095 0.91366 0.6165 0.0
C2254 C 0.45263 0.88776 0.62565 0.0
C2255 C 0.4243 0.86282 0.63434 0.0
C2256 C 0.48318 0.88549 0.6255 0.0
C2257 C 0.47977 0.9402 0.60587 0.0
C2258 C 0.48321 0.85818 0.61742 0.0
C2259 C 0.51272 0.85792 0.61504 0.0
C2260 C 0.54267 0.88504 0.62063 0.0
C2261 C 0.54231 0.91135 0.6298 0.0
C2262 C 0.51283 0.91141 0.6324 0.0
H2263 H 0.47193 0.9527 0.59558 0.0
H2264 H 0.49691 0.959 0.61592 0.0
H2265 H 0.4933 0.93004 0.59822 0.0
H2266 H 0.46062 0.83776 0.61211 0.0
H2267 H 0.51236 0.83744 0.60783 0.0
H2268 H 0.61251 0.72629 0.93019 0.0
H2269 H 0.56144 0.67419 0.92594 0.0
H2270 H 0.56736 0.69005 0.8661 0.0
H2271 H 0.61865 0.74242 0.87034 0.0
H2272 H 0.50512 0.67374 0.90808 0.0
H2273 H 0.541 0.59085 0.87222 0.0
H2274 H 0.56848 0.62249 0.88824 0.0
H2275 H 0.5605 0.63348 0.86555 0.0
C2276 C 0.60336 0.71824 0.91609 0.0
C2277 C 0.61976 0.73817 0.9006 0.0
C2278 C 0.57416 0.68854 0.91367 0.0
C2279 C 0.56061 0.67816 0.89571 0.0
C2280 C 0.5776 0.69735 0.88007 0.0
H2281 H 0.36823 0.49985 0.87438 0.0
H2282 H 0.41867 0.55274 0.86875 0.0
C2283 C 0.60697 0.72721 0.88249 0.0
C2284 C 0.52717 0.64909 0.89389 0.0
H2285 H 0.48545 0.56844 0.88065 0.0
C2286 C 0.50075 0.65082 0.90188 0.0
C2287 C 0.52146 0.61933 0.88565 0.0
C2288 C 0.54923 0.61608 0.8774 0.0
C2289 C 0.46904 0.62332 0.90243 0.0
C2290 C 0.4636 0.5931 0.89502 0.0
C2291 C 0.48966 0.59168 0.88625 0.0
C2292 C 0.43206 0.56215 0.89811 0.0
C2293 C 0.44168 0.62662 0.9113 0.0
C2294 C 0.42283 0.55009 0.91642 0.0
C2295 C 0.39434 0.5201 0.91962 0.0
C2296 C 0.37432 0.50145 0.90458 0.0
C2297 C 0.38303 0.5139 0.88624 0.0
C2298 C 0.41189 0.54392 0.88301 0.0
H2299 H 0.44733 0.65255 0.91145 0.0
H2300 H 0.41814 0.61148 0.90374 0.0
H2301 H 0.4384 0.61794 0.92605 0.0
H2302 H 0.43816 0.56355 0.92826 0.0
H2303 H 0.38822 0.51114 0.9339 0.0
loop_
_geom_bond_atom_site_label_1
_geom_bond_atom_site_label_2
_geom_bond_distance
_geom_bond_site_symmetry_2
_ccdc_geom_bond_type
Gd0 N31 2.661 . S
Gd0 N37 2.601 . S
Gd0 O44 2.545 . S
Gd0 O45 2.606 . S
Gd0 O47 2.429 . S
Gd0 O48 2.545 . S
Gd0 O49 2.412 . S
Gd0 O51 2.362 . S
Gd0 O52 2.324 . S
Gd0 C59 2.828 . S
Gd1 N10 2.661 . S
Gd1 N14 2.601 . S
Gd1 O45 2.362 . S
Gd1 O46 2.324 . S
Gd1 O50 2.545 . S
Gd1 O51 2.606 . S
Gd1 O53 2.429 . S
Gd1 O54 2.545 . S
Gd1 O55 2.412 . S
Gd1 C68 2.828 . S
C2 C5 1.417 . S
C2 C7 1.431 . S
C2 C8 1.412 . S
C3 C6 1.437 . S
C3 C7 1.317 . S
C3 H22 0.929 . S
C4 C5 1.426 . S
C4 C6 1.413 . S
C4 N14 1.359 . S
C5 C2 1.417 . S
C5 C4 1.426 . S
C5 N10 1.350 . S
C6 C3 1.437 . S
C6 C4 1.413 . S
C6 C16 1.391 . S
C7 C2 1.431 . S
C7 C3 1.317 . S
C7 H18 0.930 . S
C8 C2 1.412 . S
C8 C9 1.355 . S
C8 H20 0.930 . S
C9 C8 1.355 . S
C9 C11 1.402 . S
C9 H21 0.930 . S
N10 Gd1 2.661 . S
N10 C5 1.350 . S
N10 C11 1.307 . S
C11 C9 1.402 . S
C11 N10 1.307 . S
C11 H12 0.930 . S
H12 C11 0.930 . S
C13 N14 1.334 . S
C13 C15 1.394 . S
C13 H17 0.930 . S
N14 Gd1 2.601 . S
N14 C4 1.359 . S
N14 C13 1.334 . S
C15 C13 1.394 . S
C15 C16 1.359 . S
C15 H27 0.930 . S
C16 C6 1.391 . S
C16 C15 1.359 . S
C16 H28 0.929 . S
H17 C13 0.930 . S
H18 C7 0.930 . S
H19 C36 0.930 . S
H20 C8 0.930 . S
H21 C9 0.930 . S
H22 C3 0.929 . S
H23 C41 0.930 . S
H24 C32 0.930 . S
H25 C33 0.930 . S
H26 C57 0.929 . S
H27 C15 0.930 . S
H28 C16 0.929 . S
H29 C58 0.930 . S
H30 C39 0.930 . S
N31 Gd0 2.661 . S
N31 C35 1.350 . S
N31 C36 1.307 . S
C32 H24 0.930 . S
C32 C33 1.355 . S
C32 C34 1.412 . S
C33 H25 0.930 . S
C33 C32 1.355 . S
C33 C36 1.402 . S
C34 C32 1.412 . S
C34 C35 1.417 . S
C34 C58 1.431 . S
C35 N31 1.350 . S
C35 C34 1.417 . S
C35 C38 1.426 . S
C36 H19 0.930 . S
C36 N31 1.307 . S
C36 C33 1.402 . S
N37 Gd0 2.601 . S
N37 C38 1.359 . S
N37 C41 1.334 . S
C38 C35 1.426 . S
C38 N37 1.359 . S
C38 C42 1.413 . S
C39 H30 0.930 . S
C39 C40 1.359 . S
C39 C41 1.394 . S
C40 C39 1.359 . S
C40 C42 1.391 . S
C40 H43 0.929 . S
C41 H23 0.930 . S
C41 N37 1.334 . S
C41 C39 1.394 . S
C42 C38 1.413 . S
C42 C40 1.391 . S
C42 C57 1.437 . S
H43 C40 0.929 . S
O44 Gd0 2.545 . S
O44 C59 1.258 . S
O45 Gd0 2.606 . S
O45 Gd1 2.362 . S
O45 C56 1.284 . S
O46 Gd1 2.324 . S
O46 C66 1.254 . S
O47 Gd0 2.429 . S
O47 C66 1.268 . S
O48 Gd0 2.545 . S
O48 C56 1.250 . S
O49 Gd0 2.412 . S
O49 C59 1.252 . S
O50 Gd1 2.545 . S
O50 C68 1.258 . S
O51 Gd0 2.362 . S
O51 Gd1 2.606 . S
O51 C67 1.284 . S
O52 Gd0 2.324 . S
O52 C75 1.254 . S
O53 Gd1 2.429 . S
O53 C75 1.268 . S
O54 Gd1 2.545 . S
O54 C67 1.250 . S
O55 Gd1 2.412 . S
O55 C68 1.252 . S
C56 O45 1.284 . S
C56 O48 1.250 . S
C57 H26 0.929 . S
C57 C42 1.437 . S
C57 C58 1.317 . S
C58 H29 0.930 . S
C58 C34 1.431 . S
C58 C57 1.317 . S
C59 Gd0 2.828 . S
C59 O44 1.258 . S
C59 O49 1.252 . S
C59 C60 1.497 . S
C60 C59 1.497 . S
C60 C61 1.395 . S
C60 C62 1.380 . S
C61 C60 1.395 . S
C61 C64 1.398 1_545 S
C61 H76 0.930 . S
C62 C60 1.380 . S
C62 C63 1.391 1_545 S
C62 H77 0.930 . S
C63 C62 1.391 1_565 S
C63 C65 1.387 . S
C64 C61 1.398 1_565 S
C64 C65 1.380 . S
C64 H78 0.930 . S
C65 C63 1.387 . S
C65 C64 1.380 . S
C65 H79 0.930 . S
C66 O46 1.254 . S
C66 O47 1.268 . S
C67 O51 1.284 . S
C67 O54 1.250 . S
C68 Gd1 2.828 . S
C68 O50 1.258 . S
C68 O55 1.252 . S
C68 C69 1.497 . S
C69 C68 1.497 . S
C69 C70 1.395 . S
C69 C71 1.380 . S
C70 C69 1.395 . S
C70 C73 1.398 . S
C70 H80 0.930 . S
C71 C69 1.380 . S
C71 C72 1.391 . S
C71 H81 0.930 . S
C72 C71 1.391 . S
C72 C74 1.387 . S
C73 C70 1.398 . S
C73 C74 1.380 . S
C73 H82 0.930 . S
C74 C72 1.387 . S
C74 C73 1.380 . S
C74 H83 0.930 . S
C75 O52 1.254 . S
C75 O53 1.268 . S
H76 C61 0.930 . S
H77 C62 0.930 . S
H78 C64 0.930 . S
H79 C65 0.930 . S
H80 C70 0.930 . S
H81 C71 0.930 . S
H82 C73 0.930 . S
H83 C74 0.930 . S
Gd84 N115 2.661 . S
Gd84 N121 2.601 . S
Gd84 O128 2.545 . S
Gd84 O129 2.606 . S
Gd84 O131 2.429 . S
Gd84 O132 2.545 . S
Gd84 O133 2.412 . S
Gd84 O135 2.362 . S
Gd84 O136 2.324 . S
Gd84 C143 2.828 . S
Gd85 N94 2.661 . S
Gd85 N98 2.601 . S
Gd85 O129 2.362 . S
Gd85 O130 2.324 . S
Gd85 O134 2.545 . S
Gd85 O135 2.606 . S
Gd85 O137 2.429 . S
Gd85 O138 2.545 . S
Gd85 O139 2.412 . S
Gd85 C152 2.828 . S
C86 C89 1.417 . S
C86 C91 1.431 . S
C86 C92 1.412 . S
C87 C90 1.437 . S
C87 C91 1.317 . S
C87 H106 0.929 . S
C88 C89 1.426 . S
C88 C90 1.413 . S
C88 N98 1.359 . S
C89 C86 1.417 . S
C89 C88 1.426 . S
C89 N94 1.350 . S
C90 C87 1.437 . S
C90 C88 1.413 . S
C90 C100 1.391 . S
C91 C86 1.431 . S
C91 C87 1.317 . S
C91 H102 0.930 . S
C92 C86 1.412 . S
C92 C93 1.355 . S
C92 H104 0.930 . S
C93 C92 1.355 . S
C93 C95 1.402 . S
C93 H105 0.930 . S
N94 Gd85 2.661 . S
N94 C89 1.350 . S
N94 C95 1.307 . S
C95 C93 1.402 . S
C95 N94 1.307 . S
C95 H96 0.930 . S
H96 C95 0.930 . S
C97 N98 1.334 . S
C97 C99 1.394 . S
C97 H101 0.930 . S
N98 Gd85 2.601 . S
N98 C88 1.359 . S
N98 C97 1.334 . S
C99 C97 1.394 . S
C99 C100 1.359 . S
C99 H111 0.930 . S
C100 C90 1.391 . S
C100 C99 1.359 . S
C100 H112 0.929 . S
H101 C97 0.930 . S
H102 C91 0.930 . S
H103 C120 0.930 . S
H104 C92 0.930 . S
H105 C93 0.930 . S
H106 C87 0.929 . S
H107 C125 0.930 . S
H108 C116 0.930 . S
H109 C117 0.930 . S
H110 C141 0.929 . S
H111 C99 0.930 . S
H112 C100 0.929 . S
H113 C142 0.930 1_455 S
H114 C123 0.930 . S
N115 Gd84 2.661 . S
N115 C119 1.350 . S
N115 C120 1.307 . S
C116 H108 0.930 . S
C116 C117 1.355 . S
C116 C118 1.412 . S
C117 H109 0.930 . S
C117 C116 1.355 . S
C117 C120 1.402 . S
C118 C116 1.412 . S
C118 C119 1.417 . S
C118 C142 1.431 . S
C119 N115 1.350 . S
C119 C118 1.417 . S
C119 C122 1.426 . S
C120 H103 0.930 . S
C120 N115 1.307 . S
C120 C117 1.402 . S
N121 Gd84 2.601 . S
N121 C122 1.359 . S
N121 C125 1.334 . S
C122 C119 1.426 . S
C122 N121 1.359 . S
C122 C126 1.413 . S
C123 H114 0.930 . S
C123 C124 1.359 . S
C123 C125 1.394 . S
C124 C123 1.359 . S
C124 C126 1.391 . S
C124 H127 0.929 . S
C125 H107 0.930 . S
C125 N121 1.334 . S
C125 C123 1.394 . S
C126 C122 1.413 . S
C126 C124 1.391 . S
C126 C141 1.437 . S
H127 C124 0.929 . S
O128 Gd84 2.545 . S
O128 C143 1.258 . S
O129 Gd84 2.606 . S
O129 Gd85 2.362 . S
O129 C140 1.284 . S
O130 Gd85 2.324 . S
O130 C150 1.254 . S
O131 Gd84 2.429 . S
O131 C150 1.268 . S
O132 Gd84 2.545 . S
O132 C140 1.250 . S
O133 Gd84 2.412 . S
O133 C143 1.252 . S
O134 Gd85 2.545 . S
O134 C152 1.258 . S
O135 Gd84 2.362 . S
O135 Gd85 2.606 . S
O135 C151 1.284 . S
O136 Gd84 2.324 . S
O136 C159 1.254 . S
O137 Gd85 2.429 . S
O137 C159 1.268 . S
O138 Gd85 2.545 . S
O138 C151 1.250 . S
O139 Gd85 2.412 . S
O139 C152 1.252 . S
C140 O129 1.284 . S
C140 O132 1.250 . S
C141 H110 0.929 . S
C141 C126 1.437 . S
C141 C142 1.317 . S
C142 H113 0.930 1_655 S
C142 C118 1.431 . S
C142 C141 1.317 . S
C143 Gd84 2.828 . S
C143 O128 1.258 . S
C143 O133 1.252 . S
C143 C144 1.497 . S
C144 C143 1.497 . S
C144 C145 1.395 . S
C144 C146 1.380 . S
C145 C144 1.395 . S
C145 C148 1.398 . S
C145 H160 0.930 . S
C146 C144 1.380 . S
C146 C147 1.391 . S
C146 H161 0.930 . S
C147 C146 1.391 . S
C147 C149 1.387 . S
C148 C145 1.398 . S
C148 C149 1.380 . S
C148 H162 0.930 . S
C149 C147 1.387 . S
C149 C148 1.380 . S
C149 H163 0.930 . S
C150 O130 1.254 . S
C150 O131 1.268 . S
C151 O135 1.284 . S
C151 O138 1.250 . S
C152 Gd85 2.828 . S
C152 O134 1.258 . S
C152 O139 1.252 . S
C152 C153 1.497 . S
C153 C152 1.497 . S
C153 C154 1.395 . S
C153 C155 1.380 . S
C154 C153 1.395 . S
C154 C157 1.398 . S
C154 H164 0.930 . S
C155 C153 1.380 . S
C155 C156 1.391 . S
C155 H165 0.930 . S
C156 C155 1.391 . S
C156 C158 1.387 . S
C157 C154 1.398 . S
C157 C158 1.380 . S
C157 H166 0.930 . S
C158 C156 1.387 . S
C158 C157 1.380 . S
C158 H167 0.930 . S
C159 O136 1.254 . S
C159 O137 1.268 . S
H160 C145 0.930 . S
H161 C146 0.930 . S
H162 C148 0.930 . S
H163 C149 0.930 . S
H164 C154 0.930 . S
H165 C155 0.930 . S
H166 C157 0.930 . S
H167 C158 0.930 . S
Gd168 N199 2.661 . S
Gd168 N205 2.601 . S
Gd168 O212 2.545 . S
Gd168 O213 2.606 . S
Gd168 O215 2.429 . S
Gd168 O216 2.545 . S
Gd168 O217 2.412 . S
Gd168 O219 2.362 . S
Gd168 O220 2.324 . S
Gd168 C227 2.828 . S
Gd169 N178 2.661 . S
Gd169 N182 2.601 . S
Gd169 O213 2.362 . S
Gd169 O214 2.324 . S
Gd169 O218 2.545 . S
Gd169 O219 2.606 . S
Gd169 O221 2.429 . S
Gd169 O222 2.545 . S
Gd169 O223 2.412 . S
Gd169 C236 2.828 . S
C170 C173 1.417 . S
C170 C175 1.431 . S
C170 C176 1.412 . S
C171 C174 1.437 . S
C171 C175 1.317 . S
C171 H190 0.929 . S
C172 C173 1.426 . S
C172 C174 1.413 . S
C172 N182 1.359 . S
C173 C170 1.417 . S
C173 C172 1.426 . S
C173 N178 1.350 . S
C174 C171 1.437 . S
C174 C172 1.413 . S
C174 C184 1.391 . S
C175 C170 1.431 . S
C175 C171 1.317 . S
C175 H186 0.930 1_545 S
C176 C170 1.412 . S
C176 C177 1.355 . S
C176 H188 0.930 . S
C177 C176 1.355 . S
C177 C179 1.402 . S
C177 H189 0.930 . S
N178 Gd169 2.661 . S
N178 C173 1.350 . S
N178 C179 1.307 . S
C179 C177 1.402 . S
C179 N178 1.307 . S
C179 H180 0.930 . S
H180 C179 0.930 . S
C181 N182 1.334 . S
C181 C183 1.394 . S
C181 H185 0.930 . S
N182 Gd169 2.601 . S
N182 C172 1.359 . S
N182 C181 1.334 . S
C183 C181 1.394 . S
C183 C184 1.359 . S
C183 H195 0.930 . S
C184 C174 1.391 . S
C184 C183 1.359 . S
C184 H196 0.929 . S
H185 C181 0.930 . S
H186 C175 0.930 1_565 S
H187 C204 0.930 . S
H188 C176 0.930 . S
H189 C177 0.930 . S
H190 C171 0.929 . S
H191 C209 0.930 . S
H192 C200 0.930 . S
H193 C201 0.930 . S
H194 C225 0.929 . S
H195 C183 0.930 . S
H196 C184 0.929 . S
H197 C226 0.930 . S
H198 C207 0.930 . S
N199 Gd168 2.661 . S
N199 C203 1.350 . S
N199 C204 1.307 . S
C200 H192 0.930 . S
C200 C201 1.355 . S
C200 C202 1.412 . S
C201 H193 0.930 . S
C201 C200 1.355 . S
C201 C204 1.402 . S
C202 C200 1.412 . S
C202 C203 1.417 . S
C202 C226 1.431 . S
C203 N199 1.350 . S
C203 C202 1.417 . S
C203 C206 1.426 . S
C204 H187 0.930 . S
C204 N199 1.307 . S
C204 C201 1.402 . S
N205 Gd168 2.601 . S
N205 C206 1.359 . S
N205 C209 1.334 . S
C206 C203 1.426 . S
C206 N205 1.359 . S
C206 C210 1.413 . S
C207 H198 0.930 . S
C207 C208 1.359 . S
C207 C209 1.394 . S
C208 C207 1.359 . S
C208 C210 1.391 . S
C208 H211 0.929 . S
C209 H191 0.930 . S
C209 N205 1.334 . S
C209 C207 1.394 . S
C210 C206 1.413 . S
C210 C208 1.391 . S
C210 C225 1.437 . S
H211 C208 0.929 . S
O212 Gd168 2.545 . S
O212 C227 1.258 . S
O213 Gd168 2.606 . S
O213 Gd169 2.362 . S
O213 C224 1.284 . S
O214 Gd169 2.324 . S
O214 C234 1.254 . S
O215 Gd168 2.429 . S
O215 C234 1.268 . S
O216 Gd168 2.545 . S
O216 C224 1.250 . S
O217 Gd168 2.412 . S
O217 C227 1.252 . S
O218 Gd169 2.545 . S
O218 C236 1.258 . S
O219 Gd168 2.362 . S
O219 Gd169 2.606 . S
O219 C235 1.284 . S
O220 Gd168 2.324 . S
O220 C243 1.254 . S
O221 Gd169 2.429 . S
O221 C243 1.268 . S
O222 Gd169 2.545 . S
O222 C235 1.250 . S
O223 Gd169 2.412 . S
O223 C236 1.252 . S
C224 O213 1.284 . S
C224 O216 1.250 . S
C225 H194 0.929 . S
C225 C210 1.437 . S
C225 C226 1.317 . S
C226 H197 0.930 . S
C226 C202 1.431 . S
C226 C225 1.317 . S
C227 Gd168 2.828 . S
C227 O212 1.258 . S
C227 O217 1.252 . S
C227 C228 1.497 . S
C228 C227 1.497 . S
C228 C229 1.395 . S
C228 C230 1.380 . S
C229 C228 1.395 . S
C229 C232 1.398 1_655 S
C229 H244 0.930 . S
C230 C228 1.380 . S
C230 C231 1.391 1_655 S
C230 H245 0.930 . S
C231 C230 1.391 1_455 S
C231 C233 1.387 . S
C232 C229 1.398 1_455 S
C232 C233 1.380 . S
C232 H246 0.930 . S
C233 C231 1.387 . S
C233 C232 1.380 . S
C233 H247 0.930 . S
C234 O214 1.254 . S
C234 O215 1.268 . S
C235 O219 1.284 . S
C235 O222 1.250 . S
C236 Gd169 2.828 . S
C236 O218 1.258 . S
C236 O223 1.252 . S
C236 C237 1.497 . S
C237 C236 1.497 . S
C237 C238 1.395 . S
C237 C239 1.380 . S
C238 C237 1.395 . S
C238 C241 1.398 . S
C238 H248 0.930 . S
C239 C237 1.380 . S
C239 C240 1.391 . S
C239 H249 0.930 . S
C240 C239 1.391 . S
C240 C242 1.387 . S
C241 C238 1.398 . S
C241 C242 1.380 . S
C241 H250 0.930 . S
C242 C240 1.387 . S
C242 C241 1.380 . S
C242 H251 0.930 . S
C243 O220 1.254 . S
C243 O221 1.268 . S
H244 C229 0.930 . S
H245 C230 0.930 . S
H246 C232 0.930 . S
H247 C233 0.930 . S
H248 C238 0.930 . S
H249 C239 0.930 . S
H250 C241 0.930 . S
H251 C242 0.930 . S
Gd252 N283 2.661 . S
Gd252 N289 2.601 . S
Gd252 O296 2.545 . S
Gd252 O297 2.606 . S
Gd252 O299 2.429 . S
Gd252 O300 2.545 . S
Gd252 O301 2.412 . S
Gd252 O303 2.362 . S
Gd252 O304 2.324 . S
Gd252 C311 2.828 . S
Gd253 N262 2.661 . S
Gd253 N266 2.601 . S
Gd253 O297 2.362 . S
Gd253 O298 2.324 . S
Gd253 O302 2.545 . S
Gd253 O303 2.606 . S
Gd253 O305 2.429 . S
Gd253 O306 2.545 . S
Gd253 O307 2.412 . S
Gd253 C320 2.828 . S
C254 C257 1.417 . S
C254 C259 1.431 . S
C254 C260 1.412 . S
C255 C258 1.437 . S
C255 C259 1.317 . S
C255 H274 0.929 . S
C256 C257 1.426 . S
C256 C258 1.413 . S
C256 N266 1.359 . S
C257 C254 1.417 . S
C257 C256 1.426 . S
C257 N262 1.350 . S
C258 C255 1.437 . S
C258 C256 1.413 . S
C258 C268 1.391 . S
C259 C254 1.431 . S
C259 C255 1.317 . S
C259 H270 0.930 . S
C260 C254 1.412 . S
C260 C261 1.355 . S
C260 H272 0.930 . S
C261 C260 1.355 . S
C261 C263 1.402 . S
C261 H273 0.930 . S
N262 Gd253 2.661 . S
N262 C257 1.350 . S
N262 C263 1.307 . S
C263 C261 1.402 . S
C263 N262 1.307 . S
C263 H264 0.930 . S
H264 C263 0.930 . S
C265 N266 1.334 . S
C265 C267 1.394 . S
C265 H269 0.930 . S
N266 Gd253 2.601 . S
N266 C256 1.359 . S
N266 C265 1.334 . S
C267 C265 1.394 . S
C267 C268 1.359 . S
C267 H279 0.930 . S
C268 C258 1.391 . S
C268 C267 1.359 . S
C268 H280 0.929 . S
H269 C265 0.930 . S
H270 C259 0.930 . S
H271 C288 0.930 . S
H272 C260 0.930 . S
H273 C261 0.930 . S
H274 C255 0.929 . S
H275 C293 0.930 . S
H276 C284 0.930 . S
H277 C285 0.930 . S
H278 C309 0.929 . S
H279 C267 0.930 . S
H280 C268 0.929 . S
H281 C310 0.930 . S
H282 C291 0.930 . S
N283 Gd252 2.661 . S
N283 C287 1.350 . S
N283 C288 1.307 . S
C284 H276 0.930 . S
C284 C285 1.355 . S
C284 C286 1.412 . S
C285 H277 0.930 . S
C285 C284 1.355 . S
C285 C288 1.402 . S
C286 C284 1.412 . S
C286 C287 1.417 . S
C286 C310 1.431 . S
C287 N283 1.350 . S
C287 C286 1.417 . S
C287 C290 1.426 . S
C288 H271 0.930 . S
C288 N283 1.307 . S
C288 C285 1.402 . S
N289 Gd252 2.601 . S
N289 C290 1.359 . S
N289 C293 1.334 . S
C290 C287 1.426 . S
C290 N289 1.359 . S
C290 C294 1.413 . S
C291 H282 0.930 . S
C291 C292 1.359 . S
C291 C293 1.394 . S
C292 C291 1.359 . S
C292 C294 1.391 . S
C292 H295 0.929 . S
C293 H275 0.930 . S
C293 N289 1.334 . S
C293 C291 1.394 . S
C294 C290 1.413 . S
C294 C292 1.391 . S
C294 C309 1.437 . S
H295 C292 0.929 . S
O296 Gd252 2.545 . S
O296 C311 1.258 . S
O297 Gd252 2.606 . S
O297 Gd253 2.362 . S
O297 C308 1.284 . S
O298 Gd253 2.324 . S
O298 C318 1.254 . S
O299 Gd252 2.429 . S
O299 C318 1.268 . S
O300 Gd252 2.545 . S
O300 C308 1.250 . S
O301 Gd252 2.412 . S
O301 C311 1.252 . S
O302 Gd253 2.545 . S
O302 C320 1.258 . S
O303 Gd252 2.362 . S
O303 Gd253 2.606 . S
O303 C319 1.284 . S
O304 Gd252 2.324 . S
O304 C327 1.254 . S
O305 Gd253 2.429 . S
O305 C327 1.268 . S
O306 Gd253 2.545 . S
O306 C319 1.250 . S
O307 Gd253 2.412 . S
O307 C320 1.252 . S
C308 O297 1.284 . S
C308 O300 1.250 . S
C309 H278 0.929 . S
C309 C294 1.437 . S
C309 C310 1.317 . S
C310 H281 0.930 . S
C310 C286 1.431 . S
C310 C309 1.317 . S
C311 Gd252 2.828 . S
C311 O296 1.258 . S
C311 O301 1.252 . S
C311 C312 1.497 . S
C312 C311 1.497 . S
C312 C313 1.395 . S
C312 C314 1.380 . S
C313 C312 1.395 . S
C313 C316 1.398 . S
C313 H328 0.930 . S
C314 C312 1.380 . S
C314 C315 1.391 . S
C314 H329 0.930 . S
C315 C314 1.391 . S
C315 C317 1.387 . S
C316 C313 1.398 . S
C316 C317 1.380 . S
C316 H330 0.930 . S
C317 C315 1.387 . S
C317 C316 1.380 . S
C317 H331 0.930 . S
C318 O298 1.254 . S
C318 O299 1.268 . S
C319 O303 1.284 . S
C319 O306 1.250 . S
C320 Gd253 2.828 . S
C320 O302 1.258 . S
C320 O307 1.252 . S
C320 C321 1.497 . S
C321 C320 1.497 . S
C321 C322 1.395 . S
C321 C323 1.380 . S
C322 C321 1.395 . S
C322 C325 1.398 1_545 S
C322 H332 0.930 . S
C323 C321 1.380 . S
C323 C324 1.391 1_545 S
C323 H333 0.930 . S
C324 C323 1.391 1_565 S
C324 C326 1.387 . S
C325 C322 1.398 1_565 S
C325 C326 1.380 . S
C325 H334 0.930 . S
C326 C324 1.387 . S
C326 C325 1.380 . S
C326 H335 0.930 . S
C327 O304 1.254 . S
C327 O305 1.268 . S
H328 C313 0.930 . S
H329 C314 0.930 . S
H330 C316 0.930 . S
H331 C317 0.930 . S
H332 C322 0.930 . S
H333 C323 0.930 . S
H334 C325 0.930 . S
H335 C326 0.930 . S
Gd336 N367 2.661 . S
Gd336 N373 2.601 . S
Gd336 O380 2.545 . S
Gd336 O381 2.606 . S
Gd336 O383 2.429 . S
Gd336 O384 2.545 . S
Gd336 O385 2.412 . S
Gd336 O387 2.362 . S
Gd336 O388 2.324 . S
Gd336 C395 2.828 . S
Gd337 N346 2.661 . S
Gd337 N350 2.601 . S
Gd337 O381 2.362 . S
Gd337 O382 2.324 . S
Gd337 O386 2.545 . S
Gd337 O387 2.606 . S
Gd337 O389 2.429 . S
Gd337 O390 2.545 . S
Gd337 O391 2.412 . S
Gd337 C404 2.828 . S
C338 C341 1.417 . S
C338 C343 1.431 . S
C338 C344 1.412 . S
C339 C342 1.437 . S
C339 C343 1.317 . S
C339 H358 0.929 . S
C340 C341 1.426 . S
C340 C342 1.413 . S
C340 N350 1.359 . S
C341 C338 1.417 . S
C341 C340 1.426 . S
C341 N346 1.350 . S
C342 C339 1.437 . S
C342 C340 1.413 . S
C342 C352 1.391 . S
C343 C338 1.431 . S
C343 C339 1.317 . S
C343 H354 0.930 1_655 S
C344 C338 1.412 . S
C344 C345 1.355 . S
C344 H356 0.930 . S
C345 C344 1.355 . S
C345 C347 1.402 . S
C345 H357 0.930 . S
N346 Gd337 2.661 . S
N346 C341 1.350 . S
N346 C347 1.307 . S
C347 C345 1.402 . S
C347 N346 1.307 . S
C347 H348 0.930 . S
H348 C347 0.930 . S
C349 N350 1.334 . S
C349 C351 1.394 . S
C349 H353 0.930 . S
N350 Gd337 2.601 . S
N350 C340 1.359 . S
N350 C349 1.334 . S
C351 C349 1.394 . S
C351 C352 1.359 . S
C351 H363 0.930 . S
C352 C342 1.391 . S
C352 C351 1.359 . S
C352 H364 0.929 . S
H353 C349 0.930 . S
H354 C343 0.930 1_455 S
H355 C372 0.930 . S
H356 C344 0.930 . S
H357 C345 0.930 . S
H358 C339 0.929 . S
H359 C377 0.930 . S
H360 C368 0.930 . S
H361 C369 0.930 . S
H362 C393 0.929 . S
H363 C351 0.930 . S
H364 C352 0.929 . S
H365 C394 0.930 . S
H366 C375 0.930 . S
N367 Gd336 2.661 . S
N367 C371 1.350 . S
N367 C372 1.307 . S
C368 H360 0.930 . S
C368 C369 1.355 . S
C368 C370 1.412 . S
C369 H361 0.930 . S
C369 C368 1.355 . S
C369 C372 1.402 . S
C370 C368 1.412 . S
C370 C371 1.417 . S
C370 C394 1.431 . S
C371 N367 1.350 . S
C371 C370 1.417 . S
C371 C374 1.426 . S
C372 H355 0.930 . S
C372 N367 1.307 . S
C372 C369 1.402 . S
N373 Gd336 2.601 . S
N373 C374 1.359 . S
N373 C377 1.334 . S
C374 C371 1.426 . S
C374 N373 1.359 . S
C374 C378 1.413 . S
C375 H366 0.930 . S
C375 C376 1.359 . S
C375 C377 1.394 . S
C376 C375 1.359 . S
C376 C378 1.391 . S
C376 H379 0.929 . S
C377 H359 0.930 . S
C377 N373 1.334 . S
C377 C375 1.394 . S
C378 C374 1.413 . S
C378 C376 1.391 . S
C378 C393 1.437 . S
H379 C376 0.929 . S
O380 Gd336 2.545 . S
O380 C395 1.258 . S
O381 Gd336 2.606 . S
O381 Gd337 2.362 . S
O381 C392 1.284 . S
O382 Gd337 2.324 . S
O382 C402 1.254 . S
O383 Gd336 2.429 . S
O383 C402 1.268 . S
O384 Gd336 2.545 . S
O384 C392 1.250 . S
O385 Gd336 2.412 . S
O385 C395 1.252 . S
O386 Gd337 2.545 . S
O386 C404 1.258 . S
O387 Gd336 2.362 . S
O387 Gd337 2.606 . S
O387 C403 1.284 . S
O388 Gd336 2.324 . S
O388 C411 1.254 . S
O389 Gd337 2.429 . S
O389 C411 1.268 . S
O390 Gd337 2.545 . S
O390 C403 1.250 . S
O391 Gd337 2.412 . S
O391 C404 1.252 . S
C392 O381 1.284 . S
C392 O384 1.250 . S
C393 H362 0.929 . S
C393 C378 1.437 . S
C393 C394 1.317 . S
C394 H365 0.930 . S
C394 C370 1.431 . S
C394 C393 1.317 . S
C395 Gd336 2.828 . S
C395 O380 1.258 . S
C395 O385 1.252 . S
C395 C396 1.497 . S
C396 C395 1.497 . S
C396 C397 1.395 . S
C396 C398 1.380 . S
C397 C396 1.395 . S
C397 C400 1.398 . S
C397 H412 0.930 . S
C398 C396 1.380 . S
C398 C399 1.391 . S
C398 H413 0.930 . S
C399 C398 1.391 . S
C399 C401 1.387 . S
C400 C397 1.398 . S
C400 C401 1.380 . S
C400 H414 0.930 . S
C401 C399 1.387 . S
C401 C400 1.380 . S
C401 H415 0.930 . S
C402 O382 1.254 . S
C402 O383 1.268 . S
C403 O387 1.284 . S
C403 O390 1.250 . S
C404 Gd337 2.828 . S
C404 O386 1.258 . S
C404 O391 1.252 . S
C404 C405 1.497 . S
C405 C404 1.497 . S
C405 C406 1.395 . S
C405 C407 1.380 . S
C406 C405 1.395 . S
C406 C409 1.398 . S
C406 H416 0.930 . S
C407 C405 1.380 . S
C407 C408 1.391 . S
C407 H417 0.930 . S
C408 C407 1.391 . S
C408 C410 1.387 . S
C409 C406 1.398 . S
C409 C410 1.380 . S
C409 H418 0.930 . S
C410 C408 1.387 . S
C410 C409 1.380 . S
C410 H419 0.930 . S
C411 O388 1.254 . S
C411 O389 1.268 . S
H412 C397 0.930 . S
H413 C398 0.930 . S
H414 C400 0.930 . S
H415 C401 0.930 . S
H416 C406 0.930 . S
H417 C407 0.930 . S
H418 C409 0.930 . S
H419 C410 0.930 . S
Gd420 N451 2.661 . S
Gd420 N457 2.601 . S
Gd420 O464 2.545 . S
Gd420 O465 2.606 . S
Gd420 O467 2.429 . S
Gd420 O468 2.545 . S
Gd420 O469 2.412 . S
Gd420 O471 2.362 . S
Gd420 O472 2.324 . S
Gd420 C479 2.828 . S
Gd421 N430 2.661 . S
Gd421 N434 2.601 . S
Gd421 O465 2.362 . S
Gd421 O466 2.324 . S
Gd421 O470 2.545 . S
Gd421 O471 2.606 . S
Gd421 O473 2.429 . S
Gd421 O474 2.545 . S
Gd421 O475 2.412 . S
Gd421 C488 2.828 . S
C422 C425 1.417 . S
C422 C427 1.431 . S
C422 C428 1.412 . S
C423 C426 1.437 . S
C423 C427 1.317 . S
C423 H442 0.929 . S
C424 C425 1.426 . S
C424 C426 1.413 . S
C424 N434 1.359 . S
C425 C422 1.417 . S
C425 C424 1.426 . S
C425 N430 1.350 . S
C426 C423 1.437 . S
C426 C424 1.413 . S
C426 C436 1.391 . S
C427 C422 1.431 . S
C427 C423 1.317 . S
C427 H438 0.930 . S
C428 C422 1.412 . S
C428 C429 1.355 . S
C428 H440 0.930 . S
C429 C428 1.355 . S
C429 C431 1.402 . S
C429 H441 0.930 . S
N430 Gd421 2.661 . S
N430 C425 1.350 . S
N430 C431 1.307 . S
C431 C429 1.402 . S
C431 N430 1.307 . S
C431 H432 0.930 . S
H432 C431 0.930 . S
C433 N434 1.334 . S
C433 C435 1.394 . S
C433 H437 0.930 . S
N434 Gd421 2.601 . S
N434 C424 1.359 . S
N434 C433 1.334 . S
C435 C433 1.394 . S
C435 C436 1.359 . S
C435 H447 0.930 . S
C436 C426 1.391 . S
C436 C435 1.359 . S
C436 H448 0.929 . S
H437 C433 0.930 . S
H438 C427 0.930 . S
H439 C456 0.930 . S
H440 C428 0.930 . S
H441 C429 0.930 . S
H442 C423 0.929 . S
H443 C461 0.930 . S
H444 C452 0.930 . S
H445 C453 0.930 . S
H446 C477 0.929 . S
H447 C435 0.930 . S
H448 C436 0.929 . S
H449 C478 0.930 1_565 S
H450 C459 0.930 . S
N451 Gd420 2.661 . S
N451 C455 1.350 . S
N451 C456 1.307 . S
C452 H444 0.930 . S
C452 C453 1.355 . S
C452 C454 1.412 . S
C453 H445 0.930 . S
C453 C452 1.355 . S
C453 C456 1.402 . S
C454 C452 1.412 . S
C454 C455 1.417 . S
C454 C478 1.431 . S
C455 N451 1.350 . S
C455 C454 1.417 . S
C455 C458 1.426 . S
C456 H439 0.930 . S
C456 N451 1.307 . S
C456 C453 1.402 . S
N457 Gd420 2.601 . S
N457 C458 1.359 . S
N457 C461 1.334 . S
C458 C455 1.426 . S
C458 N457 1.359 . S
C458 C462 1.413 . S
C459 H450 0.930 . S
C459 C460 1.359 . S
C459 C461 1.394 . S
C460 C459 1.359 . S
C460 C462 1.391 . S
C460 H463 0.929 . S
C461 H443 0.930 . S
C461 N457 1.334 . S
C461 C459 1.394 . S
C462 C458 1.413 . S
C462 C460 1.391 . S
C462 C477 1.437 . S
H463 C460 0.929 . S
O464 Gd420 2.545 . S
O464 C479 1.258 . S
O465 Gd420 2.606 . S
O465 Gd421 2.362 . S
O465 C476 1.284 . S
O466 Gd421 2.324 . S
O466 C486 1.254 . S
O467 Gd420 2.429 . S
O467 C486 1.268 . S
O468 Gd420 2.545 . S
O468 C476 1.250 . S
O469 Gd420 2.412 . S
O469 C479 1.252 . S
O470 Gd421 2.545 . S
O470 C488 1.258 . S
O471 Gd420 2.362 . S
O471 Gd421 2.606 . S
O471 C487 1.284 . S
O472 Gd420 2.324 . S
O472 C495 1.254 . S
O473 Gd421 2.429 . S
O473 C495 1.268 . S
O474 Gd421 2.545 . S
O474 C487 1.250 . S
O475 Gd421 2.412 . S
O475 C488 1.252 . S
C476 O465 1.284 . S
C476 O468 1.250 . S
C477 H446 0.929 . S
C477 C462 1.437 . S
C477 C478 1.317 . S
C478 H449 0.930 1_545 S
C478 C454 1.431 . S
C478 C477 1.317 . S
C479 Gd420 2.828 . S
C479 O464 1.258 . S
C479 O469 1.252 . S
C479 C480 1.497 . S
C480 C479 1.497 . S
C480 C481 1.395 . S
C480 C482 1.380 . S
C481 C480 1.395 . S
C481 C484 1.398 . S
C481 H496 0.930 . S
C482 C480 1.380 . S
C482 C483 1.391 . S
C482 H497 0.930 . S
C483 C482 1.391 . S
C483 C485 1.387 . S
C484 C481 1.398 . S
C484 C485 1.380 . S
C484 H498 0.930 . S
C485 C483 1.387 . S
C485 C484 1.380 . S
C485 H499 0.930 . S
C486 O466 1.254 . S
C486 O467 1.268 . S
C487 O471 1.284 . S
C487 O474 1.250 . S
C488 Gd421 2.828 . S
C488 O470 1.258 . S
C488 O475 1.252 . S
C488 C489 1.497 . S
C489 C488 1.497 . S
C489 C490 1.395 . S
C489 C491 1.380 . S
C490 C489 1.395 . S
C490 C493 1.398 1_655 S
C490 H500 0.930 . S
C491 C489 1.380 . S
C491 C492 1.391 1_655 S
C491 H501 0.930 . S
C492 C491 1.391 1_455 S
C492 C494 1.387 . S
C493 C490 1.398 1_455 S
C493 C494 1.380 . S
C493 H502 0.930 . S
C494 C492 1.387 . S
C494 C493 1.380 . S
C494 H503 0.930 . S
C495 O472 1.254 . S
C495 O473 1.268 . S
H496 C481 0.930 . S
H497 C482 0.930 . S
H498 C484 0.930 . S
H499 C485 0.930 . S
H500 C490 0.930 . S
H501 C491 0.930 . S
H502 C493 0.930 . S
H503 C494 0.930 . S
Gd504 N535 2.661 . S
Gd504 N541 2.601 . S
Gd504 O548 2.545 . S
Gd504 O549 2.606 . S
Gd504 O551 2.429 . S
Gd504 O552 2.545 . S
Gd504 O553 2.412 . S
Gd504 O555 2.362 . S
Gd504 O556 2.324 . S
Gd504 C563 2.828 . S
Gd505 N514 2.661 . S
Gd505 N518 2.601 . S
Gd505 O549 2.362 . S
Gd505 O550 2.324 . S
Gd505 O554 2.545 . S
Gd505 O555 2.606 . S
Gd505 O557 2.429 . S
Gd505 O558 2.545 . S
Gd505 O559 2.412 . S
Gd505 C572 2.828 . S
C506 C509 1.417 . S
C506 C511 1.431 . S
C506 C512 1.412 . S
C507 C510 1.437 . S
C507 C511 1.317 . S
C507 H526 0.929 . S
C508 C509 1.426 . S
C508 C510 1.413 . S
C508 N518 1.359 . S
C509 C506 1.417 . S
C509 C508 1.426 . S
C509 N514 1.350 . S
C510 C507 1.437 . S
C510 C508 1.413 . S
C510 C520 1.391 . S
C511 C506 1.431 . S
C511 C507 1.317 . S
C511 H522 0.930 . S
C512 C506 1.412 . S
C512 C513 1.355 . S
C512 H524 0.930 . S
C513 C512 1.355 . S
C513 C515 1.402 . S
C513 H525 0.930 . S
N514 Gd505 2.661 . S
N514 C509 1.350 . S
N514 C515 1.307 . S
C515 C513 1.402 . S
C515 N514 1.307 . S
C515 H516 0.930 . S
H516 C515 0.930 . S
C517 N518 1.334 . S
C517 C519 1.394 . S
C517 H521 0.930 . S
N518 Gd505 2.601 . S
N518 C508 1.359 . S
N518 C517 1.334 . S
C519 C517 1.394 . S
C519 C520 1.359 . S
C519 H531 0.930 . S
C520 C510 1.391 . S
C520 C519 1.359 . S
C520 H532 0.929 . S
H521 C517 0.930 . S
H522 C511 0.930 . S
H523 C540 0.930 . S
H524 C512 0.930 . S
H525 C513 0.930 . S
H526 C507 0.929 . S
H527 C545 0.930 . S
H528 C536 0.930 . S
H529 C537 0.930 . S
H530 C561 0.929 . S
H531 C519 0.930 . S
H532 C520 0.929 . S
H533 C562 0.930 . S
H534 C543 0.930 . S
N535 Gd504 2.661 . S
N535 C539 1.350 . S
N535 C540 1.307 . S
C536 H528 0.930 . S
C536 C537 1.355 . S
C536 C538 1.412 . S
C537 H529 0.930 . S
C537 C536 1.355 . S
C537 C540 1.402 . S
C538 C536 1.412 . S
C538 C539 1.417 . S
C538 C562 1.431 . S
C539 N535 1.350 . S
C539 C538 1.417 . S
C539 C542 1.426 . S
C540 H523 0.930 . S
C540 N535 1.307 . S
C540 C537 1.402 . S
N541 Gd504 2.601 . S
N541 C542 1.359 . S
N541 C545 1.334 . S
C542 C539 1.426 . S
C542 N541 1.359 . S
C542 C546 1.413 . S
C543 H534 0.930 . S
C543 C544 1.359 . S
C543 C545 1.394 . S
C544 C543 1.359 . S
C544 C546 1.391 . S
C544 H547 0.929 . S
C545 H527 0.930 . S
C545 N541 1.334 . S
C545 C543 1.394 . S
C546 C542 1.413 . S
C546 C544 1.391 . S
C546 C561 1.437 . S
H547 C544 0.929 . S
O548 Gd504 2.545 . S
O548 C563 1.258 . S
O549 Gd504 2.606 . S
O549 Gd505 2.362 . S
O549 C560 1.284 . S
O550 Gd505 2.324 . S
O550 C570 1.254 . S
O551 Gd504 2.429 . S
O551 C570 1.268 . S
O552 Gd504 2.545 . S
O552 C560 1.250 . S
O553 Gd504 2.412 . S
O553 C563 1.252 . S
O554 Gd505 2.545 . S
O554 C572 1.258 . S
O555 Gd504 2.362 . S
O555 Gd505 2.606 . S
O555 C571 1.284 . S
O556 Gd504 2.324 . S
O556 C579 1.254 . S
O557 Gd505 2.429 . S
O557 C579 1.268 . S
O558 Gd505 2.545 . S
O558 C571 1.250 . S
O559 Gd505 2.412 . S
O559 C572 1.252 . S
C560 O549 1.284 . S
C560 O552 1.250 . S
C561 H530 0.929 . S
C561 C546 1.437 . S
C561 C562 1.317 . S
C562 H533 0.930 . S
C562 C538 1.431 . S
C562 C561 1.317 . S
C563 Gd504 2.828 . S
C563 O548 1.258 . S
C563 O553 1.252 . S
C563 C564 1.497 . S
C564 C563 1.497 . S
C564 C565 1.395 . S
C564 C566 1.380 . S
C565 C564 1.395 . S
C565 C568 1.398 . S
C565 H580 0.930 . S
C566 C564 1.380 . S
C566 C567 1.391 . S
C566 H581 0.930 . S
C567 C566 1.391 . S
C567 C569 1.387 . S
C568 C565 1.398 . S
C568 C569 1.380 . S
C568 H582 0.930 . S
C569 C567 1.387 . S
C569 C568 1.380 . S
C569 H583 0.930 . S
C570 O550 1.254 . S
C570 O551 1.268 . S
C571 O555 1.284 . S
C571 O558 1.250 . S
C572 Gd505 2.828 . S
C572 O554 1.258 . S
C572 O559 1.252 . S
C572 C573 1.497 . S
C573 C572 1.497 . S
C573 C574 1.395 . S
C573 C575 1.380 . S
C574 C573 1.395 . S
C574 C577 1.398 1_455 S
C574 H584 0.930 . S
C575 C573 1.380 . S
C575 C576 1.391 1_455 S
C575 H585 0.930 . S
C576 C575 1.391 1_655 S
C576 C578 1.387 . S
C577 C574 1.398 1_655 S
C577 C578 1.380 . S
C577 H586 0.930 . S
C578 C576 1.387 . S
C578 C577 1.380 . S
C578 H587 0.930 . S
C579 O556 1.254 . S
C579 O557 1.268 . S
H580 C565 0.930 . S
H581 C566 0.930 . S
H582 C568 0.930 . S
H583 C569 0.930 . S
H584 C574 0.930 . S
H585 C575 0.930 . S
H586 C577 0.930 . S
H587 C578 0.930 . S
Gd588 N619 2.661 . S
Gd588 N625 2.601 . S
Gd588 O632 2.545 . S
Gd588 O633 2.606 . S
Gd588 O635 2.429 . S
Gd588 O636 2.545 . S
Gd588 O637 2.412 . S
Gd588 O639 2.362 . S
Gd588 O640 2.324 . S
Gd588 C647 2.828 . S
Gd589 N598 2.661 . S
Gd589 N602 2.601 . S
Gd589 O633 2.362 . S
Gd589 O634 2.324 . S
Gd589 O638 2.545 . S
Gd589 O639 2.606 . S
Gd589 O641 2.429 . S
Gd589 O642 2.545 . S
Gd589 O643 2.412 . S
Gd589 C656 2.828 . S
C590 C593 1.417 . S
C590 C595 1.431 . S
C590 C596 1.412 . S
C591 C594 1.437 . S
C591 C595 1.317 . S
C591 H610 0.929 . S
C592 C593 1.426 . S
C592 C594 1.413 . S
C592 N602 1.359 . S
C593 C590 1.417 . S
C593 C592 1.426 . S
C593 N598 1.350 . S
C594 C591 1.437 . S
C594 C592 1.413 . S
C594 C604 1.391 . S
C595 C590 1.431 . S
C595 C591 1.317 . S
C595 H606 0.930 1_455 S
C596 C590 1.412 . S
C596 C597 1.355 . S
C596 H608 0.930 . S
C597 C596 1.355 . S
C597 C599 1.402 . S
C597 H609 0.930 . S
N598 Gd589 2.661 . S
N598 C593 1.350 . S
N598 C599 1.307 . S
C599 C597 1.402 . S
C599 N598 1.307 . S
C599 H600 0.930 . S
H600 C599 0.930 . S
C601 N602 1.334 . S
C601 C603 1.394 . S
C601 H605 0.930 . S
N602 Gd589 2.601 . S
N602 C592 1.359 . S
N602 C601 1.334 . S
C603 C601 1.394 . S
C603 C604 1.359 . S
C603 H615 0.930 . S
C604 C594 1.391 . S
C604 C603 1.359 . S
C604 H616 0.929 . S
H605 C601 0.930 . S
H606 C595 0.930 1_655 S
H607 C624 0.930 . S
H608 C596 0.930 . S
H609 C597 0.930 . S
H610 C591 0.929 . S
H611 C629 0.930 . S
H612 C620 0.930 . S
H613 C621 0.930 . S
H614 C645 0.929 . S
H615 C603 0.930 . S
H616 C604 0.929 . S
H617 C646 0.930 . S
H618 C627 0.930 . S
N619 Gd588 2.661 . S
N619 C623 1.350 . S
N619 C624 1.307 . S
C620 H612 0.930 . S
C620 C621 1.355 . S
C620 C622 1.412 . S
C621 H613 0.930 . S
C621 C620 1.355 . S
C621 C624 1.402 . S
C622 C620 1.412 . S
C622 C623 1.417 . S
C622 C646 1.431 . S
C623 N619 1.350 . S
C623 C622 1.417 . S
C623 C626 1.426 . S
C624 H607 0.930 . S
C624 N619 1.307 . S
C624 C621 1.402 . S
N625 Gd588 2.601 . S
N625 C626 1.359 . S
N625 C629 1.334 . S
C626 C623 1.426 . S
C626 N625 1.359 . S
C626 C630 1.413 . S
C627 H618 0.930 . S
C627 C628 1.359 . S
C627 C629 1.394 . S
C628 C627 1.359 . S
C628 C630 1.391 . S
C628 H631 0.929 . S
C629 H611 0.930 . S
C629 N625 1.334 . S
C629 C627 1.394 . S
C630 C626 1.413 . S
C630 C628 1.391 . S
C630 C645 1.437 . S
H631 C628 0.929 . S
O632 Gd588 2.545 . S
O632 C647 1.258 . S
O633 Gd588 2.606 . S
O633 Gd589 2.362 . S
O633 C644 1.284 . S
O634 Gd589 2.324 . S
O634 C654 1.254 . S
O635 Gd588 2.429 . S
O635 C654 1.268 . S
O636 Gd588 2.545 . S
O636 C644 1.250 . S
O637 Gd588 2.412 . S
O637 C647 1.252 . S
O638 Gd589 2.545 . S
O638 C656 1.258 . S
O639 Gd588 2.362 . S
O639 Gd589 2.606 . S
O639 C655 1.284 . S
O640 Gd588 2.324 . S
O640 C663 1.254 . S
O641 Gd589 2.429 . S
O641 C663 1.268 . S
O642 Gd589 2.545 . S
O642 C655 1.250 . S
O643 Gd589 2.412 . S
O643 C656 1.252 . S
C644 O633 1.284 . S
C644 O636 1.250 . S
C645 H614 0.929 . S
C645 C630 1.437 . S
C645 C646 1.317 . S
C646 H617 0.930 . S
C646 C622 1.431 . S
C646 C645 1.317 . S
C647 Gd588 2.828 . S
C647 O632 1.258 . S
C647 O637 1.252 . S
C647 C648 1.497 . S
C648 C647 1.497 . S
C648 C649 1.395 . S
C648 C650 1.380 . S
C649 C648 1.395 . S
C649 C652 1.398 1_565 S
C649 H664 0.930 . S
C650 C648 1.380 . S
C650 C651 1.391 1_565 S
C650 H665 0.930 . S
C651 C650 1.391 1_545 S
C651 C653 1.387 . S
C652 C649 1.398 1_545 S
C652 C653 1.380 . S
C652 H666 0.930 . S
C653 C651 1.387 . S
C653 C652 1.380 . S
C653 H667 0.930 . S
C654 O634 1.254 . S
C654 O635 1.268 . S
C655 O639 1.284 . S
C655 O642 1.250 . S
C656 Gd589 2.828 . S
C656 O638 1.258 . S
C656 O643 1.252 . S
C656 C657 1.497 . S
C657 C656 1.497 . S
C657 C658 1.395 . S
C657 C659 1.380 . S
C658 C657 1.395 . S
C658 C661 1.398 . S
C658 H668 0.930 . S
C659 C657 1.380 . S
C659 C660 1.391 . S
C659 H669 0.930 . S
C660 C659 1.391 . S
C660 C662 1.387 . S
C661 C658 1.398 . S
C661 C662 1.380 . S
C661 H670 0.930 . S
C662 C660 1.387 . S
C662 C661 1.380 . S
C662 H671 0.930 . S
C663 O640 1.254 . S
C663 O641 1.268 . S
H664 C649 0.930 . S
H665 C650 0.930 . S
H666 C652 0.930 . S
H667 C653 0.930 . S
H668 C658 0.930 . S
H669 C659 0.930 . S
H670 C661 0.930 . S
H671 C662 0.930 . S
Gd672 N703 2.661 . S
Gd672 N709 2.601 . S
Gd672 O716 2.545 . S
Gd672 O717 2.606 . S
Gd672 O719 2.429 . S
Gd672 O720 2.545 . S
Gd672 O721 2.412 . S
Gd672 O723 2.362 . S
Gd672 O724 2.324 . S
Gd672 C731 2.828 . S
Gd673 N682 2.661 . S
Gd673 N686 2.601 . S
Gd673 O717 2.362 . S
Gd673 O718 2.324 . S
Gd673 O722 2.545 . S
Gd673 O723 2.606 . S
Gd673 O725 2.429 . S
Gd673 O726 2.545 . S
Gd673 O727 2.412 . S
Gd673 C740 2.828 . S
C674 C677 1.417 . S
C674 C679 1.431 . S
C674 C680 1.412 . S
C675 C678 1.437 . S
C675 C679 1.317 . S
C675 H694 0.929 . S
C676 C677 1.426 . S
C676 C678 1.413 . S
C676 N686 1.359 . S
C677 C674 1.417 . S
C677 C676 1.426 . S
C677 N682 1.350 . S
C678 C675 1.437 . S
C678 C676 1.413 . S
C678 C688 1.391 . S
C679 C674 1.431 . S
C679 C675 1.317 . S
C679 H690 0.930 . S
C680 C674 1.412 . S
C680 C681 1.355 . S
C680 H692 0.930 . S
C681 C680 1.355 . S
C681 C683 1.402 . S
C681 H693 0.930 . S
N682 Gd673 2.661 . S
N682 C677 1.350 . S
N682 C683 1.307 . S
C683 C681 1.402 . S
C683 N682 1.307 . S
C683 H684 0.930 . S
H684 C683 0.930 . S
C685 N686 1.334 . S
C685 C687 1.394 . S
C685 H689 0.930 . S
N686 Gd673 2.601 . S
N686 C676 1.359 . S
N686 C685 1.334 . S
C687 C685 1.394 . S
C687 C688 1.359 . S
C687 H699 0.930 . S
C688 C678 1.391 . S
C688 C687 1.359 . S
C688 H700 0.929 . S
H689 C685 0.930 . S
H690 C679 0.930 . S
H691 C708 0.930 . S
H692 C680 0.930 . S
H693 C681 0.930 . S
H694 C675 0.929 . S
H695 C713 0.930 . S
H696 C704 0.930 . S
H697 C705 0.930 . S
H698 C729 0.929 . S
H699 C687 0.930 . S
H700 C688 0.929 . S
H701 C730 0.930 1_545 S
H702 C711 0.930 . S
N703 Gd672 2.661 . S
N703 C707 1.350 . S
N703 C708 1.307 . S
C704 H696 0.930 . S
C704 C705 1.355 . S
C704 C706 1.412 . S
C705 H697 0.930 . S
C705 C704 1.355 . S
C705 C708 1.402 . S
C706 C704 1.412 . S
C706 C707 1.417 . S
C706 C730 1.431 . S
C707 N703 1.350 . S
C707 C706 1.417 . S
C707 C710 1.426 . S
C708 H691 0.930 . S
C708 N703 1.307 . S
C708 C705 1.402 . S
N709 Gd672 2.601 . S
N709 C710 1.359 . S
N709 C713 1.334 . S
C710 C707 1.426 . S
C710 N709 1.359 . S
C710 C714 1.413 . S
C711 H702 0.930 . S
C711 C712 1.359 . S
C711 C713 1.394 . S
C712 C711 1.359 . S
C712 C714 1.391 . S
C712 H715 0.929 . S
C713 H695 0.930 . S
C713 N709 1.334 . S
C713 C711 1.394 . S
C714 C710 1.413 . S
C714 C712 1.391 . S
C714 C729 1.437 . S
H715 C712 0.929 . S
O716 Gd672 2.545 . S
O716 C731 1.258 . S
O717 Gd672 2.606 . S
O717 Gd673 2.362 . S
O717 C728 1.284 . S
O718 Gd673 2.324 . S
O718 C738 1.254 . S
O719 Gd672 2.429 . S
O719 C738 1.268 . S
O720 Gd672 2.545 . S
O720 C728 1.250 . S
O721 Gd672 2.412 . S
O721 C731 1.252 . S
O722 Gd673 2.545 . S
O722 C740 1.258 . S
O723 Gd672 2.362 . S
O723 Gd673 2.606 . S
O723 C739 1.284 . S
O724 Gd672 2.324 . S
O724 C747 1.254 . S
O725 Gd673 2.429 . S
O725 C747 1.268 . S
O726 Gd673 2.545 . S
O726 C739 1.250 . S
O727 Gd673 2.412 . S
O727 C740 1.252 . S
C728 O717 1.284 . S
C728 O720 1.250 . S
C729 H698 0.929 . S
C729 C714 1.437 . S
C729 C730 1.317 . S
C730 H701 0.930 1_565 S
C730 C706 1.431 . S
C730 C729 1.317 . S
C731 Gd672 2.828 . S
C731 O716 1.258 . S
C731 O721 1.252 . S
C731 C732 1.497 . S
C732 C731 1.497 . S
C732 C733 1.395 . S
C732 C734 1.380 . S
C733 C732 1.395 . S
C733 C736 1.398 . S
C733 H748 0.930 . S
C734 C732 1.380 . S
C734 C735 1.391 . S
C734 H749 0.930 . S
C735 C734 1.391 . S
C735 C737 1.387 . S
C736 C733 1.398 . S
C736 C737 1.380 . S
C736 H750 0.930 . S
C737 C735 1.387 . S
C737 C736 1.380 . S
C737 H751 0.930 . S
C738 O718 1.254 . S
C738 O719 1.268 . S
C739 O723 1.284 . S
C739 O726 1.250 . S
C740 Gd673 2.828 . S
C740 O722 1.258 . S
C740 O727 1.252 . S
C740 C741 1.497 . S
C741 C740 1.497 . S
C741 C742 1.395 . S
C741 C743 1.380 . S
C742 C741 1.395 . S
C742 C745 1.398 . S
C742 H752 0.930 . S
C743 C741 1.380 . S
C743 C744 1.391 . S
C743 H753 0.930 . S
C744 C743 1.391 . S
C744 C746 1.387 . S
C745 C742 1.398 . S
C745 C746 1.380 . S
C745 H754 0.930 . S
C746 C744 1.387 . S
C746 C745 1.380 . S
C746 H755 0.930 . S
C747 O724 1.254 . S
C747 O725 1.268 . S
H748 C733 0.930 . S
H749 C734 0.930 . S
H750 C736 0.930 . S
H751 C737 0.930 . S
H752 C742 0.930 . S
H753 C743 0.930 . S
H754 C745 0.930 . S
H755 C746 0.930 . S
Gd756 N787 2.661 . S
Gd756 N793 2.601 . S
Gd756 O800 2.545 . S
Gd756 O801 2.606 . S
Gd756 O803 2.429 . S
Gd756 O804 2.545 . S
Gd756 O805 2.412 . S
Gd756 O807 2.362 . S
Gd756 O808 2.324 . S
Gd756 C815 2.828 . S
Gd757 N766 2.661 . S
Gd757 N770 2.601 . S
Gd757 O801 2.362 . S
Gd757 O802 2.324 . S
Gd757 O806 2.545 . S
Gd757 O807 2.606 . S
Gd757 O809 2.429 . S
Gd757 O810 2.545 . S
Gd757 O811 2.412 . S
Gd757 C824 2.828 . S
C758 C761 1.417 . S
C758 C763 1.431 . S
C758 C764 1.412 . S
C759 C762 1.437 . S
C759 C763 1.317 . S
C759 H778 0.929 . S
C760 C761 1.426 . S
C760 C762 1.413 . S
C760 N770 1.359 . S
C761 C758 1.417 . S
C761 C760 1.426 . S
C761 N766 1.350 . S
C762 C759 1.437 . S
C762 C760 1.413 . S
C762 C772 1.391 . S
C763 C758 1.431 . S
C763 C759 1.317 . S
C763 H774 0.930 . S
C764 C758 1.412 . S
C764 C765 1.355 . S
C764 H776 0.930 . S
C765 C764 1.355 . S
C765 C767 1.402 . S
C765 H777 0.930 . S
N766 Gd757 2.661 . S
N766 C761 1.350 . S
N766 C767 1.307 . S
C767 C765 1.402 . S
C767 N766 1.307 . S
C767 H768 0.930 . S
H768 C767 0.930 . S
C769 N770 1.334 . S
C769 C771 1.394 . S
C769 H773 0.930 . S
N770 Gd757 2.601 . S
N770 C760 1.359 . S
N770 C769 1.334 . S
C771 C769 1.394 . S
C771 C772 1.359 . S
C771 H783 0.930 . S
C772 C762 1.391 . S
C772 C771 1.359 . S
C772 H784 0.929 . S
H773 C769 0.930 . S
H774 C763 0.930 . S
H775 C792 0.930 . S
H776 C764 0.930 . S
H777 C765 0.930 . S
H778 C759 0.929 . S
H779 C797 0.930 . S
H780 C788 0.930 . S
H781 C789 0.930 . S
H782 C813 0.929 . S
H783 C771 0.930 . S
H784 C772 0.929 . S
H785 C814 0.930 . S
H786 C795 0.930 . S
N787 Gd756 2.661 . S
N787 C791 1.350 . S
N787 C792 1.307 . S
C788 H780 0.930 . S
C788 C789 1.355 . S
C788 C790 1.412 . S
C789 H781 0.930 . S
C789 C788 1.355 . S
C789 C792 1.402 . S
C790 C788 1.412 . S
C790 C791 1.417 . S
C790 C814 1.431 . S
C791 N787 1.350 . S
C791 C790 1.417 . S
C791 C794 1.426 . S
C792 H775 0.930 . S
C792 N787 1.307 . S
C792 C789 1.402 . S
N793 Gd756 2.601 . S
N793 C794 1.359 . S
N793 C797 1.334 . S
C794 C791 1.426 . S
C794 N793 1.359 . S
C794 C798 1.413 . S
C795 H786 0.930 . S
C795 C796 1.359 . S
C795 C797 1.394 . S
C796 C795 1.359 . S
C796 C798 1.391 . S
C796 H799 0.929 . S
C797 H779 0.930 . S
C797 N793 1.334 . S
C797 C795 1.394 . S
C798 C794 1.413 . S
C798 C796 1.391 . S
C798 C813 1.437 . S
H799 C796 0.929 . S
O800 Gd756 2.545 . S
O800 C815 1.258 . S
O801 Gd756 2.606 . S
O801 Gd757 2.362 . S
O801 C812 1.284 . S
O802 Gd757 2.324 . S
O802 C822 1.254 . S
O803 Gd756 2.429 . S
O803 C822 1.268 . S
O804 Gd756 2.545 . S
O804 C812 1.250 . S
O805 Gd756 2.412 . S
O805 C815 1.252 . S
O806 Gd757 2.545 . S
O806 C824 1.258 . S
O807 Gd756 2.362 . S
O807 Gd757 2.606 . S
O807 C823 1.284 . S
O808 Gd756 2.324 . S
O808 C831 1.254 . S
O809 Gd757 2.429 . S
O809 C831 1.268 . S
O810 Gd757 2.545 . S
O810 C823 1.250 . S
O811 Gd757 2.412 . S
O811 C824 1.252 . S
C812 O801 1.284 . S
C812 O804 1.250 . S
C813 H782 0.929 . S
C813 C798 1.437 . S
C813 C814 1.317 . S
C814 H785 0.930 . S
C814 C790 1.431 . S
C814 C813 1.317 . S
C815 Gd756 2.828 . S
C815 O800 1.258 . S
C815 O805 1.252 . S
C815 C816 1.497 . S
C816 C815 1.497 . S
C816 C817 1.395 . S
C816 C818 1.380 . S
C817 C816 1.395 . S
C817 C820 1.398 1_455 S
C817 H832 0.930 . S
C818 C816 1.380 . S
C818 C819 1.391 1_455 S
C818 H833 0.930 . S
C819 C818 1.391 1_655 S
C819 C821 1.387 . S
C820 C817 1.398 1_655 S
C820 C821 1.380 . S
C820 H834 0.930 . S
C821 C819 1.387 . S
C821 C820 1.380 . S
C821 H835 0.930 . S
C822 O802 1.254 . S
C822 O803 1.268 . S
C823 O807 1.284 . S
C823 O810 1.250 . S
C824 Gd757 2.828 . S
C824 O806 1.258 . S
C824 O811 1.252 . S
C824 C825 1.497 . S
C825 C824 1.497 . S
C825 C826 1.395 . S
C825 C827 1.380 . S
C826 C825 1.395 . S
C826 C829 1.398 . S
C826 H836 0.930 . S
C827 C825 1.380 . S
C827 C828 1.391 . S
C827 H837 0.930 . S
C828 C827 1.391 . S
C828 C830 1.387 . S
C829 C826 1.398 . S
C829 C830 1.380 . S
C829 H838 0.930 . S
C830 C828 1.387 . S
C830 C829 1.380 . S
C830 H839 0.930 . S
C831 O808 1.254 . S
C831 O809 1.268 . S
H832 C817 0.930 . S
H833 C818 0.930 . S
H834 C820 0.930 . S
H835 C821 0.930 . S
H836 C826 0.930 . S
H837 C827 0.930 . S
H838 C829 0.930 . S
H839 C830 0.930 . S
Gd840 N871 2.661 . S
Gd840 N877 2.601 . S
Gd840 O884 2.545 . S
Gd840 O885 2.606 . S
Gd840 O887 2.429 . S
Gd840 O888 2.545 . S
Gd840 O889 2.412 . S
Gd840 O891 2.362 . S
Gd840 O892 2.324 . S
Gd840 C899 2.828 . S
Gd841 N850 2.661 . S
Gd841 N854 2.601 . S
Gd841 O885 2.362 . S
Gd841 O886 2.324 . S
Gd841 O890 2.545 . S
Gd841 O891 2.606 . S
Gd841 O893 2.429 . S
Gd841 O894 2.545 . S
Gd841 O895 2.412 . S
Gd841 C908 2.828 . S
C842 C845 1.417 . S
C842 C847 1.431 . S
C842 C848 1.412 . S
C843 C846 1.437 . S
C843 C847 1.317 . S
C843 H862 0.929 . S
C844 C845 1.426 . S
C844 C846 1.413 . S
C844 N854 1.359 . S
C845 C842 1.417 . S
C845 C844 1.426 . S
C845 N850 1.350 . S
C846 C843 1.437 . S
C846 C844 1.413 . S
C846 C856 1.391 . S
C847 C842 1.431 . S
C847 C843 1.317 . S
C847 H858 0.930 . S
C848 C842 1.412 . S
C848 C849 1.355 . S
C848 H860 0.930 . S
C849 C848 1.355 . S
C849 C851 1.402 . S
C849 H861 0.930 . S
N850 Gd841 2.661 . S
N850 C845 1.350 . S
N850 C851 1.307 . S
C851 C849 1.402 . S
C851 N850 1.307 . S
C851 H852 0.930 . S
H852 C851 0.930 . S
C853 N854 1.334 . S
C853 C855 1.394 . S
C853 H857 0.930 . S
N854 Gd841 2.601 . S
N854 C844 1.359 . S
N854 C853 1.334 . S
C855 C853 1.394 . S
C855 C856 1.359 . S
C855 H867 0.930 . S
C856 C846 1.391 . S
C856 C855 1.359 . S
C856 H868 0.929 . S
H857 C853 0.930 . S
H858 C847 0.930 . S
H859 C876 0.930 . S
H860 C848 0.930 . S
H861 C849 0.930 . S
H862 C843 0.929 . S
H863 C881 0.930 . S
H864 C872 0.930 . S
H865 C873 0.930 . S
H866 C897 0.929 . S
H867 C855 0.930 . S
H868 C856 0.929 . S
H869 C898 0.930 1_655 S
H870 C879 0.930 . S
N871 Gd840 2.661 . S
N871 C875 1.350 . S
N871 C876 1.307 . S
C872 H864 0.930 . S
C872 C873 1.355 . S
C872 C874 1.412 . S
C873 H865 0.930 . S
C873 C872 1.355 . S
C873 C876 1.402 . S
C874 C872 1.412 . S
C874 C875 1.417 . S
C874 C898 1.431 . S
C875 N871 1.350 . S
C875 C874 1.417 . S
C875 C878 1.426 . S
C876 H859 0.930 . S
C876 N871 1.307 . S
C876 C873 1.402 . S
N877 Gd840 2.601 . S
N877 C878 1.359 . S
N877 C881 1.334 . S
C878 C875 1.426 . S
C878 N877 1.359 . S
C878 C882 1.413 . S
C879 H870 0.930 . S
C879 C880 1.359 . S
C879 C881 1.394 . S
C880 C879 1.359 . S
C880 C882 1.391 . S
C880 H883 0.929 . S
C881 H863 0.930 . S
C881 N877 1.334 . S
C881 C879 1.394 . S
C882 C878 1.413 . S
C882 C880 1.391 . S
C882 C897 1.437 . S
H883 C880 0.929 . S
O884 Gd840 2.545 . S
O884 C899 1.258 . S
O885 Gd840 2.606 . S
O885 Gd841 2.362 . S
O885 C896 1.284 . S
O886 Gd841 2.324 . S
O886 C906 1.254 . S
O887 Gd840 2.429 . S
O887 C906 1.268 . S
O888 Gd840 2.545 . S
O888 C896 1.250 . S
O889 Gd840 2.412 . S
O889 C899 1.252 . S
O890 Gd841 2.545 . S
O890 C908 1.258 . S
O891 Gd840 2.362 . S
O891 Gd841 2.606 . S
O891 C907 1.284 . S
O892 Gd840 2.324 . S
O892 C915 1.254 . S
O893 Gd841 2.429 . S
O893 C915 1.268 . S
O894 Gd841 2.545 . S
O894 C907 1.250 . S
O895 Gd841 2.412 . S
O895 C908 1.252 . S
C896 O885 1.284 . S
C896 O888 1.250 . S
C897 H866 0.929 . S
C897 C882 1.437 . S
C897 C898 1.317 . S
C898 H869 0.930 1_455 S
C898 C874 1.431 . S
C898 C897 1.317 . S
C899 Gd840 2.828 . S
C899 O884 1.258 . S
C899 O889 1.252 . S
C899 C900 1.497 . S
C900 C899 1.497 . S
C900 C901 1.395 . S
C900 C902 1.380 . S
C901 C900 1.395 . S
C901 C904 1.398 . S
C901 H916 0.930 . S
C902 C900 1.380 . S
C902 C903 1.391 . S
C902 H917 0.930 . S
C903 C902 1.391 . S
C903 C905 1.387 . S
C904 C901 1.398 . S
C904 C905 1.380 . S
C904 H918 0.930 . S
C905 C903 1.387 . S
C905 C904 1.380 . S
C905 H919 0.930 . S
C906 O886 1.254 . S
C906 O887 1.268 . S
C907 O891 1.284 . S
C907 O894 1.250 . S
C908 Gd841 2.828 . S
C908 O890 1.258 . S
C908 O895 1.252 . S
C908 C909 1.497 . S
C909 C908 1.497 . S
C909 C910 1.395 . S
C909 C911 1.380 . S
C910 C909 1.395 . S
C910 C913 1.398 1_565 S
C910 H920 0.930 . S
C911 C909 1.380 . S
C911 C912 1.391 1_565 S
C911 H921 0.930 . S
C912 C911 1.391 1_545 S
C912 C914 1.387 . S
C913 C910 1.398 1_545 S
C913 C914 1.380 . S
C913 H922 0.930 . S
C914 C912 1.387 . S
C914 C913 1.380 . S
C914 H923 0.930 . S
C915 O892 1.254 . S
C915 O893 1.268 . S
H916 C901 0.930 . S
H917 C902 0.930 . S
H918 C904 0.930 . S
H919 C905 0.930 . S
H920 C910 0.930 . S
H921 C911 0.930 . S
H922 C913 0.930 . S
H923 C914 0.930 . S
Gd924 N955 2.661 . S
Gd924 N961 2.601 . S
Gd924 O968 2.545 . S
Gd924 O969 2.606 . S
Gd924 O971 2.429 . S
Gd924 O972 2.545 . S
Gd924 O973 2.412 . S
Gd924 O975 2.362 . S
Gd924 O976 2.324 . S
Gd924 C983 2.828 . S
Gd925 N934 2.661 . S
Gd925 N938 2.601 . S
Gd925 O969 2.362 . S
Gd925 O970 2.324 . S
Gd925 O974 2.545 . S
Gd925 O975 2.606 . S
Gd925 O977 2.429 . S
Gd925 O978 2.545 . S
Gd925 O979 2.412 . S
Gd925 C992 2.828 . S
C926 C929 1.417 . S
C926 C931 1.431 . S
C926 C932 1.412 . S
C927 C930 1.437 . S
C927 C931 1.317 . S
C927 H946 0.929 . S
C928 C929 1.426 . S
C928 C930 1.413 . S
C928 N938 1.359 . S
C929 C926 1.417 . S
C929 C928 1.426 . S
C929 N934 1.350 . S
C930 C927 1.437 . S
C930 C928 1.413 . S
C930 C940 1.391 . S
C931 C926 1.431 . S
C931 C927 1.317 . S
C931 H942 0.930 1_565 S
C932 C926 1.412 . S
C932 C933 1.355 . S
C932 H944 0.930 . S
C933 C932 1.355 . S
C933 C935 1.402 . S
C933 H945 0.930 . S
N934 Gd925 2.661 . S
N934 C929 1.350 . S
N934 C935 1.307 . S
C935 C933 1.402 . S
C935 N934 1.307 . S
C935 H936 0.930 . S
H936 C935 0.930 . S
C937 N938 1.334 . S
C937 C939 1.394 . S
C937 H941 0.930 . S
N938 Gd925 2.601 . S
N938 C928 1.359 . S
N938 C937 1.334 . S
C939 C937 1.394 . S
C939 C940 1.359 . S
C939 H951 0.930 . S
C940 C930 1.391 . S
C940 C939 1.359 . S
C940 H952 0.929 . S
H941 C937 0.930 . S
H942 C931 0.930 1_545 S
H943 C960 0.930 . S
H944 C932 0.930 . S
H945 C933 0.930 . S
H946 C927 0.929 . S
H947 C965 0.930 . S
H948 C956 0.930 . S
H949 C957 0.930 . S
H950 C981 0.929 . S
H951 C939 0.930 . S
H952 C940 0.929 . S
H953 C982 0.930 . S
H954 C963 0.930 . S
N955 Gd924 2.661 . S
N955 C959 1.350 . S
N955 C960 1.307 . S
C956 H948 0.930 . S
C956 C957 1.355 . S
C956 C958 1.412 . S
C957 H949 0.930 . S
C957 C956 1.355 . S
C957 C960 1.402 . S
C958 C956 1.412 . S
C958 C959 1.417 . S
C958 C982 1.431 . S
C959 N955 1.350 . S
C959 C958 1.417 . S
C959 C962 1.426 . S
C960 H943 0.930 . S
C960 N955 1.307 . S
C960 C957 1.402 . S
N961 Gd924 2.601 . S
N961 C962 1.359 . S
N961 C965 1.334 . S
C962 C959 1.426 . S
C962 N961 1.359 . S
C962 C966 1.413 . S
C963 H954 0.930 . S
C963 C964 1.359 . S
C963 C965 1.394 . S
C964 C963 1.359 . S
C964 C966 1.391 . S
C964 H967 0.929 . S
C965 H947 0.930 . S
C965 N961 1.334 . S
C965 C963 1.394 . S
C966 C962 1.413 . S
C966 C964 1.391 . S
C966 C981 1.437 . S
H967 C964 0.929 . S
O968 Gd924 2.545 . S
O968 C983 1.258 . S
O969 Gd924 2.606 . S
O969 Gd925 2.362 . S
O969 C980 1.284 . S
O970 Gd925 2.324 . S
O970 C990 1.254 . S
O971 Gd924 2.429 . S
O971 C990 1.268 . S
O972 Gd924 2.545 . S
O972 C980 1.250 . S
O973 Gd924 2.412 . S
O973 C983 1.252 . S
O974 Gd925 2.545 . S
O974 C992 1.258 . S
O975 Gd924 2.362 . S
O975 Gd925 2.606 . S
O975 C991 1.284 . S
O976 Gd924 2.324 . S
O976 C999 1.254 . S
O977 Gd925 2.429 . S
O977 C999 1.268 . S
O978 Gd925 2.545 . S
O978 C991 1.250 . S
O979 Gd925 2.412 . S
O979 C992 1.252 . S
C980 O969 1.284 . S
C980 O972 1.250 . S
C981 H950 0.929 . S
C981 C966 1.437 . S
C981 C982 1.317 . S
C982 H953 0.930 . S
C982 C958 1.431 . S
C982 C981 1.317 . S
C983 Gd924 2.828 . S
C983 O968 1.258 . S
C983 O973 1.252 . S
C983 C984 1.497 . S
C984 C983 1.497 . S
C984 C985 1.395 . S
C984 C986 1.380 . S
C985 C984 1.395 . S
C985 C988 1.398 . S
C985 H1000 0.930 . S
C986 C984 1.380 . S
C986 C987 1.391 . S
C986 H1001 0.930 . S
C987 C986 1.391 . S
C987 C989 1.387 . S
C988 C985 1.398 . S
C988 C989 1.380 . S
C988 H1002 0.930 . S
C989 C987 1.387 . S
C989 C988 1.380 . S
C989 H1003 0.930 . S
C990 O970 1.254 . S
C990 O971 1.268 . S
C991 O975 1.284 . S
C991 O978 1.250 . S
C992 Gd925 2.828 . S
C992 O974 1.258 . S
C992 O979 1.252 . S
C992 C993 1.497 . S
C993 C992 1.497 . S
C993 C994 1.395 . S
C993 C995 1.380 . S
C994 C993 1.395 . S
C994 C997 1.398 . S
C994 H1004 0.930 . S
C995 C993 1.380 . S
C995 C996 1.391 . S
C995 H1005 0.930 . S
C996 C995 1.391 . S
C996 C998 1.387 . S
C997 C994 1.398 . S
C997 C998 1.380 . S
C997 H1006 0.930 . S
C998 C996 1.387 . S
C998 C997 1.380 . S
C998 H1007 0.930 . S
C999 O976 1.254 . S
C999 O977 1.268 . S
H1000 C985 0.930 . S
H1001 C986 0.930 . S
H1002 C988 0.930 . S
H1003 C989 0.930 . S
H1004 C994 0.930 . S
H1005 C995 0.930 . S
H1006 C997 0.930 . S
H1007 C998 0.930 . S
H1008 C1016 0.929 . S
H1009 C1018 0.930 . S
H1010 C1020 0.930 . S
H1011 C1023 0.929 . S
H1012 C1026 0.930 . S
H1013 C1028 0.960 . S
H1014 C1028 0.960 . S
H1015 C1028 0.960 . S
C1016 H1008 0.929 . S
C1016 C1017 1.377 . S
C1016 C1018 1.384 . S
C1017 C1016 1.377 . S
C1017 C1023 1.390 . S
C1018 H1009 0.930 . S
C1018 C1016 1.384 . S
C1018 C1019 1.372 . S
C1019 C1018 1.372 . S
C1019 C1020 1.400 . S
C1019 C1024 1.490 . S
C1020 H1010 0.930 . S
C1020 C1019 1.400 . S
C1020 C1023 1.386 . S
H1021 C1037 0.930 . S
H1022 C1038 0.931 . S
C1023 H1011 0.929 . S
C1023 C1017 1.390 . S
C1023 C1020 1.386 . S
C1024 C1019 1.490 . S
C1024 C1026 1.395 . S
C1024 C1027 1.403 . S
H1025 C1031 0.930 . S
C1026 H1012 0.930 . S
C1026 C1024 1.395 . S
C1026 C1029 1.403 . S
C1027 C1024 1.403 . S
C1027 C1028 1.524 . S
C1027 C1031 1.400 . S
C1028 H1013 0.960 . S
C1028 H1014 0.960 . S
C1028 H1015 0.960 . S
C1028 C1027 1.524 . S
C1029 C1026 1.403 . S
C1029 C1030 1.392 . S
C1029 C1033 1.495 . S
C1030 C1029 1.392 . S
C1030 C1031 1.385 . S
C1030 C1032 1.478 . S
C1031 H1025 0.930 . S
C1031 C1027 1.400 . S
C1031 C1030 1.385 . S
C1032 C1030 1.478 . S
C1032 C1034 1.381 . S
C1032 C1038 1.383 . S
C1033 C1029 1.495 . S
C1033 H1039 0.959 . S
C1033 H1040 0.961 . S
C1033 H1041 0.960 . S
C1034 C1032 1.381 . S
C1034 C1035 1.394 . S
C1034 H1042 0.930 . S
C1035 C1034 1.394 . S
C1035 C1036 1.383 . S
C1035 H1043 0.929 . S
C1036 C1035 1.383 . S
C1036 C1037 1.377 . S
C1037 H1021 0.930 . S
C1037 C1036 1.377 . S
C1037 C1038 1.379 . S
C1038 H1022 0.931 . S
C1038 C1032 1.383 . S
C1038 C1037 1.379 . S
H1039 C1033 0.959 . S
H1040 C1033 0.961 . S
H1041 C1033 0.960 . S
H1042 C1034 0.930 . S
H1043 C1035 0.929 . S
H1044 C1052 0.929 . S
H1045 C1054 0.930 . S
H1046 C1056 0.930 . S
H1047 C1059 0.929 . S
H1048 C1062 0.930 . S
H1049 C1064 0.960 . S
H1050 C1064 0.960 . S
H1051 C1064 0.960 . S
C1052 H1044 0.929 . S
C1052 C1053 1.377 . S
C1052 C1054 1.384 . S
C1053 C1052 1.377 . S
C1053 C1059 1.390 . S
C1054 H1045 0.930 . S
C1054 C1052 1.384 . S
C1054 C1055 1.372 . S
C1055 C1054 1.372 . S
C1055 C1056 1.400 . S
C1055 C1060 1.490 . S
C1056 H1046 0.930 . S
C1056 C1055 1.400 . S
C1056 C1059 1.386 . S
H1057 C1073 0.930 . S
H1058 C1074 0.931 . S
C1059 H1047 0.929 . S
C1059 C1053 1.390 . S
C1059 C1056 1.386 . S
C1060 C1055 1.490 . S
C1060 C1062 1.395 . S
C1060 C1063 1.403 . S
H1061 C1067 0.930 . S
C1062 H1048 0.930 . S
C1062 C1060 1.395 . S
C1062 C1065 1.400 1_455 S
C1063 C1060 1.403 . S
C1063 C1064 1.524 . S
C1063 C1067 1.400 . S
C1064 H1049 0.960 . S
C1064 H1050 0.960 . S
C1064 H1051 0.960 . S
C1064 C1063 1.524 . S
C1065 C1062 1.400 1_655 S
C1065 C1066 1.392 . S
C1065 C1069 1.499 . S
C1066 C1065 1.392 . S
C1066 C1067 1.385 1_655 S
C1066 C1068 1.478 . S
C1067 H1061 0.930 . S
C1067 C1063 1.400 . S
C1067 C1066 1.385 1_455 S
C1068 C1066 1.478 . S
C1068 C1070 1.381 . S
C1068 C1074 1.383 . S
C1069 C1065 1.499 . S
C1069 H1075 0.959 . S
C1069 H1076 0.961 . S
C1069 H1077 0.960 . S
C1070 C1068 1.381 . S
C1070 C1071 1.394 . S
C1070 H1078 0.930 . S
C1071 C1070 1.394 . S
C1071 C1072 1.383 . S
C1071 H1079 0.929 . S
C1072 C1071 1.383 . S
C1072 C1073 1.377 . S
C1073 H1057 0.930 . S
C1073 C1072 1.377 . S
C1073 C1074 1.379 . S
C1074 H1058 0.931 . S
C1074 C1068 1.383 . S
C1074 C1073 1.379 . S
H1075 C1069 0.959 . S
H1076 C1069 0.961 . S
H1077 C1069 0.960 . S
H1078 C1070 0.930 . S
H1079 C1071 0.929 . S
H1080 C1088 0.929 . S
H1081 C1090 0.930 . S
H1082 C1092 0.930 . S
H1083 C1095 0.929 . S
H1084 C1098 0.930 . S
H1085 C1100 0.960 . S
H1086 C1100 0.960 . S
H1087 C1100 0.960 . S
C1088 H1080 0.929 . S
C1088 C1089 1.377 . S
C1088 C1090 1.384 . S
C1089 C1088 1.377 . S
C1089 C1095 1.390 . S
C1090 H1081 0.930 . S
C1090 C1088 1.384 . S
C1090 C1091 1.372 . S
C1091 C1090 1.372 . S
C1091 C1092 1.400 . S
C1091 C1096 1.490 . S
C1092 H1082 0.930 . S
C1092 C1091 1.400 . S
C1092 C1095 1.386 . S
H1093 C1109 0.930 . S
H1094 C1110 0.931 . S
C1095 H1083 0.929 . S
C1095 C1089 1.390 . S
C1095 C1092 1.386 . S
C1096 C1091 1.490 . S
C1096 C1098 1.395 . S
C1096 C1099 1.403 1_545 S
H1097 C1103 0.930 . S
C1098 H1084 0.930 . S
C1098 C1096 1.395 . S
C1098 C1101 1.403 1_545 S
C1099 C1096 1.403 1_565 S
C1099 C1100 1.524 . S
C1099 C1103 1.400 . S
C1100 H1085 0.960 . S
C1100 H1086 0.960 . S
C1100 H1087 0.960 . S
C1100 C1099 1.524 . S
C1101 C1098 1.403 1_565 S
C1101 C1102 1.392 . S
C1101 C1105 1.495 . S
C1102 C1101 1.392 . S
C1102 C1103 1.385 . S
C1102 C1104 1.478 . S
C1103 H1097 0.930 . S
C1103 C1099 1.400 . S
C1103 C1102 1.385 . S
C1104 C1102 1.478 . S
C1104 C1106 1.381 . S
C1104 C1110 1.383 . S
C1105 C1101 1.495 . S
C1105 H1111 0.959 . S
C1105 H1112 0.961 . S
C1105 H1113 0.960 . S
C1106 C1104 1.381 . S
C1106 C1107 1.394 . S
C1106 H1114 0.930 . S
C1107 C1106 1.394 . S
C1107 C1108 1.383 . S
C1107 H1115 0.929 . S
C1108 C1107 1.383 . S
C1108 C1109 1.377 . S
C1109 H1093 0.930 . S
C1109 C1108 1.377 . S
C1109 C1110 1.379 . S
C1110 H1094 0.931 . S
C1110 C1104 1.383 . S
C1110 C1109 1.379 . S
H1111 C1105 0.959 . S
H1112 C1105 0.961 . S
H1113 C1105 0.960 . S
H1114 C1106 0.930 . S
H1115 C1107 0.929 . S
H1116 C1124 0.929 . S
H1117 C1126 0.930 . S
H1118 C1128 0.930 . S
H1119 C1131 0.929 . S
H1120 C1134 0.930 . S
H1121 C1136 0.960 . S
H1122 C1136 0.960 . S
H1123 C1136 0.960 . S
C1124 H1116 0.929 . S
C1124 C1125 1.377 . S
C1124 C1126 1.384 . S
C1125 C1124 1.377 . S
C1125 C1131 1.390 . S
C1126 H1117 0.930 . S
C1126 C1124 1.384 . S
C1126 C1127 1.372 . S
C1127 C1126 1.372 . S
C1127 C1128 1.400 . S
C1127 C1132 1.490 . S
C1128 H1118 0.930 . S
C1128 C1127 1.400 . S
C1128 C1131 1.386 . S
H1129 C1145 0.930 . S
H1130 C1146 0.931 . S
C1131 H1119 0.929 . S
C1131 C1125 1.390 . S
C1131 C1128 1.386 . S
C1132 C1127 1.490 . S
C1132 C1134 1.395 . S
C1132 C1135 1.403 . S
H1133 C1139 0.930 . S
C1134 H1120 0.930 . S
C1134 C1132 1.395 . S
C1134 C1137 1.403 . S
C1135 C1132 1.403 . S
C1135 C1136 1.524 . S
C1135 C1139 1.400 . S
C1136 H1121 0.960 . S
C1136 H1122 0.960 . S
C1136 H1123 0.960 . S
C1136 C1135 1.524 . S
C1137 C1134 1.403 . S
C1137 C1138 1.392 . S
C1137 C1141 1.495 . S
C1138 C1137 1.392 . S
C1138 C1139 1.385 . S
C1138 C1140 1.478 . S
C1139 H1133 0.930 . S
C1139 C1135 1.400 . S
C1139 C1138 1.385 . S
C1140 C1138 1.478 . S
C1140 C1142 1.381 . S
C1140 C1146 1.383 . S
C1141 C1137 1.495 . S
C1141 H1147 0.959 . S
C1141 H1148 0.961 . S
C1141 H1149 0.960 . S
C1142 C1140 1.381 . S
C1142 C1143 1.394 . S
C1142 H1150 0.930 . S
C1143 C1142 1.394 . S
C1143 C1144 1.383 . S
C1143 H1151 0.929 . S
C1144 C1143 1.383 . S
C1144 C1145 1.377 . S
C1145 H1129 0.930 . S
C1145 C1144 1.377 . S
C1145 C1146 1.379 . S
C1146 H1130 0.931 . S
C1146 C1140 1.383 . S
C1146 C1145 1.379 . S
H1147 C1141 0.959 . S
H1148 C1141 0.961 . S
H1149 C1141 0.960 . S
H1150 C1142 0.930 . S
H1151 C1143 0.929 . S
H1152 C1160 0.929 . S
H1153 C1162 0.930 . S
H1154 C1164 0.930 . S
H1155 C1167 0.929 . S
H1156 C1170 0.930 . S
H1157 C1172 0.960 . S
H1158 C1172 0.960 . S
H1159 C1172 0.960 . S
C1160 H1152 0.929 . S
C1160 C1161 1.377 . S
C1160 C1162 1.384 . S
C1161 C1160 1.377 . S
C1161 C1167 1.390 . S
C1162 H1153 0.930 . S
C1162 C1160 1.384 . S
C1162 C1163 1.372 . S
C1163 C1162 1.372 . S
C1163 C1164 1.400 . S
C1163 C1168 1.490 . S
C1164 H1154 0.930 . S
C1164 C1163 1.400 . S
C1164 C1167 1.386 . S
H1165 C1181 0.930 . S
H1166 C1182 0.931 . S
C1167 H1155 0.929 . S
C1167 C1161 1.390 . S
C1167 C1164 1.386 . S
C1168 C1163 1.490 . S
C1168 C1170 1.395 . S
C1168 C1171 1.403 . S
H1169 C1175 0.930 . S
C1170 H1156 0.930 . S
C1170 C1168 1.395 . S
C1170 C1173 1.403 . S
C1171 C1168 1.403 . S
C1171 C1172 1.524 . S
C1171 C1175 1.400 1_455 S
C1172 H1157 0.960 . S
C1172 H1158 0.960 . S
C1172 H1159 0.960 . S
C1172 C1171 1.524 . S
C1173 C1170 1.403 . S
C1173 C1174 1.392 1_455 S
C1173 C1177 1.495 . S
C1174 C1173 1.392 1_655 S
C1174 C1175 1.385 . S
C1174 C1176 1.478 . S
C1175 H1169 0.930 . S
C1175 C1171 1.400 1_655 S
C1175 C1174 1.385 . S
C1176 C1174 1.478 . S
C1176 C1178 1.381 . S
C1176 C1182 1.383 . S
C1177 C1173 1.495 . S
C1177 H1183 0.959 . S
C1177 H1184 0.961 . S
C1177 H1185 0.960 . S
C1178 C1176 1.381 . S
C1178 C1179 1.394 . S
C1178 H1186 0.930 . S
C1179 C1178 1.394 . S
C1179 C1180 1.383 . S
C1179 H1187 0.929 . S
C1180 C1179 1.383 . S
C1180 C1181 1.377 . S
C1181 H1165 0.930 . S
C1181 C1180 1.377 . S
C1181 C1182 1.379 . S
C1182 H1166 0.931 . S
C1182 C1176 1.383 . S
C1182 C1181 1.379 . S
H1183 C1177 0.959 . S
H1184 C1177 0.961 . S
H1185 C1177 0.960 . S
H1186 C1178 0.930 . S
H1187 C1179 0.929 . S
H1188 C1196 0.929 . S
H1189 C1198 0.930 . S
H1190 C1200 0.930 . S
H1191 C1203 0.929 . S
H1192 C1206 0.930 . S
H1193 C1208 0.960 . S
H1194 C1208 0.960 . S
H1195 C1208 0.960 . S
C1196 H1188 0.929 . S
C1196 C1197 1.377 . S
C1196 C1198 1.384 . S
C1197 C1196 1.377 . S
C1197 C1203 1.390 . S
C1198 H1189 0.930 . S
C1198 C1196 1.384 . S
C1198 C1199 1.372 . S
C1199 C1198 1.372 . S
C1199 C1200 1.400 . S
C1199 C1204 1.490 . S
C1200 H1190 0.930 . S
C1200 C1199 1.400 . S
C1200 C1203 1.386 . S
H1201 C1217 0.930 . S
H1202 C1218 0.931 . S
C1203 H1191 0.929 . S
C1203 C1197 1.390 . S
C1203 C1200 1.386 . S
C1204 C1199 1.490 . S
C1204 C1206 1.395 . S
C1204 C1207 1.403 . S
H1205 C1211 0.930 1_545 S
C1206 H1192 0.930 . S
C1206 C1204 1.395 . S
C1206 C1209 1.403 . S
C1207 C1204 1.403 . S
C1207 C1208 1.524 . S
C1207 C1211 1.400 . S
C1208 H1193 0.960 . S
C1208 H1194 0.960 . S
C1208 H1195 0.960 . S
C1208 C1207 1.524 . S
C1209 C1206 1.403 . S
C1209 C1210 1.392 1_565 S
C1209 C1213 1.495 . S
C1210 C1209 1.392 1_545 S
C1210 C1211 1.385 1_545 S
C1210 C1212 1.478 . S
C1211 H1205 0.930 1_565 S
C1211 C1207 1.400 . S
C1211 C1210 1.385 1_565 S
C1212 C1210 1.478 . S
C1212 C1214 1.381 . S
C1212 C1218 1.383 . S
C1213 C1209 1.495 . S
C1213 H1219 0.959 . S
C1213 H1220 0.961 . S
C1213 H1221 0.960 1_565 S
C1214 C1212 1.381 . S
C1214 C1215 1.394 . S
C1214 H1222 0.930 . S
C1215 C1214 1.394 . S
C1215 C1216 1.383 . S
C1215 H1223 0.929 . S
C1216 C1215 1.383 . S
C1216 C1217 1.377 . S
C1217 H1201 0.930 . S
C1217 C1216 1.377 . S
C1217 C1218 1.379 . S
C1218 H1202 0.931 . S
C1218 C1212 1.383 . S
C1218 C1217 1.379 . S
H1219 C1213 0.959 . S
H1220 C1213 0.961 . S
H1221 C1213 0.960 1_545 S
H1222 C1214 0.930 . S
H1223 C1215 0.929 . S
H1224 C1232 0.929 . S
H1225 C1234 0.930 . S
H1226 C1236 0.930 . S
H1227 C1239 0.929 . S
H1228 C1242 0.930 . S
H1229 C1244 0.960 . S
H1230 C1244 0.960 . S
H1231 C1244 0.960 . S
C1232 H1224 0.929 . S
C1232 C1233 1.377 . S
C1232 C1234 1.384 . S
C1233 C1232 1.377 . S
C1233 C1239 1.390 . S
C1234 H1225 0.930 . S
C1234 C1232 1.384 . S
C1234 C1235 1.372 . S
C1235 C1234 1.372 . S
C1235 C1236 1.400 . S
C1235 C1240 1.490 . S
C1236 H1226 0.930 . S
C1236 C1235 1.400 . S
C1236 C1239 1.386 . S
H1237 C1253 0.930 . S
H1238 C1254 0.931 . S
C1239 H1227 0.929 . S
C1239 C1233 1.390 . S
C1239 C1236 1.386 . S
C1240 C1235 1.490 . S
C1240 C1242 1.395 . S
C1240 C1243 1.403 . S
H1241 C1247 0.930 . S
C1242 H1228 0.930 . S
C1242 C1240 1.395 . S
C1242 C1245 1.403 . S
C1243 C1240 1.403 . S
C1243 C1244 1.524 . S
C1243 C1247 1.400 . S
C1244 H1229 0.960 . S
C1244 H1230 0.960 . S
C1244 H1231 0.960 . S
C1244 C1243 1.524 . S
C1245 C1242 1.403 . S
C1245 C1246 1.392 . S
C1245 C1249 1.495 . S
C1246 C1245 1.392 . S
C1246 C1247 1.385 . S
C1246 C1248 1.478 . S
C1247 H1241 0.930 . S
C1247 C1243 1.400 . S
C1247 C1246 1.385 . S
C1248 C1246 1.478 . S
C1248 C1250 1.381 . S
C1248 C1254 1.383 . S
C1249 C1245 1.495 . S
C1249 H1255 0.959 . S
C1249 H1256 0.961 . S
C1249 H1257 0.960 . S
C1250 C1248 1.381 . S
C1250 C1251 1.394 . S
C1250 H1258 0.930 . S
C1251 C1250 1.394 . S
C1251 C1252 1.383 . S
C1251 H1259 0.929 . S
C1252 C1251 1.383 . S
C1252 C1253 1.377 . S
C1253 H1237 0.930 . S
C1253 C1252 1.377 . S
C1253 C1254 1.379 . S
C1254 H1238 0.931 . S
C1254 C1248 1.383 . S
C1254 C1253 1.379 . S
H1255 C1249 0.959 . S
H1256 C1249 0.961 . S
H1257 C1249 0.960 . S
H1258 C1250 0.930 . S
H1259 C1251 0.929 . S
H1260 C1268 0.929 . S
H1261 C1270 0.930 . S
H1262 C1272 0.930 . S
H1263 C1275 0.929 . S
H1264 C1278 0.930 . S
H1265 C1280 0.960 . S
H1266 C1280 0.960 . S
H1267 C1280 0.960 . S
C1268 H1260 0.929 . S
C1268 C1269 1.377 . S
C1268 C1270 1.384 . S
C1269 C1268 1.377 . S
C1269 C1275 1.390 . S
C1270 H1261 0.930 . S
C1270 C1268 1.384 . S
C1270 C1271 1.372 . S
C1271 C1270 1.372 . S
C1271 C1272 1.400 . S
C1271 C1276 1.490 . S
C1272 H1262 0.930 . S
C1272 C1271 1.400 . S
C1272 C1275 1.386 . S
H1273 C1289 0.930 . S
H1274 C1290 0.931 . S
C1275 H1263 0.929 . S
C1275 C1269 1.390 . S
C1275 C1272 1.386 . S
C1276 C1271 1.490 . S
C1276 C1278 1.395 1_455 S
C1276 C1279 1.386 1_455 S
H1277 C1283 0.930 . S
C1278 H1264 0.930 . S
C1278 C1276 1.395 1_655 S
C1278 C1281 1.403 . S
C1279 C1276 1.386 1_655 S
C1279 C1280 1.515 1_655 S
C1279 C1283 1.427 . S
C1280 H1265 0.960 . S
C1280 H1266 0.960 . S
C1280 H1267 0.960 . S
C1280 C1279 1.515 1_455 S
C1281 C1278 1.403 . S
C1281 C1282 1.392 . S
C1281 C1285 1.495 . S
C1282 C1281 1.392 . S
C1282 C1283 1.385 . S
C1282 C1284 1.478 . S
C1283 H1277 0.930 . S
C1283 C1279 1.427 . S
C1283 C1282 1.385 . S
C1284 C1282 1.478 . S
C1284 C1286 1.381 . S
C1284 C1290 1.383 . S
C1285 C1281 1.495 . S
C1285 H1291 0.959 . S
C1285 H1292 0.961 . S
C1285 H1293 0.960 . S
C1286 C1284 1.381 . S
C1286 C1287 1.394 . S
C1286 H1294 0.930 . S
C1287 C1286 1.394 . S
C1287 C1288 1.383 . S
C1287 H1295 0.929 . S
C1288 C1287 1.383 . S
C1288 C1289 1.377 . S
C1289 H1273 0.930 . S
C1289 C1288 1.377 . S
C1289 C1290 1.379 . S
C1290 H1274 0.931 . S
C1290 C1284 1.383 . S
C1290 C1289 1.379 . S
H1291 C1285 0.959 . S
H1292 C1285 0.961 . S
H1293 C1285 0.960 . S
H1294 C1286 0.930 . S
H1295 C1287 0.929 . S
H1296 C1304 0.929 . S
H1297 C1306 0.930 . S
H1298 C1308 0.930 . S
H1299 C1311 0.929 . S
H1300 C1314 0.930 . S
H1301 C1316 0.960 . S
H1302 C1316 0.960 . S
H1303 C1316 0.959 . S
C1304 H1296 0.929 . S
C1304 C1305 1.377 . S
C1304 C1306 1.384 . S
C1305 C1304 1.377 . S
C1305 C1311 1.390 . S
C1306 H1297 0.930 . S
C1306 C1304 1.384 . S
C1306 C1307 1.372 . S
C1307 C1306 1.372 . S
C1307 C1308 1.400 . S
C1307 C1312 1.490 . S
C1308 H1298 0.930 . S
C1308 C1307 1.400 . S
C1308 C1311 1.386 . S
H1309 C1325 0.930 . S
H1310 C1326 0.931 . S
C1311 H1299 0.929 . S
C1311 C1305 1.390 . S
C1311 C1308 1.386 . S
C1312 C1307 1.490 . S
C1312 C1314 1.395 . S
C1312 C1315 1.403 1_565 S
H1313 C1319 0.930 . S
C1314 H1300 0.930 . S
C1314 C1312 1.395 . S
C1314 C1317 1.403 1_565 S
C1315 C1312 1.403 1_545 S
C1315 C1316 1.524 . S
C1315 C1319 1.400 . S
C1316 H1301 0.960 . S
C1316 H1302 0.960 . S
C1316 H1303 0.959 . S
C1316 C1315 1.524 . S
C1317 C1314 1.403 1_545 S
C1317 C1318 1.392 . S
C1317 C1321 1.495 . S
C1318 C1317 1.392 . S
C1318 C1319 1.385 . S
C1318 C1320 1.478 . S
C1319 H1313 0.930 . S
C1319 C1315 1.400 . S
C1319 C1318 1.385 . S
C1320 C1318 1.478 . S
C1320 C1322 1.381 . S
C1320 C1326 1.383 . S
C1321 C1317 1.495 . S
C1321 H1327 0.959 . S
C1321 H1328 0.961 . S
C1321 H1329 0.960 . S
C1322 C1320 1.381 . S
C1322 C1323 1.394 . S
C1322 H1330 0.930 . S
C1323 C1322 1.394 . S
C1323 C1324 1.383 . S
C1323 H1331 0.929 . S
C1324 C1323 1.383 . S
C1324 C1325 1.377 . S
C1325 H1309 0.930 . S
C1325 C1324 1.377 . S
C1325 C1326 1.379 . S
C1326 H1310 0.931 . S
C1326 C1320 1.383 . S
C1326 C1325 1.379 . S
H1327 C1321 0.959 . S
H1328 C1321 0.961 . S
H1329 C1321 0.960 . S
H1330 C1322 0.930 . S
H1331 C1323 0.929 . S
H1332 C1340 0.929 . S
H1333 C1342 0.930 . S
H1334 C1344 0.930 . S
H1335 C1347 0.929 . S
H1336 C1350 0.930 . S
H1337 C1352 0.960 . S
H1338 C1352 0.960 . S
H1339 C1352 0.960 . S
C1340 H1332 0.929 . S
C1340 C1341 1.377 . S
C1340 C1342 1.384 . S
C1341 C1340 1.377 . S
C1341 C1347 1.390 . S
C1342 H1333 0.930 . S
C1342 C1340 1.384 . S
C1342 C1343 1.372 . S
C1343 C1342 1.372 . S
C1343 C1344 1.400 . S
C1343 C1348 1.490 . S
C1344 H1334 0.930 . S
C1344 C1343 1.400 . S
C1344 C1347 1.386 . S
H1345 C1361 0.930 . S
H1346 C1362 0.931 . S
C1347 H1335 0.929 . S
C1347 C1341 1.390 . S
C1347 C1344 1.386 . S
C1348 C1343 1.490 . S
C1348 C1350 1.395 . S
C1348 C1351 1.403 . S
H1349 C1355 0.930 . S
C1350 H1336 0.930 . S
C1350 C1348 1.395 . S
C1350 C1353 1.403 . S
C1351 C1348 1.403 . S
C1351 C1352 1.524 . S
C1351 C1355 1.400 . S
C1352 H1337 0.960 . S
C1352 H1338 0.960 . S
C1352 H1339 0.960 . S
C1352 C1351 1.524 . S
C1353 C1350 1.403 . S
C1353 C1354 1.392 . S
C1353 C1357 1.495 . S
C1354 C1353 1.392 . S
C1354 C1355 1.385 . S
C1354 C1356 1.478 . S
C1355 H1349 0.930 . S
C1355 C1351 1.400 . S
C1355 C1354 1.385 . S
C1356 C1354 1.478 . S
C1356 C1358 1.381 . S
C1356 C1362 1.383 . S
C1357 C1353 1.495 . S
C1357 H1363 0.959 . S
C1357 H1364 0.961 . S
C1357 H1365 0.960 . S
C1358 C1356 1.381 . S
C1358 C1359 1.394 . S
C1358 H1366 0.930 . S
C1359 C1358 1.394 . S
C1359 C1360 1.383 . S
C1359 H1367 0.929 . S
C1360 C1359 1.383 . S
C1360 C1361 1.377 . S
C1361 H1345 0.930 . S
C1361 C1360 1.377 . S
C1361 C1362 1.379 . S
C1362 H1346 0.931 . S
C1362 C1356 1.383 . S
C1362 C1361 1.379 . S
H1363 C1357 0.959 . S
H1364 C1357 0.961 . S
H1365 C1357 0.960 . S
H1366 C1358 0.930 . S
H1367 C1359 0.929 . S
H1368 C1376 0.929 . S
H1369 C1378 0.930 . S
H1370 C1380 0.930 . S
H1371 C1383 0.929 . S
H1372 C1386 0.930 . S
H1373 C1388 0.960 . S
H1374 C1388 0.960 . S
H1375 C1388 0.960 . S
C1376 H1368 0.929 . S
C1376 C1377 1.377 . S
C1376 C1378 1.384 . S
C1377 C1376 1.377 . S
C1377 C1383 1.390 . S
C1378 H1369 0.930 . S
C1378 C1376 1.384 . S
C1378 C1379 1.372 . S
C1379 C1378 1.372 . S
C1379 C1380 1.400 . S
C1379 C1384 1.490 . S
C1380 H1370 0.930 . S
C1380 C1379 1.400 . S
C1380 C1383 1.386 . S
H1381 C1397 0.930 . S
H1382 C1398 0.931 . S
C1383 H1371 0.929 . S
C1383 C1377 1.390 . S
C1383 C1380 1.386 . S
C1384 C1379 1.490 . S
C1384 C1386 1.395 1_455 S
C1384 C1387 1.403 1_455 S
H1385 C1391 0.930 . S
C1386 H1372 0.930 . S
C1386 C1384 1.395 1_655 S
C1386 C1389 1.403 . S
C1387 C1384 1.403 1_655 S
C1387 C1388 1.524 1_655 S
C1387 C1391 1.400 . S
C1388 H1373 0.960 . S
C1388 H1374 0.960 . S
C1388 H1375 0.960 . S
C1388 C1387 1.524 1_455 S
C1389 C1386 1.403 . S
C1389 C1390 1.392 . S
C1389 C1393 1.495 . S
C1390 C1389 1.392 . S
C1390 C1391 1.385 . S
C1390 C1392 1.478 . S
C1391 H1385 0.930 . S
C1391 C1387 1.400 . S
C1391 C1390 1.385 . S
C1392 C1390 1.478 . S
C1392 C1394 1.381 . S
C1392 C1398 1.383 . S
C1393 C1389 1.495 . S
C1393 H1399 0.959 . S
C1393 H1400 0.961 . S
C1393 H1401 0.960 . S
C1394 C1392 1.381 . S
C1394 C1395 1.394 . S
C1394 H1402 0.930 . S
C1395 C1394 1.394 . S
C1395 C1396 1.383 . S
C1395 H1403 0.929 . S
C1396 C1395 1.383 . S
C1396 C1397 1.377 . S
C1397 H1381 0.930 . S
C1397 C1396 1.377 . S
C1397 C1398 1.379 . S
C1398 H1382 0.931 . S
C1398 C1392 1.383 . S
C1398 C1397 1.379 . S
H1399 C1393 0.959 . S
H1400 C1393 0.961 . S
H1401 C1393 0.960 . S
H1402 C1394 0.930 . S
H1403 C1395 0.929 . S
H1404 C1412 0.929 . S
H1405 C1414 0.930 . S
H1406 C1416 0.930 . S
H1407 C1419 0.929 . S
H1408 C1422 0.930 . S
H1409 C1424 0.960 . S
H1410 C1424 0.960 . S
H1411 C1424 0.960 . S
C1412 H1404 0.929 . S
C1412 C1413 1.377 . S
C1412 C1414 1.384 . S
C1413 C1412 1.377 . S
C1413 C1419 1.390 . S
C1414 H1405 0.930 . S
C1414 C1412 1.384 . S
C1414 C1415 1.372 . S
C1415 C1414 1.372 . S
C1415 C1416 1.400 . S
C1415 C1420 1.490 . S
C1416 H1406 0.930 . S
C1416 C1415 1.400 . S
C1416 C1419 1.386 . S
H1417 C1433 0.930 . S
H1418 C1434 0.931 . S
C1419 H1407 0.929 . S
C1419 C1413 1.390 . S
C1419 C1416 1.386 . S
C1420 C1415 1.490 . S
C1420 C1422 1.395 . S
C1420 C1423 1.403 . S
H1421 C1427 0.906 1_565 S
C1422 H1408 0.930 . S
C1422 C1420 1.395 . S
C1422 C1425 1.403 . S
C1423 C1420 1.403 . S
C1423 C1424 1.524 . S
C1423 C1427 1.418 . S
C1424 H1409 0.960 . S
C1424 H1410 0.960 . S
C1424 H1411 0.960 . S
C1424 C1423 1.524 . S
C1425 C1422 1.403 . S
C1425 C1426 1.392 1_545 S
C1425 C1429 1.495 . S
C1426 C1425 1.392 1_565 S
C1426 C1427 1.392 1_565 S
C1426 C1428 1.478 . S
C1427 H1421 0.906 1_545 S
C1427 C1423 1.418 . S
C1427 C1426 1.392 1_545 S
C1428 C1426 1.478 . S
C1428 C1430 1.381 . S
C1428 C1434 1.383 . S
C1429 C1425 1.495 . S
C1429 H1435 0.959 . S
C1429 H1436 0.961 1_545 S
C1429 H1437 0.960 . S
C1430 C1428 1.381 . S
C1430 C1431 1.394 . S
C1430 H1438 0.930 . S
C1431 C1430 1.394 . S
C1431 C1432 1.383 . S
C1431 H1439 0.929 . S
C1432 C1431 1.383 . S
C1432 C1433 1.377 . S
C1433 H1417 0.930 . S
C1433 C1432 1.377 . S
C1433 C1434 1.379 . S
C1434 H1418 0.931 . S
C1434 C1428 1.383 . S
C1434 C1433 1.379 . S
H1435 C1429 0.959 . S
H1436 C1429 0.961 1_565 S
H1437 C1429 0.960 . S
H1438 C1430 0.930 . S
H1439 C1431 0.929 . S
H1440 C1448 0.929 . S
H1441 C1450 0.930 . S
H1442 C1452 0.930 . S
H1443 C1455 0.929 . S
H1444 C1458 0.930 . S
H1445 C1460 0.960 . S
H1446 C1460 0.960 . S
H1447 C1460 0.960 . S
C1448 H1440 0.929 . S
C1448 C1449 1.377 . S
C1448 C1450 1.384 . S
C1449 C1448 1.377 . S
C1449 C1455 1.390 . S
C1450 H1441 0.930 . S
C1450 C1448 1.384 . S
C1450 C1451 1.372 . S
C1451 C1450 1.372 . S
C1451 C1452 1.400 . S
C1451 C1456 1.490 . S
C1452 H1442 0.930 . S
C1452 C1451 1.400 . S
C1452 C1455 1.386 . S
H1453 C1469 0.930 . S
H1454 C1470 0.931 . S
C1455 H1443 0.929 . S
C1455 C1449 1.390 . S
C1455 C1452 1.386 . S
C1456 C1451 1.490 . S
C1456 C1458 1.395 . S
C1456 C1459 1.403 . S
H1457 C1463 0.930 . S
C1458 H1444 0.930 . S
C1458 C1456 1.395 . S
C1458 C1461 1.403 . S
C1459 C1456 1.403 . S
C1459 C1460 1.524 . S
C1459 C1463 1.400 . S
C1460 H1445 0.960 . S
C1460 H1446 0.960 . S
C1460 H1447 0.960 . S
C1460 C1459 1.524 . S
C1461 C1458 1.403 . S
C1461 C1462 1.392 . S
C1461 C1465 1.495 . S
C1462 C1461 1.392 . S
C1462 C1463 1.385 . S
C1462 C1464 1.478 . S
C1463 H1457 0.930 . S
C1463 C1459 1.400 . S
C1463 C1462 1.385 . S
C1464 C1462 1.478 . S
C1464 C1466 1.381 . S
C1464 C1470 1.383 . S
C1465 C1461 1.495 . S
C1465 H1471 0.959 . S
C1465 H1472 0.961 . S
C1465 H1473 0.960 . S
C1466 C1464 1.381 . S
C1466 C1467 1.394 . S
C1466 H1474 0.930 . S
C1467 C1466 1.394 . S
C1467 C1468 1.383 . S
C1467 H1475 0.929 . S
C1468 C1467 1.383 . S
C1468 C1469 1.377 . S
C1469 H1453 0.930 . S
C1469 C1468 1.377 . S
C1469 C1470 1.379 . S
C1470 H1454 0.931 . S
C1470 C1464 1.383 . S
C1470 C1469 1.379 . S
H1471 C1465 0.959 . S
H1472 C1465 0.961 . S
H1473 C1465 0.960 . S
H1474 C1466 0.930 . S
H1475 C1467 0.929 . S
H1476 C1484 0.929 . S
H1477 C1486 0.930 . S
H1478 C1488 0.930 . S
H1479 C1491 0.929 . S
H1480 C1494 0.930 . S
H1481 C1496 0.960 . S
H1482 C1496 0.960 . S
H1483 C1496 0.960 . S
C1484 H1476 0.929 . S
C1484 C1485 1.377 . S
C1484 C1486 1.384 . S
C1485 C1484 1.377 . S
C1485 C1491 1.390 . S
C1486 H1477 0.930 . S
C1486 C1484 1.384 . S
C1486 C1487 1.372 . S
C1487 C1486 1.372 . S
C1487 C1488 1.400 . S
C1487 C1492 1.490 . S
C1488 H1478 0.930 . S
C1488 C1487 1.400 . S
C1488 C1491 1.386 . S
H1489 C1505 0.930 . S
H1490 C1506 0.931 . S
C1491 H1479 0.929 . S
C1491 C1485 1.390 . S
C1491 C1488 1.386 . S
C1492 C1487 1.490 . S
C1492 C1494 1.395 . S
C1492 C1495 1.403 . S
H1493 C1499 0.930 . S
C1494 H1480 0.930 . S
C1494 C1492 1.395 . S
C1494 C1497 1.403 . S
C1495 C1492 1.403 . S
C1495 C1496 1.524 . S
C1495 C1499 1.400 . S
C1496 H1481 0.960 . S
C1496 H1482 0.960 . S
C1496 H1483 0.960 . S
C1496 C1495 1.524 . S
C1497 C1494 1.403 . S
C1497 C1498 1.392 . S
C1497 C1501 1.495 . S
C1498 C1497 1.392 . S
C1498 C1499 1.385 . S
C1498 C1500 1.478 . S
C1499 H1493 0.930 . S
C1499 C1495 1.400 . S
C1499 C1498 1.385 . S
C1500 C1498 1.478 . S
C1500 C1502 1.381 . S
C1500 C1506 1.383 . S
C1501 C1497 1.495 . S
C1501 H1507 0.959 . S
C1501 H1508 0.961 . S
C1501 H1509 0.960 . S
C1502 C1500 1.381 . S
C1502 C1503 1.394 . S
C1502 H1510 0.930 . S
C1503 C1502 1.394 . S
C1503 C1504 1.383 . S
C1503 H1511 0.929 . S
C1504 C1503 1.383 . S
C1504 C1505 1.377 . S
C1505 H1489 0.930 . S
C1505 C1504 1.377 . S
C1505 C1506 1.379 . S
C1506 H1490 0.931 . S
C1506 C1500 1.383 . S
C1506 C1505 1.379 . S
H1507 C1501 0.959 . S
H1508 C1501 0.961 . S
H1509 C1501 0.960 . S
H1510 C1502 0.930 . S
H1511 C1503 0.929 . S
H1512 C1520 0.929 . S
H1513 C1522 0.930 . S
H1514 C1524 0.930 . S
H1515 C1527 0.929 . S
H1516 C1530 0.930 . S
H1517 C1532 0.960 . S
H1518 C1532 0.960 . S
H1519 C1532 0.960 . S
C1520 H1512 0.929 . S
C1520 C1521 1.377 . S
C1520 C1522 1.384 . S
C1521 C1520 1.377 . S
C1521 C1527 1.390 . S
C1522 H1513 0.930 . S
C1522 C1520 1.384 . S
C1522 C1523 1.372 . S
C1523 C1522 1.372 . S
C1523 C1524 1.400 . S
C1523 C1528 1.490 . S
C1524 H1514 0.930 . S
C1524 C1523 1.400 . S
C1524 C1527 1.386 . S
H1525 C1541 0.930 . S
H1526 C1542 0.931 . S
C1527 H1515 0.929 . S
C1527 C1521 1.390 . S
C1527 C1524 1.386 . S
C1528 C1523 1.490 . S
C1528 C1530 1.395 . S
C1528 C1531 1.403 . S
H1529 C1535 0.930 . S
C1530 H1516 0.930 . S
C1530 C1528 1.395 . S
C1530 C1533 1.403 . S
C1531 C1528 1.403 . S
C1531 C1532 1.524 . S
C1531 C1535 1.400 . S
C1532 H1517 0.960 . S
C1532 H1518 0.960 . S
C1532 H1519 0.960 . S
C1532 C1531 1.524 . S
C1533 C1530 1.403 . S
C1533 C1534 1.392 . S
C1533 C1537 1.495 . S
C1534 C1533 1.392 . S
C1534 C1535 1.385 . S
C1534 C1536 1.478 . S
C1535 H1529 0.930 . S
C1535 C1531 1.400 . S
C1535 C1534 1.385 . S
C1536 C1534 1.478 . S
C1536 C1538 1.381 . S
C1536 C1542 1.383 . S
C1537 C1533 1.495 . S
C1537 H1543 0.959 . S
C1537 H1544 0.961 . S
C1537 H1545 0.960 . S
C1538 C1536 1.381 . S
C1538 C1539 1.394 . S
C1538 H1546 0.930 . S
C1539 C1538 1.394 . S
C1539 C1540 1.383 . S
C1539 H1547 0.929 . S
C1540 C1539 1.383 . S
C1540 C1541 1.377 . S
C1541 H1525 0.930 . S
C1541 C1540 1.377 . S
C1541 C1542 1.379 . S
C1542 H1526 0.931 . S
C1542 C1536 1.383 . S
C1542 C1541 1.379 . S
H1543 C1537 0.959 . S
H1544 C1537 0.961 . S
H1545 C1537 0.960 . S
H1546 C1538 0.930 . S
H1547 C1539 0.929 . S
H1548 C1556 0.929 . S
H1549 C1558 0.930 . S
H1550 C1560 0.930 . S
H1551 C1563 0.929 . S
H1552 C1566 0.930 . S
H1553 C1568 0.960 . S
H1554 C1568 0.960 . S
H1555 C1568 0.960 . S
C1556 H1548 0.929 . S
C1556 C1557 1.377 . S
C1556 C1558 1.384 . S
C1557 C1556 1.377 . S
C1557 C1563 1.390 . S
C1558 H1549 0.930 . S
C1558 C1556 1.384 . S
C1558 C1559 1.372 . S
C1559 C1558 1.372 . S
C1559 C1560 1.400 . S
C1559 C1564 1.490 . S
C1560 H1550 0.930 . S
C1560 C1559 1.400 . S
C1560 C1563 1.386 . S
H1561 C1577 0.930 . S
H1562 C1578 0.931 . S
C1563 H1551 0.929 . S
C1563 C1557 1.390 . S
C1563 C1560 1.386 . S
C1564 C1559 1.490 . S
C1564 C1566 1.395 . S
C1564 C1567 1.403 . S
H1565 C1571 0.930 . S
C1566 H1552 0.930 . S
C1566 C1564 1.395 . S
C1566 C1569 1.403 . S
C1567 C1564 1.403 . S
C1567 C1568 1.524 . S
C1567 C1571 1.400 . S
C1568 H1553 0.960 . S
C1568 H1554 0.960 . S
C1568 H1555 0.960 . S
C1568 C1567 1.524 . S
C1569 C1566 1.403 . S
C1569 C1570 1.392 . S
C1569 C1573 1.495 . S
C1570 C1569 1.392 . S
C1570 C1571 1.385 . S
C1570 C1572 1.478 . S
C1571 H1565 0.930 . S
C1571 C1567 1.400 . S
C1571 C1570 1.385 . S
C1572 C1570 1.478 . S
C1572 C1574 1.381 . S
C1572 C1578 1.383 . S
C1573 C1569 1.495 . S
C1573 H1579 0.959 . S
C1573 H1580 0.961 . S
C1573 H1581 0.960 . S
C1574 C1572 1.381 . S
C1574 C1575 1.394 . S
C1574 H1582 0.930 . S
C1575 C1574 1.394 . S
C1575 C1576 1.383 . S
C1575 H1583 0.929 . S
C1576 C1575 1.383 . S
C1576 C1577 1.377 . S
C1577 H1561 0.930 . S
C1577 C1576 1.377 . S
C1577 C1578 1.379 . S
C1578 H1562 0.931 . S
C1578 C1572 1.383 . S
C1578 C1577 1.379 . S
H1579 C1573 0.959 . S
H1580 C1573 0.961 . S
H1581 C1573 0.960 . S
H1582 C1574 0.930 . S
H1583 C1575 0.929 . S
H1584 C1592 0.929 . S
H1585 C1594 0.930 . S
H1586 C1596 0.930 . S
H1587 C1599 0.929 . S
H1588 C1602 0.930 . S
H1589 C1604 0.960 . S
H1590 C1604 0.960 . S
H1591 C1604 0.960 . S
C1592 H1584 0.929 . S
C1592 C1593 1.377 . S
C1592 C1594 1.384 . S
C1593 C1592 1.377 . S
C1593 C1599 1.390 . S
C1594 H1585 0.930 . S
C1594 C1592 1.384 . S
C1594 C1595 1.372 . S
C1595 C1594 1.372 . S
C1595 C1596 1.400 . S
C1595 C1600 1.490 . S
C1596 H1586 0.930 . S
C1596 C1595 1.400 . S
C1596 C1599 1.386 . S
H1597 C1613 0.930 . S
H1598 C1614 0.931 . S
C1599 H1587 0.929 . S
C1599 C1593 1.390 . S
C1599 C1596 1.386 . S
C1600 C1595 1.490 . S
C1600 C1602 1.395 . S
C1600 C1603 1.403 . S
H1601 C1607 0.930 . S
C1602 H1588 0.930 . S
C1602 C1600 1.395 . S
C1602 C1605 1.403 . S
C1603 C1600 1.403 . S
C1603 C1604 1.524 . S
C1603 C1607 1.400 . S
C1604 H1589 0.960 . S
C1604 H1590 0.960 . S
C1604 H1591 0.960 . S
C1604 C1603 1.524 . S
C1605 C1602 1.403 . S
C1605 C1606 1.392 . S
C1605 C1609 1.495 . S
C1606 C1605 1.392 . S
C1606 C1607 1.385 . S
C1606 C1608 1.478 . S
C1607 H1601 0.930 . S
C1607 C1603 1.400 . S
C1607 C1606 1.385 . S
C1608 C1606 1.478 . S
C1608 C1610 1.381 . S
C1608 C1614 1.383 . S
C1609 C1605 1.495 . S
C1609 H1615 0.959 . S
C1609 H1616 0.961 . S
C1609 H1617 0.960 . S
C1610 C1608 1.381 . S
C1610 C1611 1.394 . S
C1610 H1618 0.930 . S
C1611 C1610 1.394 . S
C1611 C1612 1.383 . S
C1611 H1619 0.929 . S
C1612 C1611 1.383 . S
C1612 C1613 1.377 . S
C1613 H1597 0.930 . S
C1613 C1612 1.377 . S
C1613 C1614 1.379 . S
C1614 H1598 0.931 . S
C1614 C1608 1.383 . S
C1614 C1613 1.379 . S
H1615 C1609 0.959 . S
H1616 C1609 0.961 . S
H1617 C1609 0.960 . S
H1618 C1610 0.930 . S
H1619 C1611 0.929 . S
H1620 C1628 0.929 . S
H1621 C1630 0.930 . S
H1622 C1632 0.930 . S
H1623 C1635 0.929 . S
H1624 C1638 0.930 . S
H1625 C1640 0.960 . S
H1626 C1640 0.960 . S
H1627 C1640 0.960 . S
C1628 H1620 0.929 . S
C1628 C1629 1.377 . S
C1628 C1630 1.384 . S
C1629 C1628 1.377 . S
C1629 C1635 1.390 . S
C1630 H1621 0.930 . S
C1630 C1628 1.384 . S
C1630 C1631 1.372 . S
C1631 C1630 1.372 . S
C1631 C1632 1.400 . S
C1631 C1636 1.490 . S
C1632 H1622 0.930 . S
C1632 C1631 1.400 . S
C1632 C1635 1.386 . S
H1633 C1649 0.930 . S
H1634 C1650 0.931 . S
C1635 H1623 0.929 . S
C1635 C1629 1.390 . S
C1635 C1632 1.386 . S
C1636 C1631 1.490 . S
C1636 C1638 1.395 . S
C1636 C1639 1.403 . S
H1637 C1643 0.930 . S
C1638 H1624 0.930 . S
C1638 C1636 1.395 . S
C1638 C1641 1.403 . S
C1639 C1636 1.403 . S
C1639 C1640 1.524 . S
C1639 C1643 1.400 . S
C1640 H1625 0.960 . S
C1640 H1626 0.960 . S
C1640 H1627 0.960 . S
C1640 C1639 1.524 . S
C1641 C1638 1.403 . S
C1641 C1642 1.392 . S
C1641 C1645 1.495 . S
C1642 C1641 1.392 . S
C1642 C1643 1.385 . S
C1642 C1644 1.478 . S
C1643 H1637 0.930 . S
C1643 C1639 1.400 . S
C1643 C1642 1.385 . S
C1644 C1642 1.478 . S
C1644 C1646 1.381 . S
C1644 C1650 1.383 . S
C1645 C1641 1.495 . S
C1645 H1651 0.959 . S
C1645 H1652 0.961 . S
C1645 H1653 0.960 . S
C1646 C1644 1.381 . S
C1646 C1647 1.394 . S
C1646 H1654 0.930 . S
C1647 C1646 1.394 . S
C1647 C1648 1.383 . S
C1647 H1655 0.929 . S
C1648 C1647 1.383 . S
C1648 C1649 1.377 . S
C1649 H1633 0.930 . S
C1649 C1648 1.377 . S
C1649 C1650 1.379 . S
C1650 H1634 0.931 . S
C1650 C1644 1.383 . S
C1650 C1649 1.379 . S
H1651 C1645 0.959 . S
H1652 C1645 0.961 . S
H1653 C1645 0.960 . S
H1654 C1646 0.930 . S
H1655 C1647 0.929 . S
H1656 C1664 0.929 . S
H1657 C1666 0.930 . S
H1658 C1668 0.930 . S
H1659 C1671 0.929 . S
H1660 C1674 0.930 . S
H1661 C1676 0.960 . S
H1662 C1676 0.960 . S
H1663 C1676 0.960 . S
C1664 H1656 0.929 . S
C1664 C1665 1.377 . S
C1664 C1666 1.384 . S
C1665 C1664 1.377 . S
C1665 C1671 1.390 . S
C1666 H1657 0.930 . S
C1666 C1664 1.384 . S
C1666 C1667 1.372 . S
C1667 C1666 1.372 . S
C1667 C1668 1.400 . S
C1667 C1672 1.490 . S
C1668 H1658 0.930 . S
C1668 C1667 1.400 . S
C1668 C1671 1.386 . S
H1669 C1685 0.930 . S
H1670 C1686 0.931 . S
C1671 H1659 0.929 . S
C1671 C1665 1.390 . S
C1671 C1668 1.386 . S
C1672 C1667 1.490 . S
C1672 C1674 1.395 . S
C1672 C1675 1.403 . S
H1673 C1679 0.930 . S
C1674 H1660 0.930 . S
C1674 C1672 1.395 . S
C1674 C1677 1.403 1_566 S
C1675 C1672 1.403 . S
C1675 C1676 1.524 . S
C1675 C1679 1.400 1_566 S
C1676 H1661 0.960 . S
C1676 H1662 0.960 . S
C1676 H1663 0.960 . S
C1676 C1675 1.524 . S
C1677 C1674 1.403 1_544 S
C1677 C1678 1.392 . S
C1677 C1681 1.495 . S
C1678 C1677 1.392 . S
C1678 C1679 1.385 . S
C1678 C1680 1.478 . S
C1679 H1673 0.930 . S
C1679 C1675 1.400 1_544 S
C1679 C1678 1.385 . S
C1680 C1678 1.478 . S
C1680 C1682 1.381 . S
C1680 C1686 1.383 . S
C1681 C1677 1.495 . S
C1681 H1687 0.959 . S
C1681 H1688 0.961 . S
C1681 H1689 0.960 . S
C1682 C1680 1.381 . S
C1682 C1683 1.394 . S
C1682 H1690 0.930 . S
C1683 C1682 1.394 . S
C1683 C1684 1.383 . S
C1683 H1691 0.929 . S
C1684 C1683 1.383 . S
C1684 C1685 1.377 . S
C1685 H1669 0.930 . S
C1685 C1684 1.377 . S
C1685 C1686 1.379 . S
C1686 H1670 0.931 . S
C1686 C1680 1.383 . S
C1686 C1685 1.379 . S
H1687 C1681 0.959 . S
H1688 C1681 0.961 . S
H1689 C1681 0.960 . S
H1690 C1682 0.930 . S
H1691 C1683 0.929 . S
H1692 C1700 0.929 . S
H1693 C1702 0.930 . S
H1694 C1704 0.930 . S
H1695 C1707 0.929 . S
H1696 C1710 0.930 . S
H1697 C1712 0.960 . S
H1698 C1712 0.960 . S
H1699 C1712 0.960 . S
C1700 H1692 0.929 . S
C1700 C1701 1.377 . S
C1700 C1702 1.384 . S
C1701 C1700 1.377 . S
C1701 C1707 1.390 . S
C1702 H1693 0.930 . S
C1702 C1700 1.384 . S
C1702 C1703 1.372 . S
C1703 C1702 1.372 . S
C1703 C1704 1.400 . S
C1703 C1708 1.490 . S
C1704 H1694 0.930 . S
C1704 C1703 1.400 . S
C1704 C1707 1.386 . S
H1705 C1721 0.930 . S
H1706 C1722 0.931 . S
C1707 H1695 0.929 . S
C1707 C1701 1.390 . S
C1707 C1704 1.386 . S
C1708 C1703 1.490 . S
C1708 C1710 1.395 . S
C1708 C1711 1.403 . S
H1709 C1715 0.930 . S
C1710 H1696 0.930 . S
C1710 C1708 1.395 . S
C1710 C1713 1.403 . S
C1711 C1708 1.403 . S
C1711 C1712 1.524 . S
C1711 C1715 1.400 . S
C1712 H1697 0.960 . S
C1712 H1698 0.960 . S
C1712 H1699 0.960 . S
C1712 C1711 1.524 . S
C1713 C1710 1.403 . S
C1713 C1714 1.392 . S
C1713 C1717 1.495 . S
C1714 C1713 1.392 . S
C1714 C1715 1.385 . S
C1714 C1716 1.478 . S
C1715 H1709 0.930 . S
C1715 C1711 1.400 . S
C1715 C1714 1.385 . S
C1716 C1714 1.478 . S
C1716 C1718 1.381 . S
C1716 C1722 1.383 . S
C1717 C1713 1.495 . S
C1717 H1723 0.959 . S
C1717 H1724 0.961 . S
C1717 H1725 0.960 . S
C1718 C1716 1.381 . S
C1718 C1719 1.394 . S
C1718 H1726 0.930 . S
C1719 C1718 1.394 . S
C1719 C1720 1.383 . S
C1719 H1727 0.929 . S
C1720 C1719 1.383 . S
C1720 C1721 1.377 . S
C1721 H1705 0.930 . S
C1721 C1720 1.377 . S
C1721 C1722 1.379 . S
C1722 H1706 0.931 . S
C1722 C1716 1.383 . S
C1722 C1721 1.379 . S
H1723 C1717 0.959 . S
H1724 C1717 0.961 . S
H1725 C1717 0.960 . S
H1726 C1718 0.930 . S
H1727 C1719 0.929 . S
H1728 C1736 0.929 . S
H1729 C1738 0.930 . S
H1730 C1740 0.930 . S
H1731 C1743 0.929 . S
H1732 C1746 0.930 . S
H1733 C1748 0.960 . S
H1734 C1748 0.960 . S
H1735 C1748 0.960 . S
C1736 H1728 0.929 . S
C1736 C1737 1.377 . S
C1736 C1738 1.384 . S
C1737 C1736 1.377 . S
C1737 C1743 1.390 . S
C1738 H1729 0.930 . S
C1738 C1736 1.384 . S
C1738 C1739 1.372 . S
C1739 C1738 1.372 . S
C1739 C1740 1.400 . S
C1739 C1744 1.490 . S
C1740 H1730 0.930 . S
C1740 C1739 1.400 . S
C1740 C1743 1.386 . S
H1741 C1757 0.930 . S
H1742 C1758 0.931 . S
C1743 H1731 0.929 . S
C1743 C1737 1.390 . S
C1743 C1740 1.386 . S
C1744 C1739 1.490 . S
C1744 C1746 1.395 . S
C1744 C1747 1.403 . S
H1745 C1751 0.930 . S
C1746 H1732 0.930 . S
C1746 C1744 1.395 . S
C1746 C1749 1.403 1_456 S
C1747 C1744 1.403 . S
C1747 C1748 1.524 . S
C1747 C1751 1.400 1_456 S
C1748 H1733 0.960 . S
C1748 H1734 0.960 . S
C1748 H1735 0.960 . S
C1748 C1747 1.524 . S
C1749 C1746 1.403 1_654 S
C1749 C1750 1.392 . S
C1749 C1753 1.495 . S
C1750 C1749 1.392 . S
C1750 C1751 1.385 . S
C1750 C1752 1.478 . S
C1751 H1745 0.930 . S
C1751 C1747 1.400 1_654 S
C1751 C1750 1.385 . S
C1752 C1750 1.478 . S
C1752 C1754 1.381 . S
C1752 C1758 1.383 . S
C1753 C1749 1.495 . S
C1753 H1759 0.959 . S
C1753 H1760 0.961 . S
C1753 H1761 0.960 . S
C1754 C1752 1.381 . S
C1754 C1755 1.394 . S
C1754 H1762 0.930 . S
C1755 C1754 1.394 . S
C1755 C1756 1.383 . S
C1755 H1763 0.929 . S
C1756 C1755 1.383 . S
C1756 C1757 1.377 . S
C1757 H1741 0.930 . S
C1757 C1756 1.377 . S
C1757 C1758 1.379 . S
C1758 H1742 0.931 . S
C1758 C1752 1.383 . S
C1758 C1757 1.379 . S
H1759 C1753 0.959 . S
H1760 C1753 0.961 . S
H1761 C1753 0.960 . S
H1762 C1754 0.930 . S
H1763 C1755 0.929 . S
H1764 C1772 0.929 . S
H1765 C1774 0.930 . S
H1766 C1776 0.930 . S
H1767 C1779 0.929 . S
H1768 C1782 0.930 . S
H1769 C1784 0.960 . S
H1770 C1784 0.960 . S
H1771 C1784 0.960 . S
C1772 H1764 0.929 . S
C1772 C1773 1.377 . S
C1772 C1774 1.384 . S
C1773 C1772 1.377 . S
C1773 C1779 1.390 . S
C1774 H1765 0.930 . S
C1774 C1772 1.384 . S
C1774 C1775 1.372 . S
C1775 C1774 1.372 . S
C1775 C1776 1.400 . S
C1775 C1780 1.490 . S
C1776 H1766 0.930 . S
C1776 C1775 1.400 . S
C1776 C1779 1.386 . S
H1777 C1793 0.930 . S
H1778 C1794 0.931 . S
C1779 H1767 0.929 . S
C1779 C1773 1.390 . S
C1779 C1776 1.386 . S
C1780 C1775 1.490 . S
C1780 C1782 1.395 1_545 S
C1780 C1783 1.403 . S
H1781 C1787 0.927 . S
C1782 H1768 0.930 . S
C1782 C1780 1.395 1_565 S
C1782 C1785 1.403 . S
C1783 C1780 1.403 . S
C1783 C1784 1.524 . S
C1783 C1787 1.424 . S
C1784 H1769 0.960 . S
C1784 H1770 0.960 . S
C1784 H1771 0.960 . S
C1784 C1783 1.524 . S
C1785 C1782 1.403 . S
C1785 C1786 1.392 . S
C1785 C1789 1.495 . S
C1786 C1785 1.392 . S
C1786 C1787 1.365 1_565 S
C1786 C1788 1.478 . S
C1787 H1781 0.927 . S
C1787 C1783 1.424 . S
C1787 C1786 1.365 1_545 S
C1788 C1786 1.478 . S
C1788 C1790 1.381 . S
C1788 C1794 1.383 . S
C1789 C1785 1.495 . S
C1789 H1795 0.959 . S
C1789 H1796 0.961 . S
C1789 H1797 0.960 . S
C1790 C1788 1.381 . S
C1790 C1791 1.394 . S
C1790 H1798 0.930 . S
C1791 C1790 1.394 . S
C1791 C1792 1.383 . S
C1791 H1799 0.929 . S
C1792 C1791 1.383 . S
C1792 C1793 1.377 . S
C1793 H1777 0.930 . S
C1793 C1792 1.377 . S
C1793 C1794 1.379 . S
C1794 H1778 0.931 . S
C1794 C1788 1.383 . S
C1794 C1793 1.379 . S
H1795 C1789 0.959 . S
H1796 C1789 0.961 . S
H1797 C1789 0.960 . S
H1798 C1790 0.930 . S
H1799 C1791 0.929 . S
H1800 C1808 0.929 . S
H1801 C1810 0.930 . S
H1802 C1812 0.930 . S
H1803 C1815 0.929 . S
H1804 C1818 0.930 . S
H1805 C1820 0.960 . S
H1806 C1820 0.960 . S
H1807 C1820 0.960 . S
C1808 H1800 0.929 . S
C1808 C1809 1.377 . S
C1808 C1810 1.384 . S
C1809 C1808 1.377 . S
C1809 C1815 1.390 . S
C1810 H1801 0.930 . S
C1810 C1808 1.384 . S
C1810 C1811 1.372 . S
C1811 C1810 1.372 . S
C1811 C1812 1.400 . S
C1811 C1816 1.490 . S
C1812 H1802 0.930 . S
C1812 C1811 1.400 . S
C1812 C1815 1.386 . S
H1813 C1829 0.930 . S
H1814 C1830 0.931 . S
C1815 H1803 0.929 . S
C1815 C1809 1.390 . S
C1815 C1812 1.386 . S
C1816 C1811 1.490 . S
C1816 C1818 1.395 . S
C1816 C1819 1.403 . S
H1817 C1823 0.930 . S
C1818 H1804 0.930 . S
C1818 C1816 1.395 . S
C1818 C1821 1.403 1_554 S
C1819 C1816 1.403 . S
C1819 C1820 1.524 . S
C1819 C1823 1.400 1_554 S
C1820 H1805 0.960 . S
C1820 H1806 0.960 . S
C1820 H1807 0.960 . S
C1820 C1819 1.524 . S
C1821 C1818 1.403 1_556 S
C1821 C1822 1.392 . S
C1821 C1825 1.495 . S
C1822 C1821 1.392 . S
C1822 C1823 1.385 . S
C1822 C1824 1.478 . S
C1823 H1817 0.930 . S
C1823 C1819 1.400 1_556 S
C1823 C1822 1.385 . S
C1824 C1822 1.478 . S
C1824 C1826 1.381 . S
C1824 C1830 1.383 . S
C1825 C1821 1.495 . S
C1825 H1831 0.959 . S
C1825 H1832 0.961 . S
C1825 H1833 0.960 . S
C1826 C1824 1.381 . S
C1826 C1827 1.394 . S
C1826 H1834 0.930 . S
C1827 C1826 1.394 . S
C1827 C1828 1.383 . S
C1827 H1835 0.929 . S
C1828 C1827 1.383 . S
C1828 C1829 1.377 . S
C1829 H1813 0.930 . S
C1829 C1828 1.377 . S
C1829 C1830 1.379 . S
C1830 H1814 0.931 . S
C1830 C1824 1.383 . S
C1830 C1829 1.379 . S
H1831 C1825 0.959 . S
H1832 C1825 0.961 . S
H1833 C1825 0.960 . S
H1834 C1826 0.930 . S
H1835 C1827 0.929 . S
H1836 C1844 0.929 . S
H1837 C1846 0.930 . S
H1838 C1848 0.930 . S
H1839 C1851 0.929 . S
H1840 C1854 0.930 . S
H1841 C1856 0.960 . S
H1842 C1856 0.960 . S
H1843 C1856 0.960 . S
C1844 H1836 0.929 . S
C1844 C1845 1.377 . S
C1844 C1846 1.384 . S
C1845 C1844 1.377 . S
C1845 C1851 1.390 . S
C1846 H1837 0.930 . S
C1846 C1844 1.384 . S
C1846 C1847 1.372 . S
C1847 C1846 1.372 . S
C1847 C1848 1.400 . S
C1847 C1852 1.490 . S
C1848 H1838 0.930 . S
C1848 C1847 1.400 . S
C1848 C1851 1.386 . S
H1849 C1865 0.930 . S
H1850 C1866 0.931 . S
C1851 H1839 0.929 . S
C1851 C1845 1.390 . S
C1851 C1848 1.386 . S
C1852 C1847 1.490 . S
C1852 C1854 1.395 1_455 S
C1852 C1855 1.403 . S
H1853 C1859 0.926 1_455 S
C1854 H1840 0.930 . S
C1854 C1852 1.395 1_655 S
C1854 C1857 1.403 . S
C1855 C1852 1.403 . S
C1855 C1856 1.524 . S
C1855 C1859 1.388 1_455 S
C1856 H1841 0.960 . S
C1856 H1842 0.960 . S
C1856 H1843 0.960 . S
C1856 C1855 1.524 . S
C1857 C1854 1.403 . S
C1857 C1858 1.392 . S
C1857 C1861 1.495 . S
C1858 C1857 1.392 . S
C1858 C1859 1.402 . S
C1858 C1860 1.478 . S
C1859 H1853 0.926 1_655 S
C1859 C1855 1.388 1_655 S
C1859 C1858 1.402 . S
C1860 C1858 1.478 . S
C1860 C1862 1.381 . S
C1860 C1866 1.383 . S
C1861 C1857 1.495 . S
C1861 H1867 0.959 . S
C1861 H1868 0.961 . S
C1861 H1869 0.960 . S
C1862 C1860 1.381 . S
C1862 C1863 1.394 . S
C1862 H1870 0.930 . S
C1863 C1862 1.394 . S
C1863 C1864 1.383 . S
C1863 H1871 0.929 . S
C1864 C1863 1.383 . S
C1864 C1865 1.377 . S
C1865 H1849 0.930 . S
C1865 C1864 1.377 . S
C1865 C1866 1.379 . S
C1866 H1850 0.931 . S
C1866 C1860 1.383 . S
C1866 C1865 1.379 . S
H1867 C1861 0.959 . S
H1868 C1861 0.961 . S
H1869 C1861 0.960 . S
H1870 C1862 0.930 . S
H1871 C1863 0.929 . S
H1872 C1880 0.929 . S
H1873 C1882 0.930 . S
H1874 C1884 0.930 . S
H1875 C1887 0.929 . S
H1876 C1890 0.930 . S
H1877 C1892 0.960 . S
H1878 C1892 0.960 . S
H1879 C1892 0.960 . S
C1880 H1872 0.929 . S
C1880 C1881 1.377 . S
C1880 C1882 1.384 . S
C1881 C1880 1.377 . S
C1881 C1887 1.390 . S
C1882 H1873 0.930 . S
C1882 C1880 1.384 . S
C1882 C1883 1.372 . S
C1883 C1882 1.372 . S
C1883 C1884 1.400 . S
C1883 C1888 1.490 . S
C1884 H1874 0.930 . S
C1884 C1883 1.400 . S
C1884 C1887 1.386 . S
H1885 C1901 0.930 . S
H1886 C1902 0.931 . S
C1887 H1875 0.929 . S
C1887 C1881 1.390 . S
C1887 C1884 1.386 . S
C1888 C1883 1.490 . S
C1888 C1890 1.395 . S
C1888 C1891 1.403 . S
H1889 C1895 0.930 . S
C1890 H1876 0.930 . S
C1890 C1888 1.395 . S
C1890 C1893 1.403 . S
C1891 C1888 1.403 . S
C1891 C1892 1.524 . S
C1891 C1895 1.400 . S
C1892 H1877 0.960 . S
C1892 H1878 0.960 . S
C1892 H1879 0.960 . S
C1892 C1891 1.524 . S
C1893 C1890 1.403 . S
C1893 C1894 1.392 . S
C1893 C1897 1.495 . S
C1894 C1893 1.392 . S
C1894 C1895 1.385 . S
C1894 C1896 1.478 . S
C1895 H1889 0.930 . S
C1895 C1891 1.400 . S
C1895 C1894 1.385 . S
C1896 C1894 1.478 . S
C1896 C1898 1.381 . S
C1896 C1902 1.383 . S
C1897 C1893 1.495 . S
C1897 H1903 0.959 . S
C1897 H1904 0.961 . S
C1897 H1905 0.960 . S
C1898 C1896 1.381 . S
C1898 C1899 1.394 . S
C1898 H1906 0.930 . S
C1899 C1898 1.394 . S
C1899 C1900 1.383 . S
C1899 H1907 0.929 . S
C1900 C1899 1.383 . S
C1900 C1901 1.377 . S
C1901 H1885 0.930 . S
C1901 C1900 1.377 . S
C1901 C1902 1.379 . S
C1902 H1886 0.931 . S
C1902 C1896 1.383 . S
C1902 C1901 1.379 . S
H1903 C1897 0.959 . S
H1904 C1897 0.961 . S
H1905 C1897 0.960 . S
H1906 C1898 0.930 . S
H1907 C1899 0.929 . S
H1908 C1916 0.929 . S
H1909 C1918 0.930 . S
H1910 C1920 0.930 . S
H1911 C1923 0.929 . S
H1912 C1926 0.930 . S
H1913 C1928 0.960 . S
H1914 C1928 0.960 . S
H1915 C1928 0.960 . S
C1916 H1908 0.929 . S
C1916 C1917 1.377 . S
C1916 C1918 1.384 . S
C1917 C1916 1.377 . S
C1917 C1923 1.390 . S
C1918 H1909 0.930 . S
C1918 C1916 1.384 . S
C1918 C1919 1.372 . S
C1919 C1918 1.372 . S
C1919 C1920 1.400 . S
C1919 C1924 1.490 . S
C1920 H1910 0.930 . S
C1920 C1919 1.400 . S
C1920 C1923 1.386 . S
H1921 C1937 0.930 . S
H1922 C1938 0.931 . S
C1923 H1911 0.929 . S
C1923 C1917 1.390 . S
C1923 C1920 1.386 . S
C1924 C1919 1.490 . S
C1924 C1926 1.395 . S
C1924 C1927 1.403 . S
H1925 C1931 0.930 . S
C1926 H1912 0.930 . S
C1926 C1924 1.395 . S
C1926 C1929 1.403 . S
C1927 C1924 1.403 . S
C1927 C1928 1.524 . S
C1927 C1931 1.400 . S
C1928 H1913 0.960 . S
C1928 H1914 0.960 . S
C1928 H1915 0.960 . S
C1928 C1927 1.524 . S
C1929 C1926 1.403 . S
C1929 C1930 1.392 . S
C1929 C1933 1.495 . S
C1930 C1929 1.392 . S
C1930 C1931 1.385 . S
C1930 C1932 1.478 . S
C1931 H1925 0.930 . S
C1931 C1927 1.400 . S
C1931 C1930 1.385 . S
C1932 C1930 1.478 . S
C1932 C1934 1.381 . S
C1932 C1938 1.383 . S
C1933 C1929 1.495 . S
C1933 H1939 0.959 . S
C1933 H1940 0.961 . S
C1933 H1941 0.960 . S
C1934 C1932 1.381 . S
C1934 C1935 1.394 . S
C1934 H1942 0.930 . S
C1935 C1934 1.394 . S
C1935 C1936 1.383 . S
C1935 H1943 0.929 . S
C1936 C1935 1.383 . S
C1936 C1937 1.377 . S
C1937 H1921 0.930 . S
C1937 C1936 1.377 . S
C1937 C1938 1.379 . S
C1938 H1922 0.931 . S
C1938 C1932 1.383 . S
C1938 C1937 1.379 . S
H1939 C1933 0.959 . S
H1940 C1933 0.961 . S
H1941 C1933 0.960 . S
H1942 C1934 0.930 . S
H1943 C1935 0.929 . S
H1944 C1952 0.929 . S
H1945 C1954 0.930 . S
H1946 C1956 0.930 . S
H1947 C1959 0.929 . S
H1948 C1962 0.930 . S
H1949 C1964 0.960 . S
H1950 C1964 0.960 . S
H1951 C1964 0.960 . S
C1952 H1944 0.929 . S
C1952 C1953 1.377 . S
C1952 C1954 1.384 . S
C1953 C1952 1.377 . S
C1953 C1959 1.390 . S
C1954 H1945 0.930 . S
C1954 C1952 1.384 . S
C1954 C1955 1.372 . S
C1955 C1954 1.372 . S
C1955 C1956 1.400 . S
C1955 C1960 1.490 . S
C1956 H1946 0.930 . S
C1956 C1955 1.400 . S
C1956 C1959 1.386 . S
H1957 C1973 0.930 . S
H1958 C1974 0.931 . S
C1959 H1947 0.929 . S
C1959 C1953 1.390 . S
C1959 C1956 1.386 . S
C1960 C1955 1.490 . S
C1960 C1962 1.395 . S
C1960 C1963 1.403 . S
H1961 C1967 0.930 . S
C1962 H1948 0.930 . S
C1962 C1960 1.395 . S
C1962 C1965 1.403 . S
C1963 C1960 1.403 . S
C1963 C1964 1.524 . S
C1963 C1967 1.400 . S
C1964 H1949 0.960 . S
C1964 H1950 0.960 . S
C1964 H1951 0.960 . S
C1964 C1963 1.524 . S
C1965 C1962 1.403 . S
C1965 C1966 1.392 . S
C1965 C1969 1.495 . S
C1966 C1965 1.392 . S
C1966 C1967 1.385 . S
C1966 C1968 1.478 . S
C1967 H1961 0.930 . S
C1967 C1963 1.400 . S
C1967 C1966 1.385 . S
C1968 C1966 1.478 . S
C1968 C1970 1.381 . S
C1968 C1974 1.383 . S
C1969 C1965 1.495 . S
C1969 H1975 0.959 . S
C1969 H1976 0.961 . S
C1969 H1977 0.960 . S
C1970 C1968 1.381 . S
C1970 C1971 1.394 . S
C1970 H1978 0.930 . S
C1971 C1970 1.394 . S
C1971 C1972 1.383 . S
C1971 H1979 0.929 . S
C1972 C1971 1.383 . S
C1972 C1973 1.377 . S
C1973 H1957 0.930 . S
C1973 C1972 1.377 . S
C1973 C1974 1.379 . S
C1974 H1958 0.931 . S
C1974 C1968 1.383 . S
C1974 C1973 1.379 . S
H1975 C1969 0.959 . S
H1976 C1969 0.961 . S
H1977 C1969 0.960 . S
H1978 C1970 0.930 . S
H1979 C1971 0.929 . S
H1980 C1988 0.929 . S
H1981 C1990 0.930 . S
H1982 C1992 0.930 . S
H1983 C1995 0.929 . S
H1984 C1998 0.930 . S
H1985 C2000 0.960 . S
H1986 C2000 0.960 . S
H1987 C2000 0.960 . S
C1988 H1980 0.929 . S
C1988 C1989 1.377 . S
C1988 C1990 1.384 . S
C1989 C1988 1.377 . S
C1989 C1995 1.390 . S
C1990 H1981 0.930 . S
C1990 C1988 1.384 . S
C1990 C1991 1.372 . S
C1991 C1990 1.372 . S
C1991 C1992 1.400 . S
C1991 C1996 1.490 . S
C1992 H1982 0.930 . S
C1992 C1991 1.400 . S
C1992 C1995 1.386 . S
H1993 C2009 0.930 . S
H1994 C2010 0.931 . S
C1995 H1983 0.929 . S
C1995 C1989 1.390 . S
C1995 C1992 1.386 . S
C1996 C1991 1.490 . S
C1996 C1998 1.395 . S
C1996 C1999 1.403 . S
H1997 C2003 0.930 . S
C1998 H1984 0.930 . S
C1998 C1996 1.395 . S
C1998 C2001 1.403 . S
C1999 C1996 1.403 . S
C1999 C2000 1.524 . S
C1999 C2003 1.400 . S
C2000 H1985 0.960 . S
C2000 H1986 0.960 . S
C2000 H1987 0.960 . S
C2000 C1999 1.524 . S
C2001 C1998 1.403 . S
C2001 C2002 1.392 . S
C2001 C2005 1.495 . S
C2002 C2001 1.392 . S
C2002 C2003 1.385 . S
C2002 C2004 1.478 . S
C2003 H1997 0.930 . S
C2003 C1999 1.400 . S
C2003 C2002 1.385 . S
C2004 C2002 1.478 . S
C2004 C2006 1.381 . S
C2004 C2010 1.383 . S
C2005 C2001 1.495 . S
C2005 H2011 0.959 . S
C2005 H2012 0.961 . S
C2005 H2013 0.960 . S
C2006 C2004 1.381 . S
C2006 C2007 1.394 . S
C2006 H2014 0.930 . S
C2007 C2006 1.394 . S
C2007 C2008 1.383 . S
C2007 H2015 0.929 . S
C2008 C2007 1.383 . S
C2008 C2009 1.377 . S
C2009 H1993 0.930 . S
C2009 C2008 1.377 . S
C2009 C2010 1.379 . S
C2010 H1994 0.931 . S
C2010 C2004 1.383 . S
C2010 C2009 1.379 . S
H2011 C2005 0.959 . S
H2012 C2005 0.961 . S
H2013 C2005 0.960 . S
H2014 C2006 0.930 . S
H2015 C2007 0.929 . S
H2016 C2024 0.929 . S
H2017 C2026 0.930 . S
H2018 C2028 0.930 . S
H2019 C2031 0.929 . S
H2020 C2034 0.930 . S
H2021 C2036 0.960 . S
H2022 C2036 0.960 . S
H2023 C2036 0.960 . S
C2024 H2016 0.929 . S
C2024 C2025 1.377 . S
C2024 C2026 1.384 . S
C2025 C2024 1.377 . S
C2025 C2031 1.390 . S
C2026 H2017 0.930 . S
C2026 C2024 1.384 . S
C2026 C2027 1.372 . S
C2027 C2026 1.372 . S
C2027 C2028 1.400 . S
C2027 C2032 1.490 . S
C2028 H2018 0.930 . S
C2028 C2027 1.400 . S
C2028 C2031 1.386 . S
H2029 C2045 0.930 . S
H2030 C2046 0.931 . S
C2031 H2019 0.929 . S
C2031 C2025 1.390 . S
C2031 C2028 1.386 . S
C2032 C2027 1.490 . S
C2032 C2034 1.395 . S
C2032 C2035 1.403 . S
H2033 C2039 0.930 . S
C2034 H2020 0.930 . S
C2034 C2032 1.395 . S
C2034 C2037 1.403 . S
C2035 C2032 1.403 . S
C2035 C2036 1.524 . S
C2035 C2039 1.400 . S
C2036 H2021 0.960 . S
C2036 H2022 0.960 . S
C2036 H2023 0.960 . S
C2036 C2035 1.524 . S
C2037 C2034 1.403 . S
C2037 C2038 1.392 . S
C2037 C2041 1.495 . S
C2038 C2037 1.392 . S
C2038 C2039 1.385 . S
C2038 C2040 1.478 . S
C2039 H2033 0.930 . S
C2039 C2035 1.400 . S
C2039 C2038 1.385 . S
C2040 C2038 1.478 . S
C2040 C2042 1.381 . S
C2040 C2046 1.383 . S
C2041 C2037 1.495 . S
C2041 H2047 0.959 . S
C2041 H2048 0.961 . S
C2041 H2049 0.960 . S
C2042 C2040 1.381 . S
C2042 C2043 1.394 . S
C2042 H2050 0.930 . S
C2043 C2042 1.394 . S
C2043 C2044 1.383 . S
C2043 H2051 0.929 . S
C2044 C2043 1.383 . S
C2044 C2045 1.377 . S
C2045 H2029 0.930 . S
C2045 C2044 1.377 . S
C2045 C2046 1.379 . S
C2046 H2030 0.931 . S
C2046 C2040 1.383 . S
C2046 C2045 1.379 . S
H2047 C2041 0.959 . S
H2048 C2041 0.961 . S
H2049 C2041 0.960 . S
H2050 C2042 0.930 . S
H2051 C2043 0.929 . S
H2052 C2060 0.929 . S
H2053 C2062 0.930 . S
H2054 C2064 0.930 . S
H2055 C2067 0.929 . S
H2056 C2070 0.930 . S
H2057 C2072 0.960 . S
H2058 C2072 0.960 . S
H2059 C2072 0.960 . S
C2060 H2052 0.929 . S
C2060 C2061 1.377 . S
C2060 C2062 1.384 . S
C2061 C2060 1.377 . S
C2061 C2067 1.390 . S
C2062 H2053 0.930 . S
C2062 C2060 1.384 . S
C2062 C2063 1.372 . S
C2063 C2062 1.372 . S
C2063 C2064 1.400 . S
C2063 C2068 1.490 . S
C2064 H2054 0.930 . S
C2064 C2063 1.400 . S
C2064 C2067 1.386 . S
H2065 C2081 0.930 . S
H2066 C2082 0.931 . S
C2067 H2055 0.929 . S
C2067 C2061 1.390 . S
C2067 C2064 1.386 . S
C2068 C2063 1.490 . S
C2068 C2070 1.395 . S
C2068 C2071 1.403 . S
H2069 C2075 0.930 . S
C2070 H2056 0.930 . S
C2070 C2068 1.395 . S
C2070 C2073 1.403 . S
C2071 C2068 1.403 . S
C2071 C2072 1.524 . S
C2071 C2075 1.400 . S
C2072 H2057 0.960 . S
C2072 H2058 0.960 . S
C2072 H2059 0.960 . S
C2072 C2071 1.524 . S
C2073 C2070 1.403 . S
C2073 C2074 1.392 . S
C2073 C2077 1.495 . S
C2074 C2073 1.392 . S
C2074 C2075 1.385 . S
C2074 C2076 1.478 . S
C2075 H2069 0.930 . S
C2075 C2071 1.400 . S
C2075 C2074 1.385 . S
C2076 C2074 1.478 . S
C2076 C2078 1.381 . S
C2076 C2082 1.383 . S
C2077 C2073 1.495 . S
C2077 H2083 0.959 . S
C2077 H2084 0.961 . S
C2077 H2085 0.960 . S
C2078 C2076 1.381 . S
C2078 C2079 1.394 . S
C2078 H2086 0.930 . S
C2079 C2078 1.394 . S
C2079 C2080 1.383 . S
C2079 H2087 0.929 . S
C2080 C2079 1.383 . S
C2080 C2081 1.377 . S
C2081 H2065 0.930 . S
C2081 C2080 1.377 . S
C2081 C2082 1.379 . S
C2082 H2066 0.931 . S
C2082 C2076 1.383 . S
C2082 C2081 1.379 . S
H2083 C2077 0.959 . S
H2084 C2077 0.961 . S
H2085 C2077 0.960 . S
H2086 C2078 0.930 . S
H2087 C2079 0.929 . S
H2088 C2096 0.929 . S
H2089 C2098 0.930 . S
H2090 C2100 0.930 . S
H2091 C2103 0.929 . S
H2092 C2106 0.930 . S
H2093 C2108 0.960 . S
H2094 C2108 0.960 . S
H2095 C2108 0.960 . S
C2096 H2088 0.929 . S
C2096 C2097 1.377 . S
C2096 C2098 1.384 . S
C2097 C2096 1.377 . S
C2097 C2103 1.390 . S
C2098 H2089 0.930 . S
C2098 C2096 1.384 . S
C2098 C2099 1.372 . S
C2099 C2098 1.372 . S
C2099 C2100 1.400 . S
C2099 C2104 1.490 . S
C2100 H2090 0.930 . S
C2100 C2099 1.400 . S
C2100 C2103 1.386 . S
H2101 C2117 0.930 . S
H2102 C2118 0.931 . S
C2103 H2091 0.929 . S
C2103 C2097 1.390 . S
C2103 C2100 1.386 . S
C2104 C2099 1.490 . S
C2104 C2106 1.395 . S
C2104 C2107 1.403 . S
H2105 C2111 0.930 . S
C2106 H2092 0.930 . S
C2106 C2104 1.395 . S
C2106 C2109 1.403 . S
C2107 C2104 1.403 . S
C2107 C2108 1.524 . S
C2107 C2111 1.400 . S
C2108 H2093 0.960 . S
C2108 H2094 0.960 . S
C2108 H2095 0.960 . S
C2108 C2107 1.524 . S
C2109 C2106 1.403 . S
C2109 C2110 1.392 . S
C2109 C2113 1.495 . S
C2110 C2109 1.392 . S
C2110 C2111 1.385 . S
C2110 C2112 1.478 . S
C2111 H2105 0.930 . S
C2111 C2107 1.400 . S
C2111 C2110 1.385 . S
C2112 C2110 1.478 . S
C2112 C2114 1.381 . S
C2112 C2118 1.383 . S
C2113 C2109 1.495 . S
C2113 H2119 0.959 . S
C2113 H2120 0.961 . S
C2113 H2121 0.960 . S
C2114 C2112 1.381 . S
C2114 C2115 1.394 . S
C2114 H2122 0.930 . S
C2115 C2114 1.394 . S
C2115 C2116 1.383 . S
C2115 H2123 0.929 . S
C2116 C2115 1.383 . S
C2116 C2117 1.377 . S
C2117 H2101 0.930 . S
C2117 C2116 1.377 . S
C2117 C2118 1.379 . S
C2118 H2102 0.931 . S
C2118 C2112 1.383 . S
C2118 C2117 1.379 . S
H2119 C2113 0.959 . S
H2120 C2113 0.961 . S
H2121 C2113 0.960 . S
H2122 C2114 0.930 . S
H2123 C2115 0.929 . S
H2124 C2132 0.929 . S
H2125 C2134 0.930 . S
H2126 C2136 0.930 . S
H2127 C2139 0.929 . S
H2128 C2142 0.930 . S
H2129 C2144 0.960 . S
H2130 C2144 0.960 . S
H2131 C2144 0.960 . S
C2132 H2124 0.929 . S
C2132 C2133 1.377 . S
C2132 C2134 1.384 . S
C2133 C2132 1.377 . S
C2133 C2139 1.390 . S
C2134 H2125 0.930 . S
C2134 C2132 1.384 . S
C2134 C2135 1.372 . S
C2135 C2134 1.372 . S
C2135 C2136 1.400 . S
C2135 C2140 1.490 . S
C2136 H2126 0.930 . S
C2136 C2135 1.400 . S
C2136 C2139 1.386 . S
H2137 C2153 0.930 . S
H2138 C2154 0.931 . S
C2139 H2127 0.929 . S
C2139 C2133 1.390 . S
C2139 C2136 1.386 . S
C2140 C2135 1.490 . S
C2140 C2142 1.395 . S
C2140 C2143 1.403 . S
H2141 C2147 0.930 . S
C2142 H2128 0.930 . S
C2142 C2140 1.395 . S
C2142 C2145 1.403 . S
C2143 C2140 1.403 . S
C2143 C2144 1.524 . S
C2143 C2147 1.400 . S
C2144 H2129 0.960 . S
C2144 H2130 0.960 . S
C2144 H2131 0.960 . S
C2144 C2143 1.524 . S
C2145 C2142 1.403 . S
C2145 C2146 1.392 . S
C2145 C2149 1.495 . S
C2146 C2145 1.392 . S
C2146 C2147 1.385 . S
C2146 C2148 1.478 . S
C2147 H2141 0.930 . S
C2147 C2143 1.400 . S
C2147 C2146 1.385 . S
C2148 C2146 1.478 . S
C2148 C2150 1.381 . S
C2148 C2154 1.383 . S
C2149 C2145 1.495 . S
C2149 H2155 0.959 . S
C2149 H2156 0.961 . S
C2149 H2157 0.960 . S
C2150 C2148 1.381 . S
C2150 C2151 1.394 . S
C2150 H2158 0.930 . S
C2151 C2150 1.394 . S
C2151 C2152 1.383 . S
C2151 H2159 0.929 . S
C2152 C2151 1.383 . S
C2152 C2153 1.377 . S
C2153 H2137 0.930 . S
C2153 C2152 1.377 . S
C2153 C2154 1.379 . S
C2154 H2138 0.931 . S
C2154 C2148 1.383 . S
C2154 C2153 1.379 . S
H2155 C2149 0.959 . S
H2156 C2149 0.961 . S
H2157 C2149 0.960 . S
H2158 C2150 0.930 . S
H2159 C2151 0.929 . S
H2160 C2168 0.929 . S
H2161 C2170 0.930 . S
H2162 C2172 0.930 . S
H2163 C2175 0.929 . S
H2164 C2178 0.930 . S
H2165 C2180 0.960 . S
H2166 C2180 0.960 . S
H2167 C2180 0.960 . S
C2168 H2160 0.929 . S
C2168 C2169 1.377 . S
C2168 C2170 1.384 . S
C2169 C2168 1.377 . S
C2169 C2175 1.390 . S
C2170 H2161 0.930 . S
C2170 C2168 1.384 . S
C2170 C2171 1.372 . S
C2171 C2170 1.372 . S
C2171 C2172 1.400 . S
C2171 C2176 1.490 . S
C2172 H2162 0.930 . S
C2172 C2171 1.400 . S
C2172 C2175 1.386 . S
H2173 C2189 0.930 . S
H2174 C2190 0.931 . S
C2175 H2163 0.929 . S
C2175 C2169 1.390 . S
C2175 C2172 1.386 . S
C2176 C2171 1.490 . S
C2176 C2178 1.395 . S
C2176 C2179 1.403 . S
H2177 C2183 0.930 . S
C2178 H2164 0.930 . S
C2178 C2176 1.395 . S
C2178 C2181 1.403 . S
C2179 C2176 1.403 . S
C2179 C2180 1.524 . S
C2179 C2183 1.400 . S
C2180 H2165 0.960 . S
C2180 H2166 0.960 . S
C2180 H2167 0.960 . S
C2180 C2179 1.524 . S
C2181 C2178 1.403 . S
C2181 C2182 1.392 . S
C2181 C2185 1.495 . S
C2182 C2181 1.392 . S
C2182 C2183 1.385 . S
C2182 C2184 1.478 . S
C2183 H2177 0.930 . S
C2183 C2179 1.400 . S
C2183 C2182 1.385 . S
C2184 C2182 1.478 . S
C2184 C2186 1.381 . S
C2184 C2190 1.383 . S
C2185 C2181 1.495 . S
C2185 H2191 0.959 . S
C2185 H2192 0.961 . S
C2185 H2193 0.960 . S
C2186 C2184 1.381 . S
C2186 C2187 1.394 . S
C2186 H2194 0.930 . S
C2187 C2186 1.394 . S
C2187 C2188 1.383 . S
C2187 H2195 0.929 . S
C2188 C2187 1.383 . S
C2188 C2189 1.377 . S
C2189 H2173 0.930 . S
C2189 C2188 1.377 . S
C2189 C2190 1.379 . S
C2190 H2174 0.931 . S
C2190 C2184 1.383 . S
C2190 C2189 1.379 . S
H2191 C2185 0.959 . S
H2192 C2185 0.961 . S
H2193 C2185 0.960 . S
H2194 C2186 0.930 . S
H2195 C2187 0.929 . S
H2196 C2204 0.929 . S
H2197 C2206 0.930 . S
H2198 C2208 0.930 . S
H2199 C2211 0.929 . S
H2200 C2214 0.930 . S
H2201 C2216 0.960 . S
H2202 C2216 0.960 . S
H2203 C2216 0.960 . S
C2204 H2196 0.929 . S
C2204 C2205 1.377 . S
C2204 C2206 1.384 . S
C2205 C2204 1.377 . S
C2205 C2211 1.390 . S
C2206 H2197 0.930 . S
C2206 C2204 1.384 . S
C2206 C2207 1.372 . S
C2207 C2206 1.372 . S
C2207 C2208 1.400 . S
C2207 C2212 1.490 . S
C2208 H2198 0.930 . S
C2208 C2207 1.400 . S
C2208 C2211 1.386 . S
H2209 C2225 0.930 . S
H2210 C2226 0.931 . S
C2211 H2199 0.929 . S
C2211 C2205 1.390 . S
C2211 C2208 1.386 . S
C2212 C2207 1.490 . S
C2212 C2214 1.395 . S
C2212 C2215 1.403 . S
H2213 C2219 0.930 . S
C2214 H2200 0.930 . S
C2214 C2212 1.395 . S
C2214 C2217 1.403 . S
C2215 C2212 1.403 . S
C2215 C2216 1.524 . S
C2215 C2219 1.400 . S
C2216 H2201 0.960 . S
C2216 H2202 0.960 . S
C2216 H2203 0.960 . S
C2216 C2215 1.524 . S
C2217 C2214 1.403 . S
C2217 C2218 1.392 . S
C2217 C2221 1.495 . S
C2218 C2217 1.392 . S
C2218 C2219 1.385 . S
C2218 C2220 1.478 . S
C2219 H2213 0.930 . S
C2219 C2215 1.400 . S
C2219 C2218 1.385 . S
C2220 C2218 1.478 . S
C2220 C2222 1.381 . S
C2220 C2226 1.383 . S
C2221 C2217 1.495 . S
C2221 H2227 0.959 . S
C2221 H2228 0.961 . S
C2221 H2229 0.960 . S
C2222 C2220 1.381 . S
C2222 C2223 1.394 . S
C2222 H2230 0.930 . S
C2223 C2222 1.394 . S
C2223 C2224 1.383 . S
C2223 H2231 0.929 . S
C2224 C2223 1.383 . S
C2224 C2225 1.377 . S
C2225 H2209 0.930 . S
C2225 C2224 1.377 . S
C2225 C2226 1.379 . S
C2226 H2210 0.931 . S
C2226 C2220 1.383 . S
C2226 C2225 1.379 . S
H2227 C2221 0.959 . S
H2228 C2221 0.961 . S
H2229 C2221 0.960 . S
H2230 C2222 0.930 . S
H2231 C2223 0.929 . S
H2232 C2240 0.929 . S
H2233 C2242 0.930 . S
H2234 C2244 0.930 . S
H2235 C2247 0.929 . S
H2236 C2250 0.930 . S
H2237 C2252 0.960 . S
H2238 C2252 0.960 . S
H2239 C2252 0.960 . S
C2240 H2232 0.929 . S
C2240 C2241 1.377 . S
C2240 C2242 1.384 . S
C2241 C2240 1.377 . S
C2241 C2247 1.390 . S
C2242 H2233 0.930 . S
C2242 C2240 1.384 . S
C2242 C2243 1.372 . S
C2243 C2242 1.372 . S
C2243 C2244 1.400 . S
C2243 C2248 1.490 . S
C2244 H2234 0.930 . S
C2244 C2243 1.400 . S
C2244 C2247 1.386 . S
H2245 C2261 0.930 . S
H2246 C2262 0.931 . S
C2247 H2235 0.929 . S
C2247 C2241 1.390 . S
C2247 C2244 1.386 . S
C2248 C2243 1.490 . S
C2248 C2250 1.395 . S
C2248 C2251 1.403 . S
H2249 C2255 0.930 . S
C2250 H2236 0.930 . S
C2250 C2248 1.395 . S
C2250 C2253 1.403 . S
C2251 C2248 1.403 . S
C2251 C2252 1.524 . S
C2251 C2255 1.400 . S
C2252 H2237 0.960 . S
C2252 H2238 0.960 . S
C2252 H2239 0.960 . S
C2252 C2251 1.524 . S
C2253 C2250 1.403 . S
C2253 C2254 1.392 . S
C2253 C2257 1.495 . S
C2254 C2253 1.392 . S
C2254 C2255 1.385 . S
C2254 C2256 1.478 . S
C2255 H2249 0.930 . S
C2255 C2251 1.400 . S
C2255 C2254 1.385 . S
C2256 C2254 1.478 . S
C2256 C2258 1.381 . S
C2256 C2262 1.383 . S
C2257 C2253 1.495 . S
C2257 H2263 0.959 . S
C2257 H2264 0.961 . S
C2257 H2265 0.960 . S
C2258 C2256 1.381 . S
C2258 C2259 1.394 . S
C2258 H2266 0.930 . S
C2259 C2258 1.394 . S
C2259 C2260 1.383 . S
C2259 H2267 0.929 . S
C2260 C2259 1.383 . S
C2260 C2261 1.377 . S
C2261 H2245 0.930 . S
C2261 C2260 1.377 . S
C2261 C2262 1.379 . S
C2262 H2246 0.931 . S
C2262 C2256 1.383 . S
C2262 C2261 1.379 . S
H2263 C2257 0.959 . S
H2264 C2257 0.961 . S
H2265 C2257 0.960 . S
H2266 C2258 0.930 . S
H2267 C2259 0.929 . S
H2268 C2276 0.929 . S
H2269 C2278 0.930 . S
H2270 C2280 0.930 . S
H2271 C2283 0.929 . S
H2272 C2286 0.930 . S
H2273 C2288 0.960 . S
H2274 C2288 0.960 . S
H2275 C2288 0.960 . S
C2276 H2268 0.929 . S
C2276 C2277 1.377 . S
C2276 C2278 1.384 . S
C2277 C2276 1.377 . S
C2277 C2283 1.390 . S
C2278 H2269 0.930 . S
C2278 C2276 1.384 . S
C2278 C2279 1.372 . S
C2279 C2278 1.372 . S
C2279 C2280 1.400 . S
C2279 C2284 1.490 . S
C2280 H2270 0.930 . S
C2280 C2279 1.400 . S
C2280 C2283 1.386 . S
H2281 C2297 0.930 . S
H2282 C2298 0.931 . S
C2283 H2271 0.929 . S
C2283 C2277 1.390 . S
C2283 C2280 1.386 . S
C2284 C2279 1.490 . S
C2284 C2286 1.395 . S
C2284 C2287 1.403 . S
H2285 C2291 0.930 . S
C2286 H2272 0.930 . S
C2286 C2284 1.395 . S
C2286 C2289 1.403 . S
C2287 C2284 1.403 . S
C2287 C2288 1.524 . S
C2287 C2291 1.400 . S
C2288 H2273 0.960 . S
C2288 H2274 0.960 . S
C2288 H2275 0.960 . S
C2288 C2287 1.524 . S
C2289 C2286 1.403 . S
C2289 C2290 1.392 . S
C2289 C2293 1.495 . S
C2290 C2289 1.392 . S
C2290 C2291 1.385 . S
C2290 C2292 1.478 . S
C2291 H2285 0.930 . S
C2291 C2287 1.400 . S
C2291 C2290 1.385 . S
C2292 C2290 1.478 . S
C2292 C2294 1.381 . S
C2292 C2298 1.383 . S
C2293 C2289 1.495 . S
C2293 H2299 0.959 . S
C2293 H2300 0.961 . S
C2293 H2301 0.960 . S
C2294 C2292 1.381 . S
C2294 C2295 1.394 . S
C2294 H2302 0.930 . S
C2295 C2294 1.394 . S
C2295 C2296 1.383 . S
C2295 H2303 0.929 . S
C2296 C2295 1.383 . S
C2296 C2297 1.377 . S
C2297 H2281 0.930 . S
C2297 C2296 1.377 . S
C2297 C2298 1.379 . S
C2298 H2282 0.931 . S
C2298 C2292 1.383 . S
C2298 C2297 1.379 . S
H2299 C2293 0.959 . S
H2300 C2293 0.961 . S
H2301 C2293 0.960 . S
H2302 C2294 0.930 . S
H2303 C2295 0.929 . S
C1017 C231 1.192 . S
C1036 C56 1.290 . S
C1053 C324 1.182 . S
C1072 C151 1.274 . S
C1089 C224 1.283 . S
C1108 C399 1.180 . S
C1125 C319 1.281 . S
C1144 C492 1.152 . S
C1161 C63 1.192 . S
C1180 C392 1.289 . S
C1197 C156 1.185 . S
C1216 C487 1.264 . S
C1233 C912 1.170 . S
C1252 C571 1.308 . S
C1269 C644 1.273 . S
C1288 C987 1.195 . S
C1305 C739 1.279 . S
C1324 C576 1.163 . S
C1341 C812 1.271 . S
C1360 C651 1.146 . S
C1377 C907 1.284 . S
C1396 C744 1.127 . S
C1413 C819 1.189 . S
C1432 C980 1.268 . S
C1449 C327 1.967 . S
C1468 C66 1.984 . S
C1485 C159 1.977 . S
C1504 C402 1.957 . S
C1521 C234 1.977 . S
C1540 C495 1.949 . S
C1557 C579 1.977 . S
C1576 C822 1.948 . S
C1593 C654 1.973 . S
C1612 C915 1.945 . S
C1629 C747 1.971 . S
C1648 C990 1.992 . S
C1665 C663 2.147 . S
C1684 C75 2.162 . S
C1701 C150 2.148 . S
C1720 C738 2.125 . S
C1737 C831 2.147 . S
C1756 C243 2.163 . S
C1773 C318 2.154 . S
C1792 C906 2.163 . S
C1809 C411 2.147 . S
C1828 C999 2.163 . S
C1845 C570 2.154 . S
C1864 C486 2.145 . S
C1881 C240 1.311 . S
C1900 C67 1.382 . S
C1917 C140 1.400 . S
C1936 C315 1.270 . S
C1953 C235 1.409 . S
C1972 C408 1.289 . S
C1989 C308 1.410 . S
C2008 C483 1.349 . S
C2025 C72 1.296 . S
C2044 C403 1.434 . S
C2061 C147 1.296 . S
C2080 C476 1.374 . S
C2097 C903 1.313 . S
C2116 C560 1.439 . S
C2133 C655 1.410 . S
C2152 C996 1.283 . S
C2169 C728 1.402 . S
C2188 C567 1.255 . S
C2205 C660 1.311 . S
C2224 C823 1.394 . S
C2241 C896 1.406 . S
C2260 C735 1.259 . S
C2277 C991 1.410 . S
C2296 C828 1.295 . S
