# Generated by pormake.
# Topology tfs, (6)-cn, num edge types: 1
# Building blocks:
#     Node 0, Type 0, BuildingBlock: CUWYAW_clean_sbu_0, # of connection points: 6
#     Node 1, Type 0, BuildingBlock: CUWYAW_clean_sbu_0, # of connection points: 6
#     Node 2, Type 0, BuildingBlock: CUWYAW_clean_sbu_0, # of connection points: 6
#     Node 3, Type 0, BuildingBlock: CUWYAW_clean_sbu_0, # of connection points: 6
#     Node 4, Type 0, BuildingBlock: CUWYAW_clean_sbu_0, # of connection points: 6
#     Node 5, Type 0, BuildingBlock: CUWYAW_clean_sbu_0, # of connection points: 6
#     Edge 6, Type (0, 0), BuildingBlock: AJUNOK_clean_linker_0, # of connection points: 2
#     Edge 7, Type (0, 0), BuildingBlock: AJUNOK_clean_linker_0, # of connection points: 2
#     Edge 8, Type (0, 0), BuildingBlock: AJUNOK_clean_linker_0, # of connection points: 2
#     Edge 9, Type (0, 0), BuildingBlock: AJUNOK_clean_linker_0, # of connection points: 2
#     Edge 10, Type (0, 0), BuildingBlock: AJUNOK_clean_linker_0, # of connection points: 2
#     Edge 11, Type (0, 0), BuildingBlock: AJUNOK_clean_linker_0, # of connection points: 2
#     Edge 12, Type (0, 0), BuildingBlock: AJUNOK_clean_linker_0, # of connection points: 2
#     Edge 13, Type (0, 0), BuildingBlock: AJUNOK_clean_linker_0, # of connection points: 2
#     Edge 14, Type (0, 0), BuildingBlock: AJUNOK_clean_linker_0, # of connection points: 2
#     Edge 15, Type (0, 0), BuildingBlock: AJUNOK_clean_linker_0, # of connection points: 2
#     Edge 16, Type (0, 0), BuildingBlock: AJUNOK_clean_linker_0, # of connection points: 2
#     Edge 17, Type (0, 0), BuildingBlock: AJUNOK_clean_linker_0, # of connection points: 2
#     Edge 18, Type (0, 0), BuildingBlock: AJUNOK_clean_linker_0, # of connection points: 2
#     Edge 19, Type (0, 0), BuildingBlock: AJUNOK_clean_linker_0, # of connection points: 2
#     Edge 20, Type (0, 0), BuildingBlock: AJUNOK_clean_linker_0, # of connection points: 2
#     Edge 21, Type (0, 0), BuildingBlock: AJUNOK_clean_linker_0, # of connection points: 2
#     Edge 22, Type (0, 0), BuildingBlock: AJUNOK_clean_linker_0, # of connection points: 2
#     Edge 23, Type (0, 0), BuildingBlock: AJUNOK_clean_linker_0, # of connection points: 2
# Relax obj value: 0.567
# Max RMSD: 0.294
# Mean RMSD: 0.294
data_MOF--net-tfs--node1-CUWYAW_clean_sbu_0--edge1-AJUNOK_clean_linker_0
_symmetry_space_group_name_H-M    P1
_symmetry_Int_Tables_number       1
_symmetry_cell_setting            triclinic
loop_
_symmetry_equiv_pos_as_xyz
'x, y, z'
_cell_length_a     44.995197
_cell_length_b     44.997056
_cell_length_c     10.543966
_cell_angle_alpha  89.976967
_cell_angle_beta   90.095925
_cell_angle_gamma 120.07426
loop_
_atom_site_label
_atom_site_type_symbol
_atom_site_fract_x
_atom_site_fract_y
_atom_site_fract_z
_atom_type_partial_charge
C0 C 0.21602 0.35932 0.91214 0.0
Eu1 Eu 0.19569 0.40138 0.98988 0.0
C2 C 0.24201 0.34882 0.93062 0.0
C3 C 0.25445 0.34752 0.05158 0.0
C4 C 0.27659 0.33429 0.06702 0.0
C5 C 0.28655 0.32202 0.96196 0.0
C6 C 0.27485 0.32441 0.84073 0.0
C7 C 0.25273 0.33757 0.82541 0.0
C8 C 0.18704 0.41376 0.23601 0.0
C9 C 0.11713 0.3792 1.00425 0.0
C10 C 0.15815 0.5008 0.08214 0.0
Eu11 Eu 0.17865 0.45778 0.01978 0.0
C12 C 0.16928 0.53778 0.06992 0.0
C13 C 0.17067 0.55274 0.9512 0.0
C14 C 0.17946 0.58725 0.94261 0.0
C15 C 0.18703 0.60754 0.05235 0.0
C16 C 0.1862 0.59275 0.17066 0.0
C17 C 0.17722 0.5582 0.17938 0.0
C18 C 0.18858 0.44467 0.77556 0.0
C19 C 0.25832 0.48176 1.00665 0.0
O20 O 0.19381 0.35227 1.00339 0.0
O21 O 0.22586 0.38914 0.85912 0.0
O22 O 0.17893 0.38382 0.19138 0.0
O23 O 0.20175 0.43624 0.1511 0.0
O24 O 0.13919 0.37292 0.94512 0.0
O25 O 0.12803 0.40895 0.06221 0.0
O26 O 0.17608 0.49268 0.15775 0.0
O27 O 0.14833 0.48212 0.97899 0.0
O28 O 0.19865 0.47524 0.81932 0.0
O29 O 0.17261 0.42273 0.86057 0.0
O30 O 0.23577 0.49137 0.03378 0.0
O31 O 0.24874 0.44936 0.98056 0.0
H32 H 0.24657 0.35608 0.13429 0.0
H33 H 0.28529 0.33292 0.16154 0.0
H34 H 0.28279 0.31609 0.75752 0.0
H35 H 0.24348 0.3384 0.73125 0.0
H36 H 0.16475 0.53779 0.86482 0.0
H37 H 0.1805 0.59814 0.84996 0.0
H38 H 0.19188 0.60778 0.25678 0.0
H39 H 0.17613 0.54731 0.2721 0.0
C40 C 0.86157 0.20854 0.93302 0.0
Eu41 Eu 0.80049 0.19662 0.99743 0.0
C42 C 0.89816 0.23525 0.94603 0.0
C43 C 0.91243 0.25082 0.06331 0.0
C44 C 0.94769 0.27438 0.07396 0.0
C45 C 0.96934 0.28275 0.96775 0.0
C46 C 0.95471 0.26798 0.84988 0.0
C47 C 0.91956 0.24439 0.83938 0.0
C48 C 0.78049 0.1939 0.24324 0.0
C49 C 0.74322 0.11578 1.00055 0.0
C50 C 0.66668 0.16416 0.10839 0.0
Eu51 Eu 0.72626 0.17488 0.03016 0.0
C52 C 0.64224 0.17672 0.09158 0.0
C53 C 0.62999 0.17884 0.97104 0.0
C54 C 0.60459 0.18795 0.959 0.0
C55 C 0.59104 0.19516 0.06708 0.0
C56 C 0.60408 0.19406 0.18705 0.0
C57 C 0.62932 0.18477 0.19916 0.0
C58 C 0.74512 0.1777 0.78276 0.0
C59 C 0.78335 0.25715 0.0184 0.0
O60 O 0.84548 0.19177 0.03528 0.0
O61 O 0.84245 0.21566 0.85994 0.0
O62 O 0.80975 0.21759 0.19888 0.0
O63 O 0.76382 0.17233 0.1576 0.0
O64 O 0.77167 0.13959 0.94544 0.0
O65 O 0.72409 0.12471 0.06644 0.0
O66 O 0.69553 0.18436 0.16742 0.0
O67 O 0.67064 0.14784 0.01316 0.0
O68 O 0.71528 0.15562 0.82754 0.0
O69 O 0.7627 0.19896 0.86825 0.0
O70 O 0.75157 0.23304 0.04603 0.0
O71 O 0.80698 0.24937 0.98662 0.0
H72 H 0.89648 0.24442 0.1471 0.0
H73 H 0.95817 0.28542 0.1659 0.0
H74 H 0.97049 0.27459 0.76558 0.0
H75 H 0.90912 0.23292 0.74784 0.0
H76 H 0.63962 0.17297 0.88623 0.0
H77 H 0.59544 0.18924 0.86522 0.0
H78 H 0.59408 0.19949 0.27186 0.0
H79 H 0.63827 0.18319 0.29303 0.0
C80 C 0.65886 0.86059 0.92302 0.0
Eu81 Eu 0.60933 0.79956 0.98829 0.0
C82 C 0.6705 0.89751 0.93628 0.0
C83 C 0.64725 0.90951 0.94949 0.0
C84 C 0.65929 0.94486 0.95868 0.0
C85 C 0.69475 0.96881 0.95454 0.0
C86 C 0.71785 0.95651 0.9435 0.0
C87 C 0.70582 0.92127 0.9341 0.0
C88 C 0.59194 0.77917 0.23332 0.0
C89 C 0.63494 0.74371 0.99658 0.0
C90 C 0.50961 0.66409 0.09036 0.0
Eu91 Eu 0.55833 0.72468 0.01915 0.0
C92 C 0.47272 0.63927 0.06725 0.0
C93 C 0.4629 0.61317 0.976 0.0
C94 C 0.42839 0.58802 0.96074 0.0
C95 C 0.40292 0.58808 0.03747 0.0
C96 C 0.41261 0.61458 0.12685 0.0
C97 C 0.44713 0.63981 0.14197 0.0
C98 C 0.57478 0.74428 0.77267 0.0
C99 C 0.5308 0.7798 1.01068 0.0
O100 O 0.65966 0.84451 0.02502 0.0
O101 O 0.63165 0.84197 0.85318 0.0
O102 O 0.59719 0.80835 0.18928 0.0
O103 O 0.59749 0.76291 0.14807 0.0
O104 O 0.63889 0.77175 0.93998 0.0
O105 O 0.60672 0.72402 0.06079 0.0
O106 O 0.51754 0.69242 0.15177 0.0
O107 O 0.53101 0.66909 0.99807 0.0
O108 O 0.56811 0.71479 0.81747 0.0
O109 O 0.57011 0.76122 0.85776 0.0
O110 O 0.52441 0.74838 0.03608 0.0
O111 O 0.56196 0.8046 0.98008 0.0
H112 H 0.61985 0.89162 0.952 0.0
H113 H 0.64084 0.95352 0.96736 0.0
H114 H 0.7453 0.97413 0.94334 0.0
H115 H 0.7242 0.91252 0.92487 0.0
H116 H 0.48193 0.61183 0.91735 0.0
H117 H 0.42167 0.56841 0.8891 0.0
H118 H 0.39356 0.61528 0.18749 0.0
H119 H 0.4538 0.65934 0.21392 0.0
C120 C 0.80579 0.65918 0.92816 0.0
Eu121 Eu 0.81568 0.60889 0.99645 0.0
C122 C 0.78033 0.67072 0.93945 0.0
C123 C 0.76582 0.67129 0.05677 0.0
C124 C 0.74317 0.68404 0.06554 0.0
C125 C 0.7345 0.69648 0.95736 0.0
C126 C 0.74857 0.69524 0.83979 0.0
C127 C 0.77134 0.68264 0.83116 0.0
C128 C 0.81753 0.59108 0.24246 0.0
C129 C 0.89592 0.63084 1.00795 0.0
C130 C 0.8464 0.50606 0.10909 0.0
Eu131 Eu 0.83548 0.55477 0.02986 0.0
C132 C 0.83578 0.46966 0.09121 0.0
C133 C 0.85821 0.45833 0.13024 0.0
C134 C 0.84941 0.42409 0.11368 0.0
C135 C 0.81801 0.4005 0.05703 0.0
C136 C 0.79528 0.4118 0.01924 0.0
C137 C 0.80417 0.44623 0.0357 0.0
C138 C 0.83331 0.57141 0.78234 0.0
C139 C 0.7538 0.53154 0.02153 0.0
O140 O 0.82236 0.65962 0.03085 0.0
O141 O 0.79744 0.63226 0.85724 0.0
O142 O 0.79482 0.5981 0.19808 0.0
O143 O 0.83886 0.59526 0.15704 0.0
O144 O 0.87309 0.63638 0.94942 0.0
O145 O 0.88561 0.60224 0.07204 0.0
O146 O 0.82439 0.51317 0.16206 0.0
O147 O 0.86329 0.52681 0.0158 0.0
O148 O 0.85468 0.56273 0.82731 0.0
O149 O 0.81231 0.56828 0.86772 0.0
O150 O 0.77741 0.52305 0.04691 0.0
O151 O 0.76223 0.56319 0.98951 0.0
H152 H 0.7722 0.66218 0.14193 0.0
H153 H 0.73274 0.68458 0.15747 0.0
H154 H 0.74174 0.70371 0.75407 0.0
H155 H 0.78209 0.68235 0.7396 0.0
H156 H 0.88263 0.47603 0.17384 0.0
H157 H 0.86707 0.41599 0.14642 0.0
H158 H 0.77089 0.39412 0.97558 0.0
H159 H 0.78653 0.45457 1.0049 0.0
C160 C 0.15078 0.80559 0.93783 0.0
Eu161 Eu 0.211 0.81481 1.0022 0.0
C162 C 0.11385 0.77958 0.95133 0.0
C163 C 0.09813 0.76986 0.07111 0.0
C164 C 0.06298 0.74619 0.08146 0.0
C165 C 0.04273 0.73146 0.97253 0.0
C166 C 0.05843 0.74137 0.85283 0.0
C167 C 0.09359 0.76516 0.84242 0.0
C168 C 0.22999 0.81463 0.24727 0.0
C169 C 0.27042 0.8946 0.01726 0.0
C170 C 0.34409 0.84198 0.10356 0.0
Eu171 Eu 0.28445 0.83326 0.03389 0.0
C172 C 0.36865 0.82973 0.07914 0.0
C173 C 0.39173 0.84257 0.97662 0.0
C174 C 0.41697 0.83336 0.96124 0.0
C175 C 0.41971 0.81111 0.04784 0.0
C176 C 0.39655 0.79812 0.14983 0.0
C177 C 0.37135 0.80737 0.16539 0.0
C178 C 0.26462 0.83049 0.78691 0.0
C179 C 0.22469 0.75196 0.02545 0.0
O180 O 0.16744 0.82201 0.04002 0.0
O181 O 0.16923 0.7978 0.86402 0.0
O182 O 0.20032 0.79255 0.20044 0.0
O183 O 0.24784 0.8367 0.16449 0.0
O184 O 0.24203 0.8723 0.95719 0.0
O185 O 0.28828 0.88364 0.08071 0.0
O186 O 0.31527 0.82111 0.1613 0.0
O187 O 0.34007 0.85999 0.01482 0.0
O188 O 0.29479 0.85235 0.82975 0.0
O189 O 0.24727 0.81003 0.87402 0.0
O190 O 0.25676 0.7751 0.0545 0.0
O191 O 0.20215 0.76104 0.99079 0.0
H192 H 0.11288 0.78067 0.15705 0.0
H193 H 0.05155 0.7397 0.17498 0.0
H194 H 0.04356 0.73044 0.76719 0.0
H195 H 0.10498 0.77238 0.74894 0.0
H196 H 0.39075 0.86024 0.90927 0.0
H197 H 0.43447 0.84375 0.88178 0.0
H198 H 0.39849 0.78152 0.2197 0.0
H199 H 0.35446 0.79759 0.24674 0.0
C200 C 0.35376 0.15018 0.94988 0.0
Eu201 Eu 0.40357 0.21114 0.01466 0.0
C202 C 0.343 0.1133 0.964 0.0
C203 C 0.33554 0.09724 0.08348 0.0
C204 C 0.32373 0.06201 0.09383 0.0
C205 C 0.3193 0.04203 0.98519 0.0
C206 C 0.32669 0.0581 0.86582 0.0
C207 C 0.3384 0.09332 0.85542 0.0
C208 C 0.42177 0.23047 0.26031 0.0
C209 C 0.38066 0.2687 0.02132 0.0
C210 C 0.505 0.34569 0.12501 0.0
Eu211 Eu 0.45664 0.28545 0.04781 0.0
C212 C 0.54145 0.37142 0.10769 0.0
C213 C 0.5624 0.36631 0.02244 0.0
C214 C 0.5967 0.3921 1.00476 0.0
C215 C 0.61034 0.42337 0.07133 0.0
C216 C 0.58929 0.42795 0.15813 0.0
C217 C 0.55517 0.40224 0.17581 0.0
C218 C 0.4407 0.26568 0.80009 0.0
C219 C 0.48125 0.22814 0.03778 0.0
O220 O 0.35311 0.16672 0.05088 0.0
O221 O 0.38035 0.1689 0.87784 0.0
O222 O 0.41547 0.20121 0.21369 0.0
O223 O 0.41684 0.24772 0.17687 0.0
O224 O 0.37592 0.24051 0.96387 0.0
O225 O 0.40877 0.28737 0.08792 0.0
O226 O 0.49784 0.31688 0.18092 0.0
O227 O 0.48454 0.34114 0.02972 0.0
O228 O 0.4482 0.29563 0.84285 0.0
O229 O 0.44422 0.24866 0.88763 0.0
O230 O 0.48903 0.25985 0.06702 0.0
O231 O 0.44988 0.20466 1.00346 0.0
H232 H 0.33845 0.11175 0.1691 0.0
H233 H 0.31758 0.05031 0.18697 0.0
H234 H 0.32362 0.04345 0.78041 0.0
H235 H 0.34366 0.10494 0.76209 0.0
H236 H 0.55216 0.34261 0.96903 0.0
H237 H 0.61239 0.38786 0.93762 0.0
H238 H 0.59929 0.45139 0.21298 0.0
H239 H 0.53938 0.40654 0.24239 0.0
C240 C 0.36192 0.31162 0.06611 0.0
C241 C 0.3553 0.28065 1.00794 0.0
C242 C 0.33944 0.32451 0.05196 0.0
C243 C 0.30938 0.30711 0.97863 0.0
H244 H 0.38491 0.32642 0.12233 0.0
H245 H 0.34605 0.3487 0.09691 0.0
S246 S 0.27859 0.22389 0.81314 0.0
N247 N 0.31538 0.23218 0.87805 0.0
N248 N 0.27309 0.25631 0.85268 0.0
C249 C 0.30199 0.2758 0.92187 0.0
C250 C 0.32489 0.2626 0.93632 0.0
C251 C 0.05555 0.36126 0.05188 0.0
C252 C 0.07965 0.3536 0.99848 0.0
C253 C 0.02004 0.33815 0.043 0.0
C254 C 0.00712 0.30648 0.97985 0.0
H255 H 0.06407 0.3855 0.0998 0.0
H256 H 1.00254 0.34545 0.08377 0.0
S257 S 0.05897 0.27261 0.83182 0.0
N258 N 0.08765 0.31093 0.88512 0.0
N259 N 0.0212 0.26771 0.86986 0.0
C260 C 0.03085 0.29812 0.92856 0.0
C261 C 0.06698 0.32156 0.93759 0.0
C262 C 0.70675 0.05448 0.0696 0.0
C263 C 0.73201 0.07865 0.98747 0.0
C264 C 0.69485 0.01919 0.05804 0.0
C265 C 0.70763 0.00646 0.96377 0.0
H266 H 0.69609 0.06285 0.14425 0.0
H267 H 0.67571 1.00174 0.12454 0.0
S268 S 0.77226 0.05844 0.71901 0.0
N269 N 0.76848 0.08698 0.80524 0.0
N270 N 0.74583 0.02071 0.78277 0.0
C271 C 0.73265 0.03025 0.88015 0.0
C272 C 0.74489 0.06626 0.89216 0.0
C273 C 0.6794 0.69114 0.03571 0.0
C274 C 0.71011 0.70977 0.96711 0.0
C275 C 0.65565 0.70256 0.04511 0.0
C276 C 0.66148 0.7332 0.98645 0.0
H277 H 0.67334 0.66715 0.08107 0.0
H278 H 0.63235 0.6869 0.09842 0.0
S279 S 0.73895 0.79259 0.80109 0.0
N280 N 0.74587 0.76126 0.84389 0.0
N281 N 0.70108 0.78255 0.86002 0.0
C282 C 0.69234 0.75237 0.9187 0.0
C283 C 0.71661 0.74069 0.90925 0.0
C284 C 0.98099 0.70888 0.90981 0.0
C285 C 1.00539 0.70573 0.98365 0.0
C286 C 0.94569 0.6849 0.91922 0.0
C287 C 0.93335 0.65661 1.00213 0.0
H288 H 0.98921 0.73025 0.84492 0.0
H289 H 0.92801 0.68847 0.86014 0.0
S290 S 0.98696 0.63624 0.21408 0.0
N291 N 0.01484 0.67171 0.14026 0.0
N292 N 0.94888 0.62699 0.15951 0.0
C293 C 0.95762 0.6532 0.07641 0.0
C294 C 0.99347 0.67764 0.06687 0.0
C295 C 0.26809 0.94523 0.92665 0.0
C296 C 0.28267 0.93217 0.01285 0.0
C297 C 0.28008 0.98066 0.91803 0.0
C298 C 0.30692 0.00451 0.99604 0.0
H299 H 0.24747 0.92802 0.86415 0.0
H300 H 0.26802 0.98944 0.85031 0.0
S301 S 0.35413 0.98404 0.23721 0.0
N302 N 0.3256 0.94636 0.17845 0.0
N303 N 0.34809 0.0126 0.16086 0.0
C304 C 0.32163 0.99185 0.08291 0.0
C305 C 0.30956 0.95584 0.09156 0.0
C306 C 0.23487 0.70454 0.09616 0.0
C307 C 0.21422 0.7149 0.03078 0.0
C308 C 0.22579 0.66986 0.1032 0.0
C309 C 0.19593 0.6441 0.04386 0.0
H310 H 0.25821 0.72333 0.1433 0.0
H311 H 0.24253 0.66318 0.1544 0.0
S312 S 0.13271 0.65711 0.86181 0.0
N313 N 0.16219 0.69614 0.90604 0.0
N314 N 0.14532 0.63108 0.91949 0.0
C315 C 0.17501 0.65397 0.97818 0.0
C316 C 0.18407 0.68928 0.97178 0.0
C317 C 0.53966 0.2406 0.10768 0.0
C318 C 0.50886 0.21915 0.04218 0.0
C319 C 0.56608 0.23271 0.11495 0.0
C320 C 0.56297 0.20331 0.05565 0.0
H321 H 0.54337 0.26357 0.15513 0.0
H322 H 0.58923 0.24989 0.16685 0.0
S323 S 0.4879 0.13866 0.87187 0.0
N324 N 0.47702 0.16711 0.91623 0.0
N325 N 0.52673 0.15244 0.9302 0.0
C326 C 0.53251 0.18173 0.98914 0.0
C327 C 0.50544 0.18957 0.98251 0.0
C328 C 0.34024 0.56884 0.01944 0.0
C329 C 0.36637 0.56041 0.02583 0.0
C330 C 0.30556 0.54326 1.01168 0.0
C331 C 0.29547 0.50812 1.00996 0.0
H332 H 0.34666 0.59548 0.01995 0.0
H333 H 0.28651 0.55124 1.00706 0.0
S334 S 0.354 0.4724 0.03016 0.0
N335 N 0.37983 0.51443 0.03403 0.0
N336 N 0.31476 0.46634 0.01781 0.0
C337 C 0.32141 0.49933 0.01587 0.0
C338 C 0.35677 0.52544 0.02419 0.0
C339 C 0.77723 0.33728 0.08276 0.0
C340 C 0.80898 0.36409 0.03976 0.0
C341 C 0.76911 0.30287 0.07446 0.0
C342 C 0.79238 0.29384 0.02251 0.0
H343 H 0.75883 0.34298 0.12599 0.0
H344 H 0.74452 0.28326 0.11095 0.0
S345 S 0.8778 0.3546 0.8853 0.0
N346 N 0.86289 0.37937 0.93553 0.0
N347 N 0.84792 0.31494 0.92029 0.0
C348 C 0.82392 0.3205 0.97603 0.0
C349 C 0.83213 0.35551 0.98458 0.0
C350 C 0.48169 0.82853 0.01632 0.0
C351 C 0.44739 0.80238 0.03421 0.0
C352 C 0.5084 0.82103 1.00781 0.0
C353 C 0.50191 0.78704 0.01657 0.0
H354 H 0.48804 0.85512 1.01129 0.0
H355 H 0.53438 0.84217 0.99584 0.0
S356 S 0.41587 0.70892 0.05329 0.0
N357 N 0.40804 0.74105 0.05306 0.0
N358 N 0.45787 0.72672 0.03784 0.0
C359 C 0.46748 0.76056 0.03185 0.0
C360 C 0.44037 0.76827 0.04057 0.0
C361 C 0.70784 0.46989 0.0497 0.0
C362 C 0.71689 0.5044 0.02891 0.0
C363 C 0.67339 0.44379 0.06053 0.0
C364 C 0.64654 0.45111 0.05206 0.0
H365 H 0.72749 0.46282 0.05857 0.0
H366 H 0.66779 0.41778 0.07856 0.0
S367 S 0.65568 0.53654 0.99124 0.0
N368 N 0.69552 0.544 0.99562 0.0
N369 N 0.63098 0.49489 0.01549 0.0
C370 C 0.65502 0.48526 0.02894 0.0
C371 C 0.69009 0.51187 0.01738 0.0
C372 C 0.20172 0.46261 0.54713 0.0
C373 C 0.18869 0.43634 0.63898 0.0
C374 C 0.20098 0.45518 0.41708 0.0
C375 C 0.18721 0.42118 0.37374 0.0
H376 H 0.21239 0.48916 0.57571 0.0
H377 H 0.21133 0.47627 0.35013 0.0
S378 S 0.15053 0.34305 0.57577 0.0
N379 N 0.16219 0.37497 0.67704 0.0
N380 N 0.1606 0.361 0.43404 0.0
C381 C 0.1743 0.39471 0.46478 0.0
C382 C 0.17512 0.40228 0.59691 0.0
C383 C 0.78459 0.2096 0.60059 0.0
C384 C 0.75394 0.18137 0.64528 0.0
C385 C 0.79286 0.21359 0.47054 0.0
C386 C 0.77087 0.1895 0.38004 0.0
H387 H 0.80227 0.22886 0.66638 0.0
H388 H 0.81675 0.23573 0.44085 0.0
S389 S 0.68765 0.11082 0.44777 0.0
N390 N 0.70167 0.12874 0.58807 0.0
N391 N 0.7171 0.13634 0.34522 0.0
C392 C 0.74018 0.16118 0.42365 0.0
C393 C 0.73179 0.15709 0.55575 0.0
C394 C 0.58141 0.78343 0.59081 0.0
C395 C 0.57933 0.75293 0.63519 0.0
C396 C 0.58519 0.79159 0.46072 0.0
C397 C 0.58704 0.76958 0.36999 0.0
H398 H 0.58003 0.80112 0.65691 0.0
H399 H 0.58677 0.8154 0.4312 0.0
S400 S 0.58271 0.68648 0.4367 0.0
N401 N 0.57944 0.70064 0.5774 0.0
N402 N 0.58624 0.71582 0.33437 0.0
C403 C 0.58486 0.73897 0.41324 0.0
C404 C 0.58112 0.73072 0.54537 0.0
C405 C 0.80246 0.58073 0.6003 0.0
C406 C 0.82966 0.57651 0.64468 0.0
C407 C 0.79855 0.58515 0.4702 0.0
C408 C 0.82168 0.58554 0.37929 0.0
H409 H 0.78396 0.58053 0.66641 0.0
H410 H 0.77727 0.58839 0.44081 0.0
S411 S 0.8972 0.57539 0.44579 0.0
N412 N 0.88012 0.57302 0.58652 0.0
N413 N 0.87264 0.58103 0.34363 0.0
C414 C 0.84889 0.58121 0.42253 0.0
C415 C 0.85291 0.57681 0.55467 0.0
C416 C 0.26879 0.84627 0.43061 0.0
C417 C 0.23861 0.81766 0.38472 0.0
C418 C 0.27688 0.8502 0.56067 0.0
C419 C 0.25517 0.82565 0.65009 0.0
H420 H 0.28623 0.86598 0.36576 0.0
H421 H 0.30031 0.87276 0.59134 0.0
S422 S 0.17376 0.74525 0.57875 0.0
N423 N 0.18735 0.76384 0.43924 0.0
N424 N 0.20268 0.77112 0.68259 0.0
C425 C 0.22512 0.79671 0.60531 0.0
C426 C 0.21685 0.79273 0.47299 0.0
C427 C 0.43233 0.27726 0.57358 0.0
C428 C 0.43612 0.25615 0.6632 0.0
C429 C 0.42808 0.26903 0.44357 0.0
C430 C 0.42737 0.23929 0.39781 0.0
H431 H 0.4325 0.30033 0.60408 0.0
H432 H 0.42508 0.28601 0.37863 0.0
S433 S 0.43765 0.17612 0.59229 0.0
N434 N 0.44001 0.20473 0.69586 0.0
N435 N 0.4318 0.18912 0.45281 0.0
C436 C 0.43151 0.21814 0.48629 0.0
C437 C 0.43589 0.22657 0.61853 0.0
loop_
_geom_bond_atom_site_label_1
_geom_bond_atom_site_label_2
_geom_bond_distance
_geom_bond_site_symmetry_2
_ccdc_geom_bond_type
C0 Eu1 2.835 1_556 S
C0 C2 1.500 . S
C0 O20 1.257 . S
C0 O21 1.260 1_556 S
Eu1 C0 2.835 1_554 S
Eu1 O20 2.473 1_554 S
Eu1 O21 2.480 . S
Eu1 O22 2.430 . S
Eu1 O23 2.670 . S
Eu1 O24 2.394 . S
Eu1 O29 2.355 1_554 S
Eu1 O31 2.374 . S
C2 C0 1.500 . S
C2 C3 1.377 1_556 S
C2 C7 1.377 . S
C3 C2 1.377 1_554 S
C3 C4 1.395 . S
C3 H32 0.931 . S
C4 C3 1.395 . S
C4 C5 1.383 1_554 S
C4 H33 0.931 . S
C5 C4 1.383 1_556 S
C5 C6 1.394 . S
C6 C5 1.394 . S
C6 C7 1.378 . S
C6 H34 0.931 . S
C7 C2 1.377 . S
C7 C6 1.378 . S
C7 H35 0.931 . S
C8 O22 1.259 . S
C8 O23 1.270 . S
C9 O24 1.251 . S
C9 O25 1.251 . S
C10 Eu11 2.835 1_554 S
C10 C12 1.500 . S
C10 O26 1.257 . S
C10 O27 1.260 1_554 S
Eu11 C10 2.835 1_556 S
Eu11 O23 2.355 1_556 S
Eu11 O25 2.374 1_556 S
Eu11 O26 2.473 1_556 S
Eu11 O27 2.480 . S
Eu11 O28 2.430 . S
Eu11 O29 2.670 . S
Eu11 O30 2.394 . S
C12 C10 1.500 . S
C12 C13 1.377 1_554 S
C12 C17 1.377 . S
C13 C12 1.377 1_556 S
C13 C14 1.395 . S
C13 H36 0.931 . S
C14 C13 1.395 . S
C14 C15 1.383 1_556 S
C14 H37 0.931 . S
C15 C14 1.383 1_554 S
C15 C16 1.394 . S
C16 C15 1.394 . S
C16 C17 1.378 . S
C16 H38 0.931 . S
C17 C12 1.377 . S
C17 C16 1.378 . S
C17 H39 0.931 . S
C18 O28 1.259 . S
C18 O29 1.270 . S
C19 O30 1.251 . S
C19 O31 1.251 1_556 S
O20 C0 1.257 . S
O20 Eu1 2.473 1_556 S
O21 C0 1.260 1_554 S
O21 Eu1 2.480 . S
O22 Eu1 2.430 . S
O22 C8 1.259 . S
O23 Eu1 2.670 . S
O23 C8 1.270 . S
O23 Eu11 2.355 1_554 S
O24 Eu1 2.394 . S
O24 C9 1.251 . S
O25 C9 1.251 . S
O25 Eu11 2.374 1_554 S
O26 C10 1.257 . S
O26 Eu11 2.473 1_554 S
O27 C10 1.260 1_556 S
O27 Eu11 2.480 . S
O28 Eu11 2.430 . S
O28 C18 1.259 . S
O29 Eu1 2.355 1_556 S
O29 Eu11 2.670 . S
O29 C18 1.270 . S
O30 Eu11 2.394 . S
O30 C19 1.251 . S
O31 Eu1 2.374 . S
O31 C19 1.251 1_554 S
H32 C3 0.931 . S
H33 C4 0.931 . S
H34 C6 0.931 . S
H35 C7 0.931 . S
H36 C13 0.931 . S
H37 C14 0.931 . S
H38 C16 0.931 . S
H39 C17 0.931 . S
C40 Eu41 2.835 1_556 S
C40 C42 1.500 . S
C40 O60 1.257 . S
C40 O61 1.260 1_556 S
Eu41 C40 2.835 1_554 S
Eu41 O60 2.473 1_554 S
Eu41 O61 2.480 . S
Eu41 O62 2.430 . S
Eu41 O63 2.670 . S
Eu41 O64 2.394 . S
Eu41 O69 2.355 1_554 S
Eu41 O71 2.374 . S
C42 C40 1.500 . S
C42 C43 1.377 1_556 S
C42 C47 1.377 . S
C43 C42 1.377 1_554 S
C43 C44 1.395 . S
C43 H72 0.931 . S
C44 C43 1.395 . S
C44 C45 1.383 1_554 S
C44 H73 0.931 . S
C45 C44 1.383 1_556 S
C45 C46 1.394 . S
C46 C45 1.394 . S
C46 C47 1.378 . S
C46 H74 0.931 . S
C47 C42 1.377 . S
C47 C46 1.378 . S
C47 H75 0.931 . S
C48 O62 1.259 . S
C48 O63 1.270 . S
C49 O64 1.251 . S
C49 O65 1.251 . S
C50 Eu51 2.835 1_554 S
C50 C52 1.500 . S
C50 O66 1.257 . S
C50 O67 1.260 1_554 S
Eu51 C50 2.835 1_556 S
Eu51 O63 2.355 1_556 S
Eu51 O65 2.374 1_556 S
Eu51 O66 2.473 1_556 S
Eu51 O67 2.480 . S
Eu51 O68 2.430 . S
Eu51 O69 2.670 . S
Eu51 O70 2.394 . S
C52 C50 1.500 . S
C52 C53 1.377 1_554 S
C52 C57 1.377 . S
C53 C52 1.377 1_556 S
C53 C54 1.395 . S
C53 H76 0.931 . S
C54 C53 1.395 . S
C54 C55 1.383 1_556 S
C54 H77 0.931 . S
C55 C54 1.383 1_554 S
C55 C56 1.394 . S
C56 C55 1.394 . S
C56 C57 1.378 . S
C56 H78 0.931 . S
C57 C52 1.377 . S
C57 C56 1.378 . S
C57 H79 0.931 . S
C58 O68 1.259 . S
C58 O69 1.270 . S
C59 O70 1.251 . S
C59 O71 1.251 1_556 S
O60 C40 1.257 . S
O60 Eu41 2.473 1_556 S
O61 C40 1.260 1_554 S
O61 Eu41 2.480 . S
O62 Eu41 2.430 . S
O62 C48 1.259 . S
O63 Eu41 2.670 . S
O63 C48 1.270 . S
O63 Eu51 2.355 1_554 S
O64 Eu41 2.394 . S
O64 C49 1.251 . S
O65 C49 1.251 . S
O65 Eu51 2.374 1_554 S
O66 C50 1.257 . S
O66 Eu51 2.473 1_554 S
O67 C50 1.260 1_556 S
O67 Eu51 2.480 . S
O68 Eu51 2.430 . S
O68 C58 1.259 . S
O69 Eu41 2.355 1_556 S
O69 Eu51 2.670 . S
O69 C58 1.270 . S
O70 Eu51 2.394 . S
O70 C59 1.251 . S
O71 Eu41 2.374 . S
O71 C59 1.251 1_554 S
H72 C43 0.931 . S
H73 C44 0.931 . S
H74 C46 0.931 . S
H75 C47 0.931 . S
H76 C53 0.931 . S
H77 C54 0.931 . S
H78 C56 0.931 . S
H79 C57 0.931 . S
C80 Eu81 2.835 1_556 S
C80 C82 1.500 . S
C80 O100 1.257 . S
C80 O101 1.260 1_556 S
Eu81 C80 2.835 1_554 S
Eu81 O100 2.473 1_554 S
Eu81 O101 2.480 . S
Eu81 O102 2.430 . S
Eu81 O103 2.670 . S
Eu81 O104 2.394 . S
Eu81 O109 2.355 1_554 S
Eu81 O111 2.374 . S
C82 C80 1.500 . S
C82 C83 1.377 1_556 S
C82 C87 1.377 . S
C83 C82 1.377 1_554 S
C83 C84 1.395 . S
C83 H112 0.931 . S
C84 C83 1.395 . S
C84 C85 1.383 1_554 S
C84 H113 0.931 . S
C85 C84 1.383 1_556 S
C85 C86 1.394 . S
C86 C85 1.394 . S
C86 C87 1.378 . S
C86 H114 0.931 . S
C87 C82 1.377 . S
C87 C86 1.378 . S
C87 H115 0.931 . S
C88 O102 1.259 . S
C88 O103 1.270 . S
C89 O104 1.251 . S
C89 O105 1.251 . S
C90 Eu91 2.835 1_554 S
C90 C92 1.500 . S
C90 O106 1.257 . S
C90 O107 1.260 1_554 S
Eu91 C90 2.835 1_556 S
Eu91 O103 2.355 1_556 S
Eu91 O105 2.374 1_556 S
Eu91 O106 2.473 1_556 S
Eu91 O107 2.480 . S
Eu91 O108 2.430 . S
Eu91 O109 2.670 . S
Eu91 O110 2.394 . S
C92 C90 1.500 . S
C92 C93 1.377 1_554 S
C92 C97 1.377 . S
C93 C92 1.377 1_556 S
C93 C94 1.395 . S
C93 H116 0.931 . S
C94 C93 1.395 . S
C94 C95 1.383 1_556 S
C94 H117 0.931 . S
C95 C94 1.383 1_554 S
C95 C96 1.394 . S
C96 C95 1.394 . S
C96 C97 1.378 . S
C96 H118 0.931 . S
C97 C92 1.377 . S
C97 C96 1.378 . S
C97 H119 0.931 . S
C98 O108 1.259 . S
C98 O109 1.270 . S
C99 O110 1.251 . S
C99 O111 1.251 1_556 S
O100 C80 1.257 . S
O100 Eu81 2.473 1_556 S
O101 C80 1.260 1_554 S
O101 Eu81 2.480 . S
O102 Eu81 2.430 . S
O102 C88 1.259 . S
O103 Eu81 2.670 . S
O103 C88 1.270 . S
O103 Eu91 2.355 1_554 S
O104 Eu81 2.394 . S
O104 C89 1.251 . S
O105 C89 1.251 . S
O105 Eu91 2.374 1_554 S
O106 C90 1.257 . S
O106 Eu91 2.473 1_554 S
O107 C90 1.260 1_556 S
O107 Eu91 2.480 . S
O108 Eu91 2.430 . S
O108 C98 1.259 . S
O109 Eu81 2.355 1_556 S
O109 Eu91 2.670 . S
O109 C98 1.270 . S
O110 Eu91 2.394 . S
O110 C99 1.251 . S
O111 Eu81 2.374 . S
O111 C99 1.251 1_554 S
H112 C83 0.931 . S
H113 C84 0.931 . S
H114 C86 0.931 . S
H115 C87 0.931 . S
H116 C93 0.931 . S
H117 C94 0.931 . S
H118 C96 0.931 . S
H119 C97 0.931 . S
C120 Eu121 2.835 1_556 S
C120 C122 1.500 . S
C120 O140 1.257 . S
C120 O141 1.260 1_556 S
Eu121 C120 2.835 1_554 S
Eu121 O140 2.473 1_554 S
Eu121 O141 2.480 . S
Eu121 O142 2.430 . S
Eu121 O143 2.670 . S
Eu121 O144 2.394 . S
Eu121 O149 2.355 1_554 S
Eu121 O151 2.374 . S
C122 C120 1.500 . S
C122 C123 1.377 1_556 S
C122 C127 1.377 . S
C123 C122 1.377 1_554 S
C123 C124 1.395 . S
C123 H152 0.931 . S
C124 C123 1.395 . S
C124 C125 1.383 1_554 S
C124 H153 0.931 . S
C125 C124 1.383 1_556 S
C125 C126 1.394 . S
C126 C125 1.394 . S
C126 C127 1.378 . S
C126 H154 0.931 . S
C127 C122 1.377 . S
C127 C126 1.378 . S
C127 H155 0.931 . S
C128 O142 1.259 . S
C128 O143 1.270 . S
C129 O144 1.251 . S
C129 O145 1.251 . S
C130 Eu131 2.835 1_554 S
C130 C132 1.500 . S
C130 O146 1.257 . S
C130 O147 1.260 1_554 S
Eu131 C130 2.835 1_556 S
Eu131 O143 2.355 1_556 S
Eu131 O145 2.374 1_556 S
Eu131 O146 2.473 1_556 S
Eu131 O147 2.480 . S
Eu131 O148 2.430 . S
Eu131 O149 2.670 . S
Eu131 O150 2.394 . S
C132 C130 1.500 . S
C132 C133 1.377 1_554 S
C132 C137 1.377 . S
C133 C132 1.377 1_556 S
C133 C134 1.395 . S
C133 H156 0.931 . S
C134 C133 1.395 . S
C134 C135 1.383 1_556 S
C134 H157 0.931 . S
C135 C134 1.383 1_554 S
C135 C136 1.394 . S
C136 C135 1.394 . S
C136 C137 1.378 . S
C136 H158 0.931 . S
C137 C132 1.377 . S
C137 C136 1.378 . S
C137 H159 0.931 . S
C138 O148 1.259 . S
C138 O149 1.270 . S
C139 O150 1.251 . S
C139 O151 1.251 1_556 S
O140 C120 1.257 . S
O140 Eu121 2.473 1_556 S
O141 C120 1.260 1_554 S
O141 Eu121 2.480 . S
O142 Eu121 2.430 . S
O142 C128 1.259 . S
O143 Eu121 2.670 . S
O143 C128 1.270 . S
O143 Eu131 2.355 1_554 S
O144 Eu121 2.394 . S
O144 C129 1.251 . S
O145 C129 1.251 . S
O145 Eu131 2.374 1_554 S
O146 C130 1.257 . S
O146 Eu131 2.473 1_554 S
O147 C130 1.260 1_556 S
O147 Eu131 2.480 . S
O148 Eu131 2.430 . S
O148 C138 1.259 . S
O149 Eu121 2.355 1_556 S
O149 Eu131 2.670 . S
O149 C138 1.270 . S
O150 Eu131 2.394 . S
O150 C139 1.251 . S
O151 Eu121 2.374 . S
O151 C139 1.251 1_554 S
H152 C123 0.931 . S
H153 C124 0.931 . S
H154 C126 0.931 . S
H155 C127 0.931 . S
H156 C133 0.931 . S
H157 C134 0.931 . S
H158 C136 0.931 . S
H159 C137 0.931 . S
C160 Eu161 2.835 1_556 S
C160 C162 1.500 . S
C160 O180 1.257 . S
C160 O181 1.260 1_556 S
Eu161 C160 2.835 1_554 S
Eu161 O180 2.473 1_554 S
Eu161 O181 2.480 . S
Eu161 O182 2.430 . S
Eu161 O183 2.670 . S
Eu161 O184 2.394 . S
Eu161 O189 2.355 1_554 S
Eu161 O191 2.374 . S
C162 C160 1.500 . S
C162 C163 1.377 1_556 S
C162 C167 1.377 . S
C163 C162 1.377 1_554 S
C163 C164 1.395 . S
C163 H192 0.931 . S
C164 C163 1.395 . S
C164 C165 1.383 1_554 S
C164 H193 0.931 . S
C165 C164 1.383 1_556 S
C165 C166 1.394 . S
C166 C165 1.394 . S
C166 C167 1.378 . S
C166 H194 0.931 . S
C167 C162 1.377 . S
C167 C166 1.378 . S
C167 H195 0.931 . S
C168 O182 1.259 . S
C168 O183 1.270 . S
C169 O184 1.251 . S
C169 O185 1.251 . S
C170 Eu171 2.835 1_554 S
C170 C172 1.500 . S
C170 O186 1.257 . S
C170 O187 1.260 1_554 S
Eu171 C170 2.835 1_556 S
Eu171 O183 2.355 1_556 S
Eu171 O185 2.374 1_556 S
Eu171 O186 2.473 1_556 S
Eu171 O187 2.480 . S
Eu171 O188 2.430 . S
Eu171 O189 2.670 . S
Eu171 O190 2.394 . S
C172 C170 1.500 . S
C172 C173 1.377 1_554 S
C172 C177 1.377 . S
C173 C172 1.377 1_556 S
C173 C174 1.395 . S
C173 H196 0.931 . S
C174 C173 1.395 . S
C174 C175 1.383 1_556 S
C174 H197 0.931 . S
C175 C174 1.383 1_554 S
C175 C176 1.394 . S
C176 C175 1.394 . S
C176 C177 1.378 . S
C176 H198 0.931 . S
C177 C172 1.377 . S
C177 C176 1.378 . S
C177 H199 0.931 . S
C178 O188 1.259 . S
C178 O189 1.270 . S
C179 O190 1.251 . S
C179 O191 1.251 1_556 S
O180 C160 1.257 . S
O180 Eu161 2.473 1_556 S
O181 C160 1.260 1_554 S
O181 Eu161 2.480 . S
O182 Eu161 2.430 . S
O182 C168 1.259 . S
O183 Eu161 2.670 . S
O183 C168 1.270 . S
O183 Eu171 2.355 1_554 S
O184 Eu161 2.394 . S
O184 C169 1.251 . S
O185 C169 1.251 . S
O185 Eu171 2.374 1_554 S
O186 C170 1.257 . S
O186 Eu171 2.473 1_554 S
O187 C170 1.260 1_556 S
O187 Eu171 2.480 . S
O188 Eu171 2.430 . S
O188 C178 1.259 . S
O189 Eu161 2.355 1_556 S
O189 Eu171 2.670 . S
O189 C178 1.270 . S
O190 Eu171 2.394 . S
O190 C179 1.251 . S
O191 Eu161 2.374 . S
O191 C179 1.251 1_554 S
H192 C163 0.931 . S
H193 C164 0.931 . S
H194 C166 0.931 . S
H195 C167 0.931 . S
H196 C173 0.931 . S
H197 C174 0.931 . S
H198 C176 0.931 . S
H199 C177 0.931 . S
C200 Eu201 2.835 1_556 S
C200 C202 1.500 . S
C200 O220 1.257 . S
C200 O221 1.260 1_556 S
Eu201 C200 2.835 1_554 S
Eu201 O220 2.473 1_554 S
Eu201 O221 2.480 . S
Eu201 O222 2.430 . S
Eu201 O223 2.670 . S
Eu201 O224 2.394 . S
Eu201 O229 2.355 1_554 S
Eu201 O231 2.374 . S
C202 C200 1.500 . S
C202 C203 1.377 1_556 S
C202 C207 1.377 . S
C203 C202 1.377 1_554 S
C203 C204 1.395 . S
C203 H232 0.931 . S
C204 C203 1.395 . S
C204 C205 1.383 1_554 S
C204 H233 0.931 . S
C205 C204 1.383 1_556 S
C205 C206 1.394 . S
C206 C205 1.394 . S
C206 C207 1.378 . S
C206 H234 0.931 . S
C207 C202 1.377 . S
C207 C206 1.378 . S
C207 H235 0.931 . S
C208 O222 1.259 . S
C208 O223 1.270 . S
C209 O224 1.251 . S
C209 O225 1.251 . S
C210 Eu211 2.835 1_554 S
C210 C212 1.500 . S
C210 O226 1.257 . S
C210 O227 1.260 1_554 S
Eu211 C210 2.835 1_556 S
Eu211 O223 2.355 1_556 S
Eu211 O225 2.374 1_556 S
Eu211 O226 2.473 1_556 S
Eu211 O227 2.480 . S
Eu211 O228 2.430 . S
Eu211 O229 2.670 . S
Eu211 O230 2.394 . S
C212 C210 1.500 . S
C212 C213 1.377 1_554 S
C212 C217 1.377 . S
C213 C212 1.377 1_556 S
C213 C214 1.395 . S
C213 H236 0.931 . S
C214 C213 1.395 . S
C214 C215 1.383 1_556 S
C214 H237 0.931 . S
C215 C214 1.383 1_554 S
C215 C216 1.394 . S
C216 C215 1.394 . S
C216 C217 1.378 . S
C216 H238 0.931 . S
C217 C212 1.377 . S
C217 C216 1.378 . S
C217 H239 0.931 . S
C218 O228 1.259 . S
C218 O229 1.270 . S
C219 O230 1.251 . S
C219 O231 1.251 1_556 S
O220 C200 1.257 . S
O220 Eu201 2.473 1_556 S
O221 C200 1.260 1_554 S
O221 Eu201 2.480 . S
O222 Eu201 2.430 . S
O222 C208 1.259 . S
O223 Eu201 2.670 . S
O223 C208 1.270 . S
O223 Eu211 2.355 1_554 S
O224 Eu201 2.394 . S
O224 C209 1.251 . S
O225 C209 1.251 . S
O225 Eu211 2.374 1_554 S
O226 C210 1.257 . S
O226 Eu211 2.473 1_554 S
O227 C210 1.260 1_556 S
O227 Eu211 2.480 . S
O228 Eu211 2.430 . S
O228 C218 1.259 . S
O229 Eu201 2.355 1_556 S
O229 Eu211 2.670 . S
O229 C218 1.270 . S
O230 Eu211 2.394 . S
O230 C219 1.251 . S
O231 Eu201 2.374 . S
O231 C219 1.251 1_554 S
H232 C203 0.931 . S
H233 C204 0.931 . S
H234 C206 0.931 . S
H235 C207 0.931 . S
H236 C213 0.931 . S
H237 C214 0.931 . S
H238 C216 0.931 . S
H239 C217 0.931 . S
C240 C241 1.369 1_554 S
C240 C242 1.419 . S
C240 H244 0.930 . S
C241 C240 1.369 1_556 S
C241 C250 1.429 . S
C242 C240 1.419 . S
C242 C243 1.363 1_554 S
C242 H245 0.929 . S
C243 C242 1.363 1_556 S
C243 C249 1.428 . S
H244 C240 0.930 . S
H245 C242 0.929 . S
S246 N247 1.613 . S
S246 N248 1.610 . S
N247 S246 1.613 . S
N247 C250 1.350 . S
N248 S246 1.610 . S
N248 C249 1.351 . S
C249 C243 1.428 . S
C249 N248 1.351 . S
C249 C250 1.434 . S
C250 C241 1.429 . S
C250 N247 1.350 . S
C250 C249 1.434 . S
C251 C252 1.369 1_554 S
C251 C253 1.419 . S
C251 H255 0.930 . S
C252 C251 1.369 1_556 S
C252 C261 1.429 . S
C253 C251 1.419 . S
C253 C254 1.363 1_554 S
C253 H256 0.929 . S
C254 C253 1.363 1_556 S
C254 C260 1.428 . S
H255 C251 0.930 . S
H256 C253 0.929 . S
S257 N258 1.613 . S
S257 N259 1.610 . S
N258 S257 1.613 . S
N258 C261 1.350 . S
N259 S257 1.610 . S
N259 C260 1.351 . S
C260 C254 1.428 . S
C260 N259 1.351 . S
C260 C261 1.434 . S
C261 C252 1.429 . S
C261 N258 1.350 . S
C261 C260 1.434 . S
C262 C263 1.369 1_554 S
C262 C264 1.419 . S
C262 H266 0.930 . S
C263 C262 1.369 1_556 S
C263 C272 1.429 . S
C264 C262 1.419 . S
C264 C265 1.363 1_554 S
C264 H267 0.929 . S
C265 C264 1.363 1_556 S
C265 C271 1.428 . S
H266 C262 0.930 . S
H267 C264 0.929 . S
S268 N269 1.613 . S
S268 N270 1.610 . S
N269 S268 1.613 . S
N269 C272 1.350 . S
N270 S268 1.610 . S
N270 C271 1.351 . S
C271 C265 1.428 . S
C271 N270 1.351 . S
C271 C272 1.434 . S
C272 C263 1.429 . S
C272 N269 1.350 . S
C272 C271 1.434 . S
C273 C274 1.369 . S
C273 C275 1.419 1_556 S
C273 H277 0.930 1_556 S
C274 C273 1.369 . S
C274 C283 1.429 . S
C275 C273 1.419 1_554 S
C275 C276 1.363 1_554 S
C275 H278 0.929 . S
C276 C275 1.363 1_556 S
C276 C282 1.428 . S
H277 C273 0.930 1_554 S
H278 C275 0.929 . S
S279 N280 1.613 . S
S279 N281 1.610 . S
N280 S279 1.613 . S
N280 C283 1.350 . S
N281 S279 1.610 . S
N281 C282 1.351 . S
C282 C276 1.428 . S
C282 N281 1.351 . S
C282 C283 1.434 . S
C283 C274 1.429 . S
C283 N280 1.350 . S
C283 C282 1.434 . S
C284 C285 1.369 . S
C284 C286 1.419 . S
C284 H288 0.930 . S
C285 C284 1.369 . S
C285 C294 1.429 1_556 S
C286 C284 1.419 . S
C286 C287 1.363 . S
C286 H289 0.929 . S
C287 C286 1.363 . S
C287 C293 1.428 1_556 S
H288 C284 0.930 . S
H289 C286 0.929 . S
S290 N291 1.613 . S
S290 N292 1.610 . S
N291 S290 1.613 . S
N291 C294 1.350 . S
N292 S290 1.610 . S
N292 C293 1.351 . S
C293 C287 1.428 1_554 S
C293 N292 1.351 . S
C293 C294 1.434 . S
C294 C285 1.429 1_554 S
C294 N291 1.350 . S
C294 C293 1.434 . S
C295 C296 1.369 . S
C295 C297 1.419 . S
C295 H299 0.930 . S
C296 C295 1.369 . S
C296 C305 1.429 1_556 S
C297 C295 1.419 . S
C297 C298 1.363 . S
C297 H300 0.929 . S
C298 C297 1.363 . S
C298 C304 1.428 . S
H299 C295 0.930 . S
H300 C297 0.929 . S
S301 N302 1.613 . S
S301 N303 1.610 . S
N302 S301 1.613 . S
N302 C305 1.350 . S
N303 S301 1.610 . S
N303 C304 1.351 1_554 S
C304 C298 1.428 . S
C304 N303 1.351 1_556 S
C304 C305 1.434 1_556 S
C305 C296 1.429 1_554 S
C305 N302 1.350 . S
C305 C304 1.434 1_554 S
C306 C307 1.369 . S
C306 C308 1.419 . S
C306 H310 0.930 . S
C307 C306 1.369 . S
C307 C316 1.429 . S
C308 C306 1.419 . S
C308 C309 1.363 . S
C308 H311 0.929 . S
C309 C308 1.363 . S
C309 C315 1.428 . S
H310 C306 0.930 . S
H311 C308 0.929 . S
S312 N313 1.613 . S
S312 N314 1.610 . S
N313 S312 1.613 . S
N313 C316 1.350 . S
N314 S312 1.610 . S
N314 C315 1.351 . S
C315 C309 1.428 . S
C315 N314 1.351 . S
C315 C316 1.434 . S
C316 C307 1.429 . S
C316 N313 1.350 . S
C316 C315 1.434 . S
C317 C318 1.369 . S
C317 C319 1.419 . S
C317 H321 0.930 . S
C318 C317 1.369 . S
C318 C327 1.429 . S
C319 C317 1.419 . S
C319 C320 1.363 . S
C319 H322 0.929 . S
C320 C319 1.363 . S
C320 C326 1.428 . S
H321 C317 0.930 . S
H322 C319 0.929 . S
S323 N324 1.613 1_554 S
S323 N325 1.610 . S
N324 S323 1.613 1_556 S
N324 C327 1.350 1_556 S
N325 S323 1.610 . S
N325 C326 1.351 . S
C326 C320 1.428 . S
C326 N325 1.351 . S
C326 C327 1.434 . S
C327 C318 1.429 . S
C327 N324 1.350 1_554 S
C327 C326 1.434 . S
C328 C329 1.369 . S
C328 C330 1.419 . S
C328 H332 0.930 . S
C329 C328 1.369 . S
C329 C338 1.429 . S
C330 C328 1.419 . S
C330 C331 1.363 . S
C330 H333 0.929 . S
C331 C330 1.363 . S
C331 C337 1.428 1_554 S
H332 C328 0.930 . S
H333 C330 0.929 . S
S334 N335 1.613 1_556 S
S334 N336 1.610 . S
N335 S334 1.613 1_554 S
N335 C338 1.350 . S
N336 S334 1.610 . S
N336 C337 1.351 . S
C337 C331 1.428 1_556 S
C337 N336 1.351 . S
C337 C338 1.434 1_556 S
C338 C329 1.429 . S
C338 N335 1.350 . S
C338 C337 1.434 1_554 S
C339 C340 1.369 . S
C339 C341 1.419 . S
C339 H343 0.930 . S
C340 C339 1.369 . S
C340 C349 1.429 1_554 S
C341 C339 1.419 . S
C341 C342 1.363 . S
C341 H344 0.929 . S
C342 C341 1.363 . S
C342 C348 1.428 1_554 S
H343 C339 0.930 . S
H344 C341 0.929 . S
S345 N346 1.613 . S
S345 N347 1.610 . S
N346 S345 1.613 . S
N346 C349 1.350 . S
N347 S345 1.610 . S
N347 C348 1.351 . S
C348 C342 1.428 1_556 S
C348 N347 1.351 . S
C348 C349 1.434 . S
C349 C340 1.429 1_556 S
C349 N346 1.350 . S
C349 C348 1.434 . S
C350 C351 1.369 . S
C350 C352 1.419 . S
C350 H354 0.930 . S
C351 C350 1.369 . S
C351 C360 1.429 . S
C352 C350 1.419 . S
C352 C353 1.363 . S
C352 H355 0.929 . S
C353 C352 1.363 . S
C353 C359 1.428 1_554 S
H354 C350 0.930 . S
H355 C352 0.929 . S
S356 N357 1.613 . S
S356 N358 1.610 . S
N357 S356 1.613 . S
N357 C360 1.350 1_556 S
N358 S356 1.610 . S
N358 C359 1.351 . S
C359 C353 1.428 1_556 S
C359 N358 1.351 . S
C359 C360 1.434 1_556 S
C360 C351 1.429 . S
C360 N357 1.350 1_554 S
C360 C359 1.434 1_554 S
C361 C362 1.369 1_556 S
C361 C363 1.419 . S
C361 H365 0.930 . S
C362 C361 1.369 1_554 S
C362 C371 1.429 . S
C363 C361 1.419 . S
C363 C364 1.363 1_556 S
C363 H366 0.929 . S
C364 C363 1.363 1_554 S
C364 C370 1.428 . S
H365 C361 0.930 . S
H366 C363 0.929 . S
S367 N368 1.613 . S
S367 N369 1.610 . S
N368 S367 1.613 . S
N368 C371 1.350 . S
N369 S367 1.610 . S
N369 C370 1.351 . S
C370 C364 1.428 . S
C370 N369 1.351 . S
C370 C371 1.434 . S
C371 C362 1.429 . S
C371 N368 1.350 . S
C371 C370 1.434 . S
C372 C373 1.369 . S
C372 C374 1.419 . S
C372 H376 0.930 . S
C373 C372 1.369 . S
C373 C382 1.429 . S
C374 C372 1.419 . S
C374 C375 1.363 . S
C374 H377 0.929 . S
C375 C374 1.363 . S
C375 C381 1.428 . S
H376 C372 0.930 . S
H377 C374 0.929 . S
S378 N379 1.613 . S
S378 N380 1.610 . S
N379 S378 1.613 . S
N379 C382 1.350 . S
N380 S378 1.610 . S
N380 C381 1.351 . S
C381 C375 1.428 . S
C381 N380 1.351 . S
C381 C382 1.434 . S
C382 C373 1.429 . S
C382 N379 1.350 . S
C382 C381 1.434 . S
C383 C384 1.369 . S
C383 C385 1.419 . S
C383 H387 0.930 . S
C384 C383 1.369 . S
C384 C393 1.429 . S
C385 C383 1.419 . S
C385 C386 1.363 . S
C385 H388 0.929 . S
C386 C385 1.363 . S
C386 C392 1.428 . S
H387 C383 0.930 . S
H388 C385 0.929 . S
S389 N390 1.613 . S
S389 N391 1.610 . S
N390 S389 1.613 . S
N390 C393 1.350 . S
N391 S389 1.610 . S
N391 C392 1.351 . S
C392 C386 1.428 . S
C392 N391 1.351 . S
C392 C393 1.434 . S
C393 C384 1.429 . S
C393 N390 1.350 . S
C393 C392 1.434 . S
C394 C395 1.369 . S
C394 C396 1.419 . S
C394 H398 0.930 . S
C395 C394 1.369 . S
C395 C404 1.429 . S
C396 C394 1.419 . S
C396 C397 1.363 . S
C396 H399 0.929 . S
C397 C396 1.363 . S
C397 C403 1.428 . S
H398 C394 0.930 . S
H399 C396 0.929 . S
S400 N401 1.613 . S
S400 N402 1.610 . S
N401 S400 1.613 . S
N401 C404 1.350 . S
N402 S400 1.610 . S
N402 C403 1.351 . S
C403 C397 1.428 . S
C403 N402 1.351 . S
C403 C404 1.434 . S
C404 C395 1.429 . S
C404 N401 1.350 . S
C404 C403 1.434 . S
C405 C406 1.369 . S
C405 C407 1.419 . S
C405 H409 0.930 . S
C406 C405 1.369 . S
C406 C415 1.429 . S
C407 C405 1.419 . S
C407 C408 1.363 . S
C407 H410 0.929 . S
C408 C407 1.363 . S
C408 C414 1.428 . S
H409 C405 0.930 . S
H410 C407 0.929 . S
S411 N412 1.613 . S
S411 N413 1.610 . S
N412 S411 1.613 . S
N412 C415 1.350 . S
N413 S411 1.610 . S
N413 C414 1.351 . S
C414 C408 1.428 . S
C414 N413 1.351 . S
C414 C415 1.434 . S
C415 C406 1.429 . S
C415 N412 1.350 . S
C415 C414 1.434 . S
C416 C417 1.369 . S
C416 C418 1.419 . S
C416 H420 0.930 . S
C417 C416 1.369 . S
C417 C426 1.429 . S
C418 C416 1.419 . S
C418 C419 1.363 . S
C418 H421 0.929 . S
C419 C418 1.363 . S
C419 C425 1.428 . S
H420 C416 0.930 . S
H421 C418 0.929 . S
S422 N423 1.613 . S
S422 N424 1.610 . S
N423 S422 1.613 . S
N423 C426 1.350 . S
N424 S422 1.610 . S
N424 C425 1.351 . S
C425 C419 1.428 . S
C425 N424 1.351 . S
C425 C426 1.434 . S
C426 C417 1.429 . S
C426 N423 1.350 . S
C426 C425 1.434 . S
C427 C428 1.369 . S
C427 C429 1.419 . S
C427 H431 0.930 . S
C428 C427 1.369 . S
C428 C437 1.429 . S
C429 C427 1.419 . S
C429 C430 1.363 . S
C429 H432 0.929 . S
C430 C429 1.363 . S
C430 C436 1.428 . S
H431 C427 0.930 . S
H432 C429 0.929 . S
S433 N434 1.613 . S
S433 N435 1.610 . S
N434 S433 1.613 . S
N434 C437 1.350 . S
N435 S433 1.610 . S
N435 C436 1.351 . S
C436 C430 1.428 . S
C436 N435 1.351 . S
C436 C437 1.434 . S
C437 C428 1.429 . S
C437 N434 1.350 . S
C437 C436 1.434 . S
C241 C209 2.252 1_556 S
C243 C5 1.933 . S
C252 C9 2.252 1_556 S
C254 C45 1.935 1_455 S
C263 C49 2.251 1_556 S
C265 C85 1.928 1_545 S
C274 C125 1.938 . S
C276 C89 2.252 1_556 S
C285 C165 1.927 1_655 S
C287 C129 2.251 1_556 S
C296 C169 2.251 1_556 S
C298 C205 1.928 1_565 S
C307 C179 1.852 1_554 S
C309 C15 1.836 . S
C318 C219 1.851 1_554 S
C320 C55 1.836 . S
C329 C95 1.835 . S
C331 C19 1.851 1_554 S
C340 C135 1.835 . S
C342 C59 1.852 1_554 S
C351 C175 1.837 . S
C353 C99 1.853 1_554 S
C362 C139 1.852 1_554 S
C364 C215 1.838 . S
C373 C18 1.437 . S
C375 C8 1.430 . S
C384 C58 1.430 . S
C386 C48 1.436 . S
C395 C98 1.428 . S
C397 C88 1.438 . S
C406 C138 1.437 . S
C408 C128 1.431 . S
C417 C168 1.430 . S
C419 C178 1.436 . S
C428 C218 1.429 . S
C430 C208 1.437 . S
