# Generated by pormake.
# Topology sxc, (6)-cn, num edge types: 1
# Building blocks:
#     Node 0, Type 0, BuildingBlock: JUFBIX_clean_sbu_0, # of connection points: 6
#     Node 1, Type 0, BuildingBlock: JUFBIX_clean_sbu_0, # of connection points: 6
#     Node 2, Type 0, BuildingBlock: JUFBIX_clean_sbu_0, # of connection points: 6
#     Edge 3, Type (0, 0), BuildingBlock: XUDNAN_clean_linker_2, # of connection points: 2
#     Edge 4, Type (0, 0), BuildingBlock: XUDNAN_clean_linker_2, # of connection points: 2
#     Edge 5, Type (0, 0), BuildingBlock: XUDNAN_clean_linker_2, # of connection points: 2
#     Edge 6, Type (0, 0), BuildingBlock: XUDNAN_clean_linker_2, # of connection points: 2
#     Edge 7, Type (0, 0), BuildingBlock: XUDNAN_clean_linker_2, # of connection points: 2
#     Edge 8, Type (0, 0), BuildingBlock: XUDNAN_clean_linker_2, # of connection points: 2
#     Edge 9, Type (0, 0), BuildingBlock: XUDNAN_clean_linker_2, # of connection points: 2
#     Edge 10, Type (0, 0), BuildingBlock: XUDNAN_clean_linker_2, # of connection points: 2
#     Edge 11, Type (0, 0), BuildingBlock: XUDNAN_clean_linker_2, # of connection points: 2
# Relax obj value: 0.481
# Max RMSD: 0.153
# Mean RMSD: 0.152
data_MOF--net-sxc--node1-JUFBIX_clean_sbu_0--edge1-XUDNAN_clean_linker_2
_symmetry_space_group_name_H-M    P1
_symmetry_Int_Tables_number       1
_symmetry_cell_setting            triclinic
loop_
_symmetry_equiv_pos_as_xyz
'x, y, z'
_cell_length_a     15.555109
_cell_length_b     15.558817
_cell_length_c     44.512365
_cell_angle_alpha  92.796622
_cell_angle_beta   89.980842
_cell_angle_gamma 119.95893
loop_
_atom_site_label
_atom_site_type_symbol
_atom_site_fract_x
_atom_site_fract_y
_atom_site_fract_z
_atom_type_partial_charge
Co0 Co 0.20891 1.01849 0.01424 0.0
C1 C 0.14062 1.04337 0.9592 0.0
Co2 Co 0.12104 0.09074 0.01851 0.0
C3 C 0.31784 0.92168 0.02829 0.0
C4 C 0.36591 0.99947 0.98799 0.0
N5 N 0.29597 0.97225 0.00911 0.0
N6 N 0.39792 0.91504 0.02002 0.0
C7 C 0.42786 0.96327 0.99443 0.0
H8 H 0.27229 0.88535 0.04717 0.0
H9 H 0.3718 1.04332 0.96915 0.0
C10 C 0.18911 0.06444 0.0736 0.0
N11 N 1.03831 0.14108 0.02382 0.0
C12 C 1.05358 0.22702 0.01397 0.0
C13 C 0.96334 0.11285 0.04319 0.0
N14 N 0.99611 0.25822 0.02778 0.0
C15 C 0.93779 0.18562 0.0459 0.0
C16 C 1.00366 0.87423 0.01767 0.0
O17 O 0.2303 1.02842 0.05673 0.0
O18 O 0.1351 0.09372 0.06152 0.0
O19 O 1.00032 0.95475 0.01854 0.0
O20 O 0.0904 0.88328 0.01649 0.0
O21 O 0.10597 0.08831 0.97525 0.0
H22 H 0.93684 1.04938 0.05691 0.0
H23 H 0.11635 0.27308 1.00042 0.0
O24 O 0.18769 1.0078 0.97207 0.0
O25 O 0.32419 0.14879 0.01199 0.0
O26 O 0.24677 0.23093 0.01853 0.0
C27 C 0.32979 0.23294 0.01498 0.0
H28 H 0.48572 0.96577 0.98033 0.0
H29 H 0.88984 0.19079 0.06265 0.0
Co30 Co 0.21785 0.15524 0.35697 0.0
C31 C 0.18938 0.12882 0.29477 0.0
Co32 Co 1.06203 0.06757 0.34273 0.0
C33 C 0.41793 0.21034 0.37283 0.0
C34 C 0.40449 0.33902 0.36939 0.0
N35 N 0.35029 0.23849 0.36897 0.0
N36 N 0.51161 0.28774 0.37428 0.0
C37 C 0.50358 0.36923 0.37236 0.0
H38 H 0.40067 0.13385 0.37041 0.0
H39 H 0.37645 0.38792 0.36462 0.0
C40 C 0.09049 0.0931 0.4049 0.0
N41 N 0.93401 0.9861 0.32939 0.0
C42 C 0.8858 1.0081 0.30898 0.0
C43 C 0.8717 0.89029 0.33495 0.0
N44 N 0.79356 0.93192 0.30232 0.0
C45 C 0.78532 0.85676 0.31832 0.0
C46 C 0.15398 0.94694 0.35112 0.0
O47 O 0.18082 0.14465 0.39784 0.0
O48 O 1.02416 1.05038 0.384 0.0
O49 O 1.07526 0.9456 0.34246 0.0
O50 O 0.22788 1.03244 0.35898 0.0
O51 O 0.0993 0.08441 0.30208 0.0
H52 H 0.8865 0.84862 0.35088 0.0
H53 H 0.91453 0.08232 0.30129 0.0
O54 O 0.25637 0.16585 0.31549 0.0
O55 O 0.20463 0.27278 0.35531 0.0
O56 O 1.04789 0.19262 0.34304 0.0
C57 C 0.12647 0.27644 0.34962 0.0
H58 H 0.56487 0.44357 0.3697 0.0
H59 H 0.71756 0.78668 0.32058 0.0
Co60 Co 1.0243 0.95205 0.67783 0.0
C61 C 1.06002 1.05002 0.62483 0.0
Co62 Co 0.0963 0.11189 0.68549 0.0
C63 C 0.88981 0.74748 0.68036 0.0
C64 C 1.00254 0.77381 0.64882 0.0
N65 N 0.97466 0.81925 0.67005 0.0
N66 N 0.85889 0.65942 0.66519 0.0
C67 C 0.93053 0.67522 0.64555 0.0
H68 H 0.84411 0.76299 0.69552 0.0
H69 H 1.06531 0.81184 0.63448 0.0
C70 C 1.05699 1.00993 0.73837 0.0
N71 N 0.14281 0.24486 0.69288 0.0
C72 C 0.19618 0.31828 0.67467 0.0
C73 C 0.11399 0.28696 0.71495 0.0
N74 N 0.20298 0.40496 0.68442 0.0
C75 C 0.15258 0.38597 0.7101 0.0
C76 C 0.88001 1.01394 0.68235 0.0
O77 O 1.0226 0.93504 0.7198 0.0
O78 O 0.09236 0.09569 0.72822 0.0
O79 O 0.96035 0.09721 0.68576 0.0
O80 O 0.88942 0.93686 0.67893 0.0
O81 O 0.09998 0.12778 0.64233 0.0
H82 H 1.0676 0.24818 0.73336 0.0
H83 H 0.23437 0.30984 0.65538 0.0
O84 O 1.02381 0.96626 0.63609 0.0
O85 O 0.15464 0.96626 0.67662 0.0
O86 O 0.2362 0.12654 0.68511 0.0
C87 C 0.23843 1.04515 0.68054 0.0
H88 H 0.92508 0.62289 0.62765 0.0
H89 H 0.14955 0.44109 0.72518 0.0
H90 H 1.05651 0.39199 0.9862 0.0
H91 H 1.02759 0.3575 0.08218 0.0
H92 H 0.16941 0.52705 0.09156 0.0
H93 H 0.31 0.49573 0.98785 0.0
H94 H 0.33482 0.58063 0.95859 0.0
H95 H 0.21798 0.46604 0.95859 0.0
H96 H 0.11578 0.55677 0.9595 0.0
H97 H 0.23109 0.6699 0.95565 0.0
H98 H 0.15102 0.66076 0.98612 0.0
H99 H 0.31813 0.69729 0.0896 0.0
H100 H 0.42497 0.87011 0.07586 0.0
H101 H 0.38512 0.77281 0.98196 0.0
C102 C 1.07701 0.42252 0.00916 0.0
C103 C 1.03274 0.36194 0.03335 0.0
C104 C 1.06081 0.40305 0.06325 0.0
C105 C 0.14322 0.49799 0.06877 0.0
C106 C 0.19555 0.54907 0.04411 0.0
C107 C 0.16185 0.51391 0.01493 0.0
C108 C 0.23216 0.58048 0.99224 0.0
C109 C 0.27633 0.52752 0.97321 0.0
C110 C 0.17949 0.61939 0.97224 0.0
C111 C 0.3098 0.66109 0.01322 0.0
C112 C 0.28791 0.6412 0.04314 0.0
C113 C 0.33728 0.71314 0.06636 0.0
C114 C 0.39994 0.81086 0.05847 0.0
C115 C 0.40922 0.83349 0.02785 0.0
C116 C 0.37827 0.75637 1.00548 0.0
H117 H 0.56274 0.16418 0.39644 0.0
H118 H 0.63306 0.3762 0.32816 0.0
H119 H 0.69502 0.28666 0.29578 0.0
H120 H 0.75778 0.09424 0.37989 0.0
H121 H 0.66961 0.96761 0.38764 0.0
H122 H 0.66274 0.06807 0.40699 0.0
H123 H 0.47841 0.98228 0.38841 0.0
H124 H 0.48826 0.8878 0.3663 0.0
H125 H 0.44978 0.96524 0.34853 0.0
H126 H 0.72942 0.15952 0.26887 0.0
H127 H 0.77705 1.03249 0.25668 0.0
H128 H 0.64016 0.88604 0.33769 0.0
C129 C 0.59717 0.19492 0.37548 0.0
C130 C 0.59239 0.27554 0.36457 0.0
C131 C 0.63649 0.31424 0.33691 0.0
C132 C 0.66939 0.26239 0.31806 0.0
C133 C 0.65731 0.17319 0.32757 0.0
C134 C 0.62486 0.14138 0.356 0.0
C135 C 0.6088 1.03904 0.36003 0.0
C136 C 0.67895 1.04245 0.38508 0.0
C137 C 0.49981 0.96427 0.36618 0.0
C138 C 0.63684 1.0176 0.32938 0.0
C139 C 0.66542 0.09588 0.31095 0.0
C140 C 0.70671 0.09759 0.28305 0.0
C141 C 0.73085 1.02362 0.27581 0.0
C142 C 0.715 0.95195 0.29684 0.0
C143 C 0.65375 0.94037 0.32132 0.0
H144 H 0.72851 0.58211 0.70848 0.0
H145 H 0.75643 0.59409 0.61186 0.0
H146 H 0.58655 0.5666 0.60665 0.0
H147 H 0.46096 0.40736 0.71149 0.0
H148 H 0.45323 0.47625 0.74413 0.0
H149 H 0.56629 0.47514 0.73705 0.0
H150 H 0.65706 0.66888 0.74036 0.0
H151 H 0.54177 0.66877 0.74439 0.0
H152 H 0.62241 0.73178 0.71417 0.0
H153 H 0.41749 0.54616 0.61293 0.0
H154 H 0.24607 0.48109 0.62966 0.0
H155 H 0.34798 0.52826 0.72226 0.0
C156 C 0.69642 0.57341 0.68617 0.0
C157 C 0.75528 0.59159 0.66073 0.0
C158 C 0.7122 0.58031 0.63172 0.0
C159 C 0.6171 0.56801 0.62862 0.0
C160 C 0.5678 0.56757 0.65477 0.0
C161 C 0.60485 0.56716 0.68291 0.0
C162 C 0.53985 0.56922 0.70761 0.0
C163 C 0.50277 0.47648 0.72613 0.0
C164 C 0.59356 0.6654 0.72781 0.0
C165 C 0.45785 0.56712 0.68893 0.0
C166 C 0.47591 0.56752 0.65844 0.0
C167 C 0.40305 0.54758 0.63668 0.0
C168 C 0.30622 0.51311 0.64633 0.0
C169 C 0.28522 0.49761 0.67714 0.0
C170 C 0.3634 0.54025 0.69864 0.0
H171 H 0.82396 0.1633 0.69085 0.0
H172 H 0.69844 0.84631 0.67162 0.0
H173 H 0.53118 0.82602 0.66937 0.0
H174 H 0.62025 0.14434 0.7378 0.0
H175 H 0.62185 0.25217 0.72401 0.0
H176 H 0.73384 0.24467 0.72439 0.0
H177 H 0.75173 0.27314 0.66756 0.0
H178 H 0.63975 0.28064 0.66706 0.0
H179 H 0.65047 0.1923 0.64189 0.0
H180 H 0.37539 0.83664 0.66822 0.0
H181 H 0.24063 0.87334 0.66936 0.0
H182 H 0.45198 0.1862 0.6898 0.0
C183 C 0.76129 0.08947 0.68619 0.0
C184 C 0.77706 1.00605 0.68156 0.0
C185 C 0.69114 0.91161 0.67549 0.0
C186 C 0.5947 0.89931 0.67405 0.0
C187 C 0.58201 0.982 0.67863 0.0
C188 C 0.66266 0.07559 0.68466 0.0
C189 C 0.62568 0.15109 0.68877 0.0
C190 C 0.652 0.20106 0.72064 0.0
C191 C 0.66954 0.22894 0.6649 0.0
C192 C 0.51205 0.08532 0.68404 0.0
C193 C 0.49009 0.98815 0.67818 0.0
C194 C 0.39236 0.91254 0.67287 0.0
C195 C 0.31514 0.93506 0.6736 0.0
C196 C 0.33186 1.03329 0.67972 0.0
C197 C 0.43383 0.11003 0.685 0.0
H198 H 0.7986 0.82001 0.0225 0.0
H199 H 0.98832 0.69051 0.01163 0.0
H200 H 0.84071 0.52337 0.00968 0.0
H201 H 0.61506 0.62761 0.07018 0.0
H202 H 0.50848 0.6259 0.05355 0.0
H203 H 0.6281 0.73762 0.05416 0.0
H204 H 0.61507 0.74202 0.99651 0.0
H205 H 0.49543 0.63058 0.99608 0.0
H206 H 0.59241 0.63475 0.97294 0.0
H207 H 0.6745 0.368 0.00791 0.0
H208 H 0.50317 0.23353 0.00803 0.0
H209 H 0.40292 0.44788 0.02147 0.0
C210 C 0.80928 0.7565 0.01976 0.0
C211 C 0.90825 0.77125 0.01722 0.0
C212 C 0.91603 0.68419 0.01369 0.0
C213 C 0.83152 0.58777 0.0125 0.0
C214 C 0.73649 0.5761 0.01496 0.0
C215 C 0.72413 0.65779 0.01867 0.0
C216 C 0.61176 0.62156 0.02092 0.0
C217 C 0.58955 0.65519 0.05153 0.0
C218 C 0.57662 0.65951 0.99506 0.0
C219 C 0.56349 0.50715 0.01788 0.0
C220 C 0.63832 0.48423 0.01433 0.0
C221 C 0.61587 0.38571 0.01076 0.0
C222 C 0.51619 0.30865 0.01087 0.0
C223 C 0.43503 0.32628 0.01468 0.0
C224 C 0.46061 0.42905 0.01829 0.0
H225 H 1.00448 0.35384 0.32576 0.0
H226 H 0.26477 0.43806 0.38244 0.0
H227 H 0.29666 0.60841 0.38776 0.0
H228 H 0.10665 0.5872 0.2878 0.0
H229 H 0.99438 0.59413 0.28767 0.0
H230 H 0.98749 0.47496 0.28775 0.0
H231 H 0.88338 0.43379 0.33557 0.0
H232 H 0.8891 0.55241 0.33543 0.0
H233 H 0.9302 0.51844 0.36834 0.0
H234 H 0.30822 0.77511 0.38703 0.0
H235 H 0.29356 0.92405 0.38139 0.0
H236 H 1.02476 0.74768 0.32682 0.0
C237 C 1.06777 0.40779 0.33947 0.0
C238 C 0.13296 0.37916 0.35317 0.0
C239 C 0.21431 0.45491 0.37087 0.0
C240 C 0.2332 0.55347 0.37431 0.0
C241 C 0.1701 0.57955 0.36027 0.0
C242 C 0.08818 0.50919 0.34338 0.0
C243 C 1.03308 0.5603 0.33108 0.0
C244 C 1.03021 0.55372 0.29651 0.0
C245 C 0.92765 0.51344 0.34333 0.0
C246 C 0.09748 0.66931 0.34347 0.0
C247 C 0.17612 0.67755 0.36023 0.0
C248 C 0.24689 0.76919 0.37384 0.0
C249 C 0.23817 0.85448 0.37037 0.0
C250 C 0.15899 0.85081 0.35345 0.0
C251 C 0.08696 0.75516 0.33992 0.0
H252 H 1.073 0.11463 0.24664 0.0
H253 H 0.35943 0.14824 0.26989 0.0
H254 H 0.39105 0.13588 0.2157 0.0
H255 H 1.00982 0.93951 0.1852 0.0
H256 H 0.95304 0.99155 0.16253 0.0
H257 H 0.95444 1.00613 0.20293 0.0
H258 H 1.04102 0.1972 0.20005 0.0
H259 H 1.03912 0.18328 0.1596 0.0
H260 H 0.15487 0.26126 0.17998 0.0
H261 H 0.3839 0.10487 0.15891 0.0
H262 H 0.34852 0.0785 0.10403 0.0
H263 H 1.07178 0.07715 0.11785 0.0
C264 C 0.14289 0.12039 0.24033 0.0
C265 C 0.21378 0.1321 0.26247 0.0
C266 C 0.30441 0.13982 0.2533 0.0
C267 C 0.32269 0.13235 0.22259 0.0
C268 C 0.25032 0.11894 0.20135 0.0
C269 C 0.16303 0.11498 0.20984 0.0
C270 C 0.09773 0.10138 0.18266 0.0
C271 C 0.99787 1.00384 0.18339 0.0
C272 C 1.08232 0.19114 0.18045 0.0
C273 C 0.16109 0.09668 0.15748 0.0
C274 C 0.24837 0.10592 0.16874 0.0
C275 C 0.31646 0.09895 0.14987 0.0
C276 C 0.29545 0.08342 0.11874 0.0
C277 C 0.20777 0.07647 0.10665 0.0
C278 C 0.13995 0.08331 0.12639 0.0
H279 H 0.2102 0.19475 0.45468 0.0
H280 H 0.91149 0.96259 0.42813 0.0
H281 H 0.87028 0.93431 0.48163 0.0
H282 H 0.24266 0.07744 0.51627 0.0
H283 H 0.30977 0.18942 0.54004 0.0
H284 H 0.31489 0.19558 0.49974 0.0
H285 H 0.25348 0.32273 0.50274 0.0
H286 H 0.24831 0.31709 0.54309 0.0
H287 H 0.13954 0.29187 0.5214 0.0
H288 H 0.86567 0.9204 0.53722 0.0
H289 H 0.89395 0.92807 0.592 0.0
H290 H 0.19243 0.17594 0.58391 0.0
C291 C 0.13577 0.13857 0.46011 0.0
C292 C 1.06401 0.08065 0.4371 0.0
C293 C 0.96758 1.00802 0.44524 0.0
C294 C 0.94351 0.99139 0.4756 0.0
C295 C 1.0162 1.04886 0.49764 0.0
C296 C 0.11007 0.12179 0.49036 0.0
C297 C 0.17481 0.17179 0.51852 0.0
C298 C 0.2659 0.15767 0.51864 0.0
C299 C 0.20585 0.28244 0.52161 0.0
C300 C 0.10322 0.1141 0.54277 0.0
C301 C 1.01228 1.0434 0.53007 0.0
C302 C 0.93593 0.97642 0.54743 0.0
C303 C 0.95285 0.98119 0.57852 0.0
C304 C 1.0449 1.05319 0.59217 0.0
C305 C 0.12074 0.1215 0.57409 0.0
H306 H 0.09228 0.14607 0.78609 0.0
H307 H 1.02796 0.84386 0.7649 0.0
H308 H 1.03831 0.8207 0.8188 0.0
H309 H 0.26642 0.20281 0.84685 0.0
H310 H 0.22481 0.27271 0.86991 0.0
H311 H 0.21087 0.26649 0.82955 0.0
H312 H 1.02231 0.19954 0.83432 0.0
H313 H 1.03569 0.20566 0.87471 0.0
H314 H 0.94883 0.09022 0.85493 0.0
H315 H 1.06652 0.83219 0.87384 0.0
H316 H 0.09909 0.87342 0.92825 0.0
H317 H 0.13445 0.16435 0.91617 0.0
C318 C 1.07992 0.07493 0.79285 0.0
C319 C 1.0595 0.99677 0.77115 0.0
C320 C 1.0434 0.90474 0.78097 0.0
C321 C 1.0493 0.89084 0.81159 0.0
C322 C 1.07008 0.96917 0.83232 0.0
C323 C 0.08404 0.05911 0.82356 0.0
C324 C 0.10483 0.13046 0.85081 0.0
C325 C 0.20786 0.22363 0.84917 0.0
C326 C 1.02302 0.15808 0.85387 0.0
C327 C 0.10175 0.06683 0.87613 0.0
C328 C 1.08222 0.97435 0.86472 0.0
C329 C 1.08066 0.90383 0.8831 0.0
C330 C 0.09965 0.92815 0.91398 0.0
C331 C 0.11861 1.02169 0.92644 0.0
C332 C 0.11869 0.09175 0.90727 0.0
loop_
_geom_bond_atom_site_label_1
_geom_bond_atom_site_label_2
_geom_bond_distance
_geom_bond_site_symmetry_2
_ccdc_geom_bond_type
Co0 N5 2.057 1_554 S
Co0 O17 2.021 . S
Co0 O20 2.062 1_455 S
Co0 O24 2.117 1_554 S
Co0 O25 2.020 1_565 S
C1 O21 1.259 1_455 S
C1 O24 1.258 1_545 S
Co2 N11 2.057 . S
Co2 O18 2.116 . S
Co2 O19 2.020 1_545 S
Co2 O21 2.021 1_554 S
Co2 O26 2.062 1_655 S
C3 N5 1.316 1_554 S
C3 N6 1.346 . S
C3 H8 0.931 . S
C4 N5 1.375 . S
C4 C7 1.350 . S
C4 H9 0.930 . S
N5 Co0 2.057 1_556 S
N5 C3 1.316 1_556 S
N5 C4 1.375 . S
N6 C3 1.346 . S
N6 C7 1.375 1_554 S
C7 C4 1.350 . S
C7 N6 1.375 1_556 S
C7 H28 0.931 . S
H8 C3 0.931 . S
H9 C4 0.930 . S
C10 O17 1.259 1_545 S
C10 O18 1.259 1_455 S
N11 Co2 2.057 . S
N11 C12 1.316 1_554 S
N11 C13 1.375 . S
C12 N11 1.316 1_556 S
C12 N14 1.347 1_556 S
C12 H23 0.931 . S
C13 N11 1.375 . S
C13 C15 1.350 . S
C13 H22 0.930 . S
N14 C12 1.347 1_554 S
N14 C15 1.373 . S
C15 C13 1.350 . S
C15 N14 1.373 . S
C15 H29 0.931 . S
C16 O19 1.256 . S
C16 O20 1.255 . S
O17 Co0 2.021 . S
O17 C10 1.259 1_565 S
O18 Co2 2.116 . S
O18 C10 1.259 1_655 S
O19 Co2 2.020 1_565 S
O19 C16 1.256 . S
O20 Co0 2.062 1_655 S
O20 C16 1.255 . S
O21 C1 1.259 1_655 S
O21 Co2 2.021 1_556 S
H22 C13 0.930 . S
H23 C12 0.931 . S
O24 Co0 2.117 1_556 S
O24 C1 1.258 1_565 S
O25 Co0 2.020 1_545 S
O25 C27 1.256 . S
O26 Co2 2.062 1_455 S
O26 C27 1.255 . S
C27 O25 1.256 . S
C27 O26 1.255 . S
H28 C7 0.931 . S
H29 C15 0.931 . S
Co30 N35 2.057 . S
Co30 O47 2.021 . S
Co30 O50 2.062 1_545 S
Co30 O54 2.117 . S
Co30 O55 2.020 . S
C31 O51 1.259 1_445 S
C31 O54 1.258 . S
Co32 N41 2.057 . S
Co32 O48 2.117 1_565 S
Co32 O49 2.020 . S
Co32 O51 2.021 . S
Co32 O56 2.062 1_565 S
C33 N35 1.316 . S
C33 N36 1.347 . S
C33 H38 0.931 . S
C34 N35 1.375 . S
C34 C37 1.350 . S
C34 H39 0.930 . S
N35 Co30 2.057 . S
N35 C33 1.316 . S
N35 C34 1.375 . S
N36 C33 1.347 . S
N36 C37 1.373 . S
C37 C34 1.350 . S
C37 N36 1.373 . S
C37 H58 0.931 . S
H38 C33 0.931 . S
H39 C34 0.930 . S
C40 O47 1.259 . S
C40 O48 1.258 1_455 S
N41 Co32 2.057 . S
N41 C42 1.316 . S
N41 C43 1.375 . S
C42 N41 1.316 . S
C42 N44 1.347 . S
C42 H53 0.931 . S
C43 N41 1.375 . S
C43 C45 1.350 . S
C43 H52 0.930 . S
N44 C42 1.347 . S
N44 C45 1.373 . S
C45 C43 1.350 . S
C45 N44 1.373 . S
C45 H59 0.931 . S
C46 O49 1.256 1_455 S
C46 O50 1.255 . S
O47 Co30 2.021 . S
O47 C40 1.259 . S
O48 Co32 2.117 1_545 S
O48 C40 1.258 1_655 S
O49 Co32 2.020 . S
O49 C46 1.256 1_655 S
O50 Co30 2.062 1_565 S
O50 C46 1.255 . S
O51 C31 1.259 1_665 S
O51 Co32 2.021 . S
H52 C43 0.930 . S
H53 C42 0.931 . S
O54 Co30 2.117 . S
O54 C31 1.258 . S
O55 Co30 2.020 . S
O55 C57 1.256 . S
O56 Co32 2.062 1_545 S
O56 C57 1.255 1_655 S
C57 O55 1.256 . S
C57 O56 1.255 1_455 S
H58 C37 0.931 . S
H59 C45 0.931 . S
Co60 N65 2.057 . S
Co60 O77 2.021 . S
Co60 O80 2.062 . S
Co60 O84 2.117 1_655 S
Co60 O85 2.020 1_655 S
C61 O81 1.259 . S
C61 O84 1.259 1_545 S
Co62 N71 2.057 . S
Co62 O78 2.117 . S
Co62 O79 2.020 1_455 S
Co62 O81 2.021 . S
Co62 O86 2.062 . S
C63 N65 1.316 . S
C63 N66 1.347 . S
C63 H68 0.931 . S
C64 N65 1.375 . S
C64 C67 1.350 . S
C64 H69 0.930 . S
N65 Co60 2.057 . S
N65 C63 1.316 . S
N65 C64 1.375 . S
N66 C63 1.347 . S
N66 C67 1.373 . S
C67 C64 1.350 . S
C67 N66 1.373 . S
C67 H88 0.931 . S
H68 C63 0.931 . S
H69 C64 0.930 . S
C70 O77 1.259 1_445 S
C70 O78 1.258 . S
N71 Co62 2.057 . S
N71 C72 1.316 . S
N71 C73 1.375 . S
C72 N71 1.316 . S
C72 N74 1.347 . S
C72 H83 0.931 . S
C73 N71 1.375 . S
C73 C75 1.350 . S
C73 H82 0.930 . S
N74 C72 1.347 . S
N74 C75 1.373 . S
C75 C73 1.350 . S
C75 N74 1.373 . S
C75 H89 0.931 . S
C76 O79 1.256 . S
C76 O80 1.255 1_545 S
O77 Co60 2.021 . S
O77 C70 1.259 1_665 S
O78 Co62 2.117 . S
O78 C70 1.258 . S
O79 Co62 2.020 1_655 S
O79 C76 1.256 . S
O80 Co60 2.062 . S
O80 C76 1.255 1_565 S
O81 C61 1.259 . S
O81 Co62 2.021 . S
H82 C73 0.930 . S
H83 C72 0.931 . S
O84 Co60 2.117 1_455 S
O84 C61 1.259 1_565 S
O85 Co60 2.020 1_455 S
O85 C87 1.256 . S
O86 Co62 2.062 . S
O86 C87 1.255 1_545 S
C87 O85 1.256 . S
C87 O86 1.255 1_565 S
H88 C67 0.931 . S
H89 C75 0.931 . S
H90 C102 0.930 . S
H91 C104 0.930 . S
H92 C105 0.930 . S
H93 C109 0.959 . S
H94 C109 0.959 . S
H95 C109 0.961 . S
H96 C110 0.960 . S
H97 C110 0.961 1_455 S
H98 C110 0.959 . S
H99 C113 0.929 1_655 S
H100 C114 0.931 . S
H101 C116 0.930 . S
C102 H90 0.930 . S
C102 C103 1.399 1_556 S
C102 C107 1.399 . S
C103 C102 1.399 1_554 S
C103 C104 1.376 . S
C104 H91 0.930 . S
C104 C103 1.376 . S
C104 C105 1.388 . S
C105 H92 0.930 . S
C105 C104 1.388 . S
C105 C106 1.390 . S
C106 C105 1.390 . S
C106 C107 1.394 1_554 S
C106 C112 1.465 1_655 S
C107 C102 1.399 . S
C107 C106 1.394 1_556 S
C107 C108 1.516 1_655 S
C108 C107 1.516 1_455 S
C108 C109 1.502 . S
C108 C110 1.561 1_455 S
C108 C111 1.526 . S
C109 H93 0.959 . S
C109 H94 0.959 . S
C109 H95 0.961 . S
C109 C108 1.502 . S
C110 H96 0.960 . S
C110 H97 0.961 1_655 S
C110 H98 0.959 . S
C110 C108 1.561 1_655 S
C111 C108 1.526 . S
C111 C112 1.396 1_556 S
C111 C116 1.390 . S
C112 C106 1.465 1_455 S
C112 C111 1.396 1_554 S
C112 C113 1.399 . S
C113 H99 0.929 1_455 S
C113 C112 1.399 . S
C113 C114 1.385 . S
C114 H100 0.931 . S
C114 C113 1.385 . S
C114 C115 1.389 . S
C115 C114 1.389 . S
C115 C116 1.387 1_554 S
C116 H101 0.930 . S
C116 C111 1.390 . S
C116 C115 1.387 1_556 S
H117 C129 0.930 . S
H118 C131 0.930 . S
H119 C132 0.930 . S
H120 C136 0.959 . S
H121 C136 0.959 . S
H122 C136 0.961 . S
H123 C137 0.960 . S
H124 C137 0.961 . S
H125 C137 0.959 . S
H126 C140 0.929 . S
H127 C141 0.931 . S
H128 C143 0.930 1_545 S
C129 H117 0.930 . S
C129 C130 1.399 . S
C129 C134 1.399 . S
C130 C129 1.399 . S
C130 C131 1.376 . S
C131 H118 0.930 . S
C131 C130 1.376 . S
C131 C132 1.388 1_545 S
C132 H119 0.930 . S
C132 C131 1.388 1_565 S
C132 C133 1.388 . S
C133 C132 1.388 . S
C133 C134 1.388 1_565 S
C133 C139 1.473 . S
C134 C129 1.399 . S
C134 C133 1.388 1_545 S
C134 C135 1.516 . S
C135 C134 1.516 . S
C135 C136 1.502 . S
C135 C137 1.561 . S
C135 C138 1.526 . S
C136 H120 0.959 . S
C136 H121 0.959 . S
C136 H122 0.961 . S
C136 C135 1.502 . S
C137 H123 0.960 . S
C137 H124 0.961 . S
C137 H125 0.959 . S
C137 C135 1.561 . S
C138 C135 1.526 . S
C138 C139 1.396 1_545 S
C138 C143 1.390 1_545 S
C139 C133 1.473 . S
C139 C138 1.396 1_565 S
C139 C140 1.399 . S
C140 H126 0.929 . S
C140 C139 1.399 . S
C140 C141 1.385 . S
C141 H127 0.931 . S
C141 C140 1.385 . S
C141 C142 1.389 . S
C142 C141 1.389 . S
C142 C143 1.387 . S
C143 H128 0.930 1_565 S
C143 C138 1.390 1_565 S
C143 C142 1.387 . S
H144 C156 0.930 . S
H145 C158 0.930 . S
H146 C159 0.930 . S
H147 C163 0.959 . S
H148 C163 0.959 . S
H149 C163 0.961 . S
H150 C164 0.960 . S
H151 C164 0.961 . S
H152 C164 0.959 . S
H153 C167 0.929 . S
H154 C168 0.931 . S
H155 C170 0.930 . S
C156 H144 0.930 . S
C156 C157 1.399 . S
C156 C161 1.399 . S
C157 C156 1.399 . S
C157 C158 1.376 . S
C158 H145 0.930 . S
C158 C157 1.376 . S
C158 C159 1.388 . S
C159 H146 0.930 . S
C159 C158 1.388 . S
C159 C160 1.390 . S
C160 C159 1.390 . S
C160 C161 1.394 . S
C160 C166 1.465 . S
C161 C156 1.399 . S
C161 C160 1.394 . S
C161 C162 1.516 . S
C162 C161 1.516 . S
C162 C163 1.502 . S
C162 C164 1.561 . S
C162 C165 1.526 . S
C163 H147 0.959 . S
C163 H148 0.959 . S
C163 H149 0.961 . S
C163 C162 1.502 . S
C164 H150 0.960 . S
C164 H151 0.961 . S
C164 H152 0.959 . S
C164 C162 1.561 . S
C165 C162 1.526 . S
C165 C166 1.396 . S
C165 C170 1.390 . S
C166 C160 1.465 . S
C166 C165 1.396 . S
C166 C167 1.399 . S
C167 H153 0.929 . S
C167 C166 1.399 . S
C167 C168 1.385 . S
C168 H154 0.931 . S
C168 C167 1.385 . S
C168 C169 1.389 . S
C169 C168 1.389 . S
C169 C170 1.387 . S
C170 H155 0.930 . S
C170 C165 1.390 . S
C170 C169 1.387 . S
H171 C183 0.930 . S
H172 C185 0.930 . S
H173 C186 0.930 . S
H174 C190 0.959 . S
H175 C190 0.959 . S
H176 C190 0.961 . S
H177 C191 0.960 . S
H178 C191 0.961 . S
H179 C191 0.959 . S
H180 C194 0.929 . S
H181 C195 0.931 . S
H182 C197 0.930 . S
C183 H171 0.930 . S
C183 C184 1.399 . S
C183 C188 1.399 . S
C184 C183 1.399 . S
C184 C185 1.376 . S
C185 H172 0.930 . S
C185 C184 1.376 . S
C185 C186 1.388 . S
C186 H173 0.930 . S
C186 C185 1.388 . S
C186 C187 1.390 . S
C187 C186 1.390 . S
C187 C188 1.394 . S
C187 C193 1.465 . S
C188 C183 1.399 . S
C188 C187 1.394 . S
C188 C189 1.516 . S
C189 C188 1.516 . S
C189 C190 1.502 1_545 S
C189 C191 1.561 . S
C189 C192 1.526 . S
C190 H174 0.959 . S
C190 H175 0.959 . S
C190 H176 0.961 . S
C190 C189 1.502 1_565 S
C191 H177 0.960 . S
C191 H178 0.961 . S
C191 H179 0.959 . S
C191 C189 1.561 . S
C192 C189 1.526 . S
C192 C193 1.396 . S
C192 C197 1.390 1_545 S
C193 C187 1.465 . S
C193 C192 1.396 . S
C193 C194 1.399 . S
C194 H180 0.929 . S
C194 C193 1.399 . S
C194 C195 1.385 1_545 S
C195 H181 0.931 . S
C195 C194 1.385 1_565 S
C195 C196 1.389 . S
C196 C195 1.389 . S
C196 C197 1.387 . S
C197 H182 0.930 . S
C197 C192 1.390 1_565 S
C197 C196 1.387 . S
H198 C210 0.930 . S
H199 C212 0.930 . S
H200 C213 0.930 . S
H201 C217 0.959 . S
H202 C217 0.959 . S
H203 C217 0.961 . S
H204 C218 0.960 . S
H205 C218 0.961 . S
H206 C218 0.959 . S
H207 C221 0.929 . S
H208 C222 0.931 . S
H209 C224 0.930 . S
C210 H198 0.930 . S
C210 C211 1.399 1_556 S
C210 C215 1.399 . S
C211 C210 1.399 1_554 S
C211 C212 1.376 . S
C212 H199 0.930 . S
C212 C211 1.376 . S
C212 C213 1.388 . S
C213 H200 0.930 . S
C213 C212 1.388 . S
C213 C214 1.390 . S
C214 C213 1.390 . S
C214 C215 1.394 1_554 S
C214 C220 1.465 . S
C215 C210 1.399 . S
C215 C214 1.394 1_556 S
C215 C216 1.516 . S
C216 C215 1.516 . S
C216 C217 1.502 . S
C216 C218 1.561 . S
C216 C219 1.526 . S
C217 H201 0.959 . S
C217 H202 0.959 . S
C217 H203 0.961 . S
C217 C216 1.502 . S
C218 H204 0.960 . S
C218 H205 0.961 . S
C218 H206 0.959 . S
C218 C216 1.561 . S
C219 C216 1.526 . S
C219 C220 1.396 1_556 S
C219 C224 1.390 . S
C220 C214 1.465 . S
C220 C219 1.396 1_554 S
C220 C221 1.399 . S
C221 H207 0.929 . S
C221 C220 1.399 . S
C221 C222 1.385 . S
C222 H208 0.931 . S
C222 C221 1.385 . S
C222 C223 1.389 . S
C223 C222 1.389 . S
C223 C224 1.387 1_554 S
C224 H209 0.930 . S
C224 C219 1.390 . S
C224 C223 1.387 1_556 S
H225 C237 0.930 . S
H226 C239 0.930 . S
H227 C240 0.930 . S
H228 C244 0.959 . S
H229 C244 0.959 . S
H230 C244 0.961 . S
H231 C245 0.960 . S
H232 C245 0.961 . S
H233 C245 0.959 . S
H234 C248 0.929 . S
H235 C249 0.931 . S
H236 C251 0.935 . S
C237 H225 0.930 . S
C237 C238 1.399 . S
C237 C242 1.399 . S
C238 C237 1.399 . S
C238 C239 1.376 . S
C239 H226 0.930 . S
C239 C238 1.376 . S
C239 C240 1.388 . S
C240 H227 0.930 . S
C240 C239 1.388 . S
C240 C241 1.390 . S
C241 C240 1.390 . S
C241 C242 1.394 . S
C241 C247 1.465 . S
C242 C237 1.399 . S
C242 C241 1.394 . S
C242 C243 1.516 . S
C243 C242 1.516 . S
C243 C244 1.502 1_455 S
C243 C245 1.561 . S
C243 C246 1.526 . S
C244 H228 0.959 . S
C244 H229 0.959 . S
C244 H230 0.961 . S
C244 C243 1.502 1_655 S
C245 H231 0.960 . S
C245 H232 0.961 . S
C245 H233 0.959 . S
C245 C243 1.561 . S
C246 C243 1.526 . S
C246 C247 1.396 . S
C246 C251 1.390 . S
C247 C241 1.465 . S
C247 C246 1.396 . S
C247 C248 1.399 . S
C248 H234 0.929 . S
C248 C247 1.399 . S
C248 C249 1.385 . S
C249 H235 0.931 . S
C249 C248 1.385 . S
C249 C250 1.389 . S
C250 C249 1.389 . S
C250 C251 1.387 . S
C251 H236 0.935 . S
C251 C246 1.390 . S
C251 C250 1.387 . S
H252 C264 0.930 . S
H253 C266 0.930 . S
H254 C267 0.930 . S
H255 C271 0.959 . S
H256 C271 0.959 . S
H257 C271 0.961 . S
H258 C272 0.960 . S
H259 C272 0.961 . S
H260 C272 0.959 . S
H261 C275 0.929 . S
H262 C276 0.931 1_655 S
H263 C278 0.930 . S
C264 H252 0.930 . S
C264 C265 1.399 . S
C264 C269 1.399 . S
C265 C264 1.399 . S
C265 C266 1.376 1_545 S
C266 H253 0.930 . S
C266 C265 1.376 1_565 S
C266 C267 1.388 . S
C267 H254 0.930 . S
C267 C266 1.388 . S
C267 C268 1.390 . S
C268 C267 1.390 . S
C268 C269 1.394 1_565 S
C268 C274 1.465 . S
C269 C264 1.399 . S
C269 C268 1.394 1_545 S
C269 C270 1.516 . S
C270 C269 1.516 . S
C270 C271 1.502 1_455 S
C270 C272 1.561 . S
C270 C273 1.526 . S
C271 H255 0.959 . S
C271 H256 0.959 . S
C271 H257 0.961 . S
C271 C270 1.502 1_655 S
C272 H258 0.960 . S
C272 H259 0.961 . S
C272 H260 0.959 . S
C272 C270 1.561 . S
C273 C270 1.526 . S
C273 C274 1.396 1_545 S
C273 C278 1.390 . S
C274 C268 1.465 . S
C274 C273 1.396 1_565 S
C274 C275 1.399 . S
C275 H261 0.929 . S
C275 C274 1.399 . S
C275 C276 1.385 . S
C276 H262 0.931 1_455 S
C276 C275 1.385 . S
C276 C277 1.382 1_565 S
C277 C276 1.382 1_545 S
C277 C278 1.392 . S
C278 H263 0.930 . S
C278 C273 1.390 . S
C278 C277 1.392 . S
H279 C291 0.930 . S
H280 C293 0.930 . S
H281 C294 0.930 . S
H282 C298 0.959 . S
H283 C298 0.959 . S
H284 C298 0.961 . S
H285 C299 0.960 . S
H286 C299 0.961 . S
H287 C299 0.959 . S
H288 C302 0.929 . S
H289 C303 0.931 . S
H290 C305 0.930 . S
C291 H279 0.930 . S
C291 C292 1.399 . S
C291 C296 1.399 . S
C292 C291 1.399 . S
C292 C293 1.376 1_445 S
C293 H280 0.930 . S
C293 C292 1.376 1_665 S
C293 C294 1.388 . S
C294 H281 0.930 . S
C294 C293 1.388 . S
C294 C295 1.390 1_655 S
C295 C294 1.390 1_455 S
C295 C296 1.394 1_565 S
C295 C301 1.465 . S
C296 C291 1.399 . S
C296 C295 1.394 1_545 S
C296 C297 1.516 . S
C297 C296 1.516 . S
C297 C298 1.502 . S
C297 C299 1.561 . S
C297 C300 1.526 . S
C298 H282 0.959 . S
C298 H283 0.959 . S
C298 H284 0.961 . S
C298 C297 1.502 . S
C299 H285 0.960 . S
C299 H286 0.961 . S
C299 H287 0.959 . S
C299 C297 1.561 . S
C300 C297 1.526 . S
C300 C301 1.396 1_545 S
C300 C305 1.390 . S
C301 C295 1.465 . S
C301 C300 1.396 1_565 S
C301 C302 1.399 1_455 S
C302 H288 0.929 . S
C302 C301 1.399 1_655 S
C302 C303 1.385 . S
C303 H289 0.931 . S
C303 C302 1.385 . S
C303 C304 1.389 1_665 S
C304 C303 1.389 1_445 S
C304 C305 1.387 . S
C305 H290 0.930 . S
C305 C300 1.390 . S
C305 C304 1.387 . S
H306 C318 0.930 . S
H307 C320 0.930 . S
H308 C321 0.930 . S
H309 C325 0.959 . S
H310 C325 0.959 . S
H311 C325 0.961 . S
H312 C326 0.960 . S
H313 C326 0.961 . S
H314 C326 0.959 . S
H315 C329 0.929 . S
H316 C330 0.931 . S
H317 C332 0.930 . S
C318 H306 0.930 . S
C318 C319 1.399 . S
C318 C323 1.399 . S
C319 C318 1.399 . S
C319 C320 1.376 1_445 S
C320 H307 0.930 . S
C320 C319 1.376 1_665 S
C320 C321 1.388 . S
C321 H308 0.930 . S
C321 C320 1.388 . S
C321 C322 1.390 1_655 S
C322 C321 1.390 1_455 S
C322 C323 1.394 1_565 S
C322 C328 1.465 . S
C323 C318 1.399 . S
C323 C322 1.394 1_545 S
C323 C324 1.516 . S
C324 C323 1.516 . S
C324 C325 1.502 . S
C324 C326 1.561 1_455 S
C324 C327 1.526 . S
C325 H309 0.959 . S
C325 H310 0.959 . S
C325 H311 0.961 . S
C325 C324 1.502 . S
C326 H312 0.960 . S
C326 H313 0.961 . S
C326 H314 0.959 . S
C326 C324 1.561 1_655 S
C327 C324 1.526 . S
C327 C328 1.396 1_545 S
C327 C332 1.390 . S
C328 C322 1.465 . S
C328 C327 1.396 1_565 S
C328 C329 1.399 1_455 S
C329 H315 0.929 . S
C329 C328 1.399 1_655 S
C329 C330 1.385 . S
C330 H316 0.931 . S
C330 C329 1.385 . S
C330 C331 1.389 1_665 S
C331 C330 1.389 1_445 S
C331 C332 1.387 . S
C332 H317 0.930 . S
C332 C327 1.390 . S
C332 C331 1.387 . S
C103 N14 0.412 . S
C115 N6 0.446 . S
C130 N36 0.303 . S
C142 N44 0.548 . S
C157 N66 0.233 . S
C169 N74 0.512 . S
C184 C76 2.683 . S
C196 C87 2.677 . S
C211 C16 2.667 . S
C223 C27 2.684 . S
C238 C57 2.683 . S
C250 C46 2.674 . S
C265 C31 1.493 . S
C277 C10 1.481 . S
C292 C40 1.501 . S
C304 C61 1.493 . S
C319 C70 1.479 . S
C331 C1 1.498 . S
