# Generated by pormake.
# Topology sne, (6)-cn, num edge types: 1
# Building blocks:
#     Node 0, Type 0, BuildingBlock: OJICUG_clean_sbu_0, # of connection points: 6
#     Node 1, Type 0, BuildingBlock: OJICUG_clean_sbu_0, # of connection points: 6
#     Node 2, Type 0, BuildingBlock: OJICUG_clean_sbu_0, # of connection points: 6
#     Node 3, Type 0, BuildingBlock: OJICUG_clean_sbu_0, # of connection points: 6
#     Node 4, Type 0, BuildingBlock: OJICUG_clean_sbu_0, # of connection points: 6
#     Node 5, Type 0, BuildingBlock: OJICUG_clean_sbu_0, # of connection points: 6
#     Node 6, Type 0, BuildingBlock: OJICUG_clean_sbu_0, # of connection points: 6
#     Node 7, Type 0, BuildingBlock: OJICUG_clean_sbu_0, # of connection points: 6
#     Edge 8, Type (0, 0), BuildingBlock: ZUJKAS_clean_linker_0, # of connection points: 2
#     Edge 9, Type (0, 0), BuildingBlock: ZUJKAS_clean_linker_0, # of connection points: 2
#     Edge 10, Type (0, 0), BuildingBlock: ZUJKAS_clean_linker_0, # of connection points: 2
#     Edge 11, Type (0, 0), BuildingBlock: ZUJKAS_clean_linker_0, # of connection points: 2
#     Edge 12, Type (0, 0), BuildingBlock: ZUJKAS_clean_linker_0, # of connection points: 2
#     Edge 13, Type (0, 0), BuildingBlock: ZUJKAS_clean_linker_0, # of connection points: 2
#     Edge 14, Type (0, 0), BuildingBlock: ZUJKAS_clean_linker_0, # of connection points: 2
#     Edge 15, Type (0, 0), BuildingBlock: ZUJKAS_clean_linker_0, # of connection points: 2
#     Edge 16, Type (0, 0), BuildingBlock: ZUJKAS_clean_linker_0, # of connection points: 2
#     Edge 17, Type (0, 0), BuildingBlock: ZUJKAS_clean_linker_0, # of connection points: 2
#     Edge 18, Type (0, 0), BuildingBlock: ZUJKAS_clean_linker_0, # of connection points: 2
#     Edge 19, Type (0, 0), BuildingBlock: ZUJKAS_clean_linker_0, # of connection points: 2
#     Edge 20, Type (0, 0), BuildingBlock: ZUJKAS_clean_linker_0, # of connection points: 2
#     Edge 21, Type (0, 0), BuildingBlock: ZUJKAS_clean_linker_0, # of connection points: 2
#     Edge 22, Type (0, 0), BuildingBlock: ZUJKAS_clean_linker_0, # of connection points: 2
#     Edge 23, Type (0, 0), BuildingBlock: ZUJKAS_clean_linker_0, # of connection points: 2
#     Edge 24, Type (0, 0), BuildingBlock: ZUJKAS_clean_linker_0, # of connection points: 2
#     Edge 25, Type (0, 0), BuildingBlock: ZUJKAS_clean_linker_0, # of connection points: 2
#     Edge 26, Type (0, 0), BuildingBlock: ZUJKAS_clean_linker_0, # of connection points: 2
#     Edge 27, Type (0, 0), BuildingBlock: ZUJKAS_clean_linker_0, # of connection points: 2
#     Edge 28, Type (0, 0), BuildingBlock: ZUJKAS_clean_linker_0, # of connection points: 2
#     Edge 29, Type (0, 0), BuildingBlock: ZUJKAS_clean_linker_0, # of connection points: 2
#     Edge 30, Type (0, 0), BuildingBlock: ZUJKAS_clean_linker_0, # of connection points: 2
#     Edge 31, Type (0, 0), BuildingBlock: ZUJKAS_clean_linker_0, # of connection points: 2
# Relax obj value: 0.189
# Max RMSD: 0.224
# Mean RMSD: 0.224
data_MOF--net-sne--node1-OJICUG_clean_sbu_0--edge1-ZUJKAS_clean_linker_0
_symmetry_space_group_name_H-M    P1
_symmetry_Int_Tables_number       1
_symmetry_cell_setting            triclinic
loop_
_symmetry_equiv_pos_as_xyz
'x, y, z'
_cell_length_a     44.283927
_cell_length_b     44.345847
_cell_length_c     36.141024
_cell_angle_alpha  90.065863
_cell_angle_beta   89.943502
_cell_angle_gamma 89.923202
loop_
_atom_site_label
_atom_site_type_symbol
_atom_site_fract_x
_atom_site_fract_y
_atom_site_fract_z
_atom_type_partial_charge
Sc0 Sc 0.27247 0.1384 0.37455 0.0
Sc1 Sc 0.20932 0.10508 0.33395 0.0
Sc2 Sc 0.21083 0.18276 0.34769 0.0
O3 O 0.23088 0.14205 0.35241 0.0
C4 C 0.24415 0.18806 0.42608 0.0
C5 C 0.2379 0.08051 0.40692 0.0
C6 C 0.15545 0.14329 0.36995 0.0
C7 C 0.2778 0.08969 0.31271 0.0
C8 C 0.27752 0.19789 0.32522 0.0
C9 C 0.19509 0.15129 0.27105 0.0
O10 O 0.25945 0.16395 0.42252 0.0
O11 O 0.21455 0.08291 0.38651 0.0
O12 O 0.17091 0.16704 0.37543 0.0
O13 O 0.28967 0.11232 0.32857 0.0
O14 O 0.24942 0.20066 0.31891 0.0
O15 O 0.20458 0.12522 0.28002 0.0
O16 O 0.28843 0.17854 0.34747 0.0
O17 O 0.24989 0.08349 0.31506 0.0
O18 O 0.19156 0.17246 0.29443 0.0
O19 O 0.26089 0.09754 0.40363 0.0
O20 O 0.22772 0.19863 0.4003 0.0
O21 O 0.16544 0.12095 0.3515 0.0
Sc22 Sc 0.12339 0.80661 0.6454 0.0
Sc23 Sc 0.11329 0.7375 0.59823 0.0
Sc24 Sc 0.18318 0.75431 0.63924 0.0
O25 O 0.13989 0.76616 0.62768 0.0
C26 C 0.19 0.82371 0.61893 0.0
C27 C 0.09394 0.80135 0.56511 0.0
C28 C 0.17623 0.72913 0.55701 0.0
C29 C 0.06697 0.7634 0.65826 0.0
C30 C 0.16376 0.78751 0.71395 0.0
C31 C 0.14829 0.69255 0.65223 0.0
O32 O 0.163 0.83003 0.62796 0.0
O33 O 0.09619 0.77282 0.56372 0.0
O34 O 0.19157 0.73669 0.58512 0.0
O35 O 0.08183 0.78737 0.6644 0.0
O36 O 0.18041 0.7702 0.69484 0.0
O37 O 0.12716 0.69874 0.6297 0.0
O38 O 0.14159 0.80205 0.70056 0.0
O39 O 0.07584 0.74293 0.636 0.0
O40 O 0.1697 0.71071 0.65949 0.0
O41 O 0.10321 0.81679 0.5925 0.0
O42 O 0.20073 0.79708 0.62004 0.0
O43 O 0.14752 0.72931 0.55672 0.0
Sc44 Sc 0.77116 0.80744 0.36272 0.0
Sc45 Sc 0.77369 0.88381 0.33695 0.0
Sc46 Sc 0.7133 0.85715 0.39123 0.0
O47 O 0.75278 0.8495 0.36383 0.0
C48 C 0.70126 0.7955 0.34815 0.0
C49 C 0.78672 0.8299 0.28133 0.0
C50 C 0.70529 0.89829 0.31913 0.0
C51 C 0.82844 0.84938 0.37618 0.0
C52 C 0.74316 0.80796 0.44404 0.0
C53 C 0.74997 0.91593 0.41134 0.0
O54 O 0.72889 0.78804 0.34438 0.0
O55 O 0.78269 0.85776 0.28766 0.0
O56 O 0.69503 0.88588 0.34823 0.0
O57 O 0.81471 0.82429 0.37979 0.0
O58 O 0.72526 0.82985 0.43828 0.0
O59 O 0.76629 0.91483 0.38231 0.0
O60 O 0.76089 0.79791 0.41939 0.0
O61 O 0.81663 0.87239 0.36091 0.0
O62 O 0.73083 0.89571 0.41959 0.0
O63 O 0.78406 0.8099 0.30604 0.0
O64 O 0.6926 0.81927 0.36482 0.0
O65 O 0.73304 0.89813 0.31047 0.0
Sc66 Sc 0.8662 0.18748 0.65 0.0
Sc67 Sc 0.87803 0.25406 0.59832 0.0
Sc68 Sc 0.80938 0.24314 0.64508 0.0
O69 O 0.85127 0.2282 0.63116 0.0
C70 C 0.79781 0.17371 0.62835 0.0
C71 C 0.89225 0.18808 0.56757 0.0
C72 C 0.81379 0.26512 0.56137 0.0
C73 C 0.92534 0.22777 0.65685 0.0
C74 C 0.83035 0.21151 0.72006 0.0
C75 C 0.84857 0.30291 0.65249 0.0
O76 O 0.82461 0.16583 0.63627 0.0
O77 O 0.89114 0.21659 0.56448 0.0
O78 O 0.79946 0.25951 0.59092 0.0
O79 O 0.90936 0.20508 0.6655 0.0
O80 O 0.81381 0.22909 0.70129 0.0
O81 O 0.86821 0.2945 0.62895 0.0
O82 O 0.85079 0.19505 0.70587 0.0
O83 O 0.91686 0.24762 0.63363 0.0
O84 O 0.82632 0.28651 0.66201 0.0
O85 O 0.88379 0.17426 0.5966 0.0
O86 O 0.78875 0.20096 0.62873 0.0
O87 O 0.84236 0.26303 0.55894 0.0
Sc88 Sc 0.26446 0.31231 0.85669 0.0
Sc89 Sc 0.27497 0.3884 0.83255 0.0
Sc90 Sc 0.21293 0.36743 0.88784 0.0
O91 O 0.25084 0.35606 0.85918 0.0
C92 C 0.19312 0.30802 0.84466 0.0
C93 C 0.27951 0.33423 0.77484 0.0
C94 C 0.20848 0.41109 0.81749 0.0
C95 C 0.32647 0.34763 0.86884 0.0
C96 C 0.23902 0.31459 0.93888 0.0
C97 C 0.25611 0.4214 0.90859 0.0
O98 O 0.2197 0.29721 0.84178 0.0
O99 O 0.28037 0.36216 0.78252 0.0
O100 O 0.19765 0.39944 0.84676 0.0
O101 O 0.31017 0.32406 0.87113 0.0
O102 O 0.22219 0.33737 0.93343 0.0
O103 O 0.27136 0.41938 0.87875 0.0
O104 O 0.25611 0.30381 0.91402 0.0
O105 O 0.31692 0.37235 0.85533 0.0
O106 O 0.23545 0.40282 0.91728 0.0
O107 O 0.27444 0.31416 0.79895 0.0
O108 O 0.1874 0.33314 0.86022 0.0
O109 O 0.23567 0.40744 0.80737 0.0
Sc110 Sc 0.37211 0.70604 0.14797 0.0
Sc111 Sc 0.38409 0.77068 0.09316 0.0
Sc112 Sc 0.31264 0.7572 0.13259 0.0
O113 O 0.3563 0.74468 0.12464 0.0
C114 C 0.30725 0.68625 0.11907 0.0
C115 C 0.40305 0.70516 0.06742 0.0
C116 C 0.32185 0.77795 0.04945 0.0
C117 C 0.42891 0.74815 0.1573 0.0
C118 C 0.32869 0.73015 0.21182 0.0
C119 C 0.34895 0.81944 0.14135 0.0
O120 O 0.33413 0.68078 0.12922 0.0
O121 O 0.39845 0.73289 0.06052 0.0
O122 O 0.30576 0.76904 0.07621 0.0
O123 O 0.4118 0.72732 0.16903 0.0
O124 O 0.31349 0.74692 0.19038 0.0
O125 O 0.37209 0.81056 0.12349 0.0
O126 O 0.35058 0.71397 0.20068 0.0
O127 O 0.42225 0.76467 0.12973 0.0
O128 O 0.32566 0.803 0.14636 0.0
O129 O 0.39582 0.69295 0.09806 0.0
O130 O 0.29593 0.71266 0.11835 0.0
O131 O 0.35038 0.78037 0.05149 0.0
Sc132 Sc 0.7834 0.61945 0.88856 0.0
Sc133 Sc 0.71866 0.59539 0.84028 0.0
Sc134 Sc 0.72853 0.67233 0.8609 0.0
O135 O 0.7435 0.629 0.86339 0.0
C136 C 0.75832 0.67113 0.94124 0.0
C137 C 0.74236 0.56441 0.91463 0.0
C138 C 0.66813 0.6366 0.87869 0.0
C139 C 0.78568 0.57496 0.81936 0.0
C140 C 0.79848 0.6796 0.84353 0.0
C141 C 0.70999 0.64755 0.78127 0.0
O142 O 0.77371 0.6473 0.93602 0.0
O143 O 0.72304 0.56703 0.88871 0.0
O144 O 0.68469 0.65992 0.88171 0.0
O145 O 0.79858 0.59042 0.84437 0.0
O146 O 0.77126 0.68832 0.83961 0.0
O147 O 0.71264 0.61973 0.78903 0.0
O148 O 0.80571 0.65601 0.86139 0.0
O149 O 0.75722 0.5745 0.81514 0.0
O150 O 0.71347 0.66833 0.80497 0.0
O151 O 0.76508 0.58168 0.91783 0.0
O152 O 0.74174 0.68266 0.91641 0.0
O153 O 0.677 0.61248 0.86298 0.0
Sc154 Sc 0.61256 0.28517 0.15648 0.0
Sc155 Sc 0.60827 0.221 0.09917 0.0
Sc156 Sc 0.67593 0.23819 0.14539 0.0
O157 O 0.63225 0.24808 0.13375 0.0
C158 C 0.67734 0.30959 0.13313 0.0
C159 C 0.5864 0.28524 0.07339 0.0
C160 C 0.67339 0.21839 0.06123 0.0
C161 C 0.55835 0.23961 0.1596 0.0
C162 C 0.65379 0.26296 0.2234 0.0
C163 C 0.64296 0.17386 0.1498 0.0
O164 O 0.64945 0.31315 0.14019 0.0
O165 O 0.59417 0.25833 0.06582 0.0
O166 O 0.68724 0.22815 0.0894 0.0
O167 O 0.57371 0.26053 0.17445 0.0
O168 O 0.6707 0.24693 0.20303 0.0
O169 O 0.62046 0.18145 0.13 0.0
O170 O 0.63211 0.27863 0.21071 0.0
O171 O 0.56744 0.22469 0.13164 0.0
O172 O 0.6649 0.19158 0.15687 0.0
O173 O 0.59021 0.29701 0.10522 0.0
O174 O 0.69048 0.28402 0.13438 0.0
O175 O 0.6451 0.21382 0.06092 0.0
H176 H 0.27723 0.0303 0.32543 0.0
H177 H 0.30428 0.9909 0.29197 0.0
H178 H 0.34804 0.05824 0.22467 0.0
H179 H 0.32115 0.09831 0.25916 0.0
H180 H 0.31297 0.0092 0.18671 0.0
H181 H 0.39591 0.96565 0.28806 0.0
H182 H 0.35946 0.97326 0.3079 0.0
H183 H 0.38146 0.00382 0.28946 0.0
C184 C 0.29303 0.03675 0.30394 0.0
C185 C 0.29713 0.06716 0.29462 0.0
C186 C 0.30861 0.01427 0.28506 0.0
C187 C 0.32834 0.02173 0.2562 0.0
C188 C 0.33313 0.05219 0.24723 0.0
H189 H 0.39702 0.85801 0.14682 0.0
H190 H 0.39692 0.90992 0.1698 0.0
C191 C 0.31787 0.07493 0.26682 0.0
C192 C 0.34065 -0.00298 0.23333 0.0
H193 H 0.37752 0.92991 0.24267 0.0
C194 C 0.32785 0.99224 0.19834 0.0
C195 C 0.36009 0.97504 0.24859 0.0
C196 C 0.37528 0.97977 0.28546 0.0
C197 C 0.33191 0.96479 0.17967 0.0
C198 C 0.34901 0.94171 0.19663 0.0
C199 C 0.36404 0.94753 0.23002 0.0
C200 C 0.34914 0.9106 0.182 0.0
C201 C 0.31673 0.96015 0.14277 0.0
C202 C 0.32236 0.89371 0.182 0.0
C203 C 0.32231 0.86398 0.16924 0.0
C204 C 0.34907 0.85062 0.15613 0.0
C205 C 0.37595 0.86762 0.15652 0.0
C206 C 0.37599 0.89729 0.16958 0.0
H207 H 0.31176 0.98198 0.12899 0.0
H208 H 0.33101 0.94622 0.12411 0.0
H209 H 0.29503 0.94816 0.14708 0.0
H210 H 0.30151 0.9035 0.19216 0.0
H211 H 0.30125 0.85159 0.16936 0.0
H212 H 0.03347 0.80723 0.69202 0.0
H213 H 0.98401 0.80208 0.7211 0.0
H214 H 0.98394 0.70703 0.69562 0.0
H215 H 0.03313 0.71208 0.66546 0.0
H216 H 0.92946 0.73442 0.68063 0.0
H217 H 0.96963 0.76465 0.82165 0.0
H218 H 0.97669 0.79251 0.78672 0.0
H219 H 0.99524 0.75649 0.78413 0.0
C220 C 0.02305 0.78515 0.69276 0.0
C221 C 0.03739 0.75996 0.67674 0.0
C222 C 0.99478 0.78229 0.70943 0.0
C223 C 0.98057 0.75412 0.71098 0.0
C224 C 0.99461 0.72899 0.69471 0.0
H225 H 0.85882 0.67051 0.85181 0.0
H226 H 0.89976 0.69454 0.81855 0.0
C227 C 0.02275 0.73187 0.67764 0.0
C228 C 0.95125 0.75053 0.73005 0.0
H229 H 0.91803 0.75371 0.81512 0.0
C230 C 0.92678 0.73888 0.70997 0.0
C231 C 0.94797 0.7565 0.7683 0.0
C232 C 0.9738 0.76799 0.79161 0.0
C233 C 0.89944 0.73171 0.72749 0.0
C234 C 0.89646 0.73694 0.76592 0.0
C235 C 0.92042 0.74999 0.78559 0.0
C236 C 0.87091 0.72456 0.78731 0.0
C237 C 0.87468 0.71698 0.70522 0.0
C238 C 0.84102 0.7339 0.78124 0.0
C239 C 0.81724 0.71994 0.80018 0.0
C240 C 0.82316 0.69657 0.82549 0.0
C241 C 0.8533 0.68822 0.83233 0.0
C242 C 0.87683 0.70204 0.81344 0.0
H243 H 0.8824 0.71042 0.67708 0.0
H244 H 0.86617 0.69655 0.71957 0.0
H245 H 0.85553 0.73295 0.70223 0.0
H246 H 0.83608 0.75163 0.76156 0.0
H247 H 0.79429 0.72697 0.7944 0.0
H248 H 0.66367 0.93871 0.34334 0.0
H249 H 0.64289 0.98042 0.30738 0.0
H250 H 0.68133 0.94243 0.20784 0.0
H251 H 0.70361 0.90167 0.24426 0.0
H252 H 0.70127 -0.00421 0.21692 0.0
H253 H 0.57797 0.00211 0.23677 0.0
H254 H 0.59655 -2e-05 0.28069 0.0
H255 H 0.59941 0.96886 0.24871 0.0
C256 C 0.66661 0.93868 0.31358 0.0
C257 C 0.6853 0.91721 0.29648 0.0
C258 C 0.6546 0.96248 0.29294 0.0
C259 C 0.66043 0.96461 0.25478 0.0
C260 C 0.67661 0.94135 0.23723 0.0
H261 H 0.60779 0.12579 0.12981 0.0
H262 H 0.61064 0.07411 0.15302 0.0
C263 C 0.68924 0.91803 0.25797 0.0
C264 C 0.65484 0.99334 0.2349 0.0
H265 H 0.60303 0.0494 0.22171 0.0
C266 C 0.67957 0.00715 0.21741 0.0
C267 C 0.62656 0.00825 0.23519 0.0
C268 C 0.59859 0.99382 0.25103 0.0
C269 C 0.67716 0.03581 0.20155 0.0
C270 C 0.64956 0.05167 0.20439 0.0
C271 C 0.62438 0.03743 0.22029 0.0
C272 C 0.64679 0.08325 0.19162 0.0
C273 C 0.70433 0.0488 0.18199 0.0
C274 C 0.66574 0.10563 0.20624 0.0
C275 C 0.66445 0.13509 0.19279 0.0
C276 C 0.64378 0.14285 0.16487 0.0
C277 C 0.62405 0.12058 0.15124 0.0
C278 C 0.62558 0.09103 0.16449 0.0
H279 H 0.71979 0.03075 0.17208 0.0
H280 H 0.69753 0.06282 0.15796 0.0
H281 H 0.71715 0.06318 0.20159 0.0
H282 H 0.68174 0.10025 0.2279 0.0
H283 H 0.67963 0.15177 0.2043 0.0
H284 H 0.1331 0.32011 0.85242 0.0
H285 H 0.09119 0.29645 0.82029 0.0
H286 H 0.15273 0.23503 0.76637 0.0
H287 H 0.1953 0.259 0.79815 0.0
H288 H 0.11388 0.26354 0.71792 0.0
H289 H 0.04992 0.21562 0.83521 0.0
H290 H 0.05898 0.25451 0.84306 0.0
H291 H 0.0889 0.22712 0.83924 0.0
C292 C 0.13785 0.30134 0.83411 0.0
C293 C 0.16762 0.2915 0.82781 0.0
C294 C 0.11377 0.28767 0.81599 0.0
C295 C 0.11885 0.26371 0.79145 0.0
C296 C 0.1484 0.25335 0.78552 0.0
H297 H 0.95618 0.18485 0.69558 0.0
H298 H 0.00555 0.18947 0.72482 0.0
C299 C 0.17264 0.26703 0.80374 0.0
C300 C 0.09332 0.25153 0.76992 0.0
H301 H 0.02118 0.22623 0.77984 0.0
C302 C 0.09379 0.2548 0.73131 0.0
C303 C 0.06737 0.2397 0.78742 0.0
C304 C 0.06636 0.23372 0.82849 0.0
C305 C 0.0682 0.24832 0.70994 0.0
C306 C 0.0414 0.239 0.72787 0.0
C307 C 0.0416 0.23389 0.76619 0.0
C308 C 0.0125 0.23571 0.70787 0.0
C309 C 0.07003 0.25191 0.6685 0.0
C310 C -4e-05 0.26029 0.68881 0.0
C311 C 0.97175 0.25773 0.67186 0.0
C312 C 0.9554 0.23066 0.67422 0.0
C313 C 0.96807 0.2061 0.6934 0.0
C314 C -0.00366 0.20862 0.71003 0.0
H315 H 0.09361 0.24922 0.65844 0.0
H316 H 0.05548 0.23527 0.65407 0.0
H317 H 0.06236 0.27491 0.66087 0.0
H318 H 0.0117 0.28168 0.68769 0.0
H319 H 0.96255 0.2771 0.65752 0.0
H320 H 0.3067 0.62916 0.14524 0.0
H321 H 0.29115 0.58412 0.11129 0.0
H322 H 0.25585 0.6399 0.02372 0.0
H323 H 0.27084 0.6853 0.05812 0.0
H324 H 0.22229 0.5842 0.03809 0.0
H325 H 0.34566 0.56714 0.0198 0.0
H326 H 0.33389 0.5704 0.06721 0.0
H327 H 0.32975 0.60206 0.03659 0.0
C328 C 0.2947 0.63182 0.11932 0.0
C329 C 0.29019 0.66058 0.10403 0.0
C330 C 0.28598 0.60613 0.09992 0.0
C331 C 0.2731 0.60879 0.06468 0.0
C332 C 0.26595 0.63749 0.05084 0.0
H333 H 0.28912 0.47218 0.89386 0.0
H334 H 0.29194 0.51815 0.93093 0.0
C335 C 0.27436 0.66336 0.07055 0.0
C336 C 0.27076 0.58187 0.04077 0.0
H337 H 0.31386 0.52753 -0.00045 0.0
C338 C 0.24223 0.5718 0.02951 0.0
C339 C 0.29695 0.56621 0.02904 0.0
C340 C 0.32833 0.57711 0.03843 0.0
C341 C 0.23916 0.54582 0.00754 0.0
C342 C 0.26531 0.52938 -0.00273 0.0
C343 C 0.29384 0.53997 0.00782 0.0
C344 C 0.26376 0.50126 0.97525 0.0
C345 C 0.20803 0.53653 -0.00493 0.0
C346 C 0.24774 0.47622 0.98843 0.0
C347 C 0.24604 0.44989 0.96731 0.0
C348 C 0.26065 0.448 0.93276 0.0
C349 C 0.27765 0.47278 0.92034 0.0
C350 C 0.27916 0.49916 0.94139 0.0
H351 H 0.19185 0.55568 -0.00376 0.0
H352 H 0.2085 0.52754 0.96638 0.0
H353 H 0.19946 0.51855 0.01363 0.0
H354 H 0.23645 0.47706 0.01501 0.0
H355 H 0.23295 0.43117 0.97788 0.0
H356 H 0.64236 0.68135 0.92034 0.0
H357 H 0.59221 0.68171 0.94836 0.0
H358 H 0.57387 0.59405 0.90192 0.0
H359 H 0.62405 0.59338 0.87349 0.0
H360 H 0.52597 0.63807 0.89358 0.0
H361 H 0.56707 0.62833 0.03785 0.0
H362 H 0.58544 0.65767 0.01208 0.0
H363 H 0.59023 0.61898 -0.00172 0.0
C364 C 0.62773 0.66213 0.91595 0.0
C365 C 0.63736 0.63727 0.8948 0.0
C366 C 0.59913 0.66233 0.93214 0.0
C367 C 0.57963 0.63771 0.92759 0.0
C368 C 0.58876 0.61315 0.90589 0.0
H369 H 0.42344 0.6469 0.07395 0.0
H370 H 0.46165 0.62227 0.03553 0.0
C371 C 0.61746 0.61284 0.88976 0.0
C372 C 0.54969 0.63798 0.94559 0.0
H373 H 0.51651 0.64645 0.02999 0.0
C374 C 0.52373 0.63937 0.92343 0.0
C375 C 0.54686 0.63891 0.9845 0.0
C376 C 0.57385 0.63558 0.00963 0.0
C377 C 0.4951 0.64389 0.93923 0.0
C378 C 0.49263 0.64749 0.97801 0.0
C379 C 0.51838 0.64389 0.00022 0.0
C380 C 0.46474 0.65873 -0.00402 0.0
C381 C 0.46793 0.64546 0.91418 0.0
C382 C 0.45307 0.68694 0.98577 0.0
C383 C 0.43122 0.70105 0.00756 0.0
C384 C 0.42089 0.68741 0.04035 0.0
C385 C 0.43101 0.65817 0.04905 0.0
C386 C 0.45285 0.64402 0.02711 0.0
H387 H 0.47132 0.63142 0.88902 0.0
H388 H 0.44713 0.63784 0.92856 0.0
H389 H 0.46461 0.66911 0.90502 0.0
H390 H 0.46232 0.69905 0.96236 0.0
H391 H 0.42386 0.72348 -0.00016 0.0
H392 H 0.73106 0.31123 0.09502 0.0
H393 H 0.75307 0.35509 0.06382 0.0
H394 H 0.68242 0.41152 0.10844 0.0
H395 H 0.6609 0.36842 0.1402 0.0
H396 H 0.72387 0.38548 0.01061 0.0
H397 H 0.75415 0.46561 0.12123 0.0
H398 H 0.74716 0.42619 0.13033 0.0
H399 H 0.71622 0.45254 0.12743 0.0
C400 C 0.7208 0.33317 0.0991 0.0
C401 C 0.69411 0.33629 0.11986 0.0
C402 C 0.73334 0.35817 0.08116 0.0
C403 C 0.71955 0.38663 0.0841 0.0
C404 C 0.69387 0.38998 0.10643 0.0
H405 H 0.69549 0.52437 0.9221 0.0
H406 H 0.69294 0.48083 0.96343 0.0
C407 C 0.6814 0.36516 0.12429 0.0
C408 C 0.72911 0.41198 0.06023 0.0
H409 H 0.74195 0.48779 0.06153 0.0
C410 C 0.72845 0.40774 0.02174 0.0
C411 C 0.7354 0.44092 0.07473 0.0
C412 C 0.7386 0.44649 0.11572 0.0
C413 C 0.7322 0.43201 -0.00262 0.0
C414 C 0.73592 0.46138 0.01197 0.0
C415 C 0.73839 0.46535 0.05039 0.0
C416 C 0.73694 0.48831 0.98786 0.0
C417 C 0.7319 0.42595 0.95629 0.0
C418 C 0.76189 0.50766 0.9891 0.0
C419 C 0.76321 0.53279 0.96598 0.0
C420 C 0.73957 0.53908 0.94109 0.0
C421 C 0.71419 0.52007 0.94066 0.0
C422 C 0.71281 0.49503 0.96404 0.0
H423 H 0.73835 0.40226 0.95003 0.0
H424 H 0.70873 0.42963 0.9455 0.0
H425 H 0.74753 0.44126 0.94136 0.0
H426 H 0.78062 0.50302 0.00751 0.0
H427 H 0.78313 0.5469 0.96715 0.0
H428 H 0.56255 0.34231 0.07892 0.0
H429 H 0.52448 0.36476 0.03838 0.0
H430 H 0.5315 0.28852 0.96472 0.0
H431 H 0.56991 0.26624 0.0043 0.0
H432 H 0.52011 0.34332 0.92777 0.0
H433 H 0.4417 0.32381 0.04608 0.0
H434 H 0.47314 0.34833 0.05486 0.0
H435 H 0.47964 0.30906 0.04549 0.0
C436 C 0.55656 0.33064 0.05363 0.0
C437 C 0.56875 0.30207 0.04538 0.0
C438 C 0.53475 0.3435 0.03056 0.0
C439 C 0.52469 0.32789 -0.00086 0.0
C440 C 0.53884 0.30082 0.98902 0.0
H441 H 0.35511 0.29965 0.90088 0.0
H442 H 0.40468 0.299 0.93013 0.0
C443 C 0.56073 0.28805 0.01185 0.0
C444 C 0.49689 0.33713 0.97957 0.0
H445 H 0.42034 0.33928 0.99014 0.0
C446 C 0.49829 0.34297 0.94143 0.0
C447 C 0.46848 0.3362 -0.00247 0.0
C448 C 0.46542 0.32881 0.03816 0.0
C449 C 0.47187 0.34698 0.92051 0.0
C450 C 0.44355 0.34525 0.9384 0.0
C451 C 0.44221 0.34058 0.97669 0.0
C452 C 0.41483 0.34561 0.91772 0.0
C453 C 0.47424 0.35154 0.87927 0.0
C454 C 0.40433 0.37202 0.90081 0.0
C455 C 0.37591 0.37253 0.88402 0.0
C456 C 0.35751 0.34662 0.88405 0.0
C457 C 0.36856 0.32003 0.90034 0.0
C458 C 0.3969 0.31959 0.91709 0.0
H459 H 0.49771 0.34848 0.86902 0.0
H460 H 0.45923 0.33549 0.86453 0.0
H461 H 0.46672 0.37471 0.87223 0.0
H462 H 0.41776 0.39242 0.90146 0.0
H463 H 0.36812 0.39341 0.87178 0.0
H464 H 0.84494 0.55827 0.82871 0.0
H465 H 0.87187 0.51816 0.79567 0.0
H466 H 0.79441 0.50496 0.72521 0.0
H467 H 0.76774 0.54508 0.75727 0.0
H468 H 0.85279 0.46095 0.79682 0.0
H469 H 0.8617 0.49644 0.65133 0.0
H470 H 0.8543 0.52294 0.68827 0.0
H471 H 0.82381 0.5021 0.66732 0.0
C472 C 0.83398 0.5474 0.80549 0.0
C473 C 0.80405 0.55465 0.79589 0.0
C474 C 0.84941 0.52449 0.78666 0.0
C475 C 0.83529 0.5088 0.75771 0.0
C476 C 0.80608 0.51721 0.74683 0.0
H477 H 0.8122 0.32923 0.7046 0.0
H478 H 0.81678 0.37954 0.73113 0.0
C479 C 0.79068 0.53997 0.76556 0.0
C480 C 0.84858 0.48076 0.74258 0.0
H481 H 0.85596 0.44194 0.66159 0.0
C482 C 0.85435 0.45701 0.76725 0.0
C483 C 0.85118 0.47568 0.70407 0.0
C484 C 0.84773 0.50082 0.67632 0.0
C485 C 0.85979 0.42771 0.75433 0.0
C486 C 0.85884 0.42203 0.71587 0.0
C487 C 0.856 0.44624 0.69115 0.0
C488 C 0.85745 0.391 0.701 0.0
C489 C 0.86534 0.40291 0.78206 0.0
C490 C 0.87842 0.38104 0.6746 0.0
C491 C 0.87572 0.35231 0.65906 0.0
C492 C 0.85182 0.33314 0.66945 0.0
C493 C 0.83092 0.34328 0.696 0.0
C494 C 0.83366 0.37196 0.71148 0.0
H495 H 0.87573 0.41194 0.80775 0.0
H496 H 0.84346 0.39247 0.78975 0.0
H497 H 0.88029 0.38511 0.7705 0.0
H498 H 0.89676 0.39555 0.66591 0.0
H499 H 0.89224 0.34526 0.63868 0.0
H500 H 0.53555 0.25318 0.22776 0.0
H501 H 0.48278 0.25092 0.24735 0.0
H502 H 0.45782 0.21547 0.14044 0.0
H503 H 0.51068 0.2166 0.12114 0.0
H504 H 0.43542 0.28097 0.21837 0.0
H505 H 0.4157 0.15742 0.20805 0.0
H506 H 0.45298 0.1736 0.20588 0.0
H507 H 0.42871 0.17455 0.16602 0.0
C508 C 0.51889 0.24438 0.20868 0.0
C509 C 0.52727 0.23483 0.17305 0.0
C510 C 0.48875 0.24327 0.2198 0.0
C511 C 0.46642 0.23285 0.19543 0.0
C512 C 0.47475 0.22297 0.15997 0.0
H513 H 0.27527 0.20909 0.25127 0.0
H514 H 0.3181 0.22463 0.2125 0.0
C515 C 0.50498 0.22362 0.149 0.0
C516 C 0.4344 0.23321 0.20709 0.0
H517 H 0.3741 0.18762 0.22459 0.0
C518 C 0.42192 0.2606 0.21944 0.0
C519 C 0.41676 0.20664 0.20814 0.0
C520 C 0.42923 0.17634 0.19663 0.0
C521 C 0.39269 0.26186 0.23426 0.0
C522 C 0.37559 0.23515 0.23649 0.0
C523 C 0.38735 0.20811 0.22236 0.0
C524 C 0.3478 0.2334 0.25876 0.0
C525 C 0.38057 0.29145 0.24856 0.0
C526 C 0.35027 0.23415 0.2974 0.0
C527 C 0.3262 0.22487 0.3194 0.0
C528 C 0.29921 0.21512 0.30303 0.0
C529 C 0.2958 0.2169 0.26446 0.0
C530 C 0.32018 0.22564 0.24234 0.0
H531 H 0.39307 0.31094 0.23684 0.0
H532 H 0.35621 0.29386 0.24188 0.0
H533 H 0.38297 0.29208 0.27912 0.0
H534 H 0.37158 0.23967 0.31047 0.0
H535 H 0.3293 0.22355 0.3491 0.0
H536 H 0.11822 0.64177 0.63034 0.0
H537 H 0.1206 0.59169 0.65824 0.0
H538 H 0.17955 0.62592 0.74347 0.0
H539 H 0.17812 0.67582 0.71503 0.0
H540 H 0.20195 0.57687 0.71317 0.0
H541 H 0.08213 0.55552 0.74862 0.0
H542 H 0.08747 0.56481 0.70077 0.0
H543 H 0.09584 0.59239 0.73585 0.0
C544 C 0.13143 0.63871 0.65527 0.0
C545 C 0.14814 0.66271 0.67038 0.0
C546 C 0.13254 0.61011 0.67137 0.0
C547 C 0.14986 0.60515 0.70327 0.0
C548 C 0.16595 0.62927 0.7189 0.0
H549 H 0.16636 0.44999 0.84496 0.0
H550 H 0.14768 0.49552 0.81426 0.0
C551 C 0.16521 0.65775 0.70255 0.0
C552 C 0.15358 0.57437 0.71847 0.0
H553 H 0.11547 0.51312 0.75166 0.0
C554 C 0.18301 0.56302 0.72172 0.0
C555 C 0.12886 0.5564 0.72986 0.0
C556 C 0.09682 0.568 0.72897 0.0
C557 C 0.18853 0.53425 0.73602 0.0
C558 C 0.1638 0.51578 0.74609 0.0
C559 C 0.1343 0.52713 0.74319 0.0
C560 C 0.16869 0.48532 0.7616 0.0
C561 C 0.22091 0.52431 0.74116 0.0
C562 C 0.185 0.4637 0.74143 0.0
C563 C 0.19611 0.43802 0.75903 0.0
C564 C 0.19036 0.43324 0.7968 0.0
C565 C 0.17109 0.45315 0.8158 0.0
C566 C 0.16046 0.47918 0.79833 0.0
H567 H 0.23669 0.54377 0.74128 0.0
H568 H 0.22376 0.51173 0.76748 0.0
H569 H 0.22749 0.50925 0.71797 0.0
H570 H 0.19089 0.46771 0.71276 0.0
H571 H 0.21061 0.42278 0.74367 0.0
H572 H 0.70529 0.76703 0.28122 0.0
H573 H 0.66234 0.7515 0.24264 0.0
H574 H 0.60145 0.77041 0.33292 0.0
H575 H 0.64393 0.78615 0.37133 0.0
H576 H 0.60407 0.70988 0.25762 0.0
H577 H 0.58803 0.83361 0.24181 0.0
H578 H 0.62381 0.81697 0.2545 0.0
H579 H 0.59428 0.82054 0.28829 0.0
C580 C 0.68286 0.76672 0.29322 0.0
C581 C 0.67775 0.77807 0.32902 0.0
C582 C 0.65842 0.75798 0.27116 0.0
C583 C 0.62891 0.76027 0.28499 0.0
C584 C 0.62416 0.76872 0.32188 0.0
H585 H 0.44803 0.72395 0.22267 0.0
H586 H 0.49865 0.72583 0.24898 0.0
C587 C 0.64839 0.77768 0.34371 0.0
C588 C 0.60274 0.75833 0.26007 0.0
H589 H 0.54743 0.80234 0.22293 0.0
C590 C 0.59182 0.73001 0.24949 0.0
C591 C 0.58731 0.78475 0.24911 0.0
C592 C 0.59899 0.81576 0.25869 0.0
C593 C 0.56474 0.72739 0.2296 0.0
C594 C 0.54813 0.75379 0.22097 0.0
C595 C 0.56004 0.78214 0.22989 0.0
C596 C 0.51758 0.75257 0.20462 0.0
C597 C 0.55408 0.69643 0.21831 0.0
C598 C 0.5111 0.76825 0.17186 0.0
C599 C 0.48199 0.76771 0.15704 0.0
C600 C 0.45889 0.75146 0.17477 0.0
C601 C 0.46535 0.73646 0.20811 0.0
C602 C 0.49436 0.73719 0.22299 0.0
H603 H 0.57328 0.68039 0.21587 0.0
H604 H 0.5385 0.68759 0.23977 0.0
H605 H 0.54186 0.6971 0.19151 0.0
H606 H 0.52866 0.78062 0.15756 0.0
H607 H 0.47781 0.77941 0.13125 0.0
H608 H 0.79186 0.11705 0.65477 0.0
H609 H 0.77367 0.07359 0.61968 0.0
H610 H 0.74338 0.13273 0.53261 0.0
H611 H 0.76102 0.17652 0.56811 0.0
H612 H 0.70747 0.07524 0.54563 0.0
H613 H 0.83142 0.06147 0.52741 0.0
H614 H 0.81892 0.06382 0.57465 0.0
H615 H 0.81462 0.09582 0.54466 0.0
C616 C 0.78014 0.12084 0.62887 0.0
C617 C 0.77807 0.14993 0.61383 0.0
C618 C 0.76984 0.09606 0.60888 0.0
C619 C 0.75783 0.10007 0.57338 0.0
C620 C 0.75268 0.12932 0.56001 0.0
H621 H 0.77918 0.96905 0.39731 0.0
H622 H 0.77889 0.01471 0.43514 0.0
C623 C 0.76264 0.15427 0.58032 0.0
C624 C 0.75598 0.07402 0.54816 0.0
H625 H 0.80051 0.02248 0.50409 0.0
C626 C 0.72771 0.06367 0.53638 0.0
C627 C 0.78258 0.05954 0.53562 0.0
C628 C 0.81365 0.07082 0.5459 0.0
C629 C 0.72533 0.03846 0.513 0.0
C630 C 0.75194 0.02318 0.50183 0.0
C631 C 0.78017 0.0341 0.51296 0.0
C632 C 0.75124 -0.00429 0.47866 0.0
C633 C 0.69447 0.02867 0.50011 0.0
C634 C 0.73636 0.96973 0.49105 0.0
C635 C 0.73646 0.9436 0.46952 0.0
C636 C 0.75176 0.94288 0.43537 0.0
C637 C 0.76727 0.96877 0.4235 0.0
C638 C 0.76699 0.99494 0.44496 0.0
H639 H 0.67777 0.04732 0.50219 0.0
H640 H 0.69518 0.02058 0.47103 0.0
H641 H 0.68644 0.0099 0.51783 0.0
H642 H 0.72485 0.96959 0.5175 0.0
H643 H 0.72445 0.924 0.47963 0.0
H644 H 0.11595 0.09587 0.36553 0.0
H645 H 0.06599 0.09181 0.39385 0.0
H646 H 0.07528 0.18144 0.43873 0.0
H647 H 0.12535 0.18572 0.41096 0.0
H648 H 0.0575 0.1364 0.49034 0.0
H649 H 0.98685 0.13535 0.36292 0.0
H650 H 0.01764 0.1089 0.36528 0.0
H651 H 0.02541 0.14854 0.36289 0.0
C652 C 0.10735 0.11484 0.38123 0.0
C653 C 0.12473 0.14117 0.38596 0.0
C654 C 0.07871 0.11247 0.39722 0.0
C655 C 0.06692 0.13642 0.41802 0.0
C656 C 0.08405 0.16274 0.42263 0.0
H657 H 0.90928 0.20857 0.49953 0.0
H658 H 0.94804 0.18681 0.46001 0.0
C659 C 0.11266 0.16515 0.40672 0.0
C660 C 0.03723 0.13394 0.43641 0.0
H661 H 0.96135 0.13461 0.42004 0.0
C662 C 0.03642 0.13553 0.4751 0.0
C663 C 0.00994 0.13272 0.41622 0.0
C664 C 0.00975 0.13145 0.37451 0.0
C665 C 0.00899 0.13764 0.49425 0.0
C666 C 0.9816 0.13748 0.47404 0.0
C667 C 0.98238 0.13434 0.43539 0.0
C668 C 0.95277 0.14588 0.49203 0.0
C669 C 0.00975 0.14213 0.53569 0.0
C670 C 0.9411 0.12912 0.52169 0.0
C671 C 0.91905 0.14171 0.54477 0.0
C672 C 0.90835 0.17113 0.53825 0.0
C673 C 0.91748 0.18614 0.50584 0.0
C674 C 0.93956 0.17364 0.48302 0.0
H675 H 0.03296 0.14641 0.54608 0.0
H676 H 0.99517 0.16141 0.5439 0.0
H677 H 0.00108 0.12158 0.54955 0.0
H678 H 0.95058 0.10731 0.52854 0.0
H679 H 0.91218 0.12934 0.56919 0.0
H680 H 0.18166 0.8834 0.63118 0.0
H681 H 0.20456 0.92498 0.59789 0.0
H682 H 0.26366 0.8629 0.54095 0.0
H683 H 0.24 0.82055 0.57377 0.0
H684 H 0.26108 0.94863 0.58683 0.0
H685 H 0.21361 0.89921 0.45738 0.0
H686 H 0.20422 0.88454 0.50242 0.0
H687 H 0.24056 0.8768 0.48238 0.0
C688 C 0.19982 0.8785 0.61197 0.0
C689 C 0.20854 0.84864 0.60439 0.0
C690 C 0.21307 0.90237 0.59316 0.0
C691 C 0.23533 0.89694 0.56642 0.0
C692 C 0.24606 0.86743 0.56103 0.0
H693 H 0.28802 0.05959 0.44273 0.0
H694 H 0.29224 0.0146 0.48109 0.0
C695 C 0.23268 0.84333 0.57993 0.0
C696 C 0.24397 0.92199 0.54169 0.0
H697 H 0.23098 0.94876 0.4547 0.0
C698 C 0.25513 0.94859 0.55772 0.0
C699 C 0.23576 0.92181 0.50385 0.0
C700 C 0.22269 0.8942 0.48536 0.0
C701 C 0.25655 0.97555 0.53754 0.0
C702 C 0.24721 0.97558 0.50014 0.0
C703 C 0.23788 0.94858 0.48349 0.0
C704 C 0.24471 0.00365 0.47838 0.0
C705 C 0.26618 0.00407 0.55703 0.0
C706 C 0.21659 0.01227 0.46391 0.0
C707 C 0.21408 0.0378 0.44158 0.0
C708 C 0.2397 0.05523 0.43345 0.0
C709 C 0.26774 0.04688 0.44875 0.0
C710 C 0.27025 0.02118 0.47078 0.0
H711 H 0.26627 0.00139 0.5876 0.0
H712 H 0.2894 0.01006 0.54817 0.0
H713 H 0.25101 0.02312 0.54979 0.0
H714 H 0.19659 -0.00102 0.46955 0.0
H715 H 0.19219 0.04358 0.43026 0.0
H716 H 0.08043 0.86172 0.55821 0.0
H717 H 0.0428 0.88397 0.51676 0.0
H718 H 0.02931 0.79726 0.4652 0.0
H719 H 0.0674 0.77522 0.50505 0.0
H720 H 0.0232 0.84232 0.41572 0.0
H721 H 0.956 0.86684 0.54294 0.0
H722 H 0.99177 0.88556 0.5391 0.0
H723 H 0.99047 0.84528 0.54444 0.0
C724 C 0.06996 0.84756 0.53744 0.0
C725 C 0.07639 0.81649 0.53563 0.0
C726 C 0.04834 0.86029 0.51394 0.0
C727 C 0.03259 0.84204 0.48875 0.0
C728 C 0.04098 0.81173 0.48467 0.0
H729 H 0.86776 0.8038 0.3927 0.0
H730 H 0.91943 0.80846 0.41589 0.0
C731 C 0.06274 0.7991 0.50771 0.0
C732 C 0.0051 0.85283 0.4696 0.0
H733 H 0.93129 0.87079 0.48624 0.0
C734 C 0.00327 0.84919 0.43105 0.0
C735 C 0.97904 0.86167 0.48972 0.0
C736 C 0.97917 0.86491 0.53133 0.0
C737 C 0.97568 0.85233 0.41243 0.0
C738 C 0.9495 0.85945 0.4329 0.0
C739 C 0.95162 0.86529 0.47087 0.0
C740 C 0.91918 0.85723 0.41646 0.0
C741 C 0.97429 0.84663 0.37134 0.0
C742 C 0.9021 0.88318 0.40952 0.0
C743 C 0.87265 0.88064 0.3961 0.0
C744 C 0.8597 0.85205 0.39007 0.0
C745 C 0.877 0.82611 0.39722 0.0
C746 C 0.90655 0.82872 0.41018 0.0
H747 H -0.00295 0.84726 0.3584 0.0
H748 H 0.96434 0.82404 0.36632 0.0
H749 H 0.95959 0.86359 0.35766 0.0
H750 H 0.91151 0.90533 0.41467 0.0
H751 H 0.85986 0.90106 0.39102 0.0
H752 H 0.20068 0.32577 -0.00296 0.0
H753 H 0.19265 0.29422 0.05164 0.0
H754 H 0.26276 0.23365 0.01478 0.0
H755 H 0.27139 0.26513 0.96061 0.0
H756 H 0.17504 0.23366 0.04976 0.0
H757 H 0.28436 0.24727 0.12314 0.0
H758 H 0.27233 0.27248 0.08682 0.0
H759 H 0.28792 0.23616 0.07554 0.0
C760 C 0.2148 0.30606 0.00086 0.0
C761 C 0.23665 0.298 0.97434 0.0
C762 C 0.21007 0.288 0.03199 0.0
C763 C 0.22722 0.26173 0.03729 0.0
C764 C 0.24961 0.25409 0.01151 0.0
H765 H 0.22511 0.12672 0.21222 0.0
H766 H 0.23027 0.14925 0.15065 0.0
C767 C 0.25441 0.27211 0.98044 0.0
C768 C 0.22053 0.24138 0.06862 0.0
H769 H 0.25116 0.20987 0.14605 0.0
C770 C 0.19165 0.22846 0.07087 0.0
C771 C 0.24237 0.23445 0.09584 0.0
C772 C 0.2734 0.24849 0.09553 0.0
C773 C 0.18396 0.20885 0.0998 0.0
C774 C 0.20565 0.20228 0.12725 0.0
C775 C 0.2347 0.21474 0.12465 0.0
C776 C 0.19803 0.185 0.16089 0.0
C777 C 0.15275 0.19531 0.1008 0.0
C778 C 0.17748 0.19712 0.18641 0.0
C779 C 0.17456 0.18441 0.22148 0.0
C780 C 0.19217 0.15935 0.23163 0.0
C781 C 0.21104 0.14583 0.20505 0.0
C782 C 0.21416 0.15877 0.16999 0.0
H783 H 0.14201 0.19552 0.07303 0.0
H784 H 0.15343 0.17174 0.11112 0.0
H785 H 0.13834 0.20873 0.11982 0.0
H786 H 0.16516 0.2176 0.1801 0.0
H787 H 0.15985 0.1953 0.24142 0.0
H788 H 0.34237 0.81344 -0.00759 0.0
H789 H 0.31442 0.82814 0.93661 0.0
H790 H 0.23842 0.77493 0.97277 0.0
H791 H 0.26557 0.76093 0.02847 0.0
H792 H 0.29422 0.7941 0.8826 0.0
H793 H 0.19588 0.85099 0.94455 0.0
H794 H 0.22951 0.84266 0.97087 0.0
H795 H 0.20038 0.81462 0.96531 0.0
C796 C 0.31964 0.80505 0.98844 0.0
C797 C 0.30609 0.78621 0.01493 0.0
C798 C 0.30365 0.81362 0.95675 0.0
C799 C 0.27397 0.80341 0.95114 0.0
C800 C 0.26078 0.78411 0.97722 0.0
H801 H 0.18655 0.74594 0.76081 0.0
H802 H 0.21247 0.75556 0.81915 0.0
C803 C 0.27653 0.77582 0.00889 0.0
C804 C 0.25752 0.81019 0.91653 0.0
H805 H 0.18699 0.82689 0.88433 0.0
C806 C 0.27103 0.80199 0.8829 0.0
C807 C 0.22747 0.8212 0.91669 0.0
C808 C 0.21267 0.83319 0.95133 0.0
C809 C 0.25445 0.80195 0.84996 0.0
C810 C 0.2234 0.80948 0.85099 0.0
C811 C 0.2106 0.82032 0.88388 0.0
C812 C 0.20364 0.80358 0.81894 0.0
C813 C 0.27013 0.79284 0.81456 0.0
C814 C 0.18814 0.82707 0.80115 0.0
C815 C 0.17269 0.82148 0.76806 0.0
C816 C 0.17285 0.79239 0.75257 0.0
C817 C 0.18641 0.76861 0.77205 0.0
C818 C 0.20141 0.77412 0.80514 0.0
H819 H 0.29471 0.79775 0.81583 0.0
H820 H 0.26746 0.76819 0.81036 0.0
H821 H 0.26037 0.80469 0.79029 0.0
H822 H 0.18931 0.84989 0.81178 0.0
H823 H 0.16251 0.84018 0.75337 0.0
H824 H 0.76597 0.85483 0.21698 0.0
H825 H 0.76452 0.82997 0.15625 0.0
H826 H 0.81718 0.75615 0.19953 0.0
H827 H 0.81828 0.78045 0.26015 0.0
H828 H 0.80906 0.80472 0.10574 0.0
H829 H 0.73511 0.71832 0.17016 0.0
H830 H 0.7435 0.75384 0.19226 0.0
H831 H 0.77057 0.72361 0.19332 0.0
C832 C 0.77793 0.83372 0.21318 0.0
C833 C 0.79186 0.81929 0.24326 0.0
C834 C 0.77698 0.81953 0.17862 0.0
C835 C 0.79012 0.79096 0.1739 0.0
C836 C 0.80637 0.77791 0.203 0.0
H837 H 0.79103 0.65472 0.00252 0.0
H838 H 0.79898 0.68441 0.05885 0.0
C839 C 0.80707 0.79185 0.23749 0.0
C840 C 0.78461 0.77341 0.13991 0.0
H841 H 0.7516 0.70866 0.10885 0.0
C842 C 0.79642 0.7838 0.10628 0.0
C843 C 0.76788 0.74624 0.1409 0.0
C844 C 0.75327 0.73492 0.176 0.0
C845 C 0.79254 0.7672 0.07356 0.0
C846 C 0.77627 0.73981 0.07475 0.0
C847 C 0.76427 0.72958 0.1083 0.0
C848 C 0.77092 0.72167 0.04124 0.0
C849 C 0.80623 0.77874 0.03806 0.0
C850 C 0.75187 0.73259 0.01344 0.0
C851 C 0.74707 0.71569 0.98146 0.0
C852 C 0.76133 0.68753 0.97671 0.0
C853 C 0.77979 0.67631 0.00521 0.0
C854 C 0.78443 0.69324 0.03733 0.0
H855 H 0.82298 0.7969 0.04315 0.0
H856 H 0.81743 0.76013 0.02268 0.0
H857 H 0.78807 0.78797 0.02022 0.0
H858 H 0.74084 0.75429 0.01641 0.0
H859 H 0.73262 0.72503 0.96019 0.0
H860 H 0.81487 0.25691 0.76619 0.0
H861 H 0.79308 0.25224 0.82795 0.0
H862 H 0.80638 0.15584 0.82401 0.0
H863 H 0.82932 0.16063 0.76246 0.0
H864 H 0.7412 0.22132 0.8371 0.0
H865 H 0.82996 0.17556 0.93013 0.0
H866 H 0.83859 0.19219 0.88579 0.0
H867 H 0.82397 0.15448 0.8883 0.0
C868 C 0.81397 0.23484 0.77901 0.0
C869 C 0.8236 0.2091 0.75973 0.0
C870 C 0.80148 0.23218 0.81418 0.0
C871 C 0.79803 0.2037 0.83047 0.0
C872 C 0.80927 0.17807 0.81218 0.0
H873 H 0.65716 0.18534 0.00018 0.0
H874 H 0.68714 0.17681 0.94411 0.0
C875 C 0.82232 0.18081 0.77707 0.0
C876 C 0.7794 0.20093 0.86422 0.0
H877 H 0.78057 0.17974 0.95487 0.0
C878 C 0.74977 0.21217 0.86287 0.0
C879 C 0.79068 0.18888 0.89762 0.0
C880 C 0.82262 0.17729 0.90082 0.0
C881 C 0.73139 0.21273 0.89436 0.0
C882 C 0.74264 0.20074 0.92785 0.0
C883 C 0.77198 0.18867 0.929 0.0
C884 C 0.72534 0.20321 0.9627 0.0
C885 C 0.70068 0.22745 0.89179 0.0
C886 C 0.73734 0.21997 0.99207 0.0
C887 C 0.72051 0.22456 0.02415 0.0
C888 C 0.69124 0.21258 0.02742 0.0
C889 C 0.67948 0.19519 -0.00174 0.0
C890 C 0.69654 0.19032 0.96625 0.0
H891 H 0.69847 0.24159 0.86658 0.0
H892 H 0.68306 0.20972 0.89061 0.0
H893 H 0.6962 0.24183 0.91637 0.0
H894 H 0.7595 0.23016 0.98982 0.0
H895 H 0.73028 0.23806 0.04608 0.0
H896 H 0.77486 0.75772 0.46456 0.0
H897 H 0.76679 0.72642 0.51904 0.0
H898 H 0.69947 0.78895 0.55872 0.0
H899 H 0.70683 0.82025 0.50381 0.0
H900 H 0.77215 0.73782 0.59296 0.0
H901 H 0.65366 0.70936 0.55786 0.0
H902 H 0.67896 0.72715 0.52537 0.0
H903 H 0.6605 0.74918 0.56059 0.0
C904 C 0.75845 0.76504 0.48493 0.0
C905 C 0.74123 0.79139 0.47952 0.0
C906 C 0.75386 0.74703 0.51604 0.0
C907 C 0.73198 0.75497 0.54235 0.0
C908 C 0.71585 0.78201 0.53813 0.0
H909 H 0.68186 0.69807 0.75685 0.0
H910 H 0.68526 0.71998 0.69503 0.0
C911 C 0.72032 0.80002 0.5069 0.0
C912 C 0.72612 0.73488 0.57419 0.0
H913 H 0.67051 0.69547 0.61826 0.0
C914 C 0.75003 0.72827 0.59829 0.0
C915 C 0.69727 0.72224 0.58078 0.0
C916 C 0.67119 0.72706 0.55459 0.0
C917 C 0.74558 0.7103 0.62969 0.0
C918 C 0.71653 0.6985 0.63686 0.0
C919 C 0.69276 0.70451 0.61241 0.0
C920 C 0.70998 0.68245 0.67163 0.0
C921 C 0.77163 0.70495 0.65581 0.0
C922 C 0.72158 0.65349 0.67823 0.0
C923 C 0.71941 0.64073 0.71352 0.0
C924 C 0.70593 0.65703 0.74254 0.0
C925 C 0.69253 0.68511 0.73501 0.0
C926 C 0.69442 0.69764 0.69977 0.0
H927 H 0.79185 0.71846 0.64834 0.0
H928 H 0.76491 0.71063 0.68461 0.0
H929 H 0.77794 0.68072 0.65521 0.0
H930 H 0.73354 0.64146 0.6566 0.0
H931 H 0.73008 0.61914 0.71866 0.0
H932 H 0.75553 0.28475 0.55949 0.0
H933 H 0.72333 0.29076 0.5053 0.0
H934 H 0.79832 0.26827 0.43422 0.0
H935 H 0.83104 0.26249 0.48845 0.0
H936 H 0.76031 0.31649 0.408 0.0
H937 H 0.69556 0.21444 0.44925 0.0
H938 H 0.69791 0.24365 0.48362 0.0
H939 H 0.73151 0.22399 0.46955 0.0
C940 C 0.76534 0.28136 0.53233 0.0
C941 C 0.79576 0.27268 0.52826 0.0
C942 C 0.74686 0.28478 0.50144 0.0
C943 C 0.75835 0.27935 0.46597 0.0
C944 C 0.78908 0.27239 0.46153 0.0
H945 H 0.68555 0.22205 0.26341 0.0
H946 H 0.70651 0.22861 0.32515 0.0
C947 C 0.80771 0.26912 0.49248 0.0
C948 C 0.73789 0.27897 0.43375 0.0
H949 H 0.67972 0.2395 0.39528 0.0
C950 C 0.74248 0.29989 0.40526 0.0
C951 C 0.71483 0.25708 0.43039 0.0
C952 C 0.70969 0.23332 0.45963 0.0
C953 C 0.72493 0.29913 0.37298 0.0
C954 C 0.70204 0.27708 0.36951 0.0
C955 C 0.69703 0.25661 0.39838 0.0
C956 C 0.68596 0.27228 0.33425 0.0
C957 C 0.73188 0.32095 0.34212 0.0
C958 C 0.6665 0.29422 0.31957 0.0
C959 C 0.65433 0.2905 0.28412 0.0
C960 C 0.66169 0.26487 0.26299 0.0
C961 C 0.67975 0.24222 0.27883 0.0
C962 C 0.69169 0.24588 0.31414 0.0
H963 H 0.75314 0.33359 0.34709 0.0
H964 H 0.73383 0.30882 0.31532 0.0
H965 H 0.71316 0.33747 0.33965 0.0
H966 H 0.66149 0.31456 0.33505 0.0
H967 H 0.64047 0.30831 0.27261 0.0
H968 H 0.29731 0.27921 0.75003 0.0
H969 H 0.29262 0.25929 0.68743 0.0
H970 H 0.26083 0.34581 0.64929 0.0
H971 H 0.26601 0.36621 0.71209 0.0
H972 H 0.23709 0.25693 0.65239 0.0
H973 H 0.32065 0.32053 0.56802 0.0
H974 H 0.32247 0.31902 0.61792 0.0
H975 H 0.29532 0.34295 0.59559 0.0
C976 C 0.28994 0.29423 0.72819 0.0
C977 C 0.28188 0.32423 0.73597 0.0
C978 C 0.28725 0.28279 0.69245 0.0
C979 C 0.27638 0.30106 0.66378 0.0
C980 C 0.2697 0.33147 0.67095 0.0
H981 H 0.2241 0.24538 0.44039 0.0
H982 H 0.23005 0.2743 0.49764 0.0
C983 C 0.27265 0.34308 0.70681 0.0
C984 C 0.26936 0.28714 0.6276 0.0
H985 H 0.28872 0.28656 0.53614 0.0
C986 C 0.24835 0.26346 0.62696 0.0
C987 C 0.28385 0.29595 0.59447 0.0
C988 C 0.30701 0.32085 0.59384 0.0
C989 C 0.24189 0.24788 0.5942 0.0
C990 C 0.25702 0.25607 0.56135 0.0
C991 C 0.27729 0.28038 0.56158 0.0
C992 C 0.25312 0.2386 0.52693 0.0
C993 C 0.21906 0.22266 0.59494 0.0
C994 C 0.26421 0.20903 0.52465 0.0
C995 C 0.26096 0.19245 0.49206 0.0
C996 C 0.24648 0.20517 0.46116 0.0
C997 C 0.23521 0.23481 0.46372 0.0
C998 C 0.23868 0.25145 0.49629 0.0
H999 H 0.20463 0.2236 0.62009 0.0
H1000 H 0.20435 0.2235 0.57009 0.0
H1001 H 0.2311 0.20069 0.5948 0.0
H1002 H 0.27563 0.19888 0.54804 0.0
H1003 H 0.26992 0.16973 0.49108 0.0
H1004 H 0.29315 0.76991 0.24937 0.0
H1005 H 0.27221 0.76425 0.31136 0.0
H1006 H 0.32033 0.68038 0.32463 0.0
H1007 H 0.34154 0.68577 0.26223 0.0
H1008 H 0.25556 0.67893 0.34034 0.0
H1009 H 0.31519 0.77148 0.41332 0.0
H1010 H 0.29885 0.78232 0.36983 0.0
H1011 H 0.32899 0.75514 0.3707 0.0
C1012 C 0.29962 0.75041 0.26556 0.0
C1013 C 0.31897 0.72824 0.25086 0.0
C1014 C 0.28772 0.7473 0.30103 0.0
C1015 C 0.29491 0.72201 0.32249 0.0
C1016 C 0.31468 0.70011 0.30838 0.0
H1017 H 0.23583 0.71462 0.55115 0.0
H1018 H 0.26523 0.7078 0.49476 0.0
C1019 C 0.32686 0.70331 0.27288 0.0
C1020 C 0.28024 0.71796 0.3588 0.0
H1021 H 0.27098 0.75204 0.44255 0.0
C1022 C 0.25918 0.6946 0.36297 0.0
C1023 C 0.28523 0.73836 0.38816 0.0
C1024 C 0.30849 0.7631 0.38553 0.0
C1025 C 0.24201 0.69183 0.39545 0.0
C1026 C 0.24592 0.7132 0.42409 0.0
C1027 C 0.26786 0.73582 0.42039 0.0
C1028 C 0.22716 0.71317 0.45792 0.0
C1029 C 0.21978 0.66624 0.39876 0.0
C1030 C 0.19584 0.71793 0.45586 0.0
C1031 C 0.17883 0.72178 0.48815 0.0
C1032 C 0.19301 0.72131 0.52293 0.0
C1033 C 0.22421 0.7154 0.5248 0.0
C1034 C 0.24109 0.71142 0.49262 0.0
H1035 H 0.22544 0.64746 0.37957 0.0
H1036 H 0.21909 0.65735 0.42747 0.0
H1037 H 0.19689 0.67456 0.39159 0.0
H1038 H 0.18477 0.71993 0.42927 0.0
H1039 H 0.15489 0.72642 0.48578 0.0
loop_
_geom_bond_atom_site_label_1
_geom_bond_atom_site_label_2
_geom_bond_distance
_geom_bond_site_symmetry_2
_ccdc_geom_bond_type
Sc0 O3 2.025 . S
Sc0 O10 2.105 . S
Sc0 O13 2.105 . S
Sc0 O16 2.105 . S
Sc0 O19 2.105 . S
Sc1 O3 2.025 . S
Sc1 O11 2.105 . S
Sc1 O15 2.105 . S
Sc1 O17 2.105 . S
Sc1 O21 2.105 . S
Sc2 O3 2.025 . S
Sc2 O12 2.105 . S
Sc2 O14 2.105 . S
Sc2 O18 2.105 . S
Sc2 O20 2.105 . S
O3 Sc0 2.025 . S
O3 Sc1 2.025 . S
O3 Sc2 2.025 . S
C4 O10 1.268 . S
C4 O20 1.268 . S
C5 O11 1.268 . S
C5 O19 1.268 . S
C6 O12 1.268 . S
C6 O21 1.268 . S
C7 O13 1.268 . S
C7 O17 1.268 . S
C8 O14 1.268 . S
C8 O16 1.268 . S
C9 O15 1.268 . S
C9 O18 1.268 . S
O10 Sc0 2.105 . S
O10 C4 1.268 . S
O11 Sc1 2.105 . S
O11 C5 1.268 . S
O12 Sc2 2.105 . S
O12 C6 1.268 . S
O13 Sc0 2.105 . S
O13 C7 1.268 . S
O14 Sc2 2.105 . S
O14 C8 1.268 . S
O15 Sc1 2.105 . S
O15 C9 1.268 . S
O16 Sc0 2.105 . S
O16 C8 1.268 . S
O17 Sc1 2.105 . S
O17 C7 1.268 . S
O18 Sc2 2.105 . S
O18 C9 1.268 . S
O19 Sc0 2.105 . S
O19 C5 1.268 . S
O20 Sc2 2.105 . S
O20 C4 1.268 . S
O21 Sc1 2.105 . S
O21 C6 1.268 . S
Sc22 O25 2.025 . S
Sc22 O32 2.105 . S
Sc22 O35 2.105 . S
Sc22 O38 2.105 . S
Sc22 O41 2.105 . S
Sc23 O25 2.025 . S
Sc23 O33 2.105 . S
Sc23 O37 2.105 . S
Sc23 O39 2.105 . S
Sc23 O43 2.105 . S
Sc24 O25 2.025 . S
Sc24 O34 2.105 . S
Sc24 O36 2.105 . S
Sc24 O40 2.105 . S
Sc24 O42 2.105 . S
O25 Sc22 2.025 . S
O25 Sc23 2.025 . S
O25 Sc24 2.025 . S
C26 O32 1.268 . S
C26 O42 1.268 . S
C27 O33 1.268 . S
C27 O41 1.268 . S
C28 O34 1.268 . S
C28 O43 1.268 . S
C29 O35 1.268 . S
C29 O39 1.268 . S
C30 O36 1.268 . S
C30 O38 1.268 . S
C31 O37 1.268 . S
C31 O40 1.268 . S
O32 Sc22 2.105 . S
O32 C26 1.268 . S
O33 Sc23 2.105 . S
O33 C27 1.268 . S
O34 Sc24 2.105 . S
O34 C28 1.268 . S
O35 Sc22 2.105 . S
O35 C29 1.268 . S
O36 Sc24 2.105 . S
O36 C30 1.268 . S
O37 Sc23 2.105 . S
O37 C31 1.268 . S
O38 Sc22 2.105 . S
O38 C30 1.268 . S
O39 Sc23 2.105 . S
O39 C29 1.268 . S
O40 Sc24 2.105 . S
O40 C31 1.268 . S
O41 Sc22 2.105 . S
O41 C27 1.268 . S
O42 Sc24 2.105 . S
O42 C26 1.268 . S
O43 Sc23 2.105 . S
O43 C28 1.268 . S
Sc44 O47 2.025 . S
Sc44 O54 2.105 . S
Sc44 O57 2.105 . S
Sc44 O60 2.105 . S
Sc44 O63 2.105 . S
Sc45 O47 2.025 . S
Sc45 O55 2.105 . S
Sc45 O59 2.105 . S
Sc45 O61 2.105 . S
Sc45 O65 2.105 . S
Sc46 O47 2.025 . S
Sc46 O56 2.105 . S
Sc46 O58 2.105 . S
Sc46 O62 2.105 . S
Sc46 O64 2.105 . S
O47 Sc44 2.025 . S
O47 Sc45 2.025 . S
O47 Sc46 2.025 . S
C48 O54 1.268 . S
C48 O64 1.268 . S
C49 O55 1.268 . S
C49 O63 1.268 . S
C50 O56 1.268 . S
C50 O65 1.268 . S
C51 O57 1.268 . S
C51 O61 1.268 . S
C52 O58 1.268 . S
C52 O60 1.268 . S
C53 O59 1.268 . S
C53 O62 1.268 . S
O54 Sc44 2.105 . S
O54 C48 1.268 . S
O55 Sc45 2.105 . S
O55 C49 1.268 . S
O56 Sc46 2.105 . S
O56 C50 1.268 . S
O57 Sc44 2.105 . S
O57 C51 1.268 . S
O58 Sc46 2.105 . S
O58 C52 1.268 . S
O59 Sc45 2.105 . S
O59 C53 1.268 . S
O60 Sc44 2.105 . S
O60 C52 1.268 . S
O61 Sc45 2.105 . S
O61 C51 1.268 . S
O62 Sc46 2.105 . S
O62 C53 1.268 . S
O63 Sc44 2.105 . S
O63 C49 1.268 . S
O64 Sc46 2.105 . S
O64 C48 1.268 . S
O65 Sc45 2.105 . S
O65 C50 1.268 . S
Sc66 O69 2.025 . S
Sc66 O76 2.105 . S
Sc66 O79 2.105 . S
Sc66 O82 2.105 . S
Sc66 O85 2.105 . S
Sc67 O69 2.025 . S
Sc67 O77 2.105 . S
Sc67 O81 2.105 . S
Sc67 O83 2.105 . S
Sc67 O87 2.105 . S
Sc68 O69 2.025 . S
Sc68 O78 2.105 . S
Sc68 O80 2.105 . S
Sc68 O84 2.105 . S
Sc68 O86 2.105 . S
O69 Sc66 2.025 . S
O69 Sc67 2.025 . S
O69 Sc68 2.025 . S
C70 O76 1.268 . S
C70 O86 1.268 . S
C71 O77 1.268 . S
C71 O85 1.268 . S
C72 O78 1.268 . S
C72 O87 1.268 . S
C73 O79 1.268 . S
C73 O83 1.268 . S
C74 O80 1.268 . S
C74 O82 1.268 . S
C75 O81 1.268 . S
C75 O84 1.268 . S
O76 Sc66 2.105 . S
O76 C70 1.268 . S
O77 Sc67 2.105 . S
O77 C71 1.268 . S
O78 Sc68 2.105 . S
O78 C72 1.268 . S
O79 Sc66 2.105 . S
O79 C73 1.268 . S
O80 Sc68 2.105 . S
O80 C74 1.268 . S
O81 Sc67 2.105 . S
O81 C75 1.268 . S
O82 Sc66 2.105 . S
O82 C74 1.268 . S
O83 Sc67 2.105 . S
O83 C73 1.268 . S
O84 Sc68 2.105 . S
O84 C75 1.268 . S
O85 Sc66 2.105 . S
O85 C71 1.268 . S
O86 Sc68 2.105 . S
O86 C70 1.268 . S
O87 Sc67 2.105 . S
O87 C72 1.268 . S
Sc88 O91 2.025 . S
Sc88 O98 2.105 . S
Sc88 O101 2.105 . S
Sc88 O104 2.105 . S
Sc88 O107 2.105 . S
Sc89 O91 2.025 . S
Sc89 O99 2.105 . S
Sc89 O103 2.105 . S
Sc89 O105 2.105 . S
Sc89 O109 2.105 . S
Sc90 O91 2.025 . S
Sc90 O100 2.105 . S
Sc90 O102 2.105 . S
Sc90 O106 2.105 . S
Sc90 O108 2.105 . S
O91 Sc88 2.025 . S
O91 Sc89 2.025 . S
O91 Sc90 2.025 . S
C92 O98 1.268 . S
C92 O108 1.268 . S
C93 O99 1.268 . S
C93 O107 1.268 . S
C94 O100 1.268 . S
C94 O109 1.268 . S
C95 O101 1.268 . S
C95 O105 1.268 . S
C96 O102 1.268 . S
C96 O104 1.268 . S
C97 O103 1.268 . S
C97 O106 1.268 . S
O98 Sc88 2.105 . S
O98 C92 1.268 . S
O99 Sc89 2.105 . S
O99 C93 1.268 . S
O100 Sc90 2.105 . S
O100 C94 1.268 . S
O101 Sc88 2.105 . S
O101 C95 1.268 . S
O102 Sc90 2.105 . S
O102 C96 1.268 . S
O103 Sc89 2.105 . S
O103 C97 1.268 . S
O104 Sc88 2.105 . S
O104 C96 1.268 . S
O105 Sc89 2.105 . S
O105 C95 1.268 . S
O106 Sc90 2.105 . S
O106 C97 1.268 . S
O107 Sc88 2.105 . S
O107 C93 1.268 . S
O108 Sc90 2.105 . S
O108 C92 1.268 . S
O109 Sc89 2.105 . S
O109 C94 1.268 . S
Sc110 O113 2.025 . S
Sc110 O120 2.105 . S
Sc110 O123 2.105 . S
Sc110 O126 2.105 . S
Sc110 O129 2.105 . S
Sc111 O113 2.025 . S
Sc111 O121 2.105 . S
Sc111 O125 2.105 . S
Sc111 O127 2.105 . S
Sc111 O131 2.105 . S
Sc112 O113 2.025 . S
Sc112 O122 2.105 . S
Sc112 O124 2.105 . S
Sc112 O128 2.105 . S
Sc112 O130 2.105 . S
O113 Sc110 2.025 . S
O113 Sc111 2.025 . S
O113 Sc112 2.025 . S
C114 O120 1.268 . S
C114 O130 1.268 . S
C115 O121 1.268 . S
C115 O129 1.268 . S
C116 O122 1.268 . S
C116 O131 1.268 . S
C117 O123 1.268 . S
C117 O127 1.268 . S
C118 O124 1.268 . S
C118 O126 1.268 . S
C119 O125 1.268 . S
C119 O128 1.268 . S
O120 Sc110 2.105 . S
O120 C114 1.268 . S
O121 Sc111 2.105 . S
O121 C115 1.268 . S
O122 Sc112 2.105 . S
O122 C116 1.268 . S
O123 Sc110 2.105 . S
O123 C117 1.268 . S
O124 Sc112 2.105 . S
O124 C118 1.268 . S
O125 Sc111 2.105 . S
O125 C119 1.268 . S
O126 Sc110 2.105 . S
O126 C118 1.268 . S
O127 Sc111 2.105 . S
O127 C117 1.268 . S
O128 Sc112 2.105 . S
O128 C119 1.268 . S
O129 Sc110 2.105 . S
O129 C115 1.268 . S
O130 Sc112 2.105 . S
O130 C114 1.268 . S
O131 Sc111 2.105 . S
O131 C116 1.268 . S
Sc132 O135 2.025 . S
Sc132 O142 2.105 . S
Sc132 O145 2.105 . S
Sc132 O148 2.105 . S
Sc132 O151 2.105 . S
Sc133 O135 2.025 . S
Sc133 O143 2.105 . S
Sc133 O147 2.105 . S
Sc133 O149 2.105 . S
Sc133 O153 2.105 . S
Sc134 O135 2.025 . S
Sc134 O144 2.105 . S
Sc134 O146 2.105 . S
Sc134 O150 2.105 . S
Sc134 O152 2.105 . S
O135 Sc132 2.025 . S
O135 Sc133 2.025 . S
O135 Sc134 2.025 . S
C136 O142 1.268 . S
C136 O152 1.268 . S
C137 O143 1.268 . S
C137 O151 1.268 . S
C138 O144 1.268 . S
C138 O153 1.268 . S
C139 O145 1.268 . S
C139 O149 1.268 . S
C140 O146 1.268 . S
C140 O148 1.268 . S
C141 O147 1.268 . S
C141 O150 1.268 . S
O142 Sc132 2.105 . S
O142 C136 1.268 . S
O143 Sc133 2.105 . S
O143 C137 1.268 . S
O144 Sc134 2.105 . S
O144 C138 1.268 . S
O145 Sc132 2.105 . S
O145 C139 1.268 . S
O146 Sc134 2.105 . S
O146 C140 1.268 . S
O147 Sc133 2.105 . S
O147 C141 1.268 . S
O148 Sc132 2.105 . S
O148 C140 1.268 . S
O149 Sc133 2.105 . S
O149 C139 1.268 . S
O150 Sc134 2.105 . S
O150 C141 1.268 . S
O151 Sc132 2.105 . S
O151 C137 1.268 . S
O152 Sc134 2.105 . S
O152 C136 1.268 . S
O153 Sc133 2.105 . S
O153 C138 1.268 . S
Sc154 O157 2.025 . S
Sc154 O164 2.105 . S
Sc154 O167 2.105 . S
Sc154 O170 2.105 . S
Sc154 O173 2.105 . S
Sc155 O157 2.025 . S
Sc155 O165 2.105 . S
Sc155 O169 2.105 . S
Sc155 O171 2.105 . S
Sc155 O175 2.105 . S
Sc156 O157 2.025 . S
Sc156 O166 2.105 . S
Sc156 O168 2.105 . S
Sc156 O172 2.105 . S
Sc156 O174 2.105 . S
O157 Sc154 2.025 . S
O157 Sc155 2.025 . S
O157 Sc156 2.025 . S
C158 O164 1.268 . S
C158 O174 1.268 . S
C159 O165 1.268 . S
C159 O173 1.268 . S
C160 O166 1.268 . S
C160 O175 1.268 . S
C161 O167 1.268 . S
C161 O171 1.268 . S
C162 O168 1.268 . S
C162 O170 1.268 . S
C163 O169 1.268 . S
C163 O172 1.268 . S
O164 Sc154 2.105 . S
O164 C158 1.268 . S
O165 Sc155 2.105 . S
O165 C159 1.268 . S
O166 Sc156 2.105 . S
O166 C160 1.268 . S
O167 Sc154 2.105 . S
O167 C161 1.268 . S
O168 Sc156 2.105 . S
O168 C162 1.268 . S
O169 Sc155 2.105 . S
O169 C163 1.268 . S
O170 Sc154 2.105 . S
O170 C162 1.268 . S
O171 Sc155 2.105 . S
O171 C161 1.268 . S
O172 Sc156 2.105 . S
O172 C163 1.268 . S
O173 Sc154 2.105 . S
O173 C159 1.268 . S
O174 Sc156 2.105 . S
O174 C158 1.268 . S
O175 Sc155 2.105 . S
O175 C160 1.268 . S
H176 C184 0.929 . S
H177 C186 0.930 1_565 S
H178 C188 0.930 . S
H179 C191 0.929 . S
H180 C194 0.930 . S
H181 C196 0.960 . S
H182 C196 0.960 . S
H183 C196 0.960 1_545 S
C184 H176 0.929 . S
C184 C185 1.377 . S
C184 C186 1.384 . S
C185 C184 1.377 . S
C185 C191 1.390 . S
C186 H177 0.930 1_545 S
C186 C184 1.384 . S
C186 C187 1.372 . S
C187 C186 1.372 . S
C187 C188 1.400 . S
C187 C192 1.490 1_545 S
C188 H178 0.930 . S
C188 C187 1.400 . S
C188 C191 1.386 . S
H189 C205 0.930 . S
H190 C206 0.931 . S
C191 H179 0.929 . S
C191 C185 1.390 . S
C191 C188 1.386 . S
C192 C187 1.490 1_565 S
C192 C194 1.395 . S
C192 C195 1.403 . S
H193 C199 0.930 . S
C194 H180 0.930 . S
C194 C192 1.395 . S
C194 C197 1.403 . S
C195 C192 1.403 . S
C195 C196 1.524 . S
C195 C199 1.400 . S
C196 H181 0.960 . S
C196 H182 0.960 . S
C196 H183 0.960 1_565 S
C196 C195 1.524 . S
C197 C194 1.403 . S
C197 C198 1.392 . S
C197 C201 1.495 . S
C198 C197 1.392 . S
C198 C199 1.385 . S
C198 C200 1.478 . S
C199 H193 0.930 . S
C199 C195 1.400 . S
C199 C198 1.385 . S
C200 C198 1.478 . S
C200 C202 1.381 . S
C200 C206 1.383 . S
C201 C197 1.495 . S
C201 H207 0.959 . S
C201 H208 0.961 . S
C201 H209 0.960 . S
C202 C200 1.381 . S
C202 C203 1.394 . S
C202 H210 0.930 . S
C203 C202 1.394 . S
C203 C204 1.383 . S
C203 H211 0.929 . S
C204 C203 1.383 . S
C204 C205 1.377 . S
C205 H189 0.930 . S
C205 C204 1.377 . S
C205 C206 1.379 . S
C206 H190 0.931 . S
C206 C200 1.383 . S
C206 C205 1.379 . S
H207 C201 0.959 . S
H208 C201 0.961 . S
H209 C201 0.960 . S
H210 C202 0.930 . S
H211 C203 0.929 . S
H212 C220 0.929 . S
H213 C222 0.930 1_655 S
H214 C224 0.930 . S
H215 C227 0.929 . S
H216 C230 0.930 . S
H217 C232 0.952 1_655 S
H218 C232 0.971 . S
H219 C232 0.980 . S
C220 H212 0.929 . S
C220 C221 1.377 . S
C220 C222 1.384 . S
C221 C220 1.377 . S
C221 C227 1.390 . S
C222 H213 0.930 1_455 S
C222 C220 1.384 . S
C222 C223 1.372 . S
C223 C222 1.372 . S
C223 C224 1.400 . S
C223 C228 1.490 1_455 S
C224 H214 0.930 . S
C224 C223 1.400 . S
C224 C227 1.386 . S
H225 C241 0.930 . S
H226 C242 0.931 . S
C227 H215 0.929 . S
C227 C221 1.390 . S
C227 C224 1.386 . S
C228 C223 1.490 1_655 S
C228 C230 1.395 . S
C228 C231 1.403 . S
H229 C235 0.930 . S
C230 H216 0.930 . S
C230 C228 1.395 . S
C230 C233 1.403 . S
C231 C228 1.403 . S
C231 C232 1.502 1_655 S
C231 C235 1.400 . S
C232 H217 0.952 1_455 S
C232 H218 0.971 . S
C232 H219 0.980 . S
C232 C231 1.502 1_455 S
C233 C230 1.403 . S
C233 C234 1.392 . S
C233 C237 1.495 . S
C234 C233 1.392 . S
C234 C235 1.385 . S
C234 C236 1.478 . S
C235 H229 0.930 . S
C235 C231 1.400 . S
C235 C234 1.385 . S
C236 C234 1.478 . S
C236 C238 1.381 . S
C236 C242 1.383 . S
C237 C233 1.495 . S
C237 H243 0.959 . S
C237 H244 0.961 . S
C237 H245 0.960 . S
C238 C236 1.381 . S
C238 C239 1.394 . S
C238 H246 0.930 . S
C239 C238 1.394 . S
C239 C240 1.383 . S
C239 H247 0.929 . S
C240 C239 1.383 . S
C240 C241 1.377 . S
C241 H225 0.930 . S
C241 C240 1.377 . S
C241 C242 1.379 . S
C242 H226 0.931 . S
C242 C236 1.383 . S
C242 C241 1.379 . S
H243 C237 0.959 . S
H244 C237 0.961 . S
H245 C237 0.960 . S
H246 C238 0.930 . S
H247 C239 0.929 . S
H248 C256 0.929 . S
H249 C258 0.930 1_545 S
H250 C260 0.930 . S
H251 C263 0.929 . S
H252 C266 0.930 . S
H253 C268 0.960 . S
H254 C268 0.960 . S
H255 C268 0.960 1_565 S
C256 H248 0.929 . S
C256 C257 1.377 . S
C256 C258 1.384 . S
C257 C256 1.377 . S
C257 C263 1.390 . S
C258 H249 0.930 1_565 S
C258 C256 1.384 . S
C258 C259 1.372 . S
C259 C258 1.372 . S
C259 C260 1.400 . S
C259 C264 1.490 1_565 S
C260 H250 0.930 . S
C260 C259 1.400 . S
C260 C263 1.386 . S
H261 C277 0.930 . S
H262 C278 0.931 . S
C263 H251 0.929 . S
C263 C257 1.390 . S
C263 C260 1.386 . S
C264 C259 1.490 1_545 S
C264 C266 1.395 . S
C264 C267 1.403 . S
H265 C271 0.930 . S
C266 H252 0.930 . S
C266 C264 1.395 . S
C266 C269 1.403 . S
C267 C264 1.403 . S
C267 C268 1.524 . S
C267 C271 1.400 . S
C268 H253 0.960 . S
C268 H254 0.960 . S
C268 H255 0.960 1_545 S
C268 C267 1.524 . S
C269 C266 1.403 . S
C269 C270 1.392 . S
C269 C273 1.495 . S
C270 C269 1.392 . S
C270 C271 1.385 . S
C270 C272 1.478 . S
C271 H265 0.930 . S
C271 C267 1.400 . S
C271 C270 1.385 . S
C272 C270 1.478 . S
C272 C274 1.381 . S
C272 C278 1.383 . S
C273 C269 1.495 . S
C273 H279 0.959 . S
C273 H280 0.961 . S
C273 H281 0.960 . S
C274 C272 1.381 . S
C274 C275 1.394 . S
C274 H282 0.930 . S
C275 C274 1.394 . S
C275 C276 1.383 . S
C275 H283 0.929 . S
C276 C275 1.383 . S
C276 C277 1.377 . S
C277 H261 0.930 . S
C277 C276 1.377 . S
C277 C278 1.379 . S
C278 H262 0.931 . S
C278 C272 1.383 . S
C278 C277 1.379 . S
H279 C273 0.959 . S
H280 C273 0.961 . S
H281 C273 0.960 . S
H282 C274 0.930 . S
H283 C275 0.929 . S
H284 C292 0.929 . S
H285 C294 0.930 . S
H286 C296 0.930 . S
H287 C299 0.929 . S
H288 C302 0.930 . S
H289 C304 0.960 . S
H290 C304 0.960 . S
H291 C304 0.960 . S
C292 H284 0.929 . S
C292 C293 1.377 . S
C292 C294 1.384 . S
C293 C292 1.377 . S
C293 C299 1.390 . S
C294 H285 0.930 . S
C294 C292 1.384 . S
C294 C295 1.372 . S
C295 C294 1.372 . S
C295 C296 1.400 . S
C295 C300 1.490 . S
C296 H286 0.930 . S
C296 C295 1.400 . S
C296 C299 1.386 . S
H297 C313 0.930 . S
H298 C314 0.931 . S
C299 H287 0.929 . S
C299 C293 1.390 . S
C299 C296 1.386 . S
C300 C295 1.490 . S
C300 C302 1.395 . S
C300 C303 1.403 . S
H301 C307 0.930 . S
C302 H288 0.930 . S
C302 C300 1.395 . S
C302 C305 1.403 . S
C303 C300 1.403 . S
C303 C304 1.524 . S
C303 C307 1.400 . S
C304 H289 0.960 . S
C304 H290 0.960 . S
C304 H291 0.960 . S
C304 C303 1.524 . S
C305 C302 1.403 . S
C305 C306 1.392 . S
C305 C309 1.495 . S
C306 C305 1.392 . S
C306 C307 1.385 . S
C306 C308 1.478 1_455 S
C307 H301 0.930 . S
C307 C303 1.400 . S
C307 C306 1.385 . S
C308 C306 1.478 1_655 S
C308 C310 1.381 . S
C308 C314 1.383 . S
C309 C305 1.495 . S
C309 H315 0.959 . S
C309 H316 0.961 . S
C309 H317 0.960 . S
C310 C308 1.381 . S
C310 C311 1.394 . S
C310 H318 0.930 . S
C311 C310 1.394 . S
C311 C312 1.383 . S
C311 H319 0.929 . S
C312 C311 1.383 . S
C312 C313 1.377 . S
C313 H297 0.930 . S
C313 C312 1.377 . S
C313 C314 1.379 . S
C314 H298 0.931 . S
C314 C308 1.383 . S
C314 C313 1.379 . S
H315 C309 0.959 . S
H316 C309 0.961 . S
H317 C309 0.960 . S
H318 C310 0.930 . S
H319 C311 0.929 . S
H320 C328 0.929 . S
H321 C330 0.930 . S
H322 C332 0.930 . S
H323 C335 0.929 . S
H324 C338 0.930 . S
H325 C340 0.960 . S
H326 C340 0.960 . S
H327 C340 0.960 . S
C328 H320 0.929 . S
C328 C329 1.377 . S
C328 C330 1.384 . S
C329 C328 1.377 . S
C329 C335 1.390 . S
C330 H321 0.930 . S
C330 C328 1.384 . S
C330 C331 1.372 . S
C331 C330 1.372 . S
C331 C332 1.400 . S
C331 C336 1.490 . S
C332 H322 0.930 . S
C332 C331 1.400 . S
C332 C335 1.386 . S
H333 C349 0.930 . S
H334 C350 0.931 . S
C335 H323 0.929 . S
C335 C329 1.390 . S
C335 C332 1.386 . S
C336 C331 1.490 . S
C336 C338 1.395 . S
C336 C339 1.403 . S
H337 C343 0.930 1_556 S
C338 H324 0.930 . S
C338 C336 1.395 . S
C338 C341 1.403 . S
C339 C336 1.403 . S
C339 C340 1.524 . S
C339 C343 1.400 . S
C340 H325 0.960 . S
C340 H326 0.960 . S
C340 H327 0.960 . S
C340 C339 1.524 . S
C341 C338 1.403 . S
C341 C342 1.392 . S
C341 C345 1.495 . S
C342 C341 1.392 . S
C342 C343 1.385 . S
C342 C344 1.478 1_554 S
C343 H337 0.930 1_554 S
C343 C339 1.400 . S
C343 C342 1.385 . S
C344 C342 1.478 1_556 S
C344 C346 1.381 1_556 S
C344 C350 1.383 . S
C345 C341 1.495 . S
C345 H351 0.959 . S
C345 H352 0.961 . S
C345 H353 0.960 . S
C346 C344 1.381 1_554 S
C346 C347 1.394 1_554 S
C346 H354 0.930 . S
C347 C346 1.394 1_556 S
C347 C348 1.383 . S
C347 H355 0.929 . S
C348 C347 1.383 . S
C348 C349 1.377 . S
C349 H333 0.930 . S
C349 C348 1.377 . S
C349 C350 1.379 . S
C350 H334 0.931 . S
C350 C344 1.383 . S
C350 C349 1.379 . S
H351 C345 0.959 . S
H352 C345 0.961 . S
H353 C345 0.960 . S
H354 C346 0.930 . S
H355 C347 0.929 . S
H356 C364 0.929 . S
H357 C366 0.930 . S
H358 C368 0.930 . S
H359 C371 0.929 . S
H360 C374 0.930 . S
H361 C376 0.960 . S
H362 C376 0.960 . S
H363 C376 0.960 . S
C364 H356 0.929 . S
C364 C365 1.377 . S
C364 C366 1.384 . S
C365 C364 1.377 . S
C365 C371 1.390 . S
C366 H357 0.930 . S
C366 C364 1.384 . S
C366 C367 1.372 . S
C367 C366 1.372 . S
C367 C368 1.400 . S
C367 C372 1.490 . S
C368 H358 0.930 . S
C368 C367 1.400 . S
C368 C371 1.386 . S
H369 C385 0.930 . S
H370 C386 0.931 . S
C371 H359 0.929 . S
C371 C365 1.390 . S
C371 C368 1.386 . S
C372 C367 1.490 . S
C372 C374 1.395 . S
C372 C375 1.386 1_556 S
H373 C379 0.930 . S
C374 H360 0.930 . S
C374 C372 1.395 . S
C374 C377 1.403 . S
C375 C372 1.386 1_554 S
C375 C376 1.534 . S
C375 C379 1.406 . S
C376 H361 0.960 . S
C376 H362 0.960 . S
C376 H363 0.960 . S
C376 C375 1.534 . S
C377 C374 1.403 . S
C377 C378 1.392 . S
C377 C381 1.495 . S
C378 C377 1.392 . S
C378 C379 1.385 1_556 S
C378 C380 1.478 1_556 S
C379 H373 0.930 . S
C379 C375 1.406 . S
C379 C378 1.385 1_554 S
C380 C378 1.478 1_554 S
C380 C382 1.381 . S
C380 C386 1.383 . S
C381 C377 1.495 . S
C381 H387 0.959 . S
C381 H388 0.961 . S
C381 H389 0.960 . S
C382 C380 1.381 . S
C382 C383 1.394 . S
C382 H390 0.930 . S
C383 C382 1.394 . S
C383 C384 1.383 . S
C383 H391 0.929 . S
C384 C383 1.383 . S
C384 C385 1.377 . S
C385 H369 0.930 . S
C385 C384 1.377 . S
C385 C386 1.379 . S
C386 H370 0.931 . S
C386 C380 1.383 . S
C386 C385 1.379 . S
H387 C381 0.959 . S
H388 C381 0.961 . S
H389 C381 0.960 . S
H390 C382 0.930 . S
H391 C383 0.929 . S
H392 C400 0.929 . S
H393 C402 0.930 . S
H394 C404 0.930 . S
H395 C407 0.929 . S
H396 C410 0.930 . S
H397 C412 0.960 . S
H398 C412 0.960 . S
H399 C412 0.960 . S
C400 H392 0.929 . S
C400 C401 1.377 . S
C400 C402 1.384 . S
C401 C400 1.377 . S
C401 C407 1.390 . S
C402 H393 0.930 . S
C402 C400 1.384 . S
C402 C403 1.372 . S
C403 C402 1.372 . S
C403 C404 1.400 . S
C403 C408 1.490 . S
C404 H394 0.930 . S
C404 C403 1.400 . S
C404 C407 1.386 . S
H405 C421 0.930 . S
H406 C422 0.931 . S
C407 H395 0.929 . S
C407 C401 1.390 . S
C407 C404 1.386 . S
C408 C403 1.490 . S
C408 C410 1.395 1_554 S
C408 C411 1.403 . S
H409 C415 0.930 . S
C410 H396 0.930 . S
C410 C408 1.395 1_556 S
C410 C413 1.403 . S
C411 C408 1.403 . S
C411 C412 1.524 . S
C411 C415 1.400 . S
C412 H397 0.960 . S
C412 H398 0.960 . S
C412 H399 0.960 . S
C412 C411 1.524 . S
C413 C410 1.403 . S
C413 C414 1.392 . S
C413 C417 1.495 . S
C414 C413 1.392 . S
C414 C415 1.385 1_556 S
C414 C416 1.478 . S
C415 H409 0.930 . S
C415 C411 1.400 . S
C415 C414 1.385 1_554 S
C416 C414 1.478 . S
C416 C418 1.381 . S
C416 C422 1.383 . S
C417 C413 1.495 . S
C417 H423 0.959 . S
C417 H424 0.961 . S
C417 H425 0.960 . S
C418 C416 1.381 . S
C418 C419 1.394 . S
C418 H426 0.930 . S
C419 C418 1.394 . S
C419 C420 1.383 . S
C419 H427 0.929 . S
C420 C419 1.383 . S
C420 C421 1.377 . S
C421 H405 0.930 . S
C421 C420 1.377 . S
C421 C422 1.379 . S
C422 H406 0.931 . S
C422 C416 1.383 . S
C422 C421 1.379 . S
H423 C417 0.959 . S
H424 C417 0.961 . S
H425 C417 0.960 . S
H426 C418 0.930 . S
H427 C419 0.929 . S
H428 C436 0.929 . S
H429 C438 0.930 1_556 S
H430 C440 0.930 . S
H431 C443 0.929 . S
H432 C446 0.930 . S
H433 C448 0.960 . S
H434 C448 0.960 . S
H435 C448 0.960 . S
C436 H428 0.929 . S
C436 C437 1.377 . S
C436 C438 1.384 . S
C437 C436 1.377 . S
C437 C443 1.390 . S
C438 H429 0.930 1_554 S
C438 C436 1.384 . S
C438 C439 1.372 . S
C439 C438 1.372 . S
C439 C440 1.400 . S
C439 C444 1.490 1_554 S
C440 H430 0.930 . S
C440 C439 1.400 . S
C440 C443 1.386 . S
H441 C457 0.930 . S
H442 C458 0.931 . S
C443 H431 0.929 . S
C443 C437 1.390 . S
C443 C440 1.386 . S
C444 C439 1.490 1_556 S
C444 C446 1.395 . S
C444 C447 1.403 1_556 S
H445 C451 0.930 1_554 S
C446 H432 0.930 . S
C446 C444 1.395 . S
C446 C449 1.403 . S
C447 C444 1.403 1_554 S
C447 C448 1.524 . S
C447 C451 1.400 1_554 S
C448 H433 0.960 . S
C448 H434 0.960 . S
C448 H435 0.960 . S
C448 C447 1.524 . S
C449 C446 1.403 . S
C449 C450 1.392 . S
C449 C453 1.495 . S
C450 C449 1.392 . S
C450 C451 1.385 . S
C450 C452 1.478 . S
C451 H445 0.930 1_556 S
C451 C447 1.400 1_556 S
C451 C450 1.385 . S
C452 C450 1.478 . S
C452 C454 1.381 . S
C452 C458 1.383 . S
C453 C449 1.495 . S
C453 H459 0.959 . S
C453 H460 0.961 . S
C453 H461 0.960 . S
C454 C452 1.381 . S
C454 C455 1.394 . S
C454 H462 0.930 . S
C455 C454 1.394 . S
C455 C456 1.383 . S
C455 H463 0.929 . S
C456 C455 1.383 . S
C456 C457 1.377 . S
C457 H441 0.930 . S
C457 C456 1.377 . S
C457 C458 1.379 . S
C458 H442 0.931 . S
C458 C452 1.383 . S
C458 C457 1.379 . S
H459 C453 0.959 . S
H460 C453 0.961 . S
H461 C453 0.960 . S
H462 C454 0.930 . S
H463 C455 0.929 . S
H464 C472 0.929 . S
H465 C474 0.930 . S
H466 C476 0.930 . S
H467 C479 0.929 . S
H468 C482 0.930 . S
H469 C484 0.960 . S
H470 C484 0.960 . S
H471 C484 0.960 . S
C472 H464 0.929 . S
C472 C473 1.377 . S
C472 C474 1.384 . S
C473 C472 1.377 . S
C473 C479 1.390 . S
C474 H465 0.930 . S
C474 C472 1.384 . S
C474 C475 1.372 . S
C475 C474 1.372 . S
C475 C476 1.400 . S
C475 C480 1.490 . S
C476 H466 0.930 . S
C476 C475 1.400 . S
C476 C479 1.386 . S
H477 C493 0.930 . S
H478 C494 0.931 . S
C479 H467 0.929 . S
C479 C473 1.390 . S
C479 C476 1.386 . S
C480 C475 1.490 . S
C480 C482 1.395 . S
C480 C483 1.403 . S
H481 C487 0.930 . S
C482 H468 0.930 . S
C482 C480 1.395 . S
C482 C485 1.403 . S
C483 C480 1.403 . S
C483 C484 1.524 . S
C483 C487 1.400 . S
C484 H469 0.960 . S
C484 H470 0.960 . S
C484 H471 0.960 . S
C484 C483 1.524 . S
C485 C482 1.403 . S
C485 C486 1.392 . S
C485 C489 1.495 . S
C486 C485 1.392 . S
C486 C487 1.385 . S
C486 C488 1.478 . S
C487 H481 0.930 . S
C487 C483 1.400 . S
C487 C486 1.385 . S
C488 C486 1.478 . S
C488 C490 1.381 . S
C488 C494 1.383 . S
C489 C485 1.495 . S
C489 H495 0.959 . S
C489 H496 0.961 . S
C489 H497 0.960 . S
C490 C488 1.381 . S
C490 C491 1.394 . S
C490 H498 0.930 . S
C491 C490 1.394 . S
C491 C492 1.383 . S
C491 H499 0.929 . S
C492 C491 1.383 . S
C492 C493 1.377 . S
C493 H477 0.930 . S
C493 C492 1.377 . S
C493 C494 1.379 . S
C494 H478 0.931 . S
C494 C488 1.383 . S
C494 C493 1.379 . S
H495 C489 0.959 . S
H496 C489 0.961 . S
H497 C489 0.960 . S
H498 C490 0.930 . S
H499 C491 0.929 . S
H500 C508 0.929 . S
H501 C510 0.930 . S
H502 C512 0.930 . S
H503 C515 0.929 . S
H504 C518 0.930 . S
H505 C520 0.960 . S
H506 C520 0.960 . S
H507 C520 0.960 . S
C508 H500 0.929 . S
C508 C509 1.377 . S
C508 C510 1.384 . S
C509 C508 1.377 . S
C509 C515 1.390 . S
C510 H501 0.930 . S
C510 C508 1.384 . S
C510 C511 1.372 . S
C511 C510 1.372 . S
C511 C512 1.400 . S
C511 C516 1.490 . S
C512 H502 0.930 . S
C512 C511 1.400 . S
C512 C515 1.386 . S
H513 C529 0.930 . S
H514 C530 0.931 . S
C515 H503 0.929 . S
C515 C509 1.390 . S
C515 C512 1.386 . S
C516 C511 1.490 . S
C516 C518 1.395 . S
C516 C519 1.403 . S
H517 C523 0.930 . S
C518 H504 0.930 . S
C518 C516 1.395 . S
C518 C521 1.403 . S
C519 C516 1.403 . S
C519 C520 1.524 . S
C519 C523 1.400 . S
C520 H505 0.960 . S
C520 H506 0.960 . S
C520 H507 0.960 . S
C520 C519 1.524 . S
C521 C518 1.403 . S
C521 C522 1.392 . S
C521 C525 1.495 . S
C522 C521 1.392 . S
C522 C523 1.385 . S
C522 C524 1.478 . S
C523 H517 0.930 . S
C523 C519 1.400 . S
C523 C522 1.385 . S
C524 C522 1.478 . S
C524 C526 1.381 . S
C524 C530 1.383 . S
C525 C521 1.495 . S
C525 H531 0.959 . S
C525 H532 0.961 . S
C525 H533 0.960 . S
C526 C524 1.381 . S
C526 C527 1.394 . S
C526 H534 0.930 . S
C527 C526 1.394 . S
C527 C528 1.383 . S
C527 H535 0.929 . S
C528 C527 1.383 . S
C528 C529 1.377 . S
C529 H513 0.930 . S
C529 C528 1.377 . S
C529 C530 1.379 . S
C530 H514 0.931 . S
C530 C524 1.383 . S
C530 C529 1.379 . S
H531 C525 0.959 . S
H532 C525 0.961 . S
H533 C525 0.960 . S
H534 C526 0.930 . S
H535 C527 0.929 . S
H536 C544 0.929 . S
H537 C546 0.930 . S
H538 C548 0.930 . S
H539 C551 0.929 . S
H540 C554 0.930 . S
H541 C556 0.960 . S
H542 C556 0.960 . S
H543 C556 0.960 . S
C544 H536 0.929 . S
C544 C545 1.377 . S
C544 C546 1.384 . S
C545 C544 1.377 . S
C545 C551 1.390 . S
C546 H537 0.930 . S
C546 C544 1.384 . S
C546 C547 1.372 . S
C547 C546 1.372 . S
C547 C548 1.400 . S
C547 C552 1.490 . S
C548 H538 0.930 . S
C548 C547 1.400 . S
C548 C551 1.386 . S
H549 C565 0.930 . S
H550 C566 0.931 . S
C551 H539 0.929 . S
C551 C545 1.390 . S
C551 C548 1.386 . S
C552 C547 1.490 . S
C552 C554 1.395 . S
C552 C555 1.403 . S
H553 C559 0.930 . S
C554 H540 0.930 . S
C554 C552 1.395 . S
C554 C557 1.403 . S
C555 C552 1.403 . S
C555 C556 1.524 . S
C555 C559 1.400 . S
C556 H541 0.960 . S
C556 H542 0.960 . S
C556 H543 0.960 . S
C556 C555 1.524 . S
C557 C554 1.403 . S
C557 C558 1.392 . S
C557 C561 1.495 . S
C558 C557 1.392 . S
C558 C559 1.385 . S
C558 C560 1.478 . S
C559 H553 0.930 . S
C559 C555 1.400 . S
C559 C558 1.385 . S
C560 C558 1.478 . S
C560 C562 1.381 . S
C560 C566 1.383 . S
C561 C557 1.495 . S
C561 H567 0.959 . S
C561 H568 0.961 . S
C561 H569 0.960 . S
C562 C560 1.381 . S
C562 C563 1.394 . S
C562 H570 0.930 . S
C563 C562 1.394 . S
C563 C564 1.383 . S
C563 H571 0.929 . S
C564 C563 1.383 . S
C564 C565 1.377 . S
C565 H549 0.930 . S
C565 C564 1.377 . S
C565 C566 1.379 . S
C566 H550 0.931 . S
C566 C560 1.383 . S
C566 C565 1.379 . S
H567 C561 0.959 . S
H568 C561 0.961 . S
H569 C561 0.960 . S
H570 C562 0.930 . S
H571 C563 0.929 . S
H572 C580 0.929 . S
H573 C582 0.930 . S
H574 C584 0.930 . S
H575 C587 0.929 . S
H576 C590 0.930 . S
H577 C592 0.960 . S
H578 C592 0.960 . S
H579 C592 0.960 . S
C580 H572 0.929 . S
C580 C581 1.377 . S
C580 C582 1.384 . S
C581 C580 1.377 . S
C581 C587 1.390 . S
C582 H573 0.930 . S
C582 C580 1.384 . S
C582 C583 1.372 . S
C583 C582 1.372 . S
C583 C584 1.400 . S
C583 C588 1.490 . S
C584 H574 0.930 . S
C584 C583 1.400 . S
C584 C587 1.386 . S
H585 C601 0.930 . S
H586 C602 0.931 . S
C587 H575 0.929 . S
C587 C581 1.390 . S
C587 C584 1.386 . S
C588 C583 1.490 . S
C588 C590 1.395 . S
C588 C591 1.403 . S
H589 C595 0.930 . S
C590 H576 0.930 . S
C590 C588 1.395 . S
C590 C593 1.403 . S
C591 C588 1.403 . S
C591 C592 1.524 . S
C591 C595 1.400 . S
C592 H577 0.960 . S
C592 H578 0.960 . S
C592 H579 0.960 . S
C592 C591 1.524 . S
C593 C590 1.403 . S
C593 C594 1.392 . S
C593 C597 1.495 . S
C594 C593 1.392 . S
C594 C595 1.385 . S
C594 C596 1.478 . S
C595 H589 0.930 . S
C595 C591 1.400 . S
C595 C594 1.385 . S
C596 C594 1.478 . S
C596 C598 1.381 . S
C596 C602 1.383 . S
C597 C593 1.495 . S
C597 H603 0.959 . S
C597 H604 0.961 . S
C597 H605 0.960 . S
C598 C596 1.381 . S
C598 C599 1.394 . S
C598 H606 0.930 . S
C599 C598 1.394 . S
C599 C600 1.383 . S
C599 H607 0.929 . S
C600 C599 1.383 . S
C600 C601 1.377 . S
C601 H585 0.930 . S
C601 C600 1.377 . S
C601 C602 1.379 . S
C602 H586 0.931 . S
C602 C596 1.383 . S
C602 C601 1.379 . S
H603 C597 0.959 . S
H604 C597 0.961 . S
H605 C597 0.960 . S
H606 C598 0.930 . S
H607 C599 0.929 . S
H608 C616 0.929 . S
H609 C618 0.930 . S
H610 C620 0.930 . S
H611 C623 0.929 . S
H612 C626 0.930 . S
H613 C628 0.960 . S
H614 C628 0.960 . S
H615 C628 0.960 . S
C616 H608 0.929 . S
C616 C617 1.377 . S
C616 C618 1.384 . S
C617 C616 1.377 . S
C617 C623 1.390 . S
C618 H609 0.930 . S
C618 C616 1.384 . S
C618 C619 1.372 . S
C619 C618 1.372 . S
C619 C620 1.400 . S
C619 C624 1.490 . S
C620 H610 0.930 . S
C620 C619 1.400 . S
C620 C623 1.386 . S
H621 C637 0.930 . S
H622 C638 0.931 1_545 S
C623 H611 0.929 . S
C623 C617 1.390 . S
C623 C620 1.386 . S
C624 C619 1.490 . S
C624 C626 1.395 . S
C624 C627 1.403 . S
H625 C631 0.930 . S
C626 H612 0.930 . S
C626 C624 1.395 . S
C626 C629 1.403 . S
C627 C624 1.403 . S
C627 C628 1.524 . S
C627 C631 1.400 . S
C628 H613 0.960 . S
C628 H614 0.960 . S
C628 H615 0.960 . S
C628 C627 1.524 . S
C629 C626 1.403 . S
C629 C630 1.392 . S
C629 C633 1.495 . S
C630 C629 1.392 . S
C630 C631 1.385 . S
C630 C632 1.478 1_545 S
C631 H625 0.930 . S
C631 C627 1.400 . S
C631 C630 1.385 . S
C632 C630 1.478 1_565 S
C632 C634 1.381 . S
C632 C638 1.383 . S
C633 C629 1.495 . S
C633 H639 0.959 . S
C633 H640 0.961 . S
C633 H641 0.960 . S
C634 C632 1.381 . S
C634 C635 1.394 . S
C634 H642 0.930 . S
C635 C634 1.394 . S
C635 C636 1.383 . S
C635 H643 0.929 . S
C636 C635 1.383 . S
C636 C637 1.377 . S
C637 H621 0.930 . S
C637 C636 1.377 . S
C637 C638 1.379 . S
C638 H622 0.931 1_565 S
C638 C632 1.383 . S
C638 C637 1.379 . S
H639 C633 0.959 . S
H640 C633 0.961 . S
H641 C633 0.960 . S
H642 C634 0.930 . S
H643 C635 0.929 . S
H644 C652 0.929 . S
H645 C654 0.930 . S
H646 C656 0.930 . S
H647 C659 0.929 . S
H648 C662 0.930 . S
H649 C664 0.960 . S
H650 C664 0.960 . S
H651 C664 0.960 . S
C652 H644 0.929 . S
C652 C653 1.377 . S
C652 C654 1.384 . S
C653 C652 1.377 . S
C653 C659 1.390 . S
C654 H645 0.930 . S
C654 C652 1.384 . S
C654 C655 1.372 . S
C655 C654 1.372 . S
C655 C656 1.400 . S
C655 C660 1.490 . S
C656 H646 0.930 . S
C656 C655 1.400 . S
C656 C659 1.386 . S
H657 C673 0.930 . S
H658 C674 0.931 . S
C659 H647 0.929 . S
C659 C653 1.390 . S
C659 C656 1.386 . S
C660 C655 1.490 . S
C660 C662 1.395 . S
C660 C663 1.403 . S
H661 C667 0.930 . S
C662 H648 0.930 . S
C662 C660 1.395 . S
C662 C665 1.403 . S
C663 C660 1.403 . S
C663 C664 1.524 . S
C663 C667 1.400 . S
C664 H649 0.960 . S
C664 H650 0.960 . S
C664 H651 0.960 . S
C664 C663 1.524 . S
C665 C662 1.403 . S
C665 C666 1.392 . S
C665 C669 1.495 . S
C666 C665 1.392 . S
C666 C667 1.385 . S
C666 C668 1.478 1_455 S
C667 H661 0.930 . S
C667 C663 1.400 . S
C667 C666 1.385 . S
C668 C666 1.478 1_655 S
C668 C670 1.381 . S
C668 C674 1.383 . S
C669 C665 1.495 . S
C669 H675 0.959 . S
C669 H676 0.961 . S
C669 H677 0.960 . S
C670 C668 1.381 . S
C670 C671 1.394 . S
C670 H678 0.930 . S
C671 C670 1.394 . S
C671 C672 1.383 . S
C671 H679 0.929 . S
C672 C671 1.383 . S
C672 C673 1.377 . S
C673 H657 0.930 . S
C673 C672 1.377 . S
C673 C674 1.379 . S
C674 H658 0.931 . S
C674 C668 1.383 . S
C674 C673 1.379 . S
H675 C669 0.959 . S
H676 C669 0.961 . S
H677 C669 0.960 . S
H678 C670 0.930 . S
H679 C671 0.929 . S
H680 C688 0.929 . S
H681 C690 0.930 . S
H682 C692 0.930 . S
H683 C695 0.929 . S
H684 C698 0.930 . S
H685 C700 0.960 . S
H686 C700 0.960 . S
H687 C700 0.960 . S
C688 H680 0.929 . S
C688 C689 1.377 . S
C688 C690 1.384 . S
C689 C688 1.377 . S
C689 C695 1.390 . S
C690 H681 0.930 . S
C690 C688 1.384 . S
C690 C691 1.372 . S
C691 C690 1.372 . S
C691 C692 1.400 . S
C691 C696 1.490 . S
C692 H682 0.930 . S
C692 C691 1.400 . S
C692 C695 1.386 . S
H693 C709 0.930 . S
H694 C710 0.931 . S
C695 H683 0.929 . S
C695 C689 1.390 . S
C695 C692 1.386 . S
C696 C691 1.490 . S
C696 C698 1.395 . S
C696 C699 1.403 . S
H697 C703 0.930 . S
C698 H684 0.930 . S
C698 C696 1.395 . S
C698 C701 1.403 . S
C699 C696 1.403 . S
C699 C700 1.524 . S
C699 C703 1.400 . S
C700 H685 0.960 . S
C700 H686 0.960 . S
C700 H687 0.960 . S
C700 C699 1.524 . S
C701 C698 1.403 . S
C701 C702 1.392 . S
C701 C705 1.495 1_565 S
C702 C701 1.392 . S
C702 C703 1.385 . S
C702 C704 1.478 1_565 S
C703 H697 0.930 . S
C703 C699 1.400 . S
C703 C702 1.385 . S
C704 C702 1.478 1_545 S
C704 C706 1.381 . S
C704 C710 1.383 . S
C705 C701 1.495 1_545 S
C705 H711 0.964 . S
C705 H712 0.961 . S
C705 H713 0.960 . S
C706 C704 1.381 . S
C706 C707 1.394 . S
C706 H714 0.930 . S
C707 C706 1.394 . S
C707 C708 1.383 . S
C707 H715 0.929 . S
C708 C707 1.383 . S
C708 C709 1.377 . S
C709 H693 0.930 . S
C709 C708 1.377 . S
C709 C710 1.379 . S
C710 H694 0.931 . S
C710 C704 1.383 . S
C710 C709 1.379 . S
H711 C705 0.964 . S
H712 C705 0.961 . S
H713 C705 0.960 . S
H714 C706 0.930 . S
H715 C707 0.929 . S
H716 C724 0.929 . S
H717 C726 0.930 . S
H718 C728 0.930 . S
H719 C731 0.929 . S
H720 C734 0.930 . S
H721 C736 0.960 . S
H722 C736 0.960 . S
H723 C736 0.960 . S
C724 H716 0.929 . S
C724 C725 1.377 . S
C724 C726 1.384 . S
C725 C724 1.377 . S
C725 C731 1.390 . S
C726 H717 0.930 . S
C726 C724 1.384 . S
C726 C727 1.372 . S
C727 C726 1.372 . S
C727 C728 1.400 . S
C727 C732 1.490 1_455 S
C728 H718 0.930 . S
C728 C727 1.400 . S
C728 C731 1.386 . S
H729 C745 0.930 . S
H730 C746 0.931 . S
C731 H719 0.929 . S
C731 C725 1.390 . S
C731 C728 1.386 . S
C732 C727 1.490 1_655 S
C732 C734 1.395 . S
C732 C735 1.403 . S
H733 C739 0.930 . S
C734 H720 0.930 . S
C734 C732 1.395 . S
C734 C737 1.403 . S
C735 C732 1.403 . S
C735 C736 1.524 . S
C735 C739 1.400 . S
C736 H721 0.960 . S
C736 H722 0.960 . S
C736 H723 0.960 . S
C736 C735 1.524 . S
C737 C734 1.403 . S
C737 C738 1.392 . S
C737 C741 1.495 . S
C738 C737 1.392 . S
C738 C739 1.385 . S
C738 C740 1.478 . S
C739 H733 0.930 . S
C739 C735 1.400 . S
C739 C738 1.385 . S
C740 C738 1.478 . S
C740 C742 1.381 . S
C740 C746 1.383 . S
C741 C737 1.495 . S
C741 H747 0.959 . S
C741 H748 0.961 . S
C741 H749 0.960 . S
C742 C740 1.381 . S
C742 C743 1.394 . S
C742 H750 0.930 . S
C743 C742 1.394 . S
C743 C744 1.383 . S
C743 H751 0.929 . S
C744 C743 1.383 . S
C744 C745 1.377 . S
C745 H729 0.930 . S
C745 C744 1.377 . S
C745 C746 1.379 . S
C746 H730 0.931 . S
C746 C740 1.383 . S
C746 C745 1.379 . S
H747 C741 0.959 . S
H748 C741 0.961 . S
H749 C741 0.960 . S
H750 C742 0.930 . S
H751 C743 0.929 . S
H752 C760 0.929 . S
H753 C762 0.930 . S
H754 C764 0.930 . S
H755 C767 0.932 . S
H756 C770 0.930 . S
H757 C772 0.960 . S
H758 C772 0.960 . S
H759 C772 0.960 . S
C760 H752 0.929 . S
C760 C761 1.377 1_554 S
C760 C762 1.384 . S
C761 C760 1.377 1_556 S
C761 C767 1.391 . S
C762 H753 0.930 . S
C762 C760 1.384 . S
C762 C763 1.372 . S
C763 C762 1.372 . S
C763 C764 1.400 . S
C763 C768 1.490 . S
C764 H754 0.930 . S
C764 C763 1.400 . S
C764 C767 1.382 1_554 S
H765 C781 0.930 . S
H766 C782 0.931 . S
C767 H755 0.932 . S
C767 C761 1.391 . S
C767 C764 1.382 1_556 S
C768 C763 1.490 . S
C768 C770 1.395 . S
C768 C771 1.403 . S
H769 C775 0.930 . S
C770 H756 0.930 . S
C770 C768 1.395 . S
C770 C773 1.403 . S
C771 C768 1.403 . S
C771 C772 1.524 . S
C771 C775 1.400 . S
C772 H757 0.960 . S
C772 H758 0.960 . S
C772 H759 0.960 . S
C772 C771 1.524 . S
C773 C770 1.403 . S
C773 C774 1.392 . S
C773 C777 1.495 . S
C774 C773 1.392 . S
C774 C775 1.385 . S
C774 C776 1.478 . S
C775 H769 0.930 . S
C775 C771 1.400 . S
C775 C774 1.385 . S
C776 C774 1.478 . S
C776 C778 1.381 . S
C776 C782 1.383 . S
C777 C773 1.495 . S
C777 H783 0.959 . S
C777 H784 0.961 . S
C777 H785 0.960 . S
C778 C776 1.381 . S
C778 C779 1.394 . S
C778 H786 0.930 . S
C779 C778 1.394 . S
C779 C780 1.383 . S
C779 H787 0.929 . S
C780 C779 1.383 . S
C780 C781 1.377 . S
C781 H765 0.930 . S
C781 C780 1.377 . S
C781 C782 1.379 . S
C782 H766 0.931 . S
C782 C776 1.383 . S
C782 C781 1.379 . S
H783 C777 0.959 . S
H784 C777 0.961 . S
H785 C777 0.960 . S
H786 C778 0.930 . S
H787 C779 0.929 . S
H788 C796 0.929 . S
H789 C798 0.930 . S
H790 C800 0.930 . S
H791 C803 0.929 . S
H792 C806 0.930 . S
H793 C808 0.960 . S
H794 C808 0.960 . S
H795 C808 0.960 . S
C796 H788 0.929 . S
C796 C797 1.377 . S
C796 C798 1.384 1_554 S
C797 C796 1.377 . S
C797 C803 1.390 1_554 S
C798 H789 0.930 . S
C798 C796 1.384 1_556 S
C798 C799 1.372 . S
C799 C798 1.372 . S
C799 C800 1.400 . S
C799 C804 1.490 . S
C800 H790 0.930 . S
C800 C799 1.400 . S
C800 C803 1.386 . S
H801 C817 0.930 . S
H802 C818 0.931 . S
C803 H791 0.929 . S
C803 C797 1.390 1_556 S
C803 C800 1.386 . S
C804 C799 1.490 . S
C804 C806 1.395 . S
C804 C807 1.403 . S
H805 C811 0.930 . S
C806 H792 0.930 . S
C806 C804 1.395 . S
C806 C809 1.403 . S
C807 C804 1.403 . S
C807 C808 1.524 . S
C807 C811 1.400 . S
C808 H793 0.960 . S
C808 H794 0.960 . S
C808 H795 0.960 . S
C808 C807 1.524 . S
C809 C806 1.403 . S
C809 C810 1.392 . S
C809 C813 1.495 . S
C810 C809 1.392 . S
C810 C811 1.385 . S
C810 C812 1.478 . S
C811 H805 0.930 . S
C811 C807 1.400 . S
C811 C810 1.385 . S
C812 C810 1.478 . S
C812 C814 1.381 . S
C812 C818 1.383 . S
C813 C809 1.495 . S
C813 H819 0.959 . S
C813 H820 0.961 . S
C813 H821 0.960 . S
C814 C812 1.381 . S
C814 C815 1.394 . S
C814 H822 0.930 . S
C815 C814 1.394 . S
C815 C816 1.383 . S
C815 H823 0.929 . S
C816 C815 1.383 . S
C816 C817 1.377 . S
C817 H801 0.930 . S
C817 C816 1.377 . S
C817 C818 1.379 . S
C818 H802 0.931 . S
C818 C812 1.383 . S
C818 C817 1.379 . S
H819 C813 0.959 . S
H820 C813 0.961 . S
H821 C813 0.960 . S
H822 C814 0.930 . S
H823 C815 0.929 . S
H824 C832 0.929 . S
H825 C834 0.930 . S
H826 C836 0.930 . S
H827 C839 0.929 . S
H828 C842 0.930 . S
H829 C844 0.960 . S
H830 C844 0.960 . S
H831 C844 0.960 . S
C832 H824 0.929 . S
C832 C833 1.377 . S
C832 C834 1.384 . S
C833 C832 1.377 . S
C833 C839 1.390 . S
C834 H825 0.930 . S
C834 C832 1.384 . S
C834 C835 1.372 . S
C835 C834 1.372 . S
C835 C836 1.400 . S
C835 C840 1.490 . S
C836 H826 0.930 . S
C836 C835 1.400 . S
C836 C839 1.386 . S
H837 C853 0.930 1_556 S
H838 C854 0.931 . S
C839 H827 0.929 . S
C839 C833 1.390 . S
C839 C836 1.386 . S
C840 C835 1.490 . S
C840 C842 1.395 . S
C840 C843 1.403 . S
H841 C847 0.930 . S
C842 H828 0.930 . S
C842 C840 1.395 . S
C842 C845 1.403 . S
C843 C840 1.403 . S
C843 C844 1.524 . S
C843 C847 1.400 . S
C844 H829 0.960 . S
C844 H830 0.960 . S
C844 H831 0.960 . S
C844 C843 1.524 . S
C845 C842 1.403 . S
C845 C846 1.392 . S
C845 C849 1.495 . S
C846 C845 1.392 . S
C846 C847 1.385 . S
C846 C848 1.478 . S
C847 H841 0.930 . S
C847 C843 1.400 . S
C847 C846 1.385 . S
C848 C846 1.478 . S
C848 C850 1.381 . S
C848 C854 1.383 . S
C849 C845 1.495 . S
C849 H855 0.959 . S
C849 H856 0.961 . S
C849 H857 0.960 . S
C850 C848 1.381 . S
C850 C851 1.394 . S
C850 H858 0.930 . S
C851 C850 1.394 . S
C851 C852 1.383 1_554 S
C851 H859 0.929 1_554 S
C852 C851 1.383 1_556 S
C852 C853 1.377 1_556 S
C853 H837 0.930 1_554 S
C853 C852 1.377 1_554 S
C853 C854 1.379 . S
C854 H838 0.931 . S
C854 C848 1.383 . S
C854 C853 1.379 . S
H855 C849 0.959 . S
H856 C849 0.961 . S
H857 C849 0.960 . S
H858 C850 0.930 . S
H859 C851 0.929 1_556 S
H860 C868 0.929 . S
H861 C870 0.930 . S
H862 C872 0.930 . S
H863 C875 0.929 . S
H864 C878 0.930 . S
H865 C880 0.960 . S
H866 C880 0.960 . S
H867 C880 0.960 . S
C868 H860 0.929 . S
C868 C869 1.377 . S
C868 C870 1.384 . S
C869 C868 1.377 . S
C869 C875 1.390 . S
C870 H861 0.930 . S
C870 C868 1.384 . S
C870 C871 1.372 . S
C871 C870 1.372 . S
C871 C872 1.400 . S
C871 C876 1.490 . S
C872 H862 0.930 . S
C872 C871 1.400 . S
C872 C875 1.386 . S
H873 C889 0.930 . S
H874 C890 0.931 . S
C875 H863 0.929 . S
C875 C869 1.390 . S
C875 C872 1.386 . S
C876 C871 1.490 . S
C876 C878 1.395 . S
C876 C879 1.403 . S
H877 C883 0.930 . S
C878 H864 0.930 . S
C878 C876 1.395 . S
C878 C881 1.403 . S
C879 C876 1.403 . S
C879 C880 1.524 . S
C879 C883 1.400 . S
C880 H865 0.960 . S
C880 H866 0.960 . S
C880 H867 0.960 . S
C880 C879 1.524 . S
C881 C878 1.403 . S
C881 C882 1.392 . S
C881 C885 1.495 . S
C882 C881 1.392 . S
C882 C883 1.385 . S
C882 C884 1.478 . S
C883 H877 0.930 . S
C883 C879 1.400 . S
C883 C882 1.385 . S
C884 C882 1.478 . S
C884 C886 1.381 . S
C884 C890 1.383 . S
C885 C881 1.495 . S
C885 H891 0.959 . S
C885 H892 0.961 . S
C885 H893 0.960 . S
C886 C884 1.381 . S
C886 C887 1.394 . S
C886 H894 0.930 . S
C887 C886 1.394 . S
C887 C888 1.383 1_556 S
C887 H895 0.929 1_556 S
C888 C887 1.383 1_554 S
C888 C889 1.377 1_554 S
C889 H873 0.930 . S
C889 C888 1.377 1_556 S
C889 C890 1.379 . S
C890 H874 0.931 . S
C890 C884 1.383 . S
C890 C889 1.379 . S
H891 C885 0.959 . S
H892 C885 0.961 . S
H893 C885 0.960 . S
H894 C886 0.930 . S
H895 C887 0.929 1_554 S
H896 C904 0.929 . S
H897 C906 0.930 . S
H898 C908 0.930 . S
H899 C911 0.929 . S
H900 C914 0.930 . S
H901 C916 0.960 . S
H902 C916 0.960 . S
H903 C916 0.960 . S
C904 H896 0.929 . S
C904 C905 1.377 . S
C904 C906 1.384 . S
C905 C904 1.377 . S
C905 C911 1.390 . S
C906 H897 0.930 . S
C906 C904 1.384 . S
C906 C907 1.372 . S
C907 C906 1.372 . S
C907 C908 1.400 . S
C907 C912 1.490 . S
C908 H898 0.930 . S
C908 C907 1.400 . S
C908 C911 1.386 . S
H909 C925 0.930 . S
H910 C926 0.931 . S
C911 H899 0.929 . S
C911 C905 1.390 . S
C911 C908 1.386 . S
C912 C907 1.490 . S
C912 C914 1.395 . S
C912 C915 1.403 . S
H913 C919 0.930 . S
C914 H900 0.930 . S
C914 C912 1.395 . S
C914 C917 1.403 . S
C915 C912 1.403 . S
C915 C916 1.524 . S
C915 C919 1.400 . S
C916 H901 0.960 . S
C916 H902 0.960 . S
C916 H903 0.960 . S
C916 C915 1.524 . S
C917 C914 1.403 . S
C917 C918 1.392 . S
C917 C921 1.495 . S
C918 C917 1.392 . S
C918 C919 1.385 . S
C918 C920 1.478 . S
C919 H913 0.930 . S
C919 C915 1.400 . S
C919 C918 1.385 . S
C920 C918 1.478 . S
C920 C922 1.381 . S
C920 C926 1.383 . S
C921 C917 1.495 . S
C921 H927 0.959 . S
C921 H928 0.961 . S
C921 H929 0.960 . S
C922 C920 1.381 . S
C922 C923 1.394 . S
C922 H930 0.930 . S
C923 C922 1.394 . S
C923 C924 1.383 . S
C923 H931 0.929 . S
C924 C923 1.383 . S
C924 C925 1.377 . S
C925 H909 0.930 . S
C925 C924 1.377 . S
C925 C926 1.379 . S
C926 H910 0.931 . S
C926 C920 1.383 . S
C926 C925 1.379 . S
H927 C921 0.959 . S
H928 C921 0.961 . S
H929 C921 0.960 . S
H930 C922 0.930 . S
H931 C923 0.929 . S
H932 C940 0.929 . S
H933 C942 0.930 . S
H934 C944 0.930 . S
H935 C947 0.929 . S
H936 C950 0.930 . S
H937 C952 0.960 . S
H938 C952 0.960 . S
H939 C952 0.960 . S
C940 H932 0.929 . S
C940 C941 1.377 . S
C940 C942 1.384 . S
C941 C940 1.377 . S
C941 C947 1.390 . S
C942 H933 0.930 . S
C942 C940 1.384 . S
C942 C943 1.372 . S
C943 C942 1.372 . S
C943 C944 1.400 . S
C943 C948 1.490 . S
C944 H934 0.930 . S
C944 C943 1.400 . S
C944 C947 1.386 . S
H945 C961 0.930 . S
H946 C962 0.931 . S
C947 H935 0.929 . S
C947 C941 1.390 . S
C947 C944 1.386 . S
C948 C943 1.490 . S
C948 C950 1.395 . S
C948 C951 1.403 . S
H949 C955 0.930 . S
C950 H936 0.930 . S
C950 C948 1.395 . S
C950 C953 1.403 . S
C951 C948 1.403 . S
C951 C952 1.524 . S
C951 C955 1.400 . S
C952 H937 0.960 . S
C952 H938 0.960 . S
C952 H939 0.960 . S
C952 C951 1.524 . S
C953 C950 1.403 . S
C953 C954 1.392 . S
C953 C957 1.495 . S
C954 C953 1.392 . S
C954 C955 1.385 . S
C954 C956 1.478 . S
C955 H949 0.930 . S
C955 C951 1.400 . S
C955 C954 1.385 . S
C956 C954 1.478 . S
C956 C958 1.381 . S
C956 C962 1.383 . S
C957 C953 1.495 . S
C957 H963 0.959 . S
C957 H964 0.961 . S
C957 H965 0.960 . S
C958 C956 1.381 . S
C958 C959 1.394 . S
C958 H966 0.930 . S
C959 C958 1.394 . S
C959 C960 1.383 . S
C959 H967 0.929 . S
C960 C959 1.383 . S
C960 C961 1.377 . S
C961 H945 0.930 . S
C961 C960 1.377 . S
C961 C962 1.379 . S
C962 H946 0.931 . S
C962 C956 1.383 . S
C962 C961 1.379 . S
H963 C957 0.959 . S
H964 C957 0.961 . S
H965 C957 0.960 . S
H966 C958 0.930 . S
H967 C959 0.929 . S
H968 C976 0.929 . S
H969 C978 0.930 . S
H970 C980 0.930 . S
H971 C983 0.929 . S
H972 C986 0.930 . S
H973 C988 0.960 . S
H974 C988 0.960 . S
H975 C988 0.960 . S
C976 H968 0.929 . S
C976 C977 1.377 . S
C976 C978 1.384 . S
C977 C976 1.377 . S
C977 C983 1.390 . S
C978 H969 0.930 . S
C978 C976 1.384 . S
C978 C979 1.372 . S
C979 C978 1.372 . S
C979 C980 1.400 . S
C979 C984 1.490 . S
C980 H970 0.930 . S
C980 C979 1.400 . S
C980 C983 1.386 . S
H981 C997 0.930 . S
H982 C998 0.931 . S
C983 H971 0.929 . S
C983 C977 1.390 . S
C983 C980 1.386 . S
C984 C979 1.490 . S
C984 C986 1.395 . S
C984 C987 1.403 . S
H985 C991 0.930 . S
C986 H972 0.930 . S
C986 C984 1.395 . S
C986 C989 1.403 . S
C987 C984 1.403 . S
C987 C988 1.524 . S
C987 C991 1.400 . S
C988 H973 0.960 . S
C988 H974 0.960 . S
C988 H975 0.960 . S
C988 C987 1.524 . S
C989 C986 1.403 . S
C989 C990 1.392 . S
C989 C993 1.495 . S
C990 C989 1.392 . S
C990 C991 1.385 . S
C990 C992 1.478 . S
C991 H985 0.930 . S
C991 C987 1.400 . S
C991 C990 1.385 . S
C992 C990 1.478 . S
C992 C994 1.381 . S
C992 C998 1.383 . S
C993 C989 1.495 . S
C993 H999 0.959 . S
C993 H1000 0.961 . S
C993 H1001 0.960 . S
C994 C992 1.381 . S
C994 C995 1.394 . S
C994 H1002 0.930 . S
C995 C994 1.394 . S
C995 C996 1.383 . S
C995 H1003 0.929 . S
C996 C995 1.383 . S
C996 C997 1.377 . S
C997 H981 0.930 . S
C997 C996 1.377 . S
C997 C998 1.379 . S
C998 H982 0.931 . S
C998 C992 1.383 . S
C998 C997 1.379 . S
H999 C993 0.959 . S
H1000 C993 0.961 . S
H1001 C993 0.960 . S
H1002 C994 0.930 . S
H1003 C995 0.929 . S
H1004 C1012 0.929 . S
H1005 C1014 0.930 . S
H1006 C1016 0.930 . S
H1007 C1019 0.929 . S
H1008 C1022 0.930 . S
H1009 C1024 0.960 . S
H1010 C1024 0.960 . S
H1011 C1024 0.960 . S
C1012 H1004 0.929 . S
C1012 C1013 1.377 . S
C1012 C1014 1.384 . S
C1013 C1012 1.377 . S
C1013 C1019 1.390 . S
C1014 H1005 0.930 . S
C1014 C1012 1.384 . S
C1014 C1015 1.372 . S
C1015 C1014 1.372 . S
C1015 C1016 1.400 . S
C1015 C1020 1.490 . S
C1016 H1006 0.930 . S
C1016 C1015 1.400 . S
C1016 C1019 1.386 . S
H1017 C1033 0.930 . S
H1018 C1034 0.931 . S
C1019 H1007 0.929 . S
C1019 C1013 1.390 . S
C1019 C1016 1.386 . S
C1020 C1015 1.490 . S
C1020 C1022 1.395 . S
C1020 C1023 1.403 . S
H1021 C1027 0.930 . S
C1022 H1008 0.930 . S
C1022 C1020 1.395 . S
C1022 C1025 1.403 . S
C1023 C1020 1.403 . S
C1023 C1024 1.524 . S
C1023 C1027 1.400 . S
C1024 H1009 0.960 . S
C1024 H1010 0.960 . S
C1024 H1011 0.960 . S
C1024 C1023 1.524 . S
C1025 C1022 1.403 . S
C1025 C1026 1.392 . S
C1025 C1029 1.495 . S
C1026 C1025 1.392 . S
C1026 C1027 1.385 . S
C1026 C1028 1.478 . S
C1027 H1021 0.930 . S
C1027 C1023 1.400 . S
C1027 C1026 1.385 . S
C1028 C1026 1.478 . S
C1028 C1030 1.381 . S
C1028 C1034 1.383 . S
C1029 C1025 1.495 . S
C1029 H1035 0.959 . S
C1029 H1036 0.961 . S
C1029 H1037 0.960 . S
C1030 C1028 1.381 . S
C1030 C1031 1.394 . S
C1030 H1038 0.930 . S
C1031 C1030 1.394 . S
C1031 C1032 1.383 . S
C1031 H1039 0.929 . S
C1032 C1031 1.383 . S
C1032 C1033 1.377 . S
C1033 H1017 0.930 . S
C1033 C1032 1.377 . S
C1033 C1034 1.379 . S
C1034 H1018 0.931 . S
C1034 C1028 1.383 . S
C1034 C1033 1.379 . S
H1035 C1029 0.959 . S
H1036 C1029 0.961 . S
H1037 C1029 0.960 . S
H1038 C1030 0.930 . S
H1039 C1031 0.929 . S
C185 C7 1.032 . S
C204 C119 1.069 . S
C221 C29 1.034 . S
C240 C140 1.070 . S
C257 C50 1.034 . S
C276 C163 1.071 . S
C293 C92 1.064 . S
C312 C73 1.010 . S
C329 C114 1.064 . S
C348 C97 1.018 . S
C365 C138 1.068 . S
C384 C115 1.059 . S
C401 C158 1.067 . S
C420 C137 1.009 . S
C437 C159 1.039 . S
C456 C95 1.060 . S
C473 C139 1.043 . S
C492 C75 1.068 . S
C509 C161 1.038 . S
C528 C8 1.060 . S
C545 C31 1.064 . S
C564 C94 1.022 . S
C581 C48 1.067 . S
C600 C117 1.019 . S
C617 C70 1.065 . S
C636 C53 1.009 . S
C653 C6 1.065 . S
C672 C71 0.998 . S
C689 C26 1.066 . S
C708 C5 1.070 . S
C725 C27 1.034 . S
C744 C51 1.057 . S
C761 C96 1.388 . S
C780 C9 1.389 . S
C797 C116 1.381 . S
C816 C30 1.368 . S
C833 C49 1.382 . S
C852 C136 1.366 . S
C869 C74 1.388 . S
C888 C160 1.397 . S
C905 C52 1.385 . S
C924 C141 1.399 . S
C941 C72 1.381 . S
C960 C162 1.371 . S
C977 C93 1.382 . S
C996 C4 1.395 . S
C1013 C118 1.388 . S
C1032 C28 1.399 . S
