# Generated by pormake.
# Topology zfp, (5)-cn, num edge types: 1
# Building blocks:
#     Node 0, Type 0, BuildingBlock: XOMCOT_clean_sbu_1, # of connection points: 5
#     Node 1, Type 0, BuildingBlock: XOMCOT_clean_sbu_1, # of connection points: 5
#     Node 2, Type 0, BuildingBlock: XOMCOT_clean_sbu_1, # of connection points: 5
#     Node 3, Type 0, BuildingBlock: XOMCOT_clean_sbu_1, # of connection points: 5
#     Node 4, Type 0, BuildingBlock: XOMCOT_clean_sbu_1, # of connection points: 5
#     Node 5, Type 0, BuildingBlock: XOMCOT_clean_sbu_1, # of connection points: 5
#     Node 6, Type 0, BuildingBlock: XOMCOT_clean_sbu_1, # of connection points: 5
#     Node 7, Type 0, BuildingBlock: XOMCOT_clean_sbu_1, # of connection points: 5
#     Node 8, Type 0, BuildingBlock: XOMCOT_clean_sbu_1, # of connection points: 5
#     Node 9, Type 0, BuildingBlock: XOMCOT_clean_sbu_1, # of connection points: 5
#     Node 10, Type 0, BuildingBlock: XOMCOT_clean_sbu_1, # of connection points: 5
#     Node 11, Type 0, BuildingBlock: XOMCOT_clean_sbu_1, # of connection points: 5
#     Node 12, Type 0, BuildingBlock: XOMCOT_clean_sbu_1, # of connection points: 5
#     Node 13, Type 0, BuildingBlock: XOMCOT_clean_sbu_1, # of connection points: 5
#     Node 14, Type 0, BuildingBlock: XOMCOT_clean_sbu_1, # of connection points: 5
#     Node 15, Type 0, BuildingBlock: XOMCOT_clean_sbu_1, # of connection points: 5
#     Edge 16, Type (0, 0), BuildingBlock: AJUNOK_clean_linker_0, # of connection points: 2
#     Edge 17, Type (0, 0), BuildingBlock: AJUNOK_clean_linker_0, # of connection points: 2
#     Edge 18, Type (0, 0), BuildingBlock: AJUNOK_clean_linker_0, # of connection points: 2
#     Edge 19, Type (0, 0), BuildingBlock: AJUNOK_clean_linker_0, # of connection points: 2
#     Edge 20, Type (0, 0), BuildingBlock: AJUNOK_clean_linker_0, # of connection points: 2
#     Edge 21, Type (0, 0), BuildingBlock: AJUNOK_clean_linker_0, # of connection points: 2
#     Edge 22, Type (0, 0), BuildingBlock: AJUNOK_clean_linker_0, # of connection points: 2
#     Edge 23, Type (0, 0), BuildingBlock: AJUNOK_clean_linker_0, # of connection points: 2
#     Edge 24, Type (0, 0), BuildingBlock: AJUNOK_clean_linker_0, # of connection points: 2
#     Edge 25, Type (0, 0), BuildingBlock: AJUNOK_clean_linker_0, # of connection points: 2
#     Edge 26, Type (0, 0), BuildingBlock: AJUNOK_clean_linker_0, # of connection points: 2
#     Edge 27, Type (0, 0), BuildingBlock: AJUNOK_clean_linker_0, # of connection points: 2
#     Edge 28, Type (0, 0), BuildingBlock: AJUNOK_clean_linker_0, # of connection points: 2
#     Edge 29, Type (0, 0), BuildingBlock: AJUNOK_clean_linker_0, # of connection points: 2
#     Edge 30, Type (0, 0), BuildingBlock: AJUNOK_clean_linker_0, # of connection points: 2
#     Edge 31, Type (0, 0), BuildingBlock: AJUNOK_clean_linker_0, # of connection points: 2
#     Edge 32, Type (0, 0), BuildingBlock: AJUNOK_clean_linker_0, # of connection points: 2
#     Edge 33, Type (0, 0), BuildingBlock: AJUNOK_clean_linker_0, # of connection points: 2
#     Edge 34, Type (0, 0), BuildingBlock: AJUNOK_clean_linker_0, # of connection points: 2
#     Edge 35, Type (0, 0), BuildingBlock: AJUNOK_clean_linker_0, # of connection points: 2
#     Edge 36, Type (0, 0), BuildingBlock: AJUNOK_clean_linker_0, # of connection points: 2
#     Edge 37, Type (0, 0), BuildingBlock: AJUNOK_clean_linker_0, # of connection points: 2
#     Edge 38, Type (0, 0), BuildingBlock: AJUNOK_clean_linker_0, # of connection points: 2
#     Edge 39, Type (0, 0), BuildingBlock: AJUNOK_clean_linker_0, # of connection points: 2
#     Edge 40, Type (0, 0), BuildingBlock: AJUNOK_clean_linker_0, # of connection points: 2
#     Edge 41, Type (0, 0), BuildingBlock: AJUNOK_clean_linker_0, # of connection points: 2
#     Edge 42, Type (0, 0), BuildingBlock: AJUNOK_clean_linker_0, # of connection points: 2
#     Edge 43, Type (0, 0), BuildingBlock: AJUNOK_clean_linker_0, # of connection points: 2
#     Edge 44, Type (0, 0), BuildingBlock: AJUNOK_clean_linker_0, # of connection points: 2
#     Edge 45, Type (0, 0), BuildingBlock: AJUNOK_clean_linker_0, # of connection points: 2
#     Edge 46, Type (0, 0), BuildingBlock: AJUNOK_clean_linker_0, # of connection points: 2
#     Edge 47, Type (0, 0), BuildingBlock: AJUNOK_clean_linker_0, # of connection points: 2
#     Edge 48, Type (0, 0), BuildingBlock: AJUNOK_clean_linker_0, # of connection points: 2
#     Edge 49, Type (0, 0), BuildingBlock: AJUNOK_clean_linker_0, # of connection points: 2
#     Edge 50, Type (0, 0), BuildingBlock: AJUNOK_clean_linker_0, # of connection points: 2
#     Edge 51, Type (0, 0), BuildingBlock: AJUNOK_clean_linker_0, # of connection points: 2
#     Edge 52, Type (0, 0), BuildingBlock: AJUNOK_clean_linker_0, # of connection points: 2
#     Edge 53, Type (0, 0), BuildingBlock: AJUNOK_clean_linker_0, # of connection points: 2
#     Edge 54, Type (0, 0), BuildingBlock: AJUNOK_clean_linker_0, # of connection points: 2
#     Edge 55, Type (0, 0), BuildingBlock: AJUNOK_clean_linker_0, # of connection points: 2
# Relax obj value: 0.310
# Max RMSD: 0.223
# Mean RMSD: 0.223
data_MOF--net-zfp--node1-XOMCOT_clean_sbu_1--edge1-AJUNOK_clean_linker_0
_symmetry_space_group_name_H-M    P1
_symmetry_Int_Tables_number       1
_symmetry_cell_setting            triclinic
loop_
_symmetry_equiv_pos_as_xyz
'x, y, z'
_cell_length_a     22.503986
_cell_length_b     22.576324
_cell_length_c     53.983684
_cell_angle_alpha  90.063114
_cell_angle_beta   89.996185
_cell_angle_gamma 89.982613
loop_
_atom_site_label
_atom_site_type_symbol
_atom_site_fract_x
_atom_site_fract_y
_atom_site_fract_z
_atom_type_partial_charge
C0 C 0.2038 0.16078 0.11454 0.0
C1 C 0.2083 0.15297 0.08951 0.0
N2 N 0.19106 0.20331 0.07835 0.0
N3 N 0.18494 0.21605 0.11972 0.0
C4 C 0.17823 0.24143 0.09708 0.0
H5 H 0.2138 0.12779 0.12843 0.0
Co6 Co 0.17698 0.22525 0.15403 0.0
C7 C 0.05152 0.21778 0.13734 0.0
O8 O 0.06712 0.25258 0.11904 0.0
N9 N 0.17229 0.22534 0.18851 0.0
C10 C 0.14764 0.19306 0.22591 0.0
C11 C 0.14174 0.1836 0.20099 0.0
C12 C 0.19789 0.25899 0.20629 0.0
N13 N 0.18373 0.23994 0.22934 0.0
O14 O 0.25911 0.25524 0.15576 0.0
H15 H 0.11693 0.14798 0.19251 0.0
H16 H 0.22709 0.29592 0.20241 0.0
O17 O 0.092 0.19776 0.15197 0.0
C18 C 0.30717 0.22523 0.15695 0.0
O19 O 0.30363 0.16718 0.15768 0.0
N20 N 0.14815 0.30482 0.15286 0.0
C21 C 0.08844 0.41258 0.14885 0.0
C22 C 0.13919 0.40142 0.13446 0.0
C23 C 0.16965 0.34747 0.13731 0.0
C24 C 0.10118 0.31771 0.16811 0.0
C25 C 0.07088 0.37082 0.16632 0.0
H26 H 0.20887 0.33901 0.12631 0.0
H27 H 0.08358 0.28528 0.1808 0.0
H28 H 0.16231 0.28604 0.09418 0.0
H29 H 0.22479 0.11356 0.08041 0.0
H30 H 0.12614 0.16761 0.24031 0.0
H31 H 0.15441 0.43348 0.12097 0.0
H32 H 0.03171 0.37769 0.17766 0.0
C33 C 0.90748 0.17184 0.61177 0.0
C34 C 0.90449 0.17105 0.58629 0.0
N35 N 0.85298 0.19641 0.57933 0.0
N36 N 0.85798 0.19732 0.62096 0.0
C37 C 0.82649 0.21361 0.60069 0.0
H38 H 0.94242 0.15275 0.62297 0.0
Co39 Co 0.84058 0.20042 0.65511 0.0
C40 C 0.83298 0.07531 0.67194 0.0
O41 O 0.79043 0.09423 0.68662 0.0
N42 N 0.83147 0.20644 0.69006 0.0
C43 C 0.86414 0.19076 0.72857 0.0
C44 C 0.8749 0.1816 0.70393 0.0
C45 C 0.79725 0.23519 0.70708 0.0
N46 N 0.81528 0.22434 0.7306 0.0
O47 O 0.82034 0.286 0.65144 0.0
H48 H 0.91274 0.158 0.6965 0.0
H49 H 0.76134 0.26505 0.70264 0.0
O50 O 0.8622 0.11321 0.65881 0.0
C51 C 0.77621 0.31808 0.64454 0.0
O52 O 0.72668 0.29344 0.63699 0.0
N53 N 0.76008 0.17258 0.64892 0.0
C54 C 0.65728 0.10305 0.64419 0.0
C55 C 0.70736 0.09183 0.62979 0.0
C56 C 0.7572 0.1268 0.63219 0.0
C57 C 0.70993 0.18681 0.66202 0.0
C58 C 0.65786 0.15287 0.6598 0.0
H59 H 0.79579 0.11163 0.62223 0.0
H60 H 0.70943 0.22376 0.67447 0.0
H61 H 0.78369 0.23515 0.60167 0.0
H62 H 0.93639 0.15071 0.57391 0.0
H63 H 0.89082 0.17498 0.7439 0.0
H64 H 0.71025 0.05329 0.61787 0.0
H65 H 0.61919 0.16477 0.67064 0.0
C66 C 0.75558 0.7484 0.09854 0.0
C67 C 0.75586 0.76658 0.07441 0.0
N68 N 0.79508 0.81104 0.07215 0.0
N69 N 0.79379 0.78174 0.11191 0.0
C70 C 0.81815 0.81931 0.09509 0.0
H71 H 0.73049 0.71132 0.10568 0.0
Co72 Co 0.80708 0.76884 0.14603 0.0
C73 C 0.919 0.8347 0.15261 0.0
O74 O 0.88861 0.87414 0.16526 0.0
N75 N 0.81959 0.75726 0.18055 0.0
C76 C 0.86358 0.73459 0.21635 0.0
C77 C 0.87048 0.73765 0.19109 0.0
C78 C 0.78254 0.7663 0.20002 0.0
N79 N 0.80813 0.75215 0.22197 0.0
O80 O 0.72046 0.74848 0.14898 0.0
H81 H 0.90994 0.7247 0.181 0.0
H82 H 0.73765 0.78287 0.1982 0.0
O83 O 0.89118 0.79144 0.14277 0.0
C84 C 0.67814 0.71895 0.15912 0.0
O85 O 0.69034 0.68131 0.1769 0.0
N86 N 0.83185 0.68916 0.13905 0.0
C87 C 0.90489 0.58943 0.13735 0.0
C88 C 0.90911 0.63275 0.11908 0.0
C89 C 0.87243 0.68223 0.12029 0.0
C90 C 0.82194 0.64328 0.15502 0.0
C91 C 0.85855 0.59314 0.15466 0.0
H92 H 0.8818 0.71767 0.1075 0.0
H93 H 0.79079 0.64784 0.17 0.0
H94 H 0.85326 0.85045 0.09934 0.0
H95 H 0.73159 0.74642 0.05926 0.0
H96 H 0.89612 0.7186 0.22952 0.0
H97 H 0.9442 0.63131 0.10534 0.0
H98 H 0.8534 0.55967 0.16886 0.0
C99 C 0.33311 0.75471 0.60007 0.0
C100 C 0.32176 0.75499 0.57516 0.0
N101 N 0.2806 0.79675 0.57044 0.0
N102 N 0.29908 0.79587 0.61142 0.0
C103 C 0.26704 0.8206 0.59282 0.0
H104 H 0.3666 0.72803 0.60909 0.0
Co105 Co 0.30571 0.81566 0.6453 0.0
C106 C 0.24283 0.93157 0.64726 0.0
O107 O 0.20044 0.90538 0.6599 0.0
N108 N 0.31026 0.83502 0.6792 0.0
C109 C 0.3249 0.88521 0.71408 0.0
C110 C 0.3313 0.88608 0.68884 0.0
C111 C 0.29019 0.80441 0.69902 0.0
N112 N 0.29951 0.83348 0.72068 0.0
O113 O 0.32585 0.73004 0.6519 0.0
H114 H 0.35058 0.92179 0.67819 0.0
H115 H 0.27091 0.7608 0.69743 0.0
O116 O 0.28516 0.89985 0.63865 0.0
C117 C 0.35047 0.69272 0.66672 0.0
O118 O 0.37483 0.71156 0.68735 0.0
N119 N 0.38688 0.83754 0.64036 0.0
C120 C 0.48753 0.9093 0.63961 0.0
C121 C 0.4474 0.90985 0.61989 0.0
C122 C 0.39769 0.87391 0.62061 0.0
C123 C 0.43024 0.82956 0.65777 0.0
C124 C 0.48106 0.86537 0.65781 0.0
H125 H 0.3647 0.8814 0.6065 0.0
H126 H 0.42307 0.80068 0.67329 0.0
H127 H 0.23735 0.85774 0.5955 0.0
H128 H 0.34336 0.72738 0.56144 0.0
H129 H 0.33845 0.92017 0.72658 0.0
H130 H 0.45051 0.94217 0.60514 0.0
H131 H 0.51286 0.86105 0.67274 0.0
C132 C 0.76347 0.1987 0.94868 0.0
C133 C 0.75314 0.19766 0.97367 0.0
N134 N 0.70608 0.23226 0.97853 0.0
N135 N 0.72162 0.23172 0.93707 0.0
C136 C 0.68885 0.25375 0.95619 0.0
H137 H 0.80058 0.17701 0.93985 0.0
Co138 Co 0.72128 0.25367 0.90257 0.0
C139 C 0.59009 0.25084 0.91375 0.0
O140 O 0.59959 0.20128 0.92582 0.0
N141 N 0.72422 0.28104 0.86947 0.0
C142 C 0.70551 0.33646 0.83625 0.0
C143 C 0.69784 0.33115 0.86148 0.0
C144 C 0.74898 0.2575 0.84879 0.0
N145 N 0.73786 0.29001 0.82821 0.0
O146 O 0.80782 0.2306 0.90025 0.0
H147 H 0.67292 0.36115 0.87316 0.0
H148 H 0.77314 0.21629 0.84861 0.0
O149 O 0.63486 0.27893 0.9046 0.0
C150 C 0.83769 0.18667 0.89157 0.0
O151 O 0.80946 0.14385 0.88008 0.0
N152 N 0.69154 0.17684 0.89187 0.0
C153 C 0.60807 0.08549 0.88802 0.0
C154 C 0.65641 0.08061 0.90428 0.0
C155 C 0.69847 0.12611 0.90545 0.0
C156 C 0.64957 0.17728 0.87337 0.0
C157 C 0.60829 0.13183 0.87094 0.0
H158 H 0.73397 0.12124 0.91848 0.0
H159 H 0.6416 0.21599 0.86223 0.0
H160 H 0.65377 0.28594 0.95386 0.0
H161 H 0.78017 0.17542 0.9874 0.0
H162 H 0.68633 0.37063 0.82473 0.0
H163 H 0.65986 0.04401 0.91714 0.0
H164 H 0.57415 0.13552 0.8569 0.0
C165 C 0.65819 0.72612 0.44125 0.0
C166 C 0.65982 0.72474 0.46665 0.0
N167 N 0.71393 0.70585 0.47365 0.0
N168 N 0.71093 0.70884 0.43187 0.0
C169 C 0.74435 0.69749 0.45231 0.0
H170 H 0.62088 0.7402 0.43007 0.0
Co171 Co 0.71379 0.71156 0.3969 0.0
C172 C 0.71126 0.58247 0.40847 0.0
O173 O 0.75075 0.59524 0.42547 0.0
N174 N 0.70787 0.71828 0.36215 0.0
C175 C 0.65508 0.73028 0.32767 0.0
C176 C 0.65255 0.7226 0.35286 0.0
C177 C 0.74372 0.72414 0.34202 0.0
N178 N 0.71252 0.73037 0.32065 0.0
O179 O 0.73465 0.79639 0.39971 0.0
H180 H 0.61259 0.72149 0.36399 0.0
H181 H 0.79173 0.72366 0.3429 0.0
O182 O 0.69009 0.62475 0.39503 0.0
C183 C 0.7707 0.83368 0.39002 0.0
O184 O 0.80671 0.8165 0.37229 0.0
N185 N 0.79541 0.68802 0.39492 0.0
C186 C 0.89732 0.62082 0.4021 0.0
C187 C 0.88971 0.67436 0.41497 0.0
C188 C 0.83852 0.70842 0.41058 0.0
C189 C 0.80794 0.64163 0.37943 0.0
C190 C 0.85849 0.60754 0.38274 0.0
H191 H 0.83064 0.74742 0.42175 0.0
H192 H 0.77568 0.62607 0.36613 0.0
H193 H 0.78961 0.68179 0.45191 0.0
H194 H 0.62448 0.7388 0.47889 0.0
H195 H 0.61722 0.73722 0.31569 0.0
H196 H 0.92053 0.68753 0.42936 0.0
H197 H 0.8648 0.56848 0.37134 0.0
C198 C 0.31882 0.67566 0.93618 0.0
C199 C 0.32373 0.67446 0.96141 0.0
N200 N 0.34147 0.72822 0.96917 0.0
N201 N 0.33284 0.72983 0.92754 0.0
C202 C 0.34754 0.76094 0.94824 0.0
H203 H 0.30431 0.63933 0.92459 0.0
Co204 Co 0.32461 0.73212 0.89298 0.0
C205 C 0.45604 0.72862 0.90066 0.0
O206 O 0.44871 0.77222 0.91642 0.0
N207 N 0.31352 0.72524 0.85886 0.0
C208 C 0.30959 0.68009 0.8223 0.0
C209 C 0.32224 0.67333 0.84706 0.0
C210 C 0.29401 0.76267 0.84105 0.0
N211 N 0.29213 0.73634 0.8186 0.0
O212 O 0.24005 0.75818 0.8956 0.0
H213 H 0.338 0.63335 0.85592 0.0
H214 H 0.28331 0.80881 0.84426 0.0
O215 O 0.41051 0.70595 0.88967 0.0
C216 C 0.20283 0.77301 0.91258 0.0
O217 O 0.21953 0.77247 0.93586 0.0
N218 N 0.3501 0.81255 0.88962 0.0
C219 C 0.4131 0.91817 0.88856 0.0
C220 C 0.36751 0.91018 0.90591 0.0
C221 C 0.33474 0.85723 0.90551 0.0
C222 C 0.3898 0.82371 0.87098 0.0
C223 C 0.42014 0.87684 0.86971 0.0
H224 H 0.30062 0.8505 0.91925 0.0
H225 H 0.40228 0.78971 0.85791 0.0
H226 H 0.36286 0.80621 0.94812 0.0
H227 H 0.31234 0.63749 0.97325 0.0
H228 H 0.31573 0.6472 0.80791 0.0
H229 H 0.35982 0.94249 0.9204 0.0
H230 H 0.45321 0.88327 0.85538 0.0
C231 C 0.32755 0.32113 0.43647 0.0
C232 C 0.33822 0.31713 0.4613 0.0
N233 N 0.28994 0.3368 0.47331 0.0
N234 N 0.27296 0.34365 0.43234 0.0
C235 C 0.25055 0.35238 0.45552 0.0
H236 H 0.35849 0.3094 0.42193 0.0
Co237 Co 0.26432 0.35068 0.39791 0.0
C238 C 0.26727 0.47704 0.41368 0.0
O239 O 0.23226 0.46224 0.43206 0.0
N240 N 0.26556 0.35424 0.36321 0.0
C241 C 0.30218 0.37466 0.32584 0.0
C242 C 0.30922 0.38282 0.35089 0.0
C243 C 0.23301 0.32817 0.3452 0.0
N244 N 0.25452 0.33987 0.32239 0.0
O245 O 0.24206 0.26552 0.39671 0.0
H246 H 0.34538 0.40639 0.35965 0.0
H247 H 0.19479 0.30063 0.34847 0.0
O248 O 0.28776 0.43625 0.39941 0.0
C249 C 0.19664 0.23338 0.39153 0.0
O250 O 0.14667 0.25841 0.38463 0.0
N251 N 0.18318 0.37687 0.39907 0.0
C252 C 0.0821 0.44609 0.40662 0.0
C253 C 0.09265 0.39616 0.42148 0.0
C254 C 0.14342 0.36136 0.4171 0.0
C255 C 0.16893 0.42152 0.38293 0.0
C256 C 0.11906 0.45629 0.38639 0.0
H257 H 0.15235 0.32401 0.42902 0.0
H258 H 0.19913 0.43567 0.36862 0.0
H259 H 0.20792 0.37229 0.45953 0.0
H260 H 0.37892 0.30214 0.46998 0.0
H261 H 0.33148 0.39039 0.31137 0.0
H262 H 0.06383 0.38586 0.43695 0.0
H263 H 0.11134 0.49323 0.37399 0.0
C264 C 0.79777 0.73727 0.94408 0.0
C265 C 0.80008 0.74855 0.96892 0.0
N266 N 0.82175 0.8033 0.97215 0.0
N267 N 0.81839 0.78454 0.93132 0.0
C268 C 0.83216 0.82481 0.94915 0.0
H269 H 0.7844 0.69574 0.93612 0.0
Co270 Co 0.82512 0.78901 0.89623 0.0
C271 C 0.95381 0.80584 0.88478 0.0
O272 O 0.94309 0.77253 0.86531 0.0
N273 N 0.82689 0.79892 0.8614 0.0
C274 C 0.84082 0.84587 0.82557 0.0
C275 C 0.85027 0.84764 0.85066 0.0
C276 C 0.79903 0.77079 0.84244 0.0
N277 N 0.80804 0.7976 0.82031 0.0
O278 O 0.74192 0.75841 0.89336 0.0
H279 H 0.87314 0.88262 0.86049 0.0
H280 H 0.76973 0.73336 0.8448 0.0
O281 O 0.90985 0.82131 0.89886 0.0
C282 C 0.71248 0.70966 0.89447 0.0
O283 O 0.73993 0.65942 0.8987 0.0
N284 N 0.86192 0.71112 0.89563 0.0
C285 C 0.93959 0.61385 0.89618 0.0
C286 C 0.94592 0.6602 0.91294 0.0
C287 C 0.9054 0.7056 0.91328 0.0
C288 C 0.85565 0.66678 0.87846 0.0
C289 C 0.89342 0.61707 0.87871 0.0
H290 H 0.91356 0.73951 0.92689 0.0
H291 H 0.82177 0.66867 0.86453 0.0
H292 H 0.84984 0.86846 0.94538 0.0
H293 H 0.78712 0.71868 0.98366 0.0
H294 H 0.85793 0.87746 0.81234 0.0
H295 H 0.9832 0.663 0.92556 0.0
H296 H 0.88704 0.58215 0.86521 0.0
C297 C 0.14919 0.82546 0.43695 0.0
C298 C 0.14833 0.82114 0.46228 0.0
N299 N 0.20103 0.83988 0.47097 0.0
N300 N 0.20219 0.84615 0.42917 0.0
C301 C 0.23297 0.85457 0.4506 0.0
H302 H 0.11361 0.8124 0.42463 0.0
Co303 Co 0.20621 0.84868 0.39413 0.0
C304 C 0.21055 0.9764 0.40792 0.0
O305 O 0.24948 0.96044 0.42468 0.0
N306 N 0.20107 0.84776 0.35918 0.0
C307 C 0.16222 0.86519 0.32191 0.0
C308 C 0.15651 0.87513 0.34696 0.0
C309 C 0.23284 0.82072 0.34107 0.0
N310 N 0.21001 0.83051 0.31832 0.0
O311 O 0.22569 0.76262 0.3944 0.0
H312 H 0.12147 0.90025 0.35578 0.0
H313 H 0.27262 0.79546 0.34408 0.0
O314 O 0.18579 0.93609 0.39451 0.0
C315 C 0.26984 0.72943 0.3884 0.0
O316 O 0.31822 0.75284 0.37904 0.0
N317 N 0.28817 0.87099 0.39276 0.0
C318 C 0.39481 0.9326 0.39598 0.0
C319 C 0.38397 0.88434 0.41166 0.0
C320 C 0.33048 0.85306 0.40932 0.0
C321 C 0.30202 0.91361 0.37567 0.0
C322 C 0.35499 0.94433 0.37684 0.0
H323 H 0.32184 0.81647 0.42168 0.0
H324 H 0.26989 0.92906 0.36234 0.0
H325 H 0.27781 0.87131 0.45166 0.0
H326 H 0.11265 0.80264 0.47325 0.0
H327 H 0.1328 0.88101 0.30749 0.0
H328 H 0.41459 0.87302 0.42638 0.0
H329 H 0.36272 0.9801 0.36386 0.0
C330 C 0.26643 0.29005 0.94271 0.0
C331 C 0.26508 0.28801 0.9679 0.0
N332 N 0.22558 0.24658 0.97484 0.0
N333 N 0.22906 0.24907 0.93317 0.0
C334 C 0.2046 0.22295 0.95337 0.0
H335 H 0.2912 0.32221 0.93209 0.0
Co336 Co 0.21334 0.24624 0.89873 0.0
C337 C 0.09986 0.176 0.8978 0.0
O338 O 0.12836 0.13231 0.88695 0.0
N339 N 0.19874 0.24483 0.86421 0.0
C340 C 0.15286 0.26059 0.82829 0.0
C341 C 0.146 0.25754 0.85346 0.0
C342 C 0.23692 0.23976 0.8449 0.0
N343 N 0.21043 0.25101 0.82288 0.0
O344 O 0.29871 0.2678 0.89349 0.0
H345 H 0.10543 0.26778 0.86329 0.0
H346 H 0.28388 0.23108 0.84694 0.0
O347 O 0.12933 0.22171 0.90443 0.0
C348 C 0.34256 0.29456 0.88316 0.0
O349 O 0.33272 0.32994 0.86432 0.0
N350 N 0.18657 0.32611 0.90027 0.0
C351 C 0.11974 0.43027 0.89977 0.0
C352 C 0.1095 0.38644 0.91746 0.0
C353 C 0.14444 0.33651 0.918 0.0
C354 C 0.19827 0.3686 0.88291 0.0
C355 C 0.16557 0.42156 0.88248 0.0
H356 H 0.13347 0.30391 0.93181 0.0
H357 H 0.22966 0.36028 0.86829 0.0
H358 H 0.16928 0.19057 0.95228 0.0
H359 H 0.29027 0.31632 0.98022 0.0
H360 H 0.11818 0.27094 0.81511 0.0
H361 H 0.07252 0.38863 0.93025 0.0
H362 H 0.17443 0.45408 0.86822 0.0
C363 C 0.7114 0.2583 0.45056 0.0
C364 C 0.71852 0.25571 0.4757 0.0
N365 N 0.75978 0.21467 0.48069 0.0
N366 N 0.74593 0.2171 0.43927 0.0
C367 C 0.77722 0.19323 0.4584 0.0
H368 H 0.6856 0.292 0.44138 0.0
Co369 Co 0.76078 0.21038 0.40439 0.0
C370 C 0.76148 0.08342 0.42045 0.0
O371 O 0.71645 0.09685 0.43489 0.0
N372 N 0.78083 0.20808 0.37057 0.0
C373 C 0.83702 0.2068 0.33664 0.0
C374 C 0.83661 0.20053 0.36206 0.0
C375 C 0.74828 0.21913 0.35 0.0
N376 N 0.78109 0.21818 0.32906 0.0
O377 O 0.73692 0.29449 0.40055 0.0
H378 H 0.8749 0.1929 0.37374 0.0
H379 H 0.70097 0.22668 0.3502 0.0
O380 O 0.787 0.12516 0.40811 0.0
C381 C 0.69795 0.32691 0.38972 0.0
O382 O 0.65645 0.30244 0.37606 0.0
N383 N 0.68222 0.18004 0.39733 0.0
C384 C 0.58392 0.10497 0.39768 0.0
C385 C 0.58238 0.15899 0.41046 0.0
C386 C 0.63162 0.19664 0.40953 0.0
C387 C 0.68013 0.13145 0.38204 0.0
C388 C 0.63155 0.09378 0.38186 0.0
H389 H 0.62895 0.23761 0.41941 0.0
H390 H 0.71859 0.1173 0.37165 0.0
H391 H 0.81338 0.16213 0.45603 0.0
H392 H 0.69797 0.28468 0.48922 0.0
H393 H 0.87602 0.20571 0.32494 0.0
H394 H 0.54473 0.17094 0.42192 0.0
H395 H 0.6329 0.05443 0.37036 0.0
C396 C 0.24083 0.80051 0.10142 0.0
C397 C 0.24848 0.80343 0.07641 0.0
N398 N 0.30111 0.77913 0.07086 0.0
N399 N 0.28913 0.77587 0.11244 0.0
C400 C 0.32368 0.76023 0.09275 0.0
H401 H 0.20173 0.81696 0.11059 0.0
Co402 Co 0.29572 0.76108 0.14767 0.0
C403 C 0.42664 0.76416 0.13419 0.0
O404 O 0.41589 0.81235 0.12139 0.0
N405 N 0.29817 0.74137 0.1817 0.0
C406 C 0.3231 0.69847 0.21735 0.0
C407 C 0.32986 0.697 0.19196 0.0
C408 C 0.27124 0.76794 0.20121 0.0
N409 N 0.28594 0.74325 0.22318 0.0
O410 O 0.20972 0.7832 0.15165 0.0
H411 H 0.35764 0.6665 0.18172 0.0
H412 H 0.24273 0.80595 0.19954 0.0
O413 O 0.38269 0.7368 0.14439 0.0
C414 C 0.18064 0.82933 0.15861 0.0
O415 O 0.2099 0.8759 0.16655 0.0
N416 N 0.32446 0.84053 0.15438 0.0
C417 C 0.4079 0.93166 0.15211 0.0
C418 C 0.35904 0.93125 0.136 0.0
C419 C 0.31672 0.88621 0.13799 0.0
C420 C 0.36652 0.84672 0.17263 0.0
C421 C 0.4073 0.89278 0.17219 0.0
H422 H 0.28094 0.88628 0.12489 0.0
H423 H 0.37515 0.81257 0.18602 0.0
H424 H 0.36402 0.7345 0.09416 0.0
H425 H 0.21661 0.82048 0.06319 0.0
H426 H 0.34601 0.67018 0.23037 0.0
H427 H 0.35556 0.96249 0.12087 0.0
H428 H 0.44124 0.89446 0.18638 0.0
C429 C 0.37983 0.30498 0.60899 0.0
C430 C 0.37907 0.31121 0.58379 0.0
N431 N 0.32314 0.32349 0.57681 0.0
N432 N 0.32496 0.31369 0.6183 0.0
C433 C 0.2908 0.32422 0.59792 0.0
H434 H 0.41859 0.29559 0.62017 0.0
Co435 Co 0.32563 0.30827 0.65307 0.0
C436 C 0.33332 0.43842 0.64263 0.0
O437 O 0.293 0.4282 0.62563 0.0
N438 N 0.33411 0.29883 0.68754 0.0
C439 C 0.38111 0.28874 0.72364 0.0
C440 C 0.38779 0.29958 0.69866 0.0
C441 C 0.29555 0.28659 0.70611 0.0
N442 N 0.3229 0.28118 0.72821 0.0
O443 O 0.30043 0.22335 0.65026 0.0
H444 H 0.42927 0.3076 0.68911 0.0
H445 H 0.24804 0.28295 0.70377 0.0
O446 O 0.35376 0.39429 0.65529 0.0
C447 C 0.25694 0.19131 0.65787 0.0
O448 O 0.21418 0.21591 0.67081 0.0
N449 N 0.24617 0.33721 0.65707 0.0
C450 C 0.14407 0.40636 0.65839 0.0
C451 C 0.14728 0.35729 0.64249 0.0
C452 C 0.19891 0.32241 0.64242 0.0
C453 C 0.23981 0.38117 0.67442 0.0
C454 C 0.18944 0.41587 0.6754 0.0
H455 H 0.20207 0.28554 0.62971 0.0
H456 H 0.27582 0.39335 0.68661 0.0
H457 H 0.24433 0.33593 0.59829 0.0
H458 H 0.41689 0.30755 0.57148 0.0
H459 H 0.41595 0.28801 0.73747 0.0
H460 H 0.11194 0.34798 0.62944 0.0
H461 H 0.18761 0.45238 0.68844 0.0
C462 C 0.71089 0.33435 0.1129 0.0
C463 C 0.70777 0.33675 0.08764 0.0
N464 N 0.67237 0.29264 0.07977 0.0
N465 N 0.67849 0.2885 0.12138 0.0
C466 C 0.65472 0.26393 0.10061 0.0
H467 H 0.73614 0.364 0.12462 0.0
Co468 Co 0.67818 0.2834 0.15601 0.0
C469 C 0.54726 0.33124 0.15654 0.0
O470 O 0.55708 0.3885 0.15773 0.0
N471 N 0.6803 0.28781 0.19079 0.0
C472 C 0.68026 0.33813 0.22621 0.0
C473 C 0.66895 0.34078 0.20126 0.0
C474 C 0.69862 0.25337 0.20992 0.0
N475 N 0.69936 0.28319 0.2317 0.0
O476 O 0.7655 0.26803 0.15535 0.0
H477 H 0.6555 0.37977 0.19109 0.0
H478 H 0.71023 0.20726 0.20812 0.0
O479 O 0.59135 0.29558 0.15596 0.0
C480 C 0.79806 0.22487 0.16294 0.0
O481 O 0.77338 0.17961 0.17412 0.0
N482 N 0.66017 0.20124 0.15606 0.0
C483 C 0.60181 0.09444 0.14971 0.0
C484 C 0.64903 0.10929 0.13406 0.0
C485 C 0.67886 0.16299 0.13796 0.0
C486 C 0.61816 0.18337 0.17277 0.0
C487 C 0.58933 0.12982 0.17015 0.0
H488 H 0.71361 0.17592 0.12524 0.0
H489 H 0.60155 0.21291 0.18688 0.0
H490 H 0.62542 0.22594 0.10062 0.0
H491 H 0.73191 0.36715 0.07585 0.0
H492 H 0.67694 0.37464 0.23916 0.0
H493 H 0.66004 0.0819 0.11823 0.0
H494 H 0.55312 0.11904 0.18261 0.0
C495 C 0.84519 0.75558 0.60497 0.0
C496 C 0.83928 0.7557 0.57979 0.0
N497 N 0.80191 0.71201 0.57336 0.0
N498 N 0.81378 0.71033 0.61496 0.0
C499 C 0.78622 0.68586 0.59501 0.0
H500 H 0.86928 0.78889 0.61515 0.0
Co501 Co 0.79334 0.70044 0.6491 0.0
C502 C 0.80349 0.57476 0.63208 0.0
O503 O 0.85037 0.59138 0.61939 0.0
N504 N 0.76645 0.69537 0.68201 0.0
C505 C 0.71293 0.67231 0.71537 0.0
C506 C 0.71946 0.66374 0.6902 0.0
C507 C 0.78677 0.7239 0.70238 0.0
N508 N 0.75509 0.71054 0.72282 0.0
O509 O 0.81217 0.78531 0.65501 0.0
H510 H 0.69142 0.63651 0.67859 0.0
H511 H 0.82488 0.75296 0.70249 0.0
O512 O 0.77281 0.61434 0.6436 0.0
C513 C 0.85573 0.81774 0.66221 0.0
O514 O 0.90659 0.79337 0.6683 0.0
N515 N 0.87196 0.67207 0.65858 0.0
C516 C 0.96729 0.59262 0.66149 0.0
C517 C 0.96952 0.64124 0.64542 0.0
C518 C 0.92209 0.68116 0.64468 0.0
C519 C 0.87354 0.62893 0.67654 0.0
C520 C 0.92109 0.59007 0.67864 0.0
H521 H 0.92517 0.71643 0.63158 0.0
H522 H 0.83556 0.61841 0.68777 0.0
H523 H 0.75363 0.65091 0.59649 0.0
H524 H 0.85809 0.78814 0.56728 0.0
H525 H 0.6792 0.65304 0.72717 0.0
H526 H 1.00564 0.64654 0.63235 0.0
H527 H 0.91928 0.55563 0.69256 0.0
C528 C 0.21321 0.32544 0.25527 0.0
C529 C 0.20272 0.26424 0.25278 0.0
C530 C 0.22986 0.35002 0.27812 0.0
C531 C 0.23579 0.3144 0.2993 0.0
H532 H 0.20767 0.35464 0.23955 0.0
H533 H 0.23751 0.39729 0.27938 0.0
S534 S 0.22024 0.1513 0.30236 0.0
N535 N 0.20515 0.16806 0.27327 0.0
N536 N 0.23422 0.21498 0.31622 0.0
C537 C 0.22648 0.25326 0.29707 0.0
C538 C 0.21051 0.228 0.2738 0.0
C539 C 0.76002 0.21513 0.79596 0.0
C540 C 0.75338 0.27496 0.80289 0.0
C541 C 0.77783 0.19915 0.77199 0.0
C542 C 0.78887 0.24208 0.75374 0.0
H543 H 0.75177 0.18013 0.80919 0.0
H544 H 0.78402 0.15267 0.7677 0.0
S545 S 0.7786 0.40452 0.76167 0.0
N546 N 0.76013 0.37756 0.78906 0.0
N547 N 0.79184 0.34657 0.74379 0.0
C548 C 0.78088 0.30183 0.75995 0.0
C549 C 0.76353 0.31848 0.78455 0.0
C550 C 0.79079 0.7637 0.2913 0.0
C551 C 0.7353 0.73671 0.29562 0.0
C552 C 0.81361 0.76991 0.26717 0.0
C553 C 0.78159 0.75015 0.24633 0.0
H554 H 0.81677 0.7804 0.30667 0.0
H555 H 0.85677 0.79029 0.26474 0.0
S556 S 0.63688 0.67211 0.24723 0.0
N557 N 0.65094 0.68637 0.27665 0.0
N558 N 0.69319 0.70017 0.23157 0.0
C559 C 0.72626 0.72321 0.25028 0.0
C560 C 0.70331 0.71595 0.27482 0.0
C561 C 0.32541 0.81191 0.78909 0.0
C562 C 0.2875 0.76474 0.7949 0.0
C563 C 0.32804 0.83469 0.76501 0.0
C564 C 0.29207 0.81187 0.74578 0.0
H565 H 0.35536 0.82931 0.80303 0.0
H566 H 0.3604 0.86897 0.76138 0.0
S567 S 0.17927 0.69278 0.753 0.0
N568 N 0.21045 0.69819 0.7806 0.0
N569 N 0.21236 0.74287 0.7355 0.0
C570 C 0.25155 0.76644 0.75189 0.0
C571 C 0.25 0.74248 0.77639 0.0
C572 C 0.78311 0.71578 0.79144 0.0
C573 C 0.78971 0.77696 0.79606 0.0
C574 C 0.77027 0.69432 0.76758 0.0
C575 C 0.76444 0.73314 0.74743 0.0
H576 H 0.78971 0.68403 0.80619 0.0
H577 H 0.76679 0.64699 0.76467 0.0
S578 S 0.76904 0.89691 0.74963 0.0
N579 N 0.78214 0.87615 0.77845 0.0
N580 N 0.76089 0.83509 0.73363 0.0
C581 C 0.76886 0.79417 0.75177 0.0
C582 C 0.78077 0.81627 0.77607 0.0
C583 C 0.23482 0.84554 0.2743 0.0
C584 C 0.23127 0.80799 0.29495 0.0
C585 C 0.25356 0.82425 0.25117 0.0
C586 C 0.26849 0.76412 0.24755 0.0
H587 H 0.22348 0.89196 0.27616 0.0
H588 H 0.25668 0.85553 0.23607 0.0
S589 S 0.26283 0.64692 0.29585 0.0
N590 N 0.24283 0.70794 0.31054 0.0
N591 N 0.2759 0.66695 0.26694 0.0
C592 C 0.26469 0.72598 0.2682 0.0
C593 C 0.24655 0.74811 0.29188 0.0
C594 C 0.31576 0.23193 0.76902 0.0
C595 C 0.29492 0.27421 0.75199 0.0
C596 C 0.28801 0.22443 0.79217 0.0
C597 C 0.23885 0.25935 0.79911 0.0
H598 H 0.35309 0.20393 0.7642 0.0
H599 H 0.30461 0.19063 0.80458 0.0
S600 S 0.17361 0.38229 0.76222 0.0
N601 N 0.22605 0.35459 0.74426 0.0
N602 N 0.17505 0.34231 0.7878 0.0
C603 C 0.21926 0.30334 0.78245 0.0
C604 C 0.24701 0.3103 0.75889 0.0
C605 C 0.71285 0.27155 0.30098 0.0
C606 C 0.76044 0.23184 0.30432 0.0
C607 C 0.69255 0.28677 0.2773 0.0
C608 C 0.71889 0.26317 0.25581 0.0
H609 H 0.69173 0.29221 0.31679 0.0
H610 H 0.65593 0.31765 0.27583 0.0
S611 S 0.84425 0.15623 0.25414 0.0
N612 N 0.83208 0.16741 0.28395 0.0
N613 N 0.79547 0.19791 0.2394 0.0
C614 C 0.76617 0.22288 0.25878 0.0
C615 C 0.78669 0.20699 0.283 0.0
C616 C 0.20346 0.27156 0.04308 0.0
C617 C 0.19088 0.21458 0.05199 0.0
C618 C 0.21145 0.28195 1.01775 0.0
C619 C 0.20796 0.23573 1.00018 0.0
H620 H 0.20976 0.30807 0.05581 0.0
H621 H 0.22204 0.32661 1.012 0.0
S622 S 0.16649 0.08009 1.01341 0.0
N623 N 0.16648 0.11276 0.04079 0.0
N624 N 0.18518 0.1319 0.99331 0.0
C625 C 0.19167 0.17925 1.00861 0.0
C626 C 0.18249 0.16875 0.03446 0.0
C627 C 0.84488 0.20885 0.50961 0.0
C628 C 0.78373 0.20324 0.50496 0.0
C629 C 0.86721 0.20645 0.53395 0.0
C630 C 0.82916 0.19828 0.55445 0.0
H631 H 0.87517 0.21744 0.49445 0.0
H632 H 0.91443 0.21251 0.53681 0.0
S633 S 0.66631 0.17291 0.55136 0.0
N634 N 0.68623 0.18429 0.5223 0.0
N635 N 0.72792 0.17806 0.56783 0.0
C636 C 0.7682 0.18997 0.54976 0.0
C637 C 0.74561 0.19284 0.52508 0.0
C638 C 0.77891 0.85767 1.00689 0.0
C639 C 0.82858 0.83028 0.99606 0.0
C640 C 0.77179 0.85901 0.03274 0.0
C641 C 0.81431 0.83341 0.04856 0.0
H642 H 0.74218 0.87143 0.99528 0.0
H643 H 0.72984 0.87407 0.0403 0.0
S644 S 0.95606 0.76429 0.02936 0.0
N645 N 0.9239 0.78346 1.00304 0.0
N646 N 0.91095 0.7867 0.05165 0.0
C647 C 0.86728 0.81244 0.03804 0.0
C648 C 0.87428 0.81066 1.01173 0.0
C649 C 0.28067 0.82035 0.50139 0.0
C650 C 0.22153 0.83628 0.49633 0.0
C651 C 0.29983 0.80959 0.52567 0.0
C652 C 0.26077 0.81421 0.54601 0.0
H653 H 0.31194 0.81382 0.4864 0.0
H654 H 0.34563 0.79658 0.52846 0.0
S655 S 0.10287 0.86071 0.54309 0.0
N656 N 0.1253 0.86167 0.51396 0.0
N657 N 0.16097 0.83951 0.55953 0.0
C658 C 0.20221 0.83277 0.54138 0.0
C659 C 0.18266 0.84405 0.51658 0.0
C660 C 0.67652 0.21684 0.04684 0.0
C661 C 0.66562 0.27555 0.05415 0.0
C662 C 0.68596 0.20249 1.0218 0.0
C663 C 0.6845 0.24617 1.00311 0.0
H664 H 0.68206 0.18265 0.06071 0.0
H665 H 0.69724 0.15721 1.01713 0.0
S666 S 0.64895 0.40503 1.01247 0.0
N667 N 0.6467 0.37631 0.04058 0.0
N668 N 0.6653 0.34963 0.99367 0.0
C669 C 0.66888 0.30414 1.01003 0.0
C670 C 0.65933 0.31871 0.03551 0.0
C671 C 0.81758 0.71378 0.52817 0.0
C672 C 0.78014 0.70204 0.54851 0.0
C673 C 0.79614 0.71312 0.50382 0.0
C674 C 0.73626 0.70045 0.49867 0.0
H675 H 0.86375 0.72514 0.53116 0.0
H676 H 0.82632 0.72494 0.48902 0.0
S677 S 0.62099 0.65984 0.5449 0.0
N678 N 0.6808 0.67362 0.56164 0.0
N679 N 0.64109 0.6697 0.51578 0.0
C680 C 0.69896 0.68531 0.51868 0.0
C681 C 0.72077 0.68651 0.54359 0.0
C682 C 0.34793 0.71703 0.0386 0.0
C683 C 0.32392 0.77151 0.0461 0.0
C684 C 0.35781 0.70484 1.01341 0.0
C685 C 0.34393 0.74661 0.99482 0.0
H686 H 0.35544 0.68232 0.05206 0.0
H687 H 0.37374 0.66124 1.00835 0.0
S688 S 0.28975 0.8998 1.00559 0.0
N689 N 0.29508 0.87078 0.03356 0.0
N690 N 0.31115 0.84724 0.98628 0.0
C691 C 0.32462 0.80304 1.00238 0.0
C692 C 0.31512 0.81554 0.028 0.0
C693 C 0.34173 0.37254 0.53702 0.0
C694 C 0.30495 0.3369 0.55185 0.0
C695 C 0.333 0.37651 0.51143 0.0
C696 C 0.28708 0.34514 0.49967 0.0
H697 H 0.3795 0.39508 0.54513 0.0
H698 H 0.36459 0.40141 0.50046 0.0
S699 S 0.17512 0.25012 0.53031 0.0
N700 N 0.21792 0.27336 0.55324 0.0
N701 N 0.20163 0.28092 0.50482 0.0
C702 C 0.24724 0.31286 0.51442 0.0
C703 C 0.25613 0.30876 0.54064 0.0
C704 C 0.01913 0.47064 0.12226 0.0
C705 C 0.04949 0.46432 0.14486 0.0
C706 C 0.97204 0.51106 0.11989 0.0
C707 C 0.95356 0.54584 0.14014 0.0
H708 H 0.03002 0.44228 0.10671 0.0
H709 H 0.949 0.51413 0.10232 0.0
S710 S 0.02377 0.55078 0.20226 0.0
N711 N 0.06137 0.49942 0.1871 0.0
N712 N 0.97323 0.57557 0.18266 0.0
C713 C 0.98541 0.54168 0.16246 0.0
C714 C 0.03334 0.50091 0.1648 0.0
C715 C 0.55797 0.98105 0.62028 0.0
C716 C 0.53127 0.95836 0.64181 0.0
C717 C 0.59425 0.03098 0.6211 0.0
C718 C 0.60822 0.05901 0.64367 0.0
H719 H 0.55088 0.9601 0.60247 0.0
H720 H 0.61306 0.04667 0.60384 0.0
S721 S 0.548 0.01901 0.70545 0.0
N722 N 0.5173 0.97097 0.68626 0.0
N723 N 0.59115 0.06127 0.68818 0.0
C724 C 0.58131 0.03753 0.6654 0.0
C725 C 0.54221 0.98768 0.66443 0.0
C726 C 0.51891 0.94388 0.89462 0.0
C727 C 0.45992 0.96312 0.89153 0.0
C728 C 0.56636 0.98366 0.89361 0.0
C729 C 0.55659 0.04439 0.88964 0.0
H730 H 0.52852 0.89723 0.89712 0.0
H731 H 0.61106 0.96631 0.89524 0.0
S732 S 0.40914 0.11699 0.88208 0.0
N733 N 0.39345 0.04598 0.88519 0.0
N734 N 0.48217 0.12223 0.88433 0.0
C735 C 0.49719 0.06445 0.88754 0.0
C736 C 0.44893 0.02349 0.88834 0.0
C737 C 0.04814 0.55064 0.41138 0.0
C738 C 0.03441 0.48962 0.41168 0.0
C739 C 1.00338 0.59364 0.41 0.0
C740 C 0.94345 0.57695 0.40891 0.0
H741 H 0.09404 0.56507 0.41075 0.0
H742 H 0.01591 0.63976 0.40818 0.0
S743 S 0.88382 0.42395 0.41362 0.0
N744 N 0.95669 0.41533 0.4138 0.0
N745 N 0.87219 0.49608 0.41198 0.0
C746 C 0.92902 0.51646 0.41156 0.0
C747 C 0.97462 0.47274 0.41283 0.0
C748 C 1.00809 0.54168 0.87513 0.0
C749 C 0.98325 0.56462 0.89705 0.0
C750 C 0.0544 0.50006 0.87595 0.0
C751 C 0.07856 0.48145 0.89872 0.0
H752 H 0.99216 0.55634 0.85722 0.0
H753 H 0.07035 0.48141 0.8587 0.0
S754 S 0.03047 0.52948 0.96142 0.0
N755 N 0.98383 0.56204 0.94224 0.0
N756 N 0.0775 0.49325 0.94357 0.0
C757 C 0.05569 0.50614 0.92068 0.0
C758 C 1.00615 0.5449 0.91992 0.0
C759 C 0.47673 0.0779 0.39979 0.0
C760 C 0.53645 0.06026 0.40058 0.0
C761 C 0.43126 0.03594 0.39974 0.0
C762 C 0.44383 0.9748 0.40016 0.0
H763 H 0.465 0.12427 0.39816 0.0
H764 H 0.38578 0.05148 0.39848 0.0
S765 S 0.59249 0.90585 0.40578 0.0
N766 N 0.6057 0.9778 0.40506 0.0
N767 N 0.51964 0.89872 0.40363 0.0
C768 C 0.50303 0.95652 0.40246 0.0
C769 C 0.54952 0.99934 0.40288 0.0
C770 C 0.45273 0.02798 0.13882 0.0
C771 C 0.46051 0.96978 0.14744 0.0
C772 C 0.50105 0.06642 0.13674 0.0
C773 C 0.55847 0.04838 0.14358 0.0
H774 H 0.40879 0.04519 0.13495 0.0
H775 H 0.49294 0.11195 0.13144 0.0
S776 S 0.60498 0.89906 0.16351 0.0
N777 N 0.53253 0.89359 0.15916 0.0
N778 N 0.62229 0.96827 0.15684 0.0
C779 C 0.56796 0.98964 0.15046 0.0
C780 C 0.51911 0.94977 0.15208 0.0
C781 C 0.11334 0.51116 0.65374 0.0
C782 C 0.09701 0.45139 0.65656 0.0
C783 C 0.07118 0.55637 0.65527 0.0
C784 C 1.01098 0.54351 0.65955 0.0
H785 H 0.15951 0.52313 0.65095 0.0
H786 H 0.08626 0.60176 0.65372 0.0
S787 S 0.94578 0.39305 0.66722 0.0
N788 N 0.01751 0.38104 0.66336 0.0
N789 N 0.93693 0.46554 0.66533 0.0
C790 C 0.99389 0.4834 0.66162 0.0
C791 C 0.0372 0.43743 0.66023 0.0
C792 C 0.47566 0.24566 0.15225 0.0
C793 C 0.4849 0.30671 0.15627 0.0
C794 C 0.41855 0.22029 0.15269 0.0
C795 C 0.36716 0.25465 0.15672 0.0
H796 H 0.51291 0.21682 0.14853 0.0
H797 H 0.41474 0.17306 0.14963 0.0
S798 S 0.36525 0.41717 0.16761 0.0
N799 N 0.43645 0.40126 0.16421 0.0
N800 N 0.32933 0.35383 0.16447 0.0
C801 C 0.37527 0.31603 0.16035 0.0
C802 C 0.43381 0.34191 0.1602 0.0
C803 C 0.82831 0.40753 0.62798 0.0
C804 C 0.78238 0.38347 0.64233 0.0
C805 C 0.83331 0.46898 0.62439 0.0
C806 C 0.79288 0.50951 0.63518 0.0
H807 H 0.86041 0.37853 0.61919 0.0
H808 H 0.87008 0.48465 0.61325 0.0
S809 S 0.66357 0.46817 0.67423 0.0
N810 N 0.69454 0.40408 0.66696 0.0
N811 N 0.7045 0.51967 0.66077 0.0
C812 C 0.74628 0.48569 0.64947 0.0
C813 C 0.74083 0.42278 0.65285 0.0
C814 C 0.50704 0.71004 0.15843 0.0
C815 C 0.49053 0.74753 0.13875 0.0
C816 C 0.56741 0.70048 0.16459 0.0
C817 C 0.61427 0.72818 0.15147 0.0
H818 H 0.47312 0.68922 0.16967 0.0
H819 H 0.57725 0.67194 0.18016 0.0
S820 S 0.59529 0.82864 0.09752 0.0
N821 N 0.52691 0.81013 0.1053 0.0
N822 N 0.63872 0.79391 0.11736 0.0
C823 C 0.59818 0.76472 0.13142 0.0
C824 C 0.53698 0.77387 0.12496 0.0
C825 C 0.3255 0.54652 0.6322 0.0
C826 C 0.34526 0.5023 0.64882 0.0
C827 C 0.32784 0.60716 0.63806 0.0
C828 C 0.35055 0.62739 0.66082 0.0
H829 H 0.30659 0.53427 0.61447 0.0
H830 H 0.31075 0.63833 0.62461 0.0
S831 S 0.40963 0.53052 0.71095 0.0
N832 N 0.38927 0.48353 0.68908 0.0
N833 N 0.39473 0.59729 0.70011 0.0
C834 C 0.37194 0.58379 0.67749 0.0
C835 C 0.3692 0.52159 0.6715 0.0
C836 C 1.00114 0.22959 0.90326 0.0
C837 C 0.0328 0.17674 0.89832 0.0
C838 C 0.93843 0.23244 0.90151 0.0
C839 C 0.90425 0.18267 0.89464 0.0
H840 H 0.025 0.2697 0.90794 0.0
H841 H 0.91676 0.27444 0.90506 0.0
S842 S 0.96441 0.03193 0.88208 0.0
N843 N 0.02387 0.07235 0.88791 0.0
N844 N 0.90742 0.07753 0.8846 0.0
C845 C 0.93528 0.12911 0.89045 0.0
C846 C 0.99893 0.1262 0.89229 0.0
C847 C 0.79703 0.94186 0.38407 0.0
C848 C 0.77246 0.89665 0.39896 0.0
C849 C 0.79642 1.00183 0.39159 0.0
C850 C 0.77149 0.01925 0.41441 0.0
H851 H 0.81539 0.93116 0.36607 0.0
H852 H 0.81352 0.03494 0.37895 0.0
S853 S 0.70799 0.91751 0.46169 0.0
N854 N 0.72722 0.87342 0.43865 0.0
N855 N 0.72613 0.98504 0.45275 0.0
C856 C 0.74933 0.97404 0.42995 0.0
C857 C 0.74977 0.91321 0.42226 0.0
C858 C 0.06214 0.80015 0.87458 0.0
C859 C 0.01759 0.8106 0.89251 0.0
C860 C 0.12169 0.78992 0.88117 0.0
C861 C 0.14 0.78956 0.90608 0.0
H862 H 0.05052 0.79733 0.85514 0.0
H863 H 0.15322 0.7804 0.86653 0.0
S864 S 0.04243 0.82087 0.96029 0.0
N865 N 0.99723 0.82487 0.93627 0.0
N866 N 0.10878 0.80572 0.94884 0.0
C867 C 0.09658 0.80339 0.92421 0.0
C868 C 0.03568 0.81405 0.9174 0.0
C869 C 0.24116 0.14256 0.41076 0.0
C870 C 0.19939 0.16757 0.39453 0.0
C871 C 0.24336 0.08127 0.41492 0.0
C872 C 0.20437 0.04143 0.40286 0.0
H873 H 0.27201 0.17066 0.42074 0.0
H874 H 0.27661 0.0652 0.42777 0.0
S875 S 0.08895 0.08375 0.35712 0.0
N876 N 0.11919 0.14742 0.36544 0.0
N877 N 0.12409 0.03203 0.37304 0.0
C878 C 0.16308 0.06565 0.38613 0.0
C879 C 0.16037 0.12856 0.38206 0.0
C880 C 0.55002 0.67194 0.90801 0.0
C881 C 0.5184 0.71375 0.89392 0.0
C882 C 0.61265 0.66932 0.90728 0.0
C883 C 0.64623 0.70977 0.89307 0.0
H884 H 0.52639 0.64308 0.92064 0.0
H885 H 0.635 0.63733 0.91896 0.0
S886 S 0.58472 0.82425 0.85117 0.0
N887 N 0.52565 0.79293 0.86372 0.0
N888 N 0.64266 0.78976 0.86316 0.0
C889 C 0.61506 0.75022 0.87824 0.0
C890 C 0.55143 0.75182 0.87851 0.0
C891 C 0.2342 0.58235 0.4194 0.0
C892 C 0.27097 0.54118 0.40693 0.0
C893 C 0.23295 0.64251 0.41289 0.0
C894 C 0.26899 0.66469 0.3938 0.0
H895 H 0.20527 0.56812 0.43428 0.0
H896 H 0.2042 0.67203 0.42324 0.0
S897 S 0.37182 0.57616 0.35457 0.0
N898 N 0.34319 0.52738 0.37396 0.0
N899 N 0.3415 0.64046 0.36189 0.0
C900 C 0.30582 0.62425 0.38103 0.0
C901 C 0.30665 0.56266 0.38753 0.0
C902 C 0.51306 0.30365 0.88747 0.0
C903 C 0.527 0.26743 0.90789 0.0
C904 C 0.45363 0.31267 0.87989 0.0
C905 C 0.40526 0.2858 0.89229 0.0
H906 H 0.54837 0.3237 0.87673 0.0
H907 H 0.4458 0.34017 0.8638 0.0
S908 S 0.41743 0.18934 0.94784 0.0
N909 N 0.48674 0.20707 0.94124 0.0
N910 N 0.37644 0.22275 0.92674 0.0
C911 C 0.41871 0.2508 0.91316 0.0
C912 C 0.47901 0.24196 0.92097 0.0
C913 C 0.72241 0.41529 0.41581 0.0
C914 C 0.69746 0.39234 0.394 0.0
C915 C 0.72355 0.47631 0.42051 0.0
C916 C 0.70083 0.51803 0.40345 0.0
H917 H 0.7415 0.38588 0.42951 0.0
H918 H 0.74393 0.49077 0.43766 0.0
S919 S 0.63007 0.48122 0.34332 0.0
N920 N 0.64794 0.41613 0.35517 0.0
N921 N 0.65168 0.53129 0.36378 0.0
C922 C 0.67474 0.49581 0.38165 0.0
C923 C 0.67278 0.43305 0.37699 0.0
C924 C 0.01859 0.7847 0.14602 0.0
C925 C 0.98574 0.83542 0.15294 0.0
C926 C 0.08115 0.78293 0.14792 0.0
C927 C 0.11395 0.83181 0.15677 0.0
H928 H 0.9958 0.74542 0.13949 0.0
H929 H 0.10387 0.74265 0.1425 0.0
S930 S 0.04971 0.97672 0.17611 0.0
N931 N 0.99148 0.9366 0.16816 0.0
N932 N 0.10793 0.93354 0.17173 0.0
C933 C 0.08158 0.88319 0.16334 0.0
C934 C 0.01799 0.88491 0.16143 0.0
C935 C 0.20206 0.09389 0.65899 0.0
C936 C 0.25401 0.12575 0.65287 0.0
C937 C 0.19839 0.03198 0.65619 0.0
C938 C 0.24641 0.99828 0.64707 0.0
H939 H 0.16372 0.11679 0.66644 0.0
H940 H 0.15759 1.01028 0.66173 0.0
S941 S 0.39252 0.0598 0.6276 0.0
N942 N 0.3544 0.11847 0.6366 0.0
N943 N 0.34761 1.00266 0.6313 0.0
C944 C 0.2982 0.02972 0.64022 0.0
C945 C 0.30196 0.09305 0.64311 0.0
C946 C 0.88687 0.25827 0.13845 0.0
C947 C 0.86307 0.22264 0.1573 0.0
C948 C 0.94712 0.25474 0.13187 0.0
C949 C 0.98695 0.21586 0.14398 0.0
H950 H 0.8586 0.28876 0.12839 0.0
H951 H 0.96255 0.28375 0.11726 0.0
S952 S 0.94758 0.11363 0.19514 0.0
N953 N 0.88447 0.1472 0.18831 0.0
N954 N 0.99768 0.14131 0.17605 0.0
C955 C 0.96389 0.18017 0.16301 0.0
C956 C 0.90216 0.18337 0.16961 0.0
C957 C 0.89348 0.98323 0.66264 0.0
C958 C 0.83863 1.00998 0.66821 0.0
C959 C 0.89876 0.92105 0.66078 0.0
C960 C 0.84912 0.8834 0.66374 0.0
H961 H 0.93279 1.01034 0.66035 0.0
H962 H 0.94209 0.90235 0.65686 0.0
S963 S 0.69492 0.93121 0.67735 0.0
N964 N 0.7332 0.99346 0.67603 0.0
N965 N 0.74328 0.87784 0.67193 0.0
C966 C 0.79389 0.90977 0.66865 0.0
C967 C 0.78863 0.97263 0.67103 0.0
loop_
_geom_bond_atom_site_label_1
_geom_bond_atom_site_label_2
_geom_bond_distance
_geom_bond_site_symmetry_2
_ccdc_geom_bond_type
C0 C1 1.351 . S
C0 N3 1.368 . S
C0 H5 0.931 . S
C1 C0 1.351 . S
C1 N2 1.373 . S
C1 H29 0.930 . S
N2 C1 1.373 . S
N2 C4 1.340 . S
N3 C0 1.368 . S
N3 C4 1.321 . S
N3 Co6 2.135 . S
C4 N2 1.340 . S
C4 N3 1.321 . S
C4 H28 0.930 . S
H5 C0 0.931 . S
Co6 N3 2.135 . S
Co6 N9 2.121 . S
Co6 O14 2.055 . S
Co6 O17 2.039 . S
Co6 N20 2.140 . S
C7 O8 1.227 . S
C7 O17 1.265 1_655 S
O8 C7 1.227 . S
N9 Co6 2.121 . S
N9 C11 1.375 . S
N9 C12 1.313 . S
C10 C11 1.338 . S
C10 N13 1.377 . S
C10 H30 0.930 . S
C11 N9 1.375 . S
C11 C10 1.338 . S
C11 H15 0.931 . S
C12 N9 1.313 . S
C12 N13 1.344 . S
C12 H16 0.930 . S
N13 C10 1.377 . S
N13 C12 1.344 . S
O14 Co6 2.055 . S
O14 C18 1.253 . S
H15 C11 0.931 . S
H16 C12 0.930 . S
O17 Co6 2.039 . S
O17 C7 1.265 1_455 S
C18 O14 1.253 . S
C18 O19 1.227 . S
O19 C18 1.227 . S
N20 Co6 2.140 . S
N20 C23 1.346 . S
N20 C24 1.345 . S
C21 C22 1.387 . S
C21 C25 1.391 . S
C22 C21 1.387 . S
C22 C23 1.369 . S
C22 H31 0.929 . S
C23 N20 1.346 . S
C23 C22 1.369 . S
C23 H26 0.928 . S
C24 N20 1.345 . S
C24 C25 1.371 . S
C24 H27 0.931 . S
C25 C21 1.391 . S
C25 C24 1.371 . S
C25 H32 0.930 . S
H26 C23 0.928 . S
H27 C24 0.931 . S
H28 C4 0.930 . S
H29 C1 0.930 . S
H30 C10 0.930 . S
H31 C22 0.929 . S
H32 C25 0.930 . S
C33 C34 1.351 . S
C33 N36 1.368 . S
C33 H38 0.931 . S
C34 C33 1.351 . S
C34 N35 1.373 . S
C34 H62 0.930 . S
N35 C34 1.373 . S
N35 C37 1.340 . S
N36 C33 1.368 . S
N36 C37 1.321 . S
N36 Co39 2.135 . S
C37 N35 1.340 . S
C37 N36 1.321 . S
C37 H61 0.930 . S
H38 C33 0.931 . S
Co39 N36 2.135 . S
Co39 N42 2.121 . S
Co39 O47 2.055 . S
Co39 O50 2.039 . S
Co39 N53 2.140 . S
C40 O41 1.227 . S
C40 O50 1.265 1_565 S
O41 C40 1.227 . S
N42 Co39 2.121 . S
N42 C44 1.375 . S
N42 C45 1.313 . S
C43 C44 1.338 . S
C43 N46 1.377 . S
C43 H63 0.930 . S
C44 N42 1.375 . S
C44 C43 1.338 . S
C44 H48 0.931 . S
C45 N42 1.313 . S
C45 N46 1.344 . S
C45 H49 0.930 . S
N46 C43 1.377 . S
N46 C45 1.344 . S
O47 Co39 2.055 . S
O47 C51 1.253 . S
H48 C44 0.931 . S
H49 C45 0.930 . S
O50 Co39 2.039 . S
O50 C40 1.265 1_545 S
C51 O47 1.253 . S
C51 O52 1.227 . S
O52 C51 1.227 . S
N53 Co39 2.140 . S
N53 C56 1.346 . S
N53 C57 1.345 . S
C54 C55 1.387 . S
C54 C58 1.391 . S
C55 C54 1.387 . S
C55 C56 1.369 . S
C55 H64 0.929 . S
C56 N53 1.346 . S
C56 C55 1.369 . S
C56 H59 0.928 . S
C57 N53 1.345 . S
C57 C58 1.371 . S
C57 H60 0.931 . S
C58 C54 1.391 . S
C58 C57 1.371 . S
C58 H65 0.930 . S
H59 C56 0.928 . S
H60 C57 0.931 . S
H61 C37 0.930 . S
H62 C34 0.930 . S
H63 C43 0.930 . S
H64 C55 0.929 . S
H65 C58 0.930 . S
C66 C67 1.351 . S
C66 N69 1.368 . S
C66 H71 0.931 . S
C67 C66 1.351 . S
C67 N68 1.373 . S
C67 H95 0.930 . S
N68 C67 1.373 . S
N68 C70 1.340 . S
N69 C66 1.368 . S
N69 C70 1.321 . S
N69 Co72 2.135 . S
C70 N68 1.340 . S
C70 N69 1.321 . S
C70 H94 0.930 . S
H71 C66 0.931 . S
Co72 N69 2.135 . S
Co72 N75 2.121 . S
Co72 O80 2.055 . S
Co72 O83 2.039 . S
Co72 N86 2.140 . S
C73 O74 1.227 . S
C73 O83 1.265 1_455 S
O74 C73 1.227 . S
N75 Co72 2.121 . S
N75 C77 1.375 . S
N75 C78 1.313 . S
C76 C77 1.338 . S
C76 N79 1.377 . S
C76 H96 0.930 . S
C77 N75 1.375 . S
C77 C76 1.338 . S
C77 H81 0.931 . S
C78 N75 1.313 . S
C78 N79 1.344 . S
C78 H82 0.930 . S
N79 C76 1.377 . S
N79 C78 1.344 . S
O80 Co72 2.055 . S
O80 C84 1.253 . S
H81 C77 0.931 . S
H82 C78 0.930 . S
O83 Co72 2.039 . S
O83 C73 1.265 1_655 S
C84 O80 1.253 . S
C84 O85 1.227 . S
O85 C84 1.227 . S
N86 Co72 2.140 . S
N86 C89 1.346 . S
N86 C90 1.345 . S
C87 C88 1.387 . S
C87 C91 1.391 . S
C88 C87 1.387 . S
C88 C89 1.369 . S
C88 H97 0.929 . S
C89 N86 1.346 . S
C89 C88 1.369 . S
C89 H92 0.928 . S
C90 N86 1.345 . S
C90 C91 1.371 . S
C90 H93 0.931 . S
C91 C87 1.391 . S
C91 C90 1.371 . S
C91 H98 0.930 . S
H92 C89 0.928 . S
H93 C90 0.931 . S
H94 C70 0.930 . S
H95 C67 0.930 . S
H96 C76 0.930 . S
H97 C88 0.929 . S
H98 C91 0.930 . S
C99 C100 1.351 . S
C99 N102 1.368 . S
C99 H104 0.931 . S
C100 C99 1.351 . S
C100 N101 1.373 . S
C100 H128 0.930 . S
N101 C100 1.373 . S
N101 C103 1.340 . S
N102 C99 1.368 . S
N102 C103 1.321 . S
N102 Co105 2.135 . S
C103 N101 1.340 . S
C103 N102 1.321 . S
C103 H127 0.930 . S
H104 C99 0.931 . S
Co105 N102 2.135 . S
Co105 N108 2.121 . S
Co105 O113 2.055 . S
Co105 O116 2.039 . S
Co105 N119 2.140 . S
C106 O107 1.227 . S
C106 O116 1.265 1_545 S
O107 C106 1.227 . S
N108 Co105 2.121 . S
N108 C110 1.375 . S
N108 C111 1.313 . S
C109 C110 1.338 . S
C109 N112 1.377 . S
C109 H129 0.930 . S
C110 N108 1.375 . S
C110 C109 1.338 . S
C110 H114 0.931 . S
C111 N108 1.313 . S
C111 N112 1.344 . S
C111 H115 0.930 . S
N112 C109 1.377 . S
N112 C111 1.344 . S
O113 Co105 2.055 . S
O113 C117 1.253 . S
H114 C110 0.931 . S
H115 C111 0.930 . S
O116 Co105 2.039 . S
O116 C106 1.265 1_565 S
C117 O113 1.253 . S
C117 O118 1.227 . S
O118 C117 1.227 . S
N119 Co105 2.140 . S
N119 C122 1.346 . S
N119 C123 1.345 . S
C120 C121 1.387 . S
C120 C124 1.391 . S
C121 C120 1.387 . S
C121 C122 1.369 . S
C121 H130 0.929 . S
C122 N119 1.346 . S
C122 C121 1.369 . S
C122 H125 0.928 . S
C123 N119 1.345 . S
C123 C124 1.371 . S
C123 H126 0.931 . S
C124 C120 1.391 . S
C124 C123 1.371 . S
C124 H131 0.930 . S
H125 C122 0.928 . S
H126 C123 0.931 . S
H127 C103 0.930 . S
H128 C100 0.930 . S
H129 C109 0.930 . S
H130 C121 0.929 . S
H131 C124 0.930 . S
C132 C133 1.351 . S
C132 N135 1.368 . S
C132 H137 0.931 . S
C133 C132 1.351 . S
C133 N134 1.373 . S
C133 H161 0.930 . S
N134 C133 1.373 . S
N134 C136 1.340 . S
N135 C132 1.368 . S
N135 C136 1.321 . S
N135 Co138 2.135 . S
C136 N134 1.340 . S
C136 N135 1.321 . S
C136 H160 0.930 . S
H137 C132 0.931 . S
Co138 N135 2.135 . S
Co138 N141 2.121 . S
Co138 O146 2.055 . S
Co138 O149 2.039 . S
Co138 N152 2.140 . S
C139 O140 1.227 . S
C139 O149 1.265 . S
O140 C139 1.227 . S
N141 Co138 2.121 . S
N141 C143 1.375 . S
N141 C144 1.313 . S
C142 C143 1.338 . S
C142 N145 1.377 . S
C142 H162 0.930 . S
C143 N141 1.375 . S
C143 C142 1.338 . S
C143 H147 0.931 . S
C144 N141 1.313 . S
C144 N145 1.344 . S
C144 H148 0.930 . S
N145 C142 1.377 . S
N145 C144 1.344 . S
O146 Co138 2.055 . S
O146 C150 1.253 . S
H147 C143 0.931 . S
H148 C144 0.930 . S
O149 Co138 2.039 . S
O149 C139 1.265 . S
C150 O146 1.253 . S
C150 O151 1.227 . S
O151 C150 1.227 . S
N152 Co138 2.140 . S
N152 C155 1.346 . S
N152 C156 1.345 . S
C153 C154 1.387 . S
C153 C157 1.391 . S
C154 C153 1.387 . S
C154 C155 1.369 . S
C154 H163 0.929 . S
C155 N152 1.346 . S
C155 C154 1.369 . S
C155 H158 0.928 . S
C156 N152 1.345 . S
C156 C157 1.371 . S
C156 H159 0.931 . S
C157 C153 1.391 . S
C157 C156 1.371 . S
C157 H164 0.930 . S
H158 C155 0.928 . S
H159 C156 0.931 . S
H160 C136 0.930 . S
H161 C133 0.930 . S
H162 C142 0.930 . S
H163 C154 0.929 . S
H164 C157 0.930 . S
C165 C166 1.351 . S
C165 N168 1.368 . S
C165 H170 0.931 . S
C166 C165 1.351 . S
C166 N167 1.373 . S
C166 H194 0.930 . S
N167 C166 1.373 . S
N167 C169 1.340 . S
N168 C165 1.368 . S
N168 C169 1.321 . S
N168 Co171 2.135 . S
C169 N167 1.340 . S
C169 N168 1.321 . S
C169 H193 0.930 . S
H170 C165 0.931 . S
Co171 N168 2.135 . S
Co171 N174 2.121 . S
Co171 O179 2.055 . S
Co171 O182 2.039 . S
Co171 N185 2.140 . S
C172 O173 1.227 . S
C172 O182 1.265 . S
O173 C172 1.227 . S
N174 Co171 2.121 . S
N174 C176 1.375 . S
N174 C177 1.313 . S
C175 C176 1.338 . S
C175 N178 1.377 . S
C175 H195 0.930 . S
C176 N174 1.375 . S
C176 C175 1.338 . S
C176 H180 0.931 . S
C177 N174 1.313 . S
C177 N178 1.344 . S
C177 H181 0.930 . S
N178 C175 1.377 . S
N178 C177 1.344 . S
O179 Co171 2.055 . S
O179 C183 1.253 . S
H180 C176 0.931 . S
H181 C177 0.930 . S
O182 Co171 2.039 . S
O182 C172 1.265 . S
C183 O179 1.253 . S
C183 O184 1.227 . S
O184 C183 1.227 . S
N185 Co171 2.140 . S
N185 C188 1.346 . S
N185 C189 1.345 . S
C186 C187 1.387 . S
C186 C190 1.391 . S
C187 C186 1.387 . S
C187 C188 1.369 . S
C187 H196 0.929 . S
C188 N185 1.346 . S
C188 C187 1.369 . S
C188 H191 0.928 . S
C189 N185 1.345 . S
C189 C190 1.371 . S
C189 H192 0.931 . S
C190 C186 1.391 . S
C190 C189 1.371 . S
C190 H197 0.930 . S
H191 C188 0.928 . S
H192 C189 0.931 . S
H193 C169 0.930 . S
H194 C166 0.930 . S
H195 C175 0.930 . S
H196 C187 0.929 . S
H197 C190 0.930 . S
C198 C199 1.351 . S
C198 N201 1.368 . S
C198 H203 0.931 . S
C199 C198 1.351 . S
C199 N200 1.373 . S
C199 H227 0.930 . S
N200 C199 1.373 . S
N200 C202 1.340 . S
N201 C198 1.368 . S
N201 C202 1.321 . S
N201 Co204 2.135 . S
C202 N200 1.340 . S
C202 N201 1.321 . S
C202 H226 0.930 . S
H203 C198 0.931 . S
Co204 N201 2.135 . S
Co204 N207 2.121 . S
Co204 O212 2.055 . S
Co204 O215 2.039 . S
Co204 N218 2.140 . S
C205 O206 1.227 . S
C205 O215 1.265 . S
O206 C205 1.227 . S
N207 Co204 2.121 . S
N207 C209 1.375 . S
N207 C210 1.313 . S
C208 C209 1.338 . S
C208 N211 1.377 . S
C208 H228 0.930 . S
C209 N207 1.375 . S
C209 C208 1.338 . S
C209 H213 0.931 . S
C210 N207 1.313 . S
C210 N211 1.344 . S
C210 H214 0.930 . S
N211 C208 1.377 . S
N211 C210 1.344 . S
O212 Co204 2.055 . S
O212 C216 1.253 . S
H213 C209 0.931 . S
H214 C210 0.930 . S
O215 Co204 2.039 . S
O215 C205 1.265 . S
C216 O212 1.253 . S
C216 O217 1.227 . S
O217 C216 1.227 . S
N218 Co204 2.140 . S
N218 C221 1.346 . S
N218 C222 1.345 . S
C219 C220 1.387 . S
C219 C223 1.391 . S
C220 C219 1.387 . S
C220 C221 1.369 . S
C220 H229 0.929 . S
C221 N218 1.346 . S
C221 C220 1.369 . S
C221 H224 0.928 . S
C222 N218 1.345 . S
C222 C223 1.371 . S
C222 H225 0.931 . S
C223 C219 1.391 . S
C223 C222 1.371 . S
C223 H230 0.930 . S
H224 C221 0.928 . S
H225 C222 0.931 . S
H226 C202 0.930 . S
H227 C199 0.930 . S
H228 C208 0.930 . S
H229 C220 0.929 . S
H230 C223 0.930 . S
C231 C232 1.351 . S
C231 N234 1.368 . S
C231 H236 0.931 . S
C232 C231 1.351 . S
C232 N233 1.373 . S
C232 H260 0.930 . S
N233 C232 1.373 . S
N233 C235 1.340 . S
N234 C231 1.368 . S
N234 C235 1.321 . S
N234 Co237 2.135 . S
C235 N233 1.340 . S
C235 N234 1.321 . S
C235 H259 0.930 . S
H236 C231 0.931 . S
Co237 N234 2.135 . S
Co237 N240 2.121 . S
Co237 O245 2.055 . S
Co237 O248 2.039 . S
Co237 N251 2.140 . S
C238 O239 1.227 . S
C238 O248 1.265 . S
O239 C238 1.227 . S
N240 Co237 2.121 . S
N240 C242 1.375 . S
N240 C243 1.313 . S
C241 C242 1.338 . S
C241 N244 1.377 . S
C241 H261 0.930 . S
C242 N240 1.375 . S
C242 C241 1.338 . S
C242 H246 0.931 . S
C243 N240 1.313 . S
C243 N244 1.344 . S
C243 H247 0.930 . S
N244 C241 1.377 . S
N244 C243 1.344 . S
O245 Co237 2.055 . S
O245 C249 1.253 . S
H246 C242 0.931 . S
H247 C243 0.930 . S
O248 Co237 2.039 . S
O248 C238 1.265 . S
C249 O245 1.253 . S
C249 O250 1.227 . S
O250 C249 1.227 . S
N251 Co237 2.140 . S
N251 C254 1.346 . S
N251 C255 1.345 . S
C252 C253 1.387 . S
C252 C256 1.391 . S
C253 C252 1.387 . S
C253 C254 1.369 . S
C253 H262 0.929 . S
C254 N251 1.346 . S
C254 C253 1.369 . S
C254 H257 0.928 . S
C255 N251 1.345 . S
C255 C256 1.371 . S
C255 H258 0.931 . S
C256 C252 1.391 . S
C256 C255 1.371 . S
C256 H263 0.930 . S
H257 C254 0.928 . S
H258 C255 0.931 . S
H259 C235 0.930 . S
H260 C232 0.930 . S
H261 C241 0.930 . S
H262 C253 0.929 . S
H263 C256 0.930 . S
C264 C265 1.351 . S
C264 N267 1.368 . S
C264 H269 0.931 . S
C265 C264 1.351 . S
C265 N266 1.373 . S
C265 H293 0.930 . S
N266 C265 1.373 . S
N266 C268 1.340 . S
N267 C264 1.368 . S
N267 C268 1.321 . S
N267 Co270 2.135 . S
C268 N266 1.340 . S
C268 N267 1.321 . S
C268 H292 0.930 . S
H269 C264 0.931 . S
Co270 N267 2.135 . S
Co270 N273 2.121 . S
Co270 O278 2.055 . S
Co270 O281 2.039 . S
Co270 N284 2.140 . S
C271 O272 1.227 . S
C271 O281 1.265 1_455 S
O272 C271 1.227 . S
N273 Co270 2.121 . S
N273 C275 1.375 . S
N273 C276 1.313 . S
C274 C275 1.338 . S
C274 N277 1.377 . S
C274 H294 0.930 . S
C275 N273 1.375 . S
C275 C274 1.338 . S
C275 H279 0.931 . S
C276 N273 1.313 . S
C276 N277 1.344 . S
C276 H280 0.930 . S
N277 C274 1.377 . S
N277 C276 1.344 . S
O278 Co270 2.055 . S
O278 C282 1.253 . S
H279 C275 0.931 . S
H280 C276 0.930 . S
O281 Co270 2.039 . S
O281 C271 1.265 1_655 S
C282 O278 1.253 . S
C282 O283 1.227 . S
O283 C282 1.227 . S
N284 Co270 2.140 . S
N284 C287 1.346 . S
N284 C288 1.345 . S
C285 C286 1.387 . S
C285 C289 1.391 . S
C286 C285 1.387 . S
C286 C287 1.369 . S
C286 H295 0.929 . S
C287 N284 1.346 . S
C287 C286 1.369 . S
C287 H290 0.928 . S
C288 N284 1.345 . S
C288 C289 1.371 . S
C288 H291 0.931 . S
C289 C285 1.391 . S
C289 C288 1.371 . S
C289 H296 0.930 . S
H290 C287 0.928 . S
H291 C288 0.931 . S
H292 C268 0.930 . S
H293 C265 0.930 . S
H294 C274 0.930 . S
H295 C286 0.929 . S
H296 C289 0.930 . S
C297 C298 1.351 . S
C297 N300 1.368 . S
C297 H302 0.931 . S
C298 C297 1.351 . S
C298 N299 1.373 . S
C298 H326 0.930 . S
N299 C298 1.373 . S
N299 C301 1.340 . S
N300 C297 1.368 . S
N300 C301 1.321 . S
N300 Co303 2.135 . S
C301 N299 1.340 . S
C301 N300 1.321 . S
C301 H325 0.930 . S
H302 C297 0.931 . S
Co303 N300 2.135 . S
Co303 N306 2.121 . S
Co303 O311 2.055 . S
Co303 O314 2.039 . S
Co303 N317 2.140 . S
C304 O305 1.227 . S
C304 O314 1.265 1_545 S
O305 C304 1.227 . S
N306 Co303 2.121 . S
N306 C308 1.375 . S
N306 C309 1.313 . S
C307 C308 1.338 . S
C307 N310 1.377 . S
C307 H327 0.930 . S
C308 N306 1.375 . S
C308 C307 1.338 . S
C308 H312 0.931 . S
C309 N306 1.313 . S
C309 N310 1.344 . S
C309 H313 0.930 . S
N310 C307 1.377 . S
N310 C309 1.344 . S
O311 Co303 2.055 . S
O311 C315 1.253 . S
H312 C308 0.931 . S
H313 C309 0.930 . S
O314 Co303 2.039 . S
O314 C304 1.265 1_565 S
C315 O311 1.253 . S
C315 O316 1.227 . S
O316 C315 1.227 . S
N317 Co303 2.140 . S
N317 C320 1.346 . S
N317 C321 1.345 . S
C318 C319 1.387 . S
C318 C322 1.391 . S
C319 C318 1.387 . S
C319 C320 1.369 . S
C319 H328 0.929 . S
C320 N317 1.346 . S
C320 C319 1.369 . S
C320 H323 0.928 . S
C321 N317 1.345 . S
C321 C322 1.371 . S
C321 H324 0.931 . S
C322 C318 1.391 . S
C322 C321 1.371 . S
C322 H329 0.930 . S
H323 C320 0.928 . S
H324 C321 0.931 . S
H325 C301 0.930 . S
H326 C298 0.930 . S
H327 C307 0.930 . S
H328 C319 0.929 . S
H329 C322 0.930 . S
C330 C331 1.351 . S
C330 N333 1.368 . S
C330 H335 0.931 . S
C331 C330 1.351 . S
C331 N332 1.373 . S
C331 H359 0.930 . S
N332 C331 1.373 . S
N332 C334 1.340 . S
N333 C330 1.368 . S
N333 C334 1.321 . S
N333 Co336 2.135 . S
C334 N332 1.340 . S
C334 N333 1.321 . S
C334 H358 0.930 . S
H335 C330 0.931 . S
Co336 N333 2.135 . S
Co336 N339 2.121 . S
Co336 O344 2.055 . S
Co336 O347 2.039 . S
Co336 N350 2.140 . S
C337 O338 1.227 . S
C337 O347 1.265 1_655 S
O338 C337 1.227 . S
N339 Co336 2.121 . S
N339 C341 1.375 . S
N339 C342 1.313 . S
C340 C341 1.338 . S
C340 N343 1.377 . S
C340 H360 0.930 . S
C341 N339 1.375 . S
C341 C340 1.338 . S
C341 H345 0.931 . S
C342 N339 1.313 . S
C342 N343 1.344 . S
C342 H346 0.930 . S
N343 C340 1.377 . S
N343 C342 1.344 . S
O344 Co336 2.055 . S
O344 C348 1.253 . S
H345 C341 0.931 . S
H346 C342 0.930 . S
O347 Co336 2.039 . S
O347 C337 1.265 1_455 S
C348 O344 1.253 . S
C348 O349 1.227 . S
O349 C348 1.227 . S
N350 Co336 2.140 . S
N350 C353 1.346 . S
N350 C354 1.345 . S
C351 C352 1.387 . S
C351 C355 1.391 . S
C352 C351 1.387 . S
C352 C353 1.369 . S
C352 H361 0.929 . S
C353 N350 1.346 . S
C353 C352 1.369 . S
C353 H356 0.928 . S
C354 N350 1.345 . S
C354 C355 1.371 . S
C354 H357 0.931 . S
C355 C351 1.391 . S
C355 C354 1.371 . S
C355 H362 0.930 . S
H356 C353 0.928 . S
H357 C354 0.931 . S
H358 C334 0.930 . S
H359 C331 0.930 . S
H360 C340 0.930 . S
H361 C352 0.929 . S
H362 C355 0.930 . S
C363 C364 1.351 . S
C363 N366 1.368 . S
C363 H368 0.931 . S
C364 C363 1.351 . S
C364 N365 1.373 . S
C364 H392 0.930 . S
N365 C364 1.373 . S
N365 C367 1.340 . S
N366 C363 1.368 . S
N366 C367 1.321 . S
N366 Co369 2.135 . S
C367 N365 1.340 . S
C367 N366 1.321 . S
C367 H391 0.930 . S
H368 C363 0.931 . S
Co369 N366 2.135 . S
Co369 N372 2.121 . S
Co369 O377 2.055 . S
Co369 O380 2.039 . S
Co369 N383 2.140 . S
C370 O371 1.227 . S
C370 O380 1.265 1_565 S
O371 C370 1.227 . S
N372 Co369 2.121 . S
N372 C374 1.375 . S
N372 C375 1.313 . S
C373 C374 1.338 . S
C373 N376 1.377 . S
C373 H393 0.930 . S
C374 N372 1.375 . S
C374 C373 1.338 . S
C374 H378 0.931 . S
C375 N372 1.313 . S
C375 N376 1.344 . S
C375 H379 0.930 . S
N376 C373 1.377 . S
N376 C375 1.344 . S
O377 Co369 2.055 . S
O377 C381 1.253 . S
H378 C374 0.931 . S
H379 C375 0.930 . S
O380 Co369 2.039 . S
O380 C370 1.265 1_545 S
C381 O377 1.253 . S
C381 O382 1.227 . S
O382 C381 1.227 . S
N383 Co369 2.140 . S
N383 C386 1.346 . S
N383 C387 1.345 . S
C384 C385 1.387 . S
C384 C388 1.391 . S
C385 C384 1.387 . S
C385 C386 1.369 . S
C385 H394 0.929 . S
C386 N383 1.346 . S
C386 C385 1.369 . S
C386 H389 0.928 . S
C387 N383 1.345 . S
C387 C388 1.371 . S
C387 H390 0.931 . S
C388 C384 1.391 . S
C388 C387 1.371 . S
C388 H395 0.930 . S
H389 C386 0.928 . S
H390 C387 0.931 . S
H391 C367 0.930 . S
H392 C364 0.930 . S
H393 C373 0.930 . S
H394 C385 0.929 . S
H395 C388 0.930 . S
C396 C397 1.351 . S
C396 N399 1.368 . S
C396 H401 0.931 . S
C397 C396 1.351 . S
C397 N398 1.373 . S
C397 H425 0.930 . S
N398 C397 1.373 . S
N398 C400 1.340 . S
N399 C396 1.368 . S
N399 C400 1.321 . S
N399 Co402 2.135 . S
C400 N398 1.340 . S
C400 N399 1.321 . S
C400 H424 0.930 . S
H401 C396 0.931 . S
Co402 N399 2.135 . S
Co402 N405 2.121 . S
Co402 O410 2.055 . S
Co402 O413 2.039 . S
Co402 N416 2.140 . S
C403 O404 1.227 . S
C403 O413 1.265 . S
O404 C403 1.227 . S
N405 Co402 2.121 . S
N405 C407 1.375 . S
N405 C408 1.313 . S
C406 C407 1.338 . S
C406 N409 1.377 . S
C406 H426 0.930 . S
C407 N405 1.375 . S
C407 C406 1.338 . S
C407 H411 0.931 . S
C408 N405 1.313 . S
C408 N409 1.344 . S
C408 H412 0.930 . S
N409 C406 1.377 . S
N409 C408 1.344 . S
O410 Co402 2.055 . S
O410 C414 1.253 . S
H411 C407 0.931 . S
H412 C408 0.930 . S
O413 Co402 2.039 . S
O413 C403 1.265 . S
C414 O410 1.253 . S
C414 O415 1.227 . S
O415 C414 1.227 . S
N416 Co402 2.140 . S
N416 C419 1.346 . S
N416 C420 1.345 . S
C417 C418 1.387 . S
C417 C421 1.391 . S
C418 C417 1.387 . S
C418 C419 1.369 . S
C418 H427 0.929 . S
C419 N416 1.346 . S
C419 C418 1.369 . S
C419 H422 0.928 . S
C420 N416 1.345 . S
C420 C421 1.371 . S
C420 H423 0.931 . S
C421 C417 1.391 . S
C421 C420 1.371 . S
C421 H428 0.930 . S
H422 C419 0.928 . S
H423 C420 0.931 . S
H424 C400 0.930 . S
H425 C397 0.930 . S
H426 C406 0.930 . S
H427 C418 0.929 . S
H428 C421 0.930 . S
C429 C430 1.351 . S
C429 N432 1.368 . S
C429 H434 0.931 . S
C430 C429 1.351 . S
C430 N431 1.373 . S
C430 H458 0.930 . S
N431 C430 1.373 . S
N431 C433 1.340 . S
N432 C429 1.368 . S
N432 C433 1.321 . S
N432 Co435 2.135 . S
C433 N431 1.340 . S
C433 N432 1.321 . S
C433 H457 0.930 . S
H434 C429 0.931 . S
Co435 N432 2.135 . S
Co435 N438 2.121 . S
Co435 O443 2.055 . S
Co435 O446 2.039 . S
Co435 N449 2.140 . S
C436 O437 1.227 . S
C436 O446 1.265 . S
O437 C436 1.227 . S
N438 Co435 2.121 . S
N438 C440 1.375 . S
N438 C441 1.313 . S
C439 C440 1.338 . S
C439 N442 1.377 . S
C439 H459 0.930 . S
C440 N438 1.375 . S
C440 C439 1.338 . S
C440 H444 0.931 . S
C441 N438 1.313 . S
C441 N442 1.344 . S
C441 H445 0.930 . S
N442 C439 1.377 . S
N442 C441 1.344 . S
O443 Co435 2.055 . S
O443 C447 1.253 . S
H444 C440 0.931 . S
H445 C441 0.930 . S
O446 Co435 2.039 . S
O446 C436 1.265 . S
C447 O443 1.253 . S
C447 O448 1.227 . S
O448 C447 1.227 . S
N449 Co435 2.140 . S
N449 C452 1.346 . S
N449 C453 1.345 . S
C450 C451 1.387 . S
C450 C454 1.391 . S
C451 C450 1.387 . S
C451 C452 1.369 . S
C451 H460 0.929 . S
C452 N449 1.346 . S
C452 C451 1.369 . S
C452 H455 0.928 . S
C453 N449 1.345 . S
C453 C454 1.371 . S
C453 H456 0.931 . S
C454 C450 1.391 . S
C454 C453 1.371 . S
C454 H461 0.930 . S
H455 C452 0.928 . S
H456 C453 0.931 . S
H457 C433 0.930 . S
H458 C430 0.930 . S
H459 C439 0.930 . S
H460 C451 0.929 . S
H461 C454 0.930 . S
C462 C463 1.351 . S
C462 N465 1.368 . S
C462 H467 0.931 . S
C463 C462 1.351 . S
C463 N464 1.373 . S
C463 H491 0.930 . S
N464 C463 1.373 . S
N464 C466 1.340 . S
N465 C462 1.368 . S
N465 C466 1.321 . S
N465 Co468 2.135 . S
C466 N464 1.340 . S
C466 N465 1.321 . S
C466 H490 0.930 . S
H467 C462 0.931 . S
Co468 N465 2.135 . S
Co468 N471 2.121 . S
Co468 O476 2.055 . S
Co468 O479 2.039 . S
Co468 N482 2.140 . S
C469 O470 1.227 . S
C469 O479 1.265 . S
O470 C469 1.227 . S
N471 Co468 2.121 . S
N471 C473 1.375 . S
N471 C474 1.313 . S
C472 C473 1.338 . S
C472 N475 1.377 . S
C472 H492 0.930 . S
C473 N471 1.375 . S
C473 C472 1.338 . S
C473 H477 0.931 . S
C474 N471 1.313 . S
C474 N475 1.344 . S
C474 H478 0.930 . S
N475 C472 1.377 . S
N475 C474 1.344 . S
O476 Co468 2.055 . S
O476 C480 1.253 . S
H477 C473 0.931 . S
H478 C474 0.930 . S
O479 Co468 2.039 . S
O479 C469 1.265 . S
C480 O476 1.253 . S
C480 O481 1.227 . S
O481 C480 1.227 . S
N482 Co468 2.140 . S
N482 C485 1.346 . S
N482 C486 1.345 . S
C483 C484 1.387 . S
C483 C487 1.391 . S
C484 C483 1.387 . S
C484 C485 1.369 . S
C484 H493 0.929 . S
C485 N482 1.346 . S
C485 C484 1.369 . S
C485 H488 0.928 . S
C486 N482 1.345 . S
C486 C487 1.371 . S
C486 H489 0.931 . S
C487 C483 1.391 . S
C487 C486 1.371 . S
C487 H494 0.930 . S
H488 C485 0.928 . S
H489 C486 0.931 . S
H490 C466 0.930 . S
H491 C463 0.930 . S
H492 C472 0.930 . S
H493 C484 0.929 . S
H494 C487 0.930 . S
C495 C496 1.351 . S
C495 N498 1.368 . S
C495 H500 0.931 . S
C496 C495 1.351 . S
C496 N497 1.373 . S
C496 H524 0.930 . S
N497 C496 1.373 . S
N497 C499 1.340 . S
N498 C495 1.368 . S
N498 C499 1.321 . S
N498 Co501 2.135 . S
C499 N497 1.340 . S
C499 N498 1.321 . S
C499 H523 0.930 . S
H500 C495 0.931 . S
Co501 N498 2.135 . S
Co501 N504 2.121 . S
Co501 O509 2.055 . S
Co501 O512 2.039 . S
Co501 N515 2.140 . S
C502 O503 1.227 . S
C502 O512 1.265 . S
O503 C502 1.227 . S
N504 Co501 2.121 . S
N504 C506 1.375 . S
N504 C507 1.313 . S
C505 C506 1.338 . S
C505 N508 1.377 . S
C505 H525 0.930 . S
C506 N504 1.375 . S
C506 C505 1.338 . S
C506 H510 0.931 . S
C507 N504 1.313 . S
C507 N508 1.344 . S
C507 H511 0.930 . S
N508 C505 1.377 . S
N508 C507 1.344 . S
O509 Co501 2.055 . S
O509 C513 1.253 . S
H510 C506 0.931 . S
H511 C507 0.930 . S
O512 Co501 2.039 . S
O512 C502 1.265 . S
C513 O509 1.253 . S
C513 O514 1.227 . S
O514 C513 1.227 . S
N515 Co501 2.140 . S
N515 C518 1.346 . S
N515 C519 1.345 . S
C516 C517 1.387 . S
C516 C520 1.391 . S
C517 C516 1.387 . S
C517 C518 1.369 . S
C517 H526 0.929 . S
C518 N515 1.346 . S
C518 C517 1.369 . S
C518 H521 0.928 . S
C519 N515 1.345 . S
C519 C520 1.371 . S
C519 H522 0.931 . S
C520 C516 1.391 . S
C520 C519 1.371 . S
C520 H527 0.930 . S
H521 C518 0.928 . S
H522 C519 0.931 . S
H523 C499 0.930 . S
H524 C496 0.930 . S
H525 C505 0.930 . S
H526 C517 0.929 . S
H527 C520 0.930 . S
C528 C529 1.369 . S
C528 C530 1.419 . S
C528 H532 0.930 . S
C529 C528 1.369 . S
C529 C538 1.429 . S
C530 C528 1.419 . S
C530 C531 1.363 . S
C530 H533 0.929 . S
C531 C530 1.363 . S
C531 C537 1.428 . S
H532 C528 0.930 . S
H533 C530 0.929 . S
S534 N535 1.613 . S
S534 N536 1.610 . S
N535 S534 1.613 . S
N535 C538 1.350 . S
N536 S534 1.610 . S
N536 C537 1.351 . S
C537 C531 1.428 . S
C537 N536 1.351 . S
C537 C538 1.434 . S
C538 C529 1.429 . S
C538 N535 1.350 . S
C538 C537 1.434 . S
C539 C540 1.369 . S
C539 C541 1.419 . S
C539 H543 0.930 . S
C540 C539 1.369 . S
C540 C549 1.429 . S
C541 C539 1.419 . S
C541 C542 1.363 . S
C541 H544 0.929 . S
C542 C541 1.363 . S
C542 C548 1.428 . S
H543 C539 0.930 . S
H544 C541 0.929 . S
S545 N546 1.613 . S
S545 N547 1.610 . S
N546 S545 1.613 . S
N546 C549 1.350 . S
N547 S545 1.610 . S
N547 C548 1.351 . S
C548 C542 1.428 . S
C548 N547 1.351 . S
C548 C549 1.434 . S
C549 C540 1.429 . S
C549 N546 1.350 . S
C549 C548 1.434 . S
C550 C551 1.369 . S
C550 C552 1.419 . S
C550 H554 0.930 . S
C551 C550 1.369 . S
C551 C560 1.429 . S
C552 C550 1.419 . S
C552 C553 1.363 . S
C552 H555 0.929 . S
C553 C552 1.363 . S
C553 C559 1.428 . S
H554 C550 0.930 . S
H555 C552 0.929 . S
S556 N557 1.613 . S
S556 N558 1.610 . S
N557 S556 1.613 . S
N557 C560 1.350 . S
N558 S556 1.610 . S
N558 C559 1.351 . S
C559 C553 1.428 . S
C559 N558 1.351 . S
C559 C560 1.434 . S
C560 C551 1.429 . S
C560 N557 1.350 . S
C560 C559 1.434 . S
C561 C562 1.369 . S
C561 C563 1.419 . S
C561 H565 0.930 . S
C562 C561 1.369 . S
C562 C571 1.429 . S
C563 C561 1.419 . S
C563 C564 1.363 . S
C563 H566 0.929 . S
C564 C563 1.363 . S
C564 C570 1.428 . S
H565 C561 0.930 . S
H566 C563 0.929 . S
S567 N568 1.613 . S
S567 N569 1.610 . S
N568 S567 1.613 . S
N568 C571 1.350 . S
N569 S567 1.610 . S
N569 C570 1.351 . S
C570 C564 1.428 . S
C570 N569 1.351 . S
C570 C571 1.434 . S
C571 C562 1.429 . S
C571 N568 1.350 . S
C571 C570 1.434 . S
C572 C573 1.369 . S
C572 C574 1.419 . S
C572 H576 0.930 . S
C573 C572 1.369 . S
C573 C582 1.429 . S
C574 C572 1.419 . S
C574 C575 1.363 . S
C574 H577 0.929 . S
C575 C574 1.363 . S
C575 C581 1.428 . S
H576 C572 0.930 . S
H577 C574 0.929 . S
S578 N579 1.613 . S
S578 N580 1.610 . S
N579 S578 1.613 . S
N579 C582 1.350 . S
N580 S578 1.610 . S
N580 C581 1.351 . S
C581 C575 1.428 . S
C581 N580 1.351 . S
C581 C582 1.434 . S
C582 C573 1.429 . S
C582 N579 1.350 . S
C582 C581 1.434 . S
C583 C584 1.369 . S
C583 C585 1.419 . S
C583 H587 0.930 . S
C584 C583 1.369 . S
C584 C593 1.429 . S
C585 C583 1.419 . S
C585 C586 1.363 . S
C585 H588 0.929 . S
C586 C585 1.363 . S
C586 C592 1.428 . S
H587 C583 0.930 . S
H588 C585 0.929 . S
S589 N590 1.613 . S
S589 N591 1.610 . S
N590 S589 1.613 . S
N590 C593 1.350 . S
N591 S589 1.610 . S
N591 C592 1.351 . S
C592 C586 1.428 . S
C592 N591 1.351 . S
C592 C593 1.434 . S
C593 C584 1.429 . S
C593 N590 1.350 . S
C593 C592 1.434 . S
C594 C595 1.369 . S
C594 C596 1.419 . S
C594 H598 0.930 . S
C595 C594 1.369 . S
C595 C604 1.429 . S
C596 C594 1.419 . S
C596 C597 1.363 . S
C596 H599 0.929 . S
C597 C596 1.363 . S
C597 C603 1.428 . S
H598 C594 0.930 . S
H599 C596 0.929 . S
S600 N601 1.613 . S
S600 N602 1.610 . S
N601 S600 1.613 . S
N601 C604 1.350 . S
N602 S600 1.610 . S
N602 C603 1.351 . S
C603 C597 1.428 . S
C603 N602 1.351 . S
C603 C604 1.434 . S
C604 C595 1.429 . S
C604 N601 1.350 . S
C604 C603 1.434 . S
C605 C606 1.369 . S
C605 C607 1.419 . S
C605 H609 0.930 . S
C606 C605 1.369 . S
C606 C615 1.429 . S
C607 C605 1.419 . S
C607 C608 1.363 . S
C607 H610 0.929 . S
C608 C607 1.363 . S
C608 C614 1.428 . S
H609 C605 0.930 . S
H610 C607 0.929 . S
S611 N612 1.613 . S
S611 N613 1.610 . S
N612 S611 1.613 . S
N612 C615 1.350 . S
N613 S611 1.610 . S
N613 C614 1.351 . S
C614 C608 1.428 . S
C614 N613 1.351 . S
C614 C615 1.434 . S
C615 C606 1.429 . S
C615 N612 1.350 . S
C615 C614 1.434 . S
C616 C617 1.369 . S
C616 C618 1.419 1_554 S
C616 H620 0.930 . S
C617 C616 1.369 . S
C617 C626 1.429 . S
C618 C616 1.419 1_556 S
C618 C619 1.363 . S
C618 H621 0.929 . S
C619 C618 1.363 . S
C619 C625 1.428 . S
H620 C616 0.930 . S
H621 C618 0.929 . S
S622 N623 1.617 1_556 S
S622 N624 1.607 . S
N623 S622 1.617 1_554 S
N623 C626 1.350 1_655 S
N624 S622 1.607 . S
N624 C625 1.351 1_655 S
C625 C619 1.428 . S
C625 N624 1.351 1_455 S
C625 C626 1.434 1_556 S
C626 C617 1.429 . S
C626 N623 1.350 1_455 S
C626 C625 1.434 1_554 S
C627 C628 1.369 . S
C627 C629 1.419 . S
C627 H631 0.930 . S
C628 C627 1.369 . S
C628 C637 1.429 . S
C629 C627 1.419 . S
C629 C630 1.363 . S
C629 H632 0.929 . S
C630 C629 1.363 . S
C630 C636 1.428 . S
H631 C627 0.930 . S
H632 C629 0.929 . S
S633 N634 1.613 . S
S633 N635 1.610 . S
N634 S633 1.613 . S
N634 C637 1.350 . S
N635 S633 1.610 . S
N635 C636 1.351 . S
C636 C630 1.428 . S
C636 N635 1.351 . S
C636 C637 1.434 . S
C637 C628 1.429 . S
C637 N634 1.350 . S
C637 C636 1.434 . S
C638 C639 1.369 . S
C638 C640 1.419 1_556 S
C638 H642 0.930 . S
C639 C638 1.369 . S
C639 C648 1.429 . S
C640 C638 1.419 1_554 S
C640 C641 1.363 . S
C640 H643 0.929 . S
C641 C640 1.363 . S
C641 C647 1.428 . S
H642 C638 0.930 . S
H643 C640 0.929 . S
S644 N645 1.617 1_554 S
S644 N646 1.607 . S
N645 S644 1.617 1_556 S
N645 C648 1.350 1_455 S
N646 S644 1.607 . S
N646 C647 1.351 1_455 S
C647 C641 1.428 . S
C647 N646 1.351 1_655 S
C647 C648 1.434 1_554 S
C648 C639 1.429 . S
C648 N645 1.350 1_655 S
C648 C647 1.434 1_556 S
C649 C650 1.369 . S
C649 C651 1.419 . S
C649 H653 0.930 . S
C650 C649 1.369 . S
C650 C659 1.429 . S
C651 C649 1.419 . S
C651 C652 1.363 . S
C651 H654 0.929 . S
C652 C651 1.363 . S
C652 C658 1.428 . S
H653 C649 0.930 . S
H654 C651 0.929 . S
S655 N656 1.613 . S
S655 N657 1.610 . S
N656 S655 1.613 . S
N656 C659 1.350 1_545 S
N657 S655 1.610 . S
N657 C658 1.351 1_545 S
C658 C652 1.428 . S
C658 N657 1.351 1_565 S
C658 C659 1.434 . S
C659 C650 1.429 . S
C659 N656 1.350 1_565 S
C659 C658 1.434 . S
C660 C661 1.369 . S
C660 C662 1.419 1_554 S
C660 H664 0.930 . S
C661 C660 1.369 . S
C661 C670 1.429 . S
C662 C660 1.419 1_556 S
C662 C663 1.363 . S
C662 H665 0.929 . S
C663 C662 1.363 . S
C663 C669 1.428 . S
H664 C660 0.930 . S
H665 C662 0.929 . S
S666 N667 1.617 1_556 S
S666 N668 1.607 . S
N667 S666 1.617 1_554 S
N667 C670 1.350 . S
N668 S666 1.607 . S
N668 C669 1.351 . S
C669 C663 1.428 . S
C669 N668 1.351 . S
C669 C670 1.434 1_556 S
C670 C661 1.429 . S
C670 N667 1.350 . S
C670 C669 1.434 1_554 S
C671 C672 1.369 . S
C671 C673 1.419 . S
C671 H675 0.930 . S
C672 C671 1.369 . S
C672 C681 1.429 . S
C673 C671 1.419 . S
C673 C674 1.363 . S
C673 H676 0.929 . S
C674 C673 1.363 . S
C674 C680 1.428 . S
H675 C671 0.930 . S
H676 C673 0.929 . S
S677 N678 1.613 . S
S677 N679 1.610 . S
N678 S677 1.613 . S
N678 C681 1.350 . S
N679 S677 1.610 . S
N679 C680 1.351 . S
C680 C674 1.428 . S
C680 N679 1.351 . S
C680 C681 1.434 . S
C681 C672 1.429 . S
C681 N678 1.350 . S
C681 C680 1.434 . S
C682 C683 1.369 . S
C682 C684 1.419 1_554 S
C682 H686 0.930 . S
C683 C682 1.369 . S
C683 C692 1.429 . S
C684 C682 1.419 1_556 S
C684 C685 1.363 . S
C684 H687 0.929 . S
C685 C684 1.363 . S
C685 C691 1.428 . S
H686 C682 0.930 . S
H687 C684 0.929 . S
S688 N689 1.617 1_556 S
S688 N690 1.607 . S
N689 S688 1.617 1_554 S
N689 C692 1.350 . S
N690 S688 1.607 . S
N690 C691 1.351 . S
C691 C685 1.428 . S
C691 N690 1.351 . S
C691 C692 1.434 1_556 S
C692 C683 1.429 . S
C692 N689 1.350 . S
C692 C691 1.434 1_554 S
C693 C694 1.369 . S
C693 C695 1.419 . S
C693 H697 0.930 . S
C694 C693 1.369 . S
C694 C703 1.429 . S
C695 C693 1.419 . S
C695 C696 1.363 . S
C695 H698 0.929 . S
C696 C695 1.363 . S
C696 C702 1.428 . S
H697 C693 0.930 . S
H698 C695 0.929 . S
S699 N700 1.613 . S
S699 N701 1.610 . S
N700 S699 1.613 . S
N700 C703 1.350 . S
N701 S699 1.610 . S
N701 C702 1.351 . S
C702 C696 1.428 . S
C702 N701 1.351 . S
C702 C703 1.434 . S
C703 C694 1.429 . S
C703 N700 1.350 . S
C703 C702 1.434 . S
C704 C705 1.369 . S
C704 C706 1.419 1_455 S
C704 H708 0.930 . S
C705 C704 1.369 . S
C705 C714 1.429 . S
C706 C704 1.419 1_655 S
C706 C707 1.363 . S
C706 H709 0.929 . S
C707 C706 1.363 . S
C707 C713 1.428 . S
H708 C704 0.930 . S
H709 C706 0.929 . S
S710 N711 1.613 . S
S710 N712 1.610 1_455 S
N711 S710 1.613 . S
N711 C714 1.350 . S
N712 S710 1.610 1_655 S
N712 C713 1.351 . S
C713 C707 1.428 . S
C713 N712 1.351 . S
C713 C714 1.434 1_655 S
C714 C705 1.429 . S
C714 N711 1.350 . S
C714 C713 1.434 1_455 S
C715 C716 1.369 . S
C715 C717 1.419 1_565 S
C715 H719 0.930 . S
C716 C715 1.369 . S
C716 C725 1.429 . S
C717 C715 1.419 1_545 S
C717 C718 1.363 . S
C717 H720 0.929 . S
C718 C717 1.363 . S
C718 C724 1.428 . S
H719 C715 0.930 . S
H720 C717 0.929 . S
S721 N722 1.613 . S
S721 N723 1.610 1_565 S
N722 S721 1.613 . S
N722 C725 1.350 . S
N723 S721 1.610 1_545 S
N723 C724 1.351 . S
C724 C718 1.428 . S
C724 N723 1.351 . S
C724 C725 1.434 1_545 S
C725 C716 1.429 . S
C725 N722 1.350 . S
C725 C724 1.434 1_565 S
C726 C727 1.369 . S
C726 C728 1.419 . S
C726 H730 0.930 . S
C727 C726 1.369 . S
C727 C736 1.429 1_565 S
C728 C726 1.419 . S
C728 C729 1.363 1_565 S
C728 H731 0.929 . S
C729 C728 1.363 1_545 S
C729 C735 1.428 . S
H730 C726 0.930 . S
H731 C728 0.929 . S
S732 N733 1.613 . S
S732 N734 1.610 . S
N733 S732 1.613 . S
N733 C736 1.350 . S
N734 S732 1.610 . S
N734 C735 1.351 . S
C735 C729 1.428 . S
C735 N734 1.351 . S
C735 C736 1.434 . S
C736 C727 1.429 1_545 S
C736 N733 1.350 . S
C736 C735 1.434 . S
C737 C738 1.369 . S
C737 C739 1.419 . S
C737 H741 0.930 . S
C738 C737 1.369 . S
C738 C747 1.429 1_455 S
C739 C737 1.419 . S
C739 C740 1.363 1_455 S
C739 H742 0.929 . S
C740 C739 1.363 1_655 S
C740 C746 1.428 . S
H741 C737 0.930 . S
H742 C739 0.929 . S
S743 N744 1.613 . S
S743 N745 1.610 . S
N744 S743 1.613 . S
N744 C747 1.350 . S
N745 S743 1.610 . S
N745 C746 1.351 . S
C746 C740 1.428 . S
C746 N745 1.351 . S
C746 C747 1.434 . S
C747 C738 1.429 1_655 S
C747 N744 1.350 . S
C747 C746 1.434 . S
C748 C749 1.369 . S
C748 C750 1.419 1_655 S
C748 H752 0.930 . S
C749 C748 1.369 . S
C749 C758 1.429 . S
C750 C748 1.419 1_455 S
C750 C751 1.363 . S
C750 H753 0.929 . S
C751 C750 1.363 . S
C751 C757 1.428 . S
H752 C748 0.930 . S
H753 C750 0.929 . S
S754 N755 1.613 . S
S754 N756 1.610 1_655 S
N755 S754 1.613 . S
N755 C758 1.350 . S
N756 S754 1.610 1_455 S
N756 C757 1.351 . S
C757 C751 1.428 . S
C757 N756 1.351 . S
C757 C758 1.434 1_455 S
C758 C749 1.429 . S
C758 N755 1.350 . S
C758 C757 1.434 1_655 S
C759 C760 1.369 . S
C759 C761 1.419 1_545 S
C759 H763 0.930 . S
C760 C759 1.369 . S
C760 C769 1.429 . S
C761 C759 1.419 1_565 S
C761 C762 1.363 . S
C761 H764 0.929 . S
C762 C761 1.363 . S
C762 C768 1.428 . S
H763 C759 0.930 . S
H764 C761 0.929 . S
S765 N766 1.613 1_565 S
S765 N767 1.610 . S
N766 S765 1.613 1_545 S
N766 C769 1.350 . S
N767 S765 1.610 . S
N767 C768 1.351 . S
C768 C762 1.428 . S
C768 N767 1.351 . S
C768 C769 1.434 1_565 S
C769 C760 1.429 . S
C769 N766 1.350 . S
C769 C768 1.434 1_545 S
C770 C771 1.369 1_545 S
C770 C772 1.419 . S
C770 H774 0.930 . S
C771 C770 1.369 1_565 S
C771 C780 1.429 . S
C772 C770 1.419 . S
C772 C773 1.363 . S
C772 H775 0.929 . S
C773 C772 1.363 . S
C773 C779 1.428 1_545 S
H774 C770 0.930 . S
H775 C772 0.929 . S
S776 N777 1.613 . S
S776 N778 1.610 . S
N777 S776 1.613 . S
N777 C780 1.350 . S
N778 S776 1.610 . S
N778 C779 1.351 . S
C779 C773 1.428 1_565 S
C779 N778 1.351 . S
C779 C780 1.434 . S
C780 C771 1.429 . S
C780 N777 1.350 . S
C780 C779 1.434 . S
C781 C782 1.369 . S
C781 C783 1.419 . S
C781 H785 0.930 . S
C782 C781 1.369 . S
C782 C791 1.429 1_455 S
C783 C781 1.419 . S
C783 C784 1.363 1_455 S
C783 H786 0.929 . S
C784 C783 1.363 1_655 S
C784 C790 1.428 . S
H785 C781 0.930 . S
H786 C783 0.929 . S
S787 N788 1.613 . S
S787 N789 1.610 . S
N788 S787 1.613 . S
N788 C791 1.350 . S
N789 S787 1.610 . S
N789 C790 1.351 . S
C790 C784 1.428 . S
C790 N789 1.351 . S
C790 C791 1.434 . S
C791 C782 1.429 1_655 S
C791 N788 1.350 . S
C791 C790 1.434 . S
C792 C793 1.369 . S
C792 C794 1.419 . S
C792 H796 0.930 . S
C793 C792 1.369 . S
C793 C802 1.429 . S
C794 C792 1.419 . S
C794 C795 1.363 . S
C794 H797 0.929 . S
C795 C794 1.363 . S
C795 C801 1.428 . S
H796 C792 0.930 . S
H797 C794 0.929 . S
S798 N799 1.613 . S
S798 N800 1.610 . S
N799 S798 1.613 . S
N799 C802 1.350 . S
N800 S798 1.610 . S
N800 C801 1.351 . S
C801 C795 1.428 . S
C801 N800 1.351 . S
C801 C802 1.434 . S
C802 C793 1.429 . S
C802 N799 1.350 . S
C802 C801 1.434 . S
C803 C804 1.369 . S
C803 C805 1.419 . S
C803 H807 0.930 . S
C804 C803 1.369 . S
C804 C813 1.429 . S
C805 C803 1.419 . S
C805 C806 1.363 . S
C805 H808 0.929 . S
C806 C805 1.363 . S
C806 C812 1.428 . S
H807 C803 0.930 . S
H808 C805 0.929 . S
S809 N810 1.613 . S
S809 N811 1.610 . S
N810 S809 1.613 . S
N810 C813 1.350 . S
N811 S809 1.610 . S
N811 C812 1.351 . S
C812 C806 1.428 . S
C812 N811 1.351 . S
C812 C813 1.434 . S
C813 C804 1.429 . S
C813 N810 1.350 . S
C813 C812 1.434 . S
C814 C815 1.369 . S
C814 C816 1.419 . S
C814 H818 0.930 . S
C815 C814 1.369 . S
C815 C824 1.429 . S
C816 C814 1.419 . S
C816 C817 1.363 . S
C816 H819 0.929 . S
C817 C816 1.363 . S
C817 C823 1.428 . S
H818 C814 0.930 . S
H819 C816 0.929 . S
S820 N821 1.613 . S
S820 N822 1.610 . S
N821 S820 1.613 . S
N821 C824 1.350 . S
N822 S820 1.610 . S
N822 C823 1.351 . S
C823 C817 1.428 . S
C823 N822 1.351 . S
C823 C824 1.434 . S
C824 C815 1.429 . S
C824 N821 1.350 . S
C824 C823 1.434 . S
C825 C826 1.369 . S
C825 C827 1.419 . S
C825 H829 0.930 . S
C826 C825 1.369 . S
C826 C835 1.429 . S
C827 C825 1.419 . S
C827 C828 1.363 . S
C827 H830 0.929 . S
C828 C827 1.363 . S
C828 C834 1.428 . S
H829 C825 0.930 . S
H830 C827 0.929 . S
S831 N832 1.613 . S
S831 N833 1.610 . S
N832 S831 1.613 . S
N832 C835 1.350 . S
N833 S831 1.610 . S
N833 C834 1.351 . S
C834 C828 1.428 . S
C834 N833 1.351 . S
C834 C835 1.434 . S
C835 C826 1.429 . S
C835 N832 1.350 . S
C835 C834 1.434 . S
C836 C837 1.369 . S
C836 C838 1.419 . S
C836 H840 0.930 . S
C837 C836 1.369 . S
C837 C846 1.429 . S
C838 C836 1.419 . S
C838 C839 1.363 . S
C838 H841 0.929 . S
C839 C838 1.363 . S
C839 C845 1.428 . S
H840 C836 0.930 . S
H841 C838 0.929 . S
S842 N843 1.613 . S
S842 N844 1.610 . S
N843 S842 1.613 . S
N843 C846 1.350 . S
N844 S842 1.610 . S
N844 C845 1.351 . S
C845 C839 1.428 . S
C845 N844 1.351 . S
C845 C846 1.434 . S
C846 C837 1.429 . S
C846 N843 1.350 . S
C846 C845 1.434 . S
C847 C848 1.369 . S
C847 C849 1.419 . S
C847 H851 0.930 . S
C848 C847 1.369 . S
C848 C857 1.429 . S
C849 C847 1.419 . S
C849 C850 1.363 . S
C849 H852 0.929 . S
C850 C849 1.363 . S
C850 C856 1.428 . S
H851 C847 0.930 . S
H852 C849 0.929 . S
S853 N854 1.613 . S
S853 N855 1.610 . S
N854 S853 1.613 . S
N854 C857 1.350 . S
N855 S853 1.610 . S
N855 C856 1.351 . S
C856 C850 1.428 . S
C856 N855 1.351 . S
C856 C857 1.434 . S
C857 C848 1.429 . S
C857 N854 1.350 . S
C857 C856 1.434 . S
C858 C859 1.369 . S
C858 C860 1.419 . S
C858 H862 0.930 . S
C859 C858 1.369 . S
C859 C868 1.429 . S
C860 C858 1.419 . S
C860 C861 1.363 . S
C860 H863 0.929 . S
C861 C860 1.363 . S
C861 C867 1.428 . S
H862 C858 0.930 . S
H863 C860 0.929 . S
S864 N865 1.613 . S
S864 N866 1.610 . S
N865 S864 1.613 . S
N865 C868 1.350 . S
N866 S864 1.610 . S
N866 C867 1.351 . S
C867 C861 1.428 . S
C867 N866 1.351 . S
C867 C868 1.434 . S
C868 C859 1.429 . S
C868 N865 1.350 . S
C868 C867 1.434 . S
C869 C870 1.369 . S
C869 C871 1.419 . S
C869 H873 0.930 . S
C870 C869 1.369 . S
C870 C879 1.429 . S
C871 C869 1.419 . S
C871 C872 1.363 . S
C871 H874 0.929 . S
C872 C871 1.363 . S
C872 C878 1.428 . S
H873 C869 0.930 . S
H874 C871 0.929 . S
S875 N876 1.613 . S
S875 N877 1.610 . S
N876 S875 1.613 . S
N876 C879 1.350 . S
N877 S875 1.610 . S
N877 C878 1.351 . S
C878 C872 1.428 . S
C878 N877 1.351 . S
C878 C879 1.434 . S
C879 C870 1.429 . S
C879 N876 1.350 . S
C879 C878 1.434 . S
C880 C881 1.369 . S
C880 C882 1.419 . S
C880 H884 0.930 . S
C881 C880 1.369 . S
C881 C890 1.429 . S
C882 C880 1.419 . S
C882 C883 1.363 . S
C882 H885 0.929 . S
C883 C882 1.363 . S
C883 C889 1.428 . S
H884 C880 0.930 . S
H885 C882 0.929 . S
S886 N887 1.613 . S
S886 N888 1.610 . S
N887 S886 1.613 . S
N887 C890 1.350 . S
N888 S886 1.610 . S
N888 C889 1.351 . S
C889 C883 1.428 . S
C889 N888 1.351 . S
C889 C890 1.434 . S
C890 C881 1.429 . S
C890 N887 1.350 . S
C890 C889 1.434 . S
C891 C892 1.369 . S
C891 C893 1.419 . S
C891 H895 0.930 . S
C892 C891 1.369 . S
C892 C901 1.429 . S
C893 C891 1.419 . S
C893 C894 1.363 . S
C893 H896 0.929 . S
C894 C893 1.363 . S
C894 C900 1.428 . S
H895 C891 0.930 . S
H896 C893 0.929 . S
S897 N898 1.613 . S
S897 N899 1.610 . S
N898 S897 1.613 . S
N898 C901 1.350 . S
N899 S897 1.610 . S
N899 C900 1.351 . S
C900 C894 1.428 . S
C900 N899 1.351 . S
C900 C901 1.434 . S
C901 C892 1.429 . S
C901 N898 1.350 . S
C901 C900 1.434 . S
C902 C903 1.369 . S
C902 C904 1.419 . S
C902 H906 0.930 . S
C903 C902 1.369 . S
C903 C912 1.429 . S
C904 C902 1.419 . S
C904 C905 1.363 . S
C904 H907 0.929 . S
C905 C904 1.363 . S
C905 C911 1.428 . S
H906 C902 0.930 . S
H907 C904 0.929 . S
S908 N909 1.613 . S
S908 N910 1.610 . S
N909 S908 1.613 . S
N909 C912 1.350 . S
N910 S908 1.610 . S
N910 C911 1.351 . S
C911 C905 1.428 . S
C911 N910 1.351 . S
C911 C912 1.434 . S
C912 C903 1.429 . S
C912 N909 1.350 . S
C912 C911 1.434 . S
C913 C914 1.369 . S
C913 C915 1.419 . S
C913 H917 0.930 . S
C914 C913 1.369 . S
C914 C923 1.429 . S
C915 C913 1.419 . S
C915 C916 1.363 . S
C915 H918 0.929 . S
C916 C915 1.363 . S
C916 C922 1.428 . S
H917 C913 0.930 . S
H918 C915 0.929 . S
S919 N920 1.613 . S
S919 N921 1.610 . S
N920 S919 1.613 . S
N920 C923 1.350 . S
N921 S919 1.610 . S
N921 C922 1.351 . S
C922 C916 1.428 . S
C922 N921 1.351 . S
C922 C923 1.434 . S
C923 C914 1.429 . S
C923 N920 1.350 . S
C923 C922 1.434 . S
C924 C925 1.369 . S
C924 C926 1.419 . S
C924 H928 0.930 . S
C925 C924 1.369 . S
C925 C934 1.429 . S
C926 C924 1.419 . S
C926 C927 1.363 . S
C926 H929 0.929 . S
C927 C926 1.363 . S
C927 C933 1.428 . S
H928 C924 0.930 . S
H929 C926 0.929 . S
S930 N931 1.613 . S
S930 N932 1.610 . S
N931 S930 1.613 . S
N931 C934 1.350 . S
N932 S930 1.610 . S
N932 C933 1.351 . S
C933 C927 1.428 . S
C933 N932 1.351 . S
C933 C934 1.434 . S
C934 C925 1.429 . S
C934 N931 1.350 . S
C934 C933 1.434 . S
C935 C936 1.369 . S
C935 C937 1.419 . S
C935 H939 0.930 . S
C936 C935 1.369 . S
C936 C945 1.429 . S
C937 C935 1.419 . S
C937 C938 1.363 . S
C937 H940 0.929 . S
C938 C937 1.363 . S
C938 C944 1.428 . S
H939 C935 0.930 . S
H940 C937 0.929 . S
S941 N942 1.613 . S
S941 N943 1.610 . S
N942 S941 1.613 . S
N942 C945 1.350 . S
N943 S941 1.610 . S
N943 C944 1.351 . S
C944 C938 1.428 . S
C944 N943 1.351 . S
C944 C945 1.434 . S
C945 C936 1.429 . S
C945 N942 1.350 . S
C945 C944 1.434 . S
C946 C947 1.369 . S
C946 C948 1.419 . S
C946 H950 0.930 . S
C947 C946 1.369 . S
C947 C956 1.429 . S
C948 C946 1.419 . S
C948 C949 1.363 . S
C948 H951 0.929 . S
C949 C948 1.363 . S
C949 C955 1.428 . S
H950 C946 0.930 . S
H951 C948 0.929 . S
S952 N953 1.613 . S
S952 N954 1.610 . S
N953 S952 1.613 . S
N953 C956 1.350 . S
N954 S952 1.610 . S
N954 C955 1.351 . S
C955 C949 1.428 . S
C955 N954 1.351 . S
C955 C956 1.434 . S
C956 C947 1.429 . S
C956 N953 1.350 . S
C956 C955 1.434 . S
C957 C958 1.369 . S
C957 C959 1.419 . S
C957 H961 0.930 . S
C958 C957 1.369 . S
C958 C967 1.429 . S
C959 C957 1.419 . S
C959 C960 1.363 . S
C959 H962 0.929 . S
C960 C959 1.363 . S
C960 C966 1.428 . S
H961 C957 0.930 . S
H962 C959 0.929 . S
S963 N964 1.613 . S
S963 N965 1.610 . S
N964 S963 1.613 . S
N964 C967 1.350 . S
N965 S963 1.610 . S
N965 C966 1.351 . S
C966 C960 1.428 . S
C966 N965 1.351 . S
C966 C967 1.434 . S
C967 C958 1.429 . S
C967 N964 1.350 . S
C967 C966 1.434 . S
C529 N13 1.831 . S
C531 N244 1.830 . S
C540 N145 1.828 . S
C542 N46 1.827 . S
C551 N178 1.827 . S
C553 N79 1.827 . S
C562 N211 1.831 . S
C564 N112 1.829 . S
C573 N277 1.831 . S
C575 N508 1.828 . S
C584 N310 1.827 . S
C586 N409 1.830 . S
C595 N442 1.828 . S
C597 N343 1.827 . S
C606 N376 1.828 . S
C608 N475 1.827 . S
C617 N2 1.547 . S
C619 N332 1.547 . S
C628 N365 1.540 . S
C630 N35 1.541 . S
C639 N266 1.547 . S
C641 N68 1.547 . S
C650 N299 1.548 . S
C652 N101 1.547 . S
C661 N464 1.545 . S
C663 N134 1.544 . S
C672 N497 1.548 . S
C674 N167 1.547 . S
C683 N398 1.542 . S
C685 N200 1.543 . S
C694 N431 1.539 . S
C696 N233 1.540 . S
C705 C21 0.715 . S
C707 C87 0.688 . S
C716 C120 0.703 . S
C718 C54 0.696 . S
C727 C219 0.712 . S
C729 C153 0.690 . S
C738 C252 0.716 . S
C740 C186 0.688 . S
C749 C285 0.707 . S
C751 C351 0.696 . S
C760 C384 0.689 . S
C762 C318 0.709 . S
C771 C417 0.687 . S
C773 C483 0.711 . S
C782 C450 0.718 . S
C784 C516 0.687 . S
C793 C469 1.754 . S
C795 C18 1.923 . S
C804 C51 1.920 . S
C806 C502 1.757 . S
C815 C403 1.758 . S
C817 C84 1.921 . S
C826 C436 1.756 . S
C828 C117 1.922 . S
C837 C337 1.760 . S
C839 C150 1.920 . S
C848 C183 1.928 . S
C850 C370 1.748 . S
C859 C271 1.756 . S
C861 C216 1.921 . S
C870 C249 1.921 . S
C872 C304 1.755 . S
C881 C205 1.747 . S
C883 C282 1.927 . S
C892 C238 1.753 . S
C894 C315 1.922 . S
C903 C139 1.747 . S
C905 C348 1.927 . S
C914 C381 1.928 . S
C916 C172 1.748 . S
C925 C73 1.757 . S
C927 C414 1.921 . S
C936 C447 1.928 . S
C938 C106 1.748 . S
C947 C480 1.919 . S
C949 C7 1.758 . S
C958 C40 1.747 . S
C960 C513 1.926 . S
