# Generated by pormake.
# Topology whk, (6)-cn, num edge types: 1
# Building blocks:
#     Node 0, Type 0, BuildingBlock: VOLQOD_clean_sbu_1, # of connection points: 6
#     Node 1, Type 0, BuildingBlock: VOLQOD_clean_sbu_1, # of connection points: 6
#     Node 2, Type 0, BuildingBlock: VOLQOD_clean_sbu_1, # of connection points: 6
#     Node 3, Type 0, BuildingBlock: VOLQOD_clean_sbu_1, # of connection points: 6
#     Node 4, Type 0, BuildingBlock: VOLQOD_clean_sbu_1, # of connection points: 6
#     Node 5, Type 0, BuildingBlock: VOLQOD_clean_sbu_1, # of connection points: 6
#     Node 6, Type 0, BuildingBlock: VOLQOD_clean_sbu_1, # of connection points: 6
#     Node 7, Type 0, BuildingBlock: VOLQOD_clean_sbu_1, # of connection points: 6
#     Node 8, Type 0, BuildingBlock: VOLQOD_clean_sbu_1, # of connection points: 6
#     Node 9, Type 0, BuildingBlock: VOLQOD_clean_sbu_1, # of connection points: 6
#     Node 10, Type 0, BuildingBlock: VOLQOD_clean_sbu_1, # of connection points: 6
#     Node 11, Type 0, BuildingBlock: VOLQOD_clean_sbu_1, # of connection points: 6
#     Node 12, Type 0, BuildingBlock: VOLQOD_clean_sbu_1, # of connection points: 6
#     Node 13, Type 0, BuildingBlock: VOLQOD_clean_sbu_1, # of connection points: 6
#     Node 14, Type 0, BuildingBlock: VOLQOD_clean_sbu_1, # of connection points: 6
#     Node 15, Type 0, BuildingBlock: VOLQOD_clean_sbu_1, # of connection points: 6
#     Edge 16, Type (0, 0), BuildingBlock: EZIPEK_clean_linker_0, # of connection points: 2
#     Edge 17, Type (0, 0), BuildingBlock: EZIPEK_clean_linker_0, # of connection points: 2
#     Edge 18, Type (0, 0), BuildingBlock: EZIPEK_clean_linker_0, # of connection points: 2
#     Edge 19, Type (0, 0), BuildingBlock: EZIPEK_clean_linker_0, # of connection points: 2
#     Edge 20, Type (0, 0), BuildingBlock: EZIPEK_clean_linker_0, # of connection points: 2
#     Edge 21, Type (0, 0), BuildingBlock: EZIPEK_clean_linker_0, # of connection points: 2
#     Edge 22, Type (0, 0), BuildingBlock: EZIPEK_clean_linker_0, # of connection points: 2
#     Edge 23, Type (0, 0), BuildingBlock: EZIPEK_clean_linker_0, # of connection points: 2
#     Edge 24, Type (0, 0), BuildingBlock: EZIPEK_clean_linker_0, # of connection points: 2
#     Edge 25, Type (0, 0), BuildingBlock: EZIPEK_clean_linker_0, # of connection points: 2
#     Edge 26, Type (0, 0), BuildingBlock: EZIPEK_clean_linker_0, # of connection points: 2
#     Edge 27, Type (0, 0), BuildingBlock: EZIPEK_clean_linker_0, # of connection points: 2
#     Edge 28, Type (0, 0), BuildingBlock: EZIPEK_clean_linker_0, # of connection points: 2
#     Edge 29, Type (0, 0), BuildingBlock: EZIPEK_clean_linker_0, # of connection points: 2
#     Edge 30, Type (0, 0), BuildingBlock: EZIPEK_clean_linker_0, # of connection points: 2
#     Edge 31, Type (0, 0), BuildingBlock: EZIPEK_clean_linker_0, # of connection points: 2
#     Edge 32, Type (0, 0), BuildingBlock: EZIPEK_clean_linker_0, # of connection points: 2
#     Edge 33, Type (0, 0), BuildingBlock: EZIPEK_clean_linker_0, # of connection points: 2
#     Edge 34, Type (0, 0), BuildingBlock: EZIPEK_clean_linker_0, # of connection points: 2
#     Edge 35, Type (0, 0), BuildingBlock: EZIPEK_clean_linker_0, # of connection points: 2
#     Edge 36, Type (0, 0), BuildingBlock: EZIPEK_clean_linker_0, # of connection points: 2
#     Edge 37, Type (0, 0), BuildingBlock: EZIPEK_clean_linker_0, # of connection points: 2
#     Edge 38, Type (0, 0), BuildingBlock: EZIPEK_clean_linker_0, # of connection points: 2
#     Edge 39, Type (0, 0), BuildingBlock: EZIPEK_clean_linker_0, # of connection points: 2
#     Edge 40, Type (0, 0), BuildingBlock: EZIPEK_clean_linker_0, # of connection points: 2
#     Edge 41, Type (0, 0), BuildingBlock: EZIPEK_clean_linker_0, # of connection points: 2
#     Edge 42, Type (0, 0), BuildingBlock: EZIPEK_clean_linker_0, # of connection points: 2
#     Edge 43, Type (0, 0), BuildingBlock: EZIPEK_clean_linker_0, # of connection points: 2
#     Edge 44, Type (0, 0), BuildingBlock: EZIPEK_clean_linker_0, # of connection points: 2
#     Edge 45, Type (0, 0), BuildingBlock: EZIPEK_clean_linker_0, # of connection points: 2
#     Edge 46, Type (0, 0), BuildingBlock: EZIPEK_clean_linker_0, # of connection points: 2
#     Edge 47, Type (0, 0), BuildingBlock: EZIPEK_clean_linker_0, # of connection points: 2
#     Edge 48, Type (0, 0), BuildingBlock: EZIPEK_clean_linker_0, # of connection points: 2
#     Edge 49, Type (0, 0), BuildingBlock: EZIPEK_clean_linker_0, # of connection points: 2
#     Edge 50, Type (0, 0), BuildingBlock: EZIPEK_clean_linker_0, # of connection points: 2
#     Edge 51, Type (0, 0), BuildingBlock: EZIPEK_clean_linker_0, # of connection points: 2
#     Edge 52, Type (0, 0), BuildingBlock: EZIPEK_clean_linker_0, # of connection points: 2
#     Edge 53, Type (0, 0), BuildingBlock: EZIPEK_clean_linker_0, # of connection points: 2
#     Edge 54, Type (0, 0), BuildingBlock: EZIPEK_clean_linker_0, # of connection points: 2
#     Edge 55, Type (0, 0), BuildingBlock: EZIPEK_clean_linker_0, # of connection points: 2
#     Edge 56, Type (0, 0), BuildingBlock: EZIPEK_clean_linker_0, # of connection points: 2
#     Edge 57, Type (0, 0), BuildingBlock: EZIPEK_clean_linker_0, # of connection points: 2
#     Edge 58, Type (0, 0), BuildingBlock: EZIPEK_clean_linker_0, # of connection points: 2
#     Edge 59, Type (0, 0), BuildingBlock: EZIPEK_clean_linker_0, # of connection points: 2
#     Edge 60, Type (0, 0), BuildingBlock: EZIPEK_clean_linker_0, # of connection points: 2
#     Edge 61, Type (0, 0), BuildingBlock: EZIPEK_clean_linker_0, # of connection points: 2
#     Edge 62, Type (0, 0), BuildingBlock: EZIPEK_clean_linker_0, # of connection points: 2
#     Edge 63, Type (0, 0), BuildingBlock: EZIPEK_clean_linker_0, # of connection points: 2
# Relax obj value: 0.404
# Max RMSD: 0.246
# Mean RMSD: 0.242
data_MOF--net-whk--node1-VOLQOD_clean_sbu_1--edge1-EZIPEK_clean_linker_0
_symmetry_space_group_name_H-M    P1
_symmetry_Int_Tables_number       1
_symmetry_cell_setting            triclinic
loop_
_symmetry_equiv_pos_as_xyz
'x, y, z'
_cell_length_a     28.42553
_cell_length_b     28.426239
_cell_length_c     41.788379
_cell_angle_alpha  90.29205
_cell_angle_beta   90.198822
_cell_angle_gamma 89.900781
loop_
_atom_site_label
_atom_site_type_symbol
_atom_site_fract_x
_atom_site_fract_y
_atom_site_fract_z
_atom_type_partial_charge
O0 O 0.58006 0.24343 0.44366 0.0
Zn1 Zn 0.56714 0.23024 0.39786 0.0
O2 O 0.54774 0.16687 0.39236 0.0
Zn3 Zn 0.59663 0.13212 0.37108 0.0
Zn4 Zn 0.5339 0.14066 0.4339 0.0
Zn5 Zn 0.49472 0.16781 0.36439 0.0
O6 O 0.57174 0.09717 0.33302 0.0
O7 O 0.51479 0.14746 0.31942 0.0
O8 O 0.62118 0.24548 0.37073 0.0
O9 O 0.64303 0.17635 0.35178 0.0
O10 O 0.63363 0.09396 0.40296 0.0
O11 O 0.59041 0.10129 0.44714 0.0
O12 O 0.47144 0.10414 0.43034 0.0
O13 O 0.51686 0.27505 0.38791 0.0
O14 O 0.45021 0.12099 0.38007 0.0
O15 O 0.45944 0.23007 0.36935 0.0
C16 C 0.55888 0.22948 0.46869 0.0
C17 C 0.54407 0.1148 0.31216 0.0
C18 C 0.62757 0.08739 0.43282 0.0
C19 C 0.64772 0.22072 0.35297 0.0
C20 C 0.44358 0.09982 0.40631 0.0
C21 C 0.4744 0.26976 0.37943 0.0
O22 O 0.53313 0.19262 0.46827 0.0
O23 O 0.23099 0.58312 0.44239 0.0
Zn24 Zn 0.2502 0.57543 0.39672 0.0
O25 O 0.31217 0.55152 0.39361 0.0
Zn26 Zn 0.35496 0.59832 0.38012 0.0
Zn27 Zn 0.32927 0.52599 0.43432 0.0
Zn28 Zn 0.31405 0.50837 0.35879 0.0
O29 O 0.40051 0.57306 0.34756 0.0
O30 O 0.34421 0.53795 0.31968 0.0
O31 O 0.24413 0.6337 0.37095 0.0
O32 O 0.31814 0.64874 0.35806 0.0
O33 O 0.38563 0.62719 0.41841 0.0
O34 O 0.37191 0.57489 0.45689 0.0
O35 O 0.35817 0.46067 0.42568 0.0
O36 O 0.20606 0.52708 0.38133 0.0
O37 O 0.35504 0.45669 0.37232 0.0
O38 O 0.25019 0.47817 0.35256 0.0
C39 C 0.23714 0.55224 0.46401 0.0
C40 C 0.38401 0.55877 0.32091 0.0
C41 C 0.38933 0.61391 0.44735 0.0
C42 C 0.27443 0.65814 0.35602 0.0
C43 C 0.36711 0.43957 0.39916 0.0
C44 C 0.21085 0.48992 0.3648 0.0
O45 O 0.27048 0.52209 0.46242 0.0
O46 O 0.9094 0.25839 0.45457 0.0
Zn47 Zn 0.91016 0.2646 0.40739 0.0
O48 O 0.93939 0.32117 0.39474 0.0
Zn49 Zn 0.89456 0.36592 0.38087 0.0
Zn50 Zn 0.97064 0.34275 0.43224 0.0
Zn51 Zn 0.97838 0.31016 0.35861 0.0
O52 O 0.91461 0.39998 0.34122 0.0
O53 O 0.94665 0.33664 0.31837 0.0
O54 O 0.84666 0.25775 0.38749 0.0
O55 O 0.83956 0.32922 0.36677 0.0
O56 O 0.87206 0.40573 0.41752 0.0
O57 O 0.92312 0.38452 0.45535 0.0
O58 O 0.03046 0.37537 0.41689 0.0
O59 O 0.95195 0.21258 0.39497 0.0
O60 O 0.03453 0.3499 0.36606 0.0
O61 O -0.00081 0.24106 0.35753 0.0
C62 C 0.94758 0.25971 0.47053 0.0
C63 C 0.92727 0.37724 0.31629 0.0
C64 C 0.88587 0.40624 0.44654 0.0
C65 C 0.82407 0.288 0.37113 0.0
C66 C 0.05051 0.37395 0.38946 0.0
C67 C 0.98607 0.20757 0.37575 0.0
O68 O 0.98145 0.28661 0.4623 0.0
O69 O 0.1556 0.94771 0.32719 0.0
Zn70 Zn 0.19818 0.94012 0.36584 0.0
O71 O 0.16299 0.93725 0.40548 0.0
Zn72 Zn 0.17587 0.99167 0.43163 0.0
Zn73 Zn 0.09783 0.93232 0.39368 0.0
Zn74 Zn 0.18136 0.88475 0.43048 0.0
O75 O 0.1975 0.97575 0.47712 0.0
O76 O 0.22609 0.90483 0.46533 0.0
O77 O 0.25243 0.9857 0.36924 0.0
O78 O 0.23522 0.01971 0.41578 0.0
O79 O 0.12315 0.03913 0.42549 0.0
O80 O 0.07261 -0.00169 0.39516 0.0
O81 O 0.06342 0.88574 0.42312 0.0
O82 O 0.2257 0.87722 0.3576 0.0
O83 O 0.1245 0.85448 0.44916 0.0
O84 O 0.21036 0.83711 0.40194 0.0
C85 C 0.11625 0.92678 0.32324 0.0
C86 C 0.22482 0.94112 0.48331 0.0
C87 C 0.08604 0.03679 0.40812 0.0
C88 C 0.26257 0.01374 0.39214 0.0
C89 C 0.08046 0.85737 0.44386 0.0
C90 C 0.22629 0.83946 0.37362 0.0
O91 O 0.0922 0.9124 0.34701 0.0
O92 O 0.04227 0.82945 0.19165 0.0
Zn93 Zn 0.05113 0.78482 0.15415 0.0
O94 O 0.05252 0.81894 0.11423 0.0
Zn95 Zn -0.00253 0.80637 0.08926 0.0
Zn96 Zn 0.05801 0.88453 0.12453 0.0
Zn97 Zn 0.10288 0.79822 0.0882 0.0
O98 O 0.01116 0.78758 0.04315 0.0
O99 O 0.07978 0.75353 0.05417 0.0
O100 O 0.00571 0.72956 0.1513 0.0
O101 O 0.97093 0.7468 0.10505 0.0
O102 O 0.94986 0.85755 0.09724 0.0
O103 O 0.99214 0.91061 0.12441 0.0
O104 O 0.10345 0.91673 0.09305 0.0
O105 O 0.11554 0.75965 0.16236 0.0
O106 O 0.13224 0.85364 0.06771 0.0
O107 O 0.15195 0.76972 0.11581 0.0
C108 C 0.06328 0.86892 0.19489 0.0
C109 C 0.04352 0.75791 0.03639 0.0
C110 C 0.95299 0.89577 0.11331 0.0
C111 C 0.97725 0.71945 0.12859 0.0
C112 C 0.13022 0.89793 0.07194 0.0
C113 C 0.15196 0.75697 0.14492 0.0
O114 O 0.07886 0.89152 0.17081 0.0
O115 O 0.64934 0.0425 0.18853 0.0
Zn116 Zn 0.69872 0.04823 0.15407 0.0
O117 O 0.67122 0.04443 0.11127 0.0
Zn118 Zn 0.69334 0.98835 0.09047 0.0
Zn119 Zn 0.60322 0.04412 0.11468 0.0
Zn120 Zn 0.69277 0.09504 0.08523 0.0
O121 O 0.71513 -0.00154 0.04463 0.0
O122 O 0.73834 0.07249 0.05157 0.0
O123 O 0.75632 0.00615 0.15835 0.0
O124 O 0.75283 0.96926 0.11135 0.0
O125 O 0.6461 0.93718 0.09754 0.0
O126 O 0.58035 0.97702 0.10854 0.0
O127 O 0.57364 0.09217 0.08382 0.0
O128 O 0.72206 0.11313 0.16141 0.0
O129 O 0.63805 0.12611 0.06429 0.0
O130 O 0.72156 0.14452 0.11274 0.0
C131 C 0.60644 0.05576 0.18708 0.0
C132 C 0.73947 0.03388 0.03596 0.0
C133 C 0.60247 0.93825 0.10454 0.0
C134 C 0.77381 0.9784 0.13747 0.0
C135 C 0.59353 0.12248 0.06586 0.0
C136 C 0.72983 0.14706 0.1426 0.0
O137 O 0.58534 0.06145 0.16033 0.0
O138 O 0.40107 0.73502 0.06338 0.0
Zn139 Zn 0.4142 0.7224 0.10945 0.0
O140 O 0.4377 0.6601 0.11483 0.0
Zn141 Zn 0.39128 0.62135 0.13474 0.0
Zn142 Zn 0.45287 0.63586 0.07317 0.0
Zn143 Zn 0.49037 0.66231 0.14313 0.0
O144 O 0.41715 0.58591 0.17225 0.0
O145 O 0.47052 0.63938 0.18669 0.0
O146 O 0.35837 0.73418 0.13737 0.0
O147 O 0.34366 0.66262 0.15504 0.0
O148 O 0.35503 0.58407 0.10182 0.0
O149 O 0.39534 0.59907 0.05736 0.0
O150 O 0.51395 0.5969 0.07733 0.0
O151 O 0.46434 0.76858 0.11936 0.0
O152 O 0.53715 0.61739 0.12669 0.0
O153 O 0.52078 0.72696 0.14298 0.0
C154 C 0.42945 0.72562 0.04071 0.0
C155 C 0.44321 0.60519 0.19348 0.0
C156 C 0.35954 0.58181 0.0715 0.0
C157 C 0.3348 0.70636 0.15492 0.0
C158 C 0.5428 0.59426 0.10092 0.0
C159 C 0.50507 0.7655 0.13167 0.0
O160 O 0.45868 0.69145 0.04243 0.0
O161 O 0.76379 0.3942 0.051 0.0
Zn162 Zn 0.7681 0.40558 0.09805 0.0
O163 O 0.826 0.43452 0.10862 0.0
Zn164 Zn 0.86701 0.39075 0.12875 0.0
Zn165 Zn 0.85249 0.45504 0.06934 0.0
Zn166 Zn 0.81525 0.48266 0.13929 0.0
O167 O 0.90006 0.41866 0.16648 0.0
O168 O 0.83778 0.45981 0.18281 0.0
O169 O 0.75814 0.34897 0.12525 0.0
O170 O 0.82791 0.34121 0.14823 0.0
O171 O 0.90702 0.35769 0.09634 0.0
O172 O 0.89235 0.40005 0.05267 0.0
O173 O 0.88726 0.51727 0.07932 0.0
O174 O 0.71631 0.45077 0.10531 0.0
O175 O 0.85684 0.53472 0.12736 0.0
O176 O 0.74747 0.50634 0.13639 0.0
C177 C 0.7691 0.42798 0.0314 0.0
C178 C 0.8762 0.43786 0.18879 0.0
C179 C 0.91003 0.36384 0.06624 0.0
C180 C 0.78527 0.32887 0.14535 0.0
C181 C 0.88363 0.54414 0.10399 0.0
C182 C 0.71297 0.48943 0.1204 0.0
O183 O 0.79844 0.46117 0.03696 0.0
O184 O 0.40842 0.74877 0.5659 0.0
Zn185 Zn 0.42471 0.76375 0.611 0.0
O186 O 0.44878 0.82551 0.61501 0.0
Zn187 Zn 0.40401 0.86776 0.63399 0.0
Zn188 Zn 0.46199 0.84585 0.57244 0.0
Zn189 Zn 0.50171 0.82272 0.64307 0.0
O190 O 0.42656 0.89609 0.67489 0.0
O191 O 0.48128 0.84334 0.68816 0.0
O192 O 0.36863 0.75478 0.63739 0.0
O193 O 0.34901 0.82947 0.64604 0.0
O194 O 0.37628 0.91426 0.60278 0.0
O195 O 0.40459 0.88355 0.55784 0.0
O196 O 0.52219 0.88552 0.5759 0.0
O197 O 0.47297 0.71655 0.62032 0.0
O198 O 0.54598 0.86983 0.62603 0.0
O199 O 0.53278 0.75754 0.64033 0.0
C200 C 0.43476 0.75555 0.54188 0.0
C201 C 0.45296 0.8767 0.69564 0.0
C202 C 0.37453 0.90917 0.57252 0.0
C203 C 0.33997 0.78582 0.64725 0.0
C204 C 0.55041 0.89145 0.59961 0.0
C205 C 0.51508 0.71895 0.63015 0.0
O206 O 0.46515 0.78874 0.54172 0.0
O207 O 0.76262 0.41319 0.57424 0.0
Zn208 Zn 0.73965 0.42216 0.61799 0.0
O209 O 0.67503 0.43674 0.6197 0.0
Zn210 Zn 0.64076 0.38313 0.63391 0.0
Zn211 Zn 0.65472 0.45702 0.57779 0.0
Zn212 Zn 0.66848 0.4817 0.65392 0.0
O213 O 0.59131 0.40235 0.66568 0.0
O214 O 0.63748 0.45127 0.69279 0.0
O215 O 0.75502 0.36902 0.64551 0.0
O216 O 0.68542 0.33891 0.65685 0.0
O217 O 0.61276 0.34985 0.59591 0.0
O218 O 0.61187 0.40592 0.55875 0.0
O219 O 0.62113 0.52129 0.58418 0.0
O220 O 0.77636 0.47516 0.63183 0.0
O221 O 0.62632 0.53042 0.6374 0.0
O222 O 0.72932 0.51759 0.66279 0.0
C223 C 0.75035 0.43339 0.5485 0.0
C224 C 0.60281 0.42265 0.69176 0.0
C225 C 0.60198 0.36426 0.56802 0.0
C226 C 0.73006 0.33898 0.65999 0.0
C227 C 0.61217 0.54408 0.6101 0.0
C228 C 0.76898 0.51045 0.6495 0.0
O229 O 0.7119 0.45701 0.54672 0.0
O230 O 0.06339 0.7379 0.55484 0.0
Zn231 Zn 0.06045 0.7315 0.60193 0.0
O232 O 0.0416 0.67101 0.61491 0.0
Zn233 Zn 0.09451 0.63509 0.62896 0.0
Zn234 Zn 0.01295 0.6446 0.57705 0.0
Zn235 Zn 0.00169 0.67845 0.65137 0.0
O236 O 0.08302 0.60236 0.6706 0.0
O237 O 0.03244 0.65337 0.69217 0.0
O238 O 0.11985 0.74951 0.62154 0.0
O239 O 0.14701 0.67996 0.63758 0.0
O240 O 0.1172 0.59267 0.5938 0.0
O241 O 0.06394 0.60442 0.55535 0.0
O242 O 0.95304 0.61083 0.59225 0.0
O243 O 0.01355 0.77744 0.61434 0.0
O244 O 0.94849 0.63709 0.64287 0.0
O245 O 0.97356 0.74429 0.65383 0.0
C246 C 0.02916 0.72797 0.53642 0.0
C247 C 0.06088 0.61866 0.6947 0.0
C248 C 0.10342 0.58786 0.56491 0.0
C249 C 0.1514 0.72416 0.63421 0.0
C250 C 0.93272 0.6129 0.61961 0.0
C251 C 0.98162 0.77879 0.63526 0.0
O252 O -0.0009 0.69653 0.54395 0.0
O253 O 0.7677 0.09496 0.54593 0.0
Zn254 Zn 0.77154 0.08833 0.59357 0.0
O255 O 0.82719 0.05594 0.60541 0.0
Zn256 Zn 0.87306 0.09504 0.62499 0.0
Zn257 Zn 0.8519 0.03007 0.56702 0.0
Zn258 Zn 0.81333 0.01252 0.63808 0.0
O259 O 0.90166 0.06766 0.66485 0.0
O260 O 0.83372 0.03807 0.68148 0.0
O261 O 0.76841 0.14943 0.61786 0.0
O262 O 0.8385 0.14924 0.64195 0.0
O263 O 0.91687 0.12155 0.59219 0.0
O264 O 0.89591 0.08001 0.54911 0.0
O265 O 0.88259 0.96758 0.57968 0.0
O266 O 0.71663 0.04652 0.60232 0.0
O267 O 0.85343 0.95814 0.62907 0.0
O268 O 0.746 0.99132 0.63429 0.0
C269 C 0.77117 0.05931 0.52742 0.0
C270 C 0.87463 0.05466 0.68744 0.0
C271 C 0.91814 0.1142 0.56209 0.0
C272 C 0.79857 0.16771 0.63689 0.0
C273 C 0.87871 0.94446 0.60581 0.0
C274 C 0.71226 0.00842 0.61783 0.0
O275 O 0.79823 0.02476 0.53432 0.0
O276 O 0.90069 0.22033 0.95671 0.0
Zn277 Zn 0.90522 0.21419 0.90931 0.0
O278 O 0.93441 0.15644 0.89749 0.0
Zn279 Zn 0.89052 0.11333 0.87934 0.0
Zn280 Zn 0.96127 0.13129 0.93581 0.0
Zn281 Zn 0.97886 0.16751 0.86435 0.0
O282 O 0.91364 0.08428 0.83827 0.0
O283 O 0.95126 0.14803 0.82129 0.0
O284 O 0.84238 0.22035 0.88815 0.0
O285 O 0.83471 0.14952 0.86579 0.0
O286 O 0.86743 0.0683 0.91266 0.0
O287 O 0.91391 0.08434 0.95385 0.0
O288 O 0.02325 0.09966 0.923 0.0
O289 O 0.94803 0.26705 0.89848 0.0
O290 O 0.03233 0.12455 0.87263 0.0
O291 O 0.00271 0.2347 0.86731 0.0
C292 C 0.93585 0.21478 0.97525 0.0
C293 C 0.93058 0.10893 0.81567 0.0
C294 C 0.87908 0.06186 0.94177 0.0
C295 C 0.81942 0.1907 0.87132 0.0
C296 C 0.04574 0.10033 0.8965 0.0
C297 C 0.98626 0.26974 0.88292 0.0
O298 O 0.96833 0.18501 0.96878 0.0
O299 O 0.24709 0.90708 0.95381 0.0
Zn300 Zn 0.26008 0.90781 0.90668 0.0
O301 O 0.32 0.93426 0.89751 0.0
Zn302 Zn 0.36211 0.88836 0.88081 0.0
Zn303 Zn 0.34381 0.95858 0.93722 0.0
Zn304 Zn 0.31526 0.9783 0.86348 0.0
O305 O 0.4009 0.91084 0.84413 0.0
O306 O 0.34293 0.95184 0.82184 0.0
O307 O 0.25453 0.84425 0.88654 0.0
O308 O 0.32393 0.83705 0.8625 0.0
O309 O 0.39835 0.85848 0.91615 0.0
O310 O 0.38312 0.90625 0.95729 0.0
O311 O 0.37807 0.01972 0.92711 0.0
O312 O 0.21062 0.95122 0.8908 0.0
O313 O 0.35533 0.03133 0.87631 0.0
O314 O 0.24878 0.00358 0.86114 0.0
C315 C 0.25685 0.93959 0.97384 0.0
C316 C 0.38206 0.92976 0.8197 0.0
C317 C 0.40072 0.86838 0.94583 0.0
C318 C 0.28301 0.82191 0.86852 0.0
C319 C 0.37775 0.04382 0.90129 0.0
C320 C 0.2113 0.98863 0.87433 0.0
O321 O 0.28996 0.96891 0.96873 0.0
O322 O 0.57419 0.24759 0.95294 0.0
Zn323 Zn 0.56304 0.25923 0.90673 0.0
O324 O 0.54218 0.32142 0.89807 0.0
Zn325 Zn 0.59225 0.35458 0.87714 0.0
Zn326 Zn 0.5269 0.34811 0.93926 0.0
Zn327 Zn 0.48951 0.31933 0.86943 0.0
O328 O 0.57014 0.38849 0.83797 0.0
O329 O 0.50807 0.3439 0.82599 0.0
O330 O 0.6173 0.24141 0.88029 0.0
O331 O 0.63846 0.30869 0.85879 0.0
O332 O 0.62809 0.39297 0.90951 0.0
O333 O 0.58494 0.38477 0.95374 0.0
O334 O 0.46618 0.38696 0.93448 0.0
O335 O 0.51316 0.21486 0.89646 0.0
O336 O 0.4419 0.36271 0.88617 0.0
O337 O 0.45972 0.25447 0.86847 0.0
C338 C 0.54615 0.25966 0.97516 0.0
C339 C 0.53961 0.37349 0.81796 0.0
C340 C 0.62207 0.39887 0.9395 0.0
C341 C 0.6432 0.26446 0.86131 0.0
C342 C 0.43646 0.38717 0.91136 0.0
C343 C 0.47432 0.21687 0.88171 0.0
O344 O 0.51891 0.29521 0.9722 0.0
O345 O 0.21718 0.58656 0.96084 0.0
Zn346 Zn 0.21283 0.57265 0.91421 0.0
O347 O 0.15394 0.54731 0.90243 0.0
Zn348 Zn 0.11786 0.59542 0.88215 0.0
Zn349 Zn 0.12627 0.52681 0.94155 0.0
Zn350 Zn 0.1631 0.49881 0.87128 0.0
O351 O 0.08549 0.57119 0.84299 0.0
O352 O 0.14386 0.52403 0.82741 0.0
O353 O 0.22899 0.62571 0.88619 0.0
O354 O 0.16088 0.64336 0.86372 0.0
O355 O 0.07574 0.62669 0.91427 0.0
O356 O 0.08105 0.5788 0.95583 0.0
O357 O 0.09275 0.46423 0.93168 0.0
O358 O 0.26154 0.52497 0.90797 0.0
O359 O 0.11863 0.44788 0.88227 0.0
O360 O 0.23007 0.47235 0.8747 0.0
C361 C 0.20965 0.55426 0.98116 0.0
C362 C 0.10833 0.55014 0.82095 0.0
C363 C 0.06443 0.61601 0.9428 0.0
C364 C 0.20495 0.64938 0.86621 0.0
C365 C 0.0935 0.43828 0.90649 0.0
C366 C 0.26428 0.48726 0.89187 0.0
O367 O 0.17883 0.52228 0.97587 0.0
C368 C 0.55156 0.05168 0.2704 0.0
C369 C 0.55104 0.10029 0.27828 0.0
C370 C 0.57474 0.1189 0.22337 0.0
C371 C 0.58272 0.07028 0.21724 0.0
N372 N 0.58327 0.9903 0.23627 0.0
N373 N 0.57097 0.18008 0.26361 0.0
C374 C 0.57226 0.03657 0.24112 0.0
C375 C 0.56431 0.13405 0.25503 0.0
N376 N 0.53159 0.02006 0.29077 0.0
N377 N 0.57815 0.15099 0.19925 0.0
H378 H 0.56577 0.193 0.28669 0.0
H379 H 0.5863 0.20477 0.24856 0.0
H380 H 0.58746 0.14214 0.17594 0.0
H381 H 0.56762 0.18595 0.20175 0.0
H382 H 0.52696 0.98465 0.28508 0.0
H383 H 0.51531 0.03026 0.31206 0.0
H384 H 0.5812 0.96495 0.25412 0.0
H385 H 0.5979 0.97784 0.21504 0.0
C386 C 0.43663 0.5453 0.23744 0.0
C387 C 0.43521 0.59293 0.22746 0.0
C388 C 0.41679 0.61751 0.28216 0.0
C389 C 0.40898 0.56983 0.29067 0.0
N390 N 0.41281 0.48746 0.27674 0.0
N391 N 0.41256 0.6734 0.23922 0.0
C392 C 0.41937 0.53338 0.26836 0.0
C393 C 0.42281 0.62891 0.24954 0.0
N394 N 0.4556 0.51183 0.21773 0.0
N395 N 0.4181 0.65241 0.30473 0.0
H396 H 0.41269 0.68326 0.21525 0.0
H397 H 0.3983 0.69919 0.25416 0.0
H398 H 0.41222 0.64739 0.32898 0.0
H399 H 0.4293 0.68642 0.29947 0.0
H400 H 0.46157 0.4772 0.22466 0.0
H401 H 0.46945 0.51978 0.19531 0.0
H402 H 0.41406 0.45965 0.26045 0.0
H403 H 0.40435 0.47732 0.29998 0.0
C404 C 0.8667 0.39288 0.27392 0.0
C405 C 0.91415 0.39606 0.28442 0.0
C406 C 0.93484 0.43502 0.2341 0.0
C407 C 0.88874 0.42616 0.22228 0.0
N408 N 0.81459 0.38542 0.2286 0.0
N409 N -0.00519 0.4164 0.2737 0.0
C410 C 0.85557 0.40223 0.24156 0.0
C411 C 0.94875 0.41597 0.26421 0.0
N412 N 0.83185 0.38129 0.29481 0.0
N413 N 0.96472 0.46279 0.21699 0.0
H414 H 0.00582 0.4043 0.29604 0.0
H415 H 0.0224 0.42587 0.25874 0.0
H416 H 0.95523 0.47794 0.1952 0.0
H417 H -0.00284 0.47425 0.22561 0.0
H418 H 0.79618 0.38339 0.2891 0.0
H419 H 0.83818 0.37447 0.31878 0.0
H420 H 0.79209 0.36291 0.24082 0.0
H421 H 0.80528 0.38931 0.20465 0.0
C422 C 0.06339 0.93489 0.27488 0.0
C423 C 0.10191 0.91258 0.29035 0.0
C424 C 0.11704 0.86533 0.24219 0.0
C425 C 0.07647 0.88486 0.22754 0.0
N426 N 0.00784 0.9344 0.23039 0.0
N427 N 0.15935 0.85002 0.29126 0.0
C428 C 0.04868 0.91866 0.24402 0.0
C429 C 0.12713 0.87605 0.27466 0.0
N430 N 0.04179 0.97232 0.28936 0.0
N431 N 0.14671 0.83733 0.22478 0.0
H432 H 0.16706 0.85625 0.31523 0.0
H433 H 0.17497 0.81952 0.28233 0.0
H434 H 0.14024 0.82815 0.20103 0.0
H435 H 0.17966 0.82654 0.23292 0.0
H436 H 0.01664 -0.00672 0.27819 0.0
H437 H 0.05137 0.9845 0.31206 0.0
H438 H 0.98337 0.95531 0.24231 0.0
H439 H -0.00315 0.92398 0.20758 0.0
C440 C 0.38591 0.87487 0.77303 0.0
C441 C 0.40135 0.91711 0.78789 0.0
C442 C 0.45577 0.93093 0.74338 0.0
C443 C 0.4421 0.88728 0.72958 0.0
N444 N 0.40138 0.81324 0.73431 0.0
N445 N 0.45503 0.98247 0.79005 0.0
C446 C 0.40966 0.85775 0.74551 0.0
C447 C 0.43768 0.94428 0.77394 0.0
N448 N 0.34709 0.85211 0.78441 0.0
N449 N 0.48519 0.95993 0.72688 0.0
H450 H 0.44117 -0.00594 0.8118 0.0
H451 H 0.48471 0.00102 0.78291 0.0
H452 H 0.50082 0.94995 0.70531 0.0
H453 H 0.49246 -0.00556 0.7337 0.0
H454 H 0.33104 0.82399 0.77264 0.0
H455 H 0.3279 0.86423 0.80398 0.0
H456 H 0.3827 0.78817 0.74715 0.0
H457 H 0.41668 0.79972 0.71358 0.0
C458 C 0.55585 0.3494 0.76119 0.0
C459 C 0.54601 0.38572 0.78374 0.0
C460 C 0.56124 0.44532 0.7426 0.0
C461 C 0.5783 0.40949 0.72188 0.0
N462 N 0.59286 0.32667 0.7116 0.0
N463 N 0.53721 0.46811 0.7962 0.0
C464 C 0.5747 0.36128 0.73083 0.0
C465 C 0.54787 0.43368 0.77443 0.0
N466 N 0.54912 0.30318 0.76902 0.0
N467 N 0.55609 0.49011 0.73129 0.0
H468 H 0.52331 0.46082 0.81872 0.0
H469 H 0.54365 0.5037 0.79252 0.0
H470 H 0.56399 0.49927 0.70776 0.0
H471 H 0.53993 0.51719 0.74402 0.0
H472 H 0.54673 0.27624 0.75213 0.0
H473 H 0.54336 0.2911 0.79211 0.0
H474 H 0.59594 0.29162 0.71827 0.0
H475 H 0.60865 0.33249 0.68965 0.0
C476 C 0.04126 0.56961 0.74278 0.0
C477 C 0.07292 0.59991 0.72676 0.0
C478 C 0.13054 0.59143 0.77033 0.0
C479 C 0.09773 0.56333 0.78735 0.0
N480 N 0.02128 0.52739 0.79133 0.0
N481 N 0.14518 0.644 0.7259 0.0
C482 C 0.05288 0.55289 0.77396 0.0
C483 C 0.11708 0.61162 0.74058 0.0
N484 N 0.00076 0.55583 0.72767 0.0
N485 N 0.17449 0.59934 0.78273 0.0
H486 H 0.137 0.65885 0.70382 0.0
H487 H 0.17496 0.6589 0.73631 0.0
H488 H 0.18484 0.58926 0.8056 0.0
H489 H 0.20203 0.61399 0.76985 0.0
H490 H 0.97824 0.53003 0.73625 0.0
H491 H 0.99081 0.56844 0.70525 0.0
H492 H 0.98615 0.52304 0.78493 0.0
H493 H 0.02977 0.51179 0.81315 0.0
C494 C 0.86459 0.10482 0.73643 0.0
C495 C 0.88797 0.06691 0.72081 0.0
C496 C 0.94284 0.05986 0.76618 0.0
C497 C 0.91784 0.09602 0.78237 0.0
N498 N 0.85244 0.15009 0.78498 0.0
N499 N 0.94558 0.00475 0.72143 0.0
C500 C 0.87813 0.1178 0.768 0.0
C501 C 0.92623 0.04349 0.73583 0.0
N502 N 0.83059 0.12974 0.72058 0.0
N503 N 0.98302 0.04209 0.77959 0.0
H504 H 0.93406 0.99197 0.6993 0.0
H505 H 0.97061 0.98319 0.73215 0.0
H506 H -0.00432 0.05321 0.80185 0.0
H507 H 0.00563 0.01884 0.768 0.0
H508 H 0.81701 0.16169 0.72862 0.0
H509 H 0.8175 0.12004 0.69824 0.0
H510 H 0.81949 0.16235 0.77793 0.0
H511 H 0.86282 0.16302 0.80727 0.0
C512 C 0.39574 0.027 0.3992 0.0
C513 C 0.39856 0.07468 0.40882 0.0
C514 C 0.31352 0.08369 0.402 0.0
C515 C 0.30993 0.0351 0.39455 0.0
N516 N 0.34679 0.95803 0.39337 0.0
N517 N 0.3603 0.14617 0.42561 0.0
C518 C 0.35082 0.00594 0.39499 0.0
C519 C 0.35733 0.10219 0.41237 0.0
N520 N 0.43604 0.00216 0.39336 0.0
N521 N 0.27545 0.11253 0.39781 0.0
H522 H 0.3921 0.16055 0.43347 0.0
H523 H 0.33103 0.16642 0.4316 0.0
H524 H 0.24326 0.1004 0.38902 0.0
H525 H 0.27699 0.149 0.39992 0.0
H526 H 0.43633 0.96921 0.38233 0.0
H527 H 0.46947 0.01583 0.39794 0.0
H528 H 0.375 0.93526 0.3971 0.0
H529 H 0.31476 0.94049 0.39157 0.0
C530 C 0.42925 0.38171 0.41756 0.0
C531 C 0.38974 0.3925 0.39826 0.0
C532 C 0.40413 0.32157 0.36599 0.0
C533 C 0.44161 0.30921 0.3867 0.0
N534 N 0.47433 0.31828 0.44006 0.0
N535 N 0.32968 0.36217 0.36242 0.0
C536 C 0.44936 0.33636 0.41501 0.0
C537 C 0.37392 0.35902 0.37511 0.0
N538 N 0.44943 0.41474 0.43706 0.0
N539 N 0.39837 0.29972 0.33708 0.0
H540 H 0.30522 0.3871 0.3702 0.0
H541 H 0.31561 0.33649 0.34729 0.0
H542 H 0.42107 0.27378 0.32855 0.0
H543 H 0.37378 0.311 0.3202 0.0
H544 H 0.48099 0.40869 0.44918 0.0
H545 H 0.43792 0.44945 0.43854 0.0
H546 H 0.47813 0.33602 0.46182 0.0
H547 H 0.48534 0.28332 0.4406 0.0
C548 C 0.13625 0.39053 0.39649 0.0
C549 C 0.09219 0.40311 0.38317 0.0
C550 C 0.12963 0.46449 0.35111 0.0
C551 C 0.17257 0.45536 0.36705 0.0
N552 N 0.21608 0.4144 0.4083 0.0
N553 N 0.04489 0.4552 0.35082 0.0
C554 C 0.1759 0.41938 0.3905 0.0
C555 C 0.08831 0.44084 0.36113 0.0
N556 N 0.14049 0.35035 0.41413 0.0
N557 N 0.12869 0.49552 0.32623 0.0
H558 H 0.01371 0.4392 0.35806 0.0
H559 H 0.03927 0.48527 0.33721 0.0
H560 H 0.15873 0.51316 0.3185 0.0
H561 H 0.09952 0.50061 0.31151 0.0
H562 H 0.17275 0.33645 0.42131 0.0
H563 H 0.11199 0.32874 0.41951 0.0
H564 H 0.21836 0.39295 0.42837 0.0
H565 H 0.24638 0.43422 0.40455 0.0
C566 C 0.01118 0.08174 0.39753 0.0
C567 C 0.06104 0.08077 0.39897 0.0
C568 C 0.06294 0.16379 0.38352 0.0
C569 C 0.01342 0.16315 0.37852 0.0
N570 N 0.94286 0.11678 0.37249 0.0
N571 N 0.1339 0.11733 0.38215 0.0
C572 C 0.98837 0.12047 0.38279 0.0
C573 C 0.08691 0.12067 0.38862 0.0
N574 N 0.98538 0.04695 0.41147 0.0
N575 N 0.08718 0.20519 0.3855 0.0
H576 H 0.15257 0.08579 0.38301 0.0
H577 H 0.15287 0.14482 0.372 0.0
H578 H 0.07157 0.23821 0.3838 0.0
H579 H 0.12246 0.20666 0.39237 0.0
H580 H 0.94887 0.04849 0.41348 0.0
H581 H 0.00066 0.01936 0.42419 0.0
H582 H 0.92427 0.08521 0.37274 0.0
H583 H 0.92571 0.14395 0.36039 0.0
C584 C 0.87433 0.89182 0.13991 0.0
C585 C 0.90906 0.91909 0.12407 0.0
C586 C 0.86004 0.98939 0.13115 0.0
C587 C 0.8222 0.96019 0.14072 0.0
N588 N 0.79215 0.88375 0.15401 0.0
N589 N 0.93546 -0.00592 0.1042 0.0
C590 C 0.82915 0.91145 0.1453 0.0
C591 C 0.90247 0.96823 0.1201 0.0
N592 N 0.88517 0.84797 0.15113 0.0
N593 N 0.85474 0.03718 0.13183 0.0
H594 H 0.96574 0.97938 0.0943 0.0
H595 H 0.93159 0.02951 0.09868 0.0
H596 H 0.82363 0.05348 0.13904 0.0
H597 H 0.88205 0.06075 0.12788 0.0
H598 H 0.86252 0.82835 0.16533 0.0
H599 H 0.91867 0.83319 0.14935 0.0
H600 H 0.7934 0.84712 0.15366 0.0
H601 H 0.75932 0.89762 0.1601 0.0
C602 C 0.56704 0.80905 0.1021 0.0
C603 C 0.53601 0.80683 0.12856 0.0
C604 C 0.55385 0.88871 0.1418 0.0
C605 C 0.5787 0.8932 0.1124 0.0
N606 N 0.6023 0.85881 0.06198 0.0
N607 N 0.4957 0.84543 0.17196 0.0
C608 C 0.58392 0.85354 0.09194 0.0
C609 C 0.52809 0.84699 0.14789 0.0
N610 N 0.57978 0.76877 0.08634 0.0
N611 N 0.55703 0.9229 0.16482 0.0
H612 H 0.4783 0.81459 0.17836 0.0
H613 H 0.48414 0.87529 0.1842 0.0
H614 H 0.57805 0.95263 0.16255 0.0
H615 H 0.54308 0.91921 0.18769 0.0
H616 H 0.60591 0.76776 0.06893 0.0
H617 H 0.56711 0.73565 0.09253 0.0
H618 H 0.60254 0.83203 0.04487 0.0
H619 H 0.61263 0.89128 0.0529 0.0
C620 C 0.58314 0.5188 0.1127 0.0
C621 C 0.58525 0.56447 0.09948 0.0
C622 C 0.67138 0.56046 0.09865 0.0
C623 C 0.6694 0.51712 0.11547 0.0
N624 N 0.62395 0.4571 0.14164 0.0
N625 N 0.63035 0.63112 0.08198 0.0
C626 C 0.62534 0.49664 0.12315 0.0
C627 C 0.62913 0.58588 0.09291 0.0
N628 N 0.54059 0.49683 0.11528 0.0
N629 N 0.71324 0.57627 0.08678 0.0
H630 H 0.60006 0.64967 0.07556 0.0
H631 H 0.661 0.65104 0.08083 0.0
H632 H 0.74508 0.55867 0.08999 0.0
H633 H 0.71596 0.6047 0.07128 0.0
H634 H 0.53671 0.46185 0.12202 0.0
H635 H 0.50921 0.51253 0.10784 0.0
H636 H 0.59307 0.44286 0.15071 0.0
H637 H 0.65419 0.44066 0.15038 0.0
C638 C 0.90486 0.67239 0.11969 0.0
C639 C 0.95373 0.67306 0.12659 0.0
C640 C 0.95771 0.58777 0.11705 0.0
C641 C 0.91015 0.58851 0.10675 0.0
N642 N 0.84029 0.6322 0.09331 0.0
N643 N 0.02871 0.63231 0.12716 0.0
C644 C 0.88433 0.63115 0.10656 0.0
C645 C 0.98078 0.63094 0.1243 0.0
N646 N 0.87791 0.71101 0.12657 0.0
N647 N 0.98045 0.54573 0.12079 0.0
H648 H 0.04755 0.66285 0.13217 0.0
H649 H 0.05036 0.60375 0.12184 0.0
H650 H 0.96534 0.51356 0.11448 0.0
H651 H 0.01301 0.54252 0.13209 0.0
H652 H 0.84136 0.71137 0.12484 0.0
H653 H 0.8918 0.74127 0.13721 0.0
H654 H 0.82127 0.66308 0.0897 0.0
H655 H 0.82462 0.60254 0.08304 0.0
C656 C 0.62457 -0.00242 0.61752 0.0
C657 C 0.67017 0.97927 0.61143 0.0
C658 C 0.63591 0.90529 0.59196 0.0
C659 C 0.59046 0.924 0.59742 0.0
N660 N 0.54026 0.98997 0.60917 0.0
N661 N 0.71885 0.92072 0.58517 0.0
C662 C 0.58445 0.97102 0.60803 0.0
C663 C 0.6758 0.9345 0.59646 0.0
N664 N 0.61972 0.03915 0.63379 0.0
N665 N 0.64092 0.85908 0.58332 0.0
H666 H 0.74899 0.94143 0.58689 0.0
H667 H 0.72394 0.89081 0.57111 0.0
H668 H 0.61234 0.83744 0.57785 0.0
H669 H 0.67312 0.84153 0.58325 0.0
H670 H 0.58761 0.05218 0.64184 0.0
H671 H 0.64838 0.05902 0.64166 0.0
H672 H 0.53353 0.02533 0.61391 0.0
H673 H 0.51033 0.97102 0.60252 0.0
C674 C 0.60396 0.63023 0.59785 0.0
C675 C 0.58449 0.58815 0.61019 0.0
C676 C 0.52691 0.6339 0.64079 0.0
C677 C 0.54367 0.67573 0.62654 0.0
N678 N 0.59222 0.71292 0.58656 0.0
N679 N 0.52167 0.54896 0.63782 0.0
C680 C 0.58066 0.6738 0.60371 0.0
C681 C 0.54404 0.58981 0.6299 0.0
N682 N 0.64567 0.62895 0.58171 0.0
N683 N 0.49546 0.63652 0.66543 0.0
H684 H 0.53296 0.5161 0.62959 0.0
H685 H 0.48956 0.54797 0.64971 0.0
H686 H 0.48309 0.66849 0.67451 0.0
H687 H 0.48532 0.60755 0.6789 0.0
H688 H 0.66451 0.65905 0.57574 0.0
H689 H 0.66308 0.5977 0.57608 0.0
H690 H 0.61491 0.71207 0.56704 0.0
H691 H 0.5764 0.74563 0.5901 0.0
C692 C 0.89216 0.54919 0.64855 0.0
C693 C 0.88953 0.5865 0.62621 0.0
C694 C 0.80355 0.58269 0.62672 0.0
C695 C 0.80641 0.54585 0.64946 0.0
N696 N 0.85112 0.50149 0.68755 0.0
N697 N 0.8437 0.64519 0.59855 0.0
C698 C 0.85019 0.53186 0.66232 0.0
C699 C 0.84545 0.60526 0.61663 0.0
N700 N 0.93479 0.5294 0.65569 0.0
N701 N 0.76105 0.5942 0.61346 0.0
H702 H 0.87371 0.66144 0.58953 0.0
H703 H 0.8128 0.66378 0.59405 0.0
H704 H 0.72936 0.58018 0.62148 0.0
H705 H 0.75733 0.61606 0.59369 0.0
H706 H 0.93878 0.49939 0.66961 0.0
H707 H 0.96619 0.54078 0.64545 0.0
H708 H 0.88161 0.49249 0.69998 0.0
H709 H 0.82026 0.48884 0.69791 0.0
C710 C 0.8851 0.85728 0.60477 0.0
C711 C 0.90604 0.9015 0.61129 0.0
C712 C 0.96804 0.86372 0.64278 0.0
C713 C 0.94989 0.81938 0.6336 0.0
N714 N 0.8939 0.7725 0.60391 0.0
N715 N 0.96881 0.948 0.63391 0.0
C716 C 0.90881 0.81569 0.61434 0.0
C717 C 0.94796 0.90506 0.62963 0.0
N718 N 0.84211 0.85523 0.59003 0.0
N719 N 0.00424 0.86584 0.66437 0.0
H720 H 0.95491 0.97898 0.62445 0.0
H721 H 0.00155 0.95274 0.64465 0.0
H722 H 0.01892 0.83568 0.67452 0.0
H723 H 0.01695 0.89696 0.67432 0.0
H724 H 0.82224 0.8246 0.58811 0.0
H725 H 0.82498 0.88493 0.58112 0.0
H726 H 0.86807 0.76774 0.58648 0.0
H727 H 0.90907 0.74107 0.61159 0.0
C728 C 0.13188 0.08687 0.90395 0.0
C729 C 0.08798 0.07097 0.89208 0.0
C730 C 0.12683 0.00642 0.86324 0.0
C731 C 0.17015 0.01998 0.87727 0.0
N732 N 0.21338 0.06835 0.91504 0.0
N733 N 0.0417 0.0134 0.86348 0.0
C734 C 0.17267 0.05911 0.8986 0.0
C735 C 0.0849 0.0301 0.8725 0.0
N736 N 0.13478 0.12918 0.91957 0.0
N737 N 0.12618 0.97156 0.84057 0.0
H738 H 0.01027 0.02992 0.86988 0.0
H739 H 0.03656 0.9814 0.8518 0.0
H740 H 0.15655 0.95381 0.83334 0.0
H741 H 0.09662 0.96279 0.82706 0.0
H742 H 0.16653 0.14547 0.92528 0.0
H743 H 0.10539 0.14982 0.92484 0.0
H744 H 0.21555 0.09258 0.93376 0.0
H745 H 0.24441 0.04932 0.91188 0.0
C746 C 0.44399 0.08899 0.87882 0.0
C747 C 0.40408 0.08796 0.89901 0.0
C748 C 0.40692 0.17346 0.90533 0.0
C749 C 0.4448 0.17469 0.88329 0.0
N750 N 0.49477 0.13575 0.84506 0.0
N751 N 0.3427 0.12857 0.92779 0.0
C752 C 0.4619 0.13296 0.86879 0.0
C753 C 0.38414 0.13002 0.9113 0.0
N754 N 0.46526 0.04777 0.86991 0.0
N755 N 0.39419 0.21328 0.92167 0.0
H756 H 0.3259 0.09718 0.93366 0.0
H757 H 0.32344 0.15847 0.9339 0.0
H758 H 0.4091 0.24614 0.91742 0.0
H759 H 0.37099 0.21328 0.9409 0.0
H760 H 0.49704 0.04609 0.85766 0.0
H761 H 0.45311 0.01491 0.87721 0.0
H762 H 0.50573 0.10706 0.8314 0.0
H763 H 0.50804 0.16779 0.83702 0.0
C764 C 0.35018 0.39345 0.91982 0.0
C765 C 0.39336 0.41582 0.91256 0.0
C766 C 0.35126 0.48091 0.88723 0.0
C767 C 0.30793 0.45969 0.89572 0.0
N768 N 0.26564 0.40054 0.9253 0.0
N769 N 0.436 0.48365 0.89469 0.0
C770 C 0.30716 0.41716 0.9134 0.0
C771 C 0.39412 0.46066 0.89806 0.0
N772 N 0.35043 0.34893 0.93205 0.0
N773 N 0.35127 0.51951 0.86781 0.0
H774 H 0.46786 0.46935 0.90247 0.0
H775 H 0.43885 0.51825 0.88692 0.0
H776 H 0.32041 0.53448 0.85883 0.0
H777 H 0.38158 0.53427 0.85826 0.0
H778 H 0.32044 0.32816 0.93393 0.0
H779 H 0.38133 0.3318 0.93895 0.0
H780 H 0.26356 0.3729 0.94148 0.0
H781 H 0.23325 0.41654 0.92092 0.0
C782 C 0.08591 0.35097 0.90904 0.0
C783 C 0.06447 0.39541 0.90423 0.0
C784 C -0.00497 0.35731 0.88082 0.0
C785 C 0.01503 0.31267 0.88764 0.0
N786 N 0.07544 0.26698 0.91433 0.0
N787 N -0.00335 0.44173 0.89002 0.0
C788 C 0.05952 0.30938 0.90325 0.0
C789 C 0.01827 0.39879 0.8916 0.0
N790 N 0.13186 0.34852 0.91872 0.0
N791 N 0.95478 0.35997 0.86289 0.0
H792 H 0.01305 0.47281 0.89735 0.0
H793 H 0.96137 0.44624 0.88402 0.0
H794 H 0.93756 0.33026 0.85396 0.0
H795 H 0.94073 0.39137 0.85438 0.0
H796 H 0.15143 0.31751 0.91852 0.0
H797 H 0.15139 0.37814 0.9252 0.0
H798 H 0.10482 0.26346 0.92907 0.0
H799 H 0.05708 0.23554 0.91154 0.0
C800 C 0.72942 0.21597 0.3303 0.0
C801 C 0.69002 0.24342 0.33921 0.0
C802 C 0.73936 0.30557 0.35979 0.0
C803 C 0.77886 0.2752 0.35643 0.0
N804 N 0.81477 0.21038 0.32786 0.0
N805 N 0.66043 0.32237 0.34112 0.0
C806 C 0.77507 0.23301 0.33811 0.0
C807 C 0.69636 0.29143 0.34611 0.0
N808 N 0.72273 0.17429 0.31463 0.0
N809 N 0.7412 0.34524 0.3784 0.0
H810 H 0.62885 0.3115 0.33057 0.0
H811 H 0.66416 0.35862 0.34409 0.0
H812 H 0.77061 0.35528 0.39167 0.0
H813 H 0.71156 0.3656 0.38339 0.0
H814 H 0.74914 0.14969 0.31039 0.0
H815 H 0.68998 0.16518 0.30506 0.0
H816 H 0.8146 0.18054 0.31336 0.0
H817 H 0.84846 0.22368 0.33193 0.0
C818 C 0.2114 0.71592 0.34298 0.0
C819 C 0.25929 0.70337 0.34164 0.0
C820 C 0.28311 0.78498 0.34685 0.0
C821 C 0.2367 0.79541 0.35688 0.0
N822 N 0.15401 0.77538 0.35761 0.0
N823 N 0.33341 0.72777 0.32049 0.0
C824 C 0.19965 0.76248 0.35211 0.0
C825 C 0.29309 0.73869 0.33636 0.0
N826 N 0.17816 0.6832 0.33517 0.0
N827 N 0.31784 0.81794 0.34932 0.0
H828 H 0.33771 0.69459 0.31012 0.0
H829 H 0.35866 0.7525 0.31414 0.0
H830 H 0.31149 0.85242 0.35681 0.0
H831 H 0.35325 0.81034 0.34551 0.0
H832 H 0.14222 0.69 0.33415 0.0
H833 H 0.18771 0.64988 0.32672 0.0
H834 H 0.12591 0.75199 0.35755 0.0
H835 H 0.14415 0.80996 0.3628 0.0
C836 C 0.25576 0.69089 0.17885 0.0
C837 C 0.29094 0.72354 0.17033 0.0
C838 C 0.23167 0.7836 0.16121 0.0
C839 C 0.19749 0.74713 0.16004 0.0
N840 N 0.1746 0.66725 0.17161 0.0
N841 N 0.31316 0.80465 0.17236 0.0
C842 C 0.20841 0.70131 0.17096 0.0
C843 C 0.27905 0.77151 0.16784 0.0
N844 N 0.26776 0.65113 0.19512 0.0
N845 N 0.21901 0.82895 0.15452 0.0
H846 H 0.34725 0.79517 0.17923 0.0
H847 H 0.30705 0.84074 0.17247 0.0
H848 H 0.1841 0.83917 0.15101 0.0
H849 H 0.24288 0.85631 0.15179 0.0
H850 H 0.24323 0.62722 0.20377 0.0
H851 H 0.30202 0.64561 0.20341 0.0
H852 H 0.18195 0.63192 0.17588 0.0
H853 H 0.13938 0.67397 0.16623 0.0
C854 C 0.72004 0.27575 0.16124 0.0
C855 C 0.7685 0.2862 0.16204 0.0
C856 C 0.78852 0.20327 0.16522 0.0
C857 C 0.74164 0.19305 0.15616 0.0
N858 N 0.66015 0.21625 0.15258 0.0
N859 N 0.84208 0.26252 0.1858 0.0
C860 C 0.70622 0.22828 0.15713 0.0
C861 C 0.80092 0.25076 0.17093 0.0
N862 N 0.68821 0.31145 0.16457 0.0
N863 N 0.82139 0.16824 0.16653 0.0
H864 H 0.84894 0.29685 0.19341 0.0
H865 H 0.86597 0.23781 0.19446 0.0
H866 H 0.81276 0.13286 0.16343 0.0
H867 H 0.85727 0.17448 0.16928 0.0
H868 H 0.65194 0.30687 0.16524 0.0
H869 H 0.69905 0.34586 0.16946 0.0
H870 H 0.63273 0.24034 0.15074 0.0
H871 H 0.64938 0.18136 0.15021 0.0
C872 C 0.22391 0.75564 0.61066 0.0
C873 C 0.19772 0.74476 0.63846 0.0
C874 C 0.26485 0.76192 0.67299 0.0
C875 C 0.29068 0.77322 0.64528 0.0
N876 N 0.29449 0.78898 0.58835 0.0
N877 N 0.1879 0.74687 0.69564 0.0
C878 C 0.27002 0.77273 0.61429 0.0
C879 C 0.2166 0.75058 0.66961 0.0
N880 N 0.20545 0.74774 0.58078 0.0
N881 N 0.28676 0.76111 0.70213 0.0
H882 H 0.15191 0.74032 0.69349 0.0
H883 H 0.19857 0.75422 0.71898 0.0
H884 H 0.32202 0.77029 0.70507 0.0
H885 H 0.27108 0.74878 0.72293 0.0
H886 H 0.22498 0.74891 0.55979 0.0
H887 H 0.17106 0.73673 0.57658 0.0
H888 H 0.27939 0.79521 0.56605 0.0
H889 H 0.32934 0.80026 0.58936 0.0
C890 C 0.81777 0.25029 0.65368 0.0
C891 C 0.78681 0.21093 0.65445 0.0
C892 C 0.72817 0.25809 0.68267 0.0
C893 C 0.75443 0.29799 0.67431 0.0
N894 N 0.83268 0.32888 0.67417 0.0
N895 N 0.71925 0.17327 0.67821 0.0
C896 C 0.80258 0.29272 0.66782 0.0
C897 C 0.74415 0.21331 0.67213 0.0
N898 N 0.85915 0.24896 0.63712 0.0
N899 N 0.68938 0.26388 0.70128 0.0
H900 H 0.73213 0.1398 0.67271 0.0
H901 H 0.68635 0.17285 0.689 0.0
H902 H 0.68164 0.29685 0.71106 0.0
H903 H 0.66795 0.23667 0.70909 0.0
H904 H 0.87967 0.27874 0.63329 0.0
H905 H 0.87145 0.21952 0.62487 0.0
H906 H 0.86907 0.32602 0.6718 0.0
H907 H 0.8209 0.35976 0.68523 0.0
C908 C 0.76901 0.24662 0.84054 0.0
C909 C 0.77341 0.20418 0.85819 0.0
C910 C 0.68925 0.19168 0.85308 0.0
C911 C 0.68406 0.23995 0.84661 0.0
N912 N 0.71635 0.30701 0.81972 0.0
N913 N 0.73629 0.13515 0.88132 0.0
C914 C 0.72326 0.26553 0.83536 0.0
C915 C 0.73339 0.17541 0.86363 0.0
N916 N 0.80832 0.26785 0.82863 0.0
N917 N 0.65159 0.16231 0.85005 0.0
H918 H 0.76718 0.12295 0.89186 0.0
H919 H 0.70671 0.11613 0.8882 0.0
H920 H 0.6193 0.17441 0.8413 0.0
H921 H 0.65417 0.12593 0.85258 0.0
H922 H 0.80786 0.29808 0.81474 0.0
H923 H 0.84183 0.25316 0.83096 0.0
H924 H 0.74305 0.33026 0.81368 0.0
H925 H 0.68309 0.31707 0.81156 0.0
C926 C 0.22398 0.77239 0.84003 0.0
C927 C 0.26859 0.77625 0.85528 0.0
C928 C 0.27771 0.69147 0.85227 0.0
C929 C 0.22864 0.68799 0.84881 0.0
N930 N 0.15991 0.72063 0.82356 0.0
N931 N 0.33982 0.73796 0.87502 0.0
C932 C 0.20309 0.72714 0.83724 0.0
C933 C 0.29698 0.73559 0.86011 0.0
N934 N 0.20236 0.81184 0.82848 0.0
N935 N 0.30503 0.65222 0.84918 0.0
H936 H 0.35535 0.76896 0.883 0.0
H937 H 0.35847 0.70811 0.882 0.0
H938 H 0.29042 0.61984 0.84265 0.0
H939 H 0.34169 0.65318 0.84945 0.0
H940 H 0.17 0.81199 0.81682 0.0
H941 H 0.21855 0.84478 0.82905 0.0
H942 H 0.13723 0.74769 0.81705 0.0
H943 H 0.14793 0.68725 0.81705 0.0
C944 C 0.70853 0.1042 0.45434 0.0
C945 C 0.66875 0.07376 0.45276 0.0
C946 C 0.70028 0.02818 0.49774 0.0
C947 C 0.74041 0.05797 0.49865 0.0
N948 N 0.78871 0.11567 0.47284 0.0
N949 N 0.63146 0.00148 0.46813 0.0
C950 C 0.74651 0.09296 0.47512 0.0
C951 C 0.66626 0.03389 0.4729 0.0
N952 N 0.70866 0.14582 0.43801 0.0
N953 N 0.69324 -0.00363 0.52163 0.0
H954 H 0.60618 0.00497 0.45012 0.0
H955 H 0.63011 0.9694 0.48 0.0
H956 H 0.71769 0.99066 0.53982 0.0
H957 H 0.66203 0.97778 0.5246 0.0
H958 H 0.73419 0.17164 0.44135 0.0
H959 H 0.68115 0.15702 0.42337 0.0
H960 H 0.79701 0.13835 0.4542 0.0
H961 H 0.81713 0.10803 0.48785 0.0
C962 C 0.38483 0.72577 0.49728 0.0
C963 C 0.42817 0.72365 0.51402 0.0
C964 C 0.44852 0.65055 0.48533 0.0
C965 C 0.40306 0.65028 0.47124 0.0
N966 N 0.32504 0.68369 0.46734 0.0
N967 N 0.49982 0.68223 0.52681 0.0
C968 C 0.37047 0.68694 0.47811 0.0
C969 C 0.45991 0.68572 0.50863 0.0
N970 N 0.35769 0.76544 0.49947 0.0
N971 N 0.48089 0.61766 0.47607 0.0
H972 H 0.50979 0.70796 0.54337 0.0
H973 H 0.52164 0.65278 0.52686 0.0
H974 H 0.47301 0.59085 0.45977 0.0
H975 H 0.51614 0.61868 0.48287 0.0
H976 H 0.32793 0.77131 0.48544 0.0
H977 H 0.3675 0.79463 0.5132 0.0
H978 H 0.29831 0.70641 0.47458 0.0
H979 H 0.31279 0.65575 0.45336 0.0
C980 C 0.84001 0.46135 0.48279 0.0
C981 C 0.84957 0.41546 0.47118 0.0
C982 C 0.79487 0.38187 0.50989 0.0
C983 C 0.78223 0.42796 0.52042 0.0
N984 N 0.79088 0.51226 0.51567 0.0
N985 N 0.82648 0.33389 0.4673 0.0
C986 C 0.80389 0.46802 0.50622 0.0
C987 C 0.82411 0.37637 0.48283 0.0
N988 N 0.86649 0.49811 0.47212 0.0
N989 N 0.78042 0.34285 0.52615 0.0
H990 H 0.847 0.328 0.44704 0.0
H991 H 0.80433 0.30578 0.47249 0.0
H992 H 0.75703 0.34348 0.54519 0.0
H993 H 0.79443 0.30945 0.52206 0.0
H994 H 0.86505 0.53192 0.48171 0.0
H995 H 0.89228 0.49398 0.45461 0.0
H996 H 0.80139 0.54277 0.50407 0.0
H997 H 0.76768 0.51876 0.53443 0.0
C998 C 0.04502 0.74146 0.47838 0.0
C999 C 0.02392 0.75684 0.50722 0.0
C1000 C 0.02474 0.83859 0.4886 0.0
C1001 C 0.04999 0.82371 0.46118 0.0
N1002 N 0.07125 0.76156 0.42482 0.0
N1003 N 0.98096 0.81604 0.53612 0.0
C1004 C 0.05543 0.77508 0.4543 0.0
C1005 C 0.0091 0.80422 0.51088 0.0
N1006 N 0.05769 0.69531 0.47501 0.0
N1007 N 0.01848 0.88555 0.49426 0.0
H1008 H 0.96912 0.79098 0.55239 0.0
H1009 H 0.96613 0.8492 0.53944 0.0
H1010 H 0.02832 0.91115 0.47779 0.0
H1011 H 0.00511 0.89931 0.51549 0.0
H1012 H 0.07824 0.68249 0.45634 0.0
H1013 H 0.04873 0.66988 0.49185 0.0
H1014 H 0.07322 0.72671 0.41718 0.0
H1015 H 0.07847 0.78592 0.40689 0.0
C1016 C 0.17858 0.95639 0.99835 0.0
C1017 C 0.22663 0.94411 1.00256 0.0
C1018 C 0.211 0.92373 0.0584 0.0
C1019 C 0.1621 0.92657 0.05201 0.0
N1020 N 0.09823 0.94817 0.01724 0.0
N1021 N 0.28995 0.91803 0.03662 0.0
C1022 C 0.14555 0.94477 0.02258 0.0
C1023 C 0.24352 0.92942 0.03288 0.0
N1024 N 0.16485 0.97896 0.97106 0.0
N1025 N 0.22585 0.91471 0.08889 0.0
H1026 H 0.31476 0.92274 0.0186 0.0
H1027 H 0.30361 0.90189 0.05694 0.0
H1028 H 0.20221 0.91081 0.10776 0.0
H1029 H 0.26095 0.91534 0.09604 0.0
H1030 H 0.13116 0.9923 0.96732 0.0
H1031 H 0.18865 0.98799 0.95317 0.0
H1032 H 0.08336 0.95569 0.99505 0.0
H1033 H 0.07356 0.9417 0.03513 0.0
C1034 C 0.54153 0.14534 0.01956 0.0
C1035 C 0.56568 0.15796 0.04801 0.0
C1036 C 0.56421 0.24119 0.03264 0.0
C1037 C 0.54308 0.22814 1.00321 0.0
N1038 N 0.4978 0.17196 0.97294 0.0
N1039 N 0.58599 0.21772 0.08652 0.0
C1040 C 0.52693 0.18144 0.99822 0.0
C1041 C 0.57209 0.20606 0.05619 0.0
N1042 N 0.53519 0.09895 0.01206 0.0
N1043 N 0.57928 0.28634 0.03725 0.0
H1044 H 0.59095 0.19232 0.10417 0.0
H1045 H 0.58803 0.25218 0.09496 0.0
H1046 H 0.57278 0.31305 0.02078 0.0
H1047 H 0.60006 0.29686 0.05656 0.0
H1048 H 0.5229 0.08722 0.98992 0.0
H1049 H 0.54435 0.07189 0.02765 0.0
H1050 H 0.48181 0.13949 0.96907 0.0
H1051 H 0.48596 0.19832 0.95758 0.0
C1052 C 0.23741 0.58693 0.03328 0.0
C1053 C 0.2418 0.5521 0.00923 0.0
C1054 C 0.31905 0.52922 0.03111 0.0
C1055 C 0.31761 0.56872 0.05195 0.0
N1056 N 0.27727 0.63885 0.0705 0.0
N1057 N 0.28647 0.48991 0.98429 0.0
C1058 C 0.27696 0.59819 0.0528 0.0
C1059 C 0.28227 0.52265 0.00817 0.0
N1060 N 0.19524 0.60935 0.03726 0.0
N1061 N 0.35531 0.49781 0.03359 0.0
H1062 H 0.2593 0.48257 0.96821 0.0
H1063 H 0.31736 0.47151 0.97948 0.0
H1064 H 0.38267 0.502 0.05008 0.0
H1065 H 0.35648 0.46593 0.02126 0.0
H1066 H 0.18804 0.63192 0.05634 0.0
H1067 H 0.16585 0.60159 0.02314 0.0
H1068 H 0.2509 0.66423 0.06921 0.0
H1069 H 0.30571 0.64963 0.08451 0.0
C1070 C 0.96098 0.32514 0.02424 0.0
C1071 C 0.92304 0.32257 0.04607 0.0
C1072 C 0.90669 0.24167 0.02818 0.0
C1073 C 0.93943 0.24704 1.00316 0.0
N1074 N -0.00286 0.29406 0.97598 0.0
N1075 N 0.85451 0.28064 0.0653 0.0
C1076 C 0.96699 0.2886 1.00106 0.0
C1077 C 0.89484 0.28115 0.04749 0.0
N1078 N 0.99138 0.36225 0.0259 0.0
N1079 N 0.88652 0.19872 0.03316 0.0
H1080 H 0.84248 0.30933 0.07857 0.0
H1081 H 0.8302 0.25329 0.06443 0.0
H1082 H 0.89472 0.16931 0.01915 0.0
H1083 H 0.8657 0.19117 0.05293 0.0
H1084 H 0.02229 0.36421 0.01268 0.0
H1085 H 0.98756 0.38946 0.04256 0.0
H1086 H 0.01384 0.32562 0.97065 0.0
H1087 H 0.00363 0.2673 0.95943 0.0
C1088 C 0.28649 0.91927 0.56228 0.0
C1089 C 0.33424 0.92926 0.55387 0.0
C1090 C 0.30794 0.95623 0.50111 0.0
C1091 C 0.26078 0.94495 0.50912 0.0
N1092 N 0.20337 0.9286 0.5495 0.0
N1093 N 0.3875 0.97122 0.5198 0.0
C1094 C 0.24951 0.93108 0.54057 0.0
C1095 C 0.34393 0.95235 0.52468 0.0
N1096 N 0.27629 0.89549 0.58974 0.0
N1097 N 0.31868 0.96895 0.47055 0.0
H1098 H 0.41404 0.96992 0.5371 0.0
H1099 H 0.39576 0.99227 0.50029 0.0
H1100 H 0.29307 0.97376 0.453 0.0
H1101 H 0.35299 0.97197 0.46218 0.0
H1102 H 0.24317 0.88185 0.59475 0.0
H1103 H 0.30111 0.88602 0.60679 0.0
H1104 H 0.19254 0.92352 0.573 0.0
H1105 H 0.17579 0.93617 0.53378 0.0
C1106 C 0.62475 0.30898 0.52427 0.0
C1107 C 0.58876 0.32832 0.54372 0.0
C1108 C 0.53095 0.2769 0.51711 0.0
C1109 C 0.56788 0.25652 0.49868 0.0
N1110 N 0.65098 0.24188 0.49345 0.0
N1111 N 0.50926 0.32497 0.5632 0.0
C1112 C 0.61511 0.26907 0.5051 0.0
C1113 C 0.54233 0.31022 0.54173 0.0
N1114 N 0.66811 0.32941 0.52326 0.0
N1115 N 0.48515 0.26638 0.51025 0.0
H1116 H 0.51619 0.35064 0.58052 0.0
H1117 H 0.47617 0.30964 0.56522 0.0
H1118 H 0.47531 0.24166 0.49304 0.0
H1119 H 0.45673 0.28429 0.52022 0.0
H1120 H 0.69303 0.32037 0.50606 0.0
H1121 H 0.67749 0.35822 0.53736 0.0
H1122 H 0.68612 0.24699 0.49979 0.0
H1123 H 0.64502 0.21097 0.48046 0.0
C1124 C 0.2183 0.58396 0.51792 0.0
C1125 C 0.20606 0.55379 0.49233 0.0
C1126 C 0.1295 0.53833 0.51749 0.0
C1127 C 0.13926 0.57373 0.54065 0.0
N1128 N 0.18975 0.63783 0.55798 0.0
N1129 N 0.14972 0.50345 0.46603 0.0
C1130 C 0.18305 0.59822 0.53984 0.0
C1131 C 0.1616 0.53104 0.49168 0.0
N1132 N 0.26354 0.59972 0.52095 0.0
N1133 N 0.09023 0.51113 0.52058 0.0
H1134 H 0.1732 0.49588 0.44755 0.0
H1135 H 0.11608 0.49009 0.4622 0.0
H1136 H 0.06651 0.51545 0.53936 0.0
H1137 H 0.08318 0.48194 0.5062 0.0
H1138 H 0.27579 0.61781 0.54106 0.0
H1139 H 0.29006 0.59071 0.50482 0.0
H1140 H 0.21929 0.65917 0.55596 0.0
H1141 H 0.16378 0.65282 0.57228 0.0
C1142 C 0.90584 0.19644 0.54275 0.0
C1143 C 0.93253 0.154 0.54144 0.0
C1144 C 0.97686 0.18496 0.49585 0.0
C1145 C 0.95132 0.22789 0.49835 0.0
N1146 N 0.90124 0.27902 0.52903 0.0
N1147 N -0.00165 0.11052 0.5205 0.0
C1148 C 0.91936 0.23512 0.52368 0.0
C1149 C 0.96981 0.14917 0.5192 0.0
N1150 N 0.86513 0.19866 0.56009 0.0
N1151 N 0.00573 0.17745 0.47024 0.0
H1152 H -0.00652 0.08375 0.53716 0.0
H1153 H 0.02873 0.10674 0.50687 0.0
H1154 H 0.01282 0.20338 0.45337 0.0
H1155 H 0.02074 0.14495 0.46479 0.0
H1156 H 0.84187 0.22697 0.55903 0.0
H1157 H 0.8518 0.17045 0.57303 0.0
H1158 H 0.88099 0.28751 0.54899 0.0
H1159 H 0.91061 0.308 0.51519 0.0
C1160 C 0.85945 0.02817 0.99591 0.0
C1161 C 0.84633 0.03552 0.96361 0.0
C1162 C 0.76305 0.02637 0.97798 0.0
C1163 C 0.77583 0.02811 0.01077 0.0
N1164 N 0.836 0.02695 0.05158 0.0
N1165 N 0.78915 0.01341 0.92347 0.0
C1166 C 0.82406 0.0271 0.0199 0.0
C1167 C 0.79906 0.02606 0.95432 0.0
N1168 N 0.90548 0.01912 1.00313 0.0
N1169 N 0.71665 0.02747 0.96939 0.0
H1170 H 0.81555 0.00596 0.90694 0.0
H1171 H 0.75584 0.0033 0.91565 0.0
H1172 H 0.68947 0.02662 0.9861 0.0
H1173 H 0.70519 0.03232 0.94594 0.0
H1174 H 0.9174 0.00978 0.02581 0.0
H1175 H 0.93087 0.01519 0.98532 0.0
H1176 H 0.86992 0.03343 0.05984 0.0
H1177 H 0.81141 0.02275 0.0698 0.0
C1178 C 0.38316 0.78905 0.96852 0.0
C1179 C 0.41258 0.82961 0.96804 0.0
C1180 C 0.4574 0.79883 0.01352 0.0
C1181 C 0.42935 0.75751 0.01287 0.0
N1182 N 0.37309 0.70833 0.98576 0.0
N1183 N 0.48223 0.86981 0.98618 0.0
C1184 C 0.39489 0.75095 0.98887 0.0
C1185 C 0.4512 0.83349 0.98937 0.0
N1186 N 0.34207 0.78823 0.95134 0.0
N1187 N 0.48858 0.80574 0.03801 0.0
H1188 H 0.47824 0.89579 0.96882 0.0
H1189 H 0.51367 0.87221 0.99894 0.0
H1190 H 0.49533 0.78016 0.05522 0.0
H1191 H 0.50557 0.83757 0.0423 0.0
H1192 H 0.31701 0.76175 0.95341 0.0
H1193 H 0.33045 0.81613 0.93727 0.0
H1194 H 0.35101 0.69977 0.96666 0.0
H1195 H 0.38074 0.67994 1.00067 0.0
C1196 C 0.74243 0.39356 0.97974 0.0
C1197 C 0.7375 0.4292 1.00315 0.0
C1198 C 0.66177 0.45254 0.97938 0.0
C1199 C 0.66346 0.41223 0.95932 0.0
N1200 N 0.7029 0.34004 0.94358 0.0
N1201 N 0.69207 0.49205 0.02676 0.0
C1202 C 0.70345 0.38189 0.95993 0.0
C1203 C 0.69735 0.4591 1.00311 0.0
N1204 N 0.78451 0.37063 0.97667 0.0
N1205 N 0.62641 0.48465 0.97549 0.0
H1206 H 0.71808 0.49885 0.04378 0.0
H1207 H 0.66111 0.51085 0.03056 0.0
H1208 H 0.59995 0.48054 0.95833 0.0
H1209 H 0.62542 0.517 0.98727 0.0
H1210 H 0.79197 0.34739 0.95801 0.0
H1211 H 0.81359 0.37858 0.99104 0.0
H1212 H 0.72881 0.31437 0.94612 0.0
H1213 H 0.67459 0.32855 0.92972 0.0
C1214 C 0.028 0.67467 0.01926 0.0
C1215 C 0.0357 0.72245 0.01071 0.0
C1216 C 0.03624 0.69955 0.95408 0.0
C1217 C 0.03925 0.65159 0.96335 0.0
N1218 N 0.01122 0.59507 1.00113 0.0
N1219 N 0.04543 0.7813 0.96996 0.0
C1220 C 0.02681 0.63953 0.99498 0.0
C1221 C 0.03834 0.73534 0.97803 0.0
N1222 N 0.02372 0.66265 0.05071 0.0
N1223 N 0.02802 0.71064 0.92281 0.0
H1224 H 0.04626 0.80844 0.98685 0.0
H1225 H 0.05346 0.7921 0.94685 0.0
H1226 H 0.01964 0.68509 0.90574 0.0
H1227 H 0.02245 0.74484 0.91482 0.0
H1228 H 0.02434 0.62806 0.05875 0.0
H1229 H 0.02197 0.6875 0.06906 0.0
H1230 H -0.00213 0.5845 0.02311 0.0
H1231 H 0.00615 0.57042 0.98284 0.0
loop_
_geom_bond_atom_site_label_1
_geom_bond_atom_site_label_2
_geom_bond_distance
_geom_bond_site_symmetry_2
_ccdc_geom_bond_type
O0 Zn1 1.953 . S
O0 C16 1.225 . S
Zn1 O0 1.953 . S
Zn1 O2 1.949 . S
Zn1 O8 1.919 . S
Zn1 O13 1.924 . S
O2 Zn1 1.949 . S
O2 Zn3 1.923 . S
O2 Zn4 1.950 . S
O2 Zn5 1.945 . S
Zn3 O2 1.923 . S
Zn3 O6 1.933 . S
Zn3 O9 1.941 . S
Zn3 O10 1.965 . S
Zn4 O2 1.950 . S
Zn4 O11 1.938 . S
Zn4 O12 1.906 . S
Zn4 O22 1.953 . S
Zn5 O2 1.945 . S
Zn5 O7 1.932 . S
Zn5 O14 1.977 . S
Zn5 O15 1.910 . S
O6 Zn3 1.933 . S
O6 C17 1.226 . S
O7 Zn5 1.932 . S
O7 C17 1.307 . S
O8 Zn1 1.919 . S
O8 C19 1.253 . S
O9 Zn3 1.941 . S
O9 C19 1.283 . S
O10 Zn3 1.965 . S
O10 C18 1.303 . S
O11 Zn4 1.938 . S
O11 C18 1.247 . S
O12 Zn4 1.906 . S
O12 C20 1.304 . S
O13 Zn1 1.924 . S
O13 C21 1.311 . S
O14 Zn5 1.977 . S
O14 C20 1.272 . S
O15 Zn5 1.910 . S
O15 C21 1.231 . S
C16 O0 1.225 . S
C16 O22 1.298 . S
C17 O6 1.226 . S
C17 O7 1.307 . S
C18 O10 1.303 . S
C18 O11 1.247 . S
C19 O8 1.253 . S
C19 O9 1.283 . S
C20 O12 1.304 . S
C20 O14 1.272 . S
C21 O13 1.311 . S
C21 O15 1.231 . S
O22 Zn4 1.953 . S
O22 C16 1.298 . S
O23 Zn24 1.953 . S
O23 C39 1.225 . S
Zn24 O23 1.953 . S
Zn24 O25 1.949 . S
Zn24 O31 1.919 . S
Zn24 O36 1.924 . S
O25 Zn24 1.949 . S
O25 Zn26 1.923 . S
O25 Zn27 1.950 . S
O25 Zn28 1.945 . S
Zn26 O25 1.923 . S
Zn26 O29 1.933 . S
Zn26 O32 1.941 . S
Zn26 O33 1.965 . S
Zn27 O25 1.950 . S
Zn27 O34 1.938 . S
Zn27 O35 1.906 . S
Zn27 O45 1.953 . S
Zn28 O25 1.945 . S
Zn28 O30 1.932 . S
Zn28 O37 1.977 . S
Zn28 O38 1.910 . S
O29 Zn26 1.933 . S
O29 C40 1.226 . S
O30 Zn28 1.932 . S
O30 C40 1.307 . S
O31 Zn24 1.919 . S
O31 C42 1.253 . S
O32 Zn26 1.941 . S
O32 C42 1.283 . S
O33 Zn26 1.965 . S
O33 C41 1.303 . S
O34 Zn27 1.938 . S
O34 C41 1.247 . S
O35 Zn27 1.906 . S
O35 C43 1.304 . S
O36 Zn24 1.924 . S
O36 C44 1.311 . S
O37 Zn28 1.977 . S
O37 C43 1.272 . S
O38 Zn28 1.910 . S
O38 C44 1.231 . S
C39 O23 1.225 . S
C39 O45 1.298 . S
C40 O29 1.226 . S
C40 O30 1.307 . S
C41 O33 1.303 . S
C41 O34 1.247 . S
C42 O31 1.253 . S
C42 O32 1.283 . S
C43 O35 1.304 . S
C43 O37 1.272 . S
C44 O36 1.311 . S
C44 O38 1.231 . S
O45 Zn27 1.953 . S
O45 C39 1.298 . S
O46 Zn47 1.953 . S
O46 C62 1.225 . S
Zn47 O46 1.953 . S
Zn47 O48 1.949 . S
Zn47 O54 1.919 . S
Zn47 O59 1.924 . S
O48 Zn47 1.949 . S
O48 Zn49 1.923 . S
O48 Zn50 1.950 . S
O48 Zn51 1.945 . S
Zn49 O48 1.923 . S
Zn49 O52 1.933 . S
Zn49 O55 1.941 . S
Zn49 O56 1.965 . S
Zn50 O48 1.950 . S
Zn50 O57 1.938 . S
Zn50 O58 1.906 1_655 S
Zn50 O68 1.953 . S
Zn51 O48 1.945 . S
Zn51 O53 1.932 . S
Zn51 O60 1.977 1_655 S
Zn51 O61 1.910 1_655 S
O52 Zn49 1.933 . S
O52 C63 1.226 . S
O53 Zn51 1.932 . S
O53 C63 1.307 . S
O54 Zn47 1.919 . S
O54 C65 1.253 . S
O55 Zn49 1.941 . S
O55 C65 1.283 . S
O56 Zn49 1.965 . S
O56 C64 1.303 . S
O57 Zn50 1.938 . S
O57 C64 1.247 . S
O58 Zn50 1.906 1_455 S
O58 C66 1.304 . S
O59 Zn47 1.924 . S
O59 C67 1.311 . S
O60 Zn51 1.977 1_455 S
O60 C66 1.272 . S
O61 Zn51 1.910 1_455 S
O61 C67 1.231 1_455 S
C62 O46 1.225 . S
C62 O68 1.298 . S
C63 O52 1.226 . S
C63 O53 1.307 . S
C64 O56 1.303 . S
C64 O57 1.247 . S
C65 O54 1.253 . S
C65 O55 1.283 . S
C66 O58 1.304 . S
C66 O60 1.272 . S
C67 O59 1.311 . S
C67 O61 1.231 1_655 S
O68 Zn50 1.953 . S
O68 C62 1.298 . S
O69 Zn70 1.953 . S
O69 C85 1.225 . S
Zn70 O69 1.953 . S
Zn70 O71 1.949 . S
Zn70 O77 1.919 . S
Zn70 O82 1.924 . S
O71 Zn70 1.949 . S
O71 Zn72 1.923 . S
O71 Zn73 1.950 . S
O71 Zn74 1.945 . S
Zn72 O71 1.923 . S
Zn72 O75 1.933 . S
Zn72 O78 1.941 1_565 S
Zn72 O79 1.965 1_565 S
Zn73 O71 1.950 . S
Zn73 O80 1.938 . S
Zn73 O81 1.906 . S
Zn73 O91 1.953 . S
Zn74 O71 1.945 . S
Zn74 O76 1.932 . S
Zn74 O83 1.977 . S
Zn74 O84 1.910 . S
O75 Zn72 1.933 . S
O75 C86 1.226 . S
O76 Zn74 1.932 . S
O76 C86 1.307 . S
O77 Zn70 1.919 . S
O77 C88 1.253 1_565 S
O78 Zn72 1.941 1_545 S
O78 C88 1.283 . S
O79 Zn72 1.965 1_545 S
O79 C87 1.303 . S
O80 Zn73 1.938 . S
O80 C87 1.247 1_565 S
O81 Zn73 1.906 . S
O81 C89 1.304 . S
O82 Zn70 1.924 . S
O82 C90 1.311 . S
O83 Zn74 1.977 . S
O83 C89 1.272 . S
O84 Zn74 1.910 . S
O84 C90 1.231 . S
C85 O69 1.225 . S
C85 O91 1.298 . S
C86 O75 1.226 . S
C86 O76 1.307 . S
C87 O79 1.303 . S
C87 O80 1.247 1_545 S
C88 O77 1.253 1_545 S
C88 O78 1.283 . S
C89 O81 1.304 . S
C89 O83 1.272 . S
C90 O82 1.311 . S
C90 O84 1.231 . S
O91 Zn73 1.953 . S
O91 C85 1.298 . S
O92 Zn93 1.953 . S
O92 C108 1.225 . S
Zn93 O92 1.953 . S
Zn93 O94 1.949 . S
Zn93 O100 1.919 . S
Zn93 O105 1.924 . S
O94 Zn93 1.949 . S
O94 Zn95 1.923 . S
O94 Zn96 1.950 . S
O94 Zn97 1.945 . S
Zn95 O94 1.923 . S
Zn95 O98 1.933 . S
Zn95 O101 1.941 1_455 S
Zn95 O102 1.965 1_455 S
Zn96 O94 1.950 . S
Zn96 O103 1.938 . S
Zn96 O104 1.906 . S
Zn96 O114 1.953 . S
Zn97 O94 1.945 . S
Zn97 O99 1.932 . S
Zn97 O106 1.977 . S
Zn97 O107 1.910 . S
O98 Zn95 1.933 . S
O98 C109 1.226 . S
O99 Zn97 1.932 . S
O99 C109 1.307 . S
O100 Zn93 1.919 . S
O100 C111 1.253 1_455 S
O101 Zn95 1.941 1_655 S
O101 C111 1.283 . S
O102 Zn95 1.965 1_655 S
O102 C110 1.303 . S
O103 Zn96 1.938 . S
O103 C110 1.247 1_455 S
O104 Zn96 1.906 . S
O104 C112 1.304 . S
O105 Zn93 1.924 . S
O105 C113 1.311 . S
O106 Zn97 1.977 . S
O106 C112 1.272 . S
O107 Zn97 1.910 . S
O107 C113 1.231 . S
C108 O92 1.225 . S
C108 O114 1.298 . S
C109 O98 1.226 . S
C109 O99 1.307 . S
C110 O102 1.303 . S
C110 O103 1.247 1_655 S
C111 O100 1.253 1_655 S
C111 O101 1.283 . S
C112 O104 1.304 . S
C112 O106 1.272 . S
C113 O105 1.311 . S
C113 O107 1.231 . S
O114 Zn96 1.953 . S
O114 C108 1.298 . S
O115 Zn116 1.953 . S
O115 C131 1.225 . S
Zn116 O115 1.953 . S
Zn116 O117 1.949 . S
Zn116 O123 1.919 . S
Zn116 O128 1.924 . S
O117 Zn116 1.949 . S
O117 Zn118 1.923 . S
O117 Zn119 1.950 . S
O117 Zn120 1.945 . S
Zn118 O117 1.923 . S
Zn118 O121 1.933 . S
Zn118 O124 1.941 1_545 S
Zn118 O125 1.965 1_545 S
Zn119 O117 1.950 . S
Zn119 O126 1.938 . S
Zn119 O127 1.906 . S
Zn119 O137 1.953 . S
Zn120 O117 1.945 . S
Zn120 O122 1.932 . S
Zn120 O129 1.977 . S
Zn120 O130 1.910 . S
O121 Zn118 1.933 . S
O121 C132 1.226 . S
O122 Zn120 1.932 . S
O122 C132 1.307 . S
O123 Zn116 1.919 . S
O123 C134 1.253 1_545 S
O124 Zn118 1.941 1_565 S
O124 C134 1.283 . S
O125 Zn118 1.965 1_565 S
O125 C133 1.303 . S
O126 Zn119 1.938 . S
O126 C133 1.247 1_545 S
O127 Zn119 1.906 . S
O127 C135 1.304 . S
O128 Zn116 1.924 . S
O128 C136 1.311 . S
O129 Zn120 1.977 . S
O129 C135 1.272 . S
O130 Zn120 1.910 . S
O130 C136 1.231 . S
C131 O115 1.225 . S
C131 O137 1.298 . S
C132 O121 1.226 . S
C132 O122 1.307 . S
C133 O125 1.303 . S
C133 O126 1.247 1_565 S
C134 O123 1.253 1_565 S
C134 O124 1.283 . S
C135 O127 1.304 . S
C135 O129 1.272 . S
C136 O128 1.311 . S
C136 O130 1.231 . S
O137 Zn119 1.953 . S
O137 C131 1.298 . S
O138 Zn139 1.953 . S
O138 C154 1.225 . S
Zn139 O138 1.953 . S
Zn139 O140 1.949 . S
Zn139 O146 1.919 . S
Zn139 O151 1.924 . S
O140 Zn139 1.949 . S
O140 Zn141 1.923 . S
O140 Zn142 1.950 . S
O140 Zn143 1.945 . S
Zn141 O140 1.923 . S
Zn141 O144 1.933 . S
Zn141 O147 1.941 . S
Zn141 O148 1.965 . S
Zn142 O140 1.950 . S
Zn142 O149 1.938 . S
Zn142 O150 1.906 . S
Zn142 O160 1.953 . S
Zn143 O140 1.945 . S
Zn143 O145 1.932 . S
Zn143 O152 1.977 . S
Zn143 O153 1.910 . S
O144 Zn141 1.933 . S
O144 C155 1.226 . S
O145 Zn143 1.932 . S
O145 C155 1.307 . S
O146 Zn139 1.919 . S
O146 C157 1.253 . S
O147 Zn141 1.941 . S
O147 C157 1.283 . S
O148 Zn141 1.965 . S
O148 C156 1.303 . S
O149 Zn142 1.938 . S
O149 C156 1.247 . S
O150 Zn142 1.906 . S
O150 C158 1.304 . S
O151 Zn139 1.924 . S
O151 C159 1.311 . S
O152 Zn143 1.977 . S
O152 C158 1.272 . S
O153 Zn143 1.910 . S
O153 C159 1.231 . S
C154 O138 1.225 . S
C154 O160 1.298 . S
C155 O144 1.226 . S
C155 O145 1.307 . S
C156 O148 1.303 . S
C156 O149 1.247 . S
C157 O146 1.253 . S
C157 O147 1.283 . S
C158 O150 1.304 . S
C158 O152 1.272 . S
C159 O151 1.311 . S
C159 O153 1.231 . S
O160 Zn142 1.953 . S
O160 C154 1.298 . S
O161 Zn162 1.953 . S
O161 C177 1.225 . S
Zn162 O161 1.953 . S
Zn162 O163 1.949 . S
Zn162 O169 1.919 . S
Zn162 O174 1.924 . S
O163 Zn162 1.949 . S
O163 Zn164 1.923 . S
O163 Zn165 1.950 . S
O163 Zn166 1.945 . S
Zn164 O163 1.923 . S
Zn164 O167 1.933 . S
Zn164 O170 1.941 . S
Zn164 O171 1.965 . S
Zn165 O163 1.950 . S
Zn165 O172 1.938 . S
Zn165 O173 1.906 . S
Zn165 O183 1.953 . S
Zn166 O163 1.945 . S
Zn166 O168 1.932 . S
Zn166 O175 1.977 . S
Zn166 O176 1.910 . S
O167 Zn164 1.933 . S
O167 C178 1.226 . S
O168 Zn166 1.932 . S
O168 C178 1.307 . S
O169 Zn162 1.919 . S
O169 C180 1.253 . S
O170 Zn164 1.941 . S
O170 C180 1.283 . S
O171 Zn164 1.965 . S
O171 C179 1.303 . S
O172 Zn165 1.938 . S
O172 C179 1.247 . S
O173 Zn165 1.906 . S
O173 C181 1.304 . S
O174 Zn162 1.924 . S
O174 C182 1.311 . S
O175 Zn166 1.977 . S
O175 C181 1.272 . S
O176 Zn166 1.910 . S
O176 C182 1.231 . S
C177 O161 1.225 . S
C177 O183 1.298 . S
C178 O167 1.226 . S
C178 O168 1.307 . S
C179 O171 1.303 . S
C179 O172 1.247 . S
C180 O169 1.253 . S
C180 O170 1.283 . S
C181 O173 1.304 . S
C181 O175 1.272 . S
C182 O174 1.311 . S
C182 O176 1.231 . S
O183 Zn165 1.953 . S
O183 C177 1.298 . S
O184 Zn185 1.953 . S
O184 C200 1.225 . S
Zn185 O184 1.953 . S
Zn185 O186 1.949 . S
Zn185 O192 1.919 . S
Zn185 O197 1.924 . S
O186 Zn185 1.949 . S
O186 Zn187 1.923 . S
O186 Zn188 1.950 . S
O186 Zn189 1.945 . S
Zn187 O186 1.923 . S
Zn187 O190 1.933 . S
Zn187 O193 1.941 . S
Zn187 O194 1.965 . S
Zn188 O186 1.950 . S
Zn188 O195 1.938 . S
Zn188 O196 1.906 . S
Zn188 O206 1.953 . S
Zn189 O186 1.945 . S
Zn189 O191 1.932 . S
Zn189 O198 1.977 . S
Zn189 O199 1.910 . S
O190 Zn187 1.933 . S
O190 C201 1.226 . S
O191 Zn189 1.932 . S
O191 C201 1.307 . S
O192 Zn185 1.919 . S
O192 C203 1.253 . S
O193 Zn187 1.941 . S
O193 C203 1.283 . S
O194 Zn187 1.965 . S
O194 C202 1.303 . S
O195 Zn188 1.938 . S
O195 C202 1.247 . S
O196 Zn188 1.906 . S
O196 C204 1.304 . S
O197 Zn185 1.924 . S
O197 C205 1.311 . S
O198 Zn189 1.977 . S
O198 C204 1.272 . S
O199 Zn189 1.910 . S
O199 C205 1.231 . S
C200 O184 1.225 . S
C200 O206 1.298 . S
C201 O190 1.226 . S
C201 O191 1.307 . S
C202 O194 1.303 . S
C202 O195 1.247 . S
C203 O192 1.253 . S
C203 O193 1.283 . S
C204 O196 1.304 . S
C204 O198 1.272 . S
C205 O197 1.311 . S
C205 O199 1.231 . S
O206 Zn188 1.953 . S
O206 C200 1.298 . S
O207 Zn208 1.953 . S
O207 C223 1.225 . S
Zn208 O207 1.953 . S
Zn208 O209 1.949 . S
Zn208 O215 1.919 . S
Zn208 O220 1.924 . S
O209 Zn208 1.949 . S
O209 Zn210 1.923 . S
O209 Zn211 1.950 . S
O209 Zn212 1.945 . S
Zn210 O209 1.923 . S
Zn210 O213 1.933 . S
Zn210 O216 1.941 . S
Zn210 O217 1.965 . S
Zn211 O209 1.950 . S
Zn211 O218 1.938 . S
Zn211 O219 1.906 . S
Zn211 O229 1.953 . S
Zn212 O209 1.945 . S
Zn212 O214 1.932 . S
Zn212 O221 1.977 . S
Zn212 O222 1.910 . S
O213 Zn210 1.933 . S
O213 C224 1.226 . S
O214 Zn212 1.932 . S
O214 C224 1.307 . S
O215 Zn208 1.919 . S
O215 C226 1.253 . S
O216 Zn210 1.941 . S
O216 C226 1.283 . S
O217 Zn210 1.965 . S
O217 C225 1.303 . S
O218 Zn211 1.938 . S
O218 C225 1.247 . S
O219 Zn211 1.906 . S
O219 C227 1.304 . S
O220 Zn208 1.924 . S
O220 C228 1.311 . S
O221 Zn212 1.977 . S
O221 C227 1.272 . S
O222 Zn212 1.910 . S
O222 C228 1.231 . S
C223 O207 1.225 . S
C223 O229 1.298 . S
C224 O213 1.226 . S
C224 O214 1.307 . S
C225 O217 1.303 . S
C225 O218 1.247 . S
C226 O215 1.253 . S
C226 O216 1.283 . S
C227 O219 1.304 . S
C227 O221 1.272 . S
C228 O220 1.311 . S
C228 O222 1.231 . S
O229 Zn211 1.953 . S
O229 C223 1.298 . S
O230 Zn231 1.953 . S
O230 C246 1.225 . S
Zn231 O230 1.953 . S
Zn231 O232 1.949 . S
Zn231 O238 1.919 . S
Zn231 O243 1.924 . S
O232 Zn231 1.949 . S
O232 Zn233 1.923 . S
O232 Zn234 1.950 . S
O232 Zn235 1.945 . S
Zn233 O232 1.923 . S
Zn233 O236 1.933 . S
Zn233 O239 1.941 . S
Zn233 O240 1.965 . S
Zn234 O232 1.950 . S
Zn234 O241 1.938 . S
Zn234 O242 1.906 1_455 S
Zn234 O252 1.953 . S
Zn235 O232 1.945 . S
Zn235 O237 1.932 . S
Zn235 O244 1.977 1_455 S
Zn235 O245 1.910 1_455 S
O236 Zn233 1.933 . S
O236 C247 1.226 . S
O237 Zn235 1.932 . S
O237 C247 1.307 . S
O238 Zn231 1.919 . S
O238 C249 1.253 . S
O239 Zn233 1.941 . S
O239 C249 1.283 . S
O240 Zn233 1.965 . S
O240 C248 1.303 . S
O241 Zn234 1.938 . S
O241 C248 1.247 . S
O242 Zn234 1.906 1_655 S
O242 C250 1.304 . S
O243 Zn231 1.924 . S
O243 C251 1.311 . S
O244 Zn235 1.977 1_655 S
O244 C250 1.272 . S
O245 Zn235 1.910 1_655 S
O245 C251 1.231 1_655 S
C246 O230 1.225 . S
C246 O252 1.298 . S
C247 O236 1.226 . S
C247 O237 1.307 . S
C248 O240 1.303 . S
C248 O241 1.247 . S
C249 O238 1.253 . S
C249 O239 1.283 . S
C250 O242 1.304 . S
C250 O244 1.272 . S
C251 O243 1.311 . S
C251 O245 1.231 1_455 S
O252 Zn234 1.953 . S
O252 C246 1.298 . S
O253 Zn254 1.953 . S
O253 C269 1.225 . S
Zn254 O253 1.953 . S
Zn254 O255 1.949 . S
Zn254 O261 1.919 . S
Zn254 O266 1.924 . S
O255 Zn254 1.949 . S
O255 Zn256 1.923 . S
O255 Zn257 1.950 . S
O255 Zn258 1.945 . S
Zn256 O255 1.923 . S
Zn256 O259 1.933 . S
Zn256 O262 1.941 . S
Zn256 O263 1.965 . S
Zn257 O255 1.950 . S
Zn257 O264 1.938 . S
Zn257 O265 1.906 1_545 S
Zn257 O275 1.953 . S
Zn258 O255 1.945 . S
Zn258 O260 1.932 . S
Zn258 O267 1.977 1_545 S
Zn258 O268 1.910 1_545 S
O259 Zn256 1.933 . S
O259 C270 1.226 . S
O260 Zn258 1.932 . S
O260 C270 1.307 . S
O261 Zn254 1.919 . S
O261 C272 1.253 . S
O262 Zn256 1.941 . S
O262 C272 1.283 . S
O263 Zn256 1.965 . S
O263 C271 1.303 . S
O264 Zn257 1.938 . S
O264 C271 1.247 . S
O265 Zn257 1.906 1_565 S
O265 C273 1.304 . S
O266 Zn254 1.924 . S
O266 C274 1.311 . S
O267 Zn258 1.977 1_565 S
O267 C273 1.272 . S
O268 Zn258 1.910 1_565 S
O268 C274 1.231 1_565 S
C269 O253 1.225 . S
C269 O275 1.298 . S
C270 O259 1.226 . S
C270 O260 1.307 . S
C271 O263 1.303 . S
C271 O264 1.247 . S
C272 O261 1.253 . S
C272 O262 1.283 . S
C273 O265 1.304 . S
C273 O267 1.272 . S
C274 O266 1.311 . S
C274 O268 1.231 1_545 S
O275 Zn257 1.953 . S
O275 C269 1.298 . S
O276 Zn277 1.953 . S
O276 C292 1.225 . S
Zn277 O276 1.953 . S
Zn277 O278 1.949 . S
Zn277 O284 1.919 . S
Zn277 O289 1.924 . S
O278 Zn277 1.949 . S
O278 Zn279 1.923 . S
O278 Zn280 1.950 . S
O278 Zn281 1.945 . S
Zn279 O278 1.923 . S
Zn279 O282 1.933 . S
Zn279 O285 1.941 . S
Zn279 O286 1.965 . S
Zn280 O278 1.950 . S
Zn280 O287 1.938 . S
Zn280 O288 1.906 1_655 S
Zn280 O298 1.953 . S
Zn281 O278 1.945 . S
Zn281 O283 1.932 . S
Zn281 O290 1.977 1_655 S
Zn281 O291 1.910 1_655 S
O282 Zn279 1.933 . S
O282 C293 1.226 . S
O283 Zn281 1.932 . S
O283 C293 1.307 . S
O284 Zn277 1.919 . S
O284 C295 1.253 . S
O285 Zn279 1.941 . S
O285 C295 1.283 . S
O286 Zn279 1.965 . S
O286 C294 1.303 . S
O287 Zn280 1.938 . S
O287 C294 1.247 . S
O288 Zn280 1.906 1_455 S
O288 C296 1.304 . S
O289 Zn277 1.924 . S
O289 C297 1.311 . S
O290 Zn281 1.977 1_455 S
O290 C296 1.272 . S
O291 Zn281 1.910 1_455 S
O291 C297 1.231 1_455 S
C292 O276 1.225 . S
C292 O298 1.298 . S
C293 O282 1.226 . S
C293 O283 1.307 . S
C294 O286 1.303 . S
C294 O287 1.247 . S
C295 O284 1.253 . S
C295 O285 1.283 . S
C296 O288 1.304 . S
C296 O290 1.272 . S
C297 O289 1.311 . S
C297 O291 1.231 1_655 S
O298 Zn280 1.953 . S
O298 C292 1.298 . S
O299 Zn300 1.953 . S
O299 C315 1.225 . S
Zn300 O299 1.953 . S
Zn300 O301 1.949 . S
Zn300 O307 1.919 . S
Zn300 O312 1.924 . S
O301 Zn300 1.949 . S
O301 Zn302 1.923 . S
O301 Zn303 1.950 . S
O301 Zn304 1.945 . S
Zn302 O301 1.923 . S
Zn302 O305 1.933 . S
Zn302 O308 1.941 . S
Zn302 O309 1.965 . S
Zn303 O301 1.950 . S
Zn303 O310 1.938 . S
Zn303 O311 1.906 1_565 S
Zn303 O321 1.953 . S
Zn304 O301 1.945 . S
Zn304 O306 1.932 . S
Zn304 O313 1.977 1_565 S
Zn304 O314 1.910 1_565 S
O305 Zn302 1.933 . S
O305 C316 1.226 . S
O306 Zn304 1.932 . S
O306 C316 1.307 . S
O307 Zn300 1.919 . S
O307 C318 1.253 . S
O308 Zn302 1.941 . S
O308 C318 1.283 . S
O309 Zn302 1.965 . S
O309 C317 1.303 . S
O310 Zn303 1.938 . S
O310 C317 1.247 . S
O311 Zn303 1.906 1_545 S
O311 C319 1.304 . S
O312 Zn300 1.924 . S
O312 C320 1.311 . S
O313 Zn304 1.977 1_545 S
O313 C319 1.272 . S
O314 Zn304 1.910 1_545 S
O314 C320 1.231 1_545 S
C315 O299 1.225 . S
C315 O321 1.298 . S
C316 O305 1.226 . S
C316 O306 1.307 . S
C317 O309 1.303 . S
C317 O310 1.247 . S
C318 O307 1.253 . S
C318 O308 1.283 . S
C319 O311 1.304 . S
C319 O313 1.272 . S
C320 O312 1.311 . S
C320 O314 1.231 1_565 S
O321 Zn303 1.953 . S
O321 C315 1.298 . S
O322 Zn323 1.953 . S
O322 C338 1.225 . S
Zn323 O322 1.953 . S
Zn323 O324 1.949 . S
Zn323 O330 1.919 . S
Zn323 O335 1.924 . S
O324 Zn323 1.949 . S
O324 Zn325 1.923 . S
O324 Zn326 1.950 . S
O324 Zn327 1.945 . S
Zn325 O324 1.923 . S
Zn325 O328 1.933 . S
Zn325 O331 1.941 . S
Zn325 O332 1.965 . S
Zn326 O324 1.950 . S
Zn326 O333 1.938 . S
Zn326 O334 1.906 . S
Zn326 O344 1.953 . S
Zn327 O324 1.945 . S
Zn327 O329 1.932 . S
Zn327 O336 1.977 . S
Zn327 O337 1.910 . S
O328 Zn325 1.933 . S
O328 C339 1.226 . S
O329 Zn327 1.932 . S
O329 C339 1.307 . S
O330 Zn323 1.919 . S
O330 C341 1.253 . S
O331 Zn325 1.941 . S
O331 C341 1.283 . S
O332 Zn325 1.965 . S
O332 C340 1.303 . S
O333 Zn326 1.938 . S
O333 C340 1.247 . S
O334 Zn326 1.906 . S
O334 C342 1.304 . S
O335 Zn323 1.924 . S
O335 C343 1.311 . S
O336 Zn327 1.977 . S
O336 C342 1.272 . S
O337 Zn327 1.910 . S
O337 C343 1.231 . S
C338 O322 1.225 . S
C338 O344 1.298 . S
C339 O328 1.226 . S
C339 O329 1.307 . S
C340 O332 1.303 . S
C340 O333 1.247 . S
C341 O330 1.253 . S
C341 O331 1.283 . S
C342 O334 1.304 . S
C342 O336 1.272 . S
C343 O335 1.311 . S
C343 O337 1.231 . S
O344 Zn326 1.953 . S
O344 C338 1.298 . S
O345 Zn346 1.953 . S
O345 C361 1.225 . S
Zn346 O345 1.953 . S
Zn346 O347 1.949 . S
Zn346 O353 1.919 . S
Zn346 O358 1.924 . S
O347 Zn346 1.949 . S
O347 Zn348 1.923 . S
O347 Zn349 1.950 . S
O347 Zn350 1.945 . S
Zn348 O347 1.923 . S
Zn348 O351 1.933 . S
Zn348 O354 1.941 . S
Zn348 O355 1.965 . S
Zn349 O347 1.950 . S
Zn349 O356 1.938 . S
Zn349 O357 1.906 . S
Zn349 O367 1.953 . S
Zn350 O347 1.945 . S
Zn350 O352 1.932 . S
Zn350 O359 1.977 . S
Zn350 O360 1.910 . S
O351 Zn348 1.933 . S
O351 C362 1.226 . S
O352 Zn350 1.932 . S
O352 C362 1.307 . S
O353 Zn346 1.919 . S
O353 C364 1.253 . S
O354 Zn348 1.941 . S
O354 C364 1.283 . S
O355 Zn348 1.965 . S
O355 C363 1.303 . S
O356 Zn349 1.938 . S
O356 C363 1.247 . S
O357 Zn349 1.906 . S
O357 C365 1.304 . S
O358 Zn346 1.924 . S
O358 C366 1.311 . S
O359 Zn350 1.977 . S
O359 C365 1.272 . S
O360 Zn350 1.910 . S
O360 C366 1.231 . S
C361 O345 1.225 . S
C361 O367 1.298 . S
C362 O351 1.226 . S
C362 O352 1.307 . S
C363 O355 1.303 . S
C363 O356 1.247 . S
C364 O353 1.253 . S
C364 O354 1.283 . S
C365 O357 1.304 . S
C365 O359 1.272 . S
C366 O358 1.311 . S
C366 O360 1.231 . S
O367 Zn349 1.953 . S
O367 C361 1.298 . S
C368 C369 1.363 . S
C368 C374 1.379 . S
C368 N376 1.356 . S
C369 C368 1.363 . S
C369 C375 1.363 . S
C370 C371 1.363 . S
C370 C375 1.379 . S
C370 N377 1.356 . S
C371 C370 1.363 . S
C371 C374 1.363 . S
N372 C374 1.356 . S
N372 H384 0.984 1_545 S
N372 H385 0.985 . S
N373 C375 1.356 . S
N373 H378 0.984 . S
N373 H379 0.985 . S
C374 C368 1.379 . S
C374 C371 1.363 . S
C374 N372 1.356 . S
C375 C369 1.363 . S
C375 C370 1.379 . S
C375 N373 1.356 . S
N376 C368 1.356 . S
N376 H382 0.984 . S
N376 H383 0.984 . S
N377 C370 1.356 . S
N377 H380 0.984 . S
N377 H381 0.985 . S
H378 N373 0.984 . S
H379 N373 0.985 . S
H380 N377 0.984 . S
H381 N377 0.985 . S
H382 N376 0.984 . S
H383 N376 0.984 . S
H384 N372 0.984 1_565 S
H385 N372 0.985 . S
C386 C387 1.363 . S
C386 C392 1.379 . S
C386 N394 1.356 . S
C387 C386 1.363 . S
C387 C393 1.363 . S
C388 C389 1.363 . S
C388 C393 1.379 . S
C388 N395 1.356 . S
C389 C388 1.363 . S
C389 C392 1.363 . S
N390 C392 1.356 . S
N390 H402 0.984 . S
N390 H403 0.985 . S
N391 C393 1.356 . S
N391 H396 0.984 . S
N391 H397 0.985 . S
C392 C386 1.379 . S
C392 C389 1.363 . S
C392 N390 1.356 . S
C393 C387 1.363 . S
C393 C388 1.379 . S
C393 N391 1.356 . S
N394 C386 1.356 . S
N394 H400 0.984 . S
N394 H401 0.984 . S
N395 C388 1.356 . S
N395 H398 0.984 . S
N395 H399 0.985 . S
H396 N391 0.984 . S
H397 N391 0.985 . S
H398 N395 0.984 . S
H399 N395 0.985 . S
H400 N394 0.984 . S
H401 N394 0.984 . S
H402 N390 0.984 . S
H403 N390 0.985 . S
C404 C405 1.363 . S
C404 C410 1.379 . S
C404 N412 1.356 . S
C405 C404 1.363 . S
C405 C411 1.363 . S
C406 C407 1.363 . S
C406 C411 1.379 . S
C406 N413 1.356 . S
C407 C406 1.363 . S
C407 C410 1.363 . S
N408 C410 1.356 . S
N408 H420 0.984 . S
N408 H421 0.985 . S
N409 C411 1.356 . S
N409 H414 0.984 . S
N409 H415 0.985 1_655 S
C410 C404 1.379 . S
C410 C407 1.363 . S
C410 N408 1.356 . S
C411 C405 1.363 . S
C411 C406 1.379 . S
C411 N409 1.356 . S
N412 C404 1.356 . S
N412 H418 0.984 . S
N412 H419 0.984 . S
N413 C406 1.356 . S
N413 H416 0.984 . S
N413 H417 0.985 . S
H414 N409 0.984 . S
H415 N409 0.985 1_455 S
H416 N413 0.984 . S
H417 N413 0.985 . S
H418 N412 0.984 . S
H419 N412 0.984 . S
H420 N408 0.984 . S
H421 N408 0.985 . S
C422 C423 1.363 . S
C422 C428 1.379 . S
C422 N430 1.356 . S
C423 C422 1.363 . S
C423 C429 1.363 . S
C424 C425 1.363 . S
C424 C429 1.379 . S
C424 N431 1.356 . S
C425 C424 1.363 . S
C425 C428 1.363 . S
N426 C428 1.356 . S
N426 H438 0.984 . S
N426 H439 0.985 . S
N427 C429 1.356 . S
N427 H432 0.984 . S
N427 H433 0.985 . S
C428 C422 1.379 . S
C428 C425 1.363 . S
C428 N426 1.356 . S
C429 C423 1.363 . S
C429 C424 1.379 . S
C429 N427 1.356 . S
N430 C422 1.356 . S
N430 H436 0.984 1_565 S
N430 H437 0.984 . S
N431 C424 1.356 . S
N431 H434 0.984 . S
N431 H435 0.985 . S
H432 N427 0.984 . S
H433 N427 0.985 . S
H434 N431 0.984 . S
H435 N431 0.985 . S
H436 N430 0.984 1_545 S
H437 N430 0.984 . S
H438 N426 0.984 . S
H439 N426 0.985 . S
C440 C441 1.363 . S
C440 C446 1.379 . S
C440 N448 1.356 . S
C441 C440 1.363 . S
C441 C447 1.363 . S
C442 C443 1.363 . S
C442 C447 1.379 . S
C442 N449 1.356 . S
C443 C442 1.363 . S
C443 C446 1.363 . S
N444 C446 1.356 . S
N444 H456 0.984 . S
N444 H457 0.985 . S
N445 C447 1.356 . S
N445 H450 0.984 . S
N445 H451 0.985 . S
C446 C440 1.379 . S
C446 C443 1.363 . S
C446 N444 1.356 . S
C447 C441 1.363 . S
C447 C442 1.379 . S
C447 N445 1.356 . S
N448 C440 1.356 . S
N448 H454 0.984 . S
N448 H455 0.984 . S
N449 C442 1.356 . S
N449 H452 0.984 . S
N449 H453 0.985 . S
H450 N445 0.984 . S
H451 N445 0.985 . S
H452 N449 0.984 . S
H453 N449 0.985 . S
H454 N448 0.984 . S
H455 N448 0.984 . S
H456 N444 0.984 . S
H457 N444 0.985 . S
C458 C459 1.363 . S
C458 C464 1.379 . S
C458 N466 1.356 . S
C459 C458 1.363 . S
C459 C465 1.363 . S
C460 C461 1.363 . S
C460 C465 1.379 . S
C460 N467 1.356 . S
C461 C460 1.363 . S
C461 C464 1.363 . S
N462 C464 1.356 . S
N462 H474 0.984 . S
N462 H475 0.985 . S
N463 C465 1.356 . S
N463 H468 0.984 . S
N463 H469 0.985 . S
C464 C458 1.379 . S
C464 C461 1.363 . S
C464 N462 1.356 . S
C465 C459 1.363 . S
C465 C460 1.379 . S
C465 N463 1.356 . S
N466 C458 1.356 . S
N466 H472 0.984 . S
N466 H473 0.984 . S
N467 C460 1.356 . S
N467 H470 0.984 . S
N467 H471 0.985 . S
H468 N463 0.984 . S
H469 N463 0.985 . S
H470 N467 0.984 . S
H471 N467 0.985 . S
H472 N466 0.984 . S
H473 N466 0.984 . S
H474 N462 0.984 . S
H475 N462 0.985 . S
C476 C477 1.363 . S
C476 C482 1.379 . S
C476 N484 1.356 . S
C477 C476 1.363 . S
C477 C483 1.363 . S
C478 C479 1.363 . S
C478 C483 1.379 . S
C478 N485 1.356 . S
C479 C478 1.363 . S
C479 C482 1.363 . S
N480 C482 1.356 . S
N480 H492 0.984 . S
N480 H493 0.985 . S
N481 C483 1.356 . S
N481 H486 0.984 . S
N481 H487 0.985 . S
C482 C476 1.379 . S
C482 C479 1.363 . S
C482 N480 1.356 . S
C483 C477 1.363 . S
C483 C478 1.379 . S
C483 N481 1.356 . S
N484 C476 1.356 . S
N484 H490 0.984 . S
N484 H491 0.984 . S
N485 C478 1.356 . S
N485 H488 0.984 . S
N485 H489 0.985 . S
H486 N481 0.984 . S
H487 N481 0.985 . S
H488 N485 0.984 . S
H489 N485 0.985 . S
H490 N484 0.984 . S
H491 N484 0.984 . S
H492 N480 0.984 . S
H493 N480 0.985 . S
C494 C495 1.363 . S
C494 C500 1.379 . S
C494 N502 1.356 . S
C495 C494 1.363 . S
C495 C501 1.363 . S
C496 C497 1.363 . S
C496 C501 1.379 . S
C496 N503 1.356 . S
C497 C496 1.363 . S
C497 C500 1.363 . S
N498 C500 1.356 . S
N498 H510 0.984 . S
N498 H511 0.985 . S
N499 C501 1.356 . S
N499 H504 0.984 . S
N499 H505 0.985 . S
C500 C494 1.379 . S
C500 C497 1.363 . S
C500 N498 1.356 . S
C501 C495 1.363 . S
C501 C496 1.379 . S
C501 N499 1.356 . S
N502 C494 1.356 . S
N502 H508 0.984 . S
N502 H509 0.984 . S
N503 C496 1.356 . S
N503 H506 0.984 . S
N503 H507 0.985 . S
H504 N499 0.984 . S
H505 N499 0.985 . S
H506 N503 0.984 . S
H507 N503 0.985 . S
H508 N502 0.984 . S
H509 N502 0.984 . S
H510 N498 0.984 . S
H511 N498 0.985 . S
C512 C513 1.363 . S
C512 C518 1.379 . S
C512 N520 1.356 . S
C513 C512 1.363 . S
C513 C519 1.363 . S
C514 C515 1.363 . S
C514 C519 1.379 . S
C514 N521 1.356 . S
C515 C514 1.363 . S
C515 C518 1.363 . S
N516 C518 1.356 1_565 S
N516 H528 0.984 . S
N516 H529 0.985 . S
N517 C519 1.356 . S
N517 H522 0.984 . S
N517 H523 0.985 . S
C518 C512 1.379 . S
C518 C515 1.363 . S
C518 N516 1.356 1_545 S
C519 C513 1.363 . S
C519 C514 1.379 . S
C519 N517 1.356 . S
N520 C512 1.356 . S
N520 H526 0.984 1_545 S
N520 H527 0.984 . S
N521 C514 1.356 . S
N521 H524 0.984 . S
N521 H525 0.985 . S
H522 N517 0.984 . S
H523 N517 0.985 . S
H524 N521 0.984 . S
H525 N521 0.985 . S
H526 N520 0.984 1_565 S
H527 N520 0.984 . S
H528 N516 0.984 . S
H529 N516 0.985 . S
C530 C531 1.363 . S
C530 C536 1.379 . S
C530 N538 1.356 . S
C531 C530 1.363 . S
C531 C537 1.363 . S
C532 C533 1.363 . S
C532 C537 1.379 . S
C532 N539 1.356 . S
C533 C532 1.363 . S
C533 C536 1.363 . S
N534 C536 1.356 . S
N534 H546 0.984 . S
N534 H547 0.985 . S
N535 C537 1.356 . S
N535 H540 0.984 . S
N535 H541 0.985 . S
C536 C530 1.379 . S
C536 C533 1.363 . S
C536 N534 1.356 . S
C537 C531 1.363 . S
C537 C532 1.379 . S
C537 N535 1.356 . S
N538 C530 1.356 . S
N538 H544 0.984 . S
N538 H545 0.984 . S
N539 C532 1.356 . S
N539 H542 0.984 . S
N539 H543 0.985 . S
H540 N535 0.984 . S
H541 N535 0.985 . S
H542 N539 0.984 . S
H543 N539 0.985 . S
H544 N538 0.984 . S
H545 N538 0.984 . S
H546 N534 0.984 . S
H547 N534 0.985 . S
C548 C549 1.363 . S
C548 C554 1.379 . S
C548 N556 1.356 . S
C549 C548 1.363 . S
C549 C555 1.363 . S
C550 C551 1.363 . S
C550 C555 1.379 . S
C550 N557 1.356 . S
C551 C550 1.363 . S
C551 C554 1.363 . S
N552 C554 1.356 . S
N552 H564 0.984 . S
N552 H565 0.985 . S
N553 C555 1.356 . S
N553 H558 0.984 . S
N553 H559 0.985 . S
C554 C548 1.379 . S
C554 C551 1.363 . S
C554 N552 1.356 . S
C555 C549 1.363 . S
C555 C550 1.379 . S
C555 N553 1.356 . S
N556 C548 1.356 . S
N556 H562 0.984 . S
N556 H563 0.984 . S
N557 C550 1.356 . S
N557 H560 0.984 . S
N557 H561 0.985 . S
H558 N553 0.984 . S
H559 N553 0.985 . S
H560 N557 0.984 . S
H561 N557 0.985 . S
H562 N556 0.984 . S
H563 N556 0.984 . S
H564 N552 0.984 . S
H565 N552 0.985 . S
C566 C567 1.363 . S
C566 C572 1.379 . S
C566 N574 1.356 . S
C567 C566 1.363 . S
C567 C573 1.363 . S
C568 C569 1.363 . S
C568 C573 1.379 . S
C568 N575 1.356 . S
C569 C568 1.363 . S
C569 C572 1.363 . S
N570 C572 1.356 1_655 S
N570 H582 0.984 . S
N570 H583 0.985 . S
N571 C573 1.356 . S
N571 H576 0.984 . S
N571 H577 0.985 . S
C572 C566 1.379 . S
C572 C569 1.363 . S
C572 N570 1.356 1_455 S
C573 C567 1.363 . S
C573 C568 1.379 . S
C573 N571 1.356 . S
N574 C566 1.356 . S
N574 H580 0.984 . S
N574 H581 0.984 . S
N575 C568 1.356 . S
N575 H578 0.984 . S
N575 H579 0.985 . S
H576 N571 0.984 . S
H577 N571 0.985 . S
H578 N575 0.984 . S
H579 N575 0.985 . S
H580 N574 0.984 . S
H581 N574 0.984 . S
H582 N570 0.984 . S
H583 N570 0.985 . S
C584 C585 1.363 . S
C584 C590 1.379 . S
C584 N592 1.356 . S
C585 C584 1.363 . S
C585 C591 1.363 . S
C586 C587 1.363 . S
C586 C591 1.379 . S
C586 N593 1.356 1_565 S
C587 C586 1.363 . S
C587 C590 1.363 . S
N588 C590 1.356 . S
N588 H600 0.984 . S
N588 H601 0.985 . S
N589 C591 1.356 . S
N589 H594 0.984 . S
N589 H595 0.985 . S
C590 C584 1.379 . S
C590 C587 1.363 . S
C590 N588 1.356 . S
C591 C585 1.363 . S
C591 C586 1.379 . S
C591 N589 1.356 . S
N592 C584 1.356 . S
N592 H598 0.984 . S
N592 H599 0.984 . S
N593 C586 1.356 1_545 S
N593 H596 0.984 . S
N593 H597 0.985 . S
H594 N589 0.984 . S
H595 N589 0.985 . S
H596 N593 0.984 . S
H597 N593 0.985 . S
H598 N592 0.984 . S
H599 N592 0.984 . S
H600 N588 0.984 . S
H601 N588 0.985 . S
C602 C603 1.363 . S
C602 C608 1.379 . S
C602 N610 1.356 . S
C603 C602 1.363 . S
C603 C609 1.363 . S
C604 C605 1.363 . S
C604 C609 1.379 . S
C604 N611 1.356 . S
C605 C604 1.363 . S
C605 C608 1.363 . S
N606 C608 1.356 . S
N606 H618 0.984 . S
N606 H619 0.985 . S
N607 C609 1.356 . S
N607 H612 0.984 . S
N607 H613 0.985 . S
C608 C602 1.379 . S
C608 C605 1.363 . S
C608 N606 1.356 . S
C609 C603 1.363 . S
C609 C604 1.379 . S
C609 N607 1.356 . S
N610 C602 1.356 . S
N610 H616 0.984 . S
N610 H617 0.984 . S
N611 C604 1.356 . S
N611 H614 0.984 . S
N611 H615 0.985 . S
H612 N607 0.984 . S
H613 N607 0.985 . S
H614 N611 0.984 . S
H615 N611 0.985 . S
H616 N610 0.984 . S
H617 N610 0.984 . S
H618 N606 0.984 . S
H619 N606 0.985 . S
C620 C621 1.363 . S
C620 C626 1.379 . S
C620 N628 1.356 . S
C621 C620 1.363 . S
C621 C627 1.363 . S
C622 C623 1.363 . S
C622 C627 1.379 . S
C622 N629 1.356 . S
C623 C622 1.363 . S
C623 C626 1.363 . S
N624 C626 1.356 . S
N624 H636 0.984 . S
N624 H637 0.985 . S
N625 C627 1.356 . S
N625 H630 0.984 . S
N625 H631 0.985 . S
C626 C620 1.379 . S
C626 C623 1.363 . S
C626 N624 1.356 . S
C627 C621 1.363 . S
C627 C622 1.379 . S
C627 N625 1.356 . S
N628 C620 1.356 . S
N628 H634 0.984 . S
N628 H635 0.984 . S
N629 C622 1.356 . S
N629 H632 0.984 . S
N629 H633 0.985 . S
H630 N625 0.984 . S
H631 N625 0.985 . S
H632 N629 0.984 . S
H633 N629 0.985 . S
H634 N628 0.984 . S
H635 N628 0.984 . S
H636 N624 0.984 . S
H637 N624 0.985 . S
C638 C639 1.363 . S
C638 C644 1.379 . S
C638 N646 1.356 . S
C639 C638 1.363 . S
C639 C645 1.363 . S
C640 C641 1.363 . S
C640 C645 1.379 . S
C640 N647 1.356 . S
C641 C640 1.363 . S
C641 C644 1.363 . S
N642 C644 1.356 . S
N642 H654 0.984 . S
N642 H655 0.985 . S
N643 C645 1.356 1_455 S
N643 H648 0.984 . S
N643 H649 0.985 . S
C644 C638 1.379 . S
C644 C641 1.363 . S
C644 N642 1.356 . S
C645 C639 1.363 . S
C645 C640 1.379 . S
C645 N643 1.356 1_655 S
N646 C638 1.356 . S
N646 H652 0.984 . S
N646 H653 0.984 . S
N647 C640 1.356 . S
N647 H650 0.984 . S
N647 H651 0.985 . S
H648 N643 0.984 . S
H649 N643 0.985 . S
H650 N647 0.984 . S
H651 N647 0.985 . S
H652 N646 0.984 . S
H653 N646 0.984 . S
H654 N642 0.984 . S
H655 N642 0.985 . S
C656 C657 1.363 . S
C656 C662 1.379 . S
C656 N664 1.356 1_565 S
C657 C656 1.363 . S
C657 C663 1.363 . S
C658 C659 1.363 . S
C658 C663 1.379 . S
C658 N665 1.356 . S
C659 C658 1.363 . S
C659 C662 1.363 . S
N660 C662 1.356 . S
N660 H672 0.985 . S
N660 H673 0.985 . S
N661 C663 1.356 . S
N661 H666 0.984 . S
N661 H667 0.985 . S
C662 C656 1.379 . S
C662 C659 1.363 . S
C662 N660 1.356 . S
C663 C657 1.363 . S
C663 C658 1.379 . S
C663 N661 1.356 . S
N664 C656 1.356 1_545 S
N664 H670 0.984 . S
N664 H671 0.984 . S
N665 C658 1.356 . S
N665 H668 0.984 . S
N665 H669 0.985 . S
H666 N661 0.984 . S
H667 N661 0.985 . S
H668 N665 0.984 . S
H669 N665 0.985 . S
H670 N664 0.984 . S
H671 N664 0.984 . S
H672 N660 0.985 . S
H673 N660 0.985 . S
C674 C675 1.363 . S
C674 C680 1.379 . S
C674 N682 1.356 . S
C675 C674 1.363 . S
C675 C681 1.363 . S
C676 C677 1.363 . S
C676 C681 1.379 . S
C676 N683 1.356 . S
C677 C676 1.363 . S
C677 C680 1.363 . S
N678 C680 1.356 . S
N678 H690 0.984 . S
N678 H691 0.985 . S
N679 C681 1.356 . S
N679 H684 0.984 . S
N679 H685 0.985 . S
C680 C674 1.379 . S
C680 C677 1.363 . S
C680 N678 1.356 . S
C681 C675 1.363 . S
C681 C676 1.379 . S
C681 N679 1.356 . S
N682 C674 1.356 . S
N682 H688 0.984 . S
N682 H689 0.984 . S
N683 C676 1.356 . S
N683 H686 0.984 . S
N683 H687 0.985 . S
H684 N679 0.984 . S
H685 N679 0.985 . S
H686 N683 0.984 . S
H687 N683 0.985 . S
H688 N682 0.984 . S
H689 N682 0.984 . S
H690 N678 0.984 . S
H691 N678 0.985 . S
C692 C693 1.363 . S
C692 C698 1.379 . S
C692 N700 1.356 . S
C693 C692 1.363 . S
C693 C699 1.363 . S
C694 C695 1.363 . S
C694 C699 1.379 . S
C694 N701 1.356 . S
C695 C694 1.363 . S
C695 C698 1.363 . S
N696 C698 1.356 . S
N696 H708 0.984 . S
N696 H709 0.985 . S
N697 C699 1.356 . S
N697 H702 0.984 . S
N697 H703 0.985 . S
C698 C692 1.379 . S
C698 C695 1.363 . S
C698 N696 1.356 . S
C699 C693 1.363 . S
C699 C694 1.379 . S
C699 N697 1.356 . S
N700 C692 1.356 . S
N700 H706 0.984 . S
N700 H707 0.984 . S
N701 C694 1.356 . S
N701 H704 0.984 . S
N701 H705 0.985 . S
H702 N697 0.984 . S
H703 N697 0.985 . S
H704 N701 0.984 . S
H705 N701 0.985 . S
H706 N700 0.984 . S
H707 N700 0.984 . S
H708 N696 0.984 . S
H709 N696 0.985 . S
C710 C711 1.363 . S
C710 C716 1.379 . S
C710 N718 1.356 . S
C711 C710 1.363 . S
C711 C717 1.363 . S
C712 C713 1.363 . S
C712 C717 1.379 . S
C712 N719 1.356 1_655 S
C713 C712 1.363 . S
C713 C716 1.363 . S
N714 C716 1.356 . S
N714 H726 0.984 . S
N714 H727 0.985 . S
N715 C717 1.356 . S
N715 H720 0.984 . S
N715 H721 0.985 . S
C716 C710 1.379 . S
C716 C713 1.363 . S
C716 N714 1.356 . S
C717 C711 1.363 . S
C717 C712 1.379 . S
C717 N715 1.356 . S
N718 C710 1.356 . S
N718 H724 0.984 . S
N718 H725 0.984 . S
N719 C712 1.356 1_455 S
N719 H722 0.984 . S
N719 H723 0.985 . S
H720 N715 0.984 . S
H721 N715 0.985 . S
H722 N719 0.984 . S
H723 N719 0.985 . S
H724 N718 0.984 . S
H725 N718 0.984 . S
H726 N714 0.984 . S
H727 N714 0.985 . S
C728 C729 1.363 . S
C728 C734 1.379 . S
C728 N736 1.356 . S
C729 C728 1.363 . S
C729 C735 1.363 . S
C730 C731 1.363 . S
C730 C735 1.379 . S
C730 N737 1.356 . S
C731 C730 1.363 . S
C731 C734 1.363 . S
N732 C734 1.356 . S
N732 H744 0.983 1_545 S
N732 H745 0.985 1_545 S
N733 C735 1.356 . S
N733 H738 0.984 . S
N733 H739 0.985 . S
C734 C728 1.379 . S
C734 C731 1.363 . S
C734 N732 1.356 . S
C735 C729 1.363 . S
C735 C730 1.379 . S
C735 N733 1.356 . S
N736 C728 1.356 . S
N736 H742 0.984 . S
N736 H743 0.984 . S
N737 C730 1.356 . S
N737 H740 0.984 . S
N737 H741 0.985 . S
H738 N733 0.984 . S
H739 N733 0.985 . S
H740 N737 0.984 . S
H741 N737 0.985 . S
H742 N736 0.984 . S
H743 N736 0.984 . S
H744 N732 0.983 1_565 S
H745 N732 0.985 1_565 S
C746 C747 1.363 . S
C746 C752 1.379 . S
C746 N754 1.356 . S
C747 C746 1.363 . S
C747 C753 1.363 . S
C748 C749 1.363 . S
C748 C753 1.379 . S
C748 N755 1.356 . S
C749 C748 1.363 . S
C749 C752 1.363 . S
N750 C752 1.356 . S
N750 H762 0.984 . S
N750 H763 0.985 . S
N751 C753 1.356 . S
N751 H756 0.984 . S
N751 H757 0.985 . S
C752 C746 1.379 . S
C752 C749 1.363 . S
C752 N750 1.356 . S
C753 C747 1.363 . S
C753 C748 1.379 . S
C753 N751 1.356 . S
N754 C746 1.356 . S
N754 H760 0.984 . S
N754 H761 0.984 . S
N755 C748 1.356 . S
N755 H758 0.984 . S
N755 H759 0.985 . S
H756 N751 0.984 . S
H757 N751 0.985 . S
H758 N755 0.984 . S
H759 N755 0.985 . S
H760 N754 0.984 . S
H761 N754 0.984 . S
H762 N750 0.984 . S
H763 N750 0.985 . S
C764 C765 1.363 . S
C764 C770 1.379 . S
C764 N772 1.356 . S
C765 C764 1.363 . S
C765 C771 1.363 . S
C766 C767 1.363 . S
C766 C771 1.379 . S
C766 N773 1.356 . S
C767 C766 1.363 . S
C767 C770 1.363 . S
N768 C770 1.356 . S
N768 H780 0.984 . S
N768 H781 0.985 . S
N769 C771 1.356 . S
N769 H774 0.984 . S
N769 H775 0.985 . S
C770 C764 1.379 . S
C770 C767 1.363 . S
C770 N768 1.356 . S
C771 C765 1.363 . S
C771 C766 1.379 . S
C771 N769 1.356 . S
N772 C764 1.356 . S
N772 H778 0.984 . S
N772 H779 0.984 . S
N773 C766 1.356 . S
N773 H776 0.984 . S
N773 H777 0.985 . S
H774 N769 0.984 . S
H775 N769 0.985 . S
H776 N773 0.984 . S
H777 N773 0.985 . S
H778 N772 0.984 . S
H779 N772 0.984 . S
H780 N768 0.984 . S
H781 N768 0.985 . S
C782 C783 1.363 . S
C782 C788 1.379 . S
C782 N790 1.356 . S
C783 C782 1.363 . S
C783 C789 1.363 . S
C784 C785 1.363 . S
C784 C789 1.379 . S
C784 N791 1.356 1_455 S
C785 C784 1.363 . S
C785 C788 1.363 . S
N786 C788 1.356 . S
N786 H798 0.984 . S
N786 H799 0.985 . S
N787 C789 1.356 . S
N787 H792 0.984 . S
N787 H793 0.985 . S
C788 C782 1.379 . S
C788 C785 1.363 . S
C788 N786 1.356 . S
C789 C783 1.363 . S
C789 C784 1.379 . S
C789 N787 1.356 . S
N790 C782 1.356 . S
N790 H796 0.984 . S
N790 H797 0.984 . S
N791 C784 1.356 1_655 S
N791 H794 0.984 . S
N791 H795 0.985 . S
H792 N787 0.984 . S
H793 N787 0.985 . S
H794 N791 0.984 . S
H795 N791 0.985 . S
H796 N790 0.984 . S
H797 N790 0.984 . S
H798 N786 0.984 . S
H799 N786 0.985 . S
C800 C801 1.363 . S
C800 C806 1.379 . S
C800 N808 1.356 . S
C801 C800 1.363 . S
C801 C807 1.363 . S
C802 C803 1.363 . S
C802 C807 1.379 . S
C802 N809 1.356 . S
C803 C802 1.363 . S
C803 C806 1.363 . S
N804 C806 1.356 . S
N804 H816 0.984 . S
N804 H817 0.985 . S
N805 C807 1.356 . S
N805 H810 0.984 . S
N805 H811 0.985 . S
C806 C800 1.379 . S
C806 C803 1.363 . S
C806 N804 1.356 . S
C807 C801 1.363 . S
C807 C802 1.379 . S
C807 N805 1.356 . S
N808 C800 1.356 . S
N808 H814 0.984 . S
N808 H815 0.984 . S
N809 C802 1.356 . S
N809 H812 0.984 . S
N809 H813 0.985 . S
H810 N805 0.984 . S
H811 N805 0.985 . S
H812 N809 0.984 . S
H813 N809 0.985 . S
H814 N808 0.984 . S
H815 N808 0.984 . S
H816 N804 0.984 . S
H817 N804 0.985 . S
C818 C819 1.363 . S
C818 C824 1.379 . S
C818 N826 1.356 . S
C819 C818 1.363 . S
C819 C825 1.363 . S
C820 C821 1.363 . S
C820 C825 1.379 . S
C820 N827 1.356 . S
C821 C820 1.363 . S
C821 C824 1.363 . S
N822 C824 1.356 . S
N822 H834 0.984 . S
N822 H835 0.985 . S
N823 C825 1.356 . S
N823 H828 0.984 . S
N823 H829 0.985 . S
C824 C818 1.379 . S
C824 C821 1.363 . S
C824 N822 1.356 . S
C825 C819 1.363 . S
C825 C820 1.379 . S
C825 N823 1.356 . S
N826 C818 1.356 . S
N826 H832 0.984 . S
N826 H833 0.984 . S
N827 C820 1.356 . S
N827 H830 0.984 . S
N827 H831 0.985 . S
H828 N823 0.984 . S
H829 N823 0.985 . S
H830 N827 0.984 . S
H831 N827 0.985 . S
H832 N826 0.984 . S
H833 N826 0.984 . S
H834 N822 0.984 . S
H835 N822 0.985 . S
C836 C837 1.363 . S
C836 C842 1.379 . S
C836 N844 1.356 . S
C837 C836 1.363 . S
C837 C843 1.363 . S
C838 C839 1.363 . S
C838 C843 1.379 . S
C838 N845 1.356 . S
C839 C838 1.363 . S
C839 C842 1.363 . S
N840 C842 1.356 . S
N840 H852 0.984 . S
N840 H853 0.985 . S
N841 C843 1.356 . S
N841 H846 0.984 . S
N841 H847 0.985 . S
C842 C836 1.379 . S
C842 C839 1.363 . S
C842 N840 1.356 . S
C843 C837 1.363 . S
C843 C838 1.379 . S
C843 N841 1.356 . S
N844 C836 1.356 . S
N844 H850 0.984 . S
N844 H851 0.984 . S
N845 C838 1.356 . S
N845 H848 0.984 . S
N845 H849 0.985 . S
H846 N841 0.984 . S
H847 N841 0.985 . S
H848 N845 0.984 . S
H849 N845 0.985 . S
H850 N844 0.984 . S
H851 N844 0.984 . S
H852 N840 0.984 . S
H853 N840 0.985 . S
C854 C855 1.363 . S
C854 C860 1.379 . S
C854 N862 1.356 . S
C855 C854 1.363 . S
C855 C861 1.363 . S
C856 C857 1.363 . S
C856 C861 1.379 . S
C856 N863 1.356 . S
C857 C856 1.363 . S
C857 C860 1.363 . S
N858 C860 1.356 . S
N858 H870 0.984 . S
N858 H871 0.985 . S
N859 C861 1.356 . S
N859 H864 0.984 . S
N859 H865 0.985 . S
C860 C854 1.379 . S
C860 C857 1.363 . S
C860 N858 1.356 . S
C861 C855 1.363 . S
C861 C856 1.379 . S
C861 N859 1.356 . S
N862 C854 1.356 . S
N862 H868 0.984 . S
N862 H869 0.984 . S
N863 C856 1.356 . S
N863 H866 0.984 . S
N863 H867 0.985 . S
H864 N859 0.984 . S
H865 N859 0.985 . S
H866 N863 0.984 . S
H867 N863 0.985 . S
H868 N862 0.984 . S
H869 N862 0.984 . S
H870 N858 0.984 . S
H871 N858 0.985 . S
C872 C873 1.363 . S
C872 C878 1.379 . S
C872 N880 1.356 . S
C873 C872 1.363 . S
C873 C879 1.363 . S
C874 C875 1.363 . S
C874 C879 1.379 . S
C874 N881 1.356 . S
C875 C874 1.363 . S
C875 C878 1.363 . S
N876 C878 1.356 . S
N876 H888 0.984 . S
N876 H889 0.985 . S
N877 C879 1.356 . S
N877 H882 0.984 . S
N877 H883 0.985 . S
C878 C872 1.379 . S
C878 C875 1.363 . S
C878 N876 1.356 . S
C879 C873 1.363 . S
C879 C874 1.379 . S
C879 N877 1.356 . S
N880 C872 1.356 . S
N880 H886 0.984 . S
N880 H887 0.984 . S
N881 C874 1.356 . S
N881 H884 0.984 . S
N881 H885 0.985 . S
H882 N877 0.984 . S
H883 N877 0.985 . S
H884 N881 0.984 . S
H885 N881 0.985 . S
H886 N880 0.984 . S
H887 N880 0.984 . S
H888 N876 0.984 . S
H889 N876 0.985 . S
C890 C891 1.363 . S
C890 C896 1.379 . S
C890 N898 1.356 . S
C891 C890 1.363 . S
C891 C897 1.363 . S
C892 C893 1.363 . S
C892 C897 1.379 . S
C892 N899 1.356 . S
C893 C892 1.363 . S
C893 C896 1.363 . S
N894 C896 1.356 . S
N894 H906 0.984 . S
N894 H907 0.985 . S
N895 C897 1.356 . S
N895 H900 0.984 . S
N895 H901 0.985 . S
C896 C890 1.379 . S
C896 C893 1.363 . S
C896 N894 1.356 . S
C897 C891 1.363 . S
C897 C892 1.379 . S
C897 N895 1.356 . S
N898 C890 1.356 . S
N898 H904 0.984 . S
N898 H905 0.984 . S
N899 C892 1.356 . S
N899 H902 0.984 . S
N899 H903 0.985 . S
H900 N895 0.984 . S
H901 N895 0.985 . S
H902 N899 0.984 . S
H903 N899 0.985 . S
H904 N898 0.984 . S
H905 N898 0.984 . S
H906 N894 0.984 . S
H907 N894 0.985 . S
C908 C909 1.363 . S
C908 C914 1.379 . S
C908 N916 1.356 . S
C909 C908 1.363 . S
C909 C915 1.363 . S
C910 C911 1.363 . S
C910 C915 1.379 . S
C910 N917 1.356 . S
C911 C910 1.363 . S
C911 C914 1.363 . S
N912 C914 1.356 . S
N912 H924 0.984 . S
N912 H925 0.985 . S
N913 C915 1.356 . S
N913 H918 0.984 . S
N913 H919 0.985 . S
C914 C908 1.379 . S
C914 C911 1.363 . S
C914 N912 1.356 . S
C915 C909 1.363 . S
C915 C910 1.379 . S
C915 N913 1.356 . S
N916 C908 1.356 . S
N916 H922 0.984 . S
N916 H923 0.984 . S
N917 C910 1.356 . S
N917 H920 0.984 . S
N917 H921 0.985 . S
H918 N913 0.984 . S
H919 N913 0.985 . S
H920 N917 0.984 . S
H921 N917 0.985 . S
H922 N916 0.984 . S
H923 N916 0.984 . S
H924 N912 0.984 . S
H925 N912 0.985 . S
C926 C927 1.363 . S
C926 C932 1.379 . S
C926 N934 1.356 . S
C927 C926 1.363 . S
C927 C933 1.363 . S
C928 C929 1.363 . S
C928 C933 1.379 . S
C928 N935 1.356 . S
C929 C928 1.363 . S
C929 C932 1.363 . S
N930 C932 1.356 . S
N930 H942 0.984 . S
N930 H943 0.985 . S
N931 C933 1.356 . S
N931 H936 0.984 . S
N931 H937 0.985 . S
C932 C926 1.379 . S
C932 C929 1.363 . S
C932 N930 1.356 . S
C933 C927 1.363 . S
C933 C928 1.379 . S
C933 N931 1.356 . S
N934 C926 1.356 . S
N934 H940 0.984 . S
N934 H941 0.984 . S
N935 C928 1.356 . S
N935 H938 0.984 . S
N935 H939 0.985 . S
H936 N931 0.984 . S
H937 N931 0.985 . S
H938 N935 0.984 . S
H939 N935 0.985 . S
H940 N934 0.984 . S
H941 N934 0.984 . S
H942 N930 0.984 . S
H943 N930 0.985 . S
C944 C945 1.363 . S
C944 C950 1.379 . S
C944 N952 1.356 . S
C945 C944 1.363 . S
C945 C951 1.363 . S
C946 C947 1.363 . S
C946 C951 1.379 . S
C946 N953 1.356 1_545 S
C947 C946 1.363 . S
C947 C950 1.363 . S
N948 C950 1.356 . S
N948 H960 0.984 . S
N948 H961 0.985 . S
N949 C951 1.356 . S
N949 H954 0.984 . S
N949 H955 0.985 . S
C950 C944 1.379 . S
C950 C947 1.363 . S
C950 N948 1.356 . S
C951 C945 1.363 . S
C951 C946 1.379 . S
C951 N949 1.356 . S
N952 C944 1.356 . S
N952 H958 0.984 . S
N952 H959 0.984 . S
N953 C946 1.356 1_565 S
N953 H956 0.984 . S
N953 H957 0.985 . S
H954 N949 0.984 . S
H955 N949 0.985 . S
H956 N953 0.984 . S
H957 N953 0.985 . S
H958 N952 0.984 . S
H959 N952 0.984 . S
H960 N948 0.984 . S
H961 N948 0.985 . S
C962 C963 1.363 . S
C962 C968 1.379 . S
C962 N970 1.356 . S
C963 C962 1.363 . S
C963 C969 1.363 . S
C964 C965 1.363 . S
C964 C969 1.379 . S
C964 N971 1.356 . S
C965 C964 1.363 . S
C965 C968 1.363 . S
N966 C968 1.356 . S
N966 H978 0.984 . S
N966 H979 0.985 . S
N967 C969 1.356 . S
N967 H972 0.984 . S
N967 H973 0.985 . S
C968 C962 1.379 . S
C968 C965 1.363 . S
C968 N966 1.356 . S
C969 C963 1.363 . S
C969 C964 1.379 . S
C969 N967 1.356 . S
N970 C962 1.356 . S
N970 H976 0.984 . S
N970 H977 0.984 . S
N971 C964 1.356 . S
N971 H974 0.984 . S
N971 H975 0.985 . S
H972 N967 0.984 . S
H973 N967 0.985 . S
H974 N971 0.984 . S
H975 N971 0.985 . S
H976 N970 0.984 . S
H977 N970 0.984 . S
H978 N966 0.984 . S
H979 N966 0.985 . S
C980 C981 1.363 . S
C980 C986 1.379 . S
C980 N988 1.356 . S
C981 C980 1.363 . S
C981 C987 1.363 . S
C982 C983 1.363 . S
C982 C987 1.379 . S
C982 N989 1.356 . S
C983 C982 1.363 . S
C983 C986 1.363 . S
N984 C986 1.356 . S
N984 H996 0.984 . S
N984 H997 0.985 . S
N985 C987 1.356 . S
N985 H990 0.984 . S
N985 H991 0.985 . S
C986 C980 1.379 . S
C986 C983 1.363 . S
C986 N984 1.356 . S
C987 C981 1.363 . S
C987 C982 1.379 . S
C987 N985 1.356 . S
N988 C980 1.356 . S
N988 H994 0.984 . S
N988 H995 0.984 . S
N989 C982 1.356 . S
N989 H992 0.984 . S
N989 H993 0.985 . S
H990 N985 0.984 . S
H991 N985 0.985 . S
H992 N989 0.984 . S
H993 N989 0.985 . S
H994 N988 0.984 . S
H995 N988 0.984 . S
H996 N984 0.984 . S
H997 N984 0.985 . S
C998 C999 1.363 . S
C998 C1004 1.379 . S
C998 N1006 1.356 . S
C999 C998 1.363 . S
C999 C1005 1.363 . S
C1000 C1001 1.363 . S
C1000 C1005 1.379 . S
C1000 N1007 1.356 . S
C1001 C1000 1.363 . S
C1001 C1004 1.363 . S
N1002 C1004 1.356 . S
N1002 H1014 0.984 . S
N1002 H1015 0.985 . S
N1003 C1005 1.356 . S
N1003 H1008 0.984 . S
N1003 H1009 0.985 . S
C1004 C998 1.379 . S
C1004 C1001 1.363 . S
C1004 N1002 1.356 . S
C1005 C999 1.363 . S
C1005 C1000 1.379 . S
C1005 N1003 1.356 . S
N1006 C998 1.356 . S
N1006 H1012 0.984 . S
N1006 H1013 0.984 . S
N1007 C1000 1.356 . S
N1007 H1010 0.984 . S
N1007 H1011 0.985 . S
H1008 N1003 0.984 . S
H1009 N1003 0.985 . S
H1010 N1007 0.984 . S
H1011 N1007 0.985 . S
H1012 N1006 0.984 . S
H1013 N1006 0.984 . S
H1014 N1002 0.984 . S
H1015 N1002 0.985 . S
C1016 C1017 1.363 . S
C1016 C1022 1.379 1_556 S
C1016 N1024 1.356 . S
C1017 C1016 1.363 . S
C1017 C1023 1.363 1_556 S
C1018 C1019 1.363 . S
C1018 C1023 1.379 . S
C1018 N1025 1.356 . S
C1019 C1018 1.363 . S
C1019 C1022 1.363 . S
N1020 C1022 1.356 . S
N1020 H1032 0.984 1_554 S
N1020 H1033 0.985 . S
N1021 C1023 1.356 . S
N1021 H1026 0.984 . S
N1021 H1027 0.985 . S
C1022 C1016 1.379 1_554 S
C1022 C1019 1.363 . S
C1022 N1020 1.356 . S
C1023 C1017 1.363 1_554 S
C1023 C1018 1.379 . S
C1023 N1021 1.356 . S
N1024 C1016 1.356 . S
N1024 H1030 0.984 . S
N1024 H1031 0.984 . S
N1025 C1018 1.356 . S
N1025 H1028 0.984 . S
N1025 H1029 0.985 . S
H1026 N1021 0.984 . S
H1027 N1021 0.985 . S
H1028 N1025 0.984 . S
H1029 N1025 0.985 . S
H1030 N1024 0.984 . S
H1031 N1024 0.984 . S
H1032 N1020 0.984 1_556 S
H1033 N1020 0.985 . S
C1034 C1035 1.363 . S
C1034 C1040 1.379 1_554 S
C1034 N1042 1.356 . S
C1035 C1034 1.363 . S
C1035 C1041 1.363 . S
C1036 C1037 1.363 1_554 S
C1036 C1041 1.379 . S
C1036 N1043 1.356 . S
C1037 C1036 1.363 1_556 S
C1037 C1040 1.363 . S
N1038 C1040 1.356 . S
N1038 H1050 0.984 . S
N1038 H1051 0.985 . S
N1039 C1041 1.356 . S
N1039 H1044 0.984 . S
N1039 H1045 0.985 . S
C1040 C1034 1.379 1_556 S
C1040 C1037 1.363 . S
C1040 N1038 1.356 . S
C1041 C1035 1.363 . S
C1041 C1036 1.379 . S
C1041 N1039 1.356 . S
N1042 C1034 1.356 . S
N1042 H1048 0.984 1_554 S
N1042 H1049 0.984 . S
N1043 C1036 1.356 . S
N1043 H1046 0.984 . S
N1043 H1047 0.985 . S
H1044 N1039 0.984 . S
H1045 N1039 0.985 . S
H1046 N1043 0.984 . S
H1047 N1043 0.985 . S
H1048 N1042 0.984 1_556 S
H1049 N1042 0.984 . S
H1050 N1038 0.984 . S
H1051 N1038 0.985 . S
C1052 C1053 1.363 . S
C1052 C1058 1.379 1_556 S
C1052 N1060 1.356 . S
C1053 C1052 1.363 . S
C1053 C1059 1.363 1_556 S
C1054 C1055 1.363 . S
C1054 C1059 1.379 . S
C1054 N1061 1.356 . S
C1055 C1054 1.363 . S
C1055 C1058 1.363 . S
N1056 C1058 1.356 . S
N1056 H1068 0.984 . S
N1056 H1069 0.985 . S
N1057 C1059 1.356 . S
N1057 H1062 0.984 1_554 S
N1057 H1063 0.985 . S
C1058 C1052 1.379 1_554 S
C1058 C1055 1.363 . S
C1058 N1056 1.356 . S
C1059 C1053 1.363 1_554 S
C1059 C1054 1.379 . S
C1059 N1057 1.356 . S
N1060 C1052 1.356 . S
N1060 H1066 0.984 . S
N1060 H1067 0.984 . S
N1061 C1054 1.356 . S
N1061 H1064 0.984 . S
N1061 H1065 0.985 . S
H1062 N1057 0.984 1_556 S
H1063 N1057 0.985 . S
H1064 N1061 0.984 . S
H1065 N1061 0.985 . S
H1066 N1060 0.984 . S
H1067 N1060 0.984 . S
H1068 N1056 0.984 . S
H1069 N1056 0.985 . S
C1070 C1071 1.363 . S
C1070 C1076 1.379 . S
C1070 N1078 1.356 . S
C1071 C1070 1.363 . S
C1071 C1077 1.363 . S
C1072 C1073 1.363 1_554 S
C1072 C1077 1.379 . S
C1072 N1079 1.356 1_554 S
C1073 C1072 1.363 1_556 S
C1073 C1076 1.363 1_556 S
N1074 C1076 1.356 1_456 S
N1074 H1086 0.984 . S
N1074 H1087 0.985 . S
N1075 C1077 1.356 . S
N1075 H1080 0.984 . S
N1075 H1081 0.985 . S
C1076 C1070 1.379 . S
C1076 C1073 1.363 1_554 S
C1076 N1074 1.356 1_654 S
C1077 C1071 1.363 . S
C1077 C1072 1.379 . S
C1077 N1075 1.356 . S
N1078 C1070 1.356 . S
N1078 H1084 0.984 1_655 S
N1078 H1085 0.984 . S
N1079 C1072 1.356 1_556 S
N1079 H1082 0.984 . S
N1079 H1083 0.985 . S
H1080 N1075 0.984 . S
H1081 N1075 0.985 . S
H1082 N1079 0.984 . S
H1083 N1079 0.985 . S
H1084 N1078 0.984 1_455 S
H1085 N1078 0.984 . S
H1086 N1074 0.984 . S
H1087 N1074 0.985 . S
C1088 C1089 1.363 . S
C1088 C1094 1.379 . S
C1088 N1096 1.356 . S
C1089 C1088 1.363 . S
C1089 C1095 1.363 . S
C1090 C1091 1.363 . S
C1090 C1095 1.379 . S
C1090 N1097 1.356 . S
C1091 C1090 1.363 . S
C1091 C1094 1.363 . S
N1092 C1094 1.356 . S
N1092 H1104 0.984 . S
N1092 H1105 0.985 . S
N1093 C1095 1.356 . S
N1093 H1098 0.984 . S
N1093 H1099 0.985 . S
C1094 C1088 1.379 . S
C1094 C1091 1.363 . S
C1094 N1092 1.356 . S
C1095 C1089 1.363 . S
C1095 C1090 1.379 . S
C1095 N1093 1.356 . S
N1096 C1088 1.356 . S
N1096 H1102 0.984 . S
N1096 H1103 0.984 . S
N1097 C1090 1.356 . S
N1097 H1100 0.984 . S
N1097 H1101 0.985 . S
H1098 N1093 0.984 . S
H1099 N1093 0.985 . S
H1100 N1097 0.984 . S
H1101 N1097 0.985 . S
H1102 N1096 0.984 . S
H1103 N1096 0.984 . S
H1104 N1092 0.984 . S
H1105 N1092 0.985 . S
C1106 C1107 1.363 . S
C1106 C1112 1.379 . S
C1106 N1114 1.356 . S
C1107 C1106 1.363 . S
C1107 C1113 1.363 . S
C1108 C1109 1.363 . S
C1108 C1113 1.379 . S
C1108 N1115 1.356 . S
C1109 C1108 1.363 . S
C1109 C1112 1.363 . S
N1110 C1112 1.356 . S
N1110 H1122 0.984 . S
N1110 H1123 0.985 . S
N1111 C1113 1.356 . S
N1111 H1116 0.984 . S
N1111 H1117 0.985 . S
C1112 C1106 1.379 . S
C1112 C1109 1.363 . S
C1112 N1110 1.356 . S
C1113 C1107 1.363 . S
C1113 C1108 1.379 . S
C1113 N1111 1.356 . S
N1114 C1106 1.356 . S
N1114 H1120 0.984 . S
N1114 H1121 0.984 . S
N1115 C1108 1.356 . S
N1115 H1118 0.984 . S
N1115 H1119 0.985 . S
H1116 N1111 0.984 . S
H1117 N1111 0.985 . S
H1118 N1115 0.984 . S
H1119 N1115 0.985 . S
H1120 N1114 0.984 . S
H1121 N1114 0.984 . S
H1122 N1110 0.984 . S
H1123 N1110 0.985 . S
C1124 C1125 1.363 . S
C1124 C1130 1.379 . S
C1124 N1132 1.356 . S
C1125 C1124 1.363 . S
C1125 C1131 1.363 . S
C1126 C1127 1.363 . S
C1126 C1131 1.379 . S
C1126 N1133 1.356 . S
C1127 C1126 1.363 . S
C1127 C1130 1.363 . S
N1128 C1130 1.356 . S
N1128 H1140 0.984 . S
N1128 H1141 0.985 . S
N1129 C1131 1.356 . S
N1129 H1134 0.984 . S
N1129 H1135 0.985 . S
C1130 C1124 1.379 . S
C1130 C1127 1.363 . S
C1130 N1128 1.356 . S
C1131 C1125 1.363 . S
C1131 C1126 1.379 . S
C1131 N1129 1.356 . S
N1132 C1124 1.356 . S
N1132 H1138 0.984 . S
N1132 H1139 0.984 . S
N1133 C1126 1.356 . S
N1133 H1136 0.984 . S
N1133 H1137 0.985 . S
H1134 N1129 0.984 . S
H1135 N1129 0.985 . S
H1136 N1133 0.984 . S
H1137 N1133 0.985 . S
H1138 N1132 0.984 . S
H1139 N1132 0.984 . S
H1140 N1128 0.984 . S
H1141 N1128 0.985 . S
C1142 C1143 1.363 . S
C1142 C1148 1.379 . S
C1142 N1150 1.356 . S
C1143 C1142 1.363 . S
C1143 C1149 1.363 . S
C1144 C1145 1.363 . S
C1144 C1149 1.379 . S
C1144 N1151 1.356 1_655 S
C1145 C1144 1.363 . S
C1145 C1148 1.363 . S
N1146 C1148 1.356 . S
N1146 H1158 0.984 . S
N1146 H1159 0.985 . S
N1147 C1149 1.356 . S
N1147 H1152 0.984 . S
N1147 H1153 0.985 1_655 S
C1148 C1142 1.379 . S
C1148 C1145 1.363 . S
C1148 N1146 1.356 . S
C1149 C1143 1.363 . S
C1149 C1144 1.379 . S
C1149 N1147 1.356 . S
N1150 C1142 1.356 . S
N1150 H1156 0.984 . S
N1150 H1157 0.984 . S
N1151 C1144 1.356 1_455 S
N1151 H1154 0.984 . S
N1151 H1155 0.985 . S
H1152 N1147 0.984 . S
H1153 N1147 0.985 1_455 S
H1154 N1151 0.984 . S
H1155 N1151 0.985 . S
H1156 N1150 0.984 . S
H1157 N1150 0.984 . S
H1158 N1146 0.984 . S
H1159 N1146 0.985 . S
C1160 C1161 1.363 . S
C1160 C1166 1.379 1_556 S
C1160 N1168 1.356 . S
C1161 C1160 1.363 . S
C1161 C1167 1.363 . S
C1162 C1163 1.363 1_556 S
C1162 C1167 1.379 . S
C1162 N1169 1.356 . S
C1163 C1162 1.363 1_554 S
C1163 C1166 1.363 . S
N1164 C1166 1.356 . S
N1164 H1176 0.984 . S
N1164 H1177 0.985 . S
N1165 C1167 1.356 . S
N1165 H1170 0.984 . S
N1165 H1171 0.985 . S
C1166 C1160 1.379 1_554 S
C1166 C1163 1.363 . S
C1166 N1164 1.356 . S
C1167 C1161 1.363 . S
C1167 C1162 1.379 . S
C1167 N1165 1.356 . S
N1168 C1160 1.356 . S
N1168 H1174 0.984 1_556 S
N1168 H1175 0.984 . S
N1169 C1162 1.356 . S
N1169 H1172 0.984 . S
N1169 H1173 0.985 . S
H1170 N1165 0.984 . S
H1171 N1165 0.985 . S
H1172 N1169 0.984 . S
H1173 N1169 0.985 . S
H1174 N1168 0.984 1_554 S
H1175 N1168 0.984 . S
H1176 N1164 0.984 . S
H1177 N1164 0.985 . S
C1178 C1179 1.363 . S
C1178 C1184 1.379 . S
C1178 N1186 1.356 . S
C1179 C1178 1.363 . S
C1179 C1185 1.363 . S
C1180 C1181 1.363 . S
C1180 C1185 1.379 1_554 S
C1180 N1187 1.356 . S
C1181 C1180 1.363 . S
C1181 C1184 1.363 1_554 S
N1182 C1184 1.356 . S
N1182 H1194 0.984 . S
N1182 H1195 0.985 1_556 S
N1183 C1185 1.356 . S
N1183 H1188 0.984 . S
N1183 H1189 0.985 . S
C1184 C1178 1.379 . S
C1184 C1181 1.363 1_556 S
C1184 N1182 1.356 . S
C1185 C1179 1.363 . S
C1185 C1180 1.379 1_556 S
C1185 N1183 1.356 . S
N1186 C1178 1.356 . S
N1186 H1192 0.984 . S
N1186 H1193 0.984 . S
N1187 C1180 1.356 . S
N1187 H1190 0.984 . S
N1187 H1191 0.985 . S
H1188 N1183 0.984 . S
H1189 N1183 0.985 . S
H1190 N1187 0.984 . S
H1191 N1187 0.985 . S
H1192 N1186 0.984 . S
H1193 N1186 0.984 . S
H1194 N1182 0.984 . S
H1195 N1182 0.985 1_554 S
C1196 C1197 1.363 1_556 S
C1196 C1202 1.379 . S
C1196 N1204 1.356 1_556 S
C1197 C1196 1.363 1_554 S
C1197 C1203 1.363 1_554 S
C1198 C1199 1.363 . S
C1198 C1203 1.379 . S
C1198 N1205 1.356 . S
C1199 C1198 1.363 . S
C1199 C1202 1.363 . S
N1200 C1202 1.356 . S
N1200 H1212 0.984 . S
N1200 H1213 0.985 . S
N1201 C1203 1.356 1_554 S
N1201 H1206 0.984 . S
N1201 H1207 0.985 . S
C1202 C1196 1.379 . S
C1202 C1199 1.363 . S
C1202 N1200 1.356 . S
C1203 C1197 1.363 1_556 S
C1203 C1198 1.379 . S
C1203 N1201 1.356 1_556 S
N1204 C1196 1.356 1_554 S
N1204 H1210 0.990 . S
N1204 H1211 0.984 . S
N1205 C1198 1.356 . S
N1205 H1208 0.984 . S
N1205 H1209 0.985 . S
H1206 N1201 0.984 . S
H1207 N1201 0.985 . S
H1208 N1205 0.984 . S
H1209 N1205 0.985 . S
H1210 N1204 0.990 . S
H1211 N1204 0.984 . S
H1212 N1200 0.984 . S
H1213 N1200 0.985 . S
C1214 C1215 1.363 . S
C1214 C1220 1.379 1_554 S
C1214 N1222 1.356 . S
C1215 C1214 1.363 . S
C1215 C1221 1.363 1_554 S
C1216 C1217 1.363 . S
C1216 C1221 1.379 . S
C1216 N1223 1.356 . S
C1217 C1216 1.363 . S
C1217 C1220 1.363 . S
N1218 C1220 1.356 . S
N1218 H1230 0.984 1_556 S
N1218 H1231 0.985 . S
N1219 C1221 1.356 . S
N1219 H1224 0.984 . S
N1219 H1225 0.985 . S
C1220 C1214 1.379 1_556 S
C1220 C1217 1.363 . S
C1220 N1218 1.356 . S
C1221 C1215 1.363 1_556 S
C1221 C1216 1.379 . S
C1221 N1219 1.356 . S
N1222 C1214 1.356 . S
N1222 H1228 0.984 . S
N1222 H1229 0.984 . S
N1223 C1216 1.356 . S
N1223 H1226 0.984 . S
N1223 H1227 0.985 . S
H1224 N1219 0.984 . S
H1225 N1219 0.985 . S
H1226 N1223 0.984 . S
H1227 N1223 0.985 . S
H1228 N1222 0.984 . S
H1229 N1222 0.984 . S
H1230 N1218 0.984 1_554 S
H1231 N1218 0.985 . S
C369 C17 1.686 . S
C371 C131 1.675 . S
C387 C155 1.653 . S
C389 C40 1.653 . S
C405 C63 1.658 . S
C407 C178 1.657 . S
C423 C85 1.700 . S
C425 C108 1.699 . S
C441 C316 1.678 . S
C443 C201 1.678 . S
C459 C339 1.678 . S
C461 C224 1.678 . S
C477 C247 1.678 . S
C479 C362 1.678 . S
C495 C270 1.674 . S
C497 C293 1.674 . S
C513 C20 1.602 . S
C515 C88 1.594 . S
C531 C43 1.580 . S
C533 C21 1.582 . S
C549 C66 1.589 . S
C551 C44 1.590 . S
C567 C87 1.614 . S
C569 C67 1.610 1_455 S
C585 C110 1.634 . S
C587 C134 1.617 . S
C603 C159 1.618 . S
C605 C133 1.621 . S
C621 C158 1.580 . S
C623 C182 1.581 . S
C639 C111 1.590 . S
C641 C181 1.597 . S
C657 C274 1.582 1_565 S
C659 C204 1.581 . S
C675 C227 1.584 . S
C677 C205 1.585 . S
C693 C250 1.582 . S
C695 C228 1.583 . S
C711 C273 1.582 . S
C713 C251 1.583 1_655 S
C729 C296 1.577 . S
C731 C320 1.578 1_545 S
C747 C319 1.577 . S
C749 C343 1.579 . S
C765 C342 1.578 . S
C767 C366 1.579 . S
C783 C365 1.579 . S
C785 C297 1.581 1_455 S
C801 C19 0.857 . S
C803 C65 0.856 . S
C819 C42 0.844 . S
C821 C90 0.856 . S
C837 C157 0.857 . S
C839 C113 0.872 . S
C855 C180 0.855 . S
C857 C136 0.868 . S
C873 C249 0.852 . S
C875 C203 0.852 . S
C891 C272 0.838 . S
C893 C226 0.838 . S
C909 C295 0.849 . S
C911 C341 0.849 . S
C927 C318 0.849 . S
C929 C364 0.850 . S
C945 C18 1.380 . S
C947 C269 1.332 . S
C963 C200 1.316 . S
C965 C41 1.363 . S
C981 C64 1.377 . S
C983 C223 1.329 . S
C999 C246 1.312 . S
C1001 C89 1.308 . S
C1017 C315 1.319 . S
C1019 C112 1.316 . S
C1035 C135 1.312 . S
C1037 C338 1.315 . S
C1053 C361 1.328 . S
C1055 C156 1.376 . S
C1071 C179 1.372 . S
C1073 C292 1.324 . S
C1089 C202 1.350 . S
C1091 C86 1.321 . S
C1107 C225 1.369 . S
C1109 C16 1.322 . S
C1125 C39 1.330 . S
C1127 C248 1.377 . S
C1143 C271 1.371 . S
C1145 C62 1.324 . S
C1161 C294 1.349 . S
C1163 C132 1.320 . S
C1179 C317 1.379 . S
C1181 C154 1.332 . S
C1197 C177 1.327 . S
C1199 C340 1.374 . S
C1215 C109 1.316 . S
C1217 C363 1.345 . S
