# Generated by pormake.
# Topology snp, (6)-cn, num edge types: 1
# Building blocks:
#     Node 0, Type 0, BuildingBlock: UKALOJ_clean_sbu_0, # of connection points: 6
#     Node 1, Type 0, BuildingBlock: UKALOJ_clean_sbu_0, # of connection points: 6
#     Node 2, Type 0, BuildingBlock: UKALOJ_clean_sbu_0, # of connection points: 6
#     Node 3, Type 0, BuildingBlock: UKALOJ_clean_sbu_0, # of connection points: 6
#     Edge 4, Type (0, 0), BuildingBlock: FUNLAD_clean_linker_1, # of connection points: 2
#     Edge 5, Type (0, 0), BuildingBlock: FUNLAD_clean_linker_1, # of connection points: 2
#     Edge 6, Type (0, 0), BuildingBlock: FUNLAD_clean_linker_1, # of connection points: 2
#     Edge 7, Type (0, 0), BuildingBlock: FUNLAD_clean_linker_1, # of connection points: 2
#     Edge 8, Type (0, 0), BuildingBlock: FUNLAD_clean_linker_1, # of connection points: 2
#     Edge 9, Type (0, 0), BuildingBlock: FUNLAD_clean_linker_1, # of connection points: 2
#     Edge 10, Type (0, 0), BuildingBlock: FUNLAD_clean_linker_1, # of connection points: 2
#     Edge 11, Type (0, 0), BuildingBlock: FUNLAD_clean_linker_1, # of connection points: 2
#     Edge 12, Type (0, 0), BuildingBlock: FUNLAD_clean_linker_1, # of connection points: 2
#     Edge 13, Type (0, 0), BuildingBlock: FUNLAD_clean_linker_1, # of connection points: 2
#     Edge 14, Type (0, 0), BuildingBlock: FUNLAD_clean_linker_1, # of connection points: 2
#     Edge 15, Type (0, 0), BuildingBlock: FUNLAD_clean_linker_1, # of connection points: 2
# Relax obj value: 0.871
# Max RMSD: 0.249
# Mean RMSD: 0.247
data_MOF--net-snp--node1-UKALOJ_clean_sbu_0--edge1-FUNLAD_clean_linker_1
_symmetry_space_group_name_H-M    P1
_symmetry_Int_Tables_number       1
_symmetry_cell_setting            triclinic
loop_
_symmetry_equiv_pos_as_xyz
'x, y, z'
_cell_length_a     33.685339
_cell_length_b     33.814448
_cell_length_c     23.268914
_cell_angle_alpha  96.908913
_cell_angle_beta   97.42426
_cell_angle_gamma 89.977024
loop_
_atom_site_label
_atom_site_type_symbol
_atom_site_fract_x
_atom_site_fract_y
_atom_site_fract_z
_atom_type_partial_charge
Zn0 Zn 0.26713 0.03825 0.06178 0.0
O1 O 0.25599 1.00057 0.97837 0.0
C2 C 0.25073 0.10915 0.99693 0.0
Zn3 Zn 0.20205 0.05328 0.04871 0.0
C4 C 0.22102 0.99602 0.94961 0.0
O5 O 0.19189 0.0146 0.96952 0.0
C6 C 0.24526 0.09513 0.16067 0.0
O7 O 0.18905 1.00555 0.09523 0.0
O8 O 0.2525 0.98856 0.10562 0.0
N9 N 0.1439 0.07101 0.0395 0.0
C10 C 0.11659 0.07605 0.07728 0.0
C11 C 0.09341 0.10245 1.00132 0.0
N12 N 0.12937 0.08737 0.99243 0.0
N13 N 0.08444 0.09555 0.05394 0.0
C14 C 0.3561 0.02825 0.03454 0.0
C15 C 0.38661 1.01176 0.11378 0.0
N16 N 0.32809 0.02481 0.07059 0.0
N17 N 0.34729 0.01439 0.11974 0.0
N18 N 0.39308 0.02056 0.06068 0.0
H19 H 0.31547 0.03733 0.95726 0.0
H20 H 0.36495 0.02163 0.94408 0.0
H21 H 0.3574 0.07174 0.97535 0.0
C22 C 0.34764 0.04029 0.97428 0.0
C23 C 0.12265 0.06366 0.13759 0.0
H24 H 0.11727 0.03111 0.13464 0.0
H25 H 0.1022 0.07941 0.16576 0.0
H26 H 0.15365 0.06927 0.15873 0.0
O27 O 0.2126 0.09229 0.12661 0.0
O28 O 0.27514 0.075 0.14599 0.0
C29 C 0.21639 0.98247 0.11389 0.0
O30 O 0.27958 0.08896 0.01835 0.0
O31 O 0.21524 0.09974 1.00284 0.0
Zn32 Zn 0.05428 0.24872 0.59603 0.0
O33 O 0.10045 0.25022 0.53931 0.0
C34 C 1.01085 0.18577 0.51102 0.0
Zn35 Zn 0.07684 0.18828 0.61146 0.0
C36 C 0.12083 0.21958 0.52518 0.0
O37 O 0.11675 0.18818 0.54904 0.0
C38 C 1.00937 0.21413 0.68096 0.0
O39 O 0.1211 0.21137 0.67604 0.0
O40 O 0.09655 0.27126 0.67201 0.0
N41 N 0.09207 0.13253 0.63096 0.0
C42 C 0.12615 0.11164 0.63146 0.0
C43 C 0.0839 0.0772 0.66574 0.0
N44 N 0.06604 0.11117 0.65284 0.0
N45 N 0.12178 0.07688 0.65313 0.0
C46 C 0.04394 0.33305 0.54755 0.0
C47 C 0.02135 0.36717 0.61884 0.0
N48 N 0.03829 0.30766 0.58668 0.0
N49 N 0.02399 0.32913 0.63064 0.0
N50 N 0.03401 0.37075 0.56703 0.0
H51 H 0.09285 0.32429 0.49767 0.0
H52 H 0.04753 0.34001 0.45744 0.0
H53 H 0.05163 0.28938 0.4748 0.0
C54 C 0.05975 0.32092 0.4909 0.0
C55 C 0.16341 0.12521 0.61054 0.0
H56 H 0.15798 0.12516 0.56265 0.0
H57 H 0.18878 0.10535 0.62127 0.0
H58 H 0.17107 0.15621 0.63018 0.0
O59 O 0.03625 0.18851 0.67345 0.0
O60 O 1.00766 0.24391 0.65204 0.0
C61 C 0.12221 0.24809 0.69475 0.0
O62 O 1.01312 0.22379 0.5208 0.0
O63 O 0.03239 0.16482 0.54438 0.0
Zn64 Zn 0.88295 0.97649 0.0254 0.0
O65 O 0.87106 0.94082 0.94446 0.0
C66 C 0.88202 0.04649 0.95924 0.0
Zn67 Zn 0.82036 0.9992 1.00851 0.0
C68 C 0.83814 0.93994 0.91097 0.0
O69 O 0.80936 0.96111 0.92693 0.0
C70 C 0.86727 0.03771 0.12202 0.0
O71 O 0.79984 0.95221 0.05421 0.0
O72 O 0.86148 0.93175 0.06628 0.0
N73 N 0.76153 0.01972 0.99669 0.0
C74 C 0.73246 0.01979 0.03186 0.0
C75 C 0.70488 0.03529 0.9503 0.0
N76 N 0.7442 0.02961 0.94609 0.0
N77 N 0.6966 0.02901 1.00372 0.0
C78 C 0.95949 0.9392 0.08514 0.0
C79 C 0.98338 0.90863 0.01193 0.0
N80 N 0.93743 0.94947 0.0367 0.0
N81 N 0.95223 0.93019 0.99134 0.0
N82 N 0.98849 0.91379 0.07063 0.0
H83 H 0.95745 0.98333 0.15863 0.0
H84 H 0.96844 0.93401 0.17787 0.0
H85 H 0.91833 0.94647 0.14901 0.0
C86 C 0.95052 0.95118 0.14626 0.0
C87 C 0.73848 1.00922 0.09314 0.0
H88 H 0.72626 0.97878 0.09337 0.0
H89 H 0.72184 0.0301 0.1215 0.0
H90 H 0.77041 1.0103 0.11159 0.0
O91 O 0.83367 0.03777 0.0898 0.0
O92 O 0.89431 1.01403 0.10625 0.0
C93 C 0.82528 0.92773 0.07367 0.0
O94 O 0.9049 0.02158 0.98331 0.0
O95 O 0.84426 0.04507 0.96194 0.0
Zn96 Zn 1.00537 0.85529 0.46233 0.0
O97 O 0.04006 0.8568 0.39386 0.0
C98 C 0.95497 0.79542 0.38429 0.0
Zn99 Zn 0.02854 0.79408 0.47305 0.0
C100 C 0.06476 0.83023 0.37994 0.0
O101 O 0.06833 0.79953 0.40702 0.0
C102 C 0.96776 0.82162 0.55352 0.0
O103 O 0.07466 0.81912 0.54221 0.0
O104 O 0.05341 0.87874 0.52445 0.0
N105 N 0.04631 0.73511 0.47875 0.0
C106 C 0.04359 0.70916 0.5182 0.0
C107 C 0.0616 0.67592 0.44258 0.0
N108 N 0.0578 0.71418 0.43207 0.0
N109 N 0.05253 0.67167 0.4963 0.0
C110 C 0.99991 0.94299 0.43318 0.0
C111 C 0.93931 0.95607 0.44454 0.0
N112 N 0.98412 0.91077 0.45134 0.0
N113 N 0.94646 0.91897 0.45823 0.0
N114 N 0.97246 0.972 0.42944 0.0
H115 H 0.06252 0.92976 0.44329 0.0
H116 H 0.05032 0.97427 0.40921 0.0
H117 H 0.0386 0.92694 0.36885 0.0
C118 C 0.04026 0.94385 0.41301 0.0
C119 C 0.03182 0.72054 0.57778 0.0
H120 H 0.04117 0.75176 0.59407 0.0
H121 H 0.04584 0.70065 0.60896 0.0
H122 H 0.99881 0.71775 0.5755 0.0
O123 O 0.98842 0.79149 0.53836 0.0
O124 O 0.96999 0.85296 0.52914 0.0
C125 C 0.07732 0.8571 0.55352 0.0
O126 O 0.95789 0.83216 0.40283 0.0
O127 O 0.98135 0.77167 0.40372 0.0
H128 H 0.0223 0.86692 0.11114 0.0
C129 C 0.02098 0.89865 0.10781 0.0
H130 H 0.07406 0.91075 0.16552 0.0
H131 H 0.01759 0.09222 0.20932 0.0
H132 H 0.01736 0.07147 0.30497 0.0
H133 H 0.0338 1.00248 0.32254 0.0
H134 H 0.05009 0.95367 0.24387 0.0
C135 C 0.05062 0.92285 0.13649 0.0
C136 C 0.05104 0.96611 0.13013 0.0
C137 C 0.04252 0.99423 0.17686 0.0
C138 C 0.03262 0.03386 0.16655 0.0
C139 C 0.02451 0.06153 0.21414 0.0
C140 C 0.02459 0.05004 0.26958 0.0
C141 C 0.03366 1.01116 0.27937 0.0
C142 C 0.04275 0.98345 0.2338 0.0
H143 H 0.03983 0.14033 0.07137 0.0
C144 C 0.0491 0.11022 0.07773 0.0
H145 H 0.99695 0.10105 0.11391 0.0
H146 H 0.07897 0.9238 0.03655 0.0
H147 H 0.07172 0.94182 0.93728 0.0
H148 H 0.04018 1.00498 0.91476 0.0
H149 H 0.01852 0.05183 0.99197 0.0
C150 C 0.02372 0.08729 0.09997 0.0
C151 C 0.03089 0.04497 0.10932 0.0
C152 C 0.03853 0.01632 0.06255 0.0
C153 C 0.05233 0.97818 0.07421 0.0
C154 C 0.06594 0.95226 0.02873 0.0
C155 C 0.06204 0.96226 0.97191 0.0
C156 C 0.04435 0.99787 0.95926 0.0
C157 C 0.03242 0.02462 1.00391 0.0
H158 H 0.95078 0.01911 0.37881 0.0
C159 C 0.97447 1.01097 0.41125 0.0
H160 H 0.99691 0.06844 0.42116 0.0
H161 H 0.08275 0.9726 0.64525 0.0
H162 H 1.01532 0.95871 0.66524 0.0
H163 H 0.95675 0.98515 0.60783 0.0
H164 H 0.96505 0.02332 0.52781 0.0
C165 C 1.00042 0.03992 0.43764 0.0
C166 C 0.03496 0.03487 0.48354 0.0
C167 C 0.02984 0.01644 0.53385 0.0
C168 C 0.06376 1.00426 0.57 0.0
C169 C 0.05784 0.98296 0.61703 0.0
C170 C 0.01942 0.97507 0.62916 0.0
C171 C 0.98639 0.98984 0.59671 0.0
C172 C 0.99147 1.01109 0.5504 0.0
H173 H 0.17346 0.04112 0.67992 0.0
C174 C 0.1466 0.04238 0.64898 0.0
H175 H 0.1559 0.98606 0.60351 0.0
H176 H 0.05641 0.07773 0.39827 0.0
H177 H 0.12335 0.09608 0.38457 0.0
H178 H 0.1818 0.0776 0.45017 0.0
H179 H 0.1734 0.03941 0.5298 0.0
C180 C 0.13705 1.01199 0.6066 0.0
C181 C 0.10267 0.01517 0.56046 0.0
C182 C 0.10791 0.03626 0.51299 0.0
C183 C 0.07408 0.04672 0.47493 0.0
C184 C 0.08056 0.06865 0.42868 0.0
C185 C 0.119 0.07989 0.42055 0.0
C186 C 0.15197 0.0692 0.45727 0.0
C187 C 0.1467 0.04739 0.50281 0.0
H188 H 0.65615 0.02087 0.06819 0.0
C189 C 0.65781 0.02828 0.0244 0.0
H190 H 0.62404 0.04091 0.94605 0.0
H191 H 0.46327 0.95833 0.98631 0.0
H192 H 0.48339 0.91422 0.90566 0.0
H193 H 0.54901 0.92278 0.87214 0.0
H194 H 0.59507 0.97538 0.91932 0.0
C195 C 0.6233 0.03501 0.99075 0.0
C196 C 0.58303 0.03076 0.01096 0.0
C197 C 0.55584 1.00036 0.98221 0.0
C198 C 0.51758 0.99574 1.00109 0.0
C199 C 0.49207 0.964 0.97292 0.0
C200 C 0.50338 0.93822 0.92675 0.0
C201 C 0.54034 0.94302 0.9079 0.0
C202 C 0.56645 0.9735 0.93529 0.0
H203 H 0.4314 0.03214 0.99491 0.0
C204 C 0.4311 0.02351 0.03834 0.0
H205 H 0.46692 1.00954 0.11431 0.0
H206 H 0.62542 0.09486 0.07215 0.0
H207 H 0.60527 0.139 0.15279 0.0
H208 H 0.53978 0.1302 0.18663 0.0
H209 H 0.49386 0.07737 0.1397 0.0
C210 C 0.46642 0.01671 0.06997 0.0
C211 C 0.506 0.02196 0.04825 0.0
C212 C 0.53308 0.05251 0.07675 0.0
C213 C 0.57131 0.05718 0.05781 0.0
C214 C 0.5967 0.08907 0.08575 0.0
C215 C 0.58536 0.11488 0.13188 0.0
C216 C 0.54847 0.10996 0.15089 0.0
C217 C 0.52245 0.07936 0.12366 0.0
H218 H 0.05219 0.40656 0.50168 0.0
C219 C 0.03927 0.40752 0.54222 0.0
H220 H 0.01832 0.44482 0.61099 0.0
H221 H 0.10835 0.60324 0.58703 0.0
H222 H 0.1449 0.58394 0.67562 0.0
H223 H 0.13312 0.51831 0.70694 0.0
H224 H 0.08493 0.47137 0.64952 0.0
C225 C 0.02988 0.44335 0.56934 0.0
C226 C 0.038 0.48242 0.54794 0.0
C227 C 0.06578 0.51011 0.5824 0.0
C228 C 0.07216 0.54841 0.56477 0.0
C229 C 0.10135 0.57441 0.59905 0.0
C230 C 0.12282 0.56358 0.64989 0.0
C231 C 0.11621 0.52661 0.66751 0.0
C232 C 0.08826 0.50001 0.63423 0.0
H233 H 0.03707 0.6349 0.56218 0.0
C234 C 0.04874 0.63451 0.52074 0.0
H235 H 0.06809 0.59815 0.44981 0.0
H236 H 0.9804 0.43841 0.47344 0.0
H237 H 0.94373 0.45773 0.38494 0.0
H238 H 0.95512 0.52354 0.35395 0.0
H239 H 1.00306 0.57061 0.41151 0.0
C240 C 0.05767 0.599 0.49219 0.0
C241 C 0.0502 0.55957 0.51303 0.0
C242 C 0.02248 0.53182 0.47849 0.0
C243 C 1.0162 0.49348 0.49605 0.0
C244 C 0.98719 0.46736 0.4616 0.0
C245 C 0.96568 0.47818 0.41078 0.0
C246 C 0.97208 0.51524 0.39335 0.0
C247 C 0.9999 0.54192 0.42672 0.0
H248 H 0.14335 0.24436 0.45139 0.0
C249 C 0.14488 0.2189 0.47594 0.0
H250 H 0.16554 0.16016 0.48024 0.0
H251 H 0.14449 0.14392 0.1983 0.0
H252 H 0.07403 0.14266 0.20721 0.0
H253 H 0.05037 0.15653 0.30321 0.0
H254 H 0.09671 0.17517 0.39026 0.0
C255 C 0.16377 0.1858 0.4562 0.0
C256 C 0.17844 0.18055 0.39785 0.0
C257 C 0.15085 0.17095 0.34663 0.0
C258 C 0.16489 0.16141 0.29144 0.0
C259 C 0.1362 0.1514 0.24149 0.0
C260 C 0.09538 0.15035 0.24587 0.0
C261 C 0.08196 0.15864 0.29978 0.0
C262 C 0.10909 0.16927 0.34953 0.0
H263 H 0.26154 0.10396 0.25657 0.0
C264 C 0.24547 0.1169 0.21999 0.0
H265 H 0.20593 0.1604 0.19149 0.0
H266 H 0.23888 0.19859 0.48694 0.0
H267 H 0.30994 0.20232 0.47881 0.0
H268 H 0.33427 0.18947 0.38285 0.0
H269 H 0.28794 0.17209 0.29461 0.0
C270 C 0.22077 0.14787 0.22932 0.0
C271 C 0.20678 0.16097 0.28738 0.0
C272 C 0.23419 0.17261 0.33841 0.0
C273 C 0.22002 0.18155 0.39369 0.0
C274 C 0.24809 0.19184 0.444 0.0
C275 C 0.28889 0.19422 0.4399 0.0
C276 C 0.3026 0.18688 0.38588 0.0
C277 C 0.2757 0.17643 0.33558 0.0
H278 H 0.94827 0.21681 0.70786 0.0
C279 C 0.97843 0.20618 0.71854 0.0
H280 H 0.01706 0.17199 0.77021 0.0
H281 H 0.8587 0.16732 0.91387 0.0
H282 H 0.85975 0.23966 0.92523 0.0
H283 H 0.9052 0.27668 0.87515 0.0
H284 H 0.94959 0.24177 0.81294 0.0
C285 C 0.98647 0.18195 0.76066 0.0
C286 C 0.95534 0.16097 0.78725 0.0
C287 C 0.92961 0.18187 0.82381 0.0
C288 C 0.90391 0.16041 0.85397 0.0
C289 C 0.87881 0.18208 0.8903 0.0
C290 C 0.87917 0.22357 0.89726 0.0
C291 C 0.90473 0.24442 0.86896 0.0
C292 C 0.92989 0.22399 0.83296 0.0
H293 H 0.93351 0.07636 0.93333 0.0
C294 C 0.90093 0.07514 0.92707 0.0
H295 H 0.84899 0.09535 0.87861 0.0
H296 H 0.99798 0.11097 0.7172 0.0
H297 H 0.99821 0.03924 0.70836 0.0
H298 H 0.95386 1.00221 0.76008 0.0
H299 H 0.90941 0.03722 0.82198 0.0
C300 C 0.88149 0.09576 0.88629 0.0
C301 C 0.90467 0.11816 0.84908 0.0
C302 C 0.9292 0.09726 0.81067 0.0
C303 C 0.95451 0.11859 0.78012 0.0
C304 C 0.9788 0.09664 0.74258 0.0
C305 C 0.97887 0.05522 0.73638 0.0
C306 C 0.95401 0.03446 0.76569 0.0
C307 C 0.929 0.05503 0.80175 0.0
H308 H 0.93509 0.77516 0.29273 0.0
C309 C 0.92424 0.78306 0.33452 0.0
H310 H 0.87693 0.80342 0.3791 0.0
H311 H 0.8351 0.93419 0.21236 0.0
H312 H 0.84155 0.97074 0.30807 0.0
H313 H 0.85759 0.93674 0.39588 0.0
H314 H 0.86875 0.86614 0.38781 0.0
C315 C 0.88666 0.79627 0.33645 0.0
C316 C 0.86476 0.81407 0.28585 0.0
C317 C 0.85667 0.8556 0.29198 0.0
C318 C 0.84603 0.8752 0.2414 0.0
C319 C 0.84171 0.91717 0.2486 0.0
C320 C 0.84568 0.93886 0.30374 0.0
C321 C 0.85486 0.91972 0.35305 0.0
C322 C 0.86097 0.8788 0.34756 0.0
H323 H 0.7863 0.89992 0.12823 0.0
C324 C 0.81493 0.89804 0.11134 0.0
H325 H 0.8717 0.87126 0.11427 0.0
H326 H 0.86694 0.73328 0.26081 0.0
H327 H 0.85506 0.69533 0.16428 0.0
H328 H 0.83681 0.72926 0.07661 0.0
H329 H 0.82994 0.80132 0.08494 0.0
C330 C 0.84356 0.87378 0.13255 0.0
C331 C 0.84199 0.85298 0.18508 0.0
C332 C 0.84545 0.81099 0.17979 0.0
C333 C 0.85658 0.79147 0.2302 0.0
C334 C 0.85962 0.7495 0.22358 0.0
C335 C 0.8526 0.72744 0.16858 0.0
C336 C 0.84229 0.74655 0.11922 0.0
C337 C 0.83867 0.78785 0.1245 0.0
H338 H 0.1063 0.90975 0.60675 0.0
C339 C 0.10502 0.87746 0.60299 0.0
H340 H 0.12152 0.82709 0.64498 0.0
H341 H 0.2233 0.99069 0.79031 0.0
H342 H 0.25361 0.99441 0.70218 0.0
H343 H 0.23529 0.9458 0.61485 0.0
H344 H 0.18515 0.89416 0.61438 0.0
C345 C 0.12403 0.85926 0.64685 0.0
C346 C 0.14201 0.88313 0.70301 0.0
C347 C 0.17306 0.91178 0.70393 0.0
C348 C 0.18554 0.93832 0.75571 0.0
C349 C 0.21407 0.96863 0.75342 0.0
C350 C 0.23162 0.9712 0.70296 0.0
C351 C 0.22121 0.94391 0.65372 0.0
C352 C 0.19216 0.91462 0.65386 0.0
H353 H 0.2391 0.951 0.88048 0.0
C354 C 0.21422 0.9686 0.8941 0.0
H355 H 0.15292 0.98124 0.87584 0.0
H356 H 0.08326 0.83068 0.71867 0.0
H357 H 0.05761 0.82306 0.80915 0.0
H358 H 0.0836 0.8649 0.90047 0.0
H359 H 0.13495 0.91529 0.90146 0.0
C360 C 0.17805 0.96451 0.86114 0.0
C361 C 0.16889 0.93455 0.8079 0.0
C362 C 0.14014 0.90389 0.80808 0.0
C363 C 0.12621 0.8787 0.75566 0.0
C364 C 0.09582 0.84998 0.75715 0.0
C365 C 0.08067 0.8453 0.8089 0.0
C366 C 0.09522 0.86892 0.86027 0.0
C367 C 0.12455 0.8979 0.86012 0.0
H368 H 0.808 0.91978 0.82157 0.0
C369 C 0.83536 0.91803 0.85146 0.0
H370 H 0.89508 0.8982 0.86193 0.0
H371 H 0.89151 0.77492 0.63854 0.0
H372 H 0.88102 0.72924 0.7082 0.0
H373 H 0.86592 0.75439 0.8069 0.0
H374 H 0.86035 0.82542 0.83604 0.0
C375 C 0.86783 0.90041 0.83198 0.0
C376 C 0.86994 0.88505 0.76965 0.0
C377 C 0.87425 0.84366 0.75367 0.0
C378 C 0.88451 0.82924 0.6975 0.0
C379 C 0.88604 0.78757 0.68168 0.0
C380 C 0.87957 0.76101 0.72101 0.0
C381 C 0.87098 0.77517 0.77654 0.0
C382 C 0.86812 0.81597 0.79284 0.0
H383 H 0.95781 0.81 0.64186 0.0
C384 C 0.94443 0.82246 0.60312 0.0
H385 H 0.89726 0.85399 0.56321 0.0
H386 H 0.85959 0.96608 0.7835 0.0
H387 H 0.86501 1.01103 0.71174 0.0
H388 H 0.88448 0.98666 0.61553 0.0
H389 H 0.89874 0.91737 0.5905 0.0
C390 C 0.91006 0.84292 0.60338 0.0
C391 C 0.89243 0.85647 0.65827 0.0
C392 C 0.88481 0.89771 0.67247 0.0
C393 C 0.87352 0.91194 0.72818 0.0
C394 C 0.86732 0.95331 0.7417 0.0
C395 C 0.87061 0.97965 0.70096 0.0
C396 C 0.88162 0.96593 0.64682 0.0
C397 C 0.88937 0.92571 0.63287 0.0
H398 H 0.23147 0.93623 0.17277 0.0
C399 C 0.20683 0.95058 0.14879 0.0
H400 H 0.1441 0.95628 0.13251 0.0
H401 H 0.13891 0.79301 0.25959 0.0
H402 H 0.15558 0.75908 0.16783 0.0
H403 H 0.17395 0.79725 0.09097 0.0
H404 H 0.17602 0.8697 0.10538 0.0
C405 C 0.16887 0.9414 0.15533 0.0
C406 C 0.15942 0.91749 0.20196 0.0
C407 C 0.15832 0.87526 0.19308 0.0
C408 C 0.14706 0.85319 0.23724 0.0
C409 C 0.14655 0.81111 0.22719 0.0
C410 C 0.15618 0.79132 0.17484 0.0
C411 C 0.1666 0.81282 0.13157 0.0
C412 C 0.16772 0.85433 0.14036 0.0
H413 H 0.06782 0.83448 0.2873 0.0
C414 C 0.0861 0.83492 0.32944 0.0
H415 H 0.13993 0.85541 0.37994 0.0
H416 H 0.15655 0.99808 0.23203 0.0
H417 H 0.13881 0.03189 0.32219 0.0
H418 H 0.12118 0.99355 0.3998 0.0
H419 H 0.12098 0.92197 0.3872 0.0
C420 C 0.1231 0.85117 0.33648 0.0
C421 C 0.13689 0.87338 0.29033 0.0
C422 C 0.13853 0.91566 0.29922 0.0
C423 C 0.14914 0.93764 0.2548 0.0
C424 C 0.14902 0.97982 0.26432 0.0
C425 C 0.13893 0.9997 0.31609 0.0
C426 C 0.12902 0.97827 0.3596 0.0
C427 C 0.12888 0.93688 0.35164 0.0
H428 H 0.13711 0.26437 0.78799 0.0
C429 C 0.15018 0.2611 0.74743 0.0
H430 H 0.20048 0.2493 0.70575 0.0
H431 H 0.22355 0.22987 0.99742 0.0
H432 H 0.2064 0.29979 0.01583 0.0
H433 H 0.19343 0.34078 0.93466 0.0
H434 H 0.19705 0.31188 0.83433 0.0
C435 C 0.18925 0.25252 0.74761 0.0
C436 C 0.21193 0.23443 0.79755 0.0
C437 C 0.21135 0.25199 0.85586 0.0
C438 C 0.21968 0.22857 0.90267 0.0
C439 C 0.21739 0.24644 0.96032 0.0
C440 C 0.20781 0.2865 0.97144 0.0
C441 C 0.20045 0.30958 0.92572 0.0
C442 C 0.20227 0.29268 0.86848 0.0
H443 H 0.28759 0.14593 0.95044 0.0
C444 C 0.25765 0.14114 0.96117 0.0
H445 H 0.1968 0.15718 0.94896 0.0
H446 H 0.23234 0.19601 0.69388 0.0
H447 H 0.25407 0.12825 0.67673 0.0
H448 H 0.26211 0.08557 0.75598 0.0
H449 H 0.2507 0.11134 0.85356 0.0
C450 C 0.22653 0.16115 0.93688 0.0
C451 C 0.22942 0.18788 0.89122 0.0
C452 C 0.2353 0.17179 0.83378 0.0
C453 C 0.22804 0.19568 0.78718 0.0
C454 C 0.23541 0.17917 0.73066 0.0
C455 C 0.24821 0.14013 0.72008 0.0
C456 C 0.25303 0.1162 0.76476 0.0
C457 C 0.24656 0.13159 0.82091 0.0
H458 H 0.85008 0.08417 0.18958 0.0
C459 C 0.87469 0.06587 0.17658 0.0
H460 H 0.93615 0.05374 0.19494 0.0
H461 H 0.98897 0.21852 0.33868 0.0
H462 H 1.00527 0.23041 0.24387 0.0
H463 H 0.98159 0.18425 0.15575 0.0
H464 H 0.94123 0.12588 0.16214 0.0
C465 C 0.91093 0.07058 0.20893 0.0
C466 C 0.91924 0.10145 0.261 0.0
C467 C 0.94139 0.13641 0.25676 0.0
C468 C 0.95436 0.16348 0.30763 0.0
C469 C 0.97765 0.19728 0.30173 0.0
C470 C 0.98732 0.20448 0.24743 0.0
C471 C 0.97408 0.17846 0.19785 0.0
C472 C 0.95119 0.14493 0.20217 0.0
H473 H 0.98894 0.13215 0.45442 0.0
C474 C 0.98631 0.16424 0.45946 0.0
H475 H 0.96136 0.21332 0.42084 0.0
H476 H 0.8753 0.03874 0.28448 0.0
H477 H 0.85411 0.02943 0.37798 0.0
H478 H 0.87219 0.07866 0.46431 0.0
H479 H 0.91179 0.1375 0.45828 0.0
C480 C 0.96344 0.1811 0.41754 0.0
C481 C 0.94469 0.15591 0.36299 0.0
C482 C 0.91946 0.12269 0.36621 0.0
C483 C 0.90756 0.09501 0.31558 0.0
C484 C 0.88433 0.06113 0.32109 0.0
C485 C 0.87199 0.05537 0.37443 0.0
C486 C 0.88229 0.08305 0.42319 0.0
C487 C 0.90548 0.11646 0.41929 0.0
loop_
_geom_bond_atom_site_label_1
_geom_bond_atom_site_label_2
_geom_bond_distance
_geom_bond_site_symmetry_2
_ccdc_geom_bond_type
Zn0 O1 2.055 1_544 S
Zn0 O8 2.046 1_545 S
Zn0 N16 2.036 . S
Zn0 O28 2.053 . S
Zn0 O30 2.066 . S
O1 Zn0 2.055 1_566 S
O1 C4 1.259 . S
C2 O30 1.256 1_556 S
C2 O31 1.244 . S
Zn3 O5 2.046 1_544 S
Zn3 O7 2.055 1_545 S
Zn3 N9 2.036 . S
Zn3 O27 2.066 . S
Zn3 O31 2.053 1_554 S
C4 O1 1.259 . S
C4 O5 1.254 . S
O5 Zn3 2.046 1_566 S
O5 C4 1.254 . S
C6 O27 1.256 . S
C6 O28 1.244 . S
O7 Zn3 2.055 1_565 S
O7 C29 1.259 . S
O8 Zn0 2.046 1_565 S
O8 C29 1.254 . S
N9 Zn3 2.036 . S
N9 C10 1.298 . S
N9 N12 1.398 1_554 S
C10 N9 1.298 . S
C10 N13 1.367 . S
C10 C23 1.481 1_545 S
C11 N12 1.299 . S
C11 N13 1.379 1_556 S
N12 N9 1.398 1_556 S
N12 C11 1.299 . S
N13 C10 1.367 . S
N13 C11 1.379 1_554 S
C14 N16 1.298 . S
C14 N18 1.367 . S
C14 C22 1.481 1_544 S
C15 N17 1.299 . S
C15 N18 1.379 . S
N16 Zn0 2.036 . S
N16 C14 1.298 . S
N16 N17 1.398 . S
N17 C15 1.299 . S
N17 N16 1.398 . S
N18 C14 1.367 . S
N18 C15 1.379 . S
H19 C22 0.980 . S
H20 C22 0.981 . S
H21 C22 0.981 1_545 S
C22 C14 1.481 1_566 S
C22 H19 0.980 . S
C22 H20 0.981 . S
C22 H21 0.981 1_565 S
C23 C10 1.481 1_565 S
C23 H24 0.980 . S
C23 H25 0.981 . S
C23 H26 0.981 1_565 S
H24 C23 0.980 . S
H25 C23 0.981 . S
H26 C23 0.981 1_545 S
O27 Zn3 2.066 . S
O27 C6 1.256 . S
O28 Zn0 2.053 . S
O28 C6 1.244 . S
C29 O7 1.259 . S
C29 O8 1.254 . S
O30 Zn0 2.066 . S
O30 C2 1.256 1_554 S
O31 C2 1.244 . S
O31 Zn3 2.053 1_556 S
Zn32 O33 2.055 . S
Zn32 O40 2.046 . S
Zn32 N48 2.036 . S
Zn32 O60 2.053 1_455 S
Zn32 O62 2.066 1_455 S
O33 Zn32 2.055 . S
O33 C36 1.259 . S
C34 O62 1.256 . S
C34 O63 1.244 . S
Zn35 O37 2.046 . S
Zn35 O39 2.055 . S
Zn35 N41 2.036 . S
Zn35 O59 2.066 1_455 S
Zn35 O63 2.053 1_455 S
C36 O33 1.259 . S
C36 O37 1.254 . S
O37 Zn35 2.046 . S
O37 C36 1.254 . S
C38 O59 1.256 . S
C38 O60 1.244 . S
O39 Zn35 2.055 . S
O39 C61 1.259 . S
O40 Zn32 2.046 . S
O40 C61 1.254 . S
N41 Zn35 2.036 . S
N41 C42 1.298 . S
N41 N44 1.398 . S
C42 N41 1.298 . S
C42 N45 1.367 . S
C42 C55 1.481 . S
C43 N44 1.299 . S
C43 N45 1.379 . S
N44 N41 1.398 . S
N44 C43 1.299 . S
N45 C42 1.367 . S
N45 C43 1.379 . S
C46 N48 1.298 . S
C46 N50 1.367 . S
C46 C54 1.481 . S
C47 N49 1.299 . S
C47 N50 1.379 . S
N48 Zn32 2.036 . S
N48 C46 1.298 . S
N48 N49 1.398 . S
N49 C47 1.299 . S
N49 N48 1.398 . S
N50 C46 1.367 . S
N50 C47 1.379 . S
H51 C54 0.980 . S
H52 C54 0.981 . S
H53 C54 0.981 . S
C54 C46 1.481 . S
C54 H51 0.980 . S
C54 H52 0.981 . S
C54 H53 0.981 . S
C55 C42 1.481 . S
C55 H56 0.980 . S
C55 H57 0.981 . S
C55 H58 0.981 . S
H56 C55 0.980 . S
H57 C55 0.981 . S
H58 C55 0.981 . S
O59 Zn35 2.066 1_655 S
O59 C38 1.256 . S
O60 Zn32 2.053 1_655 S
O60 C38 1.244 . S
C61 O39 1.259 . S
C61 O40 1.254 . S
O62 Zn32 2.066 1_655 S
O62 C34 1.256 . S
O63 C34 1.244 . S
O63 Zn35 2.053 1_655 S
Zn64 O65 2.055 1_554 S
Zn64 O72 2.046 . S
Zn64 N80 2.036 1_565 S
Zn64 O92 2.053 1_565 S
Zn64 O94 2.066 1_564 S
O65 Zn64 2.055 1_556 S
O65 C68 1.259 . S
C66 O94 1.256 . S
C66 O95 1.244 . S
Zn67 O69 2.046 . S
Zn67 O71 2.055 1_556 S
Zn67 N73 2.035 1_565 S
Zn67 O91 2.066 1_566 S
Zn67 O95 2.053 1_565 S
C68 O65 1.259 . S
C68 O69 1.254 . S
O69 Zn67 2.046 . S
O69 C68 1.254 . S
C70 O91 1.256 . S
C70 O92 1.244 . S
O71 Zn67 2.055 1_554 S
O71 C93 1.259 . S
O72 Zn64 2.046 . S
O72 C93 1.254 . S
N73 Zn67 2.035 1_545 S
N73 C74 1.295 1_546 S
N73 N76 1.408 . S
C74 N73 1.295 1_564 S
C74 N77 1.367 1_564 S
C74 C87 1.481 . S
C75 N76 1.299 . S
C75 N77 1.379 . S
N76 N73 1.408 . S
N76 C75 1.299 . S
N77 C74 1.367 1_546 S
N77 C75 1.379 . S
C78 N80 1.297 1_556 S
C78 N82 1.377 1_556 S
C78 C86 1.473 1_545 S
C79 N81 1.299 . S
C79 N82 1.379 . S
N80 Zn64 2.036 1_545 S
N80 C78 1.297 1_554 S
N80 N81 1.398 . S
N81 C79 1.299 . S
N81 N80 1.398 . S
N82 C78 1.377 1_554 S
N82 C79 1.379 . S
H83 C86 0.980 . S
H84 C86 0.981 . S
H85 C86 0.981 1_545 S
C86 C78 1.473 1_565 S
C86 H83 0.980 . S
C86 H84 0.981 . S
C86 H85 0.981 1_565 S
C87 C74 1.481 . S
C87 H88 0.980 . S
C87 H89 0.981 . S
C87 H90 0.981 1_565 S
H88 C87 0.980 . S
H89 C87 0.981 . S
H90 C87 0.981 1_545 S
O91 Zn67 2.066 1_544 S
O91 C70 1.256 . S
O92 Zn64 2.053 1_545 S
O92 C70 1.244 . S
C93 O71 1.259 . S
C93 O72 1.254 . S
O94 Zn64 2.066 1_546 S
O94 C66 1.256 . S
O95 C66 1.244 . S
O95 Zn67 2.053 1_545 S
Zn96 O97 2.055 . S
Zn96 O104 2.046 . S
Zn96 N112 2.036 . S
Zn96 O124 2.053 1_455 S
Zn96 O126 2.066 1_455 S
O97 Zn96 2.055 . S
O97 C100 1.259 . S
C98 O126 1.256 . S
C98 O127 1.244 . S
Zn99 O101 2.046 . S
Zn99 O103 2.055 . S
Zn99 N105 2.036 . S
Zn99 O123 2.066 1_455 S
Zn99 O127 2.053 1_455 S
C100 O97 1.259 . S
C100 O101 1.254 . S
O101 Zn99 2.046 . S
O101 C100 1.254 . S
C102 O123 1.256 . S
C102 O124 1.244 . S
O103 Zn99 2.055 . S
O103 C125 1.259 . S
O104 Zn96 2.046 . S
O104 C125 1.254 . S
N105 Zn99 2.036 . S
N105 C106 1.298 . S
N105 N108 1.398 . S
C106 N105 1.298 . S
C106 N109 1.367 . S
C106 C119 1.481 . S
C107 N108 1.299 1_655 S
C107 N109 1.378 1_655 S
N108 N105 1.398 . S
N108 C107 1.299 1_455 S
N109 C106 1.367 . S
N109 C107 1.378 1_455 S
C110 N112 1.298 . S
C110 N114 1.367 . S
C110 C118 1.481 . S
C111 N113 1.296 1_655 S
C111 N114 1.371 1_655 S
N112 Zn96 2.036 . S
N112 C110 1.298 . S
N112 N113 1.398 . S
N113 C111 1.296 1_455 S
N113 N112 1.398 . S
N114 C110 1.367 . S
N114 C111 1.371 1_455 S
H115 C118 0.980 . S
H116 C118 0.981 . S
H117 C118 0.981 . S
C118 C110 1.481 . S
C118 H115 0.980 . S
C118 H116 0.981 . S
C118 H117 0.981 . S
C119 C106 1.481 . S
C119 H120 0.980 . S
C119 H121 0.981 . S
C119 H122 0.981 . S
H120 C119 0.980 . S
H121 C119 0.981 . S
H122 C119 0.981 . S
O123 Zn99 2.066 1_655 S
O123 C102 1.256 . S
O124 Zn96 2.053 1_655 S
O124 C102 1.244 . S
C125 O103 1.259 . S
C125 O104 1.254 . S
O126 Zn96 2.066 1_655 S
O126 C98 1.256 . S
O127 C98 1.244 . S
O127 Zn99 2.053 1_655 S
H128 C129 0.951 . S
C129 H128 0.951 . S
C129 C135 1.265 . S
H130 C135 0.950 . S
H131 C139 0.949 . S
H132 C140 0.950 . S
H133 C141 0.951 . S
H134 C142 0.951 . S
C135 C129 1.265 . S
C135 H130 0.950 . S
C135 C136 1.477 1_556 S
C136 C135 1.477 1_554 S
C136 C137 1.399 1_645 S
C136 C153 1.396 1_655 S
C137 C136 1.399 1_465 S
C137 C138 1.438 . S
C137 C142 1.429 1_455 S
C138 C137 1.438 . S
C138 C139 1.428 . S
C138 C151 1.394 1_565 S
C139 H131 0.949 . S
C139 C138 1.428 . S
C139 C140 1.345 . S
C140 H132 0.950 . S
C140 C139 1.345 . S
C140 C141 1.424 1_455 S
C141 H133 0.951 . S
C141 C140 1.424 1_655 S
C141 C142 1.347 . S
C142 H134 0.951 . S
C142 C137 1.429 1_655 S
C142 C141 1.347 . S
H143 C144 0.951 . S
C144 H143 0.951 . S
C144 C150 1.265 . S
H145 C150 0.950 . S
H146 C154 0.968 . S
H147 C155 0.950 . S
H148 C156 0.951 . S
H149 C157 0.951 . S
C150 C144 1.265 . S
C150 H145 0.950 . S
C150 C151 1.478 . S
C151 C138 1.394 1_545 S
C151 C150 1.478 . S
C151 C152 1.397 . S
C152 C151 1.397 . S
C152 C153 1.443 . S
C152 C157 1.429 . S
C153 C136 1.396 1_455 S
C153 C152 1.443 . S
C153 C154 1.415 1_454 S
C154 H146 0.968 . S
C154 C153 1.415 1_656 S
C154 C155 1.332 1_655 S
C155 H147 0.950 . S
C155 C154 1.332 1_455 S
C155 C156 1.424 1_556 S
C156 H148 0.951 . S
C156 C155 1.424 1_554 S
C156 C157 1.347 . S
C157 H149 0.951 . S
C157 C152 1.429 . S
C157 C156 1.347 . S
H158 C159 0.951 . S
C159 H158 0.951 . S
C159 C165 1.265 1_455 S
H160 C165 0.950 . S
H161 C169 0.949 . S
H162 C170 0.950 . S
H163 C171 0.951 1_565 S
H164 C172 0.951 . S
C165 C159 1.265 1_655 S
C165 H160 0.950 . S
C165 C166 1.478 1_655 S
C166 C165 1.478 1_455 S
C166 C167 1.397 1_455 S
C166 C183 1.394 . S
C167 C166 1.397 1_655 S
C167 C168 1.438 1_565 S
C167 C172 1.429 . S
C168 C167 1.438 1_545 S
C168 C169 1.428 . S
C168 C181 1.394 1_655 S
C169 H161 0.949 . S
C169 C168 1.428 . S
C169 C170 1.345 . S
C170 H162 0.950 . S
C170 C169 1.345 . S
C170 C171 1.424 . S
C171 H163 0.951 1_545 S
C171 C170 1.424 . S
C171 C172 1.347 1_545 S
C172 H164 0.951 . S
C172 C167 1.429 . S
C172 C171 1.347 1_565 S
H173 C174 0.951 . S
C174 H173 0.951 . S
C174 C180 1.265 . S
H175 C180 0.950 . S
H176 C184 0.949 . S
H177 C185 0.950 . S
H178 C186 0.951 . S
H179 C187 0.951 . S
C180 C174 1.265 . S
C180 H175 0.950 . S
C180 C181 1.478 . S
C181 C168 1.394 1_455 S
C181 C180 1.478 . S
C181 C182 1.397 . S
C182 C181 1.397 . S
C182 C183 1.438 1_545 S
C182 C187 1.429 . S
C183 C166 1.394 . S
C183 C182 1.438 1_565 S
C183 C184 1.428 . S
C184 H176 0.949 . S
C184 C183 1.428 . S
C184 C185 1.345 . S
C185 H177 0.950 . S
C185 C184 1.345 . S
C185 C186 1.424 1_565 S
C186 H178 0.951 . S
C186 C185 1.424 1_545 S
C186 C187 1.347 . S
C187 H179 0.951 . S
C187 C182 1.429 . S
C187 C186 1.347 . S
H188 C189 0.951 . S
C189 H188 0.951 . S
C189 C195 1.265 1_554 S
H190 C195 0.950 . S
H191 C199 0.949 . S
H192 C200 0.950 . S
H193 C201 0.951 . S
H194 C202 0.951 . S
C195 C189 1.265 1_556 S
C195 H190 0.950 . S
C195 C196 1.478 1_556 S
C196 C195 1.478 1_554 S
C196 C197 1.397 1_545 S
C196 C213 1.394 . S
C197 C196 1.397 1_565 S
C197 C198 1.438 . S
C197 C202 1.429 1_554 S
C198 C197 1.438 . S
C198 C199 1.428 . S
C198 C211 1.394 1_565 S
C199 H191 0.949 . S
C199 C198 1.428 . S
C199 C200 1.345 1_554 S
C200 H192 0.950 . S
C200 C199 1.345 1_556 S
C200 C201 1.424 . S
C201 H193 0.951 . S
C201 C200 1.424 . S
C201 C202 1.347 . S
C202 H194 0.951 . S
C202 C197 1.429 1_556 S
C202 C201 1.347 . S
H203 C204 0.951 . S
C204 H203 0.951 . S
C204 C210 1.265 . S
H205 C210 0.950 . S
H206 C214 0.949 . S
H207 C215 0.950 . S
H208 C216 0.951 . S
H209 C217 0.951 . S
C210 C204 1.265 . S
C210 H205 0.950 . S
C210 C211 1.478 . S
C211 C198 1.394 1_545 S
C211 C210 1.478 . S
C211 C212 1.397 . S
C212 C211 1.397 . S
C212 C213 1.438 . S
C212 C217 1.429 . S
C213 C196 1.394 . S
C213 C212 1.438 . S
C213 C214 1.428 . S
C214 H206 0.949 . S
C214 C213 1.428 . S
C214 C215 1.345 . S
C215 H207 0.950 . S
C215 C214 1.345 . S
C215 C216 1.424 . S
C216 H208 0.951 . S
C216 C215 1.424 . S
C216 C217 1.347 . S
C217 H209 0.951 . S
C217 C212 1.429 . S
C217 C216 1.347 . S
H218 C219 0.951 . S
C219 H218 0.951 . S
C219 C225 1.265 1_455 S
H220 C225 0.950 . S
H221 C229 0.949 . S
H222 C230 0.950 . S
H223 C231 0.951 . S
H224 C232 0.951 . S
C225 C219 1.265 1_655 S
C225 H220 0.950 . S
C225 C226 1.478 1_655 S
C226 C225 1.478 1_455 S
C226 C227 1.397 . S
C226 C243 1.394 . S
C227 C226 1.397 . S
C227 C228 1.438 . S
C227 C232 1.429 1_455 S
C228 C227 1.438 . S
C228 C229 1.428 . S
C228 C241 1.394 . S
C229 H221 0.949 . S
C229 C228 1.428 . S
C229 C230 1.345 1_455 S
C230 H222 0.950 . S
C230 C229 1.345 1_655 S
C230 C231 1.424 . S
C231 H223 0.951 . S
C231 C230 1.424 . S
C231 C232 1.347 . S
C232 H224 0.951 . S
C232 C227 1.429 1_655 S
C232 C231 1.347 . S
H233 C234 0.951 1_655 S
C234 H233 0.951 1_455 S
C234 C240 1.265 . S
H235 C240 0.950 . S
H236 C244 0.949 . S
H237 C245 0.950 . S
H238 C246 0.951 . S
H239 C247 0.951 . S
C240 C234 1.265 . S
C240 H235 0.950 . S
C240 C241 1.478 . S
C241 C228 1.394 . S
C241 C240 1.478 . S
C241 C242 1.397 . S
C242 C241 1.397 . S
C242 C243 1.438 . S
C242 C247 1.429 . S
C243 C226 1.394 . S
C243 C242 1.438 . S
C243 C244 1.428 . S
C244 H236 0.949 . S
C244 C243 1.428 . S
C244 C245 1.345 . S
C245 H237 0.950 . S
C245 C244 1.345 . S
C245 C246 1.424 . S
C246 H238 0.951 . S
C246 C245 1.424 . S
C246 C247 1.347 . S
C247 H239 0.951 . S
C247 C242 1.429 . S
C247 C246 1.347 . S
H248 C249 0.951 . S
C249 H248 0.951 . S
C249 C255 1.265 . S
H250 C255 0.950 . S
H251 C259 0.949 . S
H252 C260 0.950 . S
H253 C261 0.951 . S
H254 C262 0.951 . S
C255 C249 1.265 . S
C255 H250 0.950 . S
C255 C256 1.478 . S
C256 C255 1.478 . S
C256 C257 1.397 . S
C256 C273 1.394 . S
C257 C256 1.397 . S
C257 C258 1.438 . S
C257 C262 1.429 . S
C258 C257 1.438 . S
C258 C259 1.428 . S
C258 C271 1.394 . S
C259 H251 0.949 . S
C259 C258 1.428 . S
C259 C260 1.345 . S
C260 H252 0.950 . S
C260 C259 1.345 . S
C260 C261 1.424 . S
C261 H253 0.951 . S
C261 C260 1.424 . S
C261 C262 1.347 . S
C262 H254 0.951 . S
C262 C257 1.429 . S
C262 C261 1.347 . S
H263 C264 0.951 . S
C264 H263 0.951 . S
C264 C270 1.265 . S
H265 C270 0.950 . S
H266 C274 0.949 . S
H267 C275 0.950 . S
H268 C276 0.951 . S
H269 C277 0.951 . S
C270 C264 1.265 . S
C270 H265 0.950 . S
C270 C271 1.478 . S
C271 C258 1.394 . S
C271 C270 1.478 . S
C271 C272 1.397 . S
C272 C271 1.397 . S
C272 C273 1.438 . S
C272 C277 1.429 . S
C273 C256 1.394 . S
C273 C272 1.438 . S
C273 C274 1.428 . S
C274 H266 0.949 . S
C274 C273 1.428 . S
C274 C275 1.345 . S
C275 H267 0.950 . S
C275 C274 1.345 . S
C275 C276 1.424 . S
C276 H268 0.951 . S
C276 C275 1.424 . S
C276 C277 1.347 . S
C277 H269 0.951 . S
C277 C272 1.429 . S
C277 C276 1.347 . S
H278 C279 0.951 . S
C279 H278 0.951 . S
C279 C285 1.265 . S
H280 C285 0.950 . S
H281 C289 0.949 . S
H282 C290 0.950 . S
H283 C291 0.951 . S
H284 C292 0.951 . S
C285 C279 1.265 . S
C285 H280 0.950 . S
C285 C286 1.478 . S
C286 C285 1.478 . S
C286 C287 1.397 . S
C286 C303 1.394 . S
C287 C286 1.397 . S
C287 C288 1.438 . S
C287 C292 1.429 . S
C288 C287 1.438 . S
C288 C289 1.428 . S
C288 C301 1.394 . S
C289 H281 0.949 . S
C289 C288 1.428 . S
C289 C290 1.345 . S
C290 H282 0.950 . S
C290 C289 1.345 . S
C290 C291 1.424 . S
C291 H283 0.951 . S
C291 C290 1.424 . S
C291 C292 1.347 . S
C292 H284 0.951 . S
C292 C287 1.429 . S
C292 C291 1.347 . S
H293 C294 0.951 . S
C294 H293 0.951 . S
C294 C300 1.265 . S
H295 C300 0.950 . S
H296 C304 0.949 . S
H297 C305 0.950 . S
H298 C306 0.951 . S
H299 C307 0.951 . S
C300 C294 1.265 . S
C300 H295 0.950 . S
C300 C301 1.478 . S
C301 C288 1.394 . S
C301 C300 1.478 . S
C301 C302 1.397 . S
C302 C301 1.397 . S
C302 C303 1.438 . S
C302 C307 1.429 . S
C303 C286 1.394 . S
C303 C302 1.438 . S
C303 C304 1.428 . S
C304 H296 0.949 . S
C304 C303 1.428 . S
C304 C305 1.345 . S
C305 H297 0.950 . S
C305 C304 1.345 . S
C305 C306 1.424 . S
C306 H298 0.951 . S
C306 C305 1.424 . S
C306 C307 1.347 . S
C307 H299 0.951 . S
C307 C302 1.429 . S
C307 C306 1.347 . S
H308 C309 0.951 . S
C309 H308 0.951 . S
C309 C315 1.265 . S
H310 C315 0.950 . S
H311 C319 0.949 . S
H312 C320 0.966 . S
H313 C321 0.951 . S
H314 C322 0.951 . S
C315 C309 1.265 . S
C315 H310 0.950 . S
C315 C316 1.478 . S
C316 C315 1.478 . S
C316 C317 1.397 . S
C316 C333 1.394 . S
C317 C316 1.397 . S
C317 C318 1.438 . S
C317 C322 1.429 . S
C318 C317 1.438 . S
C318 C319 1.428 . S
C318 C331 1.394 . S
C319 H311 0.949 . S
C319 C318 1.428 . S
C319 C320 1.345 . S
C320 H312 0.966 . S
C320 C319 1.345 . S
C320 C321 1.424 . S
C321 H313 0.951 . S
C321 C320 1.424 . S
C321 C322 1.347 . S
C322 H314 0.951 . S
C322 C317 1.429 . S
C322 C321 1.347 . S
H323 C324 0.951 . S
C324 H323 0.951 . S
C324 C330 1.265 . S
H325 C330 0.950 . S
H326 C334 0.949 . S
H327 C335 0.950 . S
H328 C336 0.951 . S
H329 C337 0.951 . S
C330 C324 1.265 . S
C330 H325 0.950 . S
C330 C331 1.478 . S
C331 C318 1.394 . S
C331 C330 1.478 . S
C331 C332 1.397 . S
C332 C331 1.397 . S
C332 C333 1.438 . S
C332 C337 1.429 . S
C333 C316 1.394 . S
C333 C332 1.438 . S
C333 C334 1.428 . S
C334 H326 0.949 . S
C334 C333 1.428 . S
C334 C335 1.345 . S
C335 H327 0.950 . S
C335 C334 1.345 . S
C335 C336 1.424 . S
C336 H328 0.951 . S
C336 C335 1.424 . S
C336 C337 1.347 . S
C337 H329 0.951 . S
C337 C332 1.429 . S
C337 C336 1.347 . S
H338 C339 0.951 . S
C339 H338 0.951 . S
C339 C345 1.265 . S
H340 C345 0.950 . S
H341 C349 0.949 . S
H342 C350 0.950 . S
H343 C351 0.951 . S
H344 C352 0.951 . S
C345 C339 1.265 . S
C345 H340 0.950 . S
C345 C346 1.478 . S
C346 C345 1.478 . S
C346 C347 1.397 . S
C346 C363 1.394 . S
C347 C346 1.397 . S
C347 C348 1.438 . S
C347 C352 1.429 . S
C348 C347 1.438 . S
C348 C349 1.428 . S
C348 C361 1.394 . S
C349 H341 0.949 . S
C349 C348 1.428 . S
C349 C350 1.345 . S
C350 H342 0.950 . S
C350 C349 1.345 . S
C350 C351 1.424 . S
C351 H343 0.951 . S
C351 C350 1.424 . S
C351 C352 1.347 . S
C352 H344 0.951 . S
C352 C347 1.429 . S
C352 C351 1.347 . S
H353 C354 0.951 . S
C354 H353 0.951 . S
C354 C360 1.265 . S
H355 C360 0.950 . S
H356 C364 0.949 . S
H357 C365 0.950 . S
H358 C366 0.951 . S
H359 C367 0.951 . S
C360 C354 1.265 . S
C360 H355 0.950 . S
C360 C361 1.478 . S
C361 C348 1.394 . S
C361 C360 1.478 . S
C361 C362 1.397 . S
C362 C361 1.397 . S
C362 C363 1.438 . S
C362 C367 1.429 . S
C363 C346 1.394 . S
C363 C362 1.438 . S
C363 C364 1.428 . S
C364 H356 0.949 . S
C364 C363 1.428 . S
C364 C365 1.345 . S
C365 H357 0.950 . S
C365 C364 1.345 . S
C365 C366 1.424 . S
C366 H358 0.951 . S
C366 C365 1.424 . S
C366 C367 1.347 . S
C367 H359 0.951 . S
C367 C362 1.429 . S
C367 C366 1.347 . S
H368 C369 0.951 . S
C369 H368 0.951 . S
C369 C375 1.265 . S
H370 C375 0.950 . S
H371 C379 0.949 . S
H372 C380 0.950 . S
H373 C381 0.951 . S
H374 C382 0.951 . S
C375 C369 1.265 . S
C375 H370 0.950 . S
C375 C376 1.478 . S
C376 C375 1.478 . S
C376 C377 1.397 . S
C376 C393 1.394 . S
C377 C376 1.397 . S
C377 C378 1.438 . S
C377 C382 1.429 . S
C378 C377 1.438 . S
C378 C379 1.428 . S
C378 C391 1.394 . S
C379 H371 0.949 . S
C379 C378 1.428 . S
C379 C380 1.345 . S
C380 H372 0.950 . S
C380 C379 1.345 . S
C380 C381 1.424 . S
C381 H373 0.951 . S
C381 C380 1.424 . S
C381 C382 1.347 . S
C382 H374 0.951 . S
C382 C377 1.429 . S
C382 C381 1.347 . S
H383 C384 0.951 . S
C384 H383 0.951 . S
C384 C390 1.265 . S
H385 C390 0.950 . S
H386 C394 0.949 . S
H387 C395 0.950 . S
H388 C396 0.951 . S
H389 C397 0.951 . S
C390 C384 1.265 . S
C390 H385 0.950 . S
C390 C391 1.478 . S
C391 C378 1.394 . S
C391 C390 1.478 . S
C391 C392 1.397 . S
C392 C391 1.397 . S
C392 C393 1.438 . S
C392 C397 1.429 . S
C393 C376 1.394 . S
C393 C392 1.438 . S
C393 C394 1.428 . S
C394 H386 0.949 . S
C394 C393 1.428 . S
C394 C395 1.345 . S
C395 H387 0.950 . S
C395 C394 1.345 . S
C395 C396 1.424 . S
C396 H388 0.951 . S
C396 C395 1.424 . S
C396 C397 1.347 . S
C397 H389 0.951 . S
C397 C392 1.429 . S
C397 C396 1.347 . S
H398 C399 0.951 . S
C399 H398 0.951 . S
C399 C405 1.265 . S
H400 C405 0.950 . S
H401 C409 0.949 . S
H402 C410 0.950 . S
H403 C411 0.951 . S
H404 C412 0.951 . S
C405 C399 1.265 . S
C405 H400 0.950 . S
C405 C406 1.478 . S
C406 C405 1.478 . S
C406 C407 1.397 . S
C406 C423 1.394 . S
C407 C406 1.397 . S
C407 C408 1.438 . S
C407 C412 1.429 . S
C408 C407 1.438 . S
C408 C409 1.428 . S
C408 C421 1.394 . S
C409 H401 0.949 . S
C409 C408 1.428 . S
C409 C410 1.345 . S
C410 H402 0.950 . S
C410 C409 1.345 . S
C410 C411 1.424 . S
C411 H403 0.951 . S
C411 C410 1.424 . S
C411 C412 1.347 . S
C412 H404 0.951 . S
C412 C407 1.429 . S
C412 C411 1.347 . S
H413 C414 0.951 . S
C414 H413 0.951 . S
C414 C420 1.265 . S
H415 C420 0.950 . S
H416 C424 0.949 . S
H417 C425 0.950 . S
H418 C426 0.951 . S
H419 C427 0.951 . S
C420 C414 1.265 . S
C420 H415 0.950 . S
C420 C421 1.478 . S
C421 C408 1.394 . S
C421 C420 1.478 . S
C421 C422 1.397 . S
C422 C421 1.397 . S
C422 C423 1.438 . S
C422 C427 1.429 . S
C423 C406 1.394 . S
C423 C422 1.438 . S
C423 C424 1.428 . S
C424 H416 0.949 . S
C424 C423 1.428 . S
C424 C425 1.345 . S
C425 H417 0.950 . S
C425 C424 1.345 . S
C425 C426 1.424 . S
C426 H418 0.951 . S
C426 C425 1.424 . S
C426 C427 1.347 . S
C427 H419 0.951 . S
C427 C422 1.429 . S
C427 C426 1.347 . S
H428 C429 0.951 . S
C429 H428 0.951 . S
C429 C435 1.265 . S
H430 C435 0.950 . S
H431 C439 0.949 . S
H432 C440 0.950 . S
H433 C441 0.951 . S
H434 C442 0.951 . S
C435 C429 1.265 . S
C435 H430 0.950 . S
C435 C436 1.478 . S
C436 C435 1.478 . S
C436 C437 1.397 . S
C436 C453 1.394 . S
C437 C436 1.397 . S
C437 C438 1.438 . S
C437 C442 1.429 . S
C438 C437 1.438 . S
C438 C439 1.428 . S
C438 C451 1.394 . S
C439 H431 0.949 . S
C439 C438 1.428 . S
C439 C440 1.345 . S
C440 H432 0.950 . S
C440 C439 1.345 . S
C440 C441 1.424 . S
C441 H433 0.951 . S
C441 C440 1.424 . S
C441 C442 1.347 . S
C442 H434 0.951 . S
C442 C437 1.429 . S
C442 C441 1.347 . S
H443 C444 0.951 . S
C444 H443 0.951 . S
C444 C450 1.265 . S
H445 C450 0.950 . S
H446 C454 0.949 . S
H447 C455 0.950 . S
H448 C456 0.951 . S
H449 C457 0.951 . S
C450 C444 1.265 . S
C450 H445 0.950 . S
C450 C451 1.478 . S
C451 C438 1.394 . S
C451 C450 1.478 . S
C451 C452 1.397 . S
C452 C451 1.397 . S
C452 C453 1.438 . S
C452 C457 1.429 . S
C453 C436 1.394 . S
C453 C452 1.438 . S
C453 C454 1.428 . S
C454 H446 0.949 . S
C454 C453 1.428 . S
C454 C455 1.345 . S
C455 H447 0.950 . S
C455 C454 1.345 . S
C455 C456 1.424 . S
C456 H448 0.951 . S
C456 C455 1.424 . S
C456 C457 1.347 . S
C457 H449 0.951 . S
C457 C452 1.429 . S
C457 C456 1.347 . S
H458 C459 0.951 . S
C459 H458 0.951 . S
C459 C465 1.265 . S
H460 C465 0.950 . S
H461 C469 0.949 . S
H462 C470 0.950 . S
H463 C471 0.951 . S
H464 C472 0.951 . S
C465 C459 1.265 . S
C465 H460 0.950 . S
C465 C466 1.478 . S
C466 C465 1.478 . S
C466 C467 1.397 . S
C466 C483 1.394 . S
C467 C466 1.397 . S
C467 C468 1.438 . S
C467 C472 1.429 . S
C468 C467 1.438 . S
C468 C469 1.428 . S
C468 C481 1.394 . S
C469 H461 0.949 . S
C469 C468 1.428 . S
C469 C470 1.345 . S
C470 H462 0.950 . S
C470 C469 1.345 . S
C470 C471 1.424 . S
C471 H463 0.951 . S
C471 C470 1.424 . S
C471 C472 1.347 . S
C472 H464 0.951 . S
C472 C467 1.429 . S
C472 C471 1.347 . S
H473 C474 0.951 . S
C474 H473 0.951 . S
C474 C480 1.265 . S
H475 C480 0.950 . S
H476 C484 0.949 . S
H477 C485 0.950 . S
H478 C486 0.951 . S
H479 C487 0.951 . S
C480 C474 1.265 . S
C480 H475 0.950 . S
C480 C481 1.478 . S
C481 C468 1.394 . S
C481 C480 1.478 . S
C481 C482 1.397 . S
C482 C481 1.397 . S
C482 C483 1.438 . S
C482 C487 1.429 . S
C483 C466 1.394 . S
C483 C482 1.438 . S
C483 C484 1.428 . S
C484 H476 0.949 . S
C484 C483 1.428 . S
C484 C485 1.345 . S
C485 H477 0.950 . S
C485 C484 1.345 . S
C485 C486 1.424 . S
C486 H478 0.951 . S
C486 C485 1.424 . S
C486 C487 1.347 . S
C487 H479 0.951 . S
C487 C482 1.429 . S
C487 C486 1.347 . S
C129 N82 2.676 1_556 S
C144 N13 2.689 . S
C159 N114 2.596 . S
C174 N45 2.587 . S
C189 N77 1.089 1_554 S
C204 N18 1.085 . S
C219 N50 1.045 . S
C234 N109 1.067 . S
C249 C36 1.740 . S
C264 C6 1.769 . S
C279 C38 2.080 . S
C294 C66 2.056 . S
C309 C98 1.751 . S
C324 C93 1.764 . S
C339 C125 1.420 . S
C354 C4 1.480 . S
C369 C68 1.879 . S
C384 C102 1.847 . S
C399 C29 2.046 . S
C414 C100 2.007 . S
C429 C61 1.831 . S
C444 C2 1.885 . S
C459 C70 1.735 . S
C474 C34 1.682 . S
