# Generated by pormake.
# Topology rob, (6)-cn, num edge types: 1
# Building blocks:
#     Node 0, Type 0, BuildingBlock: BETFEN_clean_sbu_0, # of connection points: 6
#     Node 1, Type 0, BuildingBlock: BETFEN_clean_sbu_0, # of connection points: 6
#     Node 2, Type 0, BuildingBlock: BETFEN_clean_sbu_0, # of connection points: 6
#     Node 3, Type 0, BuildingBlock: BETFEN_clean_sbu_0, # of connection points: 6
#     Edge 4, Type (0, 0), BuildingBlock: KIFKEQ_clean_linker_1, # of connection points: 2
#     Edge 5, Type (0, 0), BuildingBlock: KIFKEQ_clean_linker_1, # of connection points: 2
#     Edge 6, Type (0, 0), BuildingBlock: KIFKEQ_clean_linker_1, # of connection points: 2
#     Edge 7, Type (0, 0), BuildingBlock: KIFKEQ_clean_linker_1, # of connection points: 2
#     Edge 8, Type (0, 0), BuildingBlock: KIFKEQ_clean_linker_1, # of connection points: 2
#     Edge 9, Type (0, 0), BuildingBlock: KIFKEQ_clean_linker_1, # of connection points: 2
#     Edge 10, Type (0, 0), BuildingBlock: KIFKEQ_clean_linker_1, # of connection points: 2
#     Edge 11, Type (0, 0), BuildingBlock: KIFKEQ_clean_linker_1, # of connection points: 2
#     Edge 12, Type (0, 0), BuildingBlock: KIFKEQ_clean_linker_1, # of connection points: 2
#     Edge 13, Type (0, 0), BuildingBlock: KIFKEQ_clean_linker_1, # of connection points: 2
#     Edge 14, Type (0, 0), BuildingBlock: KIFKEQ_clean_linker_1, # of connection points: 2
#     Edge 15, Type (0, 0), BuildingBlock: KIFKEQ_clean_linker_1, # of connection points: 2
# Relax obj value: 0.050
# Max RMSD: 0.162
# Mean RMSD: 0.162
data_MOF--net-rob--node1-BETFEN_clean_sbu_0--edge1-KIFKEQ_clean_linker_1
_symmetry_space_group_name_H-M    P1
_symmetry_Int_Tables_number       1
_symmetry_cell_setting            triclinic
loop_
_symmetry_equiv_pos_as_xyz
'x, y, z'
_cell_length_a     15.24955
_cell_length_b     25.087826
_cell_length_c     37.552374
_cell_angle_alpha  96.822874
_cell_angle_beta   89.904152
_cell_angle_gamma 89.897471
loop_
_atom_site_label
_atom_site_type_symbol
_atom_site_fract_x
_atom_site_fract_y
_atom_site_fract_z
_atom_type_partial_charge
Pr0 Pr 0.15221 0.30403 0.03621 0.0
Pr1 Pr 0.33116 0.26848 1.00578 0.0
C2 C 0.00533 0.31531 0.07648 0.0
C3 C -0.01126 0.31466 0.11507 0.0
C4 C 0.90354 0.30733 0.12751 0.0
C5 C 0.88826 0.30423 0.16398 0.0
C6 C 0.95817 0.308 0.18867 0.0
C7 C 0.04354 0.31573 0.17598 0.0
C8 C 0.05856 0.31919 0.13958 0.0
C9 C 0.26853 0.38775 0.02969 0.0
C10 C 0.31011 0.26723 0.09066 0.0
C11 C 0.48001 0.26147 0.96696 0.0
C12 C 0.50033 0.25676 0.92823 0.0
C13 C 0.45987 0.21777 0.9037 0.0
C14 C 0.47617 0.21606 0.8669 0.0
C15 C 0.53254 0.25364 0.85377 0.0
C16 C 0.57264 0.29267 0.87851 0.0
C17 C 0.55694 0.29404 0.91529 0.0
C18 C 0.21385 0.18443 1.01054 0.0
C19 C 0.17112 0.30202 0.95036 0.0
O20 O 0.02988 0.26955 0.05897 0.0
O21 O 0.0504 0.35602 0.06763 0.0
O22 O 0.28812 0.34414 0.04146 0.0
O23 O 0.18572 0.39002 0.02186 0.0
O24 O 0.3695 0.27453 0.06617 0.0
O25 O 0.22558 0.26807 0.08319 0.0
O26 O 0.4458 0.30725 0.98057 0.0
O27 O 0.44398 0.22 0.9793 0.0
O28 O 0.19498 0.22888 0.9999 0.0
O29 O 0.29704 0.18096 1.01756 0.0
O30 O 0.11208 0.29963 0.97592 0.0
O31 O 0.25586 0.29766 0.95687 0.0
H32 H 0.84885 0.30374 0.109 0.0
H33 H 0.8215 0.29916 0.17283 0.0
H34 H 0.09909 0.31812 0.19403 0.0
H35 H 0.12492 0.32495 0.13054 0.0
H36 H 0.41504 0.18883 0.91285 0.0
H37 H 0.44498 0.185 0.8488 0.0
H38 H 0.61506 0.32293 0.86947 0.0
H39 H 0.58793 0.32491 0.93365 0.0
Pr40 Pr 0.64154 0.81425 0.0349 0.0
Pr41 Pr 0.82778 0.76635 1.00224 0.0
C42 C 0.50082 0.83714 0.07732 0.0
C43 C 0.48065 0.83281 0.11541 0.0
C44 C 0.44591 0.87732 0.137 0.0
C45 C 0.43144 0.8754 0.17362 0.0
C46 C 0.45099 0.82872 0.18956 0.0
C47 C 0.48574 0.78406 0.16776 0.0
C48 C 0.50063 0.78613 0.13113 0.0
C49 C 0.77002 0.88783 0.0215 0.0
C50 C 0.7995 0.77026 0.08871 0.0
C51 C 0.97837 0.76354 0.96482 0.0
C52 C -0.00386 0.75319 0.92604 0.0
C53 C 0.08015 0.7611 0.91261 0.0
C54 C 0.09439 0.75764 0.87554 0.0
C55 C 0.02441 0.74714 0.85116 0.0
C56 C 0.94069 0.73765 0.86495 0.0
C57 C 0.92697 0.74026 0.90197 0.0
C58 C 0.70252 0.68412 1.00176 0.0
C59 C 0.66262 0.80015 0.94835 0.0
O60 O 0.50832 0.79238 0.05563 0.0
O61 O 0.5599 0.8729 0.07161 0.0
O62 O 0.78329 0.84481 0.03505 0.0
O63 O 0.68721 0.89491 1.01505 0.0
O64 O 0.85955 0.76597 0.06298 0.0
O65 O 0.71648 0.78259 0.083 0.0
O66 O 0.93487 0.80793 0.97465 0.0
O67 O 0.95064 0.72272 0.98056 0.0
O68 O 0.69297 0.73333 1.01184 0.0
O69 O 0.78288 0.67522 0.99099 0.0
O70 O 0.60329 0.80218 0.97428 0.0
O71 O 0.74746 0.79416 0.95433 0.0
H72 H 0.43111 0.91399 0.12559 0.0
H73 H 0.40613 0.91093 0.18954 0.0
H74 H 0.50069 0.7472 0.17887 0.0
H75 H 0.52853 0.75134 0.11522 0.0
H76 H 0.13439 0.77107 0.93077 0.0
H77 H 0.16025 0.76383 0.86607 0.0
H78 H 0.88487 0.73003 0.84731 0.0
H79 H 0.86159 0.73382 0.91187 0.0
Pr80 Pr 0.13817 0.74672 0.50132 0.0
Pr81 Pr 0.32632 0.79055 0.53502 0.0
C82 C -0.00601 0.73051 0.46017 0.0
C83 C 0.97669 0.73154 0.42168 0.0
C84 C 0.04454 0.72178 0.3964 0.0
C85 C 0.02898 0.72531 0.36007 0.0
C86 C 0.94504 0.73847 0.34825 0.0
C87 C 0.877 0.74753 0.37371 0.0
C88 C 0.89282 0.74425 0.41008 0.0
C89 C 0.26418 0.66967 0.51132 0.0
C90 C 0.29954 0.79005 0.44837 0.0
C91 C 0.47668 0.79118 0.57223 0.0
C92 C 0.49509 0.80219 0.61085 0.0
C93 C 0.5797 0.79524 0.62391 0.0
C94 C 0.59467 0.799 0.6609 0.0
C95 C 0.52488 0.80891 0.68555 0.0
C96 C 0.44053 0.81757 0.67215 0.0
C97 C 0.42603 0.8146 0.6352 0.0
C98 C 0.20093 0.87366 0.53889 0.0
C99 C 0.16074 0.7555 0.58796 0.0
O100 O 0.01227 0.77681 0.47849 0.0
O101 O 0.04413 0.69147 0.46848 0.0
O102 O 0.27956 0.71434 0.50013 0.0
O103 O 0.18066 0.66263 0.51626 0.0
O104 O 0.35862 0.79358 0.47441 0.0
O105 O 0.21634 0.77732 0.45346 0.0
O106 O 0.43061 0.74769 0.5632 0.0
O107 O 0.45124 0.83205 0.55598 0.0
O108 O 0.19185 0.82494 0.52752 0.0
O109 O 0.28165 0.88177 0.5492 0.0
O110 O 0.10138 0.75647 0.5623 0.0
O111 O 0.24586 0.75971 0.58184 0.0
H112 H 0.10995 0.71203 0.40482 0.0
H113 H 0.08319 0.7188 0.34138 0.0
H114 H 0.81124 0.7569 0.36552 0.0
H115 H 0.83965 0.75191 0.42919 0.0
H116 H 0.63382 0.78566 0.60552 0.0
H117 H 0.66091 0.79342 0.67013 0.0
H118 H 0.38491 0.82472 0.69004 0.0
H119 H 0.36017 0.82024 0.62556 0.0
Pr120 Pr 0.64932 0.25466 0.50528 0.0
Pr121 Pr 0.82769 0.29113 0.53489 0.0
C122 C 0.50189 0.24683 0.46569 0.0
C123 C 0.48289 0.2458 0.42697 0.0
C124 C 0.52829 0.21122 0.40101 0.0
C125 C 0.51218 0.21262 0.36442 0.0
C126 C 0.45097 0.24902 0.35289 0.0
C127 C 0.40627 0.28384 0.37908 0.0
C128 C 0.42183 0.28205 0.41563 0.0
C129 C 0.76528 0.17093 0.51293 0.0
C130 C 0.80944 0.28625 0.44933 0.0
C131 C 0.97363 0.30478 0.57541 0.0
C132 C -0.01063 0.30883 0.61436 0.0
C133 C 0.91892 0.31528 0.63865 0.0
C134 C 0.9336 0.31747 0.67558 0.0
C135 C 0.01922 0.31373 0.68897 0.0
C136 C 0.08962 0.30752 0.66446 0.0
C137 C 0.07474 0.30494 0.6275 0.0
C138 C 0.70919 0.3739 0.52772 0.0
C139 C 0.66942 0.25618 0.59021 0.0
O140 O 0.53097 0.29245 0.48181 0.0
O141 O 0.54182 0.20506 0.47603 0.0
O142 O 0.7853 0.21407 0.50065 0.0
O143 O 0.68202 0.16879 0.52029 0.0
O144 O 0.86861 0.28344 0.47466 0.0
O145 O 0.72474 0.28347 0.45631 0.0
O146 O 0.94766 0.25787 0.56024 0.0
O147 O 0.93057 0.34459 0.56409 0.0
O148 O 0.69157 0.33089 0.54046 0.0
O149 O 0.79121 0.37599 0.51854 0.0
O150 O 0.6098 0.2618 0.56555 0.0
O151 O 0.75399 0.25777 0.58279 0.0
H152 H 0.57668 0.18324 0.40889 0.0
H153 H 0.5472 0.18472 0.34524 0.0
H154 H 0.36007 0.31322 0.37142 0.0
H155 H 0.38691 0.30963 0.43511 0.0
H156 H 0.85248 0.31869 0.62909 0.0
H157 H 0.878 0.32278 0.69365 0.0
H158 H 0.15625 0.30375 0.6738 0.0
H159 H 0.12987 0.29963 0.60918 0.0
H160 H 0.53283 0.69542 0.02545 0.0
H161 H 0.7248 0.57659 0.98552 0.0
H162 H 0.42754 0.62416 0.03298 0.0
H163 H 0.61959 0.50537 0.9922 0.0
H164 H 0.23561 0.48384 1.00534 0.0
H165 H 0.33933 0.55584 0.99819 0.0
H166 H 0.54708 0.46278 0.03897 0.0
H167 H 0.44335 0.39048 0.04558 0.0
C168 C 0.5523 0.65411 1.0182 0.0
C169 C 0.63702 0.64159 1.00513 0.0
C170 C 0.49194 0.61323 0.02227 0.0
C171 C 0.51518 0.55892 1.01335 0.0
C172 C 0.59988 0.54663 0.99991 0.0
C173 C 0.66 0.58748 0.99582 0.0
C174 C 0.30344 0.47886 1.01282 0.0
C175 C 0.33144 0.43156 0.026 0.0
C176 C 0.3628 0.52024 1.00891 0.0
C177 C 0.45162 0.51518 1.01799 0.0
C178 C 0.47942 0.46777 0.03127 0.0
C179 C 0.41996 0.42644 0.03526 0.0
H180 H 0.44245 0.67669 0.50404 0.0
H181 H 0.23575 0.56685 0.52413 0.0
H182 H 0.55122 0.60687 0.50976 0.0
H183 H 0.34282 0.49585 0.52702 0.0
H184 H 0.55417 0.38951 0.56338 0.0
H185 H 0.4498 0.46239 0.56096 0.0
H186 H 0.61383 0.52832 0.48286 0.0
H187 H 0.72071 0.45704 0.48739 0.0
C188 C 0.42035 0.63753 0.50964 0.0
C189 C 0.33077 0.62748 0.5142 0.0
C190 C 0.48261 0.59712 0.51244 0.0
C191 C 0.45651 0.54526 0.51899 0.0
C192 C 0.36632 0.53534 0.52292 0.0
C193 C 0.30449 0.57603 0.52092 0.0
C194 C 0.56783 0.41979 0.54583 0.0
C195 C 0.64547 0.41778 0.52563 0.0
C196 C 0.5076 0.46149 0.54415 0.0
C197 C 0.52244 0.50159 0.52152 0.0
C198 C 0.60037 0.49907 0.50114 0.0
C199 C 0.66153 0.45793 0.50345 0.0
H200 H 0.03638 0.18854 1.00373 0.0
H201 H 0.24916 0.07959 1.01797 0.0
H202 H 0.93157 0.11617 1.00603 0.0
H203 H 0.14525 1.00583 1.01767 0.0
H204 H 0.93117 0.89638 0.053 0.0
H205 H 0.03885 0.96734 0.05011 0.0
H206 H 0.87229 0.03961 0.9758 0.0
H207 H 0.76272 0.97039 0.98078 0.0
C208 C 0.06072 0.14887 1.00709 0.0
C209 C 0.15081 0.13981 1.01099 0.0
C210 C 0.00065 0.107 1.00795 0.0
C211 C 0.02929 0.05458 1.01189 0.0
C212 C 0.12001 0.0456 1.01529 0.0
C213 C 0.17992 0.08782 1.01519 0.0
C214 C 0.91797 0.92748 0.03601 0.0
C215 C 0.83842 0.92823 1.01735 0.0
C216 C 0.98001 0.9681 0.0341 0.0
C217 C 0.96469 1.0099 1.01288 0.0
C218 C 0.88592 1.00922 0.99323 0.0
C219 C 0.82322 0.96922 0.99576 0.0
H220 H 0.93926 0.1668 0.49565 0.0
H221 H 0.73345 0.07644 0.53974 0.0
H222 H 0.04306 0.09454 0.50236 0.0
H223 H 0.8375 1.00458 0.54732 0.0
H224 H 0.02767 0.86306 0.52074 0.0
H225 H 0.92209 0.93453 0.51392 0.0
H226 H 0.12008 0.05294 0.54745 0.0
H227 H 0.22584 0.98133 0.55277 0.0
C228 C 0.91634 0.13151 0.50689 0.0
C229 C 0.82824 0.12717 0.51707 0.0
C230 C 0.97592 0.0902 0.51099 0.0
C231 C 0.94885 0.04361 0.52545 0.0
C232 C 0.86049 0.03946 0.53564 0.0
C233 C 0.8009 0.08077 0.53148 0.0
C234 C 0.04855 0.90432 0.52624 0.0
C235 C 0.13519 0.91656 0.53665 0.0
C236 C -0.0121 0.94539 0.52278 0.0
C237 C 0.01259 0.99968 0.52988 0.0
C238 C 0.09908 1.0117 0.54105 0.0
C239 C 0.15959 0.97064 0.5444 0.0
H240 H 0.56724 0.23388 0.29621 0.0
H241 H 0.29419 0.2676 0.32065 0.0
H242 H 0.53654 0.2339 0.23262 0.0
H243 H 0.26507 0.27186 0.25769 0.0
H244 H 0.21181 0.22559 0.14117 0.0
H245 H 0.24868 0.21866 0.20323 0.0
H246 H 0.50318 0.28789 0.1872 0.0
H247 H 0.46709 0.29251 0.12427 0.0
C248 C 0.50063 0.2413 0.28814 0.0
C249 C 0.43322 0.25048 0.31385 0.0
C250 C 0.48325 0.24214 0.25156 0.0
C251 C 0.39812 0.25266 0.23968 0.0
C252 C 0.33113 0.26251 0.26549 0.0
C253 C 0.34824 0.26102 0.30191 0.0
C254 C 0.27598 0.23897 0.15076 0.0
C255 C 0.33643 0.25977 0.12775 0.0
C256 C 0.29696 0.23545 0.18659 0.0
C257 C 0.3786 0.25342 0.2007 0.0
C258 C 0.43999 0.27312 0.17738 0.0
C259 C 0.41929 0.27597 0.14126 0.0
H260 H 0.31331 0.8729 0.2299 0.0
H261 H 0.54936 0.77949 0.23787 0.0
H262 H 0.28317 0.86851 0.29293 0.0
H263 H 0.5161 0.77229 0.30071 0.0
H264 H 0.46541 0.80658 0.42214 0.0
H265 H 0.50599 0.81921 0.36059 0.0
H266 H 0.23357 0.80463 0.32947 0.0
H267 H 0.19316 0.79463 0.39053 0.0
C268 C 0.35915 0.85156 0.24507 0.0
C269 C 0.4337 0.82642 0.22853 0.0
C270 C 0.34114 0.84839 0.28126 0.0
C271 C 0.39656 0.81949 0.302 0.0
C272 C 0.47213 0.79516 0.28571 0.0
C273 C 0.49052 0.79863 0.24947 0.0
C274 C 0.41425 0.80652 0.40217 0.0
C275 C 0.326 0.79925 0.41142 0.0
C276 C 0.43757 0.81334 0.36679 0.0
C277 C 0.37313 0.81309 0.33991 0.0
C278 C 0.28505 0.80605 0.34939 0.0
C279 C 0.26187 0.79959 0.38456 0.0
H280 H 0.49562 0.80326 0.9198 0.0
H281 H 0.77013 0.80841 0.89137 0.0
H282 H 0.45668 0.80605 0.85652 0.0
H283 H 0.73137 0.81022 0.82913 0.0
H284 H 0.63593 0.74384 0.71822 0.0
H285 H 0.66316 0.7434 0.78192 0.0
H286 H 0.47146 0.86915 0.80645 0.0
H287 H 0.44575 0.87117 0.74234 0.0
C288 C 0.5475 0.80511 0.90026 0.0
C289 C 0.63604 0.80472 0.91075 0.0
C290 C 0.52521 0.80679 0.8641 0.0
C291 C 0.5911 0.80758 0.83785 0.0
C292 C 0.67915 0.80852 0.84858 0.0
C293 C 0.70126 0.80742 0.88444 0.0
C294 C 0.6003 0.77209 0.73697 0.0
C295 C 0.53954 0.80812 0.72483 0.0
C296 C 0.61549 0.77147 0.77357 0.0
C297 C 0.56975 0.80643 0.79916 0.0
C298 C 0.50718 0.84148 0.78732 0.0
C299 C 0.49255 0.84254 0.75055 0.0
H300 H 0.51101 0.2801 0.62328 0.0
H301 H 0.77004 0.21916 0.6417 0.0
H302 H 0.47565 0.27863 0.68667 0.0
H303 H 0.73412 0.21566 0.70427 0.0
H304 H 0.68695 0.27428 0.82056 0.0
H305 H 0.71492 0.27404 0.757 0.0
H306 H 0.44708 0.2257 0.73378 0.0
H307 H 0.41731 0.22979 0.7978 0.0
C308 C 0.55978 0.26552 0.64072 0.0
C309 C 0.64345 0.25015 0.62752 0.0
C310 C 0.53954 0.26452 0.67707 0.0
C311 C 0.60234 0.24762 0.70087 0.0
C312 C 0.68477 0.23029 0.68712 0.0
C313 C 0.7052 0.23187 0.65105 0.0
C314 C 0.63347 0.26437 0.80204 0.0
C315 C 0.54977 0.25215 0.81453 0.0
C316 C 0.64994 0.26334 0.76538 0.0
C317 C 0.58353 0.24933 0.74001 0.0
C318 C 0.49971 0.2371 0.75244 0.0
C319 C 0.48296 0.23867 0.78923 0.0
H320 H 0.69258 0.77588 0.14732 0.0
H321 H 0.96274 0.74808 0.11503 0.0
H322 H 0.73152 0.76771 0.20889 0.0
H323 H 0.00202 0.74053 0.17748 0.0
H324 H 0.00951 0.6752 0.28913 0.0
H325 H 0.97896 0.68224 0.226 0.0
H326 H 0.813 0.81967 0.25693 0.0
H327 H 0.844 0.81308 0.3198 0.0
C328 C 0.76049 0.768 0.15325 0.0
C329 C 0.82458 0.76286 0.12603 0.0
C330 C 0.78287 0.76367 0.18877 0.0
C331 C 0.87003 0.75405 0.19821 0.0
C332 C 0.93417 0.74775 0.17102 0.0
C333 C 0.91171 0.75224 0.13527 0.0
C334 C 0.96729 0.7073 0.28245 0.0
C335 C 0.92854 0.74327 0.30964 0.0
C336 C 0.94983 0.7113 0.24625 0.0
C337 C 0.89298 0.75121 0.23644 0.0
C338 C 0.85572 0.78777 0.26359 0.0
C339 C 0.87332 0.7839 0.29968 0.0
H340 H 0.70254 0.28766 0.39143 0.0
H341 H 0.97606 0.29485 0.42182 0.0
H342 H 0.74302 0.29228 0.32951 0.0
H343 H 0.01678 0.29893 0.359 0.0
H344 H 0.03561 0.36482 0.24749 0.0
H345 H 0.00508 0.35891 0.31078 0.0
H346 H 0.8138 0.23505 0.28074 0.0
H347 H 0.84476 0.24041 0.21769 0.0
C348 C 0.77155 0.29025 0.38499 0.0
C349 C 0.83612 0.29079 0.41177 0.0
C350 C 0.79474 0.29251 0.34927 0.0
C351 C 0.88315 0.29547 0.3392 0.0
C352 C 0.94801 0.29691 0.36595 0.0
C353 C 0.92473 0.2944 0.4019 0.0
C354 C -0.01219 0.33584 0.25437 0.0
C355 C 0.94198 0.30348 0.22737 0.0
C356 C 0.97037 0.33248 0.29068 0.0
C357 C 0.90646 0.29687 0.30081 0.0
C358 C 0.86219 0.2637 0.27385 0.0
C359 C 0.87977 0.2669 0.23765 0.0
H360 H 0.14919 0.36777 0.72814 0.0
H361 H 0.92527 0.26572 0.73892 0.0
H362 H 0.18039 0.36875 0.79174 0.0
H363 H 0.95704 0.26619 0.8027 0.0
H364 H 0.00429 0.31297 0.92369 0.0
H365 H 0.9627 0.31949 0.86135 0.0
H366 H 0.23556 0.30734 0.83018 0.0
H367 H 0.27693 0.30222 0.89184 0.0
C368 C 0.10689 0.34525 0.74406 0.0
C369 C 0.03536 0.31618 0.72828 0.0
C370 C 0.12474 0.3458 0.78059 0.0
C371 C 0.07186 0.31705 0.8024 0.0
C372 C -0.00126 0.28918 0.78686 0.0
C373 C 0.98064 0.28881 0.75024 0.0
C374 C 0.05527 0.31208 0.90351 0.0
C375 C 0.14394 0.30735 0.91294 0.0
C376 C 0.03144 0.31549 0.86774 0.0
C377 C 0.09578 0.31429 0.84067 0.0
C378 C 0.18424 0.30956 0.85029 0.0
C379 C 0.20795 0.30627 0.88582 0.0
H380 H 0.26785 0.74512 0.64465 0.0
H381 H -0.00649 0.75356 0.61679 0.0
H382 H 0.22892 0.74348 0.70694 0.0
H383 H 0.95445 0.7508 0.68014 0.0
H384 H 0.9449 0.68471 0.79467 0.0
H385 H 0.96969 0.68649 0.73045 0.0
H386 H 0.16064 0.81232 0.75404 0.0
H387 H 0.13407 0.81233 0.81786 0.0
C388 C 0.19897 0.74672 0.65168 0.0
C389 C 0.13387 0.75037 0.62552 0.0
C390 C 0.17679 0.74575 0.68759 0.0
C391 C 0.08878 0.7477 0.69851 0.0
C392 C 0.02295 0.74929 0.67241 0.0
C393 C 0.04532 0.75093 0.6362 0.0
C394 C -0.00875 0.71337 0.78626 0.0
C395 C 0.03826 0.74793 0.81177 0.0
C396 C 0.00537 0.71427 0.74941 0.0
C397 C 0.06754 0.74922 0.73727 0.0
C398 C 0.11324 0.78434 0.76263 0.0
C399 C 0.09846 0.78396 0.79931 0.0
loop_
_geom_bond_atom_site_label_1
_geom_bond_atom_site_label_2
_geom_bond_distance
_geom_bond_site_symmetry_2
_ccdc_geom_bond_type
Pr0 C2 2.880 . S
Pr0 O20 2.562 . S
Pr0 O21 2.490 . S
Pr0 O22 2.695 1_554 S
Pr0 O23 2.512 . S
Pr0 O25 2.437 . S
Pr0 O28 2.436 . S
Pr0 O30 2.438 1_554 S
Pr1 C11 2.880 . S
Pr1 O22 2.436 . S
Pr1 O24 2.438 1_556 S
Pr1 O26 2.562 . S
Pr1 O27 2.490 . S
Pr1 O28 2.695 1_556 S
Pr1 O29 2.512 . S
Pr1 O31 2.437 . S
C2 Pr0 2.880 . S
C2 C3 1.491 . S
C2 O20 1.254 . S
C2 O21 1.225 . S
C3 C2 1.491 . S
C3 C4 1.392 . S
C3 C8 1.356 . S
C4 C3 1.392 . S
C4 C5 1.368 . S
C4 H32 0.929 . S
C5 C4 1.368 . S
C5 C6 1.386 1_455 S
C5 H33 0.929 1_455 S
C6 C5 1.386 1_655 S
C6 C7 1.373 1_655 S
C7 C6 1.373 1_455 S
C7 C8 1.409 . S
C7 H34 0.931 . S
C8 C3 1.356 . S
C8 C7 1.409 . S
C8 H35 0.930 . S
C9 O22 1.270 1_554 S
C9 O23 1.248 . S
C10 O24 1.267 . S
C10 O25 1.278 . S
C11 Pr1 2.880 . S
C11 C12 1.491 . S
C11 O26 1.254 . S
C11 O27 1.225 . S
C12 C11 1.491 . S
C12 C13 1.392 . S
C12 C17 1.356 . S
C13 C12 1.392 . S
C13 C14 1.368 . S
C13 H36 0.929 . S
C14 C13 1.368 . S
C14 C15 1.386 . S
C14 H37 0.929 . S
C15 C14 1.386 . S
C15 C16 1.373 . S
C16 C15 1.373 . S
C16 C17 1.409 . S
C16 H38 0.931 . S
C17 C12 1.356 . S
C17 C16 1.409 . S
C17 H39 0.930 . S
C18 O28 1.270 1_556 S
C18 O29 1.248 . S
C19 O30 1.267 . S
C19 O31 1.278 . S
O20 Pr0 2.562 . S
O20 C2 1.254 . S
O21 Pr0 2.490 . S
O21 C2 1.225 . S
O22 Pr0 2.695 1_556 S
O22 Pr1 2.436 . S
O22 C9 1.270 1_556 S
O23 Pr0 2.512 . S
O23 C9 1.248 . S
O24 Pr1 2.438 1_554 S
O24 C10 1.267 . S
O25 Pr0 2.437 . S
O25 C10 1.278 . S
O26 Pr1 2.562 . S
O26 C11 1.254 . S
O27 Pr1 2.490 . S
O27 C11 1.225 . S
O28 Pr0 2.436 . S
O28 Pr1 2.695 1_554 S
O28 C18 1.270 1_554 S
O29 Pr1 2.512 . S
O29 C18 1.248 . S
O30 Pr0 2.438 1_556 S
O30 C19 1.267 . S
O31 Pr1 2.437 . S
O31 C19 1.278 . S
H32 C4 0.929 . S
H33 C5 0.929 1_655 S
H34 C7 0.931 . S
H35 C8 0.930 . S
H36 C13 0.929 . S
H37 C14 0.929 . S
H38 C16 0.931 . S
H39 C17 0.930 . S
Pr40 C42 2.880 . S
Pr40 O60 2.562 . S
Pr40 O61 2.490 . S
Pr40 O62 2.695 1_554 S
Pr40 O63 2.512 . S
Pr40 O65 2.437 . S
Pr40 O68 2.436 . S
Pr40 O70 2.438 1_554 S
Pr41 C51 2.880 . S
Pr41 O62 2.436 . S
Pr41 O64 2.438 1_556 S
Pr41 O66 2.562 . S
Pr41 O67 2.490 . S
Pr41 O68 2.695 1_556 S
Pr41 O69 2.512 . S
Pr41 O71 2.437 . S
C42 Pr40 2.880 . S
C42 C43 1.491 . S
C42 O60 1.254 . S
C42 O61 1.225 . S
C43 C42 1.491 . S
C43 C44 1.392 . S
C43 C48 1.356 . S
C44 C43 1.392 . S
C44 C45 1.368 . S
C44 H72 0.929 . S
C45 C44 1.368 . S
C45 C46 1.386 . S
C45 H73 0.929 . S
C46 C45 1.386 . S
C46 C47 1.373 . S
C47 C46 1.373 . S
C47 C48 1.409 . S
C47 H74 0.931 . S
C48 C43 1.356 . S
C48 C47 1.409 . S
C48 H75 0.930 . S
C49 O62 1.270 1_554 S
C49 O63 1.248 . S
C50 O64 1.267 . S
C50 O65 1.278 . S
C51 Pr41 2.880 . S
C51 C52 1.491 . S
C51 O66 1.254 . S
C51 O67 1.225 . S
C52 C51 1.491 . S
C52 C53 1.392 . S
C52 C57 1.356 . S
C53 C52 1.392 . S
C53 C54 1.368 . S
C53 H76 0.929 . S
C54 C53 1.368 . S
C54 C55 1.386 1_655 S
C54 H77 0.929 1_655 S
C55 C54 1.386 1_455 S
C55 C56 1.373 1_455 S
C56 C55 1.373 1_655 S
C56 C57 1.409 . S
C56 H78 0.931 . S
C57 C52 1.356 . S
C57 C56 1.409 . S
C57 H79 0.930 . S
C58 O68 1.270 1_556 S
C58 O69 1.248 . S
C59 O70 1.267 . S
C59 O71 1.278 . S
O60 Pr40 2.562 . S
O60 C42 1.254 . S
O61 Pr40 2.490 . S
O61 C42 1.225 . S
O62 Pr40 2.695 1_556 S
O62 Pr41 2.436 . S
O62 C49 1.270 1_556 S
O63 Pr40 2.512 . S
O63 C49 1.248 . S
O64 Pr41 2.438 1_554 S
O64 C50 1.267 . S
O65 Pr40 2.437 . S
O65 C50 1.278 . S
O66 Pr41 2.562 . S
O66 C51 1.254 . S
O67 Pr41 2.490 . S
O67 C51 1.225 . S
O68 Pr40 2.436 . S
O68 Pr41 2.695 1_554 S
O68 C58 1.270 1_554 S
O69 Pr41 2.512 . S
O69 C58 1.248 . S
O70 Pr40 2.438 1_556 S
O70 C59 1.267 . S
O71 Pr41 2.437 . S
O71 C59 1.278 . S
H72 C44 0.929 . S
H73 C45 0.929 . S
H74 C47 0.931 . S
H75 C48 0.930 . S
H76 C53 0.929 . S
H77 C54 0.929 1_455 S
H78 C56 0.931 . S
H79 C57 0.930 . S
Pr80 C82 2.880 . S
Pr80 O100 2.562 . S
Pr80 O101 2.490 . S
Pr80 O102 2.695 . S
Pr80 O103 2.512 . S
Pr80 O105 2.437 . S
Pr80 O108 2.436 . S
Pr80 O110 2.438 . S
Pr81 C91 2.880 . S
Pr81 O102 2.436 . S
Pr81 O104 2.438 . S
Pr81 O106 2.562 . S
Pr81 O107 2.490 . S
Pr81 O108 2.695 . S
Pr81 O109 2.512 . S
Pr81 O111 2.437 . S
C82 Pr80 2.880 . S
C82 C83 1.491 . S
C82 O100 1.254 . S
C82 O101 1.225 . S
C83 C82 1.491 . S
C83 C84 1.392 . S
C83 C88 1.356 . S
C84 C83 1.392 . S
C84 C85 1.368 . S
C84 H112 0.929 . S
C85 C84 1.368 . S
C85 C86 1.386 1_455 S
C85 H113 0.929 1_455 S
C86 C85 1.386 1_655 S
C86 C87 1.373 1_655 S
C87 C86 1.373 1_455 S
C87 C88 1.409 . S
C87 H114 0.931 . S
C88 C83 1.356 . S
C88 C87 1.409 . S
C88 H115 0.930 . S
C89 O102 1.270 . S
C89 O103 1.248 . S
C90 O104 1.267 . S
C90 O105 1.278 . S
C91 Pr81 2.880 . S
C91 C92 1.491 . S
C91 O106 1.254 . S
C91 O107 1.225 . S
C92 C91 1.491 . S
C92 C93 1.392 . S
C92 C97 1.356 . S
C93 C92 1.392 . S
C93 C94 1.368 . S
C93 H116 0.929 . S
C94 C93 1.368 . S
C94 C95 1.386 . S
C94 H117 0.929 . S
C95 C94 1.386 . S
C95 C96 1.373 . S
C96 C95 1.373 . S
C96 C97 1.409 . S
C96 H118 0.931 . S
C97 C92 1.356 . S
C97 C96 1.409 . S
C97 H119 0.930 . S
C98 O108 1.270 . S
C98 O109 1.248 . S
C99 O110 1.267 . S
C99 O111 1.278 . S
O100 Pr80 2.562 . S
O100 C82 1.254 . S
O101 Pr80 2.490 . S
O101 C82 1.225 . S
O102 Pr80 2.695 . S
O102 Pr81 2.436 . S
O102 C89 1.270 . S
O103 Pr80 2.512 . S
O103 C89 1.248 . S
O104 Pr81 2.438 . S
O104 C90 1.267 . S
O105 Pr80 2.437 . S
O105 C90 1.278 . S
O106 Pr81 2.562 . S
O106 C91 1.254 . S
O107 Pr81 2.490 . S
O107 C91 1.225 . S
O108 Pr80 2.436 . S
O108 Pr81 2.695 . S
O108 C98 1.270 . S
O109 Pr81 2.512 . S
O109 C98 1.248 . S
O110 Pr80 2.438 . S
O110 C99 1.267 . S
O111 Pr81 2.437 . S
O111 C99 1.278 . S
H112 C84 0.929 . S
H113 C85 0.929 1_655 S
H114 C87 0.931 . S
H115 C88 0.930 . S
H116 C93 0.929 . S
H117 C94 0.929 . S
H118 C96 0.931 . S
H119 C97 0.930 . S
Pr120 C122 2.880 . S
Pr120 O140 2.562 . S
Pr120 O141 2.490 . S
Pr120 O142 2.695 . S
Pr120 O143 2.512 . S
Pr120 O145 2.437 . S
Pr120 O148 2.436 . S
Pr120 O150 2.438 . S
Pr121 C131 2.880 . S
Pr121 O142 2.436 . S
Pr121 O144 2.438 . S
Pr121 O146 2.562 . S
Pr121 O147 2.490 . S
Pr121 O148 2.695 . S
Pr121 O149 2.512 . S
Pr121 O151 2.437 . S
C122 Pr120 2.880 . S
C122 C123 1.491 . S
C122 O140 1.254 . S
C122 O141 1.225 . S
C123 C122 1.491 . S
C123 C124 1.392 . S
C123 C128 1.356 . S
C124 C123 1.392 . S
C124 C125 1.368 . S
C124 H152 0.929 . S
C125 C124 1.368 . S
C125 C126 1.386 . S
C125 H153 0.929 . S
C126 C125 1.386 . S
C126 C127 1.373 . S
C127 C126 1.373 . S
C127 C128 1.409 . S
C127 H154 0.931 . S
C128 C123 1.356 . S
C128 C127 1.409 . S
C128 H155 0.930 . S
C129 O142 1.270 . S
C129 O143 1.248 . S
C130 O144 1.267 . S
C130 O145 1.278 . S
C131 Pr121 2.880 . S
C131 C132 1.491 . S
C131 O146 1.254 . S
C131 O147 1.225 . S
C132 C131 1.491 . S
C132 C133 1.392 . S
C132 C137 1.356 . S
C133 C132 1.392 . S
C133 C134 1.368 . S
C133 H156 0.929 . S
C134 C133 1.368 . S
C134 C135 1.386 1_655 S
C134 H157 0.929 1_655 S
C135 C134 1.386 1_455 S
C135 C136 1.373 1_455 S
C136 C135 1.373 1_655 S
C136 C137 1.409 . S
C136 H158 0.931 . S
C137 C132 1.356 . S
C137 C136 1.409 . S
C137 H159 0.930 . S
C138 O148 1.270 . S
C138 O149 1.248 . S
C139 O150 1.267 . S
C139 O151 1.278 . S
O140 Pr120 2.562 . S
O140 C122 1.254 . S
O141 Pr120 2.490 . S
O141 C122 1.225 . S
O142 Pr120 2.695 . S
O142 Pr121 2.436 . S
O142 C129 1.270 . S
O143 Pr120 2.512 . S
O143 C129 1.248 . S
O144 Pr121 2.438 . S
O144 C130 1.267 . S
O145 Pr120 2.437 . S
O145 C130 1.278 . S
O146 Pr121 2.562 . S
O146 C131 1.254 . S
O147 Pr121 2.490 . S
O147 C131 1.225 . S
O148 Pr120 2.436 . S
O148 Pr121 2.695 . S
O148 C138 1.270 . S
O149 Pr121 2.512 . S
O149 C138 1.248 . S
O150 Pr120 2.438 . S
O150 C139 1.267 . S
O151 Pr121 2.437 . S
O151 C139 1.278 . S
H152 C124 0.929 . S
H153 C125 0.929 . S
H154 C127 0.931 . S
H155 C128 0.930 . S
H156 C133 0.929 . S
H157 C134 0.929 1_455 S
H158 C136 0.931 . S
H159 C137 0.930 . S
H160 C168 0.950 . S
H161 C173 0.950 . S
H162 C170 0.950 . S
H163 C172 0.950 . S
H164 C174 0.950 . S
H165 C176 0.950 . S
H166 C178 0.950 . S
H167 C179 0.950 . S
C168 H160 0.950 . S
C168 C169 1.389 1_554 S
C168 C170 1.391 . S
C169 C168 1.389 1_556 S
C169 C173 1.390 . S
C170 H162 0.950 . S
C170 C168 1.391 . S
C170 C171 1.402 . S
C171 C170 1.402 . S
C171 C172 1.397 1_554 S
C171 C177 1.491 . S
C172 H163 0.950 . S
C172 C171 1.397 1_556 S
C172 C173 1.391 . S
C173 H161 0.950 . S
C173 C169 1.390 . S
C173 C172 1.391 . S
C174 H164 0.950 . S
C174 C175 1.382 1_556 S
C174 C176 1.391 . S
C175 C174 1.382 1_554 S
C175 C179 1.396 . S
C176 H165 0.950 . S
C176 C174 1.391 . S
C176 C177 1.401 1_556 S
C177 C171 1.491 . S
C177 C176 1.401 1_554 S
C177 C178 1.397 . S
C178 H166 0.950 . S
C178 C177 1.397 . S
C178 C179 1.391 . S
C179 H167 0.950 . S
C179 C175 1.396 . S
C179 C178 1.391 . S
H180 C188 0.950 . S
H181 C193 0.950 . S
H182 C190 0.950 . S
H183 C192 0.950 . S
H184 C194 0.950 . S
H185 C196 0.950 . S
H186 C198 0.950 . S
H187 C199 0.950 . S
C188 H180 0.950 . S
C188 C189 1.386 . S
C188 C190 1.391 . S
C189 C188 1.386 . S
C189 C193 1.393 . S
C190 H182 0.950 . S
C190 C188 1.391 . S
C190 C191 1.400 . S
C191 C190 1.400 . S
C191 C192 1.398 . S
C191 C197 1.491 . S
C192 H183 0.950 . S
C192 C191 1.398 . S
C192 C193 1.391 . S
C193 H181 0.950 . S
C193 C189 1.393 . S
C193 C192 1.391 . S
C194 H184 0.950 . S
C194 C195 1.386 . S
C194 C196 1.391 . S
C195 C194 1.386 . S
C195 C199 1.393 . S
C196 H185 0.950 . S
C196 C194 1.391 . S
C196 C197 1.400 . S
C197 C191 1.491 . S
C197 C196 1.400 . S
C197 C198 1.398 . S
C198 H186 0.950 . S
C198 C197 1.398 . S
C198 C199 1.391 . S
C199 H187 0.950 . S
C199 C195 1.393 . S
C199 C198 1.391 . S
H200 C208 0.950 . S
H201 C213 0.949 . S
H202 C210 0.950 . S
H203 C212 0.950 1_565 S
H204 C214 0.950 . S
H205 C216 0.950 . S
H206 C218 0.950 1_545 S
H207 C219 0.951 . S
C208 H200 0.950 . S
C208 C209 1.386 . S
C208 C210 1.391 1_455 S
C209 C208 1.386 . S
C209 C213 1.397 . S
C210 H202 0.950 . S
C210 C208 1.391 1_655 S
C210 C211 1.403 1_655 S
C211 C210 1.403 1_455 S
C211 C212 1.399 . S
C211 C217 1.486 1_446 S
C212 H203 0.950 1_545 S
C212 C211 1.399 . S
C212 C213 1.389 . S
C213 H201 0.949 . S
C213 C209 1.397 . S
C213 C212 1.389 . S
C214 H204 0.950 . S
C214 C215 1.386 . S
C214 C216 1.391 1_655 S
C215 C214 1.386 . S
C215 C219 1.393 . S
C216 H205 0.950 . S
C216 C214 1.391 1_455 S
C216 C217 1.404 1_455 S
C217 C211 1.486 1_664 S
C217 C216 1.404 1_655 S
C217 C218 1.399 . S
C218 H206 0.950 1_565 S
C218 C217 1.399 . S
C218 C219 1.391 . S
C219 H207 0.951 . S
C219 C215 1.393 . S
C219 C218 1.391 . S
H220 C228 0.950 . S
H221 C233 0.950 . S
H222 C230 0.950 1_455 S
H223 C232 0.950 1_565 S
H224 C234 0.950 . S
H225 C236 0.950 1_655 S
H226 C238 0.950 1_545 S
H227 C239 0.950 . S
C228 H220 0.950 . S
C228 C229 1.386 . S
C228 C230 1.391 . S
C229 C228 1.386 . S
C229 C233 1.393 . S
C230 H222 0.950 1_655 S
C230 C228 1.391 . S
C230 C231 1.400 . S
C231 C230 1.400 . S
C231 C232 1.398 . S
C231 C237 1.491 1_645 S
C232 H223 0.950 1_545 S
C232 C231 1.398 . S
C232 C233 1.391 . S
C233 H221 0.950 . S
C233 C229 1.393 . S
C233 C232 1.391 . S
C234 H224 0.950 . S
C234 C235 1.386 . S
C234 C236 1.391 . S
C235 C234 1.386 . S
C235 C239 1.393 . S
C236 H225 0.950 1_455 S
C236 C234 1.391 . S
C236 C237 1.400 . S
C237 C231 1.491 1_465 S
C237 C236 1.400 . S
C237 C238 1.398 . S
C238 H226 0.950 1_565 S
C238 C237 1.398 . S
C238 C239 1.391 . S
C239 H227 0.950 . S
C239 C235 1.393 . S
C239 C238 1.391 . S
H240 C248 0.950 . S
H241 C253 0.950 . S
H242 C250 0.950 . S
H243 C252 0.950 . S
H244 C254 0.950 . S
H245 C256 0.950 . S
H246 C258 0.950 . S
H247 C259 0.950 . S
C248 H240 0.950 . S
C248 C249 1.386 . S
C248 C250 1.391 . S
C249 C248 1.386 . S
C249 C253 1.393 . S
C250 H242 0.950 . S
C250 C248 1.391 . S
C250 C251 1.400 . S
C251 C250 1.400 . S
C251 C252 1.398 . S
C251 C257 1.491 . S
C252 H243 0.950 . S
C252 C251 1.398 . S
C252 C253 1.391 . S
C253 H241 0.950 . S
C253 C249 1.393 . S
C253 C252 1.391 . S
C254 H244 0.950 . S
C254 C255 1.386 . S
C254 C256 1.391 . S
C255 C254 1.386 . S
C255 C259 1.393 . S
C256 H245 0.950 . S
C256 C254 1.391 . S
C256 C257 1.400 . S
C257 C251 1.491 . S
C257 C256 1.400 . S
C257 C258 1.398 . S
C258 H246 0.950 . S
C258 C257 1.398 . S
C258 C259 1.391 . S
C259 H247 0.950 . S
C259 C255 1.393 . S
C259 C258 1.391 . S
H260 C268 0.950 . S
H261 C273 0.950 . S
H262 C270 0.950 . S
H263 C272 0.950 . S
H264 C274 0.950 . S
H265 C276 0.950 . S
H266 C278 0.950 . S
H267 C279 0.950 . S
C268 H260 0.950 . S
C268 C269 1.386 . S
C268 C270 1.391 . S
C269 C268 1.386 . S
C269 C273 1.393 . S
C270 H262 0.950 . S
C270 C268 1.391 . S
C270 C271 1.400 . S
C271 C270 1.400 . S
C271 C272 1.398 . S
C271 C277 1.491 . S
C272 H263 0.950 . S
C272 C271 1.398 . S
C272 C273 1.391 . S
C273 H261 0.950 . S
C273 C269 1.393 . S
C273 C272 1.391 . S
C274 H264 0.950 . S
C274 C275 1.386 . S
C274 C276 1.391 . S
C275 C274 1.386 . S
C275 C279 1.393 . S
C276 H265 0.950 . S
C276 C274 1.391 . S
C276 C277 1.400 . S
C277 C271 1.491 . S
C277 C276 1.400 . S
C277 C278 1.398 . S
C278 H266 0.950 . S
C278 C277 1.398 . S
C278 C279 1.391 . S
C279 H267 0.950 . S
C279 C275 1.393 . S
C279 C278 1.391 . S
H280 C288 0.950 . S
H281 C293 0.950 . S
H282 C290 0.950 . S
H283 C292 0.950 . S
H284 C294 0.950 . S
H285 C296 0.950 . S
H286 C298 0.950 . S
H287 C299 0.950 . S
C288 H280 0.950 . S
C288 C289 1.386 . S
C288 C290 1.391 . S
C289 C288 1.386 . S
C289 C293 1.393 . S
C290 H282 0.950 . S
C290 C288 1.391 . S
C290 C291 1.400 . S
C291 C290 1.400 . S
C291 C292 1.398 . S
C291 C297 1.491 . S
C292 H283 0.950 . S
C292 C291 1.398 . S
C292 C293 1.391 . S
C293 H281 0.950 . S
C293 C289 1.393 . S
C293 C292 1.391 . S
C294 H284 0.950 . S
C294 C295 1.386 . S
C294 C296 1.391 . S
C295 C294 1.386 . S
C295 C299 1.393 . S
C296 H285 0.950 . S
C296 C294 1.391 . S
C296 C297 1.400 . S
C297 C291 1.491 . S
C297 C296 1.400 . S
C297 C298 1.398 . S
C298 H286 0.950 . S
C298 C297 1.398 . S
C298 C299 1.391 . S
C299 H287 0.950 . S
C299 C295 1.393 . S
C299 C298 1.391 . S
H300 C308 0.950 . S
H301 C313 0.950 . S
H302 C310 0.950 . S
H303 C312 0.950 . S
H304 C314 0.950 . S
H305 C316 0.950 . S
H306 C318 0.950 . S
H307 C319 0.950 . S
C308 H300 0.950 . S
C308 C309 1.386 . S
C308 C310 1.391 . S
C309 C308 1.386 . S
C309 C313 1.393 . S
C310 H302 0.950 . S
C310 C308 1.391 . S
C310 C311 1.400 . S
C311 C310 1.400 . S
C311 C312 1.398 . S
C311 C317 1.491 . S
C312 H303 0.950 . S
C312 C311 1.398 . S
C312 C313 1.391 . S
C313 H301 0.950 . S
C313 C309 1.393 . S
C313 C312 1.391 . S
C314 H304 0.950 . S
C314 C315 1.386 . S
C314 C316 1.391 . S
C315 C314 1.386 . S
C315 C319 1.393 . S
C316 H305 0.950 . S
C316 C314 1.391 . S
C316 C317 1.400 . S
C317 C311 1.491 . S
C317 C316 1.400 . S
C317 C318 1.398 . S
C318 H306 0.950 . S
C318 C317 1.398 . S
C318 C319 1.391 . S
C319 H307 0.950 . S
C319 C315 1.393 . S
C319 C318 1.391 . S
H320 C328 0.950 . S
H321 C333 0.950 . S
H322 C330 0.950 . S
H323 C332 0.950 . S
H324 C334 0.950 . S
H325 C336 0.950 . S
H326 C338 0.950 . S
H327 C339 0.950 1_455 S
C328 H320 0.950 . S
C328 C329 1.386 . S
C328 C330 1.391 . S
C329 C328 1.386 . S
C329 C333 1.393 . S
C330 H322 0.950 . S
C330 C328 1.391 . S
C330 C331 1.400 . S
C331 C330 1.400 . S
C331 C332 1.398 . S
C331 C337 1.491 . S
C332 H323 0.950 . S
C332 C331 1.398 . S
C332 C333 1.391 . S
C333 H321 0.950 . S
C333 C329 1.393 . S
C333 C332 1.391 . S
C334 H324 0.950 . S
C334 C335 1.386 . S
C334 C336 1.391 . S
C335 C334 1.386 . S
C335 C339 1.393 . S
C336 H325 0.950 . S
C336 C334 1.391 . S
C336 C337 1.400 . S
C337 C331 1.491 . S
C337 C336 1.400 . S
C337 C338 1.398 . S
C338 H326 0.950 . S
C338 C337 1.398 . S
C338 C339 1.391 . S
C339 H327 0.950 1_655 S
C339 C335 1.393 . S
C339 C338 1.391 . S
H340 C348 0.950 . S
H341 C353 0.950 . S
H342 C350 0.950 . S
H343 C352 0.950 . S
H344 C354 0.950 . S
H345 C356 0.950 1_455 S
H346 C358 0.950 . S
H347 C359 0.950 . S
C348 H340 0.950 . S
C348 C349 1.386 . S
C348 C350 1.391 . S
C349 C348 1.386 . S
C349 C353 1.393 . S
C350 H342 0.950 . S
C350 C348 1.391 . S
C350 C351 1.400 . S
C351 C350 1.400 . S
C351 C352 1.398 . S
C351 C357 1.491 . S
C352 H343 0.950 . S
C352 C351 1.398 . S
C352 C353 1.391 . S
C353 H341 0.950 . S
C353 C349 1.393 . S
C353 C352 1.391 . S
C354 H344 0.950 . S
C354 C355 1.386 1_455 S
C354 C356 1.391 1_455 S
C355 C354 1.386 1_655 S
C355 C359 1.393 . S
C356 H345 0.950 1_655 S
C356 C354 1.391 1_655 S
C356 C357 1.400 . S
C357 C351 1.491 . S
C357 C356 1.400 . S
C357 C358 1.398 . S
C358 H346 0.950 . S
C358 C357 1.398 . S
C358 C359 1.391 . S
C359 H347 0.950 . S
C359 C355 1.393 . S
C359 C358 1.391 . S
H360 C368 0.950 . S
H361 C373 0.950 . S
H362 C370 0.950 . S
H363 C372 0.950 1_655 S
H364 C374 0.950 . S
H365 C376 0.950 1_655 S
H366 C378 0.950 . S
H367 C379 0.950 . S
C368 H360 0.950 . S
C368 C369 1.386 . S
C368 C370 1.391 . S
C369 C368 1.386 . S
C369 C373 1.393 1_455 S
C370 H362 0.950 . S
C370 C368 1.391 . S
C370 C371 1.400 . S
C371 C370 1.400 . S
C371 C372 1.398 . S
C371 C377 1.491 . S
C372 H363 0.950 1_455 S
C372 C371 1.398 . S
C372 C373 1.391 1_455 S
C373 H361 0.950 . S
C373 C369 1.393 1_655 S
C373 C372 1.391 1_655 S
C374 H364 0.950 . S
C374 C375 1.386 . S
C374 C376 1.391 . S
C375 C374 1.386 . S
C375 C379 1.393 . S
C376 H365 0.950 1_455 S
C376 C374 1.391 . S
C376 C377 1.400 . S
C377 C371 1.491 . S
C377 C376 1.400 . S
C377 C378 1.398 . S
C378 H366 0.950 . S
C378 C377 1.398 . S
C378 C379 1.391 . S
C379 H367 0.950 . S
C379 C375 1.393 . S
C379 C378 1.391 . S
H380 C388 0.950 . S
H381 C393 0.950 . S
H382 C390 0.950 . S
H383 C392 0.950 . S
H384 C394 0.950 . S
H385 C396 0.950 1_655 S
H386 C398 0.950 . S
H387 C399 0.950 . S
C388 H380 0.950 . S
C388 C389 1.386 . S
C388 C390 1.391 . S
C389 C388 1.386 . S
C389 C393 1.393 . S
C390 H382 0.950 . S
C390 C388 1.391 . S
C390 C391 1.400 . S
C391 C390 1.400 . S
C391 C392 1.398 . S
C391 C397 1.491 . S
C392 H383 0.950 . S
C392 C391 1.398 . S
C392 C393 1.391 . S
C393 H381 0.950 . S
C393 C389 1.393 . S
C393 C392 1.391 . S
C394 H384 0.950 . S
C394 C395 1.386 1_655 S
C394 C396 1.391 1_655 S
C395 C394 1.386 1_455 S
C395 C399 1.393 . S
C396 H385 0.950 1_455 S
C396 C394 1.391 1_455 S
C396 C397 1.400 . S
C397 C391 1.491 . S
C397 C396 1.400 . S
C397 C398 1.398 . S
C398 H386 0.950 . S
C398 C397 1.398 . S
C398 C399 1.391 . S
C399 H387 0.950 . S
C399 C395 1.393 . S
C399 C398 1.391 . S
C169 C58 1.521 . S
C175 C9 1.522 . S
C189 C89 1.523 . S
C195 C138 1.523 . S
C209 C18 1.508 . S
C215 C49 1.508 . S
C229 C129 1.512 . S
C235 C98 1.512 . S
C249 C126 1.275 . S
C255 C10 1.268 . S
C269 C46 1.262 . S
C275 C90 1.277 . S
C289 C59 1.278 . S
C295 C95 1.269 . S
C309 C139 1.278 . S
C315 C15 1.260 . S
C329 C50 1.272 . S
C335 C86 1.260 . S
C349 C130 1.278 . S
C355 C6 1.264 . S
C369 C135 1.275 . S
C375 C19 1.273 . S
C389 C99 1.270 . S
C395 C55 1.270 . S
