# Generated by pormake.
# Topology qtz-e, (6)-cn, num edge types: 1
# Building blocks:
#     Node 0, Type 0, BuildingBlock: BETGAK_clean_sbu_0, # of connection points: 6
#     Node 1, Type 0, BuildingBlock: BETGAK_clean_sbu_0, # of connection points: 6
#     Node 2, Type 0, BuildingBlock: BETGAK_clean_sbu_0, # of connection points: 6
#     Node 3, Type 0, BuildingBlock: BETGAK_clean_sbu_0, # of connection points: 6
#     Node 4, Type 0, BuildingBlock: BETGAK_clean_sbu_0, # of connection points: 6
#     Node 5, Type 0, BuildingBlock: BETGAK_clean_sbu_0, # of connection points: 6
#     Edge 6, Type (0, 0), BuildingBlock: OJICUG_clean_linker_0, # of connection points: 2
#     Edge 7, Type (0, 0), BuildingBlock: OJICUG_clean_linker_0, # of connection points: 2
#     Edge 8, Type (0, 0), BuildingBlock: OJICUG_clean_linker_0, # of connection points: 2
#     Edge 9, Type (0, 0), BuildingBlock: OJICUG_clean_linker_0, # of connection points: 2
#     Edge 10, Type (0, 0), BuildingBlock: OJICUG_clean_linker_0, # of connection points: 2
#     Edge 11, Type (0, 0), BuildingBlock: OJICUG_clean_linker_0, # of connection points: 2
#     Edge 12, Type (0, 0), BuildingBlock: OJICUG_clean_linker_0, # of connection points: 2
#     Edge 13, Type (0, 0), BuildingBlock: OJICUG_clean_linker_0, # of connection points: 2
#     Edge 14, Type (0, 0), BuildingBlock: OJICUG_clean_linker_0, # of connection points: 2
#     Edge 15, Type (0, 0), BuildingBlock: OJICUG_clean_linker_0, # of connection points: 2
#     Edge 16, Type (0, 0), BuildingBlock: OJICUG_clean_linker_0, # of connection points: 2
#     Edge 17, Type (0, 0), BuildingBlock: OJICUG_clean_linker_0, # of connection points: 2
#     Edge 18, Type (0, 0), BuildingBlock: OJICUG_clean_linker_0, # of connection points: 2
#     Edge 19, Type (0, 0), BuildingBlock: OJICUG_clean_linker_0, # of connection points: 2
#     Edge 20, Type (0, 0), BuildingBlock: OJICUG_clean_linker_0, # of connection points: 2
#     Edge 21, Type (0, 0), BuildingBlock: OJICUG_clean_linker_0, # of connection points: 2
#     Edge 22, Type (0, 0), BuildingBlock: OJICUG_clean_linker_0, # of connection points: 2
#     Edge 23, Type (0, 0), BuildingBlock: OJICUG_clean_linker_0, # of connection points: 2
# Relax obj value: 0.230
# Max RMSD: 0.229
# Mean RMSD: 0.229
data_MOF--net-qtz-e--node1-BETGAK_clean_sbu_0--edge1-OJICUG_clean_linker_0
_symmetry_space_group_name_H-M    P1
_symmetry_Int_Tables_number       1
_symmetry_cell_setting            triclinic
loop_
_symmetry_equiv_pos_as_xyz
'x, y, z'
_cell_length_a     18.773217
_cell_length_b     18.763936
_cell_length_c     40.3521
_cell_angle_alpha  89.294067
_cell_angle_beta   89.925276
_cell_angle_gamma 120.62183
loop_
_atom_site_label
_atom_site_type_symbol
_atom_site_fract_x
_atom_site_fract_y
_atom_site_fract_z
_atom_type_partial_charge
La0 La 0.18754 0.60205 0.23063 0.0
La1 La 0.15447 0.43044 0.21512 0.0
C2 C 0.17772 0.7179 0.25596 0.0
C3 C 0.2026 0.74953 0.29012 0.0
C4 C 0.28152 0.81861 0.29556 0.0
C5 C 0.31365 0.83815 0.32755 0.0
C6 C 0.26738 0.78959 0.35502 0.0
C7 C 0.18637 0.72361 0.34983 0.0
C8 C 0.15427 0.70395 0.31777 0.0
C9 C 0.32159 0.59284 0.22963 0.0
C10 C 0.11857 0.4556 0.28774 0.0
C11 C 0.16519 0.31363 0.1899 0.0
C12 C 0.18074 0.29515 0.15571 0.0
C13 C 0.11539 0.23206 0.13779 0.0
C14 C 0.12788 0.21398 0.1055 0.0
C15 C 0.20646 0.25786 0.09017 0.0
C16 C 0.27207 0.32121 0.10813 0.0
C17 C 0.25944 0.33962 0.14048 0.0
C18 C 0.02751 0.45551 0.20957 0.0
C19 C 0.21298 0.56734 0.15718 0.0
O20 O 0.23851 0.72999 0.23627 0.0
O21 O 0.11373 0.64277 0.25327 0.0
O22 O 0.31978 0.66035 0.22636 0.0
O23 O 0.25075 0.53559 0.23963 0.0
O24 O 0.13251 0.52883 0.27681 0.0
O25 O 0.13334 0.40741 0.26867 0.0
O26 O 0.09516 0.31135 0.19474 0.0
O27 O 0.22636 0.37615 0.20502 0.0
O28 O 0.021 0.38635 0.2195 0.0
O29 O 0.10114 0.50393 0.20173 0.0
O30 O 0.21142 0.50082 0.16935 0.0
O31 O 0.19229 0.61221 0.17591 0.0
H32 H 0.32033 0.85519 0.27487 0.0
H33 H 0.37619 0.88952 0.33055 0.0
H34 H 0.14795 0.68655 0.37051 0.0
H35 H 0.0927 0.65114 0.31462 0.0
H36 H 0.05406 0.19672 0.14873 0.0
H37 H 0.07533 0.16592 0.09241 0.0
H38 H 0.33363 0.35586 0.09741 0.0
H39 H 0.31144 0.38862 0.15351 0.0
La40 La 0.90094 0.44117 0.47684 0.0
La41 La 0.93872 0.3042 0.49647 0.0
C42 C 0.8934 0.55454 0.44628 0.0
C43 C 0.84817 0.54101 0.41492 0.0
C44 C 0.79994 0.45972 0.40339 0.0
C45 C 0.76055 0.44424 0.37284 0.0
C46 C 0.76772 0.50968 0.35308 0.0
C47 C 0.81351 0.59108 0.36522 0.0
C48 C 0.85343 0.60656 0.39596 0.0
C49 C 0.76877 0.29394 0.48543 0.0
C50 C 0.96819 0.36659 0.42147 0.0
C51 C 0.9228 0.16976 0.51666 0.0
C52 C 0.91836 0.14017 0.55148 0.0
C53 C 0.96699 0.19527 0.57641 0.0
C54 C 0.95648 0.16945 0.60976 0.0
C55 C 0.8967 0.08782 0.61923 0.0
C56 C 0.84831 0.03263 0.59416 0.0
C57 C 0.85901 0.05854 0.56075 0.0
C58 C 0.05022 0.45489 0.51592 0.0
C59 C 0.8861 0.38921 0.55081 0.0
O60 O 0.84672 0.51497 0.4719 0.0
O61 O 0.95783 0.54532 0.4447 0.0
O62 O 0.77044 0.36321 0.48695 0.0
O63 O 0.8381 0.30861 0.4741 0.0
O64 O 0.92802 0.40541 0.42912 0.0
O65 O 0.98125 0.3219 0.44403 0.0
O66 O 0.99395 0.23277 0.50637 0.0
O67 O 0.86009 0.17771 0.50764 0.0
O68 O 0.03652 0.38702 0.53031 0.0
O69 O 1.00775 0.43599 0.48989 0.0
O70 O 0.88008 0.32005 0.54004 0.0
O71 O 0.90645 0.45406 0.53094 0.0
H72 H 0.79324 0.40776 0.41793 0.0
H73 H 0.72455 0.38081 0.36465 0.0
H74 H 0.82049 0.64302 0.35055 0.0
H75 H 0.88887 0.66945 0.40472 0.0
H76 H 1.01214 0.25907 0.57029 0.0
H77 H 0.99392 0.21429 0.62824 0.0
H78 H 0.80211 0.96915 0.60032 0.0
H79 H 0.81978 0.01507 0.54218 0.0
La80 La 0.49141 0.63974 0.89889 0.0
La81 La 0.6707 0.75012 0.87818 0.0
C82 C 0.34589 0.54339 0.91851 0.0
C83 C 0.30961 0.54666 0.95084 0.0
C84 C 0.31859 0.62157 0.96215 0.0
C85 C 0.29622 0.62819 0.99459 0.0
C86 C 0.26402 0.56009 1.01665 0.0
C87 C 0.25224 0.48429 1.0049 0.0
C88 C 0.27492 0.47777 0.97244 0.0
C89 C 0.55001 0.80278 0.90224 0.0
C90 C 0.63074 0.68054 0.95296 0.0
C91 C 0.8038 0.87287 0.85794 0.0
C92 C 0.82251 0.91491 0.82477 0.0
C93 C 0.89284 0.92949 0.80673 0.0
C94 C 0.90634 0.96094 0.77407 0.0
C95 C 0.84975 0.97871 0.7585 0.0
C96 C 0.78022 0.96564 0.77698 0.0
C97 C 0.76663 0.93393 0.80953 0.0
C98 C 0.60693 0.59391 0.8625 0.0
C99 C 0.53346 0.68477 0.82343 0.0
O100 O 0.36587 0.60512 0.89778 0.0
O101 O 0.404 0.52443 0.92018 0.0
O102 O 0.50372 0.74812 0.92433 0.0
O103 O 0.56571 0.76414 0.88129 0.0
O104 O 0.55231 0.63491 0.94411 0.0
O105 O 0.68801 0.73573 0.93205 0.0
O106 O 0.79044 0.79713 0.8582 0.0
O107 O 0.75033 0.87941 0.8768 0.0
O108 O 0.66744 0.65548 0.84669 0.0
O109 O 0.59115 0.62006 0.88862 0.0
O110 O 0.60498 0.74713 0.83347 0.0
O111 O 0.47972 0.62753 0.84452 0.0
H112 H 0.34512 0.67614 0.94628 0.0
H113 H 0.30488 0.68705 1.00246 0.0
H114 H 0.22809 0.43051 1.02115 0.0
H115 H 0.26786 0.41957 0.96455 0.0
H116 H 0.93641 0.91448 0.81761 0.0
H117 H 0.96 0.96885 0.76071 0.0
H118 H 0.73578 0.97966 0.7663 0.0
H119 H 0.71126 0.92282 0.82248 0.0
La120 La 0.61206 0.45103 0.14501 0.0
La121 La 0.75069 0.62341 0.16025 0.0
C122 C 0.48856 0.33315 0.11883 0.0
C123 C 0.49456 0.30455 0.08573 0.0
C124 C 0.57376 0.33521 0.07185 0.0
C125 C 0.58352 0.31351 1.04005 0.0
C126 C 0.5142 0.26085 1.0211 0.0
C127 C 0.43449 0.2293 1.03515 0.0
C128 C 0.42478 0.2511 0.06729 0.0
C129 C 0.75579 0.46135 0.14643 0.0
C130 C 0.69103 0.59527 0.08722 0.0
C131 C 0.87834 0.74428 0.18503 0.0
C132 C 0.91746 0.76531 0.21832 0.0
C133 C 0.92626 0.83512 0.23451 0.0
C134 C 0.96187 0.85652 0.26596 0.0
C135 C 0.99071 0.80921 0.28218 0.0
C136 C 0.98192 0.73907 0.26588 0.0
C137 C 0.9457 0.71732 0.23437 0.0
C138 C 0.59682 0.59553 0.16537 0.0
C139 C 0.67329 0.48534 0.21753 0.0
O140 O 0.53232 0.32246 0.14146 0.0
O141 O 0.50032 0.40825 0.11931 0.0
O142 O 0.6854 0.39372 0.14941 0.0
O143 O 0.74337 0.51869 0.13634 0.0
O144 O 0.63185 0.52184 0.09842 0.0
O145 O 0.7529 0.64603 0.10658 0.0
O146 O 0.80704 0.74031 0.18253 0.0
O147 O 0.87918 0.68485 0.16871 0.0
O148 O 0.6599 0.66445 0.15476 0.0
O149 O 0.62232 0.54838 0.17374 0.0
O150 O 0.7391 0.55209 0.20534 0.0
O151 O 0.60579 0.44163 0.19945 0.0
H152 H 0.62867 0.37673 0.08561 0.0
H153 H 0.64567 0.33779 1.03041 0.0
H154 H 0.37966 0.18901 1.02112 0.0
H155 H 0.36329 0.22696 0.07758 0.0
H156 H 0.90488 0.87311 0.22286 0.0
H157 H 0.96543 0.90974 0.27776 0.0
H158 H 1.00375 0.70126 0.27725 0.0
H159 H 0.93986 0.66297 0.22266 0.0
La160 La 0.40345 0.85896 0.5661 0.0
La161 La 0.31799 0.95004 0.54612 0.0
C162 C 0.49162 0.80025 0.5832 0.0
C163 C 0.49721 0.76736 0.61609 0.0
C164 C 0.42716 0.70036 0.63139 0.0
C165 C 0.4304 0.67702 0.66419 0.0
C166 C 0.5035 0.7204 0.68262 0.0
C167 C 0.57403 0.78591 0.66683 0.0
C168 C 0.57099 0.80876 0.63399 0.0
C169 C 0.24029 0.77271 0.57391 0.0
C170 C 0.36779 0.95904 0.62019 0.0
C171 C 0.21532 0.97555 0.51595 0.0
C172 C 0.1788 0.94803 0.48251 0.0
C173 C 0.1533 0.99446 0.46382 0.0
C174 C 0.12432 0.9716 0.43133 0.0
C175 C 0.12111 0.90218 0.41652 0.0
C176 C 0.14638 0.85567 0.43554 0.0
C177 C 0.17409 0.87792 0.46807 0.0
C178 C 0.4808 0.04267 0.55086 0.0
C179 C 0.36855 0.86636 0.48999 0.0
O180 O 0.42154 0.75747 0.56744 0.0
O181 O 0.51928 0.88013 0.58181 0.0
O182 O 0.29311 0.77721 0.59562 0.0
O183 O 0.28176 0.82292 0.55106 0.0
O184 O 0.41843 0.93424 0.60956 0.0
O185 O 0.31078 0.95781 0.60033 0.0
O186 O 0.29492 0.02893 0.5163 0.0
O187 O 0.19404 0.91722 0.53862 0.0
O188 O 0.4292 0.06687 0.55893 0.0
O189 O 0.44009 0.97063 0.53986 0.0
O190 O 0.34198 0.91664 0.49804 0.0
O191 O 0.39616 0.83421 0.51247 0.0
H192 H 0.36897 0.66711 0.61838 0.0
H193 H 0.37525 0.62541 0.67515 0.0
H194 H 0.63125 0.82178 0.68011 0.0
H195 H 0.62566 0.86092 0.62296 0.0
H196 H 0.15632 0.04884 0.47426 0.0
H197 H 0.10399 1.00831 0.41795 0.0
H198 H 0.14642 0.80272 0.4252 0.0
H199 H 0.19312 0.84067 0.48168 0.0
La200 La 0.57462 0.18388 0.81117 0.0
La201 La 0.39264 0.11189 0.82778 0.0
C202 C 0.70778 0.20984 0.7855 0.0
C203 C 0.74379 0.24764 0.75278 0.0
C204 C 0.73948 0.31615 0.74083 0.0
C205 C 0.76919 0.3493 0.70918 0.0
C206 C 0.80312 0.31426 0.68847 0.0
C207 C 0.8071 0.24538 0.70051 0.0
C208 C 0.7779 0.2126 0.73234 0.0
C209 C 0.52884 0.29335 0.81257 0.0
C210 C 0.43176 0.09251 0.75483 0.0
C211 C 0.26962 0.1071 0.85497 0.0
C212 C 0.25876 0.12761 0.88951 0.0
C213 C 0.25808 0.07971 0.91678 0.0
C214 C 0.25241 0.10214 0.94924 0.0
C215 C 0.24749 0.17318 0.95542 0.0
C216 C 0.24886 0.22148 0.92817 0.0
C217 C 0.25414 0.19879 0.89565 0.0
C218 C 0.44901 1.0078 0.83421 0.0
C219 C 0.52993 0.19088 0.88458 0.0
O220 O 0.70357 0.25922 0.80702 0.0
O221 O 0.63933 0.13752 0.78496 0.0
O222 O 0.60331 0.3096 0.81767 0.0
O223 O 0.4849 0.22017 0.80214 0.0
O224 O 0.5095 0.12495 0.76491 0.0
O225 O 0.37279 0.08695 0.77476 0.0
O226 O 0.27619 0.04146 0.85103 0.0
O227 O 0.3232 0.16944 0.83649 0.0
O228 O 0.37295 0.98541 0.8269 0.0
O229 O 0.48606 0.08352 0.83996 0.0
O230 O 0.45647 0.17206 0.87336 0.0
O231 O 0.58474 0.1856 0.86548 0.0
H232 H 0.71231 0.34384 0.75583 0.0
H233 H 0.76564 0.40257 0.70099 0.0
H234 H 0.83105 0.21536 0.68507 0.0
H235 H 0.78063 0.15897 0.74076 0.0
H236 H 0.26289 0.02521 0.91317 0.0
H237 H 0.253 0.06425 0.96959 0.0
H238 H 0.2446 0.27624 0.93195 0.0
H239 H 0.25526 0.23741 0.87524 0.0
C240 C 0.3805 0.90943 0.4313 0.0
C241 C 0.3619 0.84592 0.4546 0.0
H242 H 0.36377 0.94171 0.38223 0.0
C243 C 0.31758 0.76333 0.4444 0.0
H244 H 0.41309 0.97364 0.43877 0.0
C245 C 0.28846 0.7447 0.41178 0.0
C246 C 0.30343 0.80845 0.3889 0.0
H247 H 0.30043 0.71325 0.46214 0.0
H248 H 0.25238 0.68037 0.40473 0.0
C249 C 0.35173 0.89104 0.3989 0.0
C250 C 0.7893 0.37555 0.63421 0.0
C251 C 0.83235 0.34778 0.65421 0.0
H252 H 0.77449 0.41377 0.58541 0.0
C253 C 0.90152 0.34831 0.64059 0.0
H254 H 0.73539 0.37557 0.64373 0.0
C255 C 0.92309 0.36964 0.60734 0.0
C256 C 0.87707 0.39224 0.58692 0.0
H257 H 0.93755 0.32952 0.65529 0.0
H258 H 0.97346 0.36422 0.59709 0.0
C259 C 0.81175 0.39793 0.60082 0.0
C260 C 0.28412 0.64348 0.10439 0.0
C261 C 0.21819 0.57538 0.1207 0.0
H262 H 0.35129 0.69183 0.05865 0.0
C263 C 0.16395 0.50565 0.10221 0.0
H264 H 0.32786 0.69704 0.11829 0.0
C265 C 0.17691 0.50227 0.06834 0.0
C266 C 0.24522 0.5683 0.05199 0.0
H267 H 0.11297 0.45194 0.11435 0.0
H268 H 0.13433 0.44681 0.05514 0.0
C269 C 0.29753 0.64001 0.07028 0.0
C270 C 0.69173 0.53537 0.30741 0.0
C271 C 0.73039 0.49295 0.31944 0.0
H272 H 0.63967 0.56287 0.2653 0.0
C273 C 0.73664 0.43682 0.29846 0.0
H274 H 0.68517 0.57834 0.32297 0.0
C275 C 0.7092 0.42703 0.26569 0.0
C276 C 0.67419 0.47234 0.2534 0.0
H277 H 0.76711 0.40398 0.30674 0.0
H278 H 0.72037 0.38827 0.24939 0.0
C279 C 0.66408 0.52524 0.27467 0.0
C280 C 0.44353 0.66428 0.77397 0.0
C281 C 0.51896 0.68017 0.78739 0.0
H282 H 0.37974 0.66681 0.73037 0.0
C283 C 0.58623 0.70169 0.766 0.0
H284 H 0.3911 0.64843 0.79004 0.0
C285 C 0.57967 0.71048 0.732 0.0
C286 C 0.50611 0.70004 0.71841 0.0
H287 H 0.64504 0.71358 0.77574 0.0
H288 H 0.63323 0.72728 0.7165 0.0
C289 C 0.4373 0.6748 0.73975 0.0
C290 C 0.47358 0.16041 0.97444 0.0
C291 C 0.52565 0.24017 0.98674 0.0
H292 H 0.43672 0.08202 0.93217 0.0
C293 C 0.58789 0.30055 0.9657 0.0
H294 H 0.42596 0.11209 0.98997 0.0
C295 C 0.59535 0.28243 0.93275 0.0
C296 C 0.54072 0.20381 0.92037 0.0
H297 H 0.62832 0.36307 0.97417 0.0
H298 H 0.63987 0.33125 0.91645 0.0
C299 C 0.48081 0.14265 0.94157 0.0
C300 C 0.43155 0.64479 0.18647 0.0
C301 C 0.38476 0.5844 0.21102 0.0
H302 H 0.53451 0.69517 0.15274 0.0
C303 C 0.40366 0.52277 0.21823 0.0
H304 H 0.41793 0.69272 0.17987 0.0
C305 C 0.4705 0.52385 0.20207 0.0
C306 C 0.51974 0.58719 0.17884 0.0
H307 H 0.36923 0.47611 0.23714 0.0
H308 H 0.48562 0.47714 0.20881 0.0
C309 C 0.49829 0.6463 0.17068 0.0
C310 C 0.13378 0.68146 0.53341 0.0
C311 C 0.17274 0.69001 0.56409 0.0
H312 H 0.06724 0.60099 0.49336 0.0
C313 C 0.16248 0.61869 0.58034 0.0
H314 H 0.13993 0.73512 0.5205 0.0
C315 C 0.12126 0.54216 0.56473 0.0
C316 C 0.08908 0.53534 0.53274 0.0
H317 H 0.19155 0.62288 0.60398 0.0
H318 H 0.11741 0.48889 0.57726 0.0
C319 C 0.09303 0.60495 0.51769 0.0
C320 C 0.41542 0.87979 0.86673 0.0
C321 C 0.47421 0.9538 0.85097 0.0
H322 H 0.39393 0.77581 0.89679 0.0
C323 C 0.55883 0.98137 0.85475 0.0
H324 H 0.34992 0.85785 0.86473 0.0
C325 C 0.58415 0.93455 0.87318 0.0
C326 C 0.52544 0.86075 0.88908 0.0
H327 H 0.60544 0.03896 0.84322 0.0
H328 H 0.64946 0.95519 0.87454 0.0
C329 C 0.44081 0.83401 0.88578 0.0
C330 C 0.51495 0.4393 0.86806 0.0
C331 C 0.55844 0.51065 0.84817 0.0
H332 H 0.46434 0.30845 0.87117 0.0
C333 C 0.56432 0.50213 0.81387 0.0
H334 H 0.50867 0.44425 0.8945 0.0
C335 C 0.53709 0.42442 0.80036 0.0
C336 C 0.50465 0.35402 0.82095 0.0
H337 H 0.5961 0.55622 0.79778 0.0
H338 H 0.55176 0.4211 0.77464 0.0
C339 C 0.48841 0.36125 0.85449 0.0
C340 C 0.97425 0.53146 0.17552 0.0
C341 C 0.95892 0.46405 0.19644 0.0
H342 H 0.92213 0.58354 0.14233 0.0
C343 C 0.87746 0.40123 0.20244 0.0
H344 H 0.0369 0.58111 0.17051 0.0
C345 C 0.81271 0.4033 0.1867 0.0
C346 C 0.82748 0.46834 0.16454 0.0
H347 H 0.86378 0.34906 0.21855 0.0
H348 H 0.75059 0.35219 0.19154 0.0
C349 C 0.90884 0.53338 0.15949 0.0
C350 C 0.60296 0.08004 0.51386 0.0
C351 C 0.56597 0.10123 0.53946 0.0
H352 H 0.69824 0.12549 0.47613 0.0
C353 C 0.60587 0.18254 0.55064 0.0
H354 H 0.57326 0.01723 0.50486 0.0
C355 C 0.67682 0.2433 0.53449 0.0
C356 C 0.70964 0.2243 0.50681 0.0
H357 H 0.57929 0.20028 0.57046 0.0
H358 H 0.70277 0.30665 0.54238 0.0
C359 C 0.67451 0.14156 0.49747 0.0
C360 C 0.18672 0.13362 1.01303 0.0
C361 C 0.23899 0.19545 0.99008 0.0
H362 H 0.13665 0.10416 0.06221 0.0
C363 C 0.28249 0.27819 1.00058 0.0
H364 H 0.15199 0.06929 1.00587 0.0
C365 C 0.27303 0.29853 1.03302 0.0
C366 C 0.21931 0.23671 0.05579 0.0
H367 H 0.32452 0.32726 0.98379 0.0
H368 H 0.307 0.36293 1.04006 0.0
C369 C 0.17709 0.15389 1.04534 0.0
C370 C 0.99259 0.43541 0.36521 0.0
C371 C 1.0029 0.38102 0.38647 0.0
H372 H 0.01949 0.50005 0.31876 0.0
C373 C 0.05059 0.348 0.37423 0.0
H374 H 0.95666 0.46276 0.37299 0.0
C375 C 0.08725 0.36991 0.34203 0.0
C376 C 0.0786 0.42672 0.32156 0.0
H377 H 0.0606 0.3063 0.38963 0.0
H378 H 0.12399 0.34407 0.33355 0.0
C379 C 0.02976 0.4579 0.33375 0.0
C380 C 0.79368 0.98243 0.70173 0.0
C381 C 0.86184 1.00837 0.72297 0.0
H382 H 0.75069 0.98691 0.65296 0.0
C383 C 0.94154 0.06177 0.70972 0.0
H384 H 0.73137 0.94109 0.71076 0.0
C385 C 0.9527 0.08764 0.67634 0.0
C386 C 0.88459 0.06077 0.65503 0.0
H387 H 0.99566 0.08429 0.7252 0.0
H388 H 0.01512 0.12786 0.66712 0.0
C389 C 0.80486 1.00801 0.66832 0.0
C390 C 0.59676 0.58532 1.00232 0.0
C391 C 0.65234 0.66169 0.98681 0.0
H392 H 0.56561 0.50496 1.0444 0.0
C393 C 0.72465 0.71643 1.00433 0.0
H394 H 0.54084 0.54038 0.98991 0.0
C395 C 0.73898 0.69583 1.03673 0.0
C396 C 0.68199 0.61943 0.0522 0.0
H397 H 0.76917 0.77571 0.99335 0.0
H398 H 0.79415 0.73997 1.04973 0.0
C399 C 0.61136 0.56458 1.03401 0.0
C400 C 0.10608 0.93891 0.35731 0.0
C401 C 0.09129 0.87826 0.38159 0.0
H402 H 0.0888 0.96554 0.30727 0.0
C403 C 0.04719 0.79456 0.37214 0.0
H404 H 0.14207 1.00411 0.36303 0.0
C405 C 0.01606 0.77219 0.33995 0.0
C406 C 0.02841 0.83281 0.31603 0.0
H407 H 0.03467 0.7457 0.38984 0.0
H408 H 0.98041 0.70703 0.33417 0.0
C409 C 0.07535 0.9166 0.32511 0.0
C410 C 0.33727 0.03661 0.70419 0.0
C411 C 0.41265 0.05936 0.72016 0.0
H412 H 0.26369 0.98825 0.66006 0.0
C413 C 0.47169 0.04904 0.70266 0.0
H414 H 0.29021 0.04356 0.71675 0.0
C415 C 0.45614 0.01657 0.67069 0.0
C416 C 0.38129 0.99388 0.65451 0.0
H417 H 0.53043 0.06522 0.71378 0.0
H418 H 0.50384 1.00981 0.65856 0.0
C419 C 0.32208 1.00497 0.67162 0.0
loop_
_geom_bond_atom_site_label_1
_geom_bond_atom_site_label_2
_geom_bond_distance
_geom_bond_site_symmetry_2
_ccdc_geom_bond_type
La0 C2 2.928 . S
La0 O20 2.521 . S
La0 O21 2.628 . S
La0 O22 2.554 . S
La0 O23 2.757 . S
La0 O24 2.470 . S
La0 O29 2.482 . S
La0 O31 2.503 . S
La1 C11 2.928 . S
La1 O23 2.482 . S
La1 O25 2.503 . S
La1 O26 2.521 1_455 S
La1 O27 2.628 . S
La1 O28 2.554 1_455 S
La1 O29 2.757 . S
La1 O30 2.470 . S
C2 La0 2.928 . S
C2 C3 1.503 . S
C2 O20 1.261 . S
C2 O21 1.243 . S
C3 C2 1.503 . S
C3 C4 1.394 . S
C3 C8 1.373 . S
C4 C3 1.394 . S
C4 C5 1.380 . S
C4 H32 0.930 . S
C5 C4 1.380 . S
C5 C6 1.376 . S
C5 H33 0.930 . S
C6 C5 1.376 . S
C6 C7 1.370 . S
C7 C6 1.370 . S
C7 C8 1.396 . S
C7 H34 0.929 . S
C8 C3 1.373 . S
C8 C7 1.396 . S
C8 H35 0.929 . S
C9 O22 1.240 . S
C9 O23 1.289 . S
C10 O24 1.258 . S
C10 O25 1.256 . S
C11 La1 2.928 . S
C11 C12 1.503 . S
C11 O26 1.261 1_455 S
C11 O27 1.243 . S
C12 C11 1.503 . S
C12 C13 1.394 1_455 S
C12 C17 1.373 . S
C13 C12 1.394 1_655 S
C13 C14 1.380 . S
C13 H36 0.930 . S
C14 C13 1.380 . S
C14 C15 1.376 1_655 S
C14 H37 0.930 . S
C15 C14 1.376 1_455 S
C15 C16 1.370 . S
C16 C15 1.370 . S
C16 C17 1.396 . S
C16 H38 0.929 . S
C17 C12 1.373 . S
C17 C16 1.396 . S
C17 H39 0.929 . S
C18 O28 1.240 . S
C18 O29 1.289 1_655 S
C19 O30 1.258 . S
C19 O31 1.256 . S
O20 La0 2.521 . S
O20 C2 1.261 . S
O21 La0 2.628 . S
O21 C2 1.243 . S
O22 La0 2.554 . S
O22 C9 1.240 . S
O23 La0 2.757 . S
O23 La1 2.482 . S
O23 C9 1.289 . S
O24 La0 2.470 . S
O24 C10 1.258 . S
O25 La1 2.503 . S
O25 C10 1.256 . S
O26 La1 2.521 1_655 S
O26 C11 1.261 1_655 S
O27 La1 2.628 . S
O27 C11 1.243 . S
O28 La1 2.554 1_655 S
O28 C18 1.240 . S
O29 La0 2.482 . S
O29 La1 2.757 . S
O29 C18 1.289 1_455 S
O30 La1 2.470 . S
O30 C19 1.258 . S
O31 La0 2.503 . S
O31 C19 1.256 . S
H32 C4 0.930 . S
H33 C5 0.930 . S
H34 C7 0.929 . S
H35 C8 0.929 . S
H36 C13 0.930 . S
H37 C14 0.930 . S
H38 C16 0.929 . S
H39 C17 0.929 . S
La40 C42 2.928 . S
La40 O60 2.521 . S
La40 O61 2.628 . S
La40 O62 2.554 . S
La40 O63 2.757 . S
La40 O64 2.470 . S
La40 O69 2.482 1_655 S
La40 O71 2.503 . S
La41 C51 2.928 . S
La41 O63 2.482 . S
La41 O65 2.503 1_655 S
La41 O66 2.521 1_655 S
La41 O67 2.628 . S
La41 O68 2.554 1_655 S
La41 O69 2.757 1_655 S
La41 O70 2.470 . S
C42 La40 2.928 . S
C42 C43 1.503 . S
C42 O60 1.261 . S
C42 O61 1.243 . S
C43 C42 1.503 . S
C43 C44 1.394 . S
C43 C48 1.373 . S
C44 C43 1.394 . S
C44 C45 1.380 . S
C44 H72 0.930 . S
C45 C44 1.380 . S
C45 C46 1.376 . S
C45 H73 0.930 . S
C46 C45 1.376 . S
C46 C47 1.370 . S
C47 C46 1.370 . S
C47 C48 1.396 . S
C47 H74 0.929 1_655 S
C48 C43 1.373 . S
C48 C47 1.396 . S
C48 H75 0.929 1_655 S
C49 O62 1.240 . S
C49 O63 1.289 . S
C50 O64 1.258 . S
C50 O65 1.256 1_655 S
C51 La41 2.928 . S
C51 C52 1.503 . S
C51 O66 1.261 1_655 S
C51 O67 1.243 . S
C52 C51 1.503 . S
C52 C53 1.394 1_655 S
C52 C57 1.373 . S
C53 C52 1.394 1_455 S
C53 C54 1.380 . S
C53 H76 0.930 . S
C54 C53 1.380 . S
C54 C55 1.376 1_455 S
C54 H77 0.930 . S
C55 C54 1.376 1_655 S
C55 C56 1.370 . S
C56 C55 1.370 . S
C56 C57 1.396 . S
C56 H78 0.929 . S
C57 C52 1.373 . S
C57 C56 1.396 . S
C57 H79 0.929 . S
C58 O68 1.240 . S
C58 O69 1.289 . S
C59 O70 1.258 . S
C59 O71 1.256 . S
O60 La40 2.521 . S
O60 C42 1.261 . S
O61 La40 2.628 . S
O61 C42 1.243 . S
O62 La40 2.554 . S
O62 C49 1.240 . S
O63 La40 2.757 . S
O63 La41 2.482 . S
O63 C49 1.289 . S
O64 La40 2.470 . S
O64 C50 1.258 . S
O65 La41 2.503 1_455 S
O65 C50 1.256 1_455 S
O66 La41 2.521 1_455 S
O66 C51 1.261 1_455 S
O67 La41 2.628 . S
O67 C51 1.243 . S
O68 La41 2.554 1_455 S
O68 C58 1.240 . S
O69 La40 2.482 1_455 S
O69 La41 2.757 1_455 S
O69 C58 1.289 . S
O70 La41 2.470 . S
O70 C59 1.258 . S
O71 La40 2.503 . S
O71 C59 1.256 . S
H72 C44 0.930 . S
H73 C45 0.930 . S
H74 C47 0.929 1_455 S
H75 C48 0.929 1_455 S
H76 C53 0.930 . S
H77 C54 0.930 . S
H78 C56 0.929 . S
H79 C57 0.929 . S
La80 C82 2.928 . S
La80 O100 2.521 . S
La80 O101 2.628 . S
La80 O102 2.554 . S
La80 O103 2.757 . S
La80 O104 2.470 . S
La80 O109 2.482 . S
La80 O111 2.503 . S
La81 C91 2.928 . S
La81 O103 2.482 . S
La81 O105 2.503 . S
La81 O106 2.521 . S
La81 O107 2.628 . S
La81 O108 2.554 . S
La81 O109 2.757 . S
La81 O110 2.470 . S
C82 La80 2.928 . S
C82 C83 1.503 . S
C82 O100 1.261 . S
C82 O101 1.243 . S
C83 C82 1.503 . S
C83 C84 1.394 . S
C83 C88 1.373 . S
C84 C83 1.394 . S
C84 C85 1.380 . S
C84 H112 0.930 . S
C85 C84 1.380 . S
C85 C86 1.376 1_556 S
C85 H113 0.930 1_556 S
C86 C85 1.376 1_554 S
C86 C87 1.370 1_554 S
C87 C86 1.370 1_556 S
C87 C88 1.396 . S
C87 H114 0.929 . S
C88 C83 1.373 . S
C88 C87 1.396 . S
C88 H115 0.929 . S
C89 O102 1.240 . S
C89 O103 1.289 . S
C90 O104 1.258 . S
C90 O105 1.256 . S
C91 La81 2.928 . S
C91 C92 1.503 . S
C91 O106 1.261 . S
C91 O107 1.243 . S
C92 C91 1.503 . S
C92 C93 1.394 . S
C92 C97 1.373 . S
C93 C92 1.394 . S
C93 C94 1.380 . S
C93 H116 0.930 . S
C94 C93 1.380 . S
C94 C95 1.376 . S
C94 H117 0.930 . S
C95 C94 1.376 . S
C95 C96 1.370 . S
C96 C95 1.370 . S
C96 C97 1.396 . S
C96 H118 0.929 . S
C97 C92 1.373 . S
C97 C96 1.396 . S
C97 H119 0.929 . S
C98 O108 1.240 . S
C98 O109 1.289 . S
C99 O110 1.258 . S
C99 O111 1.256 . S
O100 La80 2.521 . S
O100 C82 1.261 . S
O101 La80 2.628 . S
O101 C82 1.243 . S
O102 La80 2.554 . S
O102 C89 1.240 . S
O103 La80 2.757 . S
O103 La81 2.482 . S
O103 C89 1.289 . S
O104 La80 2.470 . S
O104 C90 1.258 . S
O105 La81 2.503 . S
O105 C90 1.256 . S
O106 La81 2.521 . S
O106 C91 1.261 . S
O107 La81 2.628 . S
O107 C91 1.243 . S
O108 La81 2.554 . S
O108 C98 1.240 . S
O109 La80 2.482 . S
O109 La81 2.757 . S
O109 C98 1.289 . S
O110 La81 2.470 . S
O110 C99 1.258 . S
O111 La80 2.503 . S
O111 C99 1.256 . S
H112 C84 0.930 . S
H113 C85 0.930 1_554 S
H114 C87 0.929 . S
H115 C88 0.929 . S
H116 C93 0.930 . S
H117 C94 0.930 . S
H118 C96 0.929 . S
H119 C97 0.929 . S
La120 C122 2.928 . S
La120 O140 2.521 . S
La120 O141 2.628 . S
La120 O142 2.554 . S
La120 O143 2.757 . S
La120 O144 2.470 . S
La120 O149 2.482 . S
La120 O151 2.503 . S
La121 C131 2.928 . S
La121 O143 2.482 . S
La121 O145 2.503 . S
La121 O146 2.521 . S
La121 O147 2.628 . S
La121 O148 2.554 . S
La121 O149 2.757 . S
La121 O150 2.470 . S
C122 La120 2.928 . S
C122 C123 1.503 1_554 S
C122 O140 1.261 . S
C122 O141 1.243 . S
C123 C122 1.503 1_556 S
C123 C124 1.394 . S
C123 C128 1.373 . S
C124 C123 1.394 . S
C124 C125 1.380 . S
C124 H152 0.930 . S
C125 C124 1.380 . S
C125 C126 1.376 . S
C125 H153 0.930 . S
C126 C125 1.376 . S
C126 C127 1.370 . S
C127 C126 1.370 . S
C127 C128 1.396 . S
C127 H154 0.929 . S
C128 C123 1.373 . S
C128 C127 1.396 . S
C128 H155 0.929 . S
C129 O142 1.240 . S
C129 O143 1.289 . S
C130 O144 1.258 . S
C130 O145 1.256 . S
C131 La121 2.928 . S
C131 C132 1.503 . S
C131 O146 1.261 . S
C131 O147 1.243 . S
C132 C131 1.503 . S
C132 C133 1.394 . S
C132 C137 1.373 . S
C133 C132 1.394 . S
C133 C134 1.380 . S
C133 H156 0.930 . S
C134 C133 1.380 . S
C134 C135 1.376 . S
C134 H157 0.930 . S
C135 C134 1.376 . S
C135 C136 1.370 . S
C136 C135 1.370 . S
C136 C137 1.396 . S
C136 H158 0.929 . S
C137 C132 1.373 . S
C137 C136 1.396 . S
C137 H159 0.929 . S
C138 O148 1.240 . S
C138 O149 1.289 . S
C139 O150 1.258 . S
C139 O151 1.256 . S
O140 La120 2.521 . S
O140 C122 1.261 . S
O141 La120 2.628 . S
O141 C122 1.243 . S
O142 La120 2.554 . S
O142 C129 1.240 . S
O143 La120 2.757 . S
O143 La121 2.482 . S
O143 C129 1.289 . S
O144 La120 2.470 . S
O144 C130 1.258 . S
O145 La121 2.503 . S
O145 C130 1.256 . S
O146 La121 2.521 . S
O146 C131 1.261 . S
O147 La121 2.628 . S
O147 C131 1.243 . S
O148 La121 2.554 . S
O148 C138 1.240 . S
O149 La120 2.482 . S
O149 La121 2.757 . S
O149 C138 1.289 . S
O150 La121 2.470 . S
O150 C139 1.258 . S
O151 La120 2.503 . S
O151 C139 1.256 . S
H152 C124 0.930 . S
H153 C125 0.930 . S
H154 C127 0.929 . S
H155 C128 0.929 . S
H156 C133 0.930 . S
H157 C134 0.930 . S
H158 C136 0.929 . S
H159 C137 0.929 . S
La160 C162 2.928 . S
La160 O180 2.521 . S
La160 O181 2.628 . S
La160 O182 2.554 . S
La160 O183 2.757 . S
La160 O184 2.470 . S
La160 O189 2.482 1_565 S
La160 O191 2.503 . S
La161 C171 2.928 . S
La161 O183 2.482 . S
La161 O185 2.503 1_565 S
La161 O186 2.521 1_565 S
La161 O187 2.628 . S
La161 O188 2.554 1_565 S
La161 O189 2.757 1_565 S
La161 O190 2.470 . S
C162 La160 2.928 . S
C162 C163 1.503 . S
C162 O180 1.261 . S
C162 O181 1.243 . S
C163 C162 1.503 . S
C163 C164 1.394 . S
C163 C168 1.373 . S
C164 C163 1.394 . S
C164 C165 1.380 . S
C164 H192 0.930 . S
C165 C164 1.380 . S
C165 C166 1.376 . S
C165 H193 0.930 . S
C166 C165 1.376 . S
C166 C167 1.370 . S
C167 C166 1.370 . S
C167 C168 1.396 . S
C167 H194 0.929 1_565 S
C168 C163 1.373 . S
C168 C167 1.396 . S
C168 H195 0.929 1_565 S
C169 O182 1.240 . S
C169 O183 1.289 . S
C170 O184 1.258 . S
C170 O185 1.256 1_565 S
C171 La161 2.928 . S
C171 C172 1.503 . S
C171 O186 1.261 1_565 S
C171 O187 1.243 . S
C172 C171 1.503 . S
C172 C173 1.394 1_565 S
C172 C177 1.373 . S
C173 C172 1.394 1_545 S
C173 C174 1.380 . S
C173 H196 0.930 . S
C174 C173 1.380 . S
C174 C175 1.376 1_545 S
C174 H197 0.930 . S
C175 C174 1.376 1_565 S
C175 C176 1.370 . S
C176 C175 1.370 . S
C176 C177 1.396 . S
C176 H198 0.929 . S
C177 C172 1.373 . S
C177 C176 1.396 . S
C177 H199 0.929 . S
C178 O188 1.240 . S
C178 O189 1.289 . S
C179 O190 1.258 . S
C179 O191 1.256 . S
O180 La160 2.521 . S
O180 C162 1.261 . S
O181 La160 2.628 . S
O181 C162 1.243 . S
O182 La160 2.554 . S
O182 C169 1.240 . S
O183 La160 2.757 . S
O183 La161 2.482 . S
O183 C169 1.289 . S
O184 La160 2.470 . S
O184 C170 1.258 . S
O185 La161 2.503 1_545 S
O185 C170 1.256 1_545 S
O186 La161 2.521 1_545 S
O186 C171 1.261 1_545 S
O187 La161 2.628 . S
O187 C171 1.243 . S
O188 La161 2.554 1_545 S
O188 C178 1.240 . S
O189 La160 2.482 1_545 S
O189 La161 2.757 1_545 S
O189 C178 1.289 . S
O190 La161 2.470 . S
O190 C179 1.258 . S
O191 La160 2.503 . S
O191 C179 1.256 . S
H192 C164 0.930 . S
H193 C165 0.930 . S
H194 C167 0.929 1_545 S
H195 C168 0.929 1_545 S
H196 C173 0.930 . S
H197 C174 0.930 . S
H198 C176 0.929 . S
H199 C177 0.929 . S
La200 C202 2.928 . S
La200 O220 2.521 . S
La200 O221 2.628 . S
La200 O222 2.554 . S
La200 O223 2.757 . S
La200 O224 2.470 . S
La200 O229 2.482 . S
La200 O231 2.503 . S
La201 C211 2.928 . S
La201 O223 2.482 . S
La201 O225 2.503 . S
La201 O226 2.521 1_545 S
La201 O227 2.628 . S
La201 O228 2.554 1_545 S
La201 O229 2.757 . S
La201 O230 2.470 . S
C202 La200 2.928 . S
C202 C203 1.503 . S
C202 O220 1.261 . S
C202 O221 1.243 . S
C203 C202 1.503 . S
C203 C204 1.394 . S
C203 C208 1.373 . S
C204 C203 1.394 . S
C204 C205 1.380 . S
C204 H232 0.930 . S
C205 C204 1.380 . S
C205 C206 1.376 . S
C205 H233 0.930 . S
C206 C205 1.376 . S
C206 C207 1.370 . S
C207 C206 1.370 . S
C207 C208 1.396 . S
C207 H234 0.929 . S
C208 C203 1.373 . S
C208 C207 1.396 . S
C208 H235 0.929 . S
C209 O222 1.240 . S
C209 O223 1.289 . S
C210 O224 1.258 . S
C210 O225 1.256 . S
C211 La201 2.928 . S
C211 C212 1.503 . S
C211 O226 1.261 1_545 S
C211 O227 1.243 . S
C212 C211 1.503 . S
C212 C213 1.394 1_545 S
C212 C217 1.373 . S
C213 C212 1.394 1_565 S
C213 C214 1.380 . S
C213 H236 0.930 . S
C214 C213 1.380 . S
C214 C215 1.376 1_565 S
C214 H237 0.930 . S
C215 C214 1.376 1_545 S
C215 C216 1.370 . S
C216 C215 1.370 . S
C216 C217 1.396 . S
C216 H238 0.929 . S
C217 C212 1.373 . S
C217 C216 1.396 . S
C217 H239 0.929 . S
C218 O228 1.240 . S
C218 O229 1.289 1_565 S
C219 O230 1.258 . S
C219 O231 1.256 . S
O220 La200 2.521 . S
O220 C202 1.261 . S
O221 La200 2.628 . S
O221 C202 1.243 . S
O222 La200 2.554 . S
O222 C209 1.240 . S
O223 La200 2.757 . S
O223 La201 2.482 . S
O223 C209 1.289 . S
O224 La200 2.470 . S
O224 C210 1.258 . S
O225 La201 2.503 . S
O225 C210 1.256 . S
O226 La201 2.521 1_565 S
O226 C211 1.261 1_565 S
O227 La201 2.628 . S
O227 C211 1.243 . S
O228 La201 2.554 1_565 S
O228 C218 1.240 . S
O229 La200 2.482 . S
O229 La201 2.757 . S
O229 C218 1.289 1_545 S
O230 La201 2.470 . S
O230 C219 1.258 . S
O231 La200 2.503 . S
O231 C219 1.256 . S
H232 C204 0.930 . S
H233 C205 0.930 . S
H234 C207 0.929 . S
H235 C208 0.929 . S
H236 C213 0.930 . S
H237 C214 0.930 . S
H238 C216 0.929 . S
H239 C217 0.929 . S
C240 C241 1.387 . S
C240 H244 0.950 . S
C240 C249 1.390 . S
C241 C240 1.387 . S
C241 C243 1.387 . S
H242 C249 0.950 . S
C243 C241 1.387 . S
C243 C245 1.390 . S
C243 H247 0.950 . S
H244 C240 0.950 . S
C245 C243 1.390 . S
C245 C246 1.387 . S
C245 H248 0.950 . S
C246 C245 1.387 . S
C246 C249 1.387 . S
H247 C243 0.950 . S
H248 C245 0.950 . S
C249 C240 1.390 . S
C249 H242 0.950 . S
C249 C246 1.387 . S
C250 C251 1.387 . S
C250 H254 0.950 . S
C250 C259 1.390 . S
C251 C250 1.387 . S
C251 C253 1.387 . S
H252 C259 0.950 . S
C253 C251 1.387 . S
C253 C255 1.390 . S
C253 H257 0.950 . S
H254 C250 0.950 . S
C255 C253 1.390 . S
C255 C256 1.387 . S
C255 H258 0.950 . S
C256 C255 1.387 . S
C256 C259 1.387 . S
H257 C253 0.950 . S
H258 C255 0.950 . S
C259 C250 1.390 . S
C259 H252 0.950 . S
C259 C256 1.387 . S
C260 C261 1.387 . S
C260 H264 0.950 . S
C260 C269 1.390 . S
C261 C260 1.387 . S
C261 C263 1.387 . S
H262 C269 0.950 . S
C263 C261 1.387 . S
C263 C265 1.390 . S
C263 H267 0.950 . S
H264 C260 0.950 . S
C265 C263 1.390 . S
C265 C266 1.387 . S
C265 H268 0.950 . S
C266 C265 1.387 . S
C266 C269 1.387 . S
H267 C263 0.950 . S
H268 C265 0.950 . S
C269 C260 1.390 . S
C269 H262 0.950 . S
C269 C266 1.387 . S
C270 C271 1.387 . S
C270 H274 0.950 . S
C270 C279 1.390 . S
C271 C270 1.387 . S
C271 C273 1.387 . S
H272 C279 0.950 . S
C273 C271 1.387 . S
C273 C275 1.390 . S
C273 H277 0.950 . S
H274 C270 0.950 . S
C275 C273 1.390 . S
C275 C276 1.387 . S
C275 H278 0.950 . S
C276 C275 1.387 . S
C276 C279 1.387 . S
H277 C273 0.950 . S
H278 C275 0.950 . S
C279 C270 1.390 . S
C279 H272 0.950 . S
C279 C276 1.387 . S
C280 C281 1.387 . S
C280 H284 0.950 . S
C280 C289 1.390 . S
C281 C280 1.387 . S
C281 C283 1.387 . S
H282 C289 0.950 . S
C283 C281 1.387 . S
C283 C285 1.390 . S
C283 H287 0.950 . S
H284 C280 0.950 . S
C285 C283 1.390 . S
C285 C286 1.387 . S
C285 H288 0.950 . S
C286 C285 1.387 . S
C286 C289 1.387 . S
H287 C283 0.950 . S
H288 C285 0.950 . S
C289 C280 1.390 . S
C289 H282 0.950 . S
C289 C286 1.387 . S
C290 C291 1.387 . S
C290 H294 0.950 . S
C290 C299 1.390 . S
C291 C290 1.387 . S
C291 C293 1.387 . S
H292 C299 0.950 . S
C293 C291 1.387 . S
C293 C295 1.390 . S
C293 H297 0.950 . S
H294 C290 0.950 . S
C295 C293 1.390 . S
C295 C296 1.387 . S
C295 H298 0.950 . S
C296 C295 1.387 . S
C296 C299 1.387 . S
H297 C293 0.950 . S
H298 C295 0.950 . S
C299 C290 1.390 . S
C299 H292 0.950 . S
C299 C296 1.387 . S
C300 C301 1.387 . S
C300 H304 0.950 . S
C300 C309 1.390 . S
C301 C300 1.387 . S
C301 C303 1.387 . S
H302 C309 0.950 . S
C303 C301 1.387 . S
C303 C305 1.390 . S
C303 H307 0.950 . S
H304 C300 0.950 . S
C305 C303 1.390 . S
C305 C306 1.387 . S
C305 H308 0.950 . S
C306 C305 1.387 . S
C306 C309 1.387 . S
H307 C303 0.950 . S
H308 C305 0.950 . S
C309 C300 1.390 . S
C309 H302 0.950 . S
C309 C306 1.387 . S
C310 C311 1.387 . S
C310 H314 0.950 . S
C310 C319 1.390 . S
C311 C310 1.387 . S
C311 C313 1.387 . S
H312 C319 0.950 . S
C313 C311 1.387 . S
C313 C315 1.390 . S
C313 H317 0.950 . S
H314 C310 0.950 . S
C315 C313 1.390 . S
C315 C316 1.387 . S
C315 H318 0.950 . S
C316 C315 1.387 . S
C316 C319 1.387 . S
H317 C313 0.950 . S
H318 C315 0.950 . S
C319 C310 1.390 . S
C319 H312 0.950 . S
C319 C316 1.387 . S
C320 C321 1.387 . S
C320 H324 0.950 . S
C320 C329 1.390 . S
C321 C320 1.387 . S
C321 C323 1.387 . S
H322 C329 0.950 . S
C323 C321 1.387 . S
C323 C325 1.390 . S
C323 H327 0.950 1_565 S
H324 C320 0.950 . S
C325 C323 1.390 . S
C325 C326 1.387 . S
C325 H328 0.950 1_565 S
C326 C325 1.387 . S
C326 C329 1.387 . S
H327 C323 0.950 1_545 S
H328 C325 0.950 1_545 S
C329 C320 1.390 . S
C329 H322 0.950 . S
C329 C326 1.387 . S
C330 C331 1.387 . S
C330 H334 0.950 . S
C330 C339 1.390 . S
C331 C330 1.387 . S
C331 C333 1.387 . S
H332 C339 0.950 . S
C333 C331 1.387 . S
C333 C335 1.390 . S
C333 H337 0.950 . S
H334 C330 0.950 . S
C335 C333 1.390 . S
C335 C336 1.387 . S
C335 H338 0.950 . S
C336 C335 1.387 . S
C336 C339 1.387 . S
H337 C333 0.950 . S
H338 C335 0.950 . S
C339 C330 1.390 . S
C339 H332 0.950 . S
C339 C336 1.387 . S
C340 C341 1.387 . S
C340 H344 0.950 . S
C340 C349 1.390 . S
C341 C340 1.387 . S
C341 C343 1.387 . S
H342 C349 0.950 . S
C343 C341 1.387 . S
C343 C345 1.390 . S
C343 H347 0.950 . S
H344 C340 0.950 . S
C345 C343 1.390 . S
C345 C346 1.387 . S
C345 H348 0.950 . S
C346 C345 1.387 . S
C346 C349 1.387 . S
H347 C343 0.950 . S
H348 C345 0.950 . S
C349 C340 1.390 . S
C349 H342 0.950 . S
C349 C346 1.387 . S
C350 C351 1.387 . S
C350 H354 0.950 . S
C350 C359 1.390 . S
C351 C350 1.387 . S
C351 C353 1.387 . S
H352 C359 0.950 . S
C353 C351 1.387 . S
C353 C355 1.390 . S
C353 H357 0.950 . S
H354 C350 0.950 . S
C355 C353 1.390 . S
C355 C356 1.387 . S
C355 H358 0.950 . S
C356 C355 1.387 . S
C356 C359 1.387 . S
H357 C353 0.950 . S
H358 C355 0.950 . S
C359 C350 1.390 . S
C359 H352 0.950 . S
C359 C356 1.387 . S
C360 C361 1.387 . S
C360 H364 0.950 1_445 S
C360 C369 1.390 1_455 S
C361 C360 1.387 . S
C361 C363 1.387 . S
H362 C369 0.950 . S
C363 C361 1.387 . S
C363 C365 1.390 . S
C363 H367 0.950 . S
H364 C360 0.950 1_665 S
C365 C363 1.390 . S
C365 C366 1.387 . S
C365 H368 0.950 1_556 S
C366 C365 1.387 . S
C366 C369 1.387 1_455 S
H367 C363 0.950 . S
H368 C365 0.950 1_554 S
C369 C360 1.390 1_655 S
C369 H362 0.950 . S
C369 C366 1.387 1_655 S
C370 C371 1.387 . S
C370 H374 0.950 . S
C370 C379 1.390 . S
C371 C370 1.387 . S
C371 C373 1.387 1_455 S
H372 C379 0.950 . S
C373 C371 1.387 1_655 S
C373 C375 1.390 1_655 S
C373 H377 0.950 . S
H374 C370 0.950 . S
C375 C373 1.390 1_455 S
C375 C376 1.387 . S
C375 H378 0.950 1_455 S
C376 C375 1.387 . S
C376 C379 1.387 . S
H377 C373 0.950 . S
H378 C375 0.950 1_655 S
C379 C370 1.390 . S
C379 H372 0.950 . S
C379 C376 1.387 . S
C380 C381 1.387 . S
C380 H384 0.950 . S
C380 C389 1.390 1_565 S
C381 C380 1.387 . S
C381 C383 1.387 1_655 S
H382 C389 0.950 . S
C383 C381 1.387 1_455 S
C383 C385 1.390 1_565 S
C383 H387 0.950 . S
H384 C380 0.950 . S
C385 C383 1.390 1_545 S
C385 C386 1.387 1_455 S
C385 H388 0.950 . S
C386 C385 1.387 1_655 S
C386 C389 1.387 . S
H387 C383 0.950 . S
H388 C385 0.950 . S
C389 C380 1.390 1_545 S
C389 H382 0.950 . S
C389 C386 1.387 . S
C390 C391 1.387 . S
C390 H394 0.950 . S
C390 C399 1.390 . S
C391 C390 1.387 . S
C391 C393 1.387 . S
H392 C399 0.950 . S
C393 C391 1.387 . S
C393 C395 1.390 . S
C393 H397 0.950 . S
H394 C390 0.950 . S
C395 C393 1.390 . S
C395 C396 1.387 1_556 S
C395 H398 0.950 . S
C396 C395 1.387 1_554 S
C396 C399 1.387 1_554 S
H397 C393 0.950 . S
H398 C395 0.950 . S
C399 C390 1.390 . S
C399 H392 0.950 . S
C399 C396 1.387 1_556 S
C400 C401 1.387 1_545 S
C400 H404 0.950 . S
C400 C409 1.390 . S
C401 C400 1.387 1_565 S
C401 C403 1.387 . S
H402 C409 0.950 . S
C403 C401 1.387 . S
C403 C405 1.390 1_455 S
C403 H407 0.950 . S
H404 C400 0.950 . S
C405 C403 1.390 1_655 S
C405 C406 1.387 . S
C405 H408 0.950 . S
C406 C405 1.387 . S
C406 C409 1.387 1_665 S
H407 C403 0.950 . S
H408 C405 0.950 . S
C409 C400 1.390 . S
C409 H402 0.950 . S
C409 C406 1.387 1_445 S
C410 C411 1.387 . S
C410 H414 0.950 . S
C410 C419 1.390 . S
C411 C410 1.387 . S
C411 C413 1.387 . S
H412 C419 0.950 . S
C413 C411 1.387 . S
C413 C415 1.390 . S
C413 H417 0.950 . S
H414 C410 0.950 . S
C415 C413 1.390 . S
C415 C416 1.387 . S
C415 H418 0.950 . S
C416 C415 1.387 . S
C416 C419 1.387 . S
H417 C413 0.950 . S
H418 C415 0.950 . S
C419 C410 1.390 . S
C419 H412 0.950 . S
C419 C416 1.387 . S
C241 C179 1.810 . S
C246 C6 1.746 . S
C251 C206 1.749 . S
C256 C59 1.812 . S
C261 C19 1.811 . S
C266 C86 1.748 . S
C271 C46 1.747 . S
C276 C139 1.811 . S
C281 C99 1.812 . S
C286 C166 1.749 . S
C291 C126 1.746 . S
C296 C219 1.810 . S
C301 C9 1.713 . S
C306 C138 1.964 . S
C311 C169 1.716 . S
C316 C58 1.966 . S
C321 C218 1.963 . S
C326 C89 1.715 . S
C331 C98 1.965 . S
C336 C209 1.717 . S
C341 C18 1.964 . S
C346 C129 1.717 . S
C351 C178 1.966 . S
C356 C49 1.714 . S
C361 C215 0.983 . S
C366 C15 0.985 1_556 S
C371 C50 1.852 1_455 S
C376 C10 1.852 . S
C381 C95 0.986 . S
C386 C55 0.986 . S
C391 C90 1.854 . S
C396 C130 1.854 . S
C401 C175 0.985 . S
C406 C135 0.984 . S
C411 C210 1.854 . S
C416 C170 1.854 1_545 S
