# Generated by pormake.
# Topology wjg, (4)-cn, num edge types: 1
# Building blocks:
#     Node 0, Type 0, BuildingBlock: ICAMEG_clean_sbu_1, # of connection points: 4
#     Node 1, Type 0, BuildingBlock: ICAMEG_clean_sbu_1, # of connection points: 4
#     Node 2, Type 0, BuildingBlock: ICAMEG_clean_sbu_1, # of connection points: 4
#     Node 3, Type 0, BuildingBlock: ICAMEG_clean_sbu_1, # of connection points: 4
#     Node 4, Type 0, BuildingBlock: ICAMEG_clean_sbu_1, # of connection points: 4
#     Node 5, Type 0, BuildingBlock: ICAMEG_clean_sbu_1, # of connection points: 4
#     Node 6, Type 0, BuildingBlock: ICAMEG_clean_sbu_1, # of connection points: 4
#     Node 7, Type 0, BuildingBlock: ICAMEG_clean_sbu_1, # of connection points: 4
#     Node 8, Type 0, BuildingBlock: ICAMEG_clean_sbu_1, # of connection points: 4
#     Node 9, Type 0, BuildingBlock: ICAMEG_clean_sbu_1, # of connection points: 4
#     Node 10, Type 0, BuildingBlock: ICAMEG_clean_sbu_1, # of connection points: 4
#     Node 11, Type 0, BuildingBlock: ICAMEG_clean_sbu_1, # of connection points: 4
#     Edge 12, Type (0, 0), BuildingBlock: OJICUG_clean_linker_0, # of connection points: 2
#     Edge 13, Type (0, 0), BuildingBlock: OJICUG_clean_linker_0, # of connection points: 2
#     Edge 14, Type (0, 0), BuildingBlock: OJICUG_clean_linker_0, # of connection points: 2
#     Edge 15, Type (0, 0), BuildingBlock: OJICUG_clean_linker_0, # of connection points: 2
#     Edge 16, Type (0, 0), BuildingBlock: OJICUG_clean_linker_0, # of connection points: 2
#     Edge 17, Type (0, 0), BuildingBlock: OJICUG_clean_linker_0, # of connection points: 2
#     Edge 18, Type (0, 0), BuildingBlock: OJICUG_clean_linker_0, # of connection points: 2
#     Edge 19, Type (0, 0), BuildingBlock: OJICUG_clean_linker_0, # of connection points: 2
#     Edge 20, Type (0, 0), BuildingBlock: OJICUG_clean_linker_0, # of connection points: 2
#     Edge 21, Type (0, 0), BuildingBlock: OJICUG_clean_linker_0, # of connection points: 2
#     Edge 22, Type (0, 0), BuildingBlock: OJICUG_clean_linker_0, # of connection points: 2
#     Edge 23, Type (0, 0), BuildingBlock: OJICUG_clean_linker_0, # of connection points: 2
#     Edge 24, Type (0, 0), BuildingBlock: OJICUG_clean_linker_0, # of connection points: 2
#     Edge 25, Type (0, 0), BuildingBlock: OJICUG_clean_linker_0, # of connection points: 2
#     Edge 26, Type (0, 0), BuildingBlock: OJICUG_clean_linker_0, # of connection points: 2
#     Edge 27, Type (0, 0), BuildingBlock: OJICUG_clean_linker_0, # of connection points: 2
#     Edge 28, Type (0, 0), BuildingBlock: OJICUG_clean_linker_0, # of connection points: 2
#     Edge 29, Type (0, 0), BuildingBlock: OJICUG_clean_linker_0, # of connection points: 2
#     Edge 30, Type (0, 0), BuildingBlock: OJICUG_clean_linker_0, # of connection points: 2
#     Edge 31, Type (0, 0), BuildingBlock: OJICUG_clean_linker_0, # of connection points: 2
#     Edge 32, Type (0, 0), BuildingBlock: OJICUG_clean_linker_0, # of connection points: 2
#     Edge 33, Type (0, 0), BuildingBlock: OJICUG_clean_linker_0, # of connection points: 2
#     Edge 34, Type (0, 0), BuildingBlock: OJICUG_clean_linker_0, # of connection points: 2
#     Edge 35, Type (0, 0), BuildingBlock: OJICUG_clean_linker_0, # of connection points: 2
# Relax obj value: 0.326
# Max RMSD: 0.130
# Mean RMSD: 0.126
data_MOF--net-wjg--node1-ICAMEG_clean_sbu_1--edge1-OJICUG_clean_linker_0
_symmetry_space_group_name_H-M    P1
_symmetry_Int_Tables_number       1
_symmetry_cell_setting            triclinic
loop_
_symmetry_equiv_pos_as_xyz
'x, y, z'
_cell_length_a     25.074386
_cell_length_b     24.948804
_cell_length_c     31.683816
_cell_angle_alpha  90.222318
_cell_angle_beta   90.113148
_cell_angle_gamma 120.19022
loop_
_atom_site_label
_atom_site_type_symbol
_atom_site_fract_x
_atom_site_fract_y
_atom_site_fract_z
_atom_type_partial_charge
Co0 Co 0.17915 0.43305 0.36116 0.0
Co1 Co 0.02491 0.32994 0.35262 0.0
O2 O 0.0997 0.40509 0.33353 0.0
C3 C 0.22043 0.56553 0.3777 0.0
O4 O 0.21551 0.55289 0.41818 0.0
C5 C 0.02553 0.31373 0.25996 0.0
O6 O 0.08384 0.33025 0.26474 0.0
O7 O 0.06479 0.27937 0.3437 0.0
O8 O 0.15769 0.34543 0.37158 0.0
H9 H 0.90219 0.13882 0.44006 0.0
H10 H 0.17955 0.48212 0.27613 0.0
O11 O 0.20268 0.52169 0.3506 0.0
H12 H 0.29362 0.36993 0.26058 0.0
H13 H 0.40897 0.56935 0.38539 0.0
H14 H 0.21667 0.3919 0.43746 0.0
H15 H 0.25385 0.37788 0.33007 0.0
H16 H 0.31073 0.53316 0.34647 0.0
O17 O 0.99389 0.31189 0.29217 0.0
H18 H 0.99755 0.22604 0.41098 0.0
H19 H 0.89177 0.27564 0.33252 0.0
H20 H 0.31378 0.42501 0.47568 0.0
H21 H 0.22129 0.47791 0.20656 0.0
H22 H 0.41095 0.51469 0.44961 0.0
H23 H 0.27844 0.42111 0.19844 0.0
O24 O 0.14245 0.43485 0.41569 0.0
H25 H 0.94673 0.47129 0.30808 0.0
H26 H 0.96386 0.35275 0.42604 0.0
H27 H 0.91489 0.41584 0.43783 0.0
H28 H 0.90672 0.47629 0.37857 0.0
H29 H 0.00186 0.41365 0.29885 0.0
H30 H 0.7954 0.18975 0.36131 0.0
H31 H 0.80046 0.12186 0.41608 0.0
O32 O 0.05521 0.34347 0.41353 0.0
C33 C 0.1166 0.29153 0.35914 0.0
C34 C 0.89956 0.1687 0.41649 0.0
C35 C 0.83958 0.19734 0.37232 0.0
N36 N 0.95019 0.25644 0.37059 0.0
C37 C 0.95335 0.21798 0.39979 0.0
C38 C 0.89428 0.24563 0.35598 0.0
C39 C 0.84243 0.15903 0.403 0.0
C40 C 0.20555 0.45849 0.27306 0.0
N41 N 0.2145 0.43062 0.30722 0.0
C42 C 0.22867 0.45586 0.23351 0.0
C43 C 0.26063 0.42389 0.22895 0.0
C44 C 0.26926 0.39527 0.26386 0.0
C45 C 0.24625 0.39959 0.30307 0.0
C46 C 0.36683 0.53012 0.39653 0.0
C47 C 0.2586 0.43055 0.4255 0.0
C48 C 0.31111 0.50957 0.3749 0.0
N49 N 0.25769 0.46056 0.38969 0.0
C50 C 0.31356 0.4492 0.44745 0.0
C51 C 0.36798 0.49949 0.43285 0.0
C52 C 0.0989 0.38848 0.43398 0.0
C53 C 0.95168 0.44663 0.3344 0.0
C54 C 0.96214 0.38026 0.40041 0.0
C55 C 0.93353 0.41526 0.40716 0.0
C56 C 0.92848 0.44875 0.37386 0.0
N57 N 0.98636 0.37982 0.36184 0.0
C58 C 0.98211 0.41313 0.32922 0.0
Co59 Co 0.76835 0.18464 0.68297 0.0
Co60 Co 0.71016 0.02908 0.67722 0.0
O61 O 0.71549 0.10567 0.65451 0.0
C62 C 0.65877 0.19524 0.65144 0.0
O63 O 0.63279 0.14232 0.63078 0.0
C64 C 0.72208 0.0228 0.58479 0.0
O65 O 0.7668 0.08071 0.58786 0.0
O66 O 0.7998 0.06409 0.6679 0.0
O67 O 0.82957 0.15786 0.69556 0.0
H68 H 0.77254 0.90408 0.76739 0.0
H69 H 0.73187 0.18471 0.59299 0.0
O70 O 0.70915 0.2144 0.67155 0.0
H71 H 0.95879 0.30272 0.59414 0.0
H72 H 0.8544 0.41092 0.7209 0.0
H73 H 0.85406 0.21939 0.75708 0.0
H74 H 0.90127 0.26099 0.66032 0.0
H75 H 0.79266 0.31595 0.67898 0.0
O76 O 0.69321 0.99363 0.61794 0.0
H77 H 0.78354 0.00014 0.73725 0.0
H78 H 0.62448 0.89483 0.66083 0.0
H79 H 0.91789 0.31371 0.79812 0.0
H80 H 0.78737 0.22848 0.52684 0.0
H81 H 0.91829 0.41074 0.78035 0.0
H82 H 0.90193 0.28773 0.52698 0.0
O83 O 0.72265 0.14778 0.73475 0.0
H84 H 0.49283 0.96239 0.63334 0.0
H85 H 0.62645 0.97332 0.75123 0.0
H86 H 0.51489 0.92842 0.76309 0.0
H87 H 0.44717 0.92266 0.70378 0.0
H88 H 0.60517 0.01177 0.62378 0.0
H89 H 0.61141 0.79769 0.6905 0.0
H90 H 0.68516 0.80221 0.74464 0.0
O91 O 0.73039 0.06339 0.73767 0.0
C92 C 0.84055 0.11552 0.68373 0.0
C93 C 0.73978 0.90168 0.74408 0.0
C94 C 0.64928 0.84194 0.70094 0.0
N95 N 0.70415 0.95313 0.69779 0.0
C96 C 0.74581 0.95589 0.72685 0.0
C97 C 0.65709 0.89708 0.68415 0.0
C98 C 0.6908 0.84446 0.73127 0.0
C99 C 0.78135 0.21212 0.5939 0.0
N100 N 0.81281 0.2214 0.63097 0.0
C101 C 0.81274 0.23622 0.55606 0.0
C102 C 0.87697 0.26929 0.55613 0.0
C103 C 0.90888 0.27786 0.59387 0.0
C104 C 0.87593 0.25396 0.63124 0.0
C105 C 0.85512 0.3691 0.72837 0.0
C106 C 0.85476 0.26123 0.74784 0.0
C107 C 0.82025 0.31494 0.70467 0.0
N108 N 0.8204 0.26164 0.71428 0.0
C109 C 0.89082 0.3147 0.77179 0.0
C110 C 0.8909 0.36898 0.76193 0.0
C111 C 0.72891 0.10848 0.75586 0.0
C112 C 0.52197 0.9657 0.65962 0.0
C113 C 0.59766 0.97264 0.72558 0.0
C114 C 0.53434 0.94647 0.73238 0.0
C115 C 0.49633 0.94298 0.69908 0.0
N116 N 0.62255 0.99552 0.68686 0.0
C117 C 0.58563 0.99308 0.65427 0.0
Co118 Co 0.68613 0.72005 1.00104 0.0
Co119 Co 0.56615 0.7483 1.00232 0.0
O120 O 0.60392 0.70184 0.97966 0.0
C121 C 0.69672 0.72251 0.9084 0.0
O122 O 0.67134 0.75743 0.90943 0.0
C123 C 0.43809 0.65187 0.02197 0.0
O124 O 0.45419 0.65054 0.06121 0.0
O125 O 0.57148 0.71823 0.05858 0.0
O126 O 0.66968 0.74151 0.06001 0.0
H127 H 0.54236 0.86917 0.11929 0.0
H128 H 0.61423 0.5995 0.95569 0.0
O129 O 0.70621 0.702 0.94283 0.0
H130 H 0.64174 0.54559 0.10051 0.0
H131 H 0.86169 0.67813 0.0177 0.0
H132 H 0.78437 0.81913 0.05402 0.0
H133 H 0.6833 0.65462 0.08047 0.0
H134 H 0.76154 0.65902 0.98993 0.0
O135 O 0.47993 0.67502 0.99361 0.0
H136 H 0.59614 0.82784 0.07788 0.0
H137 H 0.46384 0.77408 0.97946 0.0
H138 H 0.88586 0.84136 0.0809 0.0
H139 H 0.57671 0.49011 0.97361 0.0
H140 H 0.92512 0.77052 0.06278 0.0
H141 H 0.58856 0.46254 0.0468 0.0
O142 O 0.72267 0.80829 0.98519 0.0
H143 H 0.5193 0.7214 0.84703 0.0
H144 H 0.59926 0.87141 0.965 0.0
H145 H 0.59569 0.90784 0.89339 0.0
H146 H 0.55542 0.83256 0.83376 0.0
H147 H 0.52432 0.68712 0.91919 0.0
H148 H 0.40991 0.81776 0.01901 0.0
H149 H 0.4462 0.86003 0.09177 0.0
O150 O 0.64839 0.82388 0.01069 0.0
C151 C 0.62073 0.7326 0.0787 0.0
C152 C 0.52462 0.84823 0.08867 0.0
C153 C 0.45031 0.81938 0.03244 0.0
N154 N 0.5307 0.79447 0.02755 0.0
C155 C 0.55453 0.82407 0.06517 0.0
C156 C 0.48108 0.79478 0.01008 0.0
C157 C 0.471 0.84391 0.07275 0.0
C158 C 0.62107 0.58807 0.98733 0.0
N159 N 0.6508 0.63364 0.01695 0.0
C160 C 0.59944 0.52599 0.99736 0.0
C161 C 0.60617 0.51047 0.03841 0.0
C162 C 0.63572 0.55705 0.06861 0.0
C163 C 0.65837 0.61876 0.05717 0.0
C164 C 0.84534 0.70966 0.02542 0.0
C165 C 0.80128 0.78831 0.0457 0.0
C166 C 0.78855 0.69896 0.00995 0.0
N167 N 0.76678 0.73757 0.02068 0.0
C168 C 0.85878 0.8011 0.06108 0.0
C169 C 0.88078 0.76133 0.05093 0.0
C170 C 0.70246 0.84349 0.99674 0.0
C171 C 0.53687 0.75464 0.87274 0.0
C172 C 0.58201 0.83841 0.9392 0.0
C173 C 0.57985 0.85928 0.89873 0.0
C174 C 0.55721 0.81702 0.86531 0.0
N175 N 0.56211 0.77717 0.94623 0.0
C176 C 0.53962 0.73545 0.91366 0.0
Co177 Co 0.80425 0.5569 0.3338 0.0
Co178 Co 0.95271 0.67628 0.32599 0.0
O179 O 0.88581 0.59312 0.30739 0.0
C180 C 0.77285 0.42958 0.35584 0.0
O181 O 0.79201 0.44823 0.39458 0.0
C182 C 0.95335 0.68296 0.23329 0.0
O183 O 0.89298 0.65528 0.23541 0.0
O184 O 0.90083 0.71275 0.31179 0.0
O185 O 0.81293 0.64025 0.34133 0.0
H186 H 0.0412 0.87956 0.40372 0.0
H187 H 0.81345 0.50854 0.25055 0.0
O188 O 0.78981 0.4699 0.32643 0.0
H189 H 0.66555 0.58174 0.2299 0.0
H190 H 0.57948 0.40222 0.35879 0.0
H191 H 0.76277 0.59016 0.41164 0.0
H192 H 0.71283 0.58979 0.29966 0.0
H193 H 0.67392 0.45361 0.3161 0.0
O194 O 0.98548 0.69379 0.2669 0.0
H195 H 0.95798 0.77934 0.3766 0.0
H196 H 0.08913 0.74861 0.31274 0.0
H197 H 0.67069 0.53896 0.45608 0.0
H198 H 0.76654 0.49873 0.18027 0.0
H199 H 0.57986 0.44213 0.43134 0.0
H200 H 0.6922 0.5357 0.16962 0.0
O201 O 0.84493 0.56536 0.38852 0.0
H202 H 0.06623 0.56272 0.29353 0.0
H203 H 0.02136 0.67501 0.40312 0.0
H204 H 0.08936 0.63334 0.42001 0.0
H205 H 0.11298 0.57759 0.36477 0.0
H206 H 0.99444 0.60082 0.27886 0.0
H207 H 0.17402 0.84587 0.34239 0.0
H208 H 0.15032 0.91308 0.3871 0.0
O209 O 0.92089 0.66368 0.38581 0.0
C210 C 0.84681 0.69368 0.32565 0.0
C211 C 0.05215 0.85098 0.38393 0.0
C212 C 0.12664 0.83231 0.34921 0.0
N213 N 0.01859 0.75777 0.34336 0.0
C214 C 0.00516 0.79432 0.3682 0.0
C215 C 0.07837 0.77702 0.33279 0.0
C216 C 0.11334 0.86976 0.37461 0.0
C217 C 0.78073 0.52424 0.24617 0.0
N218 N 0.76595 0.5497 0.27914 0.0
C219 C 0.7545 0.51879 0.20631 0.0
C220 C 0.71285 0.53961 0.20033 0.0
C221 C 0.69791 0.56548 0.23412 0.0
C222 C 0.72509 0.5702 0.27352 0.0
C223 C 0.61978 0.44309 0.37087 0.0
C224 C 0.72329 0.54827 0.40018 0.0
C225 C 0.67338 0.47247 0.34671 0.0
N226 N 0.72525 0.5228 0.36233 0.0
C227 C 0.67096 0.51978 0.42543 0.0
C228 C 0.61958 0.46578 0.41113 0.0
C229 C 0.88286 0.61597 0.40644 0.0
C230 C 0.05618 0.58692 0.31784 0.0
C231 C 0.02951 0.64892 0.37928 0.0
C232 C 0.06888 0.62621 0.38889 0.0
C233 C 0.08241 0.59522 0.35785 0.0
N234 N 0.00357 0.64026 0.33999 0.0
C235 C 0.01568 0.60878 0.30968 0.0
Co236 Co 0.26645 0.80658 0.68145 0.0
Co237 Co 0.28423 0.94993 0.66922 0.0
O238 O 0.30492 0.88637 0.65162 0.0
C239 C 0.36624 0.77983 0.69753 0.0
O240 O 0.37041 0.79936 0.7366 0.0
C241 C 0.26928 0.94512 0.57584 0.0
O242 O 0.24013 0.88446 0.57874 0.0
O243 O 0.19494 0.89039 0.65939 0.0
O244 O 0.19108 0.81096 0.69383 0.0
H245 H 0.16504 0.02794 0.75079 0.0
H246 H 0.31442 0.81163 0.59556 0.0
O247 O 0.34019 0.79642 0.66989 0.0
H248 H 0.09233 0.65785 0.58604 0.0
H249 H 0.19655 0.58127 0.70524 0.0
H250 H 0.20481 0.76735 0.76451 0.0
H251 H 0.13883 0.70976 0.65354 0.0
H252 H 0.23932 0.6764 0.66386 0.0
O253 O 0.2912 0.97868 0.60901 0.0
H254 H 0.18709 0.94868 0.72324 0.0
H255 H 0.33757 0.08541 0.65249 0.0
H256 H 0.16358 0.6737 0.80771 0.0
H257 H 0.27003 0.75967 0.52751 0.0
H258 H 0.16078 0.58005 0.77904 0.0
H259 H 0.15815 0.68238 0.52239 0.0
O260 O 0.30435 0.8523 0.73462 0.0
H261 H 0.50696 0.07517 0.62693 0.0
H262 H 0.3586 0.02922 0.74209 0.0
H263 H 0.46836 0.10496 0.75401 0.0
H264 H 0.54331 0.12917 0.69613 0.0
H265 H 0.39742 0.99606 0.61733 0.0
H266 H 0.32105 0.16696 0.68308 0.0
H267 H 0.23296 0.13836 0.73115 0.0
O268 O 0.27484 0.92281 0.73004 0.0
C269 C 0.16481 0.83799 0.67735 0.0
C270 C 0.20311 0.041 0.72932 0.0
C271 C 0.29011 0.11889 0.69079 0.0
N272 N 0.26384 0.01231 0.68644 0.0
C273 C 0.21557 0.9962 0.71332 0.0
C274 C 0.29971 0.07255 0.67405 0.0
C275 C 0.24112 0.10288 0.71825 0.0
C276 C 0.26583 0.77754 0.59371 0.0
N277 N 0.22938 0.76387 0.62859 0.0
C278 C 0.24089 0.7485 0.55504 0.0
C279 C 0.1781 0.70523 0.55216 0.0
C280 C 0.14113 0.69155 0.58783 0.0
C281 C 0.16767 0.72152 0.62595 0.0
C282 C 0.19872 0.62195 0.71887 0.0
C283 C 0.20484 0.72734 0.75173 0.0
C284 C 0.22318 0.67629 0.69541 0.0
N285 N 0.22782 0.72883 0.71236 0.0
C286 C 0.18057 0.674 0.77628 0.0
C287 C 0.17855 0.62127 0.75993 0.0
C288 C 0.29091 0.89016 0.75172 0.0
C289 C 0.4748 0.06485 0.65253 0.0
C290 C 0.39107 0.03771 0.71707 0.0
C291 C 0.45316 0.0814 0.72387 0.0
C292 C 0.49518 0.09513 0.69129 0.0
N293 N 0.37139 0.00787 0.67901 0.0
C294 C 0.41258 0.02027 0.64718 0.0
Co295 Co 0.34132 0.30538 0.01141 0.0
Co296 Co 0.44208 0.25218 0.02543 0.0
O297 O 0.4167 0.30428 0.99564 0.0
C298 C 0.33105 0.28509 0.91858 0.0
O299 O 0.35156 0.24665 0.92484 0.0
C300 C 0.57255 0.34227 0.04652 0.0
O301 O 0.55667 0.33275 0.08644 0.0
O302 O 0.44026 0.29059 0.07945 0.0
O303 O 0.3522 0.29191 0.07324 0.0
H304 H 0.42434 0.10687 0.14106 0.0
H305 H 0.42736 0.40854 0.95625 0.0
O306 O 0.32541 0.3146 0.94986 0.0
H307 H 0.42731 0.50779 0.09107 0.0
H308 H 0.20579 0.40022 0.01429 0.0
H309 H 0.23573 0.23237 0.06903 0.0
H310 H 0.36283 0.39459 0.08191 0.0
H311 H 0.28903 0.38474 0.98663 0.0
O312 O 0.53121 0.31732 0.01779 0.0
H313 H 0.39642 0.17421 0.10188 0.0
H314 H 0.54071 0.21856 0.01442 0.0
H315 H 0.15122 0.24548 0.09704 0.0
H316 H 0.48733 0.52224 0.96277 0.0
H317 H 0.13721 0.33126 0.0707 0.0
H318 H 0.49079 0.57229 0.03125 0.0
O319 O 0.2904 0.21416 1.00406 0.0
H320 H 0.49962 0.25601 0.87322 0.0
H321 H 0.38566 0.12171 0.99304 0.0
H322 H 0.38012 0.07474 0.92338 0.0
H323 H 0.43871 0.14178 0.86323 0.0
H324 H 0.50006 0.30156 0.94246 0.0
H325 H 0.57106 0.1523 0.05383 0.0
H326 H 0.51239 0.0956 0.11689 0.0
O327 O 0.35422 0.18621 0.0335 0.0
C328 C 0.39463 0.29171 0.09554 0.0
C329 C 0.45022 0.13123 0.11332 0.0
C330 C 0.53252 0.15682 0.06417 0.0
N331 N 0.46665 0.20016 0.05563 0.0
C332 C 0.43455 0.16943 0.09087 0.0
C333 C 0.51517 0.1942 0.04216 0.0
C334 C 0.49958 0.12496 0.09979 0.0
C335 C 0.42621 0.43 0.98564 0.0
N336 N 0.39147 0.39467 0.01861 0.0
C337 C 0.4608 0.49446 0.98927 0.0
C338 C 0.46224 0.5226 0.02762 0.0
C339 C 0.42712 0.48633 0.06127 0.0
C340 C 0.3913 0.4221 0.05604 0.0
C341 C 0.21202 0.36325 0.02647 0.0
C342 C 0.22903 0.26889 0.05669 0.0
C343 C 0.25871 0.35389 0.01066 0.0
N344 N 0.26798 0.30845 0.02678 0.0
C345 C 0.18135 0.27635 0.07289 0.0
C346 C 0.17359 0.32458 0.05817 0.0
C347 C 0.30129 0.17399 0.02013 0.0
C348 C 0.47446 0.22622 0.89935 0.0
C349 C 0.41031 0.15148 0.96683 0.0
C350 C 0.40749 0.12449 0.92756 0.0
C351 C 0.44019 0.16215 0.89374 0.0
N352 N 0.44324 0.21447 0.97194 0.0
C353 C 0.47508 0.25172 0.9388 0.0
Co354 Co 0.55018 0.74795 0.32035 0.0
Co355 Co 0.66971 0.89606 0.32746 0.0
O356 O 0.5867 0.831 0.34501 0.0
C357 C 0.44267 0.77006 0.33545 0.0
O358 O 0.47721 0.82507 0.35249 0.0
C359 C 0.66923 0.90172 0.42057 0.0
O360 O 0.64583 0.84141 0.41885 0.0
O361 O 0.70367 0.8446 0.3467 0.0
O362 O 0.63374 0.75487 0.31683 0.0
H363 H 0.8761 0.97586 0.25849 0.0
H364 H 0.50545 0.76487 0.40415 0.0
O365 O 0.4659 0.7379 0.32246 0.0
H366 H 0.55764 0.60103 0.42532 0.0
H367 H 0.3804 0.52882 0.29023 0.0
H368 H 0.59148 0.69144 0.25401 0.0
H369 H 0.57323 0.65142 0.35617 0.0
H370 H 0.4291 0.62947 0.32699 0.0
O371 O 0.68271 0.93289 0.38629 0.0
H372 H 0.77155 0.89633 0.27994 0.0
H373 H 0.74625 0.03302 0.34219 0.0
H374 H 0.54525 0.59066 0.21768 0.0
H375 H 0.48858 0.71537 0.47363 0.0
H376 H 0.43868 0.50834 0.23552 0.0
H377 H 0.51475 0.63272 0.48467 0.0
O378 O 0.56041 0.78546 0.26484 0.0
H379 H 0.55187 0.00868 0.34357 0.0
H380 H 0.6808 0.96496 0.24843 0.0
H381 H 0.64492 0.03571 0.22522 0.0
H382 H 0.58167 0.05955 0.2734 0.0
H383 H 0.5879 0.93728 0.36523 0.0
H384 H 0.85062 0.11436 0.32021 0.0
H385 H 0.91615 0.08596 0.27859 0.0
O386 O 0.65923 0.85887 0.26802 0.0
C387 C 0.68702 0.79081 0.3327 0.0
C388 C 0.8479 0.98888 0.27676 0.0
C389 C 0.83356 0.06652 0.3117 0.0
N390 N 0.75246 0.96002 0.31196 0.0
C391 C 0.78854 0.94402 0.28901 0.0
C392 C 0.77458 0.02031 0.32385 0.0
C393 C 0.87037 0.05058 0.28809 0.0
C394 C 0.51612 0.72848 0.40832 0.0
N395 N 0.53921 0.71047 0.3757 0.0
C396 C 0.5069 0.70084 0.44794 0.0
C397 C 0.52174 0.6546 0.45415 0.0
C398 C 0.54585 0.63684 0.4209 0.0
C399 C 0.55454 0.6656 0.38176 0.0
C400 C 0.42705 0.56406 0.28248 0.0
C401 C 0.54569 0.65578 0.26281 0.0
C402 C 0.45496 0.62139 0.30319 0.0
N403 N 0.51364 0.66658 0.29332 0.0
C404 C 0.51951 0.59874 0.24178 0.0
C405 C 0.45973 0.55265 0.25172 0.0
C406 C 0.61198 0.81864 0.24716 0.0
C407 C 0.57974 -0.00103 0.32236 0.0
C408 C 0.65166 0.97355 0.26911 0.0
C409 C 0.63191 0.01408 0.25591 0.0
C410 C 0.59623 0.02727 0.28295 0.0
N411 N 0.63645 0.94704 0.30818 0.0
C412 C 0.60027 0.95858 0.33447 0.0
Co413 Co 0.80542 0.54964 0.65543 0.0
Co414 Co 0.77849 0.6725 0.65379 0.0
O415 O 0.75824 0.58875 0.67308 0.0
C416 C 0.69924 0.43116 0.62107 0.0
O417 O 0.71533 0.45186 0.5825 0.0
C418 C 0.77472 0.67581 0.74675 0.0
O419 O 0.81212 0.65334 0.74571 0.0
O420 O 0.86519 0.70879 0.67184 0.0
O421 O 0.88435 0.63109 0.6603 0.0
H422 H 0.90166 0.87616 0.57907 0.0
H423 H 0.72284 0.50264 0.72948 0.0
O424 O 0.72678 0.46663 0.65263 0.0
H425 H 0.92391 0.53621 0.77935 0.0
H426 H 0.84933 0.3755 0.62604 0.0
H427 H 0.91322 0.59353 0.59973 0.0
H428 H 0.91019 0.55858 0.70567 0.0
H429 H 0.79736 0.42443 0.66334 0.0
O430 O 0.7564 0.6878 0.71219 0.0
H431 H 0.87663 0.77177 0.60169 0.0
H432 H 0.72114 0.75067 0.66928 0.0
H433 H 0.96883 0.54784 0.56578 0.0
H434 H 0.73436 0.47952 0.80356 0.0
H435 H 0.93583 0.43738 0.57818 0.0
H436 H 0.83552 0.49632 0.82888 0.0
O437 O 0.795 0.56598 0.59701 0.0
H438 H 0.54889 0.56042 0.67313 0.0
H439 H 0.71935 0.67966 0.57424 0.0
H440 H 0.61262 0.64551 0.55214 0.0
H441 H 0.52668 0.58719 0.60221 0.0
H442 H 0.656 0.59318 0.69327 0.0
H443 H 0.74443 0.85499 0.64673 0.0
H444 H 0.8351 0.91836 0.60162 0.0
O445 O 0.80351 0.65937 0.59532 0.0
C446 C 0.90164 0.68758 0.66892 0.0
C447 C 0.86194 0.84895 0.59885 0.0
C448 C 0.77375 0.83704 0.63704 0.0
N449 N 0.79739 0.75495 0.63673 0.0
C450 C 0.8475 0.78972 0.61179 0.0
C451 C 0.7609 0.7781 0.64965 0.0
C452 C 0.82465 0.87262 0.61155 0.0
C453 C 0.76699 0.5102 0.74039 0.0
N454 N 0.81593 0.53244 0.71346 0.0
C455 C 0.77326 0.49701 0.78231 0.0
C456 C 0.83004 0.50649 0.79651 0.0
C457 C 0.87968 0.52898 0.76877 0.0
C458 C 0.87171 0.54178 0.72712 0.0
C459 C 0.8643 0.42384 0.62156 0.0
C460 C 0.90022 0.54638 0.60736 0.0
C461 C 0.83493 0.45174 0.64209 0.0
N462 N 0.85248 0.51226 0.63442 0.0
C463 C 0.9315 0.52045 0.58732 0.0
C464 C 0.91295 0.45857 0.59424 0.0
C465 C 0.80535 0.61427 0.57748 0.0
C466 C 0.5859 0.58587 0.65102 0.0
C467 C 0.68199 0.65232 0.59568 0.0
C468 C 0.6217 0.63368 0.58313 0.0
C469 C 0.5735 0.60089 0.61124 0.0
N470 N 0.69389 0.6386 0.63509 0.0
C471 C 0.64669 0.60469 0.66231 0.0
Co472 Co 0.10757 0.78501 0.98598 0.0
Co473 Co 0.26004 0.84809 0.01637 0.0
O474 O 0.17386 0.78314 0.01755 0.0
C475 C 0.07781 0.7819 0.07494 0.0
O476 O 0.13359 0.83015 0.07722 0.0
C477 C 0.26944 0.73654 0.99456 0.0
O478 O 0.23246 0.72603 0.96229 0.0
O479 O 0.25908 0.84513 0.95361 0.0
O480 O 0.16101 0.81517 0.93425 0.0
H481 H 0.44239 0.04202 0.96049 0.0
H482 H 0.07986 0.67019 0.03204 0.0
O483 O 0.05589 0.75676 0.039 0.0
H484 H 0.03014 0.60781 0.8827 0.0
H485 H 0.88633 0.69588 0.94004 0.0
H486 H 0.09912 0.87013 0.92464 0.0
H487 H 0.07299 0.71699 0.90417 0.0
H488 H 0.97153 0.69936 0.98167 0.0
O489 O 0.28525 0.78327 0.01878 0.0
H490 H 0.33336 0.9588 0.96272 0.0
H491 H 0.37163 0.87765 0.06717 0.0
H492 H 0.01518 0.86931 0.88338 0.0
H493 H 0.03606 0.56034 0.01206 0.0
H494 H 0.90787 0.78146 0.89086 0.0
H495 H 0.00947 0.52838 0.93692 0.0
O496 O 0.13637 0.87279 1.00141 0.0
H497 H 0.21533 0.755 0.1616 0.0
H498 H 0.30076 0.94936 0.08094 0.0
H499 H 0.29785 0.95306 0.15862 0.0
H500 H 0.25522 0.85542 0.19951 0.0
H501 H 0.21791 0.75325 0.08379 0.0
H502 H 0.48052 0.96342 0.06797 0.0
H503 H 0.51641 0.04485 0.01369 0.0
O504 O 0.23762 0.91388 0.01451 0.0
C505 C 0.21808 0.8356 0.92588 0.0
C506 C 0.42713 0.00641 0.98417 0.0
C507 C 0.4486 0.96179 0.0443 0.0
N508 N 0.34633 0.91285 0.01485 0.0
C509 C 0.3656 0.95869 0.98536 0.0
C510 C 0.38711 0.91372 0.04381 0.0
C511 C 0.46874 0.00796 0.01396 0.0
C512 C 0.06893 0.65669 0.9993 0.0
N513 N 0.07832 0.6998 0.96938 0.0
C514 C 0.0443 0.59441 0.98813 0.0
C515 C 0.02974 0.57657 0.946 0.0
C516 C 0.04105 0.6211 0.91553 0.0
C517 C 0.06567 0.6829 0.92785 0.0
C518 C 0.93284 0.73453 0.9368 0.0
C519 C 0.05254 0.83192 0.92822 0.0
C520 C 0.98123 0.73671 0.96017 0.0
N521 N 0.04032 0.78455 0.95521 0.0
C522 C 0.00517 0.83172 0.90479 0.0
C523 C 0.94498 0.78249 0.90904 0.0
C524 C 0.18959 0.91828 0.00982 0.0
C525 C 0.23428 0.79788 0.14413 0.0
C526 C 0.28148 0.90656 0.09844 0.0
C527 C 0.28035 0.90901 0.14246 0.0
C528 C 0.25658 0.85423 0.16539 0.0
N529 N 0.25969 0.85112 0.07775 0.0
C530 C 0.23611 0.7972 0.10006 0.0
Co531 Co 0.3991 0.25125 0.35916 0.0
Co532 Co 0.30996 0.09857 0.32703 0.0
O533 O 0.37793 0.1649 0.3594 0.0
C534 C 0.51793 0.25982 0.33568 0.0
O535 O 0.489 0.22091 0.30455 0.0
C536 C 0.2846 0.06614 0.41618 0.0
O537 O 0.29145 0.12167 0.41896 0.0
O538 O 0.25063 0.12592 0.34338 0.0
O539 O 0.31072 0.22736 0.35847 0.0
H540 H 0.13628 0.00903 0.22155 0.0
H541 H 0.45379 0.20889 0.42496 0.0
O542 O 0.48911 0.27733 0.36017 0.0
H543 H 0.33735 0.288 0.50308 0.0
H544 H 0.50901 0.47401 0.40917 0.0
H545 H 0.35798 0.32332 0.30813 0.0
H546 H 0.34089 0.29099 0.42529 0.0
H547 H 0.48429 0.36434 0.40906 0.0
O548 O 0.2871 0.04489 0.37974 0.0
H549 H 0.21483 0.09058 0.26752 0.0
H550 H 0.26294 0.96276 0.31745 0.0
H551 H 0.38438 0.43261 0.30555 0.0
H552 H 0.45263 0.20634 0.50281 0.0
H553 H 0.46073 0.50878 0.35611 0.0
H554 H 0.39399 0.24596 0.54235 0.0
O555 O 0.39969 0.25166 0.29649 0.0
H556 H 0.46471 0.0298 0.35104 0.0
H557 H 0.34491 0.06851 0.24429 0.0
H558 H 0.41219 0.02825 0.22175 0.0
H559 H 0.47091 0.00658 0.2754 0.0
H560 H 0.39752 0.07094 0.37214 0.0
H561 H 0.18772 0.88083 0.26954 0.0
H562 H 0.12304 0.90343 0.22197 0.0
O563 O 0.33238 0.15353 0.27575 0.0
C564 C 0.2583 0.17884 0.35313 0.0
C565 C 0.16388 -0.00157 0.24246 0.0
C566 C 0.19249 0.9264 0.2697 0.0
N567 N 0.24363 0.03152 0.29504 0.0
C568 C 0.20821 0.04434 0.26878 0.0
C569 C 0.2351 0.97299 0.29656 0.0
C570 C 0.15643 0.93921 0.24273 0.0
C571 C 0.42873 0.22685 0.44195 0.0
N572 N 0.39768 0.25029 0.42054 0.0
C573 C 0.42804 0.22507 0.48603 0.0
C574 C 0.39502 0.24719 0.50821 0.0
C575 C 0.36314 0.27068 0.48618 0.0
C576 C 0.36498 0.27185 0.44211 0.0
C577 C 0.47672 0.44124 0.38646 0.0
C578 C 0.39199 0.35627 0.32993 0.0
C579 C 0.46238 0.37932 0.38638 0.0
N580 N 0.42036 0.33767 0.35843 0.0
C581 C 0.40633 0.41804 0.32847 0.0
C582 C 0.44911 0.46075 0.35688 0.0
C583 C 0.36844 0.21131 0.26817 0.0
C584 C 0.43877 0.03839 0.32738 0.0
C585 C 0.37165 0.06082 0.26776 0.0
C586 C 0.40939 0.03766 0.25481 0.0
C587 C 0.44261 0.0258 0.28495 0.0
N588 N 0.3667 0.07134 0.30958 0.0
C589 C 0.40048 0.0615 0.33918 0.0
Co590 Co 0.16167 0.40375 0.69484 0.0
Co591 Co 0.22589 0.31563 0.66437 0.0
O592 O 0.22668 0.38327 0.6962 0.0
C593 C 0.27352 0.52335 0.67284 0.0
O594 O 0.2834 0.49448 0.6418 0.0
C595 C 0.23079 0.29121 0.75409 0.0
O596 O 0.18102 0.29579 0.75521 0.0
O597 O 0.13919 0.25545 0.67944 0.0
O598 O 0.09666 0.31446 0.69292 0.0
H599 H 0.14541 0.14219 0.55803 0.0
H600 H 0.25667 0.46093 0.76249 0.0
O601 O 0.22638 0.49437 0.69661 0.0
H602 H 0.05872 0.33942 0.83669 0.0
H603 H 0.0527 0.51675 0.7424 0.0
H604 H 0.04938 0.36345 0.64224 0.0
H605 H 0.06218 0.34159 0.75906 0.0
H606 H 0.13377 0.48794 0.74469 0.0
O607 O 0.25581 0.29375 0.71823 0.0
H608 H 0.14068 0.22 0.60355 0.0
H609 H 0.31468 0.2693 0.65746 0.0
H610 H 0.96833 0.39189 0.63826 0.0
H611 H 0.25492 0.46226 0.84032 0.0
H612 H 0.97026 0.4696 0.68812 0.0
H613 H 0.15542 0.40114 0.87797 0.0
O614 O 0.16315 0.40478 0.63225 0.0
H615 H 0.4498 0.46944 0.69072 0.0
H616 H 0.2918 0.35121 0.58239 0.0
H617 H 0.40015 0.41699 0.56103 0.0
H618 H 0.48025 0.4743 0.61549 0.0
H619 H 0.34066 0.40411 0.71058 0.0
H620 H 0.32299 0.19449 0.61037 0.0
H621 H 0.23765 0.12983 0.56081 0.0
O622 O 0.19364 0.33728 0.61229 0.0
C623 C 0.09335 0.2622 0.68766 0.0
C624 C 0.18281 0.16988 0.57973 0.0
C625 C 0.28231 0.19905 0.60933 0.0
N626 N 0.22749 0.24939 0.63302 0.0
C627 C 0.18023 0.21379 0.6058 0.0
C628 C 0.27739 0.24132 0.63582 0.0
C629 C 0.23452 0.16293 0.58132 0.0
C630 C 0.21309 0.43489 0.77862 0.0
N631 N 0.15957 0.40165 0.75616 0.0
C632 C 0.21241 0.43566 0.82271 0.0
C633 C 0.15658 0.40126 0.84382 0.0
C634 C 0.10235 0.36656 0.82072 0.0
C635 C 0.10469 0.36742 0.77669 0.0
C636 C 0.05203 0.48352 0.72004 0.0
C637 C 0.05073 0.39759 0.66398 0.0
C638 C 0.09775 0.46715 0.7212 0.0
N639 N 0.09705 0.42509 0.69321 0.0
C640 C 0.00455 0.41325 0.66163 0.0
C641 C 0.00556 0.45682 0.68969 0.0
C642 C 0.17183 0.37302 0.60427 0.0
C643 C 0.41538 0.44404 0.66668 0.0
C644 C 0.32611 0.37787 0.60617 0.0
C645 C 0.38747 0.41467 0.59389 0.0
C646 C 0.4324 0.4472 0.6245 0.0
N647 N 0.31007 0.37319 0.64779 0.0
C648 C 0.35351 0.40679 0.67779 0.0
Co649 Co 0.9036 0.22415 1.00145 0.0
Co650 Co 0.75724 0.19734 0.99421 0.0
O651 O 0.83932 0.24276 0.02001 0.0
C652 C 0.91046 0.23161 0.09451 0.0
O653 O 0.85042 0.1946 0.09284 0.0
C654 C 0.77933 0.32733 0.01152 0.0
O655 O 0.83307 0.34716 0.02986 0.0
O656 O 0.79661 0.22743 0.93965 0.0
O657 O 0.86603 0.19752 0.94205 0.0
H658 H 0.60619 0.05072 0.88614 0.0
H659 H 0.94559 0.34732 0.04023 0.0
O660 O 0.94145 0.24818 0.06015 0.0
H661 H 0.04292 0.39058 0.89997 0.0
H662 H 0.11997 0.2609 0.98566 0.0
H663 H 0.90024 0.11997 0.95435 0.0
H664 H 0.97157 0.28302 0.92202 0.0
H665 H 0.04107 0.28461 0.01237 0.0
O666 O 0.74775 0.27208 0.99754 0.0
H667 H 0.70303 0.10083 0.92641 0.0
H668 H 0.63933 0.20092 0.99903 0.0
H669 H 0.97712 0.09371 0.92951 0.0
H670 H 0.01804 0.4553 0.0199 0.0
H671 H 0.08818 0.16498 0.94497 0.0
H672 H 0.06846 0.47732 0.9496 0.0
O673 O 0.8517 0.13849 0.02057 0.0
H674 H 0.72008 0.22075 0.14771 0.0
H675 H 0.65838 0.07629 0.02691 0.0
H676 H 0.60506 0.03915 0.09489 0.0
H677 H 0.63558 0.11167 0.15589 0.0
H678 H 0.77232 0.25578 0.07927 0.0
H679 H 0.54246 0.15321 0.95813 0.0
H680 H 0.5252 0.07743 0.90141 0.0
O681 O 0.76363 0.1199 0.98963 0.0
C682 C 0.82778 0.20725 0.92143 0.0
C683 C 0.61303 0.08353 0.91097 0.0
C684 C 0.57742 0.14119 0.95135 0.0
N685 N 0.67735 0.15379 0.96557 0.0
C686 C 0.66786 0.1119 0.93428 0.0
C687 C 0.63255 0.1681 0.97439 0.0
C688 C 0.56769 0.0986 0.91949 0.0
C689 C 0.96677 0.35658 0.00945 0.0
N690 N 0.95468 0.30889 0.98251 0.0
C691 C 0.00769 0.41786 0.99805 0.0
C692 C 0.03573 0.43018 0.95858 0.0
C693 C 0.02164 0.38144 0.93075 0.0
C694 C 0.98073 0.32069 0.9433 0.0
C695 C 0.0717 0.22952 0.97961 0.0
C696 C 0.94825 0.15089 0.96193 0.0
C697 C 0.02689 0.2427 0.99428 0.0
N698 N 0.96606 0.20406 0.98464 0.0
C699 C 0.99165 0.13575 0.9476 0.0
C700 C 0.05385 0.17564 0.95633 0.0
C701 C 0.79837 0.10167 1.00601 0.0
C702 C 0.70604 0.18881 0.12128 0.0
C703 C 0.67203 0.10826 0.05323 0.0
C704 C 0.64163 0.08687 0.0917 0.0
C705 C 0.65874 0.12758 0.12589 0.0
N706 N 0.71784 0.16866 0.04874 0.0
C707 C 0.73528 0.20858 0.08228 0.0
C708 C 0.28238 0.64086 0.32141 0.0
C709 C 0.26368 0.62973 0.36382 0.0
H710 H 0.35543 0.69665 0.27883 0.0
C711 C 0.29659 0.67689 0.39387 0.0
H712 H 0.25762 0.60613 0.29726 0.0
C713 C 0.35234 0.72958 0.38295 0.0
C714 C 0.37562 0.73536 0.34197 0.0
H715 H 0.28289 0.67024 0.42671 0.0
H716 H 0.38057 0.76144 0.40769 0.0
C717 C 0.33826 0.69303 0.31068 0.0
C718 C 0.64003 0.26127 0.6022 0.0
C719 C 0.641 0.24226 0.64366 0.0
H720 H 0.65716 0.3372 0.56218 0.0
C721 C 0.64477 0.2807 0.67736 0.0
H722 H 0.6378 0.23262 0.5757 0.0
C723 C 0.6559 0.34051 0.66981 0.0
C724 C 0.66442 0.36321 0.62834 0.0
H725 H 0.64573 0.26692 0.70963 0.0
H726 H 0.66431 0.37089 0.69662 0.0
C727 C 0.65173 0.32153 0.59455 0.0
C728 C 0.36133 0.6571 0.97325 0.0
C729 C 0.37985 0.65262 0.01446 0.0
H730 H 0.31098 0.68723 0.93454 0.0
C731 C 0.35085 0.6636 0.04875 0.0
H732 H 0.38252 0.64871 0.94618 0.0
C733 C 0.31137 0.68709 0.04205 0.0
C734 C 0.29842 0.69817 1.00098 0.0
H735 H 0.36336 0.66026 0.08096 0.0
H736 H 0.29411 0.70034 0.0691 0.0
C737 C 0.32063 0.67947 0.96657 0.0
C738 C 0.61217 0.30333 0.38073 0.0
C739 C 0.58548 0.28879 0.34034 0.0
H740 H 0.69366 0.3568 0.41738 0.0
C741 C 0.62406 0.30933 0.30483 0.0
H742 H 0.5834 0.28727 0.40859 0.0
C743 C 0.68764 0.35022 0.30971 0.0
C744 C 0.7134 0.37054 0.35022 0.0
H745 H 0.6045 0.29833 0.27332 0.0
H746 H 0.71546 0.37026 0.2818 0.0
C747 C 0.67564 0.34294 0.38564 0.0
C748 C 0.35621 0.69479 0.64942 0.0
C749 C 0.36418 0.7198 0.69042 0.0
H750 H 0.32102 0.61202 0.61168 0.0
C751 C 0.35451 0.68071 0.72506 0.0
H752 H 0.36358 0.72363 0.62208 0.0
C753 C 0.32852 0.6168 0.71909 0.0
C754 C 0.31379 0.59104 0.67837 0.0
H755 H 0.36052 0.69812 0.75711 0.0
H756 H 0.3162 0.58708 0.74648 0.0
C757 C 0.33144 0.63083 0.64345 0.0
C758 C 0.70555 0.35666 0.98421 0.0
C759 C 0.7449 0.36014 0.017 0.0
H760 H 0.62002 0.35029 0.96769 0.0
C761 C 0.73548 0.37555 0.05784 0.0
H762 H 0.71203 0.34473 0.95244 0.0
C763 C 0.68196 0.3777 0.06688 0.0
C764 C 0.63761 0.36451 0.03509 0.0
H765 H 0.76499 0.37798 0.08369 0.0
H766 H 0.67243 0.38303 0.09948 0.0
C767 C 0.65249 0.35933 0.9931 0.0
C768 C 0.16466 0.24168 0.39814 0.0
C769 C 0.1331 0.24315 0.36197 0.0
H770 H 0.22837 0.21728 0.42379 0.0
C771 C 0.13134 0.20947 0.3259 0.0
H772 H 0.16632 0.2673 0.42631 0.0
C773 C 0.1673 0.18105 0.32442 0.0
C774 C 0.20461 0.18623 0.35907 0.0
H775 H 0.10776 0.21077 0.29756 0.0
H776 H 0.17086 0.16087 0.29497 0.0
C777 C 0.20018 0.21332 0.39669 0.0
C778 C 0.93909 0.13384 0.65323 0.0
C779 C 0.90436 0.13014 0.68885 0.0
H780 H 0.02907 0.18001 0.62526 0.0
C781 C 0.93455 0.15871 0.72676 0.0
H782 H 0.91642 0.11296 0.62356 0.0
C783 C -0.0018 0.19759 0.72752 0.0
C784 C 0.03226 0.2072 0.69061 0.0
H785 H 0.9083 0.15628 0.75455 0.0
H786 H 0.02007 0.22404 0.7559 0.0
C787 C 0.00324 0.1724 0.65415 0.0
C788 C 0.7546 0.00452 0.96422 0.0
C789 C 0.78037 0.03637 1.00214 0.0
H790 H 0.71362 0.91721 0.93185 0.0
C791 C 0.79046 0.00594 0.03566 0.0
H792 H 0.74803 0.02781 0.93762 0.0
C793 C 0.77016 0.94276 0.03247 0.0
C794 C 0.74179 0.91039 0.99522 0.0
H795 H 0.81101 0.03021 0.06496 0.0
H796 H 0.77321 0.91847 0.05983 0.0
C797 C 0.73608 0.94191 0.96063 0.0
C798 C 0.77408 0.78297 0.3633 0.0
C799 C 0.73403 0.77295 0.3294 0.0
H800 H 0.84313 0.76507 0.38835 0.0
C801 C 0.73978 0.74661 0.29174 0.0
H802 H 0.77051 0.80386 0.39242 0.0
C803 C 0.78305 0.72744 0.28878 0.0
C804 C 0.81976 0.73311 0.32375 0.0
H805 H 0.71016 0.73995 0.2649 0.0
H806 H 0.78489 0.70435 0.26025 0.0
C807 C 0.81611 0.762 0.36075 0.0
C808 C 0.06194 0.82618 0.65807 0.0
C809 C 0.09681 0.80494 0.67947 0.0
H810 H 0.97157 0.80543 0.63855 0.0
C811 C 0.06591 0.74802 0.70101 0.0
H812 H 0.08434 0.87001 0.64155 0.0
C813 C 0.00228 0.71093 0.69843 0.0
C814 C 0.96775 0.73045 0.67528 0.0
H815 H 0.09093 0.73057 0.71871 0.0
H816 H 0.98019 0.66653 0.71414 0.0
C817 C 0.99756 0.78927 0.65634 0.0
C818 C 0.24958 0.07428 0.05728 0.0
C819 C 0.253 0.10869 0.02145 0.0
H820 H 0.22419 0.98487 0.08162 0.0
C821 C 0.22196 0.07778 0.98432 0.0
H822 H 0.27323 0.09744 0.08622 0.0
C823 C 0.19423 0.01318 0.98164 0.0
C824 C 0.19739 0.9798 0.01615 0.0
H825 H 0.22488 0.10374 0.95623 0.0
H826 H 0.17596 0.99027 0.95158 0.0
C827 C 0.22189 0.01015 0.05463 0.0
C828 C 0.90459 0.24484 0.17271 0.0
C829 C 0.94076 0.25439 0.13645 0.0
H830 H 0.9026 0.2564 0.23968 0.0
C831 C 0.00525 0.28524 0.14108 0.0
H832 H 0.85476 0.2216 0.17041 0.0
C833 C 0.03272 0.30494 0.18108 0.0
C834 C 0.99641 0.29491 0.21735 0.0
H835 H 0.03449 0.29344 0.11392 0.0
H836 H 0.08253 0.32794 0.18354 0.0
C837 C 0.93203 0.26507 0.21254 0.0
C838 C 0.72639 0.02685 0.50555 0.0
C839 C 0.7063 0.99165 0.5428 0.0
H840 H 0.72898 0.02588 0.43788 0.0
C841 C 0.67228 0.92667 0.53939 0.0
H842 H 0.75229 0.07705 0.50697 0.0
C843 C 0.65999 0.89761 0.49974 0.0
C844 C 0.68068 0.93283 0.46249 0.0
H845 H 0.65618 0.89817 0.5674 0.0
H846 H 0.63441 0.84741 0.49836 0.0
C847 C 0.7132 0.99773 0.46591 0.0
C848 C 0.75616 0.68551 0.86522 0.0
C849 C 0.71538 0.70861 0.86721 0.0
H850 H 0.80738 0.6577 0.82581 0.0
C851 C 0.69341 0.71975 0.82924 0.0
H852 H 0.77409 0.6766 0.89385 0.0
C853 C 0.71202 0.70834 0.79022 0.0
C854 C 0.75381 0.68655 0.78816 0.0
H855 H 0.66152 0.73706 0.82959 0.0
H856 H 0.6936 0.71645 0.76162 0.0
C857 C 0.77537 0.67486 0.82615 0.0
C858 C 0.07584 0.77796 0.15342 0.0
C859 C 0.04433 0.75535 0.11481 0.0
H860 H 0.0724 0.77222 0.22064 0.0
C861 C 0.98236 0.70755 0.11534 0.0
H862 H 0.12355 0.81486 0.15435 0.0
C863 C 0.95246 0.68361 0.15388 0.0
C864 C 0.9845 0.70621 0.19235 0.0
H865 H 0.95696 0.68907 0.08614 0.0
H866 H 0.90445 0.64725 0.15357 0.0
C867 C 0.04656 0.75333 0.19161 0.0
C868 C 0.29079 0.06532 0.49476 0.0
C869 C 0.27984 0.03296 0.45622 0.0
H870 H 0.29717 0.06382 0.56192 0.0
C871 C 0.26577 0.97086 0.45721 0.0
H872 H 0.30162 0.11314 0.49554 0.0
C873 C 0.26219 0.94191 0.49602 0.0
C874 C 0.27377 0.97492 0.53441 0.0
H875 H 0.25717 0.94465 0.42817 0.0
H876 H 0.25076 0.89387 0.49595 0.0
C877 C 0.2884 0.03702 0.53312 0.0
C878 C 0.26328 0.30582 0.8718 0.0
C879 C 0.30874 0.28926 0.87587 0.0
H880 H 0.20208 0.31677 0.83105 0.0
C881 C 0.32961 0.27341 0.83908 0.0
H882 H 0.24551 0.31746 0.89936 0.0
C883 C 0.30558 0.27463 0.79905 0.0
C884 C 0.25905 0.29008 0.79531 0.0
H885 H 0.36456 0.26015 0.84126 0.0
H886 H 0.32253 0.26251 0.77131 0.0
C887 C 0.23827 0.3053 0.83233 0.0
C888 C 0.13506 0.43412 0.50574 0.0
C889 C 0.10844 0.38167 0.47927 0.0
H890 H 0.17587 0.47239 0.56591 0.0
C891 C 0.10276 0.32601 0.49418 0.0
H892 H 0.14109 0.47789 0.49472 0.0
C893 C 0.12507 0.32349 0.53434 0.0
C894 C 0.15212 0.3762 0.56067 0.0
H895 H 0.08395 0.28533 0.474 0.0
H896 H 0.12069 0.28023 0.54491 0.0
C897 C 0.15574 0.43115 0.54621 0.0
C898 C 0.76922 0.2005 0.85656 0.0
C899 C 0.80756 0.18327 0.87781 0.0
H900 H 0.71102 0.18709 0.80404 0.0
C901 C 0.81664 0.13678 0.85973 0.0
H902 H 0.76047 0.23565 0.8694 0.0
C903 C 0.78809 0.10876 0.82103 0.0
C904 C 0.7495 0.12633 0.80026 0.0
H905 H 0.84484 0.1215 0.87571 0.0
H906 H 0.79754 0.07483 0.80689 0.0
C907 C 0.73989 0.1718 0.8191 0.0
C908 C 0.67445 0.81948 0.18366 0.0
C909 C 0.61729 0.80014 0.20334 0.0
H910 H 0.72104 0.81238 0.12862 0.0
C911 C 0.56322 0.75529 0.18276 0.0
H912 H 0.71707 0.85308 0.19894 0.0
C913 C 0.56573 0.73013 0.14422 0.0
C914 C 0.62216 0.75031 0.12369 0.0
H915 H 0.51818 0.73839 0.19673 0.0
H916 H 0.52266 0.69591 0.12983 0.0
C917 C 0.67683 0.79501 0.14395 0.0
C918 C 0.87461 0.6741 0.46873 0.0
C919 C 0.87288 0.62098 0.45169 0.0
H920 H 0.85294 0.71373 0.52195 0.0
C921 C 0.84954 0.5674 0.47607 0.0
H922 H 0.89129 0.71571 0.45001 0.0
C923 C 0.8263 0.56566 0.51594 0.0
C924 C 0.82612 0.61777 0.53322 0.0
H925 H 0.84742 0.5258 0.46372 0.0
H926 H 0.80856 0.52271 0.53316 0.0
C927 C 0.85134 0.67253 0.50937 0.0
C928 C 0.20944 0.87381 0.8549 0.0
C929 C 0.23872 0.85183 0.88175 0.0
H930 H 0.20475 0.90559 0.79322 0.0
C931 C 0.28921 0.84776 0.86649 0.0
H932 H 0.17102 0.87831 0.86595 0.0
C933 C 0.3083 0.8629 0.82458 0.0
C934 C 0.27837 0.88406 0.79756 0.0
H935 H 0.31287 0.83127 0.88662 0.0
H936 H 0.34562 0.85688 0.81306 0.0
C937 C 0.22951 0.89046 0.81342 0.0
C938 C 0.32327 0.20657 0.1965 0.0
C939 C 0.3739 0.23387 0.22435 0.0
H940 H 0.28954 0.20586 0.13405 0.0
C941 C 0.42955 0.28482 0.2105 0.0
H942 H 0.27963 0.16774 0.20648 0.0
C943 C 0.43532 0.30619 0.16908 0.0
C944 C 0.38498 0.27846 0.1411 0.0
H945 H 0.4693 0.30696 0.23131 0.0
H946 H 0.47963 0.3434 0.15854 0.0
C947 C 0.32855 0.22918 0.15539 0.0
loop_
_geom_bond_atom_site_label_1
_geom_bond_atom_site_label_2
_geom_bond_distance
_geom_bond_site_symmetry_2
_ccdc_geom_bond_type
Co0 O2 2.143 . S
Co0 O8 2.074 . S
Co0 O11 2.093 . S
Co0 O24 2.097 . S
Co0 N41 2.151 . S
Co0 N49 2.214 . S
Co1 O2 2.160 . S
Co1 O7 2.058 . S
Co1 O17 2.057 . S
Co1 O32 2.037 . S
Co1 N36 2.145 1_455 S
Co1 N57 2.257 . S
O2 Co0 2.143 . S
O2 Co1 2.160 . S
C3 O4 1.278 . S
C3 O11 1.224 . S
O4 C3 1.278 . S
C5 O6 1.245 . S
C5 O17 1.232 . S
O6 C5 1.245 . S
O7 Co1 2.058 . S
O7 C33 1.269 . S
O8 Co0 2.074 . S
O8 C33 1.257 . S
H9 C34 0.930 . S
H10 C40 0.930 . S
O11 Co0 2.093 . S
O11 C3 1.224 . S
H12 C44 0.929 . S
H13 C46 0.930 . S
H14 C47 0.930 . S
H15 C45 0.929 . S
H16 C48 0.928 . S
O17 Co1 2.057 . S
O17 C5 1.232 . S
H18 C37 0.929 . S
H19 C38 0.929 . S
H20 C50 0.931 . S
H21 C42 0.929 . S
H22 C51 0.930 . S
H23 C43 0.931 . S
O24 Co0 2.097 . S
O24 C52 1.214 . S
H25 C53 0.929 . S
H26 C54 0.929 . S
H27 C55 0.930 . S
H28 C56 0.929 . S
H29 C58 0.930 . S
H30 C35 0.930 . S
H31 C39 0.930 . S
O32 Co1 2.037 . S
O32 C52 1.234 . S
C33 O7 1.269 . S
C33 O8 1.257 . S
C34 H9 0.930 . S
C34 C37 1.388 . S
C34 C39 1.418 . S
C35 H30 0.930 . S
C35 C38 1.404 . S
C35 C39 1.353 . S
N36 Co1 2.145 1_655 S
N36 C37 1.397 . S
N36 C38 1.334 . S
C37 H18 0.929 . S
C37 C34 1.388 . S
C37 N36 1.397 . S
C38 H19 0.929 . S
C38 C35 1.404 . S
C38 N36 1.334 . S
C39 H31 0.930 . S
C39 C34 1.418 . S
C39 C35 1.353 . S
C40 H10 0.930 . S
C40 N41 1.330 . S
C40 C42 1.446 . S
N41 Co0 2.151 . S
N41 C40 1.330 . S
N41 C45 1.418 . S
C42 H21 0.929 . S
C42 C40 1.446 . S
C42 C43 1.332 . S
C43 H23 0.931 . S
C43 C42 1.332 . S
C43 C44 1.267 . S
C44 H12 0.929 . S
C44 C43 1.267 . S
C44 C45 1.251 . S
C45 H15 0.929 . S
C45 N41 1.418 . S
C45 C44 1.251 . S
C46 H13 0.930 . S
C46 C48 1.406 . S
C46 C51 1.261 . S
C47 H14 0.930 . S
C47 N49 1.325 . S
C47 C50 1.357 . S
C48 H16 0.928 . S
C48 C46 1.406 . S
C48 N49 1.261 . S
N49 Co0 2.214 . S
N49 C47 1.325 . S
N49 C48 1.261 . S
C50 H20 0.931 . S
C50 C47 1.357 . S
C50 C51 1.312 . S
C51 H22 0.930 . S
C51 C46 1.261 . S
C51 C50 1.312 . S
C52 O24 1.214 . S
C52 O32 1.234 . S
C53 H25 0.929 . S
C53 C56 1.391 . S
C53 C58 1.391 1_655 S
C54 H26 0.929 . S
C54 C55 1.390 . S
C54 N57 1.391 1_655 S
C55 H27 0.930 . S
C55 C54 1.390 . S
C55 C56 1.392 . S
C56 H28 0.929 . S
C56 C53 1.391 . S
C56 C55 1.392 . S
N57 Co1 2.257 . S
N57 C54 1.391 1_455 S
N57 C58 1.388 . S
C58 H29 0.930 . S
C58 C53 1.391 1_455 S
C58 N57 1.388 . S
Co59 O61 2.143 . S
Co59 O67 2.074 . S
Co59 O70 2.093 . S
Co59 O83 2.097 . S
Co59 N100 2.151 . S
Co59 N108 2.214 . S
Co60 O61 2.160 . S
Co60 O66 2.058 . S
Co60 O76 2.057 . S
Co60 O91 2.037 . S
Co60 N95 2.145 1_545 S
Co60 N116 2.257 . S
O61 Co59 2.143 . S
O61 Co60 2.160 . S
C62 O63 1.278 . S
C62 O70 1.224 . S
O63 C62 1.278 . S
C64 O65 1.245 . S
C64 O76 1.232 . S
O65 C64 1.245 . S
O66 Co60 2.058 . S
O66 C92 1.269 . S
O67 Co59 2.074 . S
O67 C92 1.257 . S
H68 C93 0.930 . S
H69 C99 0.930 . S
O70 Co59 2.093 . S
O70 C62 1.224 . S
H71 C103 0.929 . S
H72 C105 0.930 . S
H73 C106 0.930 . S
H74 C104 0.929 . S
H75 C107 0.928 . S
O76 Co60 2.057 . S
O76 C64 1.232 . S
H77 C96 0.929 . S
H78 C97 0.929 . S
H79 C109 0.931 . S
H80 C101 0.929 . S
H81 C110 0.930 . S
H82 C102 0.931 . S
O83 Co59 2.097 . S
O83 C111 1.214 . S
H84 C112 0.929 . S
H85 C113 0.929 . S
H86 C114 0.930 . S
H87 C115 0.929 . S
H88 C117 0.930 . S
H89 C94 0.930 . S
H90 C98 0.930 . S
O91 Co60 2.037 . S
O91 C111 1.234 . S
C92 O66 1.269 . S
C92 O67 1.257 . S
C93 H68 0.930 . S
C93 C96 1.388 . S
C93 C98 1.418 . S
C94 H89 0.930 . S
C94 C97 1.404 . S
C94 C98 1.353 . S
N95 Co60 2.145 1_565 S
N95 C96 1.397 . S
N95 C97 1.334 . S
C96 H77 0.929 . S
C96 C93 1.388 . S
C96 N95 1.397 . S
C97 H78 0.929 . S
C97 C94 1.404 . S
C97 N95 1.334 . S
C98 H90 0.930 . S
C98 C93 1.418 . S
C98 C94 1.353 . S
C99 H69 0.930 . S
C99 N100 1.330 . S
C99 C101 1.446 . S
N100 Co59 2.151 . S
N100 C99 1.330 . S
N100 C104 1.418 . S
C101 H80 0.929 . S
C101 C99 1.446 . S
C101 C102 1.332 . S
C102 H82 0.931 . S
C102 C101 1.332 . S
C102 C103 1.267 . S
C103 H71 0.929 . S
C103 C102 1.267 . S
C103 C104 1.251 . S
C104 H74 0.929 . S
C104 N100 1.418 . S
C104 C103 1.251 . S
C105 H72 0.930 . S
C105 C107 1.406 . S
C105 C110 1.261 . S
C106 H73 0.930 . S
C106 N108 1.325 . S
C106 C109 1.357 . S
C107 H75 0.928 . S
C107 C105 1.406 . S
C107 N108 1.261 . S
N108 Co59 2.214 . S
N108 C106 1.325 . S
N108 C107 1.261 . S
C109 H79 0.931 . S
C109 C106 1.357 . S
C109 C110 1.312 . S
C110 H81 0.930 . S
C110 C105 1.261 . S
C110 C109 1.312 . S
C111 O83 1.214 . S
C111 O91 1.234 . S
C112 H84 0.929 . S
C112 C115 1.391 . S
C112 C117 1.391 1_565 S
C113 H85 0.929 . S
C113 C114 1.390 . S
C113 N116 1.391 1_565 S
C114 H86 0.930 . S
C114 C113 1.390 . S
C114 C115 1.392 . S
C115 H87 0.929 . S
C115 C112 1.391 . S
C115 C114 1.392 . S
N116 Co60 2.257 . S
N116 C113 1.391 1_545 S
N116 C117 1.388 . S
C117 H88 0.930 . S
C117 C112 1.391 1_545 S
C117 N116 1.388 . S
Co118 O120 2.143 1_554 S
Co118 O126 2.074 . S
Co118 O129 2.093 1_554 S
Co118 O142 2.097 1_554 S
Co118 N159 2.151 . S
Co118 N167 2.214 . S
Co119 O120 2.160 1_554 S
Co119 O125 2.058 . S
Co119 O135 2.057 . S
Co119 O150 2.037 . S
Co119 N154 2.145 . S
Co119 N175 2.257 1_554 S
O120 Co118 2.143 1_556 S
O120 Co119 2.160 1_556 S
C121 O122 1.278 . S
C121 O129 1.224 . S
O122 C121 1.278 . S
C123 O124 1.245 . S
C123 O135 1.232 1_556 S
O124 C123 1.245 . S
O125 Co119 2.058 . S
O125 C151 1.269 . S
O126 Co118 2.074 . S
O126 C151 1.257 . S
H127 C152 0.930 . S
H128 C158 0.930 . S
O129 Co118 2.093 1_556 S
O129 C121 1.224 . S
H130 C162 0.929 . S
H131 C164 0.930 . S
H132 C165 0.930 . S
H133 C163 0.929 . S
H134 C166 0.928 1_556 S
O135 Co119 2.057 . S
O135 C123 1.232 1_554 S
H136 C155 0.929 . S
H137 C156 0.929 . S
H138 C168 0.931 . S
H139 C160 0.929 1_556 S
H140 C169 0.930 . S
H141 C161 0.931 . S
O142 Co118 2.097 1_556 S
O142 C170 1.213 . S
H143 C171 0.929 . S
H144 C172 0.929 . S
H145 C173 0.930 . S
H146 C174 0.929 . S
H147 C176 0.930 . S
H148 C153 0.930 . S
H149 C157 0.930 . S
O150 Co119 2.037 . S
O150 C170 1.234 1_554 S
C151 O125 1.269 . S
C151 O126 1.257 . S
C152 H127 0.930 . S
C152 C155 1.388 . S
C152 C157 1.418 . S
C153 H148 0.930 . S
C153 C156 1.404 . S
C153 C157 1.353 . S
N154 Co119 2.145 . S
N154 C155 1.397 . S
N154 C156 1.334 . S
C155 H136 0.929 . S
C155 C152 1.388 . S
C155 N154 1.397 . S
C156 H137 0.929 . S
C156 C153 1.404 . S
C156 N154 1.334 . S
C157 H149 0.930 . S
C157 C152 1.418 . S
C157 C153 1.353 . S
C158 H128 0.930 . S
C158 N159 1.330 1_556 S
C158 C160 1.446 1_556 S
N159 Co118 2.151 . S
N159 C158 1.330 1_554 S
N159 C163 1.418 . S
C160 H139 0.929 1_554 S
C160 C158 1.446 1_554 S
C160 C161 1.332 . S
C161 H141 0.931 . S
C161 C160 1.332 . S
C161 C162 1.267 . S
C162 H130 0.929 . S
C162 C161 1.267 . S
C162 C163 1.251 . S
C163 H133 0.929 . S
C163 N159 1.418 . S
C163 C162 1.251 . S
C164 H131 0.930 . S
C164 C166 1.406 . S
C164 C169 1.261 . S
C165 H132 0.930 . S
C165 N167 1.325 . S
C165 C168 1.357 . S
C166 H134 0.928 1_554 S
C166 C164 1.406 . S
C166 N167 1.261 . S
N167 Co118 2.214 . S
N167 C165 1.325 . S
N167 C166 1.261 . S
C168 H138 0.931 . S
C168 C165 1.357 . S
C168 C169 1.312 . S
C169 H140 0.930 . S
C169 C164 1.261 . S
C169 C168 1.312 . S
C170 O142 1.213 . S
C170 O150 1.234 1_556 S
C171 H143 0.929 . S
C171 C174 1.391 . S
C171 C176 1.391 . S
C172 H144 0.929 . S
C172 C173 1.390 . S
C172 N175 1.391 . S
C173 H145 0.930 . S
C173 C172 1.390 . S
C173 C174 1.392 . S
C174 H146 0.929 . S
C174 C171 1.391 . S
C174 C173 1.392 . S
N175 Co119 2.257 1_556 S
N175 C172 1.391 . S
N175 C176 1.388 . S
C176 H147 0.930 . S
C176 C171 1.391 . S
C176 N175 1.388 . S
Co177 O179 2.143 . S
Co177 O185 2.074 . S
Co177 O188 2.093 . S
Co177 O201 2.097 . S
Co177 N218 2.151 . S
Co177 N226 2.214 . S
Co178 O179 2.160 . S
Co178 O184 2.058 . S
Co178 O194 2.057 . S
Co178 O209 2.037 . S
Co178 N213 2.145 1_655 S
Co178 N234 2.257 . S
O179 Co177 2.143 . S
O179 Co178 2.160 . S
C180 O181 1.278 . S
C180 O188 1.224 . S
O181 C180 1.278 . S
C182 O183 1.245 . S
C182 O194 1.232 . S
O183 C182 1.245 . S
O184 Co178 2.058 . S
O184 C210 1.269 . S
O185 Co177 2.074 . S
O185 C210 1.257 . S
H186 C211 0.930 . S
H187 C217 0.930 . S
O188 Co177 2.093 . S
O188 C180 1.224 . S
H189 C221 0.929 . S
H190 C223 0.930 . S
H191 C224 0.930 . S
H192 C222 0.929 . S
H193 C225 0.928 . S
O194 Co178 2.057 . S
O194 C182 1.232 . S
H195 C214 0.929 . S
H196 C215 0.929 . S
H197 C227 0.931 . S
H198 C219 0.929 . S
H199 C228 0.930 . S
H200 C220 0.931 . S
O201 Co177 2.097 . S
O201 C229 1.214 . S
H202 C230 0.929 . S
H203 C231 0.929 . S
H204 C232 0.930 . S
H205 C233 0.929 . S
H206 C235 0.930 . S
H207 C212 0.930 . S
H208 C216 0.930 . S
O209 Co178 2.037 . S
O209 C229 1.234 . S
C210 O184 1.269 . S
C210 O185 1.257 . S
C211 H186 0.930 . S
C211 C214 1.388 . S
C211 C216 1.418 . S
C212 H207 0.930 . S
C212 C215 1.404 . S
C212 C216 1.353 . S
N213 Co178 2.145 1_455 S
N213 C214 1.397 . S
N213 C215 1.334 . S
C214 H195 0.929 . S
C214 C211 1.388 . S
C214 N213 1.397 . S
C215 H196 0.929 . S
C215 C212 1.404 . S
C215 N213 1.334 . S
C216 H208 0.930 . S
C216 C211 1.418 . S
C216 C212 1.353 . S
C217 H187 0.930 . S
C217 N218 1.330 . S
C217 C219 1.446 . S
N218 Co177 2.151 . S
N218 C217 1.330 . S
N218 C222 1.418 . S
C219 H198 0.929 . S
C219 C217 1.446 . S
C219 C220 1.332 . S
C220 H200 0.931 . S
C220 C219 1.332 . S
C220 C221 1.267 . S
C221 H189 0.929 . S
C221 C220 1.267 . S
C221 C222 1.251 . S
C222 H192 0.929 . S
C222 N218 1.418 . S
C222 C221 1.251 . S
C223 H190 0.930 . S
C223 C225 1.406 . S
C223 C228 1.261 . S
C224 H191 0.930 . S
C224 N226 1.325 . S
C224 C227 1.357 . S
C225 H193 0.928 . S
C225 C223 1.406 . S
C225 N226 1.261 . S
N226 Co177 2.214 . S
N226 C224 1.325 . S
N226 C225 1.261 . S
C227 H197 0.931 . S
C227 C224 1.357 . S
C227 C228 1.312 . S
C228 H199 0.930 . S
C228 C223 1.261 . S
C228 C227 1.312 . S
C229 O201 1.214 . S
C229 O209 1.234 . S
C230 H202 0.929 . S
C230 C233 1.391 . S
C230 C235 1.391 1_455 S
C231 H203 0.929 . S
C231 C232 1.390 . S
C231 N234 1.391 1_455 S
C232 H204 0.930 . S
C232 C231 1.390 . S
C232 C233 1.392 . S
C233 H205 0.929 . S
C233 C230 1.391 . S
C233 C232 1.392 . S
N234 Co178 2.257 . S
N234 C231 1.391 1_655 S
N234 C235 1.388 . S
C235 H206 0.930 . S
C235 C230 1.391 1_655 S
C235 N234 1.388 . S
Co236 O238 2.143 . S
Co236 O244 2.074 . S
Co236 O247 2.093 . S
Co236 O260 2.097 . S
Co236 N277 2.151 . S
Co236 N285 2.214 . S
Co237 O238 2.160 . S
Co237 O243 2.058 . S
Co237 O253 2.057 . S
Co237 O268 2.037 . S
Co237 N272 2.145 1_565 S
Co237 N293 2.257 . S
O238 Co236 2.143 . S
O238 Co237 2.160 . S
C239 O240 1.278 . S
C239 O247 1.224 . S
O240 C239 1.278 . S
C241 O242 1.245 . S
C241 O253 1.232 . S
O242 C241 1.245 . S
O243 Co237 2.058 . S
O243 C269 1.269 . S
O244 Co236 2.074 . S
O244 C269 1.257 . S
H245 C270 0.930 . S
H246 C276 0.930 . S
O247 Co236 2.093 . S
O247 C239 1.224 . S
H248 C280 0.929 . S
H249 C282 0.930 . S
H250 C283 0.930 . S
H251 C281 0.929 . S
H252 C284 0.928 . S
O253 Co237 2.057 . S
O253 C241 1.232 . S
H254 C273 0.929 . S
H255 C274 0.929 . S
H256 C286 0.931 . S
H257 C278 0.929 . S
H258 C287 0.930 . S
H259 C279 0.931 . S
O260 Co236 2.097 . S
O260 C288 1.214 . S
H261 C289 0.929 . S
H262 C290 0.929 . S
H263 C291 0.930 . S
H264 C292 0.929 . S
H265 C294 0.930 . S
H266 C271 0.930 . S
H267 C275 0.930 . S
O268 Co237 2.037 . S
O268 C288 1.234 . S
C269 O243 1.269 . S
C269 O244 1.257 . S
C270 H245 0.930 . S
C270 C273 1.388 . S
C270 C275 1.418 . S
C271 H266 0.930 . S
C271 C274 1.404 . S
C271 C275 1.353 . S
N272 Co237 2.145 1_545 S
N272 C273 1.397 . S
N272 C274 1.334 . S
C273 H254 0.929 . S
C273 C270 1.388 . S
C273 N272 1.397 . S
C274 H255 0.929 . S
C274 C271 1.404 . S
C274 N272 1.334 . S
C275 H267 0.930 . S
C275 C270 1.418 . S
C275 C271 1.353 . S
C276 H246 0.930 . S
C276 N277 1.330 . S
C276 C278 1.446 . S
N277 Co236 2.151 . S
N277 C276 1.330 . S
N277 C281 1.418 . S
C278 H257 0.929 . S
C278 C276 1.446 . S
C278 C279 1.332 . S
C279 H259 0.931 . S
C279 C278 1.332 . S
C279 C280 1.267 . S
C280 H248 0.929 . S
C280 C279 1.267 . S
C280 C281 1.251 . S
C281 H251 0.929 . S
C281 N277 1.418 . S
C281 C280 1.251 . S
C282 H249 0.930 . S
C282 C284 1.406 . S
C282 C287 1.261 . S
C283 H250 0.930 . S
C283 N285 1.325 . S
C283 C286 1.357 . S
C284 H252 0.928 . S
C284 C282 1.406 . S
C284 N285 1.261 . S
N285 Co236 2.214 . S
N285 C283 1.325 . S
N285 C284 1.261 . S
C286 H256 0.931 . S
C286 C283 1.357 . S
C286 C287 1.312 . S
C287 H258 0.930 . S
C287 C282 1.261 . S
C287 C286 1.312 . S
C288 O260 1.214 . S
C288 O268 1.234 . S
C289 H261 0.929 . S
C289 C292 1.391 . S
C289 C294 1.391 1_545 S
C290 H262 0.929 . S
C290 C291 1.390 . S
C290 N293 1.391 1_545 S
C291 H263 0.930 . S
C291 C290 1.390 . S
C291 C292 1.392 . S
C292 H264 0.929 . S
C292 C289 1.391 . S
C292 C291 1.392 . S
N293 Co237 2.257 . S
N293 C290 1.391 1_565 S
N293 C294 1.388 . S
C294 H265 0.930 . S
C294 C289 1.391 1_565 S
C294 N293 1.388 . S
Co295 O297 2.143 1_554 S
Co295 O303 2.074 . S
Co295 O306 2.093 1_554 S
Co295 O319 2.097 1_554 S
Co295 N336 2.151 . S
Co295 N344 2.214 . S
Co296 O297 2.160 1_554 S
Co296 O302 2.058 . S
Co296 O312 2.057 . S
Co296 O327 2.037 . S
Co296 N331 2.145 . S
Co296 N352 2.257 1_554 S
O297 Co295 2.143 1_556 S
O297 Co296 2.160 1_556 S
C298 O299 1.278 . S
C298 O306 1.224 . S
O299 C298 1.278 . S
C300 O301 1.245 . S
C300 O312 1.232 1_556 S
O301 C300 1.245 . S
O302 Co296 2.058 . S
O302 C328 1.269 . S
O303 Co295 2.074 . S
O303 C328 1.257 . S
H304 C329 0.930 . S
H305 C335 0.930 . S
O306 Co295 2.093 1_556 S
O306 C298 1.224 . S
H307 C339 0.929 . S
H308 C341 0.930 . S
H309 C342 0.930 . S
H310 C340 0.929 . S
H311 C343 0.928 1_556 S
O312 Co296 2.057 . S
O312 C300 1.232 1_554 S
H313 C332 0.929 . S
H314 C333 0.929 . S
H315 C345 0.931 . S
H316 C337 0.929 1_556 S
H317 C346 0.930 . S
H318 C338 0.931 . S
O319 Co295 2.097 1_556 S
O319 C347 1.213 . S
H320 C348 0.929 . S
H321 C349 0.929 . S
H322 C350 0.930 . S
H323 C351 0.929 . S
H324 C353 0.930 . S
H325 C330 0.930 . S
H326 C334 0.930 . S
O327 Co296 2.037 . S
O327 C347 1.234 1_554 S
C328 O302 1.269 . S
C328 O303 1.257 . S
C329 H304 0.930 . S
C329 C332 1.388 . S
C329 C334 1.418 . S
C330 H325 0.930 . S
C330 C333 1.404 . S
C330 C334 1.353 . S
N331 Co296 2.145 . S
N331 C332 1.397 . S
N331 C333 1.334 . S
C332 H313 0.929 . S
C332 C329 1.388 . S
C332 N331 1.397 . S
C333 H314 0.929 . S
C333 C330 1.404 . S
C333 N331 1.334 . S
C334 H326 0.930 . S
C334 C329 1.418 . S
C334 C330 1.353 . S
C335 H305 0.930 . S
C335 N336 1.330 1_556 S
C335 C337 1.446 1_556 S
N336 Co295 2.151 . S
N336 C335 1.330 1_554 S
N336 C340 1.418 . S
C337 H316 0.929 1_554 S
C337 C335 1.446 1_554 S
C337 C338 1.332 . S
C338 H318 0.931 . S
C338 C337 1.332 . S
C338 C339 1.267 . S
C339 H307 0.929 . S
C339 C338 1.267 . S
C339 C340 1.251 . S
C340 H310 0.929 . S
C340 N336 1.418 . S
C340 C339 1.251 . S
C341 H308 0.930 . S
C341 C343 1.406 . S
C341 C346 1.261 . S
C342 H309 0.930 . S
C342 N344 1.325 . S
C342 C345 1.357 . S
C343 H311 0.928 1_554 S
C343 C341 1.406 . S
C343 N344 1.261 . S
N344 Co295 2.214 . S
N344 C342 1.325 . S
N344 C343 1.261 . S
C345 H315 0.931 . S
C345 C342 1.357 . S
C345 C346 1.312 . S
C346 H317 0.930 . S
C346 C341 1.261 . S
C346 C345 1.312 . S
C347 O319 1.213 . S
C347 O327 1.234 1_556 S
C348 H320 0.929 . S
C348 C351 1.391 . S
C348 C353 1.391 . S
C349 H321 0.929 . S
C349 C350 1.390 . S
C349 N352 1.391 . S
C350 H322 0.930 . S
C350 C349 1.390 . S
C350 C351 1.392 . S
C351 H323 0.929 . S
C351 C348 1.391 . S
C351 C350 1.392 . S
N352 Co296 2.257 1_556 S
N352 C349 1.391 . S
N352 C353 1.388 . S
C353 H324 0.930 . S
C353 C348 1.391 . S
C353 N352 1.388 . S
Co354 O356 2.143 . S
Co354 O362 2.074 . S
Co354 O365 2.093 . S
Co354 O378 2.097 . S
Co354 N395 2.151 . S
Co354 N403 2.214 . S
Co355 O356 2.160 . S
Co355 O361 2.058 . S
Co355 O371 2.057 . S
Co355 O386 2.037 . S
Co355 N390 2.145 1_565 S
Co355 N411 2.257 . S
O356 Co354 2.143 . S
O356 Co355 2.160 . S
C357 O358 1.278 . S
C357 O365 1.224 . S
O358 C357 1.278 . S
C359 O360 1.245 . S
C359 O371 1.232 . S
O360 C359 1.245 . S
O361 Co355 2.058 . S
O361 C387 1.269 . S
O362 Co354 2.074 . S
O362 C387 1.257 . S
H363 C388 0.930 . S
H364 C394 0.930 . S
O365 Co354 2.093 . S
O365 C357 1.224 . S
H366 C398 0.929 . S
H367 C400 0.930 . S
H368 C401 0.930 . S
H369 C399 0.929 . S
H370 C402 0.928 . S
O371 Co355 2.057 . S
O371 C359 1.232 . S
H372 C391 0.929 . S
H373 C392 0.929 . S
H374 C404 0.931 . S
H375 C396 0.929 . S
H376 C405 0.930 . S
H377 C397 0.931 . S
O378 Co354 2.097 . S
O378 C406 1.214 . S
H379 C407 0.929 . S
H380 C408 0.929 . S
H381 C409 0.930 . S
H382 C410 0.929 . S
H383 C412 0.930 . S
H384 C389 0.930 . S
H385 C393 0.930 . S
O386 Co355 2.037 . S
O386 C406 1.234 . S
C387 O361 1.269 . S
C387 O362 1.257 . S
C388 H363 0.930 . S
C388 C391 1.388 . S
C388 C393 1.418 . S
C389 H384 0.930 . S
C389 C392 1.404 . S
C389 C393 1.353 . S
N390 Co355 2.145 1_545 S
N390 C391 1.397 . S
N390 C392 1.334 . S
C391 H372 0.929 . S
C391 C388 1.388 . S
C391 N390 1.397 . S
C392 H373 0.929 . S
C392 C389 1.404 . S
C392 N390 1.334 . S
C393 H385 0.930 . S
C393 C388 1.418 . S
C393 C389 1.353 . S
C394 H364 0.930 . S
C394 N395 1.330 . S
C394 C396 1.446 . S
N395 Co354 2.151 . S
N395 C394 1.330 . S
N395 C399 1.418 . S
C396 H375 0.929 . S
C396 C394 1.446 . S
C396 C397 1.332 . S
C397 H377 0.931 . S
C397 C396 1.332 . S
C397 C398 1.267 . S
C398 H366 0.929 . S
C398 C397 1.267 . S
C398 C399 1.251 . S
C399 H369 0.929 . S
C399 N395 1.418 . S
C399 C398 1.251 . S
C400 H367 0.930 . S
C400 C402 1.406 . S
C400 C405 1.261 . S
C401 H368 0.930 . S
C401 N403 1.325 . S
C401 C404 1.357 . S
C402 H370 0.928 . S
C402 C400 1.406 . S
C402 N403 1.261 . S
N403 Co354 2.214 . S
N403 C401 1.325 . S
N403 C402 1.261 . S
C404 H374 0.931 . S
C404 C401 1.357 . S
C404 C405 1.312 . S
C405 H376 0.930 . S
C405 C400 1.261 . S
C405 C404 1.312 . S
C406 O378 1.214 . S
C406 O386 1.234 . S
C407 H379 0.929 . S
C407 C410 1.391 . S
C407 C412 1.391 1_545 S
C408 H380 0.929 . S
C408 C409 1.390 . S
C408 N411 1.391 1_545 S
C409 H381 0.930 . S
C409 C408 1.390 . S
C409 C410 1.392 . S
C410 H382 0.929 . S
C410 C407 1.391 . S
C410 C409 1.392 . S
N411 Co355 2.257 . S
N411 C408 1.391 1_565 S
N411 C412 1.388 . S
C412 H383 0.930 . S
C412 C407 1.391 1_565 S
C412 N411 1.388 . S
Co413 O415 2.143 . S
Co413 O421 2.074 . S
Co413 O424 2.093 . S
Co413 O437 2.097 . S
Co413 N454 2.151 . S
Co413 N462 2.214 . S
Co414 O415 2.160 . S
Co414 O420 2.058 . S
Co414 O430 2.057 . S
Co414 O445 2.037 . S
Co414 N449 2.145 . S
Co414 N470 2.257 . S
O415 Co413 2.143 . S
O415 Co414 2.160 . S
C416 O417 1.278 . S
C416 O424 1.224 . S
O417 C416 1.278 . S
C418 O419 1.245 . S
C418 O430 1.232 . S
O419 C418 1.245 . S
O420 Co414 2.058 . S
O420 C446 1.269 . S
O421 Co413 2.074 . S
O421 C446 1.257 . S
H422 C447 0.930 . S
H423 C453 0.930 . S
O424 Co413 2.093 . S
O424 C416 1.224 . S
H425 C457 0.929 . S
H426 C459 0.930 . S
H427 C460 0.930 . S
H428 C458 0.929 . S
H429 C461 0.928 . S
O430 Co414 2.057 . S
O430 C418 1.232 . S
H431 C450 0.929 . S
H432 C451 0.929 . S
H433 C463 0.931 . S
H434 C455 0.929 . S
H435 C464 0.930 . S
H436 C456 0.931 . S
O437 Co413 2.097 . S
O437 C465 1.214 . S
H438 C466 0.929 . S
H439 C467 0.929 . S
H440 C468 0.930 . S
H441 C469 0.929 . S
H442 C471 0.930 . S
H443 C448 0.930 . S
H444 C452 0.930 . S
O445 Co414 2.037 . S
O445 C465 1.234 . S
C446 O420 1.269 . S
C446 O421 1.257 . S
C447 H422 0.930 . S
C447 C450 1.388 . S
C447 C452 1.418 . S
C448 H443 0.930 . S
C448 C451 1.404 . S
C448 C452 1.353 . S
N449 Co414 2.145 . S
N449 C450 1.397 . S
N449 C451 1.334 . S
C450 H431 0.929 . S
C450 C447 1.388 . S
C450 N449 1.397 . S
C451 H432 0.929 . S
C451 C448 1.404 . S
C451 N449 1.334 . S
C452 H444 0.930 . S
C452 C447 1.418 . S
C452 C448 1.353 . S
C453 H423 0.930 . S
C453 N454 1.330 . S
C453 C455 1.446 . S
N454 Co413 2.151 . S
N454 C453 1.330 . S
N454 C458 1.418 . S
C455 H434 0.929 . S
C455 C453 1.446 . S
C455 C456 1.332 . S
C456 H436 0.931 . S
C456 C455 1.332 . S
C456 C457 1.267 . S
C457 H425 0.929 . S
C457 C456 1.267 . S
C457 C458 1.251 . S
C458 H428 0.929 . S
C458 N454 1.418 . S
C458 C457 1.251 . S
C459 H426 0.930 . S
C459 C461 1.406 . S
C459 C464 1.261 . S
C460 H427 0.930 . S
C460 N462 1.325 . S
C460 C463 1.357 . S
C461 H429 0.928 . S
C461 C459 1.406 . S
C461 N462 1.261 . S
N462 Co413 2.214 . S
N462 C460 1.325 . S
N462 C461 1.261 . S
C463 H433 0.931 . S
C463 C460 1.357 . S
C463 C464 1.312 . S
C464 H435 0.930 . S
C464 C459 1.261 . S
C464 C463 1.312 . S
C465 O437 1.214 . S
C465 O445 1.234 . S
C466 H438 0.929 . S
C466 C469 1.391 . S
C466 C471 1.391 . S
C467 H439 0.929 . S
C467 C468 1.390 . S
C467 N470 1.391 . S
C468 H440 0.930 . S
C468 C467 1.390 . S
C468 C469 1.392 . S
C469 H441 0.929 . S
C469 C466 1.391 . S
C469 C468 1.392 . S
N470 Co414 2.257 . S
N470 C467 1.391 . S
N470 C471 1.388 . S
C471 H442 0.930 . S
C471 C466 1.391 . S
C471 N470 1.388 . S
Co472 O474 2.143 1_556 S
Co472 O480 2.074 . S
Co472 O483 2.093 1_556 S
Co472 O496 2.097 1_556 S
Co472 N513 2.151 1_455 S
Co472 N521 2.214 1_455 S
Co473 O474 2.160 1_556 S
Co473 O479 2.058 . S
Co473 O489 2.057 . S
Co473 O504 2.037 . S
Co473 N508 2.145 . S
Co473 N529 2.257 1_556 S
O474 Co472 2.143 1_554 S
O474 Co473 2.160 1_554 S
C475 O476 1.278 . S
C475 O483 1.224 . S
O476 C475 1.278 . S
C477 O478 1.245 . S
C477 O489 1.232 1_554 S
O478 C477 1.245 . S
O479 Co473 2.058 . S
O479 C505 1.269 . S
O480 Co472 2.074 . S
O480 C505 1.257 . S
H481 C506 0.930 . S
H482 C512 0.930 . S
O483 Co472 2.093 1_554 S
O483 C475 1.224 . S
H484 C516 0.929 . S
H485 C518 0.930 . S
H486 C519 0.930 1_455 S
H487 C517 0.929 . S
H488 C520 0.928 1_554 S
O489 Co473 2.057 . S
O489 C477 1.232 1_556 S
H490 C509 0.929 . S
H491 C510 0.929 . S
H492 C522 0.931 . S
H493 C514 0.929 1_554 S
H494 C523 0.930 . S
H495 C515 0.931 . S
O496 Co472 2.097 1_554 S
O496 C524 1.213 . S
H497 C525 0.929 . S
H498 C526 0.929 . S
H499 C527 0.930 . S
H500 C528 0.929 . S
H501 C530 0.930 . S
H502 C507 0.930 . S
H503 C511 0.930 . S
O504 Co473 2.037 . S
O504 C524 1.234 1_556 S
C505 O479 1.269 . S
C505 O480 1.257 . S
C506 H481 0.930 . S
C506 C509 1.388 . S
C506 C511 1.418 . S
C507 H502 0.930 . S
C507 C510 1.404 . S
C507 C511 1.353 . S
N508 Co473 2.145 . S
N508 C509 1.397 . S
N508 C510 1.334 . S
C509 H490 0.929 . S
C509 C506 1.388 . S
C509 N508 1.397 . S
C510 H491 0.929 . S
C510 C507 1.404 . S
C510 N508 1.334 . S
C511 H503 0.930 . S
C511 C506 1.418 . S
C511 C507 1.353 . S
C512 H482 0.930 . S
C512 N513 1.330 1_554 S
C512 C514 1.446 1_554 S
N513 Co472 2.151 1_655 S
N513 C512 1.330 1_556 S
N513 C517 1.418 . S
C514 H493 0.929 1_556 S
C514 C512 1.446 1_556 S
C514 C515 1.332 . S
C515 H495 0.931 . S
C515 C514 1.332 . S
C515 C516 1.267 . S
C516 H484 0.929 . S
C516 C515 1.267 . S
C516 C517 1.251 . S
C517 H487 0.929 . S
C517 N513 1.418 . S
C517 C516 1.251 . S
C518 H485 0.930 . S
C518 C520 1.406 . S
C518 C523 1.261 . S
C519 H486 0.930 1_655 S
C519 N521 1.325 . S
C519 C522 1.357 . S
C520 H488 0.928 1_556 S
C520 C518 1.406 . S
C520 N521 1.261 . S
N521 Co472 2.214 1_655 S
N521 C519 1.325 . S
N521 C520 1.261 . S
C522 H492 0.931 . S
C522 C519 1.357 . S
C522 C523 1.312 . S
C523 H494 0.930 . S
C523 C518 1.261 . S
C523 C522 1.312 . S
C524 O496 1.213 . S
C524 O504 1.234 1_554 S
C525 H497 0.929 . S
C525 C528 1.391 . S
C525 C530 1.391 . S
C526 H498 0.929 . S
C526 C527 1.390 . S
C526 N529 1.391 . S
C527 H499 0.930 . S
C527 C526 1.390 . S
C527 C528 1.392 . S
C528 H500 0.929 . S
C528 C525 1.391 . S
C528 C527 1.392 . S
N529 Co473 2.257 1_554 S
N529 C526 1.391 . S
N529 C530 1.388 . S
C530 H501 0.930 . S
C530 C525 1.391 . S
C530 N529 1.388 . S
Co531 O533 2.143 . S
Co531 O539 2.074 . S
Co531 O542 2.093 . S
Co531 O555 2.097 . S
Co531 N572 2.151 . S
Co531 N580 2.214 . S
Co532 O533 2.160 . S
Co532 O538 2.058 . S
Co532 O548 2.057 . S
Co532 O563 2.037 . S
Co532 N567 2.145 1_545 S
Co532 N588 2.257 . S
O533 Co531 2.143 . S
O533 Co532 2.160 . S
C534 O535 1.278 . S
C534 O542 1.224 . S
O535 C534 1.278 . S
C536 O537 1.245 . S
C536 O548 1.232 . S
O537 C536 1.245 . S
O538 Co532 2.058 . S
O538 C564 1.269 . S
O539 Co531 2.074 . S
O539 C564 1.257 . S
H540 C565 0.930 . S
H541 C571 0.930 . S
O542 Co531 2.093 . S
O542 C534 1.224 . S
H543 C575 0.929 . S
H544 C577 0.930 . S
H545 C578 0.930 . S
H546 C576 0.929 . S
H547 C579 0.928 . S
O548 Co532 2.057 . S
O548 C536 1.232 . S
H549 C568 0.929 . S
H550 C569 0.929 . S
H551 C581 0.931 . S
H552 C573 0.929 . S
H553 C582 0.930 . S
H554 C574 0.931 . S
O555 Co531 2.097 . S
O555 C583 1.214 . S
H556 C584 0.929 . S
H557 C585 0.929 . S
H558 C586 0.930 . S
H559 C587 0.929 . S
H560 C589 0.930 . S
H561 C566 0.930 . S
H562 C570 0.930 . S
O563 Co532 2.037 . S
O563 C583 1.234 . S
C564 O538 1.269 . S
C564 O539 1.257 . S
C565 H540 0.930 . S
C565 C568 1.388 . S
C565 C570 1.418 . S
C566 H561 0.930 . S
C566 C569 1.404 . S
C566 C570 1.353 . S
N567 Co532 2.145 1_565 S
N567 C568 1.397 . S
N567 C569 1.334 . S
C568 H549 0.929 . S
C568 C565 1.388 . S
C568 N567 1.397 . S
C569 H550 0.929 . S
C569 C566 1.404 . S
C569 N567 1.334 . S
C570 H562 0.930 . S
C570 C565 1.418 . S
C570 C566 1.353 . S
C571 H541 0.930 . S
C571 N572 1.330 . S
C571 C573 1.446 . S
N572 Co531 2.151 . S
N572 C571 1.330 . S
N572 C576 1.418 . S
C573 H552 0.929 . S
C573 C571 1.446 . S
C573 C574 1.332 . S
C574 H554 0.931 . S
C574 C573 1.332 . S
C574 C575 1.267 . S
C575 H543 0.929 . S
C575 C574 1.267 . S
C575 C576 1.251 . S
C576 H546 0.929 . S
C576 N572 1.418 . S
C576 C575 1.251 . S
C577 H544 0.930 . S
C577 C579 1.406 . S
C577 C582 1.261 . S
C578 H545 0.930 . S
C578 N580 1.325 . S
C578 C581 1.357 . S
C579 H547 0.928 . S
C579 C577 1.406 . S
C579 N580 1.261 . S
N580 Co531 2.214 . S
N580 C578 1.325 . S
N580 C579 1.261 . S
C581 H551 0.931 . S
C581 C578 1.357 . S
C581 C582 1.312 . S
C582 H553 0.930 . S
C582 C577 1.261 . S
C582 C581 1.312 . S
C583 O555 1.214 . S
C583 O563 1.234 . S
C584 H556 0.929 . S
C584 C587 1.391 . S
C584 C589 1.391 1_565 S
C585 H557 0.929 . S
C585 C586 1.390 . S
C585 N588 1.391 1_565 S
C586 H558 0.930 . S
C586 C585 1.390 . S
C586 C587 1.392 . S
C587 H559 0.929 . S
C587 C584 1.391 . S
C587 C586 1.392 . S
N588 Co532 2.257 . S
N588 C585 1.391 1_545 S
N588 C589 1.388 . S
C589 H560 0.930 . S
C589 C584 1.391 1_545 S
C589 N588 1.388 . S
Co590 O592 2.143 . S
Co590 O598 2.074 . S
Co590 O601 2.093 . S
Co590 O614 2.097 . S
Co590 N631 2.151 . S
Co590 N639 2.214 . S
Co591 O592 2.160 . S
Co591 O597 2.058 . S
Co591 O607 2.057 . S
Co591 O622 2.037 . S
Co591 N626 2.145 . S
Co591 N647 2.257 . S
O592 Co590 2.143 . S
O592 Co591 2.160 . S
C593 O594 1.278 . S
C593 O601 1.224 . S
O594 C593 1.278 . S
C595 O596 1.245 . S
C595 O607 1.232 . S
O596 C595 1.245 . S
O597 Co591 2.058 . S
O597 C623 1.269 . S
O598 Co590 2.074 . S
O598 C623 1.257 . S
H599 C624 0.930 . S
H600 C630 0.930 . S
O601 Co590 2.093 . S
O601 C593 1.224 . S
H602 C634 0.929 . S
H603 C636 0.930 . S
H604 C637 0.930 . S
H605 C635 0.929 . S
H606 C638 0.928 . S
O607 Co591 2.057 . S
O607 C595 1.232 . S
H608 C627 0.929 . S
H609 C628 0.929 . S
H610 C640 0.931 . S
H611 C632 0.929 . S
H612 C641 0.930 . S
H613 C633 0.931 . S
O614 Co590 2.097 . S
O614 C642 1.214 . S
H615 C643 0.929 . S
H616 C644 0.929 . S
H617 C645 0.930 . S
H618 C646 0.929 . S
H619 C648 0.930 . S
H620 C625 0.930 . S
H621 C629 0.930 . S
O622 Co591 2.037 . S
O622 C642 1.234 . S
C623 O597 1.269 . S
C623 O598 1.257 . S
C624 H599 0.930 . S
C624 C627 1.388 . S
C624 C629 1.418 . S
C625 H620 0.930 . S
C625 C628 1.404 . S
C625 C629 1.353 . S
N626 Co591 2.145 . S
N626 C627 1.397 . S
N626 C628 1.334 . S
C627 H608 0.929 . S
C627 C624 1.388 . S
C627 N626 1.397 . S
C628 H609 0.929 . S
C628 C625 1.404 . S
C628 N626 1.334 . S
C629 H621 0.930 . S
C629 C624 1.418 . S
C629 C625 1.353 . S
C630 H600 0.930 . S
C630 N631 1.330 . S
C630 C632 1.446 . S
N631 Co590 2.151 . S
N631 C630 1.330 . S
N631 C635 1.418 . S
C632 H611 0.929 . S
C632 C630 1.446 . S
C632 C633 1.332 . S
C633 H613 0.931 . S
C633 C632 1.332 . S
C633 C634 1.267 . S
C634 H602 0.929 . S
C634 C633 1.267 . S
C634 C635 1.251 . S
C635 H605 0.929 . S
C635 N631 1.418 . S
C635 C634 1.251 . S
C636 H603 0.930 . S
C636 C638 1.406 . S
C636 C641 1.261 . S
C637 H604 0.930 . S
C637 N639 1.325 . S
C637 C640 1.357 . S
C638 H606 0.928 . S
C638 C636 1.406 . S
C638 N639 1.261 . S
N639 Co590 2.214 . S
N639 C637 1.325 . S
N639 C638 1.261 . S
C640 H610 0.931 . S
C640 C637 1.357 . S
C640 C641 1.312 . S
C641 H612 0.930 . S
C641 C636 1.261 . S
C641 C640 1.312 . S
C642 O614 1.214 . S
C642 O622 1.234 . S
C643 H615 0.929 . S
C643 C646 1.391 . S
C643 C648 1.391 . S
C644 H616 0.929 . S
C644 C645 1.390 . S
C644 N647 1.391 . S
C645 H617 0.930 . S
C645 C644 1.390 . S
C645 C646 1.392 . S
C646 H618 0.929 . S
C646 C643 1.391 . S
C646 C645 1.392 . S
N647 Co591 2.257 . S
N647 C644 1.391 . S
N647 C648 1.388 . S
C648 H619 0.930 . S
C648 C643 1.391 . S
C648 N647 1.388 . S
Co649 O651 2.143 1_556 S
Co649 O657 2.074 . S
Co649 O660 2.093 1_556 S
Co649 O673 2.097 1_556 S
Co649 N690 2.151 1_655 S
Co649 N698 2.214 1_655 S
Co650 O651 2.160 1_556 S
Co650 O656 2.058 . S
Co650 O666 2.057 . S
Co650 O681 2.037 . S
Co650 N685 2.145 . S
Co650 N706 2.257 1_556 S
O651 Co649 2.143 1_554 S
O651 Co650 2.160 1_554 S
C652 O653 1.278 . S
C652 O660 1.224 . S
O653 C652 1.278 . S
C654 O655 1.245 . S
C654 O666 1.232 1_554 S
O655 C654 1.245 . S
O656 Co650 2.058 . S
O656 C682 1.269 . S
O657 Co649 2.074 . S
O657 C682 1.257 . S
H658 C683 0.930 . S
H659 C689 0.930 . S
O660 Co649 2.093 1_554 S
O660 C652 1.224 . S
H661 C693 0.929 . S
H662 C695 0.930 . S
H663 C696 0.930 1_655 S
H664 C694 0.929 . S
H665 C697 0.928 1_554 S
O666 Co650 2.057 . S
O666 C654 1.232 1_556 S
H667 C686 0.929 . S
H668 C687 0.929 . S
H669 C699 0.931 . S
H670 C691 0.929 1_554 S
H671 C700 0.930 . S
H672 C692 0.931 . S
O673 Co649 2.097 1_554 S
O673 C701 1.213 . S
H674 C702 0.929 . S
H675 C703 0.929 . S
H676 C704 0.930 . S
H677 C705 0.929 . S
H678 C707 0.930 . S
H679 C684 0.930 . S
H680 C688 0.930 . S
O681 Co650 2.037 . S
O681 C701 1.234 1_556 S
C682 O656 1.269 . S
C682 O657 1.257 . S
C683 H658 0.930 . S
C683 C686 1.388 . S
C683 C688 1.418 . S
C684 H679 0.930 . S
C684 C687 1.404 . S
C684 C688 1.353 . S
N685 Co650 2.145 . S
N685 C686 1.397 . S
N685 C687 1.334 . S
C686 H667 0.929 . S
C686 C683 1.388 . S
C686 N685 1.397 . S
C687 H668 0.929 . S
C687 C684 1.404 . S
C687 N685 1.334 . S
C688 H680 0.930 . S
C688 C683 1.418 . S
C688 C684 1.353 . S
C689 H659 0.930 . S
C689 N690 1.330 1_554 S
C689 C691 1.446 1_554 S
N690 Co649 2.151 1_455 S
N690 C689 1.330 1_556 S
N690 C694 1.418 . S
C691 H670 0.929 1_556 S
C691 C689 1.446 1_556 S
C691 C692 1.332 . S
C692 H672 0.931 . S
C692 C691 1.332 . S
C692 C693 1.267 . S
C693 H661 0.929 . S
C693 C692 1.267 . S
C693 C694 1.251 . S
C694 H664 0.929 . S
C694 N690 1.418 . S
C694 C693 1.251 . S
C695 H662 0.930 . S
C695 C697 1.406 . S
C695 C700 1.261 . S
C696 H663 0.930 1_455 S
C696 N698 1.325 . S
C696 C699 1.357 . S
C697 H665 0.928 1_556 S
C697 C695 1.406 . S
C697 N698 1.261 . S
N698 Co649 2.214 1_455 S
N698 C696 1.325 . S
N698 C697 1.261 . S
C699 H669 0.931 . S
C699 C696 1.357 . S
C699 C700 1.312 . S
C700 H671 0.930 . S
C700 C695 1.261 . S
C700 C699 1.312 . S
C701 O673 1.213 . S
C701 O681 1.234 1_554 S
C702 H674 0.929 . S
C702 C705 1.391 . S
C702 C707 1.391 . S
C703 H675 0.929 . S
C703 C704 1.390 . S
C703 N706 1.391 . S
C704 H676 0.930 . S
C704 C703 1.390 . S
C704 C705 1.392 . S
C705 H677 0.929 . S
C705 C702 1.391 . S
C705 C704 1.392 . S
N706 Co650 2.257 1_554 S
N706 C703 1.391 . S
N706 C707 1.388 . S
C707 H678 0.930 . S
C707 C702 1.391 . S
C707 N706 1.388 . S
C708 C709 1.387 . S
C708 H712 0.950 . S
C708 C717 1.390 . S
C709 C708 1.387 . S
C709 C711 1.387 . S
H710 C717 0.950 . S
C711 C709 1.387 . S
C711 C713 1.390 . S
C711 H715 0.950 . S
H712 C708 0.950 . S
C713 C711 1.390 . S
C713 C714 1.387 . S
C713 H716 0.950 . S
C714 C713 1.387 . S
C714 C717 1.387 . S
H715 C711 0.950 . S
H716 C713 0.950 . S
C717 C708 1.390 . S
C717 H710 0.950 . S
C717 C714 1.387 . S
C718 C719 1.387 . S
C718 H722 0.950 . S
C718 C727 1.390 . S
C719 C718 1.387 . S
C719 C721 1.387 . S
H720 C727 0.950 . S
C721 C719 1.387 . S
C721 C723 1.390 . S
C721 H725 0.950 . S
H722 C718 0.950 . S
C723 C721 1.390 . S
C723 C724 1.387 . S
C723 H726 0.950 . S
C724 C723 1.387 . S
C724 C727 1.387 . S
H725 C721 0.950 . S
H726 C723 0.950 . S
C727 C718 1.390 . S
C727 H720 0.950 . S
C727 C724 1.387 . S
C728 C729 1.387 . S
C728 H732 0.950 . S
C728 C737 1.390 1_556 S
C729 C728 1.387 . S
C729 C731 1.387 . S
H730 C737 0.950 . S
C731 C729 1.387 . S
C731 C733 1.390 1_556 S
C731 H735 0.950 . S
H732 C728 0.950 . S
C733 C731 1.390 1_554 S
C733 C734 1.387 . S
C733 H736 0.950 . S
C734 C733 1.387 . S
C734 C737 1.387 . S
H735 C731 0.950 . S
H736 C733 0.950 . S
C737 C728 1.390 1_554 S
C737 H730 0.950 . S
C737 C734 1.387 . S
C738 C739 1.387 . S
C738 H742 0.950 . S
C738 C747 1.390 . S
C739 C738 1.387 . S
C739 C741 1.387 . S
H740 C747 0.950 . S
C741 C739 1.387 . S
C741 C743 1.390 . S
C741 H745 0.950 . S
H742 C738 0.950 . S
C743 C741 1.390 . S
C743 C744 1.387 . S
C743 H746 0.950 . S
C744 C743 1.387 . S
C744 C747 1.387 . S
H745 C741 0.950 . S
H746 C743 0.950 . S
C747 C738 1.390 . S
C747 H740 0.950 . S
C747 C744 1.387 . S
C748 C749 1.387 . S
C748 H752 0.950 . S
C748 C757 1.390 . S
C749 C748 1.387 . S
C749 C751 1.387 . S
H750 C757 0.950 . S
C751 C749 1.387 . S
C751 C753 1.390 . S
C751 H755 0.950 . S
H752 C748 0.950 . S
C753 C751 1.390 . S
C753 C754 1.387 . S
C753 H756 0.950 . S
C754 C753 1.387 . S
C754 C757 1.387 . S
H755 C751 0.950 . S
H756 C753 0.950 . S
C757 C748 1.390 . S
C757 H750 0.950 . S
C757 C754 1.387 . S
C758 C759 1.388 . S
C758 H762 0.950 . S
C758 C767 1.389 1_554 S
C759 C758 1.388 . S
C759 C761 1.387 . S
H760 C767 0.950 . S
C761 C759 1.387 . S
C761 C763 1.390 1_554 S
C761 H765 0.950 . S
H762 C758 0.950 . S
C763 C761 1.390 1_556 S
C763 C764 1.388 . S
C763 H766 0.950 . S
C764 C763 1.388 . S
C764 C767 1.387 . S
H765 C761 0.950 . S
H766 C763 0.950 . S
C767 C758 1.389 1_556 S
C767 H760 0.950 . S
C767 C764 1.387 . S
C768 C769 1.387 . S
C768 H772 0.950 . S
C768 C777 1.390 . S
C769 C768 1.387 . S
C769 C771 1.387 . S
H770 C777 0.950 . S
C771 C769 1.387 . S
C771 C773 1.390 . S
C771 H775 0.950 . S
H772 C768 0.950 . S
C773 C771 1.390 . S
C773 C774 1.387 . S
C773 H776 0.950 . S
C774 C773 1.387 . S
C774 C777 1.387 . S
H775 C771 0.950 . S
H776 C773 0.950 . S
C777 C768 1.390 . S
C777 H770 0.950 . S
C777 C774 1.387 . S
C778 C779 1.387 . S
C778 H782 0.950 . S
C778 C787 1.390 1_655 S
C779 C778 1.387 . S
C779 C781 1.387 . S
H780 C787 0.950 . S
C781 C779 1.387 . S
C781 C783 1.390 1_655 S
C781 H785 0.950 . S
H782 C778 0.950 . S
C783 C781 1.390 1_455 S
C783 C784 1.387 . S
C783 H786 0.950 . S
C784 C783 1.387 . S
C784 C787 1.387 . S
H785 C781 0.950 . S
H786 C783 0.950 . S
C787 C778 1.390 1_455 S
C787 H780 0.950 . S
C787 C784 1.387 . S
C788 C789 1.389 . S
C788 H792 0.950 . S
C788 C797 1.390 1_545 S
C789 C788 1.389 . S
C789 C791 1.386 1_556 S
H790 C797 0.950 . S
C791 C789 1.386 1_554 S
C791 C793 1.390 1_545 S
C791 H795 0.950 . S
H792 C788 0.950 . S
C793 C791 1.390 1_565 S
C793 C794 1.389 . S
C793 H796 0.950 . S
C794 C793 1.389 . S
C794 C797 1.385 1_554 S
H795 C791 0.950 . S
H796 C793 0.950 . S
C797 C788 1.390 1_565 S
C797 H790 0.950 . S
C797 C794 1.385 1_556 S
C798 C799 1.387 . S
C798 H802 0.950 . S
C798 C807 1.390 . S
C799 C798 1.387 . S
C799 C801 1.387 . S
H800 C807 0.950 . S
C801 C799 1.387 . S
C801 C803 1.390 . S
C801 H805 0.950 . S
H802 C798 0.950 . S
C803 C801 1.390 . S
C803 C804 1.387 . S
C803 H806 0.950 . S
C804 C803 1.387 . S
C804 C807 1.387 . S
H805 C801 0.950 . S
H806 C803 0.950 . S
C807 C798 1.390 . S
C807 H800 0.950 . S
C807 C804 1.387 . S
C808 C809 1.387 . S
C808 H812 0.950 . S
C808 C817 1.390 1_455 S
C809 C808 1.387 . S
C809 C811 1.387 . S
H810 C817 0.950 . S
C811 C809 1.387 . S
C811 C813 1.390 1_455 S
C811 H815 0.950 . S
H812 C808 0.950 . S
C813 C811 1.390 1_655 S
C813 C814 1.387 . S
C813 H816 0.950 . S
C814 C813 1.387 . S
C814 C817 1.387 . S
H815 C811 0.950 . S
H816 C813 0.950 . S
C817 C808 1.390 1_655 S
C817 H810 0.950 . S
C817 C814 1.387 . S
C818 C819 1.387 . S
C818 H822 0.950 . S
C818 C827 1.390 1_545 S
C819 C818 1.387 . S
C819 C821 1.387 1_554 S
H820 C827 0.950 . S
C821 C819 1.387 1_556 S
C821 C823 1.390 1_545 S
C821 H825 0.950 . S
H822 C818 0.950 . S
C823 C821 1.390 1_565 S
C823 C824 1.387 . S
C823 H826 0.950 . S
C824 C823 1.387 . S
C824 C827 1.387 1_556 S
H825 C821 0.950 . S
H826 C823 0.950 . S
C827 C818 1.390 1_565 S
C827 H820 0.950 . S
C827 C824 1.387 1_554 S
C828 C829 1.387 . S
C828 H832 0.950 . S
C828 C837 1.390 . S
C829 C828 1.387 . S
C829 C831 1.387 1_655 S
H830 C837 0.950 . S
C831 C829 1.387 1_455 S
C831 C833 1.390 . S
C831 H835 0.950 . S
H832 C828 0.950 . S
C833 C831 1.390 . S
C833 C834 1.387 . S
C833 H836 0.950 . S
C834 C833 1.387 . S
C834 C837 1.387 1_455 S
H835 C831 0.950 . S
H836 C833 0.950 . S
C837 C828 1.390 . S
C837 H830 0.950 . S
C837 C834 1.387 1_655 S
C838 C839 1.387 . S
C838 H842 0.950 . S
C838 C847 1.390 1_545 S
C839 C838 1.387 . S
C839 C841 1.387 . S
H840 C847 0.950 . S
C841 C839 1.387 . S
C841 C843 1.390 1_545 S
C841 H845 0.950 . S
H842 C838 0.950 . S
C843 C841 1.390 1_565 S
C843 C844 1.387 . S
C843 H846 0.950 . S
C844 C843 1.387 . S
C844 C847 1.387 . S
H845 C841 0.950 . S
H846 C843 0.950 . S
C847 C838 1.390 1_565 S
C847 H840 0.950 . S
C847 C844 1.387 . S
C848 C849 1.387 . S
C848 H852 0.950 . S
C848 C857 1.390 . S
C849 C848 1.387 . S
C849 C851 1.387 . S
H850 C857 0.950 . S
C851 C849 1.387 . S
C851 C853 1.390 . S
C851 H855 0.950 . S
H852 C848 0.950 . S
C853 C851 1.390 . S
C853 C854 1.387 . S
C853 H856 0.950 . S
C854 C853 1.387 . S
C854 C857 1.387 . S
H855 C851 0.950 . S
H856 C853 0.950 . S
C857 C848 1.390 . S
C857 H850 0.950 . S
C857 C854 1.387 . S
C858 C859 1.387 . S
C858 H862 0.950 . S
C858 C867 1.390 . S
C859 C858 1.387 . S
C859 C861 1.387 1_455 S
H860 C867 0.950 . S
C861 C859 1.387 1_655 S
C861 C863 1.390 . S
C861 H865 0.950 . S
H862 C858 0.950 . S
C863 C861 1.390 . S
C863 C864 1.387 . S
C863 H866 0.950 . S
C864 C863 1.387 . S
C864 C867 1.387 1_655 S
H865 C861 0.950 . S
H866 C863 0.950 . S
C867 C858 1.390 . S
C867 H860 0.950 . S
C867 C864 1.387 1_455 S
C868 C869 1.387 . S
C868 H872 0.950 . S
C868 C877 1.390 1_545 S
C869 C868 1.387 . S
C869 C871 1.387 . S
H870 C877 0.950 . S
C871 C869 1.387 . S
C871 C873 1.390 1_545 S
C871 H875 0.950 . S
H872 C868 0.950 . S
C873 C871 1.390 1_565 S
C873 C874 1.387 . S
C873 H876 0.950 . S
C874 C873 1.387 . S
C874 C877 1.387 . S
H875 C871 0.950 . S
H876 C873 0.950 . S
C877 C868 1.390 1_565 S
C877 H870 0.950 . S
C877 C874 1.387 . S
C878 C879 1.387 . S
C878 H882 0.950 . S
C878 C887 1.390 . S
C879 C878 1.387 . S
C879 C881 1.387 . S
H880 C887 0.950 . S
C881 C879 1.387 . S
C881 C883 1.390 . S
C881 H885 0.950 . S
H882 C878 0.950 . S
C883 C881 1.390 . S
C883 C884 1.387 . S
C883 H886 0.950 . S
C884 C883 1.387 . S
C884 C887 1.387 . S
H885 C881 0.950 . S
H886 C883 0.950 . S
C887 C878 1.390 . S
C887 H880 0.950 . S
C887 C884 1.387 . S
C888 C889 1.387 . S
C888 H892 0.950 . S
C888 C897 1.390 . S
C889 C888 1.387 . S
C889 C891 1.387 . S
H890 C897 0.950 . S
C891 C889 1.387 . S
C891 C893 1.390 . S
C891 H895 0.950 . S
H892 C888 0.950 . S
C893 C891 1.390 . S
C893 C894 1.387 . S
C893 H896 0.950 . S
C894 C893 1.387 . S
C894 C897 1.387 . S
H895 C891 0.950 . S
H896 C893 0.950 . S
C897 C888 1.390 . S
C897 H890 0.950 . S
C897 C894 1.387 . S
C898 C899 1.387 . S
C898 H902 0.950 . S
C898 C907 1.390 . S
C899 C898 1.387 . S
C899 C901 1.387 . S
H900 C907 0.950 . S
C901 C899 1.387 . S
C901 C903 1.390 . S
C901 H905 0.950 . S
H902 C898 0.950 . S
C903 C901 1.390 . S
C903 C904 1.387 . S
C903 H906 0.950 . S
C904 C903 1.387 . S
C904 C907 1.387 . S
H905 C901 0.950 . S
H906 C903 0.950 . S
C907 C898 1.390 . S
C907 H900 0.950 . S
C907 C904 1.387 . S
C908 C909 1.387 . S
C908 H912 0.950 . S
C908 C917 1.390 . S
C909 C908 1.387 . S
C909 C911 1.387 . S
H910 C917 0.950 . S
C911 C909 1.387 . S
C911 C913 1.390 . S
C911 H915 0.950 . S
H912 C908 0.950 . S
C913 C911 1.390 . S
C913 C914 1.387 . S
C913 H916 0.950 . S
C914 C913 1.387 . S
C914 C917 1.387 . S
H915 C911 0.950 . S
H916 C913 0.950 . S
C917 C908 1.390 . S
C917 H910 0.950 . S
C917 C914 1.387 . S
C918 C919 1.387 . S
C918 H922 0.950 . S
C918 C927 1.390 . S
C919 C918 1.387 . S
C919 C921 1.387 . S
H920 C927 0.950 . S
C921 C919 1.387 . S
C921 C923 1.390 . S
C921 H925 0.950 . S
H922 C918 0.950 . S
C923 C921 1.390 . S
C923 C924 1.387 . S
C923 H926 0.950 . S
C924 C923 1.387 . S
C924 C927 1.387 . S
H925 C921 0.950 . S
H926 C923 0.950 . S
C927 C918 1.390 . S
C927 H920 0.950 . S
C927 C924 1.387 . S
C928 C929 1.387 . S
C928 H932 0.950 . S
C928 C937 1.390 . S
C929 C928 1.387 . S
C929 C931 1.387 . S
H930 C937 0.950 . S
C931 C929 1.387 . S
C931 C933 1.390 . S
C931 H935 0.950 . S
H932 C928 0.950 . S
C933 C931 1.390 . S
C933 C934 1.387 . S
C933 H936 0.950 . S
C934 C933 1.387 . S
C934 C937 1.387 . S
H935 C931 0.950 . S
H936 C933 0.950 . S
C937 C928 1.390 . S
C937 H930 0.950 . S
C937 C934 1.387 . S
C938 C939 1.387 . S
C938 H942 0.950 . S
C938 C947 1.390 . S
C939 C938 1.387 . S
C939 C941 1.387 . S
H940 C947 0.950 . S
C941 C939 1.387 . S
C941 C943 1.390 . S
C941 H945 0.950 . S
H942 C938 0.950 . S
C943 C941 1.390 . S
C943 C944 1.387 . S
C943 H946 0.950 . S
C944 C943 1.387 . S
C944 C947 1.387 . S
H945 C941 0.950 . S
H946 C943 0.950 . S
C947 C938 1.390 . S
C947 H940 0.950 . S
C947 C944 1.387 . S
C709 C3 1.752 . S
C714 C357 1.766 . S
C719 C62 1.764 . S
C724 C416 1.754 . S
C729 C123 1.698 . S
C734 C477 1.698 . S
C739 C534 1.764 . S
C744 C180 1.754 . S
C749 C239 1.764 . S
C754 C593 1.754 . S
C759 C654 1.698 . S
C764 C300 1.698 . S
C769 C33 1.628 . S
C774 C564 1.633 . S
C779 C92 1.634 . S
C784 C623 1.628 . S
C789 C701 1.539 1_556 S
C794 C170 1.539 1_554 S
C799 C387 1.634 . S
C804 C210 1.628 . S
C809 C269 1.634 . S
C814 C446 1.628 . S
C819 C347 1.539 1_554 S
C824 C524 1.540 1_556 S
C829 C652 1.559 . S
C834 C5 1.546 . S
C839 C64 1.735 . S
C844 C359 1.735 . S
C849 C121 1.559 . S
C854 C418 1.549 . S
C859 C475 1.559 . S
C864 C182 1.546 . S
C869 C536 1.732 . S
C874 C241 1.732 . S
C879 C298 1.557 . S
C884 C595 1.547 . S
C889 C52 1.355 . S
C894 C642 1.355 . S
C899 C682 1.476 . S
C904 C111 1.504 . S
C909 C406 1.504 . S
C914 C151 1.483 . S
C919 C229 1.360 . S
C924 C465 1.360 . S
C929 C505 1.480 . S
C934 C288 1.508 . S
C939 C583 1.505 . S
C944 C328 1.484 . S
