# Generated by pormake.
# Topology uni, (4)-cn, num edge types: 1
# Building blocks:
#     Node 0, Type 0, BuildingBlock: AZAVOO_clean_sbu_0, # of connection points: 4
#     Node 1, Type 0, BuildingBlock: AZAVOO_clean_sbu_0, # of connection points: 4
#     Node 2, Type 0, BuildingBlock: AZAVOO_clean_sbu_0, # of connection points: 4
#     Node 3, Type 0, BuildingBlock: AZAVOO_clean_sbu_0, # of connection points: 4
#     Node 4, Type 0, BuildingBlock: AZAVOO_clean_sbu_0, # of connection points: 4
#     Node 5, Type 0, BuildingBlock: AZAVOO_clean_sbu_0, # of connection points: 4
#     Edge 6, Type (0, 0), BuildingBlock: FUNLAD_clean_linker_1, # of connection points: 2
#     Edge 7, Type (0, 0), BuildingBlock: FUNLAD_clean_linker_1, # of connection points: 2
#     Edge 8, Type (0, 0), BuildingBlock: FUNLAD_clean_linker_1, # of connection points: 2
#     Edge 9, Type (0, 0), BuildingBlock: FUNLAD_clean_linker_1, # of connection points: 2
#     Edge 10, Type (0, 0), BuildingBlock: FUNLAD_clean_linker_1, # of connection points: 2
#     Edge 11, Type (0, 0), BuildingBlock: FUNLAD_clean_linker_1, # of connection points: 2
#     Edge 12, Type (0, 0), BuildingBlock: FUNLAD_clean_linker_1, # of connection points: 2
#     Edge 13, Type (0, 0), BuildingBlock: FUNLAD_clean_linker_1, # of connection points: 2
#     Edge 14, Type (0, 0), BuildingBlock: FUNLAD_clean_linker_1, # of connection points: 2
#     Edge 15, Type (0, 0), BuildingBlock: FUNLAD_clean_linker_1, # of connection points: 2
#     Edge 16, Type (0, 0), BuildingBlock: FUNLAD_clean_linker_1, # of connection points: 2
#     Edge 17, Type (0, 0), BuildingBlock: FUNLAD_clean_linker_1, # of connection points: 2
# Relax obj value: 0.054
# Max RMSD: 0.096
# Mean RMSD: 0.096
data_MOF--net-uni--node1-AZAVOO_clean_sbu_0--edge1-FUNLAD_clean_linker_1
_symmetry_space_group_name_H-M    P1
_symmetry_Int_Tables_number       1
_symmetry_cell_setting            triclinic
loop_
_symmetry_equiv_pos_as_xyz
'x, y, z'
_cell_length_a     41.312621
_cell_length_b     41.484509
_cell_length_c     22.711173
_cell_angle_alpha  90.040219
_cell_angle_beta   90.002366
_cell_angle_gamma 119.86186
loop_
_atom_site_label
_atom_site_type_symbol
_atom_site_fract_x
_atom_site_fract_y
_atom_site_fract_z
_atom_type_partial_charge
Mg0 Mg 0.65193 0.02072 0.02728 0.0
O1 O 0.61879 0.02459 0.10563 0.0
O2 O 0.60008 0.06502 0.08171 0.0
Mg3 Mg 0.62012 0.0861 0.98825 0.0
C4 C 0.60187 0.04241 0.11791 0.0
C5 C 0.65124 0.95976 0.10715 0.0
O6 O 0.61534 0.94622 0.09818 0.0
O7 O 0.70183 0.07756 0.04857 0.0
O8 O 0.68141 0.11585 0.01924 0.0
O9 O 0.59943 0.9754 0.987 0.0
O10 O 0.62214 0.03511 0.96878 0.0
C11 C 0.70693 0.11018 0.0398 0.0
C12 C 0.59611 0.00126 0.96075 0.0
O13 O 0.67427 0.99105 0.08507 0.0
Mg14 Mg 0.65387 0.6531 0.20759 0.0
O15 O 0.60765 0.62043 0.27599 0.0
O16 O 0.55331 0.60748 0.23447 0.0
Mg17 Mg 0.56411 0.63137 0.14161 0.0
C18 C 0.57216 0.60594 0.27775 0.0
C19 C 0.73087 0.6965 0.27128 0.0
O20 O 0.7354 0.72076 0.23041 0.0
O21 O 0.65037 0.70576 0.22487 0.0
O22 O 0.59603 0.69018 0.18057 0.0
O23 O 0.64578 0.60001 0.16915 0.0
O24 O 0.6156 0.62842 0.13893 0.0
C25 C 0.62526 0.71333 0.2086 0.0
C26 C 0.62077 0.60034 0.13533 0.0
O27 O 0.69929 0.66715 0.27649 0.0
Mg28 Mg 0.01005 0.64449 0.35573 0.0
O29 O 0.00165 0.6031 0.42873 0.0
O30 O 0.95869 0.54598 0.40053 0.0
Mg31 Mg 0.9394 0.55121 0.3082 0.0
C32 C 0.98202 0.56831 0.43822 0.0
C33 C 0.06023 0.72503 0.40547 0.0
O34 O 0.05419 0.73372 0.35254 0.0
O35 O 0.95495 0.64224 0.37827 0.0
O36 O 0.91387 0.58557 0.34452 0.0
O37 O 0.05293 0.63429 0.31404 0.0
O38 O 0.9929 0.60259 0.29168 0.0
C39 C 0.92147 0.61659 0.3679 0.0
C40 C 0.0261 0.60774 0.28458 0.0
O41 O 0.04409 0.69114 0.42082 0.0
Mg42 Mg 0.38267 0.02636 0.53164 0.0
O43 O 0.41039 0.01475 0.61005 0.0
O44 O 0.41996 0.96803 0.5851 0.0
Mg45 Mg 0.39951 0.95059 0.49032 0.0
C46 C 0.42215 0.99231 0.62196 0.0
C47 C 0.33515 0.05698 0.59652 0.0
O48 O 0.3071 0.02907 0.56954 0.0
O49 O 0.32714 0.97385 0.549 0.0
O50 O 0.33812 0.92931 0.5163 0.0
O51 O 0.43857 0.06631 0.4943 0.0
O52 O 0.40757 0.00641 0.47286 0.0
C53 C 0.31613 0.93989 0.53706 0.0
C54 C 0.43719 0.03835 0.46672 0.0
O55 O 0.36798 0.06203 0.59048 0.0
Mg56 Mg 0.39362 0.38394 0.69699 0.0
O57 O 0.43082 0.41472 0.77616 0.0
O58 O 0.48716 0.4211 0.76044 0.0
Mg59 Mg 0.48635 0.39486 0.67155 0.0
C60 C 0.46442 0.42606 0.792 0.0
C61 C 0.31025 0.34756 0.7373 0.0
O62 O 0.30715 0.32289 0.69814 0.0
O63 O 0.38731 0.32859 0.72755 0.0
O64 O 0.44391 0.33687 0.70621 0.0
O65 O 0.41362 0.43793 0.64938 0.0
O66 O 0.44041 0.40339 0.64292 0.0
C67 C 0.41051 0.31672 0.72469 0.0
C68 C 0.44033 0.43334 0.62901 0.0
O69 O 0.34225 0.37525 0.74819 0.0
Mg70 Mg 0.0223 0.38004 0.85083 0.0
O71 O 0.02696 0.41819 0.92766 0.0
O72 O 0.06629 0.47693 0.9015 0.0
Mg73 Mg 0.08653 0.4764 0.80779 0.0
C74 C 0.04426 0.45295 0.93867 0.0
C75 C 0.96273 0.32447 0.93571 0.0
O76 O 0.95242 0.3495 0.9286 0.0
O77 O 0.07997 0.38749 0.87011 0.0
O78 O 0.11718 0.4457 0.83839 0.0
O79 O 0.97606 0.38606 0.81146 0.0
O80 O 0.03566 0.42286 0.79032 0.0
C81 C 0.11238 0.41506 0.85944 0.0
C82 C 0.00143 0.41457 0.78336 0.0
O83 O 0.9924 0.32935 0.91086 0.0
H84 H 0.5815 0.01353 0.20321 0.0
C85 C 0.58222 0.03504 0.17498 0.0
H86 H 0.56333 0.07339 0.16259 0.0
H87 H 0.4176 0.99158 0.31224 0.0
H88 H 0.39242 0.97769 0.21339 0.0
H89 H 0.43387 0.99209 0.12743 0.0
H90 H 0.50082 0.02075 0.13992 0.0
C91 C 0.56386 0.05273 0.19137 0.0
C92 C 0.53926 0.04123 0.24419 0.0
C93 C 0.50008 0.02387 0.23627 0.0
C94 C 0.47615 0.0149 0.28592 0.0
C95 C 0.43718 0.99846 0.27638 0.0
C96 C 0.42227 0.99039 0.21974 0.0
C97 C 0.4456 0.99855 0.17136 0.0
C98 C 0.48403 0.01511 0.17921 0.0
H99 H 0.48996 0.07203 0.41879 0.0
C100 C 0.46754 0.04378 0.42649 0.0
H101 H 0.44306 0.9876 0.40084 0.0
H102 H 0.61314 0.07513 0.27501 0.0
H103 H 0.63821 0.0858 0.3742 0.0
H104 H 0.59638 0.06656 0.46044 0.0
H105 H 0.52924 0.03711 0.44798 0.0
C106 C 0.46609 0.01571 0.39477 0.0
C107 C 0.49142 0.02302 0.3436 0.0
C108 C 0.5305 0.0389 0.35164 0.0
C109 C 0.55452 0.04864 0.30185 0.0
C110 C 0.59353 0.06615 0.31117 0.0
C111 C 0.60831 0.07257 0.3679 0.0
C112 C 0.58477 0.06184 0.41647 0.0
C113 C 0.5463 0.04518 0.40871 0.0
H114 H 0.52101 0.57346 0.32952 0.0
C115 C 0.55116 0.58529 0.33031 0.0
H116 H 0.5971 0.59094 0.37985 0.0
H117 H 0.5058 0.55044 0.62048 0.0
H118 H 0.55225 0.61513 0.63724 0.0
H119 H 0.59487 0.65312 0.5577 0.0
H120 H 0.59155 0.62662 0.46101 0.0
C121 C 0.567 0.57883 0.3771 0.0
C122 C 0.54339 0.55517 0.4265 0.0
C123 C 0.54569 0.57109 0.48267 0.0
C124 C 0.52083 0.5493 0.52837 0.0
C125 C 0.52382 0.56584 0.58413 0.0
C126 C 0.55035 0.60291 0.59434 0.0
C127 C 0.57437 0.6243 0.54955 0.0
C128 C 0.57217 0.60876 0.49426 0.0
H129 H 0.49126 0.45481 0.57544 0.0
C130 C 0.46939 0.46043 0.5895 0.0
H131 H 0.44605 0.49532 0.57903 0.0
H132 H 0.53604 0.51406 0.32759 0.0
H133 H 0.48854 0.45008 0.30972 0.0
H134 H 0.4416 0.41401 0.38563 0.0
H135 H 0.44247 0.44142 0.48016 0.0
C136 C 0.46749 0.48898 0.56544 0.0
C137 C 0.49368 0.51168 0.51774 0.0
C138 C 0.49154 0.49566 0.46157 0.0
C139 C 0.5172 0.51708 0.4166 0.0
C140 C 0.51606 0.49966 0.36231 0.0
C141 C 0.48912 0.46283 0.35161 0.0
C142 C 0.46282 0.44248 0.39442 0.0
C143 C 0.46384 0.45854 0.44877 0.0
H144 H 0.96144 0.42616 0.73693 0.0
C145 C 0.99093 0.43536 0.74236 0.0
H146 H 0.04549 0.47057 0.71085 0.0
H147 H 0.99743 0.48289 0.45348 0.0
H148 H 0.02696 0.44561 0.43882 0.0
H149 H 0.046 0.42174 0.5236 0.0
H150 H 0.03588 0.43525 0.62348 0.0
C151 C 0.01615 0.46241 0.70759 0.0
C152 C 0.00431 0.47698 0.65706 0.0
C153 C 0.01008 0.46846 0.59884 0.0
C154 C 0.99853 0.48167 0.54997 0.0
C155 C 0.00517 0.47319 0.4923 0.0
C156 C 0.02217 0.45184 0.48319 0.0
C157 C 0.03293 0.43845 0.53091 0.0
C158 C 0.02701 0.44653 0.5881 0.0
H159 H 0.00991 0.57333 0.52331 0.0
C160 C 0.98829 0.55378 0.49378 0.0
H161 H 0.94916 0.49736 0.47753 0.0
H162 H 0.99205 0.5011 0.76256 0.0
H163 H 0.96087 0.53693 0.77735 0.0
H164 H 0.93746 0.55668 0.69277 0.0
H165 H 0.9456 0.5412 0.59284 0.0
C166 C 0.96988 0.51747 0.50752 0.0
C167 C 0.98105 0.50324 0.55931 0.0
C168 C 0.97495 0.51149 0.61753 0.0
C169 C 0.98716 0.49887 0.66645 0.0
C170 C 0.98222 0.5089 0.72396 0.0
C171 C 0.96455 0.52964 0.73305 0.0
C172 C 0.95147 0.54085 0.68542 0.0
C173 C 0.9565 0.53195 0.62825 0.0
H174 H 0.54434 0.96262 0.9136 0.0
C175 C 0.56439 0.99183 0.92087 0.0
H176 H 0.58264 0.04702 0.89469 0.0
H177 H 0.52028 0.00841 0.63696 0.0
H178 H 0.58703 0.03888 0.62052 0.0
H179 H 0.63071 0.05505 0.70389 0.0
H180 H 0.60794 0.04103 0.80414 0.0
C181 C 0.56177 0.01789 0.88946 0.0
C182 C 0.53485 0.00771 0.83976 0.0
C183 C 0.54865 0.01583 0.78126 0.0
C184 C 0.52346 0.00599 0.73311 0.0
C185 C 0.53809 0.01481 0.67519 0.0
C186 C 0.57638 0.03239 0.66507 0.0
C187 C 0.60097 0.04153 0.712 0.0
C188 C 0.58746 0.03338 0.76944 0.0
H189 H 0.44402 0.01854 0.70853 0.0
C190 C 0.44144 0.99683 0.67878 0.0
H191 H 0.45773 0.95688 0.66175 0.0
H192 H 0.49924 0.99128 0.94641 0.0
H193 H 0.43233 0.95983 0.96268 0.0
H194 H 0.38853 0.94013 0.8789 0.0
H195 H 0.41139 0.95219 0.77829 0.0
C196 C 0.45858 0.97747 0.69227 0.0
C197 C 0.48446 0.98795 0.74342 0.0
C198 C 0.4706 0.9799 0.80186 0.0
C199 C 0.49585 0.99021 0.85016 0.0
C200 C 0.48131 0.98306 0.90811 0.0
C201 C 0.44296 0.9652 0.91807 0.0
C202 C 0.4183 0.9542 0.87089 0.0
C203 C 0.43179 0.96139 0.81337 0.0
H204 H 0.6057 0.54714 0.09173 0.0
C205 C 0.5993 0.56955 0.09392 0.0
H206 H 0.56881 0.59288 0.05673 0.0
H207 H 0.55157 0.522 0.8062 0.0
H208 H 0.5939 0.58722 0.78637 0.0
H209 H 0.62058 0.63254 0.86761 0.0
H210 H 0.6049 0.61295 0.96906 0.0
C211 C 0.57423 0.56981 0.05653 0.0
C212 C 0.55765 0.54209 0.00813 0.0
C213 C 0.5674 0.55402 0.94902 0.0
C214 C 0.55252 0.52783 0.90225 0.0
C215 C 0.56242 0.54059 0.84356 0.0
C216 C 0.58665 0.578 0.83148 0.0
C217 C 0.60163 0.60351 0.8772 0.0
C218 C 0.59228 0.59185 0.93532 0.0
H219 H 0.45848 0.45301 0.87203 0.0
C220 C 0.47777 0.4476 0.84717 0.0
H221 H 0.53339 0.4588 0.83945 0.0
H222 H 0.52997 0.51058 0.11577 0.0
H223 H 0.48845 0.44511 0.13569 0.0
H224 H 0.46538 0.39917 0.05495 0.0
H225 H 0.48327 0.41851 0.9537 0.0
C226 C 0.51339 0.46269 0.86512 0.0
C227 C 0.52803 0.48972 0.91464 0.0
C228 C 0.51809 0.47776 0.97368 0.0
C229 C 0.53248 0.50408 0.02046 0.0
C230 C 0.5209 0.49163 0.07878 0.0
C231 C 0.49689 0.45415 0.09079 0.0
C232 C 0.48381 0.4283 0.04532 0.0
C233 C 0.49419 0.4398 0.98736 0.0
H234 H 0.01528 0.44483 0.02383 0.0
C235 C 0.03639 0.46557 0.99502 0.0
H236 H 0.07282 0.52278 0.98039 0.0
H237 H 0.98468 0.58265 0.12414 0.0
H238 H 0.97296 0.5941 0.02403 0.0
H239 H 0.99103 0.56887 0.93985 0.0
H240 H 0.02124 0.53231 0.95534 0.0
C241 C 0.05267 0.5017 0.00985 0.0
C242 C 0.03985 0.51457 0.0615 0.0
C243 C 0.02163 0.53542 0.05177 0.0
C244 C 0.01052 0.54932 0.10035 0.0
C245 C 0.9932 0.57083 0.08908 0.0
C246 C 0.98635 0.57772 0.03173 0.0
C247 C 0.99657 0.56358 0.98434 0.0
C248 C 0.01401 0.54269 0.99393 0.0
H249 H 0.06305 0.59274 0.2365 0.0
C250 C 0.03407 0.58536 0.24275 0.0
H251 H 0.97862 0.55214 0.2134 0.0
H252 H 0.07583 0.47726 0.096 0.0
H253 H 0.08446 0.46282 0.19622 0.0
H254 H 0.06114 0.4831 0.2803 0.0
H255 H 0.02966 0.51856 0.26467 0.0
C256 C 0.00746 0.55871 0.20902 0.0
C257 C 0.01732 0.54207 0.15876 0.0
C258 C 0.03431 0.52006 0.16855 0.0
C259 C 0.04628 0.50694 0.1199 0.0
C260 C 0.06498 0.48678 0.13112 0.0
C261 C 0.0703 0.47846 0.18849 0.0
C262 C 0.05729 0.48999 0.23585 0.0
C263 C 0.03948 0.51054 0.22627 0.0
H264 H 0.60612 0.75394 0.20923 0.0
C265 C 0.63033 0.75074 0.21736 0.0
H266 H 0.68888 0.77924 0.22844 0.0
H267 H 0.68214 0.90063 0.06301 0.0
H268 H 0.71597 0.87945 0.00251 0.0
H269 H 0.72889 0.83078 0.03783 0.0
H270 H 0.70751 0.80272 0.13396 0.0
C271 C 0.66381 0.78138 0.22443 0.0
C272 C 0.66716 0.81827 0.21286 0.0
C273 C 0.68187 0.83606 0.15823 0.0
C274 C 0.6753 0.8649 0.13863 0.0
C275 C 0.68743 0.87972 0.08147 0.0
C276 C 0.70671 0.86758 0.04587 0.0
C277 C 0.71391 0.84012 0.06569 0.0
C278 C 0.70147 0.82425 0.12097 0.0
H279 H 0.69497 0.94944 0.14357 0.0
C280 C 0.66508 0.93738 0.13708 0.0
H281 H 0.61199 0.88965 0.14608 0.0
H282 H 0.64228 0.79496 0.32437 0.0
H283 H 0.6114 0.81837 0.38854 0.0
H284 H 0.60094 0.8692 0.35589 0.0
H285 H 0.62118 0.89691 0.25901 0.0
C286 C 0.64195 0.90167 0.15146 0.0
C287 C 0.65532 0.87687 0.17511 0.0
C288 C 0.64394 0.86148 0.23217 0.0
C289 C 0.64989 0.83217 0.25104 0.0
C290 C 0.63786 0.81694 0.30787 0.0
C291 C 0.62034 0.83025 0.34511 0.0
C292 C 0.61446 0.85888 0.32672 0.0
C293 C 0.62607 0.87444 0.27097 0.0
H294 H 0.86201 0.59992 0.37166 0.0
C295 C 0.89006 0.62362 0.37582 0.0
H296 H 0.92215 0.68236 0.37868 0.0
H297 H 0.76766 0.64486 0.2335 0.0
H298 H 0.79358 0.62431 0.15619 0.0
H299 H 0.85219 0.62336 0.17174 0.0
H300 H 0.88475 0.64224 0.265 0.0
C301 C 0.89449 0.65801 0.3759 0.0
C302 C 0.86204 0.66354 0.36415 0.0
C303 C 0.84432 0.6541 0.30817 0.0
C304 C 0.81146 0.65623 0.29831 0.0
C305 C 0.79326 0.64476 0.24302 0.0
C306 C 0.80779 0.6328 0.19819 0.0
C307 C 0.8407 0.63215 0.20701 0.0
C308 C 0.85893 0.64275 0.2611 0.0
H309 H 0.79113 0.72346 0.29016 0.0
C310 C 0.76415 0.69966 0.301 0.0
H311 H 0.73633 0.64693 0.34203 0.0
H312 H 0.89079 0.68654 0.4744 0.0
H313 H 0.86667 0.71043 0.5501 0.0
H314 H 0.81078 0.71601 0.53176 0.0
H315 H 0.77851 0.69763 0.43759 0.0
C316 C 0.76289 0.67154 0.33226 0.0
C317 C 0.79744 0.66969 0.34328 0.0
C318 C 0.81605 0.68071 0.39821 0.0
C319 C 0.8484 0.67761 0.40869 0.0
C320 C 0.86621 0.68843 0.46418 0.0
C321 C 0.85265 0.70217 0.50793 0.0
C322 C 0.82116 0.70532 0.4976 0.0
C323 C 0.80292 0.6947 0.44346 0.0
H324 H 0.09965 0.74257 0.47987 0.0
C325 C 0.09112 0.75268 0.44213 0.0
H326 H 0.10419 0.79839 0.38708 0.0
H327 H 0.22216 0.86798 0.61713 0.0
H328 H 0.16747 0.85067 0.67762 0.0
H329 H 0.10423 0.81685 0.6348 0.0
H330 H 0.09524 0.79958 0.53142 0.0
C331 C 0.11191 0.7884 0.42585 0.0
C332 C 0.1498 0.81237 0.4513 0.0
C333 C 0.15461 0.82339 0.5113 0.0
C334 C 0.19118 0.84422 0.53548 0.0
C335 C 0.19511 0.85328 0.59611 0.0
C336 C 0.16394 0.84334 0.63138 0.0
C337 C 0.12832 0.82419 0.60731 0.0
C338 C 0.12354 0.81427 0.548 0.0
H339 H 0.25687 0.92463 0.54213 0.0
C340 C 0.27554 0.91338 0.53761 0.0
H341 H 0.28021 0.86642 0.5166 0.0
H342 H 0.15068 0.79536 0.33458 0.0
H343 H 0.20519 0.81518 0.27327 0.0
H344 H 0.26845 0.85431 0.31365 0.0
H345 H 0.27752 0.87342 0.41571 0.0
C346 C 0.2615 0.8775 0.52262 0.0
C347 C 0.22285 0.85514 0.49904 0.0
C348 C 0.218 0.84492 0.43864 0.0
C349 C 0.18151 0.82325 0.41493 0.0
C350 C 0.17764 0.81249 0.35487 0.0
C351 C 0.20875 0.82359 0.31903 0.0
C352 C 0.24434 0.84554 0.34178 0.0
C353 C 0.2491 0.85618 0.40072 0.0
H354 H 0.41925 0.26903 0.73389 0.0
C355 C 0.39788 0.27708 0.73439 0.0
H356 H 0.34022 0.25793 0.72688 0.0
H357 H 0.33596 0.13544 0.55347 0.0
H358 H 0.31986 0.17167 0.48923 0.0
H359 H 0.31779 0.22643 0.5266 0.0
H360 H 0.33223 0.24538 0.62847 0.0
C361 C 0.36189 0.25045 0.73022 0.0
C362 C 0.3529 0.21215 0.71334 0.0
C363 C 0.34227 0.20019 0.6544 0.0
C364 C 0.34252 0.16802 0.63326 0.0
C365 C 0.33484 0.15863 0.57285 0.0
C366 C 0.32583 0.17945 0.53513 0.0
C367 C 0.32474 0.21031 0.55613 0.0
C368 C 0.33309 0.22085 0.61485 0.0
H369 H 0.30063 0.08009 0.62977 0.0
C370 C 0.32887 0.08457 0.62788 0.0
H371 H 0.38562 0.12103 0.64802 0.0
H372 H 0.36829 0.22422 0.83062 0.0
H373 H 0.38194 0.18649 0.89699 0.0
H374 H 0.38157 0.13014 0.86105 0.0
H375 H 0.36757 0.11113 0.75866 0.0
C376 C 0.35734 0.11645 0.64868 0.0
C377 C 0.35198 0.14705 0.67192 0.0
C378 C 0.35986 0.15754 0.73191 0.0
C379 C 0.36024 0.19009 0.75265 0.0
C380 C 0.36827 0.20003 0.81266 0.0
C381 C 0.37592 0.17854 0.85115 0.0
C382 C 0.37569 0.14679 0.83092 0.0
C383 C 0.36774 0.13626 0.77205 0.0
H384 H 0.17277 0.43561 0.85823 0.0
C385 C 0.14565 0.41071 0.86338 0.0
H386 H 0.11682 0.35186 0.86429 0.0
H387 H 0.26618 0.39621 0.70213 0.0
H388 H 0.23423 0.41284 0.62932 0.0
H389 H 0.17478 0.41037 0.65307 0.0
H390 H 0.14739 0.39198 0.75009 0.0
C391 C 0.14355 0.37733 0.8609 0.0
C392 C 0.17701 0.37444 0.84483 0.0
C393 C 0.19167 0.38347 0.78681 0.0
C394 C 0.22498 0.38315 0.77224 0.0
C395 C 0.24021 0.39455 0.71507 0.0
C396 C 0.22226 0.40439 0.67284 0.0
C397 C 0.18888 0.40313 0.68627 0.0
C398 C 0.17361 0.39278 0.7424 0.0
H399 H 0.24935 0.3233 0.74629 0.0
C400 C 0.27615 0.3453 0.76216 0.0
H401 H 0.30357 0.39308 0.81621 0.0
H402 H 0.15516 0.35371 0.95854 0.0
H403 H 0.1857 0.33436 0.03041 0.0
H404 H 0.24239 0.33188 0.00423 0.0
H405 H 0.26904 0.34883 0.90607 0.0
C406 C 0.27717 0.37114 0.79909 0.0
C407 C 0.24254 0.3719 0.81474 0.0
C408 C 0.22732 0.36188 0.87216 0.0
C409 C 0.19448 0.36312 0.8872 0.0
C410 C 0.17997 0.35314 0.9449 0.0
C411 C 0.19722 0.342 0.98649 0.0
C412 C 0.22916 0.34061 0.97175 0.0
C413 C 0.24417 0.35042 0.91532 0.0
H414 H 0.94628 0.26802 0.96805 0.0
C415 C 0.93767 0.28882 0.96504 0.0
H416 H 0.89446 0.30105 0.97992 0.0
H417 H 0.78962 0.12056 0.95062 0.0
H418 H 0.81487 0.12871 0.85199 0.0
H419 H 0.86693 0.18923 0.82008 0.0
H420 H 0.89428 0.24163 0.88651 0.0
C421 C 0.90309 0.28023 0.98192 0.0
C422 C 0.87473 0.24244 0.00233 0.0
C423 C 0.85895 0.21206 0.96228 0.0
C424 C 0.82819 0.17742 0.98005 0.0
C425 C 0.8128 0.14756 0.93932 0.0
C426 C 0.827 0.15184 0.8825 0.0
C427 C 0.85635 0.18588 0.86459 0.0
C428 C 0.87206 0.21576 0.9036 0.0
H429 H 0.74703 0.17014 0.04161 0.0
C430 C 0.74444 0.14289 0.047 0.0
H431 H 0.77377 0.11331 0.0515 0.0
H432 H 0.90051 0.29366 0.09137 0.0
H433 H 0.87484 0.2851 0.1901 0.0
H434 H 0.82062 0.22533 0.21978 0.0
H435 H 0.79174 0.17368 0.15084 0.0
C436 C 0.77557 0.14034 0.04987 0.0
C437 C 0.81231 0.17368 0.03672 0.0
C438 C 0.8291 0.20336 0.07752 0.0
C439 C 0.86037 0.23776 0.06035 0.0
C440 C 0.87649 0.26704 0.10196 0.0
C441 C 0.86212 0.26245 0.15879 0.0
C442 C 0.83158 0.22879 0.17551 0.0
C443 C 0.81516 0.19947 0.13553 0.0
loop_
_geom_bond_atom_site_label_1
_geom_bond_atom_site_label_2
_geom_bond_distance
_geom_bond_site_symmetry_2
_ccdc_geom_bond_type
Mg0 O1 2.028 . S
Mg0 O7 1.986 . S
Mg0 O9 2.114 1_544 S
Mg0 O10 2.251 1_554 S
Mg0 O13 2.010 1_545 S
O1 Mg0 2.028 . S
O1 C4 1.250 . S
O2 Mg3 2.028 . S
O2 C4 1.248 . S
Mg3 O2 2.028 . S
Mg3 O8 2.032 . S
Mg3 O10 2.079 1_554 S
C4 O1 1.250 . S
C4 O2 1.248 . S
C5 O6 1.264 . S
C5 O13 1.249 . S
O6 C5 1.264 . S
O7 Mg0 1.986 . S
O7 C11 1.246 . S
O8 Mg3 2.032 . S
O8 C11 1.259 . S
O9 Mg0 2.114 1_566 S
O9 C12 1.252 1_565 S
O10 Mg0 2.251 1_556 S
O10 Mg3 2.079 1_556 S
O10 C12 1.273 . S
C11 O7 1.246 . S
C11 O8 1.259 . S
C12 O9 1.252 1_545 S
C12 O10 1.273 . S
O13 Mg0 2.010 1_565 S
O13 C5 1.249 . S
Mg14 O15 2.028 . S
Mg14 O21 1.986 . S
Mg14 O23 2.114 . S
Mg14 O24 2.251 . S
Mg14 O27 2.010 . S
O15 Mg14 2.028 . S
O15 C18 1.250 . S
O16 Mg17 2.028 . S
O16 C18 1.248 . S
Mg17 O16 2.028 . S
Mg17 O22 2.032 . S
Mg17 O24 2.079 . S
C18 O15 1.250 . S
C18 O16 1.248 . S
C19 O20 1.264 . S
C19 O27 1.249 . S
O20 C19 1.264 . S
O21 Mg14 1.986 . S
O21 C25 1.246 . S
O22 Mg17 2.032 . S
O22 C25 1.259 . S
O23 Mg14 2.114 . S
O23 C26 1.252 . S
O24 Mg14 2.251 . S
O24 Mg17 2.079 . S
O24 C26 1.273 . S
C25 O21 1.246 . S
C25 O22 1.259 . S
C26 O23 1.252 . S
C26 O24 1.273 . S
O27 Mg14 2.010 . S
O27 C19 1.249 . S
Mg28 O29 2.028 . S
Mg28 O35 1.986 1_455 S
Mg28 O37 2.114 . S
Mg28 O38 2.251 1_455 S
Mg28 O41 2.010 . S
O29 Mg28 2.028 . S
O29 C32 1.250 . S
O30 Mg31 2.028 . S
O30 C32 1.248 1_655 S
Mg31 O30 2.028 . S
Mg31 O36 2.032 . S
Mg31 O38 2.079 . S
C32 O29 1.250 . S
C32 O30 1.248 1_455 S
C33 O34 1.264 . S
C33 O41 1.249 . S
O34 C33 1.264 . S
O35 Mg28 1.986 1_655 S
O35 C39 1.246 . S
O36 Mg31 2.032 . S
O36 C39 1.259 . S
O37 Mg28 2.114 . S
O37 C40 1.252 . S
O38 Mg28 2.251 1_655 S
O38 Mg31 2.079 . S
O38 C40 1.273 1_655 S
C39 O35 1.246 . S
C39 O36 1.259 . S
C40 O37 1.252 . S
C40 O38 1.273 1_455 S
O41 Mg28 2.010 . S
O41 C33 1.249 . S
Mg42 O43 2.028 . S
Mg42 O49 1.986 1_545 S
Mg42 O51 2.114 . S
Mg42 O52 2.251 1_545 S
Mg42 O55 2.010 . S
O43 Mg42 2.028 . S
O43 C46 1.250 . S
O44 Mg45 2.028 . S
O44 C46 1.248 1_565 S
Mg45 O44 2.028 . S
Mg45 O50 2.032 . S
Mg45 O52 2.079 . S
C46 O43 1.250 . S
C46 O44 1.248 1_545 S
C47 O48 1.264 . S
C47 O55 1.249 . S
O48 C47 1.264 . S
O49 Mg42 1.986 1_565 S
O49 C53 1.246 . S
O50 Mg45 2.032 . S
O50 C53 1.259 . S
O51 Mg42 2.114 . S
O51 C54 1.252 . S
O52 Mg42 2.251 1_565 S
O52 Mg45 2.079 . S
O52 C54 1.273 1_565 S
C53 O49 1.246 . S
C53 O50 1.259 . S
C54 O51 1.252 . S
C54 O52 1.273 1_545 S
O55 Mg42 2.010 . S
O55 C47 1.249 . S
Mg56 O57 2.028 . S
Mg56 O63 1.986 . S
Mg56 O65 2.114 . S
Mg56 O66 2.251 . S
Mg56 O69 2.010 . S
O57 Mg56 2.028 . S
O57 C60 1.250 . S
O58 Mg59 2.028 . S
O58 C60 1.248 . S
Mg59 O58 2.028 . S
Mg59 O64 2.032 . S
Mg59 O66 2.079 . S
C60 O57 1.250 . S
C60 O58 1.248 . S
C61 O62 1.264 . S
C61 O69 1.249 . S
O62 C61 1.264 . S
O63 Mg56 1.986 . S
O63 C67 1.246 . S
O64 Mg59 2.032 . S
O64 C67 1.259 . S
O65 Mg56 2.114 . S
O65 C68 1.252 . S
O66 Mg56 2.251 . S
O66 Mg59 2.079 . S
O66 C68 1.273 . S
C67 O63 1.246 . S
C67 O64 1.259 . S
C68 O65 1.252 . S
C68 O66 1.273 . S
O69 Mg56 2.010 . S
O69 C61 1.249 . S
Mg70 O71 2.028 . S
Mg70 O77 1.986 . S
Mg70 O79 2.114 1_455 S
Mg70 O80 2.251 . S
Mg70 O83 2.010 1_455 S
O71 Mg70 2.028 . S
O71 C74 1.250 . S
O72 Mg73 2.028 . S
O72 C74 1.248 . S
Mg73 O72 2.028 . S
Mg73 O78 2.032 . S
Mg73 O80 2.079 . S
C74 O71 1.250 . S
C74 O72 1.248 . S
C75 O76 1.264 . S
C75 O83 1.249 . S
O76 C75 1.264 . S
O77 Mg70 1.986 . S
O77 C81 1.246 . S
O78 Mg73 2.032 . S
O78 C81 1.259 . S
O79 Mg70 2.114 1_655 S
O79 C82 1.252 1_655 S
O80 Mg70 2.251 . S
O80 Mg73 2.079 . S
O80 C82 1.273 . S
C81 O77 1.246 . S
C81 O78 1.259 . S
C82 O79 1.252 1_455 S
C82 O80 1.273 . S
O83 Mg70 2.010 1_655 S
O83 C75 1.249 . S
H84 C85 0.951 . S
C85 H84 0.951 . S
C85 C91 1.265 . S
H86 C91 0.950 . S
H87 C95 0.949 . S
H88 C96 0.950 . S
H89 C97 0.951 . S
H90 C98 0.951 . S
C91 C85 1.265 . S
C91 H86 0.950 . S
C91 C92 1.478 . S
C92 C91 1.478 . S
C92 C93 1.397 1_545 S
C92 C109 1.394 . S
C93 C92 1.397 1_565 S
C93 C94 1.438 . S
C93 C98 1.429 . S
C94 C93 1.438 . S
C94 C95 1.428 . S
C94 C107 1.394 1_565 S
C95 H87 0.949 . S
C95 C94 1.428 . S
C95 C96 1.345 . S
C96 H88 0.950 . S
C96 C95 1.345 . S
C96 C97 1.424 . S
C97 H89 0.951 . S
C97 C96 1.424 . S
C97 C98 1.347 . S
C98 H90 0.951 . S
C98 C93 1.429 . S
C98 C97 1.347 . S
H99 C100 0.951 . S
C100 H99 0.951 . S
C100 C106 1.265 . S
H101 C106 0.950 . S
H102 C110 0.949 . S
H103 C111 0.950 . S
H104 C112 0.951 . S
H105 C113 0.951 . S
C106 C100 1.265 . S
C106 H101 0.950 . S
C106 C107 1.478 . S
C107 C94 1.394 1_545 S
C107 C106 1.478 . S
C107 C108 1.397 . S
C108 C107 1.397 . S
C108 C109 1.438 . S
C108 C113 1.429 . S
C109 C92 1.394 . S
C109 C108 1.438 . S
C109 C110 1.428 . S
C110 H102 0.949 . S
C110 C109 1.428 . S
C110 C111 1.345 . S
C111 H103 0.950 . S
C111 C110 1.345 . S
C111 C112 1.424 . S
C112 H104 0.951 . S
C112 C111 1.424 . S
C112 C113 1.347 . S
C113 H105 0.951 . S
C113 C108 1.429 . S
C113 C112 1.347 . S
H114 C115 0.951 . S
C115 H114 0.951 . S
C115 C121 1.265 . S
H116 C121 0.950 . S
H117 C125 0.949 . S
H118 C126 0.950 . S
H119 C127 0.951 . S
H120 C128 0.951 . S
C121 C115 1.265 . S
C121 H116 0.950 . S
C121 C122 1.478 . S
C122 C121 1.478 . S
C122 C123 1.397 . S
C122 C139 1.394 . S
C123 C122 1.397 . S
C123 C124 1.438 . S
C123 C128 1.429 . S
C124 C123 1.438 . S
C124 C125 1.428 . S
C124 C137 1.394 . S
C125 H117 0.949 . S
C125 C124 1.428 . S
C125 C126 1.345 . S
C126 H118 0.950 . S
C126 C125 1.345 . S
C126 C127 1.424 . S
C127 H119 0.951 . S
C127 C126 1.424 . S
C127 C128 1.347 . S
C128 H120 0.951 . S
C128 C123 1.429 . S
C128 C127 1.347 . S
H129 C130 0.951 . S
C130 H129 0.951 . S
C130 C136 1.265 . S
H131 C136 0.950 . S
H132 C140 0.949 . S
H133 C141 0.950 . S
H134 C142 0.951 . S
H135 C143 0.951 . S
C136 C130 1.265 . S
C136 H131 0.950 . S
C136 C137 1.478 . S
C137 C124 1.394 . S
C137 C136 1.478 . S
C137 C138 1.397 . S
C138 C137 1.397 . S
C138 C139 1.438 . S
C138 C143 1.429 . S
C139 C122 1.394 . S
C139 C138 1.438 . S
C139 C140 1.428 . S
C140 H132 0.949 . S
C140 C139 1.428 . S
C140 C141 1.345 . S
C141 H133 0.950 . S
C141 C140 1.345 . S
C141 C142 1.424 . S
C142 H134 0.951 . S
C142 C141 1.424 . S
C142 C143 1.347 . S
C143 H135 0.951 . S
C143 C138 1.429 . S
C143 C142 1.347 . S
H144 C145 0.960 . S
C145 H144 0.960 . S
C145 C151 1.262 1_655 S
H146 C151 0.950 . S
H147 C155 0.949 . S
H148 C156 0.950 . S
H149 C157 0.951 . S
H150 C158 0.951 . S
C151 C145 1.262 1_455 S
C151 H146 0.950 . S
C151 C152 1.478 . S
C152 C151 1.478 . S
C152 C153 1.397 . S
C152 C169 1.394 1_455 S
C153 C152 1.397 . S
C153 C154 1.438 . S
C153 C158 1.429 . S
C154 C153 1.438 . S
C154 C155 1.428 . S
C154 C167 1.394 1_455 S
C155 H147 0.949 . S
C155 C154 1.428 . S
C155 C156 1.345 . S
C156 H148 0.950 . S
C156 C155 1.345 . S
C156 C157 1.424 . S
C157 H149 0.951 . S
C157 C156 1.424 . S
C157 C158 1.347 . S
C158 H150 0.951 . S
C158 C153 1.429 . S
C158 C157 1.347 . S
H159 C160 0.951 . S
C160 H159 0.951 . S
C160 C166 1.265 1_455 S
H161 C166 0.950 . S
H162 C170 0.949 . S
H163 C171 0.950 . S
H164 C172 0.951 . S
H165 C173 0.951 . S
C166 C160 1.265 1_655 S
C166 H161 0.950 . S
C166 C167 1.478 . S
C167 C154 1.394 1_655 S
C167 C166 1.478 . S
C167 C168 1.397 . S
C168 C167 1.397 . S
C168 C169 1.438 . S
C168 C173 1.429 . S
C169 C152 1.394 1_655 S
C169 C168 1.438 . S
C169 C170 1.428 . S
C170 H162 0.949 . S
C170 C169 1.428 . S
C170 C171 1.345 . S
C171 H163 0.950 . S
C171 C170 1.345 . S
C171 C172 1.424 . S
C172 H164 0.951 . S
C172 C171 1.424 . S
C172 C173 1.347 . S
C173 H165 0.951 . S
C173 C168 1.429 . S
C173 C172 1.347 . S
H174 C175 0.951 . S
C175 H174 0.951 . S
C175 C181 1.265 . S
H176 C181 0.950 . S
H177 C185 0.949 . S
H178 C186 0.950 . S
H179 C187 0.951 . S
H180 C188 0.951 . S
C181 C175 1.265 . S
C181 H176 0.950 . S
C181 C182 1.478 . S
C182 C181 1.478 . S
C182 C183 1.397 . S
C182 C199 1.394 1_545 S
C183 C182 1.397 . S
C183 C184 1.438 . S
C183 C188 1.429 . S
C184 C183 1.438 . S
C184 C185 1.428 . S
C184 C197 1.394 . S
C185 H177 0.949 . S
C185 C184 1.428 . S
C185 C186 1.345 . S
C186 H178 0.950 . S
C186 C185 1.345 . S
C186 C187 1.424 . S
C187 H179 0.951 . S
C187 C186 1.424 . S
C187 C188 1.347 . S
C188 H180 0.951 . S
C188 C183 1.429 . S
C188 C187 1.347 . S
H189 C190 0.951 . S
C190 H189 0.951 . S
C190 C196 1.265 . S
H191 C196 0.950 . S
H192 C200 0.949 . S
H193 C201 0.950 . S
H194 C202 0.951 . S
H195 C203 0.951 . S
C196 C190 1.265 . S
C196 H191 0.950 . S
C196 C197 1.478 . S
C197 C184 1.394 . S
C197 C196 1.478 . S
C197 C198 1.397 1_545 S
C198 C197 1.397 1_565 S
C198 C199 1.438 . S
C198 C203 1.429 . S
C199 C182 1.394 1_565 S
C199 C198 1.438 . S
C199 C200 1.428 . S
C200 H192 0.949 . S
C200 C199 1.428 . S
C200 C201 1.345 . S
C201 H193 0.950 . S
C201 C200 1.345 . S
C201 C202 1.424 . S
C202 H194 0.951 . S
C202 C201 1.424 . S
C202 C203 1.347 . S
C203 H195 0.951 . S
C203 C198 1.429 . S
C203 C202 1.347 . S
H204 C205 0.951 . S
C205 H204 0.951 . S
C205 C211 1.265 . S
H206 C211 0.950 . S
H207 C215 0.949 . S
H208 C216 0.950 . S
H209 C217 0.951 . S
H210 C218 0.939 1_554 S
C211 C205 1.265 . S
C211 H206 0.950 . S
C211 C212 1.478 . S
C212 C211 1.478 . S
C212 C213 1.397 1_554 S
C212 C229 1.394 . S
C213 C212 1.397 1_556 S
C213 C214 1.438 . S
C213 C218 1.432 . S
C214 C213 1.438 . S
C214 C215 1.428 . S
C214 C227 1.394 . S
C215 H207 0.949 . S
C215 C214 1.428 . S
C215 C216 1.345 . S
C216 H208 0.950 . S
C216 C215 1.345 . S
C216 C217 1.424 . S
C217 H209 0.951 . S
C217 C216 1.424 . S
C217 C218 1.356 . S
C218 H210 0.939 1_556 S
C218 C213 1.432 . S
C218 C217 1.356 . S
H219 C220 0.951 . S
C220 H219 0.951 . S
C220 C226 1.265 . S
H221 C226 0.950 . S
H222 C230 0.949 . S
H223 C231 0.950 . S
H224 C232 0.951 . S
H225 C233 0.951 . S
C226 C220 1.265 . S
C226 H221 0.950 . S
C226 C227 1.478 . S
C227 C214 1.394 . S
C227 C226 1.478 . S
C227 C228 1.397 . S
C228 C227 1.397 . S
C228 C229 1.438 1_556 S
C228 C233 1.429 . S
C229 C212 1.394 . S
C229 C228 1.438 1_554 S
C229 C230 1.428 . S
C230 H222 0.949 . S
C230 C229 1.428 . S
C230 C231 1.345 . S
C231 H223 0.950 . S
C231 C230 1.345 . S
C231 C232 1.424 1_554 S
C232 H224 0.951 . S
C232 C231 1.424 1_556 S
C232 C233 1.347 . S
C233 H225 0.951 . S
C233 C228 1.429 . S
C233 C232 1.347 . S
H234 C235 0.951 . S
C235 H234 0.951 . S
C235 C241 1.265 . S
H236 C241 0.950 1_556 S
H237 C245 0.949 . S
H238 C246 0.950 . S
H239 C247 0.951 . S
H240 C248 0.951 . S
C241 C235 1.265 . S
C241 H236 0.950 1_554 S
C241 C242 1.478 . S
C242 C241 1.478 . S
C242 C243 1.375 1_455 S
C242 C259 1.394 . S
C243 C242 1.375 1_655 S
C243 C244 1.445 . S
C243 C248 1.444 . S
C244 C243 1.445 . S
C244 C245 1.428 . S
C244 C257 1.394 1_655 S
C245 H237 0.949 . S
C245 C244 1.428 . S
C245 C246 1.345 . S
C246 H238 0.950 . S
C246 C245 1.345 . S
C246 C247 1.424 . S
C247 H239 0.951 . S
C247 C246 1.424 . S
C247 C248 1.347 . S
C248 H240 0.951 . S
C248 C243 1.444 . S
C248 C247 1.347 . S
H249 C250 0.951 . S
C250 H249 0.951 . S
C250 C256 1.265 . S
H251 C256 0.950 . S
H252 C260 0.949 . S
H253 C261 0.950 . S
H254 C262 0.951 . S
H255 C263 0.951 . S
C256 C250 1.265 . S
C256 H251 0.950 . S
C256 C257 1.478 . S
C257 C244 1.394 1_455 S
C257 C256 1.478 . S
C257 C258 1.397 . S
C258 C257 1.397 . S
C258 C259 1.438 . S
C258 C263 1.429 . S
C259 C242 1.394 . S
C259 C258 1.438 . S
C259 C260 1.428 . S
C260 H252 0.949 . S
C260 C259 1.428 . S
C260 C261 1.345 . S
C261 H253 0.950 . S
C261 C260 1.345 . S
C261 C262 1.424 . S
C262 H254 0.951 . S
C262 C261 1.424 . S
C262 C263 1.347 . S
C263 H255 0.951 . S
C263 C258 1.429 . S
C263 C262 1.347 . S
H264 C265 0.951 . S
C265 H264 0.951 . S
C265 C271 1.265 . S
H266 C271 0.950 . S
H267 C275 0.949 . S
H268 C276 0.950 1_556 S
H269 C277 0.951 1_556 S
H270 C278 0.951 . S
C271 C265 1.265 . S
C271 H266 0.950 . S
C271 C272 1.478 . S
C272 C271 1.478 . S
C272 C273 1.397 . S
C272 C289 1.394 . S
C273 C272 1.397 . S
C273 C274 1.438 . S
C273 C278 1.429 . S
C274 C273 1.438 . S
C274 C275 1.428 . S
C274 C287 1.394 . S
C275 H267 0.949 . S
C275 C274 1.428 . S
C275 C276 1.345 . S
C276 H268 0.950 1_554 S
C276 C275 1.345 . S
C276 C277 1.424 . S
C277 H269 0.951 1_554 S
C277 C276 1.424 . S
C277 C278 1.347 . S
C278 H270 0.951 . S
C278 C273 1.429 . S
C278 C277 1.347 . S
H279 C280 0.951 . S
C280 H279 0.951 . S
C280 C286 1.265 . S
H281 C286 0.950 . S
H282 C290 0.949 . S
H283 C291 0.950 . S
H284 C292 0.951 . S
H285 C293 0.951 . S
C286 C280 1.265 . S
C286 H281 0.950 . S
C286 C287 1.478 . S
C287 C274 1.394 . S
C287 C286 1.478 . S
C287 C288 1.397 . S
C288 C287 1.397 . S
C288 C289 1.438 . S
C288 C293 1.429 . S
C289 C272 1.394 . S
C289 C288 1.438 . S
C289 C290 1.428 . S
C290 H282 0.949 . S
C290 C289 1.428 . S
C290 C291 1.345 . S
C291 H283 0.950 . S
C291 C290 1.345 . S
C291 C292 1.424 . S
C292 H284 0.951 . S
C292 C291 1.424 . S
C292 C293 1.347 . S
C293 H285 0.951 . S
C293 C288 1.429 . S
C293 C292 1.347 . S
H294 C295 0.951 . S
C295 H294 0.951 . S
C295 C301 1.265 . S
H296 C301 0.950 . S
H297 C305 0.949 . S
H298 C306 0.950 . S
H299 C307 0.951 . S
H300 C308 0.951 . S
C301 C295 1.265 . S
C301 H296 0.950 . S
C301 C302 1.478 . S
C302 C301 1.478 . S
C302 C303 1.397 . S
C302 C319 1.394 . S
C303 C302 1.397 . S
C303 C304 1.438 . S
C303 C308 1.429 . S
C304 C303 1.438 . S
C304 C305 1.428 . S
C304 C317 1.394 . S
C305 H297 0.949 . S
C305 C304 1.428 . S
C305 C306 1.345 . S
C306 H298 0.950 . S
C306 C305 1.345 . S
C306 C307 1.424 . S
C307 H299 0.951 . S
C307 C306 1.424 . S
C307 C308 1.347 . S
C308 H300 0.951 . S
C308 C303 1.429 . S
C308 C307 1.347 . S
H309 C310 0.951 . S
C310 H309 0.951 . S
C310 C316 1.265 . S
H311 C316 0.950 . S
H312 C320 0.949 . S
H313 C321 0.950 . S
H314 C322 0.951 . S
H315 C323 0.951 . S
C316 C310 1.265 . S
C316 H311 0.950 . S
C316 C317 1.478 . S
C317 C304 1.394 . S
C317 C316 1.478 . S
C317 C318 1.397 . S
C318 C317 1.397 . S
C318 C319 1.438 . S
C318 C323 1.429 . S
C319 C302 1.394 . S
C319 C318 1.438 . S
C319 C320 1.428 . S
C320 H312 0.949 . S
C320 C319 1.428 . S
C320 C321 1.345 . S
C321 H313 0.950 . S
C321 C320 1.345 . S
C321 C322 1.424 . S
C322 H314 0.951 . S
C322 C321 1.424 . S
C322 C323 1.347 . S
C323 H315 0.951 . S
C323 C318 1.429 . S
C323 C322 1.347 . S
H324 C325 0.951 . S
C325 H324 0.951 . S
C325 C331 1.265 . S
H326 C331 0.950 . S
H327 C335 0.949 . S
H328 C336 0.950 . S
H329 C337 0.951 . S
H330 C338 0.951 . S
C331 C325 1.265 . S
C331 H326 0.950 . S
C331 C332 1.478 . S
C332 C331 1.478 . S
C332 C333 1.397 . S
C332 C349 1.394 . S
C333 C332 1.397 . S
C333 C334 1.438 . S
C333 C338 1.429 . S
C334 C333 1.438 . S
C334 C335 1.428 . S
C334 C347 1.394 . S
C335 H327 0.949 . S
C335 C334 1.428 . S
C335 C336 1.345 . S
C336 H328 0.950 . S
C336 C335 1.345 . S
C336 C337 1.424 . S
C337 H329 0.951 . S
C337 C336 1.424 . S
C337 C338 1.347 . S
C338 H330 0.951 . S
C338 C333 1.429 . S
C338 C337 1.347 . S
H339 C340 0.951 . S
C340 H339 0.951 . S
C340 C346 1.265 . S
H341 C346 0.950 . S
H342 C350 0.949 . S
H343 C351 0.950 . S
H344 C352 0.951 . S
H345 C353 0.951 . S
C346 C340 1.265 . S
C346 H341 0.950 . S
C346 C347 1.478 . S
C347 C334 1.394 . S
C347 C346 1.478 . S
C347 C348 1.397 . S
C348 C347 1.397 . S
C348 C349 1.438 . S
C348 C353 1.429 . S
C349 C332 1.394 . S
C349 C348 1.438 . S
C349 C350 1.428 . S
C350 H342 0.949 . S
C350 C349 1.428 . S
C350 C351 1.345 . S
C351 H343 0.950 . S
C351 C350 1.345 . S
C351 C352 1.424 . S
C352 H344 0.951 . S
C352 C351 1.424 . S
C352 C353 1.347 . S
C353 H345 0.951 . S
C353 C348 1.429 . S
C353 C352 1.347 . S
H354 C355 0.951 . S
C355 H354 0.951 . S
C355 C361 1.265 . S
H356 C361 0.950 . S
H357 C365 0.949 . S
H358 C366 0.950 . S
H359 C367 0.951 . S
H360 C368 0.951 . S
C361 C355 1.265 . S
C361 H356 0.950 . S
C361 C362 1.478 . S
C362 C361 1.478 . S
C362 C363 1.397 . S
C362 C379 1.394 . S
C363 C362 1.397 . S
C363 C364 1.438 . S
C363 C368 1.429 . S
C364 C363 1.438 . S
C364 C365 1.428 . S
C364 C377 1.394 . S
C365 H357 0.949 . S
C365 C364 1.428 . S
C365 C366 1.345 . S
C366 H358 0.950 . S
C366 C365 1.345 . S
C366 C367 1.424 . S
C367 H359 0.951 . S
C367 C366 1.424 . S
C367 C368 1.347 . S
C368 H360 0.951 . S
C368 C363 1.429 . S
C368 C367 1.347 . S
H369 C370 0.951 . S
C370 H369 0.951 . S
C370 C376 1.265 . S
H371 C376 0.950 . S
H372 C380 0.949 . S
H373 C381 0.950 . S
H374 C382 0.951 . S
H375 C383 0.951 . S
C376 C370 1.265 . S
C376 H371 0.950 . S
C376 C377 1.478 . S
C377 C364 1.394 . S
C377 C376 1.478 . S
C377 C378 1.397 . S
C378 C377 1.397 . S
C378 C379 1.438 . S
C378 C383 1.429 . S
C379 C362 1.394 . S
C379 C378 1.438 . S
C379 C380 1.428 . S
C380 H372 0.949 . S
C380 C379 1.428 . S
C380 C381 1.345 . S
C381 H373 0.950 . S
C381 C380 1.345 . S
C381 C382 1.424 . S
C382 H374 0.951 . S
C382 C381 1.424 . S
C382 C383 1.347 . S
C383 H375 0.951 . S
C383 C378 1.429 . S
C383 C382 1.347 . S
H384 C385 0.951 . S
C385 H384 0.951 . S
C385 C391 1.265 . S
H386 C391 0.950 . S
H387 C395 0.949 . S
H388 C396 0.950 . S
H389 C397 0.951 . S
H390 C398 0.951 . S
C391 C385 1.265 . S
C391 H386 0.950 . S
C391 C392 1.478 . S
C392 C391 1.478 . S
C392 C393 1.397 . S
C392 C409 1.394 . S
C393 C392 1.397 . S
C393 C394 1.438 . S
C393 C398 1.429 . S
C394 C393 1.438 . S
C394 C395 1.428 . S
C394 C407 1.394 . S
C395 H387 0.949 . S
C395 C394 1.428 . S
C395 C396 1.345 . S
C396 H388 0.950 . S
C396 C395 1.345 . S
C396 C397 1.424 . S
C397 H389 0.951 . S
C397 C396 1.424 . S
C397 C398 1.347 . S
C398 H390 0.951 . S
C398 C393 1.429 . S
C398 C397 1.347 . S
H399 C400 0.951 . S
C400 H399 0.951 . S
C400 C406 1.265 . S
H401 C406 0.950 . S
H402 C410 0.949 . S
H403 C411 0.950 . S
H404 C412 0.951 . S
H405 C413 0.951 . S
C406 C400 1.265 . S
C406 H401 0.950 . S
C406 C407 1.478 . S
C407 C394 1.394 . S
C407 C406 1.478 . S
C407 C408 1.397 . S
C408 C407 1.397 . S
C408 C409 1.438 . S
C408 C413 1.429 . S
C409 C392 1.394 . S
C409 C408 1.438 . S
C409 C410 1.428 . S
C410 H402 0.949 . S
C410 C409 1.428 . S
C410 C411 1.345 . S
C411 H403 0.950 . S
C411 C410 1.345 . S
C411 C412 1.424 . S
C412 H404 0.951 . S
C412 C411 1.424 . S
C412 C413 1.347 . S
C413 H405 0.951 . S
C413 C408 1.429 . S
C413 C412 1.347 . S
H414 C415 0.951 . S
C415 H414 0.951 . S
C415 C421 1.265 . S
H416 C421 0.950 . S
H417 C425 0.949 . S
H418 C426 0.950 . S
H419 C427 0.951 . S
H420 C428 0.951 . S
C421 C415 1.265 . S
C421 H416 0.950 . S
C421 C422 1.478 . S
C422 C421 1.478 . S
C422 C423 1.397 . S
C422 C439 1.394 1_556 S
C423 C422 1.397 . S
C423 C424 1.438 . S
C423 C428 1.429 . S
C424 C423 1.438 . S
C424 C425 1.428 . S
C424 C437 1.394 1_556 S
C425 H417 0.949 . S
C425 C424 1.428 . S
C425 C426 1.345 . S
C426 H418 0.950 . S
C426 C425 1.345 . S
C426 C427 1.424 . S
C427 H419 0.951 . S
C427 C426 1.424 . S
C427 C428 1.347 . S
C428 H420 0.951 . S
C428 C423 1.429 . S
C428 C427 1.347 . S
H429 C430 0.951 . S
C430 H429 0.951 . S
C430 C436 1.265 . S
H431 C436 0.950 . S
H432 C440 0.949 . S
H433 C441 0.950 . S
H434 C442 0.951 . S
H435 C443 0.951 . S
C436 C430 1.265 . S
C436 H431 0.950 . S
C436 C437 1.478 . S
C437 C424 1.394 1_554 S
C437 C436 1.478 . S
C437 C438 1.397 . S
C438 C437 1.397 . S
C438 C439 1.438 . S
C438 C443 1.429 . S
C439 C422 1.394 1_554 S
C439 C438 1.438 . S
C439 C440 1.428 . S
C440 H432 0.949 . S
C440 C439 1.428 . S
C440 C441 1.345 . S
C441 H433 0.950 . S
C441 C440 1.345 . S
C441 C442 1.424 . S
C442 H434 0.951 . S
C442 C441 1.424 . S
C442 C443 1.347 . S
C443 H435 0.951 . S
C443 C438 1.429 . S
C443 C442 1.347 . S
C85 C4 1.346 . S
C100 C54 1.350 . S
C115 C18 1.272 . S
C130 C68 1.336 . S
C145 C82 1.349 1_655 S
C160 C32 1.344 . S
C175 C12 1.350 . S
C190 C46 1.345 . S
C205 C26 1.354 . S
C220 C60 1.356 . S
C235 C74 1.354 1_554 S
C250 C40 1.353 . S
C265 C25 1.374 . S
C280 C5 1.239 . S
C295 C39 1.427 . S
C310 C19 1.190 . S
C325 C33 1.334 . S
C340 C53 1.441 . S
C355 C67 1.391 . S
C370 C47 1.201 . S
C385 C81 1.433 . S
C400 C61 1.196 . S
C415 C75 1.253 . S
C430 C11 1.371 . S
