# Generated by pormake.
# Topology umy, (4)-cn, num edge types: 1
# Building blocks:
#     Node 0, Type 0, BuildingBlock: TATPOV_clean_sbu_0, # of connection points: 4
#     Node 1, Type 0, BuildingBlock: TATPOV_clean_sbu_0, # of connection points: 4
#     Node 2, Type 0, BuildingBlock: TATPOV_clean_sbu_0, # of connection points: 4
#     Node 3, Type 0, BuildingBlock: TATPOV_clean_sbu_0, # of connection points: 4
#     Node 4, Type 0, BuildingBlock: TATPOV_clean_sbu_0, # of connection points: 4
#     Node 5, Type 0, BuildingBlock: TATPOV_clean_sbu_0, # of connection points: 4
#     Node 6, Type 0, BuildingBlock: TATPOV_clean_sbu_0, # of connection points: 4
#     Node 7, Type 0, BuildingBlock: TATPOV_clean_sbu_0, # of connection points: 4
#     Node 8, Type 0, BuildingBlock: TATPOV_clean_sbu_0, # of connection points: 4
#     Node 9, Type 0, BuildingBlock: TATPOV_clean_sbu_0, # of connection points: 4
#     Node 10, Type 0, BuildingBlock: TATPOV_clean_sbu_0, # of connection points: 4
#     Node 11, Type 0, BuildingBlock: TATPOV_clean_sbu_0, # of connection points: 4
#     Edge 12, Type (0, 0), BuildingBlock: XUDNAN_clean_linker_2, # of connection points: 2
#     Edge 13, Type (0, 0), BuildingBlock: XUDNAN_clean_linker_2, # of connection points: 2
#     Edge 14, Type (0, 0), BuildingBlock: XUDNAN_clean_linker_2, # of connection points: 2
#     Edge 15, Type (0, 0), BuildingBlock: XUDNAN_clean_linker_2, # of connection points: 2
#     Edge 16, Type (0, 0), BuildingBlock: XUDNAN_clean_linker_2, # of connection points: 2
#     Edge 17, Type (0, 0), BuildingBlock: XUDNAN_clean_linker_2, # of connection points: 2
#     Edge 18, Type (0, 0), BuildingBlock: XUDNAN_clean_linker_2, # of connection points: 2
#     Edge 19, Type (0, 0), BuildingBlock: XUDNAN_clean_linker_2, # of connection points: 2
#     Edge 20, Type (0, 0), BuildingBlock: XUDNAN_clean_linker_2, # of connection points: 2
#     Edge 21, Type (0, 0), BuildingBlock: XUDNAN_clean_linker_2, # of connection points: 2
#     Edge 22, Type (0, 0), BuildingBlock: XUDNAN_clean_linker_2, # of connection points: 2
#     Edge 23, Type (0, 0), BuildingBlock: XUDNAN_clean_linker_2, # of connection points: 2
#     Edge 24, Type (0, 0), BuildingBlock: XUDNAN_clean_linker_2, # of connection points: 2
#     Edge 25, Type (0, 0), BuildingBlock: XUDNAN_clean_linker_2, # of connection points: 2
#     Edge 26, Type (0, 0), BuildingBlock: XUDNAN_clean_linker_2, # of connection points: 2
#     Edge 27, Type (0, 0), BuildingBlock: XUDNAN_clean_linker_2, # of connection points: 2
#     Edge 28, Type (0, 0), BuildingBlock: XUDNAN_clean_linker_2, # of connection points: 2
#     Edge 29, Type (0, 0), BuildingBlock: XUDNAN_clean_linker_2, # of connection points: 2
#     Edge 30, Type (0, 0), BuildingBlock: XUDNAN_clean_linker_2, # of connection points: 2
#     Edge 31, Type (0, 0), BuildingBlock: XUDNAN_clean_linker_2, # of connection points: 2
#     Edge 32, Type (0, 0), BuildingBlock: XUDNAN_clean_linker_2, # of connection points: 2
#     Edge 33, Type (0, 0), BuildingBlock: XUDNAN_clean_linker_2, # of connection points: 2
#     Edge 34, Type (0, 0), BuildingBlock: XUDNAN_clean_linker_2, # of connection points: 2
#     Edge 35, Type (0, 0), BuildingBlock: XUDNAN_clean_linker_2, # of connection points: 2
# Relax obj value: 0.091
# Max RMSD: 0.114
# Mean RMSD: 0.114
data_MOF--net-umy--node1-TATPOV_clean_sbu_0--edge1-XUDNAN_clean_linker_2
_symmetry_space_group_name_H-M    P1
_symmetry_Int_Tables_number       1
_symmetry_cell_setting            triclinic
loop_
_symmetry_equiv_pos_as_xyz
'x, y, z'
_cell_length_a     39.377131
_cell_length_b     39.264528
_cell_length_c     48.652052
_cell_angle_alpha  89.983431
_cell_angle_beta   90.059344
_cell_angle_gamma 119.95179
loop_
_atom_site_label
_atom_site_type_symbol
_atom_site_fract_x
_atom_site_fract_y
_atom_site_fract_z
_atom_type_partial_charge
Zn0 Zn 0.08517 0.29121 0.11823 0.0
Zn1 Zn 0.09782 0.36379 0.1135 0.0
O2 O 0.03713 0.32977 0.11496 0.0
O3 O 0.02732 0.26955 0.11661 0.0
O4 O 0.10719 0.41881 0.10961 0.0
O5 O 0.11466 0.29692 0.08353 0.0
O6 O 0.12702 0.35799 0.07984 0.0
C7 C 0.01376 0.29274 0.11608 0.0
C8 C 0.12531 0.3395 0.16501 0.0
O9 O 0.12279 0.36556 0.15098 0.0
O10 O 0.11181 0.30511 0.15545 0.0
C11 C 0.08947 0.42777 0.09168 0.0
O12 O 0.06446 0.40041 0.07498 0.0
C13 C 0.13037 0.32933 0.0708 0.0
Zn14 Zn 0.80267 0.09888 0.27632 0.0
Zn15 Zn 0.73903 0.10644 0.27512 0.0
O16 O 0.71843 0.04652 0.27737 0.0
O17 O 0.77071 0.04014 0.27361 0.0
O18 O 0.68937 0.10861 0.27162 0.0
O19 O 0.82224 0.13007 0.24155 0.0
O20 O 0.77024 0.1373 0.24077 0.0
C21 C 0.73397 0.02484 0.27579 0.0
C22 C 0.7925 0.13748 0.32466 0.0
O23 O 0.76272 0.13376 0.3117 0.0
O24 O 0.81367 0.12494 0.31412 0.0
C25 C 0.66172 0.09059 0.28875 0.0
O26 O 0.66652 0.07148 0.30917 0.0
C27 C 0.80243 0.1435 0.23023 0.0
Zn28 Zn 0.71994 0.80669 0.4359 0.0
Zn29 Zn 0.65443 0.73978 0.42738 0.0
O30 O 0.69647 0.72347 0.43286 0.0
O31 O 0.75205 0.77975 0.43236 0.0
O32 O 0.60653 0.68907 0.4166 0.0
O33 O 0.71034 0.83257 0.40371 0.0
O34 O 0.65941 0.77476 0.39394 0.0
C35 C 0.73382 0.74257 0.4334 0.0
C36 C 0.66297 0.78469 0.47993 0.0
O37 O 0.64078 0.75661 0.46391 0.0
O38 O 0.69796 0.80868 0.47295 0.0
C39 C 0.57656 0.66834 0.43139 0.0
O40 O 0.57549 0.6793 0.45672 0.0
C41 C 0.68194 0.81088 0.38816 0.0
Zn42 Zn 0.91406 0.71008 0.603 0.0
Zn43 Zn 0.90059 0.63627 0.59931 0.0
O44 O 0.95963 0.67034 0.60829 0.0
O45 O 0.9723 0.73159 0.6055 0.0
O46 O 0.89394 0.582 0.59527 0.0
O47 O 0.88902 0.70524 0.56625 0.0
O48 O 0.87974 0.64519 0.56225 0.0
C49 C 0.9839 0.70715 0.60912 0.0
C50 C 0.8646 0.65821 0.64662 0.0
O51 O 0.86747 0.63199 0.63309 0.0
O52 O 0.8819 0.69349 0.63822 0.0
C53 C 0.89391 0.56322 0.61658 0.0
O54 O 0.89761 0.57937 0.64086 0.0
C55 C 0.87695 0.67389 0.5526 0.0
Zn56 Zn 0.19066 0.90441 0.78171 0.0
Zn57 Zn 0.25837 0.91044 0.77169 0.0
O58 O 0.26927 0.96747 0.77368 0.0
O59 O 0.21076 0.96152 0.77243 0.0
O60 O 0.31092 0.91853 0.76032 0.0
O61 O 0.16357 0.86164 0.7536 0.0
O62 O 0.22237 0.87508 0.74028 0.0
C63 C 0.24769 0.98311 0.77259 0.0
C64 C 0.2224 0.88252 0.82772 0.0
O65 O 0.24783 0.88525 0.81033 0.0
O66 O 0.19647 0.89098 0.82079 0.0
C67 C 0.32328 0.89489 0.76552 0.0
O68 O 0.30123 0.86297 0.77988 0.0
C69 C 0.18531 0.85653 0.737 0.0
Zn70 Zn 0.27995 0.18971 0.94217 0.0
Zn71 Zn 0.34998 0.25362 0.93613 0.0
O72 O 0.31425 0.27684 0.94563 0.0
O73 O 0.25642 0.22366 0.94984 0.0
O74 O 0.40301 0.3019 0.93036 0.0
O75 O 0.28098 0.17269 0.9036 0.0
O76 O 0.33998 0.22439 0.89877 0.0
C77 C 0.27762 0.26071 0.95058 0.0
C78 C 0.33567 0.19407 0.98218 0.0
O79 O 0.3582 0.22588 0.96947 0.0
O80 O 0.30069 0.17247 0.97406 0.0
C81 C 0.42714 0.318 0.95003 0.0
O82 O 0.41725 0.30322 0.97488 0.0
C83 C 0.31105 0.19319 0.88911 0.0
Zn84 Zn 0.68818 0.87499 0.72059 0.0
Zn85 Zn 0.6227 0.87738 0.72292 0.0
O86 O 0.66635 0.93575 0.72105 0.0
O87 O 0.72103 0.93378 0.72405 0.0
O88 O 0.57366 0.88086 0.72655 0.0
O89 O 0.67246 0.83886 0.75302 0.0
O90 O 0.62061 0.84585 0.75775 0.0
C91 C 0.70369 0.95348 0.7219 0.0
C92 C 0.64052 0.84382 0.67211 0.0
O93 O 0.61594 0.84937 0.68558 0.0
O94 O 0.67345 0.85295 0.68255 0.0
C95 C 0.56897 0.90532 0.71229 0.0
O96 O 0.5962 0.92776 0.69458 0.0
C97 C 0.64185 0.83183 0.766 0.0
Zn98 Zn 0.78815 0.70922 0.88225 0.0
Zn99 Zn 0.7351 0.63422 0.88983 0.0
O100 O 0.7034 0.66318 0.88703 0.0
O101 O 0.74795 0.72604 0.88668 0.0
O102 O 0.69425 0.57961 0.90086 0.0
O103 O 0.8195 0.71022 0.91499 0.0
O104 O 0.77555 0.64798 0.9212 0.0
C105 C 0.71239 0.69919 0.88687 0.0
C106 C 0.77937 0.65665 0.83631 0.0
O107 O 0.75488 0.62941 0.85196 0.0
O108 O 0.7966 0.69211 0.84443 0.0
C109 C 0.66161 0.5589 0.88878 0.0
O110 O 0.65366 0.57254 0.8665 0.0
C111 C 0.80697 0.67871 0.92854 0.0
Zn112 Zn 0.10128 0.82091 0.05795 0.0
Zn113 Zn 0.1055 0.7565 0.06447 0.0
O114 O 0.04686 0.73402 0.0544 0.0
O115 O 0.0443 0.78832 0.04897 0.0
O116 O 0.1107 0.70895 0.07208 0.0
O117 O 0.11768 0.8385 0.09658 0.0
O118 O 0.12451 0.78646 0.10158 0.0
C119 C 0.02751 0.75118 0.04851 0.0
C120 C 0.15231 0.81462 0.01862 0.0
O121 O 0.14153 0.78213 0.03094 0.0
O122 O 0.14035 0.83734 0.02702 0.0
C123 C 0.09283 0.67657 0.05914 0.0
O124 O 0.0689 0.67271 0.039 0.0
C125 C 0.12677 0.81769 0.11122 0.0
Zn126 Zn 0.29023 0.10484 0.22035 0.0
Zn127 Zn 0.35263 0.09927 0.22906 0.0
O128 O 0.3074 0.04209 0.22718 0.0
O129 O 0.25448 0.0474 0.22938 0.0
O130 O 0.39764 0.09205 0.24065 0.0
O131 O 0.30541 0.1469 0.24897 0.0
O132 O 0.35128 0.13342 0.26104 0.0
C133 C 0.27026 0.02613 0.22874 0.0
C134 C 0.34253 0.12739 0.17352 0.0
O135 O 0.36587 0.12454 0.19032 0.0
O136 O 0.30849 0.11902 0.18119 0.0
C137 C 0.43214 0.10886 0.23086 0.0
O138 O 0.44109 0.13348 0.21024 0.0
C139 C 0.33247 0.15153 0.26521 0.0
Zn140 Zn 0.20083 0.28779 0.40185 0.0
Zn141 Zn 0.26038 0.36197 0.40396 0.0
O142 O 0.28441 0.32652 0.397 0.0
O143 O 0.23679 0.26519 0.40078 0.0
O144 O 0.3087 0.41514 0.40659 0.0
O145 O 0.18166 0.29572 0.43828 0.0
O146 O 0.23012 0.35704 0.43984 0.0
C147 C 0.27261 0.28984 0.39699 0.0
C148 C 0.20404 0.33851 0.35631 0.0
O149 O 0.23282 0.36538 0.36957 0.0
O150 O 0.18613 0.30358 0.36547 0.0
C151 C 0.33164 0.42667 0.38603 0.0
O152 O 0.32196 0.40418 0.3641 0.0
C153 C 0.19949 0.32859 0.45043 0.0
Zn154 Zn 0.91094 0.1885 0.56174 0.0
Zn155 Zn 0.90093 0.24862 0.5712 0.0
O156 O 0.96153 0.27369 0.56783 0.0
O157 O 0.96904 0.22218 0.563 0.0
O158 O 0.89435 0.29427 0.5829 0.0
O159 O 0.88205 0.15957 0.5954 0.0
O160 O 0.87189 0.20898 0.60301 0.0
C161 C 0.98385 0.25903 0.56483 0.0
C162 C 0.87075 0.20377 0.51755 0.0
O163 O 0.87404 0.23125 0.53328 0.0
O164 O 0.88369 0.18152 0.52523 0.0
C165 C 0.89791 0.32218 0.56766 0.0
O166 O 0.90621 0.32241 0.54149 0.0
C167 C 0.8674 0.17564 0.60995 0.0
H168 H 0.05602 0.60137 0.03826 0.0
H169 H 0.14292 0.67689 0.09825 0.0
H170 H 0.1523 0.62185 0.11233 0.0
H171 H 0.01227 0.5145 0.07969 0.0
H172 H 0.00425 0.48162 0.05143 0.0
H173 H 0.00502 0.52726 0.04544 0.0
H174 H 0.05962 0.54666 0.00901 0.0
H175 H 0.05901 0.50105 0.01488 0.0
H176 H 0.10417 0.5471 0.01834 0.0
H177 H 0.15155 0.55866 0.12059 0.0
H178 H 0.14056 0.49113 0.12254 0.0
H179 H 0.05411 0.4564 0.05729 0.0
C180 C 0.07716 0.60641 0.05426 0.0
C181 C 0.09876 0.64351 0.06712 0.0
C182 C 0.126 0.64877 0.08808 0.0
C183 C 0.13159 0.61769 0.09622 0.0
C184 C 0.10974 0.58151 0.08323 0.0
C185 C 0.08308 0.57566 0.0627 0.0
C186 C 0.06292 0.53363 0.0524 0.0
C187 C 0.01848 0.51304 0.05756 0.0
C188 C 0.07199 0.53204 0.02184 0.0
C189 C 0.08231 0.51677 0.07045 0.0
C190 C 0.10927 0.54493 0.08803 0.0
C191 C 0.13058 0.53634 0.10687 0.0
C192 C 0.1241 0.49787 0.10783 0.0
C193 C 0.0965 0.46843 0.09006 0.0
C194 C 0.07549 0.47822 0.0711 0.0
H195 H 0.64165 0.12525 0.24768 0.0
H196 H 0.59647 0.05393 0.3213 0.0
H197 H 0.53293 0.0509 0.31435 0.0
H198 H 0.59302 0.18161 0.25708 0.0
H199 H 0.58339 0.18263 0.22094 0.0
H200 H 0.62547 0.17952 0.23188 0.0
H201 H 0.60182 0.11637 0.20276 0.0
H202 H 0.5596 0.1192 0.19181 0.0
H203 H 0.55329 0.0752 0.20816 0.0
H204 H 0.47412 0.05446 0.29898 0.0
H205 H 0.42426 0.06584 0.27703 0.0
H206 H 0.50779 0.13535 0.2135 0.0
C207 C 0.61848 0.10912 0.26243 0.0
C208 C 0.62405 0.08982 0.28506 0.0
C209 C 0.59292 0.06896 0.30382 0.0
C210 C 0.5567 0.06704 0.30004 0.0
C211 C 0.55213 0.08615 0.27742 0.0
C212 C 0.58216 0.1069 0.25897 0.0
C213 C 0.56952 0.12466 0.2363 0.0
C214 C 0.59432 0.16978 0.23658 0.0
C215 C 0.57115 0.10784 0.20809 0.0
C216 C 0.52766 0.11069 0.24491 0.0
C217 C 0.51822 0.08842 0.26863 0.0
C218 C 0.48118 0.07193 0.28044 0.0
C219 C 0.45303 0.07853 0.26776 0.0
C220 C 0.46209 0.10155 0.24353 0.0
C221 C 0.49996 0.11773 0.23201 0.0
H222 H 0.50689 0.61722 0.45661 0.0
H223 H 0.56984 0.63908 0.37943 0.0
H224 H 0.51346 0.58059 0.35929 0.0
H225 H 0.46097 0.51189 0.45456 0.0
H226 H 0.41554 0.50382 0.46927 0.0
H227 H 0.46078 0.54772 0.47763 0.0
H228 H 0.43125 0.59031 0.4613 0.0
H229 H 0.38596 0.54652 0.45279 0.0
H230 H 0.41144 0.58373 0.42704 0.0
H231 H 0.45075 0.5198 0.34747 0.0
H232 H 0.38598 0.45965 0.34506 0.0
H233 H 0.36354 0.47719 0.4298 0.0
C234 C 0.50885 0.60972 0.43548 0.0
C235 C 0.54282 0.63279 0.41962 0.0
C236 C 0.54417 0.6219 0.39203 0.0
C237 C 0.51227 0.58875 0.38036 0.0
C238 C 0.47922 0.56677 0.39651 0.0
C239 C 0.47726 0.57669 0.42348 0.0
C240 C 0.43835 0.54779 0.43639 0.0
C241 C 0.44428 0.52655 0.46091 0.0
C242 C 0.4154 0.56832 0.44487 0.0
C243 C 0.41885 0.52006 0.41247 0.0
C244 C 0.44292 0.53161 0.38966 0.0
C245 C 0.43158 0.51045 0.36517 0.0
C246 C 0.39472 0.47633 0.36401 0.0
C247 C 0.36966 0.46371 0.38721 0.0
C248 C 0.38193 0.48613 0.41167 0.0
H249 H 0.89942 0.52679 0.56982 0.0
H250 H 0.88195 0.51155 0.65807 0.0
H251 H 0.87885 0.44739 0.65475 0.0
H252 H 0.83559 0.4243 0.55102 0.0
H253 H 0.8673 0.42554 0.52387 0.0
H254 H 0.86633 0.46954 0.53291 0.0
H255 H 0.94143 0.50601 0.54084 0.0
H256 H 0.94263 0.46213 0.53187 0.0
H257 H 0.96203 0.48577 0.56446 0.0
H258 H 0.87915 0.38585 0.64223 0.0
H259 H 0.88413 0.33129 0.62149 0.0
H260 H 0.90262 0.38659 0.54134 0.0
C261 C 0.89458 0.50979 0.58841 0.0
C262 C 0.89079 0.52416 0.61422 0.0
C263 C 0.88494 0.5012 0.63809 0.0
C264 C 0.88305 0.46466 0.63641 0.0
C265 C 0.88718 0.4515 0.61073 0.0
C266 C 0.89288 0.47332 0.58714 0.0
C267 C 0.89781 0.45295 0.56225 0.0
C268 C 0.86478 0.44246 0.54128 0.0
C269 C 0.93839 0.47822 0.54909 0.0
C270 C 0.89424 0.41641 0.57558 0.0
C271 C 0.88788 0.4161 0.60353 0.0
C272 C 0.88403 0.38569 0.62036 0.0
C273 C 0.88692 0.35481 0.60834 0.0
C274 C 0.89379 0.35458 0.57976 0.0
C275 C 0.89732 0.38583 0.56322 0.0
H276 H 0.50494 0.8602 0.74476 0.0
H277 H 0.55399 0.95998 0.68909 0.0
H278 H 0.49655 0.9682 0.69684 0.0
H279 H 0.40407 0.82092 0.72429 0.0
H280 H 0.38519 0.80575 0.75857 0.0
H281 H 0.43014 0.80765 0.74856 0.0
H282 H 0.46604 0.85392 0.7896 0.0
H283 H 0.42124 0.85226 0.79969 0.0
H284 H 0.46468 0.89891 0.79331 0.0
H285 H 0.43473 0.96653 0.71138 0.0
H286 H 0.37138 0.95367 0.73036 0.0
H287 H 0.36199 0.85423 0.77602 0.0
C288 C 0.5036 0.88374 0.73414 0.0
C289 C 0.534 0.90949 0.71633 0.0
C290 C 0.53105 0.93985 0.70279 0.0
C291 C 0.49858 0.94481 0.70709 0.0
C292 C 0.46927 0.91906 0.72489 0.0
C293 C 0.47134 0.889 0.73809 0.0
C294 C 0.43578 0.86528 0.75609 0.0
C295 C 0.41242 0.82236 0.74628 0.0
C296 C 0.44766 0.86776 0.78647 0.0
C297 C 0.41342 0.8868 0.751 0.0
C298 C 0.43334 0.9178 0.73302 0.0
C299 C 0.41879 0.94227 0.72541 0.0
C300 C 0.38279 0.93474 0.73636 0.0
C301 C 0.36164 0.90288 0.75465 0.0
C302 C 0.37734 0.87871 0.76203 0.0
H303 H 0.45212 0.36503 0.90414 0.0
H304 H 0.49016 0.34963 0.98469 0.0
H305 H 0.55526 0.40768 0.97664 0.0
H306 H 0.54458 0.39834 0.86879 0.0
H307 H 0.53977 0.43383 0.84814 0.0
H308 H 0.49662 0.38992 0.85961 0.0
H309 H 0.4706 0.4323 0.88206 0.0
H310 H 0.51359 0.47629 0.87061 0.0
H311 H 0.50084 0.46976 0.90656 0.0
H312 H 0.61569 0.46747 0.96026 0.0
H313 H 0.66663 0.52755 0.93775 0.0
H314 H 0.58897 0.50552 0.86824 0.0
C315 C 0.47423 0.3737 0.92 0.0
C316 C 0.46613 0.3527 0.94501 0.0
C317 C 0.49569 0.36527 0.96538 0.0
C318 C 0.53281 0.39811 0.96097 0.0
C319 C 0.53982 0.41817 0.93613 0.0
C320 C 0.51134 0.40664 0.91604 0.0
C321 C 0.526 0.43437 0.89167 0.0
C322 C 0.52679 0.41282 0.86551 0.0
C323 C 0.50129 0.45437 0.8875 0.0
C324 C 0.56708 0.46345 0.90132 0.0
C325 C 0.57453 0.45328 0.92689 0.0
C326 C 0.61025 0.47574 0.94021 0.0
C327 C 0.63903 0.50981 0.92721 0.0
C328 C 0.63183 0.52133 0.90122 0.0
C329 C 0.59542 0.49753 0.88807 0.0
H330 H 0.11432 0.27343 0.03269 0.0
H331 H 0.19981 0.39315 0.05442 0.0
H332 H 0.24489 0.39313 0.0188 0.0
H333 H 0.17593 0.23888 0.02663 0.0
H334 H 0.15235 0.20662 0.99786 0.0
H335 H 0.12433 0.21934 0.02034 0.0
H336 H 0.10244 0.2454 0.97895 0.0
H337 H 0.13026 0.2324 0.95616 0.0
H338 H 0.13886 0.28199 0.95658 0.0
H339 H 0.28507 0.37421 0.98782 0.0
H340 H 0.31451 0.33981 0.96348 0.0
H341 H 0.20058 0.2338 0.96101 0.0
C342 C 0.14199 0.30012 0.02924 0.0
C343 C 0.15372 0.3333 0.0461 0.0
C344 C 0.19021 0.36762 0.04136 0.0
C345 C 0.21594 0.36778 0.02122 0.0
C346 C 0.20413 0.33376 0.00566 0.0
C347 C 0.16751 0.30087 0.00909 0.0
C348 C 0.16293 0.26664 0.9921 0.0
C349 C 0.15336 0.23081 0.01033 0.0
C350 C 0.13178 0.256 0.96961 0.0
C351 C 0.20348 0.28442 0.97988 0.0
C352 C 0.22681 0.32333 0.98747 0.0
C353 C 0.26674 0.34411 0.98113 0.0
C354 C 0.28325 0.32433 0.96732 0.0
C355 C 0.25985 0.28412 0.96024 0.0
C356 C 0.21927 0.26464 0.96583 0.0
H357 H 0.8332 0.12664 0.18653 0.0
H358 H 0.80966 0.21518 0.21923 0.0
H359 H 0.85201 0.26185 0.18331 0.0
H360 H 0.927 0.18171 0.17751 0.0
H361 H 0.93181 0.1608 0.14577 0.0
H362 H 0.8915 0.1319 0.16818 0.0
H363 H 0.84254 0.11975 0.12866 0.0
H364 H 0.88302 0.14868 0.10588 0.0
H365 H 0.84498 0.16095 0.11051 0.0
H366 H 0.9101 0.30276 0.153 0.0
H367 H 0.9752 0.33235 0.13091 0.0
H368 H 0.95748 0.21583 0.11558 0.0
C369 C 0.8356 0.1553 0.18521 0.0
C370 C 0.81826 0.16749 0.2053 0.0
C371 C 0.82235 0.20528 0.2036 0.0
C372 C 0.84632 0.23189 0.18327 0.0
C373 C 0.86486 0.21966 0.16444 0.0
C374 C 0.85878 0.18174 0.16483 0.0
C375 C 0.88588 0.17709 0.14517 0.0
C376 C 0.9105 0.16205 0.16007 0.0
C377 C 0.86272 0.15002 0.12112 0.0
C378 C 0.91078 0.2191 0.13563 0.0
C379 C 0.8977 0.24318 0.14629 0.0
C380 C 0.91983 0.28404 0.14376 0.0
C381 C 0.95684 0.30066 0.13115 0.0
C382 C 0.97142 0.27637 0.12153 0.0
C383 C 0.94699 0.23516 0.12247 0.0
H384 H 0.65955 0.86543 0.38807 0.0
H385 H 0.69143 0.79809 0.33444 0.0
H386 H 0.6942 0.83932 0.29495 0.0
H387 H 0.6013 0.887 0.33373 0.0
H388 H 0.61868 0.93526 0.34807 0.0
H389 H 0.61014 0.89485 0.37016 0.0
H390 H 0.68143 0.93487 0.38827 0.0
H391 H 0.69017 0.9751 0.36631 0.0
H392 H 0.72149 0.9539 0.36413 0.0
H393 H 0.7108 0.89764 0.26563 0.0
H394 H 0.73487 0.96499 0.24807 0.0
H395 H 0.6857 0.99133 0.31889 0.0
C396 C 0.66532 0.85842 0.3677 0.0
C397 C 0.67475 0.82856 0.36392 0.0
C398 C 0.68339 0.8205 0.33738 0.0
C399 C 0.68498 0.84375 0.31493 0.0
C400 C 0.67687 0.87412 0.31943 0.0
C401 C 0.66621 0.88083 0.34508 0.0
C402 C 0.66344 0.91792 0.34535 0.0
C403 C 0.62085 0.90816 0.34957 0.0
C404 C 0.69077 0.94714 0.36728 0.0
C405 C 0.67729 0.93282 0.31652 0.0
C406 C 0.68436 0.90688 0.3017 0.0
C407 C 0.70379 0.9174 0.27648 0.0
C408 C 0.71736 0.95564 0.26663 0.0
C409 C 0.71085 0.98258 0.28176 0.0
C410 C 0.68925 0.97049 0.30639 0.0
H411 H 0.71313 0.68128 0.46836 0.0
H412 H 0.80618 0.76151 0.41434 0.0
H413 H 0.84963 0.73859 0.43296 0.0
H414 H 0.76904 0.70298 0.52397 0.0
H415 H 0.74609 0.65474 0.53928 0.0
H416 H 0.71866 0.66759 0.51627 0.0
H417 H 0.70315 0.60768 0.48553 0.0
H418 H 0.7305 0.59442 0.50865 0.0
H419 H 0.74267 0.60156 0.47262 0.0
H420 H 0.88683 0.71928 0.46381 0.0
H421 H 0.91521 0.70677 0.50531 0.0
H422 H 0.79951 0.64022 0.54084 0.0
C423 C 0.74197 0.69238 0.45949 0.0
C424 C 0.75613 0.72245 0.43951 0.0
C425 C 0.79468 0.73795 0.42932 0.0
C426 C 0.81948 0.72497 0.43973 0.0
C427 C 0.80536 0.69663 0.46044 0.0
C428 C 0.76737 0.68032 0.47016 0.0
C429 C 0.76163 0.65603 0.4958 0.0
C430 C 0.7481 0.67128 0.52025 0.0
C431 C 0.73278 0.61232 0.49031 0.0
C432 C 0.80288 0.66331 0.50001 0.0
C433 C 0.82737 0.6858 0.47889 0.0
C434 C 0.86776 0.70057 0.47996 0.0
C435 C 0.88366 0.69331 0.50353 0.0
C436 C 0.85924 0.6715 0.52562 0.0
C437 C 0.81835 0.65546 0.52356 0.0
H438 H 0.00096 0.69323 0.65971 0.0
H439 H 0.05402 0.75782 0.58511 0.0
H440 H 0.11793 0.79475 0.60907 0.0
H441 H 0.04038 0.77279 0.69958 0.0
H442 H 0.04713 0.75066 0.73003 0.0
H443 H 0.00992 0.72076 0.7056 0.0
H444 H 0.03986 0.67544 0.70056 0.0
H445 H 0.07711 0.70504 0.72535 0.0
H446 H 0.09094 0.69643 0.69188 0.0
H447 H 0.17272 0.8316 0.64292 0.0
H448 H 0.21047 0.86948 0.6837 0.0
H449 H 0.11832 0.78588 0.73686 0.0
C450 C 0.02668 0.7136 0.64814 0.0
C451 C 0.02335 0.72176 0.62041 0.0
C452 C 0.05665 0.75042 0.60616 0.0
C453 C 0.09294 0.77144 0.61964 0.0
C454 C 0.09504 0.76392 0.64747 0.0
C455 C 0.06259 0.73572 0.66158 0.0
C456 C 0.06985 0.73864 0.69228 0.0
C457 C 0.04007 0.74619 0.70775 0.0
C458 C 0.06943 0.70169 0.70315 0.0
C459 C 0.11067 0.77401 0.69339 0.0
C460 C 0.12538 0.78728 0.66735 0.0
C461 C 0.16172 0.82109 0.66338 0.0
C462 C 0.18298 0.8424 0.68659 0.0
C463 C 0.16714 0.8304 0.71323 0.0
C464 C 0.13105 0.79538 0.71663 0.0
H465 H 0.31424 0.03203 0.80067 0.0
H466 H 0.21772 0.02919 0.7559 0.0
H467 H 0.23684 0.09542 0.77316 0.0
H468 H 0.29843 0.06467 0.85832 0.0
H469 H 0.3485 0.096 0.86906 0.0
H470 H 0.33656 0.05565 0.84634 0.0
H471 H 0.38688 0.10304 0.81078 0.0
H472 H 0.39933 0.14382 0.83362 0.0
H473 H 0.38394 0.14499 0.79889 0.0
H474 H 0.25392 0.15114 0.80391 0.0
H475 H 0.26734 0.19141 0.84579 0.0
H476 H 0.3528 0.15952 0.87178 0.0
C477 C 0.29854 0.04635 0.79332 0.0
C478 C 0.26491 0.02587 0.77663 0.0
C479 C 0.24388 0.04465 0.7684 0.0
C480 C 0.25466 0.08236 0.77804 0.0
C481 C 0.28657 0.10091 0.79588 0.0
C482 C 0.30855 0.08371 0.80324 0.0
C483 C 0.33641 0.10596 0.82662 0.0
C484 C 0.32951 0.07896 0.85153 0.0
C485 C 0.37918 0.12563 0.81688 0.0
C486 C 0.32447 0.13638 0.83271 0.0
C487 C 0.29659 0.13378 0.81413 0.0
C488 C 0.27677 0.15456 0.81793 0.0
C489 C 0.28453 0.17738 0.84172 0.0
C490 C 0.31195 0.17935 0.86129 0.0
C491 C 0.33308 0.15974 0.85633 0.0
H492 H 0.66226 0.67279 0.84445 0.0
H493 H 0.70068 0.75415 0.91263 0.0
H494 H 0.66686 0.78702 0.89255 0.0
H495 H 0.69017 0.74037 0.79799 0.0
H496 H 0.65208 0.71444 0.77288 0.0
H497 H 0.66375 0.68736 0.79698 0.0
H498 H 0.59162 0.64956 0.81346 0.0
H499 H 0.57946 0.67636 0.789 0.0
H500 H 0.56815 0.67641 0.82488 0.0
H501 H 0.64437 0.82072 0.86048 0.0
H502 H 0.64129 0.85494 0.81861 0.0
H503 H 0.6244 0.75632 0.76901 0.0
C504 C 0.66116 0.69585 0.85593 0.0
C505 C 0.68269 0.71021 0.88046 0.0
C506 C 0.6832 0.74212 0.89422 0.0
C507 C 0.66404 0.76089 0.88292 0.0
C508 C 0.64513 0.74777 0.85762 0.0
C509 C 0.64354 0.7158 0.84427 0.0
C510 C 0.63043 0.71333 0.8147 0.0
C511 C 0.66094 0.71397 0.79449 0.0
C512 C 0.59 0.67674 0.81026 0.0
C513 C 0.62796 0.75049 0.81283 0.0
C514 C 0.6346 0.76896 0.8381 0.0
C515 C 0.63804 0.80599 0.84078 0.0
C516 C 0.6362 0.82523 0.81697 0.0
C517 C 0.632 0.80773 0.79093 0.0
C518 C 0.6266 0.76957 0.78894 0.0
H519 H 0.85472 0.73999 0.96131 0.0
H520 H 0.81225 0.61595 0.94837 0.0
H521 H 0.85896 0.61812 0.98353 0.0
H522 H 0.95159 0.76978 0.96625 0.0
H523 H 0.96291 0.80619 0.9926 0.0
H524 H 0.9222 0.79296 0.96993 0.0
H525 H 0.87564 0.77525 0.0118 0.0
H526 H 0.91641 0.7886 0.0347 0.0
H527 H 0.87354 0.74045 0.03688 0.0
H528 H 0.91848 0.63749 0.0144 0.0
H529 H 0.98206 0.67125 0.03906 0.0
H530 H 0.98149 0.78124 0.03301 0.0
C531 C 0.85459 0.71304 0.96635 0.0
C532 C 0.83007 0.67785 0.95217 0.0
C533 C 0.83069 0.64317 0.95922 0.0
C534 C 0.85711 0.64416 0.97913 0.0
C535 C 0.88186 0.67982 0.99218 0.0
C536 C 0.88015 0.71342 0.98637 0.0
C537 C 0.91147 0.74873 0.00153 0.0
C538 C 0.93863 0.78129 0.98137 0.0
C539 C 0.89316 0.76415 0.02247 0.0
C540 C 0.93248 0.73033 0.01573 0.0
C541 C 0.91493 0.6905 0.01044 0.0
C542 C 0.93188 0.66846 0.01922 0.0
C543 C 0.96801 0.68786 0.0332 0.0
C544 C 0.98672 0.72886 0.03813 0.0
C545 C 0.96787 0.7498 0.02993 0.0
H546 H 0.28879 0.97749 0.20107 0.0
H547 H 0.19439 0.97961 0.24521 0.0
H548 H 0.148 0.91338 0.22776 0.0
H549 H 0.24156 0.94538 0.14326 0.0
H550 H 0.26057 0.91414 0.1326 0.0
H551 H 0.28849 0.95421 0.15561 0.0
H552 H 0.29104 0.9064 0.19112 0.0
H553 H 0.26324 0.86591 0.16798 0.0
H554 H 0.24616 0.86432 0.20258 0.0
H555 H 0.11012 0.85826 0.19654 0.0
H556 H 0.0841 0.81887 0.15422 0.0
H557 H 0.20168 0.85094 0.12923 0.0
C558 C 0.25877 0.96301 0.20826 0.0
C559 C 0.24519 0.98333 0.22475 0.0
C560 C 0.2054 0.96431 0.23281 0.0
C561 C 0.17889 0.92659 0.22308 0.0
C562 C 0.19264 0.90825 0.20534 0.0
C563 C 0.23184 0.92564 0.19823 0.0
C564 C 0.23791 0.90369 0.17486 0.0
C565 C 0.25828 0.93098 0.15015 0.0
C566 C 0.26095 0.88389 0.18474 0.0
C567 C 0.19579 0.87336 0.16839 0.0
C568 C 0.17022 0.87564 0.18683 0.0
C569 C 0.12977 0.85504 0.18263 0.0
C570 C 0.11519 0.83276 0.15858 0.0
C571 C 0.14097 0.83113 0.13918 0.0
C572 C 0.18151 0.85049 0.14454 0.0
H573 H 0.33823 0.22317 0.26806 0.0
H574 H 0.34058 0.13301 0.31788 0.0
H575 H 0.33804 0.167 0.36005 0.0
H576 H 0.39734 0.30766 0.31843 0.0
H577 H 0.36864 0.33026 0.30961 0.0
H578 H 0.37842 0.30302 0.28404 0.0
H579 H 0.30385 0.2594 0.27518 0.0
H580 H 0.29388 0.28626 0.30065 0.0
H581 H 0.27178 0.23365 0.30357 0.0
H582 H 0.31723 0.20038 0.3947 0.0
H583 H 0.28838 0.23521 0.4193 0.0
H584 H 0.30865 0.30896 0.34813 0.0
C585 C 0.33975 0.21155 0.28793 0.0
C586 C 0.33972 0.17575 0.28995 0.0
C587 C 0.34113 0.16078 0.31609 0.0
C588 C 0.33967 0.17988 0.34008 0.0
C589 C 0.33821 0.21453 0.33745 0.0
C590 C 0.33951 0.23089 0.31199 0.0
C591 C 0.33427 0.26639 0.31447 0.0
C592 C 0.37192 0.30407 0.30615 0.0
C593 C 0.29884 0.26106 0.29749 0.0
C594 C 0.32689 0.26579 0.34502 0.0
C595 C 0.32947 0.2358 0.35803 0.0
C596 C 0.31691 0.2251 0.38512 0.0
C597 C 0.30059 0.24494 0.39896 0.0
C598 C 0.29789 0.27561 0.38585 0.0
C599 C 0.31238 0.28693 0.35896 0.0
H600 H 0.16434 0.27535 0.49097 0.0
H601 H 0.19344 0.39249 0.46568 0.0
H602 H 0.14959 0.39353 0.50175 0.0
H603 H 0.06969 0.23838 0.49797 0.0
H604 H 0.06239 0.20831 0.52785 0.0
H605 H 0.10337 0.22116 0.50574 0.0
H606 H 0.15096 0.25139 0.54697 0.0
H607 H 0.10984 0.23833 0.56943 0.0
H608 H 0.14935 0.28853 0.56779 0.0
H609 H 0.09037 0.37441 0.53168 0.0
H610 H 0.02489 0.33847 0.55333 0.0
H611 H 0.03782 0.23553 0.56123 0.0
C612 C 0.16273 0.30185 0.4939 0.0
C613 C 0.1822 0.33387 0.47579 0.0
C614 C 0.17913 0.36791 0.47972 0.0
C615 C 0.15426 0.36869 0.50014 0.0
C616 C 0.13374 0.33565 0.51687 0.0
C617 C 0.13864 0.30324 0.51439 0.0
C618 C 0.10991 0.26954 0.53214 0.0
C619 C 0.08487 0.23221 0.51489 0.0
C620 C 0.1313 0.26149 0.55547 0.0
C621 C 0.0858 0.28669 0.54319 0.0
C622 C 0.10036 0.32515 0.53476 0.0
C623 C 0.07945 0.34479 0.53917 0.0
C624 C 0.04223 0.32415 0.55152 0.0
C625 C 0.02625 0.2842 0.55903 0.0
C626 C 0.04936 0.26618 0.55601 0.0
H627 H 0.87622 0.12375 0.64157 0.0
H628 H 0.8044 0.17803 0.63204 0.0
H629 H 0.75846 0.13288 0.66724 0.0
H630 H 0.80314 0.02982 0.64493 0.0
H631 H 0.82537 0.01345 0.67019 0.0
H632 H 0.85572 0.05461 0.64859 0.0
H633 H 0.88808 0.09779 0.69165 0.0
H634 H 0.85772 0.05652 0.71349 0.0
H635 H 0.85775 0.10216 0.71754 0.0
H636 H 0.71423 0.07302 0.69612 0.0
H637 H 0.67797 0.00692 0.71713 0.0
H638 H 0.78144 0.99519 0.70971 0.0
C639 C 0.85143 0.12691 0.6475 0.0
C640 C 0.84374 0.15425 0.63417 0.0
C641 C 0.81095 0.15747 0.64226 0.0
C642 C 0.78475 0.13195 0.66222 0.0
C643 C 0.79245 0.10422 0.6743 0.0
C644 C 0.82553 0.10222 0.66758 0.0
C645 C 0.82561 0.06776 0.68137 0.0
C646 C 0.82754 0.03978 0.66 0.0
C647 C 0.85929 0.08192 0.70226 0.0
C648 C 0.78631 0.04917 0.69563 0.0
C649 C 0.7677 0.07076 0.69169 0.0
C650 C 0.729 0.05651 0.70003 0.0
C651 C 0.70859 0.01889 0.71195 0.0
C652 C 0.72695 0.99598 0.71538 0.0
C653 C 0.76675 0.0122 0.70801 0.0
H654 H 0.15999 0.28597 0.31634 0.0
H655 H 0.22571 0.4109 0.33423 0.0
H656 H 0.21239 0.42526 0.28719 0.0
H657 H 0.19502 0.29336 0.24839 0.0
H658 H 0.1493 0.25452 0.23498 0.0
H659 H 0.16161 0.25407 0.27057 0.0
H660 H 0.09675 0.25063 0.28543 0.0
H661 H 0.08403 0.25066 0.24986 0.0
H662 H 0.08554 0.28719 0.27304 0.0
H663 H 0.19239 0.42561 0.23757 0.0
H664 H 0.16802 0.41187 0.18963 0.0
H665 H 0.1185 0.28689 0.20443 0.0
C666 C 0.17108 0.31635 0.31057 0.0
C667 C 0.19357 0.34731 0.32904 0.0
C668 C 0.20822 0.3867 0.32044 0.0
C669 C 0.20083 0.39514 0.29378 0.0
C670 C 0.17906 0.36388 0.27593 0.0
C671 C 0.16445 0.32529 0.28401 0.0
C672 C 0.14334 0.29705 0.26068 0.0
C673 C 0.16354 0.27337 0.25322 0.0
C674 C 0.09984 0.26978 0.26767 0.0
C675 C 0.14835 0.32574 0.23816 0.0
C676 C 0.16879 0.36415 0.24733 0.0
C677 C 0.17643 0.39564 0.23016 0.0
C678 C 0.16253 0.38756 0.20298 0.0
C679 C 0.14161 0.34835 0.19321 0.0
C680 C 0.13476 0.31723 0.21112 0.0
H681 H 0.88087 0.16498 0.47494 0.0
H682 H 0.82452 0.23216 0.49645 0.0
H683 H 0.79861 0.22375 0.44888 0.0
H684 H 0.91067 0.2051 0.4074 0.0
H685 H 0.90283 0.15949 0.39289 0.0
H686 H 0.91579 0.17027 0.42861 0.0
H687 H 0.85382 0.10511 0.44252 0.0
H688 H 0.84077 0.09405 0.40686 0.0
H689 H 0.80639 0.09533 0.43066 0.0
H690 H 0.7771 0.20519 0.39861 0.0
H691 H 0.76462 0.18104 0.35053 0.0
H692 H 0.8389 0.12983 0.36287 0.0
C693 C 0.86285 0.17776 0.46981 0.0
C694 C 0.85433 0.19887 0.48949 0.0
C695 C 0.83124 0.21571 0.4817 0.0
C696 C 0.81644 0.21108 0.45477 0.0
C697 C 0.82552 0.19004 0.43587 0.0
C698 C 0.84848 0.17397 0.44312 0.0
C699 C 0.85494 0.15341 0.41914 0.0
C700 C 0.89865 0.17327 0.41157 0.0
C701 C 0.83795 0.10937 0.42516 0.0
C702 C 0.83168 0.15996 0.39719 0.0
C703 C 0.81468 0.18094 0.40712 0.0
C704 C 0.79061 0.18908 0.39061 0.0
C705 C 0.78367 0.17525 0.36335 0.0
C706 C 0.80112 0.15391 0.35285 0.0
C707 C 0.82561 0.14657 0.37008 0.0
H708 H 0.69503 0.86337 0.63262 0.0
H709 H 0.56971 0.7948 0.64646 0.0
H710 H 0.56022 0.77205 0.59783 0.0
H711 H 0.6888 0.89496 0.5642 0.0
H712 H 0.73149 0.89346 0.55262 0.0
H713 H 0.72727 0.90362 0.58815 0.0
H714 H 0.73694 0.84554 0.60299 0.0
H715 H 0.74116 0.83518 0.56754 0.0
H716 H 0.70497 0.79718 0.58922 0.0
H717 H 0.56662 0.7543 0.54739 0.0
H718 H 0.58737 0.74715 0.50055 0.0
H719 H 0.70793 0.83124 0.52164 0.0
C720 C 0.66551 0.84342 0.62553 0.0
C721 C 0.63312 0.83031 0.6433 0.0
C722 C 0.59491 0.80498 0.63309 0.0
C723 C 0.58933 0.79195 0.60558 0.0
C724 C 0.62222 0.80528 0.58865 0.0
C725 C 0.65947 0.83091 0.59833 0.0
C726 C 0.6902 0.84183 0.57639 0.0
C727 C 0.71063 0.88609 0.56996 0.0
C728 C 0.72005 0.82915 0.58453 0.0
C729 C 0.66474 0.81768 0.55281 0.0
C730 C 0.6256 0.79661 0.56004 0.0
C731 C 0.59715 0.77107 0.5415 0.0
C732 C 0.60918 0.76713 0.51499 0.0
C733 C 0.64922 0.78889 0.50735 0.0
C734 C 0.67703 0.81452 0.52661 0.0
H735 H 0.86513 0.70962 0.68466 0.0
H736 H 0.8191 0.58514 0.66986 0.0
H737 H 0.79028 0.57038 0.71654 0.0
H738 H 0.89365 0.7095 0.75314 0.0
H739 H 0.8811 0.74538 0.76486 0.0
H740 H 0.89505 0.74566 0.72961 0.0
H741 H 0.82987 0.74025 0.71315 0.0
H742 H 0.81587 0.74033 0.74837 0.0
H743 H 0.78397 0.70077 0.72577 0.0
H744 H 0.76846 0.56998 0.76603 0.0
H745 H 0.75617 0.58404 0.81347 0.0
H746 H 0.81917 0.70894 0.79523 0.0
C747 C 0.84844 0.67914 0.69096 0.0
C748 C 0.84411 0.64851 0.67347 0.0
C749 C 0.8226 0.60911 0.68282 0.0
C750 C 0.80616 0.60044 0.70932 0.0
C751 C 0.81165 0.63151 0.7262 0.0
C752 C 0.83226 0.67006 0.7173 0.0
C753 C 0.83576 0.69836 0.73967 0.0
C754 C 0.87895 0.72636 0.74726 0.0
C755 C 0.81513 0.72126 0.73123 0.0
C756 C 0.81416 0.66982 0.76269 0.0
C757 C 0.80015 0.63136 0.75457 0.0
C758 C 0.77928 0.60001 0.77256 0.0
C759 C 0.77248 0.60828 0.79946 0.0
C760 C 0.78687 0.64759 0.80815 0.0
C761 C 0.80798 0.67857 0.78938 0.0
H762 H 0.20585 0.91222 0.8723 0.0
H763 H 0.24068 0.82795 0.84797 0.0
H764 H 0.23405 0.80534 0.89646 0.0
H765 H 0.25516 0.93614 0.94039 0.0
H766 H 0.21632 0.94132 0.95571 0.0
H767 H 0.22834 0.95312 0.91995 0.0
H768 H 0.15614 0.90442 0.90662 0.0
H769 H 0.14395 0.89245 0.94221 0.0
H770 H 0.13375 0.85398 0.91779 0.0
H771 H 0.21353 0.78605 0.94682 0.0
H772 H 0.18506 0.77456 0.99363 0.0
H773 H 0.16841 0.87513 0.98393 0.0
C774 C 0.21274 0.88944 0.87725 0.0
C775 C 0.22349 0.87155 0.85655 0.0
C776 C 0.23252 0.84204 0.8637 0.0
C777 C 0.22882 0.82909 0.89113 0.0
C778 C 0.21711 0.8468 0.91103 0.0
C779 C 0.20997 0.87689 0.90436 0.0
C780 C 0.19592 0.89003 0.92885 0.0
C781 C 0.22572 0.93268 0.93668 0.0
C782 C 0.15503 0.88488 0.92354 0.0
C783 C 0.19451 0.86152 0.95024 0.0
C784 C 0.20701 0.83687 0.93982 0.0
C785 C 0.20456 0.80579 0.95533 0.0
C786 C 0.18831 0.79946 0.98189 0.0
C787 C 0.1748 0.82414 0.9926 0.0
C788 C 0.17902 0.85607 0.97666 0.0
H789 H 0.29364 0.10003 0.13001 0.0
H790 H 0.4151 0.17906 0.15158 0.0
H791 H 0.42938 0.20084 0.10284 0.0
H792 H 0.3129 0.07256 0.06152 0.0
H793 H 0.26945 0.07002 0.04722 0.0
H794 H 0.27064 0.05859 0.08297 0.0
H795 H 0.25201 0.11096 0.09681 0.0
H796 H 0.2508 0.12254 0.06123 0.0
H797 H 0.28179 0.16084 0.08496 0.0
H798 H 0.427 0.21963 0.05243 0.0
H799 H 0.40934 0.23111 0.0058 0.0
H800 H 0.29015 0.13618 0.01834 0.0
C801 C 0.32342 0.12157 0.12444 0.0
C802 C 0.35326 0.13818 0.14446 0.0
C803 C 0.3919 0.16598 0.13642 0.0
C804 C 0.40018 0.17845 0.10884 0.0
C805 C 0.36966 0.162 0.08965 0.0
C806 C 0.3322 0.13363 0.09717 0.0
C807 C 0.30394 0.12144 0.07333 0.0
C808 C 0.28833 0.07808 0.06582 0.0
C809 C 0.27018 0.12945 0.07946 0.0
C810 C 0.33082 0.14849 0.05129 0.0
C811 C 0.3687 0.1716 0.06087 0.0
C812 C 0.39763 0.2011 0.0446 0.0
C813 C 0.38732 0.20743 0.01815 0.0
C814 C 0.34843 0.18432 0.00826 0.0
C815 C 0.3203 0.15397 0.02498 0.0
loop_
_geom_bond_atom_site_label_1
_geom_bond_atom_site_label_2
_geom_bond_distance
_geom_bond_site_symmetry_2
_ccdc_geom_bond_type
Zn0 O3 2.031 . S
Zn0 O5 2.049 . S
Zn0 O10 2.067 . S
Zn1 O2 1.962 . S
Zn1 O4 1.986 . S
Zn1 O6 1.996 . S
Zn1 O9 1.943 . S
O2 Zn1 1.962 . S
O2 C7 1.254 . S
O3 Zn0 2.031 . S
O3 C7 1.269 . S
O4 Zn1 1.986 . S
O4 C11 1.262 . S
O5 Zn0 2.049 . S
O5 C13 1.260 . S
O6 Zn1 1.996 . S
O6 C13 1.257 . S
C7 O2 1.254 . S
C7 O3 1.269 . S
C8 O9 1.249 . S
C8 O10 1.270 . S
O9 Zn1 1.943 . S
O9 C8 1.249 . S
O10 Zn0 2.067 . S
O10 C8 1.270 . S
C11 O4 1.262 . S
C11 O12 1.232 . S
O12 C11 1.232 . S
C13 O5 1.260 . S
C13 O6 1.257 . S
Zn14 O17 2.031 . S
Zn14 O19 2.049 . S
Zn14 O24 2.067 . S
Zn15 O16 1.962 . S
Zn15 O18 1.986 . S
Zn15 O20 1.996 . S
Zn15 O23 1.943 . S
O16 Zn15 1.962 . S
O16 C21 1.254 . S
O17 Zn14 2.031 . S
O17 C21 1.269 . S
O18 Zn15 1.986 . S
O18 C25 1.262 . S
O19 Zn14 2.049 . S
O19 C27 1.260 . S
O20 Zn15 1.996 . S
O20 C27 1.257 . S
C21 O16 1.254 . S
C21 O17 1.269 . S
C22 O23 1.249 . S
C22 O24 1.270 . S
O23 Zn15 1.943 . S
O23 C22 1.249 . S
O24 Zn14 2.067 . S
O24 C22 1.270 . S
C25 O18 1.262 . S
C25 O26 1.232 . S
O26 C25 1.232 . S
C27 O19 1.260 . S
C27 O20 1.257 . S
Zn28 O31 2.031 . S
Zn28 O33 2.049 . S
Zn28 O38 2.067 . S
Zn29 O30 1.962 . S
Zn29 O32 1.986 . S
Zn29 O34 1.996 . S
Zn29 O37 1.943 . S
O30 Zn29 1.962 . S
O30 C35 1.254 . S
O31 Zn28 2.031 . S
O31 C35 1.269 . S
O32 Zn29 1.986 . S
O32 C39 1.262 . S
O33 Zn28 2.049 . S
O33 C41 1.260 . S
O34 Zn29 1.996 . S
O34 C41 1.257 . S
C35 O30 1.254 . S
C35 O31 1.269 . S
C36 O37 1.249 . S
C36 O38 1.270 . S
O37 Zn29 1.943 . S
O37 C36 1.249 . S
O38 Zn28 2.067 . S
O38 C36 1.270 . S
C39 O32 1.262 . S
C39 O40 1.232 . S
O40 C39 1.232 . S
C41 O33 1.260 . S
C41 O34 1.257 . S
Zn42 O45 2.031 . S
Zn42 O47 2.049 . S
Zn42 O52 2.067 . S
Zn43 O44 1.962 . S
Zn43 O46 1.986 . S
Zn43 O48 1.996 . S
Zn43 O51 1.943 . S
O44 Zn43 1.962 . S
O44 C49 1.254 . S
O45 Zn42 2.031 . S
O45 C49 1.269 . S
O46 Zn43 1.986 . S
O46 C53 1.262 . S
O47 Zn42 2.049 . S
O47 C55 1.260 . S
O48 Zn43 1.996 . S
O48 C55 1.257 . S
C49 O44 1.254 . S
C49 O45 1.269 . S
C50 O51 1.249 . S
C50 O52 1.270 . S
O51 Zn43 1.943 . S
O51 C50 1.249 . S
O52 Zn42 2.067 . S
O52 C50 1.270 . S
C53 O46 1.262 . S
C53 O54 1.232 . S
O54 C53 1.232 . S
C55 O47 1.260 . S
C55 O48 1.257 . S
Zn56 O59 2.031 . S
Zn56 O61 2.049 . S
Zn56 O66 2.067 . S
Zn57 O58 1.962 . S
Zn57 O60 1.986 . S
Zn57 O62 1.996 . S
Zn57 O65 1.943 . S
O58 Zn57 1.962 . S
O58 C63 1.254 . S
O59 Zn56 2.031 . S
O59 C63 1.269 . S
O60 Zn57 1.986 . S
O60 C67 1.262 . S
O61 Zn56 2.049 . S
O61 C69 1.260 . S
O62 Zn57 1.996 . S
O62 C69 1.257 . S
C63 O58 1.254 . S
C63 O59 1.269 . S
C64 O65 1.249 . S
C64 O66 1.270 . S
O65 Zn57 1.943 . S
O65 C64 1.249 . S
O66 Zn56 2.067 . S
O66 C64 1.270 . S
C67 O60 1.262 . S
C67 O68 1.232 . S
O68 C67 1.232 . S
C69 O61 1.260 . S
C69 O62 1.257 . S
Zn70 O73 2.031 . S
Zn70 O75 2.049 . S
Zn70 O80 2.067 . S
Zn71 O72 1.962 . S
Zn71 O74 1.986 . S
Zn71 O76 1.996 . S
Zn71 O79 1.943 . S
O72 Zn71 1.962 . S
O72 C77 1.254 . S
O73 Zn70 2.031 . S
O73 C77 1.269 . S
O74 Zn71 1.986 . S
O74 C81 1.262 . S
O75 Zn70 2.049 . S
O75 C83 1.260 . S
O76 Zn71 1.996 . S
O76 C83 1.257 . S
C77 O72 1.254 . S
C77 O73 1.269 . S
C78 O79 1.249 . S
C78 O80 1.270 . S
O79 Zn71 1.943 . S
O79 C78 1.249 . S
O80 Zn70 2.067 . S
O80 C78 1.270 . S
C81 O74 1.262 . S
C81 O82 1.232 . S
O82 C81 1.232 . S
C83 O75 1.260 . S
C83 O76 1.257 . S
Zn84 O87 2.031 . S
Zn84 O89 2.049 . S
Zn84 O94 2.067 . S
Zn85 O86 1.962 . S
Zn85 O88 1.986 . S
Zn85 O90 1.996 . S
Zn85 O93 1.943 . S
O86 Zn85 1.962 . S
O86 C91 1.254 . S
O87 Zn84 2.031 . S
O87 C91 1.269 . S
O88 Zn85 1.986 . S
O88 C95 1.262 . S
O89 Zn84 2.049 . S
O89 C97 1.260 . S
O90 Zn85 1.996 . S
O90 C97 1.257 . S
C91 O86 1.254 . S
C91 O87 1.269 . S
C92 O93 1.249 . S
C92 O94 1.270 . S
O93 Zn85 1.943 . S
O93 C92 1.249 . S
O94 Zn84 2.067 . S
O94 C92 1.270 . S
C95 O88 1.262 . S
C95 O96 1.232 . S
O96 C95 1.232 . S
C97 O89 1.260 . S
C97 O90 1.257 . S
Zn98 O101 2.031 . S
Zn98 O103 2.049 . S
Zn98 O108 2.067 . S
Zn99 O100 1.962 . S
Zn99 O102 1.986 . S
Zn99 O104 1.996 . S
Zn99 O107 1.943 . S
O100 Zn99 1.962 . S
O100 C105 1.254 . S
O101 Zn98 2.031 . S
O101 C105 1.269 . S
O102 Zn99 1.986 . S
O102 C109 1.262 . S
O103 Zn98 2.049 . S
O103 C111 1.260 . S
O104 Zn99 1.996 . S
O104 C111 1.257 . S
C105 O100 1.254 . S
C105 O101 1.269 . S
C106 O107 1.249 . S
C106 O108 1.270 . S
O107 Zn99 1.943 . S
O107 C106 1.249 . S
O108 Zn98 2.067 . S
O108 C106 1.270 . S
C109 O102 1.262 . S
C109 O110 1.232 . S
O110 C109 1.232 . S
C111 O103 1.260 . S
C111 O104 1.257 . S
Zn112 O115 2.031 . S
Zn112 O117 2.049 . S
Zn112 O122 2.067 . S
Zn113 O114 1.962 . S
Zn113 O116 1.986 . S
Zn113 O118 1.996 . S
Zn113 O121 1.943 . S
O114 Zn113 1.962 . S
O114 C119 1.254 . S
O115 Zn112 2.031 . S
O115 C119 1.269 . S
O116 Zn113 1.986 . S
O116 C123 1.262 . S
O117 Zn112 2.049 . S
O117 C125 1.260 . S
O118 Zn113 1.996 . S
O118 C125 1.257 . S
C119 O114 1.254 . S
C119 O115 1.269 . S
C120 O121 1.249 . S
C120 O122 1.270 . S
O121 Zn113 1.943 . S
O121 C120 1.249 . S
O122 Zn112 2.067 . S
O122 C120 1.270 . S
C123 O116 1.262 . S
C123 O124 1.232 . S
O124 C123 1.232 . S
C125 O117 1.260 . S
C125 O118 1.257 . S
Zn126 O129 2.031 . S
Zn126 O131 2.049 . S
Zn126 O136 2.067 . S
Zn127 O128 1.962 . S
Zn127 O130 1.986 . S
Zn127 O132 1.996 . S
Zn127 O135 1.943 . S
O128 Zn127 1.962 . S
O128 C133 1.254 . S
O129 Zn126 2.031 . S
O129 C133 1.269 . S
O130 Zn127 1.986 . S
O130 C137 1.262 . S
O131 Zn126 2.049 . S
O131 C139 1.260 . S
O132 Zn127 1.996 . S
O132 C139 1.257 . S
C133 O128 1.254 . S
C133 O129 1.269 . S
C134 O135 1.249 . S
C134 O136 1.270 . S
O135 Zn127 1.943 . S
O135 C134 1.249 . S
O136 Zn126 2.067 . S
O136 C134 1.270 . S
C137 O130 1.262 . S
C137 O138 1.232 . S
O138 C137 1.232 . S
C139 O131 1.260 . S
C139 O132 1.257 . S
Zn140 O143 2.031 . S
Zn140 O145 2.049 . S
Zn140 O150 2.067 . S
Zn141 O142 1.962 . S
Zn141 O144 1.986 . S
Zn141 O146 1.996 . S
Zn141 O149 1.943 . S
O142 Zn141 1.962 . S
O142 C147 1.254 . S
O143 Zn140 2.031 . S
O143 C147 1.269 . S
O144 Zn141 1.986 . S
O144 C151 1.262 . S
O145 Zn140 2.049 . S
O145 C153 1.260 . S
O146 Zn141 1.996 . S
O146 C153 1.257 . S
C147 O142 1.254 . S
C147 O143 1.269 . S
C148 O149 1.249 . S
C148 O150 1.270 . S
O149 Zn141 1.943 . S
O149 C148 1.249 . S
O150 Zn140 2.067 . S
O150 C148 1.270 . S
C151 O144 1.262 . S
C151 O152 1.232 . S
O152 C151 1.232 . S
C153 O145 1.260 . S
C153 O146 1.257 . S
Zn154 O157 2.031 . S
Zn154 O159 2.049 . S
Zn154 O164 2.067 . S
Zn155 O156 1.962 . S
Zn155 O158 1.986 . S
Zn155 O160 1.996 . S
Zn155 O163 1.943 . S
O156 Zn155 1.962 . S
O156 C161 1.254 . S
O157 Zn154 2.031 . S
O157 C161 1.269 . S
O158 Zn155 1.986 . S
O158 C165 1.262 . S
O159 Zn154 2.049 . S
O159 C167 1.260 . S
O160 Zn155 1.996 . S
O160 C167 1.257 . S
C161 O156 1.254 . S
C161 O157 1.269 . S
C162 O163 1.249 . S
C162 O164 1.270 . S
O163 Zn155 1.943 . S
O163 C162 1.249 . S
O164 Zn154 2.067 . S
O164 C162 1.270 . S
C165 O158 1.262 . S
C165 O166 1.232 . S
O166 C165 1.232 . S
C167 O159 1.260 . S
C167 O160 1.257 . S
H168 C180 0.930 . S
H169 C182 0.930 . S
H170 C183 0.930 . S
H171 C187 0.960 . S
H172 C187 0.959 1_655 S
H173 C187 0.960 1_655 S
H174 C188 0.960 . S
H175 C188 0.961 . S
H176 C188 0.959 . S
H177 C191 0.929 . S
H178 C192 0.931 . S
H179 C194 0.930 . S
C180 H168 0.930 . S
C180 C181 1.399 . S
C180 C185 1.399 . S
C181 C180 1.399 . S
C181 C182 1.376 . S
C182 H169 0.930 . S
C182 C181 1.376 . S
C182 C183 1.388 . S
C183 H170 0.930 . S
C183 C182 1.388 . S
C183 C184 1.390 . S
C184 C183 1.390 . S
C184 C185 1.394 . S
C184 C190 1.465 . S
C185 C180 1.399 . S
C185 C184 1.394 . S
C185 C186 1.516 . S
C186 C185 1.516 . S
C186 C187 1.503 . S
C186 C188 1.561 . S
C186 C189 1.526 . S
C187 H171 0.960 . S
C187 H172 0.959 1_455 S
C187 H173 0.960 1_455 S
C187 C186 1.503 . S
C188 H174 0.960 . S
C188 H175 0.961 . S
C188 H176 0.959 . S
C188 C186 1.561 . S
C189 C186 1.526 . S
C189 C190 1.396 . S
C189 C194 1.390 . S
C190 C184 1.465 . S
C190 C189 1.396 . S
C190 C191 1.399 . S
C191 H177 0.929 . S
C191 C190 1.399 . S
C191 C192 1.385 . S
C192 H178 0.931 . S
C192 C191 1.385 . S
C192 C193 1.389 . S
C193 C192 1.389 . S
C193 C194 1.387 . S
C194 H179 0.930 . S
C194 C189 1.390 . S
C194 C193 1.387 . S
H195 C207 0.930 . S
H196 C209 0.930 . S
H197 C210 0.930 . S
H198 C214 0.959 . S
H199 C214 0.959 . S
H200 C214 0.961 . S
H201 C215 0.952 1_565 S
H202 C215 0.959 1_565 S
H203 C215 0.962 . S
H204 C218 0.929 . S
H205 C219 0.931 . S
H206 C221 0.930 . S
C207 H195 0.930 . S
C207 C208 1.399 . S
C207 C212 1.399 . S
C208 C207 1.399 . S
C208 C209 1.376 . S
C209 H196 0.930 . S
C209 C208 1.376 . S
C209 C210 1.388 . S
C210 H197 0.930 . S
C210 C209 1.388 . S
C210 C211 1.390 . S
C211 C210 1.390 . S
C211 C212 1.394 . S
C211 C217 1.465 . S
C212 C207 1.399 . S
C212 C211 1.394 . S
C212 C213 1.516 . S
C213 C212 1.516 . S
C213 C214 1.502 . S
C213 C215 1.567 . S
C213 C216 1.526 . S
C214 H198 0.959 . S
C214 H199 0.959 . S
C214 H200 0.961 . S
C214 C213 1.502 . S
C215 H201 0.952 1_545 S
C215 H202 0.959 1_545 S
C215 H203 0.962 . S
C215 C213 1.567 . S
C216 C213 1.526 . S
C216 C217 1.396 . S
C216 C221 1.390 . S
C217 C211 1.465 . S
C217 C216 1.396 . S
C217 C218 1.399 . S
C218 H204 0.929 . S
C218 C217 1.399 . S
C218 C219 1.385 . S
C219 H205 0.931 . S
C219 C218 1.385 . S
C219 C220 1.389 . S
C220 C219 1.389 . S
C220 C221 1.387 . S
C221 H206 0.930 . S
C221 C216 1.390 . S
C221 C220 1.387 . S
H222 C234 0.930 . S
H223 C236 0.930 . S
H224 C237 0.930 . S
H225 C241 0.959 . S
H226 C241 0.959 . S
H227 C241 0.961 . S
H228 C242 0.960 . S
H229 C242 0.961 . S
H230 C242 0.959 . S
H231 C245 0.929 . S
H232 C246 0.931 . S
H233 C248 0.930 . S
C234 H222 0.930 . S
C234 C235 1.399 . S
C234 C239 1.399 . S
C235 C234 1.399 . S
C235 C236 1.376 . S
C236 H223 0.930 . S
C236 C235 1.376 . S
C236 C237 1.388 . S
C237 H224 0.930 . S
C237 C236 1.388 . S
C237 C238 1.390 . S
C238 C237 1.390 . S
C238 C239 1.394 . S
C238 C244 1.465 . S
C239 C234 1.399 . S
C239 C238 1.394 . S
C239 C240 1.516 . S
C240 C239 1.516 . S
C240 C241 1.502 . S
C240 C242 1.561 . S
C240 C243 1.526 . S
C241 H225 0.959 . S
C241 H226 0.959 . S
C241 H227 0.961 . S
C241 C240 1.502 . S
C242 H228 0.960 . S
C242 H229 0.961 . S
C242 H230 0.959 . S
C242 C240 1.561 . S
C243 C240 1.526 . S
C243 C244 1.396 . S
C243 C248 1.390 . S
C244 C238 1.465 . S
C244 C243 1.396 . S
C244 C245 1.399 . S
C245 H231 0.929 . S
C245 C244 1.399 . S
C245 C246 1.385 . S
C246 H232 0.931 . S
C246 C245 1.385 . S
C246 C247 1.389 . S
C247 C246 1.389 . S
C247 C248 1.387 . S
C248 H233 0.930 . S
C248 C243 1.390 . S
C248 C247 1.387 . S
H249 C261 0.930 . S
H250 C263 0.930 . S
H251 C264 0.930 . S
H252 C268 0.959 . S
H253 C268 0.959 . S
H254 C268 0.961 . S
H255 C269 0.960 . S
H256 C269 0.961 . S
H257 C269 0.959 . S
H258 C272 0.929 . S
H259 C273 0.931 . S
H260 C275 0.930 . S
C261 H249 0.930 . S
C261 C262 1.399 . S
C261 C266 1.399 . S
C262 C261 1.399 . S
C262 C263 1.376 . S
C263 H250 0.930 . S
C263 C262 1.376 . S
C263 C264 1.388 . S
C264 H251 0.930 . S
C264 C263 1.388 . S
C264 C265 1.390 . S
C265 C264 1.390 . S
C265 C266 1.394 . S
C265 C271 1.465 . S
C266 C261 1.399 . S
C266 C265 1.394 . S
C266 C267 1.516 . S
C267 C266 1.516 . S
C267 C268 1.502 . S
C267 C269 1.561 . S
C267 C270 1.526 . S
C268 H252 0.959 . S
C268 H253 0.959 . S
C268 H254 0.961 . S
C268 C267 1.502 . S
C269 H255 0.960 . S
C269 H256 0.961 . S
C269 H257 0.959 . S
C269 C267 1.561 . S
C270 C267 1.526 . S
C270 C271 1.396 . S
C270 C275 1.390 . S
C271 C265 1.465 . S
C271 C270 1.396 . S
C271 C272 1.399 . S
C272 H258 0.929 . S
C272 C271 1.399 . S
C272 C273 1.385 . S
C273 H259 0.931 . S
C273 C272 1.385 . S
C273 C274 1.389 . S
C274 C273 1.389 . S
C274 C275 1.387 . S
C275 H260 0.930 . S
C275 C270 1.390 . S
C275 C274 1.387 . S
H276 C288 0.930 . S
H277 C290 0.930 . S
H278 C291 0.930 . S
H279 C295 0.959 . S
H280 C295 0.959 . S
H281 C295 0.961 . S
H282 C296 0.960 . S
H283 C296 0.961 . S
H284 C296 0.959 . S
H285 C299 0.929 . S
H286 C300 0.931 . S
H287 C302 0.930 . S
C288 H276 0.930 . S
C288 C289 1.399 . S
C288 C293 1.399 . S
C289 C288 1.399 . S
C289 C290 1.376 . S
C290 H277 0.930 . S
C290 C289 1.376 . S
C290 C291 1.388 . S
C291 H278 0.930 . S
C291 C290 1.388 . S
C291 C292 1.390 . S
C292 C291 1.390 . S
C292 C293 1.394 . S
C292 C298 1.465 . S
C293 C288 1.399 . S
C293 C292 1.394 . S
C293 C294 1.516 . S
C294 C293 1.516 . S
C294 C295 1.502 . S
C294 C296 1.561 . S
C294 C297 1.526 . S
C295 H279 0.959 . S
C295 H280 0.959 . S
C295 H281 0.961 . S
C295 C294 1.502 . S
C296 H282 0.960 . S
C296 H283 0.961 . S
C296 H284 0.959 . S
C296 C294 1.561 . S
C297 C294 1.526 . S
C297 C298 1.396 . S
C297 C302 1.390 . S
C298 C292 1.465 . S
C298 C297 1.396 . S
C298 C299 1.399 . S
C299 H285 0.929 . S
C299 C298 1.399 . S
C299 C300 1.385 . S
C300 H286 0.931 . S
C300 C299 1.385 . S
C300 C301 1.389 . S
C301 C300 1.389 . S
C301 C302 1.387 . S
C302 H287 0.930 . S
C302 C297 1.390 . S
C302 C301 1.387 . S
H303 C315 0.930 . S
H304 C317 0.930 . S
H305 C318 0.930 . S
H306 C322 0.959 . S
H307 C322 0.959 . S
H308 C322 0.961 . S
H309 C323 0.960 . S
H310 C323 0.961 . S
H311 C323 0.959 . S
H312 C326 0.929 . S
H313 C327 0.931 . S
H314 C329 0.930 . S
C315 H303 0.930 . S
C315 C316 1.399 . S
C315 C320 1.399 . S
C316 C315 1.399 . S
C316 C317 1.376 . S
C317 H304 0.930 . S
C317 C316 1.376 . S
C317 C318 1.388 . S
C318 H305 0.930 . S
C318 C317 1.388 . S
C318 C319 1.390 . S
C319 C318 1.390 . S
C319 C320 1.394 . S
C319 C325 1.465 . S
C320 C315 1.399 . S
C320 C319 1.394 . S
C320 C321 1.516 . S
C321 C320 1.516 . S
C321 C322 1.502 . S
C321 C323 1.561 . S
C321 C324 1.526 . S
C322 H306 0.959 . S
C322 H307 0.959 . S
C322 H308 0.961 . S
C322 C321 1.502 . S
C323 H309 0.960 . S
C323 H310 0.961 . S
C323 H311 0.959 . S
C323 C321 1.561 . S
C324 C321 1.526 . S
C324 C325 1.396 . S
C324 C329 1.390 . S
C325 C319 1.465 . S
C325 C324 1.396 . S
C325 C326 1.399 . S
C326 H312 0.929 . S
C326 C325 1.399 . S
C326 C327 1.385 . S
C327 H313 0.931 . S
C327 C326 1.385 . S
C327 C328 1.389 . S
C328 C327 1.389 . S
C328 C329 1.387 . S
C329 H314 0.930 . S
C329 C324 1.390 . S
C329 C328 1.387 . S
H330 C342 0.930 . S
H331 C344 0.930 . S
H332 C345 0.930 . S
H333 C349 0.959 . S
H334 C349 0.959 . S
H335 C349 0.961 . S
H336 C350 0.960 . S
H337 C350 0.961 . S
H338 C350 0.959 . S
H339 C353 0.929 . S
H340 C354 0.931 . S
H341 C356 0.930 . S
C342 H330 0.930 . S
C342 C343 1.399 . S
C342 C347 1.399 . S
C343 C342 1.399 . S
C343 C344 1.376 . S
C344 H331 0.930 . S
C344 C343 1.376 . S
C344 C345 1.388 . S
C345 H332 0.930 . S
C345 C344 1.388 . S
C345 C346 1.390 . S
C346 C345 1.390 . S
C346 C347 1.394 . S
C346 C352 1.465 . S
C347 C342 1.399 . S
C347 C346 1.394 . S
C347 C348 1.516 . S
C348 C347 1.516 . S
C348 C349 1.502 . S
C348 C350 1.561 . S
C348 C351 1.526 . S
C349 H333 0.959 . S
C349 H334 0.959 . S
C349 H335 0.961 . S
C349 C348 1.502 . S
C350 H336 0.960 . S
C350 H337 0.961 . S
C350 H338 0.959 . S
C350 C348 1.561 . S
C351 C348 1.526 . S
C351 C352 1.396 . S
C351 C356 1.390 . S
C352 C346 1.465 . S
C352 C351 1.396 . S
C352 C353 1.399 1_554 S
C353 H339 0.929 . S
C353 C352 1.399 1_556 S
C353 C354 1.385 . S
C354 H340 0.931 . S
C354 C353 1.385 . S
C354 C355 1.389 . S
C355 C354 1.389 . S
C355 C356 1.387 1_556 S
C356 H341 0.930 . S
C356 C351 1.390 . S
C356 C355 1.387 1_554 S
H357 C369 0.930 . S
H358 C371 0.930 . S
H359 C372 0.930 . S
H360 C376 0.959 . S
H361 C376 0.959 . S
H362 C376 0.961 . S
H363 C377 0.960 . S
H364 C377 0.961 . S
H365 C377 0.959 . S
H366 C380 0.929 . S
H367 C381 0.931 . S
H368 C383 0.930 . S
C369 H357 0.930 . S
C369 C370 1.399 . S
C369 C374 1.399 . S
C370 C369 1.399 . S
C370 C371 1.376 . S
C371 H358 0.930 . S
C371 C370 1.376 . S
C371 C372 1.388 . S
C372 H359 0.930 . S
C372 C371 1.388 . S
C372 C373 1.390 . S
C373 C372 1.390 . S
C373 C374 1.394 . S
C373 C379 1.465 . S
C374 C369 1.399 . S
C374 C373 1.394 . S
C374 C375 1.516 . S
C375 C374 1.516 . S
C375 C376 1.502 . S
C375 C377 1.561 . S
C375 C378 1.526 . S
C376 H360 0.959 . S
C376 H361 0.959 . S
C376 H362 0.961 . S
C376 C375 1.502 . S
C377 H363 0.960 . S
C377 H364 0.961 . S
C377 H365 0.959 . S
C377 C375 1.561 . S
C378 C375 1.526 . S
C378 C379 1.396 . S
C378 C383 1.390 . S
C379 C373 1.465 . S
C379 C378 1.396 . S
C379 C380 1.399 . S
C380 H366 0.929 . S
C380 C379 1.399 . S
C380 C381 1.385 . S
C381 H367 0.931 . S
C381 C380 1.385 . S
C381 C382 1.389 . S
C382 C381 1.389 . S
C382 C383 1.387 . S
C383 H368 0.930 . S
C383 C378 1.390 . S
C383 C382 1.387 . S
H384 C396 0.930 . S
H385 C398 0.930 . S
H386 C399 0.930 . S
H387 C403 0.959 . S
H388 C403 0.959 . S
H389 C403 0.961 . S
H390 C404 0.960 . S
H391 C404 0.961 . S
H392 C404 0.959 . S
H393 C407 0.929 . S
H394 C408 0.931 . S
H395 C410 0.930 . S
C396 H384 0.930 . S
C396 C397 1.399 . S
C396 C401 1.399 . S
C397 C396 1.399 . S
C397 C398 1.376 . S
C398 H385 0.930 . S
C398 C397 1.376 . S
C398 C399 1.388 . S
C399 H386 0.930 . S
C399 C398 1.388 . S
C399 C400 1.390 . S
C400 C399 1.390 . S
C400 C401 1.394 . S
C400 C406 1.465 . S
C401 C396 1.399 . S
C401 C400 1.394 . S
C401 C402 1.516 . S
C402 C401 1.516 . S
C402 C403 1.502 . S
C402 C404 1.561 . S
C402 C405 1.526 . S
C403 H387 0.959 . S
C403 H388 0.959 . S
C403 H389 0.961 . S
C403 C402 1.502 . S
C404 H390 0.960 . S
C404 H391 0.961 . S
C404 H392 0.959 . S
C404 C402 1.561 . S
C405 C402 1.526 . S
C405 C406 1.396 . S
C405 C410 1.390 . S
C406 C400 1.465 . S
C406 C405 1.396 . S
C406 C407 1.399 . S
C407 H393 0.929 . S
C407 C406 1.399 . S
C407 C408 1.385 . S
C408 H394 0.931 . S
C408 C407 1.385 . S
C408 C409 1.389 . S
C409 C408 1.389 . S
C409 C410 1.387 . S
C410 H395 0.930 . S
C410 C405 1.390 . S
C410 C409 1.387 . S
H411 C423 0.930 . S
H412 C425 0.930 . S
H413 C426 0.930 . S
H414 C430 0.959 . S
H415 C430 0.959 . S
H416 C430 0.961 . S
H417 C431 0.960 . S
H418 C431 0.961 . S
H419 C431 0.959 . S
H420 C434 0.929 . S
H421 C435 0.931 . S
H422 C437 0.930 . S
C423 H411 0.930 . S
C423 C424 1.399 . S
C423 C428 1.399 . S
C424 C423 1.399 . S
C424 C425 1.376 . S
C425 H412 0.930 . S
C425 C424 1.376 . S
C425 C426 1.388 . S
C426 H413 0.930 . S
C426 C425 1.388 . S
C426 C427 1.390 . S
C427 C426 1.390 . S
C427 C428 1.394 . S
C427 C433 1.465 . S
C428 C423 1.399 . S
C428 C427 1.394 . S
C428 C429 1.516 . S
C429 C428 1.516 . S
C429 C430 1.502 . S
C429 C431 1.561 . S
C429 C432 1.526 . S
C430 H414 0.959 . S
C430 H415 0.959 . S
C430 H416 0.961 . S
C430 C429 1.502 . S
C431 H417 0.960 . S
C431 H418 0.961 . S
C431 H419 0.959 . S
C431 C429 1.561 . S
C432 C429 1.526 . S
C432 C433 1.396 . S
C432 C437 1.390 . S
C433 C427 1.465 . S
C433 C432 1.396 . S
C433 C434 1.399 . S
C434 H420 0.929 . S
C434 C433 1.399 . S
C434 C435 1.385 . S
C435 H421 0.931 . S
C435 C434 1.385 . S
C435 C436 1.389 . S
C436 C435 1.389 . S
C436 C437 1.387 . S
C437 H422 0.930 . S
C437 C432 1.390 . S
C437 C436 1.387 . S
H438 C450 0.930 . S
H439 C452 0.930 . S
H440 C453 0.930 . S
H441 C457 0.959 . S
H442 C457 0.959 . S
H443 C457 0.961 . S
H444 C458 0.960 . S
H445 C458 0.961 . S
H446 C458 0.959 . S
H447 C461 0.929 . S
H448 C462 0.931 . S
H449 C464 0.930 . S
C450 H438 0.930 . S
C450 C451 1.399 . S
C450 C455 1.399 . S
C451 C450 1.399 . S
C451 C452 1.376 . S
C452 H439 0.930 . S
C452 C451 1.376 . S
C452 C453 1.388 . S
C453 H440 0.930 . S
C453 C452 1.388 . S
C453 C454 1.390 . S
C454 C453 1.390 . S
C454 C455 1.394 . S
C454 C460 1.465 . S
C455 C450 1.399 . S
C455 C454 1.394 . S
C455 C456 1.516 . S
C456 C455 1.516 . S
C456 C457 1.502 . S
C456 C458 1.561 . S
C456 C459 1.526 . S
C457 H441 0.959 . S
C457 H442 0.959 . S
C457 H443 0.961 . S
C457 C456 1.502 . S
C458 H444 0.960 . S
C458 H445 0.961 . S
C458 H446 0.959 . S
C458 C456 1.561 . S
C459 C456 1.526 . S
C459 C460 1.396 . S
C459 C464 1.390 . S
C460 C454 1.465 . S
C460 C459 1.396 . S
C460 C461 1.399 . S
C461 H447 0.929 . S
C461 C460 1.399 . S
C461 C462 1.385 . S
C462 H448 0.931 . S
C462 C461 1.385 . S
C462 C463 1.389 . S
C463 C462 1.389 . S
C463 C464 1.387 . S
C464 H449 0.930 . S
C464 C459 1.390 . S
C464 C463 1.387 . S
H465 C477 0.930 . S
H466 C479 0.930 1_565 S
H467 C480 0.930 . S
H468 C484 0.959 . S
H469 C484 0.959 . S
H470 C484 0.961 . S
H471 C485 0.960 . S
H472 C485 0.961 . S
H473 C485 0.959 . S
H474 C488 0.929 . S
H475 C489 0.931 . S
H476 C491 0.930 . S
C477 H465 0.930 . S
C477 C478 1.399 . S
C477 C482 1.399 . S
C478 C477 1.399 . S
C478 C479 1.376 . S
C479 H466 0.930 1_545 S
C479 C478 1.376 . S
C479 C480 1.388 . S
C480 H467 0.930 . S
C480 C479 1.388 . S
C480 C481 1.390 . S
C481 C480 1.390 . S
C481 C482 1.394 . S
C481 C487 1.465 . S
C482 C477 1.399 . S
C482 C481 1.394 . S
C482 C483 1.516 . S
C483 C482 1.516 . S
C483 C484 1.502 . S
C483 C485 1.561 . S
C483 C486 1.526 . S
C484 H468 0.959 . S
C484 H469 0.959 . S
C484 H470 0.961 . S
C484 C483 1.502 . S
C485 H471 0.960 . S
C485 H472 0.961 . S
C485 H473 0.959 . S
C485 C483 1.561 . S
C486 C483 1.526 . S
C486 C487 1.396 . S
C486 C491 1.390 . S
C487 C481 1.465 . S
C487 C486 1.396 . S
C487 C488 1.399 . S
C488 H474 0.929 . S
C488 C487 1.399 . S
C488 C489 1.385 . S
C489 H475 0.931 . S
C489 C488 1.385 . S
C489 C490 1.389 . S
C490 C489 1.389 . S
C490 C491 1.387 . S
C491 H476 0.930 . S
C491 C486 1.390 . S
C491 C490 1.387 . S
H492 C504 0.930 . S
H493 C506 0.930 . S
H494 C507 0.930 . S
H495 C511 0.959 . S
H496 C511 0.959 . S
H497 C511 0.961 . S
H498 C512 0.960 . S
H499 C512 0.961 . S
H500 C512 0.959 . S
H501 C515 0.929 . S
H502 C516 0.931 . S
H503 C518 0.930 . S
C504 H492 0.930 . S
C504 C505 1.399 . S
C504 C509 1.399 . S
C505 C504 1.399 . S
C505 C506 1.376 . S
C506 H493 0.930 . S
C506 C505 1.376 . S
C506 C507 1.388 . S
C507 H494 0.930 . S
C507 C506 1.388 . S
C507 C508 1.390 . S
C508 C507 1.390 . S
C508 C509 1.394 . S
C508 C514 1.465 . S
C509 C504 1.399 . S
C509 C508 1.394 . S
C509 C510 1.516 . S
C510 C509 1.516 . S
C510 C511 1.502 . S
C510 C512 1.561 . S
C510 C513 1.526 . S
C511 H495 0.959 . S
C511 H496 0.959 . S
C511 H497 0.961 . S
C511 C510 1.502 . S
C512 H498 0.960 . S
C512 H499 0.961 . S
C512 H500 0.959 . S
C512 C510 1.561 . S
C513 C510 1.526 . S
C513 C514 1.396 . S
C513 C518 1.390 . S
C514 C508 1.465 . S
C514 C513 1.396 . S
C514 C515 1.399 . S
C515 H501 0.929 . S
C515 C514 1.399 . S
C515 C516 1.385 . S
C516 H502 0.931 . S
C516 C515 1.385 . S
C516 C517 1.389 . S
C517 C516 1.389 . S
C517 C518 1.387 . S
C518 H503 0.930 . S
C518 C513 1.390 . S
C518 C517 1.387 . S
H519 C531 0.930 . S
H520 C533 0.930 . S
H521 C534 0.930 . S
H522 C538 0.959 . S
H523 C538 0.959 . S
H524 C538 0.961 . S
H525 C539 0.960 . S
H526 C539 0.961 . S
H527 C539 0.959 . S
H528 C542 0.929 . S
H529 C543 0.931 . S
H530 C545 0.930 . S
C531 H519 0.930 . S
C531 C532 1.399 . S
C531 C536 1.399 . S
C532 C531 1.399 . S
C532 C533 1.376 . S
C533 H520 0.930 . S
C533 C532 1.376 . S
C533 C534 1.388 . S
C534 H521 0.930 . S
C534 C533 1.388 . S
C534 C535 1.390 . S
C535 C534 1.390 . S
C535 C536 1.394 . S
C535 C541 1.465 . S
C536 C531 1.399 . S
C536 C535 1.394 . S
C536 C537 1.516 . S
C537 C536 1.516 . S
C537 C538 1.502 . S
C537 C539 1.561 . S
C537 C540 1.526 . S
C538 H522 0.959 . S
C538 H523 0.959 . S
C538 H524 0.961 . S
C538 C537 1.502 . S
C539 H525 0.960 . S
C539 H526 0.961 . S
C539 H527 0.959 . S
C539 C537 1.561 . S
C540 C537 1.526 . S
C540 C541 1.396 . S
C540 C545 1.390 . S
C541 C535 1.465 . S
C541 C540 1.396 . S
C541 C542 1.399 1_556 S
C542 H528 0.929 . S
C542 C541 1.399 1_554 S
C542 C543 1.385 . S
C543 H529 0.931 . S
C543 C542 1.385 . S
C543 C544 1.389 . S
C544 C543 1.389 . S
C544 C545 1.387 1_554 S
C545 H530 0.930 . S
C545 C540 1.390 . S
C545 C544 1.387 1_556 S
H546 C558 0.930 . S
H547 C560 0.930 1_545 S
H548 C561 0.930 . S
H549 C565 0.959 . S
H550 C565 0.959 . S
H551 C565 0.961 . S
H552 C566 0.960 . S
H553 C566 0.961 . S
H554 C566 0.959 . S
H555 C569 0.929 . S
H556 C570 0.931 . S
H557 C572 0.930 . S
C558 H546 0.930 . S
C558 C559 1.399 . S
C558 C563 1.399 . S
C559 C558 1.399 . S
C559 C560 1.376 . S
C560 H547 0.930 1_565 S
C560 C559 1.376 . S
C560 C561 1.388 . S
C561 H548 0.930 . S
C561 C560 1.388 . S
C561 C562 1.390 . S
C562 C561 1.390 . S
C562 C563 1.394 . S
C562 C568 1.465 . S
C563 C558 1.399 . S
C563 C562 1.394 . S
C563 C564 1.516 . S
C564 C563 1.516 . S
C564 C565 1.502 . S
C564 C566 1.561 . S
C564 C567 1.526 . S
C565 H549 0.959 . S
C565 H550 0.959 . S
C565 H551 0.961 . S
C565 C564 1.502 . S
C566 H552 0.960 . S
C566 H553 0.961 . S
C566 H554 0.959 . S
C566 C564 1.561 . S
C567 C564 1.526 . S
C567 C568 1.396 . S
C567 C572 1.390 . S
C568 C562 1.465 . S
C568 C567 1.396 . S
C568 C569 1.399 . S
C569 H555 0.929 . S
C569 C568 1.399 . S
C569 C570 1.385 . S
C570 H556 0.931 . S
C570 C569 1.385 . S
C570 C571 1.389 . S
C571 C570 1.389 . S
C571 C572 1.387 . S
C572 H557 0.930 . S
C572 C567 1.390 . S
C572 C571 1.387 . S
H573 C585 0.930 . S
H574 C587 0.930 . S
H575 C588 0.930 . S
H576 C592 0.959 . S
H577 C592 0.959 . S
H578 C592 0.961 . S
H579 C593 0.960 . S
H580 C593 0.961 . S
H581 C593 0.959 . S
H582 C596 0.929 . S
H583 C597 0.931 . S
H584 C599 0.930 . S
C585 H573 0.930 . S
C585 C586 1.399 . S
C585 C590 1.399 . S
C586 C585 1.399 . S
C586 C587 1.376 . S
C587 H574 0.930 . S
C587 C586 1.376 . S
C587 C588 1.388 . S
C588 H575 0.930 . S
C588 C587 1.388 . S
C588 C589 1.390 . S
C589 C588 1.390 . S
C589 C590 1.394 . S
C589 C595 1.465 . S
C590 C585 1.399 . S
C590 C589 1.394 . S
C590 C591 1.516 . S
C591 C590 1.516 . S
C591 C592 1.502 . S
C591 C593 1.561 . S
C591 C594 1.526 . S
C592 H576 0.959 . S
C592 H577 0.959 . S
C592 H578 0.961 . S
C592 C591 1.502 . S
C593 H579 0.960 . S
C593 H580 0.961 . S
C593 H581 0.959 . S
C593 C591 1.561 . S
C594 C591 1.526 . S
C594 C595 1.396 . S
C594 C599 1.390 . S
C595 C589 1.465 . S
C595 C594 1.396 . S
C595 C596 1.399 . S
C596 H582 0.929 . S
C596 C595 1.399 . S
C596 C597 1.385 . S
C597 H583 0.931 . S
C597 C596 1.385 . S
C597 C598 1.389 . S
C598 C597 1.389 . S
C598 C599 1.387 . S
C599 H584 0.930 . S
C599 C594 1.390 . S
C599 C598 1.387 . S
H600 C612 0.930 . S
H601 C614 0.930 . S
H602 C615 0.930 . S
H603 C619 0.959 . S
H604 C619 0.959 . S
H605 C619 0.961 . S
H606 C620 0.960 . S
H607 C620 0.961 . S
H608 C620 0.959 . S
H609 C623 0.929 . S
H610 C624 0.931 . S
H611 C626 0.930 . S
C612 H600 0.930 . S
C612 C613 1.399 . S
C612 C617 1.399 . S
C613 C612 1.399 . S
C613 C614 1.376 . S
C614 H601 0.930 . S
C614 C613 1.376 . S
C614 C615 1.388 . S
C615 H602 0.930 . S
C615 C614 1.388 . S
C615 C616 1.390 . S
C616 C615 1.390 . S
C616 C617 1.394 . S
C616 C622 1.465 . S
C617 C612 1.399 . S
C617 C616 1.394 . S
C617 C618 1.516 . S
C618 C617 1.516 . S
C618 C619 1.502 . S
C618 C620 1.561 . S
C618 C621 1.526 . S
C619 H603 0.959 . S
C619 H604 0.959 . S
C619 H605 0.961 . S
C619 C618 1.502 . S
C620 H606 0.960 . S
C620 H607 0.961 . S
C620 H608 0.959 . S
C620 C618 1.561 . S
C621 C618 1.526 . S
C621 C622 1.396 . S
C621 C626 1.390 . S
C622 C616 1.465 . S
C622 C621 1.396 . S
C622 C623 1.399 . S
C623 H609 0.929 . S
C623 C622 1.399 . S
C623 C624 1.385 . S
C624 H610 0.931 . S
C624 C623 1.385 . S
C624 C625 1.389 . S
C625 C624 1.389 . S
C625 C626 1.387 . S
C626 H611 0.930 . S
C626 C621 1.390 . S
C626 C625 1.387 . S
H627 C639 0.930 . S
H628 C641 0.930 . S
H629 C642 0.930 . S
H630 C646 0.959 . S
H631 C646 0.959 . S
H632 C646 0.961 . S
H633 C647 0.960 . S
H634 C647 0.961 . S
H635 C647 0.959 . S
H636 C650 0.929 . S
H637 C651 0.931 . S
H638 C653 0.930 . S
C639 H627 0.930 . S
C639 C640 1.399 . S
C639 C644 1.399 . S
C640 C639 1.399 . S
C640 C641 1.376 . S
C641 H628 0.930 . S
C641 C640 1.376 . S
C641 C642 1.388 . S
C642 H629 0.930 . S
C642 C641 1.388 . S
C642 C643 1.390 . S
C643 C642 1.390 . S
C643 C644 1.394 . S
C643 C649 1.465 . S
C644 C639 1.399 . S
C644 C643 1.394 . S
C644 C645 1.516 . S
C645 C644 1.516 . S
C645 C646 1.502 . S
C645 C647 1.561 . S
C645 C648 1.526 . S
C646 H630 0.959 . S
C646 H631 0.959 . S
C646 H632 0.961 . S
C646 C645 1.502 . S
C647 H633 0.960 . S
C647 H634 0.961 . S
C647 H635 0.959 . S
C647 C645 1.561 . S
C648 C645 1.526 . S
C648 C649 1.396 . S
C648 C653 1.390 . S
C649 C643 1.465 . S
C649 C648 1.396 . S
C649 C650 1.399 . S
C650 H636 0.929 . S
C650 C649 1.399 . S
C650 C651 1.385 . S
C651 H637 0.931 . S
C651 C650 1.385 . S
C651 C652 1.389 . S
C652 C651 1.389 . S
C652 C653 1.387 . S
C653 H638 0.930 . S
C653 C648 1.390 . S
C653 C652 1.387 . S
H654 C666 0.930 . S
H655 C668 0.930 . S
H656 C669 0.930 . S
H657 C673 0.959 . S
H658 C673 0.959 . S
H659 C673 0.961 . S
H660 C674 0.960 . S
H661 C674 0.961 . S
H662 C674 0.959 . S
H663 C677 0.929 . S
H664 C678 0.931 . S
H665 C680 0.930 . S
C666 H654 0.930 . S
C666 C667 1.399 . S
C666 C671 1.399 . S
C667 C666 1.399 . S
C667 C668 1.376 . S
C668 H655 0.930 . S
C668 C667 1.376 . S
C668 C669 1.388 . S
C669 H656 0.930 . S
C669 C668 1.388 . S
C669 C670 1.390 . S
C670 C669 1.390 . S
C670 C671 1.394 . S
C670 C676 1.465 . S
C671 C666 1.399 . S
C671 C670 1.394 . S
C671 C672 1.516 . S
C672 C671 1.516 . S
C672 C673 1.502 . S
C672 C674 1.561 . S
C672 C675 1.526 . S
C673 H657 0.959 . S
C673 H658 0.959 . S
C673 H659 0.961 . S
C673 C672 1.502 . S
C674 H660 0.960 . S
C674 H661 0.961 . S
C674 H662 0.959 . S
C674 C672 1.561 . S
C675 C672 1.526 . S
C675 C676 1.396 . S
C675 C680 1.390 . S
C676 C670 1.465 . S
C676 C675 1.396 . S
C676 C677 1.399 . S
C677 H663 0.929 . S
C677 C676 1.399 . S
C677 C678 1.385 . S
C678 H664 0.931 . S
C678 C677 1.385 . S
C678 C679 1.389 . S
C679 C678 1.389 . S
C679 C680 1.387 . S
C680 H665 0.930 . S
C680 C675 1.390 . S
C680 C679 1.387 . S
H681 C693 0.930 . S
H682 C695 0.930 . S
H683 C696 0.930 . S
H684 C700 0.959 . S
H685 C700 0.959 . S
H686 C700 0.961 . S
H687 C701 0.960 . S
H688 C701 0.961 . S
H689 C701 0.959 . S
H690 C704 0.929 . S
H691 C705 0.931 . S
H692 C707 0.930 . S
C693 H681 0.930 . S
C693 C694 1.399 . S
C693 C698 1.399 . S
C694 C693 1.399 . S
C694 C695 1.376 . S
C695 H682 0.930 . S
C695 C694 1.376 . S
C695 C696 1.388 . S
C696 H683 0.930 . S
C696 C695 1.388 . S
C696 C697 1.390 . S
C697 C696 1.390 . S
C697 C698 1.394 . S
C697 C703 1.465 . S
C698 C693 1.399 . S
C698 C697 1.394 . S
C698 C699 1.516 . S
C699 C698 1.516 . S
C699 C700 1.502 . S
C699 C701 1.561 . S
C699 C702 1.526 . S
C700 H684 0.959 . S
C700 H685 0.959 . S
C700 H686 0.961 . S
C700 C699 1.502 . S
C701 H687 0.960 . S
C701 H688 0.961 . S
C701 H689 0.959 . S
C701 C699 1.561 . S
C702 C699 1.526 . S
C702 C703 1.396 . S
C702 C707 1.390 . S
C703 C697 1.465 . S
C703 C702 1.396 . S
C703 C704 1.399 . S
C704 H690 0.929 . S
C704 C703 1.399 . S
C704 C705 1.385 . S
C705 H691 0.931 . S
C705 C704 1.385 . S
C705 C706 1.389 . S
C706 C705 1.389 . S
C706 C707 1.387 . S
C707 H692 0.930 . S
C707 C702 1.390 . S
C707 C706 1.387 . S
H708 C720 0.930 . S
H709 C722 0.930 . S
H710 C723 0.930 . S
H711 C727 0.959 . S
H712 C727 0.959 . S
H713 C727 0.961 . S
H714 C728 0.960 . S
H715 C728 0.961 . S
H716 C728 0.959 . S
H717 C731 0.929 . S
H718 C732 0.931 . S
H719 C734 0.930 . S
C720 H708 0.930 . S
C720 C721 1.399 . S
C720 C725 1.399 . S
C721 C720 1.399 . S
C721 C722 1.376 . S
C722 H709 0.930 . S
C722 C721 1.376 . S
C722 C723 1.388 . S
C723 H710 0.930 . S
C723 C722 1.388 . S
C723 C724 1.390 . S
C724 C723 1.390 . S
C724 C725 1.394 . S
C724 C730 1.465 . S
C725 C720 1.399 . S
C725 C724 1.394 . S
C725 C726 1.516 . S
C726 C725 1.516 . S
C726 C727 1.502 . S
C726 C728 1.561 . S
C726 C729 1.526 . S
C727 H711 0.959 . S
C727 H712 0.959 . S
C727 H713 0.961 . S
C727 C726 1.502 . S
C728 H714 0.960 . S
C728 H715 0.961 . S
C728 H716 0.959 . S
C728 C726 1.561 . S
C729 C726 1.526 . S
C729 C730 1.396 . S
C729 C734 1.390 . S
C730 C724 1.465 . S
C730 C729 1.396 . S
C730 C731 1.399 . S
C731 H717 0.929 . S
C731 C730 1.399 . S
C731 C732 1.385 . S
C732 H718 0.931 . S
C732 C731 1.385 . S
C732 C733 1.389 . S
C733 C732 1.389 . S
C733 C734 1.387 . S
C734 H719 0.930 . S
C734 C729 1.390 . S
C734 C733 1.387 . S
H735 C747 0.930 . S
H736 C749 0.930 . S
H737 C750 0.930 . S
H738 C754 0.959 . S
H739 C754 0.959 . S
H740 C754 0.961 . S
H741 C755 0.960 . S
H742 C755 0.961 . S
H743 C755 0.959 . S
H744 C758 0.929 . S
H745 C759 0.931 . S
H746 C761 0.930 . S
C747 H735 0.930 . S
C747 C748 1.399 . S
C747 C752 1.399 . S
C748 C747 1.399 . S
C748 C749 1.376 . S
C749 H736 0.930 . S
C749 C748 1.376 . S
C749 C750 1.388 . S
C750 H737 0.930 . S
C750 C749 1.388 . S
C750 C751 1.390 . S
C751 C750 1.390 . S
C751 C752 1.394 . S
C751 C757 1.465 . S
C752 C747 1.399 . S
C752 C751 1.394 . S
C752 C753 1.516 . S
C753 C752 1.516 . S
C753 C754 1.502 . S
C753 C755 1.561 . S
C753 C756 1.526 . S
C754 H738 0.959 . S
C754 H739 0.959 . S
C754 H740 0.961 . S
C754 C753 1.502 . S
C755 H741 0.960 . S
C755 H742 0.961 . S
C755 H743 0.959 . S
C755 C753 1.561 . S
C756 C753 1.526 . S
C756 C757 1.396 . S
C756 C761 1.390 . S
C757 C751 1.465 . S
C757 C756 1.396 . S
C757 C758 1.399 . S
C758 H744 0.929 . S
C758 C757 1.399 . S
C758 C759 1.385 . S
C759 H745 0.931 . S
C759 C758 1.385 . S
C759 C760 1.389 . S
C760 C759 1.389 . S
C760 C761 1.387 . S
C761 H746 0.930 . S
C761 C756 1.390 . S
C761 C760 1.387 . S
H762 C774 0.930 . S
H763 C776 0.930 . S
H764 C777 0.930 . S
H765 C781 0.959 . S
H766 C781 0.959 . S
H767 C781 0.961 . S
H768 C782 0.960 . S
H769 C782 0.961 . S
H770 C782 0.959 . S
H771 C785 0.929 . S
H772 C786 0.931 . S
H773 C788 0.930 . S
C774 H762 0.930 . S
C774 C775 1.399 . S
C774 C779 1.399 . S
C775 C774 1.399 . S
C775 C776 1.376 . S
C776 H763 0.930 . S
C776 C775 1.376 . S
C776 C777 1.388 . S
C777 H764 0.930 . S
C777 C776 1.388 . S
C777 C778 1.390 . S
C778 C777 1.390 . S
C778 C779 1.394 . S
C778 C784 1.465 . S
C779 C774 1.399 . S
C779 C778 1.394 . S
C779 C780 1.516 . S
C780 C779 1.516 . S
C780 C781 1.502 . S
C780 C782 1.561 . S
C780 C783 1.526 . S
C781 H765 0.959 . S
C781 H766 0.959 . S
C781 H767 0.961 . S
C781 C780 1.502 . S
C782 H768 0.960 . S
C782 H769 0.961 . S
C782 H770 0.959 . S
C782 C780 1.561 . S
C783 C780 1.526 . S
C783 C784 1.396 . S
C783 C788 1.390 . S
C784 C778 1.465 . S
C784 C783 1.396 . S
C784 C785 1.399 . S
C785 H771 0.929 . S
C785 C784 1.399 . S
C785 C786 1.385 . S
C786 H772 0.931 . S
C786 C785 1.385 . S
C786 C787 1.389 . S
C787 C786 1.389 . S
C787 C788 1.387 . S
C788 H773 0.930 . S
C788 C783 1.390 . S
C788 C787 1.387 . S
H789 C801 0.930 . S
H790 C803 0.930 . S
H791 C804 0.930 . S
H792 C808 0.959 . S
H793 C808 0.959 . S
H794 C808 0.961 . S
H795 C809 0.960 . S
H796 C809 0.961 . S
H797 C809 0.959 . S
H798 C812 0.929 . S
H799 C813 0.931 . S
H800 C815 0.930 . S
C801 H789 0.930 . S
C801 C802 1.399 . S
C801 C806 1.399 . S
C802 C801 1.399 . S
C802 C803 1.376 . S
C803 H790 0.930 . S
C803 C802 1.376 . S
C803 C804 1.388 . S
C804 H791 0.930 . S
C804 C803 1.388 . S
C804 C805 1.390 . S
C805 C804 1.390 . S
C805 C806 1.394 . S
C805 C811 1.465 . S
C806 C801 1.399 . S
C806 C805 1.394 . S
C806 C807 1.516 . S
C807 C806 1.516 . S
C807 C808 1.502 . S
C807 C809 1.561 . S
C807 C810 1.526 . S
C808 H792 0.959 . S
C808 H793 0.959 . S
C808 H794 0.961 . S
C808 C807 1.502 . S
C809 H795 0.960 . S
C809 H796 0.961 . S
C809 H797 0.959 . S
C809 C807 1.561 . S
C810 C807 1.526 . S
C810 C811 1.396 . S
C810 C815 1.390 . S
C811 C805 1.465 . S
C811 C810 1.396 . S
C811 C812 1.399 . S
C812 H798 0.929 . S
C812 C811 1.399 . S
C812 C813 1.385 . S
C813 H799 0.931 . S
C813 C812 1.385 . S
C813 C814 1.389 . S
C814 C813 1.389 . S
C814 C815 1.387 . S
C815 H800 0.930 . S
C815 C810 1.390 . S
C815 C814 1.387 . S
C181 C123 1.421 . S
C193 C11 1.423 . S
C208 C25 1.410 . S
C220 C137 1.429 . S
C235 C39 1.429 . S
C247 C151 1.401 . S
C262 C53 1.395 . S
C274 C165 1.412 . S
C289 C95 1.399 . S
C301 C67 1.404 . S
C316 C81 1.394 . S
C328 C109 1.416 . S
C343 C13 1.350 . S
C355 C77 1.392 . S
C370 C27 1.321 . S
C382 C7 1.371 1_655 S
C397 C41 1.327 . S
C409 C21 1.384 1_565 S
C424 C35 1.349 . S
C436 C55 1.255 . S
C451 C49 1.389 1_455 S
C463 C69 1.339 . S
C478 C63 1.343 1_545 S
C490 C83 1.246 . S
C505 C105 1.392 . S
C517 C97 1.349 . S
C532 C111 1.352 . S
C544 C119 1.391 1_655 S
C559 C133 1.342 1_565 S
C571 C125 1.244 . S
C586 C139 1.243 . S
C598 C147 1.342 . S
C613 C153 1.352 . S
C625 C161 1.391 1_455 S
C640 C167 1.342 . S
C652 C91 1.390 1_545 S
C667 C148 1.276 . S
C679 C8 1.266 . S
C694 C162 1.284 . S
C706 C22 1.254 . S
C721 C92 1.214 . S
C733 C36 1.281 . S
C748 C50 1.254 . S
C760 C106 1.204 . S
C775 C64 1.217 . S
C787 C120 1.282 1_556 S
C802 C134 1.205 . S
C814 C78 1.246 1_554 S
