# Generated by pormake.
# Topology smm, (6)-cn, num edge types: 1
# Building blocks:
#     Node 0, Type 0, BuildingBlock: BETGAK_clean_sbu_0, # of connection points: 6
#     Node 1, Type 0, BuildingBlock: BETGAK_clean_sbu_0, # of connection points: 6
#     Node 2, Type 0, BuildingBlock: BETGAK_clean_sbu_0, # of connection points: 6
#     Node 3, Type 0, BuildingBlock: BETGAK_clean_sbu_0, # of connection points: 6
#     Node 4, Type 0, BuildingBlock: BETGAK_clean_sbu_0, # of connection points: 6
#     Node 5, Type 0, BuildingBlock: BETGAK_clean_sbu_0, # of connection points: 6
#     Node 6, Type 0, BuildingBlock: BETGAK_clean_sbu_0, # of connection points: 6
#     Node 7, Type 0, BuildingBlock: BETGAK_clean_sbu_0, # of connection points: 6
#     Node 8, Type 0, BuildingBlock: BETGAK_clean_sbu_0, # of connection points: 6
#     Edge 9, Type (0, 0), BuildingBlock: EZIPEK_clean_linker_0, # of connection points: 2
#     Edge 10, Type (0, 0), BuildingBlock: EZIPEK_clean_linker_0, # of connection points: 2
#     Edge 11, Type (0, 0), BuildingBlock: EZIPEK_clean_linker_0, # of connection points: 2
#     Edge 12, Type (0, 0), BuildingBlock: EZIPEK_clean_linker_0, # of connection points: 2
#     Edge 13, Type (0, 0), BuildingBlock: EZIPEK_clean_linker_0, # of connection points: 2
#     Edge 14, Type (0, 0), BuildingBlock: EZIPEK_clean_linker_0, # of connection points: 2
#     Edge 15, Type (0, 0), BuildingBlock: EZIPEK_clean_linker_0, # of connection points: 2
#     Edge 16, Type (0, 0), BuildingBlock: EZIPEK_clean_linker_0, # of connection points: 2
#     Edge 17, Type (0, 0), BuildingBlock: EZIPEK_clean_linker_0, # of connection points: 2
#     Edge 18, Type (0, 0), BuildingBlock: EZIPEK_clean_linker_0, # of connection points: 2
#     Edge 19, Type (0, 0), BuildingBlock: EZIPEK_clean_linker_0, # of connection points: 2
#     Edge 20, Type (0, 0), BuildingBlock: EZIPEK_clean_linker_0, # of connection points: 2
#     Edge 21, Type (0, 0), BuildingBlock: EZIPEK_clean_linker_0, # of connection points: 2
#     Edge 22, Type (0, 0), BuildingBlock: EZIPEK_clean_linker_0, # of connection points: 2
#     Edge 23, Type (0, 0), BuildingBlock: EZIPEK_clean_linker_0, # of connection points: 2
#     Edge 24, Type (0, 0), BuildingBlock: EZIPEK_clean_linker_0, # of connection points: 2
#     Edge 25, Type (0, 0), BuildingBlock: EZIPEK_clean_linker_0, # of connection points: 2
#     Edge 26, Type (0, 0), BuildingBlock: EZIPEK_clean_linker_0, # of connection points: 2
#     Edge 27, Type (0, 0), BuildingBlock: EZIPEK_clean_linker_0, # of connection points: 2
#     Edge 28, Type (0, 0), BuildingBlock: EZIPEK_clean_linker_0, # of connection points: 2
#     Edge 29, Type (0, 0), BuildingBlock: EZIPEK_clean_linker_0, # of connection points: 2
#     Edge 30, Type (0, 0), BuildingBlock: EZIPEK_clean_linker_0, # of connection points: 2
#     Edge 31, Type (0, 0), BuildingBlock: EZIPEK_clean_linker_0, # of connection points: 2
#     Edge 32, Type (0, 0), BuildingBlock: EZIPEK_clean_linker_0, # of connection points: 2
#     Edge 33, Type (0, 0), BuildingBlock: EZIPEK_clean_linker_0, # of connection points: 2
#     Edge 34, Type (0, 0), BuildingBlock: EZIPEK_clean_linker_0, # of connection points: 2
#     Edge 35, Type (0, 0), BuildingBlock: EZIPEK_clean_linker_0, # of connection points: 2
# Relax obj value: 0.034
# Max RMSD: 0.111
# Mean RMSD: 0.111
data_MOF--net-smm--node1-BETGAK_clean_sbu_0--edge1-EZIPEK_clean_linker_0
_symmetry_space_group_name_H-M    P1
_symmetry_Int_Tables_number       1
_symmetry_cell_setting            triclinic
loop_
_symmetry_equiv_pos_as_xyz
'x, y, z'
_cell_length_a     56.441392
_cell_length_b     56.484285
_cell_length_c     10.389994
_cell_angle_alpha  89.959124
_cell_angle_beta   90.153449
_cell_angle_gamma 119.98997
loop_
_atom_site_label
_atom_site_type_symbol
_atom_site_fract_x
_atom_site_fract_y
_atom_site_fract_z
_atom_type_partial_charge
La0 La 0.09205 0.24357 0.03417 0.0
La1 La 1.04041 0.1892 0.0442 0.0
C2 C 0.1294 0.29067 0.96486 0.0
C3 C 0.13509 0.31859 0.92824 0.0
C4 C 0.14393 0.33942 0.02153 0.0
C5 C 0.15317 0.36658 0.98545 0.0
C6 C 0.15396 0.37364 0.85527 0.0
C7 C 0.14443 0.35284 0.76201 0.0
C8 C 0.13523 0.32565 0.79799 0.0
C9 C 0.08001 0.22187 0.26655 0.0
C10 C 1.03398 0.24041 0.07725 0.0
C11 C 1.00436 0.14111 0.10469 0.0
C12 C 0.99649 0.11215 0.08073 0.0
C13 C 0.99162 0.10102 0.9557 0.0
C14 C 0.98102 0.07287 0.93738 0.0
C15 C 0.97518 0.05537 0.04349 0.0
C16 C 0.98098 0.06662 0.16788 0.0
C17 C 0.99148 0.0947 0.18624 0.0
C18 C 1.05425 0.21149 0.8119 0.0
C19 C 0.09799 0.19098 0.0174 0.0
O20 O 0.12326 0.28307 0.08492 0.0
O21 O 0.11523 0.27046 0.88503 0.0
O22 O 0.10463 0.23704 0.22288 0.0
O23 O 0.06318 0.22086 0.18279 0.0
O24 O 0.05972 0.25508 0.03713 0.0
O25 O 1.02272 0.21399 0.10106 0.0
O26 O 1.00187 0.15489 0.00925 0.0
O27 O 1.02656 0.15601 0.17268 0.0
O28 O 1.0293 0.19597 0.85057 0.0
O29 O 0.06991 0.21177 0.89894 0.0
O30 O 0.071 0.17634 0.02395 0.0
O31 O 0.11099 0.2181 0.01405 0.0
H32 H 0.14456 0.33491 0.1224 0.0
H33 H 0.16043 0.38227 0.05902 0.0
H34 H 0.14484 0.35781 0.66102 0.0
H35 H 0.12906 0.31031 0.72326 0.0
H36 H 0.99527 0.1139 0.87227 0.0
H37 H 0.97663 0.0646 0.84063 0.0
H38 H 0.97657 0.05351 0.25106 0.0
H39 H 0.99492 0.10269 0.28349 0.0
La40 La 0.87123 0.87716 0.98549 0.0
La41 La 0.92738 0.88248 0.00701 0.0
C42 C 0.82503 0.86718 0.90035 0.0
C43 C 0.79584 0.84612 0.88058 0.0
C44 C 0.77541 0.85072 0.93109 0.0
C45 C 0.7478 0.8332 0.90089 0.0
C46 C 0.73999 0.81074 0.8188 0.0
C47 C 0.76026 0.80574 0.76972 0.0
C48 C 0.78795 0.8233 0.80001 0.0
C49 C 0.89177 0.88415 0.22162 0.0
C50 C 0.875 0.82298 0.02185 0.0
C51 C 0.97523 0.89379 0.07279 0.0
C52 C 1.00446 0.91253 0.04304 0.0
C53 C 1.01416 0.93928 -0.00249 0.0
C54 C 1.04233 0.95695 0.9785 0.0
C55 C 0.06114 0.94811 0.00484 0.0
C56 C 1.05133 0.92126 0.04808 0.0
C57 C 1.02328 0.90366 0.06678 0.0
C58 C 0.90842 0.87807 0.76849 0.0
C59 C 0.92166 0.93648 0.00089 0.0
O60 O 0.83359 0.87571 0.01772 0.0
O61 O 0.84345 0.86531 0.83163 0.0
O62 O 0.87457 0.89169 0.18385 0.0
O63 O 0.89384 0.87015 0.13296 0.0
O64 O 0.86003 0.83375 0.98339 0.0
O65 O 0.90124 0.83865 0.05275 0.0
O66 O 0.96056 0.87557 0.9857 0.0
O67 O 0.96169 0.90433 0.12703 0.0
O68 O 0.9256 0.87063 0.80583 0.0
O69 O 0.9056 0.89077 0.8609 0.0
O70 O 0.93683 0.92525 0.02969 0.0
O71 O 0.89585 0.92143 0.96424 0.0
H72 H 0.78087 0.86832 -0.00824 0.0
H73 H 0.73249 0.83732 0.94055 0.0
H74 H 0.75465 0.78839 0.70712 0.0
H75 H 0.80316 0.81928 0.75834 0.0
H76 H 1.00006 0.94662 0.97886 0.0
H77 H 1.0495 0.97764 0.94572 0.0
H78 H 0.06547 0.91408 0.06949 0.0
H79 H 1.0163 0.88318 0.1023 0.0
La80 La 0.23819 1.02385 0.97249 0.0
La81 La 0.235 0.07487 0.98343 0.0
C82 C 0.25127 0.98987 0.88769 0.0
C83 C 0.27221 0.98121 0.88156 0.0
C84 C 0.27125 0.96099 0.96427 0.0
C85 C 0.28848 0.95004 0.94367 0.0
C86 C 0.30669 0.95887 0.8391 0.0
C87 C 0.30813 0.97944 0.75851 0.0
C88 C 0.29108 0.99043 0.7792 0.0
C89 C 0.22986 1.03546 0.20561 0.0
C90 C 0.29312 0.0818 0.01983 0.0
C91 C 0.22651 0.11468 0.01359 0.0
C92 C 0.20463 0.12195 0.01072 0.0
C93 C 0.1885 0.11787 0.90022 0.0
C94 C 0.17019 0.12783 0.89535 0.0
C95 C 0.16774 0.14208 0.00051 0.0
C96 C 0.18334 0.1456 0.11172 0.0
C97 C 0.20164 0.13569 0.11661 0.0
C98 C 0.23939 0.05817 0.75015 0.0
C99 C 0.17965 1.01667 0.97634 0.0
O100 O 0.23674 0.98574 -0.0077 0.0
O101 O 0.25766 1.01316 0.8331 0.0
O102 O 0.22134 1.01092 0.16261 0.0
O103 O 0.24492 0.05285 0.12222 0.0
O104 O 0.28182 0.05556 -0.01019 0.0
O105 O 0.27814 0.09358 0.03464 0.0
O106 O 0.23343 0.10833 0.90492 0.0
O107 O 0.22642 0.0993 0.10735 0.0
O108 O 0.25289 0.08318 0.78994 0.0
O109 O 0.22503 0.0438 0.84146 0.0
O110 O 0.19155 0.04303 0.0062 0.0
O111 O 0.19412 1.00522 0.93981 0.0
H112 H 0.25665 0.95306 0.04241 0.0
H113 H 0.2871 0.93417 0.00708 0.0
H114 H 0.32203 0.98654 0.67749 0.0
H115 H 0.29205 1.00552 0.71177 0.0
H116 H 0.19038 0.10746 0.81673 0.0
H117 H 0.15814 0.12471 0.8091 0.0
H118 H 0.18161 0.15636 0.19416 0.0
H119 H 0.21396 0.1393 0.20239 0.0
La120 La 0.75852 0.58035 0.3364 0.0
La121 La 0.71036 0.52267 0.35116 0.0
C122 C 0.79997 0.62404 0.25953 0.0
C123 C 0.80843 0.65235 0.21948 0.0
C124 C 0.79354 0.66521 0.25424 0.0
C125 C 0.80288 0.6925 0.2187 0.0
C126 C 0.82723 0.70731 0.14798 0.0
C127 C 0.84178 0.69423 0.11176 0.0
C128 C 0.83245 0.66703 0.1471 0.0
C129 C 0.74008 0.56342 0.57184 0.0
C130 C 0.70121 0.57475 0.36225 0.0
C131 C 0.66919 0.47658 0.4022 0.0
C132 C 0.65995 0.44706 0.38365 0.0
C133 C 0.63444 0.42988 0.32564 0.0
C134 C 0.62426 0.40164 0.31571 0.0
C135 C 0.63933 0.38994 0.36412 0.0
C136 C 0.6651 0.40708 0.4197 0.0
C137 C 0.67536 0.43537 0.42915 0.0
C138 C 0.73068 0.53988 0.11897 0.0
C139 C 0.7686 0.52892 0.34634 0.0
O140 O 0.7937 0.61778 0.38072 0.0
O141 O 0.78319 0.60434 0.18299 0.0
O142 O 0.75121 0.58859 0.533 0.0
O143 O 0.74172 0.54915 0.48248 0.0
O144 O 0.72644 0.5907 0.32095 0.0
O145 O 0.69159 0.54849 0.38936 0.0
O146 O 0.67107 0.49081 0.29928 0.0
O147 O 0.68952 0.49042 0.48213 0.0
O148 O 0.71963 0.51482 0.15751 0.0
O149 O 0.72754 0.55366 0.20576 0.0
O150 O 0.74228 0.51202 0.36573 0.0
O151 O 0.77892 0.55562 0.32989 0.0
H152 H 0.77491 0.65428 0.30981 0.0
H153 H 0.79133 0.70219 0.24769 0.0
H154 H 0.86058 0.70522 0.05743 0.0
H155 H 0.84424 0.65752 0.11911 0.0
H156 H 0.62208 0.43825 0.29024 0.0
H157 H 0.6043 0.38879 0.27301 0.0
H158 H 0.67702 0.39847 0.45801 0.0
H159 H 0.69511 0.44797 0.47427 0.0
La160 La 0.53743 0.21257 0.3586 0.0
La161 La 0.59195 0.21538 0.37482 0.0
C162 C 0.49067 0.20331 0.28545 0.0
C163 C 0.46259 0.18151 0.24886 0.0
C164 C 0.44052 0.17571 0.33073 0.0
C165 C 0.4135 0.15817 0.29119 0.0
C166 C 0.40789 0.14607 0.16865 0.0
C167 C 0.42985 0.15116 0.08773 0.0
C168 C 0.45693 0.16884 0.12705 0.0
C169 C 0.55847 0.22088 0.59349 0.0
C170 C 0.53982 0.15748 0.39736 0.0
C171 C 0.63957 0.22423 0.42963 0.0
C172 C 0.6689 0.24516 0.42035 0.0
C173 C 0.67864 0.26673 0.33119 0.0
C174 C 0.70686 0.28517 0.32025 0.0
C175 C 0.72571 0.28223 0.39798 0.0
C176 C 0.71583 0.2609 0.48815 0.0
C177 C 0.68772 0.24257 0.49917 0.0
C178 C 0.57031 0.20753 0.14081 0.0
C179 C 0.589 0.27105 0.35972 0.0
O180 O 0.49798 0.20499 0.40625 0.0
O181 O 0.51088 0.20857 0.20717 0.0
O182 O 0.54313 0.23027 0.55085 0.0
O183 O 0.5596 0.20552 0.50833 0.0
O184 O 0.52578 0.16894 0.35385 0.0
O185 O 0.56597 0.17246 0.42942 0.0
O186 O 0.62672 0.21315 0.32219 0.0
O187 O 0.62443 0.22903 0.50824 0.0
O188 O 0.58488 0.19726 0.18221 0.0
O189 O 0.57009 0.22309 0.22696 0.0
O190 O 0.60403 0.25926 0.37961 0.0
O191 O 0.56239 0.25671 0.33749 0.0
H192 H 0.44411 0.18545 0.42411 0.0
H193 H 0.39688 0.15454 0.35512 0.0
H194 H 0.42599 0.14204 -0.00721 0.0
H195 H 0.47331 0.17317 0.06044 0.0
H196 H 0.66449 0.26911 0.26925 0.0
H197 H 0.71405 0.30155 0.25037 0.0
H198 H 0.72994 0.25827 0.5492 0.0
H199 H 0.68067 0.22606 0.56832 0.0
La200 La 0.90274 0.35611 0.3495 0.0
La201 La 0.90044 0.40867 0.37116 0.0
C202 C 0.91204 0.31996 0.2588 0.0
C203 C 0.93257 0.31099 0.2498 0.0
C204 C 0.92361 0.28295 0.25773 0.0
C205 C 0.94159 0.27319 0.23315 0.0
C206 C 0.9689 0.29129 0.19967 0.0
C207 C 0.97821 0.31948 0.19522 0.0
C208 C 0.96018 0.32928 0.21994 0.0
C209 C 0.89725 0.36968 0.58642 0.0
C210 C 0.95862 0.413 0.38767 0.0
C211 C 0.89058 0.44599 0.43849 0.0
C212 C 0.87144 0.45635 0.4118 0.0
C213 C 0.87795 0.47703 0.31982 0.0
C214 C 0.8613 0.48872 0.30399 0.0
C215 C 0.83792 0.4801 0.38033 0.0
C216 C 0.83114 0.45926 0.47097 0.0
C217 C 0.84774 0.44755 0.48682 0.0
C218 C 0.90405 0.39345 0.13367 0.0
C219 C 0.84441 0.35093 0.36395 0.0
O220 O 0.90013 0.31765 0.36985 0.0
O221 O 0.91751 0.34249 0.19854 0.0
O222 O 0.88991 0.34502 0.54851 0.0
O223 O 0.9111 0.38579 0.49727 0.0
O224 O 0.94671 0.3869 0.35401 0.0
O225 O 0.94411 0.425 0.41439 0.0
O226 O 0.90805 0.44889 0.34855 0.0
O227 O 0.88066 0.42238 0.49699 0.0
O228 O 0.91268 0.41836 0.1702 0.0
O229 O 0.89072 0.37826 0.22586 0.0
O230 O 0.85685 0.37765 0.38416 0.0
O231 O 0.85819 0.33831 0.33416 0.0
H232 H 0.90242 0.26844 0.27939 0.0
H233 H 0.93404 0.2514 0.2376 0.0
H234 H 0.99926 0.33378 0.17023 0.0
H235 H 0.96765 0.35101 0.21258 0.0
H236 H 0.89625 0.48463 0.26186 0.0
H237 H 0.86691 0.50485 0.23386 0.0
H238 H 0.81322 0.4524 0.53102 0.0
H239 H 0.84231 0.43199 0.5599 0.0
La240 La 0.43092 0.91191 0.69642 0.0
La241 La 0.37979 0.85732 0.72205 0.0
C242 C 0.46734 0.95894 0.62059 0.0
C243 C 0.4719 0.98663 0.58688 0.0
C244 C 0.47897 1.00669 0.68199 0.0
C245 C 0.48602 1.03352 0.64947 0.0
C246 C 0.48498 0.04139 0.52067 0.0
C247 C 0.48026 1.02145 0.42543 0.0
C248 C 0.47324 0.99456 0.45792 0.0
C249 C 0.41914 0.89349 0.93637 0.0
C250 C 0.37366 0.90914 0.73199 0.0
C251 C 0.34321 0.80979 0.78878 0.0
C252 C 0.33367 0.7804 0.76189 0.0
C253 C 0.31191 0.76555 0.67533 0.0
C254 C 0.30058 0.73723 0.66056 0.0
C255 C 0.31059 0.72305 0.73252 0.0
C256 C 0.33272 0.73782 0.81673 0.0
C257 C 0.34413 0.76618 0.83143 0.0
C258 C 0.39255 0.87561 0.48311 0.0
C259 C 0.4383 0.86038 0.70382 0.0
O260 O 0.4626 0.95146 0.74128 0.0
O261 O 0.45244 0.93853 0.54284 0.0
O262 O 0.44363 0.90884 0.89196 0.0
O263 O 0.40227 0.89097 0.84973 0.0
O264 O 0.39789 0.92184 0.6754 0.0
O265 O 0.36388 0.88408 0.77794 0.0
O266 O 0.34006 0.82397 0.69738 0.0
O267 O 0.36644 0.8242 0.85038 0.0
O268 O 0.36782 0.86071 0.52493 0.0
O269 O 0.40887 0.8778 0.57135 0.0
O270 O 0.41145 0.84545 0.72002 0.0
O271 O 0.45056 0.8871 0.68331 0.0
H272 H 0.48008 1.00199 0.78216 0.0
H273 H 0.4934 0.04807 0.72743 0.0
H274 H 0.48307 1.02634 0.3244 0.0
H275 H 0.46982 0.9802 0.38123 0.0
H276 H 0.30305 0.77567 0.6216 0.0
H277 H 0.28339 0.72623 0.59586 0.0
H278 H 0.34064 0.72725 0.87384 0.0
H279 H 0.36062 0.7768 0.90005 0.0
La280 La 0.20259 0.54544 0.706 0.0
La281 La 0.25664 0.54769 0.72559 0.0
C282 C 0.15638 0.53735 0.63081 0.0
C283 C 0.12919 0.51644 0.58194 0.0
C284 C 0.11652 0.48894 0.62096 0.0
C285 C 0.08949 0.47047 0.58315 0.0
C286 C 0.07475 0.47925 0.50629 0.0
C287 C 0.08782 0.50648 0.46406 0.0
C288 C 0.11476 0.52486 0.50144 0.0
C289 C 0.22285 0.55322 0.94236 0.0
C290 C 0.2043 0.49021 0.7428 0.0
C291 C 0.30412 0.55674 0.7836 0.0
C292 C 0.3336 0.57634 0.7585 0.0
C293 C 0.34769 0.57077 0.66229 0.0
C294 C 0.37604 0.58744 0.64749 0.0
C295 C 0.39096 0.60995 0.72898 0.0
C296 C 0.37698 0.61588 0.82369 0.0
C297 C 0.34861 0.59923 0.83858 0.0
C298 C 0.23624 0.54089 0.48923 0.0
C299 C 0.2547 0.6038 0.71308 0.0
O300 O 0.16235 0.53533 0.75066 0.0
O301 O 0.17742 0.54506 0.55461 0.0
O302 O 0.20767 0.5627 0.89886 0.0
O303 O 0.22408 0.53786 0.85759 0.0
O304 O 0.19107 0.50189 0.69227 0.0
O305 O 0.22987 0.50524 0.78346 0.0
O306 O 0.28945 0.54103 0.68851 0.0
O307 O 0.29034 0.56518 0.85222 0.0
O308 O 0.25096 0.53081 0.53059 0.0
O309 O 0.23557 0.55606 0.5761 0.0
O310 O 0.26947 0.59164 0.72805 0.0
O311 O 0.22795 0.58982 0.69362 0.0
H312 H 0.12722 0.48194 0.68303 0.0
H313 H 0.07979 0.44954 0.61674 0.0
H314 H 0.07688 0.5137 0.40492 0.0
H315 H 0.1241 0.54595 0.47042 0.0
H316 H 0.33692 0.55311 0.60026 0.0
H317 H 0.38645 0.58245 0.57416 0.0
H318 H 0.38814 0.63312 0.88777 0.0
H319 H 0.33857 0.60392 0.91488 0.0
La320 La 0.57049 0.68523 0.68505 0.0
La321 La 0.56267 0.73439 0.70214 0.0
C322 C 0.57252 0.64422 0.60033 0.0
C323 C 0.59341 0.63693 0.5601 0.0
C324 C 0.60872 0.63179 0.6507 0.0
C325 C 0.62792 0.62448 0.61122 0.0
C326 C 0.63387 0.62344 0.47923 0.0
C327 C 0.61583 0.62543 0.39026 0.0
C328 C 0.59657 0.63275 0.42964 0.0
C329 C 0.5726 0.70344 0.92171 0.0
C330 C 0.62328 0.74179 0.71548 0.0
C331 C 0.56058 0.77681 0.76033 0.0
C332 C 0.54168 0.78767 0.7457 0.0
C333 C 0.52293 0.77973 0.64306 0.0
C334 C 0.50563 0.79082 0.63072 0.0
C335 C 0.50678 0.8099 0.72102 0.0
C336 C 0.52536 0.81761 0.82392 0.0
C337 C 0.54267 0.80662 0.83597 0.0
C338 C 0.55922 0.71446 0.46892 0.0
C339 C 0.50955 0.67708 0.69528 0.0
O340 O 0.57104 0.6489 0.7227 0.0
O341 O 0.5697 0.66153 0.52714 0.0
O342 O 0.58565 0.69126 0.88259 0.0
O343 O 0.557 0.70262 0.83211 0.0
O344 O 0.61357 0.71625 0.6778 0.0
O345 O 0.60712 0.75216 0.7374 0.0
O346 O 0.57188 0.77427 0.65531 0.0
O347 O 0.55269 0.75582 0.83714 0.0
O348 O 0.54579 0.72617 0.50747 0.0
O349 O 0.57583 0.71683 0.55635 0.0
O350 O 0.51968 0.70355 0.71385 0.0
O351 O 0.52535 0.66602 0.67956 0.0
H352 H 0.60561 0.63295 0.75282 0.0
H353 H 0.63752 0.61909 0.68673 0.0
H354 H 0.61541 0.62055 0.28987 0.0
H355 H 0.5837 0.63464 0.35755 0.0
H356 H 0.5217 0.76503 0.57254 0.0
H357 H 0.49131 0.78449 0.55111 0.0
H358 H 0.52647 0.83218 0.89485 0.0
H359 H 0.55692 0.81298 0.91592 0.0
C360 C 0.15124 0.41691 0.84341 0.0
C361 C 0.16579 0.403 0.8171 0.0
C362 C 0.20265 0.44493 0.71899 0.0
C363 C 0.18994 0.45981 0.76137 0.0
N364 N 0.15345 0.46023 0.88123 0.0
N365 N 0.20728 0.40478 0.74556 0.0
C366 C 0.16444 0.44584 0.82731 0.0
C367 C 0.19201 0.41728 0.75877 0.0
N368 N 0.12453 0.40237 0.88157 0.0
N369 N 0.22432 0.45686 0.63636 0.0
H370 H 0.20032 0.38462 0.7733 0.0
H371 H 0.22771 0.41512 0.71741 0.0
H372 H 0.23209 0.47668 0.60135 0.0
H373 H 0.23269 0.44621 0.59186 0.0
H374 H 0.11189 0.41083 0.8886 0.0
H375 H 0.11425 0.38123 0.89465 0.0
H376 H 0.13675 0.45157 0.94324 0.0
H377 H 0.16233 0.48132 0.87359 0.0
C378 C 0.69944 0.79346 0.66672 0.0
C379 C 0.71039 0.79211 0.78819 0.0
C380 C 0.66419 0.75951 0.86402 0.0
C381 C 0.65333 0.75919 0.73987 0.0
N382 N 0.66101 0.77293 0.51747 0.0
N383 N 0.70406 0.76982 -0.00681 0.0
C384 C 0.67112 0.77529 0.63938 0.0
C385 C 0.69299 0.77392 0.88402 0.0
N386 N 0.71588 0.81278 0.57929 0.0
N387 N 0.64697 0.74679 0.96463 0.0
H388 H 0.72505 0.77998 0.01136 0.0
H389 H 0.69273 0.75457 0.06006 0.0
H390 H 0.62589 0.73606 0.95402 0.0
H391 H 0.65338 0.74898 0.06015 0.0
H392 H 0.70862 0.81691 0.49495 0.0
H393 H 0.73665 0.82618 0.59549 0.0
H394 H 0.67327 0.78184 0.43708 0.0
H395 H 0.64036 0.76034 0.49506 0.0
C396 C 0.35193 0.96014 0.84789 0.0
C397 C 0.32399 0.94631 0.81069 0.0
C398 C 0.32958 0.90993 0.70981 0.0
C399 C 0.35742 0.92331 0.75037 0.0
N400 N 0.39667 0.96434 0.83394 0.0
N401 N 0.28521 0.90725 0.71579 0.0
C402 C 0.36909 0.94937 0.81209 0.0
C403 C 0.31257 0.92099 0.74401 0.0
N404 N 0.36169 0.9829 0.92406 0.0
N405 N 0.31998 0.88765 0.6305 0.0
H406 H 0.27243 0.9153 0.73314 0.0
H407 H 0.27462 0.88722 0.68225 0.0
H408 H 0.33211 0.87976 0.59817 0.0
H409 H 0.30087 0.87832 0.58638 0.0
H410 H 0.38067 0.99205 0.96956 0.0
H411 H 0.34988 0.99155 0.95112 0.0
H412 H 0.40678 0.98482 0.86097 0.0
H413 H 0.41023 0.95733 0.81691 0.0
C414 C 0.36199 0.1028 0.1806 0.0
C415 C 0.37889 0.12884 0.12431 0.0
C416 C 0.34046 0.1221 0.98641 0.0
C417 C 0.32283 0.09755 0.05307 0.0
N418 N 0.31588 0.06721 0.23107 0.0
N419 N 0.38316 0.16529 0.98728 0.0
C420 C 0.33336 0.08851 0.15454 0.0
C421 C 0.36785 0.13903 0.03055 0.0
N422 N 0.3734 0.09145 0.25713 0.0
N423 N 0.33129 0.12886 0.87832 0.0
H424 H 0.40322 0.17838 0.01727 0.0
H425 H 0.37525 0.17487 0.93017 0.0
H426 H 0.31149 0.11686 0.8424 0.0
H427 H 0.34397 0.14492 0.81768 0.0
H428 H 0.36266 0.07134 0.28985 0.0
H429 H 0.39427 0.10127 0.2781 0.0
H430 H 0.32206 0.06165 0.31482 0.0
H431 H 0.29473 0.05672 0.21851 0.0
C432 C 0.99747 0.27074 0.2682 0.0
C433 C 0.9874 0.28032 0.16775 0.0
C434 C 1.00996 0.266 0.00793 0.0
C435 C 1.01806 0.25433 0.10798 0.0
N436 N 1.01553 0.24166 0.33219 0.0
N437 N 0.98127 0.28467 0.94113 0.0
C438 C 1.01065 0.25556 0.23777 0.0
C439 C 0.99311 0.27753 0.03724 0.0
N440 N 0.99509 0.27686 0.39316 0.0
N441 N 1.01789 0.26554 0.88428 0.0
H442 H 0.9691 0.29339 0.9587 0.0
H443 H 0.98192 0.28039 0.84424 0.0
H444 H 1.02759 0.25476 0.85728 0.0
H445 H 1.01589 0.27666 0.80935 0.0
H446 H 1.00473 0.27327 0.47014 0.0
H447 H 0.98553 0.28789 0.419 0.0
H448 H 1.0077 0.23907 0.42501 0.0
H449 H 1.0257 0.23084 0.31625 0.0
C450 C 0.85843 0.7847 0.18324 0.0
C451 C 0.86084 0.79309 0.05285 0.0
C452 C 0.83681 0.7447 0.98639 0.0
C453 C 0.8381 0.73681 0.11515 0.0
N454 N 0.85376 0.74991 0.33377 0.0
N455 N 0.85232 0.78124 0.82838 0.0
C456 C 0.84991 0.757 0.21294 0.0
C457 C 0.84988 0.77309 0.95376 0.0
N458 N 0.86257 0.80287 0.27926 0.0
N459 N 0.82232 0.72501 0.89634 0.0
H460 H 0.86005 0.8016 0.80226 0.0
H461 H 0.84792 0.76815 0.75028 0.0
H462 H 0.81252 0.70416 0.91705 0.0
H463 H 0.81815 0.72919 0.80414 0.0
H464 H 0.85855 0.79735 0.37582 0.0
H465 H 0.8667 0.82268 0.26042 0.0
H466 H 0.86499 0.76424 0.40471 0.0
H467 H 0.84782 0.72987 0.35993 0.0
C468 C 1.02527 0.45325 0.57433 0.0
C469 C 1.04513 0.46055 0.47591 0.0
C470 C 1.00823 0.43572 0.31732 0.0
C471 C 0.98857 0.42781 0.41717 0.0
N472 N 0.97928 0.42132 0.64428 0.0
N473 N 1.05606 0.4547 0.25851 0.0
C474 C 0.99736 0.43438 0.54679 0.0
C475 C 1.03675 0.45059 0.34851 0.0
N476 N 1.03284 0.46504 0.69335 0.0
N477 N 0.99964 0.42943 0.1926 0.0
H478 H 0.07699 0.46536 0.27846 0.0
H479 H 1.05143 0.44579 0.16752 0.0
H480 H 0.9791 0.4172 0.16773 0.0
H481 H 1.0126 0.4373 0.11363 0.0
H482 H 1.01877 0.46272 0.76401 0.0
H483 H 1.05302 0.47909 0.71792 0.0
H484 H 0.98502 0.42328 0.7408 0.0
H485 H 0.95924 0.40589 0.62706 0.0
C486 C 0.67446 0.61642 0.53169 0.0
C487 C 0.65641 0.61721 0.43891 0.0
C488 C 0.67188 0.5943 0.28626 0.0
C489 C 0.68429 0.58781 0.38899 0.0
N490 N 0.69576 0.59192 0.61519 0.0
N491 N 0.65882 0.62664 0.21171 0.0
C492 C 0.68511 0.59866 0.51326 0.0
C493 C 0.66043 0.61146 0.3098 0.0
N494 N 0.68499 0.63575 0.62635 0.0
N495 N 0.67094 0.5841 0.16612 0.0
H496 H 0.65749 0.64411 0.22989 0.0
H497 H 0.66367 0.625 0.11664 0.0
H498 H 0.67947 0.57187 0.14518 0.0
H499 H 0.6598 0.58602 0.09072 0.0
H500 H 0.70026 0.63776 0.68959 0.0
H501 H 0.68113 0.65201 0.62882 0.0
H502 H 0.69453 0.59749 0.7096 0.0
H503 H 0.70321 0.57855 0.60649 0.0
C504 C 0.51737 0.11885 0.55725 0.0
C505 C 0.52447 0.12761 0.42777 0.0
C506 C 0.49446 0.08012 0.35742 0.0
C507 C 0.49241 0.07087 0.48659 0.0
N508 N 0.48261 0.08405 0.69102 0.0
N509 N 0.5203 0.11592 0.20252 0.0
C510 C 0.49847 0.09089 0.58337 0.0
C511 C 0.51302 0.10806 0.32714 0.0
N512 N 0.52852 0.13705 0.65625 0.0
N513 N 0.47533 0.06382 0.26909 0.0
H514 H 0.53436 0.13601 0.17716 0.0
H515 H 0.51435 0.10197 0.1268 0.0
H516 H 0.45798 0.04561 0.29617 0.0
H517 H 0.47433 0.07032 0.17633 0.0
H518 H 0.52571 0.131 0.75249 0.0
H519 H 0.54229 0.15774 0.64219 0.0
H520 H 0.48435 0.09834 0.75942 0.0
H521 H 0.46514 0.06484 0.70086 0.0
C522 C 0.12392 0.14001 0.06684 0.0
C523 C 0.14858 0.1531 -0.0042 0.0
C524 C 0.13608 0.18631 0.91538 0.0
C525 C 0.11401 0.17638 0.00426 0.0
N526 N 0.08798 0.1437 0.17281 0.0
N527 N 0.17988 0.1907 0.86232 0.0
C528 C 0.10801 0.15303 0.08141 0.0
C529 C 0.15514 0.1768 0.92262 0.0
N530 N 0.11526 0.11466 0.11789 0.0
N531 N 0.13796 0.20359 0.81869 0.0
H532 H 0.1943 0.1843 0.86427 0.0
H533 H 0.18695 0.20976 0.81961 0.0
H534 H 0.12319 0.20923 0.80307 0.0
H535 H 0.15219 0.20949 0.74449 0.0
H536 H 0.09589 0.10256 0.15731 0.0
H537 H 0.12639 0.10453 0.10961 0.0
H538 H 0.08571 0.12958 0.24322 0.0
H539 H 0.07462 0.15106 0.18573 0.0
C540 C 0.96095 0.98375 0.95008 0.0
C541 C 0.93452 0.96704 0.0042 0.0
C542 C 0.93322 1.00874 0.06127 0.0
C543 C 0.96109 1.02503 0.02571 0.0
N544 N 1.00277 1.02774 0.95122 0.0
N545 N 0.89674 0.96439 0.12697 0.0
C546 C 0.97533 1.01244 0.97427 0.0
C547 C 0.92089 0.97972 0.06335 0.0
N548 N 0.97174 0.97253 0.86921 0.0
N549 N 0.9182 1.02097 0.08978 0.0
H550 H 0.88655 0.94319 0.13199 0.0
H551 H 0.88794 0.97289 0.1853 0.0
H552 H 0.9264 0.04211 0.08891 0.0
H553 H 0.89706 1.01013 0.10188 0.0
H554 H 0.98978 0.98412 0.81798 0.0
H555 H 0.96114 0.95204 0.84139 0.0
H556 H 1.01479 1.01917 0.92729 0.0
H557 H 1.01395 0.0488 0.96679 0.0
C558 C 0.10477 0.97176 0.87415 0.0
C559 C 0.09132 0.96719 -0.00533 0.0
C560 C 0.13581 0.99354 0.10309 0.0
C561 C 0.14922 0.99969 0.98195 0.0
N562 N 0.14642 0.99829 0.75039 0.0
N563 N 0.09344 0.97776 0.22053 0.0
C564 C 0.13367 0.98979 0.8668 0.0
C565 C 0.1067 0.97937 0.10809 0.0
N566 N 0.09002 0.95824 0.76737 0.0
N567 N 0.15088 1.0 0.2139 0.0
H568 H 0.07217 0.96733 0.22829 0.0
H569 H 0.10337 0.9887 0.30312 0.0
H570 H 0.17214 1.00963 0.21416 0.0
H571 H 0.14237 0.99353 0.30487 0.0
H572 H 0.09887 0.95817 0.6797 0.0
H573 H 0.06883 0.94547 0.76866 0.0
H574 H 0.13601 0.99422 0.66308 0.0
H575 H 0.16748 1.01132 0.74147 0.0
C576 C 0.8048 0.52304 0.4597 0.0
C577 C 0.78742 0.51761 0.35143 0.0
C578 C 0.80215 0.48652 0.26478 0.0
C579 C 0.82093 0.49347 0.36841 0.0
N580 N 0.8437 0.52187 0.55248 0.0
N581 N 0.77278 0.4979 0.14033 0.0
C582 C 0.82331 0.51281 0.46234 0.0
C583 C 0.78701 0.50038 0.25089 0.0
N584 N 0.80275 0.53693 0.56273 0.0
N585 N 0.79813 0.46602 0.182 0.0
H586 H 0.76151 0.50773 0.12689 0.0
H587 H 0.77402 0.48811 0.05791 0.0
H588 H 0.80905 0.45565 0.18823 0.0
H589 H 0.78256 0.45783 0.11347 0.0
H590 H 0.81257 0.53892 0.65036 0.0
H591 H 0.7893 0.54452 0.56457 0.0
H592 H 0.8484 0.53808 0.61472 0.0
H593 H 0.85751 0.51472 0.55806 0.0
C594 C 0.6287 0.34597 0.25147 0.0
C595 C 0.62726 0.35952 0.36376 0.0
C596 C 0.60266 0.31532 0.47619 0.0
C597 C 0.60246 0.30157 0.36125 0.0
N598 N 0.61123 0.30323 0.13392 0.0
N599 N 0.60993 0.35716 0.57789 0.0
C600 C 0.61444 0.31677 0.24731 0.0
C601 C 0.61351 0.34419 0.47492 0.0
N602 N 0.64416 0.36107 0.14961 0.0
N603 N 0.59274 0.30078 0.58742 0.0
H604 H 0.618 0.37827 0.5819 0.0
H605 H 0.59735 0.34696 0.65572 0.0
H606 H 0.58317 0.27957 0.59057 0.0
H607 H 0.59544 0.3097 0.67787 0.0
H608 H 0.64852 0.35267 0.07028 0.0
H609 H 0.65444 0.38239 0.14872 0.0
H610 H 0.61696 0.31285 0.04475 0.0
H611 H 0.60061 0.28197 0.12765 0.0
C612 C 0.77046 0.32051 0.48419 0.0
C613 C 0.7559 0.30125 0.38533 0.0
C614 C 0.79859 0.31865 0.26294 0.0
C615 C 0.81377 0.33489 0.36966 0.0
N616 N 0.81404 0.34982 0.58809 0.0
N617 N 0.75678 0.27935 0.18751 0.0
C618 C 0.79966 0.33558 0.48181 0.0
C619 C 0.77016 0.29959 0.27652 0.0
N620 N 0.75631 0.32496 0.57867 0.0
N621 N 0.81096 0.32269 0.14595 0.0
H622 H 0.73598 0.26501 0.19354 0.0
H623 H 0.76682 0.27539 0.11388 0.0
H624 H 0.83098 0.33828 0.13062 0.0
H625 H 0.80048 0.31316 0.06169 0.0
H626 H 0.7655 0.34077 0.64547 0.0
H627 H 0.73499 0.31439 0.58323 0.0
H628 H 0.80506 0.34828 0.67741 0.0
H629 H 0.83529 0.36161 0.59065 0.0
C630 C 0.49398 0.84281 0.62127 0.0
C631 C 0.48822 0.82156 0.71023 0.0
C632 C 0.45037 0.82614 0.79866 0.0
C633 C 0.45491 0.84629 0.7037 0.0
N634 N 0.47667 0.86789 0.50289 0.0
N635 N 0.45732 0.78877 0.86357 0.0
C636 C 0.47553 0.853 0.60888 0.0
C637 C 0.46527 0.81192 0.79256 0.0
N638 N 0.51749 0.85379 0.55046 0.0
N639 N 0.43295 0.82138 0.89911 0.0
H640 H 0.46785 0.77795 0.86252 0.0
H641 H 0.43892 0.77885 0.91376 0.0
H642 H 0.42166 0.83117 0.91082 0.0
H643 H 0.43157 0.80951 0.97855 0.0
H644 H 0.5244 0.87143 0.49529 0.0
H645 H 0.53127 0.84659 0.55503 0.0
H646 H 0.48934 0.87085 0.42456 0.0
H647 H 0.46292 0.87474 0.48592 0.0
C648 C 0.2855 0.65 0.61241 0.0
C649 C 0.26884 0.63436 0.71702 0.0
C650 C 0.27794 0.67682 0.82624 0.0
C651 C 0.29646 0.69247 0.72706 0.0
N652 N 0.32065 0.6943 0.53338 0.0
N653 N 0.25225 0.63298 0.93216 0.0
C654 C 0.30101 0.67913 0.62214 0.0
C655 C 0.26588 0.64782 0.82621 0.0
N656 N 0.28566 0.63702 0.50176 0.0
N657 N 0.27114 0.68963 0.91854 0.0
H658 H 0.24255 0.61178 0.93499 0.0
H659 H 0.25237 0.6417 0.0206 0.0
H660 H 0.27969 0.7108 0.92305 0.0
H661 H 0.2554 0.67926 0.98446 0.0
H662 H 0.29504 0.64719 0.41699 0.0
H663 H 0.27433 0.61584 0.49126 0.0
H664 H 0.32709 0.68581 0.46229 0.0
H665 H 0.33208 0.7156 0.53678 0.0
C666 C 0.4625 0.6604 0.60212 0.0
C667 C 0.47925 0.65898 0.70064 0.0
C668 C 0.43823 0.6234 0.81 0.0
C669 C 0.42142 0.62671 0.7182 0.0
N670 N 0.41726 0.65093 0.5365 0.0
N671 N 0.48299 0.64259 0.9097 0.0
C672 C 0.43349 0.6459 0.61665 0.0
C673 C 0.4671 0.64133 0.80753 0.0
N674 N 0.4743 0.67495 0.49268 0.0
N675 N 0.42668 0.60263 0.89774 0.0
H676 H 0.50409 0.65568 0.91193 0.0
H677 H 0.47508 0.63255 -0.00342 0.0
H678 H 0.40564 0.58918 0.90313 0.0
H679 H 0.43803 0.59726 0.95785 0.0
H680 H 0.46324 0.67442 0.41134 0.0
H681 H 0.49539 0.68575 0.47875 0.0
H682 H 0.42488 0.66679 0.46978 0.0
H683 H 0.39597 0.64059 0.54356 0.0
C684 C 0.06828 0.23937 0.60813 0.0
C685 C 0.06175 0.21474 0.67327 0.0
C686 C 0.0721 0.19734 0.47751 0.0
C687 C 0.07458 0.21999 0.40753 0.0
N688 N 0.07654 0.26364 0.40495 0.0
N689 N 1.05515 0.16907 0.66809 0.0
C690 C 0.07311 0.24136 0.47263 0.0
C691 C 0.06299 0.19336 0.60735 0.0
N692 N 0.07074 0.26111 0.67687 0.0
N693 N 0.07993 0.18047 0.42182 0.0
H694 H 1.04912 0.16549 0.76423 0.0
H695 H 1.05266 0.15174 0.62052 0.0
H696 H 0.08858 0.18427 0.33041 0.0
H697 H 0.08101 0.16495 0.47093 0.0
H698 H 0.07773 0.28052 0.63881 0.0
H699 H 0.06785 0.26035 0.77606 0.0
H700 H 0.07278 0.27852 0.44242 0.0
H701 H 0.08164 0.26656 0.30759 0.0
C702 C 0.90428 0.86071 0.54325 0.0
C703 C 0.90175 0.87892 0.62911 0.0
C704 C 0.89967 0.90467 0.44251 0.0
C705 C 0.90096 0.88571 0.35848 0.0
N706 N 0.91939 0.8556 0.33454 0.0
N707 N 0.88874 0.91366 0.65359 0.0
C708 C 0.9075 0.86647 0.40984 0.0
C709 C 0.89727 0.89978 0.5773 0.0
N710 N 0.9021 0.83693 0.58777 0.0
N711 N 0.90311 0.92864 0.39377 0.0
H712 H 0.88283 0.90827 0.74788 0.0
H713 H 0.88311 0.92742 0.61836 0.0
H714 H 0.90826 0.93395 0.29767 0.0
H715 H 0.9051 0.94473 0.45053 0.0
H716 H 0.90116 0.8218 0.52705 0.0
H717 H 0.89767 0.83069 0.68322 0.0
H718 H 0.92653 0.84304 0.37001 0.0
H719 H 0.92627 0.86282 0.24263 0.0
C720 C 0.22689 0.06656 0.52654 0.0
C721 C 0.23238 0.05036 0.61276 0.0
C722 C 0.23764 1.02609 0.4328 0.0
C723 C 0.23113 0.04122 0.34528 0.0
N724 N 0.20722 0.06628 0.32018 0.0
N725 N 0.22374 1.00421 0.6375 0.0
C726 C 0.22251 0.05911 0.39449 0.0
C727 C 0.23217 1.02692 0.56406 0.0
N728 N 0.22377 0.08759 0.57043 0.0
N729 N 0.24915 1.0111 0.39309 0.0
H730 H 0.21473 1.0023 0.72691 0.0
H731 H 0.22191 0.98615 0.60097 0.0
H732 H 0.25562 1.01144 0.2989 0.0
H733 H 0.25511 1.00098 0.45838 0.0
H734 H 0.22316 0.10187 0.50887 0.0
H735 H 0.22181 0.09072 0.66755 0.0
H736 H 0.19827 0.0773 0.35464 0.0
H737 H 0.20045 0.05788 0.22948 0.0
C738 C 0.71168 0.54126 0.76973 0.0
C739 C 0.73782 0.55618 0.71104 0.0
C740 C 0.7595 0.55888 0.92019 0.0
C741 C 0.7335 0.54687 0.98025 0.0
N742 N 0.68508 0.53034 0.96565 0.0
N743 N 0.78703 0.58202 0.73351 0.0
C744 C 0.70966 0.53917 0.90597 0.0
C745 C 0.76187 0.56589 0.78732 0.0
N746 N 0.68871 0.52843 0.69549 0.0
N747 N 0.78181 0.56264 0.98871 0.0
H748 H 0.78995 0.5863 0.63536 0.0
H749 H 0.80493 0.59248 0.78742 0.0
H750 H 0.78088 0.55799 0.08614 0.0
H751 H 0.80065 0.56827 0.94703 0.0
H752 H 0.66942 0.51473 0.7316 0.0
H753 H 0.6894 0.52957 0.59596 0.0
H754 H 0.66762 0.52752 0.91767 0.0
H755 H 0.6826 0.52813 0.06518 0.0
C756 C 0.53885 0.19771 0.80534 0.0
C757 C 0.56161 0.21756 0.73382 0.0
C758 C 0.5897 0.23186 0.93116 0.0
C759 C 0.56722 0.21123 0.00112 0.0
N760 N 0.52187 0.17203 0.00372 0.0
N761 N 0.60885 0.253 0.72465 0.0
C762 C 0.54218 0.19353 0.93791 0.0
C763 C 0.5871 0.23449 0.79583 0.0
N764 N 0.51384 0.18313 0.747 0.0
N765 N 0.61344 0.24913 -0.00507 0.0
H766 H 0.60718 0.2565 0.62764 0.0
H767 H 0.62882 0.26419 0.75854 0.0
H768 H 0.61643 0.24726 0.09264 0.0
H769 H 0.62984 0.2663 0.95432 0.0
H770 H 0.49573 0.17102 0.79674 0.0
H771 H 0.51077 0.18415 0.64864 0.0
H772 H 0.50465 0.1561 0.96011 0.0
H773 H 0.52303 0.16912 0.102 0.0
C774 C 0.87867 0.35617 0.81063 0.0
C775 C 0.89655 0.37697 0.72468 0.0
C776 C 0.92152 0.40596 0.90854 0.0
C777 C 0.90354 0.38546 -0.00462 0.0
N778 N 0.87126 0.3371 0.02315 0.0
N779 N 0.92653 0.42572 0.69924 0.0
C780 C 0.88376 0.35945 0.94533 0.0
C781 C 0.91559 0.40305 0.77523 0.0
N782 N 0.85543 0.33402 0.76467 0.0
N783 N 0.94544 0.4276 0.95197 0.0
H784 H 0.92011 0.42534 0.60571 0.0
H785 H 0.93865 0.44548 0.73481 0.0
H786 H 0.95201 0.42938 0.04704 0.0
H787 H 0.96049 0.44167 0.8906 0.0
H788 H 0.83989 0.31995 0.82396 0.0
H789 H 0.84975 0.33157 0.66804 0.0
H790 H 0.85952 0.31722 0.98853 0.0
H791 H 0.87504 0.33758 0.12054 0.0
C792 C 0.39122 0.89629 0.27018 0.0
C793 C 0.39956 0.88049 0.34363 0.0
C794 C 0.42256 0.87537 0.15374 0.0
C795 C 0.41301 0.88982 0.07768 0.0
N796 N 0.39435 0.91997 0.07031 0.0
N797 N 0.41641 0.84876 0.346 0.0
C798 C 0.39863 0.90162 0.13743 0.0
C799 C 0.41359 0.8685 0.28329 0.0
N800 N 0.37591 0.90597 0.32737 0.0
N801 N 0.44104 0.86896 0.10403 0.0
H802 H 0.40886 0.84192 0.43821 0.0
H803 H 0.42363 0.83705 0.30178 0.0
H804 H 0.44839 0.8737 0.01022 0.0
H805 H 0.45113 0.86133 0.1595 0.0
H806 H 0.36608 0.91459 0.27753 0.0
H807 H 0.37165 0.9041 0.42561 0.0
H808 H 0.38608 0.93121 0.10894 0.0
H809 H 0.40172 0.9262 0.97773 0.0
C810 C 0.25176 0.56777 0.14364 0.0
C811 C 0.22629 0.5503 0.08276 0.0
C812 C 0.20735 0.5269 0.28866 0.0
C813 C 0.23274 0.54441 0.34972 0.0
N814 N 0.2803 0.57912 0.3351 0.0
N815 N 0.17834 0.51679 0.10046 0.0
C816 C 0.25527 0.56429 0.27714 0.0
C817 C 0.20367 0.53082 0.15619 0.0
N818 N 0.27216 0.58861 0.07492 0.0
N819 N 0.18713 0.50561 0.35598 0.0
H820 H 0.17475 0.51881 0.00385 0.0
H821 H 0.16038 0.50478 0.1514 0.0
H822 H 0.18907 0.50214 0.45275 0.0
H823 H 0.16934 0.49006 0.31446 0.0
H824 H 0.29019 0.60409 0.11488 0.0
H825 H 0.27032 0.59161 0.97744 0.0
H826 H 0.29837 0.59162 0.286 0.0
H827 H 0.28351 0.57791 0.43318 0.0
C828 C 0.58039 0.73468 0.2562 0.0
C829 C 0.56314 0.71124 0.33018 0.0
C830 C 0.55269 0.68245 0.13753 0.0
C831 C 0.56808 0.70621 0.06117 0.0
N832 N 0.59223 0.75541 0.04571 0.0
N833 N 0.52874 0.66355 0.33795 0.0
C834 C 0.58064 0.73246 0.11997 0.0
C835 C 0.54813 0.68531 0.26998 0.0
N836 N 0.59696 0.75907 0.31624 0.0
N837 N 0.54265 0.65707 0.08436 0.0
H838 H 0.52505 0.66482 0.43507 0.0
H839 H 0.51486 0.64494 0.29594 0.0
H840 H 0.54411 0.65385 0.98664 0.0
H841 H 0.53431 0.63919 0.13863 0.0
H842 H 0.61238 0.77606 0.26913 0.0
H843 H 0.59696 0.76174 0.41554 0.0
H844 H 0.59897 0.77499 0.08135 0.0
H845 H 0.59269 0.75457 0.94632 0.0
loop_
_geom_bond_atom_site_label_1
_geom_bond_atom_site_label_2
_geom_bond_distance
_geom_bond_site_symmetry_2
_ccdc_geom_bond_type
La0 C2 2.928 1_554 S
La0 O20 2.521 . S
La0 O21 2.628 1_554 S
La0 O22 2.554 . S
La0 O23 2.757 . S
La0 O24 2.470 . S
La0 O29 2.482 1_554 S
La0 O31 2.503 1_554 S
La1 C11 2.928 1_556 S
La1 O23 2.482 1_656 S
La1 O25 2.503 1_556 S
La1 O26 2.521 . S
La1 O27 2.628 1_556 S
La1 O28 2.554 . S
La1 O29 2.757 1_655 S
La1 O30 2.470 1_655 S
C2 La0 2.928 1_556 S
C2 C3 1.503 . S
C2 O20 1.261 1_556 S
C2 O21 1.243 . S
C3 C2 1.503 . S
C3 C4 1.394 1_556 S
C3 C8 1.373 . S
C4 C3 1.394 1_554 S
C4 C5 1.380 . S
C4 H32 0.930 . S
C5 C4 1.380 . S
C5 C6 1.376 1_554 S
C5 H33 0.930 . S
C6 C5 1.376 1_556 S
C6 C7 1.370 . S
C7 C6 1.370 . S
C7 C8 1.396 . S
C7 H34 0.929 . S
C8 C3 1.373 . S
C8 C7 1.396 . S
C8 H35 0.929 . S
C9 O22 1.240 . S
C9 O23 1.289 . S
C10 O24 1.258 1_655 S
C10 O25 1.256 . S
C11 La1 2.928 1_554 S
C11 C12 1.503 . S
C11 O26 1.261 1_554 S
C11 O27 1.243 . S
C12 C11 1.503 . S
C12 C13 1.394 1_554 S
C12 C17 1.373 . S
C13 C12 1.394 1_556 S
C13 C14 1.380 . S
C13 H36 0.930 . S
C14 C13 1.380 . S
C14 C15 1.376 1_556 S
C14 H37 0.930 . S
C15 C14 1.376 1_554 S
C15 C16 1.370 . S
C16 C15 1.370 . S
C16 C17 1.396 . S
C16 H38 0.929 . S
C17 C12 1.373 . S
C17 C16 1.396 . S
C17 H39 0.929 . S
C18 O28 1.240 1_455 S
C18 O29 1.289 . S
C19 O30 1.258 . S
C19 O31 1.256 . S
O20 La0 2.521 . S
O20 C2 1.261 1_554 S
O21 La0 2.628 1_556 S
O21 C2 1.243 . S
O22 La0 2.554 . S
O22 C9 1.240 . S
O23 La0 2.757 . S
O23 La1 2.482 1_454 S
O23 C9 1.289 . S
O24 La0 2.470 . S
O24 C10 1.258 1_455 S
O25 La1 2.503 1_554 S
O25 C10 1.256 . S
O26 La1 2.521 . S
O26 C11 1.261 1_556 S
O27 La1 2.628 1_554 S
O27 C11 1.243 . S
O28 La1 2.554 . S
O28 C18 1.240 1_655 S
O29 La0 2.482 1_556 S
O29 La1 2.757 1_455 S
O29 C18 1.289 . S
O30 La1 2.470 1_455 S
O30 C19 1.258 . S
O31 La0 2.503 1_556 S
O31 C19 1.256 . S
H32 C4 0.930 . S
H33 C5 0.930 . S
H34 C7 0.929 . S
H35 C8 0.929 . S
H36 C13 0.930 . S
H37 C14 0.930 . S
H38 C16 0.929 . S
H39 C17 0.929 . S
La40 C42 2.928 1_554 S
La40 O60 2.521 . S
La40 O61 2.628 1_554 S
La40 O62 2.554 . S
La40 O63 2.757 . S
La40 O64 2.470 . S
La40 O69 2.482 1_554 S
La40 O71 2.503 1_554 S
La41 C51 2.928 1_556 S
La41 O63 2.482 1_556 S
La41 O65 2.503 1_556 S
La41 O66 2.521 . S
La41 O67 2.628 1_556 S
La41 O68 2.554 . S
La41 O69 2.757 . S
La41 O70 2.470 . S
C42 La40 2.928 1_556 S
C42 C43 1.503 . S
C42 O60 1.261 1_556 S
C42 O61 1.243 . S
C43 C42 1.503 . S
C43 C44 1.394 1_556 S
C43 C48 1.373 . S
C44 C43 1.394 1_554 S
C44 C45 1.380 . S
C44 H72 0.930 . S
C45 C44 1.380 . S
C45 C46 1.376 1_554 S
C45 H73 0.930 . S
C46 C45 1.376 1_556 S
C46 C47 1.370 . S
C47 C46 1.370 . S
C47 C48 1.396 . S
C47 H74 0.929 . S
C48 C43 1.373 . S
C48 C47 1.396 . S
C48 H75 0.929 . S
C49 O62 1.240 . S
C49 O63 1.289 . S
C50 O64 1.258 . S
C50 O65 1.256 . S
C51 La41 2.928 1_554 S
C51 C52 1.503 . S
C51 O66 1.261 1_554 S
C51 O67 1.243 . S
C52 C51 1.503 . S
C52 C53 1.394 1_554 S
C52 C57 1.373 . S
C53 C52 1.394 1_556 S
C53 C54 1.360 1_655 S
C53 H76 0.930 . S
C54 C53 1.360 1_455 S
C54 C55 1.379 1_556 S
C54 H77 0.949 . S
C55 C54 1.379 1_554 S
C55 C56 1.370 1_455 S
C56 C55 1.370 1_655 S
C56 C57 1.396 . S
C56 H78 0.929 1_655 S
C57 C52 1.373 . S
C57 C56 1.396 . S
C57 H79 0.929 . S
C58 O68 1.240 . S
C58 O69 1.289 . S
C59 O70 1.258 . S
C59 O71 1.256 . S
O60 La40 2.521 . S
O60 C42 1.261 1_554 S
O61 La40 2.628 1_556 S
O61 C42 1.243 . S
O62 La40 2.554 . S
O62 C49 1.240 . S
O63 La40 2.757 . S
O63 La41 2.482 1_554 S
O63 C49 1.289 . S
O64 La40 2.470 . S
O64 C50 1.258 . S
O65 La41 2.503 1_554 S
O65 C50 1.256 . S
O66 La41 2.521 . S
O66 C51 1.261 1_556 S
O67 La41 2.628 1_554 S
O67 C51 1.243 . S
O68 La41 2.554 . S
O68 C58 1.240 . S
O69 La40 2.482 1_556 S
O69 La41 2.757 . S
O69 C58 1.289 . S
O70 La41 2.470 . S
O70 C59 1.258 . S
O71 La40 2.503 1_556 S
O71 C59 1.256 . S
H72 C44 0.930 . S
H73 C45 0.930 . S
H74 C47 0.929 . S
H75 C48 0.929 . S
H76 C53 0.930 . S
H77 C54 0.949 . S
H78 C56 0.929 1_455 S
H79 C57 0.929 . S
La80 C82 2.928 1_554 S
La80 O100 2.521 . S
La80 O101 2.628 1_554 S
La80 O102 2.554 . S
La80 O103 2.757 1_565 S
La80 O104 2.470 1_565 S
La80 O109 2.482 1_564 S
La80 O111 2.503 1_554 S
La81 C91 2.928 1_556 S
La81 O103 2.482 1_556 S
La81 O105 2.503 1_556 S
La81 O106 2.521 . S
La81 O107 2.628 1_556 S
La81 O108 2.554 . S
La81 O109 2.757 . S
La81 O110 2.470 . S
C82 La80 2.928 1_556 S
C82 C83 1.503 . S
C82 O100 1.261 1_556 S
C82 O101 1.243 . S
C83 C82 1.503 . S
C83 C84 1.394 1_556 S
C83 C88 1.373 . S
C84 C83 1.394 1_554 S
C84 C85 1.380 . S
C84 H112 0.930 . S
C85 C84 1.380 . S
C85 C86 1.376 1_554 S
C85 H113 0.930 . S
C86 C85 1.376 1_556 S
C86 C87 1.370 . S
C87 C86 1.370 . S
C87 C88 1.396 . S
C87 H114 0.929 . S
C88 C83 1.373 . S
C88 C87 1.396 . S
C88 H115 0.929 . S
C89 O102 1.240 1_545 S
C89 O103 1.289 . S
C90 O104 1.258 . S
C90 O105 1.256 . S
C91 La81 2.928 1_554 S
C91 C92 1.503 . S
C91 O106 1.261 1_554 S
C91 O107 1.243 . S
C92 C91 1.503 . S
C92 C93 1.394 1_554 S
C92 C97 1.373 . S
C93 C92 1.394 1_556 S
C93 C94 1.380 . S
C93 H116 0.930 . S
C94 C93 1.380 . S
C94 C95 1.376 1_556 S
C94 H117 0.930 . S
C95 C94 1.376 1_554 S
C95 C96 1.370 . S
C96 C95 1.370 . S
C96 C97 1.396 . S
C96 H118 0.929 . S
C97 C92 1.373 . S
C97 C96 1.396 . S
C97 H119 0.929 . S
C98 O108 1.240 . S
C98 O109 1.289 . S
C99 O110 1.258 1_565 S
C99 O111 1.256 . S
O100 La80 2.521 . S
O100 C82 1.261 1_554 S
O101 La80 2.628 1_556 S
O101 C82 1.243 . S
O102 La80 2.554 . S
O102 C89 1.240 1_565 S
O103 La80 2.757 1_545 S
O103 La81 2.482 1_554 S
O103 C89 1.289 . S
O104 La80 2.470 1_545 S
O104 C90 1.258 . S
O105 La81 2.503 1_554 S
O105 C90 1.256 . S
O106 La81 2.521 . S
O106 C91 1.261 1_556 S
O107 La81 2.628 1_554 S
O107 C91 1.243 . S
O108 La81 2.554 . S
O108 C98 1.240 . S
O109 La80 2.482 1_546 S
O109 La81 2.757 . S
O109 C98 1.289 . S
O110 La81 2.470 . S
O110 C99 1.258 1_545 S
O111 La80 2.503 1_556 S
O111 C99 1.256 . S
H112 C84 0.930 . S
H113 C85 0.930 . S
H114 C87 0.929 . S
H115 C88 0.929 . S
H116 C93 0.930 . S
H117 C94 0.930 . S
H118 C96 0.929 . S
H119 C97 0.929 . S
La120 C122 2.928 . S
La120 O140 2.521 . S
La120 O141 2.628 . S
La120 O142 2.554 . S
La120 O143 2.757 . S
La120 O144 2.470 . S
La120 O149 2.482 . S
La120 O151 2.503 . S
La121 C131 2.928 . S
La121 O143 2.482 . S
La121 O145 2.503 . S
La121 O146 2.521 . S
La121 O147 2.628 . S
La121 O148 2.554 . S
La121 O149 2.757 . S
La121 O150 2.470 . S
C122 La120 2.928 . S
C122 C123 1.503 . S
C122 O140 1.261 . S
C122 O141 1.243 . S
C123 C122 1.503 . S
C123 C124 1.394 . S
C123 C128 1.373 . S
C124 C123 1.394 . S
C124 C125 1.380 . S
C124 H152 0.930 . S
C125 C124 1.380 . S
C125 C126 1.376 . S
C125 H153 0.930 . S
C126 C125 1.376 . S
C126 C127 1.370 . S
C127 C126 1.370 . S
C127 C128 1.396 . S
C127 H154 0.929 . S
C128 C123 1.373 . S
C128 C127 1.396 . S
C128 H155 0.929 . S
C129 O142 1.240 . S
C129 O143 1.289 . S
C130 O144 1.258 . S
C130 O145 1.256 . S
C131 La121 2.928 . S
C131 C132 1.503 . S
C131 O146 1.261 . S
C131 O147 1.243 . S
C132 C131 1.503 . S
C132 C133 1.394 . S
C132 C137 1.373 . S
C133 C132 1.394 . S
C133 C134 1.380 . S
C133 H156 0.930 . S
C134 C133 1.380 . S
C134 C135 1.376 . S
C134 H157 0.930 . S
C135 C134 1.376 . S
C135 C136 1.370 . S
C136 C135 1.370 . S
C136 C137 1.396 . S
C136 H158 0.929 . S
C137 C132 1.373 . S
C137 C136 1.396 . S
C137 H159 0.929 . S
C138 O148 1.240 . S
C138 O149 1.289 . S
C139 O150 1.258 . S
C139 O151 1.256 . S
O140 La120 2.521 . S
O140 C122 1.261 . S
O141 La120 2.628 . S
O141 C122 1.243 . S
O142 La120 2.554 . S
O142 C129 1.240 . S
O143 La120 2.757 . S
O143 La121 2.482 . S
O143 C129 1.289 . S
O144 La120 2.470 . S
O144 C130 1.258 . S
O145 La121 2.503 . S
O145 C130 1.256 . S
O146 La121 2.521 . S
O146 C131 1.261 . S
O147 La121 2.628 . S
O147 C131 1.243 . S
O148 La121 2.554 . S
O148 C138 1.240 . S
O149 La120 2.482 . S
O149 La121 2.757 . S
O149 C138 1.289 . S
O150 La121 2.470 . S
O150 C139 1.258 . S
O151 La120 2.503 . S
O151 C139 1.256 . S
H152 C124 0.930 . S
H153 C125 0.930 . S
H154 C127 0.929 . S
H155 C128 0.929 . S
H156 C133 0.930 . S
H157 C134 0.930 . S
H158 C136 0.929 . S
H159 C137 0.929 . S
La160 C162 2.928 . S
La160 O180 2.521 . S
La160 O181 2.628 . S
La160 O182 2.554 . S
La160 O183 2.757 . S
La160 O184 2.470 . S
La160 O189 2.482 . S
La160 O191 2.503 . S
La161 C171 2.928 . S
La161 O183 2.482 . S
La161 O185 2.503 . S
La161 O186 2.521 . S
La161 O187 2.628 . S
La161 O188 2.554 . S
La161 O189 2.757 . S
La161 O190 2.470 . S
C162 La160 2.928 . S
C162 C163 1.503 . S
C162 O180 1.261 . S
C162 O181 1.243 . S
C163 C162 1.503 . S
C163 C164 1.394 . S
C163 C168 1.373 . S
C164 C163 1.394 . S
C164 C165 1.380 . S
C164 H192 0.930 . S
C165 C164 1.380 . S
C165 C166 1.376 . S
C165 H193 0.930 . S
C166 C165 1.376 . S
C166 C167 1.370 . S
C167 C166 1.370 . S
C167 C168 1.396 . S
C167 H194 0.929 . S
C168 C163 1.373 . S
C168 C167 1.396 . S
C168 H195 0.929 . S
C169 O182 1.240 . S
C169 O183 1.289 . S
C170 O184 1.258 . S
C170 O185 1.256 . S
C171 La161 2.928 . S
C171 C172 1.503 . S
C171 O186 1.261 . S
C171 O187 1.243 . S
C172 C171 1.503 . S
C172 C173 1.394 . S
C172 C177 1.373 . S
C173 C172 1.394 . S
C173 C174 1.380 . S
C173 H196 0.930 . S
C174 C173 1.380 . S
C174 C175 1.376 . S
C174 H197 0.930 . S
C175 C174 1.376 . S
C175 C176 1.370 . S
C176 C175 1.370 . S
C176 C177 1.396 . S
C176 H198 0.929 . S
C177 C172 1.373 . S
C177 C176 1.396 . S
C177 H199 0.929 . S
C178 O188 1.240 . S
C178 O189 1.289 . S
C179 O190 1.258 . S
C179 O191 1.256 . S
O180 La160 2.521 . S
O180 C162 1.261 . S
O181 La160 2.628 . S
O181 C162 1.243 . S
O182 La160 2.554 . S
O182 C169 1.240 . S
O183 La160 2.757 . S
O183 La161 2.482 . S
O183 C169 1.289 . S
O184 La160 2.470 . S
O184 C170 1.258 . S
O185 La161 2.503 . S
O185 C170 1.256 . S
O186 La161 2.521 . S
O186 C171 1.261 . S
O187 La161 2.628 . S
O187 C171 1.243 . S
O188 La161 2.554 . S
O188 C178 1.240 . S
O189 La160 2.482 . S
O189 La161 2.757 . S
O189 C178 1.289 . S
O190 La161 2.470 . S
O190 C179 1.258 . S
O191 La160 2.503 . S
O191 C179 1.256 . S
H192 C164 0.930 . S
H193 C165 0.930 . S
H194 C167 0.929 . S
H195 C168 0.929 . S
H196 C173 0.930 . S
H197 C174 0.930 . S
H198 C176 0.929 . S
H199 C177 0.929 . S
La200 C202 2.928 . S
La200 O220 2.521 . S
La200 O221 2.628 . S
La200 O222 2.554 . S
La200 O223 2.757 . S
La200 O224 2.470 . S
La200 O229 2.482 . S
La200 O231 2.503 . S
La201 C211 2.928 . S
La201 O223 2.482 . S
La201 O225 2.503 . S
La201 O226 2.521 . S
La201 O227 2.628 . S
La201 O228 2.554 . S
La201 O229 2.757 . S
La201 O230 2.470 . S
C202 La200 2.928 . S
C202 C203 1.503 . S
C202 O220 1.261 . S
C202 O221 1.243 . S
C203 C202 1.503 . S
C203 C204 1.394 . S
C203 C208 1.373 . S
C204 C203 1.394 . S
C204 C205 1.380 . S
C204 H232 0.930 . S
C205 C204 1.380 . S
C205 C206 1.376 . S
C205 H233 0.930 . S
C206 C205 1.376 . S
C206 C207 1.370 . S
C207 C206 1.370 . S
C207 C208 1.396 . S
C207 H234 0.929 . S
C208 C203 1.373 . S
C208 C207 1.396 . S
C208 H235 0.929 . S
C209 O222 1.240 . S
C209 O223 1.289 . S
C210 O224 1.258 . S
C210 O225 1.256 . S
C211 La201 2.928 . S
C211 C212 1.503 . S
C211 O226 1.261 . S
C211 O227 1.243 . S
C212 C211 1.503 . S
C212 C213 1.394 . S
C212 C217 1.373 . S
C213 C212 1.394 . S
C213 C214 1.380 . S
C213 H236 0.930 . S
C214 C213 1.380 . S
C214 C215 1.376 . S
C214 H237 0.930 . S
C215 C214 1.376 . S
C215 C216 1.370 . S
C216 C215 1.370 . S
C216 C217 1.396 . S
C216 H238 0.929 . S
C217 C212 1.373 . S
C217 C216 1.396 . S
C217 H239 0.929 . S
C218 O228 1.240 . S
C218 O229 1.289 . S
C219 O230 1.258 . S
C219 O231 1.256 . S
O220 La200 2.521 . S
O220 C202 1.261 . S
O221 La200 2.628 . S
O221 C202 1.243 . S
O222 La200 2.554 . S
O222 C209 1.240 . S
O223 La200 2.757 . S
O223 La201 2.482 . S
O223 C209 1.289 . S
O224 La200 2.470 . S
O224 C210 1.258 . S
O225 La201 2.503 . S
O225 C210 1.256 . S
O226 La201 2.521 . S
O226 C211 1.261 . S
O227 La201 2.628 . S
O227 C211 1.243 . S
O228 La201 2.554 . S
O228 C218 1.240 . S
O229 La200 2.482 . S
O229 La201 2.757 . S
O229 C218 1.289 . S
O230 La201 2.470 . S
O230 C219 1.258 . S
O231 La200 2.503 . S
O231 C219 1.256 . S
H232 C204 0.930 . S
H233 C205 0.930 . S
H234 C207 0.929 . S
H235 C208 0.929 . S
H236 C213 0.930 . S
H237 C214 0.930 . S
H238 C216 0.929 . S
H239 C217 0.929 . S
La240 C242 2.928 . S
La240 O260 2.521 . S
La240 O261 2.628 . S
La240 O262 2.554 . S
La240 O263 2.757 . S
La240 O264 2.470 . S
La240 O269 2.482 . S
La240 O271 2.503 . S
La241 C251 2.928 . S
La241 O263 2.482 . S
La241 O265 2.503 . S
La241 O266 2.521 . S
La241 O267 2.628 . S
La241 O268 2.554 . S
La241 O269 2.757 . S
La241 O270 2.470 . S
C242 La240 2.928 . S
C242 C243 1.503 . S
C242 O260 1.261 . S
C242 O261 1.243 . S
C243 C242 1.503 . S
C243 C244 1.394 . S
C243 C248 1.373 . S
C244 C243 1.394 . S
C244 C245 1.380 1_565 S
C244 H272 0.930 . S
C245 C244 1.380 1_545 S
C245 C246 1.376 . S
C245 H273 0.930 . S
C246 C245 1.376 . S
C246 C247 1.370 1_545 S
C247 C246 1.370 1_565 S
C247 C248 1.396 . S
C247 H274 0.929 1_565 S
C248 C243 1.373 . S
C248 C247 1.396 . S
C248 H275 0.929 . S
C249 O262 1.240 . S
C249 O263 1.289 . S
C250 O264 1.258 . S
C250 O265 1.256 . S
C251 La241 2.928 . S
C251 C252 1.503 . S
C251 O266 1.261 . S
C251 O267 1.243 . S
C252 C251 1.503 . S
C252 C253 1.394 . S
C252 C257 1.373 . S
C253 C252 1.394 . S
C253 C254 1.380 . S
C253 H276 0.930 . S
C254 C253 1.380 . S
C254 C255 1.376 . S
C254 H277 0.930 . S
C255 C254 1.376 . S
C255 C256 1.370 . S
C256 C255 1.370 . S
C256 C257 1.396 . S
C256 H278 0.929 . S
C257 C252 1.373 . S
C257 C256 1.396 . S
C257 H279 0.929 . S
C258 O268 1.240 . S
C258 O269 1.289 . S
C259 O270 1.258 . S
C259 O271 1.256 . S
O260 La240 2.521 . S
O260 C242 1.261 . S
O261 La240 2.628 . S
O261 C242 1.243 . S
O262 La240 2.554 . S
O262 C249 1.240 . S
O263 La240 2.757 . S
O263 La241 2.482 . S
O263 C249 1.289 . S
O264 La240 2.470 . S
O264 C250 1.258 . S
O265 La241 2.503 . S
O265 C250 1.256 . S
O266 La241 2.521 . S
O266 C251 1.261 . S
O267 La241 2.628 . S
O267 C251 1.243 . S
O268 La241 2.554 . S
O268 C258 1.240 . S
O269 La240 2.482 . S
O269 La241 2.757 . S
O269 C258 1.289 . S
O270 La241 2.470 . S
O270 C259 1.258 . S
O271 La240 2.503 . S
O271 C259 1.256 . S
H272 C244 0.930 . S
H273 C245 0.930 . S
H274 C247 0.929 1_545 S
H275 C248 0.929 . S
H276 C253 0.930 . S
H277 C254 0.930 . S
H278 C256 0.929 . S
H279 C257 0.929 . S
La280 C282 2.928 . S
La280 O300 2.521 . S
La280 O301 2.628 . S
La280 O302 2.554 . S
La280 O303 2.757 . S
La280 O304 2.470 . S
La280 O309 2.482 . S
La280 O311 2.503 . S
La281 C291 2.928 . S
La281 O303 2.482 . S
La281 O305 2.503 . S
La281 O306 2.521 . S
La281 O307 2.628 . S
La281 O308 2.554 . S
La281 O309 2.757 . S
La281 O310 2.470 . S
C282 La280 2.928 . S
C282 C283 1.503 . S
C282 O300 1.261 . S
C282 O301 1.243 . S
C283 C282 1.503 . S
C283 C284 1.394 . S
C283 C288 1.373 . S
C284 C283 1.394 . S
C284 C285 1.380 . S
C284 H312 0.930 . S
C285 C284 1.380 . S
C285 C286 1.376 . S
C285 H313 0.930 . S
C286 C285 1.376 . S
C286 C287 1.370 . S
C287 C286 1.370 . S
C287 C288 1.396 . S
C287 H314 0.929 . S
C288 C283 1.373 . S
C288 C287 1.396 . S
C288 H315 0.929 . S
C289 O302 1.240 . S
C289 O303 1.289 . S
C290 O304 1.258 . S
C290 O305 1.256 . S
C291 La281 2.928 . S
C291 C292 1.503 . S
C291 O306 1.261 . S
C291 O307 1.243 . S
C292 C291 1.503 . S
C292 C293 1.394 . S
C292 C297 1.373 . S
C293 C292 1.394 . S
C293 C294 1.380 . S
C293 H316 0.930 . S
C294 C293 1.380 . S
C294 C295 1.376 . S
C294 H317 0.930 . S
C295 C294 1.376 . S
C295 C296 1.370 . S
C296 C295 1.370 . S
C296 C297 1.396 . S
C296 H318 0.929 . S
C297 C292 1.373 . S
C297 C296 1.396 . S
C297 H319 0.929 . S
C298 O308 1.240 . S
C298 O309 1.289 . S
C299 O310 1.258 . S
C299 O311 1.256 . S
O300 La280 2.521 . S
O300 C282 1.261 . S
O301 La280 2.628 . S
O301 C282 1.243 . S
O302 La280 2.554 . S
O302 C289 1.240 . S
O303 La280 2.757 . S
O303 La281 2.482 . S
O303 C289 1.289 . S
O304 La280 2.470 . S
O304 C290 1.258 . S
O305 La281 2.503 . S
O305 C290 1.256 . S
O306 La281 2.521 . S
O306 C291 1.261 . S
O307 La281 2.628 . S
O307 C291 1.243 . S
O308 La281 2.554 . S
O308 C298 1.240 . S
O309 La280 2.482 . S
O309 La281 2.757 . S
O309 C298 1.289 . S
O310 La281 2.470 . S
O310 C299 1.258 . S
O311 La280 2.503 . S
O311 C299 1.256 . S
H312 C284 0.930 . S
H313 C285 0.930 . S
H314 C287 0.929 . S
H315 C288 0.929 . S
H316 C293 0.930 . S
H317 C294 0.930 . S
H318 C296 0.929 . S
H319 C297 0.929 . S
La320 C322 2.928 . S
La320 O340 2.521 . S
La320 O341 2.628 . S
La320 O342 2.554 . S
La320 O343 2.757 . S
La320 O344 2.470 . S
La320 O349 2.482 . S
La320 O351 2.503 . S
La321 C331 2.928 . S
La321 O343 2.482 . S
La321 O345 2.503 . S
La321 O346 2.521 . S
La321 O347 2.628 . S
La321 O348 2.554 . S
La321 O349 2.757 . S
La321 O350 2.470 . S
C322 La320 2.928 . S
C322 C323 1.503 . S
C322 O340 1.261 . S
C322 O341 1.243 . S
C323 C322 1.503 . S
C323 C324 1.394 . S
C323 C328 1.373 . S
C324 C323 1.394 . S
C324 C325 1.380 . S
C324 H352 0.930 . S
C325 C324 1.380 . S
C325 C326 1.376 . S
C325 H353 0.930 . S
C326 C325 1.376 . S
C326 C327 1.370 . S
C327 C326 1.370 . S
C327 C328 1.396 . S
C327 H354 0.929 . S
C328 C323 1.373 . S
C328 C327 1.396 . S
C328 H355 0.929 . S
C329 O342 1.240 . S
C329 O343 1.289 . S
C330 O344 1.258 . S
C330 O345 1.256 . S
C331 La321 2.928 . S
C331 C332 1.503 . S
C331 O346 1.261 . S
C331 O347 1.243 . S
C332 C331 1.503 . S
C332 C333 1.394 . S
C332 C337 1.373 . S
C333 C332 1.394 . S
C333 C334 1.380 . S
C333 H356 0.930 . S
C334 C333 1.380 . S
C334 C335 1.376 . S
C334 H357 0.930 . S
C335 C334 1.376 . S
C335 C336 1.370 . S
C336 C335 1.370 . S
C336 C337 1.396 . S
C336 H358 0.929 . S
C337 C332 1.373 . S
C337 C336 1.396 . S
C337 H359 0.929 . S
C338 O348 1.240 . S
C338 O349 1.289 . S
C339 O350 1.258 . S
C339 O351 1.256 . S
O340 La320 2.521 . S
O340 C322 1.261 . S
O341 La320 2.628 . S
O341 C322 1.243 . S
O342 La320 2.554 . S
O342 C329 1.240 . S
O343 La320 2.757 . S
O343 La321 2.482 . S
O343 C329 1.289 . S
O344 La320 2.470 . S
O344 C330 1.258 . S
O345 La321 2.503 . S
O345 C330 1.256 . S
O346 La321 2.521 . S
O346 C331 1.261 . S
O347 La321 2.628 . S
O347 C331 1.243 . S
O348 La321 2.554 . S
O348 C338 1.240 . S
O349 La320 2.482 . S
O349 La321 2.757 . S
O349 C338 1.289 . S
O350 La321 2.470 . S
O350 C339 1.258 . S
O351 La320 2.503 . S
O351 C339 1.256 . S
H352 C324 0.930 . S
H353 C325 0.930 . S
H354 C327 0.929 . S
H355 C328 0.929 . S
H356 C333 0.930 . S
H357 C334 0.930 . S
H358 C336 0.929 . S
H359 C337 0.929 . S
C360 C361 1.363 . S
C360 C366 1.379 . S
C360 N368 1.356 . S
C361 C360 1.363 . S
C361 C367 1.363 . S
C362 C363 1.363 . S
C362 C367 1.379 . S
C362 N369 1.356 . S
C363 C362 1.363 . S
C363 C366 1.363 . S
N364 C366 1.356 . S
N364 H376 0.984 . S
N364 H377 0.985 . S
N365 C367 1.356 . S
N365 H370 0.984 . S
N365 H371 0.985 . S
C366 C360 1.379 . S
C366 C363 1.363 . S
C366 N364 1.356 . S
C367 C361 1.363 . S
C367 C362 1.379 . S
C367 N365 1.356 . S
N368 C360 1.356 . S
N368 H374 0.984 . S
N368 H375 0.984 . S
N369 C362 1.356 . S
N369 H372 0.984 . S
N369 H373 0.985 . S
H370 N365 0.984 . S
H371 N365 0.985 . S
H372 N369 0.984 . S
H373 N369 0.985 . S
H374 N368 0.984 . S
H375 N368 0.984 . S
H376 N364 0.984 . S
H377 N364 0.985 . S
C378 C379 1.363 . S
C378 C384 1.379 . S
C378 N386 1.356 . S
C379 C378 1.363 . S
C379 C385 1.363 . S
C380 C381 1.363 . S
C380 C385 1.379 . S
C380 N387 1.356 . S
C381 C380 1.363 . S
C381 C384 1.363 . S
N382 C384 1.356 . S
N382 H394 0.984 . S
N382 H395 0.985 . S
N383 C385 1.356 . S
N383 H388 0.984 . S
N383 H389 0.985 . S
C384 C378 1.379 . S
C384 C381 1.363 . S
C384 N382 1.356 . S
C385 C379 1.363 . S
C385 C380 1.379 . S
C385 N383 1.356 . S
N386 C378 1.356 . S
N386 H392 0.984 . S
N386 H393 0.984 . S
N387 C380 1.356 . S
N387 H390 0.984 . S
N387 H391 0.985 . S
H388 N383 0.984 . S
H389 N383 0.985 . S
H390 N387 0.984 . S
H391 N387 0.985 . S
H392 N386 0.984 . S
H393 N386 0.984 . S
H394 N382 0.984 . S
H395 N382 0.985 . S
C396 C397 1.363 . S
C396 C402 1.379 . S
C396 N404 1.356 . S
C397 C396 1.363 . S
C397 C403 1.363 . S
C398 C399 1.363 . S
C398 C403 1.379 . S
C398 N405 1.356 . S
C399 C398 1.363 . S
C399 C402 1.363 . S
N400 C402 1.356 . S
N400 H412 0.984 . S
N400 H413 0.985 . S
N401 C403 1.356 . S
N401 H406 0.984 . S
N401 H407 0.985 . S
C402 C396 1.379 . S
C402 C399 1.363 . S
C402 N400 1.356 . S
C403 C397 1.363 . S
C403 C398 1.379 . S
C403 N401 1.356 . S
N404 C396 1.356 . S
N404 H410 0.984 . S
N404 H411 0.984 . S
N405 C398 1.356 . S
N405 H408 0.984 . S
N405 H409 0.985 . S
H406 N401 0.984 . S
H407 N401 0.985 . S
H408 N405 0.984 . S
H409 N405 0.985 . S
H410 N404 0.984 . S
H411 N404 0.984 . S
H412 N400 0.984 . S
H413 N400 0.985 . S
C414 C415 1.363 . S
C414 C420 1.379 . S
C414 N422 1.356 . S
C415 C414 1.363 . S
C415 C421 1.363 . S
C416 C417 1.363 . S
C416 C421 1.379 . S
C416 N423 1.356 1_554 S
C417 C416 1.363 . S
C417 C420 1.363 . S
N418 C420 1.356 . S
N418 H430 0.984 1_545 S
N418 H431 0.985 . S
N419 C421 1.356 . S
N419 H424 0.984 . S
N419 H425 0.985 . S
C420 C414 1.379 . S
C420 C417 1.363 . S
C420 N418 1.356 . S
C421 C415 1.363 . S
C421 C416 1.379 . S
C421 N419 1.356 . S
N422 C414 1.356 . S
N422 H428 0.984 . S
N422 H429 0.984 . S
N423 C416 1.356 1_556 S
N423 H426 0.984 . S
N423 H427 0.985 . S
H424 N419 0.984 . S
H425 N419 0.985 . S
H426 N423 0.984 . S
H427 N423 0.985 . S
H428 N422 0.984 . S
H429 N422 0.984 . S
H430 N418 0.984 1_565 S
H431 N418 0.985 . S
C432 C433 1.363 . S
C432 C438 1.379 . S
C432 N440 1.356 . S
C433 C432 1.363 . S
C433 C439 1.363 . S
C434 C435 1.363 . S
C434 C439 1.379 . S
C434 N441 1.356 1_554 S
C435 C434 1.363 . S
C435 C438 1.363 . S
N436 C438 1.356 . S
N436 H448 0.984 . S
N436 H449 0.985 . S
N437 C439 1.356 . S
N437 H442 0.984 . S
N437 H443 0.985 1_554 S
C438 C432 1.379 . S
C438 C435 1.363 . S
C438 N436 1.356 . S
C439 C433 1.363 . S
C439 C434 1.379 . S
C439 N437 1.356 . S
N440 C432 1.356 . S
N440 H446 0.984 . S
N440 H447 0.984 . S
N441 C434 1.356 1_556 S
N441 H444 0.984 . S
N441 H445 0.985 . S
H442 N437 0.984 . S
H443 N437 0.985 1_556 S
H444 N441 0.984 . S
H445 N441 0.985 . S
H446 N440 0.984 . S
H447 N440 0.984 . S
H448 N436 0.984 . S
H449 N436 0.985 . S
C450 C451 1.363 . S
C450 C456 1.379 . S
C450 N458 1.356 . S
C451 C450 1.363 . S
C451 C457 1.363 . S
C452 C453 1.363 . S
C452 C457 1.379 . S
C452 N459 1.356 . S
C453 C452 1.363 . S
C453 C456 1.363 . S
N454 C456 1.356 . S
N454 H466 0.984 . S
N454 H467 0.985 . S
N455 C457 1.356 1_556 S
N455 H460 0.984 . S
N455 H461 0.985 . S
C456 C450 1.379 . S
C456 C453 1.363 . S
C456 N454 1.356 . S
C457 C451 1.363 . S
C457 C452 1.379 . S
C457 N455 1.356 1_554 S
N458 C450 1.356 . S
N458 H464 0.984 . S
N458 H465 0.984 . S
N459 C452 1.356 . S
N459 H462 0.984 . S
N459 H463 0.985 . S
H460 N455 0.984 . S
H461 N455 0.985 . S
H462 N459 0.984 . S
H463 N459 0.985 . S
H464 N458 0.984 . S
H465 N458 0.984 . S
H466 N454 0.984 . S
H467 N454 0.985 . S
C468 C469 1.363 . S
C468 C474 1.379 . S
C468 N476 1.356 . S
C469 C468 1.363 . S
C469 C475 1.363 . S
C470 C471 1.363 . S
C470 C475 1.379 . S
C470 N477 1.356 . S
C471 C470 1.363 . S
C471 C474 1.363 . S
N472 C474 1.356 . S
N472 H484 0.984 . S
N472 H485 0.985 . S
N473 C475 1.356 . S
N473 H478 0.984 . S
N473 H479 0.985 . S
C474 C468 1.379 . S
C474 C471 1.363 . S
C474 N472 1.356 . S
C475 C469 1.363 . S
C475 C470 1.379 . S
C475 N473 1.356 . S
N476 C468 1.356 . S
N476 H482 0.984 . S
N476 H483 0.984 . S
N477 C470 1.356 . S
N477 H480 0.984 . S
N477 H481 0.985 . S
H478 N473 0.984 . S
H479 N473 0.985 . S
H480 N477 0.984 . S
H481 N477 0.985 . S
H482 N476 0.984 . S
H483 N476 0.984 . S
H484 N472 0.984 . S
H485 N472 0.985 . S
C486 C487 1.363 . S
C486 C492 1.379 . S
C486 N494 1.356 . S
C487 C486 1.363 . S
C487 C493 1.363 . S
C488 C489 1.363 . S
C488 C493 1.379 . S
C488 N495 1.356 . S
C489 C488 1.363 . S
C489 C492 1.363 . S
N490 C492 1.356 . S
N490 H502 0.984 . S
N490 H503 0.985 . S
N491 C493 1.356 . S
N491 H496 0.984 . S
N491 H497 0.985 . S
C492 C486 1.379 . S
C492 C489 1.363 . S
C492 N490 1.356 . S
C493 C487 1.363 . S
C493 C488 1.379 . S
C493 N491 1.356 . S
N494 C486 1.356 . S
N494 H500 0.984 . S
N494 H501 0.984 . S
N495 C488 1.356 . S
N495 H498 0.984 . S
N495 H499 0.985 . S
H496 N491 0.984 . S
H497 N491 0.985 . S
H498 N495 0.984 . S
H499 N495 0.985 . S
H500 N494 0.984 . S
H501 N494 0.984 . S
H502 N490 0.984 . S
H503 N490 0.985 . S
C504 C505 1.363 . S
C504 C510 1.379 . S
C504 N512 1.356 . S
C505 C504 1.363 . S
C505 C511 1.363 . S
C506 C507 1.363 . S
C506 C511 1.379 . S
C506 N513 1.356 . S
C507 C506 1.363 . S
C507 C510 1.363 . S
N508 C510 1.356 . S
N508 H520 0.984 . S
N508 H521 0.985 . S
N509 C511 1.356 . S
N509 H514 0.984 . S
N509 H515 0.985 . S
C510 C504 1.379 . S
C510 C507 1.363 . S
C510 N508 1.356 . S
C511 C505 1.363 . S
C511 C506 1.379 . S
C511 N509 1.356 . S
N512 C504 1.356 . S
N512 H518 0.984 . S
N512 H519 0.984 . S
N513 C506 1.356 . S
N513 H516 0.984 . S
N513 H517 0.985 . S
H514 N509 0.984 . S
H515 N509 0.985 . S
H516 N513 0.984 . S
H517 N513 0.985 . S
H518 N512 0.984 . S
H519 N512 0.984 . S
H520 N508 0.984 . S
H521 N508 0.985 . S
C522 C523 1.363 . S
C522 C528 1.379 . S
C522 N530 1.356 . S
C523 C522 1.363 . S
C523 C529 1.363 1_554 S
C524 C525 1.363 1_556 S
C524 C529 1.379 . S
C524 N531 1.356 . S
C525 C524 1.363 1_554 S
C525 C528 1.363 . S
N526 C528 1.356 . S
N526 H538 0.984 . S
N526 H539 0.985 . S
N527 C529 1.356 . S
N527 H532 0.984 . S
N527 H533 0.985 . S
C528 C522 1.379 . S
C528 C525 1.363 . S
C528 N526 1.356 . S
C529 C523 1.363 1_556 S
C529 C524 1.379 . S
C529 N527 1.356 . S
N530 C522 1.356 . S
N530 H536 0.984 . S
N530 H537 0.984 . S
N531 C524 1.356 . S
N531 H534 0.984 . S
N531 H535 0.985 . S
H532 N527 0.984 . S
H533 N527 0.985 . S
H534 N531 0.984 . S
H535 N531 0.985 . S
H536 N530 0.984 . S
H537 N530 0.984 . S
H538 N526 0.984 . S
H539 N526 0.985 . S
C540 C541 1.363 1_556 S
C540 C546 1.379 . S
C540 N548 1.356 . S
C541 C540 1.363 1_554 S
C541 C547 1.363 . S
C542 C543 1.363 . S
C542 C547 1.379 . S
C542 N549 1.356 . S
C543 C542 1.363 . S
C543 C546 1.363 1_554 S
N544 C546 1.356 . S
N544 H556 0.984 . S
N544 H557 0.985 1_565 S
N545 C547 1.356 . S
N545 H550 0.984 . S
N545 H551 0.985 . S
C546 C540 1.379 . S
C546 C543 1.363 1_556 S
C546 N544 1.356 . S
C547 C541 1.363 . S
C547 C542 1.379 . S
C547 N545 1.356 . S
N548 C540 1.356 . S
N548 H554 0.984 . S
N548 H555 0.984 . S
N549 C542 1.356 . S
N549 H552 0.984 1_565 S
N549 H553 0.985 . S
H550 N545 0.984 . S
H551 N545 0.985 . S
H552 N549 0.984 1_545 S
H553 N549 0.985 . S
H554 N548 0.984 . S
H555 N548 0.984 . S
H556 N544 0.984 . S
H557 N544 0.985 1_545 S
C558 C559 1.363 1_556 S
C558 C564 1.379 . S
C558 N566 1.356 . S
C559 C558 1.363 1_554 S
C559 C565 1.363 . S
C560 C561 1.363 . S
C560 C565 1.379 . S
C560 N567 1.356 1_565 S
C561 C560 1.363 . S
C561 C564 1.363 1_554 S
N562 C564 1.356 . S
N562 H574 0.984 . S
N562 H575 0.985 . S
N563 C565 1.356 . S
N563 H568 0.984 . S
N563 H569 0.985 . S
C564 C558 1.379 . S
C564 C561 1.363 1_556 S
C564 N562 1.356 . S
C565 C559 1.363 . S
C565 C560 1.379 . S
C565 N563 1.356 . S
N566 C558 1.356 . S
N566 H572 0.984 . S
N566 H573 0.984 . S
N567 C560 1.356 1_545 S
N567 H570 0.984 . S
N567 H571 0.985 . S
H568 N563 0.984 . S
H569 N563 0.985 . S
H570 N567 0.984 . S
H571 N567 0.985 . S
H572 N566 0.984 . S
H573 N566 0.984 . S
H574 N562 0.984 . S
H575 N562 0.985 . S
C576 C577 1.363 . S
C576 C582 1.379 . S
C576 N584 1.356 . S
C577 C576 1.363 . S
C577 C583 1.363 . S
C578 C579 1.363 . S
C578 C583 1.379 . S
C578 N585 1.356 . S
C579 C578 1.363 . S
C579 C582 1.363 . S
N580 C582 1.356 . S
N580 H592 0.984 . S
N580 H593 0.985 . S
N581 C583 1.356 . S
N581 H586 0.984 . S
N581 H587 0.985 . S
C582 C576 1.379 . S
C582 C579 1.363 . S
C582 N580 1.356 . S
C583 C577 1.363 . S
C583 C578 1.379 . S
C583 N581 1.356 . S
N584 C576 1.356 . S
N584 H590 0.984 . S
N584 H591 0.984 . S
N585 C578 1.356 . S
N585 H588 0.984 . S
N585 H589 0.985 . S
H586 N581 0.984 . S
H587 N581 0.985 . S
H588 N585 0.984 . S
H589 N585 0.985 . S
H590 N584 0.984 . S
H591 N584 0.984 . S
H592 N580 0.984 . S
H593 N580 0.985 . S
C594 C595 1.363 . S
C594 C600 1.379 . S
C594 N602 1.356 . S
C595 C594 1.363 . S
C595 C601 1.363 . S
C596 C597 1.363 . S
C596 C601 1.379 . S
C596 N603 1.356 . S
C597 C596 1.363 . S
C597 C600 1.363 . S
N598 C600 1.356 . S
N598 H610 0.984 . S
N598 H611 0.985 . S
N599 C601 1.356 . S
N599 H604 0.984 . S
N599 H605 0.985 . S
C600 C594 1.379 . S
C600 C597 1.363 . S
C600 N598 1.356 . S
C601 C595 1.363 . S
C601 C596 1.379 . S
C601 N599 1.356 . S
N602 C594 1.356 . S
N602 H608 0.984 . S
N602 H609 0.984 . S
N603 C596 1.356 . S
N603 H606 0.984 . S
N603 H607 0.985 . S
H604 N599 0.984 . S
H605 N599 0.985 . S
H606 N603 0.984 . S
H607 N603 0.985 . S
H608 N602 0.984 . S
H609 N602 0.984 . S
H610 N598 0.984 . S
H611 N598 0.985 . S
C612 C613 1.363 . S
C612 C618 1.379 . S
C612 N620 1.356 . S
C613 C612 1.363 . S
C613 C619 1.363 . S
C614 C615 1.363 . S
C614 C619 1.379 . S
C614 N621 1.356 . S
C615 C614 1.363 . S
C615 C618 1.363 . S
N616 C618 1.356 . S
N616 H628 0.984 . S
N616 H629 0.985 . S
N617 C619 1.356 . S
N617 H622 0.984 . S
N617 H623 0.985 . S
C618 C612 1.379 . S
C618 C615 1.363 . S
C618 N616 1.356 . S
C619 C613 1.363 . S
C619 C614 1.379 . S
C619 N617 1.356 . S
N620 C612 1.356 . S
N620 H626 0.984 . S
N620 H627 0.984 . S
N621 C614 1.356 . S
N621 H624 0.984 . S
N621 H625 0.985 . S
H622 N617 0.984 . S
H623 N617 0.985 . S
H624 N621 0.984 . S
H625 N621 0.985 . S
H626 N620 0.984 . S
H627 N620 0.984 . S
H628 N616 0.984 . S
H629 N616 0.985 . S
C630 C631 1.363 . S
C630 C636 1.379 . S
C630 N638 1.356 . S
C631 C630 1.363 . S
C631 C637 1.363 . S
C632 C633 1.363 . S
C632 C637 1.379 . S
C632 N639 1.356 . S
C633 C632 1.363 . S
C633 C636 1.363 . S
N634 C636 1.356 . S
N634 H646 0.984 . S
N634 H647 0.985 . S
N635 C637 1.356 . S
N635 H640 0.984 . S
N635 H641 0.985 . S
C636 C630 1.379 . S
C636 C633 1.363 . S
C636 N634 1.356 . S
C637 C631 1.363 . S
C637 C632 1.379 . S
C637 N635 1.356 . S
N638 C630 1.356 . S
N638 H644 0.984 . S
N638 H645 0.984 . S
N639 C632 1.356 . S
N639 H642 0.984 . S
N639 H643 0.985 . S
H640 N635 0.984 . S
H641 N635 0.985 . S
H642 N639 0.984 . S
H643 N639 0.985 . S
H644 N638 0.984 . S
H645 N638 0.984 . S
H646 N634 0.984 . S
H647 N634 0.985 . S
C648 C649 1.363 . S
C648 C654 1.379 . S
C648 N656 1.356 . S
C649 C648 1.363 . S
C649 C655 1.363 . S
C650 C651 1.363 . S
C650 C655 1.379 . S
C650 N657 1.356 . S
C651 C650 1.363 . S
C651 C654 1.363 . S
N652 C654 1.356 . S
N652 H664 0.984 . S
N652 H665 0.985 . S
N653 C655 1.356 . S
N653 H658 0.984 . S
N653 H659 0.985 . S
C654 C648 1.379 . S
C654 C651 1.363 . S
C654 N652 1.356 . S
C655 C649 1.363 . S
C655 C650 1.379 . S
C655 N653 1.356 . S
N656 C648 1.356 . S
N656 H662 0.984 . S
N656 H663 0.984 . S
N657 C650 1.356 . S
N657 H660 0.984 . S
N657 H661 0.985 1_556 S
H658 N653 0.984 . S
H659 N653 0.985 . S
H660 N657 0.984 . S
H661 N657 0.985 1_554 S
H662 N656 0.984 . S
H663 N656 0.984 . S
H664 N652 0.984 . S
H665 N652 0.985 . S
C666 C667 1.363 . S
C666 C672 1.379 . S
C666 N674 1.356 . S
C667 C666 1.363 . S
C667 C673 1.363 . S
C668 C669 1.363 . S
C668 C673 1.379 . S
C668 N675 1.356 . S
C669 C668 1.363 . S
C669 C672 1.363 . S
N670 C672 1.356 . S
N670 H682 0.984 . S
N670 H683 0.985 . S
N671 C673 1.356 . S
N671 H676 0.984 . S
N671 H677 0.985 . S
C672 C666 1.379 . S
C672 C669 1.363 . S
C672 N670 1.356 . S
C673 C667 1.363 . S
C673 C668 1.379 . S
C673 N671 1.356 . S
N674 C666 1.356 . S
N674 H680 0.984 . S
N674 H681 0.984 . S
N675 C668 1.356 . S
N675 H678 0.984 . S
N675 H679 0.985 1_556 S
H676 N671 0.984 . S
H677 N671 0.985 . S
H678 N675 0.984 . S
H679 N675 0.985 1_554 S
H680 N674 0.984 . S
H681 N674 0.984 . S
H682 N670 0.984 . S
H683 N670 0.985 . S
C684 C685 1.363 . S
C684 C690 1.379 . S
C684 N692 1.356 . S
C685 C684 1.363 . S
C685 C691 1.363 . S
C686 C687 1.363 . S
C686 C691 1.379 . S
C686 N693 1.356 . S
C687 C686 1.363 . S
C687 C690 1.363 . S
N688 C690 1.356 . S
N688 H700 0.984 . S
N688 H701 0.985 . S
N689 C691 1.356 . S
N689 H694 0.984 . S
N689 H695 0.985 . S
C690 C684 1.379 . S
C690 C687 1.363 . S
C690 N688 1.356 . S
C691 C685 1.363 . S
C691 C686 1.379 . S
C691 N689 1.356 . S
N692 C684 1.356 . S
N692 H698 0.984 . S
N692 H699 0.984 . S
N693 C686 1.356 . S
N693 H696 0.984 . S
N693 H697 0.985 . S
H694 N689 0.984 . S
H695 N689 0.985 . S
H696 N693 0.984 . S
H697 N693 0.985 . S
H698 N692 0.984 . S
H699 N692 0.984 . S
H700 N688 0.984 . S
H701 N688 0.985 . S
C702 C703 1.363 . S
C702 C708 1.379 . S
C702 N710 1.356 . S
C703 C702 1.363 . S
C703 C709 1.363 . S
C704 C705 1.363 . S
C704 C709 1.379 . S
C704 N711 1.356 . S
C705 C704 1.363 . S
C705 C708 1.363 . S
N706 C708 1.356 . S
N706 H718 0.984 . S
N706 H719 0.985 . S
N707 C709 1.356 . S
N707 H712 0.984 . S
N707 H713 0.985 . S
C708 C702 1.379 . S
C708 C705 1.363 . S
C708 N706 1.356 . S
C709 C703 1.363 . S
C709 C704 1.379 . S
C709 N707 1.356 . S
N710 C702 1.356 . S
N710 H716 0.984 . S
N710 H717 0.984 . S
N711 C704 1.356 . S
N711 H714 0.984 . S
N711 H715 0.985 . S
H712 N707 0.984 . S
H713 N707 0.985 . S
H714 N711 0.984 . S
H715 N711 0.985 . S
H716 N710 0.984 . S
H717 N710 0.984 . S
H718 N706 0.984 . S
H719 N706 0.985 . S
C720 C721 1.363 . S
C720 C726 1.379 . S
C720 N728 1.356 . S
C721 C720 1.363 . S
C721 C727 1.363 1_545 S
C722 C723 1.363 1_565 S
C722 C727 1.379 . S
C722 N729 1.356 . S
C723 C722 1.363 1_545 S
C723 C726 1.363 . S
N724 C726 1.356 . S
N724 H736 0.984 . S
N724 H737 0.985 . S
N725 C727 1.356 . S
N725 H730 0.984 . S
N725 H731 0.985 . S
C726 C720 1.379 . S
C726 C723 1.363 . S
C726 N724 1.356 . S
C727 C721 1.363 1_565 S
C727 C722 1.379 . S
C727 N725 1.356 . S
N728 C720 1.356 . S
N728 H734 0.984 . S
N728 H735 0.984 . S
N729 C722 1.356 . S
N729 H732 0.984 . S
N729 H733 0.985 . S
H730 N725 0.984 . S
H731 N725 0.985 . S
H732 N729 0.984 . S
H733 N729 0.985 . S
H734 N728 0.984 . S
H735 N728 0.984 . S
H736 N724 0.984 . S
H737 N724 0.985 . S
C738 C739 1.363 . S
C738 C744 1.379 . S
C738 N746 1.356 . S
C739 C738 1.363 . S
C739 C745 1.363 . S
C740 C741 1.363 . S
C740 C745 1.379 . S
C740 N747 1.356 1_556 S
C741 C740 1.363 . S
C741 C744 1.363 . S
N742 C744 1.356 . S
N742 H754 0.984 . S
N742 H755 0.985 1_556 S
N743 C745 1.356 . S
N743 H748 0.984 . S
N743 H749 0.985 . S
C744 C738 1.379 . S
C744 C741 1.363 . S
C744 N742 1.356 . S
C745 C739 1.363 . S
C745 C740 1.379 . S
C745 N743 1.356 . S
N746 C738 1.356 . S
N746 H752 0.984 . S
N746 H753 0.984 . S
N747 C740 1.356 1_554 S
N747 H750 0.984 . S
N747 H751 0.985 1_554 S
H748 N743 0.984 . S
H749 N743 0.985 . S
H750 N747 0.984 . S
H751 N747 0.985 1_556 S
H752 N746 0.984 . S
H753 N746 0.984 . S
H754 N742 0.984 . S
H755 N742 0.985 1_554 S
C756 C757 1.363 . S
C756 C762 1.379 . S
C756 N764 1.356 . S
C757 C756 1.363 . S
C757 C763 1.363 . S
C758 C759 1.363 . S
C758 C763 1.379 . S
C758 N765 1.356 1_556 S
C759 C758 1.363 . S
C759 C762 1.363 . S
N760 C762 1.356 . S
N760 H772 0.984 . S
N760 H773 0.985 1_556 S
N761 C763 1.356 . S
N761 H766 0.984 . S
N761 H767 0.985 . S
C762 C756 1.379 . S
C762 C759 1.363 . S
C762 N760 1.356 . S
C763 C757 1.363 . S
C763 C758 1.379 . S
C763 N761 1.356 . S
N764 C756 1.356 . S
N764 H770 0.984 . S
N764 H771 0.984 . S
N765 C758 1.356 1_554 S
N765 H768 0.984 . S
N765 H769 0.985 . S
H766 N761 0.984 . S
H767 N761 0.985 . S
H768 N765 0.984 . S
H769 N765 0.985 . S
H770 N764 0.984 . S
H771 N764 0.984 . S
H772 N760 0.984 . S
H773 N760 0.985 1_554 S
C774 C775 1.363 . S
C774 C780 1.379 . S
C774 N782 1.356 . S
C775 C774 1.363 . S
C775 C781 1.363 . S
C776 C777 1.363 . S
C776 C781 1.379 . S
C776 N783 1.356 . S
C777 C776 1.363 . S
C777 C780 1.363 . S
N778 C780 1.356 1_554 S
N778 H790 0.984 . S
N778 H791 0.985 . S
N779 C781 1.356 . S
N779 H784 0.984 . S
N779 H785 0.985 . S
C780 C774 1.379 . S
C780 C777 1.363 . S
C780 N778 1.356 1_556 S
C781 C775 1.363 . S
C781 C776 1.379 . S
C781 N779 1.356 . S
N782 C774 1.356 . S
N782 H788 0.984 . S
N782 H789 0.984 . S
N783 C776 1.356 . S
N783 H786 0.984 1_556 S
N783 H787 0.985 . S
H784 N779 0.984 . S
H785 N779 0.985 . S
H786 N783 0.984 1_554 S
H787 N783 0.985 . S
H788 N782 0.984 . S
H789 N782 0.984 . S
H790 N778 0.984 . S
H791 N778 0.985 . S
C792 C793 1.363 . S
C792 C798 1.379 . S
C792 N800 1.356 . S
C793 C792 1.363 . S
C793 C799 1.363 . S
C794 C795 1.363 . S
C794 C799 1.379 . S
C794 N801 1.356 . S
C795 C794 1.363 . S
C795 C798 1.363 . S
N796 C798 1.356 1_556 S
N796 H808 0.984 1_556 S
N796 H809 0.985 . S
N797 C799 1.356 . S
N797 H802 0.984 . S
N797 H803 0.985 . S
C798 C792 1.379 . S
C798 C795 1.363 . S
C798 N796 1.356 1_554 S
C799 C793 1.363 . S
C799 C794 1.379 . S
C799 N797 1.356 . S
N800 C792 1.356 . S
N800 H806 0.984 . S
N800 H807 0.984 . S
N801 C794 1.356 . S
N801 H804 0.984 1_554 S
N801 H805 0.985 . S
H802 N797 0.984 . S
H803 N797 0.985 . S
H804 N801 0.984 1_556 S
H805 N801 0.985 . S
H806 N800 0.984 . S
H807 N800 0.984 . S
H808 N796 0.984 1_554 S
H809 N796 0.985 . S
C810 C811 1.363 . S
C810 C816 1.379 . S
C810 N818 1.356 . S
C811 C810 1.363 . S
C811 C817 1.363 . S
C812 C813 1.363 . S
C812 C817 1.379 . S
C812 N819 1.356 . S
C813 C812 1.363 . S
C813 C816 1.363 . S
N814 C816 1.356 . S
N814 H826 0.984 . S
N814 H827 0.985 . S
N815 C817 1.356 1_556 S
N815 H820 0.984 . S
N815 H821 0.986 . S
C816 C810 1.379 . S
C816 C813 1.363 . S
C816 N814 1.356 . S
C817 C811 1.363 . S
C817 C812 1.379 . S
C817 N815 1.356 1_554 S
N818 C810 1.356 . S
N818 H824 0.984 . S
N818 H825 0.984 1_554 S
N819 C812 1.356 . S
N819 H822 0.984 . S
N819 H823 0.985 . S
H820 N815 0.984 . S
H821 N815 0.986 . S
H822 N819 0.984 . S
H823 N819 0.985 . S
H824 N818 0.984 . S
H825 N818 0.984 1_556 S
H826 N814 0.984 . S
H827 N814 0.985 . S
C828 C829 1.363 . S
C828 C834 1.379 . S
C828 N836 1.356 . S
C829 C828 1.363 . S
C829 C835 1.363 . S
C830 C831 1.363 . S
C830 C835 1.379 . S
C830 N837 1.356 . S
C831 C830 1.363 . S
C831 C834 1.363 . S
N832 C834 1.356 . S
N832 H844 0.984 . S
N832 H845 0.985 1_554 S
N833 C835 1.356 . S
N833 H838 0.984 . S
N833 H839 0.985 . S
C834 C828 1.379 . S
C834 C831 1.363 . S
C834 N832 1.356 . S
C835 C829 1.363 . S
C835 C830 1.379 . S
C835 N833 1.356 . S
N836 C828 1.356 . S
N836 H842 0.984 . S
N836 H843 0.984 . S
N837 C830 1.356 . S
N837 H840 0.984 1_554 S
N837 H841 0.985 . S
H838 N833 0.984 . S
H839 N833 0.985 . S
H840 N837 0.984 1_556 S
H841 N837 0.985 . S
H842 N836 0.984 . S
H843 N836 0.984 . S
H844 N832 0.984 . S
H845 N832 0.985 1_556 S
C361 C6 1.859 . S
C363 C290 1.763 . S
C379 C46 1.859 . S
C381 C330 1.763 . S
C397 C86 1.859 . S
C399 C250 1.763 . S
C415 C166 1.859 . S
C417 C90 1.763 . S
C433 C206 1.859 . S
C435 C10 1.764 . S
C451 C50 1.764 . S
C453 C126 1.859 . S
C469 C286 1.859 1_655 S
C471 C210 1.763 . S
C487 C326 1.859 . S
C489 C130 1.763 . S
C505 C170 1.763 . S
C507 C246 1.859 . S
C523 C95 1.649 . S
C525 C19 1.660 1_554 S
C541 C59 1.660 1_554 S
C543 C15 1.648 1_565 S
C559 C55 1.648 . S
C561 C99 1.660 1_554 S
C577 C139 1.661 . S
C579 C215 1.649 . S
C595 C135 1.648 . S
C597 C179 1.660 . S
C613 C175 1.648 . S
C615 C219 1.660 . S
C631 C335 1.648 . S
C633 C259 1.660 . S
C649 C299 1.660 . S
C651 C255 1.648 . S
C667 C339 1.660 . S
C669 C295 1.648 . S
C685 C18 1.109 . S
C687 C9 1.109 . S
C703 C58 1.109 . S
C705 C49 1.109 . S
C721 C98 1.109 . S
C723 C89 1.109 . S
C739 C129 1.109 . S
C741 C138 1.109 1_556 S
C757 C169 1.109 . S
C759 C178 1.109 1_556 S
C775 C209 1.109 . S
C777 C218 1.109 1_556 S
C793 C258 1.109 . S
C795 C249 1.109 1_554 S
C811 C289 1.109 1_554 S
C813 C298 1.109 . S
C829 C338 1.109 . S
C831 C329 1.109 1_554 S
