# Generated by pormake.
# Topology vba, (4)-cn, num edge types: 1
# Building blocks:
#     Node 0, Type 0, BuildingBlock: GALJAG_clean_sbu_0, # of connection points: 4
#     Node 1, Type 0, BuildingBlock: GALJAG_clean_sbu_0, # of connection points: 4
#     Node 2, Type 0, BuildingBlock: GALJAG_clean_sbu_0, # of connection points: 4
#     Node 3, Type 0, BuildingBlock: GALJAG_clean_sbu_0, # of connection points: 4
#     Node 4, Type 0, BuildingBlock: GALJAG_clean_sbu_0, # of connection points: 4
#     Node 5, Type 0, BuildingBlock: GALJAG_clean_sbu_0, # of connection points: 4
#     Node 6, Type 0, BuildingBlock: GALJAG_clean_sbu_0, # of connection points: 4
#     Node 7, Type 0, BuildingBlock: GALJAG_clean_sbu_0, # of connection points: 4
#     Node 8, Type 0, BuildingBlock: GALJAG_clean_sbu_0, # of connection points: 4
#     Node 9, Type 0, BuildingBlock: GALJAG_clean_sbu_0, # of connection points: 4
#     Node 10, Type 0, BuildingBlock: GALJAG_clean_sbu_0, # of connection points: 4
#     Node 11, Type 0, BuildingBlock: GALJAG_clean_sbu_0, # of connection points: 4
#     Node 12, Type 0, BuildingBlock: GALJAG_clean_sbu_0, # of connection points: 4
#     Node 13, Type 0, BuildingBlock: GALJAG_clean_sbu_0, # of connection points: 4
#     Node 14, Type 0, BuildingBlock: GALJAG_clean_sbu_0, # of connection points: 4
#     Node 15, Type 0, BuildingBlock: GALJAG_clean_sbu_0, # of connection points: 4
#     Node 16, Type 0, BuildingBlock: GALJAG_clean_sbu_0, # of connection points: 4
#     Node 17, Type 0, BuildingBlock: GALJAG_clean_sbu_0, # of connection points: 4
#     Node 18, Type 0, BuildingBlock: GALJAG_clean_sbu_0, # of connection points: 4
#     Node 19, Type 0, BuildingBlock: GALJAG_clean_sbu_0, # of connection points: 4
#     Node 20, Type 0, BuildingBlock: GALJAG_clean_sbu_0, # of connection points: 4
#     Node 21, Type 0, BuildingBlock: GALJAG_clean_sbu_0, # of connection points: 4
#     Node 22, Type 0, BuildingBlock: GALJAG_clean_sbu_0, # of connection points: 4
#     Node 23, Type 0, BuildingBlock: GALJAG_clean_sbu_0, # of connection points: 4
#     Node 24, Type 0, BuildingBlock: GALJAG_clean_sbu_0, # of connection points: 4
#     Node 25, Type 0, BuildingBlock: GALJAG_clean_sbu_0, # of connection points: 4
#     Node 26, Type 0, BuildingBlock: GALJAG_clean_sbu_0, # of connection points: 4
#     Node 27, Type 0, BuildingBlock: GALJAG_clean_sbu_0, # of connection points: 4
#     Node 28, Type 0, BuildingBlock: GALJAG_clean_sbu_0, # of connection points: 4
#     Node 29, Type 0, BuildingBlock: GALJAG_clean_sbu_0, # of connection points: 4
#     Node 30, Type 0, BuildingBlock: GALJAG_clean_sbu_0, # of connection points: 4
#     Node 31, Type 0, BuildingBlock: GALJAG_clean_sbu_0, # of connection points: 4
#     Edge 32, Type (0, 0), BuildingBlock: CIFDUS_clean_linker_0, # of connection points: 2
#     Edge 33, Type (0, 0), BuildingBlock: CIFDUS_clean_linker_0, # of connection points: 2
#     Edge 34, Type (0, 0), BuildingBlock: CIFDUS_clean_linker_0, # of connection points: 2
#     Edge 35, Type (0, 0), BuildingBlock: CIFDUS_clean_linker_0, # of connection points: 2
#     Edge 36, Type (0, 0), BuildingBlock: CIFDUS_clean_linker_0, # of connection points: 2
#     Edge 37, Type (0, 0), BuildingBlock: CIFDUS_clean_linker_0, # of connection points: 2
#     Edge 38, Type (0, 0), BuildingBlock: CIFDUS_clean_linker_0, # of connection points: 2
#     Edge 39, Type (0, 0), BuildingBlock: CIFDUS_clean_linker_0, # of connection points: 2
#     Edge 40, Type (0, 0), BuildingBlock: CIFDUS_clean_linker_0, # of connection points: 2
#     Edge 41, Type (0, 0), BuildingBlock: CIFDUS_clean_linker_0, # of connection points: 2
#     Edge 42, Type (0, 0), BuildingBlock: CIFDUS_clean_linker_0, # of connection points: 2
#     Edge 43, Type (0, 0), BuildingBlock: CIFDUS_clean_linker_0, # of connection points: 2
#     Edge 44, Type (0, 0), BuildingBlock: CIFDUS_clean_linker_0, # of connection points: 2
#     Edge 45, Type (0, 0), BuildingBlock: CIFDUS_clean_linker_0, # of connection points: 2
#     Edge 46, Type (0, 0), BuildingBlock: CIFDUS_clean_linker_0, # of connection points: 2
#     Edge 47, Type (0, 0), BuildingBlock: CIFDUS_clean_linker_0, # of connection points: 2
#     Edge 48, Type (0, 0), BuildingBlock: CIFDUS_clean_linker_0, # of connection points: 2
#     Edge 49, Type (0, 0), BuildingBlock: CIFDUS_clean_linker_0, # of connection points: 2
#     Edge 50, Type (0, 0), BuildingBlock: CIFDUS_clean_linker_0, # of connection points: 2
#     Edge 51, Type (0, 0), BuildingBlock: CIFDUS_clean_linker_0, # of connection points: 2
#     Edge 52, Type (0, 0), BuildingBlock: CIFDUS_clean_linker_0, # of connection points: 2
#     Edge 53, Type (0, 0), BuildingBlock: CIFDUS_clean_linker_0, # of connection points: 2
#     Edge 54, Type (0, 0), BuildingBlock: CIFDUS_clean_linker_0, # of connection points: 2
#     Edge 55, Type (0, 0), BuildingBlock: CIFDUS_clean_linker_0, # of connection points: 2
#     Edge 56, Type (0, 0), BuildingBlock: CIFDUS_clean_linker_0, # of connection points: 2
#     Edge 57, Type (0, 0), BuildingBlock: CIFDUS_clean_linker_0, # of connection points: 2
#     Edge 58, Type (0, 0), BuildingBlock: CIFDUS_clean_linker_0, # of connection points: 2
#     Edge 59, Type (0, 0), BuildingBlock: CIFDUS_clean_linker_0, # of connection points: 2
#     Edge 60, Type (0, 0), BuildingBlock: CIFDUS_clean_linker_0, # of connection points: 2
#     Edge 61, Type (0, 0), BuildingBlock: CIFDUS_clean_linker_0, # of connection points: 2
#     Edge 62, Type (0, 0), BuildingBlock: CIFDUS_clean_linker_0, # of connection points: 2
#     Edge 63, Type (0, 0), BuildingBlock: CIFDUS_clean_linker_0, # of connection points: 2
#     Edge 64, Type (0, 0), BuildingBlock: CIFDUS_clean_linker_0, # of connection points: 2
#     Edge 65, Type (0, 0), BuildingBlock: CIFDUS_clean_linker_0, # of connection points: 2
#     Edge 66, Type (0, 0), BuildingBlock: CIFDUS_clean_linker_0, # of connection points: 2
#     Edge 67, Type (0, 0), BuildingBlock: CIFDUS_clean_linker_0, # of connection points: 2
#     Edge 68, Type (0, 0), BuildingBlock: CIFDUS_clean_linker_0, # of connection points: 2
#     Edge 69, Type (0, 0), BuildingBlock: CIFDUS_clean_linker_0, # of connection points: 2
#     Edge 70, Type (0, 0), BuildingBlock: CIFDUS_clean_linker_0, # of connection points: 2
#     Edge 71, Type (0, 0), BuildingBlock: CIFDUS_clean_linker_0, # of connection points: 2
#     Edge 72, Type (0, 0), BuildingBlock: CIFDUS_clean_linker_0, # of connection points: 2
#     Edge 73, Type (0, 0), BuildingBlock: CIFDUS_clean_linker_0, # of connection points: 2
#     Edge 74, Type (0, 0), BuildingBlock: CIFDUS_clean_linker_0, # of connection points: 2
#     Edge 75, Type (0, 0), BuildingBlock: CIFDUS_clean_linker_0, # of connection points: 2
#     Edge 76, Type (0, 0), BuildingBlock: CIFDUS_clean_linker_0, # of connection points: 2
#     Edge 77, Type (0, 0), BuildingBlock: CIFDUS_clean_linker_0, # of connection points: 2
#     Edge 78, Type (0, 0), BuildingBlock: CIFDUS_clean_linker_0, # of connection points: 2
#     Edge 79, Type (0, 0), BuildingBlock: CIFDUS_clean_linker_0, # of connection points: 2
#     Edge 80, Type (0, 0), BuildingBlock: CIFDUS_clean_linker_0, # of connection points: 2
#     Edge 81, Type (0, 0), BuildingBlock: CIFDUS_clean_linker_0, # of connection points: 2
#     Edge 82, Type (0, 0), BuildingBlock: CIFDUS_clean_linker_0, # of connection points: 2
#     Edge 83, Type (0, 0), BuildingBlock: CIFDUS_clean_linker_0, # of connection points: 2
#     Edge 84, Type (0, 0), BuildingBlock: CIFDUS_clean_linker_0, # of connection points: 2
#     Edge 85, Type (0, 0), BuildingBlock: CIFDUS_clean_linker_0, # of connection points: 2
#     Edge 86, Type (0, 0), BuildingBlock: CIFDUS_clean_linker_0, # of connection points: 2
#     Edge 87, Type (0, 0), BuildingBlock: CIFDUS_clean_linker_0, # of connection points: 2
#     Edge 88, Type (0, 0), BuildingBlock: CIFDUS_clean_linker_0, # of connection points: 2
#     Edge 89, Type (0, 0), BuildingBlock: CIFDUS_clean_linker_0, # of connection points: 2
#     Edge 90, Type (0, 0), BuildingBlock: CIFDUS_clean_linker_0, # of connection points: 2
#     Edge 91, Type (0, 0), BuildingBlock: CIFDUS_clean_linker_0, # of connection points: 2
#     Edge 92, Type (0, 0), BuildingBlock: CIFDUS_clean_linker_0, # of connection points: 2
#     Edge 93, Type (0, 0), BuildingBlock: CIFDUS_clean_linker_0, # of connection points: 2
#     Edge 94, Type (0, 0), BuildingBlock: CIFDUS_clean_linker_0, # of connection points: 2
#     Edge 95, Type (0, 0), BuildingBlock: CIFDUS_clean_linker_0, # of connection points: 2
# Relax obj value: 0.079
# Max RMSD: 0.280
# Mean RMSD: 0.277
data_MOF--net-vba--node1-GALJAG_clean_sbu_0--edge1-CIFDUS_clean_linker_0
_symmetry_space_group_name_H-M    P1
_symmetry_Int_Tables_number       1
_symmetry_cell_setting            triclinic
loop_
_symmetry_equiv_pos_as_xyz
'x, y, z'
_cell_length_a     18.803251
_cell_length_b     83.737712
_cell_length_c     47.281532
_cell_angle_alpha  89.713362
_cell_angle_beta   89.883512
_cell_angle_gamma 89.914758
loop_
_atom_site_label
_atom_site_type_symbol
_atom_site_fract_x
_atom_site_fract_y
_atom_site_fract_z
_atom_type_partial_charge
In0 In 0.24299 0.05001 0.00376 0.0
O1 O 0.23453 0.04944 0.95658 0.0
O2 O 0.32406 0.06152 0.97606 0.0
C3 C 0.19163 0.03965 0.05206 0.0
C4 C 0.33125 0.02567 0.00209 0.0
C5 C 0.16819 0.07677 0.00631 0.0
O6 O 0.16224 0.03614 0.02858 0.0
O7 O 0.24698 0.04839 0.05072 0.0
O8 O 0.23168 0.07587 0.01569 0.0
O9 O 0.14304 0.06404 0.99562 0.0
C10 C 0.29295 0.05704 0.95355 0.0
O11 O 0.34847 0.039 0.01314 0.0
O12 O 0.26793 0.02461 0.99258 0.0
In13 In 0.95193 0.19432 0.00277 0.0
O14 O 0.01069 0.20319 0.96333 0.0
O15 O 0.91709 0.18868 0.95884 0.0
C16 C 0.98992 0.20493 0.05358 0.0
C17 C 0.8377 0.21297 0.00048 0.0
C18 C 0.00994 0.1653 0.00863 0.0
O19 O 0.02448 0.20875 0.03139 0.0
O20 O 0.93685 0.1959 0.04975 0.0
O21 O 0.94273 0.16715 0.00861 0.0
O22 O 0.04581 0.17795 0.00549 0.0
C23 C 0.96585 0.19666 0.94693 0.0
O24 O 0.8321 0.19813 0.00627 0.0
O25 O 0.90044 0.21805 0.99669 0.0
In26 In 0.2544 0.20129 0.24457 0.0
O27 O 0.36988 0.20671 0.23495 0.0
O28 O 0.30117 0.2256 0.24939 0.0
C29 C 0.21291 0.17115 0.23751 0.0
C30 C 0.26337 0.20145 0.30076 0.0
C31 C 0.19409 0.21248 0.19756 0.0
O32 O 0.27731 0.17527 0.23392 0.0
O33 O 0.17093 0.18219 0.24485 0.0
O34 O 0.16276 0.21365 0.22136 0.0
O35 O 0.25472 0.20593 0.19804 0.0
C36 C 0.36309 0.22129 0.24197 0.0
O37 O 0.21113 0.20813 0.28831 0.0
O38 O 0.30716 0.19432 0.2849 0.0
In39 In 0.96891 0.05796 0.24612 0.0
O40 O 0.85898 0.05118 0.23066 0.0
O41 O 0.92308 0.03361 0.25216 0.0
C42 C 0.01235 0.0878 0.23657 0.0
C43 C 0.94087 0.06047 0.30086 0.0
C44 C 0.04685 0.0446 0.20594 0.0
O45 O 0.94974 0.0834 0.23025 0.0
O46 O 0.05142 0.07718 0.24761 0.0
O47 O 0.06824 0.04464 0.23144 0.0
O48 O 0.9875 0.05125 0.20137 0.0
C49 C 0.86465 0.03699 0.24022 0.0
O50 O 0.99731 0.05358 0.29238 0.0
O51 O 0.90182 0.06644 0.28181 0.0
In52 In 0.75757 0.94316 0.99122 0.0
O53 O 0.64734 0.95233 0.98084 0.0
O54 O 0.72359 0.96802 0.00063 0.0
C55 C 0.81775 0.91471 0.98455 0.0
C56 C 0.7236 0.93856 0.04454 0.0
C57 C 0.81922 0.956 0.94663 0.0
O58 O 0.75333 0.91723 0.97739 0.0
O59 O 0.85053 0.92656 0.99488 0.0
O60 O 0.84577 0.95757 0.97125 0.0
O61 O 0.76242 0.94785 0.94499 0.0
C62 C 0.66099 0.96606 0.99114 0.0
O63 O 0.78088 0.94581 0.0378 0.0
O64 O 0.68664 0.93314 0.02431 0.0
In65 In 0.00069 0.79485 0.99529 0.0
O66 O 0.97269 0.79085 0.04136 0.0
O67 O 0.06914 0.80347 0.03018 0.0
C68 C 0.93728 0.78438 0.94937 0.0
C69 C 0.09625 0.77171 0.99328 0.0
C70 C 0.94619 0.82396 0.98899 0.0
O71 O 0.90966 0.78218 0.97374 0.0
O72 O 0.99659 0.79161 0.94878 0.0
O73 O 0.01093 0.82106 0.98274 0.0
O74 O 0.9109 0.81225 -0.0013 0.0
C75 C 0.02981 0.79763 0.04945 0.0
O76 O 0.11025 0.78575 0.98421 0.0
O77 O 0.03349 0.76951 0.00253 0.0
In78 In 0.73389 0.80658 0.75118 0.0
O79 O 0.77691 0.80414 0.70648 0.0
O80 O 0.67797 0.81651 0.7136 0.0
C81 C 0.79679 0.7927 0.79485 0.0
C82 C 0.63434 0.78421 0.74847 0.0
C83 C 0.77939 0.83592 0.76305 0.0
O84 O 0.82491 0.79248 0.77034 0.0
O85 O 0.73764 0.7999 0.79685 0.0
O86 O 0.71457 0.83201 0.76678 0.0
O87 O 0.81952 0.82501 0.75367 0.0
C88 C 0.72352 0.81143 0.69604 0.0
O89 O 0.6206 0.79791 0.75884 0.0
O90 O 0.69778 0.78209 0.74016 0.0
In91 In 0.03572 0.94763 0.74995 0.0
O92 O 0.99831 0.95143 0.70473 0.0
O93 O 0.09728 0.93923 0.71259 0.0
C94 C 0.96591 0.96012 0.7931 0.0
C95 C 0.13593 0.96984 0.75238 0.0
C96 C 0.99076 0.91795 0.76034 0.0
O97 O 0.94053 0.96082 0.76818 0.0
O98 O 0.02573 0.95329 0.79561 0.0
O99 O 0.05497 0.92197 0.76491 0.0
O100 O 0.95115 0.92883 0.75042 0.0
C101 C 0.05364 0.94474 0.69468 0.0
O102 O 0.14733 0.95571 0.76144 0.0
O103 O 0.07429 0.97247 0.74257 0.0
In104 In 0.30914 0.54211 0.53204 0.0
O105 O 0.41471 0.5319 0.51426 0.0
O106 O 0.39115 0.55614 0.50598 0.0
C107 C 0.31528 0.53873 0.58959 0.0
C108 C 0.26926 0.51605 0.50295 0.0
C109 C 0.216 0.56659 0.52456 0.0
O110 O 0.26917 0.53221 0.57428 0.0
O111 O 0.36024 0.54695 0.57597 0.0
O112 O 0.2818 0.56863 0.52797 0.0
O113 O 0.1966 0.55217 0.52506 0.0
C114 C 0.43179 0.54447 0.50116 0.0
O115 O 0.28687 0.51557 0.52869 0.0
O116 O 0.26652 0.52994 0.49244 0.0
In117 In 0.91585 0.6737 0.51156 0.0
O118 O 0.90373 0.67672 0.46516 0.0
O119 O 0.82357 0.66298 0.48769 0.0
C120 C 0.95525 0.67989 0.56377 0.0
C121 C 0.85499 0.70201 0.51195 0.0
C122 C 0.00116 0.64851 0.50725 0.0
O123 O 0.99076 0.68445 0.54225 0.0
O124 O 0.89972 0.67159 0.5588 0.0
O125 O 0.93796 0.64746 0.51676 0.0
O126 O 0.02071 0.6624 0.49926 0.0
C127 C 0.84526 0.66912 0.46447 0.0
O128 O 0.82595 0.68965 0.52279 0.0
O129 O 0.91637 0.70002 0.50082 0.0
In130 In 0.22962 0.69694 0.75046 0.0
O131 O 0.20074 0.70033 0.79673 0.0
O132 O 0.30226 0.69005 0.78529 0.0
C133 C 0.15722 0.70269 0.70381 0.0
C134 C 0.31321 0.72218 0.74561 0.0
C135 C 0.19692 0.66624 0.74855 0.0
O136 O 0.12872 0.70479 0.72801 0.0
O137 O 0.22172 0.69821 0.70367 0.0
O138 O 0.25876 0.67112 0.74156 0.0
O139 O 0.15297 0.67691 0.75611 0.0
C140 C 0.2602 0.69448 0.80474 0.0
O141 O 0.33262 0.70836 0.73738 0.0
O142 O 0.2504 0.72319 0.75549 0.0
In143 In 0.0996 0.54372 0.79023 0.0
O144 O 0.12435 0.535 0.83631 0.0
O145 O 0.05473 0.55475 0.82962 0.0
C146 C 0.17802 0.53303 0.7465 0.0
C147 C 0.98222 0.5267 0.77932 0.0
C148 C 0.13941 0.57381 0.77977 0.0
O149 O 0.20044 0.5315 0.77177 0.0
O150 O 0.11728 0.53924 0.74401 0.0
O151 O 0.07647 0.56899 0.77546 0.0
O152 O 0.18147 0.56349 0.79005 0.0
C153 C 0.08419 0.54555 0.84727 0.0
O154 O 0.98558 0.54164 0.77507 0.0
O155 O 0.03794 0.52044 0.7895 0.0
In156 In 0.64459 0.44731 0.44804 0.0
O157 O 0.52578 0.44488 0.43812 0.0
O158 O 0.57443 0.46788 0.43541 0.0
C159 C 0.70136 0.41768 0.44965 0.0
C160 C 0.64041 0.45445 0.50379 0.0
C161 C 0.71939 0.45984 0.40491 0.0
O162 O 0.63565 0.41977 0.44519 0.0
O163 O 0.73661 0.4303 0.45278 0.0
O164 O 0.7299 0.46385 0.43036 0.0
O165 O 0.67093 0.44958 0.40129 0.0
C166 C 0.51837 0.45969 0.43337 0.0
O167 O 0.69131 0.45885 0.48809 0.0
O168 O 0.59244 0.44676 0.49135 0.0
In169 In 0.93405 0.30686 0.50443 0.0
O170 O 0.91581 0.30916 0.55146 0.0
O171 O 0.00391 0.32164 0.53173 0.0
C172 C 0.90454 0.29658 0.45326 0.0
C173 C 0.01837 0.28226 0.51413 0.0
C174 C 0.85739 0.33249 0.49271 0.0
O175 O 0.86551 0.29304 0.47453 0.0
O176 O 0.95967 0.30493 0.45835 0.0
O177 O 0.92372 0.3316 0.48724 0.0
O178 O 0.82984 0.32033 0.50489 0.0
C179 C 0.97007 0.31818 0.55432 0.0
O180 O 0.04065 0.29532 0.50337 0.0
O181 O 0.95186 0.28149 0.51955 0.0
In182 In 0.74394 0.31318 0.24577 0.0
O183 O 0.7676 0.30584 0.2002 0.0
O184 O 0.67289 0.31931 0.20983 0.0
C185 C 0.81248 0.30361 0.2918 0.0
C186 C 0.64192 0.29212 0.25447 0.0
C187 C 0.78979 0.34319 0.24568 0.0
O188 O 0.83881 0.30112 0.26735 0.0
O189 O 0.75373 0.31102 0.29244 0.0
O190 O 0.72752 0.33959 0.25409 0.0
O191 O 0.82808 0.3316 0.23764 0.0
C192 C 0.70973 0.3121 0.19144 0.0
O193 O 0.63371 0.30677 0.26092 0.0
O194 O 0.70234 0.28829 0.24453 0.0
In195 In 0.02785 0.45747 0.22396 0.0
O196 O 0.13612 0.45587 0.24476 0.0
O197 O 0.09726 0.47895 0.23293 0.0
C198 C 0.9877 0.42659 0.22706 0.0
C199 C 0.04533 0.46316 0.16797 0.0
C200 C 0.93619 0.46857 0.26317 0.0
O201 O 0.051 0.43087 0.23158 0.0
O202 O 0.94608 0.43774 0.22024 0.0
O203 O 0.92268 0.46947 0.23699 0.0
O204 O 0.99628 0.46279 0.26909 0.0
C205 C 0.14686 0.47078 0.24388 0.0
O206 O 0.9935 0.46891 0.18166 0.0
O207 O 0.08706 0.45465 0.1824 0.0
In208 In 0.7242 0.05571 0.50455 0.0
O209 O 0.69623 0.05158 0.45876 0.0
O210 O 0.78583 0.06664 0.46952 0.0
C211 C 0.68565 0.04318 0.55321 0.0
C212 C 0.82996 0.03504 0.5031 0.0
C213 C 0.65126 0.08264 0.51143 0.0
O214 O 0.65153 0.03999 0.53061 0.0
O215 O 0.73726 0.05288 0.5508 0.0
O216 O 0.71771 0.08179 0.51655 0.0
O217 O 0.6224 0.06984 0.50284 0.0
C218 C 0.74915 0.05993 0.45044 0.0
O219 O 0.8388 0.04929 0.51196 0.0
O220 O 0.7672 0.03138 0.49545 0.0
In221 In 0.44448 0.20104 0.5127 0.0
O222 O 0.47213 0.20878 0.46781 0.0
O223 O 0.37564 0.19573 0.47494 0.0
C224 C 0.53649 0.20993 0.55238 0.0
C225 C 0.34492 0.22245 0.52588 0.0
C226 C 0.49514 0.17122 0.51477 0.0
O227 O 0.54745 0.21284 0.52631 0.0
O228 O 0.47797 0.20315 0.55818 0.0
O229 O 0.43317 0.17433 0.52424 0.0
O230 O 0.52765 0.18285 0.50364 0.0
C231 C 0.41594 0.20279 0.45747 0.0
O232 O 0.33362 0.20757 0.52947 0.0
O233 O 0.406 0.22608 0.51659 0.0
In234 In 0.87544 0.19269 0.72658 0.0
O235 O 0.99217 0.19455 0.71185 0.0
O236 O 0.92674 0.21547 0.71227 0.0
C237 C 0.83247 0.16199 0.72794 0.0
C238 C 0.8875 0.19911 0.78216 0.0
C239 C 0.78244 0.20259 0.68733 0.0
O240 O 0.8945 0.16567 0.71963 0.0
O241 O 0.79454 0.17361 0.73546 0.0
O242 O 0.77506 0.20593 0.71327 0.0
O243 O 0.83697 0.1944 0.68129 0.0
C244 C 0.98689 0.20943 0.70719 0.0
O245 O 0.83475 0.2037 0.76771 0.0
O246 O 0.93408 0.19151 0.76852 0.0
In247 In 0.5601 0.05272 0.76061 0.0
O248 O 0.4513 0.04331 0.75074 0.0
O249 O 0.52754 0.02758 0.77084 0.0
C250 C 0.61419 0.08136 0.74969 0.0
C251 C 0.52494 0.05847 0.81344 0.0
C252 C 0.61438 0.04049 0.71437 0.0
O253 O 0.54941 0.07804 0.74457 0.0
O254 O 0.65096 0.0702 0.76067 0.0
O255 O 0.64764 0.03925 0.73783 0.0
O256 O 0.55549 0.04793 0.71491 0.0
C257 C 0.46517 0.02953 0.76097 0.0
O258 O 0.58192 0.05079 0.80771 0.0
O259 O 0.48978 0.06372 0.79248 0.0
In260 In 0.21877 0.94451 0.4826 0.0
O261 O 0.10243 0.94989 0.47298 0.0
O262 O 0.16926 0.96825 0.4903 0.0
C263 C 0.27601 0.91584 0.47244 0.0
C264 C 0.20639 0.94208 0.53821 0.0
C265 C 0.27719 0.95909 0.43859 0.0
O266 O 0.21013 0.91852 0.46843 0.0
O267 O 0.3114 0.92756 0.48161 0.0
O268 O 0.30445 0.96018 0.46313 0.0
O269 O 0.22158 0.95064 0.43679 0.0
C270 C 0.10807 0.9642 0.48178 0.0
O271 O 0.25808 0.94964 0.52707 0.0
O272 O 0.16433 0.9353 0.52121 0.0
In273 In 0.56822 0.80877 0.48328 0.0
O274 O 0.67914 0.79877 0.47373 0.0
O275 O 0.60205 0.78461 0.49651 0.0
C276 C 0.51544 0.83754 0.47116 0.0
C277 C 0.58399 0.81395 0.53797 0.0
C278 C 0.50161 0.7938 0.44203 0.0
O279 O 0.58092 0.83438 0.46675 0.0
O280 O 0.47879 0.82622 0.48135 0.0
O281 O 0.47718 0.79388 0.46714 0.0
O282 O 0.55913 0.80142 0.43806 0.0
C283 C 0.66428 0.78566 0.48631 0.0
O284 O 0.52885 0.80709 0.52834 0.0
O285 O 0.62925 0.81859 0.51979 0.0
In286 In 0.24965 0.79591 0.25373 0.0
O287 O 0.27573 0.78988 0.20793 0.0
O288 O 0.18386 0.80423 0.21746 0.0
C289 C 0.32695 0.78345 0.29505 0.0
C290 C 0.14204 0.77606 0.26243 0.0
C291 C 0.30299 0.82517 0.25995 0.0
O292 O 0.34634 0.78209 0.26937 0.0
O293 O 0.26893 0.79078 0.29918 0.0
O294 O 0.23904 0.82206 0.26682 0.0
O295 O 0.33799 0.81365 0.24974 0.0
C296 C 0.22096 0.79724 0.19893 0.0
O297 O 0.13832 0.79061 0.26999 0.0
O298 O 0.20026 0.77179 0.2512 0.0
In299 In 0.4847 0.94425 0.24437 0.0
O300 O 0.46068 0.94782 0.19769 0.0
O301 O 0.55121 0.9337 0.21046 0.0
C302 C 0.41732 0.95899 0.28571 0.0
C303 C 0.59148 0.96463 0.24785 0.0
C304 C 0.42668 0.91583 0.25461 0.0
O305 O 0.39355 0.9596 0.26051 0.0
O306 O 0.47366 0.95093 0.28939 0.0
O307 O 0.49119 0.91871 0.26086 0.0
O308 O 0.39289 0.92725 0.2432 0.0
C309 C 0.51552 0.93985 0.1905 0.0
O310 O 0.59619 0.9506 0.25832 0.0
O311 O 0.53281 0.96811 0.23611 0.0
In312 In 0.79743 0.53601 0.03167 0.0
O313 O 0.7767 0.50981 0.02363 0.0
O314 O 0.75349 0.52595 0.99025 0.0
C315 C 0.72544 0.56392 0.03107 0.0
C316 C 0.92103 0.53905 0.00173 0.0
C317 C 0.78093 0.5278 0.08706 0.0
O318 O 0.78821 0.56248 0.04023 0.0
O319 O 0.69762 0.55109 0.02236 0.0
O320 O 0.73406 0.52607 0.06829 0.0
O321 O 0.83863 0.53385 0.0781 0.0
C322 C 0.75929 0.51156 0.99809 0.0
O323 O 0.87334 0.54961 0.00261 0.0
O324 O 0.91081 0.52758 0.01874 0.0
In325 In 0.44668 0.67355 0.01048 0.0
O326 O 0.48548 0.68077 0.96662 0.0
O327 O 0.38653 0.66813 0.97101 0.0
C328 C 0.51532 0.68489 0.05517 0.0
C329 C 0.34507 0.69547 0.01456 0.0
C330 C 0.49201 0.64334 0.01555 0.0
O331 O 0.54045 0.68638 0.03031 0.0
O332 O 0.45653 0.67759 0.05711 0.0
O333 O 0.42792 0.64706 0.02125 0.0
O334 O 0.53079 0.65472 0.00703 0.0
C335 C 0.42984 0.67531 0.95487 0.0
O336 O 0.33312 0.68099 0.02164 0.0
O337 O 0.408 0.69855 0.0067 0.0
In338 In 0.74301 0.68684 0.25418 0.0
O339 O 0.68974 0.69579 0.29514 0.0
O340 O 0.75973 0.67574 0.29687 0.0
C341 C 0.66942 0.69634 0.20853 0.0
C342 C 0.85529 0.70646 0.25472 0.0
C343 C 0.73321 0.65547 0.24509 0.0
O344 O 0.64122 0.69583 0.23288 0.0
O345 O 0.7345 0.6927 0.20778 0.0
O346 O 0.7927 0.66257 0.24498 0.0
O347 O 0.67966 0.66436 0.24876 0.0
C348 C 0.7197 0.68515 0.31014 0.0
O349 O 0.86005 0.69215 0.24642 0.0
O350 O 0.79391 0.71079 0.2624 0.0
In351 In 0.61339 0.53537 0.29467 0.0
O352 O 0.63697 0.52207 0.33714 0.0
O353 O 0.60283 0.54611 0.33858 0.0
C354 C 0.69532 0.52404 0.25154 0.0
C355 C 0.4848 0.52256 0.28593 0.0
C356 C 0.62762 0.56593 0.2788 0.0
O357 O 0.7228 0.52975 0.27372 0.0
O358 O 0.62875 0.52275 0.2527 0.0
O359 O 0.56805 0.55895 0.27925 0.0
O360 O 0.67966 0.55759 0.28712 0.0
C361 C 0.61844 0.53374 0.35241 0.0
O362 O 0.497 0.5373 0.28275 0.0
O363 O 0.53762 0.51429 0.29379 0.0
In364 In 0.17097 0.44929 0.95185 0.0
O365 O 0.21269 0.46197 0.99182 0.0
O366 O 0.11287 0.45016 0.99387 0.0
C367 C 0.25448 0.45914 0.90898 0.0
C368 C 0.04723 0.46209 0.93475 0.0
C369 C 0.21729 0.4188 0.9562 0.0
O370 O 0.26582 0.46328 0.93431 0.0
O371 O 0.20072 0.45035 0.90543 0.0
O372 O 0.15512 0.42215 0.94791 0.0
O373 O 0.25496 0.4307 0.96228 0.0
C374 C 0.15899 0.45825 0.0066 0.0
O375 O 0.05342 0.44734 0.94031 0.0
O376 O 0.10384 0.47011 0.93694 0.0
In377 In 0.46068 0.30632 0.99196 0.0
O378 O 0.56756 0.29842 0.9746 0.0
O379 O 0.50142 0.28119 0.99586 0.0
C380 C 0.42155 0.33654 0.98199 0.0
C381 C 0.49825 0.3084 0.04609 0.0
C382 C 0.3731 0.29453 0.95343 0.0
O383 O 0.48243 0.33141 0.9746 0.0
O384 O 0.38266 0.32658 0.99491 0.0
O385 O 0.35529 0.29464 0.9794 0.0
O386 O 0.43396 0.30005 0.94761 0.0
C387 C 0.5599 0.28416 0.98354 0.0
O388 O 0.43927 0.30213 0.03906 0.0
O389 O 0.53488 0.31411 0.02602 0.0
In390 In 0.21305 0.3109 0.75007 0.0
O391 O 0.18927 0.31938 0.70592 0.0
O392 O 0.10074 0.31627 0.73388 0.0
C393 C 0.2079 0.30414 0.80559 0.0
C394 C 0.21795 0.28104 0.73064 0.0
C395 C 0.2918 0.33764 0.75114 0.0
O396 O 0.25777 0.2997 0.78952 0.0
O397 O 0.15936 0.31224 0.79368 0.0
O398 O 0.22922 0.33665 0.76074 0.0
O399 O 0.31686 0.32474 0.74119 0.0
C400 C 0.12258 0.31984 0.70924 0.0
O401 O 0.16199 0.2878 0.73917 0.0
O402 O 0.27448 0.28928 0.73202 0.0
In403 In 0.56146 0.44786 0.72562 0.0
O404 O 0.51412 0.45792 0.68456 0.0
O405 O 0.61294 0.44558 0.68223 0.0
C406 C 0.47565 0.45893 0.76677 0.0
C407 C 0.6781 0.46404 0.74112 0.0
C408 C 0.5209 0.41696 0.72958 0.0
O409 O 0.46142 0.46089 0.74082 0.0
O410 O 0.53361 0.45183 0.77172 0.0
O411 O 0.58551 0.42089 0.73225 0.0
O412 O 0.47937 0.42837 0.72428 0.0
C413 C 0.56475 0.45306 0.6692 0.0
O414 O 0.67436 0.44897 0.74336 0.0
O415 O 0.6234 0.47072 0.73099 0.0
H416 H 0.25388 0.04099 0.10365 0.0
H417 H 0.05821 0.02835 0.0618 0.0
H418 H 0.99836 0.02597 0.10747 0.0
H419 H 0.99723 0.03186 0.1581 0.0
H420 H 0.19137 0.04497 0.20029 0.0
H421 H 0.25713 0.04241 0.15569 0.0
C422 C 0.19846 0.03744 0.10461 0.0
C423 C 0.15993 0.0352 0.07947 0.0
C424 C 0.16429 0.03625 0.13091 0.0
C425 C 0.08867 0.0303 0.0809 0.0
C426 C 0.05439 0.02899 0.10697 0.0
C427 C 0.05432 0.03375 0.1576 0.0
C428 C 0.08957 0.03882 0.18209 0.0
C429 C 0.09099 0.03257 0.13195 0.0
C430 C 0.16345 0.04105 0.18155 0.0
C431 C 0.20074 0.03975 0.15604 0.0
H432 H 0.05479 0.21014 0.1835 0.0
H433 H 0.26041 0.22328 0.15047 0.0
H434 H 0.21236 0.22429 0.10254 0.0
H435 H 0.11649 0.21762 0.06952 0.0
H436 H 0.91336 0.20227 0.10224 0.0
H437 H 0.95525 0.20602 0.15058 0.0
C438 C 0.08831 0.21367 0.16585 0.0
C439 C 0.16081 0.21663 0.17035 0.0
C440 C 0.06101 0.21354 0.13819 0.0
C441 C 0.20431 0.22094 0.14737 0.0
C442 C 0.177 0.22142 0.11997 0.0
C443 C 0.08106 0.21539 0.08723 0.0
C444 C 0.01232 0.20952 0.08234 0.0
C445 C 0.10614 0.21714 0.11501 0.0
C446 C 0.96689 0.20665 0.10548 0.0
C447 C 0.99077 0.20879 0.13315 0.0
H448 H 0.02048 0.96758 0.84384 0.0
H449 H 0.82209 0.96298 0.79901 0.0
H450 H 0.75682 0.96372 0.84384 0.0
H451 H 0.75905 0.96082 0.89555 0.0
H452 H 0.95806 0.96465 0.94026 0.0
H453 H 0.02059 0.96928 0.89557 0.0
C454 C 0.9628 0.96712 0.84389 0.0
C455 C 0.92595 0.96491 0.8184 0.0
C456 C 0.92613 0.96718 0.86966 0.0
C457 C 0.85138 0.96461 0.81849 0.0
C458 C 0.81422 0.96488 0.8441 0.0
C459 C 0.81595 0.96296 0.89551 0.0
C460 C 0.85439 0.96204 0.92093 0.0
C461 C 0.85141 0.96539 0.8698 0.0
C462 C 0.92766 0.96516 0.92084 0.0
C463 C 0.96338 0.96773 0.89532 0.0
H464 H 0.736 0.78535 0.84498 0.0
H465 H 0.93784 0.78609 0.80143 0.0
H466 H -0.00042 0.78096 0.84605 0.0
H467 H 0.99645 0.78054 0.89792 0.0
H468 H 0.79481 0.78029 0.94159 0.0
H469 H 0.73222 0.78063 0.89626 0.0
C470 C 0.79344 0.7841 0.84522 0.0
C471 C 0.83264 0.7864 0.82019 0.0
C472 C 0.82838 0.78135 0.87091 0.0
C473 C 0.90675 0.78447 0.82054 0.0
C474 C 0.94201 0.78162 0.84604 0.0
C475 C 0.93878 0.78022 0.89746 0.0
C476 C 0.90006 0.78068 0.9229 0.0
C477 C 0.90346 0.78069 0.87144 0.0
C478 C 0.82555 0.77999 0.92219 0.0
C479 C 0.78985 0.78032 0.89632 0.0
H480 H 0.24768 0.51636 0.62135 0.0
H481 H 0.37453 0.55898 0.62837 0.0
H482 H 0.35277 0.55953 0.67951 0.0
H483 H 0.28393 0.5498 0.72111 0.0
H484 H 0.15542 0.50756 0.71315 0.0
H485 H 0.1927 0.50467 0.66383 0.0
C486 C 0.27157 0.52562 0.63414 0.0
C487 C 0.31202 0.53772 0.621 0.0
C488 C 0.25865 0.52586 0.66349 0.0
C489 C 0.34314 0.54954 0.63792 0.0
C490 C 0.33045 0.54989 0.66718 0.0
C491 C 0.26666 0.53961 0.70882 0.0
C492 C 0.21836 0.52866 0.72085 0.0
C493 C 0.28668 0.53835 0.6801 0.0
C494 C 0.19399 0.51587 0.70449 0.0
C495 C 0.21456 0.51436 0.67619 0.0
H496 H 0.06417 0.69913 0.57776 0.0
H497 H 0.89541 0.67091 0.6144 0.0
H498 H 0.93692 0.67771 0.66196 0.0
H499 H 0.0284 0.68977 0.69286 0.0
H500 H 0.2006 0.71631 0.65509 0.0
H501 H 0.14956 0.71246 0.60815 0.0
C502 C 0.03614 0.6945 0.59612 0.0
C503 C 0.97741 0.68436 0.5926 0.0
C504 C 0.06061 0.69832 0.62318 0.0
C505 C 0.94124 0.67862 0.61661 0.0
C506 C 0.96483 0.68254 0.64377 0.0
C507 C 0.05323 0.69508 0.67435 0.0
C508 C 0.11746 0.70346 0.6772 0.0
C509 C 0.02523 0.69218 0.6473 0.0
C510 C 0.15068 0.70995 0.6532 0.0
C511 C 0.12191 0.70763 0.62642 0.0
H512 H 0.96116 0.47582 0.31781 0.0
H513 H 0.79172 0.46687 0.25871 0.0
H514 H 0.70676 0.46461 0.29786 0.0
H515 H 0.68492 0.46145 0.34917 0.0
H516 H 0.85423 0.47126 0.40796 0.0
H517 H 0.93505 0.477 0.36868 0.0
C518 C 0.90528 0.47375 0.3135 0.0
C519 C 0.88273 0.47131 0.28553 0.0
C520 C 0.85708 0.47236 0.33607 0.0
C521 C 0.81022 0.46881 0.28011 0.0
C522 C 0.76181 0.46735 0.3025 0.0
C523 C 0.73926 0.46507 0.35331 0.0
C524 C 0.76412 0.46565 0.38133 0.0
C525 C 0.78526 0.46849 0.3306 0.0
C526 C 0.83411 0.47064 0.38654 0.0
C527 C 0.88038 0.47387 0.3641 0.0
H528 H 0.74705 0.29154 0.33733 0.0
H529 H 0.95348 0.30507 0.30577 0.0
H530 H 0.00342 0.30234 0.35354 0.0
H531 H 0.98325 0.29965 0.40509 0.0
H532 H 0.77584 0.28574 0.43576 0.0
H533 H 0.73142 0.2848 0.38739 0.0
C534 C 0.80333 0.29356 0.34089 0.0
C535 C 0.84661 0.29867 0.31839 0.0
C536 C 0.83111 0.29202 0.36821 0.0
C537 C 0.91946 0.30109 0.32292 0.0
C538 C 0.94771 0.29965 0.35022 0.0
C539 C 0.92871 0.29613 0.40111 0.0
C540 C 0.88253 0.29303 0.42398 0.0
C541 C 0.90336 0.29567 0.37318 0.0
C542 C 0.81231 0.28828 0.41855 0.0
C543 C 0.78675 0.28781 0.3909 0.0
H544 H 0.76998 0.04014 0.59888 0.0
H545 H 0.55532 0.03245 0.56998 0.0
H546 H 0.51634 0.02774 0.61873 0.0
H547 H 0.53998 0.03071 0.66941 0.0
H548 H 0.75377 0.03917 0.69845 0.0
H549 H 0.79733 0.03826 0.6496 0.0
C550 C 0.71492 0.03713 0.60326 0.0
C551 C 0.66502 0.037 0.58116 0.0
C552 C 0.693 0.03466 0.63124 0.0
C553 C 0.59431 0.03275 0.58681 0.0
C554 C 0.57206 0.03014 0.61463 0.0
C555 C 0.5964 0.03193 0.66502 0.0
C556 C 0.64368 0.03529 0.68717 0.0
C557 C 0.62039 0.03178 0.63702 0.0
C558 C 0.71666 0.0366 0.68158 0.0
C559 C 0.74131 0.03625 0.65368 0.0
H560 H 0.51646 0.21243 0.60889 0.0
H561 H 0.67967 0.21206 0.54468 0.0
H562 H 0.77151 0.21067 0.58118 0.0
H563 H 0.80428 0.20673 0.63116 0.0
H564 H 0.64143 0.20821 0.69544 0.0
H565 H 0.55038 0.21209 0.65914 0.0
C566 C 0.57223 0.21233 0.60295 0.0
C567 C 0.59142 0.21219 0.57421 0.0
C568 C 0.62459 0.21156 0.62403 0.0
C569 C 0.66371 0.21221 0.5667 0.0
C570 C 0.71617 0.21129 0.58755 0.0
C571 C 0.7489 0.20809 0.63717 0.0
C572 C 0.72922 0.20698 0.6658 0.0
C573 C 0.69709 0.2105 0.61623 0.0
C574 C 0.65763 0.209 0.67347 0.0
C575 C 0.6056 0.21116 0.65274 0.0
H576 H 0.21474 0.96459 0.38825 0.0
H577 H 0.41589 0.96774 0.43158 0.0
H578 H 0.47713 0.97145 0.38634 0.0
H579 H 0.47489 0.96819 0.33487 0.0
H580 H 0.27445 0.96374 0.29149 0.0
H581 H 0.21082 0.96655 0.33644 0.0
C582 C 0.27181 0.96647 0.38778 0.0
C583 C 0.31124 0.9655 0.41296 0.0
C584 C 0.30654 0.96821 0.36175 0.0
C585 C 0.38475 0.96829 0.41234 0.0
C586 C 0.41972 0.9703 0.38651 0.0
C587 C 0.41717 0.96827 0.33523 0.0
C588 C 0.3791 0.96542 0.31023 0.0
C589 C 0.38146 0.96944 0.3611 0.0
C590 C 0.30458 0.96584 0.31062 0.0
C591 C 0.26836 0.96729 0.33631 0.0
H592 H 0.55297 0.78749 0.38978 0.0
H593 H 0.36368 0.78398 0.4412 0.0
H594 H 0.29389 0.77706 0.39952 0.0
H595 H 0.28375 0.77681 0.34794 0.0
H596 H 0.47173 0.78126 0.29614 0.0
H597 H 0.54573 0.78254 0.33862 0.0
C598 C 0.49667 0.78493 0.3919 0.0
C599 C 0.46296 0.78661 0.41829 0.0
C600 C 0.45686 0.78117 0.36782 0.0
C601 C 0.39047 0.78293 0.42099 0.0
C602 C 0.35057 0.77903 0.39718 0.0
C603 C 0.34117 0.77762 0.34601 0.0
C604 C 0.37245 0.77924 0.31916 0.0
C605 C 0.38272 0.77881 0.37039 0.0
C606 C 0.44671 0.78003 0.3167 0.0
C607 C 0.48882 0.78095 0.34096 0.0
H608 H 0.85533 0.53571 0.13562 0.0
H609 H 0.67227 0.50965 0.106 0.0
H610 H 0.63603 0.50419 0.15439 0.0
H611 H 0.64792 0.50911 0.20484 0.0
H612 H 0.82671 0.53581 0.23611 0.0
H613 H 0.87373 0.53834 0.1878 0.0
C614 C 0.80816 0.52865 0.13983 0.0
C615 C 0.76618 0.52329 0.11704 0.0
C616 C 0.78665 0.52565 0.16811 0.0
C617 C 0.70523 0.51413 0.12296 0.0
C618 C 0.68435 0.51095 0.15072 0.0
C619 C 0.69805 0.5152 0.20123 0.0
C620 C 0.7335 0.5223 0.2241 0.0
C621 C 0.72349 0.51698 0.17342 0.0
C622 C 0.79847 0.53012 0.21895 0.0
C623 C 0.82496 0.53172 0.19123 0.0
H624 H 0.72145 0.70027 0.15558 0.0
H625 H 0.52502 0.6966 0.20251 0.0
H626 H 0.45871 0.69414 0.15832 0.0
H627 H 0.45885 0.68961 0.10705 0.0
H628 H 0.65531 0.693 0.06012 0.0
H629 H 0.71959 0.69907 0.10371 0.0
C630 C 0.66396 0.69924 0.15611 0.0
C631 C 0.62818 0.6984 0.18225 0.0
C632 C 0.62648 0.69755 0.1307 0.0
C633 C 0.55372 0.69723 0.18265 0.0
C634 C 0.51588 0.6957 0.15741 0.0
C635 C 0.51565 0.69185 0.10634 0.0
C636 C 0.55267 0.69059 0.08057 0.0
C637 C 0.55206 0.69527 0.13142 0.0
C638 C 0.62588 0.69379 0.07978 0.0
C639 C 0.6626 0.69723 0.10469 0.0
H640 H 0.50599 0.46417 0.82191 0.0
H641 H 0.33171 0.46174 0.76296 0.0
H642 H 0.24656 0.46288 0.80209 0.0
H643 H 0.22257 0.46143 0.85331 0.0
H644 H 0.39652 0.46504 0.9122 0.0
H645 H 0.48108 0.46675 0.87288 0.0
C646 C 0.44931 0.46418 0.81766 0.0
C647 C 0.425 0.46268 0.78969 0.0
C648 C 0.40079 0.46491 0.84024 0.0
C649 C 0.35159 0.46289 0.78434 0.0
C650 C 0.30293 0.46343 0.80671 0.0
C651 C 0.27893 0.46285 0.85746 0.0
C652 C 0.30359 0.4629 0.88551 0.0
C653 C 0.32702 0.46396 0.83477 0.0
C654 C 0.37645 0.46496 0.89074 0.0
C655 C 0.42478 0.46585 0.86828 0.0
H656 H 0.27924 0.28052 0.83176 0.0
H657 H 0.1443 0.32109 0.84815 0.0
H658 H 0.17218 0.31932 0.89872 0.0
H659 H 0.25326 0.30933 0.93613 0.0
H660 H 0.39353 0.26998 0.91803 0.0
H661 H 0.34398 0.26778 0.87048 0.0
C662 C 0.25474 0.28876 0.84652 0.0
C663 C 0.21099 0.3011 0.83632 0.0
C664 C 0.27207 0.28783 0.87527 0.0
C665 C 0.17855 0.31155 0.85558 0.0
C666 C 0.19478 0.31058 0.88444 0.0
C667 C 0.27029 0.29984 0.92211 0.0
C668 C 0.32605 0.28967 0.93041 0.0
C669 C 0.24388 0.29919 0.89432 0.0
C670 C 0.34977 0.27772 0.91201 0.0
C671 C 0.32214 0.27661 0.88477 0.0
H672 H 0.47183 0.02673 0.01352 0.0
H673 H 0.30737 0.99532 0.98324 0.0
H674 H 0.39516 0.97407 0.9764 0.0
H675 H 0.51928 0.96448 0.97904 0.0
H676 H 0.68249 0.99637 0.00904 0.0
H677 H 0.5946 0.01739 0.01573 0.0
C678 C 0.45505 0.01521 0.00556 0.0
C679 C 0.38325 0.01257 -0.00097 0.0
C680 C 0.50571 0.00316 0.00143 0.0
C681 C 0.36243 -0.00238 0.98851 0.0
C682 C 0.41259 0.98549 0.98453 0.0
C683 C 0.53552 0.97606 0.98686 0.0
C684 C 0.60726 0.97885 0.99349 0.0
C685 C 0.48449 0.98814 0.99083 0.0
C686 C 0.62758 0.9939 0.00376 0.0
C687 C 0.57736 0.00593 0.00767 0.0
H688 H 0.55378 0.25322 0.00078 0.0
H689 H 0.69423 0.28801 0.9628 0.0
H690 H 0.79186 0.26874 0.96414 0.0
H691 H 0.83847 0.24264 0.97819 0.0
H692 H 0.69913 0.20762 0.01604 0.0
H693 H 0.59937 0.22642 0.01265 0.0
C694 C 0.60562 0.25654 0.99258 0.0
C695 C 0.61691 0.27205 0.98182 0.0
C696 C 0.66157 0.24544 0.99359 0.0
C697 C 0.68422 0.27616 0.97118 0.0
C698 C 0.74008 0.26518 0.97204 0.0
C699 C 0.78625 0.23909 0.9857 0.0
C700 C 0.7762 0.22383 0.99764 0.0
C701 C 0.72956 0.24989 0.98358 0.0
C702 C 0.70813 0.21933 0.00689 0.0
C703 C 0.65123 0.23007 0.00496 0.0
H704 H 0.36126 0.25157 0.26126 0.0
H705 H 0.49988 0.21605 0.22473 0.0
H706 H 0.59955 0.23476 0.22673 0.0
H707 H 0.64607 0.26127 0.23803 0.0
H708 H 0.50707 0.29683 0.27427 0.0
H709 H 0.40835 0.27786 0.27352 0.0
C710 C 0.41325 0.24792 0.25367 0.0
C711 C 0.42327 0.2325 0.24268 0.0
C712 C 0.47003 0.25867 0.255 0.0
C713 C 0.49093 0.22789 0.23315 0.0
C714 C 0.54784 0.23855 0.23435 0.0
C715 C 0.5943 0.26485 0.24597 0.0
C716 C 0.58371 0.28041 0.25619 0.0
C717 C 0.53787 0.25397 0.24517 0.0
C718 C 0.51643 0.28489 0.26634 0.0
C719 C 0.46001 0.27409 0.26582 0.0
H720 H 0.59141 0.99449 0.22602 0.0
H721 H 0.72283 0.96085 0.27165 0.0
H722 H 0.81954 0.98035 0.27279 0.0
H723 H 0.86583 0.0069 0.26107 0.0
H724 H 0.73414 0.04058 0.21565 0.0
H725 H 0.63791 0.02098 0.21407 0.0
C726 C 0.6412 0.99141 0.23624 0.0
C727 C 0.65006 0.97627 0.24879 0.0
C728 C 0.69627 0.00264 0.23678 0.0
C729 C 0.71482 0.97244 0.26189 0.0
C730 C 0.77003 0.98357 0.26252 0.0
C731 C 0.81614 0.00995 0.25074 0.0
C732 C 0.80698 0.02515 0.23846 0.0
C733 C 0.76123 -0.00131 0.25005 0.0
C734 C 0.74237 0.02895 0.22522 0.0
C735 C 0.68741 0.01777 0.22435 0.0
H736 H 0.36012 0.72545 0.99455 0.0
H737 H 0.20555 0.69349 0.03155 0.0
H738 H 0.11421 0.71432 0.02764 0.0
H739 H 0.07905 0.74157 0.01354 0.0
H740 H 0.23463 0.77317 0.97613 0.0
H741 H 0.32519 0.75235 0.98017 0.0
C742 C 0.30653 0.72302 0.00192 0.0
C743 C 0.28962 0.70797 0.01349 0.0
C744 C 0.25461 0.73493 -0.00067 0.0
C745 C 0.21987 0.705 0.02269 0.0
C746 C 0.16772 0.71688 0.02038 0.0
C747 C 0.13272 0.74388 0.00615 0.0
C748 C 0.15015 0.75889 0.9945 0.0
C749 C 0.18454 0.73187 0.00866 0.0
C750 C 0.21987 0.76172 0.9851 0.0
C751 C 0.27167 0.74984 0.98748 0.0
H752 H 0.4925 0.78526 0.76144 0.0
H753 H 0.65685 0.75431 0.7288 0.0
H754 H 0.5714 0.73277 0.72366 0.0
H755 H 0.45121 0.72235 0.72946 0.0
H756 H 0.28563 0.75276 0.76245 0.0
H757 H 0.36997 0.77487 0.76613 0.0
C758 C 0.50942 0.7738 0.75322 0.0
C759 C 0.58097 0.77139 0.74566 0.0
C760 C 0.45979 0.76136 0.75026 0.0
C761 C 0.60214 0.75649 0.73489 0.0
C762 C 0.55331 0.74414 0.73188 0.0
C763 C 0.43338 0.73385 0.73724 0.0
C764 C 0.3624 0.73591 0.74568 0.0
C765 C 0.48216 0.74641 0.7396 0.0
C766 C 0.34013 0.75088 0.75579 0.0
C767 C 0.38836 0.76351 0.758 0.0
H768 H 0.27289 0.96795 0.77118 0.0
H769 H 0.12036 0.00035 0.73389 0.0
H770 H 0.2086 0.02157 0.73319 0.0
H771 H 0.32886 0.03102 0.7429 0.0
H772 H 0.48247 -0.00103 0.78027 0.0
H773 H 0.3942 0.97757 0.78118 0.0
C774 C 0.25908 0.97966 0.76296 0.0
C775 C 0.19023 0.98255 0.75263 0.0
C776 C 0.31024 0.99189 0.76258 0.0
C777 C 0.17301 -0.00221 0.742 0.0
C778 C 0.22343 0.00996 0.74156 0.0
C779 C 0.34306 0.01935 0.75123 0.0
C780 C 0.41201 0.01658 0.76146 0.0
C781 C 0.29217 0.00714 0.75175 0.0
C782 C 0.42962 0.0014 0.77224 0.0
C783 C 0.3792 0.98916 0.77279 0.0
H784 H 0.40349 0.45324 0.46542 0.0
H785 H 0.48147 0.48485 0.4003 0.0
H786 H 0.3895 0.50438 0.41185 0.0
H787 H 0.31141 0.51503 0.44852 0.0
H788 H 0.24799 0.48503 0.51846 0.0
H789 H 0.30688 0.46215 0.49664 0.0
C790 C 0.39782 0.46406 0.4529 0.0
C791 C 0.44896 0.46773 0.43221 0.0
C792 C 0.34789 0.47567 0.461 0.0
C793 C 0.44238 0.48186 0.41635 0.0
C794 C 0.39024 0.49308 0.42315 0.0
C795 C 0.30766 0.50331 0.45832 0.0
C796 C 0.27639 0.50171 0.4852 0.0
C797 C 0.34605 0.49055 0.44668 0.0
C798 C 0.27227 0.48652 0.49781 0.0
C799 C 0.30665 0.47348 0.48548 0.0
H800 H 0.64776 0.76041 0.52052 0.0
H801 H 0.7923 0.78047 0.45902 0.0
H802 H 0.86756 0.75648 0.46257 0.0
H803 H 0.88744 0.72903 0.48154 0.0
H804 H 0.7382 0.70971 0.54225 0.0
H805 H 0.66949 0.73428 0.54059 0.0
C806 C 0.69584 0.75962 0.50787 0.0
C807 C 0.71413 0.7721 0.48932 0.0
C808 C 0.73779 0.74589 0.50985 0.0
C809 C 0.77709 0.77097 0.47342 0.0
C810 C 0.81987 0.75725 0.4754 0.0
C811 C 0.84025 0.73031 0.49456 0.0
C812 C 0.8177 0.71753 0.51188 0.0
C813 C 0.80013 0.74452 0.49329 0.0
C814 C 0.75642 0.7193 0.5286 0.0
C815 C 0.71704 0.73335 0.52769 0.0
H816 H 0.96592 0.4945 0.78346 0.0
H817 H 0.85657 0.53759 0.7581 0.0
H818 H 0.75311 0.52195 0.74412 0.0
H819 H 0.69427 0.49611 0.73856 0.0
H820 H 0.80283 0.45287 0.76354 0.0
H821 H 0.90623 0.4685 0.77818 0.0
C822 C 0.91931 0.50046 0.77498 0.0
C823 C 0.91888 0.51719 0.77185 0.0
C824 C 0.86006 0.49138 0.76683 0.0
C825 C 0.85823 0.52474 0.76076 0.0
C826 C 0.79907 0.51581 0.75272 0.0
C827 C 0.74054 0.49009 0.74721 0.0
C828 C 0.74096 0.47335 0.74993 0.0
C829 C 0.79954 0.49913 0.75556 0.0
C830 C 0.80127 0.46574 0.7612 0.0
C831 C 0.86033 0.47467 0.76958 0.0
H832 H 0.15937 0.28454 0.52185 0.0
H833 H 0.98844 0.25033 0.52042 0.0
H834 H 0.07415 0.22845 0.52684 0.0
H835 H 0.19977 0.21908 0.5289 0.0
H836 H 0.36806 0.25409 0.53059 0.0
H837 H 0.2813 0.27559 0.52849 0.0
C838 C 0.14077 0.27229 0.52305 0.0
C839 C 0.06803 0.269 0.5202 0.0
C840 C 0.18999 0.25991 0.52686 0.0
C841 C 0.04444 0.25312 0.52238 0.0
C842 C 0.09341 0.24063 0.52601 0.0
C843 C 0.21711 0.23142 0.52937 0.0
C844 C 0.29028 0.23497 0.52961 0.0
C845 C 0.16661 0.24386 0.52778 0.0
C846 C 0.31211 0.25102 0.53013 0.0
C847 C 0.26256 0.26335 0.52885 0.0
H848 H 0.17922 0.50228 0.24558 0.0
H849 H 0.26234 0.4556 0.26618 0.0
H850 H 0.37337 0.46759 0.28231 0.0
H851 H 0.44835 0.49126 0.28886 0.0
H852 H 0.36537 0.53791 0.26786 0.0
H853 H 0.25249 0.52601 0.25376 0.0
C854 C 0.22156 0.49474 0.25368 0.0
C855 C 0.21282 0.47809 0.25454 0.0
C856 C 0.28521 0.5017 0.26283 0.0
C857 C 0.26794 0.46846 0.26522 0.0
C858 C 0.33141 0.4753 0.27444 0.0
C859 C 0.40538 0.49882 0.28137 0.0
C860 C 0.41521 0.51542 0.27929 0.0
C861 C 0.34085 0.4919 0.2731 0.0
C862 C 0.3591 0.52508 0.2696 0.0
C863 C 0.29461 0.51829 0.26148 0.0
H864 H 0.11154 0.9944 0.50115 0.0
H865 H 0.96972 0.95938 0.46562 0.0
H866 H 0.8706 0.97831 0.46929 0.0
H867 H 0.82482 0.00475 0.48295 0.0
H868 H 0.96796 0.03952 0.51856 0.0
H869 H 0.06642 0.02062 0.51457 0.0
C870 C 0.05899 0.99088 0.49412 0.0
C871 C 0.0479 0.97552 0.48309 0.0
C872 C 0.00266 0.00174 0.49641 0.0
C873 C 0.97954 0.97115 0.47414 0.0
C874 C 0.92295 0.98195 0.47628 0.0
C875 C 0.87755 0.00818 0.48989 0.0
C876 C 0.88912 0.0235 0.5011 0.0
C877 C 0.93394 0.99727 0.48747 0.0
C878 C 0.95769 0.02779 0.50992 0.0
C879 C 0.01399 0.01701 0.50761 0.0
H880 H 0.11662 0.2117 0.73193 0.0
H881 H 0.98681 0.23096 0.66494 0.0
H882 H 0.06458 0.25416 0.66097 0.0
H883 H 0.14888 0.27165 0.68473 0.0
H884 H 0.27133 0.25407 0.75504 0.0
H885 H 0.21917 0.22744 0.74932 0.0
C886 C 0.10762 0.22066 0.71566 0.0
C887 C 0.04638 0.21976 0.69875 0.0
C888 C 0.15073 0.2344 0.71452 0.0
C889 C 0.03388 0.23151 0.6781 0.0
C890 C 0.07799 0.24481 0.67598 0.0
C891 C 0.16668 0.26173 0.6978 0.0
C892 C 0.21383 0.26463 0.7201 0.0
C893 C 0.13376 0.24681 0.69523 0.0
C894 C 0.23587 0.25193 0.73743 0.0
C895 C 0.20509 0.2368 0.73443 0.0
H896 H 0.14139 0.74505 0.24732 0.0
H897 H 0.00821 0.78188 0.28293 0.0
H898 H 0.90754 0.76336 0.28412 0.0
H899 H 0.85706 0.73698 0.27356 0.0
H900 H 0.99096 0.7004 0.23751 0.0
H901 H 0.09214 0.71865 0.23791 0.0
C902 C 0.09045 0.74903 0.25549 0.0
C903 C 0.08209 0.76481 0.26498 0.0
C904 C 0.03307 0.73841 0.25587 0.0
C905 C 0.01587 0.76978 0.27553 0.0
C906 C 0.95836 0.75922 0.27613 0.0
C907 C 0.90844 0.733 0.26583 0.0
C908 C 0.91658 0.7174 0.2554 0.0
C909 C 0.96626 0.74356 0.26611 0.0
C910 C 0.9834 0.71237 0.24556 0.0
C911 C 0.04121 0.72279 0.2458 0.0
H912 H 0.92316 0.45318 0.95891 0.0
H913 H 0.01744 0.48938 0.90575 0.0
H914 H 0.91631 0.50707 0.91439 0.0
H915 H 0.82097 0.51453 0.94698 0.0
H916 H 0.73789 0.47969 0.00565 0.0
H917 H 0.81228 0.45902 0.98437 0.0
C918 C 0.91999 0.46469 0.94833 0.0
C919 C 0.9778 0.47012 0.93207 0.0
C920 C 0.8638 0.47514 0.95481 0.0
C921 C 0.97366 0.48507 0.91861 0.0
C922 C 0.91604 0.4952 0.92368 0.0
C923 C 0.81641 0.50224 0.95411 0.0
C924 C 0.77458 0.49862 0.97797 0.0
C925 C 0.86337 0.49075 0.94322 0.0
C926 C 0.76983 0.48271 0.98729 0.0
C927 C 0.81322 0.47095 0.9754 0.0
H928 H 0.4334 0.05757 0.94181 0.0
H929 H 0.22635 0.0609 0.90311 0.0
H930 H 0.2816 0.06297 0.85633 0.0
H931 H 0.38762 0.06248 0.82668 0.0
H932 H 0.59472 0.05635 0.8643 0.0
H933 H 0.54067 0.05675 0.91164 0.0
C934 C 0.40063 0.05896 0.9231 0.0
C935 C 0.32612 0.05927 0.92569 0.0
C936 C 0.43271 0.05955 0.89631 0.0
C937 C 0.28382 0.0607 0.90144 0.0
C938 C 0.31535 0.06187 0.8748 0.0
C939 C 0.42117 0.06144 0.84524 0.0
C940 C 0.49508 0.05957 0.84216 0.0
C941 C 0.38959 0.06113 0.87202 0.0
C942 C 0.53772 0.05787 0.86629 0.0
C943 C 0.50682 0.05808 0.89325 0.0
H944 H 0.85154 0.20095 0.91419 0.0
H945 H 0.08004 0.19751 0.91091 0.0
H946 H 0.07637 0.19862 0.85896 0.0
H947 H 0.00644 0.19879 0.81464 0.0
H948 H 0.77832 0.20396 0.81879 0.0
H949 H 0.78334 0.20413 0.87043 0.0
C950 C 0.90053 0.20054 0.90203 0.0
C951 C 0.9659 0.19891 0.91606 0.0
C952 C 0.89787 0.20149 0.87248 0.0
C953 C 0.02922 0.19872 0.90036 0.0
C954 C 0.027 0.1993 0.87076 0.0
C955 C 0.95802 0.20012 0.82692 0.0
C956 C 0.892 0.2012 0.81305 0.0
C957 C 0.96145 0.20042 0.8566 0.0
C958 C 0.82967 0.20312 0.82905 0.0
C959 C 0.83248 0.20313 0.85854 0.0
H960 H 0.28463 0.20228 0.43395 0.0
H961 H 0.50768 0.2057 0.41329 0.0
H962 H 0.47911 0.20575 0.36283 0.0
H963 H 0.39138 0.20383 0.32485 0.0
H964 H 0.16765 0.20236 0.34467 0.0
H965 H 0.19549 0.20267 0.39547 0.0
C966 C 0.32683 0.20307 0.41833 0.0
C967 C 0.39823 0.20379 0.42717 0.0
C968 C 0.30982 0.20344 0.38941 0.0
C969 C 0.45246 0.2051 0.40689 0.0
C970 C 0.43613 0.2051 0.37811 0.0
C971 C 0.3487 0.2036 0.34034 0.0
C972 C 0.27766 0.20282 0.33126 0.0
C973 C 0.36515 0.2041 0.36918 0.0
C974 C 0.22268 0.2029 0.35133 0.0
C975 C 0.23867 0.20302 0.38027 0.0
H976 H 0.88394 0.06133 0.43202 0.0
H977 H 0.66694 0.05907 0.40298 0.0
H978 H 0.70827 0.05959 0.35372 0.0
H979 H 0.80614 0.06049 0.3194 0.0
H980 H 0.02347 0.06024 0.34838 0.0
H981 H 0.9821 0.06085 0.39765 0.0
C982 C 0.84577 0.06109 0.41484 0.0
C983 C 0.77257 0.06042 0.42083 0.0
C984 C 0.87004 0.06087 0.38684 0.0
C985 C 0.72347 0.05968 0.39864 0.0
C986 C 0.7471 0.05998 0.37061 0.0
C987 C 0.84441 0.06065 0.33655 0.0
C988 C 0.91764 0.06053 0.33052 0.0
C989 C 0.82022 0.06056 0.36454 0.0
C990 C 0.96688 0.06038 0.35272 0.0
C991 C 0.94322 0.06075 0.38076 0.0
H992 H 0.58665 0.93863 0.06049 0.0
H993 H 0.80033 0.93756 0.09344 0.0
H994 H 0.75336 0.93702 0.14187 0.0
H995 H 0.65171 0.93738 0.17437 0.0
H996 H 0.43841 0.94107 0.14157 0.0
H997 H 0.48502 0.94006 0.09307 0.0
C998 C 0.62283 0.93812 0.07832 0.0
C999 C 0.69668 0.93789 0.07366 0.0
C1000 C 0.59549 0.93834 0.10586 0.0
C1001 C 0.7433 0.93765 0.09673 0.0
C1002 C 0.71647 0.93735 0.12429 0.0
C1003 C 0.61541 0.93783 0.15656 0.0
C1004 C 0.54179 0.93907 0.16129 0.0
C1005 C 0.64272 0.93774 0.12904 0.0
C1006 C 0.49525 0.94004 0.13824 0.0
C1007 C 0.52188 0.93945 0.11064 0.0
H1008 H 0.16468 0.79656 0.06781 0.0
H1009 H 0.94738 0.7983 0.097 0.0
H1010 H 0.98853 0.79868 0.1462 0.0
H1011 H 0.08637 0.7987 0.18045 0.0
H1012 H 0.30324 0.79469 0.15145 0.0
H1013 H 0.26228 0.79495 0.1022 0.0
C1014 C 0.12643 0.7971 0.085 0.0
C1015 C 0.05325 0.79764 0.07904 0.0
C1016 C 0.15045 0.79687 0.113 0.0
C1017 C 0.00394 0.79795 0.10129 0.0
C1018 C 0.02746 0.79818 0.12929 0.0
C1019 C 0.12463 0.79794 0.1633 0.0
C1020 C 0.19768 0.7969 0.16931 0.0
C1021 C 0.10056 0.7977 0.13532 0.0
C1022 C 0.2468 0.79555 0.14713 0.0
C1023 C 0.2234 0.79573 0.11909 0.0
H1024 H 0.59708 0.81513 0.67061 0.0
H1025 H 0.82144 0.81055 0.65321 0.0
H1026 H 0.79774 0.81221 0.60228 0.0
H1027 H 0.71241 0.81397 0.56301 0.0
H1028 H 0.48749 0.81596 0.58076 0.0
H1029 H 0.51205 0.81641 0.6316 0.0
C1030 C 0.64087 0.81464 0.65566 0.0
C1031 C 0.71095 0.81286 0.66546 0.0
C1032 C 0.62658 0.81512 0.62666 0.0
C1033 C 0.76713 0.81194 0.646 0.0
C1034 C 0.75356 0.8129 0.61698 0.0
C1035 C 0.66892 0.81469 0.57807 0.0
C1036 C 0.59831 0.8151 0.56839 0.0
C1037 C 0.68343 0.81438 0.60711 0.0
C1038 C 0.54219 0.81568 0.58791 0.0
C1039 C 0.55624 0.81593 0.61687 0.0
H1040 H 0.07709 0.94129 0.56215 0.0
H1041 H 0.30047 0.94407 0.58198 0.0
H1042 H 0.27205 0.94464 0.63265 0.0
H1043 H 0.18339 0.94444 0.67087 0.0
H1044 H 0.95977 0.94405 0.65075 0.0
H1045 H 0.98836 0.9425 0.6002 0.0
C1046 C 0.11952 0.94191 0.57763 0.0
C1047 C 0.19078 0.94239 0.56863 0.0
C1048 C 0.1026 0.94272 0.60641 0.0
C1049 C 0.24534 0.9436 0.58863 0.0
C1050 C 0.22906 0.94392 0.61748 0.0
C1051 C 0.14097 0.94395 0.65537 0.0
C1052 C 0.06962 0.94416 0.6643 0.0
C1053 C 0.15789 0.94349 0.62654 0.0
C1054 C 0.015 0.94386 0.64419 0.0
C1055 C 0.03136 0.94295 0.61541 0.0
H1056 H 0.49355 0.51915 0.47372 0.0
H1057 H 0.48699 0.57066 0.47515 0.0
H1058 H 0.55299 0.57177 0.43074 0.0
H1059 H 0.5982 0.55828 0.38855 0.0
H1060 H 0.60313 0.50684 0.38561 0.0
H1061 H 0.55412 0.50553 0.43372 0.0
C1062 C 0.50834 0.53061 0.46472 0.0
C1063 C 0.48504 0.54483 0.47781 0.0
C1064 C 0.54538 0.53117 0.43866 0.0
C1065 C 0.504 0.55956 0.46559 0.0
C1066 C 0.54152 0.5602 0.44007 0.0
C1067 C 0.58986 0.54675 0.3986 0.0
C1068 C 0.60386 0.53268 0.38335 0.0
C1069 C 0.56029 0.54611 0.42595 0.0
C1070 C 0.59304 0.51786 0.39682 0.0
C1071 C 0.56429 0.51712 0.42426 0.0
H1072 H 0.72634 0.65889 0.3429 0.0
H1073 H 0.71091 0.7102 0.34655 0.0
H1074 H 0.74185 0.70952 0.39688 0.0
H1075 H 0.79239 0.69452 0.4372 0.0
H1076 H 0.80578 0.64322 0.43383 0.0
H1077 H 0.75601 0.64355 0.38584 0.0
C1078 C 0.7278 0.66987 0.355 0.0
C1079 C 0.71727 0.68459 0.34121 0.0
C1080 C 0.74633 0.66934 0.38368 0.0
C1081 C 0.7186 0.69875 0.35688 0.0
C1082 C 0.73707 0.69836 0.38552 0.0
C1083 C 0.78275 0.68343 0.42606 0.0
C1084 C 0.80306 0.66887 0.43849 0.0
C1085 C 0.754 0.68378 0.39873 0.0
C1086 C 0.79028 0.65451 0.42437 0.0
C1087 C 0.76223 0.65473 0.39701 0.0
H1088 H 0.29804 0.67929 0.93425 0.0
H1089 H 0.5192 0.68011 0.90996 0.0
H1090 H 0.48544 0.68662 0.86113 0.0
H1091 H 0.39278 0.69156 0.82559 0.0
H1092 H 0.17202 0.69235 0.85061 0.0
H1093 H 0.2059 0.68594 0.89939 0.0
C1094 C 0.33879 0.68077 0.91817 0.0
C1095 C 0.41091 0.67892 0.92535 0.0
C1096 C 0.31903 0.68494 0.89057 0.0
C1097 C 0.4634 0.68132 0.90469 0.0
C1098 C 0.44409 0.68507 0.8769 0.0
C1099 C 0.35211 0.6904 0.84178 0.0
C1100 C 0.27997 0.69228 0.83462 0.0
C1101 C 0.37207 0.68685 0.86964 0.0
C1102 C 0.22782 0.69098 0.85574 0.0
C1103 C 0.24717 0.68722 0.88351 0.0
H1104 H 0.09337 0.52295 0.89044 0.0
H1105 H 0.03792 0.5721 0.87329 0.0
H1106 H 0.99187 0.57502 0.92098 0.0
H1107 H 0.95371 0.56303 0.96551 0.0
H1108 H 0.00361 0.51381 0.98375 0.0
H1109 H 0.06759 0.51174 0.93863 0.0
C1110 C 0.07266 0.53437 0.89741 0.0
C1111 C 0.06856 0.54724 0.87805 0.0
C1112 C 0.04486 0.53598 0.92519 0.0
C1113 C 0.04112 0.56193 0.88749 0.0
C1114 C 0.01463 0.56364 0.91486 0.0
C1115 C 0.97974 0.55191 0.95993 0.0
C1116 C 0.97354 0.53861 0.97806 0.0
C1117 C 0.01415 0.55065 0.93358 0.0
C1118 C 0.00781 0.52431 0.97037 0.0
C1119 C 0.04367 0.52305 0.94432 0.0
H1120 H 0.52385 0.4565 0.5371 0.0
H1121 H 0.75298 0.45754 0.53959 0.0
H1122 H 0.74983 0.45761 0.5914 0.0
H1123 H 0.68161 0.45535 0.63588 0.0
H1124 H 0.45243 0.45607 0.63334 0.0
H1125 H 0.45562 0.45741 0.5816 0.0
C1126 C 0.57302 0.45694 0.54905 0.0
C1127 C 0.63859 0.45686 0.53468 0.0
C1128 C 0.57067 0.45717 0.57873 0.0
C1129 C 0.70194 0.45762 0.55025 0.0
C1130 C 0.70012 0.45756 0.57984 0.0
C1131 C 0.63246 0.45592 0.62394 0.0
C1132 C 0.56685 0.4554 0.63825 0.0
C1133 C 0.63481 0.457 0.59428 0.0
C1134 C 0.50349 0.45642 0.6227 0.0
C1135 C 0.50533 0.45713 0.59316 0.0
H1136 H 0.91613 0.31087 0.6066 0.0
H1137 H 0.08603 0.33644 0.5648 0.0
H1138 H 0.14348 0.34107 0.61007 0.0
H1139 H 0.15363 0.33495 0.66044 0.0
H1140 H 0.98589 0.30928 0.70303 0.0
H1141 H 0.91872 0.30787 0.65872 0.0
C1142 C 0.96505 0.31769 0.6075 0.0
C1143 C 0.99729 0.32308 0.5823 0.0
C1144 C 0.9984 0.32023 0.63372 0.0
C1145 C 0.0604 0.33201 0.58381 0.0
C1146 C 0.09346 0.33466 0.60971 0.0
C1147 C 0.10167 0.32934 0.66013 0.0
C1148 C 0.07497 0.32209 0.68478 0.0
C1149 C 0.06416 0.32838 0.63463 0.0
C1150 C 0.00739 0.31498 0.68426 0.0
C1151 C 0.96932 0.31405 0.65889 0.0
H1152 H 0.63588 0.30807 0.06171 0.0
H1153 H 0.42267 0.30829 0.09553 0.0
H1154 H 0.47045 0.30939 0.14372 0.0
H1155 H 0.5727 0.31108 0.17578 0.0
H1156 H 0.78601 0.30899 0.14232 0.0
H1157 H 0.73836 0.30772 0.09406 0.0
C1158 C 0.59991 0.30838 0.07967 0.0
C1159 C 0.52588 0.30835 0.07523 0.0
C1160 C 0.62781 0.30866 0.10715 0.0
C1161 C 0.47976 0.30838 0.09855 0.0
C1162 C 0.50709 0.30904 0.12601 0.0
C1163 C 0.60875 0.31036 0.15788 0.0
C1164 C 0.68273 0.31038 0.16239 0.0
C1165 C 0.58095 0.30932 0.13049 0.0
C1166 C 0.72895 0.30906 0.13922 0.0
C1167 C 0.70168 0.30838 0.11173 0.0
H1168 H 0.16983 0.46315 0.13922 0.0
H1169 H 0.94334 0.46796 0.1279 0.0
H1170 H 0.95913 0.46784 0.07643 0.0
H1171 H 0.03674 0.46393 0.03491 0.0
H1172 H 0.2638 0.46082 0.04609 0.0
H1173 H 0.24877 0.4629 0.09747 0.0
C1174 C 0.12408 0.46436 0.12543 0.0
C1175 C 0.05542 0.46534 0.13721 0.0
C1176 C 0.13376 0.46452 0.09595 0.0
C1177 C 0.99662 0.46716 0.11925 0.0
C1178 C 0.00564 0.46702 0.08986 0.0
C1179 C 0.08292 0.46393 0.04864 0.0
C1180 C 0.15124 0.46205 0.03691 0.0
C1181 C 0.07381 0.46534 0.07802 0.0
C1182 C 0.21079 0.46228 0.05472 0.0
C1183 C 0.20212 0.46337 0.08406 0.0
H1184 H 0.95564 0.13543 -0.00055 0.0
H1185 H 0.14581 0.16025 0.0249 0.0
H1186 H 0.21044 0.13508 0.02769 0.0
H1187 H 0.21514 0.10617 0.02097 0.0
H1188 H 0.02767 0.08107 0.99349 0.0
H1189 H 0.96006 0.10606 0.99344 0.0
C1190 C 0.01099 0.13525 0.00585 0.0
C1191 C 0.04586 0.14968 0.0119 0.0
C1192 C 0.04859 0.12069 0.00687 0.0
C1193 C 0.1178 0.14932 0.01996 0.0
C1194 C 0.15492 0.13492 0.02157 0.0
C1195 C 0.15939 0.10615 0.01511 0.0
C1196 C 0.12659 0.0918 0.0072 0.0
C1197 C 0.12118 0.12056 0.01474 0.0
C1198 C 0.05432 0.09198 -0.00042 0.0
C1199 C 0.01557 0.10627 -0.00044 0.0
H1200 H 0.0771 0.16143 0.23076 0.0
H1201 H 0.29239 0.14386 0.23678 0.0
H1202 H 0.24883 0.11633 0.23549 0.0
H1203 H 0.14915 0.09745 0.23573 0.0
H1204 H 0.934 0.11495 0.22855 0.0
H1205 H 0.97799 0.14246 0.22694 0.0
C1206 C 0.11449 0.15156 0.23164 0.0
C1207 C 0.18775 0.15461 0.23421 0.0
C1208 C 0.08909 0.13584 0.23073 0.0
C1209 C 0.23576 0.14177 0.23488 0.0
C1210 C 0.21086 0.12606 0.23423 0.0
C1211 C 0.11192 0.10729 0.23362 0.0
C1212 C 0.03843 0.10425 0.23259 0.0
C1213 C 0.1376 0.12299 0.23263 0.0
C1214 C 0.99079 0.11704 0.22943 0.0
C1215 C 0.01591 0.13274 0.22863 0.0
H1216 H 0.01126 0.853 0.98505 0.0
H1217 H 0.80531 0.83038 0.98488 0.0
H1218 H 0.74723 0.85638 0.98119 0.0
H1219 H 0.75433 0.88567 0.98052 0.0
H1220 H 0.95962 0.90845 0.98395 0.0
H1221 H 0.01839 0.8824 0.98367 0.0
C1222 C 0.95375 0.8538 0.98396 0.0
C1223 C 0.91267 0.83982 0.9853 0.0
C1224 C 0.92046 0.86884 0.98251 0.0
C1225 C 0.83813 0.841 0.98409 0.0
C1226 C 0.8048 0.85586 0.98193 0.0
C1227 C 0.81191 0.88491 0.98088 0.0
C1228 C 0.85254 0.89893 0.98222 0.0
C1229 C 0.84533 0.86988 0.98149 0.0
C1230 C 0.92714 0.89779 0.98301 0.0
C1231 C 0.96082 0.8829 0.98286 0.0
H1232 H 0.917 0.84474 0.76801 0.0
H1233 H 0.70352 0.86369 0.76743 0.0
H1234 H 0.75085 0.89092 0.76819 0.0
H1235 H 0.85292 0.90918 0.76511 0.0
H1236 H 0.06638 0.89023 0.76647 0.0
H1237 H 0.01899 0.86304 0.7695 0.0
C1238 C 0.8808 0.85484 0.76833 0.0
C1239 C 0.80686 0.85225 0.76735 0.0
C1240 C 0.90841 0.87039 0.76872 0.0
C1241 C 0.76058 0.8654 0.76815 0.0
C1242 C 0.78765 0.88095 0.76844 0.0
C1243 C 0.88909 0.8991 0.76628 0.0
C1244 C 0.96306 0.90166 0.76519 0.0
C1245 C 0.86145 0.88357 0.7681 0.0
C1246 C 0.0093 0.88854 0.76717 0.0
C1247 C 0.9822 0.87301 0.76881 0.0
H1248 H 0.96754 0.61732 0.51648 0.0
H1249 H 0.14452 0.64843 0.49798 0.0
H1250 H 0.22645 0.62581 0.50143 0.0
H1251 H 0.24838 0.59736 0.51151 0.0
H1252 H 0.07118 0.56608 0.52853 0.0
H1253 H 0.98878 0.58858 0.52385 0.0
C1254 C 0.024 0.61914 0.51304 0.0
C1255 C 0.04991 0.63457 0.50713 0.0
C1256 C 0.07079 0.60606 0.51494 0.0
C1257 C 0.12315 0.63669 0.50254 0.0
C1258 C 0.17009 0.62376 0.50461 0.0
C1259 C 0.19169 0.59547 0.51414 0.0
C1260 C 0.16595 0.5801 0.52059 0.0
C1261 C 0.14461 0.60843 0.51111 0.0
C1262 C 0.09233 0.5778 0.52362 0.0
C1263 C 0.04521 0.59066 0.52097 0.0
H1264 H 0.28367 0.64079 0.75778 0.0
H1265 H 0.06508 0.65387 0.74264 0.0
H1266 H 0.0281 0.62621 0.7498 0.0
H1267 H 0.05682 0.59865 0.76313 0.0
H1268 H 0.27434 0.58567 0.78095 0.0
H1269 H 0.31283 0.6129 0.77015 0.0
C1270 C 0.2282 0.63748 0.75563 0.0
C1271 C 0.17714 0.64926 0.74964 0.0
C1272 C 0.20701 0.62163 0.76064 0.0
C1273 C 0.10523 0.64495 0.7473 0.0
C1274 C 0.08403 0.62916 0.75147 0.0
C1275 C 0.11266 0.60177 0.76456 0.0
C1276 C 0.16257 0.59021 0.77295 0.0
C1277 C 0.13426 0.61747 0.75865 0.0
C1278 C 0.23478 0.59441 0.77471 0.0
C1279 C 0.25689 0.60996 0.76846 0.0
H1280 H 0.64369 0.38963 0.46884 0.0
H1281 H 0.83766 0.4107 0.43731 0.0
H1282 H 0.90217 0.38603 0.44697 0.0
H1283 H 0.90572 0.35919 0.4669 0.0
H1284 H 0.71458 0.33788 0.50055 0.0
H1285 H 0.64682 0.36187 0.48773 0.0
C1286 C 0.69975 0.38865 0.46369 0.0
C1287 C 0.73593 0.40191 0.45233 0.0
C1288 C 0.73724 0.37449 0.47006 0.0
C1289 C 0.80878 0.40064 0.44611 0.0
C1290 C 0.84578 0.38656 0.45171 0.0
C1291 C 0.84918 0.35974 0.47141 0.0
C1292 C 0.81538 0.34681 0.48483 0.0
C1293 C 0.81093 0.37354 0.46417 0.0
C1294 C 0.74199 0.34772 0.49038 0.0
C1295 C 0.7032 0.36142 0.48299 0.0
H1296 H 0.92616 0.35291 0.23946 0.0
H1297 H 0.71177 0.37062 0.24867 0.0
H1298 H 0.75451 0.39805 0.24328 0.0
H1299 H 0.85234 0.41685 0.23484 0.0
H1300 H 0.06743 0.39932 0.22782 0.0
H1301 H 0.02488 0.37184 0.2334 0.0
C1302 C 0.88884 0.36278 0.24036 0.0
C1303 C 0.81588 0.35978 0.24427 0.0
C1304 C 0.91387 0.37848 0.2375 0.0
C1305 C 0.76818 0.37266 0.24571 0.0
C1306 C 0.79254 0.38832 0.24252 0.0
C1307 C 0.88985 0.407 0.23444 0.0
C1308 C 0.96277 0.41002 0.23061 0.0
C1309 C 0.86515 0.39134 0.23818 0.0
C1310 C 0.01101 0.39722 0.23063 0.0
C1311 C 0.98671 0.38155 0.23382 0.0
H1312 H 0.70329 0.11243 0.51933 0.0
H1313 H 0.50692 0.08651 0.50984 0.0
H1314 H 0.43947 0.11148 0.5123 0.0
H1315 H 0.43696 0.14112 0.5147 0.0
H1316 H 0.63546 0.16658 0.52129 0.0
H1317 H 0.70093 0.1415 0.52268 0.0
C1318 C 0.64571 0.11223 0.51802 0.0
C1319 C 0.61027 0.09766 0.51436 0.0
C1320 C 0.60745 0.12663 0.51888 0.0
C1321 C 0.53557 0.0976 0.51255 0.0
C1322 C 0.49691 0.11188 0.51397 0.0
C1323 C 0.49439 0.14109 0.51674 0.0
C1324 C 0.53133 0.15564 0.51777 0.0
C1325 C 0.5323 0.12653 0.51679 0.0
C1326 C 0.60587 0.1555 0.52019 0.0
C1327 C 0.64346 0.14117 0.52102 0.0
H1328 H 0.75415 0.08921 0.74488 0.0
H1329 H 0.54255 0.10911 0.74056 0.0
H1330 H 0.59214 0.13567 0.73244 0.0
H1331 H 0.69497 0.15334 0.7284 0.0
H1332 H 0.9072 0.13381 0.7307 0.0
H1333 H 0.85808 0.10689 0.73749 0.0
C1334 C 0.71901 0.09938 0.74212 0.0
C1335 C 0.64478 0.09726 0.7436 0.0
C1336 C 0.74796 0.11461 0.73706 0.0
C1337 C 0.59979 0.11046 0.73957 0.0
C1338 C 0.62811 0.12564 0.73497 0.0
C1339 C 0.73057 0.14318 0.73026 0.0
C1340 C 0.80458 0.14552 0.72934 0.0
C1341 C 0.70199 0.12787 0.73393 0.0
C1342 C 0.85003 0.13226 0.73135 0.0
C1343 C 0.82194 0.11691 0.73535 0.0
H1344 H 0.41706 0.90948 0.46834 0.0
H1345 H 0.21098 0.88691 0.46646 0.0
H1346 H 0.26784 0.86065 0.46378 0.0
H1347 H 0.37569 0.84415 0.4656 0.0
H1348 H 0.58207 0.86655 0.46671 0.0
H1349 H 0.52548 0.89295 0.46567 0.0
C1350 C 0.38459 0.89881 0.46713 0.0
C1351 C 0.30986 0.9001 0.46795 0.0
C1352 C 0.41769 0.88379 0.46549 0.0
C1353 C 0.2685 0.88622 0.46596 0.0
C1354 C 0.30101 0.87121 0.46451 0.0
C1355 C 0.40836 0.85481 0.46533 0.0
C1356 C 0.48296 0.85343 0.46653 0.0
C1357 C 0.37547 0.86986 0.4648 0.0
C1358 C 0.52461 0.86732 0.46579 0.0
C1359 C 0.49222 0.88239 0.46536 0.0
H1360 H 0.49176 0.88718 0.26229 0.0
H1361 H 0.28525 0.90943 0.25679 0.0
H1362 H 0.22777 0.88337 0.26054 0.0
H1363 H 0.2364 0.85402 0.26212 0.0
H1364 H 0.44339 0.8318 0.26414 0.0
H1365 H 0.50032 0.85795 0.26523 0.0
C1366 C 0.43421 0.8863 0.26225 0.0
C1367 C 0.39282 0.90015 0.25922 0.0
C1368 C 0.40153 0.87124 0.26365 0.0
C1369 C 0.31826 0.89888 0.25895 0.0
C1370 C 0.28532 0.884 0.2611 0.0
C1371 C 0.29386 0.85496 0.26315 0.0
C1372 C 0.33565 0.84106 0.26298 0.0
C1373 C 0.32642 0.87006 0.26297 0.0
C1374 C 0.41013 0.84238 0.26406 0.0
C1375 C 0.44277 0.85731 0.26469 0.0
H1376 H 0.62958 0.63584 0.02276 0.0
H1377 H 0.42179 0.61448 0.0168 0.0
H1378 H 0.47535 0.58775 0.02074 0.0
H1379 H 0.58302 0.57049 0.02497 0.0
H1380 H 0.78862 0.59283 0.03348 0.0
H1381 H 0.73418 0.61911 0.02943 0.0
C1382 C 0.59586 0.62534 0.02231 0.0
C1383 C 0.52195 0.6271 0.01923 0.0
C1384 C 0.6268 0.61017 0.02502 0.0
C1385 C 0.47889 0.61341 0.01914 0.0
C1386 C 0.50956 0.59814 0.02131 0.0
C1387 C 0.61565 0.58114 0.02597 0.0
C1388 C 0.68986 0.57969 0.02939 0.0
C1389 C 0.58367 0.59637 0.0241 0.0
C1390 C 0.73146 0.59358 0.03092 0.0
C1391 C 0.70042 0.60864 0.02855 0.0
H1392 H 0.61155 0.63846 0.24502 0.0
H1393 H 0.83985 0.63325 0.24696 0.0
H1394 H 0.8271 0.60464 0.25643 0.0
H1395 H 0.75076 0.58174 0.26845 0.0
H1396 H 0.52252 0.58731 0.26722 0.0
H1397 H 0.53559 0.61527 0.25332 0.0
C1398 C 0.65858 0.63103 0.2471 0.0
C1399 C 0.72651 0.63794 0.24555 0.0
C1400 C 0.65081 0.61475 0.2531 0.0
C1401 C 0.78696 0.62818 0.24809 0.0
C1402 C 0.77969 0.61186 0.25371 0.0
C1403 C 0.70394 0.58908 0.26505 0.0
C1404 C 0.63581 0.58258 0.26922 0.0
C1405 C 0.71186 0.60512 0.25704 0.0
C1406 C 0.57554 0.59211 0.26435 0.0
C1407 C 0.58295 0.60807 0.25637 0.0
H1408 H 0.35493 0.40931 0.95855 0.0
H1409 H 0.14005 0.39136 0.96074 0.0
H1410 H 0.18488 0.36427 0.96894 0.0
H1411 H 0.28492 0.34592 0.97694 0.0
H1412 H 0.50012 0.36346 0.97207 0.0
H1413 H 0.45551 0.39058 0.96335 0.0
C1414 C 0.31798 0.39944 0.96074 0.0
C1415 C 0.24426 0.40231 0.9593 0.0
C1416 C 0.34421 0.3839 0.96503 0.0
C1417 C 0.19696 0.38943 0.96178 0.0
C1418 C 0.22257 0.37397 0.96655 0.0
C1419 C 0.32204 0.35569 0.97397 0.0
C1420 C 0.39566 0.35279 0.97548 0.0
C1421 C 0.29601 0.37111 0.96848 0.0
C1422 C 0.44325 0.36546 0.97107 0.0
C1423 C 0.41773 0.38093 0.96615 0.0
H1424 H 0.38982 0.40928 0.74654 0.0
H1425 H 0.58985 0.38809 0.72261 0.0
H1426 H 0.53741 0.36127 0.72744 0.0
H1427 H 0.43153 0.34399 0.73696 0.0
H1428 H 0.23501 0.36643 0.76292 0.0
H1429 H 0.28935 0.39256 0.75888 0.0
C1430 C 0.42212 0.3988 0.74237 0.0
C1431 C 0.49319 0.40061 0.73387 0.0
C1432 C 0.39208 0.38362 0.74556 0.0
C1433 C 0.53481 0.38694 0.7291 0.0
C1434 C 0.50475 0.37165 0.7318 0.0
C1435 C 0.40098 0.35462 0.74185 0.0
C1436 C 0.32908 0.35321 0.75005 0.0
C1437 C 0.43301 0.36984 0.73978 0.0
C1438 C 0.29029 0.36709 0.75653 0.0
C1439 C 0.32124 0.38211 0.75418 0.0
loop_
_geom_bond_atom_site_label_1
_geom_bond_atom_site_label_2
_geom_bond_distance
_geom_bond_site_symmetry_2
_ccdc_geom_bond_type
In0 O1 2.296 1_554 S
In0 O2 2.329 1_554 S
In0 O6 2.265 . S
In0 O7 2.323 . S
In0 O8 2.265 . S
In0 O9 2.326 1_554 S
In0 O11 2.293 . S
In0 O12 2.326 1_554 S
O1 In0 2.296 1_556 S
O1 C10 1.240 . S
O2 In0 2.329 1_556 S
O2 C10 1.252 . S
C3 O6 1.252 . S
C3 O7 1.260 . S
C4 O11 1.240 . S
C4 O12 1.245 1_554 S
C5 O8 1.252 . S
C5 O9 1.260 1_554 S
O6 In0 2.265 . S
O6 C3 1.252 . S
O7 In0 2.323 . S
O7 C3 1.260 . S
O8 In0 2.265 . S
O8 C5 1.252 . S
O9 In0 2.326 1_556 S
O9 C5 1.260 1_556 S
C10 O1 1.240 . S
C10 O2 1.252 . S
O11 In0 2.293 . S
O11 C4 1.240 . S
O12 In0 2.326 1_556 S
O12 C4 1.245 1_556 S
In13 O14 2.296 1_654 S
In13 O15 2.329 1_554 S
In13 O19 2.265 1_655 S
In13 O20 2.323 1_655 S
In13 O21 2.265 . S
In13 O22 2.326 1_654 S
In13 O24 2.293 . S
In13 O25 2.326 1_554 S
O14 In13 2.296 1_456 S
O14 C23 1.240 1_455 S
O15 In13 2.329 1_556 S
O15 C23 1.252 . S
C16 O19 1.252 . S
C16 O20 1.260 . S
C17 O24 1.240 . S
C17 O25 1.245 1_554 S
C18 O21 1.252 1_455 S
C18 O22 1.260 1_554 S
O19 In13 2.265 1_455 S
O19 C16 1.252 . S
O20 In13 2.323 1_455 S
O20 C16 1.260 . S
O21 In13 2.265 . S
O21 C18 1.252 1_655 S
O22 In13 2.326 1_456 S
O22 C18 1.260 1_556 S
C23 O14 1.240 1_655 S
C23 O15 1.252 . S
O24 In13 2.293 . S
O24 C17 1.240 . S
O25 In13 2.326 1_556 S
O25 C17 1.245 1_556 S
In26 O27 2.294 . S
In26 O28 2.326 . S
In26 O32 2.266 . S
In26 O33 2.326 . S
In26 O34 2.266 . S
In26 O35 2.326 . S
In26 O37 2.294 . S
In26 O38 2.326 . S
O27 In26 2.294 . S
O27 C36 1.240 . S
O28 In26 2.326 . S
O28 C36 1.252 . S
C29 O32 1.252 . S
C29 O33 1.260 . S
C30 O37 1.240 . S
C30 O38 1.252 . S
C31 O34 1.252 . S
C31 O35 1.260 . S
O32 In26 2.266 . S
O32 C29 1.252 . S
O33 In26 2.326 . S
O33 C29 1.260 . S
O34 In26 2.266 . S
O34 C31 1.252 . S
O35 In26 2.326 . S
O35 C31 1.260 . S
C36 O27 1.240 . S
C36 O28 1.252 . S
O37 In26 2.294 . S
O37 C30 1.240 . S
O38 In26 2.326 . S
O38 C30 1.252 . S
In39 O40 2.301 . S
In39 O41 2.330 . S
In39 O45 2.268 . S
In39 O46 2.321 1_655 S
In39 O47 2.260 1_655 S
In39 O48 2.324 1_655 S
In39 O50 2.291 1_655 S
In39 O51 2.329 . S
O40 In39 2.301 . S
O40 C49 1.240 . S
O41 In39 2.330 . S
O41 C49 1.252 . S
C42 O45 1.252 1_455 S
C42 O46 1.260 . S
C43 O50 1.240 1_655 S
C43 O51 1.252 . S
C44 O47 1.252 . S
C44 O48 1.260 . S
O45 In39 2.268 . S
O45 C42 1.252 1_655 S
O46 In39 2.321 1_455 S
O46 C42 1.260 . S
O47 In39 2.260 1_455 S
O47 C44 1.252 . S
O48 In39 2.324 1_455 S
O48 C44 1.260 . S
C49 O40 1.240 . S
C49 O41 1.252 . S
O50 In39 2.291 1_455 S
O50 C43 1.240 1_455 S
O51 In39 2.329 . S
O51 C43 1.252 . S
In52 O53 2.293 . S
In52 O54 2.326 1_556 S
In52 O58 2.265 . S
In52 O59 2.326 1_556 S
In52 O60 2.265 . S
In52 O61 2.323 . S
In52 O63 2.296 1_556 S
In52 O64 2.329 1_556 S
O53 In52 2.293 . S
O53 C62 1.240 . S
O54 In52 2.326 1_554 S
O54 C62 1.245 1_554 S
C55 O58 1.252 . S
C55 O59 1.260 1_556 S
C56 O63 1.240 . S
C56 O64 1.252 . S
C57 O60 1.252 . S
C57 O61 1.260 . S
O58 In52 2.265 . S
O58 C55 1.252 . S
O59 In52 2.326 1_554 S
O59 C55 1.260 1_554 S
O60 In52 2.265 . S
O60 C57 1.252 . S
O61 In52 2.323 . S
O61 C57 1.260 . S
C62 O53 1.240 . S
C62 O54 1.245 1_556 S
O63 In52 2.296 1_554 S
O63 C56 1.240 . S
O64 In52 2.329 1_554 S
O64 C56 1.252 . S
In65 O66 2.296 1_456 S
In65 O67 2.329 1_556 S
In65 O71 2.265 1_455 S
In65 O72 2.323 1_455 S
In65 O73 2.265 . S
In65 O74 2.326 1_456 S
In65 O76 2.293 . S
In65 O77 2.326 1_556 S
O66 In65 2.296 1_654 S
O66 C75 1.240 1_655 S
O67 In65 2.329 1_554 S
O67 C75 1.252 . S
C68 O71 1.252 . S
C68 O72 1.260 . S
C69 O76 1.240 . S
C69 O77 1.245 1_556 S
C70 O73 1.252 1_655 S
C70 O74 1.260 1_556 S
O71 In65 2.265 1_655 S
O71 C68 1.252 . S
O72 In65 2.323 1_655 S
O72 C68 1.260 . S
O73 In65 2.265 . S
O73 C70 1.252 1_455 S
O74 In65 2.326 1_654 S
O74 C70 1.260 1_554 S
C75 O66 1.240 1_455 S
C75 O67 1.252 . S
O76 In65 2.293 . S
O76 C69 1.240 . S
O77 In65 2.326 1_554 S
O77 C69 1.245 1_554 S
In78 O79 2.294 . S
In78 O80 2.326 . S
In78 O84 2.266 . S
In78 O85 2.326 . S
In78 O86 2.266 . S
In78 O87 2.326 . S
In78 O89 2.294 . S
In78 O90 2.326 . S
O79 In78 2.294 . S
O79 C88 1.240 . S
O80 In78 2.326 . S
O80 C88 1.252 . S
C81 O84 1.252 . S
C81 O85 1.260 . S
C82 O89 1.240 . S
C82 O90 1.252 . S
C83 O86 1.252 . S
C83 O87 1.260 . S
O84 In78 2.266 . S
O84 C81 1.252 . S
O85 In78 2.326 . S
O85 C81 1.260 . S
O86 In78 2.266 . S
O86 C83 1.252 . S
O87 In78 2.326 . S
O87 C83 1.260 . S
C88 O79 1.240 . S
C88 O80 1.252 . S
O89 In78 2.294 . S
O89 C82 1.240 . S
O90 In78 2.326 . S
O90 C82 1.252 . S
In91 O92 2.291 1_455 S
In91 O93 2.329 . S
In91 O97 2.260 1_455 S
In91 O98 2.324 1_455 S
In91 O99 2.268 . S
In91 O100 2.321 1_455 S
In91 O102 2.301 . S
In91 O103 2.330 . S
O92 In91 2.291 1_655 S
O92 C101 1.240 1_655 S
O93 In91 2.329 . S
O93 C101 1.252 . S
C94 O97 1.252 . S
C94 O98 1.260 . S
C95 O102 1.240 . S
C95 O103 1.252 . S
C96 O99 1.252 1_655 S
C96 O100 1.260 . S
O97 In91 2.260 1_655 S
O97 C94 1.252 . S
O98 In91 2.324 1_655 S
O98 C94 1.260 . S
O99 In91 2.268 . S
O99 C96 1.252 1_455 S
O100 In91 2.321 1_655 S
O100 C96 1.260 . S
C101 O92 1.240 1_455 S
C101 O93 1.252 . S
O102 In91 2.301 . S
O102 C95 1.240 . S
O103 In91 2.330 . S
O103 C95 1.252 . S
In104 O105 2.294 . S
In104 O106 2.326 . S
In104 O110 2.266 . S
In104 O111 2.326 . S
In104 O112 2.266 . S
In104 O113 2.326 . S
In104 O115 2.294 . S
In104 O116 2.326 . S
O105 In104 2.294 . S
O105 C114 1.240 . S
O106 In104 2.326 . S
O106 C114 1.252 . S
C107 O110 1.252 . S
C107 O111 1.260 . S
C108 O115 1.240 . S
C108 O116 1.252 . S
C109 O112 1.252 . S
C109 O113 1.260 . S
O110 In104 2.266 . S
O110 C107 1.252 . S
O111 In104 2.326 . S
O111 C107 1.260 . S
O112 In104 2.266 . S
O112 C109 1.252 . S
O113 In104 2.326 . S
O113 C109 1.260 . S
C114 O105 1.240 . S
C114 O106 1.252 . S
O115 In104 2.294 . S
O115 C108 1.240 . S
O116 In104 2.326 . S
O116 C108 1.252 . S
In117 O118 2.294 1_655 S
In117 O119 2.326 . S
In117 O123 2.266 1_655 S
In117 O124 2.326 1_655 S
In117 O125 2.266 . S
In117 O126 2.326 1_655 S
In117 O128 2.294 . S
In117 O129 2.326 . S
O118 In117 2.294 1_455 S
O118 C127 1.240 1_455 S
O119 In117 2.326 . S
O119 C127 1.252 . S
C120 O123 1.252 . S
C120 O124 1.260 . S
C121 O128 1.240 . S
C121 O129 1.252 . S
C122 O125 1.252 1_455 S
C122 O126 1.260 . S
O123 In117 2.266 1_455 S
O123 C120 1.252 . S
O124 In117 2.326 1_455 S
O124 C120 1.260 . S
O125 In117 2.266 . S
O125 C122 1.252 1_655 S
O126 In117 2.326 1_455 S
O126 C122 1.260 . S
C127 O118 1.240 1_655 S
C127 O119 1.252 . S
O128 In117 2.294 . S
O128 C121 1.240 . S
O129 In117 2.326 . S
O129 C121 1.252 . S
In130 O131 2.294 . S
In130 O132 2.326 . S
In130 O136 2.266 . S
In130 O137 2.326 . S
In130 O138 2.266 . S
In130 O139 2.326 . S
In130 O141 2.294 . S
In130 O142 2.326 . S
O131 In130 2.294 . S
O131 C140 1.240 . S
O132 In130 2.326 . S
O132 C140 1.252 . S
C133 O136 1.252 . S
C133 O137 1.260 . S
C134 O141 1.240 . S
C134 O142 1.252 . S
C135 O138 1.252 . S
C135 O139 1.260 . S
O136 In130 2.266 . S
O136 C133 1.252 . S
O137 In130 2.326 . S
O137 C133 1.260 . S
O138 In130 2.266 . S
O138 C135 1.252 . S
O139 In130 2.326 . S
O139 C135 1.260 . S
C140 O131 1.240 . S
C140 O132 1.252 . S
O141 In130 2.294 . S
O141 C134 1.240 . S
O142 In130 2.326 . S
O142 C134 1.252 . S
In143 O144 2.294 1_655 S
In143 O145 2.326 . S
In143 O149 2.266 1_655 S
In143 O150 2.326 1_655 S
In143 O151 2.266 . S
In143 O152 2.326 1_655 S
In143 O154 2.294 . S
In143 O155 2.326 . S
O144 In143 2.294 1_455 S
O144 C153 1.240 1_455 S
O145 In143 2.326 . S
O145 C153 1.252 . S
C146 O149 1.252 . S
C146 O150 1.260 . S
C147 O154 1.240 . S
C147 O155 1.252 . S
C148 O151 1.252 1_455 S
C148 O152 1.260 . S
O149 In143 2.266 1_455 S
O149 C146 1.252 . S
O150 In143 2.326 1_455 S
O150 C146 1.260 . S
O151 In143 2.266 . S
O151 C148 1.252 1_655 S
O152 In143 2.326 1_455 S
O152 C148 1.260 . S
C153 O144 1.240 1_655 S
C153 O145 1.252 . S
O154 In143 2.294 . S
O154 C147 1.240 . S
O155 In143 2.326 . S
O155 C147 1.252 . S
In156 O157 2.294 . S
In156 O158 2.326 . S
In156 O162 2.266 . S
In156 O163 2.326 . S
In156 O164 2.266 . S
In156 O165 2.326 . S
In156 O167 2.294 . S
In156 O168 2.326 . S
O157 In156 2.294 . S
O157 C166 1.240 . S
O158 In156 2.326 . S
O158 C166 1.252 . S
C159 O162 1.252 . S
C159 O163 1.260 . S
C160 O167 1.240 . S
C160 O168 1.252 . S
C161 O164 1.252 . S
C161 O165 1.260 . S
O162 In156 2.266 . S
O162 C159 1.252 . S
O163 In156 2.326 . S
O163 C159 1.260 . S
O164 In156 2.266 . S
O164 C161 1.252 . S
O165 In156 2.326 . S
O165 C161 1.260 . S
C166 O157 1.240 . S
C166 O158 1.252 . S
O167 In156 2.294 . S
O167 C160 1.240 . S
O168 In156 2.326 . S
O168 C160 1.252 . S
In169 O170 2.294 1_455 S
In169 O171 2.326 . S
In169 O175 2.266 1_455 S
In169 O176 2.326 1_455 S
In169 O177 2.266 . S
In169 O178 2.326 1_455 S
In169 O180 2.294 . S
In169 O181 2.326 . S
O170 In169 2.294 1_655 S
O170 C179 1.240 1_655 S
O171 In169 2.326 . S
O171 C179 1.252 . S
C172 O175 1.252 . S
C172 O176 1.260 . S
C173 O180 1.240 . S
C173 O181 1.252 . S
C174 O177 1.252 1_655 S
C174 O178 1.260 . S
O175 In169 2.266 1_655 S
O175 C172 1.252 . S
O176 In169 2.326 1_655 S
O176 C172 1.260 . S
O177 In169 2.266 . S
O177 C174 1.252 1_455 S
O178 In169 2.326 1_655 S
O178 C174 1.260 . S
C179 O170 1.240 1_455 S
C179 O171 1.252 . S
O180 In169 2.294 . S
O180 C173 1.240 . S
O181 In169 2.326 . S
O181 C173 1.252 . S
In182 O183 2.294 . S
In182 O184 2.326 . S
In182 O188 2.266 . S
In182 O189 2.326 . S
In182 O190 2.266 . S
In182 O191 2.326 . S
In182 O193 2.294 . S
In182 O194 2.326 . S
O183 In182 2.294 . S
O183 C192 1.240 . S
O184 In182 2.326 . S
O184 C192 1.252 . S
C185 O188 1.252 . S
C185 O189 1.260 . S
C186 O193 1.240 . S
C186 O194 1.252 . S
C187 O190 1.252 . S
C187 O191 1.260 . S
O188 In182 2.266 . S
O188 C185 1.252 . S
O189 In182 2.326 . S
O189 C185 1.260 . S
O190 In182 2.266 . S
O190 C187 1.252 . S
O191 In182 2.326 . S
O191 C187 1.260 . S
C192 O183 1.240 . S
C192 O184 1.252 . S
O193 In182 2.294 . S
O193 C186 1.240 . S
O194 In182 2.326 . S
O194 C186 1.252 . S
In195 O196 2.294 . S
In195 O197 2.326 . S
In195 O201 2.266 . S
In195 O202 2.326 1_455 S
In195 O203 2.266 1_455 S
In195 O204 2.326 1_455 S
In195 O206 2.294 1_455 S
In195 O207 2.326 . S
O196 In195 2.294 . S
O196 C205 1.240 . S
O197 In195 2.326 . S
O197 C205 1.252 . S
C198 O201 1.252 1_655 S
C198 O202 1.260 . S
C199 O206 1.240 1_455 S
C199 O207 1.252 . S
C200 O203 1.252 . S
C200 O204 1.260 . S
O201 In195 2.266 . S
O201 C198 1.252 1_455 S
O202 In195 2.326 1_655 S
O202 C198 1.260 . S
O203 In195 2.266 1_655 S
O203 C200 1.252 . S
O204 In195 2.326 1_655 S
O204 C200 1.260 . S
C205 O196 1.240 . S
C205 O197 1.252 . S
O206 In195 2.294 1_655 S
O206 C199 1.240 1_655 S
O207 In195 2.326 . S
O207 C199 1.252 . S
In208 O209 2.294 . S
In208 O210 2.326 . S
In208 O214 2.266 . S
In208 O215 2.326 . S
In208 O216 2.266 . S
In208 O217 2.326 . S
In208 O219 2.294 . S
In208 O220 2.326 . S
O209 In208 2.294 . S
O209 C218 1.240 . S
O210 In208 2.326 . S
O210 C218 1.252 . S
C211 O214 1.252 . S
C211 O215 1.260 . S
C212 O219 1.240 . S
C212 O220 1.252 . S
C213 O216 1.252 . S
C213 O217 1.260 . S
O214 In208 2.266 . S
O214 C211 1.252 . S
O215 In208 2.326 . S
O215 C211 1.260 . S
O216 In208 2.266 . S
O216 C213 1.252 . S
O217 In208 2.326 . S
O217 C213 1.260 . S
C218 O209 1.240 . S
C218 O210 1.252 . S
O219 In208 2.294 . S
O219 C212 1.240 . S
O220 In208 2.326 . S
O220 C212 1.252 . S
In221 O222 2.294 . S
In221 O223 2.326 . S
In221 O227 2.266 . S
In221 O228 2.326 . S
In221 O229 2.266 . S
In221 O230 2.326 . S
In221 O232 2.294 . S
In221 O233 2.326 . S
O222 In221 2.294 . S
O222 C231 1.240 . S
O223 In221 2.326 . S
O223 C231 1.252 . S
C224 O227 1.252 . S
C224 O228 1.260 . S
C225 O232 1.240 . S
C225 O233 1.252 . S
C226 O229 1.252 . S
C226 O230 1.260 . S
O227 In221 2.266 . S
O227 C224 1.252 . S
O228 In221 2.326 . S
O228 C224 1.260 . S
O229 In221 2.266 . S
O229 C226 1.252 . S
O230 In221 2.326 . S
O230 C226 1.260 . S
C231 O222 1.240 . S
C231 O223 1.252 . S
O232 In221 2.294 . S
O232 C225 1.240 . S
O233 In221 2.326 . S
O233 C225 1.252 . S
In234 O235 2.294 . S
In234 O236 2.326 . S
In234 O240 2.266 . S
In234 O241 2.326 . S
In234 O242 2.266 . S
In234 O243 2.326 . S
In234 O245 2.294 . S
In234 O246 2.326 . S
O235 In234 2.294 . S
O235 C244 1.240 . S
O236 In234 2.326 . S
O236 C244 1.252 . S
C237 O240 1.252 . S
C237 O241 1.260 . S
C238 O245 1.240 . S
C238 O246 1.252 . S
C239 O242 1.252 . S
C239 O243 1.260 . S
O240 In234 2.266 . S
O240 C237 1.252 . S
O241 In234 2.326 . S
O241 C237 1.260 . S
O242 In234 2.266 . S
O242 C239 1.252 . S
O243 In234 2.326 . S
O243 C239 1.260 . S
C244 O235 1.240 . S
C244 O236 1.252 . S
O245 In234 2.294 . S
O245 C238 1.240 . S
O246 In234 2.326 . S
O246 C238 1.252 . S
In247 O248 2.294 . S
In247 O249 2.326 . S
In247 O253 2.266 . S
In247 O254 2.326 . S
In247 O255 2.266 . S
In247 O256 2.326 . S
In247 O258 2.294 . S
In247 O259 2.326 . S
O248 In247 2.294 . S
O248 C257 1.240 . S
O249 In247 2.326 . S
O249 C257 1.252 . S
C250 O253 1.252 . S
C250 O254 1.260 . S
C251 O258 1.240 . S
C251 O259 1.252 . S
C252 O255 1.252 . S
C252 O256 1.260 . S
O253 In247 2.266 . S
O253 C250 1.252 . S
O254 In247 2.326 . S
O254 C250 1.260 . S
O255 In247 2.266 . S
O255 C252 1.252 . S
O256 In247 2.326 . S
O256 C252 1.260 . S
C257 O248 1.240 . S
C257 O249 1.252 . S
O258 In247 2.294 . S
O258 C251 1.240 . S
O259 In247 2.326 . S
O259 C251 1.252 . S
In260 O261 2.294 . S
In260 O262 2.326 . S
In260 O266 2.266 . S
In260 O267 2.326 . S
In260 O268 2.266 . S
In260 O269 2.326 . S
In260 O271 2.294 . S
In260 O272 2.326 . S
O261 In260 2.294 . S
O261 C270 1.240 . S
O262 In260 2.326 . S
O262 C270 1.252 . S
C263 O266 1.252 . S
C263 O267 1.260 . S
C264 O271 1.240 . S
C264 O272 1.252 . S
C265 O268 1.252 . S
C265 O269 1.260 . S
O266 In260 2.266 . S
O266 C263 1.252 . S
O267 In260 2.326 . S
O267 C263 1.260 . S
O268 In260 2.266 . S
O268 C265 1.252 . S
O269 In260 2.326 . S
O269 C265 1.260 . S
C270 O261 1.240 . S
C270 O262 1.252 . S
O271 In260 2.294 . S
O271 C264 1.240 . S
O272 In260 2.326 . S
O272 C264 1.252 . S
In273 O274 2.294 . S
In273 O275 2.326 . S
In273 O279 2.266 . S
In273 O280 2.326 . S
In273 O281 2.266 . S
In273 O282 2.326 . S
In273 O284 2.294 . S
In273 O285 2.326 . S
O274 In273 2.294 . S
O274 C283 1.240 . S
O275 In273 2.326 . S
O275 C283 1.252 . S
C276 O279 1.252 . S
C276 O280 1.260 . S
C277 O284 1.240 . S
C277 O285 1.252 . S
C278 O281 1.252 . S
C278 O282 1.260 . S
O279 In273 2.266 . S
O279 C276 1.252 . S
O280 In273 2.326 . S
O280 C276 1.260 . S
O281 In273 2.266 . S
O281 C278 1.252 . S
O282 In273 2.326 . S
O282 C278 1.260 . S
C283 O274 1.240 . S
C283 O275 1.252 . S
O284 In273 2.294 . S
O284 C277 1.240 . S
O285 In273 2.326 . S
O285 C277 1.252 . S
In286 O287 2.294 . S
In286 O288 2.326 . S
In286 O292 2.266 . S
In286 O293 2.326 . S
In286 O294 2.266 . S
In286 O295 2.326 . S
In286 O297 2.294 . S
In286 O298 2.326 . S
O287 In286 2.294 . S
O287 C296 1.240 . S
O288 In286 2.326 . S
O288 C296 1.252 . S
C289 O292 1.252 . S
C289 O293 1.260 . S
C290 O297 1.240 . S
C290 O298 1.252 . S
C291 O294 1.252 . S
C291 O295 1.260 . S
O292 In286 2.266 . S
O292 C289 1.252 . S
O293 In286 2.326 . S
O293 C289 1.260 . S
O294 In286 2.266 . S
O294 C291 1.252 . S
O295 In286 2.326 . S
O295 C291 1.260 . S
C296 O287 1.240 . S
C296 O288 1.252 . S
O297 In286 2.294 . S
O297 C290 1.240 . S
O298 In286 2.326 . S
O298 C290 1.252 . S
In299 O300 2.294 . S
In299 O301 2.326 . S
In299 O305 2.266 . S
In299 O306 2.326 . S
In299 O307 2.266 . S
In299 O308 2.326 . S
In299 O310 2.294 . S
In299 O311 2.326 . S
O300 In299 2.294 . S
O300 C309 1.240 . S
O301 In299 2.326 . S
O301 C309 1.252 . S
C302 O305 1.252 . S
C302 O306 1.260 . S
C303 O310 1.240 . S
C303 O311 1.252 . S
C304 O307 1.252 . S
C304 O308 1.260 . S
O305 In299 2.266 . S
O305 C302 1.252 . S
O306 In299 2.326 . S
O306 C302 1.260 . S
O307 In299 2.266 . S
O307 C304 1.252 . S
O308 In299 2.326 . S
O308 C304 1.260 . S
C309 O300 1.240 . S
C309 O301 1.252 . S
O310 In299 2.294 . S
O310 C303 1.240 . S
O311 In299 2.326 . S
O311 C303 1.252 . S
In312 O313 2.293 . S
In312 O314 2.326 1_554 S
In312 O318 2.265 . S
In312 O319 2.326 1_554 S
In312 O320 2.265 . S
In312 O321 2.323 . S
In312 O323 2.296 1_554 S
In312 O324 2.329 1_554 S
O313 In312 2.293 . S
O313 C322 1.240 . S
O314 In312 2.326 1_556 S
O314 C322 1.245 1_556 S
C315 O318 1.252 . S
C315 O319 1.260 1_554 S
C316 O323 1.240 . S
C316 O324 1.252 . S
C317 O320 1.252 . S
C317 O321 1.260 . S
O318 In312 2.265 . S
O318 C315 1.252 . S
O319 In312 2.326 1_556 S
O319 C315 1.260 1_556 S
O320 In312 2.265 . S
O320 C317 1.252 . S
O321 In312 2.323 . S
O321 C317 1.260 . S
C322 O313 1.240 . S
C322 O314 1.245 1_554 S
O323 In312 2.296 1_556 S
O323 C316 1.240 . S
O324 In312 2.329 1_556 S
O324 C316 1.252 . S
In325 O326 2.296 1_554 S
In325 O327 2.329 1_554 S
In325 O331 2.265 . S
In325 O332 2.323 . S
In325 O333 2.265 . S
In325 O334 2.326 1_554 S
In325 O336 2.293 . S
In325 O337 2.326 1_554 S
O326 In325 2.296 1_556 S
O326 C335 1.240 . S
O327 In325 2.329 1_556 S
O327 C335 1.252 . S
C328 O331 1.252 . S
C328 O332 1.260 . S
C329 O336 1.240 . S
C329 O337 1.245 1_554 S
C330 O333 1.252 . S
C330 O334 1.260 1_554 S
O331 In325 2.265 . S
O331 C328 1.252 . S
O332 In325 2.323 . S
O332 C328 1.260 . S
O333 In325 2.265 . S
O333 C330 1.252 . S
O334 In325 2.326 1_556 S
O334 C330 1.260 1_556 S
C335 O326 1.240 . S
C335 O327 1.252 . S
O336 In325 2.293 . S
O336 C329 1.240 . S
O337 In325 2.326 1_556 S
O337 C329 1.245 1_556 S
In338 O339 2.294 . S
In338 O340 2.326 . S
In338 O344 2.266 . S
In338 O345 2.326 . S
In338 O346 2.266 . S
In338 O347 2.326 . S
In338 O349 2.294 . S
In338 O350 2.326 . S
O339 In338 2.294 . S
O339 C348 1.240 . S
O340 In338 2.326 . S
O340 C348 1.252 . S
C341 O344 1.252 . S
C341 O345 1.260 . S
C342 O349 1.240 . S
C342 O350 1.252 . S
C343 O346 1.252 . S
C343 O347 1.260 . S
O344 In338 2.266 . S
O344 C341 1.252 . S
O345 In338 2.326 . S
O345 C341 1.260 . S
O346 In338 2.266 . S
O346 C343 1.252 . S
O347 In338 2.326 . S
O347 C343 1.260 . S
C348 O339 1.240 . S
C348 O340 1.252 . S
O349 In338 2.294 . S
O349 C342 1.240 . S
O350 In338 2.326 . S
O350 C342 1.252 . S
In351 O352 2.294 . S
In351 O353 2.326 . S
In351 O357 2.266 . S
In351 O358 2.326 . S
In351 O359 2.266 . S
In351 O360 2.326 . S
In351 O362 2.294 . S
In351 O363 2.326 . S
O352 In351 2.294 . S
O352 C361 1.240 . S
O353 In351 2.326 . S
O353 C361 1.252 . S
C354 O357 1.252 . S
C354 O358 1.260 . S
C355 O362 1.240 . S
C355 O363 1.252 . S
C356 O359 1.252 . S
C356 O360 1.260 . S
O357 In351 2.266 . S
O357 C354 1.252 . S
O358 In351 2.326 . S
O358 C354 1.260 . S
O359 In351 2.266 . S
O359 C356 1.252 . S
O360 In351 2.326 . S
O360 C356 1.260 . S
C361 O352 1.240 . S
C361 O353 1.252 . S
O362 In351 2.294 . S
O362 C355 1.240 . S
O363 In351 2.326 . S
O363 C355 1.252 . S
In364 O365 2.296 1_556 S
In364 O366 2.329 1_556 S
In364 O370 2.265 . S
In364 O371 2.323 . S
In364 O372 2.265 . S
In364 O373 2.326 1_556 S
In364 O375 2.293 . S
In364 O376 2.326 1_556 S
O365 In364 2.296 1_554 S
O365 C374 1.240 . S
O366 In364 2.329 1_554 S
O366 C374 1.252 . S
C367 O370 1.252 . S
C367 O371 1.260 . S
C368 O375 1.240 . S
C368 O376 1.245 1_556 S
C369 O372 1.252 . S
C369 O373 1.260 1_556 S
O370 In364 2.265 . S
O370 C367 1.252 . S
O371 In364 2.323 . S
O371 C367 1.260 . S
O372 In364 2.265 . S
O372 C369 1.252 . S
O373 In364 2.326 1_554 S
O373 C369 1.260 1_554 S
C374 O365 1.240 . S
C374 O366 1.252 . S
O375 In364 2.293 . S
O375 C368 1.240 . S
O376 In364 2.326 1_554 S
O376 C368 1.245 1_554 S
In377 O378 2.293 . S
In377 O379 2.326 1_556 S
In377 O383 2.265 . S
In377 O384 2.326 1_556 S
In377 O385 2.265 . S
In377 O386 2.323 . S
In377 O388 2.296 1_556 S
In377 O389 2.329 1_556 S
O378 In377 2.293 . S
O378 C387 1.240 . S
O379 In377 2.326 1_554 S
O379 C387 1.245 1_554 S
C380 O383 1.252 . S
C380 O384 1.260 1_556 S
C381 O388 1.240 . S
C381 O389 1.252 . S
C382 O385 1.252 . S
C382 O386 1.260 . S
O383 In377 2.265 . S
O383 C380 1.252 . S
O384 In377 2.326 1_554 S
O384 C380 1.260 1_554 S
O385 In377 2.265 . S
O385 C382 1.252 . S
O386 In377 2.323 . S
O386 C382 1.260 . S
C387 O378 1.240 . S
C387 O379 1.245 1_556 S
O388 In377 2.296 1_554 S
O388 C381 1.240 . S
O389 In377 2.329 1_554 S
O389 C381 1.252 . S
In390 O391 2.294 . S
In390 O392 2.326 . S
In390 O396 2.266 . S
In390 O397 2.326 . S
In390 O398 2.266 . S
In390 O399 2.326 . S
In390 O401 2.294 . S
In390 O402 2.326 . S
O391 In390 2.294 . S
O391 C400 1.240 . S
O392 In390 2.326 . S
O392 C400 1.252 . S
C393 O396 1.252 . S
C393 O397 1.260 . S
C394 O401 1.240 . S
C394 O402 1.252 . S
C395 O398 1.252 . S
C395 O399 1.260 . S
O396 In390 2.266 . S
O396 C393 1.252 . S
O397 In390 2.326 . S
O397 C393 1.260 . S
O398 In390 2.266 . S
O398 C395 1.252 . S
O399 In390 2.326 . S
O399 C395 1.260 . S
C400 O391 1.240 . S
C400 O392 1.252 . S
O401 In390 2.294 . S
O401 C394 1.240 . S
O402 In390 2.326 . S
O402 C394 1.252 . S
In403 O404 2.294 . S
In403 O405 2.326 . S
In403 O409 2.266 . S
In403 O410 2.326 . S
In403 O411 2.266 . S
In403 O412 2.326 . S
In403 O414 2.294 . S
In403 O415 2.326 . S
O404 In403 2.294 . S
O404 C413 1.240 . S
O405 In403 2.326 . S
O405 C413 1.252 . S
C406 O409 1.252 . S
C406 O410 1.260 . S
C407 O414 1.240 . S
C407 O415 1.252 . S
C408 O411 1.252 . S
C408 O412 1.260 . S
O409 In403 2.266 . S
O409 C406 1.252 . S
O410 In403 2.326 . S
O410 C406 1.260 . S
O411 In403 2.266 . S
O411 C408 1.252 . S
O412 In403 2.326 . S
O412 C408 1.260 . S
C413 O404 1.240 . S
C413 O405 1.252 . S
O414 In403 2.294 . S
O414 C407 1.240 . S
O415 In403 2.326 . S
O415 C407 1.252 . S
H416 C422 0.930 . S
H417 C425 0.930 . S
H418 C426 0.930 . S
H419 C427 0.930 . S
H420 C430 0.930 . S
H421 C431 0.930 . S
C422 H416 0.930 . S
C422 C423 1.355 . S
C422 C424 1.415 . S
C423 C422 1.355 . S
C423 C425 1.419 . S
C424 C422 1.415 . S
C424 C429 1.425 . S
C424 C431 1.409 . S
C425 H417 0.930 . S
C425 C423 1.419 . S
C425 C426 1.362 . S
C426 H418 0.930 . S
C426 C425 1.362 . S
C426 C429 1.409 . S
C427 H419 0.930 . S
C427 C428 1.355 . S
C427 C429 1.415 . S
C428 C427 1.355 . S
C428 C430 1.419 . S
C429 C424 1.425 . S
C429 C426 1.409 . S
C429 C427 1.415 . S
C430 H420 0.930 . S
C430 C428 1.419 . S
C430 C431 1.362 . S
C431 H421 0.930 . S
C431 C424 1.409 . S
C431 C430 1.362 . S
H432 C438 0.930 . S
H433 C441 0.930 . S
H434 C442 0.930 . S
H435 C443 0.930 . S
H436 C446 0.930 . S
H437 C447 0.921 1_655 S
C438 H432 0.930 . S
C438 C439 1.355 . S
C438 C440 1.415 . S
C439 C438 1.355 . S
C439 C441 1.419 . S
C440 C438 1.415 . S
C440 C445 1.425 . S
C440 C447 1.409 . S
C441 H433 0.930 . S
C441 C439 1.419 . S
C441 C442 1.362 . S
C442 H434 0.930 . S
C442 C441 1.362 . S
C442 C445 1.409 . S
C443 H435 0.930 . S
C443 C444 1.355 . S
C443 C445 1.415 . S
C444 C443 1.355 . S
C444 C446 1.419 . S
C445 C440 1.425 . S
C445 C442 1.409 . S
C445 C443 1.415 . S
C446 H436 0.930 . S
C446 C444 1.419 . S
C446 C447 1.362 . S
C447 H437 0.921 1_455 S
C447 C440 1.409 . S
C447 C446 1.362 . S
H448 C454 0.930 . S
H449 C457 0.930 . S
H450 C458 0.930 . S
H451 C459 0.930 . S
H452 C462 0.930 . S
H453 C463 0.930 . S
C454 H448 0.930 . S
C454 C455 1.355 . S
C454 C456 1.415 . S
C455 C454 1.355 . S
C455 C457 1.419 . S
C456 C454 1.415 . S
C456 C461 1.425 . S
C456 C463 1.409 . S
C457 H449 0.930 . S
C457 C455 1.419 . S
C457 C458 1.362 . S
C458 H450 0.930 . S
C458 C457 1.362 . S
C458 C461 1.409 . S
C459 H451 0.930 . S
C459 C460 1.355 . S
C459 C461 1.415 . S
C460 C459 1.355 . S
C460 C462 1.419 . S
C461 C456 1.425 . S
C461 C458 1.409 . S
C461 C459 1.415 . S
C462 H452 0.930 . S
C462 C460 1.419 . S
C462 C463 1.362 . S
C463 H453 0.930 . S
C463 C456 1.409 . S
C463 C462 1.362 . S
H464 C470 0.930 . S
H465 C473 0.930 . S
H466 C474 0.930 1_455 S
H467 C475 0.930 . S
H468 C478 0.930 . S
H469 C479 0.930 . S
C470 H464 0.930 . S
C470 C471 1.355 . S
C470 C472 1.415 . S
C471 C470 1.355 . S
C471 C473 1.419 . S
C472 C470 1.415 . S
C472 C477 1.425 . S
C472 C479 1.409 . S
C473 H465 0.930 . S
C473 C471 1.419 . S
C473 C474 1.362 . S
C474 H466 0.930 1_655 S
C474 C473 1.362 . S
C474 C477 1.409 . S
C475 H467 0.930 . S
C475 C476 1.355 . S
C475 C477 1.415 . S
C476 C475 1.355 . S
C476 C478 1.419 . S
C477 C472 1.425 . S
C477 C474 1.409 . S
C477 C475 1.415 . S
C478 H468 0.930 . S
C478 C476 1.419 . S
C478 C479 1.362 . S
C479 H469 0.930 . S
C479 C472 1.409 . S
C479 C478 1.362 . S
H480 C486 0.930 . S
H481 C489 0.930 . S
H482 C490 0.930 . S
H483 C491 0.930 . S
H484 C494 0.930 . S
H485 C495 0.930 1_655 S
C486 H480 0.930 . S
C486 C487 1.355 . S
C486 C488 1.415 . S
C487 C486 1.355 . S
C487 C489 1.419 . S
C488 C486 1.415 . S
C488 C493 1.425 . S
C488 C495 1.409 . S
C489 H481 0.930 . S
C489 C487 1.419 . S
C489 C490 1.362 . S
C490 H482 0.930 . S
C490 C489 1.362 . S
C490 C493 1.409 . S
C491 H483 0.930 . S
C491 C492 1.355 . S
C491 C493 1.415 . S
C492 C491 1.355 . S
C492 C494 1.419 . S
C493 C488 1.425 . S
C493 C490 1.409 . S
C493 C491 1.415 . S
C494 H484 0.930 . S
C494 C492 1.419 . S
C494 C495 1.362 . S
C495 H485 0.930 1_455 S
C495 C488 1.409 . S
C495 C494 1.362 . S
H496 C502 0.930 . S
H497 C505 0.930 . S
H498 C506 0.930 1_655 S
H499 C507 0.930 . S
H500 C510 0.930 . S
H501 C511 0.930 . S
C502 H496 0.930 . S
C502 C503 1.355 . S
C502 C504 1.415 . S
C503 C502 1.355 . S
C503 C505 1.419 . S
C504 C502 1.415 . S
C504 C509 1.425 . S
C504 C511 1.409 . S
C505 H497 0.930 . S
C505 C503 1.419 . S
C505 C506 1.362 . S
C506 H498 0.930 1_455 S
C506 C505 1.362 . S
C506 C509 1.409 . S
C507 H499 0.930 . S
C507 C508 1.355 . S
C507 C509 1.415 . S
C508 C507 1.355 . S
C508 C510 1.419 . S
C509 C504 1.425 . S
C509 C506 1.409 . S
C509 C507 1.415 . S
C510 H500 0.930 . S
C510 C508 1.419 . S
C510 C511 1.362 . S
C511 H501 0.930 . S
C511 C504 1.409 . S
C511 C510 1.362 . S
H512 C518 0.930 . S
H513 C521 0.930 . S
H514 C522 0.930 . S
H515 C523 0.930 . S
H516 C526 0.930 . S
H517 C527 0.930 . S
C518 H512 0.930 . S
C518 C519 1.355 . S
C518 C520 1.415 . S
C519 C518 1.355 . S
C519 C521 1.419 . S
C520 C518 1.415 . S
C520 C525 1.425 . S
C520 C527 1.409 . S
C521 H513 0.930 . S
C521 C519 1.419 . S
C521 C522 1.362 . S
C522 H514 0.930 . S
C522 C521 1.362 . S
C522 C525 1.409 . S
C523 H515 0.930 . S
C523 C524 1.355 . S
C523 C525 1.415 . S
C524 C523 1.355 . S
C524 C526 1.419 . S
C525 C520 1.425 . S
C525 C522 1.409 . S
C525 C523 1.415 . S
C526 H516 0.930 . S
C526 C524 1.419 . S
C526 C527 1.362 . S
C527 H517 0.930 . S
C527 C520 1.409 . S
C527 C526 1.362 . S
H528 C534 0.930 . S
H529 C537 0.930 . S
H530 C538 0.930 . S
H531 C539 0.930 . S
H532 C542 0.930 . S
H533 C543 0.930 . S
C534 H528 0.930 . S
C534 C535 1.355 . S
C534 C536 1.415 . S
C535 C534 1.355 . S
C535 C537 1.419 . S
C536 C534 1.415 . S
C536 C541 1.425 . S
C536 C543 1.409 . S
C537 H529 0.930 . S
C537 C535 1.419 . S
C537 C538 1.362 . S
C538 H530 0.930 . S
C538 C537 1.362 . S
C538 C541 1.409 . S
C539 H531 0.930 . S
C539 C540 1.355 . S
C539 C541 1.415 . S
C540 C539 1.355 . S
C540 C542 1.419 . S
C541 C536 1.425 . S
C541 C538 1.409 . S
C541 C539 1.415 . S
C542 H532 0.930 . S
C542 C540 1.419 . S
C542 C543 1.362 . S
C543 H533 0.930 . S
C543 C536 1.409 . S
C543 C542 1.362 . S
H544 C550 0.930 . S
H545 C553 0.930 . S
H546 C554 0.930 . S
H547 C555 0.930 . S
H548 C558 0.930 . S
H549 C559 0.930 . S
C550 H544 0.930 . S
C550 C551 1.355 . S
C550 C552 1.415 . S
C551 C550 1.355 . S
C551 C553 1.419 . S
C552 C550 1.415 . S
C552 C557 1.425 . S
C552 C559 1.409 . S
C553 H545 0.930 . S
C553 C551 1.419 . S
C553 C554 1.362 . S
C554 H546 0.930 . S
C554 C553 1.362 . S
C554 C557 1.409 . S
C555 H547 0.930 . S
C555 C556 1.355 . S
C555 C557 1.415 . S
C556 C555 1.355 . S
C556 C558 1.419 . S
C557 C552 1.425 . S
C557 C554 1.409 . S
C557 C555 1.415 . S
C558 H548 0.930 . S
C558 C556 1.419 . S
C558 C559 1.362 . S
C559 H549 0.930 . S
C559 C552 1.409 . S
C559 C558 1.362 . S
H560 C566 0.930 . S
H561 C569 0.930 . S
H562 C570 0.930 . S
H563 C571 0.930 . S
H564 C574 0.930 . S
H565 C575 0.930 . S
C566 H560 0.930 . S
C566 C567 1.355 . S
C566 C568 1.415 . S
C567 C566 1.355 . S
C567 C569 1.419 . S
C568 C566 1.415 . S
C568 C573 1.425 . S
C568 C575 1.409 . S
C569 H561 0.930 . S
C569 C567 1.419 . S
C569 C570 1.362 . S
C570 H562 0.930 . S
C570 C569 1.362 . S
C570 C573 1.409 . S
C571 H563 0.930 . S
C571 C572 1.355 . S
C571 C573 1.415 . S
C572 C571 1.355 . S
C572 C574 1.419 . S
C573 C568 1.425 . S
C573 C570 1.409 . S
C573 C571 1.415 . S
C574 H564 0.930 . S
C574 C572 1.419 . S
C574 C575 1.362 . S
C575 H565 0.930 . S
C575 C568 1.409 . S
C575 C574 1.362 . S
H576 C582 0.930 . S
H577 C585 0.930 . S
H578 C586 0.930 . S
H579 C587 0.930 . S
H580 C590 0.930 . S
H581 C591 0.930 . S
C582 H576 0.930 . S
C582 C583 1.355 . S
C582 C584 1.415 . S
C583 C582 1.355 . S
C583 C585 1.419 . S
C584 C582 1.415 . S
C584 C589 1.425 . S
C584 C591 1.409 . S
C585 H577 0.930 . S
C585 C583 1.419 . S
C585 C586 1.362 . S
C586 H578 0.930 . S
C586 C585 1.362 . S
C586 C589 1.409 . S
C587 H579 0.930 . S
C587 C588 1.355 . S
C587 C589 1.415 . S
C588 C587 1.355 . S
C588 C590 1.419 . S
C589 C584 1.425 . S
C589 C586 1.409 . S
C589 C587 1.415 . S
C590 H580 0.930 . S
C590 C588 1.419 . S
C590 C591 1.362 . S
C591 H581 0.930 . S
C591 C584 1.409 . S
C591 C590 1.362 . S
H592 C598 0.930 . S
H593 C601 0.930 . S
H594 C602 0.930 . S
H595 C603 0.930 . S
H596 C606 0.930 . S
H597 C607 0.930 . S
C598 H592 0.930 . S
C598 C599 1.355 . S
C598 C600 1.415 . S
C599 C598 1.355 . S
C599 C601 1.419 . S
C600 C598 1.415 . S
C600 C605 1.425 . S
C600 C607 1.409 . S
C601 H593 0.930 . S
C601 C599 1.419 . S
C601 C602 1.362 . S
C602 H594 0.930 . S
C602 C601 1.362 . S
C602 C605 1.409 . S
C603 H595 0.930 . S
C603 C604 1.355 . S
C603 C605 1.415 . S
C604 C603 1.355 . S
C604 C606 1.419 . S
C605 C600 1.425 . S
C605 C602 1.409 . S
C605 C603 1.415 . S
C606 H596 0.930 . S
C606 C604 1.419 . S
C606 C607 1.362 . S
C607 H597 0.930 . S
C607 C600 1.409 . S
C607 C606 1.362 . S
H608 C614 0.930 . S
H609 C617 0.930 . S
H610 C618 0.930 . S
H611 C619 0.930 . S
H612 C622 0.930 . S
H613 C623 0.930 . S
C614 H608 0.930 . S
C614 C615 1.355 . S
C614 C616 1.415 . S
C615 C614 1.355 . S
C615 C617 1.419 . S
C616 C614 1.415 . S
C616 C621 1.425 . S
C616 C623 1.409 . S
C617 H609 0.930 . S
C617 C615 1.419 . S
C617 C618 1.362 . S
C618 H610 0.930 . S
C618 C617 1.362 . S
C618 C621 1.409 . S
C619 H611 0.930 . S
C619 C620 1.355 . S
C619 C621 1.415 . S
C620 C619 1.355 . S
C620 C622 1.419 . S
C621 C616 1.425 . S
C621 C618 1.409 . S
C621 C619 1.415 . S
C622 H612 0.930 . S
C622 C620 1.419 . S
C622 C623 1.362 . S
C623 H613 0.930 . S
C623 C616 1.409 . S
C623 C622 1.362 . S
H624 C630 0.930 . S
H625 C633 0.930 . S
H626 C634 0.930 . S
H627 C635 0.930 . S
H628 C638 0.930 . S
H629 C639 0.930 . S
C630 H624 0.930 . S
C630 C631 1.355 . S
C630 C632 1.415 . S
C631 C630 1.355 . S
C631 C633 1.419 . S
C632 C630 1.415 . S
C632 C637 1.425 . S
C632 C639 1.409 . S
C633 H625 0.930 . S
C633 C631 1.419 . S
C633 C634 1.362 . S
C634 H626 0.930 . S
C634 C633 1.362 . S
C634 C637 1.409 . S
C635 H627 0.930 . S
C635 C636 1.355 . S
C635 C637 1.415 . S
C636 C635 1.355 . S
C636 C638 1.419 . S
C637 C632 1.425 . S
C637 C634 1.409 . S
C637 C635 1.415 . S
C638 H628 0.930 . S
C638 C636 1.419 . S
C638 C639 1.362 . S
C639 H629 0.930 . S
C639 C632 1.409 . S
C639 C638 1.362 . S
H640 C646 0.930 . S
H641 C649 0.930 . S
H642 C650 0.930 . S
H643 C651 0.930 . S
H644 C654 0.930 . S
H645 C655 0.930 . S
C646 H640 0.930 . S
C646 C647 1.355 . S
C646 C648 1.415 . S
C647 C646 1.355 . S
C647 C649 1.419 . S
C648 C646 1.415 . S
C648 C653 1.425 . S
C648 C655 1.409 . S
C649 H641 0.930 . S
C649 C647 1.419 . S
C649 C650 1.362 . S
C650 H642 0.930 . S
C650 C649 1.362 . S
C650 C653 1.409 . S
C651 H643 0.930 . S
C651 C652 1.355 . S
C651 C653 1.415 . S
C652 C651 1.355 . S
C652 C654 1.419 . S
C653 C648 1.425 . S
C653 C650 1.409 . S
C653 C651 1.415 . S
C654 H644 0.930 . S
C654 C652 1.419 . S
C654 C655 1.362 . S
C655 H645 0.930 . S
C655 C648 1.409 . S
C655 C654 1.362 . S
H656 C662 0.930 . S
H657 C665 0.930 . S
H658 C666 0.930 . S
H659 C667 0.930 . S
H660 C670 0.930 . S
H661 C671 0.930 . S
C662 H656 0.930 . S
C662 C663 1.355 . S
C662 C664 1.415 . S
C663 C662 1.355 . S
C663 C665 1.419 . S
C664 C662 1.415 . S
C664 C669 1.425 . S
C664 C671 1.409 . S
C665 H657 0.930 . S
C665 C663 1.419 . S
C665 C666 1.362 . S
C666 H658 0.930 . S
C666 C665 1.362 . S
C666 C669 1.409 . S
C667 H659 0.930 . S
C667 C668 1.355 . S
C667 C669 1.415 . S
C668 C667 1.355 . S
C668 C670 1.419 . S
C669 C664 1.425 . S
C669 C666 1.409 . S
C669 C667 1.415 . S
C670 H660 0.930 . S
C670 C668 1.419 . S
C670 C671 1.362 . S
C671 H661 0.930 . S
C671 C664 1.409 . S
C671 C670 1.362 . S
H672 C678 0.930 . S
H673 C681 0.930 . S
H674 C682 0.930 . S
H675 C683 0.930 . S
H676 C686 0.930 . S
H677 C687 0.930 . S
C678 H672 0.930 . S
C678 C679 1.355 1_556 S
C678 C680 1.415 . S
C679 C678 1.355 1_554 S
C679 C681 1.419 . S
C680 C678 1.415 . S
C680 C685 1.425 1_546 S
C680 C687 1.409 . S
C681 H673 0.930 . S
C681 C679 1.419 . S
C681 C682 1.362 1_545 S
C682 H674 0.930 . S
C682 C681 1.362 1_565 S
C682 C685 1.409 . S
C683 H675 0.930 . S
C683 C684 1.355 1_554 S
C683 C685 1.415 . S
C684 C683 1.355 1_556 S
C684 C686 1.419 . S
C685 C680 1.425 1_564 S
C685 C682 1.409 . S
C685 C683 1.415 . S
C686 H676 0.930 . S
C686 C684 1.419 . S
C686 C687 1.362 1_565 S
C687 H677 0.930 . S
C687 C680 1.409 . S
C687 C686 1.362 1_545 S
H688 C694 0.930 . S
H689 C697 0.930 . S
H690 C698 0.930 . S
H691 C699 0.930 . S
H692 C702 0.930 . S
H693 C703 0.930 . S
C694 H688 0.930 . S
C694 C695 1.355 . S
C694 C696 1.415 . S
C695 C694 1.355 . S
C695 C697 1.419 1_556 S
C696 C694 1.415 . S
C696 C701 1.425 1_556 S
C696 C703 1.409 . S
C697 H689 0.930 . S
C697 C695 1.419 1_554 S
C697 C698 1.362 . S
C698 H690 0.930 . S
C698 C697 1.362 . S
C698 C701 1.409 . S
C699 H691 0.930 . S
C699 C700 1.355 . S
C699 C701 1.415 . S
C700 C699 1.355 . S
C700 C702 1.419 1_554 S
C701 C696 1.425 1_554 S
C701 C698 1.409 . S
C701 C699 1.415 . S
C702 H692 0.930 . S
C702 C700 1.419 1_556 S
C702 C703 1.362 . S
C703 H693 0.930 . S
C703 C696 1.409 . S
C703 C702 1.362 . S
H704 C710 0.930 . S
H705 C713 0.930 . S
H706 C714 0.930 . S
H707 C715 0.930 . S
H708 C718 0.930 . S
H709 C719 0.930 . S
C710 H704 0.930 . S
C710 C711 1.355 . S
C710 C712 1.415 . S
C711 C710 1.355 . S
C711 C713 1.419 . S
C712 C710 1.415 . S
C712 C717 1.425 . S
C712 C719 1.409 . S
C713 H705 0.930 . S
C713 C711 1.419 . S
C713 C714 1.362 . S
C714 H706 0.930 . S
C714 C713 1.362 . S
C714 C717 1.409 . S
C715 H707 0.930 . S
C715 C716 1.355 . S
C715 C717 1.415 . S
C716 C715 1.355 . S
C716 C718 1.419 . S
C717 C712 1.425 . S
C717 C714 1.409 . S
C717 C715 1.415 . S
C718 H708 0.930 . S
C718 C716 1.419 . S
C718 C719 1.362 . S
C719 H709 0.930 . S
C719 C712 1.409 . S
C719 C718 1.362 . S
H720 C726 0.930 . S
H721 C729 0.930 . S
H722 C730 0.930 . S
H723 C731 0.930 . S
H724 C734 0.930 . S
H725 C735 0.930 . S
C726 H720 0.930 . S
C726 C727 1.355 . S
C726 C728 1.415 1_565 S
C727 C726 1.355 . S
C727 C729 1.419 . S
C728 C726 1.415 1_545 S
C728 C733 1.425 1_545 S
C728 C735 1.409 . S
C729 H721 0.930 . S
C729 C727 1.419 . S
C729 C730 1.362 . S
C730 H722 0.930 . S
C730 C729 1.362 . S
C730 C733 1.409 . S
C731 H723 0.930 . S
C731 C732 1.355 . S
C731 C733 1.415 1_545 S
C732 C731 1.355 . S
C732 C734 1.419 . S
C733 C728 1.425 1_565 S
C733 C730 1.409 . S
C733 C731 1.415 1_565 S
C734 H724 0.930 . S
C734 C732 1.419 . S
C734 C735 1.362 . S
C735 H725 0.930 . S
C735 C728 1.409 . S
C735 C734 1.362 . S
H736 C742 0.930 . S
H737 C745 0.930 . S
H738 C746 0.931 . S
H739 C747 0.930 . S
H740 C750 0.930 . S
H741 C751 0.932 . S
C742 H736 0.930 . S
C742 C743 1.355 . S
C742 C744 1.415 . S
C743 C742 1.355 . S
C743 C745 1.419 . S
C744 C742 1.415 . S
C744 C749 1.425 1_554 S
C744 C751 1.410 . S
C745 H737 0.930 . S
C745 C743 1.419 . S
C745 C746 1.361 1_554 S
C746 H738 0.931 . S
C746 C745 1.361 1_556 S
C746 C749 1.409 . S
C747 H739 0.930 . S
C747 C748 1.355 . S
C747 C749 1.415 . S
C748 C747 1.355 . S
C748 C750 1.419 . S
C749 C744 1.425 1_556 S
C749 C746 1.409 . S
C749 C747 1.415 . S
C750 H740 0.930 . S
C750 C748 1.419 . S
C750 C751 1.360 1_556 S
C751 H741 0.932 . S
C751 C744 1.410 . S
C751 C750 1.360 1_554 S
H752 C758 0.930 . S
H753 C761 0.930 . S
H754 C762 0.930 . S
H755 C763 0.930 . S
H756 C766 0.930 . S
H757 C767 0.930 . S
C758 H752 0.930 . S
C758 C759 1.355 . S
C758 C760 1.415 . S
C759 C758 1.355 . S
C759 C761 1.419 . S
C760 C758 1.415 . S
C760 C765 1.425 . S
C760 C767 1.409 . S
C761 H753 0.930 . S
C761 C759 1.419 . S
C761 C762 1.362 . S
C762 H754 0.930 . S
C762 C761 1.362 . S
C762 C765 1.409 . S
C763 H755 0.930 . S
C763 C764 1.355 . S
C763 C765 1.415 . S
C764 C763 1.355 . S
C764 C766 1.419 . S
C765 C760 1.425 . S
C765 C762 1.409 . S
C765 C763 1.415 . S
C766 H756 0.930 . S
C766 C764 1.419 . S
C766 C767 1.362 . S
C767 H757 0.930 . S
C767 C760 1.409 . S
C767 C766 1.362 . S
H768 C774 0.930 . S
H769 C777 0.930 . S
H770 C778 0.930 . S
H771 C779 0.930 . S
H772 C782 0.930 . S
H773 C783 0.930 . S
C774 H768 0.930 . S
C774 C775 1.355 . S
C774 C776 1.415 . S
C775 C774 1.355 . S
C775 C777 1.419 . S
C776 C774 1.415 . S
C776 C781 1.425 1_565 S
C776 C783 1.409 . S
C777 H769 0.930 . S
C777 C775 1.419 . S
C777 C778 1.362 1_565 S
C778 H770 0.930 . S
C778 C777 1.362 1_545 S
C778 C781 1.409 . S
C779 H771 0.930 . S
C779 C780 1.355 . S
C779 C781 1.415 . S
C780 C779 1.355 . S
C780 C782 1.419 . S
C781 C776 1.425 1_545 S
C781 C778 1.409 . S
C781 C779 1.415 . S
C782 H772 0.930 . S
C782 C780 1.419 . S
C782 C783 1.362 1_545 S
C783 H773 0.930 . S
C783 C776 1.409 . S
C783 C782 1.362 1_565 S
H784 C790 0.930 . S
H785 C793 0.930 . S
H786 C794 0.930 . S
H787 C795 0.930 . S
H788 C798 0.930 . S
H789 C799 0.930 . S
C790 H784 0.930 . S
C790 C791 1.355 . S
C790 C792 1.415 . S
C791 C790 1.355 . S
C791 C793 1.419 . S
C792 C790 1.415 . S
C792 C797 1.425 . S
C792 C799 1.409 . S
C793 H785 0.930 . S
C793 C791 1.419 . S
C793 C794 1.362 . S
C794 H786 0.930 . S
C794 C793 1.362 . S
C794 C797 1.409 . S
C795 H787 0.930 . S
C795 C796 1.355 . S
C795 C797 1.415 . S
C796 C795 1.355 . S
C796 C798 1.419 . S
C797 C792 1.425 . S
C797 C794 1.409 . S
C797 C795 1.415 . S
C798 H788 0.930 . S
C798 C796 1.419 . S
C798 C799 1.362 . S
C799 H789 0.930 . S
C799 C792 1.409 . S
C799 C798 1.362 . S
H800 C806 0.930 . S
H801 C809 0.930 . S
H802 C810 0.930 . S
H803 C811 0.930 . S
H804 C814 0.930 . S
H805 C815 0.930 . S
C806 H800 0.930 . S
C806 C807 1.355 . S
C806 C808 1.415 . S
C807 C806 1.355 . S
C807 C809 1.419 . S
C808 C806 1.415 . S
C808 C813 1.425 . S
C808 C815 1.409 . S
C809 H801 0.930 . S
C809 C807 1.419 . S
C809 C810 1.362 . S
C810 H802 0.930 . S
C810 C809 1.362 . S
C810 C813 1.409 . S
C811 H803 0.930 . S
C811 C812 1.355 . S
C811 C813 1.415 . S
C812 C811 1.355 . S
C812 C814 1.419 . S
C813 C808 1.425 . S
C813 C810 1.409 . S
C813 C811 1.415 . S
C814 H804 0.930 . S
C814 C812 1.419 . S
C814 C815 1.362 . S
C815 H805 0.930 . S
C815 C808 1.409 . S
C815 C814 1.362 . S
H816 C822 0.930 . S
H817 C825 0.930 . S
H818 C826 0.930 . S
H819 C827 0.930 . S
H820 C830 0.930 . S
H821 C831 0.930 . S
C822 H816 0.930 . S
C822 C823 1.355 . S
C822 C824 1.415 . S
C823 C822 1.355 . S
C823 C825 1.419 . S
C824 C822 1.415 . S
C824 C829 1.425 . S
C824 C831 1.409 . S
C825 H817 0.930 . S
C825 C823 1.419 . S
C825 C826 1.362 . S
C826 H818 0.930 . S
C826 C825 1.362 . S
C826 C829 1.409 . S
C827 H819 0.930 . S
C827 C828 1.355 . S
C827 C829 1.415 . S
C828 C827 1.355 . S
C828 C830 1.419 . S
C829 C824 1.425 . S
C829 C826 1.409 . S
C829 C827 1.415 . S
C830 H820 0.930 . S
C830 C828 1.419 . S
C830 C831 1.362 . S
C831 H821 0.930 . S
C831 C824 1.409 . S
C831 C830 1.362 . S
H832 C838 0.930 . S
H833 C841 0.930 . S
H834 C842 0.930 . S
H835 C843 0.930 . S
H836 C846 0.930 . S
H837 C847 0.930 . S
C838 H832 0.930 . S
C838 C839 1.355 . S
C838 C840 1.415 . S
C839 C838 1.355 . S
C839 C841 1.419 . S
C840 C838 1.415 . S
C840 C845 1.425 . S
C840 C847 1.409 . S
C841 H833 0.930 . S
C841 C839 1.419 . S
C841 C842 1.362 . S
C842 H834 0.930 . S
C842 C841 1.362 . S
C842 C845 1.409 . S
C843 H835 0.930 . S
C843 C844 1.355 . S
C843 C845 1.415 . S
C844 C843 1.355 . S
C844 C846 1.419 . S
C845 C840 1.425 . S
C845 C842 1.409 . S
C845 C843 1.415 . S
C846 H836 0.930 . S
C846 C844 1.419 . S
C846 C847 1.362 . S
C847 H837 0.930 . S
C847 C840 1.409 . S
C847 C846 1.362 . S
H848 C854 0.930 . S
H849 C857 0.930 . S
H850 C858 0.930 . S
H851 C859 0.930 . S
H852 C862 0.930 . S
H853 C863 0.930 . S
C854 H848 0.930 . S
C854 C855 1.355 . S
C854 C856 1.415 . S
C855 C854 1.355 . S
C855 C857 1.419 . S
C856 C854 1.415 . S
C856 C861 1.425 . S
C856 C863 1.409 . S
C857 H849 0.930 . S
C857 C855 1.419 . S
C857 C858 1.362 . S
C858 H850 0.930 . S
C858 C857 1.362 . S
C858 C861 1.409 . S
C859 H851 0.930 . S
C859 C860 1.355 . S
C859 C861 1.415 . S
C860 C859 1.355 . S
C860 C862 1.419 . S
C861 C856 1.425 . S
C861 C858 1.409 . S
C861 C859 1.415 . S
C862 H852 0.930 . S
C862 C860 1.419 . S
C862 C863 1.362 . S
C863 H853 0.930 . S
C863 C856 1.409 . S
C863 C862 1.362 . S
H864 C870 0.930 . S
H865 C873 0.930 . S
H866 C874 0.930 . S
H867 C875 0.930 . S
H868 C878 0.930 . S
H869 C879 0.930 . S
C870 H864 0.930 . S
C870 C871 1.355 . S
C870 C872 1.415 . S
C871 C870 1.355 . S
C871 C873 1.419 . S
C872 C870 1.415 . S
C872 C877 1.425 1_465 S
C872 C879 1.409 1_465 S
C873 H865 0.930 . S
C873 C871 1.419 . S
C873 C874 1.362 . S
C874 H866 0.930 . S
C874 C873 1.362 . S
C874 C877 1.409 1_465 S
C875 H867 0.930 . S
C875 C876 1.355 . S
C875 C877 1.415 . S
C876 C875 1.355 . S
C876 C878 1.419 . S
C877 C872 1.425 1_645 S
C877 C874 1.409 1_645 S
C877 C875 1.415 . S
C878 H868 0.930 . S
C878 C876 1.419 . S
C878 C879 1.362 . S
C879 H869 0.930 . S
C879 C872 1.409 1_645 S
C879 C878 1.362 . S
H880 C886 0.930 1_455 S
H881 C889 0.930 . S
H882 C890 0.930 . S
H883 C891 0.930 1_655 S
H884 C894 0.930 . S
H885 C895 0.930 . S
C886 H880 0.930 1_655 S
C886 C887 1.355 . S
C886 C888 1.415 1_655 S
C887 C886 1.355 . S
C887 C889 1.419 . S
C888 C886 1.415 1_455 S
C888 C893 1.425 1_455 S
C888 C895 1.409 . S
C889 H881 0.930 . S
C889 C887 1.419 . S
C889 C890 1.362 . S
C890 H882 0.930 . S
C890 C889 1.362 . S
C890 C893 1.409 . S
C891 H883 0.930 1_455 S
C891 C892 1.355 . S
C891 C893 1.415 1_455 S
C892 C891 1.355 . S
C892 C894 1.419 . S
C893 C888 1.425 1_655 S
C893 C890 1.409 . S
C893 C891 1.415 1_655 S
C894 H884 0.930 . S
C894 C892 1.419 . S
C894 C895 1.362 . S
C895 H885 0.930 . S
C895 C888 1.409 . S
C895 C894 1.362 . S
H896 C902 0.930 . S
H897 C905 0.930 . S
H898 C906 0.930 . S
H899 C907 0.930 . S
H900 C910 0.930 . S
H901 C911 0.930 . S
C902 H896 0.930 . S
C902 C903 1.355 . S
C902 C904 1.415 . S
C903 C902 1.355 . S
C903 C905 1.419 . S
C904 C902 1.415 . S
C904 C909 1.425 1_455 S
C904 C911 1.409 . S
C905 H897 0.930 . S
C905 C903 1.419 . S
C905 C906 1.362 1_455 S
C906 H898 0.930 . S
C906 C905 1.362 1_655 S
C906 C909 1.409 . S
C907 H899 0.930 . S
C907 C908 1.355 . S
C907 C909 1.415 . S
C908 C907 1.355 . S
C908 C910 1.419 . S
C909 C904 1.425 1_655 S
C909 C906 1.409 . S
C909 C907 1.415 . S
C910 H900 0.930 . S
C910 C908 1.419 . S
C910 C911 1.362 1_655 S
C911 H901 0.930 . S
C911 C904 1.409 . S
C911 C910 1.362 1_455 S
H912 C918 0.930 . S
H913 C921 0.930 . S
H914 C922 0.930 . S
H915 C923 0.930 . S
H916 C926 0.930 . S
H917 C927 0.930 . S
C918 H912 0.930 . S
C918 C919 1.355 . S
C918 C920 1.415 1_455 S
C919 C918 1.355 . S
C919 C921 1.419 1_556 S
C920 C918 1.415 1_655 S
C920 C925 1.425 1_656 S
C920 C927 1.409 . S
C921 H913 0.930 . S
C921 C919 1.419 1_554 S
C921 C922 1.362 . S
C922 H914 0.930 . S
C922 C921 1.362 . S
C922 C925 1.409 . S
C923 H915 0.930 . S
C923 C924 1.355 . S
C923 C925 1.415 1_655 S
C924 C923 1.355 . S
C924 C926 1.419 1_554 S
C925 C920 1.425 1_454 S
C925 C922 1.409 . S
C925 C923 1.415 1_455 S
C926 H916 0.930 . S
C926 C924 1.419 1_556 S
C926 C927 1.362 . S
C927 H917 0.930 . S
C927 C920 1.409 . S
C927 C926 1.362 . S
H928 C934 0.930 . S
H929 C937 0.930 . S
H930 C938 0.930 . S
H931 C939 0.930 . S
H932 C942 0.930 . S
H933 C943 0.930 . S
C934 H928 0.930 . S
C934 C935 1.355 . S
C934 C936 1.415 . S
C935 C934 1.355 . S
C935 C937 1.419 . S
C936 C934 1.415 . S
C936 C941 1.425 . S
C936 C943 1.409 . S
C937 H929 0.930 . S
C937 C935 1.419 . S
C937 C938 1.362 . S
C938 H930 0.930 . S
C938 C937 1.362 . S
C938 C941 1.409 . S
C939 H931 0.930 . S
C939 C940 1.355 . S
C939 C941 1.415 . S
C940 C939 1.355 . S
C940 C942 1.419 . S
C941 C936 1.425 . S
C941 C938 1.409 . S
C941 C939 1.415 . S
C942 H932 0.930 . S
C942 C940 1.419 . S
C942 C943 1.362 . S
C943 H933 0.930 . S
C943 C936 1.409 . S
C943 C942 1.362 . S
H944 C950 0.930 . S
H945 C953 0.930 . S
H946 C954 0.930 . S
H947 C955 0.930 . S
H948 C958 0.930 . S
H949 C959 0.930 . S
C950 H944 0.930 . S
C950 C951 1.355 . S
C950 C952 1.415 . S
C951 C950 1.355 . S
C951 C953 1.419 1_655 S
C952 C950 1.415 . S
C952 C957 1.425 . S
C952 C959 1.409 . S
C953 H945 0.930 . S
C953 C951 1.419 1_455 S
C953 C954 1.362 1_455 S
C954 H946 0.930 . S
C954 C953 1.362 1_655 S
C954 C957 1.409 . S
C955 H947 0.930 . S
C955 C956 1.355 . S
C955 C957 1.415 . S
C956 C955 1.355 . S
C956 C958 1.419 . S
C957 C952 1.425 . S
C957 C954 1.409 . S
C957 C955 1.415 . S
C958 H948 0.930 . S
C958 C956 1.419 . S
C958 C959 1.362 . S
C959 H949 0.930 . S
C959 C952 1.409 . S
C959 C958 1.362 . S
H960 C966 0.930 . S
H961 C969 0.930 . S
H962 C970 0.930 . S
H963 C971 0.930 . S
H964 C974 0.930 . S
H965 C975 0.930 . S
C966 H960 0.930 . S
C966 C967 1.355 . S
C966 C968 1.415 . S
C967 C966 1.355 . S
C967 C969 1.419 . S
C968 C966 1.415 . S
C968 C973 1.425 . S
C968 C975 1.409 . S
C969 H961 0.930 . S
C969 C967 1.419 . S
C969 C970 1.362 . S
C970 H962 0.930 . S
C970 C969 1.362 . S
C970 C973 1.409 . S
C971 H963 0.930 . S
C971 C972 1.355 . S
C971 C973 1.415 . S
C972 C971 1.355 . S
C972 C974 1.419 . S
C973 C968 1.425 . S
C973 C970 1.409 . S
C973 C971 1.415 . S
C974 H964 0.930 . S
C974 C972 1.419 . S
C974 C975 1.362 . S
C975 H965 0.930 . S
C975 C968 1.409 . S
C975 C974 1.362 . S
H976 C982 0.930 . S
H977 C985 0.930 . S
H978 C986 0.930 . S
H979 C987 0.930 . S
H980 C990 0.930 . S
H981 C991 0.930 . S
C982 H976 0.930 . S
C982 C983 1.355 . S
C982 C984 1.415 . S
C983 C982 1.355 . S
C983 C985 1.419 . S
C984 C982 1.415 . S
C984 C989 1.425 . S
C984 C991 1.409 . S
C985 H977 0.930 . S
C985 C983 1.419 . S
C985 C986 1.362 . S
C986 H978 0.930 . S
C986 C985 1.362 . S
C986 C989 1.409 . S
C987 H979 0.930 . S
C987 C988 1.355 . S
C987 C989 1.415 . S
C988 C987 1.355 . S
C988 C990 1.419 1_655 S
C989 C984 1.425 . S
C989 C986 1.409 . S
C989 C987 1.415 . S
C990 H980 0.930 . S
C990 C988 1.419 1_455 S
C990 C991 1.362 1_455 S
C991 H981 0.930 . S
C991 C984 1.409 . S
C991 C990 1.362 1_655 S
H992 C998 0.930 . S
H993 C1001 0.930 . S
H994 C1002 0.930 . S
H995 C1003 0.930 . S
H996 C1006 0.930 . S
H997 C1007 0.930 . S
C998 H992 0.930 . S
C998 C999 1.355 . S
C998 C1000 1.415 . S
C999 C998 1.355 . S
C999 C1001 1.419 . S
C1000 C998 1.415 . S
C1000 C1005 1.425 . S
C1000 C1007 1.409 . S
C1001 H993 0.930 . S
C1001 C999 1.419 . S
C1001 C1002 1.362 . S
C1002 H994 0.930 . S
C1002 C1001 1.362 . S
C1002 C1005 1.409 . S
C1003 H995 0.930 . S
C1003 C1004 1.355 . S
C1003 C1005 1.415 . S
C1004 C1003 1.355 . S
C1004 C1006 1.419 . S
C1005 C1000 1.425 . S
C1005 C1002 1.409 . S
C1005 C1003 1.415 . S
C1006 H996 0.930 . S
C1006 C1004 1.419 . S
C1006 C1007 1.362 . S
C1007 H997 0.930 . S
C1007 C1000 1.409 . S
C1007 C1006 1.362 . S
H1008 C1014 0.930 . S
H1009 C1017 0.930 . S
H1010 C1018 0.930 . S
H1011 C1019 0.930 . S
H1012 C1022 0.930 . S
H1013 C1023 0.930 . S
C1014 H1008 0.930 . S
C1014 C1015 1.355 . S
C1014 C1016 1.415 . S
C1015 C1014 1.355 . S
C1015 C1017 1.419 . S
C1016 C1014 1.415 . S
C1016 C1021 1.425 . S
C1016 C1023 1.409 . S
C1017 H1009 0.930 . S
C1017 C1015 1.419 . S
C1017 C1018 1.362 . S
C1018 H1010 0.930 . S
C1018 C1017 1.362 . S
C1018 C1021 1.409 . S
C1019 H1011 0.930 . S
C1019 C1020 1.355 . S
C1019 C1021 1.415 . S
C1020 C1019 1.355 . S
C1020 C1022 1.419 . S
C1021 C1016 1.425 . S
C1021 C1018 1.409 . S
C1021 C1019 1.415 . S
C1022 H1012 0.930 . S
C1022 C1020 1.419 . S
C1022 C1023 1.362 . S
C1023 H1013 0.930 . S
C1023 C1016 1.409 . S
C1023 C1022 1.362 . S
H1024 C1030 0.930 . S
H1025 C1033 0.930 . S
H1026 C1034 0.930 . S
H1027 C1035 0.930 . S
H1028 C1038 0.930 . S
H1029 C1039 0.930 . S
C1030 H1024 0.930 . S
C1030 C1031 1.355 . S
C1030 C1032 1.415 . S
C1031 C1030 1.355 . S
C1031 C1033 1.419 . S
C1032 C1030 1.415 . S
C1032 C1037 1.425 . S
C1032 C1039 1.409 . S
C1033 H1025 0.930 . S
C1033 C1031 1.419 . S
C1033 C1034 1.362 . S
C1034 H1026 0.930 . S
C1034 C1033 1.362 . S
C1034 C1037 1.409 . S
C1035 H1027 0.930 . S
C1035 C1036 1.355 . S
C1035 C1037 1.415 . S
C1036 C1035 1.355 . S
C1036 C1038 1.419 . S
C1037 C1032 1.425 . S
C1037 C1034 1.409 . S
C1037 C1035 1.415 . S
C1038 H1028 0.930 . S
C1038 C1036 1.419 . S
C1038 C1039 1.362 . S
C1039 H1029 0.930 . S
C1039 C1032 1.409 . S
C1039 C1038 1.362 . S
H1040 C1046 0.930 . S
H1041 C1049 0.930 . S
H1042 C1050 0.930 . S
H1043 C1051 0.930 . S
H1044 C1054 0.930 1_655 S
H1045 C1055 0.930 . S
C1046 H1040 0.930 . S
C1046 C1047 1.355 . S
C1046 C1048 1.415 . S
C1047 C1046 1.355 . S
C1047 C1049 1.419 . S
C1048 C1046 1.415 . S
C1048 C1053 1.425 . S
C1048 C1055 1.409 . S
C1049 H1041 0.930 . S
C1049 C1047 1.419 . S
C1049 C1050 1.362 . S
C1050 H1042 0.930 . S
C1050 C1049 1.362 . S
C1050 C1053 1.409 . S
C1051 H1043 0.930 . S
C1051 C1052 1.355 . S
C1051 C1053 1.415 . S
C1052 C1051 1.355 . S
C1052 C1054 1.419 . S
C1053 C1048 1.425 . S
C1053 C1050 1.409 . S
C1053 C1051 1.415 . S
C1054 H1044 0.930 1_455 S
C1054 C1052 1.419 . S
C1054 C1055 1.362 . S
C1055 H1045 0.930 . S
C1055 C1048 1.409 . S
C1055 C1054 1.362 . S
H1056 C1062 0.930 . S
H1057 C1065 0.930 . S
H1058 C1066 0.930 . S
H1059 C1067 0.930 . S
H1060 C1070 0.930 . S
H1061 C1071 0.930 . S
C1062 H1056 0.930 . S
C1062 C1063 1.355 . S
C1062 C1064 1.415 . S
C1063 C1062 1.355 . S
C1063 C1065 1.419 . S
C1064 C1062 1.415 . S
C1064 C1069 1.425 . S
C1064 C1071 1.409 . S
C1065 H1057 0.930 . S
C1065 C1063 1.419 . S
C1065 C1066 1.362 . S
C1066 H1058 0.930 . S
C1066 C1065 1.362 . S
C1066 C1069 1.409 . S
C1067 H1059 0.930 . S
C1067 C1068 1.355 . S
C1067 C1069 1.415 . S
C1068 C1067 1.355 . S
C1068 C1070 1.419 . S
C1069 C1064 1.425 . S
C1069 C1066 1.409 . S
C1069 C1067 1.415 . S
C1070 H1060 0.930 . S
C1070 C1068 1.419 . S
C1070 C1071 1.362 . S
C1071 H1061 0.930 . S
C1071 C1064 1.409 . S
C1071 C1070 1.362 . S
H1072 C1078 0.930 . S
H1073 C1081 0.930 . S
H1074 C1082 0.930 . S
H1075 C1083 0.930 1_455 S
H1076 C1086 0.930 . S
H1077 C1087 0.930 . S
C1078 H1072 0.930 . S
C1078 C1079 1.355 . S
C1078 C1080 1.415 . S
C1079 C1078 1.355 . S
C1079 C1081 1.419 . S
C1080 C1078 1.415 . S
C1080 C1085 1.425 . S
C1080 C1087 1.409 . S
C1081 H1073 0.930 . S
C1081 C1079 1.419 . S
C1081 C1082 1.362 . S
C1082 H1074 0.930 . S
C1082 C1081 1.362 . S
C1082 C1085 1.409 . S
C1083 H1075 0.930 1_655 S
C1083 C1084 1.355 . S
C1083 C1085 1.415 . S
C1084 C1083 1.355 . S
C1084 C1086 1.419 . S
C1085 C1080 1.425 . S
C1085 C1082 1.409 . S
C1085 C1083 1.415 . S
C1086 H1076 0.930 . S
C1086 C1084 1.419 . S
C1086 C1087 1.362 . S
C1087 H1077 0.930 . S
C1087 C1080 1.409 . S
C1087 C1086 1.362 . S
H1088 C1094 0.930 . S
H1089 C1097 0.930 . S
H1090 C1098 0.930 . S
H1091 C1099 0.930 . S
H1092 C1102 0.930 . S
H1093 C1103 0.930 . S
C1094 H1088 0.930 . S
C1094 C1095 1.355 . S
C1094 C1096 1.415 . S
C1095 C1094 1.355 . S
C1095 C1097 1.419 . S
C1096 C1094 1.415 . S
C1096 C1101 1.425 . S
C1096 C1103 1.409 . S
C1097 H1089 0.930 . S
C1097 C1095 1.419 . S
C1097 C1098 1.362 . S
C1098 H1090 0.930 . S
C1098 C1097 1.362 . S
C1098 C1101 1.409 . S
C1099 H1091 0.930 . S
C1099 C1100 1.355 . S
C1099 C1101 1.415 . S
C1100 C1099 1.355 . S
C1100 C1102 1.419 . S
C1101 C1096 1.425 . S
C1101 C1098 1.409 . S
C1101 C1099 1.415 . S
C1102 H1092 0.930 . S
C1102 C1100 1.419 . S
C1102 C1103 1.362 . S
C1103 H1093 0.930 . S
C1103 C1096 1.409 . S
C1103 C1102 1.362 . S
H1104 C1110 0.930 1_455 S
H1105 C1113 0.930 . S
H1106 C1114 0.930 . S
H1107 C1115 0.930 . S
H1108 C1118 0.930 . S
H1109 C1119 0.930 . S
C1110 H1104 0.930 1_655 S
C1110 C1111 1.355 . S
C1110 C1112 1.415 . S
C1111 C1110 1.355 . S
C1111 C1113 1.419 . S
C1112 C1110 1.415 . S
C1112 C1117 1.425 . S
C1112 C1119 1.409 . S
C1113 H1105 0.930 . S
C1113 C1111 1.419 . S
C1113 C1114 1.362 . S
C1114 H1106 0.930 . S
C1114 C1113 1.362 . S
C1114 C1117 1.409 . S
C1115 H1107 0.930 . S
C1115 C1116 1.355 . S
C1115 C1117 1.415 . S
C1116 C1115 1.355 . S
C1116 C1118 1.419 . S
C1117 C1112 1.425 . S
C1117 C1114 1.409 . S
C1117 C1115 1.415 . S
C1118 H1108 0.930 . S
C1118 C1116 1.419 . S
C1118 C1119 1.362 . S
C1119 H1109 0.930 . S
C1119 C1112 1.409 . S
C1119 C1118 1.362 . S
H1120 C1126 0.930 . S
H1121 C1129 0.930 . S
H1122 C1130 0.930 . S
H1123 C1131 0.930 . S
H1124 C1134 0.930 . S
H1125 C1135 0.930 . S
C1126 H1120 0.930 . S
C1126 C1127 1.355 . S
C1126 C1128 1.415 . S
C1127 C1126 1.355 . S
C1127 C1129 1.419 . S
C1128 C1126 1.415 . S
C1128 C1133 1.425 . S
C1128 C1135 1.409 . S
C1129 H1121 0.930 . S
C1129 C1127 1.419 . S
C1129 C1130 1.362 . S
C1130 H1122 0.930 . S
C1130 C1129 1.362 . S
C1130 C1133 1.409 . S
C1131 H1123 0.930 . S
C1131 C1132 1.355 . S
C1131 C1133 1.415 . S
C1132 C1131 1.355 . S
C1132 C1134 1.419 . S
C1133 C1128 1.425 . S
C1133 C1130 1.409 . S
C1133 C1131 1.415 . S
C1134 H1124 0.930 . S
C1134 C1132 1.419 . S
C1134 C1135 1.362 . S
C1135 H1125 0.930 . S
C1135 C1128 1.409 . S
C1135 C1134 1.362 . S
H1136 C1142 0.930 1_655 S
H1137 C1145 0.930 . S
H1138 C1146 0.930 . S
H1139 C1147 0.930 . S
H1140 C1150 0.930 . S
H1141 C1151 0.930 . S
C1142 H1136 0.930 1_455 S
C1142 C1143 1.355 . S
C1142 C1144 1.415 . S
C1143 C1142 1.355 . S
C1143 C1145 1.419 . S
C1144 C1142 1.415 . S
C1144 C1149 1.425 . S
C1144 C1151 1.409 . S
C1145 H1137 0.930 . S
C1145 C1143 1.419 . S
C1145 C1146 1.362 . S
C1146 H1138 0.930 . S
C1146 C1145 1.362 . S
C1146 C1149 1.409 . S
C1147 H1139 0.930 . S
C1147 C1148 1.355 . S
C1147 C1149 1.415 . S
C1148 C1147 1.355 . S
C1148 C1150 1.419 . S
C1149 C1144 1.425 . S
C1149 C1146 1.409 . S
C1149 C1147 1.415 . S
C1150 H1140 0.930 . S
C1150 C1148 1.419 . S
C1150 C1151 1.362 . S
C1151 H1141 0.930 . S
C1151 C1144 1.409 . S
C1151 C1150 1.362 . S
H1152 C1158 0.930 . S
H1153 C1161 0.930 . S
H1154 C1162 0.930 . S
H1155 C1163 0.930 . S
H1156 C1166 0.930 . S
H1157 C1167 0.930 . S
C1158 H1152 0.930 . S
C1158 C1159 1.355 . S
C1158 C1160 1.415 . S
C1159 C1158 1.355 . S
C1159 C1161 1.419 . S
C1160 C1158 1.415 . S
C1160 C1165 1.425 . S
C1160 C1167 1.409 . S
C1161 H1153 0.930 . S
C1161 C1159 1.419 . S
C1161 C1162 1.362 . S
C1162 H1154 0.930 . S
C1162 C1161 1.362 . S
C1162 C1165 1.409 . S
C1163 H1155 0.930 . S
C1163 C1164 1.355 . S
C1163 C1165 1.415 . S
C1164 C1163 1.355 . S
C1164 C1166 1.419 . S
C1165 C1160 1.425 . S
C1165 C1162 1.409 . S
C1165 C1163 1.415 . S
C1166 H1156 0.930 . S
C1166 C1164 1.419 . S
C1166 C1167 1.362 . S
C1167 H1157 0.930 . S
C1167 C1160 1.409 . S
C1167 C1166 1.362 . S
H1168 C1174 0.930 . S
H1169 C1177 0.930 . S
H1170 C1178 0.930 . S
H1171 C1179 0.930 . S
H1172 C1182 0.930 . S
H1173 C1183 0.930 . S
C1174 H1168 0.930 . S
C1174 C1175 1.355 . S
C1174 C1176 1.415 . S
C1175 C1174 1.355 . S
C1175 C1177 1.419 1_455 S
C1176 C1174 1.415 . S
C1176 C1181 1.425 . S
C1176 C1183 1.409 . S
C1177 H1169 0.930 . S
C1177 C1175 1.419 1_655 S
C1177 C1178 1.362 1_655 S
C1178 H1170 0.930 . S
C1178 C1177 1.362 1_455 S
C1178 C1181 1.409 . S
C1179 H1171 0.930 . S
C1179 C1180 1.355 . S
C1179 C1181 1.415 . S
C1180 C1179 1.355 . S
C1180 C1182 1.419 . S
C1181 C1176 1.425 . S
C1181 C1178 1.409 . S
C1181 C1179 1.415 . S
C1182 H1172 0.930 . S
C1182 C1180 1.419 . S
C1182 C1183 1.362 . S
C1183 H1173 0.930 . S
C1183 C1176 1.409 . S
C1183 C1182 1.362 . S
H1184 C1190 0.930 1_656 S
H1185 C1193 0.930 . S
H1186 C1194 0.930 . S
H1187 C1195 0.930 . S
H1188 C1198 0.930 . S
H1189 C1199 0.930 . S
C1190 H1184 0.930 1_454 S
C1190 C1191 1.355 . S
C1190 C1192 1.415 . S
C1191 C1190 1.355 . S
C1191 C1193 1.419 . S
C1192 C1190 1.415 . S
C1192 C1197 1.425 . S
C1192 C1199 1.409 1_554 S
C1193 H1185 0.930 . S
C1193 C1191 1.419 . S
C1193 C1194 1.362 . S
C1194 H1186 0.930 . S
C1194 C1193 1.362 . S
C1194 C1197 1.409 . S
C1195 H1187 0.930 . S
C1195 C1196 1.355 . S
C1195 C1197 1.415 . S
C1196 C1195 1.355 . S
C1196 C1198 1.419 1_554 S
C1197 C1192 1.425 . S
C1197 C1194 1.409 . S
C1197 C1195 1.415 . S
C1198 H1188 0.930 . S
C1198 C1196 1.419 1_556 S
C1198 C1199 1.362 . S
C1199 H1189 0.930 . S
C1199 C1192 1.409 1_556 S
C1199 C1198 1.362 . S
H1200 C1206 0.930 . S
H1201 C1209 0.930 . S
H1202 C1210 0.930 . S
H1203 C1211 0.930 . S
H1204 C1214 0.930 . S
H1205 C1215 0.930 . S
C1206 H1200 0.930 . S
C1206 C1207 1.355 . S
C1206 C1208 1.415 . S
C1207 C1206 1.355 . S
C1207 C1209 1.419 . S
C1208 C1206 1.415 . S
C1208 C1213 1.425 . S
C1208 C1215 1.409 . S
C1209 H1201 0.930 . S
C1209 C1207 1.419 . S
C1209 C1210 1.362 . S
C1210 H1202 0.930 . S
C1210 C1209 1.362 . S
C1210 C1213 1.409 . S
C1211 H1203 0.930 . S
C1211 C1212 1.355 . S
C1211 C1213 1.415 . S
C1212 C1211 1.355 . S
C1212 C1214 1.419 . S
C1213 C1208 1.425 . S
C1213 C1210 1.409 . S
C1213 C1211 1.415 . S
C1214 H1204 0.930 . S
C1214 C1212 1.419 . S
C1214 C1215 1.362 . S
C1215 H1205 0.930 . S
C1215 C1208 1.409 . S
C1215 C1214 1.362 . S
H1216 C1222 0.930 1_455 S
H1217 C1225 0.930 . S
H1218 C1226 0.930 . S
H1219 C1227 0.930 1_554 S
H1220 C1230 0.930 . S
H1221 C1231 0.930 . S
C1222 H1216 0.930 1_655 S
C1222 C1223 1.355 . S
C1222 C1224 1.415 . S
C1223 C1222 1.355 . S
C1223 C1225 1.419 1_556 S
C1224 C1222 1.415 . S
C1224 C1229 1.425 . S
C1224 C1231 1.409 . S
C1225 H1217 0.930 . S
C1225 C1223 1.419 1_554 S
C1225 C1226 1.362 . S
C1226 H1218 0.930 . S
C1226 C1225 1.362 . S
C1226 C1229 1.409 1_554 S
C1227 H1219 0.930 1_556 S
C1227 C1228 1.355 . S
C1227 C1229 1.415 . S
C1228 C1227 1.355 . S
C1228 C1230 1.419 . S
C1229 C1224 1.425 . S
C1229 C1226 1.409 1_556 S
C1229 C1227 1.415 . S
C1230 H1220 0.930 . S
C1230 C1228 1.419 . S
C1230 C1231 1.362 . S
C1231 H1221 0.930 . S
C1231 C1224 1.409 . S
C1231 C1230 1.362 . S
H1232 C1238 0.930 . S
H1233 C1241 0.930 . S
H1234 C1242 0.930 . S
H1235 C1243 0.930 . S
H1236 C1246 0.930 1_455 S
H1237 C1247 0.930 . S
C1238 H1232 0.930 . S
C1238 C1239 1.355 . S
C1238 C1240 1.415 . S
C1239 C1238 1.355 . S
C1239 C1241 1.419 . S
C1240 C1238 1.415 . S
C1240 C1245 1.425 . S
C1240 C1247 1.409 . S
C1241 H1233 0.930 . S
C1241 C1239 1.419 . S
C1241 C1242 1.362 . S
C1242 H1234 0.930 . S
C1242 C1241 1.362 . S
C1242 C1245 1.409 . S
C1243 H1235 0.930 . S
C1243 C1244 1.355 . S
C1243 C1245 1.415 . S
C1244 C1243 1.355 . S
C1244 C1246 1.419 . S
C1245 C1240 1.425 . S
C1245 C1242 1.409 . S
C1245 C1243 1.415 . S
C1246 H1236 0.930 1_655 S
C1246 C1244 1.419 . S
C1246 C1247 1.362 . S
C1247 H1237 0.930 . S
C1247 C1240 1.409 . S
C1247 C1246 1.362 . S
H1248 C1254 0.930 1_655 S
H1249 C1257 0.930 . S
H1250 C1258 0.930 . S
H1251 C1259 0.930 . S
H1252 C1262 0.930 . S
H1253 C1263 0.930 . S
C1254 H1248 0.930 1_455 S
C1254 C1255 1.355 . S
C1254 C1256 1.415 . S
C1255 C1254 1.355 . S
C1255 C1257 1.419 . S
C1256 C1254 1.415 . S
C1256 C1261 1.425 . S
C1256 C1263 1.409 . S
C1257 H1249 0.930 . S
C1257 C1255 1.419 . S
C1257 C1258 1.362 . S
C1258 H1250 0.930 . S
C1258 C1257 1.362 . S
C1258 C1261 1.409 . S
C1259 H1251 0.930 . S
C1259 C1260 1.355 . S
C1259 C1261 1.415 . S
C1260 C1259 1.355 . S
C1260 C1262 1.419 . S
C1261 C1256 1.425 . S
C1261 C1258 1.409 . S
C1261 C1259 1.415 . S
C1262 H1252 0.930 . S
C1262 C1260 1.419 . S
C1262 C1263 1.362 . S
C1263 H1253 0.930 . S
C1263 C1256 1.409 . S
C1263 C1262 1.362 . S
H1264 C1270 0.930 . S
H1265 C1273 0.930 . S
H1266 C1274 0.930 . S
H1267 C1275 0.930 . S
H1268 C1278 0.930 . S
H1269 C1279 0.930 . S
C1270 H1264 0.930 . S
C1270 C1271 1.355 . S
C1270 C1272 1.415 . S
C1271 C1270 1.355 . S
C1271 C1273 1.419 . S
C1272 C1270 1.415 . S
C1272 C1277 1.425 . S
C1272 C1279 1.409 . S
C1273 H1265 0.930 . S
C1273 C1271 1.419 . S
C1273 C1274 1.362 . S
C1274 H1266 0.930 . S
C1274 C1273 1.362 . S
C1274 C1277 1.409 . S
C1275 H1267 0.930 . S
C1275 C1276 1.355 . S
C1275 C1277 1.415 . S
C1276 C1275 1.355 . S
C1276 C1278 1.419 . S
C1277 C1272 1.425 . S
C1277 C1274 1.409 . S
C1277 C1275 1.415 . S
C1278 H1268 0.930 . S
C1278 C1276 1.419 . S
C1278 C1279 1.362 . S
C1279 H1269 0.930 . S
C1279 C1272 1.409 . S
C1279 C1278 1.362 . S
H1280 C1286 0.930 . S
H1281 C1289 0.930 . S
H1282 C1290 0.930 . S
H1283 C1291 0.930 . S
H1284 C1294 0.930 . S
H1285 C1295 0.930 . S
C1286 H1280 0.930 . S
C1286 C1287 1.355 . S
C1286 C1288 1.415 . S
C1287 C1286 1.355 . S
C1287 C1289 1.419 . S
C1288 C1286 1.415 . S
C1288 C1293 1.425 . S
C1288 C1295 1.409 . S
C1289 H1281 0.930 . S
C1289 C1287 1.419 . S
C1289 C1290 1.362 . S
C1290 H1282 0.930 . S
C1290 C1289 1.362 . S
C1290 C1293 1.409 . S
C1291 H1283 0.930 . S
C1291 C1292 1.355 . S
C1291 C1293 1.415 . S
C1292 C1291 1.355 . S
C1292 C1294 1.419 . S
C1293 C1288 1.425 . S
C1293 C1290 1.409 . S
C1293 C1291 1.415 . S
C1294 H1284 0.930 . S
C1294 C1292 1.419 . S
C1294 C1295 1.362 . S
C1295 H1285 0.930 . S
C1295 C1288 1.409 . S
C1295 C1294 1.362 . S
H1296 C1302 0.930 . S
H1297 C1305 0.930 . S
H1298 C1306 0.930 . S
H1299 C1307 0.930 . S
H1300 C1310 0.930 1_455 S
H1301 C1311 0.930 . S
C1302 H1296 0.930 . S
C1302 C1303 1.355 . S
C1302 C1304 1.415 . S
C1303 C1302 1.355 . S
C1303 C1305 1.419 . S
C1304 C1302 1.415 . S
C1304 C1309 1.425 . S
C1304 C1311 1.409 . S
C1305 H1297 0.930 . S
C1305 C1303 1.419 . S
C1305 C1306 1.362 . S
C1306 H1298 0.930 . S
C1306 C1305 1.362 . S
C1306 C1309 1.409 . S
C1307 H1299 0.930 . S
C1307 C1308 1.355 . S
C1307 C1309 1.415 . S
C1308 C1307 1.355 . S
C1308 C1310 1.419 . S
C1309 C1304 1.425 . S
C1309 C1306 1.409 . S
C1309 C1307 1.415 . S
C1310 H1300 0.930 1_655 S
C1310 C1308 1.419 . S
C1310 C1311 1.362 . S
C1311 H1301 0.930 . S
C1311 C1304 1.409 . S
C1311 C1310 1.362 . S
H1312 C1318 0.930 . S
H1313 C1321 0.930 . S
H1314 C1322 0.930 . S
H1315 C1323 0.930 . S
H1316 C1326 0.930 . S
H1317 C1327 0.930 . S
C1318 H1312 0.930 . S
C1318 C1319 1.355 . S
C1318 C1320 1.415 . S
C1319 C1318 1.355 . S
C1319 C1321 1.419 . S
C1320 C1318 1.415 . S
C1320 C1325 1.425 . S
C1320 C1327 1.409 . S
C1321 H1313 0.930 . S
C1321 C1319 1.419 . S
C1321 C1322 1.362 . S
C1322 H1314 0.930 . S
C1322 C1321 1.362 . S
C1322 C1325 1.409 . S
C1323 H1315 0.930 . S
C1323 C1324 1.355 . S
C1323 C1325 1.415 . S
C1324 C1323 1.355 . S
C1324 C1326 1.419 . S
C1325 C1320 1.425 . S
C1325 C1322 1.409 . S
C1325 C1323 1.415 . S
C1326 H1316 0.930 . S
C1326 C1324 1.419 . S
C1326 C1327 1.362 . S
C1327 H1317 0.930 . S
C1327 C1320 1.409 . S
C1327 C1326 1.362 . S
H1328 C1334 0.930 . S
H1329 C1337 0.930 . S
H1330 C1338 0.930 . S
H1331 C1339 0.930 . S
H1332 C1342 0.930 . S
H1333 C1343 0.930 . S
C1334 H1328 0.930 . S
C1334 C1335 1.355 . S
C1334 C1336 1.415 . S
C1335 C1334 1.355 . S
C1335 C1337 1.419 . S
C1336 C1334 1.415 . S
C1336 C1341 1.425 . S
C1336 C1343 1.409 . S
C1337 H1329 0.930 . S
C1337 C1335 1.419 . S
C1337 C1338 1.362 . S
C1338 H1330 0.930 . S
C1338 C1337 1.362 . S
C1338 C1341 1.409 . S
C1339 H1331 0.930 . S
C1339 C1340 1.355 . S
C1339 C1341 1.415 . S
C1340 C1339 1.355 . S
C1340 C1342 1.419 . S
C1341 C1336 1.425 . S
C1341 C1338 1.409 . S
C1341 C1339 1.415 . S
C1342 H1332 0.930 . S
C1342 C1340 1.419 . S
C1342 C1343 1.362 . S
C1343 H1333 0.930 . S
C1343 C1336 1.409 . S
C1343 C1342 1.362 . S
H1344 C1350 0.930 . S
H1345 C1353 0.930 . S
H1346 C1354 0.930 . S
H1347 C1355 0.930 . S
H1348 C1358 0.930 . S
H1349 C1359 0.930 . S
C1350 H1344 0.930 . S
C1350 C1351 1.355 . S
C1350 C1352 1.415 . S
C1351 C1350 1.355 . S
C1351 C1353 1.419 . S
C1352 C1350 1.415 . S
C1352 C1357 1.425 . S
C1352 C1359 1.409 . S
C1353 H1345 0.930 . S
C1353 C1351 1.419 . S
C1353 C1354 1.362 . S
C1354 H1346 0.930 . S
C1354 C1353 1.362 . S
C1354 C1357 1.409 . S
C1355 H1347 0.930 . S
C1355 C1356 1.355 . S
C1355 C1357 1.415 . S
C1356 C1355 1.355 . S
C1356 C1358 1.419 . S
C1357 C1352 1.425 . S
C1357 C1354 1.409 . S
C1357 C1355 1.415 . S
C1358 H1348 0.930 . S
C1358 C1356 1.419 . S
C1358 C1359 1.362 . S
C1359 H1349 0.930 . S
C1359 C1352 1.409 . S
C1359 C1358 1.362 . S
H1360 C1366 0.930 . S
H1361 C1369 0.930 . S
H1362 C1370 0.930 . S
H1363 C1371 0.930 . S
H1364 C1374 0.930 . S
H1365 C1375 0.930 . S
C1366 H1360 0.930 . S
C1366 C1367 1.355 . S
C1366 C1368 1.415 . S
C1367 C1366 1.355 . S
C1367 C1369 1.419 . S
C1368 C1366 1.415 . S
C1368 C1373 1.425 . S
C1368 C1375 1.409 . S
C1369 H1361 0.930 . S
C1369 C1367 1.419 . S
C1369 C1370 1.362 . S
C1370 H1362 0.930 . S
C1370 C1369 1.362 . S
C1370 C1373 1.409 . S
C1371 H1363 0.930 . S
C1371 C1372 1.355 . S
C1371 C1373 1.415 . S
C1372 C1371 1.355 . S
C1372 C1374 1.419 . S
C1373 C1368 1.425 . S
C1373 C1370 1.409 . S
C1373 C1371 1.415 . S
C1374 H1364 0.930 . S
C1374 C1372 1.419 . S
C1374 C1375 1.362 . S
C1375 H1365 0.930 . S
C1375 C1368 1.409 . S
C1375 C1374 1.362 . S
H1376 C1382 0.930 . S
H1377 C1385 0.930 . S
H1378 C1386 0.930 . S
H1379 C1387 0.930 . S
H1380 C1390 0.930 . S
H1381 C1391 0.930 . S
C1382 H1376 0.930 . S
C1382 C1383 1.355 . S
C1382 C1384 1.415 . S
C1383 C1382 1.355 . S
C1383 C1385 1.419 1_554 S
C1384 C1382 1.415 . S
C1384 C1389 1.425 1_554 S
C1384 C1391 1.409 . S
C1385 H1377 0.930 . S
C1385 C1383 1.419 1_556 S
C1385 C1386 1.362 . S
C1386 H1378 0.930 . S
C1386 C1385 1.362 . S
C1386 C1389 1.409 . S
C1387 H1379 0.930 . S
C1387 C1388 1.355 1_556 S
C1387 C1389 1.415 . S
C1388 C1387 1.355 1_554 S
C1388 C1390 1.419 . S
C1389 C1384 1.425 1_556 S
C1389 C1386 1.409 . S
C1389 C1387 1.415 . S
C1390 H1380 0.930 . S
C1390 C1388 1.419 . S
C1390 C1391 1.362 . S
C1391 H1381 0.930 . S
C1391 C1384 1.409 . S
C1391 C1390 1.362 . S
H1392 C1398 0.930 . S
H1393 C1401 0.930 . S
H1394 C1402 0.930 . S
H1395 C1403 0.930 . S
H1396 C1406 0.930 . S
H1397 C1407 0.930 . S
C1398 H1392 0.930 . S
C1398 C1399 1.355 . S
C1398 C1400 1.415 . S
C1399 C1398 1.355 . S
C1399 C1401 1.419 . S
C1400 C1398 1.415 . S
C1400 C1405 1.425 . S
C1400 C1407 1.409 . S
C1401 H1393 0.930 . S
C1401 C1399 1.419 . S
C1401 C1402 1.362 . S
C1402 H1394 0.930 . S
C1402 C1401 1.362 . S
C1402 C1405 1.409 . S
C1403 H1395 0.930 . S
C1403 C1404 1.355 . S
C1403 C1405 1.415 . S
C1404 C1403 1.355 . S
C1404 C1406 1.419 . S
C1405 C1400 1.425 . S
C1405 C1402 1.409 . S
C1405 C1403 1.415 . S
C1406 H1396 0.930 . S
C1406 C1404 1.419 . S
C1406 C1407 1.362 . S
C1407 H1397 0.930 . S
C1407 C1400 1.409 . S
C1407 C1406 1.362 . S
H1408 C1414 0.930 . S
H1409 C1417 0.930 . S
H1410 C1418 0.930 . S
H1411 C1419 0.930 . S
H1412 C1422 0.930 . S
H1413 C1423 0.930 . S
C1414 H1408 0.930 . S
C1414 C1415 1.355 . S
C1414 C1416 1.415 . S
C1415 C1414 1.355 . S
C1415 C1417 1.419 1_556 S
C1416 C1414 1.415 . S
C1416 C1421 1.425 1_556 S
C1416 C1423 1.409 . S
C1417 H1409 0.930 . S
C1417 C1415 1.419 1_554 S
C1417 C1418 1.362 . S
C1418 H1410 0.930 . S
C1418 C1417 1.362 . S
C1418 C1421 1.409 . S
C1419 H1411 0.930 . S
C1419 C1420 1.355 1_554 S
C1419 C1421 1.415 . S
C1420 C1419 1.355 1_556 S
C1420 C1422 1.419 . S
C1421 C1416 1.425 1_554 S
C1421 C1418 1.409 . S
C1421 C1419 1.415 . S
C1422 H1412 0.930 . S
C1422 C1420 1.419 . S
C1422 C1423 1.362 . S
C1423 H1413 0.930 . S
C1423 C1416 1.409 . S
C1423 C1422 1.362 . S
H1424 C1430 0.930 . S
H1425 C1433 0.930 . S
H1426 C1434 0.930 . S
H1427 C1435 0.930 . S
H1428 C1438 0.930 . S
H1429 C1439 0.930 . S
C1430 H1424 0.930 . S
C1430 C1431 1.355 . S
C1430 C1432 1.415 . S
C1431 C1430 1.355 . S
C1431 C1433 1.419 . S
C1432 C1430 1.415 . S
C1432 C1437 1.425 . S
C1432 C1439 1.409 . S
C1433 H1425 0.930 . S
C1433 C1431 1.419 . S
C1433 C1434 1.362 . S
C1434 H1426 0.930 . S
C1434 C1433 1.362 . S
C1434 C1437 1.409 . S
C1435 H1427 0.930 . S
C1435 C1436 1.355 . S
C1435 C1437 1.415 . S
C1436 C1435 1.355 . S
C1436 C1438 1.419 . S
C1437 C1432 1.425 . S
C1437 C1434 1.409 . S
C1437 C1435 1.415 . S
C1438 H1428 0.930 . S
C1438 C1436 1.419 . S
C1438 C1439 1.362 . S
C1439 H1429 0.930 . S
C1439 C1432 1.409 . S
C1439 C1438 1.362 . S
C423 C3 1.534 . S
C428 C44 1.507 . S
C439 C31 1.515 . S
C444 C16 1.508 . S
C455 C94 1.514 . S
C460 C57 1.534 . S
C471 C81 1.587 . S
C476 C68 1.586 . S
C487 C107 1.534 . S
C492 C146 1.554 . S
C503 C120 1.533 . S
C508 C133 1.553 . S
C519 C200 1.612 . S
C524 C161 1.602 . S
C535 C185 1.609 . S
C540 C172 1.589 . S
C551 C211 1.592 . S
C556 C252 1.565 . S
C567 C224 1.611 . S
C572 C239 1.602 . S
C583 C265 1.610 . S
C588 C302 1.594 . S
C599 C278 1.610 . S
C604 C289 1.593 . S
C615 C317 1.555 . S
C620 C354 1.520 . S
C631 C341 1.590 . S
C636 C328 1.581 . S
C647 C406 1.588 . S
C652 C367 1.586 . S
C663 C393 1.514 . S
C668 C382 1.508 . S
C679 C4 1.259 . S
C684 C62 1.259 . S
C695 C387 1.287 . S
C700 C17 1.288 . S
C711 C36 1.313 . S
C716 C186 1.313 . S
C727 C303 1.329 . S
C732 C49 1.329 . S
C743 C329 1.318 . S
C748 C69 1.317 . S
C759 C82 1.292 . S
C764 C134 1.291 . S
C775 C95 1.308 . S
C780 C257 1.307 . S
C791 C166 1.316 . S
C796 C108 1.316 . S
C807 C283 1.327 . S
C812 C121 1.327 . S
C823 C147 1.320 . S
C828 C407 1.320 . S
C839 C173 1.278 . S
C844 C225 1.278 . S
C855 C205 1.333 . S
C860 C355 1.333 . S
C871 C270 1.266 . S
C876 C212 1.266 . S
C887 C244 1.275 . S
C892 C394 1.276 . S
C903 C290 1.306 . S
C908 C342 1.306 . S
C919 C368 1.251 . S
C924 C322 1.252 . S
C935 C10 1.465 . S
C940 C251 1.447 . S
C951 C23 1.480 . S
C956 C238 1.486 . S
C967 C231 1.400 . S
C972 C30 1.425 . S
C983 C218 1.474 . S
C988 C43 1.472 . S
C999 C56 1.455 . S
C1004 C309 1.478 . S
C1015 C75 1.442 . S
C1020 C296 1.422 . S
C1031 C88 1.475 . S
C1036 C277 1.467 . S
C1047 C264 1.444 . S
C1052 C101 1.419 . S
C1063 C114 1.379 . S
C1068 C361 1.377 . S
C1079 C348 1.381 . S
C1084 C127 1.377 . S
C1095 C335 1.482 . S
C1100 C140 1.477 . S
C1111 C153 1.393 . S
C1116 C316 1.391 . S
C1127 C160 1.474 . S
C1132 C413 1.467 . S
C1143 C179 1.378 . S
C1148 C400 1.390 . S
C1159 C381 1.392 . S
C1164 C192 1.413 . S
C1175 C199 1.482 . S
C1180 C374 1.484 . S
C1191 C18 1.395 . S
C1196 C5 1.386 . S
C1207 C29 1.423 . S
C1212 C42 1.409 . S
C1223 C70 1.387 . S
C1228 C55 1.397 . S
C1239 C83 1.432 . S
C1244 C96 1.423 . S
C1255 C122 1.386 . S
C1260 C109 1.385 . S
C1271 C135 1.413 . S
C1276 C148 1.399 . S
C1287 C159 1.387 . S
C1292 C174 1.384 . S
C1303 C187 1.424 . S
C1308 C198 1.431 . S
C1319 C213 1.409 . S
C1324 C226 1.395 . S
C1335 C250 1.430 . S
C1340 C237 1.430 . S
C1351 C263 1.434 . S
C1356 C276 1.428 . S
C1367 C304 1.386 . S
C1372 C291 1.381 . S
C1383 C330 1.398 . S
C1388 C315 1.413 . S
C1399 C343 1.433 . S
C1404 C356 1.433 . S
C1415 C369 1.410 . S
C1420 C380 1.425 . S
C1431 C408 1.434 . S
C1436 C395 1.432 . S
