# Generated by pormake.
# Topology zga, (5)-cn, num edge types: 1
# Building blocks:
#     Node 0, Type 0, BuildingBlock: XOMCOT_clean_sbu_1, # of connection points: 5
#     Node 1, Type 0, BuildingBlock: XOMCOT_clean_sbu_1, # of connection points: 5
#     Node 2, Type 0, BuildingBlock: XOMCOT_clean_sbu_1, # of connection points: 5
#     Node 3, Type 0, BuildingBlock: XOMCOT_clean_sbu_1, # of connection points: 5
#     Node 4, Type 0, BuildingBlock: XOMCOT_clean_sbu_1, # of connection points: 5
#     Node 5, Type 0, BuildingBlock: XOMCOT_clean_sbu_1, # of connection points: 5
#     Node 6, Type 0, BuildingBlock: XOMCOT_clean_sbu_1, # of connection points: 5
#     Node 7, Type 0, BuildingBlock: XOMCOT_clean_sbu_1, # of connection points: 5
#     Node 8, Type 0, BuildingBlock: XOMCOT_clean_sbu_1, # of connection points: 5
#     Node 9, Type 0, BuildingBlock: XOMCOT_clean_sbu_1, # of connection points: 5
#     Node 10, Type 0, BuildingBlock: XOMCOT_clean_sbu_1, # of connection points: 5
#     Node 11, Type 0, BuildingBlock: XOMCOT_clean_sbu_1, # of connection points: 5
#     Node 12, Type 0, BuildingBlock: XOMCOT_clean_sbu_1, # of connection points: 5
#     Node 13, Type 0, BuildingBlock: XOMCOT_clean_sbu_1, # of connection points: 5
#     Node 14, Type 0, BuildingBlock: XOMCOT_clean_sbu_1, # of connection points: 5
#     Node 15, Type 0, BuildingBlock: XOMCOT_clean_sbu_1, # of connection points: 5
#     Edge 16, Type (0, 0), BuildingBlock: UVAHIK_clean_linker_0, # of connection points: 2
#     Edge 17, Type (0, 0), BuildingBlock: UVAHIK_clean_linker_0, # of connection points: 2
#     Edge 18, Type (0, 0), BuildingBlock: UVAHIK_clean_linker_0, # of connection points: 2
#     Edge 19, Type (0, 0), BuildingBlock: UVAHIK_clean_linker_0, # of connection points: 2
#     Edge 20, Type (0, 0), BuildingBlock: UVAHIK_clean_linker_0, # of connection points: 2
#     Edge 21, Type (0, 0), BuildingBlock: UVAHIK_clean_linker_0, # of connection points: 2
#     Edge 22, Type (0, 0), BuildingBlock: UVAHIK_clean_linker_0, # of connection points: 2
#     Edge 23, Type (0, 0), BuildingBlock: UVAHIK_clean_linker_0, # of connection points: 2
#     Edge 24, Type (0, 0), BuildingBlock: UVAHIK_clean_linker_0, # of connection points: 2
#     Edge 25, Type (0, 0), BuildingBlock: UVAHIK_clean_linker_0, # of connection points: 2
#     Edge 26, Type (0, 0), BuildingBlock: UVAHIK_clean_linker_0, # of connection points: 2
#     Edge 27, Type (0, 0), BuildingBlock: UVAHIK_clean_linker_0, # of connection points: 2
#     Edge 28, Type (0, 0), BuildingBlock: UVAHIK_clean_linker_0, # of connection points: 2
#     Edge 29, Type (0, 0), BuildingBlock: UVAHIK_clean_linker_0, # of connection points: 2
#     Edge 30, Type (0, 0), BuildingBlock: UVAHIK_clean_linker_0, # of connection points: 2
#     Edge 31, Type (0, 0), BuildingBlock: UVAHIK_clean_linker_0, # of connection points: 2
#     Edge 32, Type (0, 0), BuildingBlock: UVAHIK_clean_linker_0, # of connection points: 2
#     Edge 33, Type (0, 0), BuildingBlock: UVAHIK_clean_linker_0, # of connection points: 2
#     Edge 34, Type (0, 0), BuildingBlock: UVAHIK_clean_linker_0, # of connection points: 2
#     Edge 35, Type (0, 0), BuildingBlock: UVAHIK_clean_linker_0, # of connection points: 2
#     Edge 36, Type (0, 0), BuildingBlock: UVAHIK_clean_linker_0, # of connection points: 2
#     Edge 37, Type (0, 0), BuildingBlock: UVAHIK_clean_linker_0, # of connection points: 2
#     Edge 38, Type (0, 0), BuildingBlock: UVAHIK_clean_linker_0, # of connection points: 2
#     Edge 39, Type (0, 0), BuildingBlock: UVAHIK_clean_linker_0, # of connection points: 2
#     Edge 40, Type (0, 0), BuildingBlock: UVAHIK_clean_linker_0, # of connection points: 2
#     Edge 41, Type (0, 0), BuildingBlock: UVAHIK_clean_linker_0, # of connection points: 2
#     Edge 42, Type (0, 0), BuildingBlock: UVAHIK_clean_linker_0, # of connection points: 2
#     Edge 43, Type (0, 0), BuildingBlock: UVAHIK_clean_linker_0, # of connection points: 2
#     Edge 44, Type (0, 0), BuildingBlock: UVAHIK_clean_linker_0, # of connection points: 2
#     Edge 45, Type (0, 0), BuildingBlock: UVAHIK_clean_linker_0, # of connection points: 2
#     Edge 46, Type (0, 0), BuildingBlock: UVAHIK_clean_linker_0, # of connection points: 2
#     Edge 47, Type (0, 0), BuildingBlock: UVAHIK_clean_linker_0, # of connection points: 2
#     Edge 48, Type (0, 0), BuildingBlock: UVAHIK_clean_linker_0, # of connection points: 2
#     Edge 49, Type (0, 0), BuildingBlock: UVAHIK_clean_linker_0, # of connection points: 2
#     Edge 50, Type (0, 0), BuildingBlock: UVAHIK_clean_linker_0, # of connection points: 2
#     Edge 51, Type (0, 0), BuildingBlock: UVAHIK_clean_linker_0, # of connection points: 2
#     Edge 52, Type (0, 0), BuildingBlock: UVAHIK_clean_linker_0, # of connection points: 2
#     Edge 53, Type (0, 0), BuildingBlock: UVAHIK_clean_linker_0, # of connection points: 2
#     Edge 54, Type (0, 0), BuildingBlock: UVAHIK_clean_linker_0, # of connection points: 2
#     Edge 55, Type (0, 0), BuildingBlock: UVAHIK_clean_linker_0, # of connection points: 2
# Relax obj value: 0.043
# Max RMSD: 0.091
# Mean RMSD: 0.091
data_MOF--net-zga--node1-XOMCOT_clean_sbu_1--edge1-UVAHIK_clean_linker_0
_symmetry_space_group_name_H-M    P1
_symmetry_Int_Tables_number       1
_symmetry_cell_setting            triclinic
loop_
_symmetry_equiv_pos_as_xyz
'x, y, z'
_cell_length_a     65.916873
_cell_length_b     128.92273
_cell_length_c     22.026414
_cell_angle_alpha  90.000972
_cell_angle_beta   89.991912
_cell_angle_gamma 92.937942
loop_
_atom_site_label
_atom_site_type_symbol
_atom_site_fract_x
_atom_site_fract_y
_atom_site_fract_z
_atom_type_partial_charge
C0 C 0.16366 0.5455 0.10507 0.0
C1 C 0.16656 0.54652 0.04347 0.0
N2 N 0.15167 0.54088 0.01469 0.0
N3 N 0.14699 0.53929 0.11535 0.0
C4 C 0.14009 0.53652 0.0596 0.0
H5 H 0.17279 0.54928 0.14025 0.0
Co6 Co 0.13622 0.53644 0.19186 0.0
C7 C 0.09273 0.53071 0.17047 0.0
O8 O 0.08858 0.53703 0.21511 0.0
N9 N 0.12574 0.5333 0.27052 0.0
C10 C 0.11292 0.52355 0.34636 0.0
C11 C 0.11625 0.52407 0.28492 0.0
C12 C 0.12858 0.5381 0.32487 0.0
N13 N 0.1208 0.53236 0.3715 0.0
O14 O 0.14998 0.52365 0.19343 0.0
H15 H 0.1128 0.51786 0.253 0.0
H16 H 0.13691 0.54543 0.33118 0.0
O17 O 0.11131 0.52971 0.15515 0.0
C18 C 0.16592 0.52573 0.22512 0.0
O19 O 0.16865 0.53512 0.24792 0.0
N20 N 0.12576 0.54972 0.19149 0.0
C21 C 0.12458 0.57118 0.17585 0.0
C22 C 0.11156 0.56438 0.14241 0.0
C23 C 0.11271 0.55361 0.14991 0.0
C24 C 0.1382 0.5563 0.22457 0.0
C25 C 0.13757 0.567 0.21852 0.0
H26 H 0.10445 0.54852 0.11865 0.0
H27 H 0.15023 0.55326 0.25138 0.0
H28 H 0.12673 0.53148 0.0521 0.0
H29 H 0.1784 0.55133 0.02187 0.0
H30 H 0.10636 0.51694 0.37104 0.0
H31 H 0.10177 0.56733 0.10762 0.0
H32 H 0.14813 0.57196 0.24448 0.0
C33 C 0.11307 0.70225 0.06721 0.0
C34 C 0.1117 0.70088 0.00545 0.0
N35 N 0.12261 0.70869 0.97833 0.0
N36 N 0.12493 0.71084 0.07904 0.0
C37 C 0.13037 0.71466 0.02397 0.0
H38 H 0.10603 0.69724 0.10141 0.0
Co39 Co 0.13213 0.71561 0.15628 0.0
C40 C 0.1749 0.72343 0.14459 0.0
O41 O 0.17854 0.71835 0.19484 0.0
N42 N 0.13893 0.72071 0.2347 0.0
C43 C 0.14717 0.73243 0.30608 0.0
C44 C 0.14502 0.73073 0.24491 0.0
C45 C 0.13702 0.71657 0.29108 0.0
N46 N 0.14206 0.72351 0.33531 0.0
O47 O 0.11578 0.72738 0.14525 0.0
H48 H 0.14741 0.73654 0.20986 0.0
H49 H 0.1312 0.70878 0.30035 0.0
O50 O 0.15682 0.72306 0.12283 0.0
C51 C 0.09783 0.72403 0.15951 0.0
O52 O 0.09499 0.71423 0.17527 0.0
N53 N 0.14543 0.70323 0.16832 0.0
C54 C 0.15267 0.68205 0.17001 0.0
C55 C 0.16443 0.68894 0.13329 0.0
C56 C 0.16042 0.69952 0.13253 0.0
C57 C 0.13381 0.69656 0.20335 0.0
C58 C 0.13748 0.68606 0.20621 0.0
H59 H 0.16816 0.70447 0.09945 0.0
H60 H 0.12021 0.69919 0.22445 0.0
H61 H 0.14018 0.72156 0.01741 0.0
H62 H 0.10321 0.69465 0.98233 0.0
H63 H 0.15195 0.73973 0.32714 0.0
H64 H 0.17591 0.6861 0.10322 0.0
H65 H 0.1273 0.68098 0.23267 0.0
C66 C 0.86056 0.45344 0.95013 0.0
C67 C 0.85858 0.45212 0.01178 0.0
N68 N 0.86973 0.45977 0.03961 0.0
N69 N 0.87301 0.46185 0.93904 0.0
C70 C 0.87821 0.46561 0.99444 0.0
H71 H 0.85369 0.44847 0.91547 0.0
Co72 Co 0.88144 0.46622 0.86206 0.0
C73 C 0.92402 0.47396 0.87838 0.0
O74 O 0.92825 0.46846 0.83016 0.0
N75 N 0.88938 0.47093 0.7836 0.0
C76 C 0.89859 0.48238 0.71161 0.0
C77 C 0.89641 0.4808 0.77284 0.0
C78 C 0.88679 0.4668 0.72736 0.0
N79 N 0.89244 0.47357 0.68278 0.0
O80 O 0.86487 0.47799 0.86822 0.0
H81 H 0.89918 0.48665 0.80746 0.0
H82 H 0.87979 0.45923 0.71839 0.0
O83 O 0.90561 0.4739 0.89752 0.0
C84 C 0.84724 0.47455 0.85133 0.0
O85 O 0.84479 0.46469 0.83642 0.0
N86 N 0.8951 0.45381 0.85482 0.0
C87 C 0.9027 0.43276 0.86072 0.0
C88 C 0.91301 0.43987 0.89928 0.0
C89 C 0.90893 0.45042 0.89581 0.0
C90 C 0.88481 0.44685 0.81812 0.0
C91 C 0.88883 0.43637 0.81888 0.0
H92 H 0.91542 0.45561 0.9299 0.0
H93 H 0.87174 0.44918 0.79314 0.0
H94 H 0.88851 0.4723 1.00163 0.0
H95 H 0.84963 0.44599 0.03434 0.0
H96 H 0.90394 0.48956 0.69023 0.0
H97 H 0.92319 0.43722 0.93394 0.0
H98 H 0.87982 0.43099 0.7908 0.0
C99 C 0.90982 0.29945 0.91989 0.0
C100 C 0.91343 0.30038 0.98115 0.0
N101 N 0.90201 0.29297 0.01031 0.0
N102 N 0.89613 0.29151 0.91012 0.0
C103 C 0.89179 0.28763 0.96597 0.0
H104 H 0.91647 0.30438 0.88461 0.0
Co105 Co 0.88591 0.28759 0.83364 0.0
C106 C 0.84291 0.28189 0.86285 0.0
O107 O 0.83794 0.28853 0.82079 0.0
N108 N 0.87654 0.28325 0.75528 0.0
C109 C 0.86266 0.27374 0.67978 0.0
C110 C 0.8629 0.2754 0.74135 0.0
C111 C 0.88532 0.28568 0.70104 0.0
N112 N 0.87676 0.28026 0.65427 0.0
O113 O 0.90141 0.27541 0.83637 0.0
H114 H 0.8544 0.27061 0.77358 0.0
H115 H 0.89865 0.29086 0.69615 0.0
O116 O 0.86176 0.28045 0.87271 0.0
C117 C 0.91905 0.27865 0.81834 0.0
O118 O 0.92186 0.28847 0.80312 0.0
N119 N 0.873 0.30052 0.82937 0.0
C120 C 0.86929 0.32205 0.83713 0.0
C121 C 0.86213 0.31547 0.88415 0.0
C122 C 0.86395 0.3047 0.87913 0.0
C123 C 0.87852 0.3068 0.78177 0.0
C124 C 0.87615 0.31745 0.78385 0.0
H125 H 0.86001 0.29989 0.91798 0.0
H126 H 0.88673 0.30394 0.74403 0.0
H127 H 0.8809 0.28122 0.97409 0.0
H128 H 0.9237 0.3061 1.0024 0.0
H129 H 0.85308 0.26802 0.65595 0.0
H130 H 0.8567 0.31861 0.92637 0.0
H131 H 0.88127 0.32211 0.74537 0.0
C132 C 0.16281 0.05025 0.57777 0.0
C133 C 0.16449 0.05156 0.51603 0.0
N134 N 0.15268 0.04411 0.48876 0.0
N135 N 0.14987 0.04206 0.58949 0.0
C136 C 0.14409 0.0384 0.53433 0.0
H137 H 0.17033 0.05507 0.61203 0.0
Co138 Co 0.14171 0.03762 0.66674 0.0
C139 C 0.09843 0.03087 0.65222 0.0
O140 O 0.09473 0.03627 0.70126 0.0
N141 N 0.13385 0.03285 0.7451 0.0
C142 C 0.12402 0.02142 0.81652 0.0
C143 C 0.12652 0.02302 0.75538 0.0
C144 C 0.13612 0.03696 0.80147 0.0
N145 N 0.13016 0.03019 0.84572 0.0
O146 O 0.15695 0.02542 0.65763 0.0
H147 H 0.1236 0.01724 0.72043 0.0
H148 H 0.14291 0.04457 0.81076 0.0
O149 O 0.11669 0.03071 0.63225 0.0
C150 C 0.17499 0.0285 0.67266 0.0
O151 O 0.17836 0.03828 0.68825 0.0
N152 N 0.12967 0.05039 0.67703 0.0
C153 C 0.12706 0.07193 0.67089 0.0
C154 C 0.1139 0.06534 0.63645 0.0
C155 C 0.11568 0.05454 0.63941 0.0
C156 C 0.14204 0.05675 0.71177 0.0
C157 C 0.14061 0.06745 0.71079 0.0
H158 H 0.10732 0.04971 0.607 0.0
H159 H 0.15483 0.05364 0.73483 0.0
H160 H 0.13341 0.03185 0.52761 0.0
H161 H 0.17375 0.05752 0.49302 0.0
H162 H 0.11836 0.01426 0.83758 0.0
H163 H 0.10362 0.06851 0.60381 0.0
H164 H 0.15121 0.07222 0.73769 0.0
C165 C 0.1108 0.20445 0.56078 0.0
C166 C 0.10949 0.20308 0.49902 0.0
N167 N 0.12097 0.21071 0.47208 0.0
N168 N 0.12319 0.21285 0.57283 0.0
C169 C 0.129 0.21656 0.51784 0.0
H170 H 0.10335 0.19956 0.59483 0.0
Co171 Co 0.13057 0.21751 0.65022 0.0
C172 C 0.17372 0.22468 0.63908 0.0
O173 O 0.17701 0.2195 0.68925 0.0
N174 N 0.13762 0.22252 0.72868 0.0
C175 C 0.14647 0.23416 0.79994 0.0
C176 C 0.14407 0.23249 0.73882 0.0
C177 C 0.13581 0.21837 0.78506 0.0
N178 N 0.14119 0.22527 0.82922 0.0
O179 O 0.11498 0.22955 0.63891 0.0
H180 H 0.1466 0.23829 0.70375 0.0
H181 H 0.12988 0.2106 0.79441 0.0
O182 O 0.15569 0.22456 0.61704 0.0
C183 C 0.09688 0.22637 0.65271 0.0
O184 O 0.09363 0.2166 0.66852 0.0
N185 N 0.14295 0.2049 0.66251 0.0
C186 C 0.14676 0.18342 0.65939 0.0
C187 C 0.15994 0.19007 0.62538 0.0
C188 C 0.15756 0.20083 0.62676 0.0
C189 C 0.13049 0.19849 0.69668 0.0
C190 C 0.13248 0.18783 0.6972 0.0
H191 H 0.16605 0.20566 0.59467 0.0
H192 H 0.11736 0.20152 0.71843 0.0
H193 H 0.13925 0.2233 0.51142 0.0
H194 H 0.10066 0.19699 0.47576 0.0
H195 H 0.15157 0.24142 0.82093 0.0
H196 H 0.1708 0.18694 0.59429 0.0
H197 H 0.12187 0.18301 0.72376 0.0
C198 C 0.86225 0.95582 0.42166 0.0
C199 C 0.85914 0.95465 0.48312 0.0
N200 N 0.87219 0.96131 0.51243 0.0
N201 N 0.87727 0.96312 0.41219 0.0
C202 C 0.8829 0.96641 0.46829 0.0
H203 H 0.85443 0.95144 0.38603 0.0
Co204 Co 0.88795 0.96657 0.33617 0.0
C205 C 0.93066 0.97332 0.36058 0.0
O206 O 0.93549 0.96706 0.31634 0.0
N207 N 0.89818 0.97038 0.25767 0.0
C208 C 0.91024 0.98089 0.18417 0.0
C209 C 0.90784 0.97966 0.24559 0.0
C210 C 0.89409 0.96635 0.20176 0.0
N211 N 0.90144 0.97254 0.15627 0.0
O212 O 0.87232 0.97872 0.33503 0.0
H213 H 0.91194 0.98552 0.27911 0.0
H214 H 0.88442 0.95951 0.19374 0.0
O215 O 0.91188 0.97407 0.37456 0.0
C216 C 0.85651 0.97595 0.30435 0.0
O217 O 0.85495 0.96641 0.28315 0.0
N218 N 0.90067 0.95378 0.33621 0.0
C219 C 0.90718 0.93266 0.3487 0.0
C220 C 0.91611 0.93988 0.3894 0.0
C221 C 0.91264 0.95045 0.38245 0.0
C222 C 0.8916 0.94672 0.2975 0.0
C223 C 0.89519 0.93621 0.30157 0.0
H224 H 0.91815 0.95577 0.41727 0.0
H225 H 0.87977 0.94901 0.26755 0.0
H226 H 0.89513 0.97213 0.47687 0.0
H227 H 0.84821 0.94927 0.50452 0.0
H228 H 0.91731 0.98764 0.16204 0.0
H229 H 0.92485 0.93732 0.42775 0.0
H230 H 0.88718 0.93077 0.27133 0.0
C231 C 0.91251 0.79921 0.42269 0.0
C232 C 0.91616 0.80005 0.48401 0.0
N233 N 0.90472 0.7926 0.51283 0.0
N234 N 0.89878 0.7913 0.41258 0.0
C235 C 0.89446 0.78735 0.46826 0.0
H236 H 0.91917 0.80418 0.38762 0.0
Co237 Co 0.88838 0.78747 0.33611 0.0
C238 C 0.84536 0.78195 0.36652 0.0
O239 O 0.84032 0.78865 0.32486 0.0
N240 N 0.8788 0.7832 0.25777 0.0
C241 C 0.86458 0.77373 0.18266 0.0
C242 C 0.86494 0.77543 0.24417 0.0
C243 C 0.88753 0.78555 0.20332 0.0
N244 N 0.87879 0.78014 0.1568 0.0
O245 O 0.90373 0.77522 0.33836 0.0
H246 H 0.85639 0.77071 0.27659 0.0
H247 H 0.90094 0.79066 0.19811 0.0
O248 O 0.86422 0.78041 0.37549 0.0
C249 C 0.92135 0.77841 0.31986 0.0
O250 O 0.92418 0.78824 0.30465 0.0
N251 N 0.87567 0.80045 0.33223 0.0
C252 C 0.87212 0.822 0.33972 0.0
C253 C 0.86504 0.81546 0.38701 0.0
C254 C 0.86679 0.80469 0.38214 0.0
C255 C 0.88116 0.80671 0.28447 0.0
C256 C 0.87887 0.81736 0.28643 0.0
H257 H 0.8629 0.7999 0.42114 0.0
H258 H 0.88926 0.80381 0.24662 0.0
H259 H 0.88356 0.78093 0.47611 0.0
H260 H 0.92646 0.80572 0.50552 0.0
H261 H 0.85486 0.76803 0.15911 0.0
H262 H 0.8597 0.81863 0.42926 0.0
H263 H 0.88393 0.822 0.24777 0.0
C264 C 0.66151 0.54892 0.56372 0.0
C265 C 0.66371 0.54995 0.50199 0.0
N266 N 0.65172 0.54254 0.47475 0.0
N267 N 0.64812 0.54093 0.57563 0.0
C268 C 0.64252 0.53715 0.52063 0.0
H269 H 0.66889 0.55382 0.59782 0.0
Co270 Co 0.63932 0.53693 0.65287 0.0
C271 C 0.59623 0.52992 0.63693 0.0
O272 O 0.59221 0.53553 0.68488 0.0
N273 N 0.63088 0.53262 0.73144 0.0
C274 C 0.62065 0.52166 0.80491 0.0
C275 C 0.62365 0.52284 0.74361 0.0
C276 C 0.63265 0.53715 0.78683 0.0
N277 N 0.62641 0.53067 0.83207 0.0
O278 O 0.65477 0.52473 0.64758 0.0
H279 H 0.62127 0.51678 0.70997 0.0
H280 H 0.6388 0.54493 0.79486 0.0
O281 O 0.61461 0.52974 0.6179 0.0
C282 C 0.67256 0.52788 0.66465 0.0
O283 O 0.6756 0.53771 0.67958 0.0
N284 N 0.62706 0.54972 0.65939 0.0
C285 C 0.62349 0.57116 0.6496 0.0
C286 C 0.61077 0.56427 0.61577 0.0
C287 C 0.61306 0.55353 0.62045 0.0
C288 C 0.63911 0.55638 0.69326 0.0
C289 C 0.63724 0.56705 0.69031 0.0
H290 H 0.60501 0.54846 0.58861 0.0
H291 H 0.65185 0.55352 0.7177 0.0
H292 H 0.63189 0.53057 0.51442 0.0
H293 H 0.673 0.55591 0.47915 0.0
H294 H 0.61556 0.51458 0.82795 0.0
H295 H 0.60037 0.56716 0.58249 0.0
H296 H 0.64753 0.57208 0.71673 0.0
C297 C 0.60783 0.70841 0.59331 0.0
C298 C 0.60475 0.70749 0.53173 0.0
N299 N 0.61986 0.71295 0.5028 0.0
N300 N 0.62482 0.7144 0.60344 0.0
C301 C 0.63173 0.71712 0.5476 0.0
H302 H 0.59862 0.70471 0.62857 0.0
Co303 Co 0.63602 0.71698 0.67978 0.0
C304 C 0.67949 0.72249 0.65586 0.0
O305 O 0.68389 0.71592 0.69897 0.0
N306 N 0.64698 0.71985 0.75832 0.0
C307 C 0.66046 0.72934 0.83433 0.0
C308 C 0.65713 0.72889 0.77287 0.0
C309 C 0.64373 0.7151 0.81268 0.0
N310 N 0.65189 0.72068 0.85941 0.0
O311 O 0.62251 0.72982 0.68337 0.0
H312 H 0.66096 0.73509 0.74115 0.0
H313 H 0.63473 0.70797 0.81897 0.0
O314 O 0.66081 0.72371 0.6425 0.0
C315 C 0.60676 0.72772 0.71581 0.0
O316 O 0.604 0.71829 0.73793 0.0
N317 N 0.6462 0.70364 0.67753 0.0
C318 C 0.64655 0.6822 0.65948 0.0
C319 C 0.65943 0.689 0.62556 0.0
C320 C 0.65871 0.69977 0.63439 0.0
C321 C 0.63392 0.69705 0.71108 0.0
C322 C 0.63418 0.68636 0.70392 0.0
H323 H 0.66681 0.70489 0.60293 0.0
H324 H 0.62219 0.70009 0.73905 0.0
H325 H 0.64534 0.72196 0.53993 0.0
H326 H 0.59266 0.70284 0.51022 0.0
H327 H 0.66743 0.73584 0.85908 0.0
H328 H 0.66874 0.68609 0.58949 0.0
H329 H 0.62377 0.68141 0.73043 0.0
C330 C 0.35988 0.45538 0.40872 0.0
C331 C 0.35726 0.45407 0.47029 0.0
N332 N 0.37074 0.46055 0.49916 0.0
N333 N 0.37502 0.46259 0.39878 0.0
C334 C 0.38123 0.46568 0.45472 0.0
H335 H 0.35155 0.4512 0.3733 0.0
Co336 Co 0.38499 0.46632 0.32244 0.0
C337 C 0.42808 0.47294 0.34318 0.0
O338 O 0.43248 0.46705 0.29677 0.0
N339 N 0.39461 0.47038 0.24396 0.0
C340 C 0.40597 0.48111 0.17081 0.0
C341 C 0.40331 0.47988 0.23214 0.0
C342 C 0.39153 0.46613 0.18813 0.0
N343 N 0.39839 0.47248 0.14277 0.0
O344 O 0.3698 0.47863 0.325 0.0
H345 H 0.40678 0.48579 0.26596 0.0
H346 H 0.38317 0.45887 0.18011 0.0
O347 O 0.40947 0.47344 0.35965 0.0
C348 C 0.35376 0.4762 0.2945 0.0
O349 O 0.3518 0.46684 0.27095 0.0
N350 N 0.39705 0.45343 0.31866 0.0
C351 C 0.40235 0.43207 0.32534 0.0
C352 C 0.41344 0.43901 0.36344 0.0
C353 C 0.41037 0.44969 0.35995 0.0
C354 C 0.38598 0.44671 0.28247 0.0
C355 C 0.38875 0.43609 0.28381 0.0
H356 H 0.41748 0.45475 0.39362 0.0
H357 H 0.37339 0.44942 0.2568 0.0
H358 H 0.39361 0.47133 0.46291 0.0
H359 H 0.3463 0.44875 0.49206 0.0
H360 H 0.41249 0.48801 0.14884 0.0
H361 H 0.42364 0.43619 0.39748 0.0
H362 H 0.37904 0.431 0.25595 0.0
C363 C 0.4095 0.29999 0.43485 0.0
C364 C 0.41087 0.30135 0.4966 0.0
N365 N 0.39928 0.29378 0.52359 0.0
N366 N 0.39696 0.29165 0.42286 0.0
C367 C 0.39112 0.28796 0.47788 0.0
H368 H 0.41701 0.30485 0.40078 0.0
Co369 Co 0.38943 0.28704 0.34546 0.0
C370 C 0.34628 0.2799 0.35698 0.0
O371 O 0.34293 0.28512 0.307 0.0
N372 N 0.38226 0.28211 0.26702 0.0
C373 C 0.37332 0.27053 0.19557 0.0
C374 C 0.3757 0.27216 0.25671 0.0
C375 C 0.38417 0.28629 0.21072 0.0
N376 N 0.37874 0.27942 0.16644 0.0
O377 O 0.40498 0.27497 0.35612 0.0
H378 H 0.37312 0.26635 0.29167 0.0
H379 H 0.39022 0.29404 0.20157 0.0
O380 O 0.36433 0.27999 0.3788 0.0
C381 C 0.4231 0.27811 0.3423 0.0
O382 O 0.42649 0.2879 0.32716 0.0
N383 N 0.37709 0.2997 0.33372 0.0
C384 C 0.37366 0.32117 0.33858 0.0
C385 C 0.36027 0.31452 0.37172 0.0
C386 C 0.36248 0.30375 0.36959 0.0
C387 C 0.38967 0.30612 0.30004 0.0
C388 C 0.38794 0.31681 0.30067 0.0
H389 H 0.35389 0.29888 0.40128 0.0
H390 H 0.40276 0.30308 0.27811 0.0
H391 H 0.38073 0.28128 0.48437 0.0
H392 H 0.41982 0.3074 0.51982 0.0
H393 H 0.36817 0.26329 0.17447 0.0
H394 H 0.34943 0.31764 0.40287 0.0
H395 H 0.39879 0.32168 0.27518 0.0
C396 C 0.66651 0.04483 0.09544 0.0
C397 C 0.66943 0.04584 0.03384 0.0
N398 N 0.6547 0.04008 0.00505 0.0
N399 N 0.64999 0.0385 0.10571 0.0
C400 C 0.64321 0.03566 0.04995 0.0
H401 H 0.67548 0.0487 0.13061 0.0
Co402 Co 0.63915 0.03566 0.18217 0.0
C403 C 0.59581 0.02967 0.16 0.0
O404 O 0.59142 0.03602 0.20425 0.0
N405 N 0.62859 0.03253 0.26082 0.0
C406 C 0.61582 0.02277 0.33668 0.0
C407 C 0.61914 0.0233 0.27525 0.0
C408 C 0.63144 0.03732 0.3152 0.0
N409 N 0.62369 0.03158 0.36184 0.0
O410 O 0.65323 0.02298 0.18461 0.0
H411 H 0.61574 0.01707 0.24338 0.0
H412 H 0.63981 0.04464 0.32156 0.0
O413 O 0.61446 0.02873 0.14522 0.0
C414 C 0.66911 0.02529 0.21611 0.0
O415 O 0.67159 0.03478 0.23757 0.0
N416 N 0.62833 0.04886 0.18107 0.0
C417 C 0.62628 0.0703 0.16538 0.0
C418 C 0.61379 0.06335 0.13116 0.0
C419 C 0.61536 0.0526 0.13878 0.0
C420 C 0.64033 0.05557 0.21467 0.0
C421 C 0.63921 0.06625 0.20874 0.0
H422 H 0.60747 0.04743 0.10719 0.0
H423 H 0.65238 0.05268 0.24198 0.0
H424 H 0.62996 0.03054 0.04242 0.0
H425 H 0.68113 0.05073 0.01223 0.0
H426 H 0.6093 0.01614 0.36136 0.0
H427 H 0.60406 0.06616 0.09584 0.0
H428 H 0.64932 0.07131 0.23559 0.0
C429 C 0.61111 0.20335 0.07218 0.0
C430 C 0.60943 0.20202 0.01046 0.0
N431 N 0.62138 0.20942 0.98314 0.0
N432 N 0.62416 0.2115 0.08384 0.0
C433 C 0.63003 0.21511 0.02865 0.0
H434 H 0.60351 0.19857 0.10648 0.0
Co435 Co 0.63239 0.21587 0.16111 0.0
C436 C 0.67564 0.22268 0.14649 0.0
O437 O 0.67937 0.2172 0.19518 0.0
N438 N 0.6403 0.22058 0.2395 0.0
C439 C 0.65015 0.23196 0.31112 0.0
C440 C 0.64762 0.2304 0.24998 0.0
C441 C 0.63804 0.21642 0.29577 0.0
N442 N 0.64402 0.22316 0.34015 0.0
O443 O 0.61707 0.22806 0.15262 0.0
H444 H 0.65052 0.2362 0.21517 0.0
H445 H 0.63125 0.20881 0.30487 0.0
O446 O 0.65736 0.22286 0.12663 0.0
C447 C 0.59906 0.22497 0.16789 0.0
O448 O 0.5957 0.21519 0.18325 0.0
N449 N 0.64451 0.2031 0.17078 0.0
C450 C 0.64726 0.18158 0.16365 0.0
C451 C 0.66039 0.18823 0.12956 0.0
C452 C 0.65853 0.19902 0.13295 0.0
C453 C 0.63217 0.19668 0.20525 0.0
C454 C 0.63363 0.18598 0.20363 0.0
H455 H 0.66685 0.2039 0.10071 0.0
H456 H 0.61938 0.19974 0.22856 0.0
H457 H 0.64084 0.2216 0.02187 0.0
H458 H 0.6001 0.19608 0.98749 0.0
H459 H 0.65582 0.2391 0.33232 0.0
H460 H 0.67073 0.18511 0.09686 0.0
H461 H 0.62301 0.18114 0.2301 0.0
C462 C 0.36255 0.95345 0.94138 0.0
C463 C 0.36074 0.95214 1.00309 0.0
N464 N 0.37263 0.95955 0.03053 0.0
N465 N 0.37564 0.96159 0.92985 0.0
C466 C 0.38139 0.96522 0.9851 0.0
H467 H 0.35502 0.94866 0.90701 0.0
Co468 Co 0.384 0.96596 0.85267 0.0
C469 C 0.42724 0.97276 0.86803 0.0
O470 O 0.43107 0.96733 0.81923 0.0
N471 N 0.39203 0.97066 0.77433 0.0
C472 C 0.40196 0.98203 0.7027 0.0
C473 C 0.39949 0.98046 0.76387 0.0
C474 C 0.38962 0.96653 0.71803 0.0
N475 N 0.39564 0.97327 0.67364 0.0
O476 O 0.36871 0.97816 0.86097 0.0
H477 H 0.40248 0.98625 0.79869 0.0
H478 H 0.38265 0.95896 0.70892 0.0
O479 O 0.40892 0.97292 0.88757 0.0
C480 C 0.35073 0.97506 0.84536 0.0
O481 O 0.34744 0.96528 0.82977 0.0
N482 N 0.39611 0.95319 0.84315 0.0
C483 C 0.39868 0.93167 0.8507 0.0
C484 C 0.41181 0.9383 0.88484 0.0
C485 C 0.41005 0.9491 0.88122 0.0
C486 C 0.3838 0.94677 0.80856 0.0
C487 C 0.38518 0.93607 0.81037 0.0
H488 H 0.41835 0.95397 0.91351 0.0
H489 H 0.37106 0.94984 0.78509 0.0
H490 H 0.39218 0.97172 0.99198 0.0
H491 H 0.35135 0.94622 0.02596 0.0
H492 H 0.40768 0.98916 0.68151 0.0
H493 H 0.42205 0.93518 0.9178 0.0
H494 H 0.37456 0.93124 0.78386 0.0
C495 C 0.4155 0.79498 0.92173 0.0
C496 C 0.4184 0.79599 0.98332 0.0
N497 N 0.40363 0.79027 0.01211 0.0
N498 N 0.39895 0.78868 0.91146 0.0
C499 C 0.39212 0.78586 0.96722 0.0
H500 H 0.42453 0.79881 0.88653 0.0
Co501 Co 0.38818 0.7858 0.83499 0.0
C502 C 0.34478 0.77991 0.85639 0.0
O503 O 0.3406 0.78625 0.81186 0.0
N504 N 0.37771 0.78263 0.75631 0.0
C505 C 0.36504 0.77281 0.68052 0.0
C506 C 0.36836 0.77336 0.74195 0.0
C507 C 0.38048 0.78742 0.70191 0.0
N508 N 0.37279 0.78164 0.65532 0.0
O509 O 0.4022 0.77309 0.83316 0.0
H510 H 0.36501 0.76714 0.7739 0.0
H511 H 0.38872 0.79477 0.69549 0.0
O512 O 0.36337 0.77894 0.87176 0.0
C513 C 0.41802 0.7753 0.8012 0.0
O514 O 0.42051 0.78471 0.77856 0.0
N515 N 0.37748 0.79902 0.83559 0.0
C516 C 0.37572 0.82047 0.85106 0.0
C517 C 0.36307 0.81358 0.88515 0.0
C518 C 0.36449 0.80282 0.87764 0.0
C519 C 0.38962 0.80568 0.80207 0.0
C520 C 0.38865 0.81637 0.80788 0.0
H521 H 0.35647 0.79768 0.90918 0.0
H522 H 0.40166 0.80273 0.77496 0.0
H523 H 0.37885 0.78076 0.97474 0.0
H524 H 0.43014 0.80086 0.00492 0.0
H525 H 0.35858 0.76617 0.65589 0.0
H526 H 0.35333 0.81644 0.92032 0.0
H527 H 0.39887 0.82138 0.78114 0.0
C528 C 0.33044 0.48979 0.33093 0.0
C529 C 0.33706 0.48324 0.2849 0.0
C530 C 0.31198 0.49468 0.32458 0.0
C531 C 0.27256 0.50131 0.21132 0.0
H532 H 0.23593 0.49918 0.34891 0.0
C533 C 0.18853 0.5118 0.18955 0.0
C534 C 0.18194 0.51834 0.23564 0.0
C535 C 0.20678 0.50673 0.19635 0.0
C536 C 0.246 0.49989 0.31011 0.0
H537 H 0.3304 0.47717 0.19492 0.0
H538 H 0.29865 0.48569 0.18363 0.0
H539 H 0.27046 0.49343 0.35901 0.0
H540 H 0.18836 0.52419 0.32622 0.0
H541 H 0.21975 0.51537 0.33827 0.0
H542 H 0.24814 0.50779 0.16244 0.0
C543 C 0.30744 0.48711 0.22462 0.0
C544 C 0.26586 0.49666 0.31608 0.0
C545 C 0.32563 0.48218 0.23122 0.0
C546 C 0.1931 0.51918 0.28992 0.0
C547 C 0.2111 0.51409 0.29692 0.0
C548 C 0.25271 0.50455 0.20536 0.0
C549 C 0.30004 0.49319 0.27179 0.0
C550 C 0.27939 0.49732 0.26674 0.0
C551 C 0.21854 0.50806 0.24958 0.0
C552 C 0.23917 0.50389 0.25469 0.0
H553 H 0.33888 0.49066 0.37297 0.0
H554 H 0.3068 0.49942 0.36149 0.0
H555 H 0.28263 0.50202 0.17253 0.0
H556 H 0.18031 0.51111 0.14704 0.0
H557 H 0.21197 0.50202 0.1593 0.0
C558 C 0.06069 0.72607 0.15533 0.0
C559 C 0.08028 0.7307 0.16309 0.0
C560 C 0.04352 0.73145 0.16968 0.0
C561 C 0.02762 0.75224 0.26997 0.0
H562 H 0.97709 0.74907 0.17996 0.0
C563 C 0.95843 0.77627 0.32077 0.0
C564 C 0.93875 0.77169 0.31415 0.0
C565 C 0.97545 0.77082 0.30576 0.0
C566 C 0.99099 0.74989 0.20615 0.0
H567 H 0.0973 0.74478 0.18944 0.0
H568 H 0.06705 0.75434 0.2144 0.0
H569 H 1.0076 0.7415 0.14039 0.0
H570 H 0.92141 0.75766 0.2888 0.0
H571 H 0.95143 0.74798 0.26242 0.0
H572 H 1.01102 0.76062 0.33572 0.0
C573 C 0.06506 0.74647 0.19755 0.0
C574 C 1.00853 0.74561 0.18325 0.0
C575 C 0.08236 0.74106 0.18256 0.0
C576 C 0.93643 0.76133 0.29475 0.0
C577 C 0.95359 0.75586 0.27902 0.0
C578 C 1.01008 0.75651 0.29287 0.0
C579 C 0.04545 0.74161 0.19261 0.0
C580 C 0.02708 0.74674 0.21485 0.0
C581 C 0.97328 0.76064 0.28327 0.0
C582 C 0.99155 0.75541 0.26119 0.0
H583 H 0.05862 0.71808 0.14033 0.0
H584 H 0.02875 0.72742 0.16572 0.0
H585 H 0.0415 0.75306 0.2962 0.0
H586 H 0.96069 0.78425 0.33574 0.0
H587 H 0.99028 0.7748 0.30911 0.0
C588 C 0.33096 0.76769 0.93819 0.0
C589 C 0.32776 0.77399 0.88734 0.0
C590 C 0.31455 0.76222 0.96645 0.0
C591 C 0.25792 0.7616 0.97878 0.0
H592 H 0.26392 0.73366 0.03844 0.0
C593 C 0.18907 0.73512 0.06077 0.0
C594 C 0.19204 0.72925 0.11354 0.0
C595 C 0.20554 0.74056 0.03263 0.0
C596 C 0.26201 0.74149 0.0225 0.0
H597 H 0.30469 0.77937 0.82618 0.0
H598 H 0.27647 0.7698 0.87434 0.0
H599 H 0.29293 0.74319 0.99252 0.0
H600 H 0.21477 0.72451 0.17784 0.0
H601 H 0.24315 0.73395 0.12926 0.0
H602 H 0.22695 0.75987 0.00849 0.0
C603 C 0.2915 0.76919 0.89345 0.0
C604 C 0.2787 0.74698 0.99628 0.0
C605 C 0.30781 0.77465 0.86547 0.0
C606 C 0.21183 0.72893 0.13721 0.0
C607 C 0.22822 0.7343 0.10906 0.0
C608 C 0.24121 0.7561 0.0048 0.0
C609 C 0.29456 0.76292 0.94448 0.0
C610 C 0.27691 0.75712 0.97394 0.0
C611 C 0.22536 0.74019 0.0564 0.0
C612 C 0.24302 0.74597 0.02711 0.0
H613 H 0.34611 0.76702 0.95637 0.0
H614 H 0.31751 0.75755 0.00602 0.0
H615 H 0.25598 0.76945 0.96312 0.0
H616 H 0.17406 0.73553 0.04122 0.0
H617 H 0.20279 0.74495 0.99181 0.0
C618 C 0.96087 0.47942 0.8882 0.0
C619 C 0.94086 0.47991 0.90997 0.0
C620 C 0.97704 0.48486 0.91694 0.0
C621 C 0.98947 0.50701 0.01925 0.0
H622 H 0.04079 0.49388 0.03689 0.0
C623 C 0.05566 0.52572 0.16007 0.0
C624 C 0.07569 0.52485 0.13924 0.0
C625 C 0.03937 0.52027 0.1319 0.0
C626 C 0.02668 0.49773 0.03164 0.0
H627 H 0.92226 0.48658 0.9795 0.0
H628 H 0.95064 0.49613 0.03006 0.0
H629 H 0.01195 0.48431 0.99048 0.0
H630 H 0.09419 0.51755 0.07181 0.0
H631 H 0.06565 0.5081 0.02191 0.0
H632 H 1.00422 0.52046 0.06006 0.0
C633 C 0.95372 0.49155 0.99022 0.0
C634 C 1.01008 0.49222 0.00512 0.0
C635 C 0.93746 0.48604 0.96143 0.0
C636 C 0.07899 0.51838 0.08919 0.0
C637 C 0.0626 0.51292 0.0608 0.0
C638 C 1.0061 0.51253 0.04564 0.0
C639 C 0.97375 0.49099 0.9684 0.0
C640 C 0.99124 0.49679 0.99845 0.0
C641 C 0.04254 0.5138 0.08179 0.0
C642 C 0.02495 0.50797 0.05229 0.0
H643 H 0.96416 0.47482 0.8486 0.0
H644 H 0.99214 0.48437 0.89815 0.0
H645 H 0.97534 0.51085 0.01401 0.0
H646 H 0.05247 0.53057 0.19868 0.0
H647 H 0.02427 0.52103 0.15018 0.0
C648 C 0.83195 0.49137 0.82265 0.0
C649 C 0.8297 0.48114 0.84423 0.0
C650 C 0.8148 0.49662 0.80444 0.0
C651 C 0.75821 0.49582 0.81313 0.0
H652 H 0.76218 0.50962 0.65698 0.0
C653 C 0.68718 0.51087 0.69314 0.0
C654 C 0.68976 0.52106 0.67106 0.0
C655 C 0.70417 0.50544 0.71088 0.0
C656 C 0.76082 0.50585 0.70082 0.0
H657 H 0.80788 0.4686 0.86725 0.0
H658 H 0.77825 0.47771 0.83646 0.0
H659 H 0.79226 0.50238 0.70133 0.0
H660 H 0.71198 0.53332 0.64659 0.0
H661 H 0.7413 0.52394 0.67673 0.0
H662 H 0.72679 0.49931 0.81274 0.0
C663 C 0.79303 0.48174 0.83325 0.0
C664 C 0.77812 0.50176 0.72645 0.0
C665 C 0.81006 0.4765 0.85073 0.0
C666 C 0.70954 0.52546 0.66352 0.0
C667 C 0.72639 0.52006 0.68062 0.0
C668 C 0.74091 0.49992 0.78754 0.0
C669 C 0.79517 0.49176 0.80828 0.0
C670 C 0.77705 0.4967 0.78295 0.0
C671 C 0.72396 0.51009 0.70612 0.0
C672 C 0.74199 0.50501 0.73111 0.0
H673 H 0.84693 0.49508 0.81666 0.0
H674 H 0.81693 0.50439 0.78601 0.0
H675 H 0.75687 0.49203 0.85695 0.0
H676 H 0.67208 0.50734 0.69992 0.0
H677 H 0.70179 0.49771 0.72971 0.0
C678 C 0.06004 0.22877 0.64334 0.0
C679 C 0.07956 0.23317 0.65543 0.0
C680 C 0.04278 0.23403 0.65815 0.0
C681 C 0.02602 0.25336 0.76684 0.0
H682 H 0.97631 0.25145 0.67237 0.0
C683 C 0.95606 0.2765 0.82354 0.0
C684 C 0.93652 0.27198 0.81309 0.0
C685 C 0.9733 0.27129 0.80785 0.0
C686 C 0.98997 0.2519 0.69975 0.0
H687 H 0.09642 0.24676 0.68983 0.0
H688 H 0.06601 0.25614 0.71553 0.0
H689 H 1.00721 0.24453 0.63117 0.0
H690 H 0.91962 0.25829 0.78028 0.0
H691 H 0.95003 0.24902 0.75268 0.0
H692 H 1.00879 0.26074 0.83538 0.0
C693 C 0.06414 0.24853 0.69491 0.0
C694 C 1.00774 0.24801 0.67594 0.0
C695 C 0.08154 0.24325 0.67947 0.0
C696 C 0.93453 0.26188 0.78934 0.0
C697 C 0.95191 0.25667 0.77289 0.0
C698 C 1.00826 0.25726 0.79062 0.0
C699 C 0.04455 0.24384 0.68591 0.0
C700 C 0.026 0.24868 0.7092 0.0
C701 C 0.9715 0.26143 0.78074 0.0
C702 C 0.99001 0.25659 0.75737 0.0
H703 H 0.05809 0.22098 0.62491 0.0
H704 H 0.02803 0.23013 0.65096 0.0
H705 H 0.03967 0.2538 0.7943 0.0
H706 H 0.95802 0.28429 0.84178 0.0
H707 H 0.98805 0.27524 0.81412 0.0
C708 C 0.68956 0.23518 0.06643 0.0
C709 C 0.69278 0.22853 0.11568 0.0
C710 C 0.70597 0.24078 0.03905 0.0
C711 C 0.7599 0.2499 0.06743 0.0
H712 H 0.76099 0.25416 0.89334 0.0
C713 C 0.83049 0.2684 0.93982 0.0
C714 C 0.82642 0.2756 0.89397 0.0
C715 C 0.81456 0.26246 0.96748 0.0
C716 C 0.76087 0.25312 0.94212 0.0
H717 H 0.71594 0.22244 0.17389 0.0
H718 H 0.74429 0.23196 0.12585 0.0
H719 H 0.73237 0.24437 0.93942 0.0
H720 H 0.80225 0.28222 0.84195 0.0
H721 H 0.77483 0.27199 0.88986 0.0
H722 H 0.78849 0.25862 0.0699 0.0
C723 C 0.72913 0.23308 0.10898 0.0
C724 C 0.74438 0.24752 0.96863 0.0
C725 C 0.71279 0.22754 0.13636 0.0
C726 C 0.80607 0.27674 0.87685 0.0
C727 C 0.79026 0.2708 0.9041 0.0
C728 C 0.77643 0.25547 0.04085 0.0
C729 C 0.726 0.23984 0.06016 0.0
C730 C 0.74359 0.24585 0.03172 0.0
C731 C 0.79423 0.26354 0.94956 0.0
C732 C 0.77709 0.25721 0.97787 0.0
H733 H 0.67436 0.23615 0.04939 0.0
H734 H 0.70289 0.24598 1.00197 0.0
H735 H 0.75975 0.24893 0.11626 0.0
H736 H 0.84596 0.26733 0.95418 0.0
H737 H 0.81818 0.2569 1.00219 0.0
C738 C 0.31396 0.97766 0.85326 0.0
C739 C 0.33356 0.98192 0.84094 0.0
C740 C 0.29683 0.98289 0.83663 0.0
C741 C 0.27833 0.00805 0.78524 0.0
H742 H 0.23583 0.99047 0.71004 0.0
C743 C 0.21173 0.02587 0.66388 0.0
C744 C 0.19215 0.02162 0.67658 0.0
C745 C 0.22888 0.02063 0.68019 0.0
C746 C 0.24744 0.99547 0.73141 0.0
H747 H 0.35073 0.99523 0.80429 0.0
H748 H 0.32058 0.00449 0.77466 0.0
H749 H 0.26609 0.98276 0.75001 0.0
H750 H 0.17502 0.00832 0.7135 0.0
H751 H 0.2052 0.99904 0.74254 0.0
H752 H 0.25969 0.02077 0.76663 0.0
C753 C 0.3185 0.9971 0.79776 0.0
C754 C 0.2648 0.99106 0.75448 0.0
C755 C 0.33577 0.99185 0.81498 0.0
C756 C 0.18997 0.01169 0.70253 0.0
C757 C 0.20726 0.00643 0.71941 0.0
C758 C 0.26097 0.01246 0.76216 0.0
C759 C 0.29883 0.99249 0.80655 0.0
C760 C 0.28045 0.99729 0.78188 0.0
C761 C 0.22691 0.01104 0.7103 0.0
C762 C 0.24532 0.00624 0.7348 0.0
H763 H 0.31184 0.97003 0.8736 0.0
H764 H 0.28197 0.97924 0.84576 0.0
H765 H 0.28993 0.01306 0.80664 0.0
H766 H 0.21382 0.0335 0.64353 0.0
H767 H 0.24373 0.02427 0.67083 0.0
C768 C 0.1887 0.23592 0.55441 0.0
C769 C 0.19111 0.23043 0.6089 0.0
C770 C 0.2054 0.24128 0.52701 0.0
C771 C 0.25759 0.25234 0.56095 0.0
H772 H 0.26423 0.25179 0.38624 0.0
C773 C 0.33138 0.26861 0.44155 0.0
C774 C 0.32893 0.27412 0.38715 0.0
C775 C 0.31471 0.26321 0.46894 0.0
C776 C 0.26254 0.25212 0.43509 0.0
H777 H 0.21311 0.22627 0.67692 0.0
H778 H 0.24194 0.23545 0.62921 0.0
H779 H 0.23467 0.24281 0.43247 0.0
H780 H 0.30687 0.27827 0.31928 0.0
H781 H 0.2781 0.26905 0.36697 0.0
H782 H 0.28547 0.26165 0.56357 0.0
C783 C 0.22718 0.23578 0.6079 0.0
C784 C 0.24552 0.24697 0.46162 0.0
C785 C 0.21058 0.23043 0.63512 0.0
C786 C 0.30944 0.2741 0.36101 0.0
C787 C 0.29287 0.26872 0.38821 0.0
C788 C 0.27462 0.25749 0.53442 0.0
C789 C 0.22487 0.24131 0.55356 0.0
C790 C 0.2428 0.247 0.52495 0.0
C791 C 0.29523 0.26318 0.44247 0.0
C792 C 0.27733 0.25747 0.47109 0.0
H793 H 0.17394 0.23609 0.53297 0.0
H794 H 0.20298 0.24553 0.48544 0.0
H795 H 0.2559 0.25267 0.6098 0.0
H796 H 0.34616 0.26844 0.46293 0.0
H797 H 0.31716 0.25895 0.51045 0.0
C798 C 0.9674 0.97882 0.37236 0.0
C799 C 0.94722 0.97946 0.39233 0.0
C800 C 0.98334 0.98442 0.40118 0.0
C801 C 0.99507 0.00699 0.50183 0.0
H802 H 0.04654 0.99405 0.52098 0.0
C803 C 0.06133 0.02579 0.64301 0.0
C804 C 0.08127 0.0251 0.62103 0.0
C805 C 0.04498 0.02035 0.615 0.0
C806 C 0.03238 0.99784 0.51534 0.0
H807 H 0.92806 0.98658 0.45872 0.0
H808 H 0.95605 0.99634 0.50981 0.0
H809 H 0.01787 0.98429 0.47511 0.0
H810 H 0.09954 0.01815 0.5517 0.0
H811 H 0.07093 0.00864 0.50249 0.0
H812 H 1.00963 0.02052 0.54238 0.0
C813 C 0.95945 0.99155 0.47114 0.0
C814 C 0.01586 0.99223 0.48906 0.0
C815 C 0.9434 0.98591 0.44206 0.0
C816 C 0.08442 0.01884 0.56996 0.0
C817 C 0.06801 0.01335 0.54195 0.0
C818 C 0.0116 0.01259 0.52827 0.0
C819 C 0.97968 0.99083 0.45116 0.0
C820 C 0.99699 0.99673 0.48158 0.0
C821 C 0.04805 0.01403 0.56418 0.0
C822 C 0.0305 0.0081 0.53524 0.0
H823 H 0.97101 0.97399 0.33398 0.0
H824 H 0.99857 0.98381 0.38358 0.0
H825 H 0.98092 0.01078 0.49608 0.0
H826 H 0.05826 0.03051 0.6823 0.0
H827 H 0.02993 0.02096 0.63399 0.0
C828 C 0.69168 0.01105 0.18447 0.0
C829 C 0.6852 0.01801 0.22851 0.0
C830 C 0.70983 0.00596 0.19295 0.0
C831 C 0.74876 0.99992 0.3095 0.0
H832 H 0.78555 1.00045 0.17215 0.0
C833 C 0.83305 0.98984 0.33548 0.0
C834 C 0.83965 0.98278 0.29217 0.0
C835 C 0.81461 0.99467 0.32702 0.0
C836 C 0.77543 1.0002 0.21092 0.0
H837 H 0.69172 0.0246 0.31735 0.0
H838 H 0.72294 0.01579 0.33224 0.0
H839 H 0.75123 0.00633 0.15942 0.0
H840 H 0.83295 0.97571 0.20467 0.0
H841 H 0.80124 0.98412 0.18975 0.0
H842 H 0.77302 0.99383 0.36104 0.0
C843 C 0.71428 0.01418 0.29122 0.0
C844 C 0.75568 0.00349 0.20347 0.0
C845 C 0.69638 0.01928 0.28255 0.0
C846 C 0.8282 0.98111 0.23893 0.0
C847 C 0.81003 0.98597 0.23021 0.0
C848 C 0.76853 0.99665 0.31697 0.0
C849 C 0.7216 0.00769 0.24588 0.0
C850 C 0.74209 0.00342 0.25269 0.0
C851 C 0.80269 0.9926 0.27477 0.0
C852 C 0.78212 0.99674 0.26778 0.0
H853 H 0.68343 0.01002 0.1422 0.0
H854 H 0.71493 1.0009 0.15745 0.0
H855 H 0.73865 0.99966 0.34829 0.0
H856 H 0.84152 0.9912 0.37711 0.0
H857 H 0.80947 0.99984 0.36191 0.0
C858 C 0.71663 0.72677 0.63986 0.0
C859 C 0.69634 0.72846 0.6244 0.0
C860 C 0.73273 0.73243 0.61201 0.0
C861 C 0.74616 0.74854 0.4767 0.0
H862 H 0.79283 0.75756 0.57409 0.0
C863 C 0.80848 0.77742 0.38482 0.0
C864 C 0.82892 0.77575 0.39845 0.0
C865 C 0.79269 0.77155 0.41267 0.0
C866 C 0.78005 0.75499 0.54603 0.0
H867 H 0.67718 0.73743 0.56673 0.0
H868 H 0.70534 0.74742 0.51833 0.0
H869 H 0.76437 0.74777 0.62132 0.0
H870 H 0.84867 0.76661 0.45315 0.0
H871 H 0.82097 0.75626 0.50196 0.0
H872 H 0.76179 0.7558 0.40149 0.0
C873 C 0.70878 0.74161 0.55178 0.0
C874 C 0.76367 0.74937 0.57313 0.0
C875 C 0.6926 0.73592 0.57974 0.0
C876 C 0.83313 0.7681 0.44152 0.0
C877 C 0.81723 0.7622 0.46966 0.0
C878 C 0.76251 0.75416 0.44964 0.0
C879 C 0.72909 0.73998 0.56781 0.0
C880 C 0.74646 0.74607 0.53888 0.0
C881 C 0.79678 0.76381 0.45518 0.0
C882 C 0.77967 0.75751 0.48394 0.0
H883 H 0.72017 0.72106 0.67375 0.0
H884 H 0.7481 0.73079 0.6248 0.0
H885 H 0.73339 0.74598 0.44856 0.0
H886 H 0.80455 0.78328 0.35224 0.0
H887 H 0.77719 0.77317 0.40118 0.0
C888 C 0.44228 0.76217 0.83687 0.0
C889 C 0.43417 0.76803 0.7899 0.0
C890 C 0.46093 0.75753 0.82872 0.0
C891 C 0.50757 0.76117 0.73526 0.0
H892 H 0.52119 0.73466 0.80228 0.0
C893 C 0.58273 0.74102 0.68109 0.0
C894 C 0.59087 0.7351 0.72777 0.0
C895 C 0.56419 0.74573 0.68975 0.0
C896 C 0.51773 0.74215 0.78392 0.0
H897 H 0.43815 0.77298 0.69652 0.0
H898 H 0.47004 0.76465 0.68161 0.0
H899 H 0.48685 0.74052 0.81446 0.0
H900 H 0.58708 0.73013 0.82118 0.0
H901 H 0.55537 0.7386 0.83698 0.0
H902 H 0.53844 0.7628 0.70467 0.0
C903 C 0.46256 0.76387 0.72529 0.0
C904 C 0.498 0.74549 0.79086 0.0
C905 C 0.44415 0.76854 0.73358 0.0
C906 C 0.58105 0.73463 0.78435 0.0
C907 C 0.56274 0.73936 0.79315 0.0
C908 C 0.5273 0.75783 0.72832 0.0
C909 C 0.47163 0.75867 0.77341 0.0
C910 C 0.49263 0.75503 0.76643 0.0
C911 C 0.55362 0.74461 0.7453 0.0
C912 C 0.53267 0.74829 0.75267 0.0
H913 H 0.43501 0.7618 0.88098 0.0
H914 H 0.46749 0.75357 0.86677 0.0
H915 H 0.5041 0.76867 0.71687 0.0
H916 H 0.58987 0.74136 0.63678 0.0
H917 H 0.55759 0.74972 0.65189 0.0
C918 C 0.55929 0.52451 0.6279 0.0
C919 C 0.57924 0.52404 0.6056 0.0
C920 C 0.54305 0.51906 0.59953 0.0
C921 C 0.53064 0.49692 0.49666 0.0
H922 H 0.47892 0.50975 0.48125 0.0
C923 C 0.46495 0.47831 0.35392 0.0
C924 C 0.44489 0.47886 0.3751 0.0
C925 C 0.48106 0.48379 0.38277 0.0
C926 C 0.49315 0.50598 0.48588 0.0
H927 H 0.59763 0.51741 0.53541 0.0
H928 H 0.56917 0.50788 0.48547 0.0
H929 H 0.50766 0.51939 0.52787 0.0
H930 H 0.42614 0.48566 0.4438 0.0
H931 H 0.4544 0.49519 0.4948 0.0
H932 H 0.51615 0.4835 0.45484 0.0
C933 C 0.56617 0.51243 0.52549 0.0
C934 C 0.5097 0.51153 0.51254 0.0
C935 C 0.5825 0.51793 0.55393 0.0
C936 C 0.44137 0.48507 0.42616 0.0
C937 C 0.45759 0.49058 0.4552 0.0
C938 C 0.5141 0.49137 0.47009 0.0
C939 C 0.5462 0.51294 0.54792 0.0
C940 C 0.52869 0.50708 0.5183 0.0
C941 C 0.47768 0.48999 0.4339 0.0
C942 C 0.49512 0.49582 0.46412 0.0
H943 H 0.55613 0.52909 0.6677 0.0
H944 H 0.528 0.51952 0.61878 0.0
H945 H 0.54488 0.49316 0.50124 0.0
H946 H 0.46831 0.47366 0.31457 0.0
H947 H 0.49619 0.48326 0.36424 0.0
C948 C 0.45983 0.27546 0.35159 0.0
C949 C 0.44027 0.27124 0.33834 0.0
C950 C 0.47702 0.27026 0.3351 0.0
C951 C 0.49565 0.24521 0.28194 0.0
H952 H 0.53832 0.26296 0.20888 0.0
C953 C 0.56232 0.22765 0.15939 0.0
C954 C 0.58191 0.23186 0.17235 0.0
C955 C 0.54518 0.23286 0.17617 0.0
C956 C 0.52667 0.25791 0.22966 0.0
H957 H 0.42323 0.25801 0.30018 0.0
H958 H 0.45346 0.24881 0.27083 0.0
H959 H 0.50804 0.27059 0.24928 0.0
H960 H 0.59905 0.24506 0.21036 0.0
H961 H 0.56889 0.25428 0.24028 0.0
H962 H 0.51427 0.23252 0.26232 0.0
C963 C 0.45548 0.25614 0.29456 0.0
C964 C 0.50929 0.26227 0.25298 0.0
C965 C 0.43815 0.26136 0.31163 0.0
C966 C 0.5841 0.24172 0.19914 0.0
C967 C 0.56682 0.24695 0.21653 0.0
C968 C 0.51303 0.24084 0.25863 0.0
C969 C 0.47512 0.26073 0.30424 0.0
C970 C 0.49357 0.25598 0.27956 0.0
C971 C 0.54715 0.24238 0.20709 0.0
C972 C 0.52874 0.24713 0.232 0.0
H973 H 0.46188 0.28305 0.37249 0.0
H974 H 0.49185 0.27388 0.3449 0.0
H975 H 0.48399 0.24015 0.3027 0.0
H976 H 0.56022 0.22006 0.13842 0.0
H977 H 0.53033 0.22925 0.16654 0.0
C978 C 0.46431 0.97785 0.87787 0.0
C979 C 0.44432 0.97854 0.8995 0.0
C980 C 0.4806 0.98327 0.90623 0.0
C981 C 0.49322 0.00569 0.00663 0.0
H982 H 0.54449 0.99258 0.02595 0.0
C983 C 0.55884 0.02455 0.14869 0.0
C984 C 0.57895 0.02372 0.12851 0.0
C985 C 0.54269 0.01904 0.12019 0.0
C986 C 0.53039 0.99642 0.02021 0.0
H987 H 0.42592 0.98549 0.96851 0.0
H988 H 0.45447 0.99497 0.01836 0.0
H989 H 0.51571 0.98294 0.97951 0.0
H990 H 0.59775 0.0164 0.06192 0.0
H991 H 0.56944 0.00683 0.01145 0.0
H992 H 0.50789 0.01919 0.04701 0.0
C993 C 0.45746 0.99027 0.9789 0.0
C994 C 0.51382 0.99087 0.99367 0.0
C995 C 0.44109 0.9848 0.95054 0.0
C996 C 0.58247 0.0172 0.07879 0.0
C997 C 0.56623 0.01168 0.05007 0.0
C998 C 0.50979 0.01125 0.03303 0.0
C999 C 0.47745 0.98957 0.95709 0.0
C1000 C 0.495 0.99543 0.98654 0.0
C1001 C 0.54609 0.01254 0.07036 0.0
C1002 C 0.52861 0.00669 0.04041 0.0
H1003 H 0.46745 0.97314 0.83861 0.0
H1004 H 0.49569 0.98265 0.88751 0.0
H1005 H 0.47911 0.00953 1.00095 0.0
H1006 H 0.55547 0.02943 0.18703 0.0
H1007 H 0.52752 0.01978 0.13797 0.0
C1008 C 0.14038 0.53959 0.45894 0.0
C1009 C 0.1228 0.53442 0.43557 0.0
C1010 C 0.14303 0.54073 0.52167 0.0
C1011 C 0.12451 0.5293 0.66766 0.0
H1012 H 0.15253 0.55367 0.73711 0.0
C1013 C 0.12918 0.53677 0.92646 0.0
C1014 C 0.14829 0.54013 0.94986 0.0
C1015 C 0.12587 0.53622 0.8638 0.0
C1016 C 0.1448 0.54679 0.71827 0.0
H1017 H 0.09384 0.52682 0.45919 0.0
H1018 H 0.09811 0.52905 0.56844 0.0
H1019 H 0.14663 0.55282 0.62781 0.0
H1020 H 0.17898 0.54536 0.92445 0.0
H1021 H 0.17302 0.54458 0.81552 0.0
H1022 H 0.12248 0.52335 0.75839 0.0
C1023 C 0.11018 0.53195 0.53867 0.0
C1024 C 0.14145 0.54628 0.65559 0.0
C1025 C 0.10765 0.53072 0.47607 0.0
C1026 C 0.16397 0.54291 0.90861 0.0
C1027 C 0.16059 0.54245 0.84597 0.0
C1028 C 0.1277 0.52986 0.73033 0.0
C1029 C 0.12806 0.53681 0.56244 0.0
C1030 C 0.1313 0.53751 0.62938 0.0
C1031 C 0.1415 0.53911 0.82288 0.0
C1032 C 0.13794 0.53859 0.75632 0.0
H1033 H 0.15244 0.54239 0.42887 0.0
H1034 H 0.15712 0.54439 0.53815 0.0
H1035 H 0.11703 0.52232 0.64916 0.0
H1036 H 0.11658 0.53472 0.95629 0.0
H1037 H 0.11092 0.53372 0.84734 0.0
C1038 C 0.12862 0.72017 0.88948 0.0
C1039 C 0.12565 0.71015 0.91407 0.0
C1040 C 0.13106 0.72156 0.82688 0.0
C1041 C 0.12159 0.70799 0.68013 0.0
H1042 H 0.1588 0.72965 0.61722 0.0
C1043 C 0.14134 0.71185 0.42498 0.0
C1044 C 0.14105 0.72191 0.40021 0.0
C1045 C 0.14002 0.71032 0.48774 0.0
C1046 C 0.14826 0.72361 0.63418 0.0
H1047 H 0.12364 0.69373 0.89256 0.0
H1048 H 0.12823 0.69611 0.78373 0.0
H1049 H 0.15565 0.72717 0.72669 0.0
H1050 H 0.13899 0.73822 0.42293 0.0
H1051 H 0.13706 0.73553 0.53198 0.0
H1052 H 0.11439 0.70439 0.58744 0.0
C1053 C 0.12811 0.70293 0.81241 0.0
C1054 C 0.14639 0.72221 0.6969 0.0
C1055 C 0.12551 0.70156 0.87486 0.0
C1056 C 0.13961 0.73039 0.44002 0.0
C1057 C 0.13846 0.72885 0.50272 0.0
C1058 C 0.12358 0.70935 0.61744 0.0
C1059 C 0.13076 0.71295 0.7875 0.0
C1060 C 0.13297 0.7144 0.72071 0.0
C1061 C 0.13856 0.71881 0.52725 0.0
C1062 C 0.13687 0.7172 0.5938 0.0
H1063 H 0.12858 0.72695 0.91849 0.0
H1064 H 0.13277 0.7294 0.80927 0.0
H1065 H 0.11083 0.70202 0.69675 0.0
H1066 H 0.14278 0.70515 0.39608 0.0
H1067 H 0.14038 0.70249 0.50544 0.0
C1068 C 0.88997 0.48055 0.57832 0.0
C1069 C 0.89077 0.47201 0.61794 0.0
C1070 C 0.88829 0.47908 0.51569 0.0
C1071 C 0.87105 0.46002 0.40094 0.0
H1072 H 0.90431 0.47719 0.29127 0.0
C1073 C 0.87169 0.45246 0.14296 0.0
C1074 C 0.87264 0.4611 0.10403 0.0
C1075 C 0.87438 0.45371 0.20547 0.0
C1076 C 0.89471 0.47242 0.32118 0.0
H1077 H 0.89069 0.45519 0.62182 0.0
H1078 H 0.88739 0.45263 0.51247 0.0
H1079 H 0.9081 0.47946 0.40067 0.0
H1080 H 0.87704 0.47785 0.10026 0.0
H1081 H 0.88141 0.48009 0.20957 0.0
H1082 H 0.85737 0.45309 0.32175 0.0
C1083 C 0.88796 0.46047 0.5303 0.0
C1084 C 0.89694 0.4737 0.38388 0.0
C1085 C 0.8898 0.46195 0.59304 0.0
C1086 C 0.87644 0.47104 0.12902 0.0
C1087 C 0.87899 0.47231 0.19167 0.0
C1088 C 0.86871 0.45878 0.33824 0.0
C1089 C 0.88722 0.46903 0.49098 0.0
C1090 C 0.88513 0.46752 0.42442 0.0
C1091 C 0.87796 0.46365 0.23073 0.0
C1092 C 0.8805 0.46497 0.29752 0.0
H1093 H 0.89029 0.48841 0.59551 0.0
H1094 H 0.88744 0.48582 0.48662 0.0
H1095 H 0.86153 0.45524 0.43106 0.0
H1096 H 0.86917 0.44469 0.125 0.0
H1097 H 0.87391 0.44685 0.23389 0.0
C1098 C 0.89374 0.28179 0.09971 0.0
C1099 C 0.90037 0.29146 0.07524 0.0
C1100 C 0.89204 0.28041 0.16264 0.0
C1101 C 0.88716 0.29523 0.30575 0.0
H1102 H 0.90342 0.26983 0.3817 0.0
C1103 C 0.88962 0.29066 0.56651 0.0
C1104 C 0.88159 0.28121 0.59045 0.0
C1105 C 0.89297 0.2918 0.50405 0.0
C1106 C 0.89865 0.27694 0.36114 0.0
H1107 H 0.9102 0.30729 0.09853 0.0
H1108 H 0.90769 0.30483 0.20757 0.0
H1109 H 0.90681 0.27197 0.27199 0.0
H1110 H 0.87156 0.26541 0.56733 0.0
H1111 H 0.8771 0.26743 0.45862 0.0
H1112 H 0.87894 0.30019 0.39474 0.0
C1113 C 0.90359 0.29832 0.17818 0.0
C1114 C 0.90056 0.27816 0.29819 0.0
C1115 C 0.90528 0.2997 0.11542 0.0
C1116 C 0.8775 0.27284 0.55051 0.0
C1117 C 0.8809 0.27397 0.48812 0.0
C1118 C 0.88527 0.29402 0.36862 0.0
C1119 C 0.89689 0.28868 0.20268 0.0
C1120 C 0.89483 0.28732 0.26968 0.0
C1121 C 0.88844 0.2835 0.46398 0.0
C1122 C 0.89097 0.28485 0.39715 0.0
H1123 H 0.88999 0.27524 0.07034 0.0
H1124 H 0.88665 0.2729 0.17987 0.0
H1125 H 0.88226 0.30232 0.28529 0.0
H1126 H 0.89281 0.29728 0.59583 0.0
H1127 H 0.89904 0.29921 0.4871 0.0
C1128 C 0.14511 0.03287 0.39975 0.0
C1129 C 0.14946 0.04277 0.42447 0.0
C1130 C 0.14239 0.03159 0.33715 0.0
C1131 C 0.15326 0.04493 0.19033 0.0
H1132 H 0.11319 0.02457 0.12806 0.0
C1133 C 0.13253 0.04183 0.93548 0.0
C1134 C 0.13141 0.03175 0.91064 0.0
C1135 C 0.13416 0.04331 0.99824 0.0
C1136 C 0.12453 0.03024 0.14483 0.0
H1137 H 0.15368 0.05915 0.40316 0.0
H1138 H 0.14862 0.05699 0.29438 0.0
H1139 H 0.11696 0.02689 0.23746 0.0
H1140 H 0.1313 0.01535 0.93331 0.0
H1141 H 0.13377 0.01795 0.04229 0.0
H1142 H 0.16065 0.04833 0.09751 0.0
C1143 C 0.14786 0.05014 0.32294 0.0
C1144 C 0.12675 0.03155 0.20752 0.0
C1145 C 0.15073 0.05139 0.38537 0.0
C1146 C 0.13176 0.02321 0.95041 0.0
C1147 C 0.13323 0.0247 0.0131 0.0
C1148 C 0.15092 0.04367 0.12766 0.0
C1149 C 0.14379 0.04022 0.2979 0.0
C1150 C 0.14121 0.03889 0.23112 0.0
C1151 C 0.13454 0.03475 0.03769 0.0
C1152 C 0.1366 0.03628 0.10424 0.0
H1153 H 0.14425 0.02607 0.42866 0.0
H1154 H 0.13958 0.02381 0.31946 0.0
H1155 H 0.1648 0.05051 0.20676 0.0
H1156 H 0.13196 0.04859 0.90663 0.0
H1157 H 0.1349 0.05115 0.01599 0.0
C1158 C 0.12783 0.22208 0.38325 0.0
C1159 C 0.12424 0.21211 0.40788 0.0
C1160 C 0.13047 0.22342 0.32067 0.0
C1161 C 0.12044 0.20992 0.17398 0.0
H1162 H 0.1587 0.23112 0.11118 0.0
C1163 C 0.14025 0.21359 0.91881 0.0
C1164 C 0.14032 0.22366 0.89414 0.0
C1165 C 0.13897 0.21205 0.98157 0.0
C1166 C 0.14787 0.22521 0.12812 0.0
H1167 H 0.12134 0.19569 0.38654 0.0
H1168 H 0.12628 0.19797 0.27777 0.0
H1169 H 0.1554 0.22867 0.22065 0.0
H1170 H 0.13898 0.24001 0.91708 0.0
H1171 H 0.13714 0.2373 0.02612 0.0
H1172 H 0.1131 0.20641 0.08127 0.0
C1173 C 0.12649 0.20481 0.30637 0.0
C1174 C 0.14592 0.22382 0.19083 0.0
C1175 C 0.1237 0.20349 0.36878 0.0
C1176 C 0.13931 0.23215 0.93406 0.0
C1177 C 0.13821 0.23061 0.99676 0.0
C1178 C 0.12252 0.21125 0.1113 0.0
C1179 C 0.12975 0.21479 0.28138 0.0
C1180 C 0.13211 0.21619 0.2146 0.0
C1181 C 0.13792 0.22055 0.02117 0.0
C1182 C 0.13618 0.21894 0.08771 0.0
H1183 H 0.12812 0.22887 0.41219 0.0
H1184 H 0.13264 0.23123 0.30301 0.0
H1185 H 0.10938 0.20409 0.19055 0.0
H1186 H 0.14136 0.20687 0.88983 0.0
H1187 H 0.13902 0.20421 0.9992 0.0
C1188 C 0.90042 0.97961 0.05158 0.0
C1189 C 0.89861 0.97109 0.09157 0.0
C1190 C 0.89778 0.97826 0.98912 0.0
C1191 C 0.87389 0.96081 0.87508 0.0
H1192 H 0.91158 0.97509 0.76435 0.0
C1193 C 0.87081 0.95376 0.61574 0.0
C1194 C 0.87498 0.9623 0.57721 0.0
C1195 C 0.87382 0.95464 0.67842 0.0
C1196 C 0.90073 0.97115 0.7945 0.0
H1197 H 0.89265 0.95439 0.09608 0.0
H1198 H 0.88769 0.95208 0.98696 0.0
H1199 H 0.91658 0.97688 0.87351 0.0
H1200 H 0.88523 0.97852 0.57461 0.0
H1201 H 0.89014 0.98015 0.68397 0.0
H1202 H 0.8578 0.95523 0.79627 0.0
C1203 C 0.8911 0.95983 0.00445 0.0
C1204 C 0.90366 0.97216 0.85714 0.0
C1205 C 0.89392 0.96117 0.06708 0.0
C1206 C 0.88213 0.97176 0.60293 0.0
C1207 C 0.88499 0.97268 0.6657 0.0
C1208 C 0.87086 0.95987 0.81238 0.0
C1209 C 0.89309 0.96836 0.96477 0.0
C1210 C 0.89024 0.96703 0.89817 0.0
C1211 C 0.88095 0.96412 0.70432 0.0
C1212 C 0.88421 0.96505 0.7712 0.0
H1213 H 0.90359 0.98741 0.06829 0.0
H1214 H 0.89907 0.98502 0.95989 0.0
H1215 H 0.86314 0.95687 0.90554 0.0
H1216 H 0.86562 0.9463 0.59734 0.0
H1217 H 0.87088 0.94783 0.70642 0.0
C1218 C 0.8795 0.77245 0.05377 0.0
C1219 C 0.88365 0.78091 0.09292 0.0
C1220 C 0.88293 0.77339 0.99132 0.0
C1221 C 0.91008 0.78964 0.87485 0.0
H1222 H 0.86922 0.77724 0.76677 0.0
C1223 C 0.9081 0.79911 0.61845 0.0
C1224 C 0.90314 0.79096 0.57768 0.0
C1225 C 0.90645 0.7976 0.68116 0.0
C1226 C 0.88092 0.78064 0.79621 0.0
H1227 H 0.89495 0.79698 0.09681 0.0
H1228 H 0.90089 0.79865 0.98779 0.0
H1229 H 0.86533 0.77516 0.87614 0.0
H1230 H 0.89276 0.77475 0.57168 0.0
H1231 H 0.88983 0.77213 0.68106 0.0
H1232 H 0.92557 0.79519 0.7948 0.0
C1233 C 0.8952 0.79123 0.00554 0.0
C1234 C 0.8787 0.77944 0.85904 0.0
C1235 C 0.89179 0.79028 0.06812 0.0
C1236 C 0.89646 0.78125 0.60149 0.0
C1237 C 0.89479 0.77974 0.66431 0.0
C1238 C 0.9123 0.79084 0.81199 0.0
C1239 C 0.89057 0.78283 0.96622 0.0
C1240 C 0.89322 0.78395 0.89923 0.0
C1241 C 0.89975 0.7879 0.70495 0.0
C1242 C 0.8977 0.78639 0.77185 0.0
H1243 H 0.8736 0.76506 0.07133 0.0
H1244 H 0.8796 0.76669 0.96267 0.0
H1245 H 0.92172 0.79309 0.90434 0.0
H1246 H 0.91292 0.80675 0.60205 0.0
H1247 H 0.91005 0.80411 0.71099 0.0
C1248 C 0.61341 0.52752 0.93587 0.0
C1249 C 0.62749 0.53255 0.89646 0.0
C1250 C 0.61505 0.52887 0.99864 0.0
C1251 C 0.63984 0.54581 0.11659 0.0
H1252 H 0.62927 0.52176 0.21983 0.0
C1253 C 0.66324 0.54517 0.3686 0.0
C1254 C 0.64874 0.54109 0.41027 0.0
C1255 C 0.66003 0.54417 0.30618 0.0
C1256 C 0.63208 0.52857 0.19161 0.0
H1257 H 0.65434 0.54293 0.89195 0.0
H1258 H 0.65747 0.54518 1.0014 0.0
H1259 H 0.62467 0.52013 0.11035 0.0
H1260 H 0.61944 0.53269 0.41812 0.0
H1261 H 0.6141 0.53078 0.30914 0.0
H1262 H 0.64767 0.55417 0.19801 0.0
C1263 C 0.64485 0.54037 0.9839 0.0
C1264 C 0.62939 0.52765 0.12886 0.0
C1265 C 0.64309 0.53908 0.92109 0.0
C1266 C 0.6311 0.53581 0.3877 0.0
C1267 C 0.62798 0.53474 0.32515 0.0
C1268 C 0.64268 0.5467 0.17927 0.0
C1269 C 0.63094 0.53521 0.02353 0.0
C1270 C 0.63329 0.53626 0.09051 0.0
C1271 C 0.64234 0.53899 0.28378 0.0
C1272 C 0.63891 0.53808 0.2174 0.0
H1273 H 0.60107 0.52255 0.91806 0.0
H1274 H 0.60383 0.52495 0.02764 0.0
H1275 H 0.64264 0.55265 0.08865 0.0
H1276 H 0.67718 0.5491 0.38403 0.0
H1277 H 0.67154 0.54737 0.27535 0.0
C1278 C 0.66485 0.72212 0.96427 0.0
C1279 C 0.64957 0.7187 0.92349 0.0
C1280 C 0.66207 0.72098 0.02686 0.0
C1281 C 0.62949 0.70736 0.1435 0.0
H1282 H 0.65009 0.72996 0.24618 0.0
C1283 C 0.60735 0.71113 0.39678 0.0
C1284 C 0.6232 0.71366 0.43792 0.0
C1285 C 0.61071 0.71154 0.3341 0.0
C1286 C 0.6444 0.72355 0.21817 0.0
H1287 H 0.61938 0.71134 0.91633 0.0
H1288 H 0.61428 0.7095 0.02557 0.0
H1289 H 0.65572 0.73084 0.137 0.0
H1290 H 0.65519 0.71855 0.44407 0.0
H1291 H 0.66082 0.71945 0.3351 0.0
H1292 H 0.61781 0.70021 0.22502 0.0
C1293 C 0.62866 0.71286 0.00931 0.0
C1294 C 0.64769 0.72402 0.15551 0.0
C1295 C 0.63156 0.71391 0.9466 0.0
C1296 C 0.64247 0.71671 0.41435 0.0
C1297 C 0.64575 0.7172 0.35166 0.0
C1298 C 0.62605 0.70694 0.20617 0.0
C1299 C 0.64379 0.71651 0.05035 0.0
C1300 C 0.64034 0.71592 0.11727 0.0
C1301 C 0.62994 0.71457 0.31083 0.0
C1302 C 0.63351 0.71502 0.24421 0.0
H1303 H 0.67898 0.72572 0.94763 0.0
H1304 H 0.67426 0.72366 0.05683 0.0
H1305 H 0.62386 0.70091 0.11575 0.0
H1306 H 0.59224 0.70892 0.41277 0.0
H1307 H 0.59814 0.70961 0.30376 0.0
C1308 C 0.39787 0.4793 0.03741 0.0
C1309 C 0.39631 0.47084 0.07796 0.0
C1310 C 0.39572 0.47778 0.97492 0.0
C1311 C 0.37305 0.45994 0.86148 0.0
H1312 H 0.41057 0.47436 0.75087 0.0
C1313 C 0.36988 0.4529 0.60219 0.0
C1314 C 0.37386 0.46147 0.5638 0.0
C1315 C 0.37305 0.45375 0.66481 0.0
C1316 C 0.39978 0.47038 0.78098 0.0
H1317 H 0.39143 0.45408 0.08325 0.0
H1318 H 0.38725 0.4515 0.97413 0.0
H1319 H 0.41532 0.4763 0.86007 0.0
H1320 H 0.38401 0.47771 0.56129 0.0
H1321 H 0.38917 0.47929 0.67054 0.0
H1322 H 0.35719 0.45419 0.78266 0.0
C1323 C 0.3901 0.45931 0.99125 0.0
C1324 C 0.40257 0.47146 0.84362 0.0
C1325 C 0.39246 0.46081 0.05391 0.0
C1326 C 0.38105 0.47093 0.58953 0.0
C1327 C 0.38406 0.47182 0.65223 0.0
C1328 C 0.37014 0.45892 0.79878 0.0
C1329 C 0.39177 0.46779 0.9511 0.0
C1330 C 0.38919 0.46629 0.88457 0.0
C1331 C 0.38015 0.46323 0.69076 0.0
C1332 C 0.38342 0.46416 0.75763 0.0
H1333 H 0.40043 0.48717 0.05364 0.0
H1334 H 0.39677 0.48449 0.94524 0.0
H1335 H 0.36235 0.45596 0.89192 0.0
H1336 H 0.36465 0.44546 0.58369 0.0
H1337 H 0.37023 0.44692 0.69272 0.0
C1338 C 0.38065 0.27253 0.06163 0.0
C1339 C 0.37972 0.28103 0.10154 0.0
C1340 C 0.38181 0.27406 0.99895 0.0
C1341 C 0.39777 0.29334 0.88434 0.0
H1342 H 0.36461 0.27603 0.77517 0.0
C1343 C 0.39668 0.30104 0.62681 0.0
C1344 C 0.39599 0.29241 0.5878 0.0
C1345 C 0.39387 0.29975 0.68923 0.0
C1346 C 0.37417 0.28085 0.80494 0.0
H1347 H 0.37893 0.29783 0.10585 0.0
H1348 H 0.38136 0.30048 0.99646 0.0
H1349 H 0.36127 0.27363 0.88466 0.0
H1350 H 0.39185 0.27565 0.58364 0.0
H1351 H 0.38733 0.27334 0.69286 0.0
H1352 H 0.41102 0.30042 0.80501 0.0
C1353 C 0.38129 0.29264 0.01411 0.0
C1354 C 0.3722 0.27949 0.86766 0.0
C1355 C 0.37996 0.29111 0.07687 0.0
C1356 C 0.39226 0.28245 0.61252 0.0
C1357 C 0.38962 0.28114 0.67512 0.0
C1358 C 0.39987 0.29465 0.82165 0.0
C1359 C 0.38223 0.28413 0.97453 0.0
C1360 C 0.38399 0.28572 0.90799 0.0
C1361 C 0.39048 0.28978 0.71431 0.0
C1362 C 0.3881 0.28841 0.7811 0.0
H1363 H 0.38087 0.26467 0.07861 0.0
H1364 H 0.38281 0.26737 0.96961 0.0
H1365 H 0.40727 0.29816 0.91432 0.0
H1366 H 0.39915 0.30882 0.60897 0.0
H1367 H 0.3942 0.3066 0.71776 0.0
C1368 C 0.64328 0.03881 0.44924 0.0
C1369 C 0.62571 0.03363 0.42592 0.0
C1370 C 0.64596 0.03995 0.51197 0.0
C1371 C 0.62759 0.02847 0.65798 0.0
H1372 H 0.65545 0.05288 0.72748 0.0
C1373 C 0.63227 0.03589 0.91683 0.0
C1374 C 0.65134 0.03931 0.94022 0.0
C1375 C 0.62896 0.03534 0.85416 0.0
C1376 C 0.64777 0.04599 0.70863 0.0
H1377 H 0.5968 0.02599 0.44965 0.0
H1378 H 0.60112 0.02821 0.55889 0.0
H1379 H 0.64952 0.05203 0.61819 0.0
H1380 H 0.68196 0.04467 0.91484 0.0
H1381 H 0.676 0.04388 0.80589 0.0
H1382 H 0.62563 0.02251 0.74868 0.0
C1383 C 0.61316 0.03113 0.52908 0.0
C1384 C 0.6444 0.04548 0.64596 0.0
C1385 C 0.6106 0.0299 0.46647 0.0
C1386 C 0.66698 0.04216 0.89897 0.0
C1387 C 0.6636 0.0417 0.83633 0.0
C1388 C 0.63079 0.02902 0.72065 0.0
C1389 C 0.63103 0.03601 0.55279 0.0
C1390 C 0.63431 0.0367 0.61973 0.0
C1391 C 0.64455 0.03829 0.81324 0.0
C1392 C 0.64098 0.03777 0.74666 0.0
H1393 H 0.65532 0.04163 0.41913 0.0
H1394 H 0.66004 0.04363 0.52841 0.0
H1395 H 0.62015 0.02149 0.63947 0.0
H1396 H 0.6197 0.03379 0.94666 0.0
H1397 H 0.61404 0.03279 0.83771 0.0
C1398 C 0.62333 0.20205 0.87996 0.0
C1399 C 0.62467 0.2107 0.91885 0.0
C1400 C 0.62627 0.20325 0.81752 0.0
C1401 C 0.64762 0.22172 0.70182 0.0
H1402 H 0.61354 0.205 0.592 0.0
C1403 C 0.64247 0.2301 0.44493 0.0
C1404 C 0.64277 0.22157 0.40505 0.0
C1405 C 0.64105 0.2286 0.50759 0.0
C1406 C 0.62332 0.20964 0.62211 0.0
H1407 H 0.63008 0.22739 0.92271 0.0
H1408 H 0.63484 0.22956 0.81349 0.0
H1409 H 0.60938 0.20286 0.70129 0.0
H1410 H 0.64213 0.20473 0.4008 0.0
H1411 H 0.63924 0.20214 0.51017 0.0
H1412 H 0.66123 0.22864 0.62227 0.0
C1413 C 0.63194 0.2218 0.83135 0.0
C1414 C 0.62097 0.20841 0.68479 0.0
C1415 C 0.62916 0.22058 0.89395 0.0
C1416 C 0.64162 0.21149 0.42976 0.0
C1417 C 0.64001 0.20999 0.49251 0.0
C1418 C 0.64985 0.223 0.63911 0.0
C1419 C 0.63046 0.21315 0.79228 0.0
C1420 C 0.63309 0.21444 0.72549 0.0
C1421 C 0.63971 0.21853 0.53206 0.0
C1422 C 0.6377 0.21699 0.59861 0.0
H1423 H 0.62028 0.19431 0.8979 0.0
H1424 H 0.62544 0.19639 0.7891 0.0
H1425 H 0.65746 0.22636 0.7317 0.0
H1426 H 0.64296 0.23797 0.42795 0.0
H1427 H 0.64055 0.23533 0.53688 0.0
C1428 C 0.394 0.98026 0.56897 0.0
C1429 C 0.39422 0.97171 0.60873 0.0
C1430 C 0.39243 0.97878 0.5063 0.0
C1431 C 0.37426 0.95991 0.39173 0.0
H1432 H 0.40854 0.97652 0.28194 0.0
C1433 C 0.37429 0.95223 0.13392 0.0
C1434 C 0.37579 0.96086 0.09487 0.0
C1435 C 0.37714 0.95346 0.19638 0.0
C1436 C 0.39866 0.97191 0.31188 0.0
H1437 H 0.39328 0.95486 0.61275 0.0
H1438 H 0.39014 0.95232 0.5034 0.0
H1439 H 0.4124 0.97879 0.39134 0.0
H1440 H 0.38136 0.97754 0.09081 0.0
H1441 H 0.386 0.97975 0.20004 0.0
H1442 H 0.3602 0.95317 0.31262 0.0
C1443 C 0.39109 0.96017 0.52115 0.0
C1444 C 0.40093 0.97319 0.37457 0.0
C1445 C 0.39283 0.96164 0.5839 0.0
C1446 C 0.38032 0.97074 0.11967 0.0
C1447 C 0.38303 0.97199 0.18229 0.0
C1448 C 0.37187 0.95868 0.32906 0.0
C1449 C 0.39087 0.96873 0.48171 0.0
C1450 C 0.38875 0.96721 0.41516 0.0
C1451 C 0.38142 0.96336 0.22149 0.0
C1452 C 0.38404 0.96467 0.28828 0.0
H1453 H 0.39467 0.98813 0.58605 0.0
H1454 H 0.392 0.98553 0.47712 0.0
H1455 H 0.36445 0.9553 0.42189 0.0
H1456 H 0.37119 0.94449 0.11608 0.0
H1457 H 0.37622 0.94661 0.2249 0.0
C1458 C 0.3812 0.78606 0.10036 0.0
C1459 C 0.40027 0.7895 0.07695 0.0
C1460 C 0.3779 0.7855 0.16302 0.0
C1461 C 0.39667 0.79614 0.30855 0.0
H1462 H 0.36925 0.77157 0.37764 0.0
C1463 C 0.3923 0.78892 0.56788 0.0
C1464 C 0.37478 0.78369 0.59124 0.0
C1465 C 0.39495 0.79007 0.50515 0.0
C1466 C 0.37663 0.77857 0.35915 0.0
H1467 H 0.43088 0.79487 0.10233 0.0
H1468 H 0.42493 0.79406 0.21126 0.0
H1469 H 0.3747 0.77262 0.26842 0.0
H1470 H 0.34593 0.77599 0.56759 0.0
H1471 H 0.3502 0.77823 0.45834 0.0
H1472 H 0.39839 0.80217 0.39902 0.0
C1473 C 0.41253 0.79188 0.18083 0.0
C1474 C 0.37982 0.77914 0.29647 0.0
C1475 C 0.41591 0.79235 0.11819 0.0
C1476 C 0.35969 0.77993 0.55073 0.0
C1477 C 0.36222 0.78117 0.48812 0.0
C1478 C 0.39332 0.79561 0.37123 0.0
C1479 C 0.39349 0.78845 0.20393 0.0
C1480 C 0.38993 0.78791 0.2705 0.0
C1481 C 0.38005 0.7861 0.46437 0.0
C1482 C 0.38329 0.78681 0.39743 0.0
H1483 H 0.36863 0.78396 0.07054 0.0
H1484 H 0.36299 0.78293 0.17949 0.0
H1485 H 0.40429 0.80305 0.28972 0.0
H1486 H 0.40432 0.79177 0.59796 0.0
H1487 H 0.409 0.79378 0.48868 0.0
C1488 C 0.14599 0.58727 0.15415 0.0
C1489 C 0.12656 0.58246 0.16243 0.0
C1490 C 0.14847 0.598 0.14663 0.0
C1491 C 0.14942 0.62052 0.10696 0.0
H1492 H 0.11984 0.6372 0.21973 0.0
C1493 C 0.15413 0.66574 0.10818 0.0
C1494 C 0.15393 0.67061 0.1653 0.0
C1495 C 0.15139 0.65493 0.10345 0.0
C1496 C 0.12831 0.63264 0.18817 0.0
H1497 H 0.09441 0.58504 0.16652 0.0
H1498 H 0.09871 0.60394 0.15331 0.0
H1499 H 0.1127 0.61848 0.21602 0.0
H1500 H 0.1521 0.66792 0.26231 0.0
H1501 H 0.1476 0.64908 0.25416 0.0
H1502 H 0.16542 0.63469 0.08032 0.0
C1503 C 0.11204 0.59937 0.15332 0.0
C1504 C 0.12399 0.62193 0.18539 0.0
C1505 C 0.10954 0.58856 0.16047 0.0
C1506 C 0.15209 0.6644 0.21765 0.0
C1507 C 0.14936 0.65362 0.21293 0.0
C1508 C 0.1537 0.63126 0.10959 0.0
C1509 C 0.13159 0.60421 0.14723 0.0
C1510 C 0.1347 0.61572 0.14541 0.0
C1511 C 0.14838 0.64878 0.15574 0.0
C1512 C 0.14342 0.63742 0.15095 0.0
H1513 H 0.15937 0.58273 0.1545 0.0
H1514 H 0.16374 0.60146 0.14261 0.0
H1515 H 0.15781 0.61596 0.07523 0.0
H1516 H 0.15522 0.67032 0.06697 0.0
H1517 H 0.15065 0.65145 0.05871 0.0
C1518 C 0.91222 0.41531 0.82528 0.0
C1519 C 0.90352 0.42146 0.86967 0.0
C1520 C 0.9094 0.4045 0.82741 0.0
C1521 C 0.88933 0.38227 0.92383 0.0
H1522 H 0.88255 0.36896 0.76674 0.0
C1523 C 0.85858 0.33922 0.88013 0.0
C1524 C 0.87212 0.33353 0.84539 0.0
C1525 C 0.86187 0.34999 0.88746 0.0
C1526 C 0.88436 0.3726 0.8109 0.0
H1527 H 0.88535 0.42132 0.95141 0.0
H1528 H 0.87979 0.40246 0.95447 0.0
H1529 H 0.89037 0.38758 0.77198 0.0
H1530 H 0.90048 0.33481 0.79455 0.0
H1531 H 0.9054 0.35346 0.80481 0.0
H1532 H 0.88265 0.36714 0.96216 0.0
C1533 C 0.88935 0.40585 0.91898 0.0
C1534 C 0.88912 0.38325 0.81405 0.0
C1535 C 0.89252 0.41666 0.91738 0.0
C1536 C 0.88917 0.33889 0.81943 0.0
C1537 C 0.8922 0.34959 0.82582 0.0
C1538 C 0.88421 0.3716 0.92059 0.0
C1539 C 0.8973 0.39963 0.87307 0.0
C1540 C 0.89201 0.38824 0.8705 0.0
C1541 C 0.87858 0.35526 0.85955 0.0
C1542 C 0.88198 0.36667 0.86403 0.0
H1543 H 0.92061 0.4189 0.78783 0.0
H1544 H 0.91626 0.39999 0.79219 0.0
H1545 H 0.89158 0.38578 0.96812 0.0
H1546 H 0.84533 0.33538 0.90091 0.0
H1547 H 0.85116 0.35424 0.91376 0.0
C1548 C 0.11167 0.08929 0.6563 0.0
C1549 C 0.12885 0.08332 0.66022 0.0
C1550 C 0.11394 0.10011 0.64954 0.0
C1551 C 0.15118 0.1219 0.67849 0.0
H1552 H 0.11697 0.13745 0.57261 0.0
C1553 C 0.16361 0.16636 0.64912 0.0
C1554 C 0.14592 0.17198 0.65061 0.0
C1555 C 0.16226 0.15551 0.64406 0.0
C1556 C 0.12657 0.13323 0.60273 0.0
H1557 H 0.16179 0.0839 0.65558 0.0
H1558 H 0.16569 0.10262 0.64415 0.0
H1559 H 0.11244 0.11854 0.57667 0.0
H1560 H 0.11302 0.17067 0.64411 0.0
H1561 H 0.11066 0.15189 0.63697 0.0
H1562 H 0.16506 0.13653 0.70552 0.0
C1563 C 0.1505 0.09905 0.64801 0.0
C1564 C 0.12393 0.1224 0.60507 0.0
C1565 C 0.14825 0.08831 0.65467 0.0
C1566 C 0.12695 0.16656 0.64455 0.0
C1567 C 0.1256 0.15578 0.63949 0.0
C1568 C 0.15376 0.13271 0.67633 0.0
C1569 C 0.13343 0.10511 0.64639 0.0
C1570 C 0.13616 0.11661 0.64317 0.0
C1571 C 0.14319 0.15008 0.6399 0.0
C1572 C 0.1414 0.13853 0.63875 0.0
H1573 H 0.09656 0.08564 0.6602 0.0
H1574 H 0.10048 0.10458 0.64858 0.0
H1575 H 0.16067 0.11768 0.70898 0.0
H1576 H 0.17842 0.17033 0.65337 0.0
H1577 H 0.17613 0.15136 0.6437 0.0
C1578 C 0.91511 0.91491 0.31427 0.0
C1579 C 0.90757 0.92136 0.35923 0.0
C1580 C 0.91189 0.90414 0.31829 0.0
C1581 C 0.89308 0.88245 0.4204 0.0
H1582 H 0.88299 0.86867 0.266 0.0
C1583 C 0.86141 0.83921 0.38222 0.0
C1584 C 0.87493 0.8335 0.34761 0.0
C1585 C 0.86461 0.85001 0.38882 0.0
C1586 C 0.88568 0.87244 0.30943 0.0
H1587 H 0.8912 0.92175 0.44424 0.0
H1588 H 0.88494 0.90294 0.45065 0.0
H1589 H 0.89101 0.88728 0.26818 0.0
H1590 H 0.90321 0.83474 0.29635 0.0
H1591 H 0.90795 0.85343 0.30527 0.0
H1592 H 0.88713 0.86743 0.46113 0.0
C1593 C 0.89385 0.90609 0.41306 0.0
C1594 C 0.89057 0.88309 0.31079 0.0
C1595 C 0.89744 0.91687 0.40955 0.0
C1596 C 0.89192 0.83884 0.32116 0.0
C1597 C 0.89485 0.84956 0.32681 0.0
C1598 C 0.88783 0.87177 0.419 0.0
C1599 C 0.90054 0.89959 0.36655 0.0
C1600 C 0.89475 0.88824 0.36614 0.0
C1601 C 0.88122 0.85526 0.36029 0.0
C1602 C 0.88442 0.86668 0.36336 0.0
H1603 H 0.9229 0.91823 0.27498 0.0
H1604 H 0.91785 0.8994 0.28254 0.0
H1605 H 0.8963 0.88609 0.46386 0.0
H1606 H 0.84822 0.83539 0.40337 0.0
H1607 H 0.8539 0.85429 0.41491 0.0
C1608 C 0.66081 0.66478 0.63846 0.0
C1609 C 0.64402 0.67096 0.64493 0.0
C1610 C 0.65792 0.65402 0.62991 0.0
C1611 C 0.61966 0.63266 0.65898 0.0
H1612 H 0.65362 0.6167 0.55453 0.0
C1613 C 0.60676 0.58814 0.63436 0.0
C1614 C 0.62443 0.58253 0.63801 0.0
C1615 C 0.60818 0.59896 0.62726 0.0
C1616 C 0.64406 0.62104 0.58413 0.0
H1617 H 0.61111 0.67089 0.64286 0.0
H1618 H 0.6061 0.65226 0.62767 0.0
H1619 H 0.65854 0.6356 0.55733 0.0
H1620 H 0.65735 0.58377 0.63319 0.0
H1621 H 0.65981 0.60251 0.62214 0.0
H1622 H 0.60544 0.61815 0.68677 0.0
C1623 C 0.62148 0.65559 0.63101 0.0
C1624 C 0.64692 0.63187 0.58579 0.0
C1625 C 0.62436 0.66628 0.63967 0.0
C1626 C 0.64344 0.58789 0.63185 0.0
C1627 C 0.64485 0.59864 0.62462 0.0
C1628 C 0.61682 0.62185 0.6574 0.0
C1629 C 0.63818 0.64929 0.62735 0.0
C1630 C 0.63485 0.6378 0.62361 0.0
C1631 C 0.62728 0.60435 0.62309 0.0
C1632 C 0.62912 0.6159 0.62047 0.0
H1633 H 0.67612 0.66819 0.6422 0.0
H1634 H 0.67112 0.64937 0.62748 0.0
H1635 H 0.61029 0.63698 0.68937 0.0
H1636 H 0.59192 0.5842 0.63866 0.0
H1637 H 0.59433 0.60312 0.62551 0.0
C1638 C 0.40097 0.41614 0.39124 0.0
C1639 C 0.40265 0.42063 0.33315 0.0
C1640 C 0.39767 0.40538 0.39785 0.0
C1641 C 0.37678 0.38258 0.31275 0.0
H1642 H 0.40286 0.36662 0.43684 0.0
C1643 C 0.39399 0.33754 0.36127 0.0
C1644 C 0.37497 0.33255 0.34903 0.0
C1645 C 0.39604 0.34831 0.36686 0.0
C1646 C 0.39542 0.37098 0.40199 0.0
H1647 H 0.40348 0.41731 0.23676 0.0
H1648 H 0.39799 0.39857 0.24826 0.0
H1649 H 0.41055 0.38531 0.42964 0.0
H1650 H 0.343 0.33487 0.33575 0.0
H1651 H 0.34653 0.35387 0.34546 0.0
H1652 H 0.36212 0.36821 0.28391 0.0
C1653 C 0.3987 0.40336 0.28866 0.0
C1654 C 0.39974 0.3817 0.39814 0.0
C1655 C 0.402 0.41409 0.28207 0.0
C1656 C 0.35783 0.33854 0.34489 0.0
C1657 C 0.3599 0.34939 0.35008 0.0
C1658 C 0.37243 0.37187 0.31671 0.0
C1659 C 0.39596 0.39891 0.34651 0.0
C1660 C 0.39074 0.38759 0.35278 0.0
C1661 C 0.37911 0.35439 0.36037 0.0
C1662 C 0.38195 0.36592 0.36071 0.0
H1663 H 0.40112 0.42098 0.43145 0.0
H1664 H 0.39556 0.4022 0.44305 0.0
H1665 H 0.36929 0.38692 0.27798 0.0
H1666 H 0.40743 0.3331 0.36567 0.0
H1667 H 0.41107 0.35189 0.37417 0.0
C1668 C 0.6627 0.16421 0.15064 0.0
C1669 C 0.64553 0.17022 0.15244 0.0
C1670 C 0.66042 0.15338 0.14405 0.0
C1671 C 0.6224 0.13177 0.1697 0.0
H1672 H 0.65854 0.11574 0.07267 0.0
C1673 C 0.61006 0.08726 0.14564 0.0
C1674 C 0.62758 0.08163 0.15258 0.0
C1675 C 0.61169 0.09807 0.13813 0.0
C1676 C 0.64838 0.12011 0.10024 0.0
H1677 H 0.6127 0.16973 0.14412 0.0
H1678 H 0.60878 0.151 0.13249 0.0
H1679 H 0.66312 0.13467 0.07464 0.0
H1680 H 0.66054 0.0828 0.15307 0.0
H1681 H 0.66334 0.10154 0.14132 0.0
H1682 H 0.60787 0.11726 0.19622 0.0
C1683 C 0.62393 0.15453 0.13802 0.0
C1684 C 0.65104 0.13095 0.10144 0.0
C1685 C 0.62619 0.16527 0.14471 0.0
C1686 C 0.64672 0.08695 0.14915 0.0
C1687 C 0.64835 0.09769 0.14155 0.0
C1688 C 0.61976 0.12095 0.16858 0.0
C1689 C 0.64095 0.14842 0.13882 0.0
C1690 C 0.63813 0.1369 0.13641 0.0
C1691 C 0.63087 0.10343 0.13691 0.0
C1692 C 0.63279 0.11497 0.13421 0.0
H1693 H 0.67777 0.16783 0.15625 0.0
H1694 H 0.67384 0.14888 0.14501 0.0
H1695 H 0.61237 0.1361 0.19793 0.0
H1696 H 0.59513 0.08336 0.14784 0.0
H1697 H 0.59792 0.10225 0.13386 0.0
C1698 C 0.39643 0.83703 0.86758 0.0
C1699 C 0.37721 0.8318 0.86385 0.0
C1700 C 0.39823 0.84777 0.87509 0.0
C1701 C 0.37014 0.87116 0.84712 0.0
H1702 H 0.41357 0.88473 0.94139 0.0
C1703 C 0.37734 0.91547 0.87007 0.0
C1704 C 0.39676 0.92032 0.86231 0.0
C1705 C 0.37488 0.90474 0.87706 0.0
C1706 C 0.40148 0.88105 0.91451 0.0
H1707 H 0.34479 0.83369 0.86802 0.0
H1708 H 0.3479 0.85258 0.88186 0.0
H1709 H 0.40864 0.86582 0.94376 0.0
H1710 H 0.42894 0.91778 0.85883 0.0
H1711 H 0.42467 0.89885 0.87062 0.0
H1712 H 0.3631 0.88633 0.81729 0.0
C1713 C 0.36159 0.84833 0.87788 0.0
C1714 C 0.39861 0.87022 0.91594 0.0
C1715 C 0.35978 0.83752 0.87045 0.0
C1716 C 0.41381 0.91423 0.86444 0.0
C1717 C 0.41133 0.90342 0.87134 0.0
C1718 C 0.37298 0.88196 0.84579 0.0
C1719 C 0.38086 0.85359 0.87935 0.0
C1720 C 0.38299 0.86513 0.88185 0.0
C1721 C 0.39178 0.89854 0.87655 0.0
C1722 C 0.38875 0.88704 0.87919 0.0
H1723 H 0.41017 0.83281 0.86393 0.0
H1724 H 0.41329 0.85155 0.87553 0.0
H1725 H 0.35823 0.8675 0.81938 0.0
H1726 H 0.36393 0.91999 0.87041 0.0
H1727 H 0.35966 0.90128 0.88257 0.0
loop_
_geom_bond_atom_site_label_1
_geom_bond_atom_site_label_2
_geom_bond_distance
_geom_bond_site_symmetry_2
_ccdc_geom_bond_type
C0 C1 1.351 1_554 S
C0 N3 1.368 . S
C0 H5 0.931 . S
C1 C0 1.351 1_556 S
C1 N2 1.373 . S
C1 H29 0.930 . S
N2 C1 1.373 . S
N2 C4 1.340 . S
N3 C0 1.368 . S
N3 C4 1.321 1_554 S
N3 Co6 2.135 . S
C4 N2 1.340 . S
C4 N3 1.321 1_556 S
C4 H28 0.930 . S
H5 C0 0.931 . S
Co6 N3 2.135 . S
Co6 N9 2.121 . S
Co6 O14 2.055 . S
Co6 O17 2.039 . S
Co6 N20 2.140 . S
C7 O8 1.227 . S
C7 O17 1.265 . S
O8 C7 1.227 . S
N9 Co6 2.121 . S
N9 C11 1.375 . S
N9 C12 1.313 . S
C10 C11 1.338 . S
C10 N13 1.377 . S
C10 H30 0.930 . S
C11 N9 1.375 . S
C11 C10 1.338 . S
C11 H15 0.931 . S
C12 N9 1.313 . S
C12 N13 1.344 . S
C12 H16 0.930 . S
N13 C10 1.377 . S
N13 C12 1.344 . S
O14 Co6 2.055 . S
O14 C18 1.253 . S
H15 C11 0.931 . S
H16 C12 0.930 . S
O17 Co6 2.039 . S
O17 C7 1.265 . S
C18 O14 1.253 . S
C18 O19 1.227 . S
O19 C18 1.227 . S
N20 Co6 2.140 . S
N20 C23 1.346 . S
N20 C24 1.345 . S
C21 C22 1.387 . S
C21 C25 1.391 . S
C22 C21 1.387 . S
C22 C23 1.369 . S
C22 H31 0.929 . S
C23 N20 1.346 . S
C23 C22 1.369 . S
C23 H26 0.928 . S
C24 N20 1.345 . S
C24 C25 1.371 . S
C24 H27 0.931 . S
C25 C21 1.391 . S
C25 C24 1.371 . S
C25 H32 0.930 . S
H26 C23 0.928 . S
H27 C24 0.931 . S
H28 C4 0.930 . S
H29 C1 0.930 . S
H30 C10 0.930 . S
H31 C22 0.929 . S
H32 C25 0.930 . S
C33 C34 1.351 1_554 S
C33 N36 1.368 . S
C33 H38 0.931 . S
C34 C33 1.351 1_556 S
C34 N35 1.373 . S
C34 H62 0.930 . S
N35 C34 1.373 . S
N35 C37 1.340 . S
N36 C33 1.368 . S
N36 C37 1.321 1_554 S
N36 Co39 2.135 . S
C37 N35 1.340 . S
C37 N36 1.321 1_556 S
C37 H61 0.930 . S
H38 C33 0.931 . S
Co39 N36 2.135 . S
Co39 N42 2.121 . S
Co39 O47 2.055 . S
Co39 O50 2.039 . S
Co39 N53 2.140 . S
C40 O41 1.227 . S
C40 O50 1.265 . S
O41 C40 1.227 . S
N42 Co39 2.121 . S
N42 C44 1.375 . S
N42 C45 1.313 . S
C43 C44 1.338 . S
C43 N46 1.377 . S
C43 H63 0.930 . S
C44 N42 1.375 . S
C44 C43 1.338 . S
C44 H48 0.931 . S
C45 N42 1.313 . S
C45 N46 1.344 . S
C45 H49 0.930 . S
N46 C43 1.377 . S
N46 C45 1.344 . S
O47 Co39 2.055 . S
O47 C51 1.253 . S
H48 C44 0.931 . S
H49 C45 0.930 . S
O50 Co39 2.039 . S
O50 C40 1.265 . S
C51 O47 1.253 . S
C51 O52 1.227 . S
O52 C51 1.227 . S
N53 Co39 2.140 . S
N53 C56 1.346 . S
N53 C57 1.345 . S
C54 C55 1.387 . S
C54 C58 1.391 . S
C55 C54 1.387 . S
C55 C56 1.369 . S
C55 H64 0.929 . S
C56 N53 1.346 . S
C56 C55 1.369 . S
C56 H59 0.928 . S
C57 N53 1.345 . S
C57 C58 1.371 . S
C57 H60 0.931 . S
C58 C54 1.391 . S
C58 C57 1.371 . S
C58 H65 0.930 . S
H59 C56 0.928 . S
H60 C57 0.931 . S
H61 C37 0.930 . S
H62 C34 0.930 . S
H63 C43 0.930 . S
H64 C55 0.929 . S
H65 C58 0.930 . S
C66 C67 1.351 1_556 S
C66 N69 1.368 . S
C66 H71 0.931 . S
C67 C66 1.351 1_554 S
C67 N68 1.373 . S
C67 H95 0.930 . S
N68 C67 1.373 . S
N68 C70 1.340 . S
N69 C66 1.368 . S
N69 C70 1.321 1_556 S
N69 Co72 2.135 . S
C70 N68 1.340 . S
C70 N69 1.321 1_554 S
C70 H94 0.930 . S
H71 C66 0.931 . S
Co72 N69 2.135 . S
Co72 N75 2.121 . S
Co72 O80 2.055 . S
Co72 O83 2.039 . S
Co72 N86 2.140 . S
C73 O74 1.227 . S
C73 O83 1.265 . S
O74 C73 1.227 . S
N75 Co72 2.121 . S
N75 C77 1.375 . S
N75 C78 1.313 . S
C76 C77 1.338 . S
C76 N79 1.377 . S
C76 H96 0.930 . S
C77 N75 1.375 . S
C77 C76 1.338 . S
C77 H81 0.931 . S
C78 N75 1.313 . S
C78 N79 1.344 . S
C78 H82 0.930 . S
N79 C76 1.377 . S
N79 C78 1.344 . S
O80 Co72 2.055 . S
O80 C84 1.253 . S
H81 C77 0.931 . S
H82 C78 0.930 . S
O83 Co72 2.039 . S
O83 C73 1.265 . S
C84 O80 1.253 . S
C84 O85 1.227 . S
O85 C84 1.227 . S
N86 Co72 2.140 . S
N86 C89 1.346 . S
N86 C90 1.345 . S
C87 C88 1.387 . S
C87 C91 1.391 . S
C88 C87 1.387 . S
C88 C89 1.369 . S
C88 H97 0.929 . S
C89 N86 1.346 . S
C89 C88 1.369 . S
C89 H92 0.928 . S
C90 N86 1.345 . S
C90 C91 1.371 . S
C90 H93 0.931 . S
C91 C87 1.391 . S
C91 C90 1.371 . S
C91 H98 0.930 . S
H92 C89 0.928 . S
H93 C90 0.931 . S
H94 C70 0.930 . S
H95 C67 0.930 . S
H96 C76 0.930 . S
H97 C88 0.929 . S
H98 C91 0.930 . S
C99 C100 1.351 1_556 S
C99 N102 1.368 . S
C99 H104 0.931 . S
C100 C99 1.351 1_554 S
C100 N101 1.373 . S
C100 H128 0.930 . S
N101 C100 1.373 . S
N101 C103 1.340 . S
N102 C99 1.368 . S
N102 C103 1.321 1_556 S
N102 Co105 2.135 . S
C103 N101 1.340 . S
C103 N102 1.321 1_554 S
C103 H127 0.930 . S
H104 C99 0.931 . S
Co105 N102 2.135 . S
Co105 N108 2.121 . S
Co105 O113 2.055 . S
Co105 O116 2.039 . S
Co105 N119 2.140 . S
C106 O107 1.227 . S
C106 O116 1.265 . S
O107 C106 1.227 . S
N108 Co105 2.121 . S
N108 C110 1.375 . S
N108 C111 1.313 . S
C109 C110 1.338 . S
C109 N112 1.377 . S
C109 H129 0.930 . S
C110 N108 1.375 . S
C110 C109 1.338 . S
C110 H114 0.931 . S
C111 N108 1.313 . S
C111 N112 1.344 . S
C111 H115 0.930 . S
N112 C109 1.377 . S
N112 C111 1.344 . S
O113 Co105 2.055 . S
O113 C117 1.253 . S
H114 C110 0.931 . S
H115 C111 0.930 . S
O116 Co105 2.039 . S
O116 C106 1.265 . S
C117 O113 1.253 . S
C117 O118 1.227 . S
O118 C117 1.227 . S
N119 Co105 2.140 . S
N119 C122 1.346 . S
N119 C123 1.345 . S
C120 C121 1.387 . S
C120 C124 1.391 . S
C121 C120 1.387 . S
C121 C122 1.369 . S
C121 H130 0.929 . S
C122 N119 1.346 . S
C122 C121 1.369 . S
C122 H125 0.928 . S
C123 N119 1.345 . S
C123 C124 1.371 . S
C123 H126 0.931 . S
C124 C120 1.391 . S
C124 C123 1.371 . S
C124 H131 0.930 . S
H125 C122 0.928 . S
H126 C123 0.931 . S
H127 C103 0.930 . S
H128 C100 0.930 . S
H129 C109 0.930 . S
H130 C121 0.929 . S
H131 C124 0.930 . S
C132 C133 1.351 . S
C132 N135 1.368 . S
C132 H137 0.931 . S
C133 C132 1.351 . S
C133 N134 1.373 . S
C133 H161 0.930 . S
N134 C133 1.373 . S
N134 C136 1.340 . S
N135 C132 1.368 . S
N135 C136 1.321 . S
N135 Co138 2.135 . S
C136 N134 1.340 . S
C136 N135 1.321 . S
C136 H160 0.930 . S
H137 C132 0.931 . S
Co138 N135 2.135 . S
Co138 N141 2.121 . S
Co138 O146 2.055 . S
Co138 O149 2.039 . S
Co138 N152 2.140 . S
C139 O140 1.227 . S
C139 O149 1.265 . S
O140 C139 1.227 . S
N141 Co138 2.121 . S
N141 C143 1.375 . S
N141 C144 1.313 . S
C142 C143 1.338 . S
C142 N145 1.377 . S
C142 H162 0.930 . S
C143 N141 1.375 . S
C143 C142 1.338 . S
C143 H147 0.931 . S
C144 N141 1.313 . S
C144 N145 1.344 . S
C144 H148 0.930 . S
N145 C142 1.377 . S
N145 C144 1.344 . S
O146 Co138 2.055 . S
O146 C150 1.253 . S
H147 C143 0.931 . S
H148 C144 0.930 . S
O149 Co138 2.039 . S
O149 C139 1.265 . S
C150 O146 1.253 . S
C150 O151 1.227 . S
O151 C150 1.227 . S
N152 Co138 2.140 . S
N152 C155 1.346 . S
N152 C156 1.345 . S
C153 C154 1.387 . S
C153 C157 1.391 . S
C154 C153 1.387 . S
C154 C155 1.369 . S
C154 H163 0.929 . S
C155 N152 1.346 . S
C155 C154 1.369 . S
C155 H158 0.928 . S
C156 N152 1.345 . S
C156 C157 1.371 . S
C156 H159 0.931 . S
C157 C153 1.391 . S
C157 C156 1.371 . S
C157 H164 0.930 . S
H158 C155 0.928 . S
H159 C156 0.931 . S
H160 C136 0.930 . S
H161 C133 0.930 . S
H162 C142 0.930 . S
H163 C154 0.929 . S
H164 C157 0.930 . S
C165 C166 1.351 . S
C165 N168 1.368 . S
C165 H170 0.931 . S
C166 C165 1.351 . S
C166 N167 1.373 . S
C166 H194 0.930 . S
N167 C166 1.373 . S
N167 C169 1.340 . S
N168 C165 1.368 . S
N168 C169 1.321 . S
N168 Co171 2.135 . S
C169 N167 1.340 . S
C169 N168 1.321 . S
C169 H193 0.930 . S
H170 C165 0.931 . S
Co171 N168 2.135 . S
Co171 N174 2.121 . S
Co171 O179 2.055 . S
Co171 O182 2.039 . S
Co171 N185 2.140 . S
C172 O173 1.227 . S
C172 O182 1.265 . S
O173 C172 1.227 . S
N174 Co171 2.121 . S
N174 C176 1.375 . S
N174 C177 1.313 . S
C175 C176 1.338 . S
C175 N178 1.377 . S
C175 H195 0.930 . S
C176 N174 1.375 . S
C176 C175 1.338 . S
C176 H180 0.931 . S
C177 N174 1.313 . S
C177 N178 1.344 . S
C177 H181 0.930 . S
N178 C175 1.377 . S
N178 C177 1.344 . S
O179 Co171 2.055 . S
O179 C183 1.253 . S
H180 C176 0.931 . S
H181 C177 0.930 . S
O182 Co171 2.039 . S
O182 C172 1.265 . S
C183 O179 1.253 . S
C183 O184 1.227 . S
O184 C183 1.227 . S
N185 Co171 2.140 . S
N185 C188 1.346 . S
N185 C189 1.345 . S
C186 C187 1.387 . S
C186 C190 1.391 . S
C187 C186 1.387 . S
C187 C188 1.369 . S
C187 H196 0.929 . S
C188 N185 1.346 . S
C188 C187 1.369 . S
C188 H191 0.928 . S
C189 N185 1.345 . S
C189 C190 1.371 . S
C189 H192 0.931 . S
C190 C186 1.391 . S
C190 C189 1.371 . S
C190 H197 0.930 . S
H191 C188 0.928 . S
H192 C189 0.931 . S
H193 C169 0.930 . S
H194 C166 0.930 . S
H195 C175 0.930 . S
H196 C187 0.929 . S
H197 C190 0.930 . S
C198 C199 1.351 . S
C198 N201 1.368 . S
C198 H203 0.931 . S
C199 C198 1.351 . S
C199 N200 1.373 . S
C199 H227 0.930 . S
N200 C199 1.373 . S
N200 C202 1.340 . S
N201 C198 1.368 . S
N201 C202 1.321 . S
N201 Co204 2.135 . S
C202 N200 1.340 . S
C202 N201 1.321 . S
C202 H226 0.930 . S
H203 C198 0.931 . S
Co204 N201 2.135 . S
Co204 N207 2.121 . S
Co204 O212 2.055 . S
Co204 O215 2.039 . S
Co204 N218 2.140 . S
C205 O206 1.227 . S
C205 O215 1.265 . S
O206 C205 1.227 . S
N207 Co204 2.121 . S
N207 C209 1.375 . S
N207 C210 1.313 . S
C208 C209 1.338 . S
C208 N211 1.377 . S
C208 H228 0.930 . S
C209 N207 1.375 . S
C209 C208 1.338 . S
C209 H213 0.931 . S
C210 N207 1.313 . S
C210 N211 1.344 . S
C210 H214 0.930 . S
N211 C208 1.377 . S
N211 C210 1.344 . S
O212 Co204 2.055 . S
O212 C216 1.253 . S
H213 C209 0.931 . S
H214 C210 0.930 . S
O215 Co204 2.039 . S
O215 C205 1.265 . S
C216 O212 1.253 . S
C216 O217 1.227 . S
O217 C216 1.227 . S
N218 Co204 2.140 . S
N218 C221 1.346 . S
N218 C222 1.345 . S
C219 C220 1.387 . S
C219 C223 1.391 . S
C220 C219 1.387 . S
C220 C221 1.369 . S
C220 H229 0.929 . S
C221 N218 1.346 . S
C221 C220 1.369 . S
C221 H224 0.928 . S
C222 N218 1.345 . S
C222 C223 1.371 . S
C222 H225 0.931 . S
C223 C219 1.391 . S
C223 C222 1.371 . S
C223 H230 0.930 . S
H224 C221 0.928 . S
H225 C222 0.931 . S
H226 C202 0.930 . S
H227 C199 0.930 . S
H228 C208 0.930 . S
H229 C220 0.929 . S
H230 C223 0.930 . S
C231 C232 1.351 . S
C231 N234 1.368 . S
C231 H236 0.931 . S
C232 C231 1.351 . S
C232 N233 1.373 . S
C232 H260 0.930 . S
N233 C232 1.373 . S
N233 C235 1.340 . S
N234 C231 1.368 . S
N234 C235 1.321 . S
N234 Co237 2.135 . S
C235 N233 1.340 . S
C235 N234 1.321 . S
C235 H259 0.930 . S
H236 C231 0.931 . S
Co237 N234 2.135 . S
Co237 N240 2.121 . S
Co237 O245 2.055 . S
Co237 O248 2.039 . S
Co237 N251 2.140 . S
C238 O239 1.227 . S
C238 O248 1.265 . S
O239 C238 1.227 . S
N240 Co237 2.121 . S
N240 C242 1.375 . S
N240 C243 1.313 . S
C241 C242 1.338 . S
C241 N244 1.377 . S
C241 H261 0.930 . S
C242 N240 1.375 . S
C242 C241 1.338 . S
C242 H246 0.931 . S
C243 N240 1.313 . S
C243 N244 1.344 . S
C243 H247 0.930 . S
N244 C241 1.377 . S
N244 C243 1.344 . S
O245 Co237 2.055 . S
O245 C249 1.253 . S
H246 C242 0.931 . S
H247 C243 0.930 . S
O248 Co237 2.039 . S
O248 C238 1.265 . S
C249 O245 1.253 . S
C249 O250 1.227 . S
O250 C249 1.227 . S
N251 Co237 2.140 . S
N251 C254 1.346 . S
N251 C255 1.345 . S
C252 C253 1.387 . S
C252 C256 1.391 . S
C253 C252 1.387 . S
C253 C254 1.369 . S
C253 H262 0.929 . S
C254 N251 1.346 . S
C254 C253 1.369 . S
C254 H257 0.928 . S
C255 N251 1.345 . S
C255 C256 1.371 . S
C255 H258 0.931 . S
C256 C252 1.391 . S
C256 C255 1.371 . S
C256 H263 0.930 . S
H257 C254 0.928 . S
H258 C255 0.931 . S
H259 C235 0.930 . S
H260 C232 0.930 . S
H261 C241 0.930 . S
H262 C253 0.929 . S
H263 C256 0.930 . S
C264 C265 1.351 . S
C264 N267 1.368 . S
C264 H269 0.931 . S
C265 C264 1.351 . S
C265 N266 1.373 . S
C265 H293 0.930 . S
N266 C265 1.373 . S
N266 C268 1.340 . S
N267 C264 1.368 . S
N267 C268 1.321 . S
N267 Co270 2.135 . S
C268 N266 1.340 . S
C268 N267 1.321 . S
C268 H292 0.930 . S
H269 C264 0.931 . S
Co270 N267 2.135 . S
Co270 N273 2.121 . S
Co270 O278 2.055 . S
Co270 O281 2.039 . S
Co270 N284 2.140 . S
C271 O272 1.227 . S
C271 O281 1.265 . S
O272 C271 1.227 . S
N273 Co270 2.121 . S
N273 C275 1.375 . S
N273 C276 1.313 . S
C274 C275 1.338 . S
C274 N277 1.377 . S
C274 H294 0.930 . S
C275 N273 1.375 . S
C275 C274 1.338 . S
C275 H279 0.931 . S
C276 N273 1.313 . S
C276 N277 1.344 . S
C276 H280 0.930 . S
N277 C274 1.377 . S
N277 C276 1.344 . S
O278 Co270 2.055 . S
O278 C282 1.253 . S
H279 C275 0.931 . S
H280 C276 0.930 . S
O281 Co270 2.039 . S
O281 C271 1.265 . S
C282 O278 1.253 . S
C282 O283 1.227 . S
O283 C282 1.227 . S
N284 Co270 2.140 . S
N284 C287 1.346 . S
N284 C288 1.345 . S
C285 C286 1.387 . S
C285 C289 1.391 . S
C286 C285 1.387 . S
C286 C287 1.369 . S
C286 H295 0.929 . S
C287 N284 1.346 . S
C287 C286 1.369 . S
C287 H290 0.928 . S
C288 N284 1.345 . S
C288 C289 1.371 . S
C288 H291 0.931 . S
C289 C285 1.391 . S
C289 C288 1.371 . S
C289 H296 0.930 . S
H290 C287 0.928 . S
H291 C288 0.931 . S
H292 C268 0.930 . S
H293 C265 0.930 . S
H294 C274 0.930 . S
H295 C286 0.929 . S
H296 C289 0.930 . S
C297 C298 1.351 . S
C297 N300 1.368 . S
C297 H302 0.931 . S
C298 C297 1.351 . S
C298 N299 1.373 . S
C298 H326 0.930 . S
N299 C298 1.373 . S
N299 C301 1.340 . S
N300 C297 1.368 . S
N300 C301 1.321 . S
N300 Co303 2.135 . S
C301 N299 1.340 . S
C301 N300 1.321 . S
C301 H325 0.930 . S
H302 C297 0.931 . S
Co303 N300 2.135 . S
Co303 N306 2.121 . S
Co303 O311 2.055 . S
Co303 O314 2.039 . S
Co303 N317 2.140 . S
C304 O305 1.227 . S
C304 O314 1.265 . S
O305 C304 1.227 . S
N306 Co303 2.121 . S
N306 C308 1.375 . S
N306 C309 1.313 . S
C307 C308 1.338 . S
C307 N310 1.377 . S
C307 H327 0.930 . S
C308 N306 1.375 . S
C308 C307 1.338 . S
C308 H312 0.931 . S
C309 N306 1.313 . S
C309 N310 1.344 . S
C309 H313 0.930 . S
N310 C307 1.377 . S
N310 C309 1.344 . S
O311 Co303 2.055 . S
O311 C315 1.253 . S
H312 C308 0.931 . S
H313 C309 0.930 . S
O314 Co303 2.039 . S
O314 C304 1.265 . S
C315 O311 1.253 . S
C315 O316 1.227 . S
O316 C315 1.227 . S
N317 Co303 2.140 . S
N317 C320 1.346 . S
N317 C321 1.345 . S
C318 C319 1.387 . S
C318 C322 1.391 . S
C319 C318 1.387 . S
C319 C320 1.369 . S
C319 H328 0.929 . S
C320 N317 1.346 . S
C320 C319 1.369 . S
C320 H323 0.928 . S
C321 N317 1.345 . S
C321 C322 1.371 . S
C321 H324 0.931 . S
C322 C318 1.391 . S
C322 C321 1.371 . S
C322 H329 0.930 . S
H323 C320 0.928 . S
H324 C321 0.931 . S
H325 C301 0.930 . S
H326 C298 0.930 . S
H327 C307 0.930 . S
H328 C319 0.929 . S
H329 C322 0.930 . S
C330 C331 1.351 . S
C330 N333 1.368 . S
C330 H335 0.931 . S
C331 C330 1.351 . S
C331 N332 1.373 . S
C331 H359 0.930 . S
N332 C331 1.373 . S
N332 C334 1.340 . S
N333 C330 1.368 . S
N333 C334 1.321 . S
N333 Co336 2.135 . S
C334 N332 1.340 . S
C334 N333 1.321 . S
C334 H358 0.930 . S
H335 C330 0.931 . S
Co336 N333 2.135 . S
Co336 N339 2.121 . S
Co336 O344 2.055 . S
Co336 O347 2.039 . S
Co336 N350 2.140 . S
C337 O338 1.227 . S
C337 O347 1.265 . S
O338 C337 1.227 . S
N339 Co336 2.121 . S
N339 C341 1.375 . S
N339 C342 1.313 . S
C340 C341 1.338 . S
C340 N343 1.377 . S
C340 H360 0.930 . S
C341 N339 1.375 . S
C341 C340 1.338 . S
C341 H345 0.931 . S
C342 N339 1.313 . S
C342 N343 1.344 . S
C342 H346 0.930 . S
N343 C340 1.377 . S
N343 C342 1.344 . S
O344 Co336 2.055 . S
O344 C348 1.253 . S
H345 C341 0.931 . S
H346 C342 0.930 . S
O347 Co336 2.039 . S
O347 C337 1.265 . S
C348 O344 1.253 . S
C348 O349 1.227 . S
O349 C348 1.227 . S
N350 Co336 2.140 . S
N350 C353 1.346 . S
N350 C354 1.345 . S
C351 C352 1.387 . S
C351 C355 1.391 . S
C352 C351 1.387 . S
C352 C353 1.369 . S
C352 H361 0.929 . S
C353 N350 1.346 . S
C353 C352 1.369 . S
C353 H356 0.928 . S
C354 N350 1.345 . S
C354 C355 1.371 . S
C354 H357 0.931 . S
C355 C351 1.391 . S
C355 C354 1.371 . S
C355 H362 0.930 . S
H356 C353 0.928 . S
H357 C354 0.931 . S
H358 C334 0.930 . S
H359 C331 0.930 . S
H360 C340 0.930 . S
H361 C352 0.929 . S
H362 C355 0.930 . S
C363 C364 1.351 . S
C363 N366 1.368 . S
C363 H368 0.931 . S
C364 C363 1.351 . S
C364 N365 1.373 . S
C364 H392 0.930 . S
N365 C364 1.373 . S
N365 C367 1.340 . S
N366 C363 1.368 . S
N366 C367 1.321 . S
N366 Co369 2.135 . S
C367 N365 1.340 . S
C367 N366 1.321 . S
C367 H391 0.930 . S
H368 C363 0.931 . S
Co369 N366 2.135 . S
Co369 N372 2.121 . S
Co369 O377 2.055 . S
Co369 O380 2.039 . S
Co369 N383 2.140 . S
C370 O371 1.227 . S
C370 O380 1.265 . S
O371 C370 1.227 . S
N372 Co369 2.121 . S
N372 C374 1.375 . S
N372 C375 1.313 . S
C373 C374 1.338 . S
C373 N376 1.377 . S
C373 H393 0.930 . S
C374 N372 1.375 . S
C374 C373 1.338 . S
C374 H378 0.931 . S
C375 N372 1.313 . S
C375 N376 1.344 . S
C375 H379 0.930 . S
N376 C373 1.377 . S
N376 C375 1.344 . S
O377 Co369 2.055 . S
O377 C381 1.253 . S
H378 C374 0.931 . S
H379 C375 0.930 . S
O380 Co369 2.039 . S
O380 C370 1.265 . S
C381 O377 1.253 . S
C381 O382 1.227 . S
O382 C381 1.227 . S
N383 Co369 2.140 . S
N383 C386 1.346 . S
N383 C387 1.345 . S
C384 C385 1.387 . S
C384 C388 1.391 . S
C385 C384 1.387 . S
C385 C386 1.369 . S
C385 H394 0.929 . S
C386 N383 1.346 . S
C386 C385 1.369 . S
C386 H389 0.928 . S
C387 N383 1.345 . S
C387 C388 1.371 . S
C387 H390 0.931 . S
C388 C384 1.391 . S
C388 C387 1.371 . S
C388 H395 0.930 . S
H389 C386 0.928 . S
H390 C387 0.931 . S
H391 C367 0.930 . S
H392 C364 0.930 . S
H393 C373 0.930 . S
H394 C385 0.929 . S
H395 C388 0.930 . S
C396 C397 1.351 1_554 S
C396 N399 1.368 . S
C396 H401 0.931 . S
C397 C396 1.351 1_556 S
C397 N398 1.373 . S
C397 H425 0.930 . S
N398 C397 1.373 . S
N398 C400 1.340 . S
N399 C396 1.368 . S
N399 C400 1.321 1_554 S
N399 Co402 2.135 . S
C400 N398 1.340 . S
C400 N399 1.321 1_556 S
C400 H424 0.930 . S
H401 C396 0.931 . S
Co402 N399 2.135 . S
Co402 N405 2.121 . S
Co402 O410 2.055 . S
Co402 O413 2.039 . S
Co402 N416 2.140 . S
C403 O404 1.227 . S
C403 O413 1.265 . S
O404 C403 1.227 . S
N405 Co402 2.121 . S
N405 C407 1.375 . S
N405 C408 1.313 . S
C406 C407 1.338 . S
C406 N409 1.377 . S
C406 H426 0.930 . S
C407 N405 1.375 . S
C407 C406 1.338 . S
C407 H411 0.931 . S
C408 N405 1.313 . S
C408 N409 1.344 . S
C408 H412 0.930 . S
N409 C406 1.377 . S
N409 C408 1.344 . S
O410 Co402 2.055 . S
O410 C414 1.253 . S
H411 C407 0.931 . S
H412 C408 0.930 . S
O413 Co402 2.039 . S
O413 C403 1.265 . S
C414 O410 1.253 . S
C414 O415 1.227 . S
O415 C414 1.227 . S
N416 Co402 2.140 . S
N416 C419 1.346 . S
N416 C420 1.345 . S
C417 C418 1.387 . S
C417 C421 1.391 . S
C418 C417 1.387 . S
C418 C419 1.369 . S
C418 H427 0.929 . S
C419 N416 1.346 . S
C419 C418 1.369 . S
C419 H422 0.928 . S
C420 N416 1.345 . S
C420 C421 1.371 . S
C420 H423 0.931 . S
C421 C417 1.391 . S
C421 C420 1.371 . S
C421 H428 0.930 . S
H422 C419 0.928 . S
H423 C420 0.931 . S
H424 C400 0.930 . S
H425 C397 0.930 . S
H426 C406 0.930 . S
H427 C418 0.929 . S
H428 C421 0.930 . S
C429 C430 1.351 1_554 S
C429 N432 1.368 . S
C429 H434 0.931 . S
C430 C429 1.351 1_556 S
C430 N431 1.373 . S
C430 H458 0.930 . S
N431 C430 1.373 . S
N431 C433 1.340 . S
N432 C429 1.368 . S
N432 C433 1.321 1_554 S
N432 Co435 2.135 . S
C433 N431 1.340 . S
C433 N432 1.321 1_556 S
C433 H457 0.930 . S
H434 C429 0.931 . S
Co435 N432 2.135 . S
Co435 N438 2.121 . S
Co435 O443 2.055 . S
Co435 O446 2.039 . S
Co435 N449 2.140 . S
C436 O437 1.227 . S
C436 O446 1.265 . S
O437 C436 1.227 . S
N438 Co435 2.121 . S
N438 C440 1.375 . S
N438 C441 1.313 . S
C439 C440 1.338 . S
C439 N442 1.377 . S
C439 H459 0.930 . S
C440 N438 1.375 . S
C440 C439 1.338 . S
C440 H444 0.931 . S
C441 N438 1.313 . S
C441 N442 1.344 . S
C441 H445 0.930 . S
N442 C439 1.377 . S
N442 C441 1.344 . S
O443 Co435 2.055 . S
O443 C447 1.253 . S
H444 C440 0.931 . S
H445 C441 0.930 . S
O446 Co435 2.039 . S
O446 C436 1.265 . S
C447 O443 1.253 . S
C447 O448 1.227 . S
O448 C447 1.227 . S
N449 Co435 2.140 . S
N449 C452 1.346 . S
N449 C453 1.345 . S
C450 C451 1.387 . S
C450 C454 1.391 . S
C451 C450 1.387 . S
C451 C452 1.369 . S
C451 H460 0.929 . S
C452 N449 1.346 . S
C452 C451 1.369 . S
C452 H455 0.928 . S
C453 N449 1.345 . S
C453 C454 1.371 . S
C453 H456 0.931 . S
C454 C450 1.391 . S
C454 C453 1.371 . S
C454 H461 0.930 . S
H455 C452 0.928 . S
H456 C453 0.931 . S
H457 C433 0.930 . S
H458 C430 0.930 . S
H459 C439 0.930 . S
H460 C451 0.929 . S
H461 C454 0.930 . S
C462 C463 1.351 1_556 S
C462 N465 1.368 . S
C462 H467 0.931 . S
C463 C462 1.351 1_554 S
C463 N464 1.373 . S
C463 H491 0.930 . S
N464 C463 1.373 . S
N464 C466 1.340 . S
N465 C462 1.368 . S
N465 C466 1.321 1_556 S
N465 Co468 2.135 . S
C466 N464 1.340 . S
C466 N465 1.321 1_554 S
C466 H490 0.930 . S
H467 C462 0.931 . S
Co468 N465 2.135 . S
Co468 N471 2.121 . S
Co468 O476 2.055 . S
Co468 O479 2.039 . S
Co468 N482 2.140 . S
C469 O470 1.227 . S
C469 O479 1.265 . S
O470 C469 1.227 . S
N471 Co468 2.121 . S
N471 C473 1.375 . S
N471 C474 1.313 . S
C472 C473 1.338 . S
C472 N475 1.377 . S
C472 H492 0.930 . S
C473 N471 1.375 . S
C473 C472 1.338 . S
C473 H477 0.931 . S
C474 N471 1.313 . S
C474 N475 1.344 . S
C474 H478 0.930 . S
N475 C472 1.377 . S
N475 C474 1.344 . S
O476 Co468 2.055 . S
O476 C480 1.253 . S
H477 C473 0.931 . S
H478 C474 0.930 . S
O479 Co468 2.039 . S
O479 C469 1.265 . S
C480 O476 1.253 . S
C480 O481 1.227 . S
O481 C480 1.227 . S
N482 Co468 2.140 . S
N482 C485 1.346 . S
N482 C486 1.345 . S
C483 C484 1.387 . S
C483 C487 1.391 . S
C484 C483 1.387 . S
C484 C485 1.369 . S
C484 H493 0.929 . S
C485 N482 1.346 . S
C485 C484 1.369 . S
C485 H488 0.928 . S
C486 N482 1.345 . S
C486 C487 1.371 . S
C486 H489 0.931 . S
C487 C483 1.391 . S
C487 C486 1.371 . S
C487 H494 0.930 . S
H488 C485 0.928 . S
H489 C486 0.931 . S
H490 C466 0.930 . S
H491 C463 0.930 . S
H492 C472 0.930 . S
H493 C484 0.929 . S
H494 C487 0.930 . S
C495 C496 1.351 1_556 S
C495 N498 1.368 . S
C495 H500 0.931 . S
C496 C495 1.351 1_554 S
C496 N497 1.373 . S
C496 H524 0.930 . S
N497 C496 1.373 . S
N497 C499 1.340 . S
N498 C495 1.368 . S
N498 C499 1.321 1_556 S
N498 Co501 2.135 . S
C499 N497 1.340 . S
C499 N498 1.321 1_554 S
C499 H523 0.930 . S
H500 C495 0.931 . S
Co501 N498 2.135 . S
Co501 N504 2.121 . S
Co501 O509 2.055 . S
Co501 O512 2.039 . S
Co501 N515 2.140 . S
C502 O503 1.227 . S
C502 O512 1.265 . S
O503 C502 1.227 . S
N504 Co501 2.121 . S
N504 C506 1.375 . S
N504 C507 1.313 . S
C505 C506 1.338 . S
C505 N508 1.377 . S
C505 H525 0.930 . S
C506 N504 1.375 . S
C506 C505 1.338 . S
C506 H510 0.931 . S
C507 N504 1.313 . S
C507 N508 1.344 . S
C507 H511 0.930 . S
N508 C505 1.377 . S
N508 C507 1.344 . S
O509 Co501 2.055 . S
O509 C513 1.253 . S
H510 C506 0.931 . S
H511 C507 0.930 . S
O512 Co501 2.039 . S
O512 C502 1.265 . S
C513 O509 1.253 . S
C513 O514 1.227 . S
O514 C513 1.227 . S
N515 Co501 2.140 . S
N515 C518 1.346 . S
N515 C519 1.345 . S
C516 C517 1.387 . S
C516 C520 1.391 . S
C517 C516 1.387 . S
C517 C518 1.369 . S
C517 H526 0.929 . S
C518 N515 1.346 . S
C518 C517 1.369 . S
C518 H521 0.928 . S
C519 N515 1.345 . S
C519 C520 1.371 . S
C519 H522 0.931 . S
C520 C516 1.391 . S
C520 C519 1.371 . S
C520 H527 0.930 . S
H521 C518 0.928 . S
H522 C519 0.931 . S
H523 C499 0.930 . S
H524 C496 0.930 . S
H525 C505 0.930 . S
H526 C517 0.929 . S
H527 C520 0.930 . S
C528 C529 1.349 . S
C528 C530 1.327 . S
C528 H553 0.950 . S
C529 C528 1.349 . S
C529 C545 1.349 . S
C530 C528 1.327 . S
C530 C549 1.429 . S
C530 H554 0.950 . S
C531 C548 1.574 . S
C531 C550 1.368 . S
C531 H555 0.949 . S
H532 C536 0.949 . S
C533 C534 1.349 . S
C533 C535 1.327 . S
C533 H556 0.950 . S
C534 C533 1.349 . S
C534 C546 1.349 . S
C535 C533 1.327 . S
C535 C551 1.429 . S
C535 H557 0.950 . S
C536 H532 0.949 . S
C536 C544 1.574 . S
C536 C552 1.368 . S
H537 C545 0.950 . S
H538 C543 0.950 . S
H539 C544 0.949 . S
H540 C546 0.950 . S
H541 C547 0.950 . S
H542 C548 0.949 . S
C543 H538 0.950 . S
C543 C545 1.327 . S
C543 C549 1.429 . S
C544 C536 1.574 . S
C544 H539 0.949 . S
C544 C550 1.368 . S
C545 C529 1.349 . S
C545 H537 0.950 . S
C545 C543 1.327 . S
C546 C534 1.349 . S
C546 H540 0.950 . S
C546 C547 1.327 . S
C547 H541 0.950 . S
C547 C546 1.327 . S
C547 C551 1.429 . S
C548 C531 1.574 . S
C548 H542 0.949 . S
C548 C552 1.368 . S
C549 C530 1.429 . S
C549 C543 1.429 . S
C549 C550 1.523 . S
C550 C531 1.368 . S
C550 C544 1.368 . S
C550 C549 1.523 . S
C551 C535 1.429 . S
C551 C547 1.429 . S
C551 C552 1.523 . S
C552 C536 1.368 . S
C552 C548 1.368 . S
C552 C551 1.523 . S
H553 C528 0.950 . S
H554 C530 0.950 . S
H555 C531 0.949 . S
H556 C533 0.950 . S
H557 C535 0.950 . S
C558 C559 1.349 . S
C558 C560 1.327 . S
C558 H583 0.950 . S
C559 C558 1.349 . S
C559 C575 1.349 . S
C560 C558 1.327 . S
C560 C579 1.429 . S
C560 H584 0.950 . S
C561 C578 1.574 1_455 S
C561 C580 1.368 . S
C561 H585 0.949 . S
H562 C566 0.949 . S
C563 C564 1.349 . S
C563 C565 1.327 . S
C563 H586 0.950 . S
C564 C563 1.349 . S
C564 C576 1.349 . S
C565 C563 1.327 . S
C565 C581 1.429 . S
C565 H587 0.950 . S
C566 H562 0.949 . S
C566 C574 1.574 1_655 S
C566 C582 1.368 . S
H567 C575 0.950 . S
H568 C573 0.950 . S
H569 C574 0.949 . S
H570 C576 0.950 . S
H571 C577 0.950 . S
H572 C578 0.949 . S
C573 H568 0.950 . S
C573 C575 1.327 . S
C573 C579 1.429 . S
C574 C566 1.574 1_455 S
C574 H569 0.949 . S
C574 C580 1.368 . S
C575 C559 1.349 . S
C575 H567 0.950 . S
C575 C573 1.327 . S
C576 C564 1.349 . S
C576 H570 0.950 . S
C576 C577 1.327 . S
C577 H571 0.950 . S
C577 C576 1.327 . S
C577 C581 1.429 . S
C578 C561 1.574 1_655 S
C578 H572 0.949 . S
C578 C582 1.368 . S
C579 C560 1.429 . S
C579 C573 1.429 . S
C579 C580 1.523 . S
C580 C561 1.368 . S
C580 C574 1.368 . S
C580 C579 1.523 . S
C581 C565 1.429 . S
C581 C577 1.429 . S
C581 C582 1.523 . S
C582 C566 1.368 . S
C582 C578 1.368 . S
C582 C581 1.523 . S
H583 C558 0.950 . S
H584 C560 0.950 . S
H585 C561 0.949 . S
H586 C563 0.950 . S
H587 C565 0.950 . S
C588 C589 1.349 . S
C588 C590 1.327 . S
C588 H613 0.950 . S
C589 C588 1.349 . S
C589 C605 1.349 . S
C590 C588 1.327 . S
C590 C609 1.429 . S
C590 H614 0.950 . S
C591 C608 1.574 1_556 S
C591 C610 1.368 . S
C591 H615 0.949 . S
H592 C596 0.949 . S
C593 C594 1.349 . S
C593 C595 1.327 . S
C593 H616 0.950 . S
C594 C593 1.349 . S
C594 C606 1.349 . S
C595 C593 1.327 . S
C595 C611 1.429 . S
C595 H617 0.950 . S
C596 H592 0.949 . S
C596 C604 1.574 1_554 S
C596 C612 1.368 . S
H597 C605 0.950 . S
H598 C603 0.950 . S
H599 C604 0.949 . S
H600 C606 0.950 . S
H601 C607 0.950 . S
H602 C608 0.949 . S
C603 H598 0.950 . S
C603 C605 1.327 . S
C603 C609 1.429 . S
C604 C596 1.574 1_556 S
C604 H599 0.949 . S
C604 C610 1.368 . S
C605 C589 1.349 . S
C605 H597 0.950 . S
C605 C603 1.327 . S
C606 C594 1.349 . S
C606 H600 0.950 . S
C606 C607 1.327 . S
C607 H601 0.950 . S
C607 C606 1.327 . S
C607 C611 1.429 . S
C608 C591 1.574 1_554 S
C608 H602 0.949 . S
C608 C612 1.368 . S
C609 C590 1.429 . S
C609 C603 1.429 . S
C609 C610 1.523 . S
C610 C591 1.368 . S
C610 C604 1.368 . S
C610 C609 1.523 . S
C611 C595 1.429 . S
C611 C607 1.429 . S
C611 C612 1.523 . S
C612 C596 1.368 . S
C612 C608 1.368 . S
C612 C611 1.523 . S
H613 C588 0.950 . S
H614 C590 0.950 . S
H615 C591 0.949 . S
H616 C593 0.950 . S
H617 C595 0.950 . S
C618 C619 1.349 . S
C618 C620 1.327 . S
C618 H643 0.950 . S
C619 C618 1.349 . S
C619 C635 1.349 . S
C620 C618 1.327 . S
C620 C639 1.429 . S
C620 H644 0.950 . S
C621 C638 1.574 1_656 S
C621 C640 1.368 . S
C621 H645 0.949 . S
H622 C626 0.949 . S
C623 C624 1.349 . S
C623 C625 1.327 . S
C623 H646 0.950 . S
C624 C623 1.349 . S
C624 C636 1.349 . S
C625 C623 1.327 . S
C625 C641 1.429 . S
C625 H647 0.950 . S
C626 H622 0.949 . S
C626 C634 1.574 1_454 S
C626 C642 1.368 . S
H627 C635 0.950 . S
H628 C633 0.950 . S
H629 C634 0.949 . S
H630 C636 0.950 . S
H631 C637 0.950 . S
H632 C638 0.949 . S
C633 H628 0.950 . S
C633 C635 1.327 . S
C633 C639 1.429 . S
C634 C626 1.574 1_656 S
C634 H629 0.949 . S
C634 C640 1.368 . S
C635 C619 1.349 . S
C635 H627 0.950 . S
C635 C633 1.327 . S
C636 C624 1.349 . S
C636 H630 0.950 . S
C636 C637 1.327 . S
C637 H631 0.950 . S
C637 C636 1.327 . S
C637 C641 1.429 . S
C638 C621 1.574 1_454 S
C638 H632 0.949 . S
C638 C642 1.368 . S
C639 C620 1.429 . S
C639 C633 1.429 . S
C639 C640 1.523 . S
C640 C621 1.368 . S
C640 C634 1.368 . S
C640 C639 1.523 . S
C641 C625 1.429 . S
C641 C637 1.429 . S
C641 C642 1.523 . S
C642 C626 1.368 . S
C642 C638 1.368 . S
C642 C641 1.523 . S
H643 C618 0.950 . S
H644 C620 0.950 . S
H645 C621 0.949 . S
H646 C623 0.950 . S
H647 C625 0.950 . S
C648 C649 1.349 . S
C648 C650 1.327 . S
C648 H673 0.950 . S
C649 C648 1.349 . S
C649 C665 1.349 . S
C650 C648 1.327 . S
C650 C669 1.429 . S
C650 H674 0.950 . S
C651 C668 1.574 . S
C651 C670 1.368 . S
C651 H675 0.949 . S
H652 C656 0.949 . S
C653 C654 1.349 . S
C653 C655 1.327 . S
C653 H676 0.950 . S
C654 C653 1.349 . S
C654 C666 1.349 . S
C655 C653 1.327 . S
C655 C671 1.429 . S
C655 H677 0.950 . S
C656 H652 0.949 . S
C656 C664 1.574 . S
C656 C672 1.368 . S
H657 C665 0.950 . S
H658 C663 0.950 . S
H659 C664 0.949 . S
H660 C666 0.950 . S
H661 C667 0.950 . S
H662 C668 0.949 . S
C663 H658 0.950 . S
C663 C665 1.327 . S
C663 C669 1.429 . S
C664 C656 1.574 . S
C664 H659 0.949 . S
C664 C670 1.368 . S
C665 C649 1.349 . S
C665 H657 0.950 . S
C665 C663 1.327 . S
C666 C654 1.349 . S
C666 H660 0.950 . S
C666 C667 1.327 . S
C667 H661 0.950 . S
C667 C666 1.327 . S
C667 C671 1.429 . S
C668 C651 1.574 . S
C668 H662 0.949 . S
C668 C672 1.368 . S
C669 C650 1.429 . S
C669 C663 1.429 . S
C669 C670 1.523 . S
C670 C651 1.368 . S
C670 C664 1.368 . S
C670 C669 1.523 . S
C671 C655 1.429 . S
C671 C667 1.429 . S
C671 C672 1.523 . S
C672 C656 1.368 . S
C672 C668 1.368 . S
C672 C671 1.523 . S
H673 C648 0.950 . S
H674 C650 0.950 . S
H675 C651 0.949 . S
H676 C653 0.950 . S
H677 C655 0.950 . S
C678 C679 1.349 . S
C678 C680 1.327 . S
C678 H703 0.950 . S
C679 C678 1.349 . S
C679 C695 1.349 . S
C680 C678 1.327 . S
C680 C699 1.429 . S
C680 H704 0.950 . S
C681 C698 1.574 . S
C681 C700 1.368 . S
C681 H705 0.949 . S
H682 C686 0.949 . S
C683 C684 1.349 . S
C683 C685 1.327 . S
C683 H706 0.950 . S
C684 C683 1.349 . S
C684 C696 1.349 . S
C685 C683 1.327 . S
C685 C701 1.429 . S
C685 H707 0.950 . S
C686 H682 0.949 . S
C686 C694 1.574 . S
C686 C702 1.368 . S
H687 C695 0.950 . S
H688 C693 0.950 . S
H689 C694 0.949 . S
H690 C696 0.950 . S
H691 C697 0.950 . S
H692 C698 0.949 . S
C693 H688 0.950 . S
C693 C695 1.327 . S
C693 C699 1.429 . S
C694 C686 1.574 . S
C694 H689 0.949 . S
C694 C700 1.368 1_655 S
C695 C679 1.349 . S
C695 H687 0.950 . S
C695 C693 1.327 . S
C696 C684 1.349 . S
C696 H690 0.950 . S
C696 C697 1.327 . S
C697 H691 0.950 . S
C697 C696 1.327 . S
C697 C701 1.429 . S
C698 C681 1.574 . S
C698 H692 0.949 . S
C698 C702 1.368 1_455 S
C699 C680 1.429 . S
C699 C693 1.429 . S
C699 C700 1.523 . S
C700 C681 1.368 . S
C700 C694 1.368 1_455 S
C700 C699 1.523 . S
C701 C685 1.429 . S
C701 C697 1.429 . S
C701 C702 1.523 . S
C702 C686 1.368 . S
C702 C698 1.368 1_655 S
C702 C701 1.523 . S
H703 C678 0.950 . S
H704 C680 0.950 . S
H705 C681 0.949 . S
H706 C683 0.950 . S
H707 C685 0.950 . S
C708 C709 1.349 . S
C708 C710 1.327 1_554 S
C708 H733 0.950 1_554 S
C709 C708 1.349 . S
C709 C725 1.349 . S
C710 C708 1.327 1_556 S
C710 C729 1.429 1_556 S
C710 H734 0.950 . S
C711 C728 1.574 . S
C711 C730 1.368 . S
C711 H735 0.949 . S
H712 C716 0.949 . S
C713 C714 1.349 . S
C713 C715 1.327 1_556 S
C713 H736 0.950 1_556 S
C714 C713 1.349 . S
C714 C726 1.349 . S
C715 C713 1.327 1_554 S
C715 C731 1.429 1_554 S
C715 H737 0.950 . S
C716 H712 0.949 . S
C716 C724 1.574 . S
C716 C732 1.368 . S
H717 C725 0.950 . S
H718 C723 0.950 . S
H719 C724 0.949 . S
H720 C726 0.950 . S
H721 C727 0.950 . S
H722 C728 0.949 . S
C723 H718 0.950 . S
C723 C725 1.327 . S
C723 C729 1.429 . S
C724 C716 1.574 . S
C724 H719 0.949 . S
C724 C730 1.368 1_556 S
C725 C709 1.349 . S
C725 H717 0.950 . S
C725 C723 1.327 . S
C726 C714 1.349 . S
C726 H720 0.950 . S
C726 C727 1.327 . S
C727 H721 0.950 . S
C727 C726 1.327 . S
C727 C731 1.429 . S
C728 C711 1.574 . S
C728 H722 0.949 . S
C728 C732 1.368 1_554 S
C729 C710 1.429 1_554 S
C729 C723 1.429 . S
C729 C730 1.523 . S
C730 C711 1.368 . S
C730 C724 1.368 1_554 S
C730 C729 1.523 . S
C731 C715 1.429 1_556 S
C731 C727 1.429 . S
C731 C732 1.523 . S
C732 C716 1.368 . S
C732 C728 1.368 1_556 S
C732 C731 1.523 . S
H733 C708 0.950 1_556 S
H734 C710 0.950 . S
H735 C711 0.949 . S
H736 C713 0.950 1_554 S
H737 C715 0.950 . S
C738 C739 1.349 . S
C738 C740 1.327 . S
C738 H763 0.950 . S
C739 C738 1.349 . S
C739 C755 1.349 . S
C740 C738 1.327 . S
C740 C759 1.429 . S
C740 H764 0.950 . S
C741 C758 1.574 . S
C741 C760 1.368 1_545 S
C741 H765 0.949 . S
H742 C746 0.949 . S
C743 C744 1.349 . S
C743 C745 1.327 . S
C743 H766 0.950 . S
C744 C743 1.349 . S
C744 C756 1.349 . S
C745 C743 1.327 . S
C745 C761 1.429 . S
C745 H767 0.950 . S
C746 H742 0.949 . S
C746 C754 1.574 . S
C746 C762 1.368 1_565 S
H747 C755 0.950 . S
H748 C753 0.950 1_545 S
H749 C754 0.949 . S
H750 C756 0.950 . S
H751 C757 0.950 1_565 S
H752 C758 0.949 . S
C753 H748 0.950 1_565 S
C753 C755 1.327 . S
C753 C759 1.429 . S
C754 C746 1.574 . S
C754 H749 0.949 . S
C754 C760 1.368 . S
C755 C739 1.349 . S
C755 H747 0.950 . S
C755 C753 1.327 . S
C756 C744 1.349 . S
C756 H750 0.950 . S
C756 C757 1.327 . S
C757 H751 0.950 1_545 S
C757 C756 1.327 . S
C757 C761 1.429 . S
C758 C741 1.574 . S
C758 H752 0.949 . S
C758 C762 1.368 . S
C759 C740 1.429 . S
C759 C753 1.429 . S
C759 C760 1.523 . S
C760 C741 1.368 1_565 S
C760 C754 1.368 . S
C760 C759 1.523 . S
C761 C745 1.429 . S
C761 C757 1.429 . S
C761 C762 1.523 . S
C762 C746 1.368 1_545 S
C762 C758 1.368 . S
C762 C761 1.523 . S
H763 C738 0.950 . S
H764 C740 0.950 . S
H765 C741 0.949 . S
H766 C743 0.950 . S
H767 C745 0.950 . S
C768 C769 1.349 . S
C768 C770 1.327 . S
C768 H793 0.950 . S
C769 C768 1.349 . S
C769 C785 1.349 . S
C770 C768 1.327 . S
C770 C789 1.429 . S
C770 H794 0.950 . S
C771 C788 1.574 . S
C771 C790 1.368 . S
C771 H795 0.949 . S
H772 C776 0.949 . S
C773 C774 1.349 . S
C773 C775 1.327 . S
C773 H796 0.950 . S
C774 C773 1.349 . S
C774 C786 1.349 . S
C775 C773 1.327 . S
C775 C791 1.429 . S
C775 H797 0.950 . S
C776 H772 0.949 . S
C776 C784 1.574 . S
C776 C792 1.368 . S
H777 C785 0.950 . S
H778 C783 0.950 . S
H779 C784 0.949 . S
H780 C786 0.950 . S
H781 C787 0.950 . S
H782 C788 0.949 . S
C783 H778 0.950 . S
C783 C785 1.327 . S
C783 C789 1.429 . S
C784 C776 1.574 . S
C784 H779 0.949 . S
C784 C790 1.368 . S
C785 C769 1.349 . S
C785 H777 0.950 . S
C785 C783 1.327 . S
C786 C774 1.349 . S
C786 H780 0.950 . S
C786 C787 1.327 . S
C787 H781 0.950 . S
C787 C786 1.327 . S
C787 C791 1.429 . S
C788 C771 1.574 . S
C788 H782 0.949 . S
C788 C792 1.368 . S
C789 C770 1.429 . S
C789 C783 1.429 . S
C789 C790 1.523 . S
C790 C771 1.368 . S
C790 C784 1.368 . S
C790 C789 1.523 . S
C791 C775 1.429 . S
C791 C787 1.429 . S
C791 C792 1.523 . S
C792 C776 1.368 . S
C792 C788 1.368 . S
C792 C791 1.523 . S
H793 C768 0.950 . S
H794 C770 0.950 . S
H795 C771 0.949 . S
H796 C773 0.950 . S
H797 C775 0.950 . S
C798 C799 1.349 . S
C798 C800 1.327 . S
C798 H823 0.950 . S
C799 C798 1.349 . S
C799 C815 1.349 . S
C800 C798 1.327 . S
C800 C819 1.429 . S
C800 H824 0.950 . S
C801 C818 1.574 1_655 S
C801 C820 1.368 1_545 S
C801 H825 0.949 . S
H802 C806 0.949 . S
C803 C804 1.349 . S
C803 C805 1.327 . S
C803 H826 0.950 . S
C804 C803 1.349 . S
C804 C816 1.349 . S
C805 C803 1.327 . S
C805 C821 1.429 . S
C805 H827 0.950 . S
C806 H802 0.949 . S
C806 C814 1.574 1_455 S
C806 C822 1.368 1_565 S
H807 C815 0.950 . S
H808 C813 0.866 1_545 S
H809 C814 0.949 . S
H810 C816 0.950 . S
H811 C817 0.866 1_565 S
H812 C818 0.949 . S
C813 H808 0.866 1_565 S
C813 C815 1.327 . S
C813 C819 1.429 . S
C814 C806 1.574 1_655 S
C814 H809 0.949 . S
C814 C820 1.368 . S
C815 C799 1.349 . S
C815 H807 0.950 . S
C815 C813 1.327 . S
C816 C804 1.349 . S
C816 H810 0.950 . S
C816 C817 1.327 . S
C817 H811 0.866 1_545 S
C817 C816 1.327 . S
C817 C821 1.429 . S
C818 C801 1.574 1_455 S
C818 H812 0.949 . S
C818 C822 1.368 . S
C819 C800 1.429 . S
C819 C813 1.429 . S
C819 C820 1.523 . S
C820 C801 1.368 1_565 S
C820 C814 1.368 . S
C820 C819 1.523 . S
C821 C805 1.429 . S
C821 C817 1.429 . S
C821 C822 1.523 . S
C822 C806 1.368 1_545 S
C822 C818 1.368 . S
C822 C821 1.523 . S
H823 C798 0.950 . S
H824 C800 0.950 . S
H825 C801 0.949 . S
H826 C803 0.950 . S
H827 C805 0.950 . S
C828 C829 1.349 . S
C828 C830 1.327 . S
C828 H853 0.950 . S
C829 C828 1.349 . S
C829 C845 1.349 . S
C830 C828 1.327 . S
C830 C849 1.429 . S
C830 H854 0.950 . S
C831 C848 1.585 . S
C831 C850 1.368 . S
C831 H855 0.949 . S
H832 C836 0.949 . S
C833 C834 1.349 . S
C833 C835 1.327 . S
C833 H856 0.950 . S
C834 C833 1.349 . S
C834 C846 1.349 . S
C835 C833 1.327 . S
C835 C851 1.429 . S
C835 H857 0.950 . S
C836 H832 0.949 . S
C836 C844 1.585 . S
C836 C852 1.368 . S
H837 C845 0.950 . S
H838 C843 0.950 . S
H839 C844 0.949 . S
H840 C846 0.950 . S
H841 C847 0.950 . S
H842 C848 0.949 . S
C843 H838 0.950 . S
C843 C845 1.327 . S
C843 C849 1.429 . S
C844 C836 1.585 . S
C844 H839 0.949 . S
C844 C850 1.357 1_565 S
C845 C829 1.349 . S
C845 H837 0.950 . S
C845 C843 1.327 . S
C846 C834 1.349 . S
C846 H840 0.950 . S
C846 C847 1.327 . S
C847 H841 0.950 . S
C847 C846 1.327 . S
C847 C851 1.429 . S
C848 C831 1.585 . S
C848 H842 0.949 . S
C848 C852 1.357 1_545 S
C849 C830 1.429 . S
C849 C843 1.429 . S
C849 C850 1.523 . S
C850 C831 1.368 . S
C850 C844 1.357 1_545 S
C850 C849 1.523 . S
C851 C835 1.429 . S
C851 C847 1.429 . S
C851 C852 1.523 . S
C852 C836 1.368 . S
C852 C848 1.357 1_565 S
C852 C851 1.523 . S
H853 C828 0.950 . S
H854 C830 0.950 . S
H855 C831 0.949 . S
H856 C833 0.950 . S
H857 C835 0.950 . S
C858 C859 1.349 . S
C858 C860 1.327 . S
C858 H883 0.950 . S
C859 C858 1.349 . S
C859 C875 1.349 . S
C860 C858 1.327 . S
C860 C879 1.429 . S
C860 H884 0.950 . S
C861 C878 1.574 . S
C861 C880 1.368 . S
C861 H885 0.949 . S
H862 C866 0.949 . S
C863 C864 1.349 . S
C863 C865 1.327 . S
C863 H886 0.950 . S
C864 C863 1.349 . S
C864 C876 1.349 . S
C865 C863 1.327 . S
C865 C881 1.429 . S
C865 H887 0.950 . S
C866 H862 0.949 . S
C866 C874 1.574 . S
C866 C882 1.368 . S
H867 C875 0.950 . S
H868 C873 0.950 . S
H869 C874 0.949 . S
H870 C876 0.950 . S
H871 C877 0.950 . S
H872 C878 0.949 . S
C873 H868 0.950 . S
C873 C875 1.327 . S
C873 C879 1.429 . S
C874 C866 1.574 . S
C874 H869 0.949 . S
C874 C880 1.368 . S
C875 C859 1.349 . S
C875 H867 0.950 . S
C875 C873 1.327 . S
C876 C864 1.349 . S
C876 H870 0.950 . S
C876 C877 1.327 . S
C877 H871 0.950 . S
C877 C876 1.327 . S
C877 C881 1.429 . S
C878 C861 1.574 . S
C878 H872 0.949 . S
C878 C882 1.368 . S
C879 C860 1.429 . S
C879 C873 1.429 . S
C879 C880 1.523 . S
C880 C861 1.368 . S
C880 C874 1.368 . S
C880 C879 1.523 . S
C881 C865 1.429 . S
C881 C877 1.429 . S
C881 C882 1.523 . S
C882 C866 1.368 . S
C882 C878 1.368 . S
C882 C881 1.523 . S
H883 C858 0.950 . S
H884 C860 0.950 . S
H885 C861 0.949 . S
H886 C863 0.950 . S
H887 C865 0.950 . S
C888 C889 1.349 . S
C888 C890 1.327 . S
C888 H913 0.950 . S
C889 C888 1.349 . S
C889 C905 1.349 . S
C890 C888 1.327 . S
C890 C909 1.429 . S
C890 H914 0.950 . S
C891 C908 1.574 . S
C891 C910 1.368 . S
C891 H915 0.949 . S
H892 C896 0.949 . S
C893 C894 1.349 . S
C893 C895 1.327 . S
C893 H916 0.950 . S
C894 C893 1.349 . S
C894 C906 1.349 . S
C895 C893 1.327 . S
C895 C911 1.429 . S
C895 H917 0.950 . S
C896 H892 0.949 . S
C896 C904 1.574 . S
C896 C912 1.368 . S
H897 C905 0.950 . S
H898 C903 0.950 . S
H899 C904 0.949 . S
H900 C906 0.950 . S
H901 C907 0.950 . S
H902 C908 0.949 . S
C903 H898 0.950 . S
C903 C905 1.327 . S
C903 C909 1.429 . S
C904 C896 1.574 . S
C904 H899 0.949 . S
C904 C910 1.368 . S
C905 C889 1.349 . S
C905 H897 0.950 . S
C905 C903 1.327 . S
C906 C894 1.349 . S
C906 H900 0.950 . S
C906 C907 1.327 . S
C907 H901 0.950 . S
C907 C906 1.327 . S
C907 C911 1.429 . S
C908 C891 1.574 . S
C908 H902 0.949 . S
C908 C912 1.368 . S
C909 C890 1.429 . S
C909 C903 1.429 . S
C909 C910 1.523 . S
C910 C891 1.368 . S
C910 C904 1.368 . S
C910 C909 1.523 . S
C911 C895 1.429 . S
C911 C907 1.429 . S
C911 C912 1.523 . S
C912 C896 1.368 . S
C912 C908 1.368 . S
C912 C911 1.523 . S
H913 C888 0.950 . S
H914 C890 0.950 . S
H915 C891 0.949 . S
H916 C893 0.950 . S
H917 C895 0.950 . S
C918 C919 1.349 . S
C918 C920 1.327 . S
C918 H943 0.950 . S
C919 C918 1.349 . S
C919 C935 1.349 . S
C920 C918 1.327 . S
C920 C939 1.429 . S
C920 H944 0.950 . S
C921 C938 1.574 . S
C921 C940 1.368 . S
C921 H945 0.949 . S
H922 C926 0.949 . S
C923 C924 1.349 . S
C923 C925 1.327 . S
C923 H946 0.950 . S
C924 C923 1.349 . S
C924 C936 1.349 . S
C925 C923 1.327 . S
C925 C941 1.429 . S
C925 H947 0.950 . S
C926 H922 0.949 . S
C926 C934 1.574 . S
C926 C942 1.368 . S
H927 C935 0.950 . S
H928 C933 0.950 . S
H929 C934 0.949 . S
H930 C936 0.950 . S
H931 C937 0.950 . S
H932 C938 0.949 . S
C933 H928 0.950 . S
C933 C935 1.327 . S
C933 C939 1.429 . S
C934 C926 1.574 . S
C934 H929 0.949 . S
C934 C940 1.368 . S
C935 C919 1.349 . S
C935 H927 0.950 . S
C935 C933 1.327 . S
C936 C924 1.349 . S
C936 H930 0.950 . S
C936 C937 1.327 . S
C937 H931 0.950 . S
C937 C936 1.327 . S
C937 C941 1.429 . S
C938 C921 1.574 . S
C938 H932 0.949 . S
C938 C942 1.368 . S
C939 C920 1.429 . S
C939 C933 1.429 . S
C939 C940 1.523 . S
C940 C921 1.368 . S
C940 C934 1.368 . S
C940 C939 1.523 . S
C941 C925 1.429 . S
C941 C937 1.429 . S
C941 C942 1.523 . S
C942 C926 1.368 . S
C942 C938 1.368 . S
C942 C941 1.523 . S
H943 C918 0.950 . S
H944 C920 0.950 . S
H945 C921 0.949 . S
H946 C923 0.950 . S
H947 C925 0.950 . S
C948 C949 1.349 . S
C948 C950 1.327 . S
C948 H973 0.950 . S
C949 C948 1.349 . S
C949 C965 1.349 . S
C950 C948 1.327 . S
C950 C969 1.429 . S
C950 H974 0.950 . S
C951 C968 1.574 . S
C951 C970 1.368 . S
C951 H975 0.949 . S
H952 C956 0.949 . S
C953 C954 1.349 . S
C953 C955 1.327 . S
C953 H976 0.950 . S
C954 C953 1.349 . S
C954 C966 1.349 . S
C955 C953 1.327 . S
C955 C971 1.429 . S
C955 H977 0.950 . S
C956 H952 0.949 . S
C956 C964 1.574 . S
C956 C972 1.368 . S
H957 C965 0.950 . S
H958 C963 0.950 . S
H959 C964 0.949 . S
H960 C966 0.950 . S
H961 C967 0.950 . S
H962 C968 0.949 . S
C963 H958 0.950 . S
C963 C965 1.327 . S
C963 C969 1.429 . S
C964 C956 1.574 . S
C964 H959 0.949 . S
C964 C970 1.368 . S
C965 C949 1.349 . S
C965 H957 0.950 . S
C965 C963 1.327 . S
C966 C954 1.349 . S
C966 H960 0.950 . S
C966 C967 1.327 . S
C967 H961 0.950 . S
C967 C966 1.327 . S
C967 C971 1.429 . S
C968 C951 1.574 . S
C968 H962 0.949 . S
C968 C972 1.368 . S
C969 C950 1.429 . S
C969 C963 1.429 . S
C969 C970 1.523 . S
C970 C951 1.368 . S
C970 C964 1.368 . S
C970 C969 1.523 . S
C971 C955 1.429 . S
C971 C967 1.429 . S
C971 C972 1.523 . S
C972 C956 1.368 . S
C972 C968 1.368 . S
C972 C971 1.523 . S
H973 C948 0.950 . S
H974 C950 0.950 . S
H975 C951 0.949 . S
H976 C953 0.950 . S
H977 C955 0.950 . S
C978 C979 1.349 . S
C978 C980 1.327 . S
C978 H1003 0.950 1_556 S
C979 C978 1.349 . S
C979 C995 1.349 . S
C980 C978 1.327 . S
C980 C999 1.429 . S
C980 H1004 0.950 1_556 S
C981 C998 1.574 . S
C981 C1000 1.368 1_545 S
C981 H1005 0.949 . S
H982 C986 0.949 . S
C983 C984 1.349 . S
C983 C985 1.327 . S
C983 H1006 0.950 1_554 S
C984 C983 1.349 . S
C984 C996 1.349 . S
C985 C983 1.327 . S
C985 C1001 1.429 . S
C985 H1007 0.950 1_554 S
C986 H982 0.949 . S
C986 C994 1.574 . S
C986 C1002 1.368 1_565 S
H987 C995 0.950 . S
H988 C993 0.950 . S
H989 C994 0.949 . S
H990 C996 0.950 . S
H991 C997 0.950 . S
H992 C998 0.949 . S
C993 H988 0.950 . S
C993 C995 1.327 . S
C993 C999 1.429 . S
C994 C986 1.574 . S
C994 H989 0.949 . S
C994 C1000 1.368 1_554 S
C995 C979 1.349 . S
C995 H987 0.950 . S
C995 C993 1.327 . S
C996 C984 1.349 . S
C996 H990 0.950 . S
C996 C997 1.327 . S
C997 H991 0.950 . S
C997 C996 1.327 . S
C997 C1001 1.429 . S
C998 C981 1.574 . S
C998 H992 0.949 . S
C998 C1002 1.368 1_556 S
C999 C980 1.429 . S
C999 C993 1.429 . S
C999 C1000 1.523 . S
C1000 C981 1.368 1_565 S
C1000 C994 1.368 1_556 S
C1000 C999 1.523 . S
C1001 C985 1.429 . S
C1001 C997 1.429 . S
C1001 C1002 1.523 . S
C1002 C986 1.368 1_545 S
C1002 C998 1.368 1_554 S
C1002 C1001 1.523 . S
H1003 C978 0.950 1_554 S
H1004 C980 0.950 1_554 S
H1005 C981 0.949 . S
H1006 C983 0.950 1_556 S
H1007 C985 0.950 1_556 S
C1008 C1009 1.349 . S
C1008 C1010 1.327 . S
C1008 H1033 0.950 . S
C1009 C1008 1.349 . S
C1009 C1025 1.349 . S
C1010 C1008 1.327 . S
C1010 C1029 1.429 . S
C1010 H1034 0.950 . S
C1011 C1028 1.574 . S
C1011 C1030 1.368 . S
C1011 H1035 0.949 . S
H1012 C1016 0.949 . S
C1013 C1014 1.349 . S
C1013 C1015 1.327 . S
C1013 H1036 0.950 . S
C1014 C1013 1.349 . S
C1014 C1026 1.349 . S
C1015 C1013 1.327 . S
C1015 C1031 1.429 . S
C1015 H1037 0.950 . S
C1016 H1012 0.949 . S
C1016 C1024 1.574 . S
C1016 C1032 1.368 . S
H1017 C1025 0.950 . S
H1018 C1023 0.950 . S
H1019 C1024 0.949 . S
H1020 C1026 0.950 . S
H1021 C1027 0.950 . S
H1022 C1028 0.949 . S
C1023 H1018 0.950 . S
C1023 C1025 1.327 . S
C1023 C1029 1.429 . S
C1024 C1016 1.574 . S
C1024 H1019 0.949 . S
C1024 C1030 1.368 . S
C1025 C1009 1.349 . S
C1025 H1017 0.950 . S
C1025 C1023 1.327 . S
C1026 C1014 1.349 . S
C1026 H1020 0.950 . S
C1026 C1027 1.327 . S
C1027 H1021 0.950 . S
C1027 C1026 1.327 . S
C1027 C1031 1.429 . S
C1028 C1011 1.574 . S
C1028 H1022 0.949 . S
C1028 C1032 1.368 . S
C1029 C1010 1.429 . S
C1029 C1023 1.429 . S
C1029 C1030 1.523 . S
C1030 C1011 1.368 . S
C1030 C1024 1.368 . S
C1030 C1029 1.523 . S
C1031 C1015 1.429 . S
C1031 C1027 1.429 . S
C1031 C1032 1.523 . S
C1032 C1016 1.368 . S
C1032 C1028 1.368 . S
C1032 C1031 1.523 . S
H1033 C1008 0.950 . S
H1034 C1010 0.950 . S
H1035 C1011 0.949 . S
H1036 C1013 0.950 . S
H1037 C1015 0.950 . S
C1038 C1039 1.349 . S
C1038 C1040 1.327 . S
C1038 H1063 0.950 . S
C1039 C1038 1.349 . S
C1039 C1055 1.349 . S
C1040 C1038 1.327 . S
C1040 C1059 1.429 . S
C1040 H1064 0.950 . S
C1041 C1058 1.574 . S
C1041 C1060 1.368 . S
C1041 H1065 0.949 . S
H1042 C1046 0.949 . S
C1043 C1044 1.349 . S
C1043 C1045 1.327 . S
C1043 H1066 0.950 . S
C1044 C1043 1.349 . S
C1044 C1056 1.349 . S
C1045 C1043 1.327 . S
C1045 C1061 1.429 . S
C1045 H1067 0.950 . S
C1046 H1042 0.949 . S
C1046 C1054 1.574 . S
C1046 C1062 1.368 . S
H1047 C1055 0.950 . S
H1048 C1053 0.950 . S
H1049 C1054 0.949 . S
H1050 C1056 0.950 . S
H1051 C1057 0.950 . S
H1052 C1058 0.949 . S
C1053 H1048 0.950 . S
C1053 C1055 1.327 . S
C1053 C1059 1.429 . S
C1054 C1046 1.574 . S
C1054 H1049 0.949 . S
C1054 C1060 1.368 . S
C1055 C1039 1.349 . S
C1055 H1047 0.950 . S
C1055 C1053 1.327 . S
C1056 C1044 1.349 . S
C1056 H1050 0.950 . S
C1056 C1057 1.327 . S
C1057 H1051 0.950 . S
C1057 C1056 1.327 . S
C1057 C1061 1.429 . S
C1058 C1041 1.574 . S
C1058 H1052 0.949 . S
C1058 C1062 1.368 . S
C1059 C1040 1.429 . S
C1059 C1053 1.429 . S
C1059 C1060 1.523 . S
C1060 C1041 1.368 . S
C1060 C1054 1.368 . S
C1060 C1059 1.523 . S
C1061 C1045 1.429 . S
C1061 C1057 1.429 . S
C1061 C1062 1.523 . S
C1062 C1046 1.368 . S
C1062 C1058 1.368 . S
C1062 C1061 1.523 . S
H1063 C1038 0.950 . S
H1064 C1040 0.950 . S
H1065 C1041 0.949 . S
H1066 C1043 0.950 . S
H1067 C1045 0.950 . S
C1068 C1069 1.349 . S
C1068 C1070 1.327 . S
C1068 H1093 0.950 . S
C1069 C1068 1.349 . S
C1069 C1085 1.349 . S
C1070 C1068 1.327 . S
C1070 C1089 1.429 . S
C1070 H1094 0.950 . S
C1071 C1088 1.574 . S
C1071 C1090 1.368 . S
C1071 H1095 0.949 . S
H1072 C1076 0.949 . S
C1073 C1074 1.349 . S
C1073 C1075 1.327 . S
C1073 H1096 0.950 . S
C1074 C1073 1.349 . S
C1074 C1086 1.349 . S
C1075 C1073 1.327 . S
C1075 C1091 1.429 . S
C1075 H1097 0.950 . S
C1076 H1072 0.949 . S
C1076 C1084 1.574 . S
C1076 C1092 1.368 . S
H1077 C1085 0.950 . S
H1078 C1083 0.950 . S
H1079 C1084 0.949 . S
H1080 C1086 0.950 . S
H1081 C1087 0.950 . S
H1082 C1088 0.949 . S
C1083 H1078 0.950 . S
C1083 C1085 1.327 . S
C1083 C1089 1.429 . S
C1084 C1076 1.574 . S
C1084 H1079 0.949 . S
C1084 C1090 1.368 . S
C1085 C1069 1.349 . S
C1085 H1077 0.950 . S
C1085 C1083 1.327 . S
C1086 C1074 1.349 . S
C1086 H1080 0.950 . S
C1086 C1087 1.327 . S
C1087 H1081 0.950 . S
C1087 C1086 1.327 . S
C1087 C1091 1.429 . S
C1088 C1071 1.574 . S
C1088 H1082 0.949 . S
C1088 C1092 1.368 . S
C1089 C1070 1.429 . S
C1089 C1083 1.429 . S
C1089 C1090 1.523 . S
C1090 C1071 1.368 . S
C1090 C1084 1.368 . S
C1090 C1089 1.523 . S
C1091 C1075 1.429 . S
C1091 C1087 1.429 . S
C1091 C1092 1.523 . S
C1092 C1076 1.368 . S
C1092 C1088 1.368 . S
C1092 C1091 1.523 . S
H1093 C1068 0.950 . S
H1094 C1070 0.950 . S
H1095 C1071 0.949 . S
H1096 C1073 0.950 . S
H1097 C1075 0.950 . S
C1098 C1099 1.349 . S
C1098 C1100 1.327 . S
C1098 H1123 0.950 . S
C1099 C1098 1.349 . S
C1099 C1115 1.349 . S
C1100 C1098 1.327 . S
C1100 C1119 1.429 . S
C1100 H1124 0.950 . S
C1101 C1118 1.574 . S
C1101 C1120 1.368 . S
C1101 H1125 0.949 . S
H1102 C1106 0.949 . S
C1103 C1104 1.349 . S
C1103 C1105 1.327 . S
C1103 H1126 0.950 . S
C1104 C1103 1.349 . S
C1104 C1116 1.349 . S
C1105 C1103 1.327 . S
C1105 C1121 1.429 . S
C1105 H1127 0.950 . S
C1106 H1102 0.949 . S
C1106 C1114 1.574 . S
C1106 C1122 1.368 . S
H1107 C1115 0.950 . S
H1108 C1113 0.950 . S
H1109 C1114 0.949 . S
H1110 C1116 0.950 . S
H1111 C1117 0.950 . S
H1112 C1118 0.949 . S
C1113 H1108 0.950 . S
C1113 C1115 1.327 . S
C1113 C1119 1.429 . S
C1114 C1106 1.574 . S
C1114 H1109 0.949 . S
C1114 C1120 1.368 . S
C1115 C1099 1.349 . S
C1115 H1107 0.950 . S
C1115 C1113 1.327 . S
C1116 C1104 1.349 . S
C1116 H1110 0.950 . S
C1116 C1117 1.327 . S
C1117 H1111 0.950 . S
C1117 C1116 1.327 . S
C1117 C1121 1.429 . S
C1118 C1101 1.574 . S
C1118 H1112 0.949 . S
C1118 C1122 1.368 . S
C1119 C1100 1.429 . S
C1119 C1113 1.429 . S
C1119 C1120 1.523 . S
C1120 C1101 1.368 . S
C1120 C1114 1.368 . S
C1120 C1119 1.523 . S
C1121 C1105 1.429 . S
C1121 C1117 1.429 . S
C1121 C1122 1.523 . S
C1122 C1106 1.368 . S
C1122 C1118 1.368 . S
C1122 C1121 1.523 . S
H1123 C1098 0.950 . S
H1124 C1100 0.950 . S
H1125 C1101 0.949 . S
H1126 C1103 0.950 . S
H1127 C1105 0.950 . S
C1128 C1129 1.349 . S
C1128 C1130 1.327 . S
C1128 H1153 0.950 . S
C1129 C1128 1.349 . S
C1129 C1145 1.349 . S
C1130 C1128 1.327 . S
C1130 C1149 1.429 . S
C1130 H1154 0.950 . S
C1131 C1148 1.574 . S
C1131 C1150 1.368 . S
C1131 H1155 0.949 . S
H1132 C1136 0.949 . S
C1133 C1134 1.349 . S
C1133 C1135 1.327 . S
C1133 H1156 0.950 . S
C1134 C1133 1.349 . S
C1134 C1146 1.349 . S
C1135 C1133 1.327 . S
C1135 C1151 1.429 . S
C1135 H1157 0.950 . S
C1136 H1132 0.949 . S
C1136 C1144 1.574 . S
C1136 C1152 1.368 . S
H1137 C1145 0.950 . S
H1138 C1143 0.950 . S
H1139 C1144 0.949 . S
H1140 C1146 0.950 . S
H1141 C1147 0.950 . S
H1142 C1148 0.949 . S
C1143 H1138 0.950 . S
C1143 C1145 1.327 . S
C1143 C1149 1.429 . S
C1144 C1136 1.574 . S
C1144 H1139 0.949 . S
C1144 C1150 1.368 . S
C1145 C1129 1.349 . S
C1145 H1137 0.950 . S
C1145 C1143 1.327 . S
C1146 C1134 1.349 . S
C1146 H1140 0.950 . S
C1146 C1147 1.327 . S
C1147 H1141 0.950 . S
C1147 C1146 1.327 . S
C1147 C1151 1.429 . S
C1148 C1131 1.574 . S
C1148 H1142 0.949 . S
C1148 C1152 1.368 . S
C1149 C1130 1.429 . S
C1149 C1143 1.429 . S
C1149 C1150 1.523 . S
C1150 C1131 1.368 . S
C1150 C1144 1.368 . S
C1150 C1149 1.523 . S
C1151 C1135 1.429 . S
C1151 C1147 1.429 . S
C1151 C1152 1.523 1_556 S
C1152 C1136 1.368 . S
C1152 C1148 1.368 . S
C1152 C1151 1.523 1_554 S
H1153 C1128 0.950 . S
H1154 C1130 0.950 . S
H1155 C1131 0.949 . S
H1156 C1133 0.950 . S
H1157 C1135 0.950 . S
C1158 C1159 1.349 . S
C1158 C1160 1.327 . S
C1158 H1183 0.950 . S
C1159 C1158 1.349 . S
C1159 C1175 1.349 . S
C1160 C1158 1.327 . S
C1160 C1179 1.429 . S
C1160 H1184 0.950 . S
C1161 C1178 1.574 . S
C1161 C1180 1.368 . S
C1161 H1185 0.949 . S
H1162 C1166 0.949 . S
C1163 C1164 1.349 . S
C1163 C1165 1.327 . S
C1163 H1186 0.950 . S
C1164 C1163 1.349 . S
C1164 C1176 1.349 . S
C1165 C1163 1.327 . S
C1165 C1181 1.429 . S
C1165 H1187 0.950 . S
C1166 H1162 0.949 . S
C1166 C1174 1.574 . S
C1166 C1182 1.368 . S
H1167 C1175 0.950 . S
H1168 C1173 0.950 . S
H1169 C1174 0.949 . S
H1170 C1176 0.950 . S
H1171 C1177 0.950 . S
H1172 C1178 0.949 . S
C1173 H1168 0.950 . S
C1173 C1175 1.327 . S
C1173 C1179 1.429 . S
C1174 C1166 1.574 . S
C1174 H1169 0.949 . S
C1174 C1180 1.368 . S
C1175 C1159 1.349 . S
C1175 H1167 0.950 . S
C1175 C1173 1.327 . S
C1176 C1164 1.349 . S
C1176 H1170 0.950 . S
C1176 C1177 1.327 . S
C1177 H1171 0.950 . S
C1177 C1176 1.327 . S
C1177 C1181 1.429 . S
C1178 C1161 1.574 . S
C1178 H1172 0.949 . S
C1178 C1182 1.368 . S
C1179 C1160 1.429 . S
C1179 C1173 1.429 . S
C1179 C1180 1.523 . S
C1180 C1161 1.368 . S
C1180 C1174 1.368 . S
C1180 C1179 1.523 . S
C1181 C1165 1.429 . S
C1181 C1177 1.429 . S
C1181 C1182 1.523 1_556 S
C1182 C1166 1.368 . S
C1182 C1178 1.368 . S
C1182 C1181 1.523 1_554 S
H1183 C1158 0.950 . S
H1184 C1160 0.950 . S
H1185 C1161 0.949 . S
H1186 C1163 0.950 . S
H1187 C1165 0.950 . S
C1188 C1189 1.349 . S
C1188 C1190 1.327 . S
C1188 H1213 0.950 . S
C1189 C1188 1.349 . S
C1189 C1205 1.349 . S
C1190 C1188 1.327 . S
C1190 C1209 1.429 . S
C1190 H1214 0.950 . S
C1191 C1208 1.574 . S
C1191 C1210 1.368 . S
C1191 H1215 0.949 . S
H1192 C1196 0.949 . S
C1193 C1194 1.349 . S
C1193 C1195 1.327 . S
C1193 H1216 0.950 . S
C1194 C1193 1.349 . S
C1194 C1206 1.349 . S
C1195 C1193 1.327 . S
C1195 C1211 1.429 . S
C1195 H1217 0.950 . S
C1196 H1192 0.949 . S
C1196 C1204 1.574 . S
C1196 C1212 1.368 . S
H1197 C1205 0.950 . S
H1198 C1203 0.950 . S
H1199 C1204 0.949 . S
H1200 C1206 0.950 . S
H1201 C1207 0.950 . S
H1202 C1208 0.949 . S
C1203 H1198 0.950 . S
C1203 C1205 1.327 . S
C1203 C1209 1.429 . S
C1204 C1196 1.574 . S
C1204 H1199 0.949 . S
C1204 C1210 1.368 . S
C1205 C1189 1.349 . S
C1205 H1197 0.950 . S
C1205 C1203 1.327 . S
C1206 C1194 1.349 . S
C1206 H1200 0.950 . S
C1206 C1207 1.327 . S
C1207 H1201 0.950 . S
C1207 C1206 1.327 . S
C1207 C1211 1.429 . S
C1208 C1191 1.574 . S
C1208 H1202 0.949 . S
C1208 C1212 1.368 . S
C1209 C1190 1.429 . S
C1209 C1203 1.429 . S
C1209 C1210 1.523 1_554 S
C1210 C1191 1.368 . S
C1210 C1204 1.368 . S
C1210 C1209 1.523 1_556 S
C1211 C1195 1.429 . S
C1211 C1207 1.429 . S
C1211 C1212 1.523 . S
C1212 C1196 1.368 . S
C1212 C1208 1.368 . S
C1212 C1211 1.523 . S
H1213 C1188 0.950 . S
H1214 C1190 0.950 . S
H1215 C1191 0.949 . S
H1216 C1193 0.950 . S
H1217 C1195 0.950 . S
C1218 C1219 1.349 . S
C1218 C1220 1.327 . S
C1218 H1243 0.950 . S
C1219 C1218 1.349 . S
C1219 C1235 1.349 . S
C1220 C1218 1.327 . S
C1220 C1239 1.429 . S
C1220 H1244 0.950 . S
C1221 C1238 1.574 . S
C1221 C1240 1.368 . S
C1221 H1245 0.949 . S
H1222 C1226 0.949 . S
C1223 C1224 1.349 . S
C1223 C1225 1.327 . S
C1223 H1246 0.950 . S
C1224 C1223 1.349 . S
C1224 C1236 1.349 . S
C1225 C1223 1.327 . S
C1225 C1241 1.429 . S
C1225 H1247 0.950 . S
C1226 H1222 0.949 . S
C1226 C1234 1.574 . S
C1226 C1242 1.368 . S
H1227 C1235 0.950 . S
H1228 C1233 0.950 . S
H1229 C1234 0.949 . S
H1230 C1236 0.950 . S
H1231 C1237 0.950 . S
H1232 C1238 0.949 . S
C1233 H1228 0.950 . S
C1233 C1235 1.327 . S
C1233 C1239 1.429 . S
C1234 C1226 1.574 . S
C1234 H1229 0.949 . S
C1234 C1240 1.368 . S
C1235 C1219 1.349 . S
C1235 H1227 0.950 . S
C1235 C1233 1.327 . S
C1236 C1224 1.349 . S
C1236 H1230 0.950 . S
C1236 C1237 1.327 . S
C1237 H1231 0.950 . S
C1237 C1236 1.327 . S
C1237 C1241 1.429 . S
C1238 C1221 1.574 . S
C1238 H1232 0.949 . S
C1238 C1242 1.368 . S
C1239 C1220 1.429 . S
C1239 C1233 1.429 . S
C1239 C1240 1.523 1_554 S
C1240 C1221 1.368 . S
C1240 C1234 1.368 . S
C1240 C1239 1.523 1_556 S
C1241 C1225 1.429 . S
C1241 C1237 1.429 . S
C1241 C1242 1.523 . S
C1242 C1226 1.368 . S
C1242 C1238 1.368 . S
C1242 C1241 1.523 . S
H1243 C1218 0.950 . S
H1244 C1220 0.950 . S
H1245 C1221 0.949 . S
H1246 C1223 0.950 . S
H1247 C1225 0.950 . S
C1248 C1249 1.349 . S
C1248 C1250 1.327 . S
C1248 H1273 0.950 . S
C1249 C1248 1.349 . S
C1249 C1265 1.349 . S
C1250 C1248 1.327 . S
C1250 C1269 1.429 . S
C1250 H1274 0.950 . S
C1251 C1268 1.574 . S
C1251 C1270 1.368 . S
C1251 H1275 0.949 . S
H1252 C1256 0.949 . S
C1253 C1254 1.349 . S
C1253 C1255 1.327 . S
C1253 H1276 0.950 . S
C1254 C1253 1.349 . S
C1254 C1266 1.349 . S
C1255 C1253 1.327 . S
C1255 C1271 1.429 . S
C1255 H1277 0.950 . S
C1256 H1252 0.949 . S
C1256 C1264 1.574 . S
C1256 C1272 1.368 . S
H1257 C1265 0.950 . S
H1258 C1263 0.950 . S
H1259 C1264 0.949 . S
H1260 C1266 0.950 . S
H1261 C1267 0.950 . S
H1262 C1268 0.949 . S
C1263 H1258 0.950 . S
C1263 C1265 1.327 . S
C1263 C1269 1.429 . S
C1264 C1256 1.574 . S
C1264 H1259 0.949 . S
C1264 C1270 1.368 . S
C1265 C1249 1.349 . S
C1265 H1257 0.950 . S
C1265 C1263 1.327 . S
C1266 C1254 1.349 . S
C1266 H1260 0.950 . S
C1266 C1267 1.327 . S
C1267 H1261 0.950 . S
C1267 C1266 1.327 . S
C1267 C1271 1.429 . S
C1268 C1251 1.574 . S
C1268 H1262 0.949 . S
C1268 C1272 1.368 . S
C1269 C1250 1.429 . S
C1269 C1263 1.429 . S
C1269 C1270 1.523 1_556 S
C1270 C1251 1.368 . S
C1270 C1264 1.368 . S
C1270 C1269 1.523 1_554 S
C1271 C1255 1.429 . S
C1271 C1267 1.429 . S
C1271 C1272 1.523 . S
C1272 C1256 1.368 . S
C1272 C1268 1.368 . S
C1272 C1271 1.523 . S
H1273 C1248 0.950 . S
H1274 C1250 0.950 . S
H1275 C1251 0.949 . S
H1276 C1253 0.950 . S
H1277 C1255 0.950 . S
C1278 C1279 1.349 . S
C1278 C1280 1.327 . S
C1278 H1303 0.950 . S
C1279 C1278 1.349 . S
C1279 C1295 1.349 . S
C1280 C1278 1.327 . S
C1280 C1299 1.429 . S
C1280 H1304 0.950 . S
C1281 C1298 1.574 . S
C1281 C1300 1.368 . S
C1281 H1305 0.949 . S
H1282 C1286 0.949 . S
C1283 C1284 1.349 . S
C1283 C1285 1.327 . S
C1283 H1306 0.950 . S
C1284 C1283 1.349 . S
C1284 C1296 1.349 . S
C1285 C1283 1.327 . S
C1285 C1301 1.429 . S
C1285 H1307 0.950 . S
C1286 H1282 0.949 . S
C1286 C1294 1.574 . S
C1286 C1302 1.368 . S
H1287 C1295 0.950 . S
H1288 C1293 0.950 . S
H1289 C1294 0.949 . S
H1290 C1296 0.950 . S
H1291 C1297 0.950 . S
H1292 C1298 0.949 . S
C1293 H1288 0.950 . S
C1293 C1295 1.327 . S
C1293 C1299 1.429 . S
C1294 C1286 1.574 . S
C1294 H1289 0.949 . S
C1294 C1300 1.368 . S
C1295 C1279 1.349 . S
C1295 H1287 0.950 . S
C1295 C1293 1.327 . S
C1296 C1284 1.349 . S
C1296 H1290 0.950 . S
C1296 C1297 1.327 . S
C1297 H1291 0.950 . S
C1297 C1296 1.327 . S
C1297 C1301 1.429 . S
C1298 C1281 1.574 . S
C1298 H1292 0.949 . S
C1298 C1302 1.368 . S
C1299 C1280 1.429 . S
C1299 C1293 1.429 . S
C1299 C1300 1.523 1_556 S
C1300 C1281 1.368 . S
C1300 C1294 1.368 . S
C1300 C1299 1.523 1_554 S
C1301 C1285 1.429 . S
C1301 C1297 1.429 . S
C1301 C1302 1.523 . S
C1302 C1286 1.368 . S
C1302 C1298 1.368 . S
C1302 C1301 1.523 . S
H1303 C1278 0.950 . S
H1304 C1280 0.950 . S
H1305 C1281 0.949 . S
H1306 C1283 0.950 . S
H1307 C1285 0.950 . S
C1308 C1309 1.349 . S
C1308 C1310 1.327 . S
C1308 H1333 0.950 . S
C1309 C1308 1.349 . S
C1309 C1325 1.349 . S
C1310 C1308 1.327 . S
C1310 C1329 1.429 . S
C1310 H1334 0.950 . S
C1311 C1328 1.574 . S
C1311 C1330 1.368 . S
C1311 H1335 0.949 . S
H1312 C1316 0.949 . S
C1313 C1314 1.349 . S
C1313 C1315 1.327 . S
C1313 H1336 0.950 . S
C1314 C1313 1.349 . S
C1314 C1326 1.349 . S
C1315 C1313 1.327 . S
C1315 C1331 1.429 . S
C1315 H1337 0.950 . S
C1316 H1312 0.949 . S
C1316 C1324 1.574 . S
C1316 C1332 1.368 . S
H1317 C1325 0.950 . S
H1318 C1323 0.950 . S
H1319 C1324 0.949 . S
H1320 C1326 0.950 . S
H1321 C1327 0.950 . S
H1322 C1328 0.949 . S
C1323 H1318 0.950 . S
C1323 C1325 1.327 . S
C1323 C1329 1.429 . S
C1324 C1316 1.574 . S
C1324 H1319 0.949 . S
C1324 C1330 1.368 . S
C1325 C1309 1.349 . S
C1325 H1317 0.950 . S
C1325 C1323 1.327 . S
C1326 C1314 1.349 . S
C1326 H1320 0.950 . S
C1326 C1327 1.327 . S
C1327 H1321 0.950 . S
C1327 C1326 1.327 . S
C1327 C1331 1.429 . S
C1328 C1311 1.574 . S
C1328 H1322 0.949 . S
C1328 C1332 1.368 . S
C1329 C1310 1.429 . S
C1329 C1323 1.429 . S
C1329 C1330 1.523 1_554 S
C1330 C1311 1.368 . S
C1330 C1324 1.368 . S
C1330 C1329 1.523 1_556 S
C1331 C1315 1.429 . S
C1331 C1327 1.429 . S
C1331 C1332 1.523 . S
C1332 C1316 1.368 . S
C1332 C1328 1.368 . S
C1332 C1331 1.523 . S
H1333 C1308 0.950 . S
H1334 C1310 0.950 . S
H1335 C1311 0.949 . S
H1336 C1313 0.950 . S
H1337 C1315 0.950 . S
C1338 C1339 1.349 . S
C1338 C1340 1.327 . S
C1338 H1363 0.950 . S
C1339 C1338 1.349 . S
C1339 C1355 1.349 . S
C1340 C1338 1.327 . S
C1340 C1359 1.429 . S
C1340 H1364 0.950 . S
C1341 C1358 1.574 . S
C1341 C1360 1.368 . S
C1341 H1365 0.949 . S
H1342 C1346 0.949 . S
C1343 C1344 1.349 . S
C1343 C1345 1.327 . S
C1343 H1366 0.950 . S
C1344 C1343 1.349 . S
C1344 C1356 1.349 . S
C1345 C1343 1.327 . S
C1345 C1361 1.429 . S
C1345 H1367 0.950 . S
C1346 H1342 0.949 . S
C1346 C1354 1.574 . S
C1346 C1362 1.368 . S
H1347 C1355 0.950 . S
H1348 C1353 0.950 . S
H1349 C1354 0.949 . S
H1350 C1356 0.950 . S
H1351 C1357 0.950 . S
H1352 C1358 0.949 . S
C1353 H1348 0.950 . S
C1353 C1355 1.327 . S
C1353 C1359 1.429 . S
C1354 C1346 1.574 . S
C1354 H1349 0.949 . S
C1354 C1360 1.368 . S
C1355 C1339 1.349 . S
C1355 H1347 0.950 . S
C1355 C1353 1.327 . S
C1356 C1344 1.349 . S
C1356 H1350 0.950 . S
C1356 C1357 1.327 . S
C1357 H1351 0.950 . S
C1357 C1356 1.327 . S
C1357 C1361 1.429 . S
C1358 C1341 1.574 . S
C1358 H1352 0.949 . S
C1358 C1362 1.368 . S
C1359 C1340 1.429 . S
C1359 C1353 1.429 . S
C1359 C1360 1.523 1_554 S
C1360 C1341 1.368 . S
C1360 C1354 1.368 . S
C1360 C1359 1.523 1_556 S
C1361 C1345 1.429 . S
C1361 C1357 1.429 . S
C1361 C1362 1.523 . S
C1362 C1346 1.368 . S
C1362 C1358 1.368 . S
C1362 C1361 1.523 . S
H1363 C1338 0.950 . S
H1364 C1340 0.950 . S
H1365 C1341 0.949 . S
H1366 C1343 0.950 . S
H1367 C1345 0.950 . S
C1368 C1369 1.349 . S
C1368 C1370 1.327 . S
C1368 H1393 0.950 . S
C1369 C1368 1.349 . S
C1369 C1385 1.349 . S
C1370 C1368 1.327 . S
C1370 C1389 1.429 . S
C1370 H1394 0.950 . S
C1371 C1388 1.574 . S
C1371 C1390 1.368 . S
C1371 H1395 0.949 . S
H1372 C1376 0.949 . S
C1373 C1374 1.349 . S
C1373 C1375 1.327 . S
C1373 H1396 0.950 . S
C1374 C1373 1.349 . S
C1374 C1386 1.349 . S
C1375 C1373 1.327 . S
C1375 C1391 1.429 . S
C1375 H1397 0.950 . S
C1376 H1372 0.949 . S
C1376 C1384 1.574 . S
C1376 C1392 1.368 . S
H1377 C1385 0.950 . S
H1378 C1383 0.950 . S
H1379 C1384 0.949 . S
H1380 C1386 0.950 . S
H1381 C1387 0.950 . S
H1382 C1388 0.949 . S
C1383 H1378 0.950 . S
C1383 C1385 1.327 . S
C1383 C1389 1.429 . S
C1384 C1376 1.574 . S
C1384 H1379 0.949 . S
C1384 C1390 1.368 . S
C1385 C1369 1.349 . S
C1385 H1377 0.950 . S
C1385 C1383 1.327 . S
C1386 C1374 1.349 . S
C1386 H1380 0.950 . S
C1386 C1387 1.327 . S
C1387 H1381 0.950 . S
C1387 C1386 1.327 . S
C1387 C1391 1.429 . S
C1388 C1371 1.574 . S
C1388 H1382 0.949 . S
C1388 C1392 1.368 . S
C1389 C1370 1.429 . S
C1389 C1383 1.429 . S
C1389 C1390 1.523 . S
C1390 C1371 1.368 . S
C1390 C1384 1.368 . S
C1390 C1389 1.523 . S
C1391 C1375 1.429 . S
C1391 C1387 1.429 . S
C1391 C1392 1.523 . S
C1392 C1376 1.368 . S
C1392 C1388 1.368 . S
C1392 C1391 1.523 . S
H1393 C1368 0.950 . S
H1394 C1370 0.950 . S
H1395 C1371 0.949 . S
H1396 C1373 0.950 . S
H1397 C1375 0.950 . S
C1398 C1399 1.349 . S
C1398 C1400 1.327 . S
C1398 H1423 0.950 . S
C1399 C1398 1.349 . S
C1399 C1415 1.349 . S
C1400 C1398 1.327 . S
C1400 C1419 1.429 . S
C1400 H1424 0.950 . S
C1401 C1418 1.574 . S
C1401 C1420 1.368 . S
C1401 H1425 0.949 . S
H1402 C1406 0.949 . S
C1403 C1404 1.349 . S
C1403 C1405 1.327 . S
C1403 H1426 0.950 . S
C1404 C1403 1.349 . S
C1404 C1416 1.349 . S
C1405 C1403 1.327 . S
C1405 C1421 1.429 . S
C1405 H1427 0.950 . S
C1406 H1402 0.949 . S
C1406 C1414 1.574 . S
C1406 C1422 1.368 . S
H1407 C1415 0.950 . S
H1408 C1413 0.950 . S
H1409 C1414 0.949 . S
H1410 C1416 0.950 . S
H1411 C1417 0.950 . S
H1412 C1418 0.949 . S
C1413 H1408 0.950 . S
C1413 C1415 1.327 . S
C1413 C1419 1.429 . S
C1414 C1406 1.574 . S
C1414 H1409 0.949 . S
C1414 C1420 1.368 . S
C1415 C1399 1.349 . S
C1415 H1407 0.950 . S
C1415 C1413 1.327 . S
C1416 C1404 1.349 . S
C1416 H1410 0.950 . S
C1416 C1417 1.327 . S
C1417 H1411 0.950 . S
C1417 C1416 1.327 . S
C1417 C1421 1.429 . S
C1418 C1401 1.574 . S
C1418 H1412 0.949 . S
C1418 C1422 1.368 . S
C1419 C1400 1.429 . S
C1419 C1413 1.429 . S
C1419 C1420 1.523 . S
C1420 C1401 1.368 . S
C1420 C1414 1.368 . S
C1420 C1419 1.523 . S
C1421 C1405 1.429 . S
C1421 C1417 1.429 . S
C1421 C1422 1.523 . S
C1422 C1406 1.368 . S
C1422 C1418 1.368 . S
C1422 C1421 1.523 . S
H1423 C1398 0.950 . S
H1424 C1400 0.950 . S
H1425 C1401 0.949 . S
H1426 C1403 0.950 . S
H1427 C1405 0.950 . S
C1428 C1429 1.349 . S
C1428 C1430 1.327 . S
C1428 H1453 0.950 . S
C1429 C1428 1.349 . S
C1429 C1445 1.349 . S
C1430 C1428 1.327 . S
C1430 C1449 1.429 . S
C1430 H1454 0.950 . S
C1431 C1448 1.574 . S
C1431 C1450 1.368 . S
C1431 H1455 0.949 . S
H1432 C1436 0.949 . S
C1433 C1434 1.349 . S
C1433 C1435 1.327 . S
C1433 H1456 0.950 . S
C1434 C1433 1.349 . S
C1434 C1446 1.349 . S
C1435 C1433 1.327 . S
C1435 C1451 1.429 . S
C1435 H1457 0.950 . S
C1436 H1432 0.949 . S
C1436 C1444 1.574 . S
C1436 C1452 1.368 . S
H1437 C1445 0.950 . S
H1438 C1443 0.950 . S
H1439 C1444 0.949 . S
H1440 C1446 0.950 . S
H1441 C1447 0.950 . S
H1442 C1448 0.949 . S
C1443 H1438 0.950 . S
C1443 C1445 1.327 . S
C1443 C1449 1.429 . S
C1444 C1436 1.574 . S
C1444 H1439 0.949 . S
C1444 C1450 1.368 . S
C1445 C1429 1.349 . S
C1445 H1437 0.950 . S
C1445 C1443 1.327 . S
C1446 C1434 1.349 . S
C1446 H1440 0.950 . S
C1446 C1447 1.327 . S
C1447 H1441 0.950 . S
C1447 C1446 1.327 . S
C1447 C1451 1.429 . S
C1448 C1431 1.574 . S
C1448 H1442 0.949 . S
C1448 C1452 1.368 . S
C1449 C1430 1.429 . S
C1449 C1443 1.429 . S
C1449 C1450 1.523 . S
C1450 C1431 1.368 . S
C1450 C1444 1.368 . S
C1450 C1449 1.523 . S
C1451 C1435 1.429 . S
C1451 C1447 1.429 . S
C1451 C1452 1.523 . S
C1452 C1436 1.368 . S
C1452 C1448 1.368 . S
C1452 C1451 1.523 . S
H1453 C1428 0.950 . S
H1454 C1430 0.950 . S
H1455 C1431 0.949 . S
H1456 C1433 0.950 . S
H1457 C1435 0.950 . S
C1458 C1459 1.349 . S
C1458 C1460 1.327 . S
C1458 H1483 0.950 . S
C1459 C1458 1.349 . S
C1459 C1475 1.349 . S
C1460 C1458 1.327 . S
C1460 C1479 1.429 . S
C1460 H1484 0.950 . S
C1461 C1478 1.574 . S
C1461 C1480 1.368 . S
C1461 H1485 0.949 . S
H1462 C1466 0.949 . S
C1463 C1464 1.349 . S
C1463 C1465 1.327 . S
C1463 H1486 0.950 . S
C1464 C1463 1.349 . S
C1464 C1476 1.349 . S
C1465 C1463 1.327 . S
C1465 C1481 1.429 . S
C1465 H1487 0.950 . S
C1466 H1462 0.949 . S
C1466 C1474 1.574 . S
C1466 C1482 1.368 . S
H1467 C1475 0.950 . S
H1468 C1473 0.950 . S
H1469 C1474 0.949 . S
H1470 C1476 0.950 . S
H1471 C1477 0.950 . S
H1472 C1478 0.949 . S
C1473 H1468 0.950 . S
C1473 C1475 1.327 . S
C1473 C1479 1.429 . S
C1474 C1466 1.574 . S
C1474 H1469 0.949 . S
C1474 C1480 1.368 . S
C1475 C1459 1.349 . S
C1475 H1467 0.950 . S
C1475 C1473 1.327 . S
C1476 C1464 1.349 . S
C1476 H1470 0.950 . S
C1476 C1477 1.327 . S
C1477 H1471 0.950 . S
C1477 C1476 1.327 . S
C1477 C1481 1.429 . S
C1478 C1461 1.574 . S
C1478 H1472 0.949 . S
C1478 C1482 1.368 . S
C1479 C1460 1.429 . S
C1479 C1473 1.429 . S
C1479 C1480 1.523 . S
C1480 C1461 1.368 . S
C1480 C1474 1.368 . S
C1480 C1479 1.523 . S
C1481 C1465 1.429 . S
C1481 C1477 1.429 . S
C1481 C1482 1.523 . S
C1482 C1466 1.368 . S
C1482 C1478 1.368 . S
C1482 C1481 1.523 . S
H1483 C1458 0.950 . S
H1484 C1460 0.950 . S
H1485 C1461 0.949 . S
H1486 C1463 0.950 . S
H1487 C1465 0.950 . S
C1488 C1489 1.349 . S
C1488 C1490 1.327 . S
C1488 H1513 0.950 . S
C1489 C1488 1.349 . S
C1489 C1505 1.349 . S
C1490 C1488 1.327 . S
C1490 C1509 1.429 . S
C1490 H1514 0.950 . S
C1491 C1508 1.574 . S
C1491 C1510 1.368 . S
C1491 H1515 0.949 . S
H1492 C1496 0.949 . S
C1493 C1494 1.349 . S
C1493 C1495 1.327 . S
C1493 H1516 0.950 . S
C1494 C1493 1.349 . S
C1494 C1506 1.349 . S
C1495 C1493 1.327 . S
C1495 C1511 1.429 . S
C1495 H1517 0.950 . S
C1496 H1492 0.949 . S
C1496 C1504 1.574 . S
C1496 C1512 1.368 . S
H1497 C1505 0.950 . S
H1498 C1503 0.950 . S
H1499 C1504 0.949 . S
H1500 C1506 0.950 . S
H1501 C1507 0.950 . S
H1502 C1508 0.949 . S
C1503 H1498 0.950 . S
C1503 C1505 1.327 . S
C1503 C1509 1.429 . S
C1504 C1496 1.574 . S
C1504 H1499 0.949 . S
C1504 C1510 1.368 . S
C1505 C1489 1.349 . S
C1505 H1497 0.950 . S
C1505 C1503 1.327 . S
C1506 C1494 1.349 . S
C1506 H1500 0.950 . S
C1506 C1507 1.327 . S
C1507 H1501 0.950 . S
C1507 C1506 1.327 . S
C1507 C1511 1.429 . S
C1508 C1491 1.574 . S
C1508 H1502 0.949 . S
C1508 C1512 1.368 . S
C1509 C1490 1.429 . S
C1509 C1503 1.429 . S
C1509 C1510 1.523 . S
C1510 C1491 1.368 . S
C1510 C1504 1.368 . S
C1510 C1509 1.523 . S
C1511 C1495 1.429 . S
C1511 C1507 1.429 . S
C1511 C1512 1.523 . S
C1512 C1496 1.368 . S
C1512 C1508 1.368 . S
C1512 C1511 1.523 . S
H1513 C1488 0.950 . S
H1514 C1490 0.950 . S
H1515 C1491 0.949 . S
H1516 C1493 0.950 . S
H1517 C1495 0.950 . S
C1518 C1519 1.349 . S
C1518 C1520 1.327 . S
C1518 H1543 0.950 . S
C1519 C1518 1.349 . S
C1519 C1535 1.349 . S
C1520 C1518 1.327 . S
C1520 C1539 1.429 . S
C1520 H1544 0.950 . S
C1521 C1538 1.574 . S
C1521 C1540 1.368 . S
C1521 H1545 0.949 . S
H1522 C1526 0.949 . S
C1523 C1524 1.349 . S
C1523 C1525 1.327 . S
C1523 H1546 0.950 . S
C1524 C1523 1.349 . S
C1524 C1536 1.349 . S
C1525 C1523 1.327 . S
C1525 C1541 1.429 . S
C1525 H1547 0.950 . S
C1526 H1522 0.949 . S
C1526 C1534 1.574 . S
C1526 C1542 1.368 . S
H1527 C1535 0.950 . S
H1528 C1533 0.950 . S
H1529 C1534 0.949 . S
H1530 C1536 0.950 . S
H1531 C1537 0.950 . S
H1532 C1538 0.949 . S
C1533 H1528 0.950 . S
C1533 C1535 1.327 . S
C1533 C1539 1.429 . S
C1534 C1526 1.574 . S
C1534 H1529 0.949 . S
C1534 C1540 1.368 . S
C1535 C1519 1.349 . S
C1535 H1527 0.950 . S
C1535 C1533 1.327 . S
C1536 C1524 1.349 . S
C1536 H1530 0.950 . S
C1536 C1537 1.327 . S
C1537 H1531 0.950 . S
C1537 C1536 1.327 . S
C1537 C1541 1.429 . S
C1538 C1521 1.574 . S
C1538 H1532 0.949 . S
C1538 C1542 1.368 . S
C1539 C1520 1.429 . S
C1539 C1533 1.429 . S
C1539 C1540 1.523 . S
C1540 C1521 1.368 . S
C1540 C1534 1.368 . S
C1540 C1539 1.523 . S
C1541 C1525 1.429 . S
C1541 C1537 1.429 . S
C1541 C1542 1.523 . S
C1542 C1526 1.368 . S
C1542 C1538 1.368 . S
C1542 C1541 1.523 . S
H1543 C1518 0.950 . S
H1544 C1520 0.950 . S
H1545 C1521 0.949 . S
H1546 C1523 0.950 . S
H1547 C1525 0.950 . S
C1548 C1549 1.349 . S
C1548 C1550 1.327 . S
C1548 H1573 0.950 . S
C1549 C1548 1.349 . S
C1549 C1565 1.349 . S
C1550 C1548 1.327 . S
C1550 C1569 1.429 . S
C1550 H1574 0.950 . S
C1551 C1568 1.574 . S
C1551 C1570 1.368 . S
C1551 H1575 0.949 . S
H1552 C1556 0.949 . S
C1553 C1554 1.349 . S
C1553 C1555 1.327 . S
C1553 H1576 0.950 . S
C1554 C1553 1.349 . S
C1554 C1566 1.349 . S
C1555 C1553 1.327 . S
C1555 C1571 1.429 . S
C1555 H1577 0.950 . S
C1556 H1552 0.949 . S
C1556 C1564 1.574 . S
C1556 C1572 1.368 . S
H1557 C1565 0.950 . S
H1558 C1563 0.950 . S
H1559 C1564 0.949 . S
H1560 C1566 0.950 . S
H1561 C1567 0.950 . S
H1562 C1568 0.949 . S
C1563 H1558 0.950 . S
C1563 C1565 1.327 . S
C1563 C1569 1.429 . S
C1564 C1556 1.574 . S
C1564 H1559 0.949 . S
C1564 C1570 1.368 . S
C1565 C1549 1.349 . S
C1565 H1557 0.950 . S
C1565 C1563 1.327 . S
C1566 C1554 1.349 . S
C1566 H1560 0.950 . S
C1566 C1567 1.327 . S
C1567 H1561 0.950 . S
C1567 C1566 1.327 . S
C1567 C1571 1.429 . S
C1568 C1551 1.574 . S
C1568 H1562 0.949 . S
C1568 C1572 1.368 . S
C1569 C1550 1.429 . S
C1569 C1563 1.429 . S
C1569 C1570 1.523 . S
C1570 C1551 1.368 . S
C1570 C1564 1.368 . S
C1570 C1569 1.523 . S
C1571 C1555 1.429 . S
C1571 C1567 1.429 . S
C1571 C1572 1.523 . S
C1572 C1556 1.368 . S
C1572 C1568 1.368 . S
C1572 C1571 1.523 . S
H1573 C1548 0.950 . S
H1574 C1550 0.950 . S
H1575 C1551 0.949 . S
H1576 C1553 0.950 . S
H1577 C1555 0.950 . S
C1578 C1579 1.349 . S
C1578 C1580 1.327 . S
C1578 H1603 0.950 . S
C1579 C1578 1.349 . S
C1579 C1595 1.349 . S
C1580 C1578 1.327 . S
C1580 C1599 1.429 . S
C1580 H1604 0.950 . S
C1581 C1598 1.574 . S
C1581 C1600 1.368 . S
C1581 H1605 0.949 . S
H1582 C1586 0.949 . S
C1583 C1584 1.349 . S
C1583 C1585 1.327 . S
C1583 H1606 0.950 . S
C1584 C1583 1.349 . S
C1584 C1596 1.349 . S
C1585 C1583 1.327 . S
C1585 C1601 1.429 . S
C1585 H1607 0.950 . S
C1586 H1582 0.949 . S
C1586 C1594 1.574 . S
C1586 C1602 1.368 . S
H1587 C1595 0.950 . S
H1588 C1593 0.950 . S
H1589 C1594 0.949 . S
H1590 C1596 0.950 . S
H1591 C1597 0.950 . S
H1592 C1598 0.949 . S
C1593 H1588 0.950 . S
C1593 C1595 1.327 . S
C1593 C1599 1.429 . S
C1594 C1586 1.574 . S
C1594 H1589 0.949 . S
C1594 C1600 1.368 . S
C1595 C1579 1.349 . S
C1595 H1587 0.950 . S
C1595 C1593 1.327 . S
C1596 C1584 1.349 . S
C1596 H1590 0.950 . S
C1596 C1597 1.327 . S
C1597 H1591 0.950 . S
C1597 C1596 1.327 . S
C1597 C1601 1.429 . S
C1598 C1581 1.574 . S
C1598 H1592 0.949 . S
C1598 C1602 1.368 . S
C1599 C1580 1.429 . S
C1599 C1593 1.429 . S
C1599 C1600 1.523 . S
C1600 C1581 1.368 . S
C1600 C1594 1.368 . S
C1600 C1599 1.523 . S
C1601 C1585 1.429 . S
C1601 C1597 1.429 . S
C1601 C1602 1.523 . S
C1602 C1586 1.368 . S
C1602 C1598 1.368 . S
C1602 C1601 1.523 . S
H1603 C1578 0.950 . S
H1604 C1580 0.950 . S
H1605 C1581 0.949 . S
H1606 C1583 0.950 . S
H1607 C1585 0.950 . S
C1608 C1609 1.349 . S
C1608 C1610 1.327 . S
C1608 H1633 0.950 . S
C1609 C1608 1.349 . S
C1609 C1625 1.349 . S
C1610 C1608 1.327 . S
C1610 C1629 1.429 . S
C1610 H1634 0.950 . S
C1611 C1628 1.574 . S
C1611 C1630 1.368 . S
C1611 H1635 0.949 . S
H1612 C1616 0.949 . S
C1613 C1614 1.349 . S
C1613 C1615 1.327 . S
C1613 H1636 0.950 . S
C1614 C1613 1.349 . S
C1614 C1626 1.349 . S
C1615 C1613 1.327 . S
C1615 C1631 1.429 . S
C1615 H1637 0.950 . S
C1616 H1612 0.949 . S
C1616 C1624 1.574 . S
C1616 C1632 1.368 . S
H1617 C1625 0.950 . S
H1618 C1623 0.950 . S
H1619 C1624 0.949 . S
H1620 C1626 0.950 . S
H1621 C1627 0.950 . S
H1622 C1628 0.949 . S
C1623 H1618 0.950 . S
C1623 C1625 1.327 . S
C1623 C1629 1.429 . S
C1624 C1616 1.574 . S
C1624 H1619 0.949 . S
C1624 C1630 1.368 . S
C1625 C1609 1.349 . S
C1625 H1617 0.950 . S
C1625 C1623 1.327 . S
C1626 C1614 1.349 . S
C1626 H1620 0.950 . S
C1626 C1627 1.327 . S
C1627 H1621 0.950 . S
C1627 C1626 1.327 . S
C1627 C1631 1.429 . S
C1628 C1611 1.574 . S
C1628 H1622 0.949 . S
C1628 C1632 1.368 . S
C1629 C1610 1.429 . S
C1629 C1623 1.429 . S
C1629 C1630 1.523 . S
C1630 C1611 1.368 . S
C1630 C1624 1.368 . S
C1630 C1629 1.523 . S
C1631 C1615 1.429 . S
C1631 C1627 1.429 . S
C1631 C1632 1.523 . S
C1632 C1616 1.368 . S
C1632 C1628 1.368 . S
C1632 C1631 1.523 . S
H1633 C1608 0.950 . S
H1634 C1610 0.950 . S
H1635 C1611 0.949 . S
H1636 C1613 0.950 . S
H1637 C1615 0.950 . S
C1638 C1639 1.349 . S
C1638 C1640 1.327 . S
C1638 H1663 0.950 . S
C1639 C1638 1.349 . S
C1639 C1655 1.349 . S
C1640 C1638 1.327 . S
C1640 C1659 1.429 . S
C1640 H1664 0.950 . S
C1641 C1658 1.574 . S
C1641 C1660 1.368 . S
C1641 H1665 0.949 . S
H1642 C1646 0.949 . S
C1643 C1644 1.349 . S
C1643 C1645 1.327 . S
C1643 H1666 0.950 . S
C1644 C1643 1.349 . S
C1644 C1656 1.349 . S
C1645 C1643 1.327 . S
C1645 C1661 1.429 . S
C1645 H1667 0.950 . S
C1646 H1642 0.949 . S
C1646 C1654 1.574 . S
C1646 C1662 1.368 . S
H1647 C1655 0.950 . S
H1648 C1653 0.950 . S
H1649 C1654 0.949 . S
H1650 C1656 0.950 . S
H1651 C1657 0.950 . S
H1652 C1658 0.949 . S
C1653 H1648 0.950 . S
C1653 C1655 1.327 . S
C1653 C1659 1.429 . S
C1654 C1646 1.574 . S
C1654 H1649 0.949 . S
C1654 C1660 1.368 . S
C1655 C1639 1.349 . S
C1655 H1647 0.950 . S
C1655 C1653 1.327 . S
C1656 C1644 1.349 . S
C1656 H1650 0.950 . S
C1656 C1657 1.327 . S
C1657 H1651 0.950 . S
C1657 C1656 1.327 . S
C1657 C1661 1.429 . S
C1658 C1641 1.574 . S
C1658 H1652 0.949 . S
C1658 C1662 1.368 . S
C1659 C1640 1.429 . S
C1659 C1653 1.429 . S
C1659 C1660 1.523 . S
C1660 C1641 1.368 . S
C1660 C1654 1.368 . S
C1660 C1659 1.523 . S
C1661 C1645 1.429 . S
C1661 C1657 1.429 . S
C1661 C1662 1.523 . S
C1662 C1646 1.368 . S
C1662 C1658 1.368 . S
C1662 C1661 1.523 . S
H1663 C1638 0.950 . S
H1664 C1640 0.950 . S
H1665 C1641 0.949 . S
H1666 C1643 0.950 . S
H1667 C1645 0.950 . S
C1668 C1669 1.349 . S
C1668 C1670 1.327 . S
C1668 H1693 0.950 . S
C1669 C1668 1.349 . S
C1669 C1685 1.349 . S
C1670 C1668 1.327 . S
C1670 C1689 1.429 . S
C1670 H1694 0.950 . S
C1671 C1688 1.574 . S
C1671 C1690 1.368 . S
C1671 H1695 0.949 . S
H1672 C1676 0.949 . S
C1673 C1674 1.349 . S
C1673 C1675 1.327 . S
C1673 H1696 0.950 . S
C1674 C1673 1.349 . S
C1674 C1686 1.349 . S
C1675 C1673 1.327 . S
C1675 C1691 1.429 . S
C1675 H1697 0.950 . S
C1676 H1672 0.949 . S
C1676 C1684 1.574 . S
C1676 C1692 1.368 . S
H1677 C1685 0.950 . S
H1678 C1683 0.950 . S
H1679 C1684 0.949 . S
H1680 C1686 0.950 . S
H1681 C1687 0.950 . S
H1682 C1688 0.949 . S
C1683 H1678 0.950 . S
C1683 C1685 1.327 . S
C1683 C1689 1.429 . S
C1684 C1676 1.574 . S
C1684 H1679 0.949 . S
C1684 C1690 1.368 . S
C1685 C1669 1.349 . S
C1685 H1677 0.950 . S
C1685 C1683 1.327 . S
C1686 C1674 1.349 . S
C1686 H1680 0.950 . S
C1686 C1687 1.327 . S
C1687 H1681 0.950 . S
C1687 C1686 1.327 . S
C1687 C1691 1.429 . S
C1688 C1671 1.574 . S
C1688 H1682 0.949 . S
C1688 C1692 1.368 . S
C1689 C1670 1.429 . S
C1689 C1683 1.429 . S
C1689 C1690 1.523 . S
C1690 C1671 1.368 . S
C1690 C1684 1.368 . S
C1690 C1689 1.523 . S
C1691 C1675 1.429 . S
C1691 C1687 1.429 . S
C1691 C1692 1.523 . S
C1692 C1676 1.368 . S
C1692 C1688 1.368 . S
C1692 C1691 1.523 . S
H1693 C1668 0.950 . S
H1694 C1670 0.950 . S
H1695 C1671 0.949 . S
H1696 C1673 0.950 . S
H1697 C1675 0.950 . S
C1698 C1699 1.349 . S
C1698 C1700 1.327 . S
C1698 H1723 0.950 . S
C1699 C1698 1.349 . S
C1699 C1715 1.349 . S
C1700 C1698 1.327 . S
C1700 C1719 1.429 . S
C1700 H1724 0.950 . S
C1701 C1718 1.574 . S
C1701 C1720 1.368 . S
C1701 H1725 0.949 . S
H1702 C1706 0.949 . S
C1703 C1704 1.349 . S
C1703 C1705 1.327 . S
C1703 H1726 0.950 . S
C1704 C1703 1.349 . S
C1704 C1716 1.349 . S
C1705 C1703 1.327 . S
C1705 C1721 1.429 . S
C1705 H1727 0.950 . S
C1706 H1702 0.949 . S
C1706 C1714 1.574 . S
C1706 C1722 1.368 . S
H1707 C1715 0.950 . S
H1708 C1713 0.950 . S
H1709 C1714 0.949 . S
H1710 C1716 0.950 . S
H1711 C1717 0.950 . S
H1712 C1718 0.949 . S
C1713 H1708 0.950 . S
C1713 C1715 1.327 . S
C1713 C1719 1.429 . S
C1714 C1706 1.574 . S
C1714 H1709 0.949 . S
C1714 C1720 1.368 . S
C1715 C1699 1.349 . S
C1715 H1707 0.950 . S
C1715 C1713 1.327 . S
C1716 C1704 1.349 . S
C1716 H1710 0.950 . S
C1716 C1717 1.327 . S
C1717 H1711 0.950 . S
C1717 C1716 1.327 . S
C1717 C1721 1.429 . S
C1718 C1701 1.574 . S
C1718 H1712 0.949 . S
C1718 C1722 1.368 . S
C1719 C1700 1.429 . S
C1719 C1713 1.429 . S
C1719 C1720 1.523 . S
C1720 C1701 1.368 . S
C1720 C1714 1.368 . S
C1720 C1719 1.523 . S
C1721 C1705 1.429 . S
C1721 C1717 1.429 . S
C1721 C1722 1.523 . S
C1722 C1706 1.368 . S
C1722 C1718 1.368 . S
C1722 C1721 1.523 . S
H1723 C1698 0.950 . S
H1724 C1700 0.950 . S
H1725 C1701 0.949 . S
H1726 C1703 0.950 . S
H1727 C1705 0.950 . S
C529 C348 1.513 . S
C534 C18 1.513 . S
C559 C51 1.514 . S
C564 C249 1.514 . S
C589 C502 1.500 . S
C594 C40 1.500 . S
C619 C73 1.500 . S
C624 C7 1.500 . S
C649 C84 1.513 . S
C654 C282 1.513 . S
C679 C183 1.513 . S
C684 C117 1.513 . S
C709 C436 1.500 . S
C714 C106 1.500 . S
C739 C480 1.513 . S
C744 C150 1.513 . S
C769 C172 1.500 . S
C774 C370 1.500 . S
C799 C205 1.500 . S
C804 C139 1.500 . S
C829 C414 1.513 . S
C834 C216 1.513 . S
C859 C304 1.500 . S
C864 C238 1.500 . S
C889 C513 1.514 . S
C894 C315 1.514 . S
C919 C271 1.500 . S
C924 C337 1.500 . S
C949 C381 1.513 . S
C954 C447 1.513 . S
C979 C469 1.500 . S
C984 C403 1.500 . S
C1009 N13 1.281 . S
C1014 N2 1.279 . S
C1039 N35 1.279 . S
C1044 N46 1.281 . S
C1069 N79 1.281 . S
C1074 N68 1.279 . S
C1099 N101 1.279 . S
C1104 N112 1.281 . S
C1129 N134 1.279 . S
C1134 N145 1.281 . S
C1159 N167 1.279 . S
C1164 N178 1.281 . S
C1189 N211 1.281 . S
C1194 N200 1.279 . S
C1219 N244 1.281 . S
C1224 N233 1.279 . S
C1249 N277 1.281 . S
C1254 N266 1.279 . S
C1279 N310 1.281 . S
C1284 N299 1.279 . S
C1309 N343 1.281 . S
C1314 N332 1.279 . S
C1339 N376 1.281 . S
C1344 N365 1.279 . S
C1369 N409 1.281 . S
C1374 N398 1.279 . S
C1399 N431 1.279 . S
C1404 N442 1.281 . S
C1429 N475 1.281 . S
C1434 N464 1.279 . S
C1459 N497 1.279 . S
C1464 N508 1.281 . S
C1489 C21 1.502 . S
C1494 C54 1.502 . S
C1519 C87 1.502 . S
C1524 C120 1.502 . S
C1549 C153 1.502 . S
C1554 C186 1.502 . S
C1579 C219 1.502 . S
C1584 C252 1.502 . S
C1609 C318 1.502 . S
C1614 C285 1.502 . S
C1639 C351 1.502 . S
C1644 C384 1.502 . S
C1669 C450 1.502 . S
C1674 C417 1.502 . S
C1699 C516 1.502 . S
C1704 C483 1.502 . S
