# Generated by pormake.
# Topology qtz-e, (6)-cn, num edge types: 1
# Building blocks:
#     Node 0, Type 0, BuildingBlock: BETGAK_clean_sbu_0, # of connection points: 6
#     Node 1, Type 0, BuildingBlock: BETGAK_clean_sbu_0, # of connection points: 6
#     Node 2, Type 0, BuildingBlock: BETGAK_clean_sbu_0, # of connection points: 6
#     Node 3, Type 0, BuildingBlock: BETGAK_clean_sbu_0, # of connection points: 6
#     Node 4, Type 0, BuildingBlock: BETGAK_clean_sbu_0, # of connection points: 6
#     Node 5, Type 0, BuildingBlock: BETGAK_clean_sbu_0, # of connection points: 6
#     Edge 6, Type (0, 0), BuildingBlock: FUNLAD_clean_linker_0, # of connection points: 2
#     Edge 7, Type (0, 0), BuildingBlock: FUNLAD_clean_linker_0, # of connection points: 2
#     Edge 8, Type (0, 0), BuildingBlock: FUNLAD_clean_linker_0, # of connection points: 2
#     Edge 9, Type (0, 0), BuildingBlock: FUNLAD_clean_linker_0, # of connection points: 2
#     Edge 10, Type (0, 0), BuildingBlock: FUNLAD_clean_linker_0, # of connection points: 2
#     Edge 11, Type (0, 0), BuildingBlock: FUNLAD_clean_linker_0, # of connection points: 2
#     Edge 12, Type (0, 0), BuildingBlock: FUNLAD_clean_linker_0, # of connection points: 2
#     Edge 13, Type (0, 0), BuildingBlock: FUNLAD_clean_linker_0, # of connection points: 2
#     Edge 14, Type (0, 0), BuildingBlock: FUNLAD_clean_linker_0, # of connection points: 2
#     Edge 15, Type (0, 0), BuildingBlock: FUNLAD_clean_linker_0, # of connection points: 2
#     Edge 16, Type (0, 0), BuildingBlock: FUNLAD_clean_linker_0, # of connection points: 2
#     Edge 17, Type (0, 0), BuildingBlock: FUNLAD_clean_linker_0, # of connection points: 2
#     Edge 18, Type (0, 0), BuildingBlock: FUNLAD_clean_linker_0, # of connection points: 2
#     Edge 19, Type (0, 0), BuildingBlock: FUNLAD_clean_linker_0, # of connection points: 2
#     Edge 20, Type (0, 0), BuildingBlock: FUNLAD_clean_linker_0, # of connection points: 2
#     Edge 21, Type (0, 0), BuildingBlock: FUNLAD_clean_linker_0, # of connection points: 2
#     Edge 22, Type (0, 0), BuildingBlock: FUNLAD_clean_linker_0, # of connection points: 2
#     Edge 23, Type (0, 0), BuildingBlock: FUNLAD_clean_linker_0, # of connection points: 2
# Relax obj value: 0.174
# Max RMSD: 0.203
# Mean RMSD: 0.203
data_MOF--net-qtz-e--node1-BETGAK_clean_sbu_0--edge1-FUNLAD_clean_linker_0
_symmetry_space_group_name_H-M    P1
_symmetry_Int_Tables_number       1
_symmetry_cell_setting            triclinic
loop_
_symmetry_equiv_pos_as_xyz
'x, y, z'
_cell_length_a     29.754628
_cell_length_b     29.79729
_cell_length_c     57.992848
_cell_angle_alpha  89.798207
_cell_angle_beta   90.217171
_cell_angle_gamma 120.36543
loop_
_atom_site_label
_atom_site_type_symbol
_atom_site_fract_x
_atom_site_fract_y
_atom_site_fract_z
_atom_type_partial_charge
La0 La 0.17396 0.47097 0.16978 0.0
La1 La 0.13286 0.36183 0.15059 0.0
C2 C 0.17524 0.54835 0.18778 0.0
C3 C 0.17535 0.56473 0.21165 0.0
C4 C 0.18757 0.5419 0.23001 0.0
C5 C 0.189 0.55873 0.25262 0.0
C6 C 0.17786 0.59841 0.25725 0.0
C7 C 0.16474 0.62047 0.23879 0.0
C8 C 0.1636 0.60378 0.21618 0.0
C9 C 0.24036 0.439 0.17343 0.0
C10 C 0.10525 0.36924 0.20164 0.0
C11 C 0.1223 0.2838 0.12888 0.0
C12 C 0.13815 0.27721 0.1054 0.0
C13 C 0.10196 0.26051 0.08717 0.0
C14 C 0.11673 0.25677 0.06473 0.0
C15 C 0.16802 0.26915 0.05989 0.0
C16 C 0.204 0.28462 0.07819 0.0
C17 C 0.18926 0.28862 0.10069 0.0
C18 C 0.0729 0.40305 0.14561 0.0
C19 C 0.20695 0.4626 0.11997 0.0
O20 O 0.21717 0.5479 0.18139 0.0
O21 O 0.13249 0.50666 0.18102 0.0
O22 O 0.25313 0.48746 0.1732 0.0
O23 O 0.19138 0.4101 0.175 0.0
O24 O 0.12648 0.42001 0.19808 0.0
O25 O 0.10701 0.33793 0.18594 0.0
O26 O 0.08664 0.29707 0.1297 0.0
O27 O 0.15913 0.3093 0.14411 0.0
O28 O 0.05503 0.35397 0.1493 0.0
O29 O 0.12127 0.4253 0.14381 0.0
O30 O 0.18895 0.41272 0.12445 0.0
O31 O 0.19815 0.49221 0.13408 0.0
H32 H 0.19636 0.51134 0.22683 0.0
H33 H 0.1986 0.54057 0.2665 0.0
H34 H 0.15648 0.65144 0.24177 0.0
H35 H 0.15401 0.62173 0.2022 0.0
H36 H 0.06212 0.25077 0.09021 0.0
H37 H 0.08777 0.24379 0.05114 0.0
H38 H 0.24387 0.29464 0.07505 0.0
H39 H 0.2181 0.30117 0.1143 0.0
La40 La 0.81394 0.2869 0.42153 0.0
La41 La 0.86716 0.23412 0.44403 0.0
C42 C 0.78211 0.34425 0.40534 0.0
C43 C 0.77258 0.35421 0.38147 0.0
C44 C 0.74644 0.38138 0.37697 0.0
C45 C 0.73815 0.39139 0.3542 0.0
C46 C 0.75613 0.37454 0.33558 0.0
C47 C 0.78186 0.3468 0.34026 0.0
C48 C 0.78986 0.33661 0.36298 0.0
C49 C 0.76977 0.18526 0.41344 0.0
C50 C 0.8942 0.2706 0.39322 0.0
C51 C 0.88829 0.17529 0.46719 0.0
C52 C 0.86788 0.14454 0.48858 0.0
C53 C 0.90242 0.14004 0.50359 0.0
C54 C 0.88563 0.11634 0.52519 0.0
C55 C 0.83378 0.09664 0.53231 0.0
C56 C 0.79887 0.10017 0.51695 0.0
C57 C 0.81575 0.12386 0.4953 0.0
C58 C 0.92145 0.33707 0.44297 0.0
C59 C 0.78772 0.25304 0.47353 0.0
O60 O 0.75094 0.29701 0.41301 0.0
O61 O 0.83104 0.36091 0.41049 0.0
O62 O 0.77351 0.21957 0.3986 0.0
O63 O 0.7909 0.20939 0.43165 0.0
O64 O 0.87612 0.30211 0.39758 0.0
O65 O 0.88682 0.23299 0.40773 0.0
O66 O 0.91151 0.22566 0.47001 0.0
O67 O 0.85796 0.15985 0.44892 0.0
O68 O 0.94171 0.30766 0.44085 0.0
O69 O 0.87359 0.30852 0.44639 0.0
O70 O 0.81603 0.23034 0.47183 0.0
O71 O 0.78369 0.28029 0.45639 0.0
H72 H 0.73278 0.39516 0.39105 0.0
H73 H 0.71861 0.41322 0.35117 0.0
H74 H 0.79552 0.33265 0.32634 0.0
H75 H 0.80976 0.31516 0.36612 0.0
H76 H 0.94294 0.15626 0.49888 0.0
H77 H 0.91387 0.11511 0.53661 0.0
H78 H 0.75856 0.085 0.52171 0.0
H79 H 0.78838 0.12715 0.48408 0.0
La80 La 0.51636 0.71572 0.83698 0.0
La81 La 0.62875 0.78475 0.82109 0.0
C82 C 0.43543 0.6387 0.85285 0.0
C83 C 0.41555 0.62124 0.87629 0.0
C84 C 0.4314 0.65686 0.89456 0.0
C85 C 0.41204 0.63994 0.91677 0.0
C86 C 0.37686 0.58696 0.92119 0.0
C87 C 0.36194 0.55136 0.90282 0.0
C88 C 0.38104 0.56842 0.88058 0.0
C89 C 0.55105 0.81438 0.84252 0.0
C90 C 0.61253 0.7428 0.87152 0.0
C91 C 0.71108 0.85442 0.80213 0.0
C92 C 0.72347 0.87794 0.77871 0.0
C93 C 0.75944 0.87285 0.76501 0.0
C94 C 0.76899 0.89105 0.74224 0.0
C95 C 0.74287 0.915 0.73258 0.0
C96 C 0.70785 0.92135 0.74651 0.0
C97 C 0.69827 0.90305 0.7693 0.0
C98 C 0.58627 0.68373 0.81469 0.0
C99 C 0.53292 0.7613 0.78747 0.0
O100 O 0.43771 0.68177 0.84602 0.0
O101 O 0.47753 0.63748 0.84751 0.0
O102 O 0.50225 0.77967 0.84044 0.0
O103 O 0.57825 0.79294 0.84463 0.0
O104 O 0.56224 0.71458 0.86641 0.0
O105 O 0.64689 0.7777 0.857 0.0
O106 O 0.6979 0.80545 0.80321 0.0
O107 O 0.68172 0.86439 0.81543 0.0
O108 O 0.6351 0.71421 0.81952 0.0
O109 O 0.56516 0.71053 0.81236 0.0
O110 O 0.58233 0.79267 0.79338 0.0
O111 O 0.50081 0.7218 0.80076 0.0
H112 H 0.4585 0.69784 0.89161 0.0
H113 H 0.42402 0.66856 0.93038 0.0
H114 H 0.33582 0.51016 0.90564 0.0
H115 H 0.36892 0.54032 0.86672 0.0
H116 H 0.77966 0.85395 0.77182 0.0
H117 H 0.79691 0.88632 0.73219 0.0
H118 H 0.68671 0.93919 0.73962 0.0
H119 H 0.67033 0.90772 0.7793 0.0
La120 La 0.71046 0.52766 0.08822 0.0
La121 La 0.7711 0.63662 0.10846 0.0
C122 C 0.64341 0.4381 0.075 0.0
C123 C 0.62638 0.41353 0.05222 0.0
C124 C 0.66058 0.43096 0.03337 0.0
C125 C 0.64274 0.4102 1.01141 0.0
C126 C 0.59019 0.37202 1.00781 0.0
C127 C 0.55627 0.3544 0.02686 0.0
C128 C 0.57426 0.37496 0.04884 0.0
C129 C 0.81163 0.57897 0.07891 0.0
C130 C 0.73723 0.62502 0.05707 0.0
C131 C 0.83334 0.71766 0.13028 0.0
C132 C 0.86227 0.72833 0.15223 0.0
C133 C 0.86158 0.76424 0.16757 0.0
C134 C 0.88283 0.77068 0.18967 0.0
C135 C 0.90549 0.74146 0.19689 0.0
C136 C 0.90783 0.70674 0.18122 0.0
C137 C 0.88612 0.7 0.15911 0.0
C138 C 0.66852 0.59236 0.1075 0.0
C139 C 0.74742 0.53905 0.14016 0.0
O140 O 0.69061 0.4506 0.08157 0.0
O141 O 0.633 0.47515 0.07913 0.0
O142 O 0.77551 0.54668 0.06504 0.0
O143 O 0.7897 0.57998 0.0972 0.0
O144 O 0.70243 0.57603 0.06203 0.0
O145 O 0.77445 0.65502 0.07184 0.0
O146 O 0.78272 0.69374 0.13253 0.0
O147 O 0.84763 0.69912 0.11308 0.0
O148 O 0.69999 0.6417 0.10432 0.0
O149 O 0.69492 0.57151 0.11183 0.0
O150 O 0.77264 0.59022 0.1374 0.0
O151 O 0.71824 0.50665 0.12362 0.0
H152 H 0.70091 0.46117 0.03556 0.0
H153 H 0.67014 0.42421 0.99724 0.0
H154 H 0.51542 0.32574 0.02472 0.0
H155 H 0.54714 0.36158 0.06313 0.0
H156 H 0.84319 0.78632 0.16267 0.0
H157 H 0.88103 0.7982 0.20123 0.0
H158 H 0.92466 0.68339 0.18636 0.0
H159 H 0.88658 0.67153 0.14771 0.0
La160 La 0.28268 0.82044 0.50433 0.0
La161 La 0.23013 0.87417 0.48227 0.0
C162 C 0.34277 0.7913 0.51969 0.0
C163 C 0.35446 0.78063 0.54315 0.0
C164 C 0.31443 0.7491 0.55863 0.0
C165 C 0.32621 0.74278 0.58135 0.0
C166 C 0.37812 0.76838 0.58909 0.0
C167 C 0.4181 0.79933 0.57349 0.0
C168 C 0.40636 0.80521 0.55072 0.0
C169 C 0.1807 0.77438 0.51157 0.0
C170 C 0.26019 0.89497 0.53416 0.0
C171 C 0.17225 0.89611 0.45891 0.0
C172 C 0.14423 0.87717 0.43681 0.0
C173 C 0.14229 0.91281 0.42161 0.0
C174 C 0.12182 0.89749 0.3994 0.0
C175 C 0.10274 0.84608 0.39196 0.0
C176 C 0.10328 0.80995 0.40748 0.0
C177 C 0.1241 0.82543 0.42968 0.0
C178 C 0.33315 0.92889 0.4846 0.0
C179 C 0.25059 0.79697 0.45189 0.0
O180 O 0.29614 0.75918 0.51149 0.0
O181 O 0.35759 0.84015 0.51547 0.0
O182 O 0.21452 0.77676 0.52642 0.0
O183 O 0.20535 0.79718 0.49366 0.0
O184 O 0.29297 0.87821 0.53003 0.0
O185 O 0.22505 0.88988 0.51867 0.0
O186 O 0.223 0.92099 0.45718 0.0
O187 O 0.15561 0.86388 0.47649 0.0
O188 O 0.30334 0.94865 0.48701 0.0
O189 O 0.30488 0.88146 0.48036 0.0
O190 O 0.22888 0.82617 0.4536 0.0
O191 O 0.27595 0.79084 0.46931 0.0
H192 H 0.27395 0.73015 0.55337 0.0
H193 H 0.29459 0.71912 0.59305 0.0
H194 H 0.45849 0.81911 0.57893 0.0
H195 H 0.4378 0.82985 0.53911 0.0
H196 H 0.15794 0.95297 0.4267 0.0
H197 H 0.12137 0.92606 0.38795 0.0
H198 H 0.08936 0.77022 0.40218 0.0
H199 H 0.12588 0.79735 0.44097 0.0
La200 La 0.47665 0.1968 0.75614 0.0
La201 La 0.36459 0.15053 0.77267 0.0
C202 C 0.55875 0.2049 0.73998 0.0
C203 C 0.57922 0.20643 0.71674 0.0
C204 C 0.63028 0.24518 0.71144 0.0
C205 C 0.65008 0.24878 0.68929 0.0
C206 C 0.6191 0.21362 0.67199 0.0
C207 C 0.56791 0.17467 0.67736 0.0
C208 C 0.54818 0.17102 0.69956 0.0
C209 C 0.4408 0.25996 0.75289 0.0
C210 C 0.38009 0.12861 0.72155 0.0
C211 C 0.28387 0.13851 0.79239 0.0
C212 C 0.27435 0.15109 0.81605 0.0
C213 C 0.25518 0.11258 0.8333 0.0
C214 C 0.24895 0.12451 0.85595 0.0
C215 C 0.26135 0.1752 0.86195 0.0
C216 C 0.27932 0.21349 0.84459 0.0
C217 C 0.2857 0.20158 0.82191 0.0
C218 C 0.40742 0.09233 0.77771 0.0
C219 C 0.46112 0.22187 0.80641 0.0
O220 O 0.55393 0.24486 0.74541 0.0
O221 O 0.51868 0.16066 0.74666 0.0
O222 O 0.48972 0.275 0.75502 0.0
O223 O 0.41428 0.21143 0.74967 0.0
O224 O 0.43063 0.15168 0.7263 0.0
O225 O 0.34571 0.1266 0.73666 0.0
O226 O 0.29587 0.102 0.79091 0.0
O227 O 0.31257 0.17759 0.77862 0.0
O228 O 0.35833 0.07363 0.77336 0.0
O229 O 0.42853 0.14037 0.78042 0.0
O230 O 0.41125 0.20256 0.80112 0.0
O231 O 0.49328 0.21694 0.79235 0.0
H232 H 0.65474 0.27304 0.72442 0.0
H233 H 0.68943 0.2796 0.68562 0.0
H234 H 0.54329 0.1466 0.6645 0.0
H235 H 0.5087 0.14058 0.70323 0.0
H236 H 0.24543 0.07315 0.82936 0.0
H237 H 0.23404 0.09379 0.86875 0.0
H238 H 0.28944 0.25297 0.84862 0.0
H239 H 0.30009 0.23216 0.80906 0.0
C240 C 0.22308 0.78029 0.4105 0.0
C241 C 0.24552 0.77016 0.42973 0.0
C242 C 0.21725 0.75472 0.38962 0.0
C243 C 0.23325 0.71781 0.38748 0.0
C244 C 0.25644 0.70829 0.4066 0.0
C245 C 0.2624 0.73404 0.42753 0.0
C246 C 0.2284 0.69029 0.36539 0.0
C247 C 0.19394 0.68395 0.34869 0.0
C248 C 0.18983 0.65914 0.32588 0.0
C249 C 0.14731 0.64839 0.31157 0.0
C250 C 0.14298 0.62798 0.28949 0.0
C251 C 0.1811 0.6177 0.28114 0.0
H252 H 0.26193 0.65696 0.32758 0.0
C253 C 0.22328 0.62762 0.29549 0.0
C254 C 0.22784 0.64837 0.31756 0.0
H255 H 0.2537 0.62082 0.2894 0.0
H256 H 0.21031 0.80843 0.41143 0.0
H257 H 0.20111 0.76495 0.37517 0.0
H258 H 0.26971 0.68056 0.4054 0.0
H259 H 0.27997 0.72539 0.44197 0.0
H260 H 0.25329 0.67377 0.36333 0.0
H261 H 0.16642 0.69698 0.35184 0.0
H262 H 0.11744 0.6563 0.3174 0.0
H263 H 0.10973 0.62028 0.27892 0.0
C264 C 0.60996 0.21093 0.62883 0.0
C265 C 0.64041 0.2174 0.6485 0.0
C266 C 0.63027 0.21454 0.60674 0.0
C267 C 0.68163 0.2249 0.60391 0.0
C268 C 0.71173 0.23085 0.6236 0.0
C269 C 0.6915 0.22734 0.64563 0.0
C270 C 0.70476 0.22765 0.58093 0.0
C271 C 0.68737 0.23698 0.56101 0.0
C272 C 0.71204 0.23962 0.53842 0.0
C273 C 0.70892 0.26986 0.52053 0.0
C274 C 0.7331 0.27413 0.49932 0.0
C275 C 0.76058 0.24789 0.49557 0.0
H276 H 0.73961 0.1866 0.5473 0.0
C277 C 0.76234 0.21649 0.51329 0.0
C278 C 0.7381 0.21206 0.53436 0.0
H279 H 0.78257 0.1952 0.51097 0.0
H280 H 0.57049 0.20341 0.63049 0.0
H281 H 0.60524 0.20829 0.59207 0.0
H282 H 0.75118 0.23823 0.62196 0.0
H283 H 0.71568 0.23165 0.66042 0.0
H284 H 0.73928 0.224 0.58068 0.0
H285 H 0.6561 0.2457 0.56124 0.0
H286 H 0.68849 0.29095 0.52311 0.0
H287 H 0.73068 0.29837 0.48598 0.0
C288 C 0.23809 0.45082 0.08172 0.0
C289 C 0.23407 0.48387 0.0978 0.0
C290 C 0.26187 0.46988 0.06041 0.0
C291 C 0.28224 0.52253 0.05463 0.0
C292 C 0.2798 0.55595 0.07094 0.0
C293 C 0.25559 0.53678 0.09227 0.0
C294 C 0.30673 0.54353 0.03186 0.0
C295 C 0.29104 0.51461 1.01251 0.0
C296 C 0.31393 0.5348 0.98943 0.0
C297 C 0.28305 0.51202 0.96981 0.0
C298 C 0.3033 0.52915 0.94775 0.0
C299 C 0.35535 0.56896 0.94476 0.0
H300 H 0.39148 0.59191 1.00128 0.0
C301 C 0.38651 0.59136 0.96446 0.0
C302 C 0.36604 0.57455 0.98656 0.0
H303 H 0.42706 0.6213 0.96283 0.0
H304 H 0.22251 0.40994 0.08547 0.0
H305 H 0.2646 0.44331 0.04859 0.0
H306 H 0.29577 0.59681 0.06701 0.0
H307 H 0.25354 0.56335 0.10433 0.0
H308 H 0.33609 0.58453 0.03085 0.0
H309 H 0.25802 0.47517 1.01328 0.0
H310 H 0.24286 0.48116 0.97154 0.0
H311 H 0.27785 0.51149 0.93305 0.0
C312 C 0.78991 0.40351 0.29541 0.0
C313 C 0.74904 0.38663 0.31139 0.0
C314 C 0.78383 0.41592 0.27278 0.0
C315 C 0.73667 0.41185 0.26559 0.0
C316 C 0.6954 0.39371 0.28138 0.0
C317 C 0.7016 0.38162 0.30408 0.0
C318 C 0.72931 0.42602 0.2418 0.0
C319 C 0.76883 0.46311 0.2293 0.0
C320 C 0.76197 0.48079 0.20623 0.0
C321 C 0.7973 0.532 0.19943 0.0
C322 C 0.79239 0.55062 0.17802 0.0
C323 C 0.75248 0.51818 0.16264 0.0
H324 H 0.69511 0.40778 0.19524 0.0
C325 C 0.71771 0.46643 0.16917 0.0
C326 C 0.72225 0.44791 0.19081 0.0
H327 H 0.68668 0.44039 0.15768 0.0
H328 H 0.82699 0.4079 0.30049 0.0
H329 H 0.81605 0.42829 0.26096 0.0
H330 H 0.65848 0.38966 0.27624 0.0
H331 H 0.6691 0.36795 0.31587 0.0
H332 H 0.68977 0.40821 0.23519 0.0
H333 H 0.80745 0.48443 0.23694 0.0
H334 H 0.82854 0.55804 0.21085 0.0
H335 H 0.82016 0.59051 0.17351 0.0
C336 C 0.46342 0.73567 0.75726 0.0
C337 C 0.51512 0.76824 0.76455 0.0
C338 C 0.44753 0.74114 0.73519 0.0
C339 C 0.48327 0.77912 0.71984 0.0
C340 C 0.53452 0.8124 0.72742 0.0
C341 C 0.55028 0.80704 0.74945 0.0
C342 C 0.4692 0.78601 0.69593 0.0
C343 C 0.42679 0.7499 0.68442 0.0
C344 C 0.41471 0.75618 0.66004 0.0
C345 C 0.37894 0.71172 0.64769 0.0
C346 C 0.36689 0.71556 0.6247 0.0
C347 C 0.3905 0.76404 0.61351 0.0
H348 H 0.46347 0.84057 0.65787 0.0
C349 C 0.42562 0.80866 0.62589 0.0
C350 C 0.43731 0.80494 0.64893 0.0
H351 H 0.44344 0.8467 0.61786 0.0
H352 H 0.43518 0.70574 0.76856 0.0
H353 H 0.40723 0.71573 0.73046 0.0
H354 H 0.56285 0.84235 0.71614 0.0
H355 H 0.59033 0.83302 0.75448 0.0
H356 H 0.49702 0.82142 0.68713 0.0
H357 H 0.40103 0.71279 0.69257 0.0
H358 H 0.36056 0.67371 0.65579 0.0
H359 H 0.33969 0.68048 0.61558 0.0
C360 C 0.58857 0.38496 0.96495 0.0
C361 C 0.57053 0.35165 0.98422 0.0
C362 C 0.56962 0.36611 0.94285 0.0
C363 C 0.53209 0.31339 0.93949 0.0
C364 C 0.51358 0.28027 0.95872 0.0
C365 C 0.53279 0.29901 0.98081 0.0
C366 C 0.51044 0.29203 0.91631 0.0
C367 C 0.53746 0.31158 0.89664 0.0
C368 C 0.51669 0.28881 0.87357 0.0
C369 C 0.55173 0.29359 0.85628 0.0
C370 C 0.53372 0.27202 0.83447 0.0
C371 C 0.48021 0.24592 0.82933 0.0
H372 H 0.43512 0.26044 0.88102 0.0
C373 C 0.44514 0.2424 0.84643 0.0
C374 C 0.46315 0.26351 0.86835 0.0
H375 H 0.40367 0.2229 0.843 0.0
H376 H 0.6166 0.42598 0.96696 0.0
H377 H 0.58361 0.39324 0.92856 0.0
H378 H 0.4845 0.23955 0.95664 0.0
H379 H 0.51835 0.27207 0.99517 0.0
H380 H 0.47223 0.25711 0.91563 0.0
H381 H 0.5776 0.34324 0.89749 0.0
H382 H 0.5932 0.31337 0.85977 0.0
H383 H 0.56183 0.27583 0.82165 0.0
C384 C 0.32495 0.44963 0.18398 0.0
C385 C 0.27968 0.42369 0.17051 0.0
C386 C 0.37156 0.45468 0.17623 0.0
C387 C 0.37342 0.43374 0.15485 0.0
C388 C 0.32711 0.40273 0.14267 0.0
C389 C 0.28056 0.39838 0.1503 0.0
C390 C 0.42391 0.45034 0.14369 0.0
C391 C 0.45964 0.50135 0.14207 0.0
C392 C 0.51087 0.52218 0.13071 0.0
C393 C 0.53726 0.57414 0.1231 0.0
C394 C 0.58788 0.59671 0.11438 0.0
C395 C 0.61302 0.56772 0.11345 0.0
H396 H 0.51707 0.45306 0.13518 0.0
C397 C 0.58613 0.51538 0.12047 0.0
C398 C 0.53555 0.49274 0.12898 0.0
H399 H 0.60493 0.49233 0.12031 0.0
H400 H 0.32544 0.47025 0.19943 0.0
H401 H 0.40687 0.47817 0.18607 0.0
H402 H 0.32787 0.38641 0.1261 0.0
H403 H 0.24739 0.38054 0.13898 0.0
H404 H 0.42939 0.42134 0.13491 0.0
H405 H 0.45031 0.52959 0.14897 0.0
H406 H 0.51908 0.59768 0.12435 0.0
H407 H 0.60792 0.63721 0.1092 0.0
C408 C 0.11756 0.6825 0.5223 0.0
C409 C 0.1291 0.72705 0.5094 0.0
C410 C 0.0784 0.63352 0.51495 0.0
C411 C 0.04981 0.62854 0.49481 0.0
C412 C 0.05695 0.67349 0.48365 0.0
C413 C 0.09666 0.72245 0.49079 0.0
C414 C 0.01639 0.57716 0.48395 0.0
C415 C 0.03271 0.54255 0.48222 0.0
C416 C 0.00375 0.49201 0.46998 0.0
C417 C 0.03102 0.46726 0.46298 0.0
C418 C 0.00474 0.4178 0.45303 0.0
C419 C 0.95056 0.39199 0.45012 0.0
H420 H 0.927 0.48395 0.4718 0.0
C421 C 0.9234 0.41729 0.4564 0.0
C422 C 0.94965 0.46678 0.46628 0.0
H423 H 0.88146 0.39802 0.45449 0.0
H424 H 0.14166 0.68481 0.53682 0.0
H425 H 0.07245 0.59938 0.52427 0.0
H426 H 0.03476 0.67055 0.4683 0.0
H427 H 0.10462 0.75624 0.48064 0.0
H428 H 0.98134 0.57052 0.4751 0.0
H429 H 0.07068 0.55282 0.48924 0.0
H430 H 0.07272 0.48582 0.46563 0.0
H431 H 0.02657 0.39908 0.4484 0.0
C432 C 0.4834 0.08879 0.79325 0.0
C433 C 0.43121 0.06234 0.78589 0.0
C434 C 0.50538 0.06177 0.80329 0.0
C435 C 0.47545 0.00762 0.80616 0.0
C436 C 0.4235 0.98107 0.79843 0.0
C437 C 0.40159 0.00817 0.78823 0.0
C438 C 0.49615 0.97795 0.81817 0.0
C439 C 0.54711 0.99312 0.81934 0.0
C440 C 0.56319 0.95787 0.82941 0.0
C441 C 0.59279 0.94314 0.81611 0.0
C442 C 0.59496 0.89883 0.82209 0.0
C443 C 0.56896 0.86996 0.84174 0.0
H444 H 0.51941 0.94354 0.86104 0.0
C445 C 0.54474 0.8885 0.85646 0.0
C446 C 0.5419 0.93229 0.85038 0.0
H447 H 0.52352 0.86618 0.87148 0.0
H448 H 0.50699 0.13071 0.79191 0.0
H449 H 0.54509 0.08371 0.8095 0.0
H450 H 0.39962 0.93931 0.80053 0.0
H451 H 0.36119 0.98698 0.78281 0.0
H452 H 0.46775 0.94027 0.82526 0.0
H453 H 0.57602 0.02761 0.81028 0.0
H454 H 0.60923 0.96225 0.79982 0.0
H455 H 0.61128 0.88392 0.80988 0.0
C456 C 0.50941 0.60319 0.80008 0.0
C457 C 0.56198 0.62954 0.80689 0.0
C458 C 0.48665 0.55342 0.79071 0.0
C459 C 0.51622 0.52912 0.78791 0.0
C460 C 0.56861 0.55523 0.79501 0.0
C461 C 0.59128 0.60496 0.8046 0.0
C462 C 0.4946 0.47795 0.77655 0.0
C463 C 0.44364 0.44147 0.77644 0.0
C464 C 0.42696 0.3897 0.76674 0.0
C465 C 0.40024 0.34566 0.78081 0.0
C466 C 0.39845 0.29943 0.7748 0.0
C467 C 0.42191 0.29655 0.75436 0.0
H468 H 0.46579 0.41866 0.73396 0.0
C469 C 0.44303 0.33876 0.73904 0.0
C470 C 0.44549 0.38512 0.74516 0.0
H471 H 0.4623 0.33763 0.72342 0.0
H472 H 0.48605 0.62153 0.80142 0.0
H473 H 0.44658 0.53504 0.78495 0.0
H474 H 0.59221 0.53728 0.79293 0.0
H475 H 0.63194 0.62464 0.80961 0.0
H476 H 0.5224 0.46873 0.769 0.0
H477 H 0.41556 0.44707 0.786 0.0
H478 H 0.38597 0.34861 0.79757 0.0
H479 H 0.38431 0.26853 0.78739 0.0
C480 C 0.06902 0.47905 0.13054 0.0
C481 C 0.04267 0.42639 0.13705 0.0
C482 C 0.04236 0.50097 0.1201 0.0
C483 C 0.98847 0.47071 0.1161 0.0
C484 C 0.96196 0.41821 0.123 0.0
C485 C 0.98879 0.39622 0.13348 0.0
C486 C 0.95905 0.49194 0.1041 0.0
C487 C 0.97503 0.54306 0.10289 0.0
C488 C 0.94139 0.56137 0.09282 0.0
C489 C 0.93656 0.60005 0.10429 0.0
C490 C 0.8971 0.61008 0.09807 0.0
C491 C 0.86259 0.58214 0.08005 0.0
H492 H 0.91494 0.50896 0.06355 0.0
C493 C 0.87173 0.54827 0.06674 0.0
C494 C 0.9107 0.53768 0.07318 0.0
H495 H 0.84603 0.52651 0.05262 0.0
H496 H 0.11072 0.50317 0.13291 0.0
H497 H 0.06461 0.5411 0.11457 0.0
H498 H 0.92044 0.39398 0.12006 0.0
H499 H 0.96768 0.35545 0.13821 0.0
H500 H 0.92108 0.46395 0.0971 0.0
H501 H 0.01011 0.57143 0.11179 0.0
H502 H 0.96046 0.61943 0.11924 0.0
H503 H 0.89101 0.63659 0.1085 0.0
C504 C 0.41341 0.9315 0.47075 0.0
C505 C 0.38815 0.95846 0.47744 0.0
C506 C 0.4626 0.95781 0.46058 0.0
C507 C 0.48776 0.01187 0.457 0.0
C508 C 0.46316 0.03899 0.46445 0.0
C509 C 0.41388 0.0126 0.47467 0.0
C510 C 0.53799 0.04084 0.44443 0.0
C511 C 0.57192 0.02383 0.44177 0.0
C512 C 0.62293 0.05671 0.43046 0.0
C513 C 0.66797 0.0615 0.44062 0.0
C514 C 0.71711 0.1003 0.43318 0.0
C515 C 0.72177 0.13414 0.4152 0.0
H516 H 0.5934 0.08253 0.40226 0.0
C517 C 0.67682 0.12493 0.40317 0.0
C518 C 0.62769 0.08669 0.41086 0.0
H519 H 0.67915 0.15026 0.38921 0.0
H520 H 0.39422 0.8896 0.47248 0.0
H521 H 0.47949 0.93516 0.45472 0.0
H522 H 0.48164 0.08065 0.46191 0.0
H523 H 0.39516 0.03425 0.47958 0.0
H524 H 0.5485 0.07916 0.43788 0.0
H525 H 0.56509 0.98827 0.4501 0.0
H526 H 0.66518 0.03819 0.45552 0.0
H527 H 0.75117 0.10658 0.4427 0.0
C528 C 0.23428 0.21947 0.89121 0.0
C529 C 0.25549 0.18778 0.88625 0.0
C530 C 0.2271 0.22965 0.91407 0.0
C531 C 0.24142 0.20867 0.93262 0.0
C532 C 0.26312 0.17749 0.92756 0.0
C533 C 0.27016 0.16725 0.90475 0.0
C534 C 0.23257 0.21607 0.95737 0.0
C535 C 0.2207 0.25161 0.96503 0.0
C536 C 0.2092 0.2565 0.98966 0.0
C537 C 0.17948 0.27988 0.99456 0.0
C538 C 0.16657 0.28431 1.01728 0.0
C539 C 0.18354 0.26597 0.03579 0.0
H540 H 0.25172 0.22252 1.00539 0.0
C541 C 0.21463 0.24397 0.03102 0.0
C542 C 0.22734 0.23925 1.00824 0.0
H543 H 0.22842 0.22953 0.04488 0.0
H544 H 0.22187 0.23532 0.87739 0.0
H545 H 0.20911 0.25285 0.91689 0.0
H546 H 0.27456 0.16069 0.94136 0.0
H547 H 0.2873 0.14329 0.9016 0.0
H548 H 0.23529 0.19011 0.96972 0.0
H549 H 0.21731 0.2774 0.95283 0.0
H550 H 0.16551 0.29419 0.98071 0.0
H551 H 0.14341 0.30238 1.02035 0.0
C552 C 0.92882 0.24182 0.36006 0.0
C553 C 0.9264 0.2813 0.37223 0.0
C554 C 0.9575 0.2534 0.33944 0.0
C555 C 0.98499 0.30488 0.33103 0.0
C556 C 0.98358 0.34414 0.3437 0.0
C557 C 0.95428 0.3325 0.36382 0.0
C558 C 0.0162 0.32045 0.30942 0.0
C559 C 0.00538 0.29004 0.29061 0.0
C560 C 0.03241 0.31074 0.26804 0.0
C561 C 0.03408 0.2768 0.25171 0.0
C562 C 0.05789 0.29536 0.23014 0.0
C563 C 0.08016 0.34832 0.22439 0.0
H564 H 0.05187 0.39088 0.27348 0.0
C565 C 0.07784 0.38199 0.24066 0.0
C566 C 0.05413 0.36353 0.26203 0.0
H567 H 0.09385 0.4229 0.23686 0.0
H568 H 0.90772 0.20201 0.36618 0.0
H569 H 0.95853 0.22231 0.33032 0.0
H570 H 0.00456 0.38414 0.33777 0.0
H571 H 0.95371 0.36395 0.37288 0.0
H572 H 0.04761 0.36063 0.30859 0.0
H573 H 0.97483 0.24946 0.29141 0.0
H574 H 0.01701 0.23581 0.25565 0.0
H575 H 0.05866 0.26823 0.21801 0.0
C576 C 0.75563 0.9797 0.70131 0.0
C577 C 0.7515 0.93228 0.70797 0.0
C578 C 0.76471 -0.00388 0.67823 0.0
C579 C 0.76939 0.96516 0.66114 0.0
C580 C 0.76495 0.91772 0.66786 0.0
C581 C 0.75603 0.90143 0.69088 0.0
C582 C 0.78116 0.98141 0.63641 0.0
C583 C 0.77614 0.01978 0.62649 0.0
C584 C 0.78957 0.03658 0.60188 0.0
C585 C 0.77047 0.06658 0.5917 0.0
C586 C 0.78383 0.08509 0.56906 0.0
C587 C 0.81701 0.07437 0.55597 0.0
H588 H 0.83947 0.00387 0.59585 0.0
C589 C 0.83586 0.04404 0.56607 0.0
C590 C 0.82258 0.02558 0.58871 0.0
H591 H 0.86122 0.03467 0.5565 0.0
H592 H 0.75308 0.00479 0.71405 0.0
H593 H 0.76918 0.03356 0.67411 0.0
H594 H 0.76845 0.89298 0.65521 0.0
H595 H 0.75231 0.86434 0.69527 0.0
H596 H 0.79322 0.95937 0.62587 0.0
H597 H 0.76023 0.03921 0.63648 0.0
H598 H 0.74542 0.07621 0.60139 0.0
H599 H 0.76922 0.10904 0.56206 0.0
C600 C 0.68158 0.75288 0.90023 0.0
C601 C 0.629 0.73422 0.8946 0.0
C602 C 0.69523 0.74026 0.92155 0.0
C603 C 0.6564 0.70898 0.93769 0.0
C604 C 0.60423 0.69183 0.93217 0.0
C605 C 0.59072 0.70423 0.91105 0.0
C606 C 0.66703 0.69013 0.9598 0.0
C607 C 0.71405 0.70923 0.97001 0.0
C608 C 0.72084 0.687 0.99202 0.0
C609 C 0.76037 0.71905 1.00762 0.0
C610 C 0.76621 0.69916 0.0287 0.0
C611 C 0.7329 0.64655 0.03451 0.0
H612 H 0.65913 0.60745 0.98567 0.0
C613 C 0.69451 0.6142 1.01852 0.0
C614 C 0.68869 0.63402 0.99757 0.0
H615 H 0.66864 0.57329 0.02215 0.0
H616 H 0.71201 0.77587 0.88792 0.0
H617 H 0.73586 0.75374 0.92494 0.0
H618 H 0.57337 0.66782 0.94415 0.0
H619 H 0.5498 0.68941 0.90756 0.0
H620 H 0.63325 0.65908 0.96849 0.0
H621 H 0.74783 0.74314 0.96286 0.0
H622 H 0.78617 0.75983 1.0037 0.0
H623 H 0.79647 0.72515 0.0405 0.0
C624 C 0.0378 0.78423 0.36298 0.0
C625 C 0.0841 0.83098 0.36783 0.0
C626 C 0.01994 0.77103 0.34024 0.0
C627 C 0.04826 0.80427 0.32184 0.0
C628 C 0.09526 0.85013 0.32668 0.0
C629 C 0.11279 0.86356 0.34939 0.0
C630 C 0.03039 0.79245 0.29742 0.0
C631 C 0.97976 0.76493 0.2913 0.0
C632 C 0.96157 0.75772 0.2669 0.0
C633 C 0.91239 0.75136 0.26216 0.0
C634 C 0.89434 0.74602 0.23949 0.0
C635 C 0.92472 0.74606 0.22097 0.0
H636 H 0.02916 0.76006 0.25145 0.0
C637 C 0.97329 0.75075 0.2257 0.0
C638 C -0.00833 0.75671 0.24843 0.0
H639 H -0.00254 0.7507 0.21179 0.0
H640 H 0.01495 0.75824 0.37682 0.0
H641 H 0.98427 0.73463 0.33714 0.0
H642 H 0.11818 0.87617 0.31286 0.0
H643 H 0.14911 0.89937 0.35251 0.0
H644 H 0.0598 0.81084 0.2841 0.0
H645 H 0.95012 0.75083 0.30462 0.0
H646 H 0.88812 0.75138 0.27604 0.0
H647 H 0.85634 0.74153 0.23644 0.0
C648 C 0.31165 0.06707 0.69316 0.0
C649 C 0.36333 0.1057 0.69812 0.0
C650 C 0.2985 0.04263 0.67143 0.0
C651 C 0.33689 0.05669 0.65427 0.0
C652 C 0.38786 0.09653 0.65913 0.0
C653 C 0.40083 0.1208 0.6806 0.0
C654 C 0.32743 0.02897 0.63179 0.0
C655 C 0.2805 -0.00113 0.62176 0.0
C656 C 0.27487 0.97149 0.59944 0.0
C657 C 0.23468 0.96259 0.58397 0.0
C658 C 0.22964 0.93787 0.56273 0.0
C659 C 0.26433 0.92082 0.55665 0.0
H660 H 0.33906 0.95767 0.60525 0.0
C661 C 0.30362 0.92854 0.57245 0.0
C662 C 0.30876 0.95336 0.59352 0.0
H663 H 0.33073 0.91545 0.5686 0.0
H664 H 0.28185 0.05446 0.70628 0.0
H665 H 0.25889 0.01162 0.66851 0.0
H666 H 0.41831 0.1085 0.64633 0.0
H667 H 0.44079 0.1511 0.68353 0.0
H668 H 0.3619 0.03507 0.62265 0.0
H669 H 0.24583 -0.00413 0.6294 0.0
H670 H 0.20759 0.97553 0.58817 0.0
H671 H 0.19865 0.93222 0.5511 0.0
loop_
_geom_bond_atom_site_label_1
_geom_bond_atom_site_label_2
_geom_bond_distance
_geom_bond_site_symmetry_2
_ccdc_geom_bond_type
La0 C2 2.928 . S
La0 O20 2.521 . S
La0 O21 2.628 . S
La0 O22 2.554 . S
La0 O23 2.757 . S
La0 O24 2.470 . S
La0 O29 2.482 . S
La0 O31 2.503 . S
La1 C11 2.928 . S
La1 O23 2.482 . S
La1 O25 2.503 . S
La1 O26 2.521 . S
La1 O27 2.628 . S
La1 O28 2.554 . S
La1 O29 2.757 . S
La1 O30 2.470 . S
C2 La0 2.928 . S
C2 C3 1.503 . S
C2 O20 1.261 . S
C2 O21 1.243 . S
C3 C2 1.503 . S
C3 C4 1.394 . S
C3 C8 1.373 . S
C4 C3 1.394 . S
C4 C5 1.380 . S
C4 H32 0.930 . S
C5 C4 1.380 . S
C5 C6 1.376 . S
C5 H33 0.930 . S
C6 C5 1.376 . S
C6 C7 1.370 . S
C7 C6 1.370 . S
C7 C8 1.396 . S
C7 H34 0.929 . S
C8 C3 1.373 . S
C8 C7 1.396 . S
C8 H35 0.929 . S
C9 O22 1.240 . S
C9 O23 1.289 . S
C10 O24 1.258 . S
C10 O25 1.256 . S
C11 La1 2.928 . S
C11 C12 1.503 . S
C11 O26 1.261 . S
C11 O27 1.243 . S
C12 C11 1.503 . S
C12 C13 1.394 . S
C12 C17 1.373 . S
C13 C12 1.394 . S
C13 C14 1.380 . S
C13 H36 0.930 . S
C14 C13 1.380 . S
C14 C15 1.376 . S
C14 H37 0.930 . S
C15 C14 1.376 . S
C15 C16 1.370 . S
C16 C15 1.370 . S
C16 C17 1.396 . S
C16 H38 0.929 . S
C17 C12 1.373 . S
C17 C16 1.396 . S
C17 H39 0.929 . S
C18 O28 1.240 . S
C18 O29 1.289 . S
C19 O30 1.258 . S
C19 O31 1.256 . S
O20 La0 2.521 . S
O20 C2 1.261 . S
O21 La0 2.628 . S
O21 C2 1.243 . S
O22 La0 2.554 . S
O22 C9 1.240 . S
O23 La0 2.757 . S
O23 La1 2.482 . S
O23 C9 1.289 . S
O24 La0 2.470 . S
O24 C10 1.258 . S
O25 La1 2.503 . S
O25 C10 1.256 . S
O26 La1 2.521 . S
O26 C11 1.261 . S
O27 La1 2.628 . S
O27 C11 1.243 . S
O28 La1 2.554 . S
O28 C18 1.240 . S
O29 La0 2.482 . S
O29 La1 2.757 . S
O29 C18 1.289 . S
O30 La1 2.470 . S
O30 C19 1.258 . S
O31 La0 2.503 . S
O31 C19 1.256 . S
H32 C4 0.930 . S
H33 C5 0.930 . S
H34 C7 0.929 . S
H35 C8 0.929 . S
H36 C13 0.930 . S
H37 C14 0.930 . S
H38 C16 0.929 . S
H39 C17 0.929 . S
La40 C42 2.928 . S
La40 O60 2.521 . S
La40 O61 2.628 . S
La40 O62 2.554 . S
La40 O63 2.757 . S
La40 O64 2.470 . S
La40 O69 2.482 . S
La40 O71 2.503 . S
La41 C51 2.928 . S
La41 O63 2.482 . S
La41 O65 2.503 . S
La41 O66 2.521 . S
La41 O67 2.628 . S
La41 O68 2.554 . S
La41 O69 2.757 . S
La41 O70 2.470 . S
C42 La40 2.928 . S
C42 C43 1.503 . S
C42 O60 1.261 . S
C42 O61 1.243 . S
C43 C42 1.503 . S
C43 C44 1.394 . S
C43 C48 1.373 . S
C44 C43 1.394 . S
C44 C45 1.380 . S
C44 H72 0.930 . S
C45 C44 1.380 . S
C45 C46 1.376 . S
C45 H73 0.930 . S
C46 C45 1.376 . S
C46 C47 1.370 . S
C47 C46 1.370 . S
C47 C48 1.396 . S
C47 H74 0.929 . S
C48 C43 1.373 . S
C48 C47 1.396 . S
C48 H75 0.929 . S
C49 O62 1.240 . S
C49 O63 1.289 . S
C50 O64 1.258 . S
C50 O65 1.256 . S
C51 La41 2.928 . S
C51 C52 1.503 . S
C51 O66 1.261 . S
C51 O67 1.243 . S
C52 C51 1.503 . S
C52 C53 1.394 . S
C52 C57 1.373 . S
C53 C52 1.394 . S
C53 C54 1.380 . S
C53 H76 0.930 . S
C54 C53 1.380 . S
C54 C55 1.376 . S
C54 H77 0.930 . S
C55 C54 1.376 . S
C55 C56 1.370 . S
C56 C55 1.370 . S
C56 C57 1.396 . S
C56 H78 0.929 . S
C57 C52 1.373 . S
C57 C56 1.396 . S
C57 H79 0.929 . S
C58 O68 1.240 . S
C58 O69 1.289 . S
C59 O70 1.258 . S
C59 O71 1.256 . S
O60 La40 2.521 . S
O60 C42 1.261 . S
O61 La40 2.628 . S
O61 C42 1.243 . S
O62 La40 2.554 . S
O62 C49 1.240 . S
O63 La40 2.757 . S
O63 La41 2.482 . S
O63 C49 1.289 . S
O64 La40 2.470 . S
O64 C50 1.258 . S
O65 La41 2.503 . S
O65 C50 1.256 . S
O66 La41 2.521 . S
O66 C51 1.261 . S
O67 La41 2.628 . S
O67 C51 1.243 . S
O68 La41 2.554 . S
O68 C58 1.240 . S
O69 La40 2.482 . S
O69 La41 2.757 . S
O69 C58 1.289 . S
O70 La41 2.470 . S
O70 C59 1.258 . S
O71 La40 2.503 . S
O71 C59 1.256 . S
H72 C44 0.930 . S
H73 C45 0.930 . S
H74 C47 0.929 . S
H75 C48 0.929 . S
H76 C53 0.930 . S
H77 C54 0.930 . S
H78 C56 0.929 . S
H79 C57 0.929 . S
La80 C82 2.928 . S
La80 O100 2.521 . S
La80 O101 2.628 . S
La80 O102 2.554 . S
La80 O103 2.757 . S
La80 O104 2.470 . S
La80 O109 2.482 . S
La80 O111 2.503 . S
La81 C91 2.928 . S
La81 O103 2.482 . S
La81 O105 2.503 . S
La81 O106 2.521 . S
La81 O107 2.628 . S
La81 O108 2.554 . S
La81 O109 2.757 . S
La81 O110 2.470 . S
C82 La80 2.928 . S
C82 C83 1.503 . S
C82 O100 1.261 . S
C82 O101 1.243 . S
C83 C82 1.503 . S
C83 C84 1.394 . S
C83 C88 1.373 . S
C84 C83 1.394 . S
C84 C85 1.380 . S
C84 H112 0.930 . S
C85 C84 1.380 . S
C85 C86 1.376 . S
C85 H113 0.930 . S
C86 C85 1.376 . S
C86 C87 1.370 . S
C87 C86 1.370 . S
C87 C88 1.396 . S
C87 H114 0.929 . S
C88 C83 1.373 . S
C88 C87 1.396 . S
C88 H115 0.929 . S
C89 O102 1.240 . S
C89 O103 1.289 . S
C90 O104 1.258 . S
C90 O105 1.256 . S
C91 La81 2.928 . S
C91 C92 1.503 . S
C91 O106 1.261 . S
C91 O107 1.243 . S
C92 C91 1.503 . S
C92 C93 1.394 . S
C92 C97 1.373 . S
C93 C92 1.394 . S
C93 C94 1.380 . S
C93 H116 0.930 . S
C94 C93 1.380 . S
C94 C95 1.376 . S
C94 H117 0.930 . S
C95 C94 1.376 . S
C95 C96 1.370 . S
C96 C95 1.370 . S
C96 C97 1.396 . S
C96 H118 0.929 . S
C97 C92 1.373 . S
C97 C96 1.396 . S
C97 H119 0.929 . S
C98 O108 1.240 . S
C98 O109 1.289 . S
C99 O110 1.258 . S
C99 O111 1.256 . S
O100 La80 2.521 . S
O100 C82 1.261 . S
O101 La80 2.628 . S
O101 C82 1.243 . S
O102 La80 2.554 . S
O102 C89 1.240 . S
O103 La80 2.757 . S
O103 La81 2.482 . S
O103 C89 1.289 . S
O104 La80 2.470 . S
O104 C90 1.258 . S
O105 La81 2.503 . S
O105 C90 1.256 . S
O106 La81 2.521 . S
O106 C91 1.261 . S
O107 La81 2.628 . S
O107 C91 1.243 . S
O108 La81 2.554 . S
O108 C98 1.240 . S
O109 La80 2.482 . S
O109 La81 2.757 . S
O109 C98 1.289 . S
O110 La81 2.470 . S
O110 C99 1.258 . S
O111 La80 2.503 . S
O111 C99 1.256 . S
H112 C84 0.930 . S
H113 C85 0.930 . S
H114 C87 0.929 . S
H115 C88 0.929 . S
H116 C93 0.930 . S
H117 C94 0.930 . S
H118 C96 0.929 . S
H119 C97 0.929 . S
La120 C122 2.928 . S
La120 O140 2.521 . S
La120 O141 2.628 . S
La120 O142 2.554 . S
La120 O143 2.757 . S
La120 O144 2.470 . S
La120 O149 2.482 . S
La120 O151 2.503 . S
La121 C131 2.928 . S
La121 O143 2.482 . S
La121 O145 2.503 . S
La121 O146 2.521 . S
La121 O147 2.628 . S
La121 O148 2.554 . S
La121 O149 2.757 . S
La121 O150 2.470 . S
C122 La120 2.928 . S
C122 C123 1.545 . S
C122 O140 1.261 . S
C122 O141 1.243 . S
C123 C122 1.545 . S
C123 C124 1.370 1_554 S
C123 C128 1.356 1_554 S
C124 C123 1.370 1_556 S
C124 C125 1.380 . S
C124 H152 0.930 . S
C125 C124 1.380 . S
C125 C126 1.376 . S
C125 H153 0.930 . S
C126 C125 1.376 . S
C126 C127 1.370 . S
C127 C126 1.370 . S
C127 C128 1.396 . S
C127 H154 0.929 . S
C128 C123 1.356 1_556 S
C128 C127 1.396 . S
C128 H155 0.930 1_556 S
C129 O142 1.240 . S
C129 O143 1.289 . S
C130 O144 1.258 . S
C130 O145 1.256 . S
C131 La121 2.928 . S
C131 C132 1.503 . S
C131 O146 1.261 . S
C131 O147 1.243 . S
C132 C131 1.503 . S
C132 C133 1.394 . S
C132 C137 1.373 . S
C133 C132 1.394 . S
C133 C134 1.380 . S
C133 H156 0.930 . S
C134 C133 1.380 . S
C134 C135 1.376 . S
C134 H157 0.930 . S
C135 C134 1.376 . S
C135 C136 1.370 . S
C136 C135 1.370 . S
C136 C137 1.396 . S
C136 H158 0.929 . S
C137 C132 1.373 . S
C137 C136 1.396 . S
C137 H159 0.929 . S
C138 O148 1.240 . S
C138 O149 1.289 . S
C139 O150 1.258 . S
C139 O151 1.256 . S
O140 La120 2.521 . S
O140 C122 1.261 . S
O141 La120 2.628 . S
O141 C122 1.243 . S
O142 La120 2.554 . S
O142 C129 1.240 . S
O143 La120 2.757 . S
O143 La121 2.482 . S
O143 C129 1.289 . S
O144 La120 2.470 . S
O144 C130 1.258 . S
O145 La121 2.503 . S
O145 C130 1.256 . S
O146 La121 2.521 . S
O146 C131 1.261 . S
O147 La121 2.628 . S
O147 C131 1.243 . S
O148 La121 2.554 . S
O148 C138 1.240 . S
O149 La120 2.482 . S
O149 La121 2.757 . S
O149 C138 1.289 . S
O150 La121 2.470 . S
O150 C139 1.258 . S
O151 La120 2.503 . S
O151 C139 1.256 . S
H152 C124 0.930 . S
H153 C125 0.930 . S
H154 C127 0.929 . S
H155 C128 0.930 1_554 S
H156 C133 0.930 . S
H157 C134 0.930 . S
H158 C136 0.929 . S
H159 C137 0.929 . S
La160 C162 2.928 . S
La160 O180 2.521 . S
La160 O181 2.628 . S
La160 O182 2.554 . S
La160 O183 2.757 . S
La160 O184 2.470 . S
La160 O189 2.482 . S
La160 O191 2.503 . S
La161 C171 2.928 . S
La161 O183 2.482 . S
La161 O185 2.503 . S
La161 O186 2.521 . S
La161 O187 2.628 . S
La161 O188 2.554 . S
La161 O189 2.757 . S
La161 O190 2.470 . S
C162 La160 2.928 . S
C162 C163 1.503 . S
C162 O180 1.261 . S
C162 O181 1.243 . S
C163 C162 1.503 . S
C163 C164 1.394 . S
C163 C168 1.373 . S
C164 C163 1.394 . S
C164 C165 1.380 . S
C164 H192 0.930 . S
C165 C164 1.380 . S
C165 C166 1.376 . S
C165 H193 0.930 . S
C166 C165 1.376 . S
C166 C167 1.370 . S
C167 C166 1.370 . S
C167 C168 1.396 . S
C167 H194 0.929 . S
C168 C163 1.373 . S
C168 C167 1.396 . S
C168 H195 0.929 . S
C169 O182 1.240 . S
C169 O183 1.289 . S
C170 O184 1.258 . S
C170 O185 1.256 . S
C171 La161 2.928 . S
C171 C172 1.503 . S
C171 O186 1.261 . S
C171 O187 1.243 . S
C172 C171 1.503 . S
C172 C173 1.394 . S
C172 C177 1.373 . S
C173 C172 1.394 . S
C173 C174 1.380 . S
C173 H196 0.930 . S
C174 C173 1.380 . S
C174 C175 1.376 . S
C174 H197 0.930 . S
C175 C174 1.376 . S
C175 C176 1.370 . S
C176 C175 1.370 . S
C176 C177 1.396 . S
C176 H198 0.929 . S
C177 C172 1.373 . S
C177 C176 1.396 . S
C177 H199 0.929 . S
C178 O188 1.240 . S
C178 O189 1.289 . S
C179 O190 1.258 . S
C179 O191 1.256 . S
O180 La160 2.521 . S
O180 C162 1.261 . S
O181 La160 2.628 . S
O181 C162 1.243 . S
O182 La160 2.554 . S
O182 C169 1.240 . S
O183 La160 2.757 . S
O183 La161 2.482 . S
O183 C169 1.289 . S
O184 La160 2.470 . S
O184 C170 1.258 . S
O185 La161 2.503 . S
O185 C170 1.256 . S
O186 La161 2.521 . S
O186 C171 1.261 . S
O187 La161 2.628 . S
O187 C171 1.243 . S
O188 La161 2.554 . S
O188 C178 1.240 . S
O189 La160 2.482 . S
O189 La161 2.757 . S
O189 C178 1.289 . S
O190 La161 2.470 . S
O190 C179 1.258 . S
O191 La160 2.503 . S
O191 C179 1.256 . S
H192 C164 0.930 . S
H193 C165 0.930 . S
H194 C167 0.929 . S
H195 C168 0.929 . S
H196 C173 0.930 . S
H197 C174 0.930 . S
H198 C176 0.929 . S
H199 C177 0.929 . S
La200 C202 2.928 . S
La200 O220 2.521 . S
La200 O221 2.628 . S
La200 O222 2.554 . S
La200 O223 2.757 . S
La200 O224 2.470 . S
La200 O229 2.482 . S
La200 O231 2.503 . S
La201 C211 2.928 . S
La201 O223 2.482 . S
La201 O225 2.503 . S
La201 O226 2.521 . S
La201 O227 2.628 . S
La201 O228 2.554 . S
La201 O229 2.757 . S
La201 O230 2.470 . S
C202 La200 2.928 . S
C202 C203 1.503 . S
C202 O220 1.261 . S
C202 O221 1.243 . S
C203 C202 1.503 . S
C203 C204 1.394 . S
C203 C208 1.373 . S
C204 C203 1.394 . S
C204 C205 1.380 . S
C204 H232 0.930 . S
C205 C204 1.380 . S
C205 C206 1.376 . S
C205 H233 0.930 . S
C206 C205 1.376 . S
C206 C207 1.370 . S
C207 C206 1.370 . S
C207 C208 1.396 . S
C207 H234 0.929 . S
C208 C203 1.373 . S
C208 C207 1.396 . S
C208 H235 0.929 . S
C209 O222 1.240 . S
C209 O223 1.289 . S
C210 O224 1.258 . S
C210 O225 1.256 . S
C211 La201 2.928 . S
C211 C212 1.503 . S
C211 O226 1.261 . S
C211 O227 1.243 . S
C212 C211 1.503 . S
C212 C213 1.394 . S
C212 C217 1.373 . S
C213 C212 1.394 . S
C213 C214 1.380 . S
C213 H236 0.930 . S
C214 C213 1.380 . S
C214 C215 1.376 . S
C214 H237 0.930 . S
C215 C214 1.376 . S
C215 C216 1.370 . S
C216 C215 1.370 . S
C216 C217 1.396 . S
C216 H238 0.929 . S
C217 C212 1.373 . S
C217 C216 1.396 . S
C217 H239 0.929 . S
C218 O228 1.240 . S
C218 O229 1.289 . S
C219 O230 1.258 . S
C219 O231 1.256 . S
O220 La200 2.521 . S
O220 C202 1.261 . S
O221 La200 2.628 . S
O221 C202 1.243 . S
O222 La200 2.554 . S
O222 C209 1.240 . S
O223 La200 2.757 . S
O223 La201 2.482 . S
O223 C209 1.289 . S
O224 La200 2.470 . S
O224 C210 1.258 . S
O225 La201 2.503 . S
O225 C210 1.256 . S
O226 La201 2.521 . S
O226 C211 1.261 . S
O227 La201 2.628 . S
O227 C211 1.243 . S
O228 La201 2.554 . S
O228 C218 1.240 . S
O229 La200 2.482 . S
O229 La201 2.757 . S
O229 C218 1.289 . S
O230 La201 2.470 . S
O230 C219 1.258 . S
O231 La200 2.503 . S
O231 C219 1.256 . S
H232 C204 0.930 . S
H233 C205 0.930 . S
H234 C207 0.929 . S
H235 C208 0.929 . S
H236 C213 0.930 . S
H237 C214 0.930 . S
H238 C216 0.929 . S
H239 C217 0.929 . S
C240 C241 1.386 . S
C240 C242 1.383 . S
C240 H256 0.951 . S
C241 C240 1.386 . S
C241 C245 1.383 . S
C242 C240 1.383 . S
C242 C243 1.402 . S
C242 H257 0.951 . S
C243 C242 1.402 . S
C243 C244 1.375 . S
C243 C246 1.481 . S
C244 C243 1.375 . S
C244 C245 1.367 . S
C244 H258 0.951 . S
C245 C241 1.383 . S
C245 C244 1.367 . S
C245 H259 0.950 . S
C246 C243 1.481 . S
C246 C247 1.297 . S
C246 H260 0.950 . S
C247 C246 1.297 . S
C247 C248 1.479 . S
C247 H261 0.950 . S
C248 C247 1.479 . S
C248 C249 1.375 . S
C248 C254 1.404 . S
C249 C248 1.375 . S
C249 C250 1.369 . S
C249 H262 0.950 . S
C250 C249 1.369 . S
C250 C251 1.392 . S
C250 H263 0.951 . S
C251 C250 1.392 . S
C251 C253 1.384 . S
H252 C254 0.949 . S
C253 C251 1.384 . S
C253 C254 1.385 . S
C253 H255 0.950 . S
C254 C248 1.404 . S
C254 H252 0.949 . S
C254 C253 1.385 . S
H255 C253 0.950 . S
H256 C240 0.951 . S
H257 C242 0.951 . S
H258 C244 0.951 . S
H259 C245 0.950 . S
H260 C246 0.950 . S
H261 C247 0.950 . S
H262 C249 0.950 . S
H263 C250 0.951 . S
C264 C265 1.386 . S
C264 C266 1.383 . S
C264 H280 0.951 . S
C265 C264 1.386 . S
C265 C269 1.383 . S
C266 C264 1.383 . S
C266 C267 1.402 . S
C266 H281 0.951 . S
C267 C266 1.402 . S
C267 C268 1.375 . S
C267 C270 1.481 . S
C268 C267 1.375 . S
C268 C269 1.367 . S
C268 H282 0.951 . S
C269 C265 1.383 . S
C269 C268 1.367 . S
C269 H283 0.950 . S
C270 C267 1.481 . S
C270 C271 1.297 . S
C270 H284 0.950 . S
C271 C270 1.297 . S
C271 C272 1.479 . S
C271 H285 0.950 . S
C272 C271 1.479 . S
C272 C273 1.375 . S
C272 C278 1.404 . S
C273 C272 1.375 . S
C273 C274 1.369 . S
C273 H286 0.950 . S
C274 C273 1.369 . S
C274 C275 1.392 . S
C274 H287 0.951 . S
C275 C274 1.392 . S
C275 C277 1.384 . S
H276 C278 0.949 . S
C277 C275 1.384 . S
C277 C278 1.385 . S
C277 H279 0.950 . S
C278 C272 1.404 . S
C278 H276 0.949 . S
C278 C277 1.385 . S
H279 C277 0.950 . S
H280 C264 0.951 . S
H281 C266 0.951 . S
H282 C268 0.951 . S
H283 C269 0.950 . S
H284 C270 0.950 . S
H285 C271 0.950 . S
H286 C273 0.950 . S
H287 C274 0.951 . S
C288 C289 1.386 . S
C288 C290 1.383 . S
C288 H304 0.951 . S
C289 C288 1.386 . S
C289 C293 1.383 . S
C290 C288 1.383 . S
C290 C291 1.402 . S
C290 H305 0.951 . S
C291 C290 1.402 . S
C291 C292 1.375 . S
C291 C294 1.481 . S
C292 C291 1.375 . S
C292 C293 1.367 . S
C292 H306 0.951 . S
C293 C289 1.383 . S
C293 C292 1.367 . S
C293 H307 0.950 . S
C294 C291 1.481 . S
C294 C295 1.307 . S
C294 H308 0.950 . S
C295 C294 1.307 . S
C295 C296 1.471 1_554 S
C295 H309 0.948 1_554 S
C296 C295 1.471 1_556 S
C296 C297 1.375 . S
C296 C302 1.404 . S
C297 C296 1.375 . S
C297 C298 1.369 . S
C297 H310 0.950 . S
C298 C297 1.369 . S
C298 C299 1.392 . S
C298 H311 0.951 . S
C299 C298 1.392 . S
C299 C301 1.384 . S
H300 C302 0.949 . S
C301 C299 1.384 . S
C301 C302 1.385 . S
C301 H303 0.950 . S
C302 C296 1.404 . S
C302 H300 0.949 . S
C302 C301 1.385 . S
H303 C301 0.950 . S
H304 C288 0.951 . S
H305 C290 0.951 . S
H306 C292 0.951 . S
H307 C293 0.950 . S
H308 C294 0.950 . S
H309 C295 0.948 1_556 S
H310 C297 0.950 . S
H311 C298 0.951 . S
C312 C313 1.386 . S
C312 C314 1.383 . S
C312 H328 0.951 . S
C313 C312 1.386 . S
C313 C317 1.383 . S
C314 C312 1.383 . S
C314 C315 1.402 . S
C314 H329 0.951 . S
C315 C314 1.402 . S
C315 C316 1.375 . S
C315 C318 1.481 . S
C316 C315 1.375 . S
C316 C317 1.367 . S
C316 H330 0.951 . S
C317 C313 1.383 . S
C317 C316 1.367 . S
C317 H331 0.950 . S
C318 C315 1.481 . S
C318 C319 1.297 . S
C318 H332 0.950 . S
C319 C318 1.297 . S
C319 C320 1.479 . S
C319 H333 0.950 . S
C320 C319 1.479 . S
C320 C321 1.375 . S
C320 C326 1.404 . S
C321 C320 1.375 . S
C321 C322 1.369 . S
C321 H334 0.950 . S
C322 C321 1.369 . S
C322 C323 1.392 . S
C322 H335 0.951 . S
C323 C322 1.392 . S
C323 C325 1.384 . S
H324 C326 0.949 . S
C325 C323 1.384 . S
C325 C326 1.385 . S
C325 H327 0.950 . S
C326 C320 1.404 . S
C326 H324 0.949 . S
C326 C325 1.385 . S
H327 C325 0.950 . S
H328 C312 0.951 . S
H329 C314 0.951 . S
H330 C316 0.951 . S
H331 C317 0.950 . S
H332 C318 0.950 . S
H333 C319 0.950 . S
H334 C321 0.950 . S
H335 C322 0.951 . S
C336 C337 1.386 . S
C336 C338 1.383 . S
C336 H352 0.951 . S
C337 C336 1.386 . S
C337 C341 1.383 . S
C338 C336 1.383 . S
C338 C339 1.402 . S
C338 H353 0.951 . S
C339 C338 1.402 . S
C339 C340 1.375 . S
C339 C342 1.481 . S
C340 C339 1.375 . S
C340 C341 1.367 . S
C340 H354 0.951 . S
C341 C337 1.383 . S
C341 C340 1.367 . S
C341 H355 0.950 . S
C342 C339 1.481 . S
C342 C343 1.297 . S
C342 H356 0.950 . S
C343 C342 1.297 . S
C343 C344 1.479 . S
C343 H357 0.950 . S
C344 C343 1.479 . S
C344 C345 1.375 . S
C344 C350 1.404 . S
C345 C344 1.375 . S
C345 C346 1.369 . S
C345 H358 0.950 . S
C346 C345 1.369 . S
C346 C347 1.392 . S
C346 H359 0.951 . S
C347 C346 1.392 . S
C347 C349 1.384 . S
H348 C350 0.949 . S
C349 C347 1.384 . S
C349 C350 1.385 . S
C349 H351 0.950 . S
C350 C344 1.404 . S
C350 H348 0.949 . S
C350 C349 1.385 . S
H351 C349 0.950 . S
H352 C336 0.951 . S
H353 C338 0.951 . S
H354 C340 0.951 . S
H355 C341 0.950 . S
H356 C342 0.950 . S
H357 C343 0.950 . S
H358 C345 0.950 . S
H359 C346 0.951 . S
C360 C361 1.386 . S
C360 C362 1.383 . S
C360 H376 0.951 . S
C361 C360 1.386 . S
C361 C365 1.383 . S
C362 C360 1.383 . S
C362 C363 1.402 . S
C362 H377 0.951 . S
C363 C362 1.402 . S
C363 C364 1.375 . S
C363 C366 1.481 . S
C364 C363 1.375 . S
C364 C365 1.367 . S
C364 H378 0.951 . S
C365 C361 1.383 . S
C365 C364 1.367 . S
C365 H379 0.950 . S
C366 C363 1.481 . S
C366 C367 1.297 . S
C366 H380 0.950 . S
C367 C366 1.297 . S
C367 C368 1.479 . S
C367 H381 0.950 . S
C368 C367 1.479 . S
C368 C369 1.375 . S
C368 C374 1.404 . S
C369 C368 1.375 . S
C369 C370 1.369 . S
C369 H382 0.950 . S
C370 C369 1.369 . S
C370 C371 1.392 . S
C370 H383 0.951 . S
C371 C370 1.392 . S
C371 C373 1.384 . S
H372 C374 0.949 . S
C373 C371 1.384 . S
C373 C374 1.385 . S
C373 H375 0.950 . S
C374 C368 1.404 . S
C374 H372 0.949 . S
C374 C373 1.385 . S
H375 C373 0.950 . S
H376 C360 0.951 . S
H377 C362 0.951 . S
H378 C364 0.951 . S
H379 C365 0.950 . S
H380 C366 0.950 . S
H381 C367 0.950 . S
H382 C369 0.950 . S
H383 C370 0.951 . S
C384 C385 1.386 . S
C384 C386 1.383 . S
C384 H400 0.951 . S
C385 C384 1.386 . S
C385 C389 1.383 . S
C386 C384 1.383 . S
C386 C387 1.402 . S
C386 H401 0.951 . S
C387 C386 1.402 . S
C387 C388 1.375 . S
C387 C390 1.481 . S
C388 C387 1.375 . S
C388 C389 1.367 . S
C388 H402 0.951 . S
C389 C385 1.383 . S
C389 C388 1.367 . S
C389 H403 0.950 . S
C390 C387 1.481 . S
C390 C391 1.297 . S
C390 H404 0.950 . S
C391 C390 1.297 . S
C391 C392 1.479 . S
C391 H405 0.950 . S
C392 C391 1.479 . S
C392 C393 1.375 . S
C392 C398 1.404 . S
C393 C392 1.375 . S
C393 C394 1.369 . S
C393 H406 0.950 . S
C394 C393 1.369 . S
C394 C395 1.392 . S
C394 H407 0.951 . S
C395 C394 1.392 . S
C395 C397 1.384 . S
H396 C398 0.949 . S
C397 C395 1.384 . S
C397 C398 1.385 . S
C397 H399 0.950 . S
C398 C392 1.404 . S
C398 H396 0.949 . S
C398 C397 1.385 . S
H399 C397 0.950 . S
H400 C384 0.951 . S
H401 C386 0.951 . S
H402 C388 0.951 . S
H403 C389 0.950 . S
H404 C390 0.950 . S
H405 C391 0.950 . S
H406 C393 0.950 . S
H407 C394 0.951 . S
C408 C409 1.386 . S
C408 C410 1.383 . S
C408 H424 0.951 . S
C409 C408 1.386 . S
C409 C413 1.383 . S
C410 C408 1.383 . S
C410 C411 1.402 . S
C410 H425 0.951 . S
C411 C410 1.402 . S
C411 C412 1.375 . S
C411 C414 1.481 . S
C412 C411 1.375 . S
C412 C413 1.367 . S
C412 H426 0.951 . S
C413 C409 1.383 . S
C413 C412 1.367 . S
C413 H427 0.950 . S
C414 C411 1.481 . S
C414 C415 1.297 . S
C414 H428 0.950 . S
C415 C414 1.297 . S
C415 C416 1.479 . S
C415 H429 0.950 . S
C416 C415 1.479 . S
C416 C417 1.375 . S
C416 C422 1.404 1_455 S
C417 C416 1.375 . S
C417 C418 1.369 . S
C417 H430 0.950 . S
C418 C417 1.369 . S
C418 C419 1.392 1_455 S
C418 H431 0.951 . S
C419 C418 1.392 1_655 S
C419 C421 1.384 . S
H420 C422 0.949 . S
C421 C419 1.384 . S
C421 C422 1.385 . S
C421 H423 0.950 . S
C422 C416 1.404 1_655 S
C422 H420 0.949 . S
C422 C421 1.385 . S
H423 C421 0.950 . S
H424 C408 0.951 . S
H425 C410 0.951 . S
H426 C412 0.951 . S
H427 C413 0.950 . S
H428 C414 0.950 . S
H429 C415 0.950 . S
H430 C417 0.950 . S
H431 C418 0.951 . S
C432 C433 1.386 . S
C432 C434 1.383 1_545 S
C432 H448 0.951 . S
C433 C432 1.386 . S
C433 C437 1.383 . S
C434 C432 1.383 1_565 S
C434 C435 1.402 . S
C434 H449 0.951 . S
C435 C434 1.402 . S
C435 C436 1.375 1_565 S
C435 C438 1.481 . S
C436 C435 1.375 1_545 S
C436 C437 1.367 . S
C436 H450 0.951 . S
C437 C433 1.383 . S
C437 C436 1.367 . S
C437 H451 0.950 . S
C438 C435 1.481 . S
C438 C439 1.297 . S
C438 H452 0.950 . S
C439 C438 1.297 . S
C439 C440 1.479 . S
C439 H453 0.950 . S
C440 C439 1.479 . S
C440 C441 1.375 . S
C440 C446 1.404 . S
C441 C440 1.375 . S
C441 C442 1.369 . S
C441 H454 0.950 . S
C442 C441 1.369 . S
C442 C443 1.392 . S
C442 H455 0.951 . S
C443 C442 1.392 . S
C443 C445 1.384 . S
H444 C446 0.949 . S
C445 C443 1.384 . S
C445 C446 1.385 . S
C445 H447 0.950 . S
C446 C440 1.404 . S
C446 H444 0.949 . S
C446 C445 1.385 . S
H447 C445 0.950 . S
H448 C432 0.951 . S
H449 C434 0.951 . S
H450 C436 0.951 . S
H451 C437 0.950 . S
H452 C438 0.950 . S
H453 C439 0.950 . S
H454 C441 0.950 . S
H455 C442 0.951 . S
C456 C457 1.386 . S
C456 C458 1.383 . S
C456 H472 0.951 . S
C457 C456 1.386 . S
C457 C461 1.383 . S
C458 C456 1.383 . S
C458 C459 1.402 . S
C458 H473 0.951 . S
C459 C458 1.402 . S
C459 C460 1.375 . S
C459 C462 1.481 . S
C460 C459 1.375 . S
C460 C461 1.367 . S
C460 H474 0.951 . S
C461 C457 1.383 . S
C461 C460 1.367 . S
C461 H475 0.950 . S
C462 C459 1.481 . S
C462 C463 1.297 . S
C462 H476 0.950 . S
C463 C462 1.297 . S
C463 C464 1.479 . S
C463 H477 0.950 . S
C464 C463 1.479 . S
C464 C465 1.375 . S
C464 C470 1.404 . S
C465 C464 1.375 . S
C465 C466 1.369 . S
C465 H478 0.950 . S
C466 C465 1.369 . S
C466 C467 1.392 . S
C466 H479 0.951 . S
C467 C466 1.392 . S
C467 C469 1.384 . S
H468 C470 0.949 . S
C469 C467 1.384 . S
C469 C470 1.385 . S
C469 H471 0.950 . S
C470 C464 1.404 . S
C470 H468 0.949 . S
C470 C469 1.385 . S
H471 C469 0.950 . S
H472 C456 0.951 . S
H473 C458 0.951 . S
H474 C460 0.951 . S
H475 C461 0.950 . S
H476 C462 0.950 . S
H477 C463 0.950 . S
H478 C465 0.950 . S
H479 C466 0.951 . S
C480 C481 1.386 . S
C480 C482 1.383 . S
C480 H496 0.951 . S
C481 C480 1.386 . S
C481 C485 1.383 1_455 S
C482 C480 1.383 . S
C482 C483 1.401 1_455 S
C482 H497 0.951 . S
C483 C482 1.401 1_655 S
C483 C484 1.375 . S
C483 C486 1.481 . S
C484 C483 1.375 . S
C484 C485 1.367 . S
C484 H498 0.951 . S
C485 C481 1.383 1_655 S
C485 C484 1.367 . S
C485 H499 0.950 . S
C486 C483 1.481 . S
C486 C487 1.297 . S
C486 H500 0.950 . S
C487 C486 1.297 . S
C487 C488 1.479 . S
C487 H501 0.950 . S
C488 C487 1.479 . S
C488 C489 1.375 . S
C488 C494 1.404 . S
C489 C488 1.375 . S
C489 C490 1.369 . S
C489 H502 0.950 . S
C490 C489 1.369 . S
C490 C491 1.392 . S
C490 H503 0.951 . S
C491 C490 1.392 . S
C491 C493 1.384 . S
H492 C494 0.949 . S
C493 C491 1.384 . S
C493 C494 1.385 . S
C493 H495 0.950 . S
C494 C488 1.404 . S
C494 H492 0.949 . S
C494 C493 1.385 . S
H495 C493 0.950 . S
H496 C480 0.951 . S
H497 C482 0.951 . S
H498 C484 0.951 . S
H499 C485 0.950 . S
H500 C486 0.950 . S
H501 C487 0.950 . S
H502 C489 0.950 . S
H503 C490 0.951 . S
C504 C505 1.386 . S
C504 C506 1.382 1_565 S
C504 H520 0.951 . S
C505 C504 1.386 . S
C505 C509 1.383 1_565 S
C506 C504 1.382 1_545 S
C506 C507 1.409 . S
C506 H521 0.944 1_545 S
C507 C506 1.409 . S
C507 C508 1.375 . S
C507 C510 1.481 . S
C508 C507 1.375 . S
C508 C509 1.367 . S
C508 H522 0.951 . S
C509 C505 1.383 1_545 S
C509 C508 1.367 . S
C509 H523 0.950 . S
C510 C507 1.481 . S
C510 C511 1.297 . S
C510 H524 0.950 . S
C511 C510 1.297 . S
C511 C512 1.479 . S
C511 H525 0.950 . S
C512 C511 1.479 . S
C512 C513 1.375 . S
C512 C518 1.404 . S
C513 C512 1.375 . S
C513 C514 1.369 . S
C513 H526 0.950 . S
C514 C513 1.369 . S
C514 C515 1.392 . S
C514 H527 0.951 . S
C515 C514 1.392 . S
C515 C517 1.384 . S
H516 C518 0.949 . S
C517 C515 1.384 . S
C517 C518 1.385 . S
C517 H519 0.950 . S
C518 C512 1.404 . S
C518 H516 0.949 . S
C518 C517 1.385 . S
H519 C517 0.950 . S
H520 C504 0.951 . S
H521 C506 0.944 1_565 S
H522 C508 0.951 . S
H523 C509 0.950 . S
H524 C510 0.950 . S
H525 C511 0.950 . S
H526 C513 0.950 . S
H527 C514 0.951 . S
C528 C529 1.386 . S
C528 C530 1.383 . S
C528 H544 0.951 . S
C529 C528 1.386 . S
C529 C533 1.383 . S
C530 C528 1.383 . S
C530 C531 1.402 . S
C530 H545 0.951 . S
C531 C530 1.402 . S
C531 C532 1.375 . S
C531 C534 1.481 . S
C532 C531 1.375 . S
C532 C533 1.367 . S
C532 H546 0.951 . S
C533 C529 1.383 . S
C533 C532 1.367 . S
C533 H547 0.950 . S
C534 C531 1.481 . S
C534 C535 1.297 . S
C534 H548 0.950 . S
C535 C534 1.297 . S
C535 C536 1.479 . S
C535 H549 0.950 . S
C536 C535 1.479 . S
C536 C537 1.375 . S
C536 C542 1.404 . S
C537 C536 1.375 . S
C537 C538 1.369 . S
C537 H550 0.950 . S
C538 C537 1.369 . S
C538 C539 1.392 1_556 S
C538 H551 0.951 . S
C539 C538 1.392 1_554 S
C539 C541 1.384 . S
H540 C542 0.949 . S
C541 C539 1.384 . S
C541 C542 1.385 1_554 S
C541 H543 0.950 . S
C542 C536 1.404 . S
C542 H540 0.949 . S
C542 C541 1.385 1_556 S
H543 C541 0.950 . S
H544 C528 0.951 . S
H545 C530 0.951 . S
H546 C532 0.951 . S
H547 C533 0.950 . S
H548 C534 0.950 . S
H549 C535 0.950 . S
H550 C537 0.950 . S
H551 C538 0.951 . S
C552 C553 1.386 . S
C552 C554 1.383 . S
C552 H568 0.951 . S
C553 C552 1.386 . S
C553 C557 1.383 . S
C554 C552 1.383 . S
C554 C555 1.402 . S
C554 H569 0.951 . S
C555 C554 1.402 . S
C555 C556 1.375 . S
C555 C558 1.481 . S
C556 C555 1.375 . S
C556 C557 1.367 . S
C556 H570 0.951 . S
C557 C553 1.383 . S
C557 C556 1.367 . S
C557 H571 0.950 . S
C558 C555 1.481 . S
C558 C559 1.297 . S
C558 H572 0.950 . S
C559 C558 1.297 . S
C559 C560 1.479 1_655 S
C559 H573 0.950 . S
C560 C559 1.479 1_455 S
C560 C561 1.375 . S
C560 C566 1.404 . S
C561 C560 1.375 . S
C561 C562 1.369 . S
C561 H574 0.950 . S
C562 C561 1.369 . S
C562 C563 1.392 . S
C562 H575 0.951 . S
C563 C562 1.392 . S
C563 C565 1.384 . S
H564 C566 0.949 . S
C565 C563 1.384 . S
C565 C566 1.385 . S
C565 H567 0.950 . S
C566 C560 1.404 . S
C566 H564 0.949 . S
C566 C565 1.385 . S
H567 C565 0.950 . S
H568 C552 0.951 . S
H569 C554 0.951 . S
H570 C556 0.951 . S
H571 C557 0.950 . S
H572 C558 0.950 . S
H573 C559 0.950 . S
H574 C561 0.950 . S
H575 C562 0.951 . S
C576 C577 1.386 . S
C576 C578 1.383 . S
C576 H592 0.951 . S
C577 C576 1.386 . S
C577 C581 1.383 . S
C578 C576 1.383 . S
C578 C579 1.402 . S
C578 H593 0.951 1_565 S
C579 C578 1.402 . S
C579 C580 1.375 . S
C579 C582 1.481 . S
C580 C579 1.375 . S
C580 C581 1.367 . S
C580 H594 0.951 . S
C581 C577 1.383 . S
C581 C580 1.367 . S
C581 H595 0.950 . S
C582 C579 1.481 . S
C582 C583 1.297 1_565 S
C582 H596 0.950 . S
C583 C582 1.297 1_545 S
C583 C584 1.479 . S
C583 H597 0.950 . S
C584 C583 1.479 . S
C584 C585 1.375 . S
C584 C590 1.404 . S
C585 C584 1.375 . S
C585 C586 1.369 . S
C585 H598 0.950 . S
C586 C585 1.369 . S
C586 C587 1.392 . S
C586 H599 0.951 . S
C587 C586 1.392 . S
C587 C589 1.384 . S
H588 C590 0.949 . S
C589 C587 1.384 . S
C589 C590 1.385 . S
C589 H591 0.950 . S
C590 C584 1.404 . S
C590 H588 0.949 . S
C590 C589 1.385 . S
H591 C589 0.950 . S
H592 C576 0.951 . S
H593 C578 0.951 1_545 S
H594 C580 0.951 . S
H595 C581 0.950 . S
H596 C582 0.950 . S
H597 C583 0.950 . S
H598 C585 0.950 . S
H599 C586 0.951 . S
C600 C601 1.386 . S
C600 C602 1.383 . S
C600 H616 0.951 . S
C601 C600 1.386 . S
C601 C605 1.383 . S
C602 C600 1.383 . S
C602 C603 1.402 . S
C602 H617 0.951 . S
C603 C602 1.402 . S
C603 C604 1.375 . S
C603 C606 1.481 . S
C604 C603 1.375 . S
C604 C605 1.367 . S
C604 H618 0.951 . S
C605 C601 1.383 . S
C605 C604 1.367 . S
C605 H619 0.950 . S
C606 C603 1.481 . S
C606 C607 1.297 . S
C606 H620 0.950 . S
C607 C606 1.297 . S
C607 C608 1.479 . S
C607 H621 0.950 . S
C608 C607 1.479 . S
C608 C609 1.375 . S
C608 C614 1.404 . S
C609 C608 1.375 . S
C609 C610 1.383 . S
C609 H622 0.950 . S
C610 C609 1.383 . S
C610 C611 1.382 1_556 S
C610 H623 0.947 1_556 S
C611 C610 1.382 1_554 S
C611 C613 1.384 . S
H612 C614 0.949 . S
C613 C611 1.384 . S
C613 C614 1.385 1_554 S
C613 H615 0.950 . S
C614 C608 1.404 . S
C614 H612 0.949 . S
C614 C613 1.385 1_556 S
H615 C613 0.950 . S
H616 C600 0.951 . S
H617 C602 0.951 . S
H618 C604 0.951 . S
H619 C605 0.950 . S
H620 C606 0.950 . S
H621 C607 0.950 . S
H622 C609 0.950 . S
H623 C610 0.947 1_554 S
C624 C625 1.386 . S
C624 C626 1.383 . S
C624 H640 0.951 . S
C625 C624 1.386 . S
C625 C629 1.383 . S
C626 C624 1.383 . S
C626 C627 1.402 . S
C626 H641 0.951 1_455 S
C627 C626 1.402 . S
C627 C628 1.375 . S
C627 C630 1.481 . S
C628 C627 1.375 . S
C628 C629 1.367 . S
C628 H642 0.951 . S
C629 C625 1.383 . S
C629 C628 1.367 . S
C629 H643 0.950 . S
C630 C627 1.481 . S
C630 C631 1.297 1_455 S
C630 H644 0.950 . S
C631 C630 1.297 1_655 S
C631 C632 1.479 . S
C631 H645 0.950 . S
C632 C631 1.479 . S
C632 C633 1.375 . S
C632 C638 1.404 . S
C633 C632 1.375 . S
C633 C634 1.369 . S
C633 H646 0.950 . S
C634 C633 1.369 . S
C634 C635 1.392 . S
C634 H647 0.951 . S
C635 C634 1.392 . S
C635 C637 1.384 . S
H636 C638 0.949 1_455 S
C637 C635 1.384 . S
C637 C638 1.385 . S
C637 H639 0.950 . S
C638 C632 1.404 . S
C638 H636 0.949 1_655 S
C638 C637 1.385 . S
H639 C637 0.950 . S
H640 C624 0.951 . S
H641 C626 0.951 1_655 S
H642 C628 0.951 . S
H643 C629 0.950 . S
H644 C630 0.950 . S
H645 C631 0.950 . S
H646 C633 0.950 . S
H647 C634 0.951 . S
C648 C649 1.386 . S
C648 C650 1.383 . S
C648 H664 0.951 . S
C649 C648 1.386 . S
C649 C653 1.383 . S
C650 C648 1.383 . S
C650 C651 1.402 . S
C650 H665 0.951 . S
C651 C650 1.402 . S
C651 C652 1.375 . S
C651 C654 1.481 . S
C652 C651 1.375 . S
C652 C653 1.367 . S
C652 H666 0.951 . S
C653 C649 1.383 . S
C653 C652 1.367 . S
C653 H667 0.950 . S
C654 C651 1.481 . S
C654 C655 1.297 . S
C654 H668 0.950 . S
C655 C654 1.297 . S
C655 C656 1.479 1_545 S
C655 H669 0.950 1_545 S
C656 C655 1.479 1_565 S
C656 C657 1.375 . S
C656 C662 1.404 1_565 S
C657 C656 1.375 . S
C657 C658 1.369 . S
C657 H670 0.950 . S
C658 C657 1.369 . S
C658 C659 1.392 . S
C658 H671 0.951 . S
C659 C658 1.392 . S
C659 C661 1.384 . S
H660 C662 0.949 . S
C661 C659 1.384 . S
C661 C662 1.385 1_565 S
C661 H663 0.950 1_565 S
C662 C656 1.404 1_545 S
C662 H660 0.949 . S
C662 C661 1.385 1_545 S
H663 C661 0.950 1_545 S
H664 C648 0.951 . S
H665 C650 0.951 . S
H666 C652 0.951 . S
H667 C653 0.950 . S
H668 C654 0.950 . S
H669 C655 0.950 1_565 S
H670 C657 0.950 . S
H671 C658 0.951 . S
C241 C179 1.377 . S
C251 C6 1.385 . S
C265 C206 1.352 . S
C275 C59 1.379 . S
C289 C19 1.384 . S
C299 C86 1.327 . S
C313 C46 1.350 . S
C323 C139 1.378 . S
C337 C99 1.381 . S
C347 C166 1.342 . S
C361 C126 1.366 . S
C371 C219 1.375 . S
C385 C9 0.995 . S
C395 C138 1.041 . S
C409 C169 1.020 . S
C419 C58 0.994 . S
C433 C218 1.026 . S
C443 C89 1.074 . S
C457 C98 1.020 . S
C467 C209 1.077 . S
C481 C18 1.059 . S
C491 C129 0.892 . S
C505 C178 1.033 . S
C515 C49 0.995 . S
C529 C215 0.821 . S
C539 C15 0.842 . S
C553 C50 1.693 . S
C563 C10 1.709 . S
C577 C95 0.821 . S
C587 C55 0.841 . S
C601 C90 1.690 . S
C611 C130 1.702 . S
C625 C175 0.821 . S
C635 C135 0.841 . S
C649 C210 1.689 . S
C659 C170 1.704 . S
