# Generated by pormake.
# Topology fne, (5)-cn, num edge types: 1
# Building blocks:
#     Node 0, Type 0, BuildingBlock: XOMCOT_clean_sbu_0, # of connection points: 5
#     Node 1, Type 0, BuildingBlock: XOMCOT_clean_sbu_0, # of connection points: 5
#     Node 2, Type 0, BuildingBlock: XOMCOT_clean_sbu_0, # of connection points: 5
#     Node 3, Type 0, BuildingBlock: XOMCOT_clean_sbu_0, # of connection points: 5
#     Node 4, Type 0, BuildingBlock: XOMCOT_clean_sbu_0, # of connection points: 5
#     Node 5, Type 0, BuildingBlock: XOMCOT_clean_sbu_0, # of connection points: 5
#     Edge 6, Type (0, 0), BuildingBlock: FUNLAD_clean_linker_1, # of connection points: 2
#     Edge 7, Type (0, 0), BuildingBlock: FUNLAD_clean_linker_1, # of connection points: 2
#     Edge 8, Type (0, 0), BuildingBlock: FUNLAD_clean_linker_1, # of connection points: 2
#     Edge 9, Type (0, 0), BuildingBlock: FUNLAD_clean_linker_1, # of connection points: 2
#     Edge 10, Type (0, 0), BuildingBlock: FUNLAD_clean_linker_1, # of connection points: 2
#     Edge 11, Type (0, 0), BuildingBlock: FUNLAD_clean_linker_1, # of connection points: 2
#     Edge 12, Type (0, 0), BuildingBlock: FUNLAD_clean_linker_1, # of connection points: 2
#     Edge 13, Type (0, 0), BuildingBlock: FUNLAD_clean_linker_1, # of connection points: 2
#     Edge 14, Type (0, 0), BuildingBlock: FUNLAD_clean_linker_1, # of connection points: 2
#     Edge 15, Type (0, 0), BuildingBlock: FUNLAD_clean_linker_1, # of connection points: 2
#     Edge 16, Type (0, 0), BuildingBlock: FUNLAD_clean_linker_1, # of connection points: 2
#     Edge 17, Type (0, 0), BuildingBlock: FUNLAD_clean_linker_1, # of connection points: 2
#     Edge 18, Type (0, 0), BuildingBlock: FUNLAD_clean_linker_1, # of connection points: 2
#     Edge 19, Type (0, 0), BuildingBlock: FUNLAD_clean_linker_1, # of connection points: 2
#     Edge 20, Type (0, 0), BuildingBlock: FUNLAD_clean_linker_1, # of connection points: 2
# Relax obj value: 0.064
# Max RMSD: 0.097
# Mean RMSD: 0.097
data_MOF--net-fne--node1-XOMCOT_clean_sbu_0--edge1-FUNLAD_clean_linker_1
_symmetry_space_group_name_H-M    P1
_symmetry_Int_Tables_number       1
_symmetry_cell_setting            triclinic
loop_
_symmetry_equiv_pos_as_xyz
'x, y, z'
_cell_length_a     47.745079
_cell_length_b     48.205719
_cell_length_c     17.853123
_cell_angle_alpha  89.731991
_cell_angle_beta   89.707392
_cell_angle_gamma 119.43248
loop_
_atom_site_label
_atom_site_type_symbol
_atom_site_fract_x
_atom_site_fract_y
_atom_site_fract_z
_atom_type_partial_charge
Co0 Co 0.36682 0.07095 0.04787 0.0
C1 C 0.35698 0.05942 0.21474 0.0
C2 C 0.31296 0.04106 0.15363 0.0
C3 C 0.30565 0.03659 0.22882 0.0
N4 N 0.34511 0.05485 0.14422 0.0
N5 N 0.33324 0.04816 0.26729 0.0
H6 H 0.3822 0.0719 0.22781 0.0
H7 H 0.29597 0.03549 0.10864 0.0
C8 C 0.32287 1.00094 0.02473 0.0
O9 O 0.32945 0.99514 0.0924 0.0
N10 N 0.38768 0.08729 0.95185 0.0
C11 C 0.41908 0.10812 0.94052 0.0
C12 C 0.42508 0.11189 0.86455 0.0
C13 C 0.37489 0.07882 0.88272 0.0
N14 N 0.39737 0.09354 0.8283 0.0
C15 C 0.42288 0.07428 0.11637 0.0
C16 C 0.42536 0.02842 0.02883 0.0
C17 C 0.45051 0.0457 0.0784 0.0
C18 C 0.44891 0.06871 0.12328 0.0
C19 C 0.40007 0.03504 0.02289 0.0
N20 N 0.39844 0.05718 0.06766 0.0
H21 H 0.42333 0.09354 0.14778 0.0
H22 H 0.38299 0.0235 0.97878 0.0
H23 H 0.43655 0.1192 0.98448 0.0
H24 H 0.34994 0.06168 0.87271 0.0
O25 O 0.38928 0.11343 0.08967 0.0
O26 O 0.3419 0.09232 0.03391 0.0
O27 O 0.3363 0.02928 0.9982 0.0
C28 C 0.3648 0.11636 0.0686 0.0
H29 H 0.28187 0.02654 0.25363 0.0
H30 H 0.44819 0.12668 0.83778 0.0
H31 H 0.42602 1.01092 0.99206 0.0
H32 H 0.4677 0.08266 0.16271 0.0
Co33 Co 0.32599 0.33685 0.41059 0.0
C34 C 0.33643 0.33841 0.57226 0.0
C35 C 0.32237 0.29223 0.52699 0.0
C36 C 0.32387 0.2905 0.60374 0.0
N37 N 0.33018 0.32223 0.50774 0.0
N38 N 0.33245 0.31954 0.63172 0.0
H39 H 0.3419 0.36299 0.57597 0.0
H40 H 0.31465 0.27264 0.48837 0.0
C41 C 0.35582 0.3089 0.30618 0.0
O42 O 0.36979 0.33546 0.26674 0.0
N43 N 0.32069 0.35079 0.31236 0.0
C44 C 0.32685 0.37996 0.28907 0.0
C45 C 0.31958 0.37859 0.21426 0.0
C46 C 0.30808 0.33184 0.25244 0.0
N47 N 0.30817 0.34834 0.19142 0.0
C48 C 0.37599 0.40175 0.42783 0.0
C49 C 0.42757 0.39092 0.42257 0.0
C50 C 0.43363 0.42242 0.42645 0.0
C51 C 0.40719 0.42755 0.43134 0.0
C52 C 0.39587 0.36576 0.41911 0.0
N53 N 0.37052 0.37147 0.41695 0.0
H54 H 0.35617 0.40626 0.43523 0.0
H55 H 0.39195 0.34174 0.41972 0.0
H56 H 0.33567 0.40092 0.32305 0.0
H57 H 0.30016 0.30659 0.25258 0.0
O58 O 0.30429 0.35781 0.45539 0.0
O59 O 0.28 0.30806 0.41506 0.0
O60 O 0.33898 0.30646 0.3643 0.0
C61 C 0.27767 0.33116 0.44634 0.0
H62 H 0.31809 0.26933 0.63621 0.0
H63 H 0.32279 0.39841 0.17955 0.0
H64 H 0.44721 0.38571 0.42246 0.0
H65 H 0.41026 0.45109 0.43978 0.0
Co66 Co 1.01679 0.31836 0.76513 0.0
C67 C 1.02143 0.31104 0.9325 0.0
C68 C 0.06751 0.33731 0.87848 0.0
C69 C 0.07218 0.3362 0.95407 0.0
N70 N 0.03571 0.32132 0.86412 0.0
N71 N 0.04335 0.31982 0.98823 0.0
H72 H 0.99572 0.29826 0.94167 0.0
H73 H 0.08631 0.34999 0.83738 0.0
C74 C 0.07303 0.33252 0.65474 0.0
O75 O 0.05991 0.33835 0.5968 0.0
N76 N 0.99729 0.31558 0.66741 0.0
C77 C 0.98025 0.33024 0.65057 0.0
C78 C 0.97046 0.3241 0.57739 0.0
C79 C 0.99625 0.29934 0.60453 0.0
N80 N 0.98109 0.30533 0.5478 0.0
C81 C 1.01833 0.37303 0.82804 0.0
C82 C 0.05265 0.41625 0.71551 0.0
C83 C 0.03905 0.42561 0.77328 0.0
C84 C 1.02217 0.40364 0.83049 0.0
C85 C 0.04807 0.38521 0.71501 0.0
N86 N 0.03051 0.36376 0.77003 0.0
H87 H 1.00429 0.35622 0.87161 0.0
H88 H 0.05724 0.37831 0.66819 0.0
H89 H 0.97573 0.345 0.68867 0.0
H90 H 1.00739 0.28455 0.59952 0.0
O91 O 0.97467 0.30245 0.80934 0.0
O92 O 0.99495 0.27207 0.77226 0.0
O93 O 0.0594 0.32599 0.71942 0.0
C94 C 0.97107 0.2741 0.80238 0.0
H95 H 0.09512 0.34741 0.98231 0.0
H96 H 0.95767 0.33388 0.54701 0.0
H97 H 0.06531 0.43198 0.66897 0.0
H98 H 1.01125 0.40982 0.8761 0.0
Co99 Co 0.74169 0.9996 0.09911 0.0
C100 C 0.74184 1.00985 0.26227 0.0
C101 C 0.78847 0.03878 0.21369 0.0
C102 C 0.79108 0.04179 0.29036 0.0
N103 N 0.75738 0.01921 0.1958 0.0
N104 N 0.76163 0.02342 0.3203 0.0
H105 H 0.71736 0.99097 0.26949 0.0
H106 H 0.80842 0.04834 0.17454 0.0
C107 C 0.78761 0.06768 0.0537 0.0
O108 O 0.77315 0.07765 0.10043 0.0
N109 N 0.72693 0.97989 1.00349 0.0
C110 C 0.69627 0.96114 0.98208 0.0
C111 C 0.69613 0.95614 0.90609 0.0
C112 C 0.74502 0.98554 0.9414 0.0
N113 N 0.72686 0.97176 0.88103 0.0
C114 C 0.68758 1.00654 0.14311 0.0
C115 C 0.68908 0.0439 0.02391 0.0
C116 C 0.66444 0.03447 0.07757 0.0
C117 C 0.66412 0.01569 0.1381 0.0
C118 C 0.7122 0.03414 0.03115 0.0
N119 N 0.71202 0.0166 0.09186 0.0
H120 H 0.685 0.9901 0.18683 0.0
H121 H 0.72973 0.04003 0.98676 0.0
H122 H 0.67546 0.95307 0.01839 0.0
H123 H 0.77083 1.001 0.93935 0.0
O124 O 0.71319 0.95941 0.14772 0.0
O125 O 0.76365 0.97522 0.11434 0.0
O126 O 0.778 0.03798 0.04712 0.0
C127 C 0.737 0.95357 0.14537 0.0
H128 H 0.81313 0.05504 0.32133 0.0
H129 H 0.67504 0.94311 0.87187 0.0
H130 H 0.68994 0.05798 0.97556 0.0
H131 H 0.64589 1.00779 0.18157 0.0
Co132 Co 0.76612 0.71327 0.43094 0.0
C133 C 0.74936 0.7154 0.59182 0.0
C134 C 0.78282 0.76132 0.54679 0.0
C135 C 0.77974 0.76435 0.62253 0.0
N136 N 0.76367 0.73066 0.5272 0.0
N137 N 0.75882 0.73539 0.65053 0.0
H138 H 0.73421 0.69002 0.59775 0.0
H139 H 0.79916 0.77994 0.50903 0.0
C140 C 0.74733 0.76302 0.39481 0.0
O141 O 0.72733 0.75331 0.4522 0.0
N142 N 0.76952 0.69665 0.33435 0.0
C143 C 0.7782 0.67437 0.32035 0.0
C144 C 0.77958 0.67116 0.24397 0.0
C145 C 0.76521 0.70618 0.26612 0.0
N146 N 0.77111 0.69092 0.21038 0.0
C147 C 0.70763 0.65735 0.47269 0.0
C148 C 0.66759 0.66373 0.37163 0.0
C149 C 0.65503 0.63633 0.41687 0.0
C150 C 0.6755 0.63358 0.46865 0.0
C151 C 0.70006 0.68703 0.37736 0.0
N152 N 0.71963 0.68415 0.4289 0.0
H153 H 0.723 0.6535 0.51023 0.0
H154 H 0.70942 0.70658 0.33794 0.0
H155 H 0.78377 0.66159 0.36219 0.0
H156 H 0.75886 0.72455 0.25681 0.0
O157 O 0.77911 0.68592 0.48185 0.0
O158 O 0.81261 0.73475 0.44106 0.0
O159 O 0.76324 0.74898 0.37811 0.0
C160 C 0.80845 0.70913 0.47553 0.0
H161 H 0.79266 0.78592 0.65475 0.0
H162 H 0.78651 0.65571 0.2152 0.0
H163 H 0.6527 0.66661 0.33018 0.0
H164 H 0.66706 0.61322 0.50591 0.0
Co165 Co 0.09159 0.76266 0.72328 0.0
C166 C 0.08071 0.75984 0.88992 0.0
C167 C 0.05183 0.77489 0.82942 0.0
C168 C 0.04736 0.77719 0.90478 0.0
N169 N 0.07213 0.76322 0.81951 0.0
N170 N 0.06554 0.76783 0.94283 0.0
H171 H 0.09922 0.75398 0.90246 0.0
H172 H 0.04223 0.78292 0.78485 0.0
C173 C 1.02085 0.73102 0.68997 0.0
O174 O 1.01468 0.71353 0.75096 0.0
N175 N 0.11125 0.76299 0.6277 0.0
C176 C 0.1359 0.75723 0.61765 0.0
C177 C 0.14117 0.75649 0.54199 0.0
C178 C 0.10188 0.76578 0.55792 0.0
N179 N 0.11985 0.76183 0.50449 0.0
C180 C 0.09829 0.71196 0.78929 0.0
C181 C 0.05898 0.66465 0.6915 0.0
C182 C 0.07572 0.65769 0.74616 0.0
C183 C 0.09559 0.68187 0.79509 0.0
C184 C 0.06264 0.69531 0.68711 0.0
N185 N 0.08142 0.7184 0.73706 0.0
H186 H 0.11555 0.73054 0.82425 0.0
H187 H 0.05163 0.70077 0.64092 0.0
H188 H 0.14848 0.75284 0.6623 0.0
H189 H 0.08178 0.76957 0.54663 0.0
O190 O 0.13355 0.78373 0.76932 0.0
O191 O 0.1096 0.80841 0.71761 0.0
O192 O 0.04981 0.75044 0.67042 0.0
C193 C 0.13413 0.81037 0.75353 0.0
H194 H 0.03301 0.78652 0.92983 0.0
H195 H 0.15886 0.7516 0.51627 0.0
H196 H 0.04456 0.64727 0.64994 0.0
H197 H 0.10973 0.67782 0.83652 0.0
H198 H 0.47389 0.01621 0.06273 0.0
C199 C 0.47816 0.03956 0.0801 0.0
H200 H 0.51374 0.08576 0.11249 0.0
H201 H 0.61098 0.04329 0.23544 0.0
H202 H 0.59406 0.0576 0.35034 0.0
H203 H 0.55015 0.07063 0.3501 0.0
H204 H 0.52296 0.06957 0.23492 0.0
C205 C 0.50844 0.062 0.09637 0.0
C206 C 0.53557 0.05487 0.09534 0.0
C207 C 0.55123 0.05558 0.16314 0.0
C208 C 0.57627 0.04763 0.16344 0.0
C209 C 0.59153 0.04868 0.23207 0.0
C210 C 0.58212 0.05694 0.29845 0.0
C211 C 0.55743 0.06432 0.2983 0.0
C212 C 0.54206 0.06366 0.23169 0.0
H213 H 0.64565 0.06583 0.03707 0.0
C214 C 0.63952 0.0444 0.06941 0.0
H215 H 0.60261 1.00574 0.13009 0.0
H216 H 0.51434 0.05607 0.95367 0.0
H217 H 0.53054 0.0408 0.83915 0.0
H218 H 0.57126 0.02343 0.84103 0.0
H219 H 0.59649 0.02181 0.95719 0.0
C220 C 0.60967 0.0276 0.09899 0.0
C221 C 0.58562 0.03884 0.09601 0.0
C222 C 0.5704 0.03871 0.02785 0.0
C223 C 0.54583 0.04737 0.02729 0.0
C224 C 0.53215 0.04847 0.9579 0.0
C225 C 0.54139 0.03997 0.89161 0.0
C226 C 0.56439 0.03029 0.89263 0.0
C227 C 0.5788 0.0296 0.95975 0.0
H228 H 0.60378 0.61791 0.3873 0.0
C229 C 0.62079 0.61108 0.40896 0.0
H230 H 0.6269 0.5725 0.44514 0.0
H231 H 0.48491 0.48368 0.55613 0.0
H232 H 0.51264 0.50096 0.67439 0.0
H233 H 0.56944 0.54319 0.67856 0.0
H234 H 0.59879 0.56855 0.56443 0.0
C235 C 0.61034 0.58014 0.42508 0.0
C236 C 0.57571 0.55529 0.42141 0.0
C237 C 0.55897 0.54027 0.48855 0.0
C238 C 0.52631 0.51555 0.48608 0.0
C239 C 0.50995 0.5019 0.55437 0.0
C240 C 0.52552 0.51175 0.62282 0.0
C241 C 0.55749 0.53554 0.62517 0.0
C242 C 0.57409 0.54982 0.55912 0.0
H243 H 0.4861 0.44327 0.44453 0.0
C244 C 0.46748 0.44903 0.42954 0.0
H245 H 0.45883 0.48594 0.39242 0.0
H246 H 0.6012 0.57735 0.28158 0.0
H247 H 0.57339 0.56021 0.16335 0.0
H248 H 0.51657 0.51801 0.15924 0.0
H249 H 0.48727 0.49251 0.27343 0.0
C250 C 0.47629 0.47958 0.413 0.0
C251 C 0.51053 0.50546 0.41623 0.0
C252 C 0.52717 0.52068 0.34914 0.0
C253 C 0.55986 0.5454 0.35159 0.0
C254 C 0.57618 0.55912 0.28334 0.0
C255 C 0.56054 0.54936 0.21492 0.0
C256 C 0.52856 0.52557 0.2126 0.0
C257 C 0.512 0.51121 0.27865 0.0
H258 H 1.0211 0.45831 0.80581 0.0
C259 C 0.0396 0.45678 0.77321 0.0
H260 H 0.08045 0.48257 0.70346 0.0
H261 H 0.04612 0.58548 0.58742 0.0
H262 H 0.04327 0.557 0.47373 0.0
H263 H 0.047 0.50777 0.47798 0.0
H264 H 0.05398 0.48691 0.59585 0.0
C265 C 0.06151 0.48303 0.7363 0.0
C266 C 0.05919 0.51289 0.73473 0.0
C267 C 0.05458 0.52456 0.6654 0.0
C268 C 0.05171 0.55261 0.66312 0.0
C269 C 0.04791 0.56404 0.59276 0.0
C270 C 0.04629 0.54795 0.52692 0.0
C271 C 0.04843 0.52026 0.5293 0.0
C272 C 0.05251 0.50859 0.59747 0.0
H273 H 0.09617 0.62669 0.7752 0.0
C274 C 0.07548 0.62673 0.75001 0.0
H275 H 0.02985 0.59789 0.7019 0.0
H276 H 0.07294 0.50038 0.87579 0.0
H277 H 0.07222 0.52672 0.99045 0.0
H278 H 0.06047 0.57115 0.9882 0.0
H279 H 0.05041 0.59014 0.87102 0.0
C280 C 0.051 0.59883 0.72674 0.0
C281 C 0.0529 0.56877 0.73028 0.0
C282 C 0.05656 0.55655 0.79992 0.0
C283 C 0.061 0.52941 0.80182 0.0
C284 C 0.06751 0.51962 0.87144 0.0
C285 C 0.06747 0.53472 0.9377 0.0
C286 C 0.06103 0.55984 0.93639 0.0
C287 C 0.0556 0.57071 0.86855 0.0
H288 H 0.31276 0.04065 0.37989 0.0
C289 C 0.33508 0.0496 0.34812 0.0
H290 H 0.3857 0.07188 0.35634 0.0
H291 H 0.38732 0.13364 0.67075 0.0
H292 H 0.40878 0.17989 0.58899 0.0
H293 H 0.41005 0.17424 0.45199 0.0
H294 H 0.38955 0.12221 0.3959 0.0
C295 C 0.36288 0.06182 0.38607 0.0
C296 C 0.3634 0.06491 0.46963 0.0
C297 C 0.37645 0.09557 0.502 0.0
C298 C 0.37649 0.0989 0.58135 0.0
C299 C 0.38795 0.12973 0.61134 0.0
C300 C 0.40004 0.15652 0.56493 0.0
C301 C 0.4007 0.15334 0.48779 0.0
C302 C 0.38893 0.1233 0.45636 0.0
H303 H 0.41647 0.10108 0.71437 0.0
C304 C 0.3945 0.09017 0.74789 0.0
H305 H 0.34378 0.06336 0.74426 0.0
H306 H 0.33782 1.00269 0.42704 0.0
H307 H 0.31538 0.95628 0.50871 0.0
H308 H 0.31517 0.962 0.64588 0.0
H309 H 0.33756 0.01413 0.70232 0.0
C310 C 0.36609 0.07486 0.71238 0.0
C311 C 0.36443 0.07158 0.62877 0.0
C312 C 0.35086 0.04087 0.59633 0.0
C313 C 0.35057 0.03754 0.5169 0.0
C314 C 0.33789 1.00661 0.48664 0.0
C315 C 0.32513 0.97974 0.53294 0.0
C316 C 0.32505 0.98296 0.61018 0.0
C317 C 0.33792 1.01308 0.64183 0.0
H318 H 0.34473 0.35399 0.72122 0.0
C319 C 0.33374 0.32874 0.7085 0.0
H320 H 0.30642 0.28198 0.75226 0.0
H321 H 0.37285 0.37183 0.05271 0.0
H322 H 0.42302 0.37718 1.00569 0.0
H323 H 0.42547 0.35498 0.88314 0.0
H324 H 0.37773 0.32734 0.8069 0.0
C325 C 0.31949 0.30729 0.76383 0.0
C326 C 0.31759 0.31795 0.84046 0.0
C327 C 0.34568 0.33374 0.88444 0.0
C328 C 0.34418 0.34621 0.95526 0.0
C329 C 0.37259 0.36195 0.99826 0.0
C330 C 0.40157 0.36513 0.97204 0.0
C331 C 0.40295 0.35266 0.90303 0.0
C332 C 0.37541 0.33703 0.85961 0.0
H333 H 0.29103 0.3105 0.1089 0.0
C334 C 0.30197 0.33611 0.11654 0.0
H335 H 0.32647 0.38107 0.06275 0.0
H336 H 0.25911 0.28785 0.77077 0.0
H337 H 0.2087 0.28158 0.81897 0.0
H338 H 0.20611 0.30318 0.94221 0.0
H339 H 0.25399 0.33127 0.018 0.0
C340 C 0.31337 0.3554 0.05646 0.0
C341 C 0.31449 0.34238 0.98225 0.0
C342 C 0.28625 0.3259 0.93913 0.0
C343 C 0.28778 0.31355 0.86808 0.0
C344 C 0.25932 0.29759 0.82537 0.0
C345 C 0.23021 0.29386 0.85229 0.0
C346 C 0.22876 0.30601 0.92171 0.0
C347 C 0.25638 0.32197 0.96478 0.0
H348 H 0.06071 0.32512 0.10282 0.0
C349 C 0.03918 0.31557 0.06867 0.0
H350 H 0.98839 0.29119 0.072 0.0
H351 H 0.97535 0.23461 0.40026 0.0
H352 H 0.95496 0.1867 0.32519 0.0
H353 H 0.95939 0.19011 0.18731 0.0
H354 H 0.98405 0.24133 0.12339 0.0
C355 C 1.01042 0.30174 0.10403 0.0
C356 C 1.00807 0.29978 0.18821 0.0
C357 C 0.99418 0.26972 0.22518 0.0
C358 C 0.99205 0.26774 0.30509 0.0
C359 C 0.97768 0.23739 0.33997 0.0
C360 C 0.96593 0.20975 0.29757 0.0
C361 C 0.96842 0.21166 0.21991 0.0
C362 C 0.98252 0.24122 0.18389 0.0
H363 H 0.96202 0.30101 0.43533 0.0
C364 C 0.97947 0.29822 0.46879 0.0
H365 H 1.02062 0.29254 0.46344 0.0
H366 H 0.03252 0.36117 0.13712 0.0
H367 H 0.05419 0.40885 0.2123 0.0
H368 H 0.05424 0.40557 0.35019 0.0
H369 H 0.03202 0.3545 0.4138 0.0
C370 C 1.00186 0.29397 0.43248 0.0
C371 C 1.00417 0.29581 0.34846 0.0
C372 C 1.01841 0.32592 0.31164 0.0
C373 C 1.01966 0.32788 0.23176 0.0
C374 C 0.03221 0.35824 0.19724 0.0
C375 C 0.04451 0.38586 0.23979 0.0
C376 C 0.04444 0.38401 0.31743 0.0
C377 C 0.03152 0.35449 0.35322 0.0
H378 H 0.76468 0.98902 0.79629 0.0
C379 C 0.73882 0.97779 0.80541 0.0
H380 H 0.69397 0.96338 0.75356 0.0
H381 H 0.79272 0.07394 0.51782 0.0
H382 H 0.79557 0.11055 0.61439 0.0
H383 H 0.76973 0.09053 0.73776 0.0
H384 H 0.7413 0.03394 0.76571 0.0
C385 C 0.71981 0.97394 0.7469 0.0
C386 C 0.73408 0.98593 0.6718 0.0
C387 C 0.75049 0.01917 0.65658 0.0
C388 C 0.76483 0.03068 0.58511 0.0
C389 C 0.78119 0.06394 0.57114 0.0
C390 C 0.78296 0.0852 0.62598 0.0
C391 C 0.76843 0.07393 0.69545 0.0
C392 C 0.75238 0.04135 0.71094 0.0
H393 H 0.72674 1.00207 0.41077 0.0
C394 C 0.75231 0.01525 0.39726 0.0
H395 H 0.79927 0.03369 0.44101 0.0
H396 H 0.70411 0.92097 0.68349 0.0
H397 H 0.70041 0.88429 0.58615 0.0
H398 H 0.72513 0.90421 0.4618 0.0
H399 H 0.75411 0.9609 0.4343 0.0
C400 C 0.77357 0.02074 0.45175 0.0
C401 C 0.76188 1.0089 0.52869 0.0
C402 C 0.74565 0.97568 0.54411 0.0
C403 C 0.73155 0.96418 0.61576 0.0
C404 C 0.71527 0.93094 0.62983 0.0
C405 C 0.71299 0.90964 0.57453 0.0
C406 C 0.72691 0.92086 0.50451 0.0
C407 C 0.74326 0.95346 0.4893 0.0
H408 H 0.72788 0.70491 0.7407 0.0
C409 C 0.75055 0.72621 0.72777 0.0
H410 H 0.79431 0.76247 0.77056 0.0
H411 H 0.75988 0.76233 0.10731 0.0
H412 H 0.76976 0.81427 0.06621 0.0
H413 H 0.7759 0.8285 0.93199 0.0
H414 H 0.7731 0.79108 0.83807 0.0
C415 C 0.77141 0.74148 0.78324 0.0
C416 C 0.76421 0.73117 0.86332 0.0
C417 C 0.76484 0.75293 0.91749 0.0
C418 C 0.76023 0.74432 0.99481 0.0
C419 C 0.76247 0.76716 0.04774 0.0
C420 C 0.76817 0.79718 0.02495 0.0
C421 C 0.77173 0.80522 0.94941 0.0
C422 C 0.77016 0.78351 0.89609 0.0
H423 H 0.78785 0.6924 0.09605 0.0
C424 C 0.77153 0.69645 0.1311 0.0
H425 H 0.73528 0.70928 0.13429 0.0
H426 H 0.76627 0.68491 0.77714 0.0
H427 H 0.75097 0.63121 0.81642 0.0
H428 H 0.73401 0.61353 0.94683 0.0
H429 H 0.7337 0.65006 0.03927 0.0
C430 C 0.75194 0.70574 0.0994 0.0
C431 C 0.754 0.71356 0.01776 0.0
C432 C 0.7511 0.69104 0.96298 0.0
C433 C 0.75793 0.70036 0.88636 0.0
C434 C 0.75887 0.67854 0.83482 0.0
C435 C 0.75049 0.64765 0.85683 0.0
C436 C 0.74115 0.63776 0.93031 0.0
C437 C 0.74142 0.65909 0.98299 0.0
H438 H 0.13109 0.75317 0.39141 0.0
C439 C 0.1166 0.76057 0.42394 0.0
H440 H 0.08277 0.77679 0.41716 0.0
H441 H 0.12273 0.82122 0.07674 0.0
H442 H 0.15106 0.87217 0.13888 0.0
H443 H 0.15351 0.87525 0.27677 0.0
H444 H 0.12772 0.82727 0.35344 0.0
C445 C 0.09662 0.76803 0.38716 0.0
C446 C 0.09424 0.76604 0.30357 0.0
C447 C 0.10873 0.79428 0.2594 0.0
C448 C 0.10696 0.79251 0.1797 0.0
C449 C 0.12261 0.82113 0.13731 0.0
C450 C 0.13914 0.85057 0.17229 0.0
C451 C 0.14058 0.8523 0.24992 0.0
C452 C 0.12564 0.82457 0.29325 0.0
H453 H 0.05652 0.7792 0.05535 0.0
C454 C 0.06929 0.76969 0.02326 0.0
H455 H 0.09982 0.74956 0.03088 0.0
H456 H 0.06221 0.70736 0.37098 0.0
H457 H 0.03428 0.65631 0.30885 0.0
H458 H 0.03177 0.65319 0.17098 0.0
H459 H 0.05706 0.70114 0.09428 0.0
C460 C 0.08775 0.76035 0.06045 0.0
C461 C 0.09031 0.76246 0.14403 0.0
C462 C 0.07595 0.73422 0.18823 0.0
C463 C 0.07768 0.73601 0.26792 0.0
C464 C 0.0622 0.7074 0.31039 0.0
C465 C 0.04594 0.67792 0.27544 0.0
C466 C 0.0445 0.67617 0.19781 0.0
C467 C 0.05919 0.70389 0.15444 0.0
H468 H 0.34364 0.14782 0.05704 0.0
C469 C 0.36211 0.14492 0.08552 0.0
H470 H 0.39873 0.16322 0.16645 0.0
H471 H 0.4269 0.30465 0.17425 0.0
H472 H 0.4772 0.31071 0.12654 0.0
H473 H 0.48192 0.26382 0.09076 0.0
H474 H 0.43648 0.21054 0.10329 0.0
C475 C 0.38017 0.16601 0.13805 0.0
C476 C 0.37652 0.19427 0.1573 0.0
C477 C 0.40313 0.22541 0.14818 0.0
C478 C 0.40017 0.25255 0.16718 0.0
C479 C 0.42751 0.28322 0.15945 0.0
C480 C 0.45661 0.28707 0.13226 0.0
C481 C 0.45929 0.26067 0.11224 0.0
C482 C 0.43298 0.23018 0.11993 0.0
H483 H 0.35318 0.26252 0.32625 0.0
C484 C 0.35933 0.28121 0.2846 0.0
H485 H 0.37403 0.296 0.17308 0.0
H486 H 0.32225 0.13829 0.19535 0.0
H487 H 0.27089 0.13221 0.23428 0.0
H488 H 0.2636 0.17912 0.24926 0.0
H489 H 0.308 0.23239 0.22819 0.0
C490 C 0.36783 0.27742 0.215 0.0
C491 C 0.3704 0.24869 0.19387 0.0
C492 C 0.34344 0.21755 0.20051 0.0
C493 C 0.34691 0.19036 0.18564 0.0
C494 C 0.32048 0.1597 0.20063 0.0
C495 C 0.29088 0.15586 0.22381 0.0
C496 C 0.28683 0.18226 0.2327 0.0
C497 C 0.31268 0.21278 0.22119 0.0
H498 H 0.22463 0.30534 0.45454 0.0
C499 C 0.24619 0.32701 0.47055 0.0
H500 H 0.26502 0.37086 0.52691 0.0
H501 H 0.142 0.38641 0.50568 0.0
H502 H 0.17997 0.42976 0.42673 0.0
H503 H 0.23257 0.43488 0.39414 0.0
H504 H 0.24765 0.39685 0.44089 0.0
C505 C 0.24355 0.34893 0.5118 0.0
C506 C 0.2116 0.34549 0.53238 0.0
C507 C 0.20292 0.36771 0.50385 0.0
C508 C 0.17224 0.3643 0.52123 0.0
C509 C 0.16462 0.38732 0.49303 0.0
C510 C 0.18627 0.41246 0.44783 0.0
C511 C 0.2159 0.41538 0.4296 0.0
C512 C 0.22426 0.39337 0.45704 0.0
H513 H 0.11865 0.33666 0.6959 0.0
C514 C 0.10491 0.33469 0.64593 0.0
H515 H 0.10307 0.33207 0.52814 0.0
H516 H 0.22259 0.30217 0.60765 0.0
H517 H 0.18409 0.25766 0.68322 0.0
H518 H 0.12893 0.24836 0.70247 0.0
H519 H 0.11222 0.28395 0.64803 0.0
C520 C 0.11686 0.33386 0.57794 0.0
C521 C 0.14988 0.33833 0.5661 0.0
C522 C 0.15866 0.31618 0.59515 0.0
C523 C 0.18989 0.32038 0.5802 0.0
C524 C 0.19874 0.29923 0.61411 0.0
C525 C 0.17694 0.27369 0.6581 0.0
C526 C 0.14594 0.26855 0.66921 0.0
C527 C 0.13674 0.28938 0.63807 0.0
H528 H 0.83247 0.08259 0.98945 0.0
C529 C 0.81638 0.09068 1.01089 0.0
H530 H 0.80688 0.12881 0.0188 0.0
H531 H 0.94709 0.24237 0.98087 0.0
H532 H 0.93305 0.24977 0.10691 0.0
H533 H 0.88358 0.20873 0.1683 0.0
H534 H 0.84713 0.16049 0.1033 0.0
C535 C 0.82295 0.12074 0.99708 0.0
C536 C 0.8534 0.14481 0.9591 0.0
C537 C 0.87471 0.17295 0.998 0.0
C538 C 0.90341 0.19666 0.96254 0.0
C539 C 0.92447 0.22407 1.00379 0.0
C540 C 0.91697 0.22845 0.07671 0.0
C541 C 0.88905 0.20537 0.11125 0.0
C542 C 0.86822 0.17783 0.07294 0.0
H543 H 0.92208 0.25036 0.84931 0.0
C544 C 0.94183 0.24646 0.8329 0.0
H545 H 0.95915 0.21369 0.83256 0.0
H546 H 0.8169 0.09524 0.86457 0.0
H547 H 0.83181 0.08733 0.74005 0.0
H548 H 0.88239 0.12757 0.68071 0.0
H549 H 0.91886 0.1758 0.74646 0.0
C550 C 0.93974 0.21819 0.84835 0.0
C551 C 0.91077 0.19244 0.88767 0.0
C552 C 0.89 0.16395 0.8495 0.0
C553 C 0.86101 0.14038 0.8845 0.0
C554 C 0.83991 0.11321 0.8427 0.0
C555 C 0.8479 0.10859 0.77044 0.0
C556 C 0.87643 0.13123 0.73706 0.0
C557 C 0.89718 0.15876 0.77555 0.0
H558 H 0.70996 0.90655 0.2001 0.0
C559 C 0.73361 0.9241 0.17933 0.0
H560 H 0.7827 0.93696 0.17228 0.0
H561 H 0.76906 0.85083 0.45684 0.0
H562 H 0.7984 0.90373 0.50976 0.0
H563 H 0.80795 0.95108 0.43622 0.0
H564 H 0.78799 0.94583 0.30948 0.0
C565 C 0.75859 0.91901 0.18926 0.0
C566 C 0.75443 0.89042 0.23151 0.0
C567 C 0.76611 0.89386 0.30566 0.0
C568 C 0.76046 0.8665 0.34819 0.0
C569 C 0.77245 0.87072 0.42214 0.0
C570 C 0.78943 0.90098 0.45316 0.0
C571 C 0.79485 0.92764 0.41172 0.0
C572 C 0.78324 0.92427 0.339 0.0
H573 H 0.76768 0.79654 0.29936 0.0
C574 C 0.75155 0.79008 0.34746 0.0
H575 H 0.72175 0.80187 0.4119 0.0
H576 H 0.73223 0.8759 0.08821 0.0
H577 H 0.7033 0.82308 0.03441 0.0
H578 H 0.69147 0.77542 0.10957 0.0
H579 H 0.70876 0.78025 0.23853 0.0
C580 C 0.7369 0.80719 0.36236 0.0
C581 C 0.74337 0.83571 0.31636 0.0
C582 C 0.73224 0.83234 0.24153 0.0
C583 C 0.73814 0.85976 0.19884 0.0
C584 C 0.72765 0.85581 0.12366 0.0
C585 C 0.71111 0.82565 0.09203 0.0
C586 C 0.70451 0.79882 0.1343 0.0
C587 C 0.71479 0.80196 0.20821 0.0
H588 H 1.00097 0.74459 0.59425 0.0
C589 C 0.99455 0.73042 0.64547 0.0
H590 H 0.95708 0.70209 0.72128 0.0
H591 H 0.86895 0.76034 0.63096 0.0
H592 H 0.88647 0.7826 0.75462 0.0
H593 H 0.9282 0.77628 0.82104 0.0
H594 H 0.95253 0.74748 0.76452 0.0
C595 C 0.96367 0.71501 0.66829 0.0
C596 C 0.93849 0.71871 0.62734 0.0
C597 C 0.92465 0.73582 0.66099 0.0
C598 C 0.90087 0.73983 0.62231 0.0
C599 C 0.88729 0.7568 0.65756 0.0
C600 C 0.89711 0.76969 0.72856 0.0
C601 C 0.92058 0.7661 0.76598 0.0
C602 C 0.9343 0.74944 0.73289 0.0
H603 H 0.82969 0.68304 0.53118 0.0
C604 C 0.83521 0.70598 0.50732 0.0
H605 H 0.8711 0.7539 0.4905 0.0
H606 H 0.95808 0.68244 0.54893 0.0
H607 H 0.94125 0.66111 0.4243 0.0
H608 H 0.90176 0.67009 0.35517 0.0
H609 H 0.8786 0.70021 0.41061 0.0
C610 C 0.8654 0.73041 0.51085 0.0
C611 C 0.8909 0.72673 0.55003 0.0
C612 C 0.90482 0.70975 0.51615 0.0
C613 C 0.92834 0.7054 0.55517 0.0
C614 C 0.94089 0.68731 0.52103 0.0
C615 C 0.93129 0.67476 0.44964 0.0
C616 C 0.90899 0.67975 0.41079 0.0
C617 C 0.89581 0.697 0.44337 0.0
H618 H 0.15593 0.86164 0.77793 0.0
C619 C 0.15959 0.84115 0.78198 0.0
H620 H 0.18856 0.82292 0.82351 0.0
H621 H 0.27301 0.98256 0.86187 0.0
H622 H 0.27038 0.98609 0.72707 0.0
H623 H 0.24072 0.93767 0.65131 0.0
H624 H 0.21239 0.88555 0.71052 0.0
C625 C 0.18543 0.8437 0.81795 0.0
C626 C 0.2074 0.87274 0.86125 0.0
C627 C 0.22562 0.90278 0.82524 0.0
C628 C 0.245 0.93045 0.86837 0.0
C629 C 0.26004 0.9605 0.83163 0.0
C630 C 0.25836 0.96293 0.7542 0.0
C631 C 0.24149 0.9357 0.7116 0.0
C632 C 0.22516 0.90593 0.7464 0.0
H633 H 0.31208 0.97019 0.92596 0.0
C634 C 0.30183 0.97424 0.97642 0.0
H635 H 0.26075 0.96072 0.04307 0.0
H636 H 0.17446 0.8192 0.94904 0.0
H637 H 0.18038 0.81491 0.08232 0.0
H638 H 0.2179 0.86173 0.15526 0.0
H639 H 0.24966 0.91312 0.09535 0.0
C640 C 0.27041 0.95592 0.99253 0.0
C641 C 0.24852 0.9276 0.94669 0.0
C642 C 0.23078 0.89737 0.98237 0.0
C643 C 0.20983 0.8701 0.9399 0.0
C644 C 0.19147 0.84055 0.97778 0.0
C645 C 0.1945 0.83772 0.05454 0.0
C646 C 0.21557 0.86409 0.0956 0.0
C647 C 0.23357 0.89356 0.06034 0.0
loop_
_geom_bond_atom_site_label_1
_geom_bond_atom_site_label_2
_geom_bond_distance
_geom_bond_site_symmetry_2
_ccdc_geom_bond_type
Co0 N4 2.148 . S
Co0 N10 2.128 1_554 S
Co0 N20 2.194 . S
Co0 O25 2.351 . S
Co0 O26 2.155 . S
Co0 O27 2.096 1_545 S
C1 N4 1.301 . S
C1 N5 1.328 . S
C1 H6 0.930 . S
C2 C3 1.333 . S
C2 N4 1.317 1_565 S
C2 H7 0.930 . S
C3 C2 1.333 . S
C3 N5 1.350 1_565 S
C3 H29 0.931 . S
N4 Co0 2.148 . S
N4 C1 1.301 . S
N4 C2 1.317 1_545 S
N5 C1 1.328 . S
N5 C3 1.350 1_545 S
H6 C1 0.930 . S
H7 C2 0.930 . S
C8 O9 1.224 . S
C8 O27 1.247 . S
O9 C8 1.224 . S
N10 Co0 2.128 1_556 S
N10 C11 1.355 . S
N10 C13 1.311 . S
C11 N10 1.355 . S
C11 C12 1.363 . S
C11 H23 0.929 . S
C12 C11 1.363 . S
C12 N14 1.375 . S
C12 H30 0.931 . S
C13 N10 1.311 . S
C13 N14 1.347 . S
C13 H24 0.929 . S
N14 C12 1.375 . S
N14 C13 1.347 . S
C15 C18 1.365 . S
C15 N20 1.328 . S
C15 H21 0.929 . S
C16 C17 1.362 1_565 S
C16 C19 1.395 . S
C16 H31 0.929 . S
C17 C16 1.362 1_545 S
C17 C18 1.366 . S
C18 C15 1.365 . S
C18 C17 1.366 . S
C18 H32 0.930 . S
C19 C16 1.395 . S
C19 N20 1.286 1_565 S
C19 H22 0.944 . S
N20 Co0 2.194 . S
N20 C15 1.328 . S
N20 C19 1.286 1_545 S
H21 C15 0.929 . S
H22 C19 0.944 . S
H23 C11 0.929 . S
H24 C13 0.929 . S
O25 Co0 2.351 . S
O25 C28 1.244 . S
O26 Co0 2.155 . S
O26 C28 1.240 . S
O27 Co0 2.096 1_565 S
O27 C8 1.247 . S
C28 O25 1.244 . S
C28 O26 1.240 . S
H29 C3 0.931 . S
H30 C12 0.931 . S
H31 C16 0.929 . S
H32 C18 0.930 . S
Co33 N37 2.148 . S
Co33 N43 2.128 . S
Co33 N53 2.194 . S
Co33 O58 2.351 . S
Co33 O59 2.155 . S
Co33 O60 2.096 . S
C34 N37 1.301 . S
C34 N38 1.328 . S
C34 H39 0.930 . S
C35 C36 1.333 . S
C35 N37 1.317 . S
C35 H40 0.930 . S
C36 C35 1.333 . S
C36 N38 1.350 . S
C36 H62 0.931 . S
N37 Co33 2.148 . S
N37 C34 1.301 . S
N37 C35 1.317 . S
N38 C34 1.328 . S
N38 C36 1.350 . S
H39 C34 0.930 . S
H40 C35 0.930 . S
C41 O42 1.224 . S
C41 O60 1.247 . S
O42 C41 1.224 . S
N43 Co33 2.128 . S
N43 C44 1.355 . S
N43 C46 1.311 . S
C44 N43 1.355 . S
C44 C45 1.363 . S
C44 H56 0.929 . S
C45 C44 1.363 . S
C45 N47 1.375 . S
C45 H63 0.931 . S
C46 N43 1.311 . S
C46 N47 1.347 . S
C46 H57 0.929 . S
N47 C45 1.375 . S
N47 C46 1.347 . S
C48 C51 1.365 . S
C48 N53 1.328 . S
C48 H54 0.929 . S
C49 C50 1.362 . S
C49 C52 1.378 . S
C49 H64 0.929 . S
C50 C49 1.362 . S
C50 C51 1.366 . S
C51 C48 1.365 . S
C51 C50 1.366 . S
C51 H65 0.930 . S
C52 C49 1.378 . S
C52 N53 1.315 . S
C52 H55 0.930 . S
N53 Co33 2.194 . S
N53 C48 1.328 . S
N53 C52 1.315 . S
H54 C48 0.929 . S
H55 C52 0.930 . S
H56 C44 0.929 . S
H57 C46 0.929 . S
O58 Co33 2.351 . S
O58 C61 1.244 . S
O59 Co33 2.155 . S
O59 C61 1.240 . S
O60 Co33 2.096 . S
O60 C41 1.247 . S
C61 O58 1.244 . S
C61 O59 1.240 . S
H62 C36 0.931 . S
H63 C45 0.931 . S
H64 C49 0.929 . S
H65 C51 0.930 . S
Co66 N70 2.148 . S
Co66 N76 2.128 . S
Co66 N86 2.194 . S
Co66 O91 2.351 1_455 S
Co66 O92 2.155 1_455 S
Co66 O93 2.096 . S
C67 N70 1.301 . S
C67 N71 1.328 . S
C67 H72 0.930 . S
C68 C69 1.333 . S
C68 N70 1.317 . S
C68 H73 0.930 . S
C69 C68 1.333 . S
C69 N71 1.350 . S
C69 H95 0.931 . S
N70 Co66 2.148 . S
N70 C67 1.301 . S
N70 C68 1.317 . S
N71 C67 1.328 . S
N71 C69 1.350 . S
H72 C67 0.930 . S
H73 C68 0.930 . S
C74 O75 1.224 . S
C74 O93 1.247 . S
O75 C74 1.224 . S
N76 Co66 2.128 . S
N76 C77 1.355 1_455 S
N76 C79 1.311 . S
C77 N76 1.355 1_655 S
C77 C78 1.363 . S
C77 H89 0.929 . S
C78 C77 1.363 . S
C78 N80 1.375 1_655 S
C78 H96 0.931 . S
C79 N76 1.311 . S
C79 N80 1.347 . S
C79 H90 0.929 . S
N80 C78 1.375 1_455 S
N80 C79 1.347 . S
C81 C84 1.365 . S
C81 N86 1.328 1_655 S
C81 H87 0.929 . S
C82 C83 1.362 . S
C82 C85 1.378 . S
C82 H97 0.929 . S
C83 C82 1.362 . S
C83 C84 1.366 1_455 S
C84 C81 1.365 . S
C84 C83 1.366 1_655 S
C84 H98 0.930 . S
C85 C82 1.378 . S
C85 N86 1.315 . S
C85 H88 0.930 . S
N86 Co66 2.194 . S
N86 C81 1.328 1_455 S
N86 C85 1.315 . S
H87 C81 0.929 . S
H88 C85 0.930 . S
H89 C77 0.929 . S
H90 C79 0.929 . S
O91 Co66 2.351 1_655 S
O91 C94 1.244 . S
O92 Co66 2.155 1_655 S
O92 C94 1.240 . S
O93 Co66 2.096 . S
O93 C74 1.247 . S
C94 O91 1.244 . S
C94 O92 1.240 . S
H95 C69 0.931 . S
H96 C78 0.931 . S
H97 C82 0.929 . S
H98 C84 0.930 . S
Co99 N103 2.148 . S
Co99 N109 2.128 1_554 S
Co99 N119 2.194 . S
Co99 O124 2.351 1_545 S
Co99 O125 2.155 1_545 S
Co99 O126 2.096 . S
C100 N103 1.301 . S
C100 N104 1.328 . S
C100 H105 0.930 1_545 S
C101 C102 1.333 . S
C101 N103 1.317 . S
C101 H106 0.930 . S
C102 C101 1.333 . S
C102 N104 1.350 . S
C102 H128 0.931 . S
N103 Co99 2.148 . S
N103 C100 1.301 . S
N103 C101 1.317 . S
N104 C100 1.328 . S
N104 C102 1.350 . S
H105 C100 0.930 1_565 S
H106 C101 0.930 . S
C107 O108 1.224 . S
C107 O126 1.247 . S
O108 C107 1.224 . S
N109 Co99 2.128 1_556 S
N109 C110 1.355 1_545 S
N109 C112 1.311 . S
C110 N109 1.355 1_565 S
C110 C111 1.363 . S
C110 H122 0.929 . S
C111 C110 1.363 . S
C111 N113 1.375 1_565 S
C111 H129 0.931 . S
C112 N109 1.311 . S
C112 N113 1.347 . S
C112 H123 0.929 . S
N113 C111 1.375 1_545 S
N113 C112 1.347 . S
C114 C117 1.365 . S
C114 N119 1.328 1_565 S
C114 H120 0.929 . S
C115 C116 1.362 . S
C115 C118 1.378 . S
C115 H130 0.929 . S
C116 C115 1.362 . S
C116 C117 1.366 1_545 S
C117 C114 1.365 . S
C117 C116 1.366 1_565 S
C117 H131 0.930 . S
C118 C115 1.378 . S
C118 N119 1.315 . S
C118 H121 0.930 . S
N119 Co99 2.194 . S
N119 C114 1.328 1_545 S
N119 C118 1.315 . S
H120 C114 0.929 . S
H121 C118 0.930 . S
H122 C110 0.929 . S
H123 C112 0.929 . S
O124 Co99 2.351 1_565 S
O124 C127 1.244 . S
O125 Co99 2.155 1_565 S
O125 C127 1.240 . S
O126 Co99 2.096 . S
O126 C107 1.247 . S
C127 O124 1.244 . S
C127 O125 1.240 . S
H128 C102 0.931 . S
H129 C111 0.931 . S
H130 C115 0.929 . S
H131 C117 0.930 . S
Co132 N136 2.148 . S
Co132 N142 2.128 . S
Co132 N152 2.194 . S
Co132 O157 2.351 . S
Co132 O158 2.155 . S
Co132 O159 2.096 . S
C133 N136 1.301 . S
C133 N137 1.328 . S
C133 H138 0.930 . S
C134 C135 1.333 . S
C134 N136 1.317 . S
C134 H139 0.930 . S
C135 C134 1.333 . S
C135 N137 1.350 . S
C135 H161 0.931 . S
N136 Co132 2.148 . S
N136 C133 1.301 . S
N136 C134 1.317 . S
N137 C133 1.328 . S
N137 C135 1.350 . S
H138 C133 0.930 . S
H139 C134 0.930 . S
C140 O141 1.224 . S
C140 O159 1.247 . S
O141 C140 1.224 . S
N142 Co132 2.128 . S
N142 C143 1.355 . S
N142 C145 1.311 . S
C143 N142 1.355 . S
C143 C144 1.363 . S
C143 H155 0.929 . S
C144 C143 1.363 . S
C144 N146 1.375 . S
C144 H162 0.931 . S
C145 N142 1.311 . S
C145 N146 1.347 . S
C145 H156 0.929 . S
N146 C144 1.375 . S
N146 C145 1.347 . S
C147 C150 1.365 . S
C147 N152 1.328 . S
C147 H153 0.929 . S
C148 C149 1.362 . S
C148 C151 1.378 . S
C148 H163 0.929 . S
C149 C148 1.362 . S
C149 C150 1.366 . S
C150 C147 1.365 . S
C150 C149 1.366 . S
C150 H164 0.930 . S
C151 C148 1.378 . S
C151 N152 1.315 . S
C151 H154 0.930 . S
N152 Co132 2.194 . S
N152 C147 1.328 . S
N152 C151 1.315 . S
H153 C147 0.929 . S
H154 C151 0.930 . S
H155 C143 0.929 . S
H156 C145 0.929 . S
O157 Co132 2.351 . S
O157 C160 1.244 . S
O158 Co132 2.155 . S
O158 C160 1.240 . S
O159 Co132 2.096 . S
O159 C140 1.247 . S
C160 O157 1.244 . S
C160 O158 1.240 . S
H161 C135 0.931 . S
H162 C144 0.931 . S
H163 C148 0.929 . S
H164 C150 0.930 . S
Co165 N169 2.148 . S
Co165 N175 2.128 . S
Co165 N185 2.194 . S
Co165 O190 2.351 . S
Co165 O191 2.155 . S
Co165 O192 2.096 1_455 S
C166 N169 1.301 . S
C166 N170 1.328 . S
C166 H171 0.930 . S
C167 C168 1.333 . S
C167 N169 1.317 1_655 S
C167 H172 0.930 . S
C168 C167 1.333 . S
C168 N170 1.350 1_655 S
C168 H194 0.931 . S
N169 Co165 2.148 . S
N169 C166 1.301 . S
N169 C167 1.317 1_455 S
N170 C166 1.328 . S
N170 C168 1.350 1_455 S
H171 C166 0.930 . S
H172 C167 0.930 . S
C173 O174 1.224 . S
C173 O192 1.247 . S
O174 C173 1.224 . S
N175 Co165 2.128 . S
N175 C176 1.355 . S
N175 C178 1.311 . S
C176 N175 1.355 . S
C176 C177 1.363 . S
C176 H188 0.929 . S
C177 C176 1.363 . S
C177 N179 1.375 . S
C177 H195 0.931 . S
C178 N175 1.311 . S
C178 N179 1.347 . S
C178 H189 0.929 . S
N179 C177 1.375 . S
N179 C178 1.347 . S
C180 C183 1.365 . S
C180 N185 1.328 . S
C180 H186 0.929 . S
C181 C182 1.359 1_655 S
C181 C184 1.379 1_655 S
C181 H196 0.931 . S
C182 C181 1.359 1_455 S
C182 C183 1.366 . S
C183 C180 1.365 . S
C183 C182 1.366 . S
C183 H197 0.930 . S
C184 C181 1.379 1_455 S
C184 N185 1.315 . S
C184 H187 0.930 1_455 S
N185 Co165 2.194 . S
N185 C180 1.328 . S
N185 C184 1.315 . S
H186 C180 0.929 . S
H187 C184 0.930 1_655 S
H188 C176 0.929 . S
H189 C178 0.929 . S
O190 Co165 2.351 . S
O190 C193 1.244 . S
O191 Co165 2.155 . S
O191 C193 1.240 . S
O192 Co165 2.096 1_655 S
O192 C173 1.247 . S
C193 O190 1.244 . S
C193 O191 1.240 . S
H194 C168 0.931 . S
H195 C177 0.931 . S
H196 C181 0.931 . S
H197 C183 0.930 . S
H198 C199 0.951 1_565 S
C199 H198 0.951 1_545 S
C199 C205 1.265 . S
H200 C205 0.950 . S
H201 C209 0.949 . S
H202 C210 0.950 . S
H203 C211 0.951 . S
H204 C212 0.951 . S
C205 C199 1.265 . S
C205 H200 0.950 . S
C205 C206 1.478 . S
C206 C205 1.478 . S
C206 C207 1.397 . S
C206 C223 1.394 . S
C207 C206 1.397 . S
C207 C208 1.438 . S
C207 C212 1.429 . S
C208 C207 1.438 . S
C208 C209 1.428 . S
C208 C221 1.394 . S
C209 H201 0.949 . S
C209 C208 1.428 . S
C209 C210 1.345 . S
C210 H202 0.950 . S
C210 C209 1.345 . S
C210 C211 1.424 . S
C211 H203 0.951 . S
C211 C210 1.424 . S
C211 C212 1.347 . S
C212 H204 0.951 . S
C212 C207 1.429 . S
C212 C211 1.347 . S
H213 C214 0.951 . S
C214 H213 0.951 . S
C214 C220 1.265 . S
H215 C220 0.950 1_565 S
H216 C224 0.949 . S
H217 C225 0.950 . S
H218 C226 0.951 . S
H219 C227 0.951 . S
C220 C214 1.265 . S
C220 H215 0.950 1_545 S
C220 C221 1.478 . S
C221 C208 1.394 . S
C221 C220 1.478 . S
C221 C222 1.397 . S
C222 C221 1.397 . S
C222 C223 1.438 . S
C222 C227 1.429 1_544 S
C223 C206 1.394 . S
C223 C222 1.438 . S
C223 C224 1.428 1_554 S
C224 H216 0.949 . S
C224 C223 1.428 1_556 S
C224 C225 1.345 1_545 S
C225 H217 0.950 . S
C225 C224 1.345 1_565 S
C225 C226 1.424 . S
C226 H218 0.951 . S
C226 C225 1.424 . S
C226 C227 1.347 . S
C227 H219 0.951 . S
C227 C222 1.429 1_566 S
C227 C226 1.347 . S
H228 C229 0.951 . S
C229 H228 0.951 . S
C229 C235 1.265 . S
H230 C235 0.950 . S
H231 C239 0.949 . S
H232 C240 0.950 . S
H233 C241 0.951 . S
H234 C242 0.951 . S
C235 C229 1.265 . S
C235 H230 0.950 . S
C235 C236 1.478 . S
C236 C235 1.478 . S
C236 C237 1.397 . S
C236 C253 1.394 . S
C237 C236 1.397 . S
C237 C238 1.438 . S
C237 C242 1.429 . S
C238 C237 1.438 . S
C238 C239 1.428 . S
C238 C251 1.394 . S
C239 H231 0.949 . S
C239 C238 1.428 . S
C239 C240 1.345 . S
C240 H232 0.950 . S
C240 C239 1.345 . S
C240 C241 1.424 . S
C241 H233 0.951 . S
C241 C240 1.424 . S
C241 C242 1.347 . S
C242 H234 0.951 . S
C242 C237 1.429 . S
C242 C241 1.347 . S
H243 C244 0.951 . S
C244 H243 0.951 . S
C244 C250 1.265 . S
H245 C250 0.950 . S
H246 C254 0.949 . S
H247 C255 0.950 . S
H248 C256 0.951 . S
H249 C257 0.951 . S
C250 C244 1.265 . S
C250 H245 0.950 . S
C250 C251 1.478 . S
C251 C238 1.394 . S
C251 C250 1.478 . S
C251 C252 1.397 . S
C252 C251 1.397 . S
C252 C253 1.438 . S
C252 C257 1.429 . S
C253 C236 1.394 . S
C253 C252 1.438 . S
C253 C254 1.428 . S
C254 H246 0.949 . S
C254 C253 1.428 . S
C254 C255 1.345 . S
C255 H247 0.950 . S
C255 C254 1.345 . S
C255 C256 1.424 . S
C256 H248 0.951 . S
C256 C255 1.424 . S
C256 C257 1.347 . S
C257 H249 0.951 . S
C257 C252 1.429 . S
C257 C256 1.347 . S
H258 C259 0.951 1_655 S
C259 H258 0.951 1_455 S
C259 C265 1.265 . S
H260 C265 0.950 . S
H261 C269 0.949 . S
H262 C270 0.950 . S
H263 C271 0.951 . S
H264 C272 0.951 . S
C265 C259 1.265 . S
C265 H260 0.950 . S
C265 C266 1.478 . S
C266 C265 1.478 . S
C266 C267 1.397 . S
C266 C283 1.394 . S
C267 C266 1.397 . S
C267 C268 1.438 . S
C267 C272 1.429 . S
C268 C267 1.438 . S
C268 C269 1.428 . S
C268 C281 1.394 . S
C269 H261 0.949 . S
C269 C268 1.428 . S
C269 C270 1.345 . S
C270 H262 0.950 . S
C270 C269 1.345 . S
C270 C271 1.424 . S
C271 H263 0.951 . S
C271 C270 1.424 . S
C271 C272 1.347 . S
C272 H264 0.951 . S
C272 C267 1.429 . S
C272 C271 1.347 . S
H273 C274 0.951 . S
C274 H273 0.951 . S
C274 C280 1.265 . S
H275 C280 0.950 1_655 S
H276 C284 0.949 . S
H277 C285 0.950 1_655 S
H278 C286 0.951 . S
H279 C287 0.940 1_655 S
C280 C274 1.265 . S
C280 H275 0.950 1_455 S
C280 C281 1.478 . S
C281 C268 1.394 . S
C281 C280 1.478 . S
C281 C282 1.397 . S
C282 C281 1.397 . S
C282 C283 1.438 . S
C282 C287 1.438 . S
C283 C266 1.394 . S
C283 C282 1.438 . S
C283 C284 1.428 . S
C284 H276 0.949 . S
C284 C283 1.428 . S
C284 C285 1.345 . S
C285 H277 0.950 1_455 S
C285 C284 1.345 . S
C285 C286 1.424 1_455 S
C286 H278 0.951 . S
C286 C285 1.424 1_655 S
C286 C287 1.349 1_655 S
C287 H279 0.940 1_455 S
C287 C282 1.438 . S
C287 C286 1.349 1_455 S
H288 C289 0.951 . S
C289 H288 0.951 . S
C289 C295 1.265 . S
H290 C295 0.950 . S
H291 C299 0.949 . S
H292 C300 0.950 . S
H293 C301 0.951 . S
H294 C302 0.951 . S
C295 C289 1.265 . S
C295 H290 0.950 . S
C295 C296 1.478 . S
C296 C295 1.478 . S
C296 C297 1.397 . S
C296 C313 1.394 1_545 S
C297 C296 1.397 . S
C297 C298 1.438 . S
C297 C302 1.429 . S
C298 C297 1.438 . S
C298 C299 1.428 . S
C298 C311 1.394 . S
C299 H291 0.949 . S
C299 C298 1.428 . S
C299 C300 1.345 . S
C300 H292 0.950 . S
C300 C299 1.345 . S
C300 C301 1.424 . S
C301 H293 0.951 . S
C301 C300 1.424 . S
C301 C302 1.347 . S
C302 H294 0.951 . S
C302 C297 1.429 . S
C302 C301 1.347 . S
H303 C304 0.951 . S
C304 H303 0.951 . S
C304 C310 1.265 . S
H305 C310 0.950 . S
H306 C314 0.949 . S
H307 C315 0.950 . S
H308 C316 0.951 . S
H309 C317 0.951 . S
C310 C304 1.265 . S
C310 H305 0.950 . S
C310 C311 1.478 . S
C311 C298 1.394 . S
C311 C310 1.478 . S
C311 C312 1.397 1_545 S
C312 C311 1.397 1_565 S
C312 C313 1.438 . S
C312 C317 1.429 . S
C313 C296 1.394 1_565 S
C313 C312 1.438 . S
C313 C314 1.428 . S
C314 H306 0.949 . S
C314 C313 1.428 . S
C314 C315 1.345 . S
C315 H307 0.950 . S
C315 C314 1.345 . S
C315 C316 1.424 . S
C316 H308 0.951 . S
C316 C315 1.424 . S
C316 C317 1.347 . S
C317 H309 0.951 . S
C317 C312 1.429 . S
C317 C316 1.347 . S
H318 C319 0.951 . S
C319 H318 0.951 . S
C319 C325 1.265 . S
H320 C325 0.950 . S
H321 C329 0.949 1_554 S
H322 C330 0.950 . S
H323 C331 0.951 . S
H324 C332 0.951 . S
C325 C319 1.265 . S
C325 H320 0.950 . S
C325 C326 1.478 . S
C326 C325 1.478 . S
C326 C327 1.397 . S
C326 C343 1.394 . S
C327 C326 1.397 . S
C327 C328 1.438 . S
C327 C332 1.429 . S
C328 C327 1.438 . S
C328 C329 1.428 . S
C328 C341 1.394 . S
C329 H321 0.949 1_556 S
C329 C328 1.428 . S
C329 C330 1.345 . S
C330 H322 0.950 . S
C330 C329 1.345 . S
C330 C331 1.424 . S
C331 H323 0.951 . S
C331 C330 1.424 . S
C331 C332 1.347 . S
C332 H324 0.951 . S
C332 C327 1.429 . S
C332 C331 1.347 . S
H333 C334 0.951 . S
C334 H333 0.951 . S
C334 C340 1.265 . S
H335 C340 0.950 . S
H336 C344 0.949 . S
H337 C345 0.950 . S
H338 C346 0.951 . S
H339 C347 0.951 1_554 S
C340 C334 1.265 . S
C340 H335 0.950 . S
C340 C341 1.478 1_554 S
C341 C328 1.394 . S
C341 C340 1.478 1_556 S
C341 C342 1.397 . S
C342 C341 1.397 . S
C342 C343 1.438 . S
C342 C347 1.429 . S
C343 C326 1.394 . S
C343 C342 1.438 . S
C343 C344 1.428 . S
C344 H336 0.949 . S
C344 C343 1.428 . S
C344 C345 1.345 . S
C345 H337 0.950 . S
C345 C344 1.345 . S
C345 C346 1.424 . S
C346 H338 0.951 . S
C346 C345 1.424 . S
C346 C347 1.347 . S
C347 H339 0.951 1_556 S
C347 C342 1.429 . S
C347 C346 1.347 . S
H348 C349 0.951 . S
C349 H348 0.951 . S
C349 C355 1.265 . S
H350 C355 0.950 1_655 S
H351 C359 0.949 . S
H352 C360 0.950 . S
H353 C361 0.951 . S
H354 C362 0.951 . S
C355 C349 1.265 . S
C355 H350 0.950 1_455 S
C355 C356 1.478 . S
C356 C355 1.478 . S
C356 C357 1.397 1_455 S
C356 C373 1.394 . S
C357 C356 1.397 1_655 S
C357 C358 1.438 1_655 S
C357 C362 1.429 . S
C358 C357 1.438 1_455 S
C358 C359 1.428 1_455 S
C358 C371 1.394 . S
C359 H351 0.949 . S
C359 C358 1.428 1_655 S
C359 C360 1.345 . S
C360 H352 0.950 . S
C360 C359 1.345 . S
C360 C361 1.424 . S
C361 H353 0.951 . S
C361 C360 1.424 . S
C361 C362 1.347 . S
C362 H354 0.951 . S
C362 C357 1.429 . S
C362 C361 1.347 . S
H363 C364 0.951 1_655 S
C364 H363 0.951 1_455 S
C364 C370 1.265 . S
H365 C370 0.950 . S
H366 C374 0.949 . S
H367 C375 0.950 . S
H368 C376 0.951 . S
H369 C377 0.951 . S
C370 C364 1.265 . S
C370 H365 0.950 . S
C370 C371 1.478 . S
C371 C358 1.394 . S
C371 C370 1.478 . S
C371 C372 1.397 . S
C372 C371 1.397 . S
C372 C373 1.438 . S
C372 C377 1.429 . S
C373 C356 1.394 . S
C373 C372 1.438 . S
C373 C374 1.428 . S
C374 H366 0.949 . S
C374 C373 1.428 . S
C374 C375 1.345 . S
C375 H367 0.950 . S
C375 C374 1.345 . S
C375 C376 1.424 . S
C376 H368 0.951 . S
C376 C375 1.424 . S
C376 C377 1.347 . S
C377 H369 0.951 . S
C377 C372 1.429 . S
C377 C376 1.347 . S
H378 C379 0.951 . S
C379 H378 0.951 . S
C379 C385 1.265 . S
H380 C385 0.950 . S
H381 C389 0.949 . S
H382 C390 0.950 . S
H383 C391 0.951 . S
H384 C392 0.951 . S
C385 C379 1.265 . S
C385 H380 0.950 . S
C385 C386 1.478 . S
C386 C385 1.478 . S
C386 C387 1.397 . S
C386 C403 1.394 1_545 S
C387 C386 1.397 . S
C387 C388 1.438 . S
C387 C392 1.429 . S
C388 C387 1.438 . S
C388 C389 1.428 . S
C388 C401 1.394 . S
C389 H381 0.949 . S
C389 C388 1.428 . S
C389 C390 1.345 . S
C390 H382 0.950 . S
C390 C389 1.345 . S
C390 C391 1.424 . S
C391 H383 0.951 . S
C391 C390 1.424 . S
C391 C392 1.347 . S
C392 H384 0.951 . S
C392 C387 1.429 . S
C392 C391 1.347 . S
H393 C394 0.951 . S
C394 H393 0.951 . S
C394 C400 1.265 . S
H395 C400 0.950 . S
H396 C404 0.949 . S
H397 C405 0.950 . S
H398 C406 0.951 . S
H399 C407 0.951 . S
C400 C394 1.265 . S
C400 H395 0.950 . S
C400 C401 1.478 . S
C401 C388 1.394 . S
C401 C400 1.478 . S
C401 C402 1.397 1_545 S
C402 C401 1.397 1_565 S
C402 C403 1.438 . S
C402 C407 1.429 . S
C403 C386 1.394 1_565 S
C403 C402 1.438 . S
C403 C404 1.428 . S
C404 H396 0.949 . S
C404 C403 1.428 . S
C404 C405 1.345 . S
C405 H397 0.950 . S
C405 C404 1.345 . S
C405 C406 1.424 . S
C406 H398 0.951 . S
C406 C405 1.424 . S
C406 C407 1.347 . S
C407 H399 0.951 . S
C407 C402 1.429 . S
C407 C406 1.347 . S
H408 C409 0.951 . S
C409 H408 0.951 . S
C409 C415 1.265 . S
H410 C415 0.950 . S
H411 C419 0.949 1_554 S
H412 C420 0.950 . S
H413 C421 0.951 . S
H414 C422 0.951 . S
C415 C409 1.265 . S
C415 H410 0.950 . S
C415 C416 1.478 . S
C416 C415 1.478 . S
C416 C417 1.397 . S
C416 C433 1.394 . S
C417 C416 1.397 . S
C417 C418 1.438 . S
C417 C422 1.429 . S
C418 C417 1.438 . S
C418 C419 1.428 . S
C418 C431 1.394 . S
C419 H411 0.949 1_556 S
C419 C418 1.428 . S
C419 C420 1.345 . S
C420 H412 0.950 . S
C420 C419 1.345 . S
C420 C421 1.424 . S
C421 H413 0.951 . S
C421 C420 1.424 . S
C421 C422 1.347 . S
C422 H414 0.951 . S
C422 C417 1.429 . S
C422 C421 1.347 . S
H423 C424 0.951 . S
C424 H423 0.951 . S
C424 C430 1.265 . S
H425 C430 0.950 . S
H426 C434 0.949 . S
H427 C435 0.950 . S
H428 C436 0.951 . S
H429 C437 0.951 1_554 S
C430 C424 1.265 . S
C430 H425 0.950 . S
C430 C431 1.478 1_554 S
C431 C418 1.394 . S
C431 C430 1.478 1_556 S
C431 C432 1.397 . S
C432 C431 1.397 . S
C432 C433 1.438 . S
C432 C437 1.429 . S
C433 C416 1.394 . S
C433 C432 1.438 . S
C433 C434 1.428 . S
C434 H426 0.949 . S
C434 C433 1.428 . S
C434 C435 1.345 . S
C435 H427 0.950 . S
C435 C434 1.345 . S
C435 C436 1.424 . S
C436 H428 0.951 . S
C436 C435 1.424 . S
C436 C437 1.347 . S
C437 H429 0.951 1_556 S
C437 C432 1.429 . S
C437 C436 1.347 . S
H438 C439 0.951 . S
C439 H438 0.951 . S
C439 C445 1.265 . S
H440 C445 0.950 . S
H441 C449 0.949 . S
H442 C450 0.950 . S
H443 C451 0.951 . S
H444 C452 0.951 . S
C445 C439 1.265 . S
C445 H440 0.950 . S
C445 C446 1.478 . S
C446 C445 1.478 . S
C446 C447 1.397 . S
C446 C463 1.394 . S
C447 C446 1.397 . S
C447 C448 1.438 . S
C447 C452 1.429 . S
C448 C447 1.438 . S
C448 C449 1.428 . S
C448 C461 1.394 . S
C449 H441 0.949 . S
C449 C448 1.428 . S
C449 C450 1.345 . S
C450 H442 0.950 . S
C450 C449 1.345 . S
C450 C451 1.424 . S
C451 H443 0.951 . S
C451 C450 1.424 . S
C451 C452 1.347 . S
C452 H444 0.951 . S
C452 C447 1.429 . S
C452 C451 1.347 . S
H453 C454 0.951 . S
C454 H453 0.951 . S
C454 C460 1.265 . S
H455 C460 0.950 . S
H456 C464 0.948 1_655 S
H457 C465 0.950 . S
H458 C466 0.951 . S
H459 C467 0.951 . S
C460 C454 1.265 . S
C460 H455 0.950 . S
C460 C461 1.478 . S
C461 C448 1.394 . S
C461 C460 1.478 . S
C461 C462 1.397 . S
C462 C461 1.397 . S
C462 C463 1.438 . S
C462 C467 1.429 . S
C463 C446 1.394 . S
C463 C462 1.438 . S
C463 C464 1.428 . S
C464 H456 0.948 1_455 S
C464 C463 1.428 . S
C464 C465 1.346 1_455 S
C465 H457 0.950 . S
C465 C464 1.346 1_655 S
C465 C466 1.424 . S
C466 H458 0.951 . S
C466 C465 1.424 . S
C466 C467 1.347 1_655 S
C467 H459 0.951 . S
C467 C462 1.429 . S
C467 C466 1.347 1_455 S
H468 C469 0.951 . S
C469 H468 0.951 . S
C469 C475 1.265 . S
H470 C475 0.950 . S
H471 C479 0.949 . S
H472 C480 0.950 . S
H473 C481 0.951 . S
H474 C482 0.951 . S
C475 C469 1.265 . S
C475 H470 0.950 . S
C475 C476 1.478 . S
C476 C475 1.478 . S
C476 C477 1.397 . S
C476 C493 1.394 . S
C477 C476 1.397 . S
C477 C478 1.438 . S
C477 C482 1.429 . S
C478 C477 1.438 . S
C478 C479 1.428 . S
C478 C491 1.394 . S
C479 H471 0.949 . S
C479 C478 1.428 . S
C479 C480 1.345 . S
C480 H472 0.950 . S
C480 C479 1.345 . S
C480 C481 1.424 . S
C481 H473 0.951 . S
C481 C480 1.424 . S
C481 C482 1.347 . S
C482 H474 0.951 . S
C482 C477 1.429 . S
C482 C481 1.347 . S
H483 C484 0.951 . S
C484 H483 0.951 . S
C484 C490 1.265 . S
H485 C490 0.950 . S
H486 C494 0.949 . S
H487 C495 0.950 . S
H488 C496 0.951 . S
H489 C497 0.951 . S
C490 C484 1.265 . S
C490 H485 0.950 . S
C490 C491 1.478 . S
C491 C478 1.394 . S
C491 C490 1.478 . S
C491 C492 1.397 . S
C492 C491 1.397 . S
C492 C493 1.438 . S
C492 C497 1.429 . S
C493 C476 1.394 . S
C493 C492 1.438 . S
C493 C494 1.428 . S
C494 H486 0.949 . S
C494 C493 1.428 . S
C494 C495 1.345 . S
C495 H487 0.950 . S
C495 C494 1.345 . S
C495 C496 1.424 . S
C496 H488 0.951 . S
C496 C495 1.424 . S
C496 C497 1.347 . S
C497 H489 0.951 . S
C497 C492 1.429 . S
C497 C496 1.347 . S
H498 C499 0.951 . S
C499 H498 0.951 . S
C499 C505 1.265 . S
H500 C505 0.950 . S
H501 C509 0.949 . S
H502 C510 0.950 . S
H503 C511 0.951 . S
H504 C512 0.951 . S
C505 C499 1.265 . S
C505 H500 0.950 . S
C505 C506 1.478 . S
C506 C505 1.478 . S
C506 C507 1.397 . S
C506 C523 1.394 . S
C507 C506 1.397 . S
C507 C508 1.438 . S
C507 C512 1.429 . S
C508 C507 1.438 . S
C508 C509 1.428 . S
C508 C521 1.394 . S
C509 H501 0.949 . S
C509 C508 1.428 . S
C509 C510 1.345 . S
C510 H502 0.950 . S
C510 C509 1.345 . S
C510 C511 1.424 . S
C511 H503 0.951 . S
C511 C510 1.424 . S
C511 C512 1.347 . S
C512 H504 0.951 . S
C512 C507 1.429 . S
C512 C511 1.347 . S
H513 C514 0.951 . S
C514 H513 0.951 . S
C514 C520 1.265 . S
H515 C520 0.950 . S
H516 C524 0.949 . S
H517 C525 0.950 . S
H518 C526 0.951 . S
H519 C527 0.951 . S
C520 C514 1.265 . S
C520 H515 0.950 . S
C520 C521 1.478 . S
C521 C508 1.394 . S
C521 C520 1.478 . S
C521 C522 1.397 . S
C522 C521 1.397 . S
C522 C523 1.438 . S
C522 C527 1.429 . S
C523 C506 1.394 . S
C523 C522 1.438 . S
C523 C524 1.428 . S
C524 H516 0.949 . S
C524 C523 1.428 . S
C524 C525 1.345 . S
C525 H517 0.950 . S
C525 C524 1.345 . S
C525 C526 1.424 . S
C526 H518 0.951 . S
C526 C525 1.424 . S
C526 C527 1.347 . S
C527 H519 0.951 . S
C527 C522 1.429 . S
C527 C526 1.347 . S
H528 C529 0.951 . S
C529 H528 0.951 . S
C529 C535 1.265 . S
H530 C535 0.950 . S
H531 C539 0.949 . S
H532 C540 0.950 . S
H533 C541 0.951 . S
H534 C542 0.951 . S
C535 C529 1.265 . S
C535 H530 0.950 . S
C535 C536 1.478 . S
C536 C535 1.478 . S
C536 C537 1.397 . S
C536 C553 1.394 . S
C537 C536 1.397 . S
C537 C538 1.438 . S
C537 C542 1.429 1_556 S
C538 C537 1.438 . S
C538 C539 1.428 . S
C538 C551 1.394 . S
C539 H531 0.949 . S
C539 C538 1.428 . S
C539 C540 1.345 1_556 S
C540 H532 0.950 . S
C540 C539 1.345 1_554 S
C540 C541 1.424 . S
C541 H533 0.951 . S
C541 C540 1.424 . S
C541 C542 1.347 . S
C542 H534 0.951 . S
C542 C537 1.429 1_554 S
C542 C541 1.347 . S
H543 C544 0.951 . S
C544 H543 0.951 . S
C544 C550 1.265 . S
H545 C550 0.950 . S
H546 C554 0.949 . S
H547 C555 0.950 . S
H548 C556 0.951 . S
H549 C557 0.951 . S
C550 C544 1.265 . S
C550 H545 0.950 . S
C550 C551 1.478 . S
C551 C538 1.394 . S
C551 C550 1.478 . S
C551 C552 1.397 . S
C552 C551 1.397 . S
C552 C553 1.438 . S
C552 C557 1.429 . S
C553 C536 1.394 . S
C553 C552 1.438 . S
C553 C554 1.428 . S
C554 H546 0.949 . S
C554 C553 1.428 . S
C554 C555 1.345 . S
C555 H547 0.950 . S
C555 C554 1.345 . S
C555 C556 1.424 . S
C556 H548 0.951 . S
C556 C555 1.424 . S
C556 C557 1.347 . S
C557 H549 0.951 . S
C557 C552 1.429 . S
C557 C556 1.347 . S
H558 C559 0.951 . S
C559 H558 0.951 . S
C559 C565 1.265 . S
H560 C565 0.950 . S
H561 C569 0.949 . S
H562 C570 0.950 . S
H563 C571 0.951 . S
H564 C572 0.951 . S
C565 C559 1.265 . S
C565 H560 0.950 . S
C565 C566 1.478 . S
C566 C565 1.478 . S
C566 C567 1.397 . S
C566 C583 1.394 . S
C567 C566 1.397 . S
C567 C568 1.438 . S
C567 C572 1.429 . S
C568 C567 1.438 . S
C568 C569 1.428 . S
C568 C581 1.394 . S
C569 H561 0.949 . S
C569 C568 1.428 . S
C569 C570 1.345 . S
C570 H562 0.950 . S
C570 C569 1.345 . S
C570 C571 1.424 . S
C571 H563 0.951 . S
C571 C570 1.424 . S
C571 C572 1.347 . S
C572 H564 0.951 . S
C572 C567 1.429 . S
C572 C571 1.347 . S
H573 C574 0.951 . S
C574 H573 0.951 . S
C574 C580 1.265 . S
H575 C580 0.950 . S
H576 C584 0.949 . S
H577 C585 0.950 . S
H578 C586 0.951 . S
H579 C587 0.951 . S
C580 C574 1.265 . S
C580 H575 0.950 . S
C580 C581 1.478 . S
C581 C568 1.394 . S
C581 C580 1.478 . S
C581 C582 1.397 . S
C582 C581 1.397 . S
C582 C583 1.438 . S
C582 C587 1.429 . S
C583 C566 1.394 . S
C583 C582 1.438 . S
C583 C584 1.428 . S
C584 H576 0.949 . S
C584 C583 1.428 . S
C584 C585 1.345 . S
C585 H577 0.950 . S
C585 C584 1.345 . S
C585 C586 1.424 . S
C586 H578 0.951 . S
C586 C585 1.424 . S
C586 C587 1.347 . S
C587 H579 0.951 . S
C587 C582 1.429 . S
C587 C586 1.347 . S
H588 C589 0.951 . S
C589 H588 0.951 . S
C589 C595 1.265 . S
H590 C595 0.950 . S
H591 C599 0.949 . S
H592 C600 0.950 . S
H593 C601 0.951 . S
H594 C602 0.951 . S
C595 C589 1.265 . S
C595 H590 0.950 . S
C595 C596 1.478 . S
C596 C595 1.478 . S
C596 C597 1.397 . S
C596 C613 1.394 . S
C597 C596 1.397 . S
C597 C598 1.438 . S
C597 C602 1.429 . S
C598 C597 1.438 . S
C598 C599 1.428 . S
C598 C611 1.394 . S
C599 H591 0.949 . S
C599 C598 1.428 . S
C599 C600 1.345 . S
C600 H592 0.950 . S
C600 C599 1.345 . S
C600 C601 1.424 . S
C601 H593 0.951 . S
C601 C600 1.424 . S
C601 C602 1.347 . S
C602 H594 0.951 . S
C602 C597 1.429 . S
C602 C601 1.347 . S
H603 C604 0.951 . S
C604 H603 0.951 . S
C604 C610 1.265 . S
H605 C610 0.950 . S
H606 C614 0.949 . S
H607 C615 0.950 . S
H608 C616 0.951 . S
H609 C617 0.951 . S
C610 C604 1.265 . S
C610 H605 0.950 . S
C610 C611 1.478 . S
C611 C598 1.394 . S
C611 C610 1.478 . S
C611 C612 1.397 . S
C612 C611 1.397 . S
C612 C613 1.438 . S
C612 C617 1.429 . S
C613 C596 1.394 . S
C613 C612 1.438 . S
C613 C614 1.428 . S
C614 H606 0.949 . S
C614 C613 1.428 . S
C614 C615 1.345 . S
C615 H607 0.950 . S
C615 C614 1.345 . S
C615 C616 1.424 . S
C616 H608 0.951 . S
C616 C615 1.424 . S
C616 C617 1.347 . S
C617 H609 0.951 . S
C617 C612 1.429 . S
C617 C616 1.347 . S
H618 C619 0.951 . S
C619 H618 0.951 . S
C619 C625 1.265 . S
H620 C625 0.950 . S
H621 C629 0.949 . S
H622 C630 0.950 . S
H623 C631 0.951 . S
H624 C632 0.951 . S
C625 C619 1.265 . S
C625 H620 0.950 . S
C625 C626 1.478 . S
C626 C625 1.478 . S
C626 C627 1.397 . S
C626 C643 1.394 . S
C627 C626 1.397 . S
C627 C628 1.438 . S
C627 C632 1.429 . S
C628 C627 1.438 . S
C628 C629 1.428 . S
C628 C641 1.394 . S
C629 H621 0.949 . S
C629 C628 1.428 . S
C629 C630 1.345 . S
C630 H622 0.950 . S
C630 C629 1.345 . S
C630 C631 1.424 . S
C631 H623 0.951 . S
C631 C630 1.424 . S
C631 C632 1.347 . S
C632 H624 0.951 . S
C632 C627 1.429 . S
C632 C631 1.347 . S
H633 C634 0.951 . S
C634 H633 0.951 . S
C634 C640 1.265 . S
H635 C640 0.950 1_554 S
H636 C644 0.949 . S
H637 C645 0.950 . S
H638 C646 0.951 . S
H639 C647 0.951 . S
C640 C634 1.265 . S
C640 H635 0.950 1_556 S
C640 C641 1.478 . S
C641 C628 1.394 . S
C641 C640 1.478 . S
C641 C642 1.397 . S
C642 C641 1.397 . S
C642 C643 1.438 . S
C642 C647 1.429 1_556 S
C643 C626 1.394 . S
C643 C642 1.438 . S
C643 C644 1.428 . S
C644 H636 0.949 . S
C644 C643 1.428 . S
C644 C645 1.345 1_556 S
C645 H637 0.950 . S
C645 C644 1.345 1_554 S
C645 C646 1.424 . S
C646 H638 0.951 . S
C646 C645 1.424 . S
C646 C647 1.347 . S
C647 H639 0.951 . S
C647 C642 1.429 1_554 S
C647 C646 1.347 . S
C199 C17 1.583 . S
C214 C116 1.584 . S
C229 C149 1.581 . S
C244 C50 1.586 . S
C259 C83 1.582 . S
C274 C182 1.584 . S
C289 N5 1.172 . S
C304 N14 1.162 . S
C319 N38 1.200 . S
C334 N47 1.195 . S
C349 N71 1.169 1_554 S
C364 N80 1.161 . S
C379 N113 1.217 . S
C394 N104 1.215 . S
C409 N137 1.193 . S
C424 N146 1.191 . S
C439 N179 1.157 . S
C454 N170 1.167 1_554 S
C469 C28 1.509 . S
C484 C41 1.507 . S
C499 C61 1.515 . S
C514 C74 1.515 . S
C529 C107 1.506 1_556 S
C544 C94 1.508 . S
C559 C127 1.491 . S
C574 C140 1.481 . S
C589 C173 1.475 . S
C604 C160 1.487 . S
C619 C193 1.488 . S
C634 C8 1.477 1_556 S
