# Generated by pormake.
# Topology wjd, (6)-cn, num edge types: 1
# Building blocks:
#     Node 0, Type 0, BuildingBlock: CUWYAW_clean_sbu_0, # of connection points: 6
#     Node 1, Type 0, BuildingBlock: CUWYAW_clean_sbu_0, # of connection points: 6
#     Node 2, Type 0, BuildingBlock: CUWYAW_clean_sbu_0, # of connection points: 6
#     Node 3, Type 0, BuildingBlock: CUWYAW_clean_sbu_0, # of connection points: 6
#     Node 4, Type 0, BuildingBlock: CUWYAW_clean_sbu_0, # of connection points: 6
#     Node 5, Type 0, BuildingBlock: CUWYAW_clean_sbu_0, # of connection points: 6
#     Node 6, Type 0, BuildingBlock: CUWYAW_clean_sbu_0, # of connection points: 6
#     Node 7, Type 0, BuildingBlock: CUWYAW_clean_sbu_0, # of connection points: 6
#     Node 8, Type 0, BuildingBlock: CUWYAW_clean_sbu_0, # of connection points: 6
#     Node 9, Type 0, BuildingBlock: CUWYAW_clean_sbu_0, # of connection points: 6
#     Node 10, Type 0, BuildingBlock: CUWYAW_clean_sbu_0, # of connection points: 6
#     Node 11, Type 0, BuildingBlock: CUWYAW_clean_sbu_0, # of connection points: 6
#     Edge 12, Type (0, 0), BuildingBlock: TEMPAE_clean_linker_10, # of connection points: 2
#     Edge 13, Type (0, 0), BuildingBlock: TEMPAE_clean_linker_10, # of connection points: 2
#     Edge 14, Type (0, 0), BuildingBlock: TEMPAE_clean_linker_10, # of connection points: 2
#     Edge 15, Type (0, 0), BuildingBlock: TEMPAE_clean_linker_10, # of connection points: 2
#     Edge 16, Type (0, 0), BuildingBlock: TEMPAE_clean_linker_10, # of connection points: 2
#     Edge 17, Type (0, 0), BuildingBlock: TEMPAE_clean_linker_10, # of connection points: 2
#     Edge 18, Type (0, 0), BuildingBlock: TEMPAE_clean_linker_10, # of connection points: 2
#     Edge 19, Type (0, 0), BuildingBlock: TEMPAE_clean_linker_10, # of connection points: 2
#     Edge 20, Type (0, 0), BuildingBlock: TEMPAE_clean_linker_10, # of connection points: 2
#     Edge 21, Type (0, 0), BuildingBlock: TEMPAE_clean_linker_10, # of connection points: 2
#     Edge 22, Type (0, 0), BuildingBlock: TEMPAE_clean_linker_10, # of connection points: 2
#     Edge 23, Type (0, 0), BuildingBlock: TEMPAE_clean_linker_10, # of connection points: 2
#     Edge 24, Type (0, 0), BuildingBlock: TEMPAE_clean_linker_10, # of connection points: 2
#     Edge 25, Type (0, 0), BuildingBlock: TEMPAE_clean_linker_10, # of connection points: 2
#     Edge 26, Type (0, 0), BuildingBlock: TEMPAE_clean_linker_10, # of connection points: 2
#     Edge 27, Type (0, 0), BuildingBlock: TEMPAE_clean_linker_10, # of connection points: 2
#     Edge 28, Type (0, 0), BuildingBlock: TEMPAE_clean_linker_10, # of connection points: 2
#     Edge 29, Type (0, 0), BuildingBlock: TEMPAE_clean_linker_10, # of connection points: 2
#     Edge 30, Type (0, 0), BuildingBlock: TEMPAE_clean_linker_10, # of connection points: 2
#     Edge 31, Type (0, 0), BuildingBlock: TEMPAE_clean_linker_10, # of connection points: 2
#     Edge 32, Type (0, 0), BuildingBlock: TEMPAE_clean_linker_10, # of connection points: 2
#     Edge 33, Type (0, 0), BuildingBlock: TEMPAE_clean_linker_10, # of connection points: 2
#     Edge 34, Type (0, 0), BuildingBlock: TEMPAE_clean_linker_10, # of connection points: 2
#     Edge 35, Type (0, 0), BuildingBlock: TEMPAE_clean_linker_10, # of connection points: 2
#     Edge 36, Type (0, 0), BuildingBlock: TEMPAE_clean_linker_10, # of connection points: 2
#     Edge 37, Type (0, 0), BuildingBlock: TEMPAE_clean_linker_10, # of connection points: 2
#     Edge 38, Type (0, 0), BuildingBlock: TEMPAE_clean_linker_10, # of connection points: 2
#     Edge 39, Type (0, 0), BuildingBlock: TEMPAE_clean_linker_10, # of connection points: 2
#     Edge 40, Type (0, 0), BuildingBlock: TEMPAE_clean_linker_10, # of connection points: 2
#     Edge 41, Type (0, 0), BuildingBlock: TEMPAE_clean_linker_10, # of connection points: 2
#     Edge 42, Type (0, 0), BuildingBlock: TEMPAE_clean_linker_10, # of connection points: 2
#     Edge 43, Type (0, 0), BuildingBlock: TEMPAE_clean_linker_10, # of connection points: 2
#     Edge 44, Type (0, 0), BuildingBlock: TEMPAE_clean_linker_10, # of connection points: 2
#     Edge 45, Type (0, 0), BuildingBlock: TEMPAE_clean_linker_10, # of connection points: 2
#     Edge 46, Type (0, 0), BuildingBlock: TEMPAE_clean_linker_10, # of connection points: 2
#     Edge 47, Type (0, 0), BuildingBlock: TEMPAE_clean_linker_10, # of connection points: 2
# Relax obj value: 0.092
# Max RMSD: 0.206
# Mean RMSD: 0.206
data_MOF--net-wjd--node1-CUWYAW_clean_sbu_0--edge1-TEMPAE_clean_linker_10
_symmetry_space_group_name_H-M    P1
_symmetry_Int_Tables_number       1
_symmetry_cell_setting            triclinic
loop_
_symmetry_equiv_pos_as_xyz
'x, y, z'
_cell_length_a     40.997473
_cell_length_b     41.064186
_cell_length_c     52.338075
_cell_angle_alpha  89.93716
_cell_angle_beta   90.029899
_cell_angle_gamma 120.11297
loop_
_atom_site_label
_atom_site_type_symbol
_atom_site_fract_x
_atom_site_fract_y
_atom_site_fract_z
_atom_type_partial_charge
C0 C 0.27808 0.02721 0.1356 0.0
Eu1 Eu 0.32656 0.09864 0.14064 0.0
C2 C 0.23714 1.00147 0.13997 0.0
C3 C 0.22427 0.97587 0.16047 0.0
C4 C 0.18568 0.95 0.16337 0.0
C5 C 0.15935 0.94958 0.14596 0.0
C6 C 0.17209 0.97549 0.12576 0.0
C7 C 0.21049 1.00093 0.12267 0.0
C8 C 0.34173 0.14164 0.18294 0.0
C9 C 0.28592 0.14999 0.13271 0.0
C10 C 0.4206 0.24955 0.10917 0.0
Eu11 Eu 0.37229 0.18012 0.12186 0.0
C12 C 0.45733 0.28302 0.11535 0.0
C13 C 0.48283 0.30198 0.09543 0.0
C14 C 0.51581 0.33628 0.09987 0.0
C15 C 0.52401 0.35248 0.12439 0.0
C16 C 0.49912 0.33263 0.14456 0.0
C17 C 0.46609 0.29824 0.1401 0.0
C18 C 0.34113 0.12455 0.08548 0.0
C19 C 0.41696 0.13924 0.14214 0.0
O20 O 0.28642 0.05232 0.11763 0.0
O21 O 0.30065 0.04076 0.15544 0.0
O22 O 0.32322 0.10514 0.18271 0.0
O23 O 0.35247 0.15481 0.1605 0.0
O24 O 0.28194 0.11588 0.13372 0.0
O25 O 0.31933 0.1804 0.13073 0.0
O26 O 0.39248 0.24015 0.12497 0.0
O27 O 0.42089 0.22042 0.09938 0.0
O28 O 0.34013 0.15555 0.0841 0.0
O29 O 0.35776 0.12488 0.10565 0.0
O30 O 0.41643 0.1711 0.14096 0.0
O31 O 0.38558 0.10609 0.13968 0.0
H32 H 0.24406 0.97543 0.17399 0.0
H33 H 0.17638 0.93017 0.1791 0.0
H34 H 0.15238 0.97529 0.11187 0.0
H35 H 0.21921 0.01975 0.10638 0.0
H36 H 0.47658 0.29086 0.07616 0.0
H37 H 0.53405 0.35085 0.08383 0.0
H38 H 0.50488 0.34397 0.16376 0.0
H39 H 0.44702 0.28411 0.15587 0.0
C40 C 0.85789 0.61461 0.43559 0.0
Eu41 Eu 0.83435 0.66147 0.42409 0.0
C42 C 0.85381 0.57715 0.43075 0.0
C43 C 0.84778 0.55323 0.45159 0.0
C44 C 0.8487 0.51987 0.44846 0.0
C45 C 0.85589 0.5096 0.42437 0.0
C46 C 0.86029 0.5328 0.40325 0.0
C47 C 0.85934 0.56627 0.4064 0.0
C48 C 0.81082 0.6906 0.46235 0.0
C49 C 0.74734 0.61403 0.40718 0.0
C50 C 0.77107 0.75144 0.41718 0.0
Eu51 Eu 0.7947 0.70415 0.40881 0.0
C52 C 0.78619 0.79256 0.41416 0.0
C53 C 0.77968 0.80767 0.39188 0.0
C54 C 0.79359 0.84653 0.3898 0.0
C55 C 0.81446 0.87083 0.40984 0.0
C56 C 0.82113 0.85592 0.43198 0.0
C57 C 0.80693 0.81722 0.43422 0.0
C58 C 0.81956 0.69158 0.36434 0.0
C59 C 0.88753 0.74675 0.41138 0.0
O60 O 0.87336 0.64063 0.41797 0.0
O61 O 0.83056 0.61569 0.44767 0.0
O62 O 0.8446 0.69546 0.46141 0.0
O63 O 0.79314 0.67295 0.44286 0.0
O64 O 0.78054 0.61617 0.4068 0.0
O65 O 0.74424 0.64452 0.40995 0.0
O66 O 0.78857 0.74227 0.43404 0.0
O67 O 0.76149 0.73007 0.39672 0.0
O68 O 0.79966 0.70792 0.3667 0.0
O69 O 0.82505 0.68057 0.38596 0.0
O70 O 0.857 0.74994 0.4135 0.0
O71 O 0.88562 0.71391 0.41227 0.0
H72 H 0.84348 0.56094 0.47057 0.0
H73 H 0.84438 0.50239 0.46507 0.0
H74 H 0.86602 0.52593 0.38443 0.0
H75 H 0.86409 0.58412 0.38995 0.0
H76 H 0.76367 0.78951 0.37617 0.0
H77 H 0.78803 0.85763 0.3726 0.0
H78 H 0.83674 0.87417 0.44778 0.0
H79 H 0.81209 0.80664 0.45183 0.0
C80 C 1.0011 0.25531 0.15498 0.0
Eu81 Eu 0.93091 0.23411 0.14377 0.0
C82 C 0.02698 0.24044 0.15122 0.0
C83 C 0.06121 0.25679 0.16455 0.0
C84 C 0.0854 0.2421 0.1624 0.0
C85 C 0.07592 0.21067 0.14678 0.0
C86 C 0.0416 0.19445 0.13325 0.0
C87 C 1.01725 0.20904 0.13559 0.0
C88 C 0.88066 0.21918 0.18208 0.0
C89 C 0.88381 0.14308 0.13357 0.0
C90 C 0.78285 0.17369 0.11153 0.0
Eu91 Eu 0.85341 0.19762 0.12375 0.0
C92 C 0.74939 0.17773 0.11629 0.0
C93 C 0.72426 0.17098 0.09611 0.0
C94 C 0.6903 0.17054 0.10024 0.0
C95 C 0.6805 0.17695 0.12476 0.0
C96 C 0.70643 0.18498 0.14486 0.0
C97 C 0.74049 0.18532 0.14068 0.0
C98 C 0.90829 0.21511 0.08724 0.0
C99 C 0.8936 0.2851 0.13673 0.0
O100 O 0.99117 0.26693 0.13477 0.0
O101 O 0.9728 0.23596 0.17036 0.0
O102 O 0.91176 0.25072 0.17862 0.0
O103 O 0.8755 0.19708 0.16346 0.0
O104 O 0.91733 0.17411 0.1337 0.0
O105 O 0.85284 0.14493 0.13311 0.0
O106 O 0.79331 0.15885 0.12958 0.0
O107 O 0.81148 0.20087 0.09947 0.0
O108 O 0.87534 0.18504 0.08662 0.0
O109 O 0.90966 0.23515 0.10574 0.0
O110 O 0.86209 0.25262 0.13819 0.0
O111 O 0.92657 0.28643 0.13577 0.0
H112 H 0.06916 0.28084 0.17685 0.0
H113 H 0.11177 0.25562 0.17283 0.0
H114 H 0.03323 0.17005 0.12124 0.0
H115 H 0.99073 0.19557 0.12538 0.0
H116 H 0.7304 0.16487 0.07715 0.0
H117 H 0.6711 0.16377 0.08431 0.0
H118 H 0.7003 0.19069 0.16391 0.0
H119 H 0.75947 0.19077 0.15659 0.0
C120 C 0.41565 0.24902 0.43729 0.0
Eu121 Eu 0.36915 0.17845 0.42621 0.0
C122 C 0.45315 0.28199 0.43134 0.0
C123 C 0.48078 0.29716 0.45054 0.0
C124 C 0.51443 0.33114 0.44665 0.0
C125 C 0.52119 0.35103 0.42351 0.0
C126 C 0.49412 0.33501 0.40392 0.0
C127 C 0.46049 0.30092 0.40778 0.0
C128 C 0.332 0.12357 0.46227 0.0
C129 C 0.41617 0.13712 0.41137 0.0
C130 C 0.27948 0.02348 0.40718 0.0
Eu131 Eu 0.32568 0.09607 0.4068 0.0
C132 C 0.23809 0.99951 0.40503 0.0
C133 C 0.22248 0.9646 0.39261 0.0
C134 C 0.1833 0.94083 0.39161 0.0
C135 C 0.15925 0.95166 0.40305 0.0
C136 C 0.17471 0.98693 0.41489 0.0
C137 C 0.21382 1.01084 0.41567 0.0
C138 C 0.34943 0.1404 0.36458 0.0
C139 C 0.28344 0.14596 0.41214 0.0
O140 O 0.38905 0.23797 0.42001 0.0
O141 O 0.41472 0.2209 0.44975 0.0
O142 O 0.33371 0.15593 0.46281 0.0
O143 O 0.35068 0.12251 0.44357 0.0
O144 O 0.416 0.16902 0.41365 0.0
O145 O 0.38466 0.1039 0.41013 0.0
O146 O 0.29201 0.04397 0.42779 0.0
O147 O 0.29753 0.04194 0.38671 0.0
O148 O 0.3307 0.10401 0.36453 0.0
O149 O 0.35564 0.15267 0.38745 0.0
O150 O 0.2798 0.11195 0.41197 0.0
O151 O 0.31656 0.17676 0.41382 0.0
H152 H 0.47587 0.28329 0.46892 0.0
H153 H 0.53488 0.34216 0.46201 0.0
H154 H 0.49812 0.34957 0.38592 0.0
H155 H 0.43977 0.29013 0.39259 0.0
H156 H 0.24061 0.95549 0.38404 0.0
H157 H 0.17176 0.91367 0.38235 0.0
H158 H 0.15655 0.99572 0.42384 0.0
H159 H 0.22501 0.03791 0.42489 0.0
C160 C 0.77314 0.75458 0.1392 0.0
Eu161 Eu 0.79574 0.7058 0.14154 0.0
C162 C 0.79237 0.79596 0.1418 0.0
C163 C 0.7765 0.81271 0.15682 0.0
C164 C 0.79311 0.85196 0.15759 0.0
C165 C 0.82563 0.87501 0.14312 0.0
C166 C 0.84211 0.85822 0.12873 0.0
C167 C 0.82584 0.81916 0.1282 0.0
C168 C 0.82129 0.68442 0.18246 0.0
C169 C 0.88761 0.74623 0.13479 0.0
C170 C 0.85513 0.61304 0.10859 0.0
Eu171 Eu 0.83312 0.66055 0.12097 0.0
C172 C 0.85224 0.57647 0.11482 0.0
C173 C 0.8363 0.54713 0.09688 0.0
C174 C 0.83808 0.51431 0.10051 0.0
C175 C 0.85616 0.51015 0.12209 0.0
C176 C 0.87077 0.53894 0.14056 0.0
C177 C 0.86887 0.57174 0.13697 0.0
C178 C 0.80993 0.69424 0.08569 0.0
C179 C 0.74618 0.61616 0.14003 0.0
O180 O 0.78326 0.74252 0.11934 0.0
O181 O 0.76899 0.73467 0.15982 0.0
O182 O 0.80261 0.70216 0.18399 0.0
O183 O 0.82441 0.67756 0.15925 0.0
O184 O 0.85757 0.7503 0.1357 0.0
O185 O 0.88549 0.71343 0.13184 0.0
O186 O 0.87359 0.64121 0.12439 0.0
O187 O 0.82568 0.61253 0.09844 0.0
O188 O 0.84111 0.69357 0.0836 0.0
O189 O 0.79333 0.67709 0.10566 0.0
O190 O 0.77834 0.616 0.1386 0.0
O191 O 0.74445 0.64752 0.13849 0.0
H192 H 0.7508 0.79543 0.16747 0.0
H193 H 0.77974 0.86424 0.16874 0.0
H194 H 0.86739 0.87534 0.11764 0.0
H195 H 0.83909 0.80718 0.11663 0.0
H196 H 0.82349 0.55007 0.07957 0.0
H197 H 0.82588 0.49245 0.08612 0.0
H198 H 0.88515 0.53688 0.15732 0.0
H199 H 0.88163 0.59388 0.15112 0.0
C200 C 0.77988 0.16764 0.43771 0.0
Eu201 Eu 0.85102 0.19374 0.42736 0.0
C202 C 0.74705 0.17276 0.43336 0.0
C203 C 0.72554 0.17179 0.45448 0.0
C204 C 0.69151 0.17137 0.4511 0.0
C205 C 0.678 0.17172 0.42644 0.0
C206 C 0.70055 0.17467 0.40528 0.0
C207 C 0.73473 0.1751 0.40869 0.0
C208 C 0.90752 0.21809 0.4629 0.0
C209 C 0.89105 0.2823 0.41088 0.0
C210 C 1.00724 0.26154 0.41157 0.0
Eu211 Eu 0.93507 0.23565 0.40727 0.0
C212 C 0.03365 0.24732 0.40814 0.0
C213 C 0.03233 0.22601 0.38676 0.0
C214 C 0.05525 0.20964 0.38573 0.0
C215 C 0.07932 0.21377 0.40624 0.0
C216 C 0.08066 0.23542 0.42743 0.0
C217 C 0.0582 0.25206 0.4283 0.0
C218 C 0.8885 0.20677 0.36642 0.0
C219 C 0.88701 0.14318 0.41437 0.0
O220 O 0.79178 0.15568 0.41863 0.0
O221 O 0.80733 0.19243 0.452 0.0
O222 O 0.87614 0.18618 0.46468 0.0
O223 O 0.90677 0.23496 0.44305 0.0
O224 O 0.85964 0.24948 0.41355 0.0
O225 O 0.92494 0.28536 0.40971 0.0
O226 O 0.98299 0.24501 0.43002 0.0
O227 O 0.99219 0.26788 0.39135 0.0
O228 O 0.92501 0.22653 0.36475 0.0
O229 O 0.87851 0.20388 0.38961 0.0
O230 O 0.92033 0.17439 0.41271 0.0
O231 O 0.85519 0.14319 0.41759 0.0
H232 H 0.73447 0.17008 0.47369 0.0
H233 H 0.67534 0.16996 0.46785 0.0
H234 H 0.69101 0.17495 0.38602 0.0
H235 H 0.75082 0.17602 0.39203 0.0
H236 H 1.01311 0.22136 0.37116 0.0
H237 H 0.05347 0.19297 0.3692 0.0
H238 H 0.09923 0.23962 0.44338 0.0
H239 H 0.05936 0.26807 0.44506 0.0
C240 C 0.2565 0.40742 0.61198 0.0
Eu241 Eu 0.18503 0.36404 0.6234 0.0
C242 C 0.29024 0.44526 0.61442 0.0
C243 C 0.31963 0.45603 0.59679 0.0
C244 C 0.35381 0.4897 0.59989 0.0
C245 C 0.3595 0.51363 0.62074 0.0
C246 C 0.32941 0.50327 0.63801 0.0
C247 C 0.29512 0.46937 0.63491 0.0
C248 C 0.12942 0.33007 0.58698 0.0
C249 C 0.1458 0.41321 0.63638 0.0
C250 C 0.03495 0.27544 0.64911 0.0
Eu251 Eu 0.10647 0.32409 0.64273 0.0
C252 C 1.01055 0.23413 0.64668 0.0
C253 C 0.98369 0.21409 0.66565 0.0
C254 C 0.95988 0.17511 0.66363 0.0
C255 C 0.96232 0.15519 0.64253 0.0
C256 C 0.98957 0.17533 0.62362 0.0
C257 C 1.01352 0.21436 0.6257 0.0
C258 C 0.1567 0.35749 0.68128 0.0
C259 C 0.15269 0.27839 0.63468 0.0
O260 O 0.24438 0.3868 0.63262 0.0
O261 O 0.22903 0.40341 0.5972 0.0
O262 O 0.16031 0.32857 0.58679 0.0
O263 O 0.12996 0.34917 0.60577 0.0
O264 O 0.17747 0.41228 0.63589 0.0
O265 O 0.11253 0.38178 0.63662 0.0
O266 O 0.04904 0.29442 0.62801 0.0
O267 O 0.05938 0.28751 0.66779 0.0
O268 O 0.12505 0.35724 0.67881 0.0
O269 O 0.16113 0.34045 0.66242 0.0
O270 O 0.11934 0.27629 0.63511 0.0
O271 O 0.18389 0.31093 0.63282 0.0
H272 H 0.31659 0.43773 0.58095 0.0
H273 H 0.37627 0.49622 0.58638 0.0
H274 H 0.33244 0.52118 0.65407 0.0
H275 H 0.27278 0.46164 0.64876 0.0
H276 H 0.98091 0.2287 0.68199 0.0
H277 H 0.93893 0.1607 0.67837 0.0
H278 H 0.99255 0.16089 0.60726 0.0
H279 H 0.03424 0.22904 0.61086 0.0
C280 C 0.26503 0.99919 0.91353 0.0
Eu281 Eu 0.24152 0.92784 0.90756 0.0
C282 C 0.251 0.02573 0.91008 0.0
C283 C 0.22895 0.02412 0.88902 0.0
C284 C 0.21328 0.04768 0.88795 0.0
C285 C 0.21889 0.07271 0.90812 0.0
C286 C 0.24117 0.07419 0.92901 0.0
C287 C 0.25706 0.05106 0.9299 0.0
C288 C 0.21308 0.88452 0.8655 0.0
C289 C 0.14935 0.87579 0.91482 0.0
C290 C 0.18411 0.77644 0.93929 0.0
Eu291 Eu 0.20525 0.84582 0.92648 0.0
C292 C 0.18702 0.74272 0.93354 0.0
C293 C 0.1891 0.72169 0.95396 0.0
C294 C 0.18747 0.6873 0.94963 0.0
C295 C 0.18371 0.67304 0.92469 0.0
C296 C 0.18305 0.69493 0.90413 0.0
C297 C 0.18465 0.72942 0.9085 0.0
C298 C 0.22969 0.90161 0.96267 0.0
C299 C 0.29065 0.88701 0.90541 0.0
O300 O 0.24716 0.97366 0.93108 0.0
O301 O 0.27341 0.98585 0.8933 0.0
O302 O 0.23139 0.92106 0.86552 0.0
O303 O 0.21087 0.87159 0.88799 0.0
O304 O 0.17941 0.90998 0.91342 0.0
O305 O 0.1521 0.84543 0.91758 0.0
O306 O 0.16554 0.78566 0.92325 0.0
O307 O 0.21365 0.8057 0.94904 0.0
O308 O 0.19762 0.87051 0.96412 0.0
O309 O 0.24602 0.90123 0.94254 0.0
O310 O 0.25812 0.85516 0.9069 0.0
O311 O 0.29286 0.92025 0.90798 0.0
H312 H 0.2233 1.00427 0.87369 0.0
H313 H 0.19607 0.0457 0.87167 0.0
H314 H 0.24654 0.09344 0.9447 0.0
H315 H 0.27365 0.05241 0.94639 0.0
H316 H 0.19075 0.73131 0.97345 0.0
H317 H 0.18766 0.67119 0.96598 0.0
H318 H 0.18082 0.68519 0.88465 0.0
H319 H 0.18318 0.7452 0.89238 0.0
C320 C 0.61812 0.84921 0.60365 0.0
Eu321 Eu 0.66562 0.82797 0.61817 0.0
C322 C 0.58261 0.84868 0.60903 0.0
C323 C 0.57187 0.86851 0.59255 0.0
C324 C 0.53893 0.86969 0.59701 0.0
C325 C 0.51577 0.85093 0.6181 0.0
C326 C 0.52649 0.83071 0.63459 0.0
C327 C 0.55969 0.82955 0.63007 0.0
C328 C 0.69781 0.80276 0.58312 0.0
C329 C 0.6209 0.74296 0.63962 0.0
C330 C 0.76132 0.77189 0.63655 0.0
Eu331 Eu 0.71135 0.79315 0.63948 0.0
C332 C 0.80243 0.78867 0.64114 0.0
C333 C 0.81624 0.77962 0.66297 0.0
C334 C 0.85514 0.79423 0.6662 0.0
C335 C 0.88098 0.81807 0.64759 0.0
C336 C 0.86702 0.82725 0.62591 0.0
C337 C 0.82842 0.81278 0.62271 0.0
C338 C 0.69407 0.82214 0.68022 0.0
C339 C 0.75134 0.88467 0.6305 0.0
O340 O 0.64673 0.86907 0.61881 0.0
O341 O 0.61597 0.81775 0.59635 0.0
O342 O 0.69759 0.83404 0.58063 0.0
O343 O 0.6814 0.78715 0.60356 0.0
O344 O 0.62154 0.77536 0.63768 0.0
O345 O 0.65241 0.7412 0.63834 0.0
O346 O 0.75255 0.78717 0.61785 0.0
O347 O 0.73838 0.76325 0.65616 0.0
O348 O 0.71288 0.80453 0.68144 0.0
O349 O 0.6844 0.82355 0.65731 0.0
O350 O 0.75558 0.85477 0.63171 0.0
O351 O 0.71792 0.88143 0.62804 0.0
H352 H 0.58927 0.88351 0.57625 0.0
H353 H 0.53205 0.88606 0.58415 0.0
H354 H 0.50916 0.81566 0.65088 0.0
H355 H 0.56752 0.81396 0.64297 0.0
H356 H 0.797 0.76095 0.6774 0.0
H357 H 0.86496 0.78674 0.68321 0.0
H358 H 0.88584 0.84477 0.6109 0.0
H359 H 0.81903 0.82008 0.6054 0.0
C360 C 0.02929 0.27188 0.9127 0.0
Eu361 Eu 0.10124 0.31917 0.90836 0.0
C362 C 1.0038 0.23071 0.90999 0.0
C363 C 0.99363 0.21291 0.88602 0.0
C364 C 0.96978 0.17379 0.88437 0.0
C365 C 0.95571 0.15174 0.90664 0.0
C366 C 0.96596 0.16974 0.93052 0.0
C367 C 0.98965 0.20864 0.93214 0.0
C368 C 0.14581 0.33935 0.86628 0.0
C369 C 0.15306 0.27868 0.9141 0.0
C370 C 0.25402 0.4112 0.93998 0.0
Eu371 Eu 0.18422 0.36452 0.92712 0.0
C372 C 0.28799 0.44816 0.93564 0.0
C373 C 0.31563 0.46256 0.95477 0.0
C374 C 0.35019 0.49523 0.95053 0.0
C375 C 0.35767 0.5144 0.92713 0.0
C376 C 0.32933 0.50105 0.90833 0.0
C377 C 0.2947 0.46792 0.91249 0.0
C378 C 0.12864 0.32981 0.96307 0.0
C379 C 0.14191 0.40924 0.90919 0.0
O380 O 0.05318 0.28196 0.93165 0.0
O381 O 0.04428 0.29227 0.89209 0.0
O382 O 0.10924 0.32114 0.86567 0.0
O383 O 0.15731 0.34705 0.88917 0.0
O384 O 0.11873 0.27447 0.91369 0.0
O385 O 0.18363 0.31201 0.916 0.0
O386 O 0.24428 0.38573 0.92206 0.0
O387 O 0.22511 0.41047 0.95116 0.0
O388 O 0.15959 0.32855 0.96343 0.0
O389 O 0.12867 0.34819 0.94395 0.0
O390 O 0.1742 0.40939 0.91026 0.0
O391 O 0.1088 0.37778 0.91117 0.0
H392 H 1.00415 0.22909 0.86857 0.0
H393 H 0.96264 0.16077 0.86568 0.0
H394 H 0.95518 0.15385 0.94806 0.0
H395 H 0.99701 0.22153 0.95086 0.0
H396 H 0.31094 0.4478 0.97277 0.0
H397 H 0.37147 0.50515 0.96537 0.0
H398 H 0.33456 0.51536 0.8901 0.0
H399 H 0.27368 0.45722 0.89747 0.0
C400 C 0.17741 0.77802 0.61187 0.0
Eu401 Eu 0.2026 0.8487 0.62311 0.0
C402 C 0.18143 0.74454 0.61645 0.0
C403 C 0.1853 0.72567 0.59536 0.0
C404 C 0.18412 0.69124 0.59845 0.0
C405 C 0.17878 0.67461 0.62276 0.0
C406 C 0.17655 0.69437 0.64406 0.0
C407 C 0.17779 0.72894 0.64094 0.0
C408 C 0.22213 0.90309 0.58649 0.0
C409 C 0.29145 0.8887 0.63851 0.0
C410 C 0.26936 1.0038 0.6387 0.0
Eu411 Eu 0.24454 0.93173 0.64133 0.0
C412 C 0.25065 0.02666 0.64088 0.0
C413 C 0.26645 0.0592 0.65609 0.0
C414 C 0.24983 0.08187 0.65706 0.0
C415 C 0.21751 0.07262 0.6425 0.0
C416 C 0.20119 0.03968 0.62781 0.0
C417 C 0.21721 0.01661 0.62736 0.0
C418 C 0.223 0.88865 0.68413 0.0
C419 C 0.15171 0.88318 0.63757 0.0
O420 O 0.1635 0.78917 0.6302 0.0
O421 O 0.20394 0.80604 0.59885 0.0
O422 O 0.18994 0.87207 0.58687 0.0
O423 O 0.24183 0.9036 0.60505 0.0
O424 O 0.25837 0.85742 0.637 0.0
O425 O 0.29466 0.92255 0.63799 0.0
O426 O 0.26032 0.98188 0.61872 0.0
O427 O 0.27186 0.98744 0.65948 0.0
O428 O 0.24253 0.92508 0.68373 0.0
O429 O 0.21629 0.87579 0.66142 0.0
O430 O 0.18284 0.91661 0.6381 0.0
O431 O 0.15205 0.8516 0.63462 0.0
H432 H 0.1881 0.73703 0.57627 0.0
H433 H 0.18676 0.67733 0.58167 0.0
H434 H 0.17229 0.68243 0.66305 0.0
H435 H 0.17471 0.7428 0.6576 0.0
H436 H 0.29193 0.06736 0.66693 0.0
H437 H 0.26283 0.10723 0.66854 0.0
H438 H 0.17613 0.03191 0.61657 0.0
H439 H 0.20358 0.99114 0.61616 0.0
C440 C 0.75891 0.76433 0.91435 0.0
Eu441 Eu 0.71087 0.78717 0.90696 0.0
C442 C 0.79933 0.7781 0.91018 0.0
C443 C 0.81753 0.79354 0.88685 0.0
C444 C 0.85674 0.8092 0.88473 0.0
C445 C 0.87826 0.81012 0.906 0.0
C446 C 0.85968 0.79431 0.92917 0.0
C447 C 0.82073 0.77847 0.93116 0.0
C448 C 0.69323 0.80826 0.86268 0.0
C449 C 0.75094 0.87931 0.91237 0.0
C450 C 0.61751 0.84653 0.93386 0.0
Eu451 Eu 0.66468 0.82317 0.92311 0.0
C452 C 0.58024 0.84293 0.92948 0.0
C453 C 0.56338 0.85159 0.94963 0.0
C454 C 0.53028 0.85282 0.94573 0.0
C455 C 0.51306 0.84526 0.92151 0.0
C456 C 0.52938 0.83525 0.90149 0.0
C457 C 0.56272 0.83418 0.90542 0.0
C458 C 0.69625 0.80138 0.96104 0.0
C459 C 0.62072 0.73554 0.90755 0.0
O460 O 0.75217 0.78405 0.93089 0.0
O461 O 0.73602 0.75363 0.89461 0.0
O462 O 0.71269 0.79144 0.86487 0.0
O463 O 0.68282 0.81371 0.88457 0.0
O464 O 0.75526 0.84949 0.91112 0.0
O465 O 0.71768 0.87633 0.91465 0.0
O466 O 0.64245 0.86054 0.91546 0.0
O467 O 0.61892 0.81987 0.94661 0.0
O468 O 0.69764 0.83363 0.96106 0.0
O469 O 0.67944 0.78391 0.94129 0.0
O470 O 0.61952 0.76703 0.90827 0.0
O471 O 0.65272 0.73506 0.90958 0.0
H472 H 0.80167 0.7941 0.87046 0.0
H473 H 0.8703 0.82131 0.86666 0.0
H474 H 0.87525 0.79399 0.9458 0.0
H475 H 0.80718 0.76703 0.94933 0.0
H476 H 0.57656 0.85866 0.96831 0.0
H477 H 0.51905 0.86114 0.96154 0.0
H478 H 0.51663 0.82863 0.8827 0.0
H479 H 0.57519 0.82731 0.88958 0.0
C480 C 0.12024 0.19204 0.1664 0.0
C481 C 0.10208 0.19536 0.14462 0.0
C482 C 0.14727 0.18062 0.16452 0.0
C483 C 0.15666 0.17242 0.14025 0.0
C484 C 0.13732 0.17421 0.1183 0.0
C485 C 0.11024 0.18555 0.12075 0.0
C486 C 0.16687 0.17881 0.18846 0.0
C487 C 0.14646 0.16581 0.09206 0.0
C488 C 0.25689 0.19112 0.13241 0.0
C489 C 0.25224 0.15485 0.13398 0.0
C490 C 0.22604 0.19697 0.13416 0.0
C491 C 0.18928 0.16585 0.13759 0.0
C492 C 0.18418 0.12907 0.13897 0.0
C493 C 0.21569 0.12399 0.13716 0.0
C494 C 0.23292 0.23668 0.13258 0.0
C495 C 0.14549 0.09514 0.14269 0.0
H496 H 0.11361 0.19883 0.18499 0.0
H497 H 0.09652 0.18817 0.1038 0.0
H498 H 0.16607 0.15144 0.18961 0.0
H499 H 0.19696 0.20125 0.1879 0.0
H500 H 0.15392 0.1825 0.20605 0.0
H501 H 0.12648 0.16481 0.07731 0.0
H502 H 0.17539 0.18789 0.08659 0.0
H503 H 0.14589 0.13852 0.0921 0.0
H504 H 0.28486 0.21528 0.12994 0.0
H505 H 0.21168 0.09586 0.13843 0.0
H506 H 0.22362 0.2439 0.15053 0.0
H507 H 0.2161 0.23893 0.11678 0.0
H508 H 0.2631 0.25778 0.12937 0.0
H509 H 0.1339 0.09709 0.16141 0.0
H510 H 0.14594 0.06832 0.14207 0.0
H511 H 0.12596 0.09439 0.12772 0.0
C512 C 0.0946 0.92459 0.38448 0.0
C513 C 0.11822 0.9252 0.40401 0.0
C514 C 0.0557 0.89835 0.38491 0.0
C515 C 0.04035 0.87223 0.40535 0.0
C516 C 0.06426 0.87347 0.42536 0.0
C517 C 0.10294 0.89998 0.42443 0.0
C518 C 0.03124 0.89784 0.36318 0.0
C519 C 0.04918 0.84603 0.4474 0.0
C520 C 0.93438 0.81551 0.41802 0.0
C521 C 0.92536 0.78036 0.40795 0.0
C522 C 0.97159 0.84614 0.4168 0.0
C523 C 1.00008 0.84153 0.40485 0.0
C524 C 0.99055 0.80653 0.39364 0.0
C525 C 0.95348 0.77641 0.39549 0.0
C526 C 0.98072 0.88297 0.4291 0.0
C527 C 0.01979 0.80045 0.38035 0.0
H528 H 0.10668 0.94428 0.36874 0.0
H529 H 0.12147 0.90069 0.43949 0.0
H530 H 0.01999 0.871 0.35249 0.0
H531 H 1.00671 0.89928 0.37069 0.0
H532 H 0.04697 0.92156 0.34965 0.0
H533 H 0.07098 0.85228 0.4622 0.0
H534 H 0.02501 0.84662 0.45643 0.0
H535 H 0.03869 0.81701 0.44026 0.0
H536 H 0.91275 0.81865 0.4277 0.0
H537 H 0.94656 0.74943 0.38733 0.0
H538 H 0.99539 0.90643 0.41528 0.0
H539 H 1.00018 0.88879 0.44542 0.0
H540 H 0.9551 0.88279 0.43619 0.0
H541 H 0.0345 0.82225 0.36545 0.0
H542 H 1.00729 0.77228 0.37125 0.0
H543 H 0.04138 0.8032 0.39434 0.0
C544 C 0.84382 0.07322 0.13426 0.0
C545 C 0.88002 0.10524 0.13414 0.0
C546 C 0.8387 0.03694 0.13559 0.0
C547 C 0.87056 0.03227 0.1368 0.0
C548 C 0.90728 0.06431 0.13639 0.0
C549 C 0.9116 0.10054 0.13508 0.0
C550 C 0.79903 1.00356 0.13589 0.0
C551 C 0.94187 0.0603 0.13754 0.0
C552 C 0.84672 0.93729 0.16406 0.0
C553 C 0.84107 0.91624 0.14178 0.0
C554 C 0.85881 0.97587 0.16278 0.0
C555 C 0.86476 0.99357 0.13862 0.0
C556 C 0.86032 0.97268 0.11609 0.0
C557 C 0.84869 0.93429 0.11796 0.0
C558 C 0.86351 0.99725 0.18723 0.0
C559 C 0.86571 0.9903 0.08996 0.0
H560 H 0.81912 0.07636 0.13349 0.0
H561 H 0.93964 0.12507 0.13498 0.0
H562 H 0.79509 0.98441 0.11976 0.0
H563 H 0.79416 0.98729 0.15381 0.0
H564 H 0.77729 1.01206 0.13444 0.0
H565 H 0.9684 0.08795 0.13676 0.0
H566 H 0.94164 0.04569 0.15544 0.0
H567 H 0.94169 0.04272 0.1214 0.0
H568 H 0.84124 0.92344 0.1825 0.0
H569 H 0.844 0.91798 0.10068 0.0
H570 H 0.84089 1.0045 0.18867 0.0
H571 H 0.89087 0.02406 0.18724 0.0
H572 H 0.86215 0.98069 0.2044 0.0
H573 H 0.8428 0.99662 0.08623 0.0
H574 H 0.86531 0.97151 0.07455 0.0
H575 H 0.89279 0.01732 0.08903 0.0
C576 C 0.21424 0.12128 0.40373 0.0
C577 C 0.24975 0.15059 0.41134 0.0
C578 C 0.183 0.12682 0.40225 0.0
C579 C 0.18737 0.16233 0.40877 0.0
C580 C 0.22294 0.1916 0.41705 0.0
C581 C 0.25355 0.18543 0.41813 0.0
C582 C 0.14551 0.09494 0.39333 0.0
C583 C 0.22884 0.22971 0.42463 0.0
C584 C 0.1246 0.19896 0.38391 0.0
C585 C 0.10342 0.19612 0.4057 0.0
C586 C 0.15055 0.18606 0.38417 0.0
C587 C 0.15532 0.16972 0.40671 0.0
C588 C 0.13253 0.16493 0.4283 0.0
C589 C 0.10696 0.17826 0.42755 0.0
C590 C 0.17442 0.19191 0.36078 0.0
C591 C 0.13654 0.14756 0.45268 0.0
H592 H 0.21102 0.09428 0.39852 0.0
H593 H 0.28066 0.20818 0.42442 0.0
H594 H 0.12321 0.08955 0.40748 0.0
H595 H 0.13747 0.10285 0.3751 0.0
H596 H 0.14618 0.0685 0.39033 0.0
H597 H 0.25811 0.24923 0.43115 0.0
H598 H 0.22259 0.24277 0.40818 0.0
H599 H 0.20917 0.22652 0.44026 0.0
H600 H 0.12217 0.21288 0.36701 0.0
H601 H 0.09019 0.17536 0.44432 0.0
H602 H 0.17435 0.1656 0.35587 0.0
H603 H 0.20404 0.21376 0.36482 0.0
H604 H 0.16446 0.20104 0.34396 0.0
H605 H 0.13632 0.12096 0.44855 0.0
H606 H 0.1137 0.14161 0.46656 0.0
H607 H 0.164 0.16705 0.46178 0.0
C608 C 0.10737 0.88263 0.14661 0.0
C609 C 0.11882 0.92095 0.14773 0.0
C610 C 0.06898 0.85517 0.14541 0.0
C611 C 0.0414 0.86634 0.14591 0.0
C612 C 0.05287 0.90502 0.148 0.0
C613 C 0.09151 0.93193 0.14854 0.0
C614 C 0.05798 0.81431 0.14273 0.0
C615 C 0.02437 0.91801 0.14913 0.0
C616 C 0.94638 0.79843 0.11623 0.0
C617 C 0.92524 0.77942 0.13777 0.0
C618 C 0.984 0.82756 0.11867 0.0
C619 C 1.00069 0.83757 0.14326 0.0
C620 C 0.97891 0.81883 0.16513 0.0
C621 C 0.94137 0.78981 0.16208 0.0
C622 C 1.00623 0.84676 0.09489 0.0
C623 C 0.99556 0.82872 0.19164 0.0
H624 H 0.12857 0.87426 0.14566 0.0
H625 H 0.10048 0.96164 0.14942 0.0
H626 H 0.03838 0.79742 0.15829 0.0
H627 H 0.04289 0.80307 0.12438 0.0
H628 H 0.08279 0.81024 0.14322 0.0
H629 H 0.03782 0.9488 0.1525 0.0
H630 H 1.00841 0.91115 0.13093 0.0
H631 H 1.00368 0.90298 0.16461 0.0
H632 H 0.93373 0.78988 0.09744 0.0
H633 H 0.92484 0.7746 0.17866 0.0
H634 H 0.03024 0.84163 0.09295 0.0
H635 H 1.01821 0.87764 0.09635 0.0
H636 H 0.98873 0.8366 0.07731 0.0
H637 H 1.01878 0.8224 0.19341 0.0
H638 H 0.9743 0.8129 0.20671 0.0
H639 H 1.00783 0.85932 0.19512 0.0
C640 C 0.80234 0.92441 0.41127 0.0
C641 C 0.82792 0.91158 0.40838 0.0
C642 C 0.81482 0.96311 0.41186 0.0
C643 C 0.85377 0.98954 0.40903 0.0
C644 C 0.87964 0.97656 0.40564 0.0
C645 C 0.86642 0.93764 0.40566 0.0
C646 C 0.78637 0.9757 0.41598 0.0
C647 C 0.92125 1.00377 0.40217 0.0
C648 C 0.87597 0.08763 0.38896 0.0
C649 C 0.88456 0.10634 0.41244 0.0
C650 C 0.86748 0.05001 0.38737 0.0
C651 C 0.86719 0.03069 0.40991 0.0
C652 C 0.87713 0.0501 0.43358 0.0
C653 C 0.88562 0.08777 0.43456 0.0
C654 C 0.8573 0.03051 0.36176 0.0
C655 C 0.87702 0.03056 0.45806 0.0
H656 H 0.77264 0.90408 0.41368 0.0
H657 H 0.88612 0.92748 0.40357 0.0
H658 H 0.79363 0.99326 0.43346 0.0
H659 H 0.7871 0.99338 0.39971 0.0
H660 H 0.75718 0.95159 0.418 0.0
H661 H 0.93746 0.98913 0.39888 0.0
H662 H 0.92579 0.02265 0.38571 0.0
H663 H 0.93272 0.02182 0.41935 0.0
H664 H 0.87469 0.10206 0.37197 0.0
H665 H 0.89173 0.10231 0.45275 0.0
H666 H 0.82726 1.00792 0.36183 0.0
H667 H 0.87443 0.01699 0.35806 0.0
H668 H 0.86168 0.05023 0.34585 0.0
H669 H 0.84785 1.00795 0.46246 0.0
H670 H 0.8879 0.05025 0.47452 0.0
H671 H 0.89445 0.01704 0.45588 0.0
C672 C 0.20582 0.11853 0.61897 0.0
C673 C 0.20205 0.09833 0.64139 0.0
C674 C 0.19339 0.14476 0.61783 0.0
C675 C 0.17603 0.15032 0.63951 0.0
C676 C 0.17063 0.12859 0.66185 0.0
C677 C 0.18417 0.10317 0.66264 0.0
C678 C 0.20052 0.16783 0.59383 0.0
C679 C 0.15173 0.13317 0.6852 0.0
C680 C 0.19059 0.24864 0.64632 0.0
C681 C 0.15643 0.24439 0.63724 0.0
C682 C 0.1967 0.21807 0.64779 0.0
C683 C 0.16806 0.18205 0.63979 0.0
C684 C 0.13304 0.1772 0.63117 0.0
C685 C 0.12751 0.20846 0.63015 0.0
C686 C 0.23431 0.22462 0.65738 0.0
C687 C 0.10184 0.13923 0.62246 0.0
H688 H 0.21968 0.11466 0.60257 0.0
H689 H 0.181 0.08719 0.67989 0.0
H690 H 0.17416 0.16659 0.58735 0.0
H691 H 0.22129 0.19776 0.5979 0.0
H692 H 0.21162 0.1581 0.57803 0.0
H693 H 0.14571 0.11124 0.69984 0.0
H694 H 0.17018 0.16121 0.69386 0.0
H695 H 0.12489 0.13183 0.67983 0.0
H696 H 0.21293 0.27618 0.65226 0.0
H697 H 0.10107 0.205 0.62313 0.0
H698 H 0.24873 0.21792 0.64208 0.0
H699 H 0.23009 0.20569 0.67373 0.0
H700 H 0.25319 0.25415 0.66361 0.0
H701 H 0.11091 0.13048 0.60507 0.0
H702 H 0.07546 0.13949 0.61804 0.0
H703 H 0.09578 0.1177 0.63737 0.0
C704 C 0.10492 0.89797 0.90117 0.0
C705 C 0.11102 0.87073 0.91287 0.0
C706 C 0.06816 0.89191 0.89806 0.0
C707 C 0.03697 0.85814 0.90725 0.0
C708 C 0.04313 0.83087 0.91938 0.0
C709 C 0.07996 0.83739 0.92189 0.0
C710 C 0.06265 0.92143 0.88476 0.0
C711 C 1.01077 0.7947 0.92978 0.0
C712 C 0.94305 0.84938 0.92435 0.0
C713 C 0.91989 0.82689 0.90435 0.0
C714 C 0.98172 0.86156 0.92481 0.0
C715 C 0.99774 0.8511 0.90475 0.0
C716 C 0.97498 0.83025 0.88377 0.0
C717 C 0.93629 0.81838 0.88382 0.0
C718 C 1.00495 0.88382 0.9475 0.0
C719 C 0.99101 0.81865 0.86195 0.0
H720 H 0.12877 0.92364 0.89395 0.0
H721 H 0.08442 0.81627 0.93109 0.0
H722 H 0.04365 0.90885 0.86809 0.0
H723 H 0.04891 0.93205 0.89793 0.0
H724 H 0.0897 0.94563 0.87806 0.0
H725 H 0.02039 0.77648 0.93882 0.0
H726 H 0.99496 0.80111 0.9442 0.0
H727 H 0.99081 0.77864 0.91418 0.0
H728 H 0.93068 0.8567 0.94003 0.0
H729 H 0.91856 0.80092 0.86836 0.0
H730 H 0.03123 0.90913 0.94107 0.0
H731 H 1.01331 0.86632 0.95882 0.0
H732 H 0.98927 0.89288 0.96019 0.0
H733 H 1.01771 0.84302 0.85505 0.0
H734 H 0.97102 0.80681 0.84568 0.0
H735 H 0.99763 0.79699 0.8687 0.0
C736 C 0.82148 0.92962 0.62857 0.0
C737 C 0.78478 0.92318 0.63216 0.0
C738 C 0.85293 0.96632 0.62973 0.0
C739 C 0.84758 0.99721 0.63494 0.0
C740 C 0.81063 0.99072 0.63893 0.0
C741 C 0.77979 0.95396 0.63735 0.0
C742 C 0.89183 0.97209 0.62518 0.0
C743 C 0.80359 0.02266 0.64492 0.0
C744 C 0.92561 0.09018 0.6615 0.0
C745 C 0.93568 0.11384 0.64003 0.0
C746 C 0.89817 0.0518 0.6599 0.0
C747 C 0.88029 0.03651 0.63622 0.0
C748 C 0.89142 0.05984 0.61425 0.0
C749 C 0.91889 0.09816 0.61641 0.0
C750 C 0.88726 0.02798 0.68379 0.0
C751 C 0.87314 0.0447 0.58863 0.0
H752 H 0.82562 0.90606 0.62451 0.0
H753 H 0.75164 0.94934 0.64041 0.0
H754 H 0.90501 0.99104 0.60856 0.0
H755 H 0.91007 0.98596 0.64198 0.0
H756 H 0.89129 0.94518 0.6215 0.0
H757 H 0.77321 0.01283 0.64791 0.0
H758 H 0.81928 0.0376 0.66239 0.0
H759 H 0.81412 0.04341 0.62906 0.0
H760 H 0.9389 0.10182 0.67973 0.0
H761 H 0.92617 0.11617 0.59974 0.0
H762 H 0.88821 1.00183 0.68033 0.0
H763 H 0.85785 0.01947 0.68913 0.0
H764 H 0.90598 0.04318 0.70018 0.0
H765 H 0.87355 0.01855 0.58401 0.0
H766 H 0.88736 0.06538 0.57297 0.0
H767 H 0.84317 0.03739 0.58934 0.0
C768 C 0.1937 0.24959 0.91849 0.0
C769 C 0.15822 0.2453 0.91291 0.0
C770 C 0.20007 0.21912 0.91721 0.0
C771 C 0.17033 0.1832 0.90997 0.0
C772 C 0.13432 0.17845 0.90444 0.0
C773 C 0.12862 0.20953 0.90608 0.0
C774 C 0.2388 0.22548 0.9236 0.0
C775 C 0.10193 0.1406 0.89663 0.0
C776 C 0.20415 0.11789 0.88543 0.0
C777 C 0.20215 0.09766 0.90756 0.0
C778 C 0.19208 0.1445 0.88556 0.0
C779 C 0.17749 0.15096 0.90834 0.0
C780 C 0.17366 0.12926 0.93037 0.0
C781 C 0.18605 0.10296 0.92972 0.0
C782 C 0.19677 0.16709 0.86168 0.0
C783 C 0.1582 0.13509 0.95504 0.0
H784 H 0.21679 0.27694 0.92402 0.0
H785 H 0.10114 0.2059 0.90173 0.0
H786 H 0.23685 0.20684 0.9396 0.0
H787 H 0.25058 0.21819 0.90693 0.0
H788 H 0.25882 0.2551 0.92911 0.0
H789 H 0.07567 0.14147 0.89302 0.0
H790 H 0.10943 0.13076 0.87904 0.0
H791 H 0.0963 0.1195 0.91178 0.0
H792 H 0.21671 0.11414 0.86828 0.0
H793 H 0.18375 0.08695 0.94678 0.0
H794 H 0.21913 0.19677 0.86479 0.0
H795 H 0.17032 0.16713 0.85729 0.0
H796 H 0.20465 0.156 0.84488 0.0
H797 H 0.17841 0.16313 0.96305 0.0
H798 H 0.15326 0.11332 0.96955 0.0
H799 H 0.1313 0.13466 0.95154 0.0
C800 C 0.10416 0.89219 0.66137 0.0
C801 C 0.11465 0.88046 0.63934 0.0
C802 C 0.06691 0.88462 0.66455 0.0
C803 C 0.0401 0.86584 0.64489 0.0
C804 C 0.05131 0.85558 0.6221 0.0
C805 C 0.08831 0.86243 0.61982 0.0
C806 C 0.05584 0.89522 0.68932 0.0
C807 C 0.02398 0.83648 0.60038 0.0
C808 C 0.93494 0.8078 0.65825 0.0
C809 C 0.92217 0.8319 0.64977 0.0
C810 C 0.97346 0.81913 0.65777 0.0
C811 C 0.9999 0.85531 0.64838 0.0
C812 C 0.9874 0.88027 0.64064 0.0
C813 C 0.94877 0.86836 0.64159 0.0
C814 C 0.98567 0.79175 0.66637 0.0
C815 C 1.01461 0.91894 0.63031 0.0
H816 H 0.12459 0.90564 0.67658 0.0
H817 H 0.09665 0.85335 0.60281 0.0
H818 H 0.04257 0.91255 0.68551 0.0
H819 H 0.03459 0.86936 0.69933 0.0
H820 H 0.08033 0.91111 0.70224 0.0
H821 H 0.0379 0.83285 0.58329 0.0
H822 H 1.00117 0.80835 0.6066 0.0
H823 H 1.01055 0.85312 0.59483 0.0
H824 H 0.91468 0.77946 0.66431 0.0
H825 H 0.93929 0.88745 0.63543 0.0
H826 H 1.00924 0.80545 0.68024 0.0
H827 H 0.99613 0.78294 0.64973 0.0
H828 H 0.96227 0.76617 0.67538 0.0
H829 H 0.03826 0.9345 0.64386 0.0
H830 H 1.00079 0.93587 0.62669 0.0
H831 H 0.02693 0.91623 0.61212 0.0
C832 C 0.93284 0.08608 0.92271 0.0
C833 C 0.92957 0.11027 0.90523 0.0
C834 C 0.90628 0.04742 0.92329 0.0
C835 C 0.87578 0.03242 0.90585 0.0
C836 C 0.87319 0.05636 0.88745 0.0
C837 C 0.90005 0.09498 0.88739 0.0
C838 C 0.90999 0.02295 0.9433 0.0
C839 C 0.84113 0.04147 0.86849 0.0
C840 C 0.81609 0.92598 0.89714 0.0
C841 C 0.78418 0.91771 0.91172 0.0
C842 C 0.84629 0.96323 0.89502 0.0
C843 C 0.8448 0.99254 0.90831 0.0
C844 C 0.81313 0.98395 0.92375 0.0
C845 C 0.78308 0.94677 0.92501 0.0
C846 C 0.87929 0.9714 0.87806 0.0
C847 C 0.81075 0.01411 0.93875 0.0
H848 H 0.95594 0.09752 0.93627 0.0
H849 H 0.89706 0.11344 0.87398 0.0
H850 H 0.88622 0.01284 0.95702 0.0
H851 H 0.90842 0.99775 0.93432 0.0
H852 H 0.93687 0.03825 0.95411 0.0
H853 H 0.84518 0.06281 0.85386 0.0
H854 H 0.83819 0.01619 0.85868 0.0
H855 H 0.81429 0.03281 0.8787 0.0
H856 H 0.81687 0.90358 0.88672 0.0
H857 H 0.7586 0.9404 0.93653 0.0
H858 H 0.90594 0.98589 0.88911 0.0
H859 H 0.88151 0.99067 0.86241 0.0
H860 H 0.87662 0.94542 0.86951 0.0
H861 H 0.83573 0.0291 0.95136 0.0
H862 H 0.78492 1.00247 0.95072 0.0
H863 H 0.81085 0.03525 0.92549 0.0
C864 C 0.35994 0.19119 0.33254 0.0
C865 C 0.36487 0.16122 0.34026 0.0
C866 C 0.36311 0.20154 0.3064 0.0
C867 C 0.3703 0.18075 0.28771 0.0
C868 C 0.37874 0.15295 0.29602 0.0
C869 C 0.37635 0.14399 0.32205 0.0
C870 C 0.35583 0.23272 0.29877 0.0
C871 C 0.38608 0.1294 0.27724 0.0
C872 C 0.31839 0.14761 0.22502 0.0
C873 C 0.348 0.16248 0.20729 0.0
C874 C 0.32469 0.15679 0.25105 0.0
C875 C 0.36176 0.1817 0.25983 0.0
C876 C 0.39108 0.20033 0.24154 0.0
C877 C 0.38396 0.19026 0.21538 0.0
C878 C 0.2922 0.13638 0.26944 0.0
C879 C 0.43057 0.22859 0.24981 0.0
H880 H 0.35087 0.20457 0.34644 0.0
H881 H 0.3804 0.12093 0.32796 0.0
H882 H 0.37034 0.24635 0.28065 0.0
H883 H 0.3251 0.22101 0.29608 0.0
H884 H 0.3653 0.25443 0.314 0.0
H885 H 0.39458 0.11067 0.28686 0.0
H886 H 0.36013 0.11159 0.26599 0.0
H887 H 0.40859 0.14765 0.26361 0.0
H888 H 0.29048 0.12631 0.21877 0.0
H889 H 0.40704 0.20182 0.2018 0.0
H890 H 0.29073 0.15659 0.28273 0.0
H891 H 0.29659 0.11627 0.28107 0.0
H892 H 0.26468 0.12045 0.25944 0.0
H893 H 0.43009 0.24619 0.26573 0.0
H894 H 0.44729 0.24717 0.23373 0.0
H895 H 0.44507 0.21361 0.25676 0.0
C896 C 0.8333 0.71166 0.3193 0.0
C897 C 0.83269 0.68762 0.33861 0.0
C898 C 0.83819 0.70594 0.29358 0.0
C899 C 0.84336 0.67554 0.28658 0.0
C900 C 0.846 0.65288 0.30615 0.0
C901 C 0.84036 0.659 0.33206 0.0
C902 C 0.83523 0.7312 0.27376 0.0
C903 C 0.85327 0.62135 0.29962 0.0
C904 C 0.79999 0.64534 0.22127 0.0
C905 C 0.83016 0.66964 0.20558 0.0
C906 C 0.8049 0.64304 0.24766 0.0
C907 C 0.84101 0.66571 0.25873 0.0
C908 C 0.87245 0.68646 0.24236 0.0
C909 C 0.86658 0.68857 0.21594 0.0
C910 C 0.77034 0.62054 0.26401 0.0
C911 C 0.91168 0.71005 0.25299 0.0
H912 H 0.82822 0.73439 0.3242 0.0
H913 H 0.84025 0.64049 0.34688 0.0
H914 H 0.86073 0.74425 0.26152 0.0
H915 H 0.81057 0.71433 0.26119 0.0
H916 H 0.83198 0.75407 0.28247 0.0
H917 H 0.86051 0.61037 0.31682 0.0
H918 H 0.82779 0.59788 0.29068 0.0
H919 H 0.87659 0.63108 0.28556 0.0
H920 H 0.77172 0.63107 0.21333 0.0
H921 H 0.88996 0.70786 0.20397 0.0
H922 H 0.76263 0.64 0.27337 0.0
H923 H 0.77593 0.60525 0.27927 0.0
H924 H 0.74584 0.59987 0.25255 0.0
H925 H 0.91628 0.73819 0.25832 0.0
H926 H 0.9333 0.71421 0.23855 0.0
H927 H 0.91582 0.69698 0.27034 0.0
C928 C 0.83352 0.18401 0.21756 0.0
C929 C 0.87078 0.20603 0.20898 0.0
C930 C 0.8256 0.17593 0.24393 0.0
C931 C 0.85565 0.19027 0.26193 0.0
C932 C 0.89326 0.21094 0.25296 0.0
C933 C 0.90022 0.21839 0.22682 0.0
C934 C 0.78516 0.15325 0.25256 0.0
C935 C 0.92648 0.2265 0.27107 0.0
C936 C 0.8569 0.21936 0.33062 0.0
C937 C 0.86437 0.19386 0.34343 0.0
C938 C 0.84911 0.21582 0.30422 0.0
C939 C 0.84906 0.18617 0.29027 0.0
C940 C 0.85223 0.15794 0.30382 0.0
C941 C 0.86033 0.16241 0.33018 0.0
C942 C 0.84579 0.24655 0.29078 0.0
C943 C 0.85162 0.12541 0.29004 0.0
H944 H 0.81066 0.17425 0.20388 0.0
H945 H 0.92919 0.23476 0.22035 0.0
H946 H 0.78189 0.13248 0.26738 0.0
H947 H 0.77644 0.17236 0.26121 0.0
H948 H 0.76586 0.13814 0.23639 0.0
H949 H 0.95396 0.24125 0.26091 0.0
H950 H 0.92507 0.24668 0.28448 0.0
H951 H 0.92565 0.20345 0.28263 0.0
H952 H 0.86085 0.24417 0.34068 0.0
H953 H 0.86688 0.14306 0.3399 0.0
H954 H 0.8232 0.23451 0.27615 0.0
H955 H 0.87271 0.26552 0.28085 0.0
H956 H 0.83977 0.26363 0.30438 0.0
H957 H 0.83021 0.11473 0.27458 0.0
H958 H 0.8456 0.10193 0.30334 0.0
H959 H 0.87956 0.13503 0.28113 0.0
C960 C 0.20329 0.37966 0.71778 0.0
C961 C 0.16778 0.3542 0.70771 0.0
C962 C 0.21026 0.38061 0.74434 0.0
C963 C 0.18081 0.356 0.76107 0.0
C964 C 0.14569 0.32885 0.75055 0.0
C965 C 0.13978 0.32821 0.72412 0.0
C966 C 0.24842 0.40921 0.7546 0.0
C967 C 0.11326 0.302 0.76735 0.0
C968 C 0.18376 0.33338 0.83127 0.0
C969 C 0.1683 0.3535 0.84263 0.0
C970 C 0.19219 0.337 0.8049 0.0
C971 C 0.18427 0.36074 0.78957 0.0
C972 C 0.17204 0.38369 0.8016 0.0
C973 C 0.16411 0.37966 0.82792 0.0
C974 C 0.20599 0.31261 0.79312 0.0
C975 C 0.16309 0.40939 0.78627 0.0
H976 H 0.22495 0.39989 0.70514 0.0
H977 H 0.11231 0.30841 0.71634 0.0
H978 H 0.24655 0.43256 0.76376 0.0
H979 H 0.25788 0.39638 0.7694 0.0
H980 H 0.26998 0.4212 0.73923 0.0
H981 H 0.08848 0.28136 0.75608 0.0
H982 H 0.12216 0.28628 0.78009 0.0
H983 H 0.10433 0.31811 0.77968 0.0
H984 H 0.18628 0.31253 0.84248 0.0
H985 H 0.15151 0.39472 0.8366 0.0
H986 H 0.22666 0.32787 0.77768 0.0
H987 H 0.1818 0.28731 0.78455 0.0
H988 H 0.21922 0.30308 0.80761 0.0
H989 H 0.18588 0.42605 0.77237 0.0
H990 H 0.1591 0.42908 0.79866 0.0
H991 H 0.13674 0.39217 0.77526 0.0
C992 C 0.20567 0.83588 0.83291 0.0
C993 C 0.19755 0.86344 0.84135 0.0
C994 C 0.20233 0.82606 0.8067 0.0
C995 C 0.19138 0.8448 0.78871 0.0
C996 C 0.17909 0.86933 0.79789 0.0
C997 C 0.18227 0.87816 0.82399 0.0
C998 C 0.21394 0.79834 0.79809 0.0
C999 C 0.16721 0.89026 0.77987 0.0
C1000 C 0.24496 0.88519 0.72724 0.0
C1001 C 0.2167 0.86804 0.70866 0.0
C1002 C 0.23785 0.87538 0.75311 0.0
C1003 C 0.20146 0.84696 0.76089 0.0
C1004 C 0.17386 0.8265 0.74184 0.0
C1005 C 0.18167 0.83753 0.71583 0.0
C1006 C 0.2684 0.89839 0.77233 0.0
C1007 C 0.13551 0.79452 0.74917 0.0
H1008 H 0.2176 0.82443 0.84622 0.0
H1009 H 0.17575 0.89933 0.83052 0.0
H1010 H 0.19778 0.78253 0.78098 0.0
H1011 H 0.2443 0.81369 0.79301 0.0
H1012 H 0.20978 0.77807 0.81356 0.0
H1013 H 0.15424 0.90462 0.79014 0.0
H1014 H 0.19228 0.91187 0.76932 0.0
H1015 H 0.14674 0.87087 0.76559 0.0
H1016 H 0.27224 0.90855 0.72175 0.0
H1017 H 0.15968 0.82413 0.70157 0.0
H1018 H 0.27287 0.87972 0.78537 0.0
H1019 H 0.2597 0.91517 0.78415 0.0
H1020 H 0.29573 0.91805 0.76306 0.0
H1021 H 0.13857 0.77449 0.7618 0.0
H1022 H 0.11853 0.77911 0.73218 0.0
H1023 H 0.11983 0.80541 0.7601 0.0
C1024 C 0.7158 0.86083 0.71924 0.0
C1025 C 0.68544 0.83648 0.70369 0.0
C1026 C 0.71128 0.8631 0.7457 0.0
C1027 C 0.67549 0.83997 0.75707 0.0
C1028 C 0.64383 0.8191 0.7409 0.0
C1029 C 0.6492 0.81733 0.71436 0.0
C1030 C 0.74588 0.88631 0.76181 0.0
C1031 C 0.60495 0.79509 0.75198 0.0
C1032 C 0.68346 0.79226 0.81684 0.0
C1033 C 0.6821 0.81441 0.83676 0.0
C1034 C 0.67968 0.79948 0.79121 0.0
C1035 C 0.67371 0.8296 0.78483 0.0
C1036 C 0.66977 0.85078 0.8049 0.0
C1037 C 0.67421 0.84307 0.83074 0.0
C1038 C 0.68426 0.77589 0.77089 0.0
C1039 C 0.66262 0.88263 0.79917 0.0
H1040 H 0.74393 0.8754 0.71109 0.0
H1041 H 0.62567 0.79802 0.70252 0.0
H1042 H 0.73987 0.90122 0.77711 0.0
H1043 H 0.75444 0.86743 0.77112 0.0
H1044 H 0.76995 0.90737 0.75019 0.0
H1045 H 0.58272 0.788 0.73736 0.0
H1046 H 0.6021 0.76841 0.75931 0.0
H1047 H 0.60026 0.80962 0.76822 0.0
H1048 H 0.68889 0.76959 0.82122 0.0
H1049 H 0.67309 0.86036 0.84596 0.0
H1050 H 0.70933 0.79395 0.75894 0.0
H1051 H 0.65932 0.76306 0.75813 0.0
H1052 H 0.68785 0.75293 0.77911 0.0
H1053 H 0.68992 0.90866 0.79553 0.0
H1054 H 0.64883 0.88808 0.81557 0.0
H1055 H 0.64474 0.87669 0.78193 0.0
C1056 C 0.22281 0.93531 1.00101 0.0
C1057 C 0.24488 0.93389 0.98102 0.0
C1058 C 0.23719 0.96642 1.01786 0.0
C1059 C 0.27452 0.99701 1.01466 0.0
C1060 C 0.29674 0.99565 0.99441 0.0
C1061 C 0.28188 0.96411 0.97811 0.0
C1062 C 0.2124 0.96673 0.03903 0.0
C1063 C 0.3363 0.0277 0.98983 0.0
C1064 C 0.30369 0.09275 0.04562 0.0
C1065 C 0.32424 0.09248 0.06698 0.0
C1066 C 0.28715 0.06197 0.02852 0.0
C1067 C 0.29089 0.02982 0.03293 0.0
C1068 C 0.31154 0.02951 0.05457 0.0
C1069 C 0.32847 0.06095 0.07093 0.0
C1070 C 0.2669 0.06481 1.00531 0.0
C1071 C 0.31573 0.9958 0.06055 0.0
H1072 H 0.19421 0.91221 1.00341 0.0
H1073 H 0.29922 0.96333 0.96277 0.0
H1074 H 0.22608 0.96931 0.05781 0.0
H1075 H 0.20871 0.99159 0.03688 0.0
H1076 H 0.18415 0.94089 0.03915 0.0
H1077 H 0.34973 0.02276 0.973 0.0
H1078 H 0.3358 0.0542 0.98677 0.0
H1079 H 0.35405 0.03184 1.00689 0.0
H1080 H 0.30067 0.11713 0.04216 0.0
H1081 H 0.34462 0.06055 0.08722 0.0
H1082 H 0.243 0.03705 0.99955 0.0
H1083 H 0.28718 0.07602 0.98921 0.0
H1084 H 0.25615 0.08449 1.00859 0.0
H1085 H 0.28751 0.97013 0.06198 0.0
H1086 H 0.33116 0.99921 0.07871 0.0
H1087 H 0.3311 0.99118 0.04484 0.0
C1088 C 0.81913 0.737 0.49729 0.0
C1089 C 0.79562 0.70719 0.48104 0.0
C1090 C 0.8042 0.75387 0.51355 0.0
C1091 C 0.76483 0.7407 0.51358 0.0
C1092 C 0.74112 0.71051 0.49721 0.0
C1093 C 0.7567 0.69412 0.48137 0.0
C1094 C 0.83055 0.78587 0.53068 0.0
C1095 C 0.69919 0.69576 0.49613 0.0
C1096 C 0.71487 0.75389 0.57097 0.0
C1097 C 0.71428 0.78689 0.56478 0.0
C1098 C 0.733 0.74 0.55522 0.0
C1099 C 0.748 0.75728 0.53131 0.0
C1100 C 0.74521 0.78918 0.52408 0.0
C1101 C 0.72943 0.80421 0.54118 0.0
C1102 C 0.73642 0.70697 0.56439 0.0
C1103 C 0.75871 0.80737 0.49824 0.0
H1104 H 0.84923 0.74755 0.497 0.0
H1105 H 0.73828 0.67119 0.46882 0.0
H1106 H 0.83023 0.81182 0.52526 0.0
H1107 H 0.82091 0.7794 0.55082 0.0
H1108 H 0.86003 0.79161 0.52949 0.0
H1109 H 0.68484 0.67328 0.48157 0.0
H1110 H 0.68626 0.68421 0.51501 0.0
H1111 H 0.69381 0.71908 0.49164 0.0
H1112 H 0.702 0.73933 0.58864 0.0
H1113 H 0.72839 0.8292 0.53588 0.0
H1114 H 0.76618 0.71368 0.56303 0.0
H1115 H 0.71934 0.68215 0.55208 0.0
H1116 H 0.72687 0.69923 0.58448 0.0
H1117 H 0.78997 0.82285 0.49777 0.0
H1118 H 0.74888 0.82751 0.4938 0.0
H1119 H 0.74868 0.78572 0.48297 0.0
C1120 C 0.08206 0.33192 0.99284 0.0
C1121 C 0.09668 0.31112 0.98138 0.0
C1122 C 0.05091 0.3148 1.00955 0.0
C1123 C 0.03247 0.27539 1.01395 0.0
C1124 C 0.04656 0.25407 1.00171 0.0
C1125 C 0.07905 0.27232 0.98612 0.0
C1126 C 0.03812 0.33908 1.02283 0.0
C1127 C 0.02704 0.21189 1.00482 0.0
C1128 C 0.97539 0.2376 0.07555 0.0
C1129 C 0.93873 0.22693 0.06775 0.0
C1130 C 1.00588 0.25287 0.05833 0.0
C1131 C 0.99961 0.25702 0.03219 0.0
C1132 C 0.96216 0.2448 1.02392 0.0
C1133 C 0.93217 0.22984 0.04178 0.0
C1134 C 0.04497 0.26531 0.06831 0.0
C1135 C 0.95383 0.24795 0.99625 0.0
H1136 H 0.09554 0.36189 0.98908 0.0
H1137 H 0.08979 0.25603 0.97682 0.0
H1138 H 1.00852 0.32983 1.01758 0.0
H1139 H 0.03893 0.3359 0.04385 0.0
H1140 H 0.05597 0.36935 1.01789 0.0
H1141 H 0.03878 0.19893 0.99184 0.0
H1142 H 0.03004 0.20477 0.0248 0.0
H1143 H 0.99643 0.19914 1.0009 0.0
H1144 H 0.98019 0.2337 0.09524 0.0
H1145 H 0.9038 0.22146 0.03557 0.0
H1146 H 0.06444 0.2952 0.06318 0.0
H1147 H 0.05603 0.24835 0.05933 0.0
H1148 H 0.04544 0.26231 0.08938 0.0
H1149 H 0.96975 0.27778 0.99 0.0
H1150 H 0.92333 0.23692 0.99276 0.0
H1151 H 0.96326 0.23205 0.9842 0.0
C1152 C 0.33325 0.09198 0.50317 0.0
C1153 C 0.3134 0.09315 0.48172 0.0
C1154 C 0.31674 0.06162 0.52063 0.0
C1155 C 0.28012 0.0305 0.51585 0.0
C1156 C 0.25993 0.032 0.49419 0.0
C1157 C 0.27639 0.0638 0.47802 0.0
C1158 C 0.33904 0.06287 0.54393 0.0
C1159 C 0.22192 0.99934 0.48679 0.0
C1160 C 0.26135 0.93886 0.54857 0.0
C1161 C 0.23452 0.93366 0.56713 0.0
C1162 C 0.27496 0.96904 0.53101 0.0
C1163 C 0.26348 0.99635 0.5331 0.0
C1164 C 0.2364 0.99111 0.55203 0.0
C1165 C 0.22127 0.95912 0.56807 0.0
C1166 C 0.30182 0.97155 0.51037 0.0
C1167 C 0.22457 0.02009 0.55612 0.0
H1168 H 0.36184 0.1148 0.50626 0.0
H1169 H 0.26071 0.06509 0.46179 0.0
H1170 H 0.32041 0.04977 0.56073 0.0
H1171 H 0.35397 0.04718 0.54001 0.0
H1172 H 0.3606 0.09225 0.54889 0.0
H1173 H 0.22635 0.98045 0.47391 0.0
H1174 H 0.20537 0.98249 0.50344 0.0
H1175 H 0.20494 1.00917 0.47623 0.0
H1176 H 0.27147 0.91904 0.54762 0.0
H1177 H 0.20014 0.95474 0.58215 0.0
H1178 H 0.33121 0.99092 0.51658 0.0
H1179 H 0.29693 0.98256 0.49226 0.0
H1180 H 0.29905 0.94366 0.50655 0.0
H1181 H 0.24893 0.0463 0.56366 0.0
H1182 H 0.20081 1.01032 0.56983 0.0
H1183 H 0.21602 0.02731 0.53785 0.0
C1184 C 0.81564 0.73183 0.04594 0.0
C1185 C 0.79457 0.71083 0.06709 0.0
C1186 C 0.80117 0.74791 0.02864 0.0
C1187 C 0.7648 0.74335 0.03268 0.0
C1188 C 0.74356 0.72219 0.05411 0.0
C1189 C 0.75825 0.70554 0.07056 0.0
C1190 C 0.82453 0.76835 1.00557 0.0
C1191 C 0.70516 0.71713 0.05974 0.0
C1192 C 0.73709 0.80982 0.99977 0.0
C1193 C 0.71364 0.78718 0.97994 0.0
C1194 C 0.75416 0.79613 1.01693 0.0
C1195 C 0.74798 0.75902 1.01413 0.0
C1196 C 0.7245 0.73627 0.99402 0.0
C1197 C 0.70728 0.75033 0.97754 0.0
C1198 C 0.77903 0.8214 0.03803 0.0
C1199 C 0.71783 0.69705 0.98969 0.0
H1200 H 0.84342 0.73551 0.04277 0.0
H1201 H 0.74132 0.68865 0.08651 0.0
H1202 H 0.81704 0.74773 0.98984 0.0
H1203 H 0.81935 0.79104 0.99898 0.0
H1204 H 0.85512 0.7807 1.00948 0.0
H1205 H 0.69333 0.70211 0.07806 0.0
H1206 H 0.70693 0.74498 0.06063 0.0
H1207 H 0.68529 0.70093 0.04413 0.0
H1208 H 0.74226 0.83829 1.0018 0.0
H1209 H 0.6892 0.73252 0.96232 0.0
H1210 H 0.80787 0.82567 0.03598 0.0
H1211 H 0.76803 0.80781 0.05685 0.0
H1212 H 0.78086 0.84932 0.03792 0.0
H1213 H 0.74522 0.69819 0.9869 0.0
H1214 H 0.69971 0.68327 0.97278 0.0
H1215 H 0.70422 0.67928 1.00674 0.0
C1216 C 0.06643 0.31771 0.5713 0.0
C1217 C 0.09749 0.31238 0.56834 0.0
C1218 C 0.0352 0.30078 0.55473 0.0
C1219 C 0.03522 0.27885 0.53385 0.0
C1220 C 0.06682 0.27381 0.53044 0.0
C1221 C 0.09742 0.2904 0.5478 0.0
C1222 C 1.00212 0.30652 0.5596 0.0
C1223 C 0.06899 0.25193 0.50802 0.0
C1224 C 0.94056 0.21137 0.50173 0.0
C1225 C 0.93974 0.23323 0.48137 0.0
C1226 C 0.97141 0.22568 0.51885 0.0
C1227 C 1.00268 0.26249 0.5153 0.0
C1228 C 1.00195 0.2845 0.49466 0.0
C1229 C 0.97029 0.27001 0.47843 0.0
C1230 C 0.97049 0.20147 0.54087 0.0
C1231 C 0.03479 0.32344 0.48958 0.0
H1232 H 0.06644 0.33528 0.58672 0.0
H1233 H 0.12142 0.28645 0.54513 0.0
H1234 H 0.99889 0.32222 0.54347 0.0
H1235 H 0.9757 0.27888 0.56083 0.0
H1236 H 1.00539 0.32233 0.57753 0.0
H1237 H 0.09124 0.24432 0.51066 0.0
H1238 H 0.04162 0.22583 0.50477 0.0
H1239 H 0.07572 0.26947 0.49057 0.0
H1240 H 0.91702 0.18307 0.50434 0.0
H1241 H 0.96977 0.2874 0.46301 0.0
H1242 H 0.97313 0.21613 0.55923 0.0
H1243 H 0.99485 0.1968 0.53957 0.0
H1244 H 0.9441 0.17369 0.54127 0.0
H1245 H 0.03874 0.34217 0.50597 0.0
H1246 H 0.03077 0.33618 0.47199 0.0
H1247 H 0.06111 0.32222 0.48757 0.0
C1248 C 0.62216 0.15636 0.15172 0.0
C1249 C 0.64268 0.17342 0.12935 0.0
C1250 C 0.58558 0.15055 0.1555 0.0
C1251 C 0.56865 0.1617 0.1364 0.0
C1252 C 0.58944 0.17968 0.11403 0.0
C1253 C 0.62609 0.18543 0.11084 0.0
C1254 C 0.56475 0.13186 0.1798 0.0
C1255 C 0.57278 0.19245 0.09326 0.0
C1256 C 0.46102 0.11446 0.13328 0.0
C1257 C 0.45471 0.14228 0.14369 0.0
C1258 C 0.49787 0.12023 0.13104 0.0
C1259 C 0.52917 0.15441 0.13972 0.0
C1260 C 0.52274 0.18197 0.15107 0.0
C1261 C 0.48577 0.17566 0.1528 0.0
C1262 C 0.50346 0.09032 0.1185 0.0
C1263 C 0.55502 0.21866 0.16081 0.0
H1264 H 0.63427 0.14653 0.16607 0.0
H1265 H 0.64176 0.19932 0.0937 0.0
H1266 H 0.55549 0.14986 0.18951 0.0
H1267 H 0.53901 0.10477 0.17521 0.0
H1268 H 0.58231 0.12628 0.19329 0.0
H1269 H 0.59271 0.2064 0.07717 0.0
H1270 H 0.54679 0.16792 0.08567 0.0
H1271 H 0.56463 0.2124 0.10117 0.0
H1272 H 0.43736 0.08888 0.12582 0.0
H1273 H 0.48126 0.19739 0.16089 0.0
H1274 H 0.51946 0.08191 0.13138 0.0
H1275 H 0.52039 0.10179 0.10081 0.0
H1276 H 0.4763 0.06487 0.11346 0.0
H1277 H 0.5719 0.21308 0.17487 0.0
H1278 H 0.54519 0.23659 0.17001 0.0
H1279 H 0.57408 0.23466 0.14479 0.0
C1280 C 0.67732 0.56901 0.40224 0.0
C1281 C 0.71368 0.57555 0.40732 0.0
C1282 C 0.64581 0.53231 0.40365 0.0
C1283 C 0.65073 0.50171 0.41089 0.0
C1284 C 0.68739 0.50827 0.41603 0.0
C1285 C 0.71828 0.54486 0.41393 0.0
C1286 C 0.60717 0.52626 0.39762 0.0
C1287 C 0.69403 0.47679 0.42432 0.0
C1288 C 0.56785 0.41505 0.44068 0.0
C1289 C 0.55519 0.38924 0.42035 0.0
C1290 C 0.59883 0.4516 0.43784 0.0
C1291 C 0.61755 0.46301 0.414 0.0
C1292 C 0.60524 0.43708 0.39345 0.0
C1293 C 0.57433 0.40055 0.39688 0.0
C1294 C 0.61156 0.47803 0.46042 0.0
C1295 C 0.62472 0.44796 0.36782 0.0
H1296 H 0.67351 0.59248 0.39715 0.0
H1297 H 0.74615 0.54947 0.41825 0.0
H1298 H 0.59367 0.50457 0.3825 0.0
H1299 H 0.58897 0.51561 0.41482 0.0
H1300 H 0.60818 0.55251 0.39112 0.0
H1301 H 0.72428 0.48678 0.4281 0.0
H1302 H 0.67775 0.46334 0.44194 0.0
H1303 H 0.68395 0.45475 0.40935 0.0
H1304 H 0.55306 0.40694 0.45879 0.0
H1305 H 0.56525 0.38073 0.38117 0.0
H1306 H 0.60976 0.50343 0.45571 0.0
H1307 H 0.6415 0.48762 0.46489 0.0
H1308 H 0.59436 0.46469 0.47778 0.0
H1309 H 0.62438 0.47304 0.36024 0.0
H1310 H 0.61122 0.42485 0.35361 0.0
H1311 H 0.65469 0.45574 0.36994 0.0
C1312 C 0.9211 0.3557 0.13809 0.0
C1313 C 0.89005 0.31933 0.13546 0.0
C1314 C 0.91655 0.3875 0.1365 0.0
C1315 C 0.88028 0.38271 0.13185 0.0
C1316 C 0.84898 0.34606 0.12906 0.0
C1317 C 0.85422 0.31501 0.13099 0.0
C1318 C 0.95049 0.42624 0.13975 0.0
C1319 C 0.8099 0.33953 0.1237 0.0
C1320 C 0.85841 0.45999 0.1485 0.0
C1321 C 0.86161 0.47699 0.12463 0.0
C1322 C 0.86494 0.42966 0.1512 0.0
C1323 C 0.8748 0.41585 0.12951 0.0
C1324 C 0.87763 0.43254 0.10532 0.0
C1325 C 0.87121 0.46296 0.10321 0.0
C1326 C 0.86099 0.41219 0.17724 0.0
C1327 C 0.8873 0.41815 0.08163 0.0
H1328 H 0.94879 0.3593 0.14152 0.0
H1329 H 0.82993 0.28711 0.12861 0.0
H1330 H 0.95487 0.44311 0.12219 0.0
H1331 H 0.9456 0.44109 0.15568 0.0
H1332 H 0.9766 0.42527 0.14374 0.0
H1333 H 0.78842 0.30913 0.12247 0.0
H1334 H 0.8013 0.35246 0.13892 0.0
H1335 H 0.80988 0.3532 0.10541 0.0
H1336 H 0.85045 0.47019 0.16509 0.0
H1337 H 0.87432 0.47618 0.08474 0.0
H1338 H 0.88753 0.41282 0.18247 0.0
H1339 H 0.83832 0.38223 0.17685 0.0
H1340 H 0.85423 0.4269 0.19232 0.0
H1341 H 0.91514 0.42016 0.08403 0.0
H1342 H 0.88818 0.43407 0.06422 0.0
H1343 H 0.8662 0.388 0.07865 0.0
C1344 C 0.46295 0.11755 0.39776 0.0
C1345 C 0.45373 0.1402 0.41253 0.0
C1346 C 0.49979 0.123 0.39826 0.0
C1347 C 0.52752 0.15097 0.41442 0.0
C1348 C 0.518 0.1735 0.42956 0.0
C1349 C 0.48147 0.16806 0.42823 0.0
C1350 C 0.50919 0.09906 0.38143 0.0
C1351 C 0.54626 0.20314 0.44743 0.0
C1352 C 0.60939 0.14017 0.43791 0.0
C1353 C 0.63954 0.16661 0.42296 0.0
C1354 C 0.57286 0.13453 0.43504 0.0
C1355 C 0.56599 0.15563 0.41662 0.0
C1356 C 0.5962 0.18233 0.40136 0.0
C1357 C 0.63259 0.18743 0.40466 0.0
C1358 C 0.54166 0.10623 0.45199 0.0
C1359 C 0.59015 0.20572 0.3817 0.0
H1360 H 0.44172 0.09634 0.3854 0.0
H1361 H 0.47442 0.18552 0.43985 0.0
H1362 H 0.53335 0.11734 0.36884 0.0
H1363 H 0.51792 0.0824 0.39336 0.0
H1364 H 0.48498 0.07945 0.36932 0.0
H1365 H 0.53441 0.21854 0.4577 0.0
H1366 H 0.55586 0.18983 0.46176 0.0
H1367 H 0.57149 0.22382 0.43661 0.0
H1368 H 0.61426 0.12347 0.4518 0.0
H1369 H 0.65573 0.20814 0.39317 0.0
H1370 H 0.51843 0.08467 0.44014 0.0
H1371 H 0.52977 0.12051 0.4635 0.0
H1372 H 0.55154 0.0918 0.46522 0.0
H1373 H 0.56879 0.18701 0.36755 0.0
H1374 H 0.61654 0.22533 0.37142 0.0
H1375 H 0.57902 0.22241 0.39102 0.0
C1376 C 0.59168 0.40204 0.11627 0.0
C1377 C 0.55713 0.39088 0.12847 0.0
C1378 C 0.62231 0.4389 0.11882 0.0
C1379 C 0.61841 0.46527 0.13404 0.0
C1380 C 0.58386 0.45403 0.1467 0.0
C1381 C 0.55367 0.4171 0.14371 0.0
C1382 C 0.65866 0.44973 0.10496 0.0
C1383 C 0.57862 0.48122 0.16319 0.0
C1384 C 0.70837 0.5512 0.1574 0.0
C1385 C 0.71129 0.57921 0.1407 0.0
C1386 C 0.67779 0.51422 0.15588 0.0
C1387 C 0.65028 0.50476 0.13655 0.0
C1388 C 0.65323 0.53308 0.11959 0.0
C1389 C 0.68342 0.57016 0.12216 0.0
C1390 C 0.67531 0.48514 0.17468 0.0
C1391 C 0.6253 0.52391 0.09815 0.0
H1392 H 0.59479 0.3819 0.10468 0.0
H1393 H 0.52696 0.40904 0.15286 0.0
H1394 H 0.66582 0.47368 0.09187 0.0
H1395 H 0.68212 0.45921 0.11886 0.0
H1396 H 0.657 0.42605 0.09366 0.0
H1397 H 0.55045 0.46777 0.17245 0.0
H1398 H 0.60061 0.49293 0.17826 0.0
H1399 H 0.58199 0.50521 0.15143 0.0
H1400 H 0.73028 0.55823 0.17153 0.0
H1401 H 0.68633 0.59167 0.10879 0.0
H1402 H 0.67797 0.46296 0.16443 0.0
H1403 H 0.64739 0.47124 0.18425 0.0
H1404 H 0.69766 0.49758 0.18952 0.0
H1405 H 0.62578 0.50268 0.08529 0.0
H1406 H 0.63147 0.54913 0.08666 0.0
H1407 H 0.59631 0.51139 0.10595 0.0
C1408 C 0.88041 0.46803 0.44028 0.0
C1409 C 0.86069 0.47596 0.42163 0.0
C1410 C 0.88592 0.43702 0.43793 0.0
C1411 C 0.87168 0.41328 0.41628 0.0
C1412 C 0.85159 0.42094 0.39742 0.0
C1413 C 0.84636 0.45213 0.40031 0.0
C1414 C 0.90692 0.42958 0.45873 0.0
C1415 C 0.83537 0.39601 0.37426 0.0
C1416 C 0.9142 0.351 0.40131 0.0
C1417 C 0.8868 0.31627 0.41137 0.0
C1418 C 0.90926 0.38265 0.40221 0.0
C1419 C 0.87664 0.37968 0.41395 0.0
C1420 C 0.8491 0.3447 0.42423 0.0
C1421 C 0.85438 0.31356 0.42266 0.0
C1422 C 0.93895 0.41933 0.39067 0.0
C1423 C 0.81428 0.34023 0.43741 0.0
H1424 H 0.89212 0.48646 0.45665 0.0
H1425 H 0.83064 0.45762 0.38597 0.0
H1426 H 0.88873 0.40111 0.46692 0.0
H1427 H 0.93218 0.43013 0.45061 0.0
H1428 H 0.91605 0.45055 0.47442 0.0
H1429 H 0.8212 0.4062 0.36104 0.0
H1430 H 0.85808 0.39455 0.36372 0.0
H1431 H 0.81458 0.36693 0.38031 0.0
H1432 H 0.93922 0.35335 0.39253 0.0
H1433 H 0.83318 0.28705 0.43087 0.0
H1434 H 0.95132 0.44131 0.40568 0.0
H1435 H 0.92594 0.42908 0.37619 0.0
H1436 H 0.96199 0.41682 0.38144 0.0
H1437 H 0.8226 0.35837 0.45465 0.0
H1438 H 0.7947 0.31069 0.44335 0.0
H1439 H 0.79889 0.34947 0.42462 0.0
C1440 C 0.18965 0.62704 0.64622 0.0
C1441 C 0.1737 0.63606 0.62558 0.0
C1442 C 0.18449 0.59062 0.64905 0.0
C1443 C 0.16288 0.56243 0.63079 0.0
C1444 C 0.14679 0.57136 0.60993 0.0
C1445 C 0.15223 0.60787 0.60764 0.0
C1446 C 0.20245 0.5824 0.67145 0.0
C1447 C 0.12401 0.54239 0.58983 0.0
C1448 C 0.18044 0.48042 0.62293 0.0
C1449 C 0.14904 0.45085 0.63519 0.0
C1450 C 0.1852 0.51665 0.62137 0.0
C1451 C 0.15832 0.524 0.63284 0.0
C1452 C 0.1267 0.4944 0.64553 0.0
C1453 C 0.12213 0.45797 0.64625 0.0
C1454 C 0.21885 0.54695 0.60712 0.0
C1455 C 0.09787 0.50132 0.65846 0.0
H1456 H 0.20664 0.64863 0.66003 0.0
H1457 H 0.1392 0.61421 0.59186 0.0
H1458 H 0.18067 0.55812 0.68249 0.0
H1459 H 0.2231 0.57448 0.6645 0.0
H1460 H 0.21723 0.60691 0.68447 0.0
H1461 H 0.11335 0.55377 0.57477 0.0
H1462 H 0.14155 0.53211 0.58063 0.0
H1463 H 0.09961 0.51773 0.59882 0.0
H1464 H 0.20122 0.47507 0.61409 0.0
H1465 H 0.09801 0.43533 0.6559 0.0
H1466 H 0.23601 0.57106 0.61998 0.0
H1467 H 0.20919 0.55771 0.59109 0.0
H1468 H 0.2372 0.53662 0.59929 0.0
H1469 H 0.11192 0.52413 0.6728 0.0
H1470 H 0.07554 0.47575 0.66817 0.0
H1471 H 0.08441 0.51087 0.64421 0.0
C1472 C 0.32187 0.84989 0.89464 0.0
C1473 C 0.32509 0.88378 0.90329 0.0
C1474 C 0.35225 0.84327 0.89617 0.0
C1475 C 0.38688 0.87113 0.90675 0.0
C1476 C 0.39077 0.90592 0.91476 0.0
C1477 C 0.35988 0.91193 0.91281 0.0
C1478 C 0.34677 0.80585 0.8873 0.0
C1479 C 0.42713 0.93621 0.92634 0.0
C1480 C 0.45167 0.83948 0.93602 0.0
C1481 C 0.47943 0.84974 0.91707 0.0
C1482 C 0.42147 0.84621 0.93291 0.0
C1483 C 0.41857 0.86334 0.91016 0.0
C1484 C 0.44583 0.87281 0.89067 0.0
C1485 C 0.47595 0.86609 0.89438 0.0
C1486 C 0.39286 0.83532 0.95411 0.0
C1487 C 0.44342 0.8905 0.86597 0.0
H1488 H 0.29511 0.82793 0.8872 0.0
H1489 H 0.36249 0.93794 0.91985 0.0
H1490 H 0.36953 0.81022 0.87386 0.0
H1491 H 0.34838 0.7899 0.9039 0.0
H1492 H 0.31913 0.78839 0.87771 0.0
H1493 H 0.42627 0.96227 0.93059 0.0
H1494 H 0.43287 0.9257 0.94436 0.0
H1495 H 0.45103 0.94333 0.91321 0.0
H1496 H 0.45356 0.82619 0.95342 0.0
H1497 H 0.49735 0.8746 0.87972 0.0
H1498 H 0.36427 0.81514 0.94686 0.0
H1499 H 0.39221 0.86056 0.96093 0.0
H1500 H 0.39911 0.82227 0.9706 0.0
H1501 H 0.41576 0.87226 0.85667 0.0
H1502 H 0.46615 0.89516 0.85236 0.0
H1503 H 0.44535 0.91794 0.86995 0.0
C1504 C 0.55052 0.71179 0.64215 0.0
C1505 C 0.58291 0.70825 0.64067 0.0
C1506 C 0.5141 0.6805 0.63975 0.0
C1507 C 0.50946 0.64429 0.63609 0.0
C1508 C 0.54184 0.64017 0.63544 0.0
C1509 C 0.57817 0.67218 0.63766 0.0
C1510 C 0.48061 0.68646 0.64041 0.0
C1511 C 0.53808 0.60202 0.63167 0.0
C1512 C 0.41256 0.55874 0.64949 0.0
C1513 C 0.39721 0.54824 0.62484 0.0
C1514 C 0.44891 0.58985 0.65344 0.0
C1515 C 0.47077 0.61105 0.63224 0.0
C1516 C 0.45527 0.60102 0.60735 0.0
C1517 C 0.41878 0.56994 0.60397 0.0
C1518 C 0.46409 0.59983 0.68031 0.0
C1519 C 0.47725 0.62313 0.58421 0.0
H1520 H 0.55351 0.73937 0.64451 0.0
H1521 H 0.60283 0.66903 0.63631 0.0
H1522 H 0.46477 0.67692 0.62217 0.0
H1523 H 0.46102 0.66935 0.65591 0.0
H1524 H 0.48899 0.71644 0.64345 0.0
H1525 H 0.56569 0.60314 0.63279 0.0
H1526 H 0.51896 0.58203 0.64634 0.0
H1527 H 0.5253 0.59061 0.61273 0.0
H1528 H 0.39652 0.54207 0.66577 0.0
H1529 H 0.4071 0.5627 0.58488 0.0
H1530 H 0.47168 0.62922 0.68471 0.0
H1531 H 0.49021 0.59821 0.68205 0.0
H1532 H 0.44347 0.58089 0.69479 0.0
H1533 H 0.48439 0.65291 0.58603 0.0
H1534 H 0.46136 0.61158 0.56614 0.0
H1535 H 0.50421 0.62303 0.58296 0.0
C1536 C 0.19846 0.62176 0.93509 0.0
C1537 C 0.1785 0.63469 0.92043 0.0
C1538 C 0.19193 0.58487 0.93239 0.0
C1539 C 0.16494 0.5602 0.91445 0.0
C1540 C 0.14528 0.57327 0.89923 0.0
C1541 C 0.15216 0.61019 0.90245 0.0
C1542 C 0.21361 0.57216 0.94899 0.0
C1543 C 0.11658 0.54804 0.87971 0.0
C1544 C 0.17253 0.47543 0.89346 0.0
C1545 C 0.14415 0.44632 0.90802 0.0
C1546 C 0.17886 0.51235 0.89479 0.0
C1547 C 0.15706 0.52064 0.91171 0.0
C1548 C 0.1281 0.49119 0.9263 0.0
C1549 C 0.12162 0.45425 0.92399 0.0
C1550 C 0.20951 0.54262 0.87853 0.0
C1551 C 0.10497 0.499 0.94512 0.0
H1552 H 0.21926 0.64054 0.94876 0.0
H1553 H 0.13613 0.61955 0.89128 0.0
H1554 H 0.19372 0.54728 0.96044 0.0
H1555 H 0.23007 0.56342 0.93687 0.0
H1556 H 0.23331 0.5946 0.96221 0.0
H1557 H 0.10463 0.5628 0.86875 0.0
H1558 H 0.1297 0.53728 0.86611 0.0
H1559 H 0.09317 0.52328 0.88937 0.0
H1560 H 0.19016 0.46937 0.88121 0.0
H1561 H 0.10026 0.43195 0.9357 0.0
H1562 H 0.23233 0.56356 0.89094 0.0
H1563 H 0.19814 0.55781 0.86749 0.0
H1564 H 0.22194 0.53102 0.86497 0.0
H1565 H 0.12372 0.51883 0.95998 0.0
H1566 H 0.08307 0.47298 0.95467 0.0
H1567 H 0.09098 0.51268 0.9353 0.0
C1568 C 0.32034 0.84777 0.64177 0.0
C1569 C 0.32526 0.88412 0.63934 0.0
C1570 C 0.35077 0.84139 0.63969 0.0
C1571 C 0.3874 0.8721 0.6353 0.0
C1572 C 0.39293 0.90905 0.63373 0.0
C1573 C 0.36178 0.91465 0.63574 0.0
C1574 C 0.34344 0.80152 0.64139 0.0
C1575 C 0.43163 0.94251 0.6291 0.0
C1576 C 0.47209 0.8594 0.6477 0.0
C1577 C 0.48129 0.85363 0.62292 0.0
C1578 C 0.44145 0.86513 0.65207 0.0
C1579 C 0.41952 0.86524 0.63117 0.0
C1580 C 0.42798 0.85833 0.60622 0.0
C1581 C 0.4586 0.85252 0.60243 0.0
C1582 C 0.43295 0.87174 0.679 0.0
C1583 C 0.40489 0.85744 0.58345 0.0
H1584 H 0.29236 0.82383 0.64471 0.0
H1585 H 0.36593 0.94276 0.63376 0.0
H1586 H 0.35122 0.79353 0.62311 0.0
H1587 H 0.36122 0.79941 0.65654 0.0
H1588 H 0.31342 0.78084 0.64557 0.0
H1589 H 0.43165 0.96956 0.62971 0.0
H1590 H 0.45174 0.94332 0.64362 0.0
H1591 H 0.44212 0.93985 0.61012 0.0
H1592 H 0.48953 0.86056 0.66364 0.0
H1593 H 0.4649 0.84725 0.58328 0.0
H1594 H 0.40332 0.85101 0.68398 0.0
H1595 H 0.43612 0.90014 0.68042 0.0
H1596 H 0.45183 0.86954 0.69326 0.0
H1597 H 0.3749 0.83564 0.58626 0.0
H1598 H 0.41496 0.8514 0.56533 0.0
H1599 H 0.40605 0.88491 0.58152 0.0
C1600 C 0.56495 0.68099 0.88726 0.0
C1601 C 0.58428 0.70038 0.90925 0.0
C1602 C 0.52766 0.65066 0.88884 0.0
C1603 C 0.50939 0.63998 0.91294 0.0
C1604 C 0.52913 0.65968 0.93517 0.0
C1605 C 0.56633 0.68964 0.93302 0.0
C1606 C 0.50759 0.63041 0.86472 0.0
C1607 C 0.51072 0.64961 0.96119 0.0
C1608 C 0.40191 0.58241 0.9164 0.0
C1609 C 0.39602 0.54649 0.92203 0.0
C1610 C 0.43868 0.61321 0.91323 0.0
C1611 C 0.47005 0.6076 0.91513 0.0
C1612 C 0.46396 0.57108 0.92017 0.0
C1613 C 0.42709 0.5411 0.9238 0.0
C1614 C 0.44401 0.65186 0.90851 0.0
C1615 C 0.49647 0.56374 0.92208 0.0
H1616 H 0.57867 0.69011 0.86883 0.0
H1617 H 0.5812 0.70543 0.9499 0.0
H1618 H 0.49752 0.59989 0.86657 0.0
H1619 H 0.48242 0.63337 0.8617 0.0
H1620 H 0.526 0.64146 0.84761 0.0
H1621 H 0.52992 0.66782 0.97654 0.0
H1622 H 0.48513 0.65233 0.96116 0.0
H1623 H 0.50158 0.61987 0.9658 0.0
H1624 H 0.37785 0.58657 0.91524 0.0
H1625 H 0.42245 0.51324 0.92804 0.0
H1626 H 0.46001 0.66379 0.89056 0.0
H1627 H 0.46084 0.67109 0.92424 0.0
H1628 H 0.41675 0.65142 0.90718 0.0
H1629 H 0.51389 0.57365 0.90449 0.0
H1630 H 0.48686 0.53342 0.92488 0.0
H1631 H 0.51491 0.57977 0.93835 0.0
loop_
_geom_bond_atom_site_label_1
_geom_bond_atom_site_label_2
_geom_bond_distance
_geom_bond_site_symmetry_2
_ccdc_geom_bond_type
C0 Eu1 2.835 . S
C0 C2 1.500 1_545 S
C0 O20 1.257 . S
C0 O21 1.260 . S
Eu1 C0 2.835 . S
Eu1 O20 2.473 . S
Eu1 O21 2.480 . S
Eu1 O22 2.430 . S
Eu1 O23 2.670 . S
Eu1 O24 2.394 . S
Eu1 O29 2.355 . S
Eu1 O31 2.374 . S
C2 C0 1.500 1_565 S
C2 C3 1.377 . S
C2 C7 1.377 . S
C3 C2 1.377 . S
C3 C4 1.395 . S
C3 H32 0.931 . S
C4 C3 1.395 . S
C4 C5 1.383 . S
C4 H33 0.931 . S
C5 C4 1.383 . S
C5 C6 1.394 . S
C6 C5 1.394 . S
C6 C7 1.378 . S
C6 H34 0.931 . S
C7 C2 1.377 . S
C7 C6 1.378 . S
C7 H35 0.931 . S
C8 O22 1.259 . S
C8 O23 1.270 . S
C9 O24 1.251 . S
C9 O25 1.251 . S
C10 Eu11 2.835 . S
C10 C12 1.500 . S
C10 O26 1.257 . S
C10 O27 1.260 . S
Eu11 C10 2.835 . S
Eu11 O23 2.355 . S
Eu11 O25 2.374 . S
Eu11 O26 2.473 . S
Eu11 O27 2.480 . S
Eu11 O28 2.430 . S
Eu11 O29 2.670 . S
Eu11 O30 2.394 . S
C12 C10 1.500 . S
C12 C13 1.377 . S
C12 C17 1.377 . S
C13 C12 1.377 . S
C13 C14 1.395 . S
C13 H36 0.931 . S
C14 C13 1.395 . S
C14 C15 1.383 . S
C14 H37 0.931 . S
C15 C14 1.383 . S
C15 C16 1.394 . S
C16 C15 1.394 . S
C16 C17 1.378 . S
C16 H38 0.931 . S
C17 C12 1.377 . S
C17 C16 1.378 . S
C17 H39 0.931 . S
C18 O28 1.259 . S
C18 O29 1.270 . S
C19 O30 1.251 . S
C19 O31 1.251 . S
O20 C0 1.257 . S
O20 Eu1 2.473 . S
O21 C0 1.260 . S
O21 Eu1 2.480 . S
O22 Eu1 2.430 . S
O22 C8 1.259 . S
O23 Eu1 2.670 . S
O23 C8 1.270 . S
O23 Eu11 2.355 . S
O24 Eu1 2.394 . S
O24 C9 1.251 . S
O25 C9 1.251 . S
O25 Eu11 2.374 . S
O26 C10 1.257 . S
O26 Eu11 2.473 . S
O27 C10 1.260 . S
O27 Eu11 2.480 . S
O28 Eu11 2.430 . S
O28 C18 1.259 . S
O29 Eu1 2.355 . S
O29 Eu11 2.670 . S
O29 C18 1.270 . S
O30 Eu11 2.394 . S
O30 C19 1.251 . S
O31 Eu1 2.374 . S
O31 C19 1.251 . S
H32 C3 0.931 . S
H33 C4 0.931 . S
H34 C6 0.931 . S
H35 C7 0.931 . S
H36 C13 0.931 . S
H37 C14 0.931 . S
H38 C16 0.931 . S
H39 C17 0.931 . S
C40 Eu41 2.835 . S
C40 C42 1.500 . S
C40 O60 1.257 . S
C40 O61 1.260 . S
Eu41 C40 2.835 . S
Eu41 O60 2.473 . S
Eu41 O61 2.480 . S
Eu41 O62 2.430 . S
Eu41 O63 2.670 . S
Eu41 O64 2.394 . S
Eu41 O69 2.355 . S
Eu41 O71 2.374 . S
C42 C40 1.500 . S
C42 C43 1.377 . S
C42 C47 1.377 . S
C43 C42 1.377 . S
C43 C44 1.395 . S
C43 H72 0.931 . S
C44 C43 1.395 . S
C44 C45 1.383 . S
C44 H73 0.931 . S
C45 C44 1.383 . S
C45 C46 1.394 . S
C46 C45 1.394 . S
C46 C47 1.378 . S
C46 H74 0.931 . S
C47 C42 1.377 . S
C47 C46 1.378 . S
C47 H75 0.931 . S
C48 O62 1.259 . S
C48 O63 1.270 . S
C49 O64 1.251 . S
C49 O65 1.251 . S
C50 Eu51 2.835 . S
C50 C52 1.500 . S
C50 O66 1.257 . S
C50 O67 1.260 . S
Eu51 C50 2.835 . S
Eu51 O63 2.355 . S
Eu51 O65 2.374 . S
Eu51 O66 2.473 . S
Eu51 O67 2.480 . S
Eu51 O68 2.430 . S
Eu51 O69 2.670 . S
Eu51 O70 2.394 . S
C52 C50 1.500 . S
C52 C53 1.377 . S
C52 C57 1.377 . S
C53 C52 1.377 . S
C53 C54 1.395 . S
C53 H76 0.931 . S
C54 C53 1.395 . S
C54 C55 1.383 . S
C54 H77 0.931 . S
C55 C54 1.383 . S
C55 C56 1.394 . S
C56 C55 1.394 . S
C56 C57 1.378 . S
C56 H78 0.931 . S
C57 C52 1.377 . S
C57 C56 1.378 . S
C57 H79 0.931 . S
C58 O68 1.259 . S
C58 O69 1.270 . S
C59 O70 1.251 . S
C59 O71 1.251 . S
O60 C40 1.257 . S
O60 Eu41 2.473 . S
O61 C40 1.260 . S
O61 Eu41 2.480 . S
O62 Eu41 2.430 . S
O62 C48 1.259 . S
O63 Eu41 2.670 . S
O63 C48 1.270 . S
O63 Eu51 2.355 . S
O64 Eu41 2.394 . S
O64 C49 1.251 . S
O65 C49 1.251 . S
O65 Eu51 2.374 . S
O66 C50 1.257 . S
O66 Eu51 2.473 . S
O67 C50 1.260 . S
O67 Eu51 2.480 . S
O68 Eu51 2.430 . S
O68 C58 1.259 . S
O69 Eu41 2.355 . S
O69 Eu51 2.670 . S
O69 C58 1.270 . S
O70 Eu51 2.394 . S
O70 C59 1.251 . S
O71 Eu41 2.374 . S
O71 C59 1.251 . S
H72 C43 0.931 . S
H73 C44 0.931 . S
H74 C46 0.931 . S
H75 C47 0.931 . S
H76 C53 0.931 . S
H77 C54 0.931 . S
H78 C56 0.931 . S
H79 C57 0.931 . S
C80 Eu81 2.835 . S
C80 C82 1.500 1_655 S
C80 O100 1.257 . S
C80 O101 1.260 . S
Eu81 C80 2.835 . S
Eu81 O100 2.473 . S
Eu81 O101 2.480 . S
Eu81 O102 2.430 . S
Eu81 O103 2.670 . S
Eu81 O104 2.394 . S
Eu81 O109 2.355 . S
Eu81 O111 2.374 . S
C82 C80 1.500 1_455 S
C82 C83 1.377 . S
C82 C87 1.377 . S
C83 C82 1.377 . S
C83 C84 1.395 . S
C83 H112 0.931 . S
C84 C83 1.395 . S
C84 C85 1.383 . S
C84 H113 0.931 . S
C85 C84 1.383 . S
C85 C86 1.394 . S
C86 C85 1.394 . S
C86 C87 1.378 . S
C86 H114 0.931 . S
C87 C82 1.377 . S
C87 C86 1.378 . S
C87 H115 0.931 . S
C88 O102 1.259 . S
C88 O103 1.270 . S
C89 O104 1.251 . S
C89 O105 1.251 . S
C90 Eu91 2.835 . S
C90 C92 1.500 . S
C90 O106 1.257 . S
C90 O107 1.260 . S
Eu91 C90 2.835 . S
Eu91 O103 2.355 . S
Eu91 O105 2.374 . S
Eu91 O106 2.473 . S
Eu91 O107 2.480 . S
Eu91 O108 2.430 . S
Eu91 O109 2.670 . S
Eu91 O110 2.394 . S
C92 C90 1.500 . S
C92 C93 1.377 . S
C92 C97 1.377 . S
C93 C92 1.377 . S
C93 C94 1.395 . S
C93 H116 0.931 . S
C94 C93 1.395 . S
C94 C95 1.383 . S
C94 H117 0.931 . S
C95 C94 1.383 . S
C95 C96 1.394 . S
C96 C95 1.394 . S
C96 C97 1.378 . S
C96 H118 0.931 . S
C97 C92 1.377 . S
C97 C96 1.378 . S
C97 H119 0.931 . S
C98 O108 1.259 . S
C98 O109 1.270 . S
C99 O110 1.251 . S
C99 O111 1.251 . S
O100 C80 1.257 . S
O100 Eu81 2.473 . S
O101 C80 1.260 . S
O101 Eu81 2.480 . S
O102 Eu81 2.430 . S
O102 C88 1.259 . S
O103 Eu81 2.670 . S
O103 C88 1.270 . S
O103 Eu91 2.355 . S
O104 Eu81 2.394 . S
O104 C89 1.251 . S
O105 C89 1.251 . S
O105 Eu91 2.374 . S
O106 C90 1.257 . S
O106 Eu91 2.473 . S
O107 C90 1.260 . S
O107 Eu91 2.480 . S
O108 Eu91 2.430 . S
O108 C98 1.259 . S
O109 Eu81 2.355 . S
O109 Eu91 2.670 . S
O109 C98 1.270 . S
O110 Eu91 2.394 . S
O110 C99 1.251 . S
O111 Eu81 2.374 . S
O111 C99 1.251 . S
H112 C83 0.931 . S
H113 C84 0.931 . S
H114 C86 0.931 . S
H115 C87 0.931 . S
H116 C93 0.931 . S
H117 C94 0.931 . S
H118 C96 0.931 . S
H119 C97 0.931 . S
C120 Eu121 2.835 . S
C120 C122 1.500 . S
C120 O140 1.257 . S
C120 O141 1.260 . S
Eu121 C120 2.835 . S
Eu121 O140 2.473 . S
Eu121 O141 2.480 . S
Eu121 O142 2.430 . S
Eu121 O143 2.670 . S
Eu121 O144 2.394 . S
Eu121 O149 2.355 . S
Eu121 O151 2.374 . S
C122 C120 1.500 . S
C122 C123 1.377 . S
C122 C127 1.377 . S
C123 C122 1.377 . S
C123 C124 1.395 . S
C123 H152 0.931 . S
C124 C123 1.395 . S
C124 C125 1.383 . S
C124 H153 0.931 . S
C125 C124 1.383 . S
C125 C126 1.394 . S
C126 C125 1.394 . S
C126 C127 1.378 . S
C126 H154 0.931 . S
C127 C122 1.377 . S
C127 C126 1.378 . S
C127 H155 0.931 . S
C128 O142 1.259 . S
C128 O143 1.270 . S
C129 O144 1.251 . S
C129 O145 1.251 . S
C130 Eu131 2.835 . S
C130 C132 1.500 1_545 S
C130 O146 1.257 . S
C130 O147 1.260 . S
Eu131 C130 2.835 . S
Eu131 O143 2.355 . S
Eu131 O145 2.374 . S
Eu131 O146 2.473 . S
Eu131 O147 2.480 . S
Eu131 O148 2.430 . S
Eu131 O149 2.670 . S
Eu131 O150 2.394 . S
C132 C130 1.500 1_565 S
C132 C133 1.377 . S
C132 C137 1.377 . S
C133 C132 1.377 . S
C133 C134 1.395 . S
C133 H156 0.931 . S
C134 C133 1.395 . S
C134 C135 1.383 . S
C134 H157 0.931 . S
C135 C134 1.383 . S
C135 C136 1.394 . S
C136 C135 1.394 . S
C136 C137 1.378 . S
C136 H158 0.931 . S
C137 C132 1.377 . S
C137 C136 1.378 . S
C137 H159 0.931 . S
C138 O148 1.259 . S
C138 O149 1.270 . S
C139 O150 1.251 . S
C139 O151 1.251 . S
O140 C120 1.257 . S
O140 Eu121 2.473 . S
O141 C120 1.260 . S
O141 Eu121 2.480 . S
O142 Eu121 2.430 . S
O142 C128 1.259 . S
O143 Eu121 2.670 . S
O143 C128 1.270 . S
O143 Eu131 2.355 . S
O144 Eu121 2.394 . S
O144 C129 1.251 . S
O145 C129 1.251 . S
O145 Eu131 2.374 . S
O146 C130 1.257 . S
O146 Eu131 2.473 . S
O147 C130 1.260 . S
O147 Eu131 2.480 . S
O148 Eu131 2.430 . S
O148 C138 1.259 . S
O149 Eu121 2.355 . S
O149 Eu131 2.670 . S
O149 C138 1.270 . S
O150 Eu131 2.394 . S
O150 C139 1.251 . S
O151 Eu121 2.374 . S
O151 C139 1.251 . S
H152 C123 0.931 . S
H153 C124 0.931 . S
H154 C126 0.931 . S
H155 C127 0.931 . S
H156 C133 0.931 . S
H157 C134 0.931 . S
H158 C136 0.931 . S
H159 C137 0.931 . S
C160 Eu161 2.835 . S
C160 C162 1.500 . S
C160 O180 1.257 . S
C160 O181 1.260 . S
Eu161 C160 2.835 . S
Eu161 O180 2.473 . S
Eu161 O181 2.480 . S
Eu161 O182 2.430 . S
Eu161 O183 2.670 . S
Eu161 O184 2.394 . S
Eu161 O189 2.355 . S
Eu161 O191 2.374 . S
C162 C160 1.500 . S
C162 C163 1.377 . S
C162 C167 1.377 . S
C163 C162 1.377 . S
C163 C164 1.395 . S
C163 H192 0.931 . S
C164 C163 1.395 . S
C164 C165 1.383 . S
C164 H193 0.931 . S
C165 C164 1.383 . S
C165 C166 1.394 . S
C166 C165 1.394 . S
C166 C167 1.378 . S
C166 H194 0.931 . S
C167 C162 1.377 . S
C167 C166 1.378 . S
C167 H195 0.931 . S
C168 O182 1.259 . S
C168 O183 1.270 . S
C169 O184 1.251 . S
C169 O185 1.251 . S
C170 Eu171 2.835 . S
C170 C172 1.500 . S
C170 O186 1.257 . S
C170 O187 1.260 . S
Eu171 C170 2.835 . S
Eu171 O183 2.355 . S
Eu171 O185 2.374 . S
Eu171 O186 2.473 . S
Eu171 O187 2.480 . S
Eu171 O188 2.430 . S
Eu171 O189 2.670 . S
Eu171 O190 2.394 . S
C172 C170 1.500 . S
C172 C173 1.377 . S
C172 C177 1.377 . S
C173 C172 1.377 . S
C173 C174 1.395 . S
C173 H196 0.931 . S
C174 C173 1.395 . S
C174 C175 1.383 . S
C174 H197 0.931 . S
C175 C174 1.383 . S
C175 C176 1.394 . S
C176 C175 1.394 . S
C176 C177 1.378 . S
C176 H198 0.931 . S
C177 C172 1.377 . S
C177 C176 1.378 . S
C177 H199 0.931 . S
C178 O188 1.259 . S
C178 O189 1.270 . S
C179 O190 1.251 . S
C179 O191 1.251 . S
O180 C160 1.257 . S
O180 Eu161 2.473 . S
O181 C160 1.260 . S
O181 Eu161 2.480 . S
O182 Eu161 2.430 . S
O182 C168 1.259 . S
O183 Eu161 2.670 . S
O183 C168 1.270 . S
O183 Eu171 2.355 . S
O184 Eu161 2.394 . S
O184 C169 1.251 . S
O185 C169 1.251 . S
O185 Eu171 2.374 . S
O186 C170 1.257 . S
O186 Eu171 2.473 . S
O187 C170 1.260 . S
O187 Eu171 2.480 . S
O188 Eu171 2.430 . S
O188 C178 1.259 . S
O189 Eu161 2.355 . S
O189 Eu171 2.670 . S
O189 C178 1.270 . S
O190 Eu171 2.394 . S
O190 C179 1.251 . S
O191 Eu161 2.374 . S
O191 C179 1.251 . S
H192 C163 0.931 . S
H193 C164 0.931 . S
H194 C166 0.931 . S
H195 C167 0.931 . S
H196 C173 0.931 . S
H197 C174 0.931 . S
H198 C176 0.931 . S
H199 C177 0.931 . S
C200 Eu201 2.835 . S
C200 C202 1.500 . S
C200 O220 1.257 . S
C200 O221 1.260 . S
Eu201 C200 2.835 . S
Eu201 O220 2.473 . S
Eu201 O221 2.480 . S
Eu201 O222 2.430 . S
Eu201 O223 2.670 . S
Eu201 O224 2.394 . S
Eu201 O229 2.355 . S
Eu201 O231 2.374 . S
C202 C200 1.500 . S
C202 C203 1.377 . S
C202 C207 1.377 . S
C203 C202 1.377 . S
C203 C204 1.395 . S
C203 H232 0.931 . S
C204 C203 1.395 . S
C204 C205 1.383 . S
C204 H233 0.931 . S
C205 C204 1.383 . S
C205 C206 1.394 . S
C206 C205 1.394 . S
C206 C207 1.378 . S
C206 H234 0.931 . S
C207 C202 1.377 . S
C207 C206 1.378 . S
C207 H235 0.931 . S
C208 O222 1.259 . S
C208 O223 1.270 . S
C209 O224 1.251 . S
C209 O225 1.251 . S
C210 Eu211 2.835 . S
C210 C212 1.500 1_655 S
C210 O226 1.257 . S
C210 O227 1.260 . S
Eu211 C210 2.835 . S
Eu211 O223 2.355 . S
Eu211 O225 2.374 . S
Eu211 O226 2.473 . S
Eu211 O227 2.480 . S
Eu211 O228 2.430 . S
Eu211 O229 2.670 . S
Eu211 O230 2.394 . S
C212 C210 1.500 1_455 S
C212 C213 1.377 . S
C212 C217 1.377 . S
C213 C212 1.377 . S
C213 C214 1.395 . S
C213 H236 0.931 . S
C214 C213 1.395 . S
C214 C215 1.383 . S
C214 H237 0.931 . S
C215 C214 1.383 . S
C215 C216 1.394 . S
C216 C215 1.394 . S
C216 C217 1.378 . S
C216 H238 0.931 . S
C217 C212 1.377 . S
C217 C216 1.378 . S
C217 H239 0.931 . S
C218 O228 1.259 . S
C218 O229 1.270 . S
C219 O230 1.251 . S
C219 O231 1.251 . S
O220 C200 1.257 . S
O220 Eu201 2.473 . S
O221 C200 1.260 . S
O221 Eu201 2.480 . S
O222 Eu201 2.430 . S
O222 C208 1.259 . S
O223 Eu201 2.670 . S
O223 C208 1.270 . S
O223 Eu211 2.355 . S
O224 Eu201 2.394 . S
O224 C209 1.251 . S
O225 C209 1.251 . S
O225 Eu211 2.374 . S
O226 C210 1.257 . S
O226 Eu211 2.473 . S
O227 C210 1.260 . S
O227 Eu211 2.480 . S
O228 Eu211 2.430 . S
O228 C218 1.259 . S
O229 Eu201 2.355 . S
O229 Eu211 2.670 . S
O229 C218 1.270 . S
O230 Eu211 2.394 . S
O230 C219 1.251 . S
O231 Eu201 2.374 . S
O231 C219 1.251 . S
H232 C203 0.931 . S
H233 C204 0.931 . S
H234 C206 0.931 . S
H235 C207 0.931 . S
H236 C213 0.931 . S
H237 C214 0.931 . S
H238 C216 0.931 . S
H239 C217 0.931 . S
C240 Eu241 2.835 . S
C240 C242 1.500 . S
C240 O260 1.257 . S
C240 O261 1.260 . S
Eu241 C240 2.835 . S
Eu241 O260 2.473 . S
Eu241 O261 2.480 . S
Eu241 O262 2.430 . S
Eu241 O263 2.670 . S
Eu241 O264 2.394 . S
Eu241 O269 2.355 . S
Eu241 O271 2.374 . S
C242 C240 1.500 . S
C242 C243 1.377 . S
C242 C247 1.377 . S
C243 C242 1.377 . S
C243 C244 1.395 . S
C243 H272 0.931 . S
C244 C243 1.395 . S
C244 C245 1.383 . S
C244 H273 0.931 . S
C245 C244 1.383 . S
C245 C246 1.394 . S
C246 C245 1.394 . S
C246 C247 1.378 . S
C246 H274 0.931 . S
C247 C242 1.377 . S
C247 C246 1.378 . S
C247 H275 0.931 . S
C248 O262 1.259 . S
C248 O263 1.270 . S
C249 O264 1.251 . S
C249 O265 1.251 . S
C250 Eu251 2.835 . S
C250 C252 1.500 1_455 S
C250 O266 1.257 . S
C250 O267 1.260 . S
Eu251 C250 2.835 . S
Eu251 O263 2.355 . S
Eu251 O265 2.374 . S
Eu251 O266 2.473 . S
Eu251 O267 2.480 . S
Eu251 O268 2.430 . S
Eu251 O269 2.670 . S
Eu251 O270 2.394 . S
C252 C250 1.500 1_655 S
C252 C253 1.377 . S
C252 C257 1.377 . S
C253 C252 1.377 . S
C253 C254 1.395 . S
C253 H276 0.931 . S
C254 C253 1.395 . S
C254 C255 1.383 . S
C254 H277 0.931 . S
C255 C254 1.383 . S
C255 C256 1.394 . S
C256 C255 1.394 . S
C256 C257 1.378 . S
C256 H278 0.931 . S
C257 C252 1.377 . S
C257 C256 1.378 . S
C257 H279 0.931 . S
C258 O268 1.259 . S
C258 O269 1.270 . S
C259 O270 1.251 . S
C259 O271 1.251 . S
O260 C240 1.257 . S
O260 Eu241 2.473 . S
O261 C240 1.260 . S
O261 Eu241 2.480 . S
O262 Eu241 2.430 . S
O262 C248 1.259 . S
O263 Eu241 2.670 . S
O263 C248 1.270 . S
O263 Eu251 2.355 . S
O264 Eu241 2.394 . S
O264 C249 1.251 . S
O265 C249 1.251 . S
O265 Eu251 2.374 . S
O266 C250 1.257 . S
O266 Eu251 2.473 . S
O267 C250 1.260 . S
O267 Eu251 2.480 . S
O268 Eu251 2.430 . S
O268 C258 1.259 . S
O269 Eu241 2.355 . S
O269 Eu251 2.670 . S
O269 C258 1.270 . S
O270 Eu251 2.394 . S
O270 C259 1.251 . S
O271 Eu241 2.374 . S
O271 C259 1.251 . S
H272 C243 0.931 . S
H273 C244 0.931 . S
H274 C246 0.931 . S
H275 C247 0.931 . S
H276 C253 0.931 . S
H277 C254 0.931 . S
H278 C256 0.931 . S
H279 C257 0.931 . S
C280 Eu281 2.835 . S
C280 C282 1.500 1_565 S
C280 O300 1.257 . S
C280 O301 1.260 . S
Eu281 C280 2.835 . S
Eu281 O300 2.473 . S
Eu281 O301 2.480 . S
Eu281 O302 2.430 . S
Eu281 O303 2.670 . S
Eu281 O304 2.394 . S
Eu281 O309 2.355 . S
Eu281 O311 2.374 . S
C282 C280 1.500 1_545 S
C282 C283 1.377 . S
C282 C287 1.377 . S
C283 C282 1.377 . S
C283 C284 1.395 . S
C283 H312 0.931 . S
C284 C283 1.395 . S
C284 C285 1.383 . S
C284 H313 0.931 . S
C285 C284 1.383 . S
C285 C286 1.394 . S
C286 C285 1.394 . S
C286 C287 1.378 . S
C286 H314 0.931 . S
C287 C282 1.377 . S
C287 C286 1.378 . S
C287 H315 0.931 . S
C288 O302 1.259 . S
C288 O303 1.270 . S
C289 O304 1.251 . S
C289 O305 1.251 . S
C290 Eu291 2.835 . S
C290 C292 1.500 . S
C290 O306 1.257 . S
C290 O307 1.260 . S
Eu291 C290 2.835 . S
Eu291 O303 2.355 . S
Eu291 O305 2.374 . S
Eu291 O306 2.473 . S
Eu291 O307 2.480 . S
Eu291 O308 2.430 . S
Eu291 O309 2.670 . S
Eu291 O310 2.394 . S
C292 C290 1.500 . S
C292 C293 1.377 . S
C292 C297 1.377 . S
C293 C292 1.377 . S
C293 C294 1.395 . S
C293 H316 0.931 . S
C294 C293 1.395 . S
C294 C295 1.383 . S
C294 H317 0.931 . S
C295 C294 1.383 . S
C295 C296 1.394 . S
C296 C295 1.394 . S
C296 C297 1.378 . S
C296 H318 0.931 . S
C297 C292 1.377 . S
C297 C296 1.378 . S
C297 H319 0.931 . S
C298 O308 1.259 . S
C298 O309 1.270 . S
C299 O310 1.251 . S
C299 O311 1.251 . S
O300 C280 1.257 . S
O300 Eu281 2.473 . S
O301 C280 1.260 . S
O301 Eu281 2.480 . S
O302 Eu281 2.430 . S
O302 C288 1.259 . S
O303 Eu281 2.670 . S
O303 C288 1.270 . S
O303 Eu291 2.355 . S
O304 Eu281 2.394 . S
O304 C289 1.251 . S
O305 C289 1.251 . S
O305 Eu291 2.374 . S
O306 C290 1.257 . S
O306 Eu291 2.473 . S
O307 C290 1.260 . S
O307 Eu291 2.480 . S
O308 Eu291 2.430 . S
O308 C298 1.259 . S
O309 Eu281 2.355 . S
O309 Eu291 2.670 . S
O309 C298 1.270 . S
O310 Eu291 2.394 . S
O310 C299 1.251 . S
O311 Eu281 2.374 . S
O311 C299 1.251 . S
H312 C283 0.931 . S
H313 C284 0.931 . S
H314 C286 0.931 . S
H315 C287 0.931 . S
H316 C293 0.931 . S
H317 C294 0.931 . S
H318 C296 0.931 . S
H319 C297 0.931 . S
C320 Eu321 2.835 . S
C320 C322 1.500 . S
C320 O340 1.257 . S
C320 O341 1.260 . S
Eu321 C320 2.835 . S
Eu321 O340 2.473 . S
Eu321 O341 2.480 . S
Eu321 O342 2.430 . S
Eu321 O343 2.670 . S
Eu321 O344 2.394 . S
Eu321 O349 2.355 . S
Eu321 O351 2.374 . S
C322 C320 1.500 . S
C322 C323 1.377 . S
C322 C327 1.377 . S
C323 C322 1.377 . S
C323 C324 1.395 . S
C323 H352 0.931 . S
C324 C323 1.395 . S
C324 C325 1.383 . S
C324 H353 0.931 . S
C325 C324 1.383 . S
C325 C326 1.394 . S
C326 C325 1.394 . S
C326 C327 1.378 . S
C326 H354 0.931 . S
C327 C322 1.377 . S
C327 C326 1.378 . S
C327 H355 0.931 . S
C328 O342 1.259 . S
C328 O343 1.270 . S
C329 O344 1.251 . S
C329 O345 1.251 . S
C330 Eu331 2.835 . S
C330 C332 1.500 . S
C330 O346 1.257 . S
C330 O347 1.260 . S
Eu331 C330 2.835 . S
Eu331 O343 2.355 . S
Eu331 O345 2.374 . S
Eu331 O346 2.473 . S
Eu331 O347 2.480 . S
Eu331 O348 2.430 . S
Eu331 O349 2.670 . S
Eu331 O350 2.394 . S
C332 C330 1.500 . S
C332 C333 1.377 . S
C332 C337 1.377 . S
C333 C332 1.377 . S
C333 C334 1.395 . S
C333 H356 0.931 . S
C334 C333 1.395 . S
C334 C335 1.383 . S
C334 H357 0.931 . S
C335 C334 1.383 . S
C335 C336 1.394 . S
C336 C335 1.394 . S
C336 C337 1.378 . S
C336 H358 0.931 . S
C337 C332 1.377 . S
C337 C336 1.378 . S
C337 H359 0.931 . S
C338 O348 1.259 . S
C338 O349 1.270 . S
C339 O350 1.251 . S
C339 O351 1.251 . S
O340 C320 1.257 . S
O340 Eu321 2.473 . S
O341 C320 1.260 . S
O341 Eu321 2.480 . S
O342 Eu321 2.430 . S
O342 C328 1.259 . S
O343 Eu321 2.670 . S
O343 C328 1.270 . S
O343 Eu331 2.355 . S
O344 Eu321 2.394 . S
O344 C329 1.251 . S
O345 C329 1.251 . S
O345 Eu331 2.374 . S
O346 C330 1.257 . S
O346 Eu331 2.473 . S
O347 C330 1.260 . S
O347 Eu331 2.480 . S
O348 Eu331 2.430 . S
O348 C338 1.259 . S
O349 Eu321 2.355 . S
O349 Eu331 2.670 . S
O349 C338 1.270 . S
O350 Eu331 2.394 . S
O350 C339 1.251 . S
O351 Eu321 2.374 . S
O351 C339 1.251 . S
H352 C323 0.931 . S
H353 C324 0.931 . S
H354 C326 0.931 . S
H355 C327 0.931 . S
H356 C333 0.931 . S
H357 C334 0.931 . S
H358 C336 0.931 . S
H359 C337 0.931 . S
C360 Eu361 2.835 . S
C360 C362 1.500 1_455 S
C360 O380 1.257 . S
C360 O381 1.260 . S
Eu361 C360 2.835 . S
Eu361 O380 2.473 . S
Eu361 O381 2.480 . S
Eu361 O382 2.430 . S
Eu361 O383 2.670 . S
Eu361 O384 2.394 . S
Eu361 O389 2.355 . S
Eu361 O391 2.374 . S
C362 C360 1.500 1_655 S
C362 C363 1.377 . S
C362 C367 1.377 . S
C363 C362 1.377 . S
C363 C364 1.395 . S
C363 H392 0.931 . S
C364 C363 1.395 . S
C364 C365 1.383 . S
C364 H393 0.931 . S
C365 C364 1.383 . S
C365 C366 1.394 . S
C366 C365 1.394 . S
C366 C367 1.378 . S
C366 H394 0.931 . S
C367 C362 1.377 . S
C367 C366 1.378 . S
C367 H395 0.931 . S
C368 O382 1.259 . S
C368 O383 1.270 . S
C369 O384 1.251 . S
C369 O385 1.251 . S
C370 Eu371 2.835 . S
C370 C372 1.500 . S
C370 O386 1.257 . S
C370 O387 1.260 . S
Eu371 C370 2.835 . S
Eu371 O383 2.355 . S
Eu371 O385 2.374 . S
Eu371 O386 2.473 . S
Eu371 O387 2.480 . S
Eu371 O388 2.430 . S
Eu371 O389 2.670 . S
Eu371 O390 2.394 . S
C372 C370 1.500 . S
C372 C373 1.377 . S
C372 C377 1.377 . S
C373 C372 1.377 . S
C373 C374 1.395 . S
C373 H396 0.931 . S
C374 C373 1.395 . S
C374 C375 1.383 . S
C374 H397 0.931 . S
C375 C374 1.383 . S
C375 C376 1.394 . S
C376 C375 1.394 . S
C376 C377 1.378 . S
C376 H398 0.931 . S
C377 C372 1.377 . S
C377 C376 1.378 . S
C377 H399 0.931 . S
C378 O388 1.259 . S
C378 O389 1.270 . S
C379 O390 1.251 . S
C379 O391 1.251 . S
O380 C360 1.257 . S
O380 Eu361 2.473 . S
O381 C360 1.260 . S
O381 Eu361 2.480 . S
O382 Eu361 2.430 . S
O382 C368 1.259 . S
O383 Eu361 2.670 . S
O383 C368 1.270 . S
O383 Eu371 2.355 . S
O384 Eu361 2.394 . S
O384 C369 1.251 . S
O385 C369 1.251 . S
O385 Eu371 2.374 . S
O386 C370 1.257 . S
O386 Eu371 2.473 . S
O387 C370 1.260 . S
O387 Eu371 2.480 . S
O388 Eu371 2.430 . S
O388 C378 1.259 . S
O389 Eu361 2.355 . S
O389 Eu371 2.670 . S
O389 C378 1.270 . S
O390 Eu371 2.394 . S
O390 C379 1.251 . S
O391 Eu361 2.374 . S
O391 C379 1.251 . S
H392 C363 0.931 . S
H393 C364 0.931 . S
H394 C366 0.931 . S
H395 C367 0.931 . S
H396 C373 0.931 . S
H397 C374 0.931 . S
H398 C376 0.931 . S
H399 C377 0.931 . S
C400 Eu401 2.835 . S
C400 C402 1.500 . S
C400 O420 1.257 . S
C400 O421 1.260 . S
Eu401 C400 2.835 . S
Eu401 O420 2.473 . S
Eu401 O421 2.480 . S
Eu401 O422 2.430 . S
Eu401 O423 2.670 . S
Eu401 O424 2.394 . S
Eu401 O429 2.355 . S
Eu401 O431 2.374 . S
C402 C400 1.500 . S
C402 C403 1.377 . S
C402 C407 1.377 . S
C403 C402 1.377 . S
C403 C404 1.395 . S
C403 H432 0.931 . S
C404 C403 1.395 . S
C404 C405 1.383 . S
C404 H433 0.931 . S
C405 C404 1.383 . S
C405 C406 1.394 . S
C406 C405 1.394 . S
C406 C407 1.378 . S
C406 H434 0.931 . S
C407 C402 1.377 . S
C407 C406 1.378 . S
C407 H435 0.931 . S
C408 O422 1.259 . S
C408 O423 1.270 . S
C409 O424 1.251 . S
C409 O425 1.251 . S
C410 Eu411 2.835 . S
C410 C412 1.500 1_565 S
C410 O426 1.257 . S
C410 O427 1.260 . S
Eu411 C410 2.835 . S
Eu411 O423 2.355 . S
Eu411 O425 2.374 . S
Eu411 O426 2.473 . S
Eu411 O427 2.480 . S
Eu411 O428 2.430 . S
Eu411 O429 2.670 . S
Eu411 O430 2.394 . S
C412 C410 1.500 1_545 S
C412 C413 1.377 . S
C412 C417 1.377 . S
C413 C412 1.377 . S
C413 C414 1.395 . S
C413 H436 0.931 . S
C414 C413 1.395 . S
C414 C415 1.383 . S
C414 H437 0.931 . S
C415 C414 1.383 . S
C415 C416 1.394 . S
C416 C415 1.394 . S
C416 C417 1.378 . S
C416 H438 0.931 . S
C417 C412 1.377 . S
C417 C416 1.378 . S
C417 H439 0.931 . S
C418 O428 1.259 . S
C418 O429 1.270 . S
C419 O430 1.251 . S
C419 O431 1.251 . S
O420 C400 1.257 . S
O420 Eu401 2.473 . S
O421 C400 1.260 . S
O421 Eu401 2.480 . S
O422 Eu401 2.430 . S
O422 C408 1.259 . S
O423 Eu401 2.670 . S
O423 C408 1.270 . S
O423 Eu411 2.355 . S
O424 Eu401 2.394 . S
O424 C409 1.251 . S
O425 C409 1.251 . S
O425 Eu411 2.374 . S
O426 C410 1.257 . S
O426 Eu411 2.473 . S
O427 C410 1.260 . S
O427 Eu411 2.480 . S
O428 Eu411 2.430 . S
O428 C418 1.259 . S
O429 Eu401 2.355 . S
O429 Eu411 2.670 . S
O429 C418 1.270 . S
O430 Eu411 2.394 . S
O430 C419 1.251 . S
O431 Eu401 2.374 . S
O431 C419 1.251 . S
H432 C403 0.931 . S
H433 C404 0.931 . S
H434 C406 0.931 . S
H435 C407 0.931 . S
H436 C413 0.931 . S
H437 C414 0.931 . S
H438 C416 0.931 . S
H439 C417 0.931 . S
C440 Eu441 2.835 . S
C440 C442 1.500 . S
C440 O460 1.257 . S
C440 O461 1.260 . S
Eu441 C440 2.835 . S
Eu441 O460 2.473 . S
Eu441 O461 2.480 . S
Eu441 O462 2.430 . S
Eu441 O463 2.670 . S
Eu441 O464 2.394 . S
Eu441 O469 2.355 . S
Eu441 O471 2.374 . S
C442 C440 1.500 . S
C442 C443 1.377 . S
C442 C447 1.377 . S
C443 C442 1.377 . S
C443 C444 1.395 . S
C443 H472 0.931 . S
C444 C443 1.395 . S
C444 C445 1.383 . S
C444 H473 0.931 . S
C445 C444 1.383 . S
C445 C446 1.394 . S
C446 C445 1.394 . S
C446 C447 1.378 . S
C446 H474 0.931 . S
C447 C442 1.377 . S
C447 C446 1.378 . S
C447 H475 0.931 . S
C448 O462 1.259 . S
C448 O463 1.270 . S
C449 O464 1.251 . S
C449 O465 1.251 . S
C450 Eu451 2.835 . S
C450 C452 1.500 . S
C450 O466 1.257 . S
C450 O467 1.260 . S
Eu451 C450 2.835 . S
Eu451 O463 2.355 . S
Eu451 O465 2.374 . S
Eu451 O466 2.473 . S
Eu451 O467 2.480 . S
Eu451 O468 2.430 . S
Eu451 O469 2.670 . S
Eu451 O470 2.394 . S
C452 C450 1.500 . S
C452 C453 1.377 . S
C452 C457 1.377 . S
C453 C452 1.377 . S
C453 C454 1.395 . S
C453 H476 0.931 . S
C454 C453 1.395 . S
C454 C455 1.383 . S
C454 H477 0.931 . S
C455 C454 1.383 . S
C455 C456 1.394 . S
C456 C455 1.394 . S
C456 C457 1.378 . S
C456 H478 0.931 . S
C457 C452 1.377 . S
C457 C456 1.378 . S
C457 H479 0.931 . S
C458 O468 1.259 . S
C458 O469 1.270 . S
C459 O470 1.251 . S
C459 O471 1.251 . S
O460 C440 1.257 . S
O460 Eu441 2.473 . S
O461 C440 1.260 . S
O461 Eu441 2.480 . S
O462 Eu441 2.430 . S
O462 C448 1.259 . S
O463 Eu441 2.670 . S
O463 C448 1.270 . S
O463 Eu451 2.355 . S
O464 Eu441 2.394 . S
O464 C449 1.251 . S
O465 C449 1.251 . S
O465 Eu451 2.374 . S
O466 C450 1.257 . S
O466 Eu451 2.473 . S
O467 C450 1.260 . S
O467 Eu451 2.480 . S
O468 Eu451 2.430 . S
O468 C458 1.259 . S
O469 Eu441 2.355 . S
O469 Eu451 2.670 . S
O469 C458 1.270 . S
O470 Eu451 2.394 . S
O470 C459 1.251 . S
O471 Eu441 2.374 . S
O471 C459 1.251 . S
H472 C443 0.931 . S
H473 C444 0.931 . S
H474 C446 0.931 . S
H475 C447 0.931 . S
H476 C453 0.931 . S
H477 C454 0.931 . S
H478 C456 0.931 . S
H479 C457 0.931 . S
C480 C481 1.391 . S
C480 C482 1.394 . S
C480 H496 0.931 . S
C481 C480 1.391 . S
C481 C485 1.376 . S
C482 C480 1.394 . S
C482 C483 1.369 . S
C482 C486 1.531 . S
C483 C482 1.369 . S
C483 C484 1.410 . S
C483 C491 1.503 . S
C484 C483 1.410 . S
C484 C485 1.392 . S
C484 C487 1.511 . S
C485 C481 1.376 . S
C485 C484 1.392 . S
C485 H497 0.929 . S
C486 C482 1.531 . S
C486 H498 0.960 . S
C486 H499 0.962 . S
C486 H500 0.960 . S
C487 C484 1.511 . S
C487 H501 0.961 . S
C487 H502 0.961 . S
C487 H503 0.961 . S
C488 C489 1.370 . S
C488 C490 1.363 . S
C488 H504 0.931 . S
C489 C488 1.370 . S
C489 C493 1.408 . S
C490 C488 1.363 . S
C490 C491 1.370 . S
C490 C494 1.524 . S
C491 C483 1.503 . S
C491 C490 1.370 . S
C491 C492 1.403 . S
C492 C491 1.403 . S
C492 C493 1.404 . S
C492 C495 1.539 . S
C493 C489 1.408 . S
C493 C492 1.404 . S
C493 H505 0.930 . S
C494 C490 1.524 . S
C494 H506 0.956 . S
C494 H507 0.961 . S
C494 H508 0.961 . S
C495 C492 1.539 . S
C495 H509 0.958 . S
C495 H510 0.961 . S
C495 H511 0.960 . S
H496 C480 0.931 . S
H497 C485 0.929 . S
H498 C486 0.960 . S
H499 C486 0.962 . S
H500 C486 0.960 . S
H501 C487 0.961 . S
H502 C487 0.961 . S
H503 C487 0.961 . S
H504 C488 0.931 . S
H505 C493 0.930 . S
H506 C494 0.956 . S
H507 C494 0.961 . S
H508 C494 0.961 . S
H509 C495 0.958 . S
H510 C495 0.961 . S
H511 C495 0.960 . S
C512 C513 1.391 . S
C512 C514 1.394 . S
C512 H528 0.931 . S
C513 C512 1.391 . S
C513 C517 1.376 . S
C514 C512 1.394 . S
C514 C515 1.369 . S
C514 C518 1.531 1_455 S
C515 C514 1.369 . S
C515 C516 1.410 . S
C515 C523 1.503 1_455 S
C516 C515 1.410 . S
C516 C517 1.392 . S
C516 C519 1.511 . S
C517 C513 1.376 . S
C517 C516 1.392 . S
C517 H529 0.929 . S
C518 C514 1.531 1_655 S
C518 H530 0.960 . S
C518 H531 0.962 . S
C518 H532 0.960 1_655 S
C519 C516 1.511 . S
C519 H533 0.961 . S
C519 H534 0.961 . S
C519 H535 0.961 . S
C520 C521 1.370 . S
C520 C522 1.363 . S
C520 H536 0.931 . S
C521 C520 1.370 . S
C521 C525 1.408 . S
C522 C520 1.363 . S
C522 C523 1.370 . S
C522 C526 1.524 . S
C523 C515 1.503 1_655 S
C523 C522 1.370 . S
C523 C524 1.403 . S
C524 C523 1.403 . S
C524 C525 1.404 . S
C524 C527 1.539 . S
C525 C521 1.408 . S
C525 C524 1.404 . S
C525 H537 0.930 . S
C526 C522 1.524 . S
C526 H538 0.956 . S
C526 H539 0.961 . S
C526 H540 0.961 . S
C527 C524 1.539 . S
C527 H541 0.958 . S
C527 H542 0.961 . S
C527 H543 0.960 1_655 S
H528 C512 0.931 . S
H529 C517 0.929 . S
H530 C518 0.960 . S
H531 C518 0.962 . S
H532 C518 0.960 1_455 S
H533 C519 0.961 . S
H534 C519 0.961 . S
H535 C519 0.961 . S
H536 C520 0.931 . S
H537 C525 0.930 . S
H538 C526 0.956 . S
H539 C526 0.961 . S
H540 C526 0.961 . S
H541 C527 0.958 . S
H542 C527 0.961 . S
H543 C527 0.960 1_455 S
C544 C545 1.391 . S
C544 C546 1.394 . S
C544 H560 0.931 . S
C545 C544 1.391 . S
C545 C549 1.376 . S
C546 C544 1.394 . S
C546 C547 1.369 . S
C546 C550 1.535 . S
C547 C546 1.369 . S
C547 C548 1.410 . S
C547 C555 1.503 1_545 S
C548 C547 1.410 . S
C548 C549 1.392 . S
C548 C551 1.511 . S
C549 C545 1.376 . S
C549 C548 1.392 . S
C549 H561 0.929 . S
C550 C546 1.535 . S
C550 H562 0.949 1_545 S
C550 H563 0.961 1_545 S
C550 H564 0.969 . S
C551 C548 1.511 . S
C551 H565 0.961 . S
C551 H566 0.961 . S
C551 H567 0.961 . S
C552 C553 1.370 . S
C552 C554 1.363 . S
C552 H568 0.931 . S
C553 C552 1.370 . S
C553 C557 1.408 . S
C554 C552 1.363 . S
C554 C555 1.370 . S
C554 C558 1.524 . S
C555 C547 1.503 1_565 S
C555 C554 1.370 . S
C555 C556 1.403 . S
C556 C555 1.403 . S
C556 C557 1.404 . S
C556 C559 1.539 . S
C557 C553 1.408 . S
C557 C556 1.404 . S
C557 H569 0.930 . S
C558 C554 1.524 . S
C558 H570 0.956 1_565 S
C558 H571 0.961 1_565 S
C558 H572 0.961 . S
C559 C556 1.539 . S
C559 H573 0.958 . S
C559 H574 0.961 . S
C559 H575 0.960 1_565 S
H560 C544 0.931 . S
H561 C549 0.929 . S
H562 C550 0.949 1_565 S
H563 C550 0.961 1_565 S
H564 C550 0.969 . S
H565 C551 0.961 . S
H566 C551 0.961 . S
H567 C551 0.961 . S
H568 C552 0.931 . S
H569 C557 0.930 . S
H570 C558 0.956 1_545 S
H571 C558 0.961 1_545 S
H572 C558 0.961 . S
H573 C559 0.958 . S
H574 C559 0.961 . S
H575 C559 0.960 1_545 S
C576 C577 1.391 . S
C576 C578 1.394 . S
C576 H592 0.931 . S
C577 C576 1.391 . S
C577 C581 1.376 . S
C578 C576 1.394 . S
C578 C579 1.369 . S
C578 C582 1.531 . S
C579 C578 1.369 . S
C579 C580 1.410 . S
C579 C587 1.503 . S
C580 C579 1.410 . S
C580 C581 1.392 . S
C580 C583 1.511 . S
C581 C577 1.376 . S
C581 C580 1.392 . S
C581 H593 0.929 . S
C582 C578 1.531 . S
C582 H594 0.960 . S
C582 H595 0.962 . S
C582 H596 0.960 . S
C583 C580 1.511 . S
C583 H597 0.961 . S
C583 H598 0.961 . S
C583 H599 0.961 . S
C584 C585 1.370 . S
C584 C586 1.363 . S
C584 H600 0.931 . S
C585 C584 1.370 . S
C585 C589 1.408 . S
C586 C584 1.363 . S
C586 C587 1.370 . S
C586 C590 1.524 . S
C587 C579 1.503 . S
C587 C586 1.370 . S
C587 C588 1.403 . S
C588 C587 1.403 . S
C588 C589 1.404 . S
C588 C591 1.539 . S
C589 C585 1.408 . S
C589 C588 1.404 . S
C589 H601 0.930 . S
C590 C586 1.524 . S
C590 H602 0.956 . S
C590 H603 0.961 . S
C590 H604 0.961 . S
C591 C588 1.539 . S
C591 H605 0.958 . S
C591 H606 0.961 . S
C591 H607 0.960 . S
H592 C576 0.931 . S
H593 C581 0.929 . S
H594 C582 0.960 . S
H595 C582 0.962 . S
H596 C582 0.960 . S
H597 C583 0.961 . S
H598 C583 0.961 . S
H599 C583 0.961 . S
H600 C584 0.931 . S
H601 C589 0.930 . S
H602 C590 0.956 . S
H603 C590 0.961 . S
H604 C590 0.961 . S
H605 C591 0.958 . S
H606 C591 0.961 . S
H607 C591 0.960 . S
C608 C609 1.391 . S
C608 C610 1.394 . S
C608 H624 0.931 . S
C609 C608 1.391 . S
C609 C613 1.376 . S
C610 C608 1.394 . S
C610 C611 1.369 . S
C610 C614 1.531 . S
C611 C610 1.369 . S
C611 C612 1.410 . S
C611 C619 1.503 1_455 S
C612 C611 1.410 . S
C612 C613 1.392 . S
C612 C615 1.511 1_455 S
C613 C609 1.376 . S
C613 C612 1.392 . S
C613 H625 0.929 . S
C614 C610 1.531 . S
C614 H626 0.960 . S
C614 H627 0.962 . S
C614 H628 0.960 . S
C615 C612 1.511 1_655 S
C615 H629 0.961 . S
C615 H630 0.961 . S
C615 H631 0.961 . S
C616 C617 1.370 . S
C616 C618 1.363 . S
C616 H632 0.931 . S
C617 C616 1.370 . S
C617 C621 1.408 . S
C618 C616 1.363 . S
C618 C619 1.370 . S
C618 C622 1.524 . S
C619 C611 1.503 1_655 S
C619 C618 1.370 . S
C619 C620 1.403 . S
C620 C619 1.403 . S
C620 C621 1.404 . S
C620 C623 1.539 . S
C621 C617 1.408 . S
C621 C620 1.404 . S
C621 H633 0.930 . S
C622 C618 1.524 . S
C622 H634 0.956 1_655 S
C622 H635 0.961 . S
C622 H636 0.961 . S
C623 C620 1.539 . S
C623 H637 0.958 . S
C623 H638 0.961 . S
C623 H639 0.960 . S
H624 C608 0.931 . S
H625 C613 0.929 . S
H626 C614 0.960 . S
H627 C614 0.962 . S
H628 C614 0.960 . S
H629 C615 0.961 . S
H630 C615 0.961 . S
H631 C615 0.961 . S
H632 C616 0.931 . S
H633 C621 0.930 . S
H634 C622 0.956 1_455 S
H635 C622 0.961 . S
H636 C622 0.961 . S
H637 C623 0.958 . S
H638 C623 0.961 . S
H639 C623 0.960 . S
C640 C641 1.391 . S
C640 C642 1.394 . S
C640 H656 0.931 . S
C641 C640 1.391 . S
C641 C645 1.376 . S
C642 C640 1.394 . S
C642 C643 1.369 . S
C642 C646 1.531 . S
C643 C642 1.369 . S
C643 C644 1.410 . S
C643 C651 1.503 1_565 S
C644 C643 1.410 . S
C644 C645 1.392 . S
C644 C647 1.511 1_565 S
C645 C641 1.376 . S
C645 C644 1.392 . S
C645 H657 0.929 . S
C646 C642 1.531 . S
C646 H658 0.960 . S
C646 H659 0.962 . S
C646 H660 0.960 . S
C647 C644 1.511 1_545 S
C647 H661 0.961 . S
C647 H662 0.961 . S
C647 H663 0.961 . S
C648 C649 1.370 . S
C648 C650 1.363 . S
C648 H664 0.931 . S
C649 C648 1.370 . S
C649 C653 1.408 . S
C650 C648 1.363 . S
C650 C651 1.370 . S
C650 C654 1.524 . S
C651 C643 1.503 1_545 S
C651 C650 1.370 . S
C651 C652 1.403 . S
C652 C651 1.403 . S
C652 C653 1.404 . S
C652 C655 1.539 . S
C653 C649 1.408 . S
C653 C652 1.404 . S
C653 H665 0.930 . S
C654 C650 1.524 . S
C654 H666 0.956 . S
C654 H667 0.961 . S
C654 H668 0.961 . S
C655 C652 1.539 . S
C655 H669 0.958 . S
C655 H670 0.961 . S
C655 H671 0.960 . S
H656 C640 0.931 . S
H657 C645 0.929 . S
H658 C646 0.960 . S
H659 C646 0.962 . S
H660 C646 0.960 . S
H661 C647 0.961 . S
H662 C647 0.961 . S
H663 C647 0.961 . S
H664 C648 0.931 . S
H665 C653 0.930 . S
H666 C654 0.956 . S
H667 C654 0.961 . S
H668 C654 0.961 . S
H669 C655 0.958 . S
H670 C655 0.961 . S
H671 C655 0.960 . S
C672 C673 1.391 . S
C672 C674 1.394 . S
C672 H688 0.931 . S
C673 C672 1.391 . S
C673 C677 1.376 . S
C674 C672 1.394 . S
C674 C675 1.369 . S
C674 C678 1.531 . S
C675 C674 1.369 . S
C675 C676 1.410 . S
C675 C683 1.503 . S
C676 C675 1.410 . S
C676 C677 1.392 . S
C676 C679 1.511 . S
C677 C673 1.376 . S
C677 C676 1.392 . S
C677 H689 0.929 . S
C678 C674 1.531 . S
C678 H690 0.960 . S
C678 H691 0.962 . S
C678 H692 0.960 . S
C679 C676 1.511 . S
C679 H693 0.961 . S
C679 H694 0.961 . S
C679 H695 0.961 . S
C680 C681 1.370 . S
C680 C682 1.363 . S
C680 H696 0.931 . S
C681 C680 1.370 . S
C681 C685 1.408 . S
C682 C680 1.363 . S
C682 C683 1.370 . S
C682 C686 1.524 . S
C683 C675 1.503 . S
C683 C682 1.370 . S
C683 C684 1.403 . S
C684 C683 1.403 . S
C684 C685 1.404 . S
C684 C687 1.539 . S
C685 C681 1.408 . S
C685 C684 1.404 . S
C685 H697 0.930 . S
C686 C682 1.524 . S
C686 H698 0.956 . S
C686 H699 0.961 . S
C686 H700 0.961 . S
C687 C684 1.539 . S
C687 H701 0.958 . S
C687 H702 0.961 . S
C687 H703 0.960 . S
H688 C672 0.931 . S
H689 C677 0.929 . S
H690 C678 0.960 . S
H691 C678 0.962 . S
H692 C678 0.960 . S
H693 C679 0.961 . S
H694 C679 0.961 . S
H695 C679 0.961 . S
H696 C680 0.931 . S
H697 C685 0.930 . S
H698 C686 0.956 . S
H699 C686 0.961 . S
H700 C686 0.961 . S
H701 C687 0.958 . S
H702 C687 0.961 . S
H703 C687 0.960 . S
C704 C705 1.391 . S
C704 C706 1.394 . S
C704 H720 0.931 . S
C705 C704 1.391 . S
C705 C709 1.376 . S
C706 C704 1.394 . S
C706 C707 1.369 . S
C706 C710 1.531 . S
C707 C706 1.369 . S
C707 C708 1.410 . S
C707 C715 1.503 1_455 S
C708 C707 1.410 . S
C708 C709 1.392 . S
C708 C711 1.517 . S
C709 C705 1.376 . S
C709 C708 1.392 . S
C709 H721 0.929 . S
C710 C706 1.531 . S
C710 H722 0.960 . S
C710 H723 0.962 . S
C710 H724 0.960 . S
C711 C708 1.517 . S
C711 H725 0.971 . S
C711 H726 0.944 1_455 S
C711 H727 0.962 1_455 S
C712 C713 1.370 . S
C712 C714 1.363 . S
C712 H728 0.931 . S
C713 C712 1.370 . S
C713 C717 1.408 . S
C714 C712 1.363 . S
C714 C715 1.370 . S
C714 C718 1.524 . S
C715 C707 1.503 1_655 S
C715 C714 1.370 . S
C715 C716 1.403 . S
C716 C715 1.403 . S
C716 C717 1.404 . S
C716 C719 1.539 . S
C717 C713 1.408 . S
C717 C716 1.404 . S
C717 H729 0.930 . S
C718 C714 1.524 . S
C718 H730 0.956 1_655 S
C718 H731 0.961 1_655 S
C718 H732 0.961 . S
C719 C716 1.539 . S
C719 H733 0.958 . S
C719 H734 0.961 . S
C719 H735 0.960 . S
H720 C704 0.931 . S
H721 C709 0.929 . S
H722 C710 0.960 . S
H723 C710 0.962 . S
H724 C710 0.960 . S
H725 C711 0.971 . S
H726 C711 0.944 1_655 S
H727 C711 0.962 1_655 S
H728 C712 0.931 . S
H729 C717 0.930 . S
H730 C718 0.956 1_455 S
H731 C718 0.961 1_455 S
H732 C718 0.961 . S
H733 C719 0.958 . S
H734 C719 0.961 . S
H735 C719 0.960 . S
C736 C737 1.391 . S
C736 C738 1.394 . S
C736 H752 0.931 . S
C737 C736 1.391 . S
C737 C741 1.376 . S
C738 C736 1.394 . S
C738 C739 1.369 . S
C738 C742 1.531 . S
C739 C738 1.369 . S
C739 C740 1.410 . S
C739 C747 1.503 1_565 S
C740 C739 1.410 . S
C740 C741 1.392 . S
C740 C743 1.511 . S
C741 C737 1.376 . S
C741 C740 1.392 . S
C741 H753 0.929 . S
C742 C738 1.531 . S
C742 H754 0.960 . S
C742 H755 0.962 . S
C742 H756 0.960 . S
C743 C740 1.511 . S
C743 H757 0.961 . S
C743 H758 0.961 1_565 S
C743 H759 0.961 1_565 S
C744 C745 1.370 . S
C744 C746 1.363 . S
C744 H760 0.931 . S
C745 C744 1.370 . S
C745 C749 1.408 . S
C746 C744 1.363 . S
C746 C747 1.370 . S
C746 C750 1.524 1_545 S
C747 C739 1.503 1_545 S
C747 C746 1.370 . S
C747 C748 1.403 . S
C748 C747 1.403 . S
C748 C749 1.404 . S
C748 C751 1.539 . S
C749 C745 1.408 . S
C749 C748 1.404 . S
C749 H761 0.930 . S
C750 C746 1.524 1_565 S
C750 H762 0.956 . S
C750 H763 0.961 . S
C750 H764 0.961 1_565 S
C751 C748 1.539 . S
C751 H765 0.958 . S
C751 H766 0.961 . S
C751 H767 0.960 . S
H752 C736 0.931 . S
H753 C741 0.929 . S
H754 C742 0.960 . S
H755 C742 0.962 . S
H756 C742 0.960 . S
H757 C743 0.961 . S
H758 C743 0.961 1_545 S
H759 C743 0.961 1_545 S
H760 C744 0.931 . S
H761 C749 0.930 . S
H762 C750 0.956 . S
H763 C750 0.961 . S
H764 C750 0.961 1_545 S
H765 C751 0.958 . S
H766 C751 0.961 . S
H767 C751 0.960 . S
C768 C769 1.391 . S
C768 C770 1.394 . S
C768 H784 0.931 . S
C769 C768 1.391 . S
C769 C773 1.376 . S
C770 C768 1.394 . S
C770 C771 1.369 . S
C770 C774 1.531 . S
C771 C770 1.369 . S
C771 C772 1.410 . S
C771 C779 1.503 . S
C772 C771 1.410 . S
C772 C773 1.392 . S
C772 C775 1.511 . S
C773 C769 1.376 . S
C773 C772 1.392 . S
C773 H785 0.929 . S
C774 C770 1.531 . S
C774 H786 0.960 . S
C774 H787 0.962 . S
C774 H788 0.960 . S
C775 C772 1.511 . S
C775 H789 0.961 . S
C775 H790 0.961 . S
C775 H791 0.961 . S
C776 C777 1.370 . S
C776 C778 1.363 . S
C776 H792 0.931 . S
C777 C776 1.370 . S
C777 C781 1.408 . S
C778 C776 1.363 . S
C778 C779 1.370 . S
C778 C782 1.524 . S
C779 C771 1.503 . S
C779 C778 1.370 . S
C779 C780 1.403 . S
C780 C779 1.403 . S
C780 C781 1.404 . S
C780 C783 1.539 . S
C781 C777 1.408 . S
C781 C780 1.404 . S
C781 H793 0.930 . S
C782 C778 1.524 . S
C782 H794 0.956 . S
C782 H795 0.961 . S
C782 H796 0.961 . S
C783 C780 1.539 . S
C783 H797 0.958 . S
C783 H798 0.961 . S
C783 H799 0.960 . S
H784 C768 0.931 . S
H785 C773 0.929 . S
H786 C774 0.960 . S
H787 C774 0.962 . S
H788 C774 0.960 . S
H789 C775 0.961 . S
H790 C775 0.961 . S
H791 C775 0.961 . S
H792 C776 0.931 . S
H793 C781 0.930 . S
H794 C782 0.956 . S
H795 C782 0.961 . S
H796 C782 0.961 . S
H797 C783 0.958 . S
H798 C783 0.961 . S
H799 C783 0.960 . S
C800 C801 1.391 . S
C800 C802 1.394 . S
C800 H816 0.931 . S
C801 C800 1.391 . S
C801 C805 1.376 . S
C802 C800 1.394 . S
C802 C803 1.369 . S
C802 C806 1.531 . S
C803 C802 1.369 . S
C803 C804 1.410 . S
C803 C811 1.503 1_455 S
C804 C803 1.410 . S
C804 C805 1.392 . S
C804 C807 1.511 . S
C805 C801 1.376 . S
C805 C804 1.392 . S
C805 H817 0.929 . S
C806 C802 1.531 . S
C806 H818 0.960 . S
C806 H819 0.962 . S
C806 H820 0.960 . S
C807 C804 1.511 . S
C807 H821 0.961 . S
C807 H822 0.961 1_455 S
C807 H823 0.961 . S
C808 C809 1.370 . S
C808 C810 1.363 . S
C808 H824 0.931 . S
C809 C808 1.370 . S
C809 C813 1.408 . S
C810 C808 1.363 . S
C810 C811 1.370 . S
C810 C814 1.524 . S
C811 C803 1.503 1_655 S
C811 C810 1.370 . S
C811 C812 1.403 . S
C812 C811 1.403 . S
C812 C813 1.404 . S
C812 C815 1.539 1_655 S
C813 C809 1.408 . S
C813 C812 1.404 . S
C813 H825 0.930 . S
C814 C810 1.524 . S
C814 H826 0.956 . S
C814 H827 0.961 . S
C814 H828 0.961 . S
C815 C812 1.539 1_455 S
C815 H829 0.958 . S
C815 H830 0.961 1_455 S
C815 H831 0.960 . S
H816 C800 0.931 . S
H817 C805 0.929 . S
H818 C806 0.960 . S
H819 C806 0.962 . S
H820 C806 0.960 . S
H821 C807 0.961 . S
H822 C807 0.961 1_655 S
H823 C807 0.961 . S
H824 C808 0.931 . S
H825 C813 0.930 . S
H826 C814 0.956 . S
H827 C814 0.961 . S
H828 C814 0.961 . S
H829 C815 0.958 . S
H830 C815 0.961 1_655 S
H831 C815 0.960 . S
C832 C833 1.391 . S
C832 C834 1.394 . S
C832 H848 0.931 . S
C833 C832 1.391 . S
C833 C837 1.376 . S
C834 C832 1.394 . S
C834 C835 1.369 . S
C834 C838 1.531 . S
C835 C834 1.369 . S
C835 C836 1.410 . S
C835 C843 1.503 1_545 S
C836 C835 1.410 . S
C836 C837 1.392 . S
C836 C839 1.511 . S
C837 C833 1.376 . S
C837 C836 1.392 . S
C837 H849 0.929 . S
C838 C834 1.531 . S
C838 H850 0.960 1_545 S
C838 H851 0.962 1_545 S
C838 H852 0.960 . S
C839 C836 1.511 . S
C839 H853 0.961 . S
C839 H854 0.961 . S
C839 H855 0.961 . S
C840 C841 1.370 . S
C840 C842 1.363 . S
C840 H856 0.931 . S
C841 C840 1.370 . S
C841 C845 1.408 . S
C842 C840 1.363 . S
C842 C843 1.370 . S
C842 C846 1.524 . S
C843 C835 1.503 1_565 S
C843 C842 1.370 . S
C843 C844 1.403 . S
C844 C843 1.403 . S
C844 C845 1.404 . S
C844 C847 1.539 . S
C845 C841 1.408 . S
C845 C844 1.404 . S
C845 H857 0.930 . S
C846 C842 1.524 . S
C846 H858 0.956 . S
C846 H859 0.961 . S
C846 H860 0.961 . S
C847 C844 1.539 . S
C847 H861 0.958 . S
C847 H862 0.961 . S
C847 H863 0.960 1_565 S
H848 C832 0.931 . S
H849 C837 0.929 . S
H850 C838 0.960 1_565 S
H851 C838 0.962 1_565 S
H852 C838 0.960 . S
H853 C839 0.961 . S
H854 C839 0.961 . S
H855 C839 0.961 . S
H856 C840 0.931 . S
H857 C845 0.930 . S
H858 C846 0.956 . S
H859 C846 0.961 . S
H860 C846 0.961 . S
H861 C847 0.958 . S
H862 C847 0.961 . S
H863 C847 0.960 1_545 S
C864 C865 1.391 . S
C864 C866 1.394 . S
C864 H880 0.931 . S
C865 C864 1.391 . S
C865 C869 1.376 . S
C866 C864 1.394 . S
C866 C867 1.369 . S
C866 C870 1.531 . S
C867 C866 1.369 . S
C867 C868 1.410 . S
C867 C875 1.503 . S
C868 C867 1.410 . S
C868 C869 1.392 . S
C868 C871 1.511 . S
C869 C865 1.376 . S
C869 C868 1.392 . S
C869 H881 0.929 . S
C870 C866 1.531 . S
C870 H882 0.960 . S
C870 H883 0.962 . S
C870 H884 0.960 . S
C871 C868 1.511 . S
C871 H885 0.961 . S
C871 H886 0.961 . S
C871 H887 0.961 . S
C872 C873 1.370 . S
C872 C874 1.363 . S
C872 H888 0.931 . S
C873 C872 1.370 . S
C873 C877 1.408 . S
C874 C872 1.363 . S
C874 C875 1.370 . S
C874 C878 1.524 . S
C875 C867 1.503 . S
C875 C874 1.370 . S
C875 C876 1.403 . S
C876 C875 1.403 . S
C876 C877 1.404 . S
C876 C879 1.539 . S
C877 C873 1.408 . S
C877 C876 1.404 . S
C877 H889 0.930 . S
C878 C874 1.524 . S
C878 H890 0.956 . S
C878 H891 0.961 . S
C878 H892 0.961 . S
C879 C876 1.539 . S
C879 H893 0.958 . S
C879 H894 0.961 . S
C879 H895 0.960 . S
H880 C864 0.931 . S
H881 C869 0.929 . S
H882 C870 0.960 . S
H883 C870 0.962 . S
H884 C870 0.960 . S
H885 C871 0.961 . S
H886 C871 0.961 . S
H887 C871 0.961 . S
H888 C872 0.931 . S
H889 C877 0.930 . S
H890 C878 0.956 . S
H891 C878 0.961 . S
H892 C878 0.961 . S
H893 C879 0.958 . S
H894 C879 0.961 . S
H895 C879 0.960 . S
C896 C897 1.391 . S
C896 C898 1.394 . S
C896 H912 0.931 . S
C897 C896 1.391 . S
C897 C901 1.376 . S
C898 C896 1.394 . S
C898 C899 1.369 . S
C898 C902 1.531 . S
C899 C898 1.369 . S
C899 C900 1.410 . S
C899 C907 1.503 . S
C900 C899 1.410 . S
C900 C901 1.392 . S
C900 C903 1.511 . S
C901 C897 1.376 . S
C901 C900 1.392 . S
C901 H913 0.929 . S
C902 C898 1.531 . S
C902 H914 0.960 . S
C902 H915 0.962 . S
C902 H916 0.960 . S
C903 C900 1.511 . S
C903 H917 0.961 . S
C903 H918 0.961 . S
C903 H919 0.961 . S
C904 C905 1.370 . S
C904 C906 1.363 . S
C904 H920 0.931 . S
C905 C904 1.370 . S
C905 C909 1.408 . S
C906 C904 1.363 . S
C906 C907 1.370 . S
C906 C910 1.524 . S
C907 C899 1.503 . S
C907 C906 1.370 . S
C907 C908 1.403 . S
C908 C907 1.403 . S
C908 C909 1.404 . S
C908 C911 1.539 . S
C909 C905 1.408 . S
C909 C908 1.404 . S
C909 H921 0.930 . S
C910 C906 1.524 . S
C910 H922 0.956 . S
C910 H923 0.961 . S
C910 H924 0.961 . S
C911 C908 1.539 . S
C911 H925 0.958 . S
C911 H926 0.961 . S
C911 H927 0.960 . S
H912 C896 0.931 . S
H913 C901 0.929 . S
H914 C902 0.960 . S
H915 C902 0.962 . S
H916 C902 0.960 . S
H917 C903 0.961 . S
H918 C903 0.961 . S
H919 C903 0.961 . S
H920 C904 0.931 . S
H921 C909 0.930 . S
H922 C910 0.956 . S
H923 C910 0.961 . S
H924 C910 0.961 . S
H925 C911 0.958 . S
H926 C911 0.961 . S
H927 C911 0.960 . S
C928 C929 1.391 . S
C928 C930 1.394 . S
C928 H944 0.931 . S
C929 C928 1.391 . S
C929 C933 1.376 . S
C930 C928 1.394 . S
C930 C931 1.369 . S
C930 C934 1.531 . S
C931 C930 1.369 . S
C931 C932 1.410 . S
C931 C939 1.503 . S
C932 C931 1.410 . S
C932 C933 1.392 . S
C932 C935 1.511 . S
C933 C929 1.376 . S
C933 C932 1.392 . S
C933 H945 0.929 . S
C934 C930 1.531 . S
C934 H946 0.960 . S
C934 H947 0.962 . S
C934 H948 0.960 . S
C935 C932 1.511 . S
C935 H949 0.961 . S
C935 H950 0.961 . S
C935 H951 0.961 . S
C936 C937 1.370 . S
C936 C938 1.363 . S
C936 H952 0.931 . S
C937 C936 1.370 . S
C937 C941 1.408 . S
C938 C936 1.363 . S
C938 C939 1.370 . S
C938 C942 1.524 . S
C939 C931 1.503 . S
C939 C938 1.370 . S
C939 C940 1.403 . S
C940 C939 1.403 . S
C940 C941 1.404 . S
C940 C943 1.539 . S
C941 C937 1.408 . S
C941 C940 1.404 . S
C941 H953 0.930 . S
C942 C938 1.524 . S
C942 H954 0.956 . S
C942 H955 0.961 . S
C942 H956 0.961 . S
C943 C940 1.539 . S
C943 H957 0.958 . S
C943 H958 0.961 . S
C943 H959 0.960 . S
H944 C928 0.931 . S
H945 C933 0.929 . S
H946 C934 0.960 . S
H947 C934 0.962 . S
H948 C934 0.960 . S
H949 C935 0.961 . S
H950 C935 0.961 . S
H951 C935 0.961 . S
H952 C936 0.931 . S
H953 C941 0.930 . S
H954 C942 0.956 . S
H955 C942 0.961 . S
H956 C942 0.961 . S
H957 C943 0.958 . S
H958 C943 0.961 . S
H959 C943 0.960 . S
C960 C961 1.391 . S
C960 C962 1.394 . S
C960 H976 0.931 . S
C961 C960 1.391 . S
C961 C965 1.376 . S
C962 C960 1.394 . S
C962 C963 1.369 . S
C962 C966 1.531 . S
C963 C962 1.369 . S
C963 C964 1.410 . S
C963 C971 1.503 . S
C964 C963 1.410 . S
C964 C965 1.392 . S
C964 C967 1.511 . S
C965 C961 1.376 . S
C965 C964 1.392 . S
C965 H977 0.929 . S
C966 C962 1.531 . S
C966 H978 0.960 . S
C966 H979 0.962 . S
C966 H980 0.960 . S
C967 C964 1.511 . S
C967 H981 0.961 . S
C967 H982 0.961 . S
C967 H983 0.961 . S
C968 C969 1.370 . S
C968 C970 1.363 . S
C968 H984 0.931 . S
C969 C968 1.370 . S
C969 C973 1.408 . S
C970 C968 1.363 . S
C970 C971 1.370 . S
C970 C974 1.524 . S
C971 C963 1.503 . S
C971 C970 1.370 . S
C971 C972 1.403 . S
C972 C971 1.403 . S
C972 C973 1.404 . S
C972 C975 1.539 . S
C973 C969 1.408 . S
C973 C972 1.404 . S
C973 H985 0.930 . S
C974 C970 1.524 . S
C974 H986 0.956 . S
C974 H987 0.961 . S
C974 H988 0.961 . S
C975 C972 1.539 . S
C975 H989 0.958 . S
C975 H990 0.961 . S
C975 H991 0.960 . S
H976 C960 0.931 . S
H977 C965 0.929 . S
H978 C966 0.960 . S
H979 C966 0.962 . S
H980 C966 0.960 . S
H981 C967 0.961 . S
H982 C967 0.961 . S
H983 C967 0.961 . S
H984 C968 0.931 . S
H985 C973 0.930 . S
H986 C974 0.956 . S
H987 C974 0.961 . S
H988 C974 0.961 . S
H989 C975 0.958 . S
H990 C975 0.961 . S
H991 C975 0.960 . S
C992 C993 1.391 . S
C992 C994 1.394 . S
C992 H1008 0.931 . S
C993 C992 1.391 . S
C993 C997 1.376 . S
C994 C992 1.394 . S
C994 C995 1.369 . S
C994 C998 1.531 . S
C995 C994 1.369 . S
C995 C996 1.410 . S
C995 C1003 1.503 . S
C996 C995 1.410 . S
C996 C997 1.392 . S
C996 C999 1.511 . S
C997 C993 1.376 . S
C997 C996 1.392 . S
C997 H1009 0.929 . S
C998 C994 1.531 . S
C998 H1010 0.960 . S
C998 H1011 0.962 . S
C998 H1012 0.960 . S
C999 C996 1.511 . S
C999 H1013 0.961 . S
C999 H1014 0.961 . S
C999 H1015 0.961 . S
C1000 C1001 1.370 . S
C1000 C1002 1.363 . S
C1000 H1016 0.931 . S
C1001 C1000 1.370 . S
C1001 C1005 1.408 . S
C1002 C1000 1.363 . S
C1002 C1003 1.370 . S
C1002 C1006 1.524 . S
C1003 C995 1.503 . S
C1003 C1002 1.370 . S
C1003 C1004 1.403 . S
C1004 C1003 1.403 . S
C1004 C1005 1.404 . S
C1004 C1007 1.539 . S
C1005 C1001 1.408 . S
C1005 C1004 1.404 . S
C1005 H1017 0.930 . S
C1006 C1002 1.524 . S
C1006 H1018 0.956 . S
C1006 H1019 0.961 . S
C1006 H1020 0.961 . S
C1007 C1004 1.539 . S
C1007 H1021 0.958 . S
C1007 H1022 0.961 . S
C1007 H1023 0.960 . S
H1008 C992 0.931 . S
H1009 C997 0.929 . S
H1010 C998 0.960 . S
H1011 C998 0.962 . S
H1012 C998 0.960 . S
H1013 C999 0.961 . S
H1014 C999 0.961 . S
H1015 C999 0.961 . S
H1016 C1000 0.931 . S
H1017 C1005 0.930 . S
H1018 C1006 0.956 . S
H1019 C1006 0.961 . S
H1020 C1006 0.961 . S
H1021 C1007 0.958 . S
H1022 C1007 0.961 . S
H1023 C1007 0.960 . S
C1024 C1025 1.391 . S
C1024 C1026 1.394 . S
C1024 H1040 0.931 . S
C1025 C1024 1.391 . S
C1025 C1029 1.376 . S
C1026 C1024 1.394 . S
C1026 C1027 1.369 . S
C1026 C1030 1.531 . S
C1027 C1026 1.369 . S
C1027 C1028 1.410 . S
C1027 C1035 1.503 . S
C1028 C1027 1.410 . S
C1028 C1029 1.392 . S
C1028 C1031 1.511 . S
C1029 C1025 1.376 . S
C1029 C1028 1.392 . S
C1029 H1041 0.929 . S
C1030 C1026 1.531 . S
C1030 H1042 0.960 . S
C1030 H1043 0.962 . S
C1030 H1044 0.960 . S
C1031 C1028 1.511 . S
C1031 H1045 0.961 . S
C1031 H1046 0.961 . S
C1031 H1047 0.961 . S
C1032 C1033 1.370 . S
C1032 C1034 1.363 . S
C1032 H1048 0.931 . S
C1033 C1032 1.370 . S
C1033 C1037 1.408 . S
C1034 C1032 1.363 . S
C1034 C1035 1.370 . S
C1034 C1038 1.524 . S
C1035 C1027 1.503 . S
C1035 C1034 1.370 . S
C1035 C1036 1.403 . S
C1036 C1035 1.403 . S
C1036 C1037 1.404 . S
C1036 C1039 1.539 . S
C1037 C1033 1.408 . S
C1037 C1036 1.404 . S
C1037 H1049 0.930 . S
C1038 C1034 1.524 . S
C1038 H1050 0.956 . S
C1038 H1051 0.961 . S
C1038 H1052 0.961 . S
C1039 C1036 1.539 . S
C1039 H1053 0.958 . S
C1039 H1054 0.961 . S
C1039 H1055 0.960 . S
H1040 C1024 0.931 . S
H1041 C1029 0.929 . S
H1042 C1030 0.960 . S
H1043 C1030 0.962 . S
H1044 C1030 0.960 . S
H1045 C1031 0.961 . S
H1046 C1031 0.961 . S
H1047 C1031 0.961 . S
H1048 C1032 0.931 . S
H1049 C1037 0.930 . S
H1050 C1038 0.956 . S
H1051 C1038 0.961 . S
H1052 C1038 0.961 . S
H1053 C1039 0.958 . S
H1054 C1039 0.961 . S
H1055 C1039 0.960 . S
C1056 C1057 1.391 . S
C1056 C1058 1.394 . S
C1056 H1072 0.931 . S
C1057 C1056 1.391 . S
C1057 C1061 1.376 . S
C1058 C1056 1.394 . S
C1058 C1059 1.369 . S
C1058 C1062 1.531 1_556 S
C1059 C1058 1.369 . S
C1059 C1060 1.410 . S
C1059 C1067 1.503 1_566 S
C1060 C1059 1.410 . S
C1060 C1061 1.392 . S
C1060 C1063 1.511 . S
C1061 C1057 1.376 . S
C1061 C1060 1.392 . S
C1061 H1073 0.929 . S
C1062 C1058 1.531 1_554 S
C1062 H1074 0.960 . S
C1062 H1075 0.962 . S
C1062 H1076 0.960 . S
C1063 C1060 1.511 . S
C1063 H1077 0.961 . S
C1063 H1078 0.961 1_565 S
C1063 H1079 0.961 . S
C1064 C1065 1.370 . S
C1064 C1066 1.363 . S
C1064 H1080 0.931 . S
C1065 C1064 1.370 . S
C1065 C1069 1.408 . S
C1066 C1064 1.363 . S
C1066 C1067 1.370 . S
C1066 C1070 1.524 1_554 S
C1067 C1059 1.503 1_544 S
C1067 C1066 1.370 . S
C1067 C1068 1.403 . S
C1068 C1067 1.403 . S
C1068 C1069 1.404 . S
C1068 C1071 1.539 1_545 S
C1069 C1065 1.408 . S
C1069 C1068 1.404 . S
C1069 H1081 0.930 . S
C1070 C1066 1.524 1_556 S
C1070 H1082 0.956 . S
C1070 H1083 0.961 . S
C1070 H1084 0.961 . S
C1071 C1068 1.539 1_565 S
C1071 H1085 0.958 . S
C1071 H1086 0.961 . S
C1071 H1087 0.960 . S
H1072 C1056 0.931 . S
H1073 C1061 0.929 . S
H1074 C1062 0.960 . S
H1075 C1062 0.962 . S
H1076 C1062 0.960 . S
H1077 C1063 0.961 . S
H1078 C1063 0.961 1_545 S
H1079 C1063 0.961 . S
H1080 C1064 0.931 . S
H1081 C1069 0.930 . S
H1082 C1070 0.956 . S
H1083 C1070 0.961 . S
H1084 C1070 0.961 . S
H1085 C1071 0.958 . S
H1086 C1071 0.961 . S
H1087 C1071 0.960 . S
C1088 C1089 1.391 . S
C1088 C1090 1.394 . S
C1088 H1104 0.931 . S
C1089 C1088 1.391 . S
C1089 C1093 1.376 . S
C1090 C1088 1.394 . S
C1090 C1091 1.369 . S
C1090 C1094 1.531 . S
C1091 C1090 1.369 . S
C1091 C1092 1.410 . S
C1091 C1099 1.503 . S
C1092 C1091 1.410 . S
C1092 C1093 1.392 . S
C1092 C1095 1.511 . S
C1093 C1089 1.376 . S
C1093 C1092 1.392 . S
C1093 H1105 0.929 . S
C1094 C1090 1.531 . S
C1094 H1106 0.960 . S
C1094 H1107 0.962 . S
C1094 H1108 0.960 . S
C1095 C1092 1.511 . S
C1095 H1109 0.961 . S
C1095 H1110 0.961 . S
C1095 H1111 0.961 . S
C1096 C1097 1.370 . S
C1096 C1098 1.363 . S
C1096 H1112 0.931 . S
C1097 C1096 1.370 . S
C1097 C1101 1.408 . S
C1098 C1096 1.363 . S
C1098 C1099 1.370 . S
C1098 C1102 1.524 . S
C1099 C1091 1.503 . S
C1099 C1098 1.370 . S
C1099 C1100 1.403 . S
C1100 C1099 1.403 . S
C1100 C1101 1.404 . S
C1100 C1103 1.539 . S
C1101 C1097 1.408 . S
C1101 C1100 1.404 . S
C1101 H1113 0.930 . S
C1102 C1098 1.524 . S
C1102 H1114 0.956 . S
C1102 H1115 0.961 . S
C1102 H1116 0.961 . S
C1103 C1100 1.539 . S
C1103 H1117 0.958 . S
C1103 H1118 0.961 . S
C1103 H1119 0.960 . S
H1104 C1088 0.931 . S
H1105 C1093 0.929 . S
H1106 C1094 0.960 . S
H1107 C1094 0.962 . S
H1108 C1094 0.960 . S
H1109 C1095 0.961 . S
H1110 C1095 0.961 . S
H1111 C1095 0.961 . S
H1112 C1096 0.931 . S
H1113 C1101 0.930 . S
H1114 C1102 0.956 . S
H1115 C1102 0.961 . S
H1116 C1102 0.961 . S
H1117 C1103 0.958 . S
H1118 C1103 0.961 . S
H1119 C1103 0.960 . S
C1120 C1121 1.391 . S
C1120 C1122 1.394 . S
C1120 H1136 0.931 . S
C1121 C1120 1.391 . S
C1121 C1125 1.376 . S
C1122 C1120 1.394 . S
C1122 C1123 1.369 . S
C1122 C1126 1.531 1_556 S
C1123 C1122 1.369 . S
C1123 C1124 1.410 . S
C1123 C1131 1.503 1_456 S
C1124 C1123 1.410 . S
C1124 C1125 1.392 . S
C1124 C1127 1.511 1_455 S
C1125 C1121 1.376 . S
C1125 C1124 1.392 . S
C1125 H1137 0.929 . S
C1126 C1122 1.531 1_554 S
C1126 H1138 0.960 . S
C1126 H1139 0.962 . S
C1126 H1140 0.960 1_554 S
C1127 C1124 1.511 1_655 S
C1127 H1141 0.961 1_655 S
C1127 H1142 0.961 . S
C1127 H1143 0.961 . S
C1128 C1129 1.370 . S
C1128 C1130 1.363 . S
C1128 H1144 0.931 . S
C1129 C1128 1.370 . S
C1129 C1133 1.408 . S
C1130 C1128 1.363 . S
C1130 C1131 1.370 . S
C1130 C1134 1.524 1_655 S
C1131 C1123 1.503 1_654 S
C1131 C1130 1.370 . S
C1131 C1132 1.403 1_554 S
C1132 C1131 1.403 1_556 S
C1132 C1133 1.404 1_556 S
C1132 C1135 1.539 . S
C1133 C1129 1.408 . S
C1133 C1132 1.404 1_554 S
C1133 H1145 0.930 . S
C1134 C1130 1.524 1_455 S
C1134 H1146 0.956 . S
C1134 H1147 0.961 . S
C1134 H1148 0.961 . S
C1135 C1132 1.539 . S
C1135 H1149 0.958 . S
C1135 H1150 0.961 . S
C1135 H1151 0.960 . S
H1136 C1120 0.931 . S
H1137 C1125 0.929 . S
H1138 C1126 0.960 . S
H1139 C1126 0.962 . S
H1140 C1126 0.960 1_556 S
H1141 C1127 0.961 1_455 S
H1142 C1127 0.961 . S
H1143 C1127 0.961 . S
H1144 C1128 0.931 . S
H1145 C1133 0.930 . S
H1146 C1134 0.956 . S
H1147 C1134 0.961 . S
H1148 C1134 0.961 . S
H1149 C1135 0.958 . S
H1150 C1135 0.961 . S
H1151 C1135 0.960 . S
C1152 C1153 1.391 . S
C1152 C1154 1.394 . S
C1152 H1168 0.931 . S
C1153 C1152 1.391 . S
C1153 C1157 1.376 . S
C1154 C1152 1.394 . S
C1154 C1155 1.369 . S
C1154 C1158 1.531 . S
C1155 C1154 1.369 . S
C1155 C1156 1.410 . S
C1155 C1163 1.503 1_545 S
C1156 C1155 1.410 . S
C1156 C1157 1.392 . S
C1156 C1159 1.511 1_545 S
C1157 C1153 1.376 . S
C1157 C1156 1.392 . S
C1157 H1169 0.929 . S
C1158 C1154 1.531 . S
C1158 H1170 0.960 . S
C1158 H1171 0.962 . S
C1158 H1172 0.960 . S
C1159 C1156 1.511 1_565 S
C1159 H1173 0.961 . S
C1159 H1174 0.961 . S
C1159 H1175 0.961 . S
C1160 C1161 1.370 . S
C1160 C1162 1.363 . S
C1160 H1176 0.931 . S
C1161 C1160 1.370 . S
C1161 C1165 1.408 . S
C1162 C1160 1.363 . S
C1162 C1163 1.370 . S
C1162 C1166 1.524 . S
C1163 C1155 1.503 1_565 S
C1163 C1162 1.370 . S
C1163 C1164 1.403 . S
C1164 C1163 1.403 . S
C1164 C1165 1.404 . S
C1164 C1167 1.539 1_565 S
C1165 C1161 1.408 . S
C1165 C1164 1.404 . S
C1165 H1177 0.930 . S
C1166 C1162 1.524 . S
C1166 H1178 0.956 . S
C1166 H1179 0.961 . S
C1166 H1180 0.961 . S
C1167 C1164 1.539 1_545 S
C1167 H1181 0.958 . S
C1167 H1182 0.961 . S
C1167 H1183 0.960 . S
H1168 C1152 0.931 . S
H1169 C1157 0.929 . S
H1170 C1158 0.960 . S
H1171 C1158 0.962 . S
H1172 C1158 0.960 . S
H1173 C1159 0.961 . S
H1174 C1159 0.961 . S
H1175 C1159 0.961 . S
H1176 C1160 0.931 . S
H1177 C1165 0.930 . S
H1178 C1166 0.956 . S
H1179 C1166 0.961 . S
H1180 C1166 0.961 . S
H1181 C1167 0.958 . S
H1182 C1167 0.961 . S
H1183 C1167 0.960 . S
C1184 C1185 1.391 . S
C1184 C1186 1.394 1_554 S
C1184 H1200 0.931 . S
C1185 C1184 1.391 . S
C1185 C1189 1.376 . S
C1186 C1184 1.394 1_556 S
C1186 C1187 1.369 1_556 S
C1186 C1190 1.531 . S
C1187 C1186 1.369 1_554 S
C1187 C1188 1.410 . S
C1187 C1195 1.503 1_554 S
C1188 C1187 1.410 . S
C1188 C1189 1.392 . S
C1188 C1191 1.511 . S
C1189 C1185 1.376 . S
C1189 C1188 1.392 . S
C1189 H1201 0.929 . S
C1190 C1186 1.531 . S
C1190 H1202 0.960 . S
C1190 H1203 0.962 . S
C1190 H1204 0.960 . S
C1191 C1188 1.511 . S
C1191 H1205 0.961 . S
C1191 H1206 0.961 . S
C1191 H1207 0.961 . S
C1192 C1193 1.370 . S
C1192 C1194 1.363 . S
C1192 H1208 0.931 . S
C1193 C1192 1.370 . S
C1193 C1197 1.408 . S
C1194 C1192 1.363 . S
C1194 C1195 1.370 . S
C1194 C1198 1.524 1_556 S
C1195 C1187 1.503 1_556 S
C1195 C1194 1.370 . S
C1195 C1196 1.403 . S
C1196 C1195 1.403 . S
C1196 C1197 1.404 . S
C1196 C1199 1.539 . S
C1197 C1193 1.408 . S
C1197 C1196 1.404 . S
C1197 H1209 0.930 . S
C1198 C1194 1.524 1_554 S
C1198 H1210 0.956 . S
C1198 H1211 0.961 . S
C1198 H1212 0.961 . S
C1199 C1196 1.539 . S
C1199 H1213 0.958 . S
C1199 H1214 0.961 . S
C1199 H1215 0.960 . S
H1200 C1184 0.931 . S
H1201 C1189 0.929 . S
H1202 C1190 0.960 . S
H1203 C1190 0.962 . S
H1204 C1190 0.960 . S
H1205 C1191 0.961 . S
H1206 C1191 0.961 . S
H1207 C1191 0.961 . S
H1208 C1192 0.931 . S
H1209 C1197 0.930 . S
H1210 C1198 0.956 . S
H1211 C1198 0.961 . S
H1212 C1198 0.961 . S
H1213 C1199 0.958 . S
H1214 C1199 0.961 . S
H1215 C1199 0.960 . S
C1216 C1217 1.391 . S
C1216 C1218 1.394 . S
C1216 H1232 0.931 . S
C1217 C1216 1.391 . S
C1217 C1221 1.376 . S
C1218 C1216 1.394 . S
C1218 C1219 1.369 . S
C1218 C1222 1.531 1_455 S
C1219 C1218 1.369 . S
C1219 C1220 1.410 . S
C1219 C1227 1.503 1_455 S
C1220 C1219 1.410 . S
C1220 C1221 1.392 . S
C1220 C1223 1.511 . S
C1221 C1217 1.376 . S
C1221 C1220 1.392 . S
C1221 H1233 0.929 . S
C1222 C1218 1.531 1_655 S
C1222 H1234 0.960 . S
C1222 H1235 0.962 . S
C1222 H1236 0.962 1_655 S
C1223 C1220 1.511 . S
C1223 H1237 0.961 . S
C1223 H1238 0.961 . S
C1223 H1239 0.961 . S
C1224 C1225 1.370 . S
C1224 C1226 1.363 . S
C1224 H1240 0.931 . S
C1225 C1224 1.370 . S
C1225 C1229 1.408 . S
C1226 C1224 1.363 . S
C1226 C1227 1.370 . S
C1226 C1230 1.524 . S
C1227 C1219 1.503 1_655 S
C1227 C1226 1.370 . S
C1227 C1228 1.403 . S
C1228 C1227 1.403 . S
C1228 C1229 1.404 . S
C1228 C1231 1.539 1_655 S
C1229 C1225 1.408 . S
C1229 C1228 1.404 . S
C1229 H1241 0.930 . S
C1230 C1226 1.524 . S
C1230 H1242 0.956 . S
C1230 H1243 0.961 . S
C1230 H1244 0.961 . S
C1231 C1228 1.539 1_455 S
C1231 H1245 0.958 . S
C1231 H1246 0.961 . S
C1231 H1247 0.960 . S
H1232 C1216 0.931 . S
H1233 C1221 0.929 . S
H1234 C1222 0.960 . S
H1235 C1222 0.962 . S
H1236 C1222 0.962 1_455 S
H1237 C1223 0.961 . S
H1238 C1223 0.961 . S
H1239 C1223 0.961 . S
H1240 C1224 0.931 . S
H1241 C1229 0.930 . S
H1242 C1230 0.956 . S
H1243 C1230 0.961 . S
H1244 C1230 0.961 . S
H1245 C1231 0.958 . S
H1246 C1231 0.961 . S
H1247 C1231 0.960 . S
C1248 C1249 1.391 . S
C1248 C1250 1.394 . S
C1248 H1264 0.931 . S
C1249 C1248 1.391 . S
C1249 C1253 1.376 . S
C1250 C1248 1.394 . S
C1250 C1251 1.369 . S
C1250 C1254 1.531 . S
C1251 C1250 1.369 . S
C1251 C1252 1.410 . S
C1251 C1259 1.503 . S
C1252 C1251 1.410 . S
C1252 C1253 1.392 . S
C1252 C1255 1.511 . S
C1253 C1249 1.376 . S
C1253 C1252 1.392 . S
C1253 H1265 0.929 . S
C1254 C1250 1.531 . S
C1254 H1266 0.960 . S
C1254 H1267 0.962 . S
C1254 H1268 0.960 . S
C1255 C1252 1.511 . S
C1255 H1269 0.961 . S
C1255 H1270 0.961 . S
C1255 H1271 0.961 . S
C1256 C1257 1.370 . S
C1256 C1258 1.363 . S
C1256 H1272 0.931 . S
C1257 C1256 1.370 . S
C1257 C1261 1.408 . S
C1258 C1256 1.363 . S
C1258 C1259 1.370 . S
C1258 C1262 1.524 . S
C1259 C1251 1.503 . S
C1259 C1258 1.370 . S
C1259 C1260 1.403 . S
C1260 C1259 1.403 . S
C1260 C1261 1.404 . S
C1260 C1263 1.539 . S
C1261 C1257 1.408 . S
C1261 C1260 1.404 . S
C1261 H1273 0.930 . S
C1262 C1258 1.524 . S
C1262 H1274 0.956 . S
C1262 H1275 0.961 . S
C1262 H1276 0.961 . S
C1263 C1260 1.539 . S
C1263 H1277 0.958 . S
C1263 H1278 0.961 . S
C1263 H1279 0.960 . S
H1264 C1248 0.931 . S
H1265 C1253 0.929 . S
H1266 C1254 0.960 . S
H1267 C1254 0.962 . S
H1268 C1254 0.960 . S
H1269 C1255 0.961 . S
H1270 C1255 0.961 . S
H1271 C1255 0.961 . S
H1272 C1256 0.931 . S
H1273 C1261 0.930 . S
H1274 C1262 0.956 . S
H1275 C1262 0.961 . S
H1276 C1262 0.961 . S
H1277 C1263 0.958 . S
H1278 C1263 0.961 . S
H1279 C1263 0.960 . S
C1280 C1281 1.391 . S
C1280 C1282 1.394 . S
C1280 H1296 0.931 . S
C1281 C1280 1.391 . S
C1281 C1285 1.376 . S
C1282 C1280 1.394 . S
C1282 C1283 1.369 . S
C1282 C1286 1.531 . S
C1283 C1282 1.369 . S
C1283 C1284 1.410 . S
C1283 C1291 1.503 . S
C1284 C1283 1.410 . S
C1284 C1285 1.392 . S
C1284 C1287 1.511 . S
C1285 C1281 1.376 . S
C1285 C1284 1.392 . S
C1285 H1297 0.929 . S
C1286 C1282 1.531 . S
C1286 H1298 0.960 . S
C1286 H1299 0.962 . S
C1286 H1300 0.960 . S
C1287 C1284 1.511 . S
C1287 H1301 0.961 . S
C1287 H1302 0.961 . S
C1287 H1303 0.961 . S
C1288 C1289 1.370 . S
C1288 C1290 1.363 . S
C1288 H1304 0.931 . S
C1289 C1288 1.370 . S
C1289 C1293 1.408 . S
C1290 C1288 1.363 . S
C1290 C1291 1.370 . S
C1290 C1294 1.524 . S
C1291 C1283 1.503 . S
C1291 C1290 1.370 . S
C1291 C1292 1.403 . S
C1292 C1291 1.403 . S
C1292 C1293 1.404 . S
C1292 C1295 1.539 . S
C1293 C1289 1.408 . S
C1293 C1292 1.404 . S
C1293 H1305 0.930 . S
C1294 C1290 1.524 . S
C1294 H1306 0.956 . S
C1294 H1307 0.961 . S
C1294 H1308 0.961 . S
C1295 C1292 1.539 . S
C1295 H1309 0.958 . S
C1295 H1310 0.961 . S
C1295 H1311 0.960 . S
H1296 C1280 0.931 . S
H1297 C1285 0.929 . S
H1298 C1286 0.960 . S
H1299 C1286 0.962 . S
H1300 C1286 0.960 . S
H1301 C1287 0.961 . S
H1302 C1287 0.961 . S
H1303 C1287 0.961 . S
H1304 C1288 0.931 . S
H1305 C1293 0.930 . S
H1306 C1294 0.956 . S
H1307 C1294 0.961 . S
H1308 C1294 0.961 . S
H1309 C1295 0.958 . S
H1310 C1295 0.961 . S
H1311 C1295 0.960 . S
C1312 C1313 1.391 . S
C1312 C1314 1.394 . S
C1312 H1328 0.931 . S
C1313 C1312 1.391 . S
C1313 C1317 1.376 . S
C1314 C1312 1.394 . S
C1314 C1315 1.369 . S
C1314 C1318 1.531 . S
C1315 C1314 1.369 . S
C1315 C1316 1.410 . S
C1315 C1323 1.503 . S
C1316 C1315 1.410 . S
C1316 C1317 1.392 . S
C1316 C1319 1.511 . S
C1317 C1313 1.376 . S
C1317 C1316 1.392 . S
C1317 H1329 0.929 . S
C1318 C1314 1.531 . S
C1318 H1330 0.960 . S
C1318 H1331 0.962 . S
C1318 H1332 0.960 . S
C1319 C1316 1.511 . S
C1319 H1333 0.961 . S
C1319 H1334 0.961 . S
C1319 H1335 0.961 . S
C1320 C1321 1.370 . S
C1320 C1322 1.363 . S
C1320 H1336 0.931 . S
C1321 C1320 1.370 . S
C1321 C1325 1.408 . S
C1322 C1320 1.363 . S
C1322 C1323 1.370 . S
C1322 C1326 1.524 . S
C1323 C1315 1.503 . S
C1323 C1322 1.370 . S
C1323 C1324 1.403 . S
C1324 C1323 1.403 . S
C1324 C1325 1.404 . S
C1324 C1327 1.539 . S
C1325 C1321 1.408 . S
C1325 C1324 1.404 . S
C1325 H1337 0.930 . S
C1326 C1322 1.524 . S
C1326 H1338 0.956 . S
C1326 H1339 0.961 . S
C1326 H1340 0.961 . S
C1327 C1324 1.539 . S
C1327 H1341 0.958 . S
C1327 H1342 0.961 . S
C1327 H1343 0.960 . S
H1328 C1312 0.931 . S
H1329 C1317 0.929 . S
H1330 C1318 0.960 . S
H1331 C1318 0.962 . S
H1332 C1318 0.960 . S
H1333 C1319 0.961 . S
H1334 C1319 0.961 . S
H1335 C1319 0.961 . S
H1336 C1320 0.931 . S
H1337 C1325 0.930 . S
H1338 C1326 0.956 . S
H1339 C1326 0.961 . S
H1340 C1326 0.961 . S
H1341 C1327 0.958 . S
H1342 C1327 0.961 . S
H1343 C1327 0.960 . S
C1344 C1345 1.391 . S
C1344 C1346 1.394 . S
C1344 H1360 0.931 . S
C1345 C1344 1.391 . S
C1345 C1349 1.376 . S
C1346 C1344 1.394 . S
C1346 C1347 1.369 . S
C1346 C1350 1.531 . S
C1347 C1346 1.369 . S
C1347 C1348 1.410 . S
C1347 C1355 1.503 . S
C1348 C1347 1.410 . S
C1348 C1349 1.392 . S
C1348 C1351 1.511 . S
C1349 C1345 1.376 . S
C1349 C1348 1.392 . S
C1349 H1361 0.929 . S
C1350 C1346 1.531 . S
C1350 H1362 0.960 . S
C1350 H1363 0.962 . S
C1350 H1364 0.960 . S
C1351 C1348 1.511 . S
C1351 H1365 0.961 . S
C1351 H1366 0.961 . S
C1351 H1367 0.961 . S
C1352 C1353 1.370 . S
C1352 C1354 1.363 . S
C1352 H1368 0.931 . S
C1353 C1352 1.370 . S
C1353 C1357 1.408 . S
C1354 C1352 1.363 . S
C1354 C1355 1.370 . S
C1354 C1358 1.524 . S
C1355 C1347 1.503 . S
C1355 C1354 1.370 . S
C1355 C1356 1.403 . S
C1356 C1355 1.403 . S
C1356 C1357 1.404 . S
C1356 C1359 1.539 . S
C1357 C1353 1.408 . S
C1357 C1356 1.404 . S
C1357 H1369 0.930 . S
C1358 C1354 1.524 . S
C1358 H1370 0.956 . S
C1358 H1371 0.961 . S
C1358 H1372 0.961 . S
C1359 C1356 1.539 . S
C1359 H1373 0.958 . S
C1359 H1374 0.961 . S
C1359 H1375 0.960 . S
H1360 C1344 0.931 . S
H1361 C1349 0.929 . S
H1362 C1350 0.960 . S
H1363 C1350 0.962 . S
H1364 C1350 0.960 . S
H1365 C1351 0.961 . S
H1366 C1351 0.961 . S
H1367 C1351 0.961 . S
H1368 C1352 0.931 . S
H1369 C1357 0.930 . S
H1370 C1358 0.956 . S
H1371 C1358 0.961 . S
H1372 C1358 0.961 . S
H1373 C1359 0.958 . S
H1374 C1359 0.961 . S
H1375 C1359 0.960 . S
C1376 C1377 1.391 . S
C1376 C1378 1.394 . S
C1376 H1392 0.931 . S
C1377 C1376 1.391 . S
C1377 C1381 1.376 . S
C1378 C1376 1.394 . S
C1378 C1379 1.369 . S
C1378 C1382 1.531 . S
C1379 C1378 1.369 . S
C1379 C1380 1.410 . S
C1379 C1387 1.503 . S
C1380 C1379 1.410 . S
C1380 C1381 1.392 . S
C1380 C1383 1.511 . S
C1381 C1377 1.376 . S
C1381 C1380 1.392 . S
C1381 H1393 0.929 . S
C1382 C1378 1.531 . S
C1382 H1394 0.960 . S
C1382 H1395 0.962 . S
C1382 H1396 0.960 . S
C1383 C1380 1.511 . S
C1383 H1397 0.961 . S
C1383 H1398 0.961 . S
C1383 H1399 0.961 . S
C1384 C1385 1.370 . S
C1384 C1386 1.363 . S
C1384 H1400 0.931 . S
C1385 C1384 1.370 . S
C1385 C1389 1.408 . S
C1386 C1384 1.363 . S
C1386 C1387 1.370 . S
C1386 C1390 1.524 . S
C1387 C1379 1.503 . S
C1387 C1386 1.370 . S
C1387 C1388 1.403 . S
C1388 C1387 1.403 . S
C1388 C1389 1.404 . S
C1388 C1391 1.539 . S
C1389 C1385 1.408 . S
C1389 C1388 1.404 . S
C1389 H1401 0.930 . S
C1390 C1386 1.524 . S
C1390 H1402 0.956 . S
C1390 H1403 0.961 . S
C1390 H1404 0.961 . S
C1391 C1388 1.539 . S
C1391 H1405 0.958 . S
C1391 H1406 0.961 . S
C1391 H1407 0.960 . S
H1392 C1376 0.931 . S
H1393 C1381 0.929 . S
H1394 C1382 0.960 . S
H1395 C1382 0.962 . S
H1396 C1382 0.960 . S
H1397 C1383 0.961 . S
H1398 C1383 0.961 . S
H1399 C1383 0.961 . S
H1400 C1384 0.931 . S
H1401 C1389 0.930 . S
H1402 C1390 0.956 . S
H1403 C1390 0.961 . S
H1404 C1390 0.961 . S
H1405 C1391 0.958 . S
H1406 C1391 0.961 . S
H1407 C1391 0.960 . S
C1408 C1409 1.391 . S
C1408 C1410 1.394 . S
C1408 H1424 0.931 . S
C1409 C1408 1.391 . S
C1409 C1413 1.376 . S
C1410 C1408 1.394 . S
C1410 C1411 1.369 . S
C1410 C1414 1.531 . S
C1411 C1410 1.369 . S
C1411 C1412 1.410 . S
C1411 C1419 1.503 . S
C1412 C1411 1.410 . S
C1412 C1413 1.392 . S
C1412 C1415 1.511 . S
C1413 C1409 1.376 . S
C1413 C1412 1.392 . S
C1413 H1425 0.929 . S
C1414 C1410 1.531 . S
C1414 H1426 0.960 . S
C1414 H1427 0.962 . S
C1414 H1428 0.960 . S
C1415 C1412 1.511 . S
C1415 H1429 0.961 . S
C1415 H1430 0.961 . S
C1415 H1431 0.961 . S
C1416 C1417 1.370 . S
C1416 C1418 1.363 . S
C1416 H1432 0.931 . S
C1417 C1416 1.370 . S
C1417 C1421 1.408 . S
C1418 C1416 1.363 . S
C1418 C1419 1.370 . S
C1418 C1422 1.524 . S
C1419 C1411 1.503 . S
C1419 C1418 1.370 . S
C1419 C1420 1.403 . S
C1420 C1419 1.403 . S
C1420 C1421 1.404 . S
C1420 C1423 1.539 . S
C1421 C1417 1.408 . S
C1421 C1420 1.404 . S
C1421 H1433 0.930 . S
C1422 C1418 1.524 . S
C1422 H1434 0.956 . S
C1422 H1435 0.961 . S
C1422 H1436 0.961 . S
C1423 C1420 1.539 . S
C1423 H1437 0.958 . S
C1423 H1438 0.961 . S
C1423 H1439 0.960 . S
H1424 C1408 0.931 . S
H1425 C1413 0.929 . S
H1426 C1414 0.960 . S
H1427 C1414 0.962 . S
H1428 C1414 0.960 . S
H1429 C1415 0.961 . S
H1430 C1415 0.961 . S
H1431 C1415 0.961 . S
H1432 C1416 0.931 . S
H1433 C1421 0.930 . S
H1434 C1422 0.956 . S
H1435 C1422 0.961 . S
H1436 C1422 0.961 . S
H1437 C1423 0.958 . S
H1438 C1423 0.961 . S
H1439 C1423 0.960 . S
C1440 C1441 1.391 . S
C1440 C1442 1.394 . S
C1440 H1456 0.931 . S
C1441 C1440 1.391 . S
C1441 C1445 1.376 . S
C1442 C1440 1.394 . S
C1442 C1443 1.369 . S
C1442 C1446 1.531 . S
C1443 C1442 1.369 . S
C1443 C1444 1.410 . S
C1443 C1451 1.503 . S
C1444 C1443 1.410 . S
C1444 C1445 1.392 . S
C1444 C1447 1.511 . S
C1445 C1441 1.376 . S
C1445 C1444 1.392 . S
C1445 H1457 0.929 . S
C1446 C1442 1.531 . S
C1446 H1458 0.960 . S
C1446 H1459 0.962 . S
C1446 H1460 0.960 . S
C1447 C1444 1.511 . S
C1447 H1461 0.961 . S
C1447 H1462 0.961 . S
C1447 H1463 0.961 . S
C1448 C1449 1.370 . S
C1448 C1450 1.363 . S
C1448 H1464 0.931 . S
C1449 C1448 1.370 . S
C1449 C1453 1.408 . S
C1450 C1448 1.363 . S
C1450 C1451 1.370 . S
C1450 C1454 1.524 . S
C1451 C1443 1.503 . S
C1451 C1450 1.370 . S
C1451 C1452 1.403 . S
C1452 C1451 1.403 . S
C1452 C1453 1.404 . S
C1452 C1455 1.539 . S
C1453 C1449 1.408 . S
C1453 C1452 1.404 . S
C1453 H1465 0.930 . S
C1454 C1450 1.524 . S
C1454 H1466 0.956 . S
C1454 H1467 0.961 . S
C1454 H1468 0.961 . S
C1455 C1452 1.539 . S
C1455 H1469 0.958 . S
C1455 H1470 0.961 . S
C1455 H1471 0.960 . S
H1456 C1440 0.931 . S
H1457 C1445 0.929 . S
H1458 C1446 0.960 . S
H1459 C1446 0.962 . S
H1460 C1446 0.960 . S
H1461 C1447 0.961 . S
H1462 C1447 0.961 . S
H1463 C1447 0.961 . S
H1464 C1448 0.931 . S
H1465 C1453 0.930 . S
H1466 C1454 0.956 . S
H1467 C1454 0.961 . S
H1468 C1454 0.961 . S
H1469 C1455 0.958 . S
H1470 C1455 0.961 . S
H1471 C1455 0.960 . S
C1472 C1473 1.391 . S
C1472 C1474 1.394 . S
C1472 H1488 0.931 . S
C1473 C1472 1.391 . S
C1473 C1477 1.376 . S
C1474 C1472 1.394 . S
C1474 C1475 1.369 . S
C1474 C1478 1.531 . S
C1475 C1474 1.369 . S
C1475 C1476 1.410 . S
C1475 C1483 1.503 . S
C1476 C1475 1.410 . S
C1476 C1477 1.392 . S
C1476 C1479 1.511 . S
C1477 C1473 1.376 . S
C1477 C1476 1.392 . S
C1477 H1489 0.929 . S
C1478 C1474 1.531 . S
C1478 H1490 0.960 . S
C1478 H1491 0.962 . S
C1478 H1492 0.960 . S
C1479 C1476 1.511 . S
C1479 H1493 0.961 . S
C1479 H1494 0.961 . S
C1479 H1495 0.961 . S
C1480 C1481 1.370 . S
C1480 C1482 1.363 . S
C1480 H1496 0.931 . S
C1481 C1480 1.370 . S
C1481 C1485 1.408 . S
C1482 C1480 1.363 . S
C1482 C1483 1.370 . S
C1482 C1486 1.524 . S
C1483 C1475 1.503 . S
C1483 C1482 1.370 . S
C1483 C1484 1.403 . S
C1484 C1483 1.403 . S
C1484 C1485 1.404 . S
C1484 C1487 1.539 . S
C1485 C1481 1.408 . S
C1485 C1484 1.404 . S
C1485 H1497 0.930 . S
C1486 C1482 1.524 . S
C1486 H1498 0.956 . S
C1486 H1499 0.961 . S
C1486 H1500 0.961 . S
C1487 C1484 1.539 . S
C1487 H1501 0.958 . S
C1487 H1502 0.961 . S
C1487 H1503 0.960 . S
H1488 C1472 0.931 . S
H1489 C1477 0.929 . S
H1490 C1478 0.960 . S
H1491 C1478 0.962 . S
H1492 C1478 0.960 . S
H1493 C1479 0.961 . S
H1494 C1479 0.961 . S
H1495 C1479 0.961 . S
H1496 C1480 0.931 . S
H1497 C1485 0.930 . S
H1498 C1486 0.956 . S
H1499 C1486 0.961 . S
H1500 C1486 0.961 . S
H1501 C1487 0.958 . S
H1502 C1487 0.961 . S
H1503 C1487 0.960 . S
C1504 C1505 1.391 . S
C1504 C1506 1.394 . S
C1504 H1520 0.931 . S
C1505 C1504 1.391 . S
C1505 C1509 1.376 . S
C1506 C1504 1.394 . S
C1506 C1507 1.369 . S
C1506 C1510 1.531 . S
C1507 C1506 1.369 . S
C1507 C1508 1.410 . S
C1507 C1515 1.503 . S
C1508 C1507 1.410 . S
C1508 C1509 1.392 . S
C1508 C1511 1.511 . S
C1509 C1505 1.376 . S
C1509 C1508 1.392 . S
C1509 H1521 0.929 . S
C1510 C1506 1.531 . S
C1510 H1522 0.960 . S
C1510 H1523 0.962 . S
C1510 H1524 0.960 . S
C1511 C1508 1.511 . S
C1511 H1525 0.961 . S
C1511 H1526 0.961 . S
C1511 H1527 0.961 . S
C1512 C1513 1.370 . S
C1512 C1514 1.363 . S
C1512 H1528 0.931 . S
C1513 C1512 1.370 . S
C1513 C1517 1.408 . S
C1514 C1512 1.363 . S
C1514 C1515 1.370 . S
C1514 C1518 1.524 . S
C1515 C1507 1.503 . S
C1515 C1514 1.370 . S
C1515 C1516 1.403 . S
C1516 C1515 1.403 . S
C1516 C1517 1.404 . S
C1516 C1519 1.539 . S
C1517 C1513 1.408 . S
C1517 C1516 1.404 . S
C1517 H1529 0.930 . S
C1518 C1514 1.524 . S
C1518 H1530 0.956 . S
C1518 H1531 0.961 . S
C1518 H1532 0.961 . S
C1519 C1516 1.539 . S
C1519 H1533 0.958 . S
C1519 H1534 0.961 . S
C1519 H1535 0.960 . S
H1520 C1504 0.931 . S
H1521 C1509 0.929 . S
H1522 C1510 0.960 . S
H1523 C1510 0.962 . S
H1524 C1510 0.960 . S
H1525 C1511 0.961 . S
H1526 C1511 0.961 . S
H1527 C1511 0.961 . S
H1528 C1512 0.931 . S
H1529 C1517 0.930 . S
H1530 C1518 0.956 . S
H1531 C1518 0.961 . S
H1532 C1518 0.961 . S
H1533 C1519 0.958 . S
H1534 C1519 0.961 . S
H1535 C1519 0.960 . S
C1536 C1537 1.391 . S
C1536 C1538 1.394 . S
C1536 H1552 0.931 . S
C1537 C1536 1.391 . S
C1537 C1541 1.376 . S
C1538 C1536 1.394 . S
C1538 C1539 1.369 . S
C1538 C1542 1.531 . S
C1539 C1538 1.369 . S
C1539 C1540 1.410 . S
C1539 C1547 1.503 . S
C1540 C1539 1.410 . S
C1540 C1541 1.392 . S
C1540 C1543 1.511 . S
C1541 C1537 1.376 . S
C1541 C1540 1.392 . S
C1541 H1553 0.929 . S
C1542 C1538 1.531 . S
C1542 H1554 0.960 . S
C1542 H1555 0.962 . S
C1542 H1556 0.960 . S
C1543 C1540 1.511 . S
C1543 H1557 0.961 . S
C1543 H1558 0.961 . S
C1543 H1559 0.961 . S
C1544 C1545 1.370 . S
C1544 C1546 1.363 . S
C1544 H1560 0.931 . S
C1545 C1544 1.370 . S
C1545 C1549 1.408 . S
C1546 C1544 1.363 . S
C1546 C1547 1.370 . S
C1546 C1550 1.524 . S
C1547 C1539 1.503 . S
C1547 C1546 1.370 . S
C1547 C1548 1.403 . S
C1548 C1547 1.403 . S
C1548 C1549 1.404 . S
C1548 C1551 1.539 . S
C1549 C1545 1.408 . S
C1549 C1548 1.404 . S
C1549 H1561 0.930 . S
C1550 C1546 1.524 . S
C1550 H1562 0.956 . S
C1550 H1563 0.961 . S
C1550 H1564 0.961 . S
C1551 C1548 1.539 . S
C1551 H1565 0.958 . S
C1551 H1566 0.961 . S
C1551 H1567 0.960 . S
H1552 C1536 0.931 . S
H1553 C1541 0.929 . S
H1554 C1542 0.960 . S
H1555 C1542 0.962 . S
H1556 C1542 0.960 . S
H1557 C1543 0.961 . S
H1558 C1543 0.961 . S
H1559 C1543 0.961 . S
H1560 C1544 0.931 . S
H1561 C1549 0.930 . S
H1562 C1550 0.956 . S
H1563 C1550 0.961 . S
H1564 C1550 0.961 . S
H1565 C1551 0.958 . S
H1566 C1551 0.961 . S
H1567 C1551 0.960 . S
C1568 C1569 1.391 . S
C1568 C1570 1.394 . S
C1568 H1584 0.931 . S
C1569 C1568 1.391 . S
C1569 C1573 1.376 . S
C1570 C1568 1.394 . S
C1570 C1571 1.369 . S
C1570 C1574 1.531 . S
C1571 C1570 1.369 . S
C1571 C1572 1.410 . S
C1571 C1579 1.503 . S
C1572 C1571 1.410 . S
C1572 C1573 1.392 . S
C1572 C1575 1.511 . S
C1573 C1569 1.376 . S
C1573 C1572 1.392 . S
C1573 H1585 0.929 . S
C1574 C1570 1.531 . S
C1574 H1586 0.960 . S
C1574 H1587 0.962 . S
C1574 H1588 0.960 . S
C1575 C1572 1.511 . S
C1575 H1589 0.961 . S
C1575 H1590 0.961 . S
C1575 H1591 0.961 . S
C1576 C1577 1.370 . S
C1576 C1578 1.363 . S
C1576 H1592 0.931 . S
C1577 C1576 1.370 . S
C1577 C1581 1.408 . S
C1578 C1576 1.363 . S
C1578 C1579 1.370 . S
C1578 C1582 1.524 . S
C1579 C1571 1.503 . S
C1579 C1578 1.370 . S
C1579 C1580 1.403 . S
C1580 C1579 1.403 . S
C1580 C1581 1.404 . S
C1580 C1583 1.539 . S
C1581 C1577 1.408 . S
C1581 C1580 1.404 . S
C1581 H1593 0.930 . S
C1582 C1578 1.524 . S
C1582 H1594 0.956 . S
C1582 H1595 0.961 . S
C1582 H1596 0.961 . S
C1583 C1580 1.539 . S
C1583 H1597 0.958 . S
C1583 H1598 0.961 . S
C1583 H1599 0.960 . S
H1584 C1568 0.931 . S
H1585 C1573 0.929 . S
H1586 C1574 0.960 . S
H1587 C1574 0.962 . S
H1588 C1574 0.960 . S
H1589 C1575 0.961 . S
H1590 C1575 0.961 . S
H1591 C1575 0.961 . S
H1592 C1576 0.931 . S
H1593 C1581 0.930 . S
H1594 C1582 0.956 . S
H1595 C1582 0.961 . S
H1596 C1582 0.961 . S
H1597 C1583 0.958 . S
H1598 C1583 0.961 . S
H1599 C1583 0.960 . S
C1600 C1601 1.391 . S
C1600 C1602 1.394 . S
C1600 H1616 0.931 . S
C1601 C1600 1.391 . S
C1601 C1605 1.376 . S
C1602 C1600 1.394 . S
C1602 C1603 1.369 . S
C1602 C1606 1.531 . S
C1603 C1602 1.369 . S
C1603 C1604 1.410 . S
C1603 C1611 1.503 . S
C1604 C1603 1.410 . S
C1604 C1605 1.392 . S
C1604 C1607 1.511 . S
C1605 C1601 1.376 . S
C1605 C1604 1.392 . S
C1605 H1617 0.929 . S
C1606 C1602 1.531 . S
C1606 H1618 0.960 . S
C1606 H1619 0.962 . S
C1606 H1620 0.960 . S
C1607 C1604 1.511 . S
C1607 H1621 0.961 . S
C1607 H1622 0.961 . S
C1607 H1623 0.961 . S
C1608 C1609 1.370 . S
C1608 C1610 1.363 . S
C1608 H1624 0.931 . S
C1609 C1608 1.370 . S
C1609 C1613 1.408 . S
C1610 C1608 1.363 . S
C1610 C1611 1.370 . S
C1610 C1614 1.524 . S
C1611 C1603 1.503 . S
C1611 C1610 1.370 . S
C1611 C1612 1.403 . S
C1612 C1611 1.403 . S
C1612 C1613 1.404 . S
C1612 C1615 1.539 . S
C1613 C1609 1.408 . S
C1613 C1612 1.404 . S
C1613 H1625 0.930 . S
C1614 C1610 1.524 . S
C1614 H1626 0.956 . S
C1614 H1627 0.961 . S
C1614 H1628 0.961 . S
C1615 C1612 1.539 . S
C1615 H1629 0.958 . S
C1615 H1630 0.961 . S
C1615 H1631 0.960 . S
H1616 C1600 0.931 . S
H1617 C1605 0.929 . S
H1618 C1606 0.960 . S
H1619 C1606 0.962 . S
H1620 C1606 0.960 . S
H1621 C1607 0.961 . S
H1622 C1607 0.961 . S
H1623 C1607 0.961 . S
H1624 C1608 0.931 . S
H1625 C1613 0.930 . S
H1626 C1614 0.956 . S
H1627 C1614 0.961 . S
H1628 C1614 0.961 . S
H1629 C1615 0.958 . S
H1630 C1615 0.961 . S
H1631 C1615 0.960 . S
C481 C85 1.231 . S
C489 C9 1.227 . S
C513 C135 1.255 . S
C521 C59 1.202 . S
C545 C89 1.234 . S
C553 C165 1.240 . S
C577 C139 1.241 . S
C585 C215 1.240 . S
C609 C5 1.251 . S
C617 C169 1.207 . S
C641 C55 1.231 . S
C649 C219 1.228 . S
C673 C415 1.227 . S
C681 C259 1.229 . S
C705 C289 1.182 . S
C713 C445 1.250 . S
C737 C339 1.227 . S
C745 C255 1.243 . S
C769 C369 1.239 . S
C777 C285 1.239 . S
C801 C419 1.243 . S
C809 C335 1.239 . S
C833 C365 1.244 . S
C841 C449 1.212 . S
C865 C138 1.732 . S
C873 C8 1.725 . S
C897 C58 1.733 . S
C905 C168 1.730 . S
C929 C88 1.722 . S
C937 C218 1.721 . S
C961 C258 1.701 . S
C969 C368 1.713 . S
C993 C288 1.750 . S
C1001 C418 1.734 . S
C1025 C338 1.753 . S
C1033 C448 1.737 . S
C1057 C298 2.319 . S
C1065 C18 2.315 . S
C1089 C48 2.305 . S
C1097 C328 2.319 . S
C1121 C378 2.306 . S
C1129 C98 2.319 . S
C1153 C128 2.312 . S
C1161 C408 2.312 . S
C1185 C178 2.318 . S
C1193 C458 2.317 . S
C1217 C248 2.318 . S
C1225 C208 2.314 . S
C1249 C95 1.679 . S
C1257 C19 1.673 . S
C1281 C49 1.682 . S
C1289 C125 1.673 . S
C1313 C99 1.654 . S
C1321 C175 1.674 . S
C1345 C129 1.675 . S
C1353 C205 1.676 . S
C1377 C15 1.666 . S
C1385 C179 1.669 . S
C1409 C45 1.683 . S
C1417 C209 1.669 . S
C1441 C405 1.652 . S
C1449 C249 1.678 . S
C1473 C299 1.685 . S
C1481 C455 1.666 . S
C1505 C329 1.654 . S
C1513 C245 1.672 . S
C1537 C295 1.662 . S
C1545 C379 1.670 . S
C1569 C409 1.654 . S
C1577 C325 1.672 . S
C1601 C459 1.672 . S
C1609 C375 1.666 . S
