# Generated by pormake.
# Topology yfw, (5)-cn, num edge types: 1
# Building blocks:
#     Node 0, Type 0, BuildingBlock: XOMCOT_clean_sbu_1, # of connection points: 5
#     Node 1, Type 0, BuildingBlock: XOMCOT_clean_sbu_1, # of connection points: 5
#     Node 2, Type 0, BuildingBlock: XOMCOT_clean_sbu_1, # of connection points: 5
#     Node 3, Type 0, BuildingBlock: XOMCOT_clean_sbu_1, # of connection points: 5
#     Node 4, Type 0, BuildingBlock: XOMCOT_clean_sbu_1, # of connection points: 5
#     Node 5, Type 0, BuildingBlock: XOMCOT_clean_sbu_1, # of connection points: 5
#     Node 6, Type 0, BuildingBlock: XOMCOT_clean_sbu_1, # of connection points: 5
#     Node 7, Type 0, BuildingBlock: XOMCOT_clean_sbu_1, # of connection points: 5
#     Node 8, Type 0, BuildingBlock: XOMCOT_clean_sbu_1, # of connection points: 5
#     Node 9, Type 0, BuildingBlock: XOMCOT_clean_sbu_1, # of connection points: 5
#     Node 10, Type 0, BuildingBlock: XOMCOT_clean_sbu_1, # of connection points: 5
#     Node 11, Type 0, BuildingBlock: XOMCOT_clean_sbu_1, # of connection points: 5
#     Node 12, Type 0, BuildingBlock: XOMCOT_clean_sbu_1, # of connection points: 5
#     Node 13, Type 0, BuildingBlock: XOMCOT_clean_sbu_1, # of connection points: 5
#     Node 14, Type 0, BuildingBlock: XOMCOT_clean_sbu_1, # of connection points: 5
#     Node 15, Type 0, BuildingBlock: XOMCOT_clean_sbu_1, # of connection points: 5
#     Edge 16, Type (0, 0), BuildingBlock: MIFKUJ_clean_linker_0, # of connection points: 2
#     Edge 17, Type (0, 0), BuildingBlock: MIFKUJ_clean_linker_0, # of connection points: 2
#     Edge 18, Type (0, 0), BuildingBlock: MIFKUJ_clean_linker_0, # of connection points: 2
#     Edge 19, Type (0, 0), BuildingBlock: MIFKUJ_clean_linker_0, # of connection points: 2
#     Edge 20, Type (0, 0), BuildingBlock: MIFKUJ_clean_linker_0, # of connection points: 2
#     Edge 21, Type (0, 0), BuildingBlock: MIFKUJ_clean_linker_0, # of connection points: 2
#     Edge 22, Type (0, 0), BuildingBlock: MIFKUJ_clean_linker_0, # of connection points: 2
#     Edge 23, Type (0, 0), BuildingBlock: MIFKUJ_clean_linker_0, # of connection points: 2
#     Edge 24, Type (0, 0), BuildingBlock: MIFKUJ_clean_linker_0, # of connection points: 2
#     Edge 25, Type (0, 0), BuildingBlock: MIFKUJ_clean_linker_0, # of connection points: 2
#     Edge 26, Type (0, 0), BuildingBlock: MIFKUJ_clean_linker_0, # of connection points: 2
#     Edge 27, Type (0, 0), BuildingBlock: MIFKUJ_clean_linker_0, # of connection points: 2
#     Edge 28, Type (0, 0), BuildingBlock: MIFKUJ_clean_linker_0, # of connection points: 2
#     Edge 29, Type (0, 0), BuildingBlock: MIFKUJ_clean_linker_0, # of connection points: 2
#     Edge 30, Type (0, 0), BuildingBlock: MIFKUJ_clean_linker_0, # of connection points: 2
#     Edge 31, Type (0, 0), BuildingBlock: MIFKUJ_clean_linker_0, # of connection points: 2
#     Edge 32, Type (0, 0), BuildingBlock: MIFKUJ_clean_linker_0, # of connection points: 2
#     Edge 33, Type (0, 0), BuildingBlock: MIFKUJ_clean_linker_0, # of connection points: 2
#     Edge 34, Type (0, 0), BuildingBlock: MIFKUJ_clean_linker_0, # of connection points: 2
#     Edge 35, Type (0, 0), BuildingBlock: MIFKUJ_clean_linker_0, # of connection points: 2
#     Edge 36, Type (0, 0), BuildingBlock: MIFKUJ_clean_linker_0, # of connection points: 2
#     Edge 37, Type (0, 0), BuildingBlock: MIFKUJ_clean_linker_0, # of connection points: 2
#     Edge 38, Type (0, 0), BuildingBlock: MIFKUJ_clean_linker_0, # of connection points: 2
#     Edge 39, Type (0, 0), BuildingBlock: MIFKUJ_clean_linker_0, # of connection points: 2
#     Edge 40, Type (0, 0), BuildingBlock: MIFKUJ_clean_linker_0, # of connection points: 2
#     Edge 41, Type (0, 0), BuildingBlock: MIFKUJ_clean_linker_0, # of connection points: 2
#     Edge 42, Type (0, 0), BuildingBlock: MIFKUJ_clean_linker_0, # of connection points: 2
#     Edge 43, Type (0, 0), BuildingBlock: MIFKUJ_clean_linker_0, # of connection points: 2
#     Edge 44, Type (0, 0), BuildingBlock: MIFKUJ_clean_linker_0, # of connection points: 2
#     Edge 45, Type (0, 0), BuildingBlock: MIFKUJ_clean_linker_0, # of connection points: 2
#     Edge 46, Type (0, 0), BuildingBlock: MIFKUJ_clean_linker_0, # of connection points: 2
#     Edge 47, Type (0, 0), BuildingBlock: MIFKUJ_clean_linker_0, # of connection points: 2
#     Edge 48, Type (0, 0), BuildingBlock: MIFKUJ_clean_linker_0, # of connection points: 2
#     Edge 49, Type (0, 0), BuildingBlock: MIFKUJ_clean_linker_0, # of connection points: 2
#     Edge 50, Type (0, 0), BuildingBlock: MIFKUJ_clean_linker_0, # of connection points: 2
#     Edge 51, Type (0, 0), BuildingBlock: MIFKUJ_clean_linker_0, # of connection points: 2
#     Edge 52, Type (0, 0), BuildingBlock: MIFKUJ_clean_linker_0, # of connection points: 2
#     Edge 53, Type (0, 0), BuildingBlock: MIFKUJ_clean_linker_0, # of connection points: 2
#     Edge 54, Type (0, 0), BuildingBlock: MIFKUJ_clean_linker_0, # of connection points: 2
#     Edge 55, Type (0, 0), BuildingBlock: MIFKUJ_clean_linker_0, # of connection points: 2
# Relax obj value: 0.123
# Max RMSD: 0.163
# Mean RMSD: 0.163
data_MOF--net-yfw--node1-XOMCOT_clean_sbu_1--edge1-MIFKUJ_clean_linker_0
_symmetry_space_group_name_H-M    P1
_symmetry_Int_Tables_number       1
_symmetry_cell_setting            triclinic
loop_
_symmetry_equiv_pos_as_xyz
'x, y, z'
_cell_length_a     71.489694
_cell_length_b     71.515286
_cell_length_c     32.49615
_cell_angle_alpha  90.015324
_cell_angle_beta   90.051379
_cell_angle_gamma 90.007676
loop_
_atom_site_label
_atom_site_type_symbol
_atom_site_fract_x
_atom_site_fract_y
_atom_site_fract_z
_atom_type_partial_charge
C0 C 0.09878 0.07926 0.94065 0.0
C1 C 0.08121 0.07189 0.93477 0.0
N2 N 0.08095 0.0545 0.95072 0.0
N3 N 0.10944 0.06668 0.96077 0.0
C4 C 0.09825 0.05168 0.96621 0.0
H5 H 0.10362 0.09281 0.93038 0.0
Co6 Co 0.13473 0.06913 0.97298 0.0
C7 C 0.13315 0.05608 0.0617 0.0
O8 O 0.13732 0.07279 0.07541 0.0
N9 N 0.1608 0.07143 0.9842 0.0
C10 C 0.18847 0.07934 0.01077 0.0
C11 C 0.16951 0.07938 0.01681 0.0
C12 C 0.17505 0.06685 0.9586 0.0
N13 N 0.192 0.07148 0.97403 0.0
O14 O 0.13934 0.04729 0.9398 0.0
H15 H 0.16275 0.08637 0.042 0.0
H16 H 0.17307 0.06066 0.92863 0.0
O17 O 0.13172 0.05309 0.02287 0.0
C18 C 0.13886 0.05203 0.90191 0.0
O19 O 0.13715 0.0699 0.89315 0.0
N20 N 0.12952 0.09174 1.00101 0.0
C21 C 0.12151 0.12733 0.03206 0.0
C22 C 0.11072 0.11178 0.04361 0.0
C23 C 0.11472 0.09417 0.02709 0.0
C24 C 0.1393 0.10691 0.98742 0.0
C25 C 0.13586 0.1247 0.00325 0.0
H26 H 0.10592 0.08244 0.03524 0.0
H27 H 0.14992 0.10523 0.96402 0.0
H28 H 0.10279 0.03889 0.98091 0.0
H29 H 0.06969 0.07859 0.91894 0.0
H30 H 0.19872 0.08577 0.03079 0.0
H31 H 0.09903 0.11324 0.06454 0.0
H32 H 0.14446 0.13625 0.993 0.0
C33 C 0.92118 0.58368 0.2094 0.0
C34 C 0.93077 0.56705 0.21038 0.0
N35 N 0.94669 0.56965 0.23189 0.0
N36 N 0.93092 0.59666 0.23048 0.0
C37 C 0.9465 0.58779 0.24352 0.0
H38 H 0.90791 0.5862 0.19439 0.0
Co39 Co 0.92311 0.62112 0.23781 0.0
C40 C 0.93461 0.62843 0.32535 0.0
O41 O 0.91753 0.6336 0.33436 0.0
N42 N 0.91482 0.64651 0.24423 0.0
C43 C 0.89805 0.67169 0.26137 0.0
C44 C 0.90103 0.65313 0.26891 0.0
C45 C 0.91992 0.66175 0.22191 0.0
N46 N 0.90982 0.67711 0.23157 0.0
O47 O 0.94387 0.62919 0.20453 0.0
H48 H 0.89283 0.64502 0.2903 0.0
H49 H 0.93022 0.66156 0.19763 0.0
O50 O 0.93858 0.6232 0.28863 0.0
C51 C 0.93922 0.62775 0.16669 0.0
O52 O 0.92193 0.62282 0.15814 0.0
N53 N 0.90198 0.61194 0.26567 0.0
C54 C 0.86834 0.59838 0.29676 0.0
C55 C 0.88535 0.59355 0.31549 0.0
C56 C 0.90215 0.60027 0.29899 0.0
C57 C 0.88572 0.61514 0.2449 0.0
C58 C 0.86869 0.60895 0.26051 0.0
H59 H 0.91524 0.5961 0.31287 0.0
H60 H 0.88597 0.62307 0.21655 0.0
H61 H 0.95737 0.59441 0.26156 0.0
H62 H 0.9265 0.55412 0.19583 0.0
H63 H 0.88765 0.68043 0.2761 0.0
H64 H 0.88563 0.58497 0.34295 0.0
H65 H 0.85588 0.61242 0.24438 0.0
C66 C 0.40614 0.41864 0.48011 0.0
C67 C 0.42459 0.42343 0.48559 0.0
N68 N 0.4254 0.43933 0.50796 0.0
N69 N 0.39529 0.4314 0.49892 0.0
C70 C 0.40734 0.44387 0.51545 0.0
H71 H 0.4009 0.40674 0.46309 0.0
Co72 Co 0.36937 0.4311 0.4987 0.0
C73 C 0.35935 0.44462 0.5817 0.0
O74 O 0.34814 0.43012 0.58501 0.0
N75 N 0.3429 0.43133 0.49649 0.0
C76 C 0.31408 0.44324 0.49641 0.0
C77 C 0.33222 0.44598 0.50841 0.0
C78 C 0.33086 0.42035 0.47511 0.0
N79 N 0.31319 0.42712 0.47522 0.0
O80 O 0.36932 0.45257 0.46337 0.0
H81 H 0.33739 0.4586 0.52274 0.0
H82 H 0.33507 0.40856 0.45662 0.0
O83 O 0.36879 0.44704 0.54856 0.0
C84 C 0.37015 0.44744 0.42583 0.0
O85 O 0.37092 0.42942 0.41792 0.0
N86 N 0.37023 0.40882 0.53065 0.0
C87 C 0.37683 0.374 0.56732 0.0
C88 C 0.3839 0.3904 0.58502 0.0
C89 C 0.38066 0.40762 0.56596 0.0
C90 C 0.36397 0.39284 0.51232 0.0
C91 C 0.36664 0.37538 0.53064 0.0
H92 H 0.38735 0.41987 0.57867 0.0
H93 H 0.3581 0.39331 0.48191 0.0
H94 H 0.40287 0.45607 0.53245 0.0
H95 H 0.43641 0.41597 0.47289 0.0
H96 H 0.30258 0.45276 0.50176 0.0
H97 H 0.39226 0.38988 0.61282 0.0
H98 H 0.36171 0.36295 0.51495 0.0
C99 C 0.58816 0.90264 0.73446 0.0
C100 C 0.58319 0.92105 0.72872 0.0
N101 N 0.56722 0.92421 0.74955 0.0
N102 N 0.57533 0.89431 0.75865 0.0
C103 C 0.56275 0.90779 0.76744 0.0
H104 H 0.59988 0.89552 0.7204 0.0
Co105 Co 0.57374 0.86883 0.76803 0.0
C106 C 0.56196 0.86665 0.85513 0.0
O107 O 0.57609 0.85518 0.86106 0.0
N108 N 0.57148 0.84265 0.77519 0.0
C109 C 0.55893 0.81467 0.78748 0.0
C110 C 0.5578 0.83343 0.79556 0.0
C111 C 0.57994 0.82908 0.75286 0.0
N112 N 0.57285 0.81189 0.76036 0.0
O113 O 0.55165 0.86818 0.73464 0.0
H114 H 0.54665 0.83986 0.81287 0.0
H115 H 0.5899 0.8319 0.72868 0.0
O116 O 0.55891 0.87324 0.81897 0.0
C117 C 0.55654 0.86576 0.69726 0.0
O118 O 0.57442 0.86345 0.68936 0.0
N119 N 0.59678 0.87001 0.79746 0.0
C120 C 0.63258 0.87439 0.8315 0.0
C121 C 0.61751 0.88523 0.84544 0.0
C122 C 0.59985 0.88311 0.82747 0.0
C123 C 0.61149 0.85995 0.78252 0.0
C124 C 0.62935 0.86163 0.79955 0.0
H125 H 0.58873 0.89236 0.83705 0.0
H126 H 0.60981 0.85122 0.75592 0.0
H127 H 0.54994 0.90535 0.78433 0.0
H128 H 0.59042 0.93119 0.70981 0.0
H129 H 0.54961 0.80406 0.79941 0.0
H130 H 0.61947 0.8958 0.86894 0.0
H131 H 0.6406 0.8532 0.78717 0.0
C132 C 0.89412 0.08479 0.45744 0.0
C133 C 0.91269 0.08024 0.45245 0.0
N134 N 0.91651 0.06561 0.47712 0.0
N135 N 0.88637 0.07296 0.48486 0.0
C136 C 0.90035 0.06141 0.49626 0.0
H137 H 0.88657 0.09566 0.44134 0.0
Co138 Co 0.86119 0.07188 0.49776 0.0
C139 C 0.86235 0.05975 0.58501 0.0
O140 O 0.85212 0.07437 0.59466 0.0
N141 N 0.83529 0.07028 0.50846 0.0
C142 C 0.80703 0.05962 0.5255 0.0
C143 C 0.82591 0.05785 0.53211 0.0
C144 C 0.82168 0.07866 0.48615 0.0
N145 N 0.80436 0.07274 0.49644 0.0
O146 O 0.85922 0.04989 0.46452 0.0
H147 H 0.83216 0.04711 0.5509 0.0
H148 H 0.82448 0.08792 0.46058 0.0
O149 O 0.86668 0.05666 0.54733 0.0
C150 C 0.85639 0.05426 0.42699 0.0
O151 O 0.85398 0.07201 0.41793 0.0
N152 N 0.86376 0.0947 0.52757 0.0
C153 C 0.87038 0.12997 0.56232 0.0
C154 C 0.88176 0.11467 0.57229 0.0
C155 C 0.8784 0.09729 0.55418 0.0
C156 C 0.85296 0.10962 0.51661 0.0
C157 C 0.85577 0.12723 0.53414 0.0
H158 H 0.88789 0.08595 0.56105 0.0
H159 H 0.84261 0.10834 0.49285 0.0
H160 H 0.89859 0.04963 0.5168 0.0
H161 H 0.92257 0.08697 0.43202 0.0
H162 H 0.7962 0.05135 0.53996 0.0
H163 H 0.89362 0.11621 0.59275 0.0
H164 H 0.84675 0.13867 0.52503 0.0
C165 C 0.91022 0.4005 0.70619 0.0
C166 C 0.91498 0.41912 0.70402 0.0
N167 N 0.93104 0.4216 0.72502 0.0
N168 N 0.92328 0.39136 0.72835 0.0
C169 C 0.93578 0.40456 0.73943 0.0
H170 H 0.89838 0.39388 0.69143 0.0
Co171 Co 0.92467 0.36568 0.73469 0.0
C172 C 0.93657 0.36115 0.82119 0.0
O173 O 0.92251 0.34949 0.82589 0.0
N174 N 0.92668 0.33934 0.73893 0.0
C175 C 0.9388 0.31102 0.74976 0.0
C176 C 0.94075 0.32978 0.75725 0.0
C177 C 0.91721 0.32598 0.71791 0.0
N178 N 0.92394 0.30864 0.72499 0.0
O179 O 0.94687 0.36558 0.70193 0.0
H180 H 0.95247 0.336 0.77315 0.0
H181 H 0.90628 0.32886 0.69591 0.0
O182 O 0.93947 0.36872 0.78596 0.0
C183 C 0.94262 0.36511 0.66384 0.0
O184 O 0.92483 0.36403 0.6538 0.0
N185 N 0.90168 0.36645 0.76419 0.0
C186 C 0.86609 0.37068 0.79928 0.0
C187 C 0.88146 0.3808 0.81434 0.0
C188 C 0.899 0.37871 0.796 0.0
C189 C 0.88666 0.35732 0.74788 0.0
C190 C 0.86894 0.35877 0.76557 0.0
H191 H 0.91033 0.38747 0.80666 0.0
H192 H 0.88797 0.34967 0.71965 0.0
H193 H 0.94865 0.40159 0.75578 0.0
H194 H 0.90745 0.42992 0.68758 0.0
H195 H 0.94822 0.30008 0.75981 0.0
H196 H 0.87986 0.39084 0.83902 0.0
H197 H 0.85752 0.35092 0.75215 0.0
C198 C 0.59542 0.419 0.96018 0.0
C199 C 0.57725 0.42511 0.96234 0.0
N200 N 0.5771 0.44238 0.97915 0.0
N201 N 0.60676 0.43218 0.97604 0.0
C202 C 0.59529 0.44631 0.98707 0.0
H203 H 0.6001 0.40575 0.94785 0.0
Co204 Co 0.63262 0.43051 0.97941 0.0
C205 C 0.64139 0.44313 0.06369 0.0
O206 O 0.65197 0.4282 0.06768 0.0
N207 N 0.65907 0.4293 0.98122 0.0
C208 C 0.68854 0.43923 0.98712 0.0
C209 C 0.67012 0.44359 0.99375 0.0
C210 C 0.67126 0.41686 0.96479 0.0
N211 N 0.68922 0.42243 0.96879 0.0
O212 O 0.63477 0.45218 0.94543 0.0
H213 H 0.66511 0.45686 0.00526 0.0
H214 H 0.66727 0.4044 0.94835 0.0
O215 O 0.63259 0.446 0.02986 0.0
C216 C 0.63445 0.4471 0.90785 0.0
O217 O 0.63296 0.42915 0.89973 0.0
N218 N 0.6297 0.40808 0.00961 0.0
C219 C 0.61916 0.37306 0.04034 0.0
C220 C 0.61419 0.38952 0.06108 0.0
C221 C 0.61922 0.40687 0.04474 0.0
C222 C 0.6341 0.39221 0.98851 0.0
C223 C 0.62941 0.37459 0.00375 0.0
H224 H 0.61356 0.41927 0.05899 0.0
H225 H 0.63983 0.39315 0.95797 0.0
H226 H 0.60032 0.45934 0.99982 0.0
H227 H 0.56515 0.41727 0.9523 0.0
H228 H 0.70045 0.4482 0.993 0.0
H229 H 0.60553 0.38908 0.08839 0.0
H230 H 0.63319 0.36231 0.9861 0.0
C231 C 0.58347 0.10033 0.20744 0.0
C232 C 0.57516 0.08309 0.2111 0.0
N233 N 0.55861 0.08532 0.2303 0.0
N234 N 0.57229 0.11334 0.22453 0.0
C235 C 0.55716 0.10384 0.23791 0.0
H236 H 0.59681 0.10325 0.19315 0.0
Co237 Co 0.57801 0.13854 0.22678 0.0
C238 C 0.56275 0.15102 0.30792 0.0
O239 O 0.57815 0.16044 0.31479 0.0
N240 N 0.58426 0.16464 0.22769 0.0
C241 C 0.59826 0.19203 0.23985 0.0
C242 C 0.59805 0.17338 0.24903 0.0
C243 C 0.57654 0.17863 0.20507 0.0
N244 N 0.58477 0.19534 0.2121 0.0
O245 O 0.55779 0.14324 0.18925 0.0
H246 H 0.60743 0.16692 0.27083 0.0
H247 H 0.56513 0.1768 0.18364 0.0
O248 O 0.56092 0.14179 0.27435 0.0
C249 C 0.56289 0.14097 0.15197 0.0
O250 O 0.58053 0.137 0.14473 0.0
N251 N 0.59857 0.13253 0.26019 0.0
C252 C 0.63139 0.1224 0.30078 0.0
C253 C 0.61389 0.11927 0.31905 0.0
C254 C 0.59758 0.12411 0.29786 0.0
C255 C 0.61536 0.1343 0.24073 0.0
C256 C 0.63198 0.12973 0.26079 0.0
H257 H 0.58422 0.12076 0.31146 0.0
H258 H 0.61581 0.13969 0.20964 0.0
H259 H 0.54539 0.11033 0.25317 0.0
H260 H 0.58071 0.06999 0.19975 0.0
H261 H 0.60796 0.20231 0.25183 0.0
H262 H 0.61279 0.11318 0.34947 0.0
H263 H 0.64515 0.13169 0.24491 0.0
C264 C 0.5907 0.58959 0.4707 0.0
C265 C 0.57407 0.58051 0.47762 0.0
N266 N 0.57783 0.56393 0.49552 0.0
N267 N 0.60488 0.57888 0.4845 0.0
C268 C 0.59665 0.56324 0.49911 0.0
H269 H 0.5924 0.60313 0.45639 0.0
Co270 Co 0.62988 0.58556 0.48194 0.0
C271 C 0.64598 0.57133 0.56057 0.0
O272 O 0.65565 0.58678 0.56494 0.0
N273 N 0.65573 0.59266 0.47801 0.0
C274 C 0.68269 0.60822 0.48339 0.0
C275 C 0.66444 0.60747 0.49571 0.0
C276 C 0.66943 0.58461 0.45501 0.0
N277 N 0.68585 0.59393 0.45755 0.0
O278 O 0.63401 0.56521 0.44496 0.0
H279 H 0.65839 0.61704 0.51761 0.0
H280 H 0.66747 0.57236 0.43605 0.0
O281 O 0.6354 0.5692 0.52914 0.0
C282 C 0.62998 0.56971 0.40805 0.0
O283 O 0.62466 0.58698 0.40067 0.0
N284 N 0.62436 0.60622 0.51537 0.0
C285 C 0.61518 0.63911 0.55647 0.0
C286 C 0.61339 0.62175 0.57617 0.0
C287 C 0.61777 0.60538 0.55478 0.0
C288 C 0.62452 0.62282 0.49472 0.0
C289 C 0.62047 0.6395 0.51498 0.0
H290 H 0.61556 0.59209 0.56976 0.0
H291 H 0.62842 0.62309 0.46257 0.0
H292 H 0.60427 0.55162 0.5123 0.0
H293 H 0.5603 0.58554 0.46927 0.0
H294 H 0.69297 0.61837 0.49338 0.0
H295 H 0.60881 0.62085 0.60787 0.0
H296 H 0.62133 0.65258 0.49826 0.0
C297 C 0.42133 0.09622 0.69188 0.0
C298 C 0.4314 0.0799 0.69042 0.0
N299 N 0.4463 0.08173 0.71542 0.0
N300 N 0.4299 0.10834 0.71745 0.0
C301 C 0.44509 0.09909 0.73161 0.0
H302 H 0.40865 0.09921 0.67494 0.0
Co303 Co 0.42132 0.13259 0.7248 0.0
C304 C 0.43429 0.14222 0.80991 0.0
O305 O 0.41745 0.14809 0.81905 0.0
N306 N 0.41198 0.15772 0.73057 0.0
C307 C 0.39348 0.18194 0.74588 0.0
C308 C 0.39761 0.1637 0.75446 0.0
C309 C 0.41626 0.17306 0.70765 0.0
N310 N 0.40509 0.18783 0.7162 0.0
O311 O 0.44117 0.1411 0.68972 0.0
H312 H 0.38994 0.15535 0.77635 0.0
H313 H 0.42671 0.17329 0.68365 0.0
O314 O 0.43763 0.13569 0.77391 0.0
C315 C 0.43632 0.13891 0.65221 0.0
O316 O 0.41896 0.13398 0.64449 0.0
N317 N 0.40125 0.12278 0.75505 0.0
C318 C 0.36921 0.10665 0.789 0.0
C319 C 0.38679 0.10421 0.80769 0.0
C320 C 0.40272 0.11211 0.78976 0.0
C321 C 0.38456 0.12415 0.73498 0.0
C322 C 0.36832 0.11665 0.7519 0.0
H323 H 0.41624 0.10931 0.80327 0.0
H324 H 0.38384 0.13152 0.70595 0.0
H325 H 0.45533 0.10508 0.75233 0.0
H326 H 0.42803 0.0676 0.67244 0.0
H327 H 0.38247 0.19015 0.75985 0.0
H328 H 0.38829 0.09594 0.8354 0.0
H329 H 0.35516 0.11892 0.73614 0.0
C330 C 0.90634 0.9048 0.96312 0.0
C331 C 0.92414 0.91131 0.95579 0.0
N332 N 0.92559 0.92864 0.97186 0.0
N333 N 0.89672 0.91786 0.98419 0.0
C334 C 0.90874 0.93225 0.98884 0.0
H335 H 0.90059 0.89159 0.95296 0.0
Co336 Co 0.87156 0.91694 0.99782 0.0
C337 C 0.87221 0.92831 0.08555 0.0
O338 O 0.86304 0.91287 0.09415 0.0
N339 N 0.84554 0.91658 0.00933 0.0
C340 C 0.81694 0.92544 0.02858 0.0
C341 C 0.83574 0.92839 0.03371 0.0
C342 C 0.83211 0.90745 0.98773 0.0
N343 N 0.81463 0.91227 0.99955 0.0
O344 O 0.86771 0.9389 0.96534 0.0
H345 H 0.84156 0.93963 0.0518 0.0
H346 H 0.83504 0.89817 0.96228 0.0
O347 O 0.87631 0.93217 0.04803 0.0
C348 C 0.86521 0.9342 0.9279 0.0
O349 O 0.86439 0.91627 0.91907 0.0
N350 N 0.876 0.89416 0.02674 0.0
C351 C 0.88536 0.85923 0.05984 0.0
C352 C 0.89572 0.87519 0.07006 0.0
C353 C 0.89098 0.89243 0.0528 0.0
C354 C 0.86625 0.87858 0.01541 0.0
C355 C 0.87044 0.86109 0.03214 0.0
H356 H 0.89965 0.9044 0.05988 0.0
H357 H 0.85573 0.87933 0.99188 0.0
H358 H 0.90503 0.94526 0.00378 0.0
H359 H 0.93492 0.90412 0.9386 0.0
H360 H 0.80581 0.93335 0.04297 0.0
H361 H 0.90747 0.87437 0.09104 0.0
H362 H 0.86251 0.849 0.0222 0.0
C363 C 0.09545 0.39748 0.21332 0.0
C364 C 0.09024 0.41602 0.21451 0.0
N365 N 0.07326 0.41718 0.23242 0.0
N366 N 0.08189 0.38708 0.23076 0.0
C367 C 0.06856 0.3994 0.24185 0.0
H368 H 0.10815 0.39188 0.20012 0.0
Co369 Co 0.08105 0.36124 0.2351 0.0
C370 C 0.06877 0.35597 0.32129 0.0
O371 O 0.08286 0.34438 0.32639 0.0
N372 N 0.07953 0.33487 0.23743 0.0
C373 C 0.06772 0.30625 0.24559 0.0
C374 C 0.0659 0.32474 0.25581 0.0
C375 C 0.08864 0.32217 0.21383 0.0
N376 N 0.08203 0.30462 0.21912 0.0
O377 O 0.05907 0.36117 0.20151 0.0
H378 H 0.05436 0.33041 0.27322 0.0
H379 H 0.09916 0.32578 0.19136 0.0
O380 O 0.0659 0.36345 0.28597 0.0
C381 C 0.06367 0.36208 0.16369 0.0
O382 O 0.08157 0.36217 0.15445 0.0
N383 N 0.10383 0.36201 0.2656 0.0
C384 C 0.13911 0.36789 0.3009 0.0
C385 C 0.1233 0.37715 0.31608 0.0
C386 C 0.10593 0.37431 0.29759 0.0
C387 C 0.11918 0.35315 0.25005 0.0
C388 C 0.13687 0.35559 0.26769 0.0
H389 H 0.09427 0.38264 0.30813 0.0
H390 H 0.11815 0.34506 0.22231 0.0
H391 H 0.05557 0.39534 0.25634 0.0
H392 H 0.0981 0.42763 0.20199 0.0
H393 H 0.05843 0.29505 0.25478 0.0
H394 H 0.12438 0.38692 0.34145 0.0
H395 H 0.14882 0.34869 0.25398 0.0
C396 C 0.40928 0.5963 0.98615 0.0
C397 C 0.42651 0.58784 0.98844 0.0
N398 N 0.42397 0.57001 1.00049 0.0
N399 N 0.39598 0.58393 0.99734 0.0
C400 C 0.40534 0.56795 0.00548 0.0
H401 H 0.40659 0.61053 0.97658 0.0
Co402 Co 0.37041 0.5885 0.99867 0.0
C403 C 0.35933 0.574 0.08138 0.0
O404 O 0.35003 0.58947 0.08846 0.0
N405 N 0.34394 0.59324 0.99886 0.0
C406 C 0.31564 0.60536 0.01055 0.0
C407 C 0.33426 0.6064 0.02003 0.0
C408 C 0.33051 0.58455 0.97619 0.0
N409 N 0.31323 0.59161 0.98292 0.0
O410 O 0.36683 0.56758 0.96242 0.0
H411 H 0.34008 0.61626 0.04168 0.0
H412 H 0.33319 0.5732 0.95506 0.0
O413 O 0.36796 0.5719 0.04717 0.0
C414 C 0.37039 0.57205 0.92522 0.0
O415 O 0.37495 0.58949 0.91732 0.0
N416 N 0.37523 0.60993 0.03075 0.0
C417 C 0.38581 0.6439 0.06655 0.0
C418 C 0.38976 0.62683 0.08612 0.0
C419 C 0.38463 0.60997 0.06738 0.0
C420 C 0.37211 0.62631 0.0104 0.0
C421 C 0.37686 0.64343 0.02811 0.0
H422 H 0.38892 0.59699 0.08152 0.0
H423 H 0.3658 0.62603 0.98013 0.0
H424 H 0.39862 0.55506 0.01472 0.0
H425 H 0.43982 0.59413 0.98067 0.0
H426 H 0.30475 0.61439 0.02239 0.0
H427 H 0.39733 0.62643 0.11498 0.0
H428 H 0.37353 0.65616 0.01165 0.0
C429 C 0.40753 0.91466 0.2375 0.0
C430 C 0.4146 0.93249 0.23563 0.0
N431 N 0.43126 0.93271 0.25509 0.0
N432 N 0.41959 0.90369 0.25828 0.0
C433 C 0.434 0.915 0.26836 0.0
H434 H 0.39447 0.90989 0.22434 0.0
Co435 Co 0.41611 0.87831 0.26744 0.0
C436 C 0.42928 0.8759 0.35539 0.0
O437 O 0.41268 0.87038 0.36733 0.0
N438 N 0.41249 0.85202 0.27525 0.0
C439 C 0.40246 0.82406 0.29644 0.0
C440 C 0.4026 0.84286 0.30453 0.0
C441 C 0.41801 0.83815 0.24943 0.0
N442 N 0.41213 0.82105 0.26164 0.0
O443 O 0.43764 0.87353 0.23338 0.0
H444 H 0.39459 0.84927 0.32878 0.0
H445 H 0.42585 0.84047 0.22155 0.0
O446 O 0.43239 0.87938 0.31727 0.0
C447 C 0.4333 0.87522 0.19543 0.0
O448 O 0.41565 0.87817 0.18609 0.0
N449 N 0.39405 0.88409 0.29692 0.0
C450 C 0.35971 0.8945 0.33043 0.0
C451 C 0.37619 0.90338 0.34303 0.0
C452 C 0.39324 0.8981 0.32558 0.0
C453 C 0.37793 0.87629 0.28235 0.0
C454 C 0.36066 0.88086 0.29958 0.0
H455 H 0.4058 0.9054 0.33481 0.0
H456 H 0.37848 0.86642 0.25715 0.0
H457 H 0.44622 0.91033 0.28511 0.0
H458 H 0.40816 0.94426 0.22021 0.0
H459 H 0.3948 0.81359 0.31358 0.0
H460 H 0.3759 0.91426 0.36624 0.0
H461 H 0.3481 0.87413 0.2882 0.0
C462 C 0.08398 0.91634 0.43706 0.0
C463 C 0.0683 0.92736 0.43495 0.0
N464 N 0.07009 0.9412 0.46277 0.0
N465 N 0.09559 0.92321 0.46598 0.0
C466 C 0.08676 0.93837 0.48135 0.0
H467 H 0.08704 0.90436 0.41791 0.0
Co468 Co 0.11916 0.91352 0.47351 0.0
C469 C 0.13259 0.92617 0.55497 0.0
O470 O 0.14005 0.90953 0.55983 0.0
N471 N 0.14358 0.90336 0.47896 0.0
C472 C 0.1683 0.88448 0.48185 0.0
C473 C 0.14918 0.88537 0.48246 0.0
C474 C 0.15982 0.91309 0.47623 0.0
N475 N 0.17508 0.90193 0.4778 0.0
O476 O 0.12859 0.93236 0.43698 0.0
H477 H 0.14031 0.87326 0.48416 0.0
H478 H 0.1604 0.92811 0.47259 0.0
O479 O 0.12363 0.92993 0.52175 0.0
C480 C 0.13054 0.92666 0.40005 0.0
O481 O 0.12788 0.90882 0.39229 0.0
N482 N 0.10847 0.89446 0.50599 0.0
C483 C 0.09303 0.86351 0.54585 0.0
C484 C 0.09361 0.88104 0.56529 0.0
C485 C 0.10095 0.89648 0.5444 0.0
C486 C 0.10574 0.87822 0.48492 0.0
C487 C 0.0986 0.86241 0.50453 0.0
H488 H 0.10035 0.90996 0.55918 0.0
H489 H 0.11005 0.87729 0.45307 0.0
H490 H 0.09272 0.94761 0.50426 0.0
H491 H 0.05658 0.92549 0.41426 0.0
H492 H 0.17649 0.87177 0.48229 0.0
H493 H 0.08841 0.88286 0.59632 0.0
H494 H 0.09814 0.84933 0.48776 0.0
C495 C 0.08294 0.59081 0.70691 0.0
C496 C 0.07316 0.57442 0.70249 0.0
N497 N 0.05699 0.576 0.72341 0.0
N498 N 0.07301 0.60267 0.73055 0.0
C499 C 0.05723 0.59325 0.74031 0.0
H500 H 0.09616 0.59419 0.69256 0.0
Co501 Co 0.07969 0.62739 0.73832 0.0
C502 C 0.06719 0.6363 0.82344 0.0
O503 O 0.08366 0.64364 0.83079 0.0
N504 N 0.08672 0.65315 0.74472 0.0
C505 C 0.10186 0.67961 0.75988 0.0
C506 C 0.1016 0.66059 0.76481 0.0
C507 C 0.07823 0.6683 0.72777 0.0
N508 N 0.08719 0.68448 0.7364 0.0
O509 O 0.0589 0.63433 0.70413 0.0
H510 H 0.11176 0.65295 0.78268 0.0
H511 H 0.0657 0.66766 0.70928 0.0
O512 O 0.06376 0.62902 0.78817 0.0
C513 C 0.06379 0.63421 0.66636 0.0
O514 O 0.08152 0.63135 0.65772 0.0
N515 N 0.10089 0.61914 0.76749 0.0
C516 C 0.13454 0.60508 0.79856 0.0
C517 C 0.11757 0.60185 0.81919 0.0
C518 C 0.1008 0.60865 0.80262 0.0
C519 C 0.11704 0.62131 0.74573 0.0
C520 C 0.13404 0.61479 0.76108 0.0
H521 H 0.08778 0.6051 0.81751 0.0
H522 H 0.1167 0.62849 0.71643 0.0
H523 H 0.04573 0.59925 0.75748 0.0
H524 H 0.07744 0.56237 0.68462 0.0
H525 H 0.11241 0.68905 0.77172 0.0
H526 H 0.11717 0.59375 0.84733 0.0
H527 H 0.14669 0.61756 0.74383 0.0
H528 H 0.92509 0.96659 0.97178 0.0
H529 H 0.95195 0.98753 0.96642 0.0
H530 H 0.9889 0.93998 0.95908 0.0
H531 H 0.96212 0.91892 0.96569 0.0
H532 H 0.00241 0.9663 0.01071 0.0
H533 H 0.97787 0.96461 0.87334 0.0
H534 H 0.95335 0.96711 0.82022 0.0
H535 H 0.94453 0.0247 0.8521 0.0
H536 H 0.96887 0.02249 0.90579 0.0
H537 H 0.08281 0.01667 0.94727 0.0
H538 H 0.05654 0.99475 0.94831 0.0
H539 H 0.01788 0.04099 0.9541 0.0
H540 H 0.04409 0.06295 0.95291 0.0
H541 H 0.00561 0.01472 0.90158 0.0
H542 H 0.02919 0.01622 0.04023 0.0
H543 H 0.05349 0.01385 0.09388 0.0
H544 H 0.06375 0.95672 0.06005 0.0
H545 H 0.03968 0.95884 0.00577 0.0
C546 C 0.93893 0.96056 0.9695 0.0
C547 C 0.94144 0.94105 0.96915 0.0
C548 C 0.95426 0.97256 0.96597 0.0
C549 C 0.97241 0.96531 0.96181 0.0
C550 C 0.97501 0.94587 0.96205 0.0
C551 C 0.95967 0.93385 0.96553 0.0
C552 C 0.9887 0.97803 0.95761 0.0
C553 C 0.00325 0.9767 0.98648 0.0
C554 C 0.98957 0.99186 0.92651 0.0
C555 C 0.97509 0.99333 0.89386 0.0
C556 C 0.97063 0.97778 0.86921 0.0
C557 C 0.95678 0.97915 0.83896 0.0
C558 C 0.94736 0.99604 0.83284 0.0
C559 C 0.95184 0.01162 0.85687 0.0
C560 C 0.96568 0.01032 0.88719 0.0
C561 C 0.06872 0.02215 0.94907 0.0
C562 C 0.06552 0.04154 0.95043 0.0
C563 C 0.05372 0.00962 0.9495 0.0
C564 C 0.03525 0.01623 0.95182 0.0
C565 C 0.03201 0.03558 0.95227 0.0
C566 C 0.04699 0.04811 0.95158 0.0
C567 C 0.0193 0.00301 0.95475 0.0
C568 C 0.0048 0.00426 0.92569 0.0
C569 C 0.01843 0.98912 0.98573 0.0
C570 C 0.03276 0.98774 0.01868 0.0
C571 C 0.03672 0.00319 0.04405 0.0
C572 C 0.05044 0.00189 0.0746 0.0
C573 C 0.0602 0.98516 0.0803 0.0
C574 C 0.0562 0.96968 0.05556 0.0
C575 C 0.04251 0.97091 0.02492 0.0
H576 H 0.07083 0.98418 0.10395 0.0
H577 H 0.93662 0.99705 0.80946 0.0
H578 H 0.94157 0.53248 0.24126 0.0
H579 H 0.9657 0.50872 0.25046 0.0
H580 H 0.00813 0.55162 0.25086 0.0
H581 H 0.98394 0.57552 0.24089 0.0
H582 H 0.01661 0.52311 0.19873 0.0
H583 H 0.99767 0.52915 0.3382 0.0
H584 H 0.97596 0.53071 0.39697 0.0
H585 H 0.95789 0.4745 0.37279 0.0
H586 H 0.97923 0.47271 0.31339 0.0
H587 H 0.08547 0.45303 0.23896 0.0
H588 H 0.06624 0.48109 0.24676 0.0
H589 H 0.01646 0.44701 0.24764 0.0
H590 H 0.03546 0.41902 0.23936 0.0
H591 H 0.01504 0.47387 0.3062 0.0
H592 H 0.02991 0.46984 0.16134 0.0
H593 H 0.05103 0.46796 0.10151 0.0
H594 H 0.07622 0.52021 0.13581 0.0
H595 H 0.0554 0.52226 0.1962 0.0
C596 C 0.95602 0.53687 0.24335 0.0
C597 C 0.96087 0.55586 0.24011 0.0
C598 C 0.96979 0.52329 0.24907 0.0
C599 C 0.9887 0.52842 0.25174 0.0
C600 C 0.9936 0.54739 0.2491 0.0
C601 C 0.97978 0.56102 0.24363 0.0
C602 C 0.00329 0.51375 0.25449 0.0
C603 C 0.01654 0.51259 0.22277 0.0
C604 C 0.00293 0.49982 0.28541 0.0
C605 C 0.98996 0.50087 0.32103 0.0
C606 C 0.98893 0.51718 0.34512 0.0
C607 C 0.97671 0.5181 0.37861 0.0
C608 C 0.96552 0.50273 0.38854 0.0
C609 C 0.96655 0.48641 0.36503 0.0
C610 C 0.97872 0.48543 0.33145 0.0
C611 C 0.07044 0.4515 0.24059 0.0
C612 C 0.06205 0.43373 0.23836 0.0
C613 C 0.05947 0.46755 0.24522 0.0
C614 C 0.03992 0.46613 0.24748 0.0
C615 C 0.03154 0.44841 0.24615 0.0
C616 C 0.04247 0.43239 0.2415 0.0
C617 C 0.02801 0.48305 0.24996 0.0
C618 C 0.01528 0.48461 0.28262 0.0
C619 C 0.02876 0.49731 0.21982 0.0
C620 C 0.04127 0.49608 0.18355 0.0
C621 C 0.04007 0.48084 0.15632 0.0
C622 C 0.05196 0.47976 0.12227 0.0
C623 C 0.065 0.49393 0.11494 0.0
C624 C 0.06614 0.50923 0.14159 0.0
C625 C 0.0543 0.51036 0.17572 0.0
H626 H 0.07419 0.49307 0.08855 0.0
H627 H 0.95608 0.50346 0.41451 0.0
H628 H 0.58299 0.52636 0.49598 0.0
H629 H 0.55923 0.50245 0.50966 0.0
H630 H 0.51857 0.54563 0.5338 0.0
H631 H 0.54229 0.56952 0.52082 0.0
H632 H 0.51575 0.51569 0.58819 0.0
H633 H 0.52047 0.52638 0.44101 0.0
H634 H 0.53739 0.52794 0.37499 0.0
H635 H 0.55294 0.47019 0.38691 0.0
H636 H 0.53631 0.46838 0.45334 0.0
H637 H 0.42756 0.47567 0.53378 0.0
H638 H 0.45587 0.49389 0.54517 0.0
H639 H 0.48956 0.44548 0.51794 0.0
H640 H 0.46142 0.42692 0.50767 0.0
H641 H 0.49865 0.47508 0.47027 0.0
H642 H 0.48939 0.46265 0.61119 0.0
H643 H 0.47464 0.46069 0.67949 0.0
H644 H 0.46903 0.52043 0.68285 0.0
H645 H 0.48318 0.52276 0.61392 0.0
C646 C 0.56908 0.53073 0.5049 0.0
C647 C 0.56443 0.54981 0.50686 0.0
C648 C 0.55551 0.51708 0.51252 0.0
C649 C 0.53711 0.5223 0.52233 0.0
C650 C 0.53268 0.54131 0.5262 0.0
C651 C 0.54619 0.55494 0.51836 0.0
C652 C 0.52207 0.50812 0.5257 0.0
C653 C 0.51182 0.50688 0.56241 0.0
C654 C 0.51747 0.49625 0.4924 0.0
C655 C 0.52734 0.49731 0.45234 0.0
C656 C 0.52762 0.51406 0.4297 0.0
C657 C 0.53714 0.51498 0.39219 0.0
C658 C 0.54628 0.49919 0.37683 0.0
C659 C 0.54588 0.48243 0.39889 0.0
C660 C 0.53641 0.48144 0.43646 0.0
C661 C 0.44089 0.46868 0.53101 0.0
C662 C 0.44202 0.44978 0.5189 0.0
C663 C 0.45713 0.47918 0.53766 0.0
C664 C 0.47482 0.47105 0.53227 0.0
C665 C 0.47604 0.45205 0.52203 0.0
C666 C 0.45985 0.4415 0.51576 0.0
C667 C 0.4919 0.48282 0.53266 0.0
C668 C 0.50256 0.48368 0.49643 0.0
C669 C 0.49685 0.49426 0.56655 0.0
C670 C 0.48723 0.49286 0.607 0.0
C671 C 0.48471 0.47537 0.62606 0.0
C672 C 0.47653 0.47419 0.66504 0.0
C673 C 0.47099 0.49043 0.68559 0.0
C674 C 0.47344 0.50787 0.667 0.0
C675 C 0.48146 0.50911 0.62787 0.0
H676 H 0.4647 0.48949 0.7158 0.0
H677 H 0.55364 0.49993 0.34778 0.0
H678 H 0.54898 0.93971 0.81357 0.0
H679 H 0.52996 0.96823 0.81259 0.0
H680 H 0.54058 0.97428 0.68245 0.0
H681 H 0.5603 0.94631 0.6841 0.0
H682 H 0.54256 0.00664 0.71508 0.0
H683 H 0.49793 0.95701 0.72317 0.0
H684 H 0.48339 0.92847 0.75121 0.0
H685 H 0.47314 0.95664 0.86574 0.0
H686 H 0.48784 0.9853 0.83845 0.0
H687 H 0.4619 0.05959 0.65806 0.0
H688 H 0.48457 0.03444 0.66943 0.0
H689 H 0.48526 0.04702 0.79921 0.0
H690 H 0.46273 0.07259 0.78768 0.0
H691 H 0.47829 0.00686 0.77259 0.0
H692 H 0.52138 0.05828 0.75572 0.0
H693 H 0.53398 0.08598 0.72007 0.0
H694 H 0.54469 0.05285 0.61241 0.0
H695 H 0.53188 0.025 0.64723 0.0
C696 C 0.54723 0.94722 0.7849 0.0
C697 C 0.5561 0.94094 0.74897 0.0
C698 C 0.53631 0.96344 0.78424 0.0
C699 C 0.53359 0.97334 0.74731 0.0
C700 C 0.54252 0.96701 0.71139 0.0
C701 C 0.55377 0.95104 0.71229 0.0
C702 C 0.52147 0.99025 0.74592 0.0
C703 C 0.52847 0.00658 0.72743 0.0
C704 C 0.50312 0.99038 0.76246 0.0
C705 C 0.49417 0.97322 0.77892 0.0
C706 C 0.49269 0.95707 0.75442 0.0
C707 C 0.4844 0.94088 0.77016 0.0
C708 C 0.4774 0.94072 0.81029 0.0
C709 C 0.47861 0.95677 0.83469 0.0
C710 C 0.4869 0.973 0.81909 0.0
C711 C 0.46701 0.05705 0.68894 0.0
C712 C 0.4606 0.06793 0.72204 0.0
C713 C 0.47996 0.04276 0.69537 0.0
C714 C 0.48653 0.03891 0.73512 0.0
C715 C 0.48031 0.04984 0.76831 0.0
C716 C 0.4676 0.06444 0.76172 0.0
C717 C 0.49942 0.023 0.74168 0.0
C718 C 0.4925 0.00688 0.76088 0.0
C719 C 0.51762 0.0229 0.72482 0.0
C720 C 0.52553 0.03959 0.704 0.0
C721 C 0.52628 0.05693 0.72434 0.0
C722 C 0.53349 0.07265 0.7043 0.0
C723 C 0.5401 0.07118 0.66397 0.0
C724 C 0.53956 0.05397 0.64364 0.0
C725 C 0.53235 0.03821 0.66354 0.0
H726 H 0.54566 0.08337 0.6485 0.0
H727 H 0.47099 0.92817 0.82245 0.0
H728 H 0.05016 0.95905 0.40459 0.0
H729 H 0.02676 0.98351 0.41515 0.0
H730 H 0.0371 0.98184 0.5459 0.0
H731 H 0.06088 0.9574 0.5352 0.0
H732 H 0.99837 0.979 0.52189 0.0
H733 H 0.05144 0.01775 0.49943 0.0
H734 H 0.07978 0.02927 0.46456 0.0
H735 H 0.04742 0.04255 0.35711 0.0
H736 H 0.01896 0.03062 0.39086 0.0
H737 H 0.93234 0.05233 0.54637 0.0
H738 H 0.96129 0.03413 0.55162 0.0
H739 H 0.96795 0.03717 0.4197 0.0
H740 H 0.93951 0.05614 0.41491 0.0
H741 H 0.00043 0.04126 0.45469 0.0
H742 H 0.94925 0.99727 0.47124 0.0
H743 H 0.92032 0.98596 0.50426 0.0
H744 H 0.94872 0.98269 0.62055 0.0
H745 H 0.9778 0.99409 0.58818 0.0
C746 C 0.04751 0.964 0.43552 0.0
C747 C 0.05722 0.95635 0.46912 0.0
C748 C 0.03424 0.978 0.4415 0.0
C749 C 0.03028 0.98448 0.48128 0.0
C750 C 0.04005 0.97702 0.51497 0.0
C751 C 0.05363 0.96319 0.50886 0.0
C752 C 0.01521 0.99838 0.48727 0.0
C753 C 0.99894 0.99278 0.50796 0.0
C754 C 0.01589 0.01617 0.46832 0.0
C755 C 0.03305 0.02313 0.44763 0.0
C756 C 0.05038 0.0229 0.46818 0.0
C757 C 0.06648 0.02954 0.44862 0.0
C758 C 0.0654 0.03662 0.40864 0.0
C759 C 0.04823 0.03707 0.38811 0.0
C760 C 0.03212 0.03033 0.40741 0.0
C761 C 0.94012 0.04915 0.51866 0.0
C762 C 0.9338 0.05553 0.48026 0.0
C763 C 0.95658 0.03872 0.5216 0.0
C764 C 0.96666 0.03399 0.48597 0.0
C765 C 0.96047 0.04068 0.44764 0.0
C766 C 0.94425 0.05147 0.44485 0.0
C767 C 0.98336 0.02169 0.48822 0.0
C768 C -6e-05 0.02759 0.46909 0.0
C769 C 0.98291 0.00409 0.50819 0.0
C770 C 0.96563 0.99666 0.52738 0.0
C771 C 0.9493 0.99416 0.50385 0.0
C772 C 0.93288 0.98774 0.52245 0.0
C773 C 0.93267 0.98365 0.5645 0.0
C774 C 0.94891 0.98586 0.58799 0.0
C775 C 0.96537 0.99226 0.56952 0.0
H776 H 0.91993 0.97874 0.57889 0.0
H777 H 0.07787 0.04177 0.39355 0.0
H778 H 0.93591 0.44745 0.66549 0.0
H779 H 0.95606 0.47518 0.66866 0.0
H780 H 0.97088 0.46165 0.79376 0.0
H781 H 0.95102 0.43359 0.79042 0.0
H782 H 0.9576 0.50477 0.75877 0.0
H783 H 0.00259 0.45182 0.755 0.0
H784 H 0.01302 0.42203 0.72434 0.0
H785 H 0.01574 0.44796 0.60531 0.0
H786 H 0.00502 0.47783 0.63526 0.0
H787 H 0.03491 0.56725 0.78823 0.0
H788 H 0.01152 0.54213 0.79108 0.0
H789 H 0.02183 0.52968 0.66302 0.0
H790 H 0.04559 0.55415 0.66085 0.0
H791 H 0.02164 0.4991 0.70147 0.0
H792 H 0.98163 0.5521 0.70088 0.0
H793 H 0.96795 0.58214 0.72253 0.0
H794 H 0.95157 0.55778 0.83778 0.0
H795 H 0.96595 0.52788 0.81761 0.0
C796 C 0.94329 0.45053 0.69379 0.0
C797 C 0.94196 0.43843 0.72773 0.0
C798 C 0.95479 0.4663 0.69552 0.0
C799 C 0.96486 0.47036 0.73143 0.0
C800 C 0.96314 0.45867 0.76583 0.0
C801 C 0.95193 0.44267 0.76383 0.0
C802 C 0.97794 0.48632 0.73204 0.0
C803 C 0.97175 0.5036 0.74702 0.0
C804 C 0.996 0.48477 0.71502 0.0
C805 C 0.00282 0.46696 0.69726 0.0
C806 C 0.00525 0.4511 0.72224 0.0
C807 C 0.01125 0.43422 0.70501 0.0
C808 C 0.01498 0.43308 0.66287 0.0
C809 C 0.01281 0.44885 0.63792 0.0
C810 C 0.00679 0.46576 0.65501 0.0
C811 C 0.03198 0.55921 0.76073 0.0
C812 C 0.04213 0.56246 0.72444 0.0
C813 C 0.0186 0.54491 0.76227 0.0
C814 C 0.01485 0.53396 0.72722 0.0
C815 C 0.02459 0.53772 0.69063 0.0
C816 C 0.03814 0.55172 0.68934 0.0
C817 C 0.00156 0.51795 0.72885 0.0
C818 C 0.00763 0.50052 0.71388 0.0
C819 C 0.98321 0.51957 0.74509 0.0
C820 C 0.97517 0.5378 0.75795 0.0
C821 C 0.97547 0.55325 0.73117 0.0
C822 C 0.96758 0.57028 0.74321 0.0
C823 C 0.95905 0.57194 0.78169 0.0
C824 C 0.95837 0.55657 0.80818 0.0
C825 C 0.96647 0.5396 0.79653 0.0
H826 H 0.95285 0.5851 0.7909 0.0
H827 H 0.0196 0.41999 0.64958 0.0
H828 H 0.57503 0.47409 0.02608 0.0
H829 H 0.5481 0.49464 0.03411 0.0
H830 H 0.51514 0.45797 0.95763 0.0
H831 H 0.54209 0.43802 0.94721 0.0
H832 H 0.50937 0.49163 0.93491 0.0
H833 H 0.51111 0.4607 0.06417 0.0
H834 H 0.52369 0.4496 0.13039 0.0
H835 H 0.53041 0.5063 0.17122 0.0
H836 H 0.51848 0.5178 0.10469 0.0
H837 H 0.42125 0.5334 0.98059 0.0
H838 H 0.44654 0.51018 0.98207 0.0
H839 H 0.48419 0.55173 0.0311 0.0
H840 H 0.45899 0.57498 0.02933 0.0
H841 H 0.4864 0.51493 0.06948 0.0
H842 H 0.48663 0.54469 0.93528 0.0
H843 H 0.47208 0.55462 0.87001 0.0
H844 H 0.45907 0.49748 0.8411 0.0
H845 H 0.47329 0.48725 0.90657 0.0
C846 C 0.56215 0.47038 0.01062 0.0
C847 C 0.56097 0.45426 0.98578 0.0
C848 C 0.54664 0.48208 0.01579 0.0
C849 C 0.52949 0.47776 0.99692 0.0
C850 C 0.5282 0.46161 0.97259 0.0
C851 C 0.54371 0.45006 0.96696 0.0
C852 C 0.5131 0.49044 1.00076 0.0
C853 C 0.50424 0.49645 0.96448 0.0
C854 C 0.50648 0.49702 0.03928 0.0
C855 C 0.51411 0.49013 0.07907 0.0
C856 C 0.51554 0.47083 0.08697 0.0
C857 C 0.52253 0.46446 0.12463 0.0
C858 C 0.52788 0.47723 0.15496 0.0
C859 C 0.52624 0.49641 0.1477 0.0
C860 C 0.51944 0.50287 0.10993 0.0
C861 C 0.43484 0.53745 0.99225 0.0
C862 C 0.43825 0.55597 0.00463 0.0
C863 C 0.44926 0.52425 0.99294 0.0
C864 C 0.46721 0.52932 0.00651 0.0
C865 C 0.47042 0.54758 0.02053 0.0
C866 C 0.4561 0.56084 0.01925 0.0
C867 C 0.48295 0.51594 0.00381 0.0
C868 C 0.49163 0.50991 0.04015 0.0
C869 C 0.48927 0.50909 0.9655 0.0
C870 C 0.48083 0.51523 0.92604 0.0
C871 C 0.48051 0.53426 0.91519 0.0
C872 C 0.47235 0.53994 0.87812 0.0
C873 C 0.4646 0.52669 0.85148 0.0
C874 C 0.46505 0.50773 0.86181 0.0
C875 C 0.47316 0.50198 0.89888 0.0
H876 H 0.4583 0.53111 0.82279 0.0
H877 H 0.53328 0.47227 0.1841 0.0
H878 H 0.42168 0.96933 0.25642 0.0
H879 H 0.44279 0.99612 0.25847 0.0
H880 H 0.49014 0.9589 0.2658 0.0
H881 H 0.46907 0.93196 0.26337 0.0
H882 H 0.49372 0.98921 0.31775 0.0
H883 H 0.47875 0.97784 0.17559 0.0
H884 H 0.45781 0.973 0.11622 0.0
H885 H 0.43371 0.02733 0.13505 0.0
H886 H 0.45434 0.03238 0.19495 0.0
H887 H 0.56592 0.04894 0.24625 0.0
H888 H 0.54318 0.024 0.25743 0.0
H889 H 0.49818 0.06392 0.24734 0.0
H890 H 0.52092 0.08893 0.23521 0.0
H891 H 0.49232 0.03326 0.19979 0.0
H892 H 0.50903 0.04551 0.33944 0.0
H893 H 0.5304 0.05034 0.39806 0.0
H894 H 0.55162 0.99455 0.38376 0.0
H895 H 0.53057 0.98948 0.32461 0.0
C896 C 0.43657 0.96681 0.25832 0.0
C897 C 0.44369 0.94847 0.25922 0.0
C898 C 0.44862 0.98215 0.25968 0.0
C899 C 0.46803 0.97949 0.26174 0.0
C900 C 0.47518 0.96125 0.26421 0.0
C901 C 0.46312 0.94586 0.26289 0.0
C902 C 0.48087 0.99572 0.25954 0.0
C903 C 0.49357 0.99875 0.29181 0.0
C904 C 0.48033 0.00839 0.2261 0.0
C905 C 0.46795 0.0054 0.19002 0.0
C906 C 0.46888 0.98869 0.16729 0.0
C907 C 0.45708 0.98592 0.1335 0.0
C908 C 0.4444 -0.00018 0.12194 0.0
C909 C 0.44352 0.01655 0.14408 0.0
C910 C 0.45527 0.01938 0.17794 0.0
C911 C 0.55119 0.05242 0.24639 0.0
C912 C 0.54521 0.0709 0.23961 0.0
C913 C 0.53822 0.03818 0.25322 0.0
C914 C 0.519 0.04213 0.25354 0.0
C915 C 0.51296 0.0606 0.24737 0.0
C916 C 0.52596 0.07489 0.24071 0.0
C917 C 0.50524 0.02677 0.25796 0.0
C918 C 0.49239 0.02384 0.22598 0.0
C919 C 0.50569 0.01421 0.29162 0.0
C920 C 0.51832 0.01717 0.32733 0.0
C921 C 0.51836 0.03432 0.34857 0.0
C922 C 0.5304 0.03709 0.38194 0.0
C923 C 0.54239 0.02277 0.39458 0.0
C924 C 0.54233 0.00563 0.37392 0.0
C925 C 0.53033 0.0028 0.34048 0.0
H926 H 0.5517 0.02495 0.42042 0.0
H927 H 0.43528 0.99766 0.09576 0.0
H928 H 0.12752 0.965 0.40028 0.0
H929 H 0.12795 0.98583 0.34034 0.0
H930 H 0.1396 0.9388 0.2613 0.0
H931 H 0.13944 0.91803 0.32085 0.0
H932 H 0.15937 0.96888 0.23764 0.0
H933 H 0.09556 0.9555 0.27347 0.0
H934 H 0.06793 0.95417 0.31879 0.0
H935 H 0.06935 0.01385 0.33242 0.0
H936 H 0.09729 0.01552 0.28835 0.0
H937 H 0.13581 0.01777 0.05143 0.0
H938 H 0.13471 0.99389 0.10603 0.0
H939 H 0.12352 0.03686 0.19588 0.0
H940 H 0.12448 0.06046 0.14217 0.0
H941 H 0.1025 0.00668 0.21055 0.0
H942 H 0.16738 0.02008 0.18192 0.0
H943 H 0.19541 0.02238 0.13802 0.0
H944 H 0.192 0.96365 0.11148 0.0
H945 H 0.16376 0.96107 0.1548 0.0
C946 C 0.13049 0.95916 0.37023 0.0
C947 C 0.13329 0.93983 0.36532 0.0
C948 C 0.13059 0.97105 0.33594 0.0
C949 C 0.13345 0.96382 0.29615 0.0
C950 C 0.13724 0.94469 0.29157 0.0
C951 C 0.13709 0.93282 0.32572 0.0
C952 C 0.13176 0.97596 0.25909 0.0
C953 C 0.14683 0.97695 0.23146 0.0
C954 C 0.11547 0.98665 0.25112 0.0
C955 C 0.09867 0.98561 0.27788 0.0
C956 C 0.09011 0.96833 0.28653 0.0
C957 C 0.07439 0.96752 0.31204 0.0
C958 C 0.06692 0.98392 0.32864 0.0
C959 C 0.07518 0.00115 0.3198 0.0
C960 C 0.09098 0.00204 0.29458 0.0
C961 C 0.13285 0.02202 0.08275 0.0
C962 C 0.13043 0.04102 0.09251 0.0
C963 C 0.13234 0.00841 0.11395 0.0
C964 C 0.12926 0.01361 0.15521 0.0
C965 C 0.12596 0.03246 0.16442 0.0
C966 C 0.12661 0.04598 0.13357 0.0
C967 C 0.13021 -0.00017 0.18951 0.0
C968 C 0.11497 0.99848 0.2166 0.0
C969 C 0.14637 0.98891 0.19712 0.0
C970 C 0.16333 0.99043 0.17115 0.0
C971 C 0.17251 0.00769 0.16643 0.0
C972 C 0.18845 0.00904 0.14171 0.0
C973 C 0.19544 0.99318 0.12186 0.0
C974 C 0.18654 0.97593 0.12679 0.0
C975 C 0.17057 0.97451 0.15142 0.0
H976 H 0.20779 0.99425 0.10275 0.0
H977 H 0.05468 0.98332 0.34817 0.0
H978 H 0.02525 0.63408 0.67024 0.0
H979 H 0.0033 0.63347 0.61206 0.0
H980 H 0.0496 0.63646 0.52726 0.0
H981 H 0.0714 0.63746 0.58475 0.0
H982 H 0.02221 0.65772 0.5004 0.0
H983 H 0.02791 0.59465 0.54847 0.0
H984 H 0.02732 0.56953 0.60039 0.0
H985 H 0.96919 0.58033 0.62347 0.0
H986 H 0.96948 0.60568 0.57183 0.0
H987 H 0.97314 0.62618 0.32024 0.0
H988 H 0.99559 0.62692 0.37774 0.0
H989 H 0.9499 0.6297 0.46406 0.0
H990 H 0.92762 0.62908 0.40746 0.0
H991 H 0.97729 0.60506 0.48933 0.0
H992 H 0.9725 0.66855 0.43938 0.0
H993 H 0.97414 0.69331 0.3867 0.0
H994 H 0.0321 0.68072 0.36592 0.0
H995 H 0.03072 0.65569 0.41812 0.0
C996 C 0.0307 0.63486 0.6392 0.0
C997 C 0.05008 0.63571 0.63219 0.0
C998 C 0.01816 0.63437 0.60594 0.0
C999 C 0.0248 0.63462 0.56515 0.0
C1000 C 0.0441 0.6362 0.55831 0.0
C1001 C 0.05657 0.63671 0.59136 0.0
C1002 C 0.01186 0.63268 0.52941 0.0
C1003 C 0.01255 0.64608 0.49782 0.0
C1004 C 0.99911 0.61758 0.52601 0.0
C1005 C 0.99876 0.60217 0.55656 0.0
C1006 C 0.01502 0.59174 0.56476 0.0
C1007 C 0.01474 0.57746 0.59412 0.0
C1008 C 0.99824 0.57338 0.61529 0.0
C1009 C 0.98196 0.58353 0.60704 0.0
C1010 C 0.98217 0.59783 0.57768 0.0
C1011 C 0.96793 0.62684 0.35149 0.0
C1012 C 0.9486 0.62775 0.35917 0.0
C1013 C 0.98074 0.6273 0.3843 0.0
C1014 C 0.97441 0.62849 0.42525 0.0
C1015 C 0.95513 0.62878 0.43283 0.0
C1016 C 0.9424 0.62854 0.40027 0.0
C1017 C 0.98767 0.63011 0.46042 0.0
C1018 C 0.98701 0.61665 0.49192 0.0
C1019 C 0.00058 0.64504 0.46355 0.0
C1020 C 0.00145 0.66012 0.4323 0.0
C1021 C 0.98555 0.67096 0.42332 0.0
C1022 C 0.98644 0.68506 0.3936 0.0
C1023 C 0.0032 0.68855 0.37288 0.0
C1024 C 0.01912 0.67798 0.38194 0.0
C1025 C 0.01829 0.66384 0.4116 0.0
H1026 H 0.00386 0.69947 0.34989 0.0
H1027 H 0.99807 0.56231 0.63796 0.0
H1028 H 0.37137 0.48106 0.5805 0.0
H1029 H 0.37266 0.50291 0.63856 0.0
H1030 H 0.35236 0.45967 0.71969 0.0
H1031 H 0.35022 0.43816 0.66161 0.0
H1032 H 0.33598 0.49149 0.73793 0.0
H1033 H 0.40033 0.47246 0.71331 0.0
H1034 H 0.42616 0.46785 0.664 0.0
H1035 H 0.427 0.52673 0.63851 0.0
H1036 H 0.401 0.53167 0.68727 0.0
H1037 H 0.36045 0.53482 0.92801 0.0
H1038 H 0.35933 0.5127 0.87023 0.0
H1039 H 0.37774 0.55618 0.7877 0.0
H1040 H 0.37909 0.57814 0.84486 0.0
H1041 H 0.39541 0.52421 0.77039 0.0
H1042 H 0.33221 0.54403 0.79266 0.0
H1043 H 0.30369 0.54959 0.8335 0.0
H1044 H 0.29931 0.49081 0.85863 0.0
H1045 H 0.32801 0.48493 0.81848 0.0
C1046 C 0.36722 0.47625 0.61074 0.0
C1047 C 0.36078 0.45788 0.61653 0.0
C1048 C 0.36799 0.48872 0.64396 0.0
C1049 C 0.3629 0.48288 0.6838 0.0
C1050 C 0.35635 0.46456 0.68939 0.0
C1051 C 0.35522 0.45224 0.65613 0.0
C1052 C 0.36469 0.49561 0.71991 0.0
C1053 C 0.34906 0.49841 0.74537 0.0
C1054 C 0.38162 0.50503 0.72917 0.0
C1055 C 0.39862 0.5024 0.70365 0.0
C1056 C 0.40611 0.48443 0.69738 0.0
C1057 C 0.42069 0.48175 0.66936 0.0
C1058 C 0.42801 0.49695 0.64773 0.0
C1059 C 0.42118 0.51496 0.65502 0.0
C1060 C 0.40656 0.51772 0.68294 0.0
C1061 C 0.36429 0.53962 0.89757 0.0
C1062 C 0.36974 0.55828 0.89108 0.0
C1063 C 0.36363 0.52699 0.86455 0.0
C1064 C 0.36834 0.53281 0.82449 0.0
C1065 C 0.3741 0.55133 0.81824 0.0
C1066 C 0.37474 0.56391 0.85106 0.0
C1067 C 0.36673 0.51991 0.7887 0.0
C1068 C 0.38239 0.51713 0.76324 0.0
C1069 C 0.34977 0.51061 0.77922 0.0
C1070 C 0.33237 0.51406 0.80294 0.0
C1071 C 0.32524 0.5323 0.80715 0.0
C1072 C 0.30904 0.53552 0.83014 0.0
C1073 C 0.29972 0.52057 0.84874 0.0
C1074 C 0.30656 0.50238 0.84426 0.0
C1075 C 0.32279 0.49909 0.82138 0.0
H1076 H 0.28718 0.52309 0.86654 0.0
H1077 H 0.43903 0.49479 0.62541 0.0
H1078 H 0.42728 0.88154 0.11416 0.0
H1079 H 0.44969 0.881 0.05813 0.0
H1080 H 0.4937 0.86658 0.14328 0.0
H1081 H 0.47114 0.86751 0.20043 0.0
H1082 H 0.5054 0.89266 0.08923 0.0
H1083 H 0.47468 0.83368 0.07899 0.0
H1084 H 0.44787 0.81203 0.07568 0.0
H1085 H 0.42925 0.83804 0.96384 0.0
H1086 H 0.45578 0.86006 0.96682 0.0
H1087 H 0.56899 0.86111 0.9363 0.0
H1088 H 0.54749 0.86417 0.99398 0.0
H1089 H 0.50423 0.88326 0.91151 0.0
H1090 H 0.52587 0.8802 0.85305 0.0
H1091 H 0.49248 0.85476 0.96443 0.0
H1092 H 0.52419 0.91366 0.97562 0.0
H1093 H 0.55167 0.9344 0.9797 0.0
H1094 H 0.5694 0.90705 0.09068 0.0
H1095 H 0.54215 0.88594 0.08696 0.0
C1096 C 0.44169 0.87816 0.12123 0.0
C1097 C 0.44737 0.87442 0.16188 0.0
C1098 C 0.45452 0.87781 0.08895 0.0
C1099 C 0.47334 0.87343 0.09623 0.0
C1100 C 0.4792 0.8699 0.13687 0.0
C1101 C 0.46631 0.87037 0.16946 0.0
C1102 C 0.48673 0.87274 0.06115 0.0
C1103 C 0.50272 0.88414 0.06223 0.0
C1104 C 0.48306 0.86195 0.02542 0.0
C1105 C 0.46714 0.84863 0.02333 0.0
C1106 C 0.46479 0.83488 0.05384 0.0
C1107 C 0.44966 0.82252 0.05201 0.0
C1108 C 0.43685 0.82368 0.01961 0.0
C1109 C 0.43917 0.83717 0.98893 0.0
C1110 C 0.45427 0.84958 0.99066 0.0
C1111 C 0.55496 0.86613 0.93032 0.0
C1112 C 0.54912 0.87036 0.89001 0.0
C1113 C 0.54269 0.86794 0.96346 0.0
C1114 C 0.52427 0.87402 0.95717 0.0
C1115 C 0.51841 0.87856 0.91705 0.0
C1116 C 0.5308 0.8769 0.88373 0.0
C1117 C 0.51104 0.87475 0.99244 0.0
C1118 C 0.49512 0.8633 0.99142 0.0
C1119 C 0.51488 0.88534 0.02832 0.0
C1120 C 0.53121 0.89811 0.03081 0.0
C1121 C 0.53402 0.91196 1.00073 0.0
C1122 C 0.54955 0.92381 0.00301 0.0
C1123 C 0.5623 0.92202 0.03538 0.0
C1124 C 0.55952 0.90841 0.06561 0.0
C1125 C 0.54402 0.89652 0.06345 0.0
H1126 H 0.57431 0.9312 0.03708 0.0
H1127 H 0.42514 0.81411 0.01824 0.0
H1128 H 0.86967 0.06778 0.66481 0.0
H1129 H 0.87346 0.04579 0.72188 0.0
H1130 H 0.86881 0.99956 0.6373 0.0
H1131 H 0.86554 0.02163 0.57961 0.0
H1132 H 0.8423 0.00069 0.70743 0.0
H1133 H 0.90769 0.00268 0.67744 0.0
H1134 H 0.93821 0.0174 0.6636 0.0
H1135 H 0.93703 0.04375 0.78233 0.0
H1136 H 0.90636 0.02935 0.79671 0.0
H1137 H 0.85716 0.9275 0.84765 0.0
H1138 H 0.85882 0.94903 0.78996 0.0
H1139 H 0.87444 0.99373 0.87225 0.0
H1140 H 0.87314 0.97193 0.93075 0.0
H1141 H 0.8961 0.99346 0.80275 0.0
H1142 H 0.83066 0.99185 0.83273 0.0
H1143 H 0.80012 0.97718 0.84691 0.0
H1144 H 0.80099 0.95081 0.7282 0.0
H1145 H 0.83168 0.96511 0.71354 0.0
C1146 C 0.86983 0.05293 0.65827 0.0
C1147 C 0.86725 0.04637 0.61789 0.0
C1148 C 0.87205 0.0404 0.69086 0.0
C1149 C 0.8714 0.02109 0.68377 0.0
C1150 C 0.86941 0.01445 0.64329 0.0
C1151 C 0.86761 0.02702 0.61042 0.0
C1152 C 0.87098 0.00806 0.71922 0.0
C1153 C 0.85415 0.99882 0.7279 0.0
C1154 C 0.88626 0.00624 0.74661 0.0
C1155 C 0.9046 0.01511 0.73795 0.0
C1156 C 0.91382 0.01178 0.70043 0.0
C1157 C 0.93119 0.02002 0.69253 0.0
C1158 C 0.93953 0.03154 0.72203 0.0
C1159 C 0.93053 0.03484 0.75948 0.0
C1160 C 0.91316 0.02664 0.76754 0.0
C1161 C 0.86085 0.94192 0.85374 0.0
C1162 C 0.86492 0.94801 0.89393 0.0
C1163 C 0.86174 0.95425 0.8206 0.0
C1164 C 0.86656 0.97305 0.82674 0.0
C1165 C 0.87064 0.97928 0.86682 0.0
C1166 C 0.86975 0.96687 0.90023 0.0
C1167 C 0.86739 0.98597 0.79094 0.0
C1168 C 0.88424 0.99528 0.78228 0.0
C1169 C 0.85208 0.98797 0.76357 0.0
C1170 C 0.83356 0.97942 0.77219 0.0
C1171 C 0.82441 0.98281 0.80977 0.0
C1172 C 0.80706 0.97458 0.81788 0.0
C1173 C 0.79864 0.96304 0.78852 0.0
C1174 C 0.80754 0.95974 0.75094 0.0
C1175 C 0.8249 0.96792 0.74269 0.0
H1176 H 0.78521 0.95668 0.79485 0.0
H1177 H 0.95298 0.03789 0.71589 0.0
H1178 H 0.92882 0.35584 0.90206 0.0
H1179 H 0.95008 0.35852 0.96055 0.0
H1180 H 0.99437 0.37606 0.87923 0.0
H1181 H 0.97296 0.37359 0.82015 0.0
H1182 H 0.00397 0.34616 0.93395 0.0
H1183 H 0.97629 0.40734 0.93957 0.0
H1184 H 0.95017 0.42982 0.94127 0.0
H1185 H 0.93026 0.40539 0.0537 0.0
H1186 H 0.95612 0.38256 0.05235 0.0
H1187 H 0.07041 0.36952 0.08317 0.0
H1188 H 0.0481 0.37147 0.02688 0.0
H1189 H 0.00285 0.36021 0.11102 0.0
H1190 H 0.02529 0.35861 0.16834 0.0
H1191 H 0.99331 0.38705 0.05515 0.0
H1192 H 0.02024 0.32647 0.0519 0.0
H1193 H 0.04594 0.3036 0.05258 0.0
H1194 H 0.06569 0.32455 0.93669 0.0
H1195 H 0.04055 0.34818 0.93618 0.0
C1196 C 0.94304 0.36044 0.89657 0.0
C1197 C 0.94925 0.36445 0.85646 0.0
C1198 C 0.95515 0.36202 0.93009 0.0
C1199 C 0.97377 0.36752 0.92425 0.0
C1200 C 0.98001 0.37181 0.88434 0.0
C1201 C 0.96778 0.37048 0.8507 0.0
C1202 C 0.98682 0.36791 0.95979 0.0
C1203 C 0.00187 0.35533 0.96014 0.0
C1204 C 0.98356 0.37934 0.99463 0.0
C1205 C 0.96805 0.39312 0.99564 0.0
C1206 C 0.96626 0.40665 0.96447 0.0
C1207 C 0.95151 0.41948 0.96541 0.0
C1208 C 0.93853 0.41901 0.99752 0.0
C1209 C 0.94031 0.40573 0.02882 0.0
C1210 C 0.95502 0.39286 0.02801 0.0
C1211 C 0.05572 0.36746 0.08994 0.0
C1212 C 0.04965 0.36368 0.13026 0.0
C1213 C 0.04296 0.36858 0.05759 0.0
C1214 C 0.02383 0.36567 0.06453 0.0
C1215 C 0.01758 0.36243 0.10493 0.0
C1216 C 0.0304 0.36143 0.1376 0.0
C1217 C 0.01064 0.36545 0.02913 0.0
C1218 C 0.99549 0.37793 0.0289 0.0
C1219 C 0.01366 0.35373 0.99456 0.0
C1220 C 0.02858 0.33926 0.99421 0.0
C1221 C 0.03015 0.32634 0.02671 0.0
C1222 C 0.04463 0.31322 0.02706 0.0
C1223 C 0.05741 0.31255 0.99461 0.0
C1224 C 0.05577 0.32508 0.96181 0.0
C1225 C 0.04144 0.33839 0.96154 0.0
H1226 H 0.06858 0.30234 0.9949 0.0
H1227 H 0.92713 0.42895 0.99819 0.0
H1228 H 0.63751 0.532 0.41159 0.0
H1229 H 0.63869 0.50993 0.35379 0.0
H1230 H 0.62603 0.55477 0.26945 0.0
H1231 H 0.62449 0.57668 0.32669 0.0
H1232 H 0.60636 0.52438 0.25012 0.0
H1233 H 0.66988 0.53879 0.2859 0.0
H1234 H 0.69652 0.54099 0.33377 0.0
H1235 H 0.69667 0.48132 0.34788 0.0
H1236 H 0.6693 0.47881 0.30194 0.0
H1237 H 0.63119 0.48009 0.06225 0.0
H1238 H 0.6298 0.5017 0.12073 0.0
H1239 H 0.64593 0.45702 0.2027 0.0
H1240 H 0.6482 0.43572 0.1443 0.0
H1241 H 0.66368 0.48718 0.2238 0.0
H1242 H 0.59896 0.47315 0.19145 0.0
H1243 H 0.57281 0.47088 0.14206 0.0
H1244 H 0.57615 0.52992 0.11936 0.0
H1245 H 0.6025 0.53251 0.16818 0.0
C1246 C 0.63498 0.53712 0.38072 0.0
C1247 C 0.631 0.55611 0.37374 0.0
C1248 C 0.63565 0.52451 0.34772 0.0
C1249 C 0.63257 0.53073 0.3072 0.0
C1250 C 0.62839 0.54963 0.30038 0.0
C1251 C 0.62763 0.56216 0.33322 0.0
C1252 C 0.63414 0.5178 0.27154 0.0
C1253 C 0.61895 0.51634 0.24425 0.0
C1254 C 0.6505 0.50715 0.26406 0.0
C1255 C 0.66734 0.50862 0.29078 0.0
C1256 C 0.67543 0.52613 0.29952 0.0
C1257 C 0.69066 0.52745 0.32638 0.0
C1258 C 0.69835 0.51131 0.34368 0.0
C1259 C 0.69071 0.49382 0.33443 0.0
C1260 C 0.67525 0.49245 0.30818 0.0
C1261 C 0.63439 0.47491 0.09279 0.0
C1262 C 0.63974 0.45622 0.09873 0.0
C1263 C 0.63355 0.48724 0.12624 0.0
C1264 C 0.63749 0.48094 0.16638 0.0
C1265 C 0.64286 0.46226 0.17216 0.0
C1266 C 0.64407 0.45007 0.13871 0.0
C1267 C 0.63586 0.49365 0.20255 0.0
C1268 C 0.65105 0.49512 0.22987 0.0
C1269 C 0.61952 0.50431 0.21013 0.0
C1270 C 0.60281 0.50299 0.18317 0.0
C1271 C 0.59409 0.48565 0.17597 0.0
C1272 C 0.57928 0.4843 0.148 0.0
C1273 C 0.57295 0.50022 0.12735 0.0
C1274 C 0.58115 0.51759 0.13523 0.0
C1275 C 0.596 0.51901 0.1631 0.0
H1276 H 0.5617 0.4991 0.10523 0.0
H1277 H 0.71022 0.51237 0.36425 0.0
H1278 H 0.5666 0.16365 0.38641 0.0
H1279 H 0.545 0.16032 0.44364 0.0
H1280 H 0.50595 0.13142 0.36496 0.0
H1281 H 0.52779 0.13453 0.30682 0.0
H1282 H 0.48975 0.16011 0.41571 0.0
H1283 H 0.52905 0.1063 0.42958 0.0
H1284 H 0.55899 0.08929 0.43348 0.0
H1285 H 0.57426 0.12054 0.54124 0.0
H1286 H 0.5445 0.13795 0.53764 0.0
H1287 H 0.43032 0.12878 0.57286 0.0
H1288 H 0.45197 0.12986 0.5154 0.0
H1289 H 0.49463 0.15284 0.59458 0.0
H1290 H 0.47294 0.1513 0.65328 0.0
H1291 H 0.50898 0.12667 0.54277 0.0
H1292 H 0.46922 0.17972 0.53059 0.0
H1293 H 0.43874 0.19554 0.52893 0.0
H1294 H 0.42459 0.1669 0.41703 0.0
H1295 H 0.45464 0.14998 0.41932 0.0
C1296 C 0.55343 0.15659 0.38095 0.0
C1297 C 0.54895 0.14933 0.34186 0.0
C1298 C 0.54111 0.15464 0.41391 0.0
C1299 C 0.52396 0.14548 0.4087 0.0
C1300 C 0.51918 0.1385 0.36962 0.0
C1301 C 0.53166 0.14026 0.33648 0.0
C1302 C 0.51115 0.14344 0.44436 0.0
C1303 C 0.49378 0.15252 0.44324 0.0
C1304 C 0.51672 0.13405 0.48073 0.0
C1305 C 0.53461 0.12356 0.48309 0.0
C1306 C 0.53886 0.10967 0.4539 0.0
C1307 C 0.55578 0.09993 0.4561 0.0
C1308 C 0.56854 0.10387 0.48752 0.0
C1309 C 0.56437 0.11752 0.51689 0.0
C1310 C 0.54747 0.12732 0.5148 0.0
C1311 C 0.44427 0.13415 0.57829 0.0
C1312 C 0.44982 0.14019 0.61768 0.0
C1313 C 0.45666 0.13474 0.54523 0.0
C1314 C 0.47484 0.14172 0.55039 0.0
C1315 C 0.48062 0.14747 0.58983 0.0
C1316 C 0.4682 0.1467 0.62327 0.0
C1317 C 0.4875 0.1433 0.51418 0.0
C1318 C 0.50488 0.13421 0.51524 0.0
C1319 C 0.48196 0.15276 0.47776 0.0
C1320 C 0.46415 0.16342 0.47537 0.0
C1321 C 0.45957 0.17666 0.50577 0.0
C1322 C 0.44234 0.18583 0.50472 0.0
C1323 C 0.42976 0.18237 0.47272 0.0
C1324 C 0.43436 0.16959 0.4418 0.0
C1325 C 0.45146 0.16011 0.44308 0.0
H1326 H 0.41644 0.18955 0.47192 0.0
H1327 H 0.58164 0.09632 0.48917 0.0
H1328 H 0.63042 0.4396 0.82645 0.0
H1329 H 0.63268 0.46107 0.76877 0.0
H1330 H 0.64347 0.50668 0.85239 0.0
H1331 H 0.64084 0.4851 0.91102 0.0
H1332 H 0.61951 0.51712 0.7928 0.0
H1333 H 0.67891 0.48727 0.797 0.0
H1334 H 0.70117 0.461 0.80055 0.0
H1335 H 0.68025 0.43971 0.68584 0.0
H1336 H 0.65765 0.46571 0.6819 0.0
H1337 H 0.65732 0.57738 0.63938 0.0
H1338 H 0.65501 0.55623 0.69798 0.0
H1339 H 0.63091 0.51384 0.61991 0.0
H1340 H 0.63279 0.5352 0.56071 0.0
H1341 H 0.66225 0.50239 0.67689 0.0
H1342 H 0.60229 0.53331 0.67519 0.0
H1343 H 0.58161 0.56086 0.67259 0.0
H1344 H 0.60588 0.5816 0.78458 0.0
H1345 H 0.62695 0.5543 0.78746 0.0
C1346 C 0.63329 0.45418 0.83281 0.0
C1347 C 0.63559 0.46062 0.87341 0.0
C1348 C 0.63466 0.46645 0.79964 0.0
C1349 C 0.63859 0.48543 0.80612 0.0
C1350 C 0.64053 0.49205 0.84666 0.0
C1351 C 0.63906 0.47973 0.8801 0.0
C1352 C 0.64058 0.49818 0.77025 0.0
C1353 C 0.62905 0.51403 0.76778 0.0
C1354 C 0.65284 0.49402 0.73721 0.0
C1355 C 0.66645 0.47836 0.73935 0.0
C1356 C 0.67894 0.47691 0.77269 0.0
C1357 C 0.69164 0.46207 0.77475 0.0
C1358 C 0.69209 0.44867 0.74349 0.0
C1359 C 0.67987 0.45009 0.71005 0.0
C1360 C 0.66712 0.46489 0.70787 0.0
C1361 C 0.6516 0.56353 0.63443 0.0
C1362 C 0.64526 0.55795 0.5953 0.0
C1363 C 0.65025 0.5515 0.66807 0.0
C1364 C 0.64274 0.53355 0.66324 0.0
C1365 C 0.63675 0.52769 0.62413 0.0
C1366 C 0.6378 0.53989 0.59044 0.0
C1367 C 0.64105 0.52109 0.69943 0.0
C1368 C 0.6527 0.50539 0.70198 0.0
C1369 C 0.62911 0.52552 0.73274 0.0
C1370 C 0.61634 0.54185 0.7313 0.0
C1371 C 0.60335 0.54383 0.69905 0.0
C1372 C 0.59153 0.55938 0.69757 0.0
C1373 C 0.59246 0.573 0.72834 0.0
C1374 C 0.60519 0.57106 0.76073 0.0
C1375 C 0.61706 0.55553 0.76232 0.0
H1376 H 0.5833 0.58504 0.72714 0.0
H1377 H 0.70194 0.4372 0.74513 0.0
H1378 H 0.57123 0.14002 0.07036 0.0
H1379 H 0.54982 0.14055 0.01211 0.0
H1380 H 0.50299 0.14528 0.09503 0.0
H1381 H 0.5245 0.14457 0.15407 0.0
H1382 H 0.49673 0.1192 0.03522 0.0
H1383 H 0.51744 0.18261 0.04032 0.0
H1384 H 0.5406 0.20811 0.04379 0.0
H1385 H 0.56369 0.19075 0.92798 0.0
H1386 H 0.54087 0.16493 0.92416 0.0
H1387 H 0.42846 0.14748 0.8917 0.0
H1388 H 0.45118 0.14693 0.94736 0.0
H1389 H 0.49531 0.13561 0.86054 0.0
H1390 H 0.47237 0.13595 0.80386 0.0
H1391 H 0.50352 0.16462 0.92072 0.0
H1392 H 0.48204 0.10128 0.91595 0.0
H1393 H 0.4585 0.07612 0.91339 0.0
H1394 H 0.4363 0.09406 0.02961 0.0
H1395 H 0.45952 0.11954 0.03256 0.0
C1396 C 0.55638 0.14128 0.07641 0.0
C1397 C 0.54959 0.14229 0.11699 0.0
C1398 C 0.54415 0.14165 0.04292 0.0
C1399 C 0.52479 0.14313 0.04907 0.0
C1400 C 0.51789 0.14416 0.08954 0.0
C1401 C 0.53019 0.14385 0.12323 0.0
C1402 C 0.51188 0.14319 0.01308 0.0
C1403 C 0.49806 0.1293 0.0105 0.0
C1404 C 0.51392 0.15606 0.9802 0.0
C1405 C 0.52754 0.17171 0.98215 0.0
C1406 C 0.52755 0.18413 0.01574 0.0
C1407 C 0.5406 0.19866 0.01775 0.0
C1408 C 0.55364 0.20102 0.98617 0.0
C1409 C 0.5536 0.18889 0.95245 0.0
C1410 C 0.5406 0.17431 0.95033 0.0
C1411 C 0.44298 0.14488 0.88412 0.0
C1412 C 0.44858 0.14177 0.84314 0.0
C1413 C 0.45596 0.14451 0.91617 0.0
C1414 C 0.47491 0.14114 0.90819 0.0
C1415 C 0.48071 0.13824 0.86733 0.0
C1416 C 0.46761 0.13837 0.83504 0.0
C1417 C 0.48841 0.14067 0.94301 0.0
C1418 C 0.50229 0.15449 0.94541 0.0
C1419 C 0.48637 0.12781 0.97584 0.0
C1420 C 0.47242 0.11244 0.97428 0.0
C1421 C 0.47203 0.09997 0.9408 0.0
C1422 C 0.45877 0.08563 0.9393 0.0
C1423 C 0.44588 0.08352 0.97127 0.0
C1424 C 0.44627 0.09572 0.00485 0.0
C1425 C 0.4595 0.11011 0.00646 0.0
H1426 H 0.43562 0.0724 0.97007 0.0
H1427 H 0.56374 0.21228 0.98779 0.0
H1428 H 0.86538 0.01681 0.43155 0.0
H1429 H 0.86985 0.99512 0.37379 0.0
H1430 H 0.85566 0.03911 0.28843 0.0
H1431 H 0.8507 0.0605 0.34549 0.0
H1432 H 0.83994 0.00831 0.26445 0.0
H1433 H 0.90159 0.02591 0.30763 0.0
H1434 H 0.92718 0.03006 0.35777 0.0
H1435 H 0.92832 0.97086 0.37964 0.0
H1436 H 0.90253 0.96638 0.33002 0.0
H1437 H 0.87407 0.96663 0.08146 0.0
H1438 H 0.87414 0.98845 0.13996 0.0
H1439 H 0.87785 0.942 0.22414 0.0
H1440 H 0.87752 0.92024 0.16614 0.0
H1441 H 0.89979 0.97393 0.24832 0.0
H1442 H 0.83702 0.95743 0.20495 0.0
H1443 H 0.81176 0.95429 0.1537 0.0
H1444 H 0.81363 0.01339 0.13076 0.0
H1445 H 0.83917 0.01682 0.18138 0.0
C1446 C 0.86302 0.02176 0.40048 0.0
C1447 C 0.85776 0.0404 0.39318 0.0
C1448 C 0.86572 0.0094 0.36746 0.0
C1449 C 0.86338 0.01555 0.32662 0.0
C1450 C 0.8576 0.034 0.31954 0.0
C1451 C 0.85481 0.04626 0.35235 0.0
C1452 C 0.86708 0.003 0.29096 0.0
C1453 C 0.85313 0.001 0.26079 0.0
C1454 C 0.88422 0.99326 0.2862 0.0
C1455 C 0.9 0.99583 0.31538 0.0
C1456 C 0.90723 0.01378 0.32329 0.0
C1457 C 0.92177 0.0162 0.35161 0.0
C1458 C 0.92934 0.00074 0.37195 0.0
C1459 C 0.92243 0.98283 0.36389 0.0
C1460 C 0.90786 0.98034 0.33564 0.0
C1461 C 0.87535 0.96114 0.1124 0.0
C1462 C 0.87563 0.94176 0.11932 0.0
C1463 C 0.87533 0.97359 0.14576 0.0
C1464 C 0.87586 0.96681 0.1864 0.0
C1465 C 0.87745 0.94752 0.1931 0.0
C1466 C 0.87717 0.93512 0.15992 0.0
C1467 C 0.87271 0.97949 0.22194 0.0
C1468 C 0.88668 0.98138 0.25207 0.0
C1469 C 0.85569 0.98935 0.22653 0.0
C1470 C 0.84014 0.98735 0.1966 0.0
C1471 C 0.83215 0.96973 0.18874 0.0
C1472 C 0.81777 0.9679 0.15983 0.0
C1473 C 0.81113 0.98362 0.1389 0.0
C1474 C 0.81881 0.00122 0.14694 0.0
C1475 C 0.83324 0.00311 0.17573 0.0
H1476 H 0.79999 0.98218 0.11653 0.0
H1477 H 0.94059 0.00265 0.39387 0.0
H1478 H 0.03195 0.36689 0.32115 0.0
H1479 H 0.01167 0.37128 0.38124 0.0
H1480 H 0.05845 0.35993 0.46159 0.0
H1481 H 0.07835 0.35462 0.40188 0.0
H1482 H 0.03099 0.34144 0.48774 0.0
H1483 H 0.03798 0.40532 0.44629 0.0
H1484 H 0.0371 0.43218 0.39875 0.0
H1485 H 0.97799 0.42464 0.38215 0.0
H1486 H 0.97856 0.39753 0.42907 0.0
H1487 H 0.98105 0.3656 0.67126 0.0
H1488 H 0.00406 0.36726 0.61521 0.0
H1489 H 0.95928 0.36933 0.52631 0.0
H1490 H 0.9364 0.36777 0.58157 0.0
H1491 H 0.98707 0.39432 0.50777 0.0
H1492 H 0.98142 0.32886 0.5451 0.0
H1493 H 0.98263 0.30227 0.59337 0.0
H1494 H 0.04038 0.31407 0.61896 0.0
H1495 H 0.03943 0.34089 0.57122 0.0
C1496 C 0.03787 0.36549 0.3517 0.0
C1497 C 0.05666 0.36028 0.35688 0.0
C1498 C 0.02632 0.36811 0.38607 0.0
C1499 C 0.03352 0.3661 0.4262 0.0
C1500 C 0.05247 0.36145 0.43113 0.0
C1501 C 0.06385 0.35844 0.39692 0.0
C1502 C 0.02123 0.36772 0.46309 0.0
C1503 C 0.02167 0.35323 0.49235 0.0
C1504 C 0.00875 0.38289 0.46906 0.0
C1505 C 0.00835 0.39927 0.44095 0.0
C1506 C 0.02482 0.40929 0.43227 0.0
C1507 C 0.02437 0.42458 0.40545 0.0
C1508 C 0.00751 0.43009 0.38736 0.0
C1509 C 0.99105 0.42034 0.39614 0.0
C1510 C 0.99143 0.40502 0.42287 0.0
C1511 C 0.97615 0.36646 0.63977 0.0
C1512 C 0.95689 0.3664 0.63091 0.0
C1513 C 0.98929 0.36741 0.60779 0.0
C1514 C 0.98337 0.36834 0.56653 0.0
C1515 C 0.96417 0.3687 0.55785 0.0
C1516 C 0.9511 0.36767 0.58959 0.0
C1517 C 0.99696 0.3681 0.53198 0.0
C1518 C 0.99666 0.38275 0.50318 0.0
C1519 C 0.0097 0.35319 0.52652 0.0
C1520 C 0.0103 0.33699 0.55496 0.0
C1521 C 0.99434 0.32586 0.56126 0.0
C1522 C 0.99498 0.31074 0.58848 0.0
C1523 C 0.01156 0.30651 0.60931 0.0
C1524 C 0.02754 0.31737 0.60286 0.0
C1525 C 0.02696 0.33253 0.57572 0.0
H1526 H 0.01203 0.2948 0.63037 0.0
H1527 H 0.00719 0.44193 0.36661 0.0
H1528 H 0.35164 0.57956 0.16237 0.0
H1529 H 0.35492 0.55762 0.21918 0.0
H1530 H 0.37456 0.51528 0.13527 0.0
H1531 H 0.37161 0.53746 0.07763 0.0
H1532 H 0.34533 0.50363 0.19385 0.0
H1533 H 0.40547 0.53335 0.19148 0.0
H1534 H 0.42709 0.56019 0.18955 0.0
H1535 H 0.40491 0.5802 0.30415 0.0
H1536 H 0.38293 0.55362 0.30643 0.0
H1537 H 0.3749 0.43963 0.34468 0.0
H1538 H 0.37385 0.46098 0.28655 0.0
H1539 H 0.36387 0.50718 0.36901 0.0
H1540 H 0.36522 0.48571 0.42806 0.0
H1541 H 0.38864 0.51666 0.30989 0.0
H1542 H 0.32829 0.48822 0.31293 0.0
H1543 H 0.30555 0.46232 0.31563 0.0
H1544 H 0.32653 0.44097 0.20113 0.0
H1545 H 0.34962 0.46658 0.19804 0.0
C1546 C 0.35665 0.56559 0.15574 0.0
C1547 C 0.36133 0.56026 0.11533 0.0
C1548 C 0.35857 0.55308 0.1884 0.0
C1549 C 0.36505 0.53486 0.1815 0.0
C1550 C 0.36955 0.52931 0.14119 0.0
C1551 C 0.3679 0.54199 0.10837 0.0
C1552 C 0.36695 0.52179 0.21676 0.0
C1553 C 0.35504 0.50625 0.21889 0.0
C1554 C 0.37915 0.52563 0.25006 0.0
C1555 C 0.39242 0.54158 0.24892 0.0
C1556 C 0.40508 0.54356 0.21609 0.0
C1557 C 0.41742 0.55871 0.21496 0.0
C1558 C 0.41734 0.57191 0.24665 0.0
C1559 C 0.40494 0.56997 0.27959 0.0
C1560 C 0.39255 0.55485 0.28084 0.0
C1561 C 0.37248 0.45433 0.35069 0.0
C1562 C 0.37001 0.46093 0.39113 0.0
C1563 C 0.37182 0.46653 0.31725 0.0
C1564 C 0.36845 0.48566 0.32322 0.0
C1565 C 0.3664 0.49245 0.36362 0.0
C1566 C 0.36714 0.48018 0.39733 0.0
C1567 C 0.36704 0.49838 0.28707 0.0
C1568 C 0.37899 0.51393 0.28481 0.0
C1569 C 0.35473 0.49464 0.2538 0.0
C1570 C 0.34081 0.47923 0.25546 0.0
C1571 C 0.32817 0.47792 0.28848 0.0
C1572 C 0.3152 0.4633 0.29006 0.0
C1573 C 0.31463 0.44999 0.25862 0.0
C1574 C 0.32701 0.45128 0.22549 0.0
C1575 C 0.34003 0.46585 0.22379 0.0
H1576 H 0.30456 0.4387 0.25986 0.0
H1577 H 0.42692 0.58363 0.24573 0.0
H1578 H 0.4677 0.87424 0.34765 0.0
H1579 H 0.49076 0.87476 0.40405 0.0
H1580 H 0.44638 0.88394 0.49156 0.0
H1581 H 0.42352 0.88336 0.43601 0.0
H1582 H 0.47778 0.90494 0.51 0.0
H1583 H 0.46181 0.84085 0.47561 0.0
H1584 H 0.45891 0.81389 0.42868 0.0
H1585 H 0.51792 0.81587 0.40458 0.0
H1586 H 0.52112 0.84303 0.45096 0.0
H1587 H 0.51902 0.8749 0.69862 0.0
H1588 H 0.49804 0.87815 0.6391 0.0
H1589 H 0.54315 0.86258 0.55793 0.0
H1590 H 0.56386 0.85892 0.6167 0.0
H1591 H 0.51256 0.84592 0.53415 0.0
H1592 H 0.52966 0.90845 0.57009 0.0
H1593 H 0.53352 0.93541 0.61668 0.0
H1594 H 0.47418 0.93714 0.63658 0.0
H1595 H 0.46999 0.90998 0.59054 0.0
C1596 C 0.46297 0.87667 0.37885 0.0
C1597 C 0.4438 0.87853 0.38745 0.0
C1598 C 0.47611 0.8769 0.41104 0.0
C1599 C 0.47025 0.87922 0.45211 0.0
C1600 C 0.45124 0.88212 0.46023 0.0
C1601 C 0.43817 0.88166 0.42837 0.0
C1602 C 0.48348 0.87723 0.48719 0.0
C1603 C 0.48534 0.89202 0.51543 0.0
C1604 C 0.49355 0.86048 0.49399 0.0
C1605 C 0.49166 0.84409 0.46635 0.0
C1606 C 0.47414 0.83562 0.46004 0.0
C1607 C 0.47244 0.82029 0.43359 0.0
C1608 C 0.48821 0.81321 0.41356 0.0
C1609 C 0.50572 0.8214 0.42005 0.0
C1610 C 0.50748 0.83675 0.44642 0.0
C1611 C 0.52437 0.87202 0.6681 0.0
C1612 C 0.54313 0.86673 0.66246 0.0
C1613 C 0.51243 0.87401 0.63407 0.0
C1614 C 0.51908 0.87086 0.59388 0.0
C1615 C 0.53766 0.86512 0.58849 0.0
C1616 C 0.54953 0.8631 0.62229 0.0
C1617 C 0.5069 0.87362 0.55716 0.0
C1618 C 0.50517 0.85893 0.52867 0.0
C1619 C 0.49713 0.89054 0.54997 0.0
C1620 C 0.49953 0.90707 0.57713 0.0
C1621 C 0.51744 0.9145 0.58459 0.0
C1622 C 0.51969 0.92982 0.61087 0.0
C1623 C 0.50411 0.93796 0.6296 0.0
C1624 C 0.48624 0.93081 0.62204 0.0
C1625 C 0.48391 0.91546 0.59582 0.0
H1626 H 0.50589 0.94984 0.64985 0.0
H1627 H 0.48688 0.80133 0.3931 0.0
H1628 H 0.12497 0.96396 0.55573 0.0
H1629 H 0.12572 0.98508 0.61554 0.0
H1630 H 0.14031 0.93877 0.69415 0.0
H1631 H 0.1399 0.9178 0.63502 0.0
H1632 H 0.11192 0.96249 0.72736 0.0
H1633 H 0.17361 0.96607 0.66672 0.0
H1634 H 0.1959 0.97139 0.61004 0.0
H1635 H 0.17564 0.02756 0.59612 0.0
H1636 H 0.15302 0.02246 0.65236 0.0
H1637 H 0.14098 0.01346 0.90594 0.0
H1638 H 0.14013 0.99141 0.8479 0.0
H1639 H 0.13615 0.03766 0.76309 0.0
H1640 H 0.13751 0.05951 0.82013 0.0
H1641 H 0.15908 0.01331 0.7332 0.0
H1642 H 0.09773 0.01105 0.79225 0.0
H1643 H 0.07481 0.00684 0.84816 0.0
H1644 H 0.09251 0.94989 0.86338 0.0
H1645 H 0.1158 0.95386 0.80805 0.0
C1646 C 0.12831 0.95832 0.58578 0.0
C1647 C 0.13254 0.93924 0.59049 0.0
C1648 C 0.12873 0.97037 0.61989 0.0
C1649 C 0.1331 0.96347 0.6593 0.0
C1650 C 0.13686 0.94438 0.66412 0.0
C1651 C 0.13675 0.93244 0.63011 0.0
C1652 C 0.1345 0.97615 0.69544 0.0
C1653 C 0.12232 0.97352 0.72887 0.0
C1654 C 0.14785 0.99071 0.69709 0.0
C1655 C 0.16149 0.99381 0.66342 0.0
C1656 C 0.1738 0.97949 0.65132 0.0
C1657 C 0.18651 0.98248 0.61932 0.0
C1658 C 0.18715 -0.00022 0.5994 0.0
C1659 C 0.1751 0.01415 0.61152 0.0
C1660 C 0.16234 0.01123 0.64347 0.0
C1661 C 0.14008 0.01887 0.87488 0.0
C1662 C 0.13928 0.03825 0.86777 0.0
C1663 C 0.13947 0.00628 0.84173 0.0
C1664 C 0.13786 0.01285 0.801 0.0
C1665 C 0.13743 0.03219 0.79406 0.0
C1666 C 0.13815 0.0447 0.82692 0.0
C1667 C 0.1364 -0.00017 0.7653 0.0
C1668 C 0.14861 0.00235 0.73186 0.0
C1669 C 0.12288 0.98535 0.76348 0.0
C1670 C 0.10866 0.98281 0.79628 0.0
C1671 C 0.09683 0.99766 0.8077 0.0
C1672 C 0.08376 0.99532 0.83928 0.0
C1673 C 0.08224 0.97812 0.85937 0.0
C1674 C 0.09373 0.96321 0.84783 0.0
C1675 C 0.10687 0.9655 0.81636 0.0
H1676 H 0.07212 0.97633 0.88382 0.0
H1677 H 0.197 0.00207 0.57465 0.0
H1678 H 0.97738 0.63395 0.17008 0.0
H1679 H 0.99902 0.63648 0.11152 0.0
H1680 H 0.9527 0.6307 0.02734 0.0
H1681 H 0.93124 0.62807 0.08501 0.0
H1682 H 0.98047 0.60823 0.00517 0.0
H1683 H 0.97365 0.6725 0.04334 0.0
H1684 H 0.97437 0.69946 0.09062 0.0
H1685 H 0.03327 0.69156 0.1095 0.0
H1686 H 0.03284 0.66422 0.06317 0.0
H1687 H 0.0291 0.6304 0.81933 0.0
H1688 H 0.0068 0.6305 0.87675 0.0
H1689 H 0.05213 0.64002 0.96201 0.0
H1690 H 0.07416 0.64073 0.90506 0.0
H1691 H 0.02434 0.66099 0.98326 0.0
H1692 H 0.03008 0.59538 0.94512 0.0
H1693 H 0.02837 0.56918 0.89574 0.0
H1694 H 0.97023 0.58089 0.87471 0.0
H1695 H 0.97166 0.60718 0.92338 0.0
C1696 C 0.97184 0.6334 0.13908 0.0
C1697 C 0.95258 0.63075 0.13232 0.0
C1698 C 0.9842 0.63485 0.10562 0.0
C1699 C 0.97749 0.63376 0.06491 0.0
C1700 C 0.95825 0.63144 0.05834 0.0
C1701 C 0.94598 0.63001 0.09152 0.0
C1702 C 0.99036 0.63457 0.02889 0.0
C1703 C 0.98996 0.61985 1.00024 0.0
C1704 C 0.00286 0.64964 0.02249 0.0
C1705 C 0.00318 0.66617 0.05012 0.0
C1706 C 0.98673 0.6764 0.05785 0.0
C1707 C 0.98709 0.69177 0.08442 0.0
C1708 C 0.00384 0.69722 0.10303 0.0
C1709 C 0.02029 0.68731 0.09509 0.0
C1710 C 0.02 0.67186 0.06871 0.0
C1711 C 0.03426 0.63247 0.85035 0.0
C1712 C 0.05341 0.63554 0.85756 0.0
C1713 C 0.02152 0.63247 0.88323 0.0
C1714 C 0.02776 0.63505 0.92401 0.0
C1715 C 0.04688 0.63808 0.93101 0.0
C1716 C 0.05951 0.6384 0.89827 0.0
C1717 C 0.0146 0.63453 0.95968 0.0
C1718 C 0.01492 0.64932 0.98828 0.0
C1719 C 0.00193 0.61957 0.96596 0.0
C1720 C 0.00101 0.60333 0.93766 0.0
C1721 C 0.01695 0.59236 0.92984 0.0
C1722 C 0.01603 0.57749 0.90194 0.0
C1723 C 0.99921 0.57336 0.88195 0.0
C1724 C 0.98326 0.58404 0.89005 0.0
C1725 C 0.98411 0.59891 0.91785 0.0
H1726 H 0.99852 0.56189 0.86025 0.0
H1727 H 0.00409 0.70914 0.12356 0.0
H1728 H 0.09559 0.30102 0.14137 0.0
H1729 H 0.10383 0.27172 0.10639 0.0
H1730 H 0.08933 0.24071 0.21567 0.0
H1731 H 0.08138 0.26985 0.25073 0.0
H1732 H 0.12203 0.22867 0.18261 0.0
H1733 H 0.05948 0.24277 0.13558 0.0
H1734 H 0.03453 0.26118 0.10228 0.0
H1735 H 0.06574 0.26196 0.98948 0.0
H1736 H 0.091 0.24373 0.02227 0.0
H1737 H 0.11173 0.13625 0.11121 0.0
H1738 H 0.10622 0.16728 0.1401 0.0
H1739 H 0.11806 0.19224 0.02212 0.0
H1740 H 0.12268 0.16121 0.99248 0.0
H1741 H 0.08887 0.20865 0.05588 0.0
H1742 H 0.1505 0.19281 0.1011 0.0
H1743 H 0.17485 0.17325 0.13331 0.0
H1744 H 0.14577 0.17574 0.24874 0.0
H1745 H 0.1211 0.1951 0.21707 0.0
C1746 C 0.09439 0.28796 0.158 0.0
C1747 C 0.08778 0.28769 0.19875 0.0
C1748 C 0.09893 0.27124 0.13791 0.0
C1749 C 0.09702 0.25403 0.15835 0.0
C1750 C 0.09086 0.25382 0.19929 0.0
C1751 C 0.08621 0.27045 0.2192 0.0
C1752 C 0.1013 0.23612 0.13737 0.0
C1753 C 0.11469 0.22422 0.15505 0.0
C1754 C 0.09209 0.23056 0.10081 0.0
C1755 C 0.07721 0.24205 0.0815 0.0
C1756 C 0.06113 0.24705 0.10382 0.0
C1757 C 0.0469 0.25739 0.08499 0.0
C1758 C 0.04854 0.26269 0.04377 0.0
C1759 C 0.06448 0.25781 0.02138 0.0
C1760 C 0.07875 0.24747 0.04007 0.0
C1761 C 0.11294 0.14831 0.09124 0.0
C1762 C 0.11777 0.1462 0.04955 0.0
C1763 C 0.11001 0.16607 0.10794 0.0
C1764 C 0.11208 0.18213 0.08347 0.0
C1765 C 0.11653 0.18007 0.04168 0.0
C1766 C 0.11935 0.16231 0.02488 0.0
C1767 C 0.10942 0.20105 0.10143 0.0
C1768 C 0.09637 0.21315 0.08317 0.0
C1769 C 0.119 0.20685 0.13739 0.0
C1770 C 0.13387 0.19528 0.1566 0.0
C1771 C 0.14923 0.18907 0.13328 0.0
C1772 C 0.1631 0.17804 0.15146 0.0
C1773 C 0.16184 0.17322 0.19303 0.0
C1774 C 0.14672 0.17947 0.21654 0.0
C1775 C 0.1328 0.19049 0.1985 0.0
H1776 H 0.17259 0.16468 0.20704 0.0
H1777 H 0.03743 0.27054 0.02914 0.0
H1778 H 0.83929 0.62143 0.31302 0.0
H1779 H 0.80893 0.6134 0.34263 0.0
H1780 H 0.8257 0.55563 0.35148 0.0
H1781 H 0.85648 0.5637 0.32213 0.0
H1782 H 0.78681 0.56523 0.31402 0.0
H1783 H 0.82459 0.57238 0.43458 0.0
H1784 H 0.84833 0.58762 0.47829 0.0
H1785 H 0.81484 0.6374 0.48341 0.0
H1786 H 0.79104 0.62257 0.43915 0.0
H1787 H 0.69982 0.55991 0.4354 0.0
H1788 H 0.73134 0.5537 0.40797 0.0
H1789 H 0.74256 0.61297 0.40641 0.0
H1790 H 0.71142 0.61916 0.43304 0.0
H1791 H 0.76932 0.59358 0.44789 0.0
H1792 H 0.73525 0.58939 0.31858 0.0
H1793 H 0.71245 0.57635 0.26933 0.0
H1794 H 0.73874 0.52253 0.27835 0.0
H1795 H 0.76162 0.53523 0.328 0.0
C1796 C 0.8365 0.60701 0.32117 0.0
C1797 C 0.85017 0.59317 0.3153 0.0
C1798 C 0.8192 0.60245 0.33808 0.0
C1799 C 0.81513 0.58394 0.34911 0.0
C1800 C 0.82864 0.56998 0.343 0.0
C1801 C 0.84617 0.57461 0.32658 0.0
C1802 C 0.79676 0.57974 0.3678 0.0
C1803 C 0.78302 0.57091 0.34383 0.0
C1804 C 0.79189 0.58743 0.40635 0.0
C1805 C 0.80607 0.59637 0.43335 0.0
C1806 C 0.82235 0.58662 0.44477 0.0
C1807 C 0.83581 0.59518 0.46969 0.0
C1808 C 0.83311 0.61347 0.48358 0.0
C1809 C 0.81692 0.62323 0.47263 0.0
C1810 C 0.80342 0.61474 0.44768 0.0
C1811 C 0.70896 0.57157 0.42853 0.0
C1812 C 0.7033 0.59001 0.43715 0.0
C1813 C 0.72694 0.56801 0.41299 0.0
C1814 C 0.73937 0.58288 0.40575 0.0
C1815 C 0.73332 0.60127 0.41243 0.0
C1816 C 0.71552 0.60479 0.42781 0.0
C1817 C 0.75909 0.57975 0.39341 0.0
C1818 C 0.77313 0.58727 0.41871 0.0
C1819 C 0.76413 0.57097 0.356 0.0
C1820 C 0.74999 0.5632 0.32737 0.0
C1821 C 0.73604 0.57472 0.31043 0.0
C1822 C 0.72317 0.56742 0.28226 0.0
C1823 C 0.72421 0.54865 0.27057 0.0
C1824 C 0.73802 0.53709 0.28729 0.0
C1825 C 0.75092 0.54433 0.31546 0.0
H1826 H 0.71424 0.54303 0.24874 0.0
H1827 H 0.84354 0.62008 0.50287 0.0
H1828 H 0.35273 0.34514 0.58165 0.0
H1829 H 0.36022 0.31392 0.60808 0.0
H1830 H 0.41832 0.32947 0.61836 0.0
H1831 H 0.41088 0.3608 0.59219 0.0
H1832 H 0.41176 0.29432 0.57833 0.0
H1833 H 0.39562 0.32643 0.70265 0.0
H1834 H 0.37599 0.34612 0.74748 0.0
H1835 H 0.33124 0.30626 0.73851 0.0
H1836 H 0.35052 0.28646 0.69309 0.0
H1837 H 0.43404 0.20928 0.68965 0.0
H1838 H 0.43194 0.24145 0.66302 0.0
H1839 H 0.37172 0.23857 0.67005 0.0
H1840 H 0.37386 0.20689 0.69711 0.0
H1841 H 0.38279 0.26896 0.70518 0.0
H1842 H 0.3961 0.23908 0.57526 0.0
H1843 H 0.41344 0.22051 0.52402 0.0
H1844 H 0.46157 0.25573 0.5401 0.0
H1845 H 0.44444 0.27456 0.59138 0.0
C1846 C 0.36708 0.34191 0.58973 0.0
C1847 C 0.38121 0.3554 0.5851 0.0
C1848 C 0.37133 0.32412 0.6049 0.0
C1849 C 0.38982 0.31944 0.61531 0.0
C1850 C 0.40398 0.33285 0.61057 0.0
C1851 C 0.39968 0.35074 0.59595 0.0
C1852 C 0.39428 0.30041 0.6305 0.0
C1853 C 0.40573 0.28882 0.60647 0.0
C1854 C 0.38607 0.2932 0.6667 0.0
C1855 C 0.37447 0.30504 0.69418 0.0
C1856 C 0.38154 0.32194 0.70995 0.0
C1857 C 0.37049 0.33311 0.73552 0.0
C1858 C 0.35237 0.32747 0.74577 0.0
C1859 C 0.34528 0.31062 0.73053 0.0
C1860 C 0.35627 0.29941 0.7049 0.0
C1861 C 0.42041 0.21551 0.68484 0.0
C1862 C 0.40413 0.20573 0.69597 0.0
C1863 C 0.41919 0.23385 0.66961 0.0
C1864 C 0.40165 0.24253 0.6647 0.0
C1865 C 0.38542 0.23234 0.67404 0.0
C1866 C 0.38665 0.21422 0.68955 0.0
C1867 C 0.39991 0.26252 0.65239 0.0
C1868 C 0.38902 0.2744 0.67719 0.0
C1869 C 0.40846 0.2699 0.61663 0.0
C1870 C 0.41908 0.25805 0.5875 0.0
C1871 C 0.41046 0.24271 0.56824 0.0
C1872 C 0.42022 0.2322 0.53903 0.0
C1873 C 0.43863 0.2369 0.5289 0.0
C1874 C 0.44732 0.25209 0.54802 0.0
C1875 C 0.43758 0.26271 0.57708 0.0
H1876 H 0.44614 0.22883 0.5061 0.0
H1877 H 0.34383 0.33613 0.76558 0.0
H1878 H 0.64264 0.87969 0.91208 0.0
H1879 H 0.67403 0.88492 0.93981 0.0
H1880 H 0.69719 0.88033 0.81772 0.0
H1881 H 0.66587 0.87522 0.78972 0.0
H1882 H 0.71829 0.86151 0.8732 0.0
H1883 H 0.69135 0.92274 0.86174 0.0
H1884 H 0.66736 0.947 0.87277 0.0
H1885 H 0.67452 0.94222 0.00355 0.0
H1886 H 0.69838 0.91773 0.99331 0.0
H1887 H 0.80746 0.90202 0.92054 0.0
H1888 H 0.7769 0.89412 0.8911 0.0
H1889 H 0.75138 0.90109 0.01041 0.0
H1890 H 0.7818 0.90918 0.03969 0.0
H1891 H 0.73164 0.9187 0.95447 0.0
H1892 H 0.75858 0.85729 0.96601 0.0
H1893 H 0.78248 0.83295 0.95485 0.0
H1894 H 0.77544 0.83801 0.82409 0.0
H1895 H 0.75166 0.86257 0.83446 0.0
C1896 C 0.6544 0.87989 0.89109 0.0
C1897 C 0.65171 0.87707 0.84866 0.0
C1898 C 0.67234 0.88284 0.907 0.0
C1899 C 0.68795 0.88319 0.88078 0.0
C1900 C 0.68537 0.88006 0.83854 0.0
C1901 C 0.66744 0.87708 0.82261 0.0
C1902 C 0.70693 0.88715 0.8973 0.0
C1903 C 0.72129 0.87412 0.89056 0.0
C1904 C 0.71076 0.90345 0.92052 0.0
C1905 C 0.69652 0.91828 0.92676 0.0
C1906 C 0.68771 0.92677 0.89286 0.0
C1907 C 0.67415 0.94057 0.89896 0.0
C1908 C 0.66939 0.94612 0.93883 0.0
C1909 C 0.67821 0.9379 0.97268 0.0
C1910 C 0.69177 0.92407 0.96675 0.0
C1911 C 0.79538 0.90158 0.94055 0.0
C1912 C 0.79702 0.90626 0.98243 0.0
C1913 C 0.7779 0.89708 0.92371 0.0
C1914 C 0.76181 0.8969 0.94858 0.0
C1915 C 0.76354 0.90122 0.99054 0.0
C1916 C 0.78093 0.90586 0.00725 0.0
C1917 C 0.74303 0.89295 0.93085 0.0
C1918 C 0.72869 0.90605 0.9372 0.0
C1919 C 0.73924 0.87671 0.90731 0.0
C1920 C 0.75348 0.8619 0.90102 0.0
C1921 C 0.76223 0.85331 0.93487 0.0
C1922 C 0.77574 0.83946 0.92869 0.0
C1923 C 0.78051 0.83397 0.88879 0.0
C1924 C 0.77175 0.84229 0.85498 0.0
C1925 C 0.75824 0.85616 0.86099 0.0
H1926 H 0.79097 0.82325 0.88406 0.0
H1927 H 0.65888 0.9568 0.9435 0.0
H1928 H 0.9253 0.27485 0.76158 0.0
H1929 H 0.91517 0.24497 0.73286 0.0
H1930 H 0.89774 0.27285 0.62149 0.0
H1931 H 0.9077 0.30289 0.65044 0.0
H1932 H 0.87254 0.24735 0.64373 0.0
H1933 H 0.93878 0.24818 0.62534 0.0
H1934 H 0.97178 0.25179 0.64598 0.0
H1935 H 0.96608 0.20629 0.73126 0.0
H1936 H 0.93295 0.20259 0.71156 0.0
H1937 H 0.86852 0.16381 0.52279 0.0
H1938 H 0.8762 0.19462 0.55044 0.0
H1939 H 0.88968 0.16976 0.66765 0.0
H1940 H 0.88161 0.13888 0.64059 0.0
H1941 H 0.91693 0.19404 0.63997 0.0
H1942 H 0.85 0.19377 0.65695 0.0
H1943 H 0.81731 0.19039 0.63383 0.0
H1944 H 0.82497 0.23511 0.54731 0.0
H1945 H 0.8578 0.23858 0.56953 0.0
C1946 C 0.9194 0.27459 0.7309 0.0
C1947 C 0.91743 0.29118 0.70815 0.0
C1948 C 0.91361 0.25752 0.71451 0.0
C1949 C 0.90599 0.25662 0.67473 0.0
C1950 C 0.90361 0.27321 0.65223 0.0
C1951 C 0.90927 0.29037 0.66881 0.0
C1952 C 0.90068 0.2383 0.65671 0.0
C1953 C 0.88232 0.23577 0.64236 0.0
C1954 C 0.91337 0.2231 0.65544 0.0
C1955 C 0.93333 0.22522 0.66723 0.0
C1956 C 0.94452 0.23903 0.64872 0.0
C1957 C 0.96326 0.24108 0.66022 0.0
C1958 C 0.97101 0.22931 0.68998 0.0
C1959 C 0.96005 0.21542 0.70824 0.0
C1960 C 0.9413 0.21333 0.69689 0.0
C1961 C 0.87278 0.16489 0.55469 0.0
C1962 C 0.87439 0.14883 0.57951 0.0
C1963 C 0.87724 0.18252 0.57037 0.0
C1964 C 0.88341 0.18447 0.61113 0.0
C1965 C 0.88499 0.16853 0.63605 0.0
C1966 C 0.88043 0.15089 0.62047 0.0
C1967 C 0.88877 0.20306 0.62746 0.0
C1968 C 0.90716 0.20564 0.64135 0.0
C1969 C 0.87617 0.21832 0.62787 0.0
C1970 C 0.85641 0.21631 0.61462 0.0
C1971 C 0.84476 0.20278 0.63276 0.0
C1972 C 0.8262 0.20087 0.61986 0.0
C1973 C 0.81908 0.21249 0.58904 0.0
C1974 C 0.83051 0.22609 0.57114 0.0
C1975 C 0.84909 0.22805 0.5839 0.0
H1976 H 0.80471 0.21099 0.5791 0.0
H1977 H 0.98552 0.23091 0.69885 0.0
H1978 H 0.83239 0.37111 0.75847 0.0
H1979 H 0.8014 0.37631 0.78708 0.0
H1980 H 0.82544 0.38316 0.90796 0.0
H1981 H 0.85646 0.37662 0.88007 0.0
H1982 H 0.79439 0.36449 0.91437 0.0
H1983 H 0.81229 0.42106 0.84594 0.0
H1984 H 0.82315 0.44064 0.78825 0.0
H1985 H 0.77516 0.42449 0.71705 0.0
H1986 H 0.76415 0.4046 0.77414 0.0
H1987 H 0.72308 0.42116 0.00482 0.0
H1988 H 0.75201 0.40861 0.97529 0.0
H1989 H 0.72176 0.39171 0.86658 0.0
H1990 H 0.69271 0.40413 0.89631 0.0
H1991 H 0.75457 0.41375 0.85199 0.0
H1992 H 0.73591 0.35888 0.92626 0.0
H1993 H 0.72551 0.34117 0.98716 0.0
H1994 H 0.77572 0.3566 0.05135 0.0
H1995 H 0.78631 0.37465 0.99102 0.0
C1996 C 0.83114 0.37331 0.7913 0.0
C1997 C 0.84705 0.37345 0.8169 0.0
C1998 C 0.81336 0.37657 0.80754 0.0
C1999 C 0.81108 0.3805 0.84956 0.0
C2000 C 0.82684 0.38027 0.87539 0.0
C2001 C 0.84462 0.37674 0.85927 0.0
C2002 C 0.79235 0.38522 0.86644 0.0
C2003 C 0.78578 0.37539 0.90094 0.0
C2004 C 0.78092 0.39923 0.84853 0.0
C2005 C 0.78751 0.41118 0.81414 0.0
C2006 C 0.80413 0.42157 0.81786 0.0
C2007 C 0.8103 0.43274 0.78529 0.0
C2008 C 0.79988 0.43376 0.74896 0.0
C2009 C 0.78324 0.42365 0.74517 0.0
C2010 C 0.77702 0.41244 0.77763 0.0
C2011 C 0.72262 0.41458 0.97482 0.0
C2012 C 0.70573 0.41357 0.95281 0.0
C2013 C 0.73908 0.40736 0.9581 0.0
C2014 C 0.73896 0.39918 0.91886 0.0
C2015 C 0.72207 0.3979 0.89699 0.0
C2016 C 0.70551 0.40487 0.91404 0.0
C2017 C 0.75674 0.39308 0.89985 0.0
C2018 C 0.76315 0.40273 0.86507 0.0
C2019 C 0.76813 0.37916 0.91793 0.0
C2020 C 0.76183 0.36826 0.95422 0.0
C2021 C 0.74467 0.35864 0.95348 0.0
C2022 C 0.73875 0.34851 0.98788 0.0
C2023 C 0.74993 0.3478 0.02314 0.0
C2024 C 0.76707 0.35718 0.02403 0.0
C2025 C 0.77304 0.36735 0.98972 0.0
H2026 H 0.74532 0.33995 0.04973 0.0
H2027 H 0.80468 0.44242 0.72378 0.0
H2028 H 0.58687 0.22943 0.24665 0.0
H2029 H 0.58641 0.25944 0.21103 0.0
H2030 H 0.5747 0.23126 0.09639 0.0
H2031 H 0.57541 0.20101 0.13223 0.0
H2032 H 0.60469 0.25431 0.09067 0.0
H2033 H 0.54223 0.25995 0.13715 0.0
H2034 H 0.51596 0.25877 0.18615 0.0
H2035 H 0.54188 0.30149 0.2595 0.0
H2036 H 0.56846 0.30275 0.21128 0.0
H2037 H 0.60564 0.34396 0.99418 0.0
H2038 H 0.59481 0.31349 0.01828 0.0
H2039 H 0.60593 0.3299 0.14365 0.0
H2040 H 0.61712 0.36036 0.11978 0.0
H2041 H 0.57184 0.312 0.135 0.0
H2042 H 0.63615 0.30245 0.09394 0.0
H2043 H 0.66272 0.3033 0.04566 0.0
H2044 H 0.63295 0.26744 0.96224 0.0
H2045 H 0.60607 0.2666 0.00982 0.0
C2046 C 0.58391 0.22967 0.21398 0.0
C2047 C 0.58133 0.21293 0.19211 0.0
C2048 C 0.58349 0.24683 0.19369 0.0
C2049 C 0.58044 0.24761 0.15107 0.0
C2050 C 0.57702 0.23096 0.12934 0.0
C2051 C 0.5773 0.21373 0.14981 0.0
C2052 C 0.58294 0.26562 0.12919 0.0
C2053 C 0.59716 0.26684 0.09957 0.0
C2054 C 0.57339 0.28203 0.14149 0.0
C2055 C 0.55742 0.28136 0.17066 0.0
C2056 C 0.54241 0.269 0.16389 0.0
C2057 C 0.52745 0.26834 0.19151 0.0
C2058 C 0.52726 0.28003 0.22595 0.0
C2059 C 0.54204 0.29244 0.2328 0.0
C2060 C 0.55705 0.29316 0.20529 0.0
C2061 C 0.60602 0.34104 0.02686 0.0
C2062 C 0.61247 0.35454 0.05504 0.0
C2063 C 0.59968 0.32365 0.04057 0.0
C2064 C 0.59968 0.31941 0.0827 0.0
C2065 C 0.60576 0.33294 0.11099 0.0
C2066 C 0.61215 0.35033 0.0973 0.0
C2067 C 0.59385 0.30067 0.09732 0.0
C2068 C 0.57906 0.29937 0.12555 0.0
C2069 C 0.60286 0.28417 0.08377 0.0
C2070 C 0.61901 0.28465 0.05519 0.0
C2071 C 0.6352 0.29488 0.06513 0.0
C2072 C 0.65033 0.29534 0.03793 0.0
C2073 C 0.6495 0.28548 1.00084 0.0
C2074 C 0.63355 0.2751 0.99094 0.0
C2075 C 0.61837 0.27463 0.01801 0.0
H2076 H 0.66123 0.28584 0.97983 0.0
H2077 H 0.51566 0.2795 0.24729 0.0
H2078 H 0.63924 0.09121 0.34652 0.0
H2079 H 0.66857 0.08356 0.38151 0.0
H2080 H 0.69256 0.13557 0.33976 0.0
H2081 H 0.66332 0.14325 0.30458 0.0
H2082 H 0.71639 0.10754 0.32838 0.0
H2083 H 0.67855 0.12973 0.4398 0.0
H2084 H 0.65058 0.1311 0.48404 0.0
H2085 H 0.65892 0.07384 0.51929 0.0
H2086 H 0.68681 0.07204 0.47477 0.0
H2087 H 0.79654 0.10553 0.45825 0.0
H2088 H 0.76698 0.11456 0.42599 0.0
H2089 H 0.74281 0.06162 0.46071 0.0
H2090 H 0.7723 0.05238 0.49247 0.0
H2091 H 0.71921 0.0908 0.47642 0.0
H2092 H 0.75675 0.06866 0.36367 0.0
H2093 H 0.78478 0.06752 0.31958 0.0
H2094 H 0.77698 0.1252 0.28721 0.0
H2095 H 0.74904 0.12676 0.33162 0.0
C2096 C 0.6507 0.1011 0.34518 0.0
C2097 C 0.64898 0.11784 0.32283 0.0
C2098 C 0.66745 0.09671 0.36516 0.0
C2099 C 0.6827 0.10908 0.36358 0.0
C2100 C 0.681 0.1258 0.34131 0.0
C2101 C 0.6643 0.13015 0.32117 0.0
C2102 C 0.70057 0.10443 0.38439 0.0
C2103 C 0.71704 0.10415 0.36089 0.0
C2104 C 0.70136 0.09963 0.42662 0.0
C2105 C 0.68467 0.1007 0.45364 0.0
C2106 C 0.67434 0.11739 0.45674 0.0
C2107 C 0.65852 0.11825 0.48191 0.0
C2108 C 0.65295 0.10255 0.50438 0.0
C2109 C 0.66324 0.08598 0.50182 0.0
C2110 C 0.67906 0.08504 0.47666 0.0
C2111 C 0.785 0.09574 0.45871 0.0
C2112 C 0.78687 0.07819 0.47786 0.0
C2113 C 0.7681 0.10095 0.4404 0.0
C2114 C 0.75276 0.0887 0.44072 0.0
C2115 C 0.75447 0.07131 0.46026 0.0
C2116 C 0.77135 0.06607 0.47852 0.0
C2117 C 0.73496 0.0939 0.42037 0.0
C2118 C 0.71853 0.09426 0.44395 0.0
C2119 C 0.7342 0.09882 0.37824 0.0
C2120 C 0.75092 0.09788 0.3513 0.0
C2121 C 0.7611 0.08114 0.34741 0.0
C2122 C 0.77696 0.08041 0.32232 0.0
C2123 C 0.78269 0.09629 0.30069 0.0
C2124 C 0.77254 0.11292 0.30403 0.0
C2125 C 0.75669 0.11373 0.32913 0.0
H2126 H 0.79497 0.0957 0.28128 0.0
H2127 H 0.64069 0.10324 0.52384 0.0
H2128 H 0.60571 0.80342 0.7227 0.0
H2129 H 0.61388 0.77406 0.68855 0.0
H2130 H 0.55984 0.75137 0.71965 0.0
H2131 H 0.55135 0.78065 0.75279 0.0
H2132 H 0.58906 0.72682 0.73602 0.0
H2133 H 0.56725 0.76606 0.62506 0.0
H2134 H 0.56696 0.79452 0.58225 0.0
H2135 H 0.62423 0.78496 0.54852 0.0
H2136 H 0.62494 0.75657 0.59165 0.0
H2137 H 0.58545 0.64746 0.60603 0.0
H2138 H 0.57927 0.67693 0.64181 0.0
H2139 H 0.63062 0.69988 0.59358 0.0
H2140 H 0.63659 0.6706 0.557 0.0
H2141 H 0.6041 0.72463 0.58707 0.0
H2142 H 0.62626 0.68518 0.69558 0.0
H2143 H 0.62731 0.65689 0.73888 0.0
H2144 H 0.57089 0.66693 0.77837 0.0
H2145 H 0.56941 0.69515 0.73484 0.0
C2146 C 0.59547 0.79228 0.72195 0.0
C2147 C 0.57784 0.79452 0.74054 0.0
C2148 C 0.60021 0.77548 0.70258 0.0
C2149 C 0.58742 0.7606 0.7015 0.0
C2150 C 0.56994 0.76267 0.72037 0.0
C2151 C 0.56514 0.77946 0.73948 0.0
C2152 C 0.59212 0.74287 0.68039 0.0
C2153 C 0.59218 0.72627 0.70337 0.0
C2154 C 0.59665 0.74231 0.63807 0.0
C2155 C 0.59621 0.75931 0.61193 0.0
C2156 C 0.57983 0.77011 0.60879 0.0
C2157 C 0.57958 0.78622 0.58442 0.0
C2158 C 0.59559 0.79158 0.56277 0.0
C2159 C 0.61186 0.78081 0.56536 0.0
C2160 C 0.61218 0.76471 0.58974 0.0
C2161 C 0.59546 0.65877 0.60335 0.0
C2162 C 0.6115 0.65677 0.57883 0.0
C2163 C 0.59195 0.67558 0.62384 0.0
C2164 C 0.60462 0.69056 0.62085 0.0
C2165 C 0.62064 0.68855 0.59633 0.0
C2166 C 0.62403 0.67183 0.57544 0.0
C2167 C 0.60099 0.70844 0.64263 0.0
C2168 C 0.60111 0.72511 0.61978 0.0
C2169 C 0.59678 0.70908 0.68518 0.0
C2170 C 0.59768 0.69219 0.71165 0.0
C2171 C 0.61403 0.68129 0.71328 0.0
C2172 C 0.61471 0.66527 0.73789 0.0
C2173 C 0.59916 0.66009 0.76128 0.0
C2174 C 0.58292 0.67095 0.7602 0.0
C2175 C 0.58216 0.68697 0.73559 0.0
H2176 H 0.59971 0.64768 0.78031 0.0
H2177 H 0.59537 0.80405 0.54391 0.0
H2178 H 0.33886 0.09123 0.74985 0.0
H2179 H 0.30912 0.08183 0.78031 0.0
H2180 H 0.33051 0.09445 0.90123 0.0
H2181 H 0.36015 0.10461 0.871 0.0
H2182 H 0.30912 0.0599 0.89493 0.0
H2183 H 0.30504 0.1255 0.86091 0.0
H2184 H 0.30753 0.15273 0.81471 0.0
H2185 H 0.26671 0.12848 0.73369 0.0
H2186 H 0.2642 0.10094 0.77912 0.0
H2187 H 0.22608 0.07073 0.01057 0.0
H2188 H 0.25642 0.07291 0.97699 0.0
H2189 H 0.22946 0.07155 0.85819 0.0
H2190 H 0.19893 0.07032 0.89166 0.0
H2191 H 0.25376 0.0987 0.86028 0.0
H2192 H 0.25578 0.03408 0.89564 0.0
H2193 H 0.25325 0.00643 0.94057 0.0
H2194 H 0.29745 0.02761 0.01703 0.0
H2195 H 0.30008 0.05554 0.97289 0.0
C2196 C 0.33728 0.09212 0.78293 0.0
C2197 C 0.35186 0.09898 0.80789 0.0
C2198 C 0.3203 0.08658 0.80027 0.0
C2199 C 0.31761 0.0876 0.84292 0.0
C2200 C 0.33237 0.09353 0.8682 0.0
C2201 C 0.34932 0.09927 0.85084 0.0
C2202 C 0.29901 0.0836 0.86078 0.0
C2203 C 0.29701 0.06843 0.88776 0.0
C2204 C 0.28318 0.09448 0.85039 0.0
C2205 C 0.2846 0.11107 0.82316 0.0
C2206 C 0.29673 0.12589 0.83304 0.0
C2207 C 0.29812 0.1414 0.80703 0.0
C2208 C 0.28733 0.14231 0.77122 0.0
C2209 C 0.27509 0.12773 0.7614 0.0
C2210 C 0.27367 0.11218 0.78727 0.0
C2211 C 0.22655 0.07088 0.9773 0.0
C2212 C 0.20998 0.07052 0.95392 0.0
C2213 C 0.24398 0.07189 0.95809 0.0
C2214 C 0.24528 0.07222 0.91501 0.0
C2215 C 0.22881 0.07127 0.89149 0.0
C2216 C 0.21134 0.0704 0.91072 0.0
C2217 C 0.2637 0.07492 0.89473 0.0
C2218 C 0.26574 0.08995 0.8673 0.0
C2219 C 0.2795 0.0638 0.90454 0.0
C2220 C 0.27802 0.04699 0.93111 0.0
C2221 C 0.26487 0.03292 0.92221 0.0
C2222 C 0.26343 0.01718 0.94751 0.0
C2223 C 0.27515 0.01528 0.98168 0.0
C2224 C 0.28837 0.0291 0.99057 0.0
C2225 C 0.28986 0.04488 0.96538 0.0
H2226 H 0.27402 0.00308 1.00124 0.0
H2227 H 0.28842 0.15433 0.75113 0.0
H2228 H 0.86167 0.83248 0.08935 0.0
H2229 H 0.86977 0.80191 0.11782 0.0
H2230 H 0.92831 0.81333 0.0981 0.0
H2231 H 0.92028 0.84391 0.06885 0.0
H2232 H 0.91811 0.77702 0.07492 0.0
H2233 H 0.91242 0.81691 0.19192 0.0
H2234 H 0.8975 0.84051 0.2364 0.0
H2235 H 0.85041 0.80416 0.25446 0.0
H2236 H 0.86492 0.78043 0.20956 0.0
H2237 H 0.9397 0.69559 0.19969 0.0
H2238 H 0.9396 0.7272 0.16978 0.0
H2239 H 0.87991 0.73047 0.18819 0.0
H2240 H 0.88003 0.69933 0.2182 0.0
H2241 H 0.89613 0.7611 0.21537 0.0
H2242 H 0.90049 0.7227 0.0923 0.0
H2243 H 0.91538 0.69911 0.04766 0.0
H2244 H 0.96518 0.73256 0.04142 0.0
H2245 H 0.95066 0.75624 0.08653 0.0
C2246 C 0.87626 0.82844 0.09077 0.0
C2247 C 0.89034 0.84065 0.07706 0.0
C2248 C 0.88088 0.81102 0.10726 0.0
C2249 C 0.89966 0.80544 0.11041 0.0
C2250 C 0.91375 0.81741 0.09604 0.0
C2251 C 0.90914 0.83492 0.07972 0.0
C2252 C 0.90439 0.78721 0.12949 0.0
C2253 C 0.91361 0.77359 0.10588 0.0
C2254 C 0.89843 0.78277 0.16979 0.0
C2255 C 0.88971 0.79694 0.19712 0.0
C2256 C 0.89882 0.81399 0.20514 0.0
C2257 C 0.89045 0.82739 0.23046 0.0
C2258 C 0.873 0.82385 0.24819 0.0
C2259 C 0.86392 0.80688 0.24069 0.0
C2260 C 0.87222 0.79345 0.21534 0.0
C2261 C 0.92659 0.70307 0.19696 0.0
C2262 C 0.90991 0.69511 0.21173 0.0
C2263 C 0.92653 0.72109 0.17991 0.0
C2264 C 0.90973 0.73124 0.17683 0.0
C2265 C 0.89307 0.72304 0.19067 0.0
C2266 C 0.89316 0.70523 0.20793 0.0
C2267 C 0.90918 0.75058 0.16026 0.0
C2268 C 0.90084 0.76452 0.18454 0.0
C2269 C 0.91594 0.75525 0.12063 0.0
C2270 C 0.92457 0.74113 0.09315 0.0
C2271 C 0.91466 0.72496 0.08163 0.0
C2272 C 0.92302 0.71159 0.05621 0.0
C2273 C 0.94123 0.71432 0.04177 0.0
C2274 C 0.95108 0.73047 0.05263 0.0
C2275 C 0.94279 0.74386 0.07812 0.0
H2276 H 0.9477 0.70393 0.02218 0.0
H2277 H 0.86654 0.83424 0.26778 0.0
H2278 H 0.30642 0.39078 0.45579 0.0
H2279 H 0.27794 0.37803 0.42429 0.0
H2280 H 0.25472 0.43358 0.417 0.0
H2281 H 0.28304 0.44639 0.44748 0.0
H2282 H 0.23055 0.40869 0.45206 0.0
H2283 H 0.27028 0.41235 0.33247 0.0
H2284 H 0.29862 0.40571 0.29183 0.0
H2285 H 0.28722 0.34684 0.29862 0.0
H2286 H 0.25895 0.35312 0.33992 0.0
H2287 H 0.15327 0.40206 0.32132 0.0
H2288 H 0.18389 0.40926 0.35031 0.0
H2289 H 0.1986 0.35079 0.34669 0.0
H2290 H 0.16776 0.34342 0.31756 0.0
H2291 H 0.22753 0.37336 0.32078 0.0
H2292 H 0.18647 0.37003 0.43657 0.0
H2293 H 0.15802 0.37695 0.47659 0.0
H2294 H 0.172 0.43534 0.47712 0.0
H2295 H 0.20041 0.42881 0.43657 0.0
C2296 C 0.29535 0.40028 0.44693 0.0
C2297 C 0.29697 0.41959 0.45461 0.0
C2298 C 0.27908 0.39298 0.42905 0.0
C2299 C 0.2642 0.40487 0.41847 0.0
C2300 C 0.26596 0.42414 0.4253 0.0
C2301 C 0.28217 0.43143 0.44298 0.0
C2302 C 0.24645 0.39739 0.4016 0.0
C2303 C 0.22988 0.40108 0.4232 0.0
C2304 C 0.24567 0.38697 0.36461 0.0
C2305 C 0.26263 0.38319 0.33972 0.0
C2306 C 0.27391 0.39798 0.32565 0.0
C2307 C 0.28994 0.39428 0.30242 0.0
C2308 C 0.29475 0.37586 0.29275 0.0
C2309 C 0.2835 0.3611 0.30621 0.0
C2310 C 0.26747 0.36472 0.32951 0.0
C2311 C 0.16291 0.39068 0.32706 0.0
C2312 C 0.15797 0.37212 0.31776 0.0
C2313 C 0.18045 0.39483 0.34347 0.0
C2314 C 0.19341 0.38052 0.35129 0.0
C2315 C 0.18877 0.36203 0.34102 0.0
C2316 C 0.17117 0.35785 0.32441 0.0
C2317 C 0.21161 0.38507 0.37082 0.0
C2318 C 0.22824 0.38078 0.34986 0.0
C2319 C 0.2125 0.39496 0.40849 0.0
C2320 C 0.19551 0.39893 0.43328 0.0
C2321 C 0.18342 0.38436 0.44499 0.0
C2322 C 0.1673 0.38821 0.4678 0.0
C2323 C 0.16318 0.40658 0.47933 0.0
C2324 C 0.1752 0.42113 0.46816 0.0
C2325 C 0.19133 0.41735 0.4453 0.0
H2326 H 0.1507 0.40954 0.49697 0.0
H2327 H 0.30716 0.37303 0.27474 0.0
H2328 H 0.41095 0.7864 0.29505 0.0
H2329 H 0.41013 0.75668 0.25859 0.0
H2330 H 0.41689 0.78558 0.14303 0.0
H2331 H 0.4169 0.81555 0.17933 0.0
H2332 H 0.38959 0.76112 0.13731 0.0
H2333 H 0.4524 0.75845 0.18483 0.0
H2334 H 0.47836 0.76038 0.23465 0.0
H2335 H 0.45438 0.71548 0.30464 0.0
H2336 H 0.42812 0.71344 0.25557 0.0
H2337 H 0.39931 0.67527 0.0279 0.0
H2338 H 0.40684 0.70552 0.05858 0.0
H2339 H 0.39315 0.68398 0.17872 0.0
H2340 H 0.38503 0.65377 0.14823 0.0
H2341 H 0.4264 0.70517 0.17725 0.0
H2342 H 0.36232 0.71015 0.13121 0.0
H2343 H 0.33686 0.70832 0.08011 0.0
H2344 H 0.36456 0.74931 0.00525 0.0
H2345 H 0.39033 0.75118 0.05567 0.0
C2346 C 0.41228 0.78648 0.26189 0.0
C2347 C 0.41383 0.80343 0.24019 0.0
C2348 C 0.41205 0.76941 0.24107 0.0
C2349 C 0.41362 0.76882 0.19804 0.0
C2350 C 0.4157 0.78567 0.17627 0.0
C2351 C 0.41586 0.80281 0.19712 0.0
C2352 C 0.41181 0.7507 0.17589 0.0
C2353 C 0.39793 0.749 0.14549 0.0
C2354 C 0.42242 0.73475 0.18703 0.0
C2355 C 0.4382 0.7359 0.21665 0.0
C2356 C 0.45258 0.74908 0.21102 0.0
C2357 C 0.46736 0.75018 0.2391 0.0
C2358 C 0.468 0.73809 0.27284 0.0
C2359 C 0.45386 0.72484 0.27851 0.0
C2360 C 0.43904 0.72369 0.25054 0.0
C2361 C 0.3977 0.67696 0.06081 0.0
C2362 C 0.39134 0.66207 0.08549 0.0
C2363 C 0.40215 0.69425 0.07831 0.0
C2364 C 0.40042 0.69702 0.12086 0.0
C2365 C 0.39462 0.6821 0.1458 0.0
C2366 C 0.39004 0.66482 0.1283 0.0
C2367 C 0.4041 0.71566 0.13923 0.0
C2368 C 0.41827 0.7174 0.16887 0.0
C2369 C 0.39388 0.73169 0.1272 0.0
C2370 C 0.37835 0.73064 0.09698 0.0
C2371 C 0.36306 0.71865 0.10368 0.0
C2372 C 0.34856 0.71763 0.07487 0.0
C2373 C 0.34912 0.72865 0.03939 0.0
C2374 C 0.36416 0.74075 0.03271 0.0
C2375 C 0.37871 0.74181 0.0614 0.0
H2376 H 0.33788 0.72784 0.01713 0.0
H2377 H 0.47946 0.73896 0.29454 0.0
H2378 H 0.18885 0.93313 0.44007 0.0
H2379 H 0.22145 0.93906 0.42169 0.0
H2380 H 0.23769 0.88739 0.48026 0.0
H2381 H 0.20556 0.88209 0.50118 0.0
H2382 H 0.26391 0.91101 0.49148 0.0
H2383 H 0.22729 0.89186 0.37263 0.0
H2384 H 0.20156 0.89497 0.32244 0.0
H2385 H 0.22238 0.94879 0.286 0.0
H2386 H 0.24812 0.94608 0.33637 0.0
H2387 H 0.33463 0.87105 0.36596 0.0
H2388 H 0.30432 0.87913 0.39646 0.0
H2389 H 0.31328 0.93714 0.36613 0.0
H2390 H 0.34393 0.92916 0.33645 0.0
H2391 H 0.27588 0.91773 0.34181 0.0
H2392 H 0.31655 0.93228 0.45529 0.0
H2393 H 0.34243 0.92601 0.50354 0.0
H2394 H 0.31386 0.87722 0.548 0.0
H2395 H 0.28794 0.88303 0.4995 0.0
C2396 C 0.1994 0.92327 0.44998 0.0
C2397 C 0.19444 0.90688 0.47137 0.0
C2398 C 0.21805 0.92659 0.43903 0.0
C2399 C 0.232 0.91342 0.44856 0.0
C2400 C 0.22722 0.89771 0.47215 0.0
C2401 C 0.20871 0.89455 0.48366 0.0
C2402 C 0.25129 0.91502 0.43183 0.0
C2403 C 0.26648 0.91253 0.45875 0.0
C2404 C 0.25478 0.91734 0.38916 0.0
C2405 C 0.23947 0.91888 0.35858 0.0
C2406 C 0.22631 0.9044 0.35406 0.0
C2407 C 0.21174 0.90608 0.32558 0.0
C2408 C 0.2103 0.9221 0.30115 0.0
C2409 C 0.22348 0.93642 0.30502 0.0
C2410 C 0.23807 0.93482 0.33351 0.0
C2411 C 0.33012 0.88552 0.36592 0.0
C2412 C 0.34153 0.89951 0.349 0.0
C2413 C 0.3129 0.89011 0.38337 0.0
C2414 C 0.30668 0.90871 0.38355 0.0
C2415 C 0.31793 0.92272 0.36629 0.0
C2416 C 0.33538 0.91818 0.34956 0.0
C2417 C 0.28822 0.9132 0.40138 0.0
C2418 C 0.27326 0.91674 0.37463 0.0
C2419 C 0.28489 0.91147 0.44403 0.0
C2420 C 0.30036 0.90802 0.47352 0.0
C2421 C 0.31586 0.92012 0.4751 0.0
C2422 C 0.33052 0.91667 0.50254 0.0
C2423 C 0.32981 0.9012 0.52877 0.0
C2424 C 0.3144 0.88919 0.52765 0.0
C2425 C 0.2997 0.89257 0.50023 0.0
H2426 H 0.34117 0.89855 0.54999 0.0
H2427 H 0.19899 0.92339 0.27916 0.0
H2428 H 0.10099 0.85487 0.62599 0.0
H2429 H 0.09554 0.82536 0.66145 0.0
H2430 H 0.06849 0.80323 0.55322 0.0
H2431 H 0.07301 0.83311 0.51807 0.0
H2432 H 0.05149 0.79072 0.62194 0.0
H2433 H 0.1143 0.79437 0.57128 0.0
H2434 H 0.14546 0.8085 0.56168 0.0
H2435 H 0.15503 0.80657 0.69208 0.0
H2436 H 0.1238 0.79267 0.70251 0.0
H2437 H 0.0701 0.69358 0.66441 0.0
H2438 H 0.06673 0.72495 0.63523 0.0
H2439 H 0.09208 0.74861 0.74391 0.0
H2440 H 0.09533 0.71738 0.77333 0.0
H2441 H 0.10911 0.76029 0.67453 0.0
H2442 H 0.0459 0.75498 0.72372 0.0
H2443 H 0.01494 0.74013 0.73086 0.0
H2444 H 0.00649 0.74392 0.60028 0.0
H2445 H 0.03752 0.75856 0.59229 0.0
C2446 C 0.09342 0.84395 0.60998 0.0
C2447 C 0.08765 0.84634 0.56891 0.0
C2448 C 0.09049 0.82698 0.63021 0.0
C2449 C 0.08198 0.81195 0.60967 0.0
C2450 C 0.07523 0.81459 0.56954 0.0
C2451 C 0.07802 0.83163 0.54935 0.0
C2452 C 0.08136 0.79316 0.62902 0.0
C2453 C 0.0641 0.78397 0.63311 0.0
C2454 C 0.09779 0.78441 0.6439 0.0
C2455 C 0.11664 0.79266 0.6377 0.0
C2456 C 0.123 0.79708 0.59793 0.0
C2457 C 0.14068 0.80504 0.59234 0.0
C2458 C 0.1522 0.80848 0.62626 0.0
C2459 C 0.14608 0.80392 0.66584 0.0
C2460 C 0.1284 0.796 0.67161 0.0
C2461 C 0.07456 0.70549 0.68248 0.0
C2462 C 0.08315 0.70296 0.72106 0.0
C2463 C 0.07265 0.72342 0.66573 0.0
C2464 C 0.07917 0.73912 0.6874 0.0
C2465 C 0.08706 0.73668 0.72656 0.0
C2466 C 0.08898 0.71881 0.74326 0.0
C2467 C 0.07922 0.75792 0.66811 0.0
C2468 C 0.09646 0.76707 0.66368 0.0
C2469 C 0.0628 0.76646 0.65262 0.0
C2470 C 0.04412 0.7577 0.65737 0.0
C2471 C 0.03751 0.7525 0.69649 0.0
C2472 C 0.01993 0.74415 0.70069 0.0
C2473 C 0.00877 0.74104 0.66603 0.0
C2474 C 0.01515 0.74632 0.6271 0.0
C2475 C 0.03273 0.75466 0.62272 0.0
H2476 H 0.99517 0.73457 0.66936 0.0
H2477 H 0.16588 0.81463 0.62187 0.0
H2478 H 0.30815 0.57801 0.90548 0.0
H2479 H 0.27811 0.57361 0.87015 0.0
H2480 H 0.24892 0.58998 0.98057 0.0
H2481 H 0.27871 0.59388 0.01609 0.0
H2482 H 0.23049 0.56224 0.94166 0.0
H2483 H 0.25871 0.62177 0.90544 0.0
H2484 H 0.28378 0.64179 0.87759 0.0
H2485 H 0.27971 0.61383 0.76096 0.0
H2486 H 0.25476 0.59347 0.78834 0.0
H2487 H 0.14593 0.60532 0.87912 0.0
H2488 H 0.17655 0.59669 0.90662 0.0
H2489 H 0.19509 0.58168 0.78475 0.0
H2490 H 0.16441 0.59003 0.75705 0.0
H2491 H 0.21994 0.60412 0.82219 0.0
H2492 H 0.1877 0.54803 0.85615 0.0
H2493 H 0.16228 0.52867 0.88458 0.0
H2494 H 0.17343 0.55019 0.0055 0.0
H2495 H 0.19875 0.56991 0.97771 0.0
C2496 C 0.29532 0.58027 0.92242 0.0
C2497 C 0.2958 0.58662 0.96339 0.0
C2498 C 0.27817 0.57787 0.90214 0.0
C2499 C 0.26126 0.58178 0.92253 0.0
C2500 C 0.26175 0.58697 0.96413 0.0
C2501 C 0.27881 0.58938 0.98429 0.0
C2502 C 0.24311 0.58204 0.90021 0.0
C2503 C 0.22815 0.57141 0.91557 0.0
C2504 C 0.24015 0.59368 0.86558 0.0
C2505 C 0.25505 0.60597 0.84905 0.0
C2506 C 0.26326 0.61981 0.87394 0.0
C2507 C 0.27743 0.63123 0.85824 0.0
C2508 C 0.28338 0.62905 0.81757 0.0
C2509 C 0.27512 0.61547 0.79248 0.0
C2510 C 0.26096 0.604 0.80807 0.0
C2511 C 0.15638 0.59983 0.85825 0.0
C2512 C 0.1527 0.59847 0.81582 0.0
C2513 C 0.17391 0.59492 0.87402 0.0
C2514 C 0.18811 0.58843 0.84778 0.0
C2515 C 0.18438 0.5867 0.80556 0.0
C2516 C 0.16684 0.59157 0.78977 0.0
C2517 C 0.20716 0.5846 0.86413 0.0
C2518 C 0.2223 0.59463 0.84772 0.0
C2519 C 0.21023 0.57244 0.89784 0.0
C2520 C 0.19505 0.56056 0.91477 0.0
C2521 C 0.18465 0.54875 0.88876 0.0
C2522 C 0.17027 0.53769 0.90477 0.0
C2523 C 0.16622 0.53823 0.94681 0.0
C2524 C 0.17657 0.5498 0.97294 0.0
C2525 C 0.19096 0.5609 0.95708 0.0
H2526 H 0.15508 0.52965 0.95914 0.0
H2527 H 0.29435 0.6379 0.80546 0.0
loop_
_geom_bond_atom_site_label_1
_geom_bond_atom_site_label_2
_geom_bond_distance
_geom_bond_site_symmetry_2
_ccdc_geom_bond_type
C0 C1 1.351 . S
C0 N3 1.368 . S
C0 H5 0.931 . S
C1 C0 1.351 . S
C1 N2 1.373 1_556 S
C1 H29 0.930 . S
N2 C1 1.373 1_554 S
N2 C4 1.340 . S
N3 C0 1.368 . S
N3 C4 1.321 1_556 S
N3 Co6 2.135 . S
C4 N2 1.340 . S
C4 N3 1.321 1_554 S
C4 H28 0.930 . S
H5 C0 0.931 . S
Co6 N3 2.135 . S
Co6 N9 2.121 . S
Co6 O14 2.055 . S
Co6 O17 2.039 1_556 S
Co6 N20 2.140 1_556 S
C7 O8 1.227 . S
C7 O17 1.265 . S
O8 C7 1.227 . S
N9 Co6 2.121 . S
N9 C11 1.375 1_556 S
N9 C12 1.313 . S
C10 C11 1.338 . S
C10 N13 1.377 1_554 S
C10 H30 0.930 . S
C11 N9 1.375 1_554 S
C11 C10 1.338 . S
C11 H15 0.931 . S
C12 N9 1.313 . S
C12 N13 1.344 . S
C12 H16 0.930 . S
N13 C10 1.377 1_556 S
N13 C12 1.344 . S
O14 Co6 2.055 . S
O14 C18 1.253 . S
H15 C11 0.931 . S
H16 C12 0.930 . S
O17 Co6 2.039 1_554 S
O17 C7 1.265 . S
C18 O14 1.253 . S
C18 O19 1.227 . S
O19 C18 1.227 . S
N20 Co6 2.140 1_554 S
N20 C23 1.346 . S
N20 C24 1.345 1_554 S
C21 C22 1.387 . S
C21 C25 1.391 1_554 S
C22 C21 1.387 . S
C22 C23 1.369 . S
C22 H31 0.929 . S
C23 N20 1.346 . S
C23 C22 1.369 . S
C23 H26 0.928 . S
C24 N20 1.345 1_556 S
C24 C25 1.371 . S
C24 H27 0.931 . S
C25 C21 1.391 1_556 S
C25 C24 1.371 . S
C25 H32 0.930 . S
H26 C23 0.928 . S
H27 C24 0.931 . S
H28 C4 0.930 . S
H29 C1 0.930 . S
H30 C10 0.930 . S
H31 C22 0.929 . S
H32 C25 0.930 . S
C33 C34 1.351 . S
C33 N36 1.368 . S
C33 H38 0.931 . S
C34 C33 1.351 . S
C34 N35 1.373 . S
C34 H62 0.930 . S
N35 C34 1.373 . S
N35 C37 1.340 . S
N36 C33 1.368 . S
N36 C37 1.321 . S
N36 Co39 2.135 . S
C37 N35 1.340 . S
C37 N36 1.321 . S
C37 H61 0.930 . S
H38 C33 0.931 . S
Co39 N36 2.135 . S
Co39 N42 2.121 . S
Co39 O47 2.055 . S
Co39 O50 2.039 . S
Co39 N53 2.140 . S
C40 O41 1.227 . S
C40 O50 1.265 . S
O41 C40 1.227 . S
N42 Co39 2.121 . S
N42 C44 1.375 . S
N42 C45 1.313 . S
C43 C44 1.338 . S
C43 N46 1.377 . S
C43 H63 0.930 . S
C44 N42 1.375 . S
C44 C43 1.338 . S
C44 H48 0.931 . S
C45 N42 1.313 . S
C45 N46 1.344 . S
C45 H49 0.930 . S
N46 C43 1.377 . S
N46 C45 1.344 . S
O47 Co39 2.055 . S
O47 C51 1.253 . S
H48 C44 0.931 . S
H49 C45 0.930 . S
O50 Co39 2.039 . S
O50 C40 1.265 . S
C51 O47 1.253 . S
C51 O52 1.227 . S
O52 C51 1.227 . S
N53 Co39 2.140 . S
N53 C56 1.346 . S
N53 C57 1.345 . S
C54 C55 1.387 . S
C54 C58 1.391 . S
C55 C54 1.387 . S
C55 C56 1.369 . S
C55 H64 0.929 . S
C56 N53 1.346 . S
C56 C55 1.369 . S
C56 H59 0.928 . S
C57 N53 1.345 . S
C57 C58 1.371 . S
C57 H60 0.931 . S
C58 C54 1.391 . S
C58 C57 1.371 . S
C58 H65 0.930 . S
H59 C56 0.928 . S
H60 C57 0.931 . S
H61 C37 0.930 . S
H62 C34 0.930 . S
H63 C43 0.930 . S
H64 C55 0.929 . S
H65 C58 0.930 . S
C66 C67 1.351 . S
C66 N69 1.368 . S
C66 H71 0.931 . S
C67 C66 1.351 . S
C67 N68 1.373 . S
C67 H95 0.930 . S
N68 C67 1.373 . S
N68 C70 1.340 . S
N69 C66 1.368 . S
N69 C70 1.321 . S
N69 Co72 2.135 . S
C70 N68 1.340 . S
C70 N69 1.321 . S
C70 H94 0.930 . S
H71 C66 0.931 . S
Co72 N69 2.135 . S
Co72 N75 2.121 . S
Co72 O80 2.055 . S
Co72 O83 2.039 . S
Co72 N86 2.140 . S
C73 O74 1.227 . S
C73 O83 1.265 . S
O74 C73 1.227 . S
N75 Co72 2.121 . S
N75 C77 1.375 . S
N75 C78 1.313 . S
C76 C77 1.338 . S
C76 N79 1.377 . S
C76 H96 0.930 . S
C77 N75 1.375 . S
C77 C76 1.338 . S
C77 H81 0.931 . S
C78 N75 1.313 . S
C78 N79 1.344 . S
C78 H82 0.930 . S
N79 C76 1.377 . S
N79 C78 1.344 . S
O80 Co72 2.055 . S
O80 C84 1.253 . S
H81 C77 0.931 . S
H82 C78 0.930 . S
O83 Co72 2.039 . S
O83 C73 1.265 . S
C84 O80 1.253 . S
C84 O85 1.227 . S
O85 C84 1.227 . S
N86 Co72 2.140 . S
N86 C89 1.346 . S
N86 C90 1.345 . S
C87 C88 1.387 . S
C87 C91 1.391 . S
C88 C87 1.387 . S
C88 C89 1.369 . S
C88 H97 0.929 . S
C89 N86 1.346 . S
C89 C88 1.369 . S
C89 H92 0.928 . S
C90 N86 1.345 . S
C90 C91 1.371 . S
C90 H93 0.931 . S
C91 C87 1.391 . S
C91 C90 1.371 . S
C91 H98 0.930 . S
H92 C89 0.928 . S
H93 C90 0.931 . S
H94 C70 0.930 . S
H95 C67 0.930 . S
H96 C76 0.930 . S
H97 C88 0.929 . S
H98 C91 0.930 . S
C99 C100 1.351 . S
C99 N102 1.368 . S
C99 H104 0.931 . S
C100 C99 1.351 . S
C100 N101 1.373 . S
C100 H128 0.930 . S
N101 C100 1.373 . S
N101 C103 1.340 . S
N102 C99 1.368 . S
N102 C103 1.321 . S
N102 Co105 2.135 . S
C103 N101 1.340 . S
C103 N102 1.321 . S
C103 H127 0.930 . S
H104 C99 0.931 . S
Co105 N102 2.135 . S
Co105 N108 2.121 . S
Co105 O113 2.055 . S
Co105 O116 2.039 . S
Co105 N119 2.140 . S
C106 O107 1.227 . S
C106 O116 1.265 . S
O107 C106 1.227 . S
N108 Co105 2.121 . S
N108 C110 1.375 . S
N108 C111 1.313 . S
C109 C110 1.338 . S
C109 N112 1.377 . S
C109 H129 0.930 . S
C110 N108 1.375 . S
C110 C109 1.338 . S
C110 H114 0.931 . S
C111 N108 1.313 . S
C111 N112 1.344 . S
C111 H115 0.930 . S
N112 C109 1.377 . S
N112 C111 1.344 . S
O113 Co105 2.055 . S
O113 C117 1.253 . S
H114 C110 0.931 . S
H115 C111 0.930 . S
O116 Co105 2.039 . S
O116 C106 1.265 . S
C117 O113 1.253 . S
C117 O118 1.227 . S
O118 C117 1.227 . S
N119 Co105 2.140 . S
N119 C122 1.346 . S
N119 C123 1.345 . S
C120 C121 1.387 . S
C120 C124 1.391 . S
C121 C120 1.387 . S
C121 C122 1.369 . S
C121 H130 0.929 . S
C122 N119 1.346 . S
C122 C121 1.369 . S
C122 H125 0.928 . S
C123 N119 1.345 . S
C123 C124 1.371 . S
C123 H126 0.931 . S
C124 C120 1.391 . S
C124 C123 1.371 . S
C124 H131 0.930 . S
H125 C122 0.928 . S
H126 C123 0.931 . S
H127 C103 0.930 . S
H128 C100 0.930 . S
H129 C109 0.930 . S
H130 C121 0.929 . S
H131 C124 0.930 . S
C132 C133 1.351 . S
C132 N135 1.368 . S
C132 H137 0.931 . S
C133 C132 1.351 . S
C133 N134 1.373 . S
C133 H161 0.930 . S
N134 C133 1.373 . S
N134 C136 1.340 . S
N135 C132 1.368 . S
N135 C136 1.321 . S
N135 Co138 2.135 . S
C136 N134 1.340 . S
C136 N135 1.321 . S
C136 H160 0.930 . S
H137 C132 0.931 . S
Co138 N135 2.135 . S
Co138 N141 2.121 . S
Co138 O146 2.055 . S
Co138 O149 2.039 . S
Co138 N152 2.140 . S
C139 O140 1.227 . S
C139 O149 1.265 . S
O140 C139 1.227 . S
N141 Co138 2.121 . S
N141 C143 1.375 . S
N141 C144 1.313 . S
C142 C143 1.338 . S
C142 N145 1.377 . S
C142 H162 0.930 . S
C143 N141 1.375 . S
C143 C142 1.338 . S
C143 H147 0.931 . S
C144 N141 1.313 . S
C144 N145 1.344 . S
C144 H148 0.930 . S
N145 C142 1.377 . S
N145 C144 1.344 . S
O146 Co138 2.055 . S
O146 C150 1.253 . S
H147 C143 0.931 . S
H148 C144 0.930 . S
O149 Co138 2.039 . S
O149 C139 1.265 . S
C150 O146 1.253 . S
C150 O151 1.227 . S
O151 C150 1.227 . S
N152 Co138 2.140 . S
N152 C155 1.346 . S
N152 C156 1.345 . S
C153 C154 1.387 . S
C153 C157 1.391 . S
C154 C153 1.387 . S
C154 C155 1.369 . S
C154 H163 0.929 . S
C155 N152 1.346 . S
C155 C154 1.369 . S
C155 H158 0.928 . S
C156 N152 1.345 . S
C156 C157 1.371 . S
C156 H159 0.931 . S
C157 C153 1.391 . S
C157 C156 1.371 . S
C157 H164 0.930 . S
H158 C155 0.928 . S
H159 C156 0.931 . S
H160 C136 0.930 . S
H161 C133 0.930 . S
H162 C142 0.930 . S
H163 C154 0.929 . S
H164 C157 0.930 . S
C165 C166 1.351 . S
C165 N168 1.368 . S
C165 H170 0.931 . S
C166 C165 1.351 . S
C166 N167 1.373 . S
C166 H194 0.930 . S
N167 C166 1.373 . S
N167 C169 1.340 . S
N168 C165 1.368 . S
N168 C169 1.321 . S
N168 Co171 2.135 . S
C169 N167 1.340 . S
C169 N168 1.321 . S
C169 H193 0.930 . S
H170 C165 0.931 . S
Co171 N168 2.135 . S
Co171 N174 2.121 . S
Co171 O179 2.055 . S
Co171 O182 2.039 . S
Co171 N185 2.140 . S
C172 O173 1.227 . S
C172 O182 1.265 . S
O173 C172 1.227 . S
N174 Co171 2.121 . S
N174 C176 1.375 . S
N174 C177 1.313 . S
C175 C176 1.338 . S
C175 N178 1.377 . S
C175 H195 0.930 . S
C176 N174 1.375 . S
C176 C175 1.338 . S
C176 H180 0.931 . S
C177 N174 1.313 . S
C177 N178 1.344 . S
C177 H181 0.930 . S
N178 C175 1.377 . S
N178 C177 1.344 . S
O179 Co171 2.055 . S
O179 C183 1.253 . S
H180 C176 0.931 . S
H181 C177 0.930 . S
O182 Co171 2.039 . S
O182 C172 1.265 . S
C183 O179 1.253 . S
C183 O184 1.227 . S
O184 C183 1.227 . S
N185 Co171 2.140 . S
N185 C188 1.346 . S
N185 C189 1.345 . S
C186 C187 1.387 . S
C186 C190 1.391 . S
C187 C186 1.387 . S
C187 C188 1.369 . S
C187 H196 0.929 . S
C188 N185 1.346 . S
C188 C187 1.369 . S
C188 H191 0.928 . S
C189 N185 1.345 . S
C189 C190 1.371 . S
C189 H192 0.931 . S
C190 C186 1.391 . S
C190 C189 1.371 . S
C190 H197 0.930 . S
H191 C188 0.928 . S
H192 C189 0.931 . S
H193 C169 0.930 . S
H194 C166 0.930 . S
H195 C175 0.930 . S
H196 C187 0.929 . S
H197 C190 0.930 . S
C198 C199 1.351 . S
C198 N201 1.368 . S
C198 H203 0.931 . S
C199 C198 1.351 . S
C199 N200 1.373 1_556 S
C199 H227 0.930 . S
N200 C199 1.373 1_554 S
N200 C202 1.340 . S
N201 C198 1.368 . S
N201 C202 1.321 1_556 S
N201 Co204 2.135 . S
C202 N200 1.340 . S
C202 N201 1.321 1_554 S
C202 H226 0.930 . S
H203 C198 0.931 . S
Co204 N201 2.135 . S
Co204 N207 2.121 . S
Co204 O212 2.055 . S
Co204 O215 2.039 1_556 S
Co204 N218 2.140 1_556 S
C205 O206 1.227 . S
C205 O215 1.265 . S
O206 C205 1.227 . S
N207 Co204 2.121 . S
N207 C209 1.375 1_556 S
N207 C210 1.313 . S
C208 C209 1.338 . S
C208 N211 1.377 1_554 S
C208 H228 0.930 . S
C209 N207 1.375 1_554 S
C209 C208 1.338 . S
C209 H213 0.931 . S
C210 N207 1.313 . S
C210 N211 1.344 . S
C210 H214 0.930 . S
N211 C208 1.377 1_556 S
N211 C210 1.344 . S
O212 Co204 2.055 . S
O212 C216 1.253 . S
H213 C209 0.931 . S
H214 C210 0.930 . S
O215 Co204 2.039 1_554 S
O215 C205 1.265 . S
C216 O212 1.253 . S
C216 O217 1.227 . S
O217 C216 1.227 . S
N218 Co204 2.140 1_554 S
N218 C221 1.346 . S
N218 C222 1.345 1_554 S
C219 C220 1.387 . S
C219 C223 1.391 1_554 S
C220 C219 1.387 . S
C220 C221 1.369 . S
C220 H229 0.929 . S
C221 N218 1.346 . S
C221 C220 1.369 . S
C221 H224 0.928 . S
C222 N218 1.345 1_556 S
C222 C223 1.371 . S
C222 H225 0.931 . S
C223 C219 1.391 1_556 S
C223 C222 1.371 . S
C223 H230 0.930 . S
H224 C221 0.928 . S
H225 C222 0.931 . S
H226 C202 0.930 . S
H227 C199 0.930 . S
H228 C208 0.930 . S
H229 C220 0.929 . S
H230 C223 0.930 . S
C231 C232 1.351 . S
C231 N234 1.368 . S
C231 H236 0.931 . S
C232 C231 1.351 . S
C232 N233 1.373 . S
C232 H260 0.930 . S
N233 C232 1.373 . S
N233 C235 1.340 . S
N234 C231 1.368 . S
N234 C235 1.321 . S
N234 Co237 2.135 . S
C235 N233 1.340 . S
C235 N234 1.321 . S
C235 H259 0.930 . S
H236 C231 0.931 . S
Co237 N234 2.135 . S
Co237 N240 2.121 . S
Co237 O245 2.055 . S
Co237 O248 2.039 . S
Co237 N251 2.140 . S
C238 O239 1.227 . S
C238 O248 1.265 . S
O239 C238 1.227 . S
N240 Co237 2.121 . S
N240 C242 1.375 . S
N240 C243 1.313 . S
C241 C242 1.338 . S
C241 N244 1.377 . S
C241 H261 0.930 . S
C242 N240 1.375 . S
C242 C241 1.338 . S
C242 H246 0.931 . S
C243 N240 1.313 . S
C243 N244 1.344 . S
C243 H247 0.930 . S
N244 C241 1.377 . S
N244 C243 1.344 . S
O245 Co237 2.055 . S
O245 C249 1.253 . S
H246 C242 0.931 . S
H247 C243 0.930 . S
O248 Co237 2.039 . S
O248 C238 1.265 . S
C249 O245 1.253 . S
C249 O250 1.227 . S
O250 C249 1.227 . S
N251 Co237 2.140 . S
N251 C254 1.346 . S
N251 C255 1.345 . S
C252 C253 1.387 . S
C252 C256 1.391 . S
C253 C252 1.387 . S
C253 C254 1.369 . S
C253 H262 0.929 . S
C254 N251 1.346 . S
C254 C253 1.369 . S
C254 H257 0.928 . S
C255 N251 1.345 . S
C255 C256 1.371 . S
C255 H258 0.931 . S
C256 C252 1.391 . S
C256 C255 1.371 . S
C256 H263 0.930 . S
H257 C254 0.928 . S
H258 C255 0.931 . S
H259 C235 0.930 . S
H260 C232 0.930 . S
H261 C241 0.930 . S
H262 C253 0.929 . S
H263 C256 0.930 . S
C264 C265 1.351 . S
C264 N267 1.368 . S
C264 H269 0.931 . S
C265 C264 1.351 . S
C265 N266 1.373 . S
C265 H293 0.930 . S
N266 C265 1.373 . S
N266 C268 1.340 . S
N267 C264 1.368 . S
N267 C268 1.321 . S
N267 Co270 2.135 . S
C268 N266 1.340 . S
C268 N267 1.321 . S
C268 H292 0.930 . S
H269 C264 0.931 . S
Co270 N267 2.135 . S
Co270 N273 2.121 . S
Co270 O278 2.055 . S
Co270 O281 2.039 . S
Co270 N284 2.140 . S
C271 O272 1.227 . S
C271 O281 1.265 . S
O272 C271 1.227 . S
N273 Co270 2.121 . S
N273 C275 1.375 . S
N273 C276 1.313 . S
C274 C275 1.338 . S
C274 N277 1.377 . S
C274 H294 0.930 . S
C275 N273 1.375 . S
C275 C274 1.338 . S
C275 H279 0.931 . S
C276 N273 1.313 . S
C276 N277 1.344 . S
C276 H280 0.930 . S
N277 C274 1.377 . S
N277 C276 1.344 . S
O278 Co270 2.055 . S
O278 C282 1.253 . S
H279 C275 0.931 . S
H280 C276 0.930 . S
O281 Co270 2.039 . S
O281 C271 1.265 . S
C282 O278 1.253 . S
C282 O283 1.227 . S
O283 C282 1.227 . S
N284 Co270 2.140 . S
N284 C287 1.346 . S
N284 C288 1.345 . S
C285 C286 1.387 . S
C285 C289 1.391 . S
C286 C285 1.387 . S
C286 C287 1.369 . S
C286 H295 0.929 . S
C287 N284 1.346 . S
C287 C286 1.369 . S
C287 H290 0.928 . S
C288 N284 1.345 . S
C288 C289 1.371 . S
C288 H291 0.931 . S
C289 C285 1.391 . S
C289 C288 1.371 . S
C289 H296 0.930 . S
H290 C287 0.928 . S
H291 C288 0.931 . S
H292 C268 0.930 . S
H293 C265 0.930 . S
H294 C274 0.930 . S
H295 C286 0.929 . S
H296 C289 0.930 . S
C297 C298 1.351 . S
C297 N300 1.368 . S
C297 H302 0.931 . S
C298 C297 1.351 . S
C298 N299 1.373 . S
C298 H326 0.930 . S
N299 C298 1.373 . S
N299 C301 1.340 . S
N300 C297 1.368 . S
N300 C301 1.321 . S
N300 Co303 2.135 . S
C301 N299 1.340 . S
C301 N300 1.321 . S
C301 H325 0.930 . S
H302 C297 0.931 . S
Co303 N300 2.135 . S
Co303 N306 2.121 . S
Co303 O311 2.055 . S
Co303 O314 2.039 . S
Co303 N317 2.140 . S
C304 O305 1.227 . S
C304 O314 1.265 . S
O305 C304 1.227 . S
N306 Co303 2.121 . S
N306 C308 1.375 . S
N306 C309 1.313 . S
C307 C308 1.338 . S
C307 N310 1.377 . S
C307 H327 0.930 . S
C308 N306 1.375 . S
C308 C307 1.338 . S
C308 H312 0.931 . S
C309 N306 1.313 . S
C309 N310 1.344 . S
C309 H313 0.930 . S
N310 C307 1.377 . S
N310 C309 1.344 . S
O311 Co303 2.055 . S
O311 C315 1.253 . S
H312 C308 0.931 . S
H313 C309 0.930 . S
O314 Co303 2.039 . S
O314 C304 1.265 . S
C315 O311 1.253 . S
C315 O316 1.227 . S
O316 C315 1.227 . S
N317 Co303 2.140 . S
N317 C320 1.346 . S
N317 C321 1.345 . S
C318 C319 1.387 . S
C318 C322 1.391 . S
C319 C318 1.387 . S
C319 C320 1.369 . S
C319 H328 0.929 . S
C320 N317 1.346 . S
C320 C319 1.369 . S
C320 H323 0.928 . S
C321 N317 1.345 . S
C321 C322 1.371 . S
C321 H324 0.931 . S
C322 C318 1.391 . S
C322 C321 1.371 . S
C322 H329 0.930 . S
H323 C320 0.928 . S
H324 C321 0.931 . S
H325 C301 0.930 . S
H326 C298 0.930 . S
H327 C307 0.930 . S
H328 C319 0.929 . S
H329 C322 0.930 . S
C330 C331 1.351 . S
C330 N333 1.368 . S
C330 H335 0.931 . S
C331 C330 1.351 . S
C331 N332 1.373 1_556 S
C331 H359 0.930 . S
N332 C331 1.373 1_554 S
N332 C334 1.340 . S
N333 C330 1.368 . S
N333 C334 1.321 1_556 S
N333 Co336 2.135 . S
C334 N332 1.340 . S
C334 N333 1.321 1_554 S
C334 H358 0.930 . S
H335 C330 0.931 . S
Co336 N333 2.135 . S
Co336 N339 2.121 . S
Co336 O344 2.055 . S
Co336 O347 2.039 1_556 S
Co336 N350 2.140 1_556 S
C337 O338 1.227 . S
C337 O347 1.265 . S
O338 C337 1.227 . S
N339 Co336 2.121 . S
N339 C341 1.375 1_556 S
N339 C342 1.313 . S
C340 C341 1.338 . S
C340 N343 1.377 1_554 S
C340 H360 0.930 . S
C341 N339 1.375 1_554 S
C341 C340 1.338 . S
C341 H345 0.931 . S
C342 N339 1.313 . S
C342 N343 1.344 . S
C342 H346 0.930 . S
N343 C340 1.377 1_556 S
N343 C342 1.344 . S
O344 Co336 2.055 . S
O344 C348 1.253 . S
H345 C341 0.931 . S
H346 C342 0.930 . S
O347 Co336 2.039 1_554 S
O347 C337 1.265 . S
C348 O344 1.253 . S
C348 O349 1.227 . S
O349 C348 1.227 . S
N350 Co336 2.140 1_554 S
N350 C353 1.346 . S
N350 C354 1.345 1_554 S
C351 C352 1.387 . S
C351 C355 1.391 1_554 S
C352 C351 1.387 . S
C352 C353 1.369 . S
C352 H361 0.929 . S
C353 N350 1.346 . S
C353 C352 1.369 . S
C353 H356 0.928 . S
C354 N350 1.345 1_556 S
C354 C355 1.371 . S
C354 H357 0.931 . S
C355 C351 1.391 1_556 S
C355 C354 1.371 . S
C355 H362 0.930 . S
H356 C353 0.928 . S
H357 C354 0.931 . S
H358 C334 0.930 . S
H359 C331 0.930 . S
H360 C340 0.930 . S
H361 C352 0.929 . S
H362 C355 0.930 . S
C363 C364 1.351 . S
C363 N366 1.368 . S
C363 H368 0.931 . S
C364 C363 1.351 . S
C364 N365 1.373 . S
C364 H392 0.930 . S
N365 C364 1.373 . S
N365 C367 1.340 . S
N366 C363 1.368 . S
N366 C367 1.321 . S
N366 Co369 2.135 . S
C367 N365 1.340 . S
C367 N366 1.321 . S
C367 H391 0.930 . S
H368 C363 0.931 . S
Co369 N366 2.135 . S
Co369 N372 2.121 . S
Co369 O377 2.055 . S
Co369 O380 2.039 . S
Co369 N383 2.140 . S
C370 O371 1.227 . S
C370 O380 1.265 . S
O371 C370 1.227 . S
N372 Co369 2.121 . S
N372 C374 1.375 . S
N372 C375 1.313 . S
C373 C374 1.338 . S
C373 N376 1.377 . S
C373 H393 0.930 . S
C374 N372 1.375 . S
C374 C373 1.338 . S
C374 H378 0.931 . S
C375 N372 1.313 . S
C375 N376 1.344 . S
C375 H379 0.930 . S
N376 C373 1.377 . S
N376 C375 1.344 . S
O377 Co369 2.055 . S
O377 C381 1.253 . S
H378 C374 0.931 . S
H379 C375 0.930 . S
O380 Co369 2.039 . S
O380 C370 1.265 . S
C381 O377 1.253 . S
C381 O382 1.227 . S
O382 C381 1.227 . S
N383 Co369 2.140 . S
N383 C386 1.346 . S
N383 C387 1.345 . S
C384 C385 1.387 . S
C384 C388 1.391 . S
C385 C384 1.387 . S
C385 C386 1.369 . S
C385 H394 0.929 . S
C386 N383 1.346 . S
C386 C385 1.369 . S
C386 H389 0.928 . S
C387 N383 1.345 . S
C387 C388 1.371 . S
C387 H390 0.931 . S
C388 C384 1.391 . S
C388 C387 1.371 . S
C388 H395 0.930 . S
H389 C386 0.928 . S
H390 C387 0.931 . S
H391 C367 0.930 . S
H392 C364 0.930 . S
H393 C373 0.930 . S
H394 C385 0.929 . S
H395 C388 0.930 . S
C396 C397 1.351 . S
C396 N399 1.368 . S
C396 H401 0.931 . S
C397 C396 1.351 . S
C397 N398 1.373 1_556 S
C397 H425 0.930 . S
N398 C397 1.373 1_554 S
N398 C400 1.340 . S
N399 C396 1.368 . S
N399 C400 1.321 1_556 S
N399 Co402 2.135 . S
C400 N398 1.340 . S
C400 N399 1.321 1_554 S
C400 H424 0.930 . S
H401 C396 0.931 . S
Co402 N399 2.135 . S
Co402 N405 2.121 . S
Co402 O410 2.055 . S
Co402 O413 2.039 1_556 S
Co402 N416 2.140 1_556 S
C403 O404 1.227 . S
C403 O413 1.265 . S
O404 C403 1.227 . S
N405 Co402 2.121 . S
N405 C407 1.375 1_556 S
N405 C408 1.313 . S
C406 C407 1.338 . S
C406 N409 1.377 1_554 S
C406 H426 0.930 . S
C407 N405 1.375 1_554 S
C407 C406 1.338 . S
C407 H411 0.931 . S
C408 N405 1.313 . S
C408 N409 1.344 . S
C408 H412 0.930 . S
N409 C406 1.377 1_556 S
N409 C408 1.344 . S
O410 Co402 2.055 . S
O410 C414 1.253 . S
H411 C407 0.931 . S
H412 C408 0.930 . S
O413 Co402 2.039 1_554 S
O413 C403 1.265 . S
C414 O410 1.253 . S
C414 O415 1.227 . S
O415 C414 1.227 . S
N416 Co402 2.140 1_554 S
N416 C419 1.346 . S
N416 C420 1.345 1_554 S
C417 C418 1.387 . S
C417 C421 1.391 1_554 S
C418 C417 1.387 . S
C418 C419 1.369 . S
C418 H427 0.929 . S
C419 N416 1.346 . S
C419 C418 1.369 . S
C419 H422 0.928 . S
C420 N416 1.345 1_556 S
C420 C421 1.371 . S
C420 H423 0.931 . S
C421 C417 1.391 1_556 S
C421 C420 1.371 . S
C421 H428 0.930 . S
H422 C419 0.928 . S
H423 C420 0.931 . S
H424 C400 0.930 . S
H425 C397 0.930 . S
H426 C406 0.930 . S
H427 C418 0.929 . S
H428 C421 0.930 . S
C429 C430 1.351 . S
C429 N432 1.368 . S
C429 H434 0.931 . S
C430 C429 1.351 . S
C430 N431 1.373 . S
C430 H458 0.930 . S
N431 C430 1.373 . S
N431 C433 1.340 . S
N432 C429 1.368 . S
N432 C433 1.321 . S
N432 Co435 2.135 . S
C433 N431 1.340 . S
C433 N432 1.321 . S
C433 H457 0.930 . S
H434 C429 0.931 . S
Co435 N432 2.135 . S
Co435 N438 2.121 . S
Co435 O443 2.055 . S
Co435 O446 2.039 . S
Co435 N449 2.140 . S
C436 O437 1.227 . S
C436 O446 1.265 . S
O437 C436 1.227 . S
N438 Co435 2.121 . S
N438 C440 1.375 . S
N438 C441 1.313 . S
C439 C440 1.338 . S
C439 N442 1.377 . S
C439 H459 0.930 . S
C440 N438 1.375 . S
C440 C439 1.338 . S
C440 H444 0.931 . S
C441 N438 1.313 . S
C441 N442 1.344 . S
C441 H445 0.930 . S
N442 C439 1.377 . S
N442 C441 1.344 . S
O443 Co435 2.055 . S
O443 C447 1.253 . S
H444 C440 0.931 . S
H445 C441 0.930 . S
O446 Co435 2.039 . S
O446 C436 1.265 . S
C447 O443 1.253 . S
C447 O448 1.227 . S
O448 C447 1.227 . S
N449 Co435 2.140 . S
N449 C452 1.346 . S
N449 C453 1.345 . S
C450 C451 1.387 . S
C450 C454 1.391 . S
C451 C450 1.387 . S
C451 C452 1.369 . S
C451 H460 0.929 . S
C452 N449 1.346 . S
C452 C451 1.369 . S
C452 H455 0.928 . S
C453 N449 1.345 . S
C453 C454 1.371 . S
C453 H456 0.931 . S
C454 C450 1.391 . S
C454 C453 1.371 . S
C454 H461 0.930 . S
H455 C452 0.928 . S
H456 C453 0.931 . S
H457 C433 0.930 . S
H458 C430 0.930 . S
H459 C439 0.930 . S
H460 C451 0.929 . S
H461 C454 0.930 . S
C462 C463 1.351 . S
C462 N465 1.368 . S
C462 H467 0.931 . S
C463 C462 1.351 . S
C463 N464 1.373 . S
C463 H491 0.930 . S
N464 C463 1.373 . S
N464 C466 1.340 . S
N465 C462 1.368 . S
N465 C466 1.321 . S
N465 Co468 2.135 . S
C466 N464 1.340 . S
C466 N465 1.321 . S
C466 H490 0.930 . S
H467 C462 0.931 . S
Co468 N465 2.135 . S
Co468 N471 2.121 . S
Co468 O476 2.055 . S
Co468 O479 2.039 . S
Co468 N482 2.140 . S
C469 O470 1.227 . S
C469 O479 1.265 . S
O470 C469 1.227 . S
N471 Co468 2.121 . S
N471 C473 1.375 . S
N471 C474 1.313 . S
C472 C473 1.338 . S
C472 N475 1.377 . S
C472 H492 0.930 . S
C473 N471 1.375 . S
C473 C472 1.338 . S
C473 H477 0.931 . S
C474 N471 1.313 . S
C474 N475 1.344 . S
C474 H478 0.930 . S
N475 C472 1.377 . S
N475 C474 1.344 . S
O476 Co468 2.055 . S
O476 C480 1.253 . S
H477 C473 0.931 . S
H478 C474 0.930 . S
O479 Co468 2.039 . S
O479 C469 1.265 . S
C480 O476 1.253 . S
C480 O481 1.227 . S
O481 C480 1.227 . S
N482 Co468 2.140 . S
N482 C485 1.346 . S
N482 C486 1.345 . S
C483 C484 1.387 . S
C483 C487 1.391 . S
C484 C483 1.387 . S
C484 C485 1.369 . S
C484 H493 0.929 . S
C485 N482 1.346 . S
C485 C484 1.369 . S
C485 H488 0.928 . S
C486 N482 1.345 . S
C486 C487 1.371 . S
C486 H489 0.931 . S
C487 C483 1.391 . S
C487 C486 1.371 . S
C487 H494 0.930 . S
H488 C485 0.928 . S
H489 C486 0.931 . S
H490 C466 0.930 . S
H491 C463 0.930 . S
H492 C472 0.930 . S
H493 C484 0.929 . S
H494 C487 0.930 . S
C495 C496 1.351 . S
C495 N498 1.368 . S
C495 H500 0.931 . S
C496 C495 1.351 . S
C496 N497 1.373 . S
C496 H524 0.930 . S
N497 C496 1.373 . S
N497 C499 1.340 . S
N498 C495 1.368 . S
N498 C499 1.321 . S
N498 Co501 2.135 . S
C499 N497 1.340 . S
C499 N498 1.321 . S
C499 H523 0.930 . S
H500 C495 0.931 . S
Co501 N498 2.135 . S
Co501 N504 2.121 . S
Co501 O509 2.055 . S
Co501 O512 2.039 . S
Co501 N515 2.140 . S
C502 O503 1.227 . S
C502 O512 1.265 . S
O503 C502 1.227 . S
N504 Co501 2.121 . S
N504 C506 1.375 . S
N504 C507 1.313 . S
C505 C506 1.338 . S
C505 N508 1.377 . S
C505 H525 0.930 . S
C506 N504 1.375 . S
C506 C505 1.338 . S
C506 H510 0.931 . S
C507 N504 1.313 . S
C507 N508 1.344 . S
C507 H511 0.930 . S
N508 C505 1.377 . S
N508 C507 1.344 . S
O509 Co501 2.055 . S
O509 C513 1.253 . S
H510 C506 0.931 . S
H511 C507 0.930 . S
O512 Co501 2.039 . S
O512 C502 1.265 . S
C513 O509 1.253 . S
C513 O514 1.227 . S
O514 C513 1.227 . S
N515 Co501 2.140 . S
N515 C518 1.346 . S
N515 C519 1.345 . S
C516 C517 1.387 . S
C516 C520 1.391 . S
C517 C516 1.387 . S
C517 C518 1.369 . S
C517 H526 0.929 . S
C518 N515 1.346 . S
C518 C517 1.369 . S
C518 H521 0.928 . S
C519 N515 1.345 . S
C519 C520 1.371 . S
C519 H522 0.931 . S
C520 C516 1.391 . S
C520 C519 1.371 . S
C520 H527 0.930 . S
H521 C518 0.928 . S
H522 C519 0.931 . S
H523 C499 0.930 . S
H524 C496 0.930 . S
H525 C505 0.930 . S
H526 C517 0.929 . S
H527 C520 0.930 . S
H528 C546 0.951 . S
H529 C548 0.951 1_545 S
H530 C550 0.950 . S
H531 C551 0.950 . S
H532 C553 0.950 . S
H533 C556 0.950 . S
H534 C557 0.950 . S
H535 C559 0.950 . S
H536 C560 0.950 . S
H537 C561 0.951 . S
H538 C563 0.951 1_565 S
H539 C565 0.950 . S
H540 C566 0.950 . S
H541 C568 0.950 . S
H542 C571 0.950 . S
H543 C572 0.950 . S
H544 C574 0.950 . S
H545 C575 0.950 . S
C546 H528 0.951 . S
C546 C547 1.366 . S
C546 C548 1.388 . S
C547 C546 1.366 . S
C547 C551 1.385 . S
C548 H529 0.951 1_565 S
C548 C546 1.388 . S
C548 C549 1.366 . S
C549 C548 1.366 . S
C549 C550 1.414 . S
C549 C552 1.499 . S
C550 H530 0.950 . S
C550 C549 1.414 . S
C550 C551 1.374 . S
C551 H531 0.950 . S
C551 C547 1.385 . S
C551 C550 1.374 . S
C552 C549 1.499 . S
C552 C553 1.373 . S
C552 C554 1.389 1_564 S
C553 H532 0.950 . S
C553 C552 1.373 . S
C553 C569 1.377 1_655 S
C554 C552 1.389 1_546 S
C554 C555 1.524 . S
C554 C568 1.377 1_655 S
C555 C554 1.524 . S
C555 C556 1.397 1_545 S
C555 C560 1.363 . S
C556 H533 0.950 . S
C556 C555 1.397 1_565 S
C556 C557 1.334 . S
C557 H534 0.950 . S
C557 C556 1.334 . S
C557 C558 1.287 1_565 S
C558 C557 1.287 1_545 S
C558 C559 1.524 . S
C558 H577 0.913 . S
C559 H535 0.950 . S
C559 C558 1.524 . S
C559 C560 1.415 . S
C560 H536 0.950 . S
C560 C555 1.363 . S
C560 C559 1.415 . S
C561 H537 0.951 . S
C561 C562 1.366 . S
C561 C563 1.388 . S
C562 C561 1.366 . S
C562 C566 1.385 . S
C563 H538 0.951 1_545 S
C563 C561 1.388 . S
C563 C564 1.366 . S
C564 C563 1.366 . S
C564 C565 1.414 . S
C564 C567 1.499 . S
C565 H539 0.950 . S
C565 C564 1.414 . S
C565 C566 1.374 . S
C566 H540 0.950 . S
C566 C562 1.385 . S
C566 C565 1.374 . S
C567 C564 1.499 . S
C567 C568 1.373 1_554 S
C567 C569 1.389 1_545 S
C568 H541 0.950 . S
C568 C554 1.377 1_455 S
C568 C567 1.373 1_556 S
C569 C553 1.377 1_455 S
C569 C567 1.389 1_565 S
C569 C570 1.524 . S
C570 C569 1.524 . S
C570 C571 1.397 1_565 S
C570 C575 1.363 . S
C571 H542 0.950 . S
C571 C570 1.397 1_545 S
C571 C572 1.334 . S
C572 H543 0.950 . S
C572 C571 1.334 . S
C572 C573 1.287 1_545 S
C573 C572 1.287 1_565 S
C573 C574 1.524 . S
C573 H576 0.999 . S
C574 H544 0.950 . S
C574 C573 1.524 . S
C574 C575 1.415 . S
C575 H545 0.950 . S
C575 C570 1.363 . S
C575 C574 1.415 . S
H576 C573 0.999 . S
H577 C558 0.913 . S
H578 C596 0.951 . S
H579 C598 0.951 . S
H580 C600 0.950 1_455 S
H581 C601 0.950 . S
H582 C603 0.950 . S
H583 C606 0.950 . S
H584 C607 0.950 . S
H585 C609 0.950 . S
H586 C610 0.950 . S
H587 C611 0.951 . S
H588 C613 0.951 . S
H589 C615 0.950 1_655 S
H590 C616 0.950 . S
H591 C618 0.950 . S
H592 C621 0.950 . S
H593 C622 0.950 . S
H594 C624 0.950 . S
H595 C625 0.950 . S
C596 H578 0.951 . S
C596 C597 1.366 . S
C596 C598 1.388 . S
C597 C596 1.366 . S
C597 C601 1.385 . S
C598 H579 0.951 . S
C598 C596 1.388 . S
C598 C599 1.366 . S
C599 C598 1.366 . S
C599 C600 1.414 . S
C599 C602 1.499 . S
C600 H580 0.950 1_655 S
C600 C599 1.414 . S
C600 C601 1.374 . S
C601 H581 0.950 . S
C601 C597 1.385 . S
C601 C600 1.374 . S
C602 C599 1.499 . S
C602 C603 1.373 1_655 S
C602 C604 1.389 . S
C603 H582 0.950 . S
C603 C602 1.373 1_455 S
C603 C619 1.377 . S
C604 C602 1.389 . S
C604 C605 1.524 . S
C604 C618 1.377 . S
C605 C604 1.524 . S
C605 C606 1.397 . S
C605 C610 1.363 . S
C606 H583 0.950 . S
C606 C605 1.397 . S
C606 C607 1.334 . S
C607 H584 0.950 . S
C607 C606 1.334 . S
C607 C608 1.287 . S
C608 C607 1.287 . S
C608 C609 1.524 . S
C608 H627 0.913 . S
C609 H585 0.950 . S
C609 C608 1.524 . S
C609 C610 1.415 . S
C610 H586 0.950 . S
C610 C605 1.363 . S
C610 C609 1.415 . S
C611 H587 0.951 . S
C611 C612 1.366 . S
C611 C613 1.388 . S
C612 C611 1.366 . S
C612 C616 1.385 . S
C613 H588 0.951 . S
C613 C611 1.388 . S
C613 C614 1.366 . S
C614 C613 1.366 . S
C614 C615 1.414 . S
C614 C617 1.499 . S
C615 H589 0.950 1_455 S
C615 C614 1.414 . S
C615 C616 1.374 . S
C616 H590 0.950 . S
C616 C612 1.385 . S
C616 C615 1.374 . S
C617 C614 1.499 . S
C617 C618 1.373 1_455 S
C617 C619 1.389 . S
C618 H591 0.950 . S
C618 C604 1.377 . S
C618 C617 1.373 1_655 S
C619 C603 1.377 . S
C619 C617 1.389 . S
C619 C620 1.524 . S
C620 C619 1.524 . S
C620 C621 1.397 . S
C620 C625 1.363 . S
C621 H592 0.950 . S
C621 C620 1.397 . S
C621 C622 1.334 . S
C622 H593 0.950 . S
C622 C621 1.334 . S
C622 C623 1.287 . S
C623 C622 1.287 . S
C623 C624 1.524 . S
C623 H626 0.999 . S
C624 H594 0.950 . S
C624 C623 1.524 . S
C624 C625 1.415 . S
C625 H595 0.950 . S
C625 C620 1.363 . S
C625 C624 1.415 . S
H626 C623 0.999 . S
H627 C608 0.913 . S
H628 C646 0.951 . S
H629 C648 0.951 . S
H630 C650 0.950 . S
H631 C651 0.950 . S
H632 C653 0.950 . S
H633 C656 0.950 . S
H634 C657 0.950 . S
H635 C659 0.950 . S
H636 C660 0.950 . S
H637 C661 0.951 . S
H638 C663 0.951 . S
H639 C665 0.950 . S
H640 C666 0.950 . S
H641 C668 0.950 . S
H642 C671 0.950 . S
H643 C672 0.950 . S
H644 C674 0.950 . S
H645 C675 0.950 . S
C646 H628 0.951 . S
C646 C647 1.366 . S
C646 C648 1.388 . S
C647 C646 1.366 . S
C647 C651 1.385 . S
C648 H629 0.951 . S
C648 C646 1.388 . S
C648 C649 1.366 . S
C649 C648 1.366 . S
C649 C650 1.414 . S
C649 C652 1.499 . S
C650 H630 0.950 . S
C650 C649 1.414 . S
C650 C651 1.374 . S
C651 H631 0.950 . S
C651 C647 1.385 . S
C651 C650 1.374 . S
C652 C649 1.499 . S
C652 C653 1.373 . S
C652 C654 1.389 . S
C653 H632 0.950 . S
C653 C652 1.373 . S
C653 C669 1.377 . S
C654 C652 1.389 . S
C654 C655 1.524 . S
C654 C668 1.377 . S
C655 C654 1.524 . S
C655 C656 1.397 . S
C655 C660 1.363 . S
C656 H633 0.950 . S
C656 C655 1.397 . S
C656 C657 1.334 . S
C657 H634 0.950 . S
C657 C656 1.334 . S
C657 C658 1.287 . S
C658 C657 1.287 . S
C658 C659 1.524 . S
C658 H677 0.913 . S
C659 H635 0.950 . S
C659 C658 1.524 . S
C659 C660 1.415 . S
C660 H636 0.950 . S
C660 C655 1.363 . S
C660 C659 1.415 . S
C661 H637 0.951 . S
C661 C662 1.366 . S
C661 C663 1.388 . S
C662 C661 1.366 . S
C662 C666 1.385 . S
C663 H638 0.951 . S
C663 C661 1.388 . S
C663 C664 1.366 . S
C664 C663 1.366 . S
C664 C665 1.414 . S
C664 C667 1.499 . S
C665 H639 0.950 . S
C665 C664 1.414 . S
C665 C666 1.374 . S
C666 H640 0.950 . S
C666 C662 1.385 . S
C666 C665 1.374 . S
C667 C664 1.499 . S
C667 C668 1.373 . S
C667 C669 1.389 . S
C668 H641 0.950 . S
C668 C654 1.377 . S
C668 C667 1.373 . S
C669 C653 1.377 . S
C669 C667 1.389 . S
C669 C670 1.524 . S
C670 C669 1.524 . S
C670 C671 1.397 . S
C670 C675 1.363 . S
C671 H642 0.950 . S
C671 C670 1.397 . S
C671 C672 1.334 . S
C672 H643 0.950 . S
C672 C671 1.334 . S
C672 C673 1.287 . S
C673 C672 1.287 . S
C673 C674 1.524 . S
C673 H676 0.999 . S
C674 H644 0.950 . S
C674 C673 1.524 . S
C674 C675 1.415 . S
C675 H645 0.950 . S
C675 C670 1.363 . S
C675 C674 1.415 . S
H676 C673 0.999 . S
H677 C658 0.913 . S
H678 C696 0.951 . S
H679 C698 0.951 . S
H680 C700 0.950 . S
H681 C701 0.950 . S
H682 C703 0.950 . S
H683 C706 0.950 . S
H684 C707 0.950 . S
H685 C709 0.950 . S
H686 C710 0.950 . S
H687 C711 0.951 . S
H688 C713 0.951 . S
H689 C715 0.950 . S
H690 C716 0.950 . S
H691 C718 0.950 . S
H692 C721 0.950 . S
H693 C722 0.950 . S
H694 C724 0.950 . S
H695 C725 0.950 . S
C696 H678 0.951 . S
C696 C697 1.366 . S
C696 C698 1.388 . S
C697 C696 1.366 . S
C697 C701 1.385 . S
C698 H679 0.951 . S
C698 C696 1.388 . S
C698 C699 1.366 . S
C699 C698 1.366 . S
C699 C700 1.414 . S
C699 C702 1.499 . S
C700 H680 0.950 . S
C700 C699 1.414 . S
C700 C701 1.374 . S
C701 H681 0.950 . S
C701 C697 1.385 . S
C701 C700 1.374 . S
C702 C699 1.499 . S
C702 C703 1.373 . S
C702 C704 1.389 . S
C703 H682 0.950 . S
C703 C702 1.373 . S
C703 C719 1.377 1_565 S
C704 C702 1.389 . S
C704 C705 1.524 . S
C704 C718 1.377 1_565 S
C705 C704 1.524 . S
C705 C706 1.397 . S
C705 C710 1.363 . S
C706 H683 0.950 . S
C706 C705 1.397 . S
C706 C707 1.334 . S
C707 H684 0.950 . S
C707 C706 1.334 . S
C707 C708 1.287 . S
C708 C707 1.287 . S
C708 C709 1.524 . S
C708 H727 0.913 . S
C709 H685 0.950 . S
C709 C708 1.524 . S
C709 C710 1.415 . S
C710 H686 0.950 . S
C710 C705 1.363 . S
C710 C709 1.415 . S
C711 H687 0.951 . S
C711 C712 1.366 . S
C711 C713 1.388 . S
C712 C711 1.366 . S
C712 C716 1.385 . S
C713 H688 0.951 . S
C713 C711 1.388 . S
C713 C714 1.366 . S
C714 C713 1.366 . S
C714 C715 1.414 . S
C714 C717 1.499 . S
C715 H689 0.950 . S
C715 C714 1.414 . S
C715 C716 1.374 . S
C716 H690 0.950 . S
C716 C712 1.385 . S
C716 C715 1.374 . S
C717 C714 1.499 . S
C717 C718 1.373 . S
C717 C719 1.389 . S
C718 H691 0.950 . S
C718 C704 1.377 1_545 S
C718 C717 1.373 . S
C719 C703 1.377 1_545 S
C719 C717 1.389 . S
C719 C720 1.524 . S
C720 C719 1.524 . S
C720 C721 1.397 . S
C720 C725 1.363 . S
C721 H692 0.950 . S
C721 C720 1.397 . S
C721 C722 1.334 . S
C722 H693 0.950 . S
C722 C721 1.334 . S
C722 C723 1.287 . S
C723 C722 1.287 . S
C723 C724 1.524 . S
C723 H726 0.999 . S
C724 H694 0.950 . S
C724 C723 1.524 . S
C724 C725 1.415 . S
C725 H695 0.950 . S
C725 C720 1.363 . S
C725 C724 1.415 . S
H726 C723 0.999 . S
H727 C708 0.913 . S
H728 C746 0.951 . S
H729 C748 0.951 . S
H730 C750 0.950 . S
H731 C751 0.950 . S
H732 C753 0.950 . S
H733 C756 0.950 . S
H734 C757 0.950 . S
H735 C759 0.950 . S
H736 C760 0.950 . S
H737 C761 0.951 . S
H738 C763 0.951 . S
H739 C765 0.950 . S
H740 C766 0.950 . S
H741 C768 0.950 . S
H742 C771 0.950 . S
H743 C772 0.950 . S
H744 C774 0.950 . S
H745 C775 0.950 . S
C746 H728 0.951 . S
C746 C747 1.366 . S
C746 C748 1.388 . S
C747 C746 1.366 . S
C747 C751 1.385 . S
C748 H729 0.951 . S
C748 C746 1.388 . S
C748 C749 1.366 . S
C749 C748 1.366 . S
C749 C750 1.414 . S
C749 C752 1.499 . S
C750 H730 0.950 . S
C750 C749 1.414 . S
C750 C751 1.374 . S
C751 H731 0.950 . S
C751 C747 1.385 . S
C751 C750 1.374 . S
C752 C749 1.499 . S
C752 C753 1.373 . S
C752 C754 1.389 1_565 S
C753 H732 0.950 . S
C753 C752 1.373 . S
C753 C769 1.377 1_455 S
C754 C752 1.389 1_545 S
C754 C755 1.524 . S
C754 C768 1.377 1_455 S
C755 C754 1.524 . S
C755 C756 1.397 . S
C755 C760 1.363 . S
C756 H733 0.950 . S
C756 C755 1.397 . S
C756 C757 1.334 . S
C757 H734 0.950 . S
C757 C756 1.334 . S
C757 C758 1.287 . S
C758 C757 1.287 . S
C758 C759 1.524 . S
C758 H777 0.913 . S
C759 H735 0.950 . S
C759 C758 1.524 . S
C759 C760 1.415 . S
C760 H736 0.950 . S
C760 C755 1.363 . S
C760 C759 1.415 . S
C761 H737 0.951 . S
C761 C762 1.366 . S
C761 C763 1.388 . S
C762 C761 1.366 . S
C762 C766 1.385 . S
C763 H738 0.951 . S
C763 C761 1.388 . S
C763 C764 1.366 . S
C764 C763 1.366 . S
C764 C765 1.414 . S
C764 C767 1.499 . S
C765 H739 0.950 . S
C765 C764 1.414 . S
C765 C766 1.374 . S
C766 H740 0.950 . S
C766 C762 1.385 . S
C766 C765 1.374 . S
C767 C764 1.499 . S
C767 C768 1.373 . S
C767 C769 1.389 1_545 S
C768 H741 0.950 . S
C768 C754 1.377 1_655 S
C768 C767 1.373 . S
C769 C753 1.377 1_655 S
C769 C767 1.389 1_565 S
C769 C770 1.524 . S
C770 C769 1.524 . S
C770 C771 1.397 . S
C770 C775 1.363 . S
C771 H742 0.950 . S
C771 C770 1.397 . S
C771 C772 1.334 . S
C772 H743 0.950 . S
C772 C771 1.334 . S
C772 C773 1.287 . S
C773 C772 1.287 . S
C773 C774 1.524 . S
C773 H776 0.999 . S
C774 H744 0.950 . S
C774 C773 1.524 . S
C774 C775 1.415 . S
C775 H745 0.950 . S
C775 C770 1.363 . S
C775 C774 1.415 . S
H776 C773 0.999 . S
H777 C758 0.913 . S
H778 C796 0.951 . S
H779 C798 0.951 . S
H780 C800 0.950 . S
H781 C801 0.950 . S
H782 C803 0.950 . S
H783 C806 0.950 . S
H784 C807 0.950 . S
H785 C809 0.964 . S
H786 C810 0.946 1_655 S
H787 C811 0.951 . S
H788 C813 0.951 . S
H789 C815 0.950 . S
H790 C816 0.950 . S
H791 C818 0.950 . S
H792 C821 0.950 . S
H793 C822 0.950 . S
H794 C824 0.964 . S
H795 C825 0.946 1_455 S
C796 H778 0.951 . S
C796 C797 1.366 . S
C796 C798 1.388 . S
C797 C796 1.366 . S
C797 C801 1.385 . S
C798 H779 0.951 . S
C798 C796 1.388 . S
C798 C799 1.366 . S
C799 C798 1.366 . S
C799 C800 1.414 . S
C799 C802 1.499 . S
C800 H780 0.950 . S
C800 C799 1.414 . S
C800 C801 1.374 . S
C801 H781 0.950 . S
C801 C797 1.385 . S
C801 C800 1.374 . S
C802 C799 1.499 . S
C802 C803 1.373 . S
C802 C804 1.389 1_655 S
C803 H782 0.950 . S
C803 C802 1.373 . S
C803 C819 1.377 . S
C804 C802 1.389 1_455 S
C804 C805 1.524 . S
C804 C818 1.377 . S
C805 C804 1.524 . S
C805 C806 1.397 . S
C805 C810 1.365 . S
C806 H783 0.950 . S
C806 C805 1.397 . S
C806 C807 1.334 . S
C807 H784 0.950 . S
C807 C806 1.334 . S
C807 C808 1.287 . S
C808 C807 1.287 . S
C808 C809 1.524 . S
C808 H827 0.913 . S
C809 H785 0.964 . S
C809 C808 1.524 . S
C809 C810 1.417 . S
C810 H786 0.946 1_455 S
C810 C805 1.365 . S
C810 C809 1.417 . S
C811 H787 0.951 . S
C811 C812 1.366 . S
C811 C813 1.388 . S
C812 C811 1.366 . S
C812 C816 1.385 . S
C813 H788 0.951 . S
C813 C811 1.388 . S
C813 C814 1.366 . S
C814 C813 1.366 . S
C814 C815 1.414 . S
C814 C817 1.499 . S
C815 H789 0.950 . S
C815 C814 1.414 . S
C815 C816 1.374 . S
C816 H790 0.950 . S
C816 C812 1.385 . S
C816 C815 1.374 . S
C817 C814 1.499 . S
C817 C818 1.373 . S
C817 C819 1.389 1_455 S
C818 H791 0.950 . S
C818 C804 1.377 . S
C818 C817 1.373 . S
C819 C803 1.377 . S
C819 C817 1.389 1_655 S
C819 C820 1.524 . S
C820 C819 1.524 . S
C820 C821 1.397 . S
C820 C825 1.365 . S
C821 H792 0.950 . S
C821 C820 1.397 . S
C821 C822 1.334 . S
C822 H793 0.950 . S
C822 C821 1.334 . S
C822 C823 1.287 . S
C823 C822 1.287 . S
C823 C824 1.524 . S
C823 H826 0.999 . S
C824 H794 0.964 . S
C824 C823 1.524 . S
C824 C825 1.417 . S
C825 H795 0.946 1_655 S
C825 C820 1.365 . S
C825 C824 1.417 . S
H826 C823 0.999 . S
H827 C808 0.913 . S
H828 C846 0.951 . S
H829 C848 0.951 . S
H830 C850 0.950 . S
H831 C851 0.950 . S
H832 C853 0.950 . S
H833 C856 0.950 . S
H834 C857 0.950 . S
H835 C859 0.950 . S
H836 C860 0.950 . S
H837 C861 0.951 . S
H838 C863 0.951 . S
H839 C865 0.950 . S
H840 C866 0.950 . S
H841 C868 0.950 . S
H842 C871 0.950 . S
H843 C872 0.950 . S
H844 C874 0.950 . S
H845 C875 0.950 . S
C846 H828 0.951 . S
C846 C847 1.366 . S
C846 C848 1.388 . S
C847 C846 1.366 . S
C847 C851 1.385 1_554 S
C848 H829 0.951 . S
C848 C846 1.388 . S
C848 C849 1.366 . S
C849 C848 1.366 . S
C849 C850 1.414 1_554 S
C849 C852 1.499 . S
C850 H830 0.950 . S
C850 C849 1.414 1_556 S
C850 C851 1.374 . S
C851 H831 0.950 . S
C851 C847 1.385 1_556 S
C851 C850 1.374 . S
C852 C849 1.499 . S
C852 C853 1.373 1_554 S
C852 C854 1.389 . S
C853 H832 0.950 . S
C853 C852 1.373 1_556 S
C853 C869 1.377 . S
C854 C852 1.389 . S
C854 C855 1.524 . S
C854 C868 1.377 . S
C855 C854 1.524 . S
C855 C856 1.397 . S
C855 C860 1.363 . S
C856 H833 0.950 . S
C856 C855 1.397 . S
C856 C857 1.334 . S
C857 H834 0.950 . S
C857 C856 1.334 . S
C857 C858 1.287 . S
C858 C857 1.287 . S
C858 C859 1.524 . S
C858 H877 0.913 . S
C859 H835 0.950 . S
C859 C858 1.524 . S
C859 C860 1.415 . S
C860 H836 0.950 . S
C860 C855 1.363 . S
C860 C859 1.415 . S
C861 H837 0.951 . S
C861 C862 1.366 1_556 S
C861 C863 1.388 . S
C862 C861 1.366 1_554 S
C862 C866 1.385 . S
C863 H838 0.951 . S
C863 C861 1.388 . S
C863 C864 1.366 1_556 S
C864 C863 1.366 1_554 S
C864 C865 1.414 . S
C864 C867 1.499 . S
C865 H839 0.950 . S
C865 C864 1.414 . S
C865 C866 1.374 . S
C866 H840 0.950 . S
C866 C862 1.385 . S
C866 C865 1.374 . S
C867 C864 1.499 . S
C867 C868 1.373 . S
C867 C869 1.389 1_554 S
C868 H841 0.950 . S
C868 C854 1.377 . S
C868 C867 1.373 . S
C869 C853 1.377 . S
C869 C867 1.389 1_556 S
C869 C870 1.524 . S
C870 C869 1.524 . S
C870 C871 1.397 . S
C870 C875 1.363 . S
C871 H842 0.950 . S
C871 C870 1.397 . S
C871 C872 1.334 . S
C872 H843 0.950 . S
C872 C871 1.334 . S
C872 C873 1.287 . S
C873 C872 1.287 . S
C873 C874 1.524 . S
C873 H876 0.999 . S
C874 H844 0.950 . S
C874 C873 1.524 . S
C874 C875 1.415 . S
C875 H845 0.950 . S
C875 C870 1.363 . S
C875 C874 1.415 . S
H876 C873 0.999 . S
H877 C858 0.913 . S
H878 C896 0.951 . S
H879 C898 0.951 . S
H880 C900 0.950 . S
H881 C901 0.950 . S
H882 C903 0.950 . S
H883 C906 0.950 . S
H884 C907 0.950 . S
H885 C909 0.950 . S
H886 C910 0.950 . S
H887 C911 0.951 . S
H888 C913 0.951 . S
H889 C915 0.950 . S
H890 C916 0.950 . S
H891 C918 0.950 . S
H892 C921 0.950 . S
H893 C922 0.950 . S
H894 C924 0.950 . S
H895 C925 0.950 . S
C896 H878 0.951 . S
C896 C897 1.366 . S
C896 C898 1.388 . S
C897 C896 1.366 . S
C897 C901 1.385 . S
C898 H879 0.951 . S
C898 C896 1.388 . S
C898 C899 1.366 . S
C899 C898 1.366 . S
C899 C900 1.414 . S
C899 C902 1.499 . S
C900 H880 0.950 . S
C900 C899 1.414 . S
C900 C901 1.374 . S
C901 H881 0.950 . S
C901 C897 1.385 . S
C901 C900 1.374 . S
C902 C899 1.499 . S
C902 C903 1.373 . S
C902 C904 1.389 . S
C903 H882 0.950 . S
C903 C902 1.373 . S
C903 C919 1.377 1_565 S
C904 C902 1.389 . S
C904 C905 1.524 . S
C904 C918 1.377 1_565 S
C905 C904 1.524 . S
C905 C906 1.397 . S
C905 C910 1.363 1_565 S
C906 H883 0.950 . S
C906 C905 1.397 . S
C906 C907 1.334 . S
C907 H884 0.950 . S
C907 C906 1.334 . S
C907 C908 1.287 . S
C908 C907 1.287 . S
C908 C909 1.524 1_565 S
C908 H927 0.913 . S
C909 H885 0.950 . S
C909 C908 1.524 1_545 S
C909 C910 1.415 . S
C910 H886 0.950 . S
C910 C905 1.363 1_545 S
C910 C909 1.415 . S
C911 H887 0.951 . S
C911 C912 1.366 . S
C911 C913 1.388 . S
C912 C911 1.366 . S
C912 C916 1.385 . S
C913 H888 0.951 . S
C913 C911 1.388 . S
C913 C914 1.366 . S
C914 C913 1.366 . S
C914 C915 1.414 . S
C914 C917 1.499 . S
C915 H889 0.950 . S
C915 C914 1.414 . S
C915 C916 1.374 . S
C916 H890 0.950 . S
C916 C912 1.385 . S
C916 C915 1.374 . S
C917 C914 1.499 . S
C917 C918 1.373 . S
C917 C919 1.389 . S
C918 H891 0.950 . S
C918 C904 1.377 1_545 S
C918 C917 1.373 . S
C919 C903 1.377 1_545 S
C919 C917 1.389 . S
C919 C920 1.524 . S
C920 C919 1.524 . S
C920 C921 1.397 . S
C920 C925 1.363 1_545 S
C921 H892 0.950 . S
C921 C920 1.397 . S
C921 C922 1.334 . S
C922 H893 0.950 . S
C922 C921 1.334 . S
C922 C923 1.287 . S
C923 C922 1.287 . S
C923 C924 1.524 1_545 S
C923 H926 0.999 . S
C924 H894 0.950 . S
C924 C923 1.524 1_565 S
C924 C925 1.415 . S
C925 H895 0.950 . S
C925 C920 1.363 1_565 S
C925 C924 1.415 . S
H926 C923 0.999 . S
H927 C908 0.913 . S
H928 C946 0.951 . S
H929 C948 0.951 . S
H930 C950 0.950 . S
H931 C951 0.950 . S
H932 C953 0.950 . S
H933 C956 0.950 . S
H934 C957 0.950 . S
H935 C959 0.950 . S
H936 C960 0.950 . S
H937 C961 0.951 . S
H938 C963 0.951 1_565 S
H939 C965 0.950 . S
H940 C966 0.950 . S
H941 C968 0.950 . S
H942 C971 0.950 . S
H943 C972 0.950 . S
H944 C974 0.950 . S
H945 C975 0.950 . S
C946 H928 0.951 . S
C946 C947 1.366 . S
C946 C948 1.388 . S
C947 C946 1.366 . S
C947 C951 1.385 . S
C948 H929 0.951 . S
C948 C946 1.388 . S
C948 C949 1.366 . S
C949 C948 1.366 . S
C949 C950 1.414 . S
C949 C952 1.499 . S
C950 H930 0.950 . S
C950 C949 1.414 . S
C950 C951 1.374 . S
C951 H931 0.950 . S
C951 C947 1.385 . S
C951 C950 1.374 . S
C952 C949 1.499 . S
C952 C953 1.373 . S
C952 C954 1.389 . S
C953 H932 0.950 . S
C953 C952 1.373 . S
C953 C969 1.377 . S
C954 C952 1.389 . S
C954 C955 1.524 . S
C954 C968 1.377 1_565 S
C955 C954 1.524 . S
C955 C956 1.397 . S
C955 C960 1.363 1_565 S
C956 H933 0.950 . S
C956 C955 1.397 . S
C956 C957 1.334 . S
C957 H934 0.950 . S
C957 C956 1.334 . S
C957 C958 1.287 . S
C958 C957 1.287 . S
C958 C959 1.524 1_565 S
C958 H977 0.913 . S
C959 H935 0.950 . S
C959 C958 1.524 1_545 S
C959 C960 1.415 . S
C960 H936 0.950 . S
C960 C955 1.363 1_545 S
C960 C959 1.415 . S
C961 H937 0.951 . S
C961 C962 1.366 . S
C961 C963 1.388 . S
C962 C961 1.366 . S
C962 C966 1.385 . S
C963 H938 0.951 1_545 S
C963 C961 1.388 . S
C963 C964 1.366 . S
C964 C963 1.366 . S
C964 C965 1.414 . S
C964 C967 1.499 . S
C965 H939 0.950 . S
C965 C964 1.414 . S
C965 C966 1.374 . S
C966 H940 0.950 . S
C966 C962 1.385 . S
C966 C965 1.374 . S
C967 C964 1.499 . S
C967 C968 1.373 . S
C967 C969 1.389 1_545 S
C968 H941 0.950 . S
C968 C954 1.377 1_545 S
C968 C967 1.373 . S
C969 C953 1.377 . S
C969 C967 1.389 1_565 S
C969 C970 1.525 1_565 S
C970 C969 1.525 1_545 S
C970 C971 1.391 . S
C970 C975 1.367 1_545 S
C971 H942 0.950 . S
C971 C970 1.391 . S
C971 C972 1.334 . S
C972 H943 0.950 . S
C972 C971 1.334 . S
C972 C973 1.287 . S
C973 C972 1.287 . S
C973 C974 1.524 1_545 S
C973 H976 0.999 . S
C974 H944 0.950 . S
C974 C973 1.524 1_565 S
C974 C975 1.415 . S
C975 H945 0.950 . S
C975 C970 1.367 1_565 S
C975 C974 1.415 . S
H976 C973 0.999 . S
H977 C958 0.913 . S
H978 C996 0.951 . S
H979 C998 0.951 . S
H980 C1000 0.950 . S
H981 C1001 0.950 . S
H982 C1003 0.950 . S
H983 C1006 0.950 . S
H984 C1007 0.950 . S
H985 C1009 0.950 . S
H986 C1010 0.950 . S
H987 C1011 0.951 . S
H988 C1013 0.951 1_455 S
H989 C1015 0.950 . S
H990 C1016 0.950 . S
H991 C1018 0.950 . S
H992 C1021 0.950 . S
H993 C1022 0.950 . S
H994 C1024 0.950 . S
H995 C1025 0.950 . S
C996 H978 0.951 . S
C996 C997 1.366 . S
C996 C998 1.388 . S
C997 C996 1.366 . S
C997 C1001 1.385 . S
C998 H979 0.951 . S
C998 C996 1.388 . S
C998 C999 1.366 . S
C999 C998 1.366 . S
C999 C1000 1.414 . S
C999 C1002 1.499 . S
C1000 H980 0.950 . S
C1000 C999 1.414 . S
C1000 C1001 1.374 . S
C1001 H981 0.950 . S
C1001 C997 1.385 . S
C1001 C1000 1.374 . S
C1002 C999 1.499 . S
C1002 C1003 1.373 . S
C1002 C1004 1.389 . S
C1003 H982 0.950 . S
C1003 C1002 1.373 . S
C1003 C1019 1.377 . S
C1004 C1002 1.389 . S
C1004 C1005 1.524 . S
C1004 C1018 1.377 1_455 S
C1005 C1004 1.524 . S
C1005 C1006 1.397 . S
C1005 C1010 1.363 1_455 S
C1006 H983 0.950 . S
C1006 C1005 1.397 . S
C1006 C1007 1.334 . S
C1007 H984 0.950 . S
C1007 C1006 1.334 . S
C1007 C1008 1.287 . S
C1008 C1007 1.287 . S
C1008 C1009 1.524 1_455 S
C1008 H1027 0.913 . S
C1009 H985 0.950 . S
C1009 C1008 1.524 1_655 S
C1009 C1010 1.415 . S
C1010 H986 0.950 . S
C1010 C1005 1.363 1_655 S
C1010 C1009 1.415 . S
C1011 H987 0.951 . S
C1011 C1012 1.366 . S
C1011 C1013 1.388 . S
C1012 C1011 1.366 . S
C1012 C1016 1.385 . S
C1013 H988 0.951 1_655 S
C1013 C1011 1.388 . S
C1013 C1014 1.366 . S
C1014 C1013 1.366 . S
C1014 C1015 1.414 . S
C1014 C1017 1.499 . S
C1015 H989 0.950 . S
C1015 C1014 1.414 . S
C1015 C1016 1.374 . S
C1016 H990 0.950 . S
C1016 C1012 1.385 . S
C1016 C1015 1.374 . S
C1017 C1014 1.499 . S
C1017 C1018 1.373 . S
C1017 C1019 1.389 1_655 S
C1018 H991 0.950 . S
C1018 C1004 1.377 1_655 S
C1018 C1017 1.373 . S
C1019 C1003 1.377 . S
C1019 C1017 1.389 1_455 S
C1019 C1020 1.524 . S
C1020 C1019 1.524 . S
C1020 C1021 1.397 1_455 S
C1020 C1025 1.363 . S
C1021 H992 0.950 . S
C1021 C1020 1.397 1_655 S
C1021 C1022 1.334 . S
C1022 H993 0.950 . S
C1022 C1021 1.334 . S
C1022 C1023 1.287 1_655 S
C1023 C1022 1.287 1_455 S
C1023 C1024 1.524 . S
C1023 H1026 0.999 . S
C1024 H994 0.950 . S
C1024 C1023 1.524 . S
C1024 C1025 1.415 . S
C1025 H995 0.950 . S
C1025 C1020 1.363 . S
C1025 C1024 1.415 . S
H1026 C1023 0.999 . S
H1027 C1008 0.913 . S
H1028 C1046 0.951 . S
H1029 C1048 0.951 . S
H1030 C1050 0.950 . S
H1031 C1051 0.950 . S
H1032 C1053 0.950 . S
H1033 C1056 0.950 . S
H1034 C1057 0.950 . S
H1035 C1059 0.950 . S
H1036 C1060 0.950 . S
H1037 C1061 0.951 . S
H1038 C1063 0.951 . S
H1039 C1065 0.950 . S
H1040 C1066 0.950 . S
H1041 C1068 0.950 . S
H1042 C1071 0.950 . S
H1043 C1072 0.950 . S
H1044 C1074 0.950 . S
H1045 C1075 0.950 . S
C1046 H1028 0.951 . S
C1046 C1047 1.366 . S
C1046 C1048 1.388 . S
C1047 C1046 1.366 . S
C1047 C1051 1.385 . S
C1048 H1029 0.951 . S
C1048 C1046 1.388 . S
C1048 C1049 1.366 . S
C1049 C1048 1.366 . S
C1049 C1050 1.414 . S
C1049 C1052 1.499 . S
C1050 H1030 0.950 . S
C1050 C1049 1.414 . S
C1050 C1051 1.374 . S
C1051 H1031 0.950 . S
C1051 C1047 1.385 . S
C1051 C1050 1.374 . S
C1052 C1049 1.499 . S
C1052 C1053 1.373 . S
C1052 C1054 1.389 . S
C1053 H1032 0.950 . S
C1053 C1052 1.373 . S
C1053 C1069 1.377 . S
C1054 C1052 1.389 . S
C1054 C1055 1.524 . S
C1054 C1068 1.377 . S
C1055 C1054 1.524 . S
C1055 C1056 1.397 . S
C1055 C1060 1.363 . S
C1056 H1033 0.950 . S
C1056 C1055 1.397 . S
C1056 C1057 1.334 . S
C1057 H1034 0.950 . S
C1057 C1056 1.334 . S
C1057 C1058 1.287 . S
C1058 C1057 1.287 . S
C1058 C1059 1.524 . S
C1058 H1077 0.913 . S
C1059 H1035 0.950 . S
C1059 C1058 1.524 . S
C1059 C1060 1.415 . S
C1060 H1036 0.950 . S
C1060 C1055 1.363 . S
C1060 C1059 1.415 . S
C1061 H1037 0.951 . S
C1061 C1062 1.366 . S
C1061 C1063 1.388 . S
C1062 C1061 1.366 . S
C1062 C1066 1.385 . S
C1063 H1038 0.951 . S
C1063 C1061 1.388 . S
C1063 C1064 1.366 . S
C1064 C1063 1.366 . S
C1064 C1065 1.414 . S
C1064 C1067 1.499 . S
C1065 H1039 0.950 . S
C1065 C1064 1.414 . S
C1065 C1066 1.374 . S
C1066 H1040 0.950 . S
C1066 C1062 1.385 . S
C1066 C1065 1.374 . S
C1067 C1064 1.499 . S
C1067 C1068 1.373 . S
C1067 C1069 1.389 . S
C1068 H1041 0.950 . S
C1068 C1054 1.377 . S
C1068 C1067 1.373 . S
C1069 C1053 1.377 . S
C1069 C1067 1.389 . S
C1069 C1070 1.524 . S
C1070 C1069 1.524 . S
C1070 C1071 1.397 . S
C1070 C1075 1.363 . S
C1071 H1042 0.950 . S
C1071 C1070 1.397 . S
C1071 C1072 1.334 . S
C1072 H1043 0.950 . S
C1072 C1071 1.334 . S
C1072 C1073 1.287 . S
C1073 C1072 1.287 . S
C1073 C1074 1.524 . S
C1073 H1076 0.999 . S
C1074 H1044 0.950 . S
C1074 C1073 1.524 . S
C1074 C1075 1.415 . S
C1075 H1045 0.950 . S
C1075 C1070 1.363 . S
C1075 C1074 1.415 . S
H1076 C1073 0.999 . S
H1077 C1058 0.913 . S
H1078 C1096 0.951 . S
H1079 C1098 0.951 . S
H1080 C1100 0.950 . S
H1081 C1101 0.950 . S
H1082 C1103 0.950 . S
H1083 C1106 0.950 . S
H1084 C1107 0.959 . S
H1085 C1109 0.950 . S
H1086 C1110 0.950 . S
H1087 C1111 0.951 . S
H1088 C1113 0.951 . S
H1089 C1115 0.950 . S
H1090 C1116 0.950 . S
H1091 C1118 0.950 . S
H1092 C1121 0.950 . S
H1093 C1122 0.950 . S
H1094 C1124 0.950 . S
H1095 C1125 0.950 . S
C1096 H1078 0.951 . S
C1096 C1097 1.366 . S
C1096 C1098 1.388 . S
C1097 C1096 1.366 . S
C1097 C1101 1.385 . S
C1098 H1079 0.951 . S
C1098 C1096 1.388 . S
C1098 C1099 1.366 . S
C1099 C1098 1.366 . S
C1099 C1100 1.414 . S
C1099 C1102 1.499 . S
C1100 H1080 0.950 . S
C1100 C1099 1.414 . S
C1100 C1101 1.374 . S
C1101 H1081 0.950 . S
C1101 C1097 1.385 . S
C1101 C1100 1.374 . S
C1102 C1099 1.499 . S
C1102 C1103 1.373 . S
C1102 C1104 1.389 1_554 S
C1103 H1082 0.950 . S
C1103 C1102 1.373 . S
C1103 C1119 1.377 1_554 S
C1104 C1102 1.389 1_556 S
C1104 C1105 1.524 . S
C1104 C1118 1.377 . S
C1105 C1104 1.524 . S
C1105 C1106 1.397 1_556 S
C1105 C1110 1.363 . S
C1106 H1083 0.950 . S
C1106 C1105 1.397 1_554 S
C1106 C1107 1.336 . S
C1107 H1084 0.959 . S
C1107 C1106 1.336 . S
C1107 C1108 1.276 1_554 S
C1108 C1107 1.276 1_556 S
C1108 C1109 1.524 . S
C1108 H1127 0.913 . S
C1109 H1085 0.950 . S
C1109 C1108 1.524 . S
C1109 C1110 1.415 . S
C1110 H1086 0.950 . S
C1110 C1105 1.363 . S
C1110 C1109 1.415 . S
C1111 H1087 0.951 . S
C1111 C1112 1.366 . S
C1111 C1113 1.388 . S
C1112 C1111 1.366 . S
C1112 C1116 1.385 . S
C1113 H1088 0.951 . S
C1113 C1111 1.388 . S
C1113 C1114 1.366 . S
C1114 C1113 1.366 . S
C1114 C1115 1.414 . S
C1114 C1117 1.499 . S
C1115 H1089 0.950 . S
C1115 C1114 1.414 . S
C1115 C1116 1.374 . S
C1116 H1090 0.950 . S
C1116 C1112 1.385 . S
C1116 C1115 1.374 . S
C1117 C1114 1.499 . S
C1117 C1118 1.373 . S
C1117 C1119 1.389 . S
C1118 H1091 0.950 . S
C1118 C1104 1.377 . S
C1118 C1117 1.373 . S
C1119 C1103 1.377 1_556 S
C1119 C1117 1.389 . S
C1119 C1120 1.524 . S
C1120 C1119 1.524 . S
C1120 C1121 1.397 . S
C1120 C1125 1.363 1_556 S
C1121 H1092 0.950 . S
C1121 C1120 1.397 . S
C1121 C1122 1.334 . S
C1122 H1093 0.950 . S
C1122 C1121 1.334 . S
C1122 C1123 1.287 1_556 S
C1123 C1122 1.287 1_554 S
C1123 C1124 1.524 . S
C1123 H1126 0.999 . S
C1124 H1094 0.950 . S
C1124 C1123 1.524 . S
C1124 C1125 1.415 . S
C1125 H1095 0.950 . S
C1125 C1120 1.363 1_554 S
C1125 C1124 1.415 . S
H1126 C1123 0.999 . S
H1127 C1108 0.913 . S
H1128 C1146 0.951 . S
H1129 C1148 0.951 . S
H1130 C1150 0.950 . S
H1131 C1151 0.950 . S
H1132 C1153 0.950 . S
H1133 C1156 0.950 . S
H1134 C1157 0.950 . S
H1135 C1159 0.950 . S
H1136 C1160 0.950 . S
H1137 C1161 0.951 . S
H1138 C1163 0.951 . S
H1139 C1165 0.950 . S
H1140 C1166 0.950 . S
H1141 C1168 0.950 . S
H1142 C1171 0.950 . S
H1143 C1172 0.950 . S
H1144 C1174 0.950 . S
H1145 C1175 0.950 . S
C1146 H1128 0.951 . S
C1146 C1147 1.366 . S
C1146 C1148 1.388 . S
C1147 C1146 1.366 . S
C1147 C1151 1.385 . S
C1148 H1129 0.951 . S
C1148 C1146 1.388 . S
C1148 C1149 1.366 . S
C1149 C1148 1.366 . S
C1149 C1150 1.414 . S
C1149 C1152 1.499 . S
C1150 H1130 0.950 . S
C1150 C1149 1.414 . S
C1150 C1151 1.374 . S
C1151 H1131 0.950 . S
C1151 C1147 1.385 . S
C1151 C1150 1.374 . S
C1152 C1149 1.499 . S
C1152 C1153 1.373 . S
C1152 C1154 1.389 1_545 S
C1153 H1132 0.950 . S
C1153 C1152 1.373 . S
C1153 C1169 1.377 1_545 S
C1154 C1152 1.389 1_565 S
C1154 C1155 1.524 . S
C1154 C1168 1.377 . S
C1155 C1154 1.524 . S
C1155 C1156 1.397 . S
C1155 C1160 1.363 . S
C1156 H1133 0.950 . S
C1156 C1155 1.397 . S
C1156 C1157 1.334 . S
C1157 H1134 0.950 . S
C1157 C1156 1.334 . S
C1157 C1158 1.287 . S
C1158 C1157 1.287 . S
C1158 C1159 1.524 . S
C1158 H1177 0.913 . S
C1159 H1135 0.950 . S
C1159 C1158 1.524 . S
C1159 C1160 1.415 . S
C1160 H1136 0.950 . S
C1160 C1155 1.363 . S
C1160 C1159 1.415 . S
C1161 H1137 0.951 . S
C1161 C1162 1.366 . S
C1161 C1163 1.388 . S
C1162 C1161 1.366 . S
C1162 C1166 1.385 . S
C1163 H1138 0.951 . S
C1163 C1161 1.388 . S
C1163 C1164 1.366 . S
C1164 C1163 1.366 . S
C1164 C1165 1.414 . S
C1164 C1167 1.499 . S
C1165 H1139 0.950 . S
C1165 C1164 1.414 . S
C1165 C1166 1.374 . S
C1166 H1140 0.950 . S
C1166 C1162 1.385 . S
C1166 C1165 1.374 . S
C1167 C1164 1.499 . S
C1167 C1168 1.373 . S
C1167 C1169 1.389 . S
C1168 H1141 0.950 . S
C1168 C1154 1.377 . S
C1168 C1167 1.373 . S
C1169 C1153 1.377 1_565 S
C1169 C1167 1.389 . S
C1169 C1170 1.518 1_565 S
C1170 C1169 1.518 1_545 S
C1170 C1171 1.411 . S
C1170 C1175 1.359 1_545 S
C1171 H1142 0.950 . S
C1171 C1170 1.411 . S
C1171 C1172 1.334 . S
C1172 H1143 0.950 . S
C1172 C1171 1.334 . S
C1172 C1173 1.287 . S
C1173 C1172 1.287 . S
C1173 C1174 1.524 . S
C1173 H1176 0.999 . S
C1174 H1144 0.950 . S
C1174 C1173 1.524 . S
C1174 C1175 1.415 1_545 S
C1175 H1145 0.950 . S
C1175 C1170 1.359 1_565 S
C1175 C1174 1.415 1_565 S
H1176 C1173 0.999 . S
H1177 C1158 0.913 . S
H1178 C1196 0.951 . S
H1179 C1198 0.951 . S
H1180 C1200 0.950 1_455 S
H1181 C1201 0.950 . S
H1182 C1203 0.950 . S
H1183 C1206 0.950 . S
H1184 C1207 0.950 . S
H1185 C1209 0.950 . S
H1186 C1210 0.950 . S
H1187 C1211 0.951 . S
H1188 C1213 0.951 . S
H1189 C1215 0.950 . S
H1190 C1216 0.950 . S
H1191 C1218 0.950 . S
H1192 C1221 0.950 . S
H1193 C1222 0.950 . S
H1194 C1224 0.950 . S
H1195 C1225 0.950 . S
C1196 H1178 0.951 . S
C1196 C1197 1.366 . S
C1196 C1198 1.388 . S
C1197 C1196 1.366 . S
C1197 C1201 1.385 . S
C1198 H1179 0.951 . S
C1198 C1196 1.388 . S
C1198 C1199 1.366 . S
C1199 C1198 1.366 . S
C1199 C1200 1.414 . S
C1199 C1202 1.499 . S
C1200 H1180 0.950 1_655 S
C1200 C1199 1.414 . S
C1200 C1201 1.374 . S
C1201 H1181 0.950 . S
C1201 C1197 1.385 . S
C1201 C1200 1.374 . S
C1202 C1199 1.499 . S
C1202 C1203 1.373 1_655 S
C1202 C1204 1.389 . S
C1203 H1182 0.950 . S
C1203 C1202 1.373 1_455 S
C1203 C1219 1.377 . S
C1204 C1202 1.389 . S
C1204 C1205 1.524 . S
C1204 C1218 1.377 1_556 S
C1205 C1204 1.524 . S
C1205 C1206 1.397 . S
C1205 C1210 1.363 1_556 S
C1206 H1183 0.950 . S
C1206 C1205 1.397 . S
C1206 C1207 1.334 . S
C1207 H1184 0.950 . S
C1207 C1206 1.334 . S
C1207 C1208 1.287 1_556 S
C1208 C1207 1.287 1_554 S
C1208 C1209 1.524 . S
C1208 H1227 0.913 . S
C1209 H1185 0.950 . S
C1209 C1208 1.524 . S
C1209 C1210 1.415 . S
C1210 H1186 0.950 . S
C1210 C1205 1.363 1_554 S
C1210 C1209 1.415 . S
C1211 H1187 0.951 . S
C1211 C1212 1.366 . S
C1211 C1213 1.388 . S
C1212 C1211 1.366 . S
C1212 C1216 1.385 . S
C1213 H1188 0.951 . S
C1213 C1211 1.388 . S
C1213 C1214 1.366 . S
C1214 C1213 1.366 . S
C1214 C1215 1.414 . S
C1214 C1217 1.499 . S
C1215 H1189 0.950 . S
C1215 C1214 1.414 . S
C1215 C1216 1.374 . S
C1216 H1190 0.950 . S
C1216 C1212 1.385 . S
C1216 C1215 1.374 . S
C1217 C1214 1.499 . S
C1217 C1218 1.373 1_455 S
C1217 C1219 1.389 1_554 S
C1218 H1191 0.950 . S
C1218 C1204 1.377 1_554 S
C1218 C1217 1.373 1_655 S
C1219 C1203 1.377 . S
C1219 C1217 1.389 1_556 S
C1219 C1220 1.524 . S
C1220 C1219 1.524 . S
C1220 C1221 1.397 1_556 S
C1220 C1225 1.363 . S
C1221 H1192 0.950 . S
C1221 C1220 1.397 1_554 S
C1221 C1222 1.334 . S
C1222 H1193 0.950 . S
C1222 C1221 1.334 . S
C1222 C1223 1.287 1_554 S
C1223 C1222 1.287 1_556 S
C1223 C1224 1.524 . S
C1223 H1226 0.999 . S
C1224 H1194 0.950 . S
C1224 C1223 1.524 . S
C1224 C1225 1.415 . S
C1225 H1195 0.950 . S
C1225 C1220 1.363 . S
C1225 C1224 1.415 . S
H1226 C1223 0.999 . S
H1227 C1208 0.913 . S
H1228 C1246 0.951 . S
H1229 C1248 0.951 . S
H1230 C1250 0.950 . S
H1231 C1251 0.950 . S
H1232 C1253 0.950 . S
H1233 C1256 0.950 . S
H1234 C1257 0.950 . S
H1235 C1259 0.950 . S
H1236 C1260 0.950 . S
H1237 C1261 0.951 . S
H1238 C1263 0.951 . S
H1239 C1265 0.950 . S
H1240 C1266 0.950 . S
H1241 C1268 0.950 . S
H1242 C1271 0.950 . S
H1243 C1272 0.950 . S
H1244 C1274 0.950 . S
H1245 C1275 0.950 . S
C1246 H1228 0.951 . S
C1246 C1247 1.366 . S
C1246 C1248 1.388 . S
C1247 C1246 1.366 . S
C1247 C1251 1.385 . S
C1248 H1229 0.951 . S
C1248 C1246 1.388 . S
C1248 C1249 1.366 . S
C1249 C1248 1.366 . S
C1249 C1250 1.414 . S
C1249 C1252 1.499 . S
C1250 H1230 0.950 . S
C1250 C1249 1.414 . S
C1250 C1251 1.374 . S
C1251 H1231 0.950 . S
C1251 C1247 1.385 . S
C1251 C1250 1.374 . S
C1252 C1249 1.499 . S
C1252 C1253 1.373 . S
C1252 C1254 1.389 . S
C1253 H1232 0.950 . S
C1253 C1252 1.373 . S
C1253 C1269 1.377 . S
C1254 C1252 1.389 . S
C1254 C1255 1.524 . S
C1254 C1268 1.377 . S
C1255 C1254 1.524 . S
C1255 C1256 1.397 . S
C1255 C1260 1.363 . S
C1256 H1233 0.950 . S
C1256 C1255 1.397 . S
C1256 C1257 1.334 . S
C1257 H1234 0.950 . S
C1257 C1256 1.334 . S
C1257 C1258 1.287 . S
C1258 C1257 1.287 . S
C1258 C1259 1.524 . S
C1258 H1277 0.913 . S
C1259 H1235 0.950 . S
C1259 C1258 1.524 . S
C1259 C1260 1.415 . S
C1260 H1236 0.950 . S
C1260 C1255 1.363 . S
C1260 C1259 1.415 . S
C1261 H1237 0.951 . S
C1261 C1262 1.366 . S
C1261 C1263 1.388 . S
C1262 C1261 1.366 . S
C1262 C1266 1.385 . S
C1263 H1238 0.951 . S
C1263 C1261 1.388 . S
C1263 C1264 1.366 . S
C1264 C1263 1.366 . S
C1264 C1265 1.414 . S
C1264 C1267 1.499 . S
C1265 H1239 0.950 . S
C1265 C1264 1.414 . S
C1265 C1266 1.374 . S
C1266 H1240 0.950 . S
C1266 C1262 1.385 . S
C1266 C1265 1.374 . S
C1267 C1264 1.499 . S
C1267 C1268 1.373 . S
C1267 C1269 1.389 . S
C1268 H1241 0.950 . S
C1268 C1254 1.377 . S
C1268 C1267 1.373 . S
C1269 C1253 1.377 . S
C1269 C1267 1.389 . S
C1269 C1270 1.524 . S
C1270 C1269 1.524 . S
C1270 C1271 1.397 . S
C1270 C1275 1.363 . S
C1271 H1242 0.950 . S
C1271 C1270 1.397 . S
C1271 C1272 1.334 . S
C1272 H1243 0.950 . S
C1272 C1271 1.334 . S
C1272 C1273 1.287 . S
C1273 C1272 1.287 . S
C1273 C1274 1.524 . S
C1273 H1276 0.999 . S
C1274 H1244 0.950 . S
C1274 C1273 1.524 . S
C1274 C1275 1.415 . S
C1275 H1245 0.950 . S
C1275 C1270 1.363 . S
C1275 C1274 1.415 . S
H1276 C1273 0.999 . S
H1277 C1258 0.913 . S
H1278 C1296 0.951 . S
H1279 C1298 0.951 . S
H1280 C1300 0.950 . S
H1281 C1301 0.950 . S
H1282 C1303 0.950 . S
H1283 C1306 0.950 . S
H1284 C1307 0.950 . S
H1285 C1309 0.950 . S
H1286 C1310 0.950 . S
H1287 C1311 0.951 . S
H1288 C1313 0.951 . S
H1289 C1315 0.950 . S
H1290 C1316 0.950 . S
H1291 C1318 0.950 . S
H1292 C1321 0.950 . S
H1293 C1322 0.950 . S
H1294 C1324 0.950 . S
H1295 C1325 0.950 . S
C1296 H1278 0.951 . S
C1296 C1297 1.366 . S
C1296 C1298 1.388 . S
C1297 C1296 1.366 . S
C1297 C1301 1.385 . S
C1298 H1279 0.951 . S
C1298 C1296 1.388 . S
C1298 C1299 1.366 . S
C1299 C1298 1.366 . S
C1299 C1300 1.414 . S
C1299 C1302 1.499 . S
C1300 H1280 0.950 . S
C1300 C1299 1.414 . S
C1300 C1301 1.374 . S
C1301 H1281 0.950 . S
C1301 C1297 1.385 . S
C1301 C1300 1.374 . S
C1302 C1299 1.499 . S
C1302 C1303 1.373 . S
C1302 C1304 1.389 . S
C1303 H1282 0.950 . S
C1303 C1302 1.373 . S
C1303 C1319 1.377 . S
C1304 C1302 1.389 . S
C1304 C1305 1.524 . S
C1304 C1318 1.377 . S
C1305 C1304 1.524 . S
C1305 C1306 1.397 . S
C1305 C1310 1.363 . S
C1306 H1283 0.950 . S
C1306 C1305 1.397 . S
C1306 C1307 1.334 . S
C1307 H1284 0.950 . S
C1307 C1306 1.334 . S
C1307 C1308 1.287 . S
C1308 C1307 1.287 . S
C1308 C1309 1.524 . S
C1308 H1327 0.913 . S
C1309 H1285 0.950 . S
C1309 C1308 1.524 . S
C1309 C1310 1.415 . S
C1310 H1286 0.950 . S
C1310 C1305 1.363 . S
C1310 C1309 1.415 . S
C1311 H1287 0.951 . S
C1311 C1312 1.366 . S
C1311 C1313 1.388 . S
C1312 C1311 1.366 . S
C1312 C1316 1.385 . S
C1313 H1288 0.951 . S
C1313 C1311 1.388 . S
C1313 C1314 1.366 . S
C1314 C1313 1.366 . S
C1314 C1315 1.414 . S
C1314 C1317 1.499 . S
C1315 H1289 0.950 . S
C1315 C1314 1.414 . S
C1315 C1316 1.374 . S
C1316 H1290 0.950 . S
C1316 C1312 1.385 . S
C1316 C1315 1.374 . S
C1317 C1314 1.499 . S
C1317 C1318 1.373 . S
C1317 C1319 1.389 . S
C1318 H1291 0.950 . S
C1318 C1304 1.377 . S
C1318 C1317 1.373 . S
C1319 C1303 1.377 . S
C1319 C1317 1.389 . S
C1319 C1320 1.524 . S
C1320 C1319 1.524 . S
C1320 C1321 1.397 . S
C1320 C1325 1.363 . S
C1321 H1292 0.950 . S
C1321 C1320 1.397 . S
C1321 C1322 1.334 . S
C1322 H1293 0.950 . S
C1322 C1321 1.334 . S
C1322 C1323 1.287 . S
C1323 C1322 1.287 . S
C1323 C1324 1.524 . S
C1323 H1326 0.999 . S
C1324 H1294 0.950 . S
C1324 C1323 1.524 . S
C1324 C1325 1.415 . S
C1325 H1295 0.950 . S
C1325 C1320 1.363 . S
C1325 C1324 1.415 . S
H1326 C1323 0.999 . S
H1327 C1308 0.913 . S
H1328 C1346 0.951 . S
H1329 C1348 0.951 . S
H1330 C1350 0.950 . S
H1331 C1351 0.950 . S
H1332 C1353 0.950 . S
H1333 C1356 0.950 . S
H1334 C1357 0.950 . S
H1335 C1359 0.950 . S
H1336 C1360 0.950 . S
H1337 C1361 0.951 . S
H1338 C1363 0.951 . S
H1339 C1365 0.950 . S
H1340 C1366 0.950 . S
H1341 C1368 0.950 . S
H1342 C1371 0.950 . S
H1343 C1372 0.950 . S
H1344 C1374 0.950 . S
H1345 C1375 0.950 . S
C1346 H1328 0.951 . S
C1346 C1347 1.366 . S
C1346 C1348 1.388 . S
C1347 C1346 1.366 . S
C1347 C1351 1.385 . S
C1348 H1329 0.951 . S
C1348 C1346 1.388 . S
C1348 C1349 1.366 . S
C1349 C1348 1.366 . S
C1349 C1350 1.414 . S
C1349 C1352 1.499 . S
C1350 H1330 0.950 . S
C1350 C1349 1.414 . S
C1350 C1351 1.374 . S
C1351 H1331 0.950 . S
C1351 C1347 1.385 . S
C1351 C1350 1.374 . S
C1352 C1349 1.499 . S
C1352 C1353 1.373 . S
C1352 C1354 1.389 . S
C1353 H1332 0.950 . S
C1353 C1352 1.373 . S
C1353 C1369 1.377 . S
C1354 C1352 1.389 . S
C1354 C1355 1.524 . S
C1354 C1368 1.377 . S
C1355 C1354 1.524 . S
C1355 C1356 1.397 . S
C1355 C1360 1.363 . S
C1356 H1333 0.950 . S
C1356 C1355 1.397 . S
C1356 C1357 1.334 . S
C1357 H1334 0.950 . S
C1357 C1356 1.334 . S
C1357 C1358 1.287 . S
C1358 C1357 1.287 . S
C1358 C1359 1.524 . S
C1358 H1377 0.913 . S
C1359 H1335 0.950 . S
C1359 C1358 1.524 . S
C1359 C1360 1.415 . S
C1360 H1336 0.950 . S
C1360 C1355 1.363 . S
C1360 C1359 1.415 . S
C1361 H1337 0.951 . S
C1361 C1362 1.366 . S
C1361 C1363 1.388 . S
C1362 C1361 1.366 . S
C1362 C1366 1.385 . S
C1363 H1338 0.951 . S
C1363 C1361 1.388 . S
C1363 C1364 1.366 . S
C1364 C1363 1.366 . S
C1364 C1365 1.414 . S
C1364 C1367 1.499 . S
C1365 H1339 0.950 . S
C1365 C1364 1.414 . S
C1365 C1366 1.374 . S
C1366 H1340 0.950 . S
C1366 C1362 1.385 . S
C1366 C1365 1.374 . S
C1367 C1364 1.499 . S
C1367 C1368 1.373 . S
C1367 C1369 1.389 . S
C1368 H1341 0.950 . S
C1368 C1354 1.377 . S
C1368 C1367 1.373 . S
C1369 C1353 1.377 . S
C1369 C1367 1.389 . S
C1369 C1370 1.524 . S
C1370 C1369 1.524 . S
C1370 C1371 1.397 . S
C1370 C1375 1.363 . S
C1371 H1342 0.950 . S
C1371 C1370 1.397 . S
C1371 C1372 1.334 . S
C1372 H1343 0.950 . S
C1372 C1371 1.334 . S
C1372 C1373 1.287 . S
C1373 C1372 1.287 . S
C1373 C1374 1.524 . S
C1373 H1376 0.999 . S
C1374 H1344 0.950 . S
C1374 C1373 1.524 . S
C1374 C1375 1.415 . S
C1375 H1345 0.950 . S
C1375 C1370 1.363 . S
C1375 C1374 1.415 . S
H1376 C1373 0.999 . S
H1377 C1358 0.913 . S
H1378 C1396 0.951 . S
H1379 C1398 0.951 . S
H1380 C1400 0.950 . S
H1381 C1401 0.950 . S
H1382 C1403 0.950 . S
H1383 C1406 0.950 . S
H1384 C1407 0.950 . S
H1385 C1409 0.950 . S
H1386 C1410 0.950 . S
H1387 C1411 0.951 . S
H1388 C1413 0.951 . S
H1389 C1415 0.950 . S
H1390 C1416 0.950 . S
H1391 C1418 0.950 . S
H1392 C1421 0.950 . S
H1393 C1422 0.950 . S
H1394 C1424 0.943 1_554 S
H1395 C1425 0.950 . S
C1396 H1378 0.951 . S
C1396 C1397 1.366 . S
C1396 C1398 1.388 . S
C1397 C1396 1.366 . S
C1397 C1401 1.385 . S
C1398 H1379 0.951 . S
C1398 C1396 1.388 . S
C1398 C1399 1.366 . S
C1399 C1398 1.366 . S
C1399 C1400 1.414 . S
C1399 C1402 1.499 . S
C1400 H1380 0.950 . S
C1400 C1399 1.414 . S
C1400 C1401 1.374 . S
C1401 H1381 0.950 . S
C1401 C1397 1.385 . S
C1401 C1400 1.374 . S
C1402 C1399 1.499 . S
C1402 C1403 1.373 . S
C1402 C1404 1.391 1_554 S
C1403 H1382 0.950 . S
C1403 C1402 1.373 . S
C1403 C1419 1.377 1_554 S
C1404 C1402 1.391 1_556 S
C1404 C1405 1.525 1_556 S
C1404 C1418 1.374 . S
C1405 C1404 1.525 1_554 S
C1405 C1406 1.397 . S
C1405 C1410 1.363 1_554 S
C1406 H1383 0.950 . S
C1406 C1405 1.397 . S
C1406 C1407 1.334 . S
C1407 H1384 0.950 . S
C1407 C1406 1.334 . S
C1407 C1408 1.287 . S
C1408 C1407 1.287 . S
C1408 C1409 1.524 1_554 S
C1408 H1427 0.913 . S
C1409 H1385 0.950 . S
C1409 C1408 1.524 1_556 S
C1409 C1410 1.415 . S
C1410 H1386 0.950 . S
C1410 C1405 1.363 1_556 S
C1410 C1409 1.415 . S
C1411 H1387 0.951 . S
C1411 C1412 1.366 . S
C1411 C1413 1.388 . S
C1412 C1411 1.366 . S
C1412 C1416 1.385 . S
C1413 H1388 0.951 . S
C1413 C1411 1.388 . S
C1413 C1414 1.366 . S
C1414 C1413 1.366 . S
C1414 C1415 1.414 . S
C1414 C1417 1.499 . S
C1415 H1389 0.950 . S
C1415 C1414 1.414 . S
C1415 C1416 1.374 . S
C1416 H1390 0.950 . S
C1416 C1412 1.385 . S
C1416 C1415 1.374 . S
C1417 C1414 1.499 . S
C1417 C1418 1.373 . S
C1417 C1419 1.389 . S
C1418 H1391 0.950 . S
C1418 C1404 1.374 . S
C1418 C1417 1.373 . S
C1419 C1403 1.377 1_556 S
C1419 C1417 1.389 . S
C1419 C1420 1.524 . S
C1420 C1419 1.524 . S
C1420 C1421 1.397 . S
C1420 C1425 1.363 1_556 S
C1421 H1392 0.950 . S
C1421 C1420 1.397 . S
C1421 C1422 1.334 . S
C1422 H1393 0.950 . S
C1422 C1421 1.334 . S
C1422 C1423 1.287 . S
C1423 C1422 1.287 . S
C1423 C1424 1.533 . S
C1423 H1426 0.999 . S
C1424 H1394 0.943 1_556 S
C1424 C1423 1.533 . S
C1424 C1425 1.413 1_556 S
C1425 H1395 0.950 . S
C1425 C1420 1.363 1_554 S
C1425 C1424 1.413 1_554 S
H1426 C1423 0.999 . S
H1427 C1408 0.913 . S
H1428 C1446 0.951 . S
H1429 C1448 0.951 . S
H1430 C1450 0.950 . S
H1431 C1451 0.950 . S
H1432 C1453 0.940 1_565 S
H1433 C1456 0.950 . S
H1434 C1457 0.950 . S
H1435 C1459 0.950 . S
H1436 C1460 0.950 . S
H1437 C1461 0.951 . S
H1438 C1463 0.951 . S
H1439 C1465 0.950 . S
H1440 C1466 0.950 . S
H1441 C1468 0.950 . S
H1442 C1471 0.950 . S
H1443 C1472 0.950 . S
H1444 C1474 0.950 . S
H1445 C1475 0.950 . S
C1446 H1428 0.951 . S
C1446 C1447 1.366 . S
C1446 C1448 1.388 . S
C1447 C1446 1.366 . S
C1447 C1451 1.385 . S
C1448 H1429 0.951 . S
C1448 C1446 1.388 . S
C1448 C1449 1.366 . S
C1449 C1448 1.366 . S
C1449 C1450 1.414 . S
C1449 C1452 1.499 . S
C1450 H1430 0.950 . S
C1450 C1449 1.414 . S
C1450 C1451 1.374 . S
C1451 H1431 0.950 . S
C1451 C1447 1.385 . S
C1451 C1450 1.374 . S
C1452 C1449 1.499 . S
C1452 C1453 1.411 . S
C1452 C1454 1.389 . S
C1453 H1432 0.940 1_545 S
C1453 C1452 1.411 . S
C1453 C1469 1.350 1_545 S
C1454 C1452 1.389 . S
C1454 C1455 1.524 . S
C1454 C1468 1.377 . S
C1455 C1454 1.524 . S
C1455 C1456 1.397 . S
C1455 C1460 1.363 . S
C1456 H1433 0.950 . S
C1456 C1455 1.397 . S
C1456 C1457 1.334 . S
C1457 H1434 0.950 . S
C1457 C1456 1.334 . S
C1457 C1458 1.287 . S
C1458 C1457 1.287 . S
C1458 C1459 1.524 . S
C1458 H1477 0.913 . S
C1459 H1435 0.950 . S
C1459 C1458 1.524 . S
C1459 C1460 1.415 . S
C1460 H1436 0.950 . S
C1460 C1455 1.363 . S
C1460 C1459 1.415 . S
C1461 H1437 0.951 . S
C1461 C1462 1.366 . S
C1461 C1463 1.388 . S
C1462 C1461 1.366 . S
C1462 C1466 1.385 . S
C1463 H1438 0.951 . S
C1463 C1461 1.388 . S
C1463 C1464 1.366 . S
C1464 C1463 1.366 . S
C1464 C1465 1.414 . S
C1464 C1467 1.499 . S
C1465 H1439 0.950 . S
C1465 C1464 1.414 . S
C1465 C1466 1.374 . S
C1466 H1440 0.950 . S
C1466 C1462 1.385 . S
C1466 C1465 1.374 . S
C1467 C1464 1.499 . S
C1467 C1468 1.373 1_565 S
C1467 C1469 1.389 . S
C1468 H1441 0.950 . S
C1468 C1454 1.377 . S
C1468 C1467 1.373 1_545 S
C1469 C1453 1.350 1_565 S
C1469 C1467 1.389 . S
C1469 C1470 1.524 . S
C1470 C1469 1.524 . S
C1470 C1471 1.397 . S
C1470 C1475 1.363 . S
C1471 H1442 0.950 . S
C1471 C1470 1.397 . S
C1471 C1472 1.334 . S
C1472 H1443 0.950 . S
C1472 C1471 1.334 . S
C1472 C1473 1.287 . S
C1473 C1472 1.287 . S
C1473 C1474 1.524 . S
C1473 H1476 0.999 . S
C1474 H1444 0.950 . S
C1474 C1473 1.524 . S
C1474 C1475 1.415 . S
C1475 H1445 0.950 . S
C1475 C1470 1.363 . S
C1475 C1474 1.415 . S
H1476 C1473 0.999 . S
H1477 C1458 0.913 . S
H1478 C1496 0.951 . S
H1479 C1498 0.977 . S
H1480 C1500 0.950 . S
H1481 C1501 0.950 . S
H1482 C1503 0.950 . S
H1483 C1506 0.950 . S
H1484 C1507 0.950 . S
H1485 C1509 0.950 . S
H1486 C1510 0.950 . S
H1487 C1511 0.951 . S
H1488 C1513 0.951 . S
H1489 C1515 0.950 . S
H1490 C1516 0.950 . S
H1491 C1518 0.950 . S
H1492 C1521 0.950 . S
H1493 C1522 0.950 . S
H1494 C1524 0.950 . S
H1495 C1525 0.950 . S
C1496 H1478 0.951 . S
C1496 C1497 1.366 . S
C1496 C1498 1.388 . S
C1497 C1496 1.366 . S
C1497 C1501 1.385 . S
C1498 H1479 0.977 . S
C1498 C1496 1.388 . S
C1498 C1499 1.366 . S
C1499 C1498 1.366 . S
C1499 C1500 1.414 . S
C1499 C1502 1.499 . S
C1500 H1480 0.950 . S
C1500 C1499 1.414 . S
C1500 C1501 1.374 . S
C1501 H1481 0.950 . S
C1501 C1497 1.385 . S
C1501 C1500 1.374 . S
C1502 C1499 1.499 . S
C1502 C1503 1.373 . S
C1502 C1504 1.389 1_455 S
C1503 H1482 0.950 . S
C1503 C1502 1.373 . S
C1503 C1519 1.377 . S
C1504 C1502 1.389 1_655 S
C1504 C1505 1.524 . S
C1504 C1518 1.377 . S
C1505 C1504 1.524 . S
C1505 C1506 1.397 . S
C1505 C1510 1.363 . S
C1506 H1483 0.950 . S
C1506 C1505 1.397 . S
C1506 C1507 1.334 . S
C1507 H1484 0.950 . S
C1507 C1506 1.334 . S
C1507 C1508 1.287 . S
C1508 C1507 1.287 . S
C1508 C1509 1.524 . S
C1508 H1527 0.913 . S
C1509 H1485 0.950 . S
C1509 C1508 1.524 . S
C1509 C1510 1.415 . S
C1510 H1486 0.950 . S
C1510 C1505 1.363 . S
C1510 C1509 1.415 . S
C1511 H1487 0.951 . S
C1511 C1512 1.366 . S
C1511 C1513 1.388 . S
C1512 C1511 1.366 . S
C1512 C1516 1.385 . S
C1513 H1488 0.951 . S
C1513 C1511 1.388 . S
C1513 C1514 1.366 . S
C1514 C1513 1.366 . S
C1514 C1515 1.414 . S
C1514 C1517 1.499 . S
C1515 H1489 0.950 . S
C1515 C1514 1.414 . S
C1515 C1516 1.374 . S
C1516 H1490 0.950 . S
C1516 C1512 1.385 . S
C1516 C1515 1.374 . S
C1517 C1514 1.499 . S
C1517 C1518 1.373 . S
C1517 C1519 1.389 1_655 S
C1518 H1491 0.950 . S
C1518 C1504 1.377 . S
C1518 C1517 1.373 . S
C1519 C1503 1.377 . S
C1519 C1517 1.389 1_455 S
C1519 C1520 1.524 . S
C1520 C1519 1.524 . S
C1520 C1521 1.397 . S
C1520 C1525 1.363 . S
C1521 H1492 0.950 . S
C1521 C1520 1.397 . S
C1521 C1522 1.334 . S
C1522 H1493 0.950 . S
C1522 C1521 1.334 . S
C1522 C1523 1.287 . S
C1523 C1522 1.287 . S
C1523 C1524 1.524 . S
C1523 H1526 0.999 . S
C1524 H1494 0.950 . S
C1524 C1523 1.524 . S
C1524 C1525 1.415 . S
C1525 H1495 0.950 . S
C1525 C1520 1.363 . S
C1525 C1524 1.415 . S
H1526 C1523 0.999 . S
H1527 C1508 0.913 . S
H1528 C1546 0.951 . S
H1529 C1548 0.951 . S
H1530 C1550 0.950 . S
H1531 C1551 0.950 . S
H1532 C1553 0.950 . S
H1533 C1556 0.950 . S
H1534 C1557 0.950 . S
H1535 C1559 0.950 . S
H1536 C1560 0.950 . S
H1537 C1561 0.951 . S
H1538 C1563 0.951 . S
H1539 C1565 0.950 . S
H1540 C1566 0.950 . S
H1541 C1568 0.950 . S
H1542 C1571 0.950 . S
H1543 C1572 0.950 . S
H1544 C1574 0.950 . S
H1545 C1575 0.950 . S
C1546 H1528 0.951 . S
C1546 C1547 1.366 . S
C1546 C1548 1.388 . S
C1547 C1546 1.366 . S
C1547 C1551 1.385 . S
C1548 H1529 0.951 . S
C1548 C1546 1.388 . S
C1548 C1549 1.366 . S
C1549 C1548 1.366 . S
C1549 C1550 1.414 . S
C1549 C1552 1.499 . S
C1550 H1530 0.950 . S
C1550 C1549 1.414 . S
C1550 C1551 1.374 . S
C1551 H1531 0.950 . S
C1551 C1547 1.385 . S
C1551 C1550 1.374 . S
C1552 C1549 1.499 . S
C1552 C1553 1.373 . S
C1552 C1554 1.389 . S
C1553 H1532 0.950 . S
C1553 C1552 1.373 . S
C1553 C1569 1.377 . S
C1554 C1552 1.389 . S
C1554 C1555 1.524 . S
C1554 C1568 1.377 . S
C1555 C1554 1.524 . S
C1555 C1556 1.397 . S
C1555 C1560 1.363 . S
C1556 H1533 0.950 . S
C1556 C1555 1.397 . S
C1556 C1557 1.334 . S
C1557 H1534 0.950 . S
C1557 C1556 1.334 . S
C1557 C1558 1.287 . S
C1558 C1557 1.287 . S
C1558 C1559 1.524 . S
C1558 H1577 0.913 . S
C1559 H1535 0.950 . S
C1559 C1558 1.524 . S
C1559 C1560 1.415 . S
C1560 H1536 0.950 . S
C1560 C1555 1.363 . S
C1560 C1559 1.415 . S
C1561 H1537 0.951 . S
C1561 C1562 1.366 . S
C1561 C1563 1.388 . S
C1562 C1561 1.366 . S
C1562 C1566 1.385 . S
C1563 H1538 0.951 . S
C1563 C1561 1.388 . S
C1563 C1564 1.366 . S
C1564 C1563 1.366 . S
C1564 C1565 1.414 . S
C1564 C1567 1.499 . S
C1565 H1539 0.950 . S
C1565 C1564 1.414 . S
C1565 C1566 1.374 . S
C1566 H1540 0.950 . S
C1566 C1562 1.385 . S
C1566 C1565 1.374 . S
C1567 C1564 1.499 . S
C1567 C1568 1.373 . S
C1567 C1569 1.389 . S
C1568 H1541 0.950 . S
C1568 C1554 1.377 . S
C1568 C1567 1.373 . S
C1569 C1553 1.377 . S
C1569 C1567 1.389 . S
C1569 C1570 1.524 . S
C1570 C1569 1.524 . S
C1570 C1571 1.397 . S
C1570 C1575 1.363 . S
C1571 H1542 0.950 . S
C1571 C1570 1.397 . S
C1571 C1572 1.334 . S
C1572 H1543 0.950 . S
C1572 C1571 1.334 . S
C1572 C1573 1.287 . S
C1573 C1572 1.287 . S
C1573 C1574 1.524 . S
C1573 H1576 0.999 . S
C1574 H1544 0.950 . S
C1574 C1573 1.524 . S
C1574 C1575 1.415 . S
C1575 H1545 0.950 . S
C1575 C1570 1.363 . S
C1575 C1574 1.415 . S
H1576 C1573 0.999 . S
H1577 C1558 0.913 . S
H1578 C1596 0.951 . S
H1579 C1598 0.951 . S
H1580 C1600 0.950 . S
H1581 C1601 0.950 . S
H1582 C1603 0.950 . S
H1583 C1606 0.950 . S
H1584 C1607 0.950 . S
H1585 C1609 0.950 . S
H1586 C1610 0.950 . S
H1587 C1611 0.951 . S
H1588 C1613 0.951 . S
H1589 C1615 0.950 . S
H1590 C1616 0.950 . S
H1591 C1618 0.950 . S
H1592 C1621 0.950 . S
H1593 C1622 0.950 . S
H1594 C1624 0.950 . S
H1595 C1625 0.950 . S
C1596 H1578 0.951 . S
C1596 C1597 1.366 . S
C1596 C1598 1.388 . S
C1597 C1596 1.366 . S
C1597 C1601 1.385 . S
C1598 H1579 0.951 . S
C1598 C1596 1.388 . S
C1598 C1599 1.366 . S
C1599 C1598 1.366 . S
C1599 C1600 1.414 . S
C1599 C1602 1.499 . S
C1600 H1580 0.950 . S
C1600 C1599 1.414 . S
C1600 C1601 1.374 . S
C1601 H1581 0.950 . S
C1601 C1597 1.385 . S
C1601 C1600 1.374 . S
C1602 C1599 1.499 . S
C1602 C1603 1.373 . S
C1602 C1604 1.389 . S
C1603 H1582 0.950 . S
C1603 C1602 1.373 . S
C1603 C1619 1.377 . S
C1604 C1602 1.389 . S
C1604 C1605 1.524 . S
C1604 C1618 1.377 . S
C1605 C1604 1.524 . S
C1605 C1606 1.397 . S
C1605 C1610 1.363 . S
C1606 H1583 0.950 . S
C1606 C1605 1.397 . S
C1606 C1607 1.334 . S
C1607 H1584 0.950 . S
C1607 C1606 1.334 . S
C1607 C1608 1.287 . S
C1608 C1607 1.287 . S
C1608 C1609 1.524 . S
C1608 H1627 0.913 . S
C1609 H1585 0.950 . S
C1609 C1608 1.524 . S
C1609 C1610 1.415 . S
C1610 H1586 0.950 . S
C1610 C1605 1.363 . S
C1610 C1609 1.415 . S
C1611 H1587 0.951 . S
C1611 C1612 1.366 . S
C1611 C1613 1.388 . S
C1612 C1611 1.366 . S
C1612 C1616 1.385 . S
C1613 H1588 0.951 . S
C1613 C1611 1.388 . S
C1613 C1614 1.366 . S
C1614 C1613 1.366 . S
C1614 C1615 1.414 . S
C1614 C1617 1.499 . S
C1615 H1589 0.950 . S
C1615 C1614 1.414 . S
C1615 C1616 1.374 . S
C1616 H1590 0.950 . S
C1616 C1612 1.385 . S
C1616 C1615 1.374 . S
C1617 C1614 1.499 . S
C1617 C1618 1.373 . S
C1617 C1619 1.389 . S
C1618 H1591 0.950 . S
C1618 C1604 1.377 . S
C1618 C1617 1.373 . S
C1619 C1603 1.377 . S
C1619 C1617 1.389 . S
C1619 C1620 1.524 . S
C1620 C1619 1.524 . S
C1620 C1621 1.397 . S
C1620 C1625 1.363 . S
C1621 H1592 0.950 . S
C1621 C1620 1.397 . S
C1621 C1622 1.334 . S
C1622 H1593 0.950 . S
C1622 C1621 1.334 . S
C1622 C1623 1.287 . S
C1623 C1622 1.287 . S
C1623 C1624 1.524 . S
C1623 H1626 0.999 . S
C1624 H1594 0.950 . S
C1624 C1623 1.524 . S
C1624 C1625 1.415 . S
C1625 H1595 0.950 . S
C1625 C1620 1.363 . S
C1625 C1624 1.415 . S
H1626 C1623 0.999 . S
H1627 C1608 0.913 . S
H1628 C1646 0.951 . S
H1629 C1648 0.951 1_545 S
H1630 C1650 0.950 . S
H1631 C1651 0.950 . S
H1632 C1653 0.950 . S
H1633 C1656 0.950 . S
H1634 C1657 0.950 . S
H1635 C1659 0.950 . S
H1636 C1660 0.950 . S
H1637 C1661 0.951 . S
H1638 C1663 0.951 . S
H1639 C1665 0.950 . S
H1640 C1666 0.950 . S
H1641 C1668 0.950 . S
H1642 C1671 0.950 . S
H1643 C1672 0.950 . S
H1644 C1674 0.950 . S
H1645 C1675 0.950 . S
C1646 H1628 0.951 . S
C1646 C1647 1.366 . S
C1646 C1648 1.388 . S
C1647 C1646 1.366 . S
C1647 C1651 1.385 . S
C1648 H1629 0.951 1_565 S
C1648 C1646 1.388 . S
C1648 C1649 1.366 . S
C1649 C1648 1.366 . S
C1649 C1650 1.414 . S
C1649 C1652 1.499 . S
C1650 H1630 0.950 . S
C1650 C1649 1.414 . S
C1650 C1651 1.374 . S
C1651 H1631 0.950 . S
C1651 C1647 1.385 . S
C1651 C1650 1.374 . S
C1652 C1649 1.499 . S
C1652 C1653 1.373 . S
C1652 C1654 1.389 1_565 S
C1653 H1632 0.950 . S
C1653 C1652 1.373 . S
C1653 C1669 1.377 1_565 S
C1654 C1652 1.389 1_545 S
C1654 C1655 1.524 . S
C1654 C1668 1.377 . S
C1655 C1654 1.524 . S
C1655 C1656 1.397 1_545 S
C1655 C1660 1.363 . S
C1656 H1633 0.950 . S
C1656 C1655 1.397 1_565 S
C1656 C1657 1.334 . S
C1657 H1634 0.950 . S
C1657 C1656 1.334 . S
C1657 C1658 1.287 1_565 S
C1658 C1657 1.287 1_545 S
C1658 C1659 1.524 . S
C1658 H1677 0.913 . S
C1659 H1635 0.950 . S
C1659 C1658 1.524 . S
C1659 C1660 1.415 . S
C1660 H1636 0.950 . S
C1660 C1655 1.363 . S
C1660 C1659 1.415 . S
C1661 H1637 0.951 . S
C1661 C1662 1.366 . S
C1661 C1663 1.388 . S
C1662 C1661 1.366 . S
C1662 C1666 1.385 . S
C1663 H1638 0.951 . S
C1663 C1661 1.388 . S
C1663 C1664 1.366 . S
C1664 C1663 1.366 . S
C1664 C1665 1.414 . S
C1664 C1667 1.499 . S
C1665 H1639 0.950 . S
C1665 C1664 1.414 . S
C1665 C1666 1.374 . S
C1666 H1640 0.950 . S
C1666 C1662 1.385 . S
C1666 C1665 1.374 . S
C1667 C1664 1.499 . S
C1667 C1668 1.373 . S
C1667 C1669 1.389 . S
C1668 H1641 0.950 . S
C1668 C1654 1.377 . S
C1668 C1667 1.373 . S
C1669 C1653 1.377 1_545 S
C1669 C1667 1.389 . S
C1669 C1670 1.528 . S
C1670 C1669 1.528 . S
C1670 C1671 1.421 . S
C1670 C1675 1.336 1_545 S
C1671 H1642 0.950 . S
C1671 C1670 1.421 . S
C1671 C1672 1.334 . S
C1672 H1643 0.950 . S
C1672 C1671 1.334 . S
C1672 C1673 1.276 1_545 S
C1673 C1672 1.276 1_565 S
C1673 C1674 1.534 . S
C1673 H1676 1.000 . S
C1674 H1644 0.950 . S
C1674 C1673 1.534 . S
C1674 C1675 1.415 . S
C1675 H1645 0.950 . S
C1675 C1670 1.336 1_565 S
C1675 C1674 1.415 . S
H1676 C1673 1.000 . S
H1677 C1658 0.913 . S
H1678 C1696 0.951 . S
H1679 C1698 0.951 . S
H1680 C1700 0.950 . S
H1681 C1701 0.950 . S
H1682 C1703 0.950 . S
H1683 C1706 0.950 . S
H1684 C1707 0.950 . S
H1685 C1709 0.950 1_455 S
H1686 C1710 0.960 . S
H1687 C1711 0.951 . S
H1688 C1713 0.951 1_655 S
H1689 C1715 0.950 . S
H1690 C1716 0.950 . S
H1691 C1718 0.950 . S
H1692 C1721 0.950 . S
H1693 C1722 0.950 . S
H1694 C1724 0.950 . S
H1695 C1725 0.950 . S
C1696 H1678 0.951 . S
C1696 C1697 1.366 . S
C1696 C1698 1.388 . S
C1697 C1696 1.366 . S
C1697 C1701 1.385 . S
C1698 H1679 0.951 . S
C1698 C1696 1.388 . S
C1698 C1699 1.366 . S
C1699 C1698 1.366 . S
C1699 C1700 1.414 . S
C1699 C1702 1.499 . S
C1700 H1680 0.950 . S
C1700 C1699 1.414 . S
C1700 C1701 1.374 . S
C1701 H1681 0.950 . S
C1701 C1697 1.385 . S
C1701 C1700 1.374 . S
C1702 C1699 1.499 . S
C1702 C1703 1.373 . S
C1702 C1704 1.389 . S
C1703 H1682 0.950 . S
C1703 C1702 1.373 . S
C1703 C1719 1.377 1_554 S
C1704 C1702 1.389 . S
C1704 C1705 1.524 . S
C1704 C1718 1.377 1_654 S
C1705 C1704 1.524 . S
C1705 C1706 1.397 . S
C1705 C1710 1.355 1_655 S
C1706 H1683 0.950 . S
C1706 C1705 1.397 . S
C1706 C1707 1.334 . S
C1707 H1684 0.950 . S
C1707 C1706 1.334 . S
C1707 C1708 1.287 . S
C1708 C1707 1.287 . S
C1708 C1709 1.524 . S
C1708 H1727 0.913 . S
C1709 H1685 0.950 1_655 S
C1709 C1708 1.524 . S
C1709 C1710 1.413 1_655 S
C1710 H1686 0.960 . S
C1710 C1705 1.355 1_455 S
C1710 C1709 1.413 1_455 S
C1711 H1687 0.951 . S
C1711 C1712 1.366 . S
C1711 C1713 1.388 . S
C1712 C1711 1.366 . S
C1712 C1716 1.385 . S
C1713 H1688 0.951 1_455 S
C1713 C1711 1.388 . S
C1713 C1714 1.366 . S
C1714 C1713 1.366 . S
C1714 C1715 1.414 . S
C1714 C1717 1.499 . S
C1715 H1689 0.950 . S
C1715 C1714 1.414 . S
C1715 C1716 1.374 . S
C1716 H1690 0.950 . S
C1716 C1712 1.385 . S
C1716 C1715 1.374 . S
C1717 C1714 1.499 . S
C1717 C1718 1.373 . S
C1717 C1719 1.389 1_455 S
C1718 H1691 0.950 . S
C1718 C1704 1.377 1_456 S
C1718 C1717 1.373 . S
C1719 C1703 1.377 1_556 S
C1719 C1717 1.389 1_655 S
C1719 C1720 1.524 1_655 S
C1720 C1719 1.524 1_455 S
C1720 C1721 1.397 . S
C1720 C1725 1.363 1_455 S
C1721 H1692 0.950 . S
C1721 C1720 1.397 . S
C1721 C1722 1.334 . S
C1722 H1693 0.950 . S
C1722 C1721 1.334 . S
C1722 C1723 1.287 . S
C1723 C1722 1.287 . S
C1723 C1724 1.524 1_455 S
C1723 H1726 0.999 . S
C1724 H1694 0.950 . S
C1724 C1723 1.524 1_655 S
C1724 C1725 1.415 . S
C1725 H1695 0.950 . S
C1725 C1720 1.363 1_655 S
C1725 C1724 1.415 . S
H1726 C1723 0.999 . S
H1727 C1708 0.913 . S
H1728 C1746 0.951 . S
H1729 C1748 0.951 . S
H1730 C1750 0.950 . S
H1731 C1751 0.950 . S
H1732 C1753 0.950 . S
H1733 C1756 0.950 . S
H1734 C1757 0.950 . S
H1735 C1759 0.950 1_556 S
H1736 C1760 0.950 . S
H1737 C1761 0.951 . S
H1738 C1763 0.951 . S
H1739 C1765 0.950 . S
H1740 C1766 0.939 1_556 S
H1741 C1768 0.950 . S
H1742 C1771 0.950 . S
H1743 C1772 0.950 . S
H1744 C1774 0.950 . S
H1745 C1775 0.950 . S
C1746 H1728 0.951 . S
C1746 C1747 1.366 . S
C1746 C1748 1.388 . S
C1747 C1746 1.366 . S
C1747 C1751 1.385 . S
C1748 H1729 0.951 . S
C1748 C1746 1.388 . S
C1748 C1749 1.366 . S
C1749 C1748 1.366 . S
C1749 C1750 1.414 . S
C1749 C1752 1.499 . S
C1750 H1730 0.950 . S
C1750 C1749 1.414 . S
C1750 C1751 1.374 . S
C1751 H1731 0.950 . S
C1751 C1747 1.385 . S
C1751 C1750 1.374 . S
C1752 C1749 1.499 . S
C1752 C1753 1.373 . S
C1752 C1754 1.389 . S
C1753 H1732 0.950 . S
C1753 C1752 1.373 . S
C1753 C1769 1.377 . S
C1754 C1752 1.389 . S
C1754 C1755 1.524 . S
C1754 C1768 1.377 . S
C1755 C1754 1.524 . S
C1755 C1756 1.397 . S
C1755 C1760 1.363 . S
C1756 H1733 0.950 . S
C1756 C1755 1.397 . S
C1756 C1757 1.334 . S
C1757 H1734 0.950 . S
C1757 C1756 1.334 . S
C1757 C1758 1.287 . S
C1758 C1757 1.287 . S
C1758 C1759 1.524 . S
C1758 H1777 0.913 . S
C1759 H1735 0.950 1_554 S
C1759 C1758 1.524 . S
C1759 C1760 1.415 . S
C1760 H1736 0.950 . S
C1760 C1755 1.363 . S
C1760 C1759 1.415 . S
C1761 H1737 0.951 . S
C1761 C1762 1.366 . S
C1761 C1763 1.388 . S
C1762 C1761 1.366 . S
C1762 C1766 1.385 . S
C1763 H1738 0.951 . S
C1763 C1761 1.388 . S
C1763 C1764 1.366 . S
C1764 C1763 1.366 . S
C1764 C1765 1.414 . S
C1764 C1767 1.499 . S
C1765 H1739 0.950 . S
C1765 C1764 1.414 . S
C1765 C1766 1.374 . S
C1766 H1740 0.939 1_554 S
C1766 C1762 1.385 . S
C1766 C1765 1.374 . S
C1767 C1764 1.499 . S
C1767 C1768 1.373 . S
C1767 C1769 1.389 . S
C1768 H1741 0.950 . S
C1768 C1754 1.377 . S
C1768 C1767 1.373 . S
C1769 C1753 1.377 . S
C1769 C1767 1.389 . S
C1769 C1770 1.524 . S
C1770 C1769 1.524 . S
C1770 C1771 1.397 . S
C1770 C1775 1.363 . S
C1771 H1742 0.950 . S
C1771 C1770 1.397 . S
C1771 C1772 1.334 . S
C1772 H1743 0.950 . S
C1772 C1771 1.334 . S
C1772 C1773 1.287 . S
C1773 C1772 1.287 . S
C1773 C1774 1.524 . S
C1773 H1776 0.999 . S
C1774 H1744 0.950 . S
C1774 C1773 1.524 . S
C1774 C1775 1.415 . S
C1775 H1745 0.950 . S
C1775 C1770 1.363 . S
C1775 C1774 1.415 . S
H1776 C1773 0.999 . S
H1777 C1758 0.913 . S
H1778 C1796 0.951 . S
H1779 C1798 0.951 . S
H1780 C1800 0.950 . S
H1781 C1801 0.950 . S
H1782 C1803 0.950 . S
H1783 C1806 0.950 . S
H1784 C1807 0.950 . S
H1785 C1809 0.950 . S
H1786 C1810 0.950 . S
H1787 C1811 0.951 . S
H1788 C1813 0.951 . S
H1789 C1815 0.950 . S
H1790 C1816 0.950 . S
H1791 C1818 0.950 . S
H1792 C1821 0.950 . S
H1793 C1822 0.950 . S
H1794 C1824 0.950 . S
H1795 C1825 0.950 . S
C1796 H1778 0.951 . S
C1796 C1797 1.366 . S
C1796 C1798 1.388 . S
C1797 C1796 1.366 . S
C1797 C1801 1.385 . S
C1798 H1779 0.951 . S
C1798 C1796 1.388 . S
C1798 C1799 1.366 . S
C1799 C1798 1.366 . S
C1799 C1800 1.414 . S
C1799 C1802 1.499 . S
C1800 H1780 0.950 . S
C1800 C1799 1.414 . S
C1800 C1801 1.374 . S
C1801 H1781 0.950 . S
C1801 C1797 1.385 . S
C1801 C1800 1.374 . S
C1802 C1799 1.499 . S
C1802 C1803 1.373 . S
C1802 C1804 1.389 . S
C1803 H1782 0.950 . S
C1803 C1802 1.373 . S
C1803 C1819 1.377 . S
C1804 C1802 1.389 . S
C1804 C1805 1.524 . S
C1804 C1818 1.377 . S
C1805 C1804 1.524 . S
C1805 C1806 1.397 . S
C1805 C1810 1.363 . S
C1806 H1783 0.950 . S
C1806 C1805 1.397 . S
C1806 C1807 1.334 . S
C1807 H1784 0.950 . S
C1807 C1806 1.334 . S
C1807 C1808 1.287 . S
C1808 C1807 1.287 . S
C1808 C1809 1.524 . S
C1808 H1827 0.913 . S
C1809 H1785 0.950 . S
C1809 C1808 1.524 . S
C1809 C1810 1.415 . S
C1810 H1786 0.950 . S
C1810 C1805 1.363 . S
C1810 C1809 1.415 . S
C1811 H1787 0.951 . S
C1811 C1812 1.366 . S
C1811 C1813 1.388 . S
C1812 C1811 1.366 . S
C1812 C1816 1.385 . S
C1813 H1788 0.951 . S
C1813 C1811 1.388 . S
C1813 C1814 1.366 . S
C1814 C1813 1.366 . S
C1814 C1815 1.414 . S
C1814 C1817 1.499 . S
C1815 H1789 0.950 . S
C1815 C1814 1.414 . S
C1815 C1816 1.374 . S
C1816 H1790 0.950 . S
C1816 C1812 1.385 . S
C1816 C1815 1.374 . S
C1817 C1814 1.499 . S
C1817 C1818 1.373 . S
C1817 C1819 1.389 . S
C1818 H1791 0.950 . S
C1818 C1804 1.377 . S
C1818 C1817 1.373 . S
C1819 C1803 1.377 . S
C1819 C1817 1.389 . S
C1819 C1820 1.524 . S
C1820 C1819 1.524 . S
C1820 C1821 1.397 . S
C1820 C1825 1.363 . S
C1821 H1792 0.950 . S
C1821 C1820 1.397 . S
C1821 C1822 1.334 . S
C1822 H1793 0.950 . S
C1822 C1821 1.334 . S
C1822 C1823 1.287 . S
C1823 C1822 1.287 . S
C1823 C1824 1.524 . S
C1823 H1826 0.999 . S
C1824 H1794 0.950 . S
C1824 C1823 1.524 . S
C1824 C1825 1.415 . S
C1825 H1795 0.950 . S
C1825 C1820 1.363 . S
C1825 C1824 1.415 . S
H1826 C1823 0.999 . S
H1827 C1808 0.913 . S
H1828 C1846 0.951 . S
H1829 C1848 0.951 . S
H1830 C1850 0.950 . S
H1831 C1851 0.950 . S
H1832 C1853 0.950 . S
H1833 C1856 0.950 . S
H1834 C1857 0.950 . S
H1835 C1859 0.950 . S
H1836 C1860 0.950 . S
H1837 C1861 0.951 . S
H1838 C1863 0.951 . S
H1839 C1865 0.950 . S
H1840 C1866 0.950 . S
H1841 C1868 0.950 . S
H1842 C1871 0.950 . S
H1843 C1872 0.950 . S
H1844 C1874 0.950 . S
H1845 C1875 0.950 . S
C1846 H1828 0.951 . S
C1846 C1847 1.366 . S
C1846 C1848 1.388 . S
C1847 C1846 1.366 . S
C1847 C1851 1.385 . S
C1848 H1829 0.951 . S
C1848 C1846 1.388 . S
C1848 C1849 1.366 . S
C1849 C1848 1.366 . S
C1849 C1850 1.414 . S
C1849 C1852 1.499 . S
C1850 H1830 0.950 . S
C1850 C1849 1.414 . S
C1850 C1851 1.374 . S
C1851 H1831 0.950 . S
C1851 C1847 1.385 . S
C1851 C1850 1.374 . S
C1852 C1849 1.499 . S
C1852 C1853 1.373 . S
C1852 C1854 1.389 . S
C1853 H1832 0.950 . S
C1853 C1852 1.373 . S
C1853 C1869 1.377 . S
C1854 C1852 1.389 . S
C1854 C1855 1.524 . S
C1854 C1868 1.377 . S
C1855 C1854 1.524 . S
C1855 C1856 1.397 . S
C1855 C1860 1.363 . S
C1856 H1833 0.950 . S
C1856 C1855 1.397 . S
C1856 C1857 1.334 . S
C1857 H1834 0.950 . S
C1857 C1856 1.334 . S
C1857 C1858 1.287 . S
C1858 C1857 1.287 . S
C1858 C1859 1.524 . S
C1858 H1877 0.913 . S
C1859 H1835 0.950 . S
C1859 C1858 1.524 . S
C1859 C1860 1.415 . S
C1860 H1836 0.950 . S
C1860 C1855 1.363 . S
C1860 C1859 1.415 . S
C1861 H1837 0.951 . S
C1861 C1862 1.366 . S
C1861 C1863 1.388 . S
C1862 C1861 1.366 . S
C1862 C1866 1.385 . S
C1863 H1838 0.951 . S
C1863 C1861 1.388 . S
C1863 C1864 1.366 . S
C1864 C1863 1.366 . S
C1864 C1865 1.414 . S
C1864 C1867 1.499 . S
C1865 H1839 0.950 . S
C1865 C1864 1.414 . S
C1865 C1866 1.374 . S
C1866 H1840 0.950 . S
C1866 C1862 1.385 . S
C1866 C1865 1.374 . S
C1867 C1864 1.499 . S
C1867 C1868 1.373 . S
C1867 C1869 1.389 . S
C1868 H1841 0.950 . S
C1868 C1854 1.377 . S
C1868 C1867 1.373 . S
C1869 C1853 1.377 . S
C1869 C1867 1.389 . S
C1869 C1870 1.524 . S
C1870 C1869 1.524 . S
C1870 C1871 1.397 . S
C1870 C1875 1.363 . S
C1871 H1842 0.950 . S
C1871 C1870 1.397 . S
C1871 C1872 1.334 . S
C1872 H1843 0.950 . S
C1872 C1871 1.334 . S
C1872 C1873 1.287 . S
C1873 C1872 1.287 . S
C1873 C1874 1.524 . S
C1873 H1876 0.999 . S
C1874 H1844 0.950 . S
C1874 C1873 1.524 . S
C1874 C1875 1.415 . S
C1875 H1845 0.950 . S
C1875 C1870 1.363 . S
C1875 C1874 1.415 . S
H1876 C1873 0.999 . S
H1877 C1858 0.913 . S
H1878 C1896 0.951 . S
H1879 C1898 0.951 . S
H1880 C1900 0.950 . S
H1881 C1901 0.950 . S
H1882 C1903 0.950 . S
H1883 C1906 0.950 . S
H1884 C1907 0.950 . S
H1885 C1909 0.950 . S
H1886 C1910 0.950 . S
H1887 C1911 0.951 . S
H1888 C1913 0.951 . S
H1889 C1915 0.950 . S
H1890 C1916 0.950 1_554 S
H1891 C1918 0.950 . S
H1892 C1921 0.950 . S
H1893 C1922 0.950 . S
H1894 C1924 0.950 . S
H1895 C1925 0.950 . S
C1896 H1878 0.951 . S
C1896 C1897 1.366 . S
C1896 C1898 1.388 . S
C1897 C1896 1.366 . S
C1897 C1901 1.385 . S
C1898 H1879 0.951 . S
C1898 C1896 1.388 . S
C1898 C1899 1.366 . S
C1899 C1898 1.366 . S
C1899 C1900 1.414 . S
C1899 C1902 1.499 . S
C1900 H1880 0.950 . S
C1900 C1899 1.414 . S
C1900 C1901 1.374 . S
C1901 H1881 0.950 . S
C1901 C1897 1.385 . S
C1901 C1900 1.374 . S
C1902 C1899 1.499 . S
C1902 C1903 1.373 . S
C1902 C1904 1.389 . S
C1903 H1882 0.950 . S
C1903 C1902 1.373 . S
C1903 C1919 1.377 . S
C1904 C1902 1.389 . S
C1904 C1905 1.524 . S
C1904 C1918 1.377 . S
C1905 C1904 1.524 . S
C1905 C1906 1.397 . S
C1905 C1910 1.363 . S
C1906 H1883 0.950 . S
C1906 C1905 1.397 . S
C1906 C1907 1.334 . S
C1907 H1884 0.950 . S
C1907 C1906 1.334 . S
C1907 C1908 1.287 . S
C1908 C1907 1.287 . S
C1908 C1909 1.524 . S
C1908 H1927 0.913 . S
C1909 H1885 0.950 . S
C1909 C1908 1.524 . S
C1909 C1910 1.415 . S
C1910 H1886 0.950 . S
C1910 C1905 1.363 . S
C1910 C1909 1.415 . S
C1911 H1887 0.951 . S
C1911 C1912 1.366 . S
C1911 C1913 1.388 . S
C1912 C1911 1.366 . S
C1912 C1916 1.385 . S
C1913 H1888 0.951 . S
C1913 C1911 1.388 . S
C1913 C1914 1.366 . S
C1914 C1913 1.366 . S
C1914 C1915 1.414 . S
C1914 C1917 1.499 . S
C1915 H1889 0.950 . S
C1915 C1914 1.414 . S
C1915 C1916 1.374 . S
C1916 H1890 0.950 1_556 S
C1916 C1912 1.385 . S
C1916 C1915 1.374 . S
C1917 C1914 1.499 . S
C1917 C1918 1.373 . S
C1917 C1919 1.389 . S
C1918 H1891 0.950 . S
C1918 C1904 1.377 . S
C1918 C1917 1.373 . S
C1919 C1903 1.377 . S
C1919 C1917 1.389 . S
C1919 C1920 1.524 . S
C1920 C1919 1.524 . S
C1920 C1921 1.397 . S
C1920 C1925 1.363 . S
C1921 H1892 0.950 . S
C1921 C1920 1.397 . S
C1921 C1922 1.334 . S
C1922 H1893 0.950 . S
C1922 C1921 1.334 . S
C1922 C1923 1.287 . S
C1923 C1922 1.287 . S
C1923 C1924 1.524 . S
C1923 H1926 0.999 . S
C1924 H1894 0.950 . S
C1924 C1923 1.524 . S
C1924 C1925 1.415 . S
C1925 H1895 0.950 . S
C1925 C1920 1.363 . S
C1925 C1924 1.415 . S
H1926 C1923 0.999 . S
H1927 C1908 0.913 . S
H1928 C1946 0.951 . S
H1929 C1948 0.951 . S
H1930 C1950 0.950 . S
H1931 C1951 0.950 . S
H1932 C1953 0.950 . S
H1933 C1956 0.950 . S
H1934 C1957 0.950 . S
H1935 C1959 0.950 . S
H1936 C1960 0.950 . S
H1937 C1961 0.951 . S
H1938 C1963 0.951 . S
H1939 C1965 0.950 . S
H1940 C1966 0.950 . S
H1941 C1968 0.950 . S
H1942 C1971 0.950 . S
H1943 C1972 0.950 . S
H1944 C1974 0.950 . S
H1945 C1975 0.950 . S
C1946 H1928 0.951 . S
C1946 C1947 1.366 . S
C1946 C1948 1.388 . S
C1947 C1946 1.366 . S
C1947 C1951 1.385 . S
C1948 H1929 0.951 . S
C1948 C1946 1.388 . S
C1948 C1949 1.366 . S
C1949 C1948 1.366 . S
C1949 C1950 1.414 . S
C1949 C1952 1.499 . S
C1950 H1930 0.950 . S
C1950 C1949 1.414 . S
C1950 C1951 1.374 . S
C1951 H1931 0.950 . S
C1951 C1947 1.385 . S
C1951 C1950 1.374 . S
C1952 C1949 1.499 . S
C1952 C1953 1.373 . S
C1952 C1954 1.389 . S
C1953 H1932 0.950 . S
C1953 C1952 1.373 . S
C1953 C1969 1.377 . S
C1954 C1952 1.389 . S
C1954 C1955 1.524 . S
C1954 C1968 1.377 . S
C1955 C1954 1.524 . S
C1955 C1956 1.397 . S
C1955 C1960 1.363 . S
C1956 H1933 0.950 . S
C1956 C1955 1.397 . S
C1956 C1957 1.334 . S
C1957 H1934 0.950 . S
C1957 C1956 1.334 . S
C1957 C1958 1.287 . S
C1958 C1957 1.287 . S
C1958 C1959 1.524 . S
C1958 H1977 0.913 . S
C1959 H1935 0.950 . S
C1959 C1958 1.524 . S
C1959 C1960 1.415 . S
C1960 H1936 0.950 . S
C1960 C1955 1.363 . S
C1960 C1959 1.415 . S
C1961 H1937 0.951 . S
C1961 C1962 1.366 . S
C1961 C1963 1.388 . S
C1962 C1961 1.366 . S
C1962 C1966 1.385 . S
C1963 H1938 0.951 . S
C1963 C1961 1.388 . S
C1963 C1964 1.366 . S
C1964 C1963 1.366 . S
C1964 C1965 1.414 . S
C1964 C1967 1.499 . S
C1965 H1939 0.950 . S
C1965 C1964 1.414 . S
C1965 C1966 1.374 . S
C1966 H1940 0.950 . S
C1966 C1962 1.385 . S
C1966 C1965 1.374 . S
C1967 C1964 1.499 . S
C1967 C1968 1.373 . S
C1967 C1969 1.389 . S
C1968 H1941 0.950 . S
C1968 C1954 1.377 . S
C1968 C1967 1.373 . S
C1969 C1953 1.377 . S
C1969 C1967 1.389 . S
C1969 C1970 1.524 . S
C1970 C1969 1.524 . S
C1970 C1971 1.397 . S
C1970 C1975 1.363 . S
C1971 H1942 0.950 . S
C1971 C1970 1.397 . S
C1971 C1972 1.334 . S
C1972 H1943 0.950 . S
C1972 C1971 1.334 . S
C1972 C1973 1.287 . S
C1973 C1972 1.287 . S
C1973 C1974 1.524 . S
C1973 H1976 0.999 . S
C1974 H1944 0.950 . S
C1974 C1973 1.524 . S
C1974 C1975 1.415 . S
C1975 H1945 0.950 . S
C1975 C1970 1.363 . S
C1975 C1974 1.415 . S
H1976 C1973 0.999 . S
H1977 C1958 0.913 . S
H1978 C1996 0.951 . S
H1979 C1998 0.951 . S
H1980 C2000 0.950 . S
H1981 C2001 0.950 . S
H1982 C2003 0.950 . S
H1983 C2006 0.950 . S
H1984 C2007 0.950 . S
H1985 C2009 0.950 . S
H1986 C2010 0.950 . S
H1987 C2011 0.951 . S
H1988 C2013 0.951 . S
H1989 C2015 0.950 . S
H1990 C2016 0.950 . S
H1991 C2018 0.950 . S
H1992 C2021 0.950 . S
H1993 C2022 0.950 . S
H1994 C2024 0.950 . S
H1995 C2025 0.950 . S
C1996 H1978 0.951 . S
C1996 C1997 1.366 . S
C1996 C1998 1.388 . S
C1997 C1996 1.366 . S
C1997 C2001 1.385 . S
C1998 H1979 0.951 . S
C1998 C1996 1.388 . S
C1998 C1999 1.366 . S
C1999 C1998 1.366 . S
C1999 C2000 1.414 . S
C1999 C2002 1.499 . S
C2000 H1980 0.950 . S
C2000 C1999 1.414 . S
C2000 C2001 1.374 . S
C2001 H1981 0.950 . S
C2001 C1997 1.385 . S
C2001 C2000 1.374 . S
C2002 C1999 1.499 . S
C2002 C2003 1.373 . S
C2002 C2004 1.389 . S
C2003 H1982 0.950 . S
C2003 C2002 1.373 . S
C2003 C2019 1.377 . S
C2004 C2002 1.389 . S
C2004 C2005 1.524 . S
C2004 C2018 1.377 . S
C2005 C2004 1.524 . S
C2005 C2006 1.397 . S
C2005 C2010 1.363 . S
C2006 H1983 0.950 . S
C2006 C2005 1.397 . S
C2006 C2007 1.334 . S
C2007 H1984 0.950 . S
C2007 C2006 1.334 . S
C2007 C2008 1.287 . S
C2008 C2007 1.287 . S
C2008 C2009 1.524 . S
C2008 H2027 0.913 . S
C2009 H1985 0.950 . S
C2009 C2008 1.524 . S
C2009 C2010 1.415 . S
C2010 H1986 0.950 . S
C2010 C2005 1.363 . S
C2010 C2009 1.415 . S
C2011 H1987 0.951 . S
C2011 C2012 1.366 . S
C2011 C2013 1.388 . S
C2012 C2011 1.366 . S
C2012 C2016 1.385 . S
C2013 H1988 0.951 . S
C2013 C2011 1.388 . S
C2013 C2014 1.366 . S
C2014 C2013 1.366 . S
C2014 C2015 1.414 . S
C2014 C2017 1.499 . S
C2015 H1989 0.950 . S
C2015 C2014 1.414 . S
C2015 C2016 1.374 . S
C2016 H1990 0.950 . S
C2016 C2012 1.385 . S
C2016 C2015 1.374 . S
C2017 C2014 1.499 . S
C2017 C2018 1.373 . S
C2017 C2019 1.389 . S
C2018 H1991 0.950 . S
C2018 C2004 1.377 . S
C2018 C2017 1.373 . S
C2019 C2003 1.377 . S
C2019 C2017 1.389 . S
C2019 C2020 1.524 . S
C2020 C2019 1.524 . S
C2020 C2021 1.397 . S
C2020 C2025 1.363 . S
C2021 H1992 0.950 . S
C2021 C2020 1.397 . S
C2021 C2022 1.334 1_556 S
C2022 H1993 0.950 . S
C2022 C2021 1.334 1_554 S
C2022 C2023 1.287 . S
C2023 C2022 1.287 . S
C2023 C2024 1.524 . S
C2023 H2026 0.999 . S
C2024 H1994 0.950 . S
C2024 C2023 1.524 . S
C2024 C2025 1.415 1_554 S
C2025 H1995 0.950 . S
C2025 C2020 1.363 . S
C2025 C2024 1.415 1_556 S
H2026 C2023 0.999 . S
H2027 C2008 0.913 . S
H2028 C2046 0.951 . S
H2029 C2048 0.951 . S
H2030 C2050 0.950 . S
H2031 C2051 0.950 . S
H2032 C2053 0.950 . S
H2033 C2056 0.950 . S
H2034 C2057 0.950 . S
H2035 C2059 0.950 . S
H2036 C2060 0.950 . S
H2037 C2061 0.951 1_556 S
H2038 C2063 0.951 . S
H2039 C2065 0.950 . S
H2040 C2066 0.950 . S
H2041 C2068 0.950 . S
H2042 C2071 0.950 . S
H2043 C2072 0.950 . S
H2044 C2074 0.950 . S
H2045 C2075 0.950 . S
C2046 H2028 0.951 . S
C2046 C2047 1.366 . S
C2046 C2048 1.388 . S
C2047 C2046 1.366 . S
C2047 C2051 1.385 . S
C2048 H2029 0.951 . S
C2048 C2046 1.388 . S
C2048 C2049 1.366 . S
C2049 C2048 1.366 . S
C2049 C2050 1.414 . S
C2049 C2052 1.499 . S
C2050 H2030 0.950 . S
C2050 C2049 1.414 . S
C2050 C2051 1.374 . S
C2051 H2031 0.950 . S
C2051 C2047 1.385 . S
C2051 C2050 1.374 . S
C2052 C2049 1.499 . S
C2052 C2053 1.373 . S
C2052 C2054 1.389 . S
C2053 H2032 0.950 . S
C2053 C2052 1.373 . S
C2053 C2069 1.377 . S
C2054 C2052 1.389 . S
C2054 C2055 1.524 . S
C2054 C2068 1.377 . S
C2055 C2054 1.524 . S
C2055 C2056 1.397 . S
C2055 C2060 1.363 . S
C2056 H2033 0.950 . S
C2056 C2055 1.397 . S
C2056 C2057 1.334 . S
C2057 H2034 0.950 . S
C2057 C2056 1.334 . S
C2057 C2058 1.287 . S
C2058 C2057 1.287 . S
C2058 C2059 1.524 . S
C2058 H2077 0.913 . S
C2059 H2035 0.950 . S
C2059 C2058 1.524 . S
C2059 C2060 1.415 . S
C2060 H2036 0.950 . S
C2060 C2055 1.363 . S
C2060 C2059 1.415 . S
C2061 H2037 0.951 1_554 S
C2061 C2062 1.366 . S
C2061 C2063 1.388 . S
C2062 C2061 1.366 . S
C2062 C2066 1.385 . S
C2063 H2038 0.951 . S
C2063 C2061 1.388 . S
C2063 C2064 1.366 . S
C2064 C2063 1.366 . S
C2064 C2065 1.414 . S
C2064 C2067 1.499 . S
C2065 H2039 0.950 . S
C2065 C2064 1.414 . S
C2065 C2066 1.374 . S
C2066 H2040 0.950 . S
C2066 C2062 1.385 . S
C2066 C2065 1.374 . S
C2067 C2064 1.499 . S
C2067 C2068 1.373 . S
C2067 C2069 1.389 . S
C2068 H2041 0.950 . S
C2068 C2054 1.377 . S
C2068 C2067 1.373 . S
C2069 C2053 1.377 . S
C2069 C2067 1.389 . S
C2069 C2070 1.524 . S
C2070 C2069 1.524 . S
C2070 C2071 1.397 . S
C2070 C2075 1.363 . S
C2071 H2042 0.950 . S
C2071 C2070 1.397 . S
C2071 C2072 1.334 . S
C2072 H2043 0.950 . S
C2072 C2071 1.334 . S
C2072 C2073 1.287 . S
C2073 C2072 1.287 . S
C2073 C2074 1.524 . S
C2073 H2076 0.999 . S
C2074 H2044 0.950 . S
C2074 C2073 1.524 . S
C2074 C2075 1.415 . S
C2075 H2045 0.950 . S
C2075 C2070 1.363 . S
C2075 C2074 1.415 . S
H2076 C2073 0.999 . S
H2077 C2058 0.913 . S
H2078 C2096 0.951 . S
H2079 C2098 0.951 . S
H2080 C2100 0.950 . S
H2081 C2101 0.950 . S
H2082 C2103 0.950 . S
H2083 C2106 0.950 . S
H2084 C2107 0.950 . S
H2085 C2109 0.950 . S
H2086 C2110 0.950 . S
H2087 C2111 0.951 . S
H2088 C2113 0.951 . S
H2089 C2115 0.950 . S
H2090 C2116 0.950 . S
H2091 C2118 0.950 . S
H2092 C2121 0.950 . S
H2093 C2122 0.950 . S
H2094 C2124 0.950 . S
H2095 C2125 0.950 . S
C2096 H2078 0.951 . S
C2096 C2097 1.366 . S
C2096 C2098 1.388 . S
C2097 C2096 1.366 . S
C2097 C2101 1.385 . S
C2098 H2079 0.951 . S
C2098 C2096 1.388 . S
C2098 C2099 1.366 . S
C2099 C2098 1.366 . S
C2099 C2100 1.414 . S
C2099 C2102 1.499 . S
C2100 H2080 0.950 . S
C2100 C2099 1.414 . S
C2100 C2101 1.374 . S
C2101 H2081 0.950 . S
C2101 C2097 1.385 . S
C2101 C2100 1.374 . S
C2102 C2099 1.499 . S
C2102 C2103 1.373 . S
C2102 C2104 1.389 . S
C2103 H2082 0.950 . S
C2103 C2102 1.373 . S
C2103 C2119 1.377 . S
C2104 C2102 1.389 . S
C2104 C2105 1.524 . S
C2104 C2118 1.377 . S
C2105 C2104 1.524 . S
C2105 C2106 1.397 . S
C2105 C2110 1.363 . S
C2106 H2083 0.950 . S
C2106 C2105 1.397 . S
C2106 C2107 1.334 . S
C2107 H2084 0.950 . S
C2107 C2106 1.334 . S
C2107 C2108 1.287 . S
C2108 C2107 1.287 . S
C2108 C2109 1.524 . S
C2108 H2127 0.913 . S
C2109 H2085 0.950 . S
C2109 C2108 1.524 . S
C2109 C2110 1.415 . S
C2110 H2086 0.950 . S
C2110 C2105 1.363 . S
C2110 C2109 1.415 . S
C2111 H2087 0.951 . S
C2111 C2112 1.366 . S
C2111 C2113 1.388 . S
C2112 C2111 1.366 . S
C2112 C2116 1.385 . S
C2113 H2088 0.951 . S
C2113 C2111 1.388 . S
C2113 C2114 1.366 . S
C2114 C2113 1.366 . S
C2114 C2115 1.414 . S
C2114 C2117 1.499 . S
C2115 H2089 0.950 . S
C2115 C2114 1.414 . S
C2115 C2116 1.374 . S
C2116 H2090 0.950 . S
C2116 C2112 1.385 . S
C2116 C2115 1.374 . S
C2117 C2114 1.499 . S
C2117 C2118 1.373 . S
C2117 C2119 1.389 . S
C2118 H2091 0.950 . S
C2118 C2104 1.377 . S
C2118 C2117 1.373 . S
C2119 C2103 1.377 . S
C2119 C2117 1.389 . S
C2119 C2120 1.524 . S
C2120 C2119 1.524 . S
C2120 C2121 1.397 . S
C2120 C2125 1.363 . S
C2121 H2092 0.950 . S
C2121 C2120 1.397 . S
C2121 C2122 1.334 . S
C2122 H2093 0.950 . S
C2122 C2121 1.334 . S
C2122 C2123 1.287 . S
C2123 C2122 1.287 . S
C2123 C2124 1.524 . S
C2123 H2126 0.999 . S
C2124 H2094 0.950 . S
C2124 C2123 1.524 . S
C2124 C2125 1.415 . S
C2125 H2095 0.950 . S
C2125 C2120 1.363 . S
C2125 C2124 1.415 . S
H2126 C2123 0.999 . S
H2127 C2108 0.913 . S
H2128 C2146 0.951 . S
H2129 C2148 0.951 . S
H2130 C2150 0.950 . S
H2131 C2151 0.950 . S
H2132 C2153 0.950 . S
H2133 C2156 0.950 . S
H2134 C2157 0.950 . S
H2135 C2159 0.950 . S
H2136 C2160 0.950 . S
H2137 C2161 0.951 . S
H2138 C2163 0.951 . S
H2139 C2165 0.950 . S
H2140 C2166 0.950 . S
H2141 C2168 0.950 . S
H2142 C2171 0.950 . S
H2143 C2172 0.950 . S
H2144 C2174 0.950 . S
H2145 C2175 0.950 . S
C2146 H2128 0.951 . S
C2146 C2147 1.366 . S
C2146 C2148 1.388 . S
C2147 C2146 1.366 . S
C2147 C2151 1.385 . S
C2148 H2129 0.951 . S
C2148 C2146 1.388 . S
C2148 C2149 1.366 . S
C2149 C2148 1.366 . S
C2149 C2150 1.414 . S
C2149 C2152 1.499 . S
C2150 H2130 0.950 . S
C2150 C2149 1.414 . S
C2150 C2151 1.374 . S
C2151 H2131 0.950 . S
C2151 C2147 1.385 . S
C2151 C2150 1.374 . S
C2152 C2149 1.499 . S
C2152 C2153 1.373 . S
C2152 C2154 1.389 . S
C2153 H2132 0.950 . S
C2153 C2152 1.373 . S
C2153 C2169 1.377 . S
C2154 C2152 1.389 . S
C2154 C2155 1.524 . S
C2154 C2168 1.377 . S
C2155 C2154 1.524 . S
C2155 C2156 1.397 . S
C2155 C2160 1.363 . S
C2156 H2133 0.950 . S
C2156 C2155 1.397 . S
C2156 C2157 1.334 . S
C2157 H2134 0.950 . S
C2157 C2156 1.334 . S
C2157 C2158 1.287 . S
C2158 C2157 1.287 . S
C2158 C2159 1.524 . S
C2158 H2177 0.913 . S
C2159 H2135 0.950 . S
C2159 C2158 1.524 . S
C2159 C2160 1.415 . S
C2160 H2136 0.950 . S
C2160 C2155 1.363 . S
C2160 C2159 1.415 . S
C2161 H2137 0.951 . S
C2161 C2162 1.366 . S
C2161 C2163 1.388 . S
C2162 C2161 1.366 . S
C2162 C2166 1.385 . S
C2163 H2138 0.951 . S
C2163 C2161 1.388 . S
C2163 C2164 1.366 . S
C2164 C2163 1.366 . S
C2164 C2165 1.414 . S
C2164 C2167 1.499 . S
C2165 H2139 0.950 . S
C2165 C2164 1.414 . S
C2165 C2166 1.374 . S
C2166 H2140 0.950 . S
C2166 C2162 1.385 . S
C2166 C2165 1.374 . S
C2167 C2164 1.499 . S
C2167 C2168 1.373 . S
C2167 C2169 1.389 . S
C2168 H2141 0.950 . S
C2168 C2154 1.377 . S
C2168 C2167 1.373 . S
C2169 C2153 1.377 . S
C2169 C2167 1.389 . S
C2169 C2170 1.524 . S
C2170 C2169 1.524 . S
C2170 C2171 1.397 . S
C2170 C2175 1.363 . S
C2171 H2142 0.950 . S
C2171 C2170 1.397 . S
C2171 C2172 1.334 . S
C2172 H2143 0.950 . S
C2172 C2171 1.334 . S
C2172 C2173 1.287 . S
C2173 C2172 1.287 . S
C2173 C2174 1.524 . S
C2173 H2176 0.999 . S
C2174 H2144 0.950 . S
C2174 C2173 1.524 . S
C2174 C2175 1.415 . S
C2175 H2145 0.950 . S
C2175 C2170 1.363 . S
C2175 C2174 1.415 . S
H2176 C2173 0.999 . S
H2177 C2158 0.913 . S
H2178 C2196 0.951 . S
H2179 C2198 0.951 . S
H2180 C2200 0.950 . S
H2181 C2201 0.950 . S
H2182 C2203 0.950 . S
H2183 C2206 0.950 . S
H2184 C2207 0.950 . S
H2185 C2209 0.950 . S
H2186 C2210 0.950 . S
H2187 C2211 0.951 . S
H2188 C2213 0.951 . S
H2189 C2215 0.950 . S
H2190 C2216 0.950 . S
H2191 C2218 0.950 . S
H2192 C2221 0.950 . S
H2193 C2222 0.950 . S
H2194 C2224 0.950 . S
H2195 C2225 0.950 . S
C2196 H2178 0.951 . S
C2196 C2197 1.366 . S
C2196 C2198 1.388 . S
C2197 C2196 1.366 . S
C2197 C2201 1.385 . S
C2198 H2179 0.951 . S
C2198 C2196 1.388 . S
C2198 C2199 1.366 . S
C2199 C2198 1.366 . S
C2199 C2200 1.414 . S
C2199 C2202 1.499 . S
C2200 H2180 0.950 . S
C2200 C2199 1.414 . S
C2200 C2201 1.374 . S
C2201 H2181 0.950 . S
C2201 C2197 1.385 . S
C2201 C2200 1.374 . S
C2202 C2199 1.499 . S
C2202 C2203 1.373 . S
C2202 C2204 1.389 . S
C2203 H2182 0.950 . S
C2203 C2202 1.373 . S
C2203 C2219 1.377 . S
C2204 C2202 1.389 . S
C2204 C2205 1.524 . S
C2204 C2218 1.377 . S
C2205 C2204 1.524 . S
C2205 C2206 1.397 . S
C2205 C2210 1.363 . S
C2206 H2183 0.950 . S
C2206 C2205 1.397 . S
C2206 C2207 1.334 . S
C2207 H2184 0.950 . S
C2207 C2206 1.334 . S
C2207 C2208 1.287 . S
C2208 C2207 1.287 . S
C2208 C2209 1.524 . S
C2208 H2227 0.913 . S
C2209 H2185 0.950 . S
C2209 C2208 1.524 . S
C2209 C2210 1.415 . S
C2210 H2186 0.950 . S
C2210 C2205 1.363 . S
C2210 C2209 1.415 . S
C2211 H2187 0.951 . S
C2211 C2212 1.366 . S
C2211 C2213 1.388 . S
C2212 C2211 1.366 . S
C2212 C2216 1.385 . S
C2213 H2188 0.951 . S
C2213 C2211 1.388 . S
C2213 C2214 1.366 . S
C2214 C2213 1.366 . S
C2214 C2215 1.414 . S
C2214 C2217 1.499 . S
C2215 H2189 0.950 . S
C2215 C2214 1.414 . S
C2215 C2216 1.374 . S
C2216 H2190 0.950 . S
C2216 C2212 1.385 . S
C2216 C2215 1.374 . S
C2217 C2214 1.499 . S
C2217 C2218 1.373 . S
C2217 C2219 1.389 . S
C2218 H2191 0.950 . S
C2218 C2204 1.377 . S
C2218 C2217 1.373 . S
C2219 C2203 1.377 . S
C2219 C2217 1.389 . S
C2219 C2220 1.524 . S
C2220 C2219 1.524 . S
C2220 C2221 1.397 . S
C2220 C2225 1.363 . S
C2221 H2192 0.950 . S
C2221 C2220 1.397 . S
C2221 C2222 1.334 . S
C2222 H2193 0.950 . S
C2222 C2221 1.334 . S
C2222 C2223 1.287 . S
C2223 C2222 1.287 . S
C2223 C2224 1.524 . S
C2223 H2226 0.999 . S
C2224 H2194 0.950 . S
C2224 C2223 1.524 . S
C2224 C2225 1.415 . S
C2225 H2195 0.950 . S
C2225 C2220 1.363 . S
C2225 C2224 1.415 . S
H2226 C2223 0.999 . S
H2227 C2208 0.913 . S
H2228 C2246 0.951 . S
H2229 C2248 0.951 . S
H2230 C2250 0.950 . S
H2231 C2251 0.950 . S
H2232 C2253 0.950 . S
H2233 C2256 0.950 . S
H2234 C2257 0.950 . S
H2235 C2259 0.950 . S
H2236 C2260 0.950 . S
H2237 C2261 0.951 . S
H2238 C2263 0.951 . S
H2239 C2265 0.950 . S
H2240 C2266 0.950 . S
H2241 C2268 0.950 . S
H2242 C2271 0.950 . S
H2243 C2272 0.950 . S
H2244 C2274 0.950 . S
H2245 C2275 0.950 . S
C2246 H2228 0.951 . S
C2246 C2247 1.366 . S
C2246 C2248 1.388 . S
C2247 C2246 1.366 . S
C2247 C2251 1.385 . S
C2248 H2229 0.951 . S
C2248 C2246 1.388 . S
C2248 C2249 1.366 . S
C2249 C2248 1.366 . S
C2249 C2250 1.414 . S
C2249 C2252 1.499 . S
C2250 H2230 0.950 . S
C2250 C2249 1.414 . S
C2250 C2251 1.374 . S
C2251 H2231 0.950 . S
C2251 C2247 1.385 . S
C2251 C2250 1.374 . S
C2252 C2249 1.499 . S
C2252 C2253 1.373 . S
C2252 C2254 1.389 . S
C2253 H2232 0.950 . S
C2253 C2252 1.373 . S
C2253 C2269 1.377 . S
C2254 C2252 1.389 . S
C2254 C2255 1.524 . S
C2254 C2268 1.377 . S
C2255 C2254 1.524 . S
C2255 C2256 1.397 . S
C2255 C2260 1.363 . S
C2256 H2233 0.950 . S
C2256 C2255 1.397 . S
C2256 C2257 1.334 . S
C2257 H2234 0.950 . S
C2257 C2256 1.334 . S
C2257 C2258 1.287 . S
C2258 C2257 1.287 . S
C2258 C2259 1.524 . S
C2258 H2277 0.913 . S
C2259 H2235 0.950 . S
C2259 C2258 1.524 . S
C2259 C2260 1.415 . S
C2260 H2236 0.950 . S
C2260 C2255 1.363 . S
C2260 C2259 1.415 . S
C2261 H2237 0.951 . S
C2261 C2262 1.366 . S
C2261 C2263 1.388 . S
C2262 C2261 1.366 . S
C2262 C2266 1.385 . S
C2263 H2238 0.951 . S
C2263 C2261 1.388 . S
C2263 C2264 1.366 . S
C2264 C2263 1.366 . S
C2264 C2265 1.414 . S
C2264 C2267 1.499 . S
C2265 H2239 0.950 . S
C2265 C2264 1.414 . S
C2265 C2266 1.374 . S
C2266 H2240 0.950 . S
C2266 C2262 1.385 . S
C2266 C2265 1.374 . S
C2267 C2264 1.499 . S
C2267 C2268 1.373 . S
C2267 C2269 1.389 . S
C2268 H2241 0.950 . S
C2268 C2254 1.377 . S
C2268 C2267 1.373 . S
C2269 C2253 1.377 . S
C2269 C2267 1.389 . S
C2269 C2270 1.524 . S
C2270 C2269 1.524 . S
C2270 C2271 1.397 . S
C2270 C2275 1.363 . S
C2271 H2242 0.950 . S
C2271 C2270 1.397 . S
C2271 C2272 1.334 . S
C2272 H2243 0.950 . S
C2272 C2271 1.334 . S
C2272 C2273 1.287 . S
C2273 C2272 1.287 . S
C2273 C2274 1.524 . S
C2273 H2276 0.999 . S
C2274 H2244 0.950 . S
C2274 C2273 1.524 . S
C2274 C2275 1.415 . S
C2275 H2245 0.950 . S
C2275 C2270 1.363 . S
C2275 C2274 1.415 . S
H2276 C2273 0.999 . S
H2277 C2258 0.913 . S
H2278 C2296 0.951 . S
H2279 C2298 0.951 . S
H2280 C2300 0.950 . S
H2281 C2301 0.950 . S
H2282 C2303 0.950 . S
H2283 C2306 0.950 . S
H2284 C2307 0.950 . S
H2285 C2309 0.950 . S
H2286 C2310 0.950 . S
H2287 C2311 0.951 . S
H2288 C2313 0.951 . S
H2289 C2315 0.950 . S
H2290 C2316 0.950 . S
H2291 C2318 0.950 . S
H2292 C2321 0.950 . S
H2293 C2322 0.950 . S
H2294 C2324 0.950 . S
H2295 C2325 0.950 . S
C2296 H2278 0.951 . S
C2296 C2297 1.366 . S
C2296 C2298 1.388 . S
C2297 C2296 1.366 . S
C2297 C2301 1.385 . S
C2298 H2279 0.951 . S
C2298 C2296 1.388 . S
C2298 C2299 1.366 . S
C2299 C2298 1.366 . S
C2299 C2300 1.414 . S
C2299 C2302 1.499 . S
C2300 H2280 0.950 . S
C2300 C2299 1.414 . S
C2300 C2301 1.374 . S
C2301 H2281 0.950 . S
C2301 C2297 1.385 . S
C2301 C2300 1.374 . S
C2302 C2299 1.499 . S
C2302 C2303 1.373 . S
C2302 C2304 1.389 . S
C2303 H2282 0.950 . S
C2303 C2302 1.373 . S
C2303 C2319 1.377 . S
C2304 C2302 1.389 . S
C2304 C2305 1.524 . S
C2304 C2318 1.377 . S
C2305 C2304 1.524 . S
C2305 C2306 1.397 . S
C2305 C2310 1.363 . S
C2306 H2283 0.950 . S
C2306 C2305 1.397 . S
C2306 C2307 1.334 . S
C2307 H2284 0.950 . S
C2307 C2306 1.334 . S
C2307 C2308 1.287 . S
C2308 C2307 1.287 . S
C2308 C2309 1.524 . S
C2308 H2327 0.913 . S
C2309 H2285 0.950 . S
C2309 C2308 1.524 . S
C2309 C2310 1.415 . S
C2310 H2286 0.950 . S
C2310 C2305 1.363 . S
C2310 C2309 1.415 . S
C2311 H2287 0.951 . S
C2311 C2312 1.366 . S
C2311 C2313 1.388 . S
C2312 C2311 1.366 . S
C2312 C2316 1.385 . S
C2313 H2288 0.951 . S
C2313 C2311 1.388 . S
C2313 C2314 1.366 . S
C2314 C2313 1.366 . S
C2314 C2315 1.414 . S
C2314 C2317 1.499 . S
C2315 H2289 0.950 . S
C2315 C2314 1.414 . S
C2315 C2316 1.374 . S
C2316 H2290 0.950 . S
C2316 C2312 1.385 . S
C2316 C2315 1.374 . S
C2317 C2314 1.499 . S
C2317 C2318 1.373 . S
C2317 C2319 1.389 . S
C2318 H2291 0.950 . S
C2318 C2304 1.377 . S
C2318 C2317 1.373 . S
C2319 C2303 1.377 . S
C2319 C2317 1.389 . S
C2319 C2320 1.524 . S
C2320 C2319 1.524 . S
C2320 C2321 1.397 . S
C2320 C2325 1.363 . S
C2321 H2292 0.950 . S
C2321 C2320 1.397 . S
C2321 C2322 1.334 . S
C2322 H2293 0.950 . S
C2322 C2321 1.334 . S
C2322 C2323 1.287 . S
C2323 C2322 1.287 . S
C2323 C2324 1.524 . S
C2323 H2326 0.999 . S
C2324 H2294 0.950 . S
C2324 C2323 1.524 . S
C2324 C2325 1.415 . S
C2325 H2295 0.950 . S
C2325 C2320 1.363 . S
C2325 C2324 1.415 . S
H2326 C2323 0.999 . S
H2327 C2308 0.913 . S
H2328 C2346 0.951 . S
H2329 C2348 0.951 . S
H2330 C2350 0.950 . S
H2331 C2351 0.950 . S
H2332 C2353 0.950 . S
H2333 C2356 0.950 . S
H2334 C2357 0.950 . S
H2335 C2359 0.950 . S
H2336 C2360 0.950 . S
H2337 C2361 0.951 1_556 S
H2338 C2363 0.951 . S
H2339 C2365 0.950 . S
H2340 C2366 0.950 . S
H2341 C2368 0.950 . S
H2342 C2371 0.950 . S
H2343 C2372 0.950 . S
H2344 C2374 0.950 . S
H2345 C2375 0.950 . S
C2346 H2328 0.951 . S
C2346 C2347 1.366 . S
C2346 C2348 1.388 . S
C2347 C2346 1.366 . S
C2347 C2351 1.385 . S
C2348 H2329 0.951 . S
C2348 C2346 1.388 . S
C2348 C2349 1.366 . S
C2349 C2348 1.366 . S
C2349 C2350 1.414 . S
C2349 C2352 1.499 . S
C2350 H2330 0.950 . S
C2350 C2349 1.414 . S
C2350 C2351 1.374 . S
C2351 H2331 0.950 . S
C2351 C2347 1.385 . S
C2351 C2350 1.374 . S
C2352 C2349 1.499 . S
C2352 C2353 1.373 . S
C2352 C2354 1.389 . S
C2353 H2332 0.950 . S
C2353 C2352 1.373 . S
C2353 C2369 1.377 . S
C2354 C2352 1.389 . S
C2354 C2355 1.524 . S
C2354 C2368 1.377 . S
C2355 C2354 1.524 . S
C2355 C2356 1.397 . S
C2355 C2360 1.363 . S
C2356 H2333 0.950 . S
C2356 C2355 1.397 . S
C2356 C2357 1.334 . S
C2357 H2334 0.950 . S
C2357 C2356 1.334 . S
C2357 C2358 1.287 . S
C2358 C2357 1.287 . S
C2358 C2359 1.524 . S
C2358 H2377 0.913 . S
C2359 H2335 0.950 . S
C2359 C2358 1.524 . S
C2359 C2360 1.415 . S
C2360 H2336 0.950 . S
C2360 C2355 1.363 . S
C2360 C2359 1.415 . S
C2361 H2337 0.951 1_554 S
C2361 C2362 1.366 . S
C2361 C2363 1.388 . S
C2362 C2361 1.366 . S
C2362 C2366 1.385 . S
C2363 H2338 0.951 . S
C2363 C2361 1.388 . S
C2363 C2364 1.366 . S
C2364 C2363 1.366 . S
C2364 C2365 1.414 . S
C2364 C2367 1.499 . S
C2365 H2339 0.950 . S
C2365 C2364 1.414 . S
C2365 C2366 1.374 . S
C2366 H2340 0.950 . S
C2366 C2362 1.385 . S
C2366 C2365 1.374 . S
C2367 C2364 1.499 . S
C2367 C2368 1.373 . S
C2367 C2369 1.389 . S
C2368 H2341 0.950 . S
C2368 C2354 1.377 . S
C2368 C2367 1.373 . S
C2369 C2353 1.377 . S
C2369 C2367 1.389 . S
C2369 C2370 1.524 . S
C2370 C2369 1.524 . S
C2370 C2371 1.397 . S
C2370 C2375 1.363 . S
C2371 H2342 0.950 . S
C2371 C2370 1.397 . S
C2371 C2372 1.334 . S
C2372 H2343 0.950 . S
C2372 C2371 1.334 . S
C2372 C2373 1.287 . S
C2373 C2372 1.287 . S
C2373 C2374 1.524 . S
C2373 H2376 0.999 . S
C2374 H2344 0.950 . S
C2374 C2373 1.524 . S
C2374 C2375 1.415 . S
C2375 H2345 0.950 . S
C2375 C2370 1.363 . S
C2375 C2374 1.415 . S
H2376 C2373 0.999 . S
H2377 C2358 0.913 . S
H2378 C2396 0.951 . S
H2379 C2398 0.951 . S
H2380 C2400 0.950 . S
H2381 C2401 0.950 . S
H2382 C2403 0.950 . S
H2383 C2406 0.950 . S
H2384 C2407 0.950 . S
H2385 C2409 0.950 . S
H2386 C2410 0.950 . S
H2387 C2411 0.951 . S
H2388 C2413 0.951 . S
H2389 C2415 0.950 . S
H2390 C2416 0.950 . S
H2391 C2418 0.950 . S
H2392 C2421 0.950 . S
H2393 C2422 0.950 . S
H2394 C2424 0.950 . S
H2395 C2425 0.950 . S
C2396 H2378 0.951 . S
C2396 C2397 1.366 . S
C2396 C2398 1.388 . S
C2397 C2396 1.366 . S
C2397 C2401 1.385 . S
C2398 H2379 0.951 . S
C2398 C2396 1.388 . S
C2398 C2399 1.366 . S
C2399 C2398 1.366 . S
C2399 C2400 1.414 . S
C2399 C2402 1.499 . S
C2400 H2380 0.950 . S
C2400 C2399 1.414 . S
C2400 C2401 1.374 . S
C2401 H2381 0.950 . S
C2401 C2397 1.385 . S
C2401 C2400 1.374 . S
C2402 C2399 1.499 . S
C2402 C2403 1.373 . S
C2402 C2404 1.389 . S
C2403 H2382 0.950 . S
C2403 C2402 1.373 . S
C2403 C2419 1.377 . S
C2404 C2402 1.389 . S
C2404 C2405 1.524 . S
C2404 C2418 1.377 . S
C2405 C2404 1.524 . S
C2405 C2406 1.397 . S
C2405 C2410 1.363 . S
C2406 H2383 0.950 . S
C2406 C2405 1.397 . S
C2406 C2407 1.334 . S
C2407 H2384 0.950 . S
C2407 C2406 1.334 . S
C2407 C2408 1.287 . S
C2408 C2407 1.287 . S
C2408 C2409 1.524 . S
C2408 H2427 0.913 . S
C2409 H2385 0.950 . S
C2409 C2408 1.524 . S
C2409 C2410 1.415 . S
C2410 H2386 0.950 . S
C2410 C2405 1.363 . S
C2410 C2409 1.415 . S
C2411 H2387 0.951 . S
C2411 C2412 1.366 . S
C2411 C2413 1.388 . S
C2412 C2411 1.366 . S
C2412 C2416 1.385 . S
C2413 H2388 0.951 . S
C2413 C2411 1.388 . S
C2413 C2414 1.366 . S
C2414 C2413 1.366 . S
C2414 C2415 1.414 . S
C2414 C2417 1.499 . S
C2415 H2389 0.950 . S
C2415 C2414 1.414 . S
C2415 C2416 1.374 . S
C2416 H2390 0.950 . S
C2416 C2412 1.385 . S
C2416 C2415 1.374 . S
C2417 C2414 1.499 . S
C2417 C2418 1.373 . S
C2417 C2419 1.389 . S
C2418 H2391 0.950 . S
C2418 C2404 1.377 . S
C2418 C2417 1.373 . S
C2419 C2403 1.377 . S
C2419 C2417 1.389 . S
C2419 C2420 1.524 . S
C2420 C2419 1.524 . S
C2420 C2421 1.397 . S
C2420 C2425 1.363 . S
C2421 H2392 0.950 . S
C2421 C2420 1.397 . S
C2421 C2422 1.334 . S
C2422 H2393 0.950 . S
C2422 C2421 1.334 . S
C2422 C2423 1.287 . S
C2423 C2422 1.287 . S
C2423 C2424 1.524 . S
C2423 H2426 0.999 . S
C2424 H2394 0.950 . S
C2424 C2423 1.524 . S
C2424 C2425 1.415 . S
C2425 H2395 0.950 . S
C2425 C2420 1.363 . S
C2425 C2424 1.415 . S
H2426 C2423 0.999 . S
H2427 C2408 0.913 . S
H2428 C2446 0.951 . S
H2429 C2448 0.951 . S
H2430 C2450 0.950 . S
H2431 C2451 0.950 . S
H2432 C2453 0.950 . S
H2433 C2456 0.950 . S
H2434 C2457 0.950 . S
H2435 C2459 0.950 . S
H2436 C2460 0.950 . S
H2437 C2461 0.951 . S
H2438 C2463 0.951 . S
H2439 C2465 0.950 . S
H2440 C2466 0.950 . S
H2441 C2468 0.950 . S
H2442 C2471 0.950 . S
H2443 C2472 0.950 . S
H2444 C2474 0.950 . S
H2445 C2475 0.950 . S
C2446 H2428 0.951 . S
C2446 C2447 1.366 . S
C2446 C2448 1.388 . S
C2447 C2446 1.366 . S
C2447 C2451 1.385 . S
C2448 H2429 0.951 . S
C2448 C2446 1.388 . S
C2448 C2449 1.366 . S
C2449 C2448 1.366 . S
C2449 C2450 1.414 . S
C2449 C2452 1.499 . S
C2450 H2430 0.950 . S
C2450 C2449 1.414 . S
C2450 C2451 1.374 . S
C2451 H2431 0.950 . S
C2451 C2447 1.385 . S
C2451 C2450 1.374 . S
C2452 C2449 1.499 . S
C2452 C2453 1.373 . S
C2452 C2454 1.389 . S
C2453 H2432 0.950 . S
C2453 C2452 1.373 . S
C2453 C2469 1.377 . S
C2454 C2452 1.389 . S
C2454 C2455 1.524 . S
C2454 C2468 1.377 . S
C2455 C2454 1.524 . S
C2455 C2456 1.397 . S
C2455 C2460 1.363 . S
C2456 H2433 0.950 . S
C2456 C2455 1.397 . S
C2456 C2457 1.334 . S
C2457 H2434 0.950 . S
C2457 C2456 1.334 . S
C2457 C2458 1.287 . S
C2458 C2457 1.287 . S
C2458 C2459 1.524 . S
C2458 H2477 0.913 . S
C2459 H2435 0.950 . S
C2459 C2458 1.524 . S
C2459 C2460 1.415 . S
C2460 H2436 0.950 . S
C2460 C2455 1.363 . S
C2460 C2459 1.415 . S
C2461 H2437 0.951 . S
C2461 C2462 1.366 . S
C2461 C2463 1.388 . S
C2462 C2461 1.366 . S
C2462 C2466 1.385 . S
C2463 H2438 0.951 . S
C2463 C2461 1.388 . S
C2463 C2464 1.366 . S
C2464 C2463 1.366 . S
C2464 C2465 1.414 . S
C2464 C2467 1.499 . S
C2465 H2439 0.950 . S
C2465 C2464 1.414 . S
C2465 C2466 1.374 . S
C2466 H2440 0.950 . S
C2466 C2462 1.385 . S
C2466 C2465 1.374 . S
C2467 C2464 1.499 . S
C2467 C2468 1.373 . S
C2467 C2469 1.389 . S
C2468 H2441 0.950 . S
C2468 C2454 1.377 . S
C2468 C2467 1.373 . S
C2469 C2453 1.377 . S
C2469 C2467 1.389 . S
C2469 C2470 1.524 . S
C2470 C2469 1.524 . S
C2470 C2471 1.397 . S
C2470 C2475 1.363 . S
C2471 H2442 0.950 . S
C2471 C2470 1.397 . S
C2471 C2472 1.334 . S
C2472 H2443 0.950 . S
C2472 C2471 1.334 . S
C2472 C2473 1.287 . S
C2473 C2472 1.287 . S
C2473 C2474 1.524 . S
C2473 H2476 0.999 . S
C2474 H2444 0.950 . S
C2474 C2473 1.524 . S
C2474 C2475 1.415 . S
C2475 H2445 0.950 . S
C2475 C2470 1.363 . S
C2475 C2474 1.415 . S
H2476 C2473 0.999 . S
H2477 C2458 0.913 . S
H2478 C2496 0.951 . S
H2479 C2498 0.951 . S
H2480 C2500 0.950 . S
H2481 C2501 0.950 . S
H2482 C2503 0.950 . S
H2483 C2506 0.950 . S
H2484 C2507 0.950 . S
H2485 C2509 0.950 . S
H2486 C2510 0.950 . S
H2487 C2511 0.951 . S
H2488 C2513 0.951 . S
H2489 C2515 0.950 . S
H2490 C2516 0.950 . S
H2491 C2518 0.950 . S
H2492 C2521 0.950 . S
H2493 C2522 0.950 . S
H2494 C2524 0.950 . S
H2495 C2525 0.950 . S
C2496 H2478 0.951 . S
C2496 C2497 1.366 . S
C2496 C2498 1.388 . S
C2497 C2496 1.366 . S
C2497 C2501 1.385 . S
C2498 H2479 0.951 . S
C2498 C2496 1.388 . S
C2498 C2499 1.366 . S
C2499 C2498 1.366 . S
C2499 C2500 1.414 . S
C2499 C2502 1.499 . S
C2500 H2480 0.950 . S
C2500 C2499 1.414 . S
C2500 C2501 1.374 . S
C2501 H2481 0.950 . S
C2501 C2497 1.385 . S
C2501 C2500 1.374 . S
C2502 C2499 1.499 . S
C2502 C2503 1.373 . S
C2502 C2504 1.389 . S
C2503 H2482 0.950 . S
C2503 C2502 1.373 . S
C2503 C2519 1.377 . S
C2504 C2502 1.389 . S
C2504 C2505 1.524 . S
C2504 C2518 1.377 . S
C2505 C2504 1.524 . S
C2505 C2506 1.397 . S
C2505 C2510 1.363 . S
C2506 H2483 0.950 . S
C2506 C2505 1.397 . S
C2506 C2507 1.334 . S
C2507 H2484 0.950 . S
C2507 C2506 1.334 . S
C2507 C2508 1.287 . S
C2508 C2507 1.287 . S
C2508 C2509 1.524 . S
C2508 H2527 0.913 . S
C2509 H2485 0.950 . S
C2509 C2508 1.524 . S
C2509 C2510 1.415 . S
C2510 H2486 0.950 . S
C2510 C2505 1.363 . S
C2510 C2509 1.415 . S
C2511 H2487 0.951 . S
C2511 C2512 1.366 . S
C2511 C2513 1.388 . S
C2512 C2511 1.366 . S
C2512 C2516 1.385 . S
C2513 H2488 0.951 . S
C2513 C2511 1.388 . S
C2513 C2514 1.366 . S
C2514 C2513 1.366 . S
C2514 C2515 1.414 . S
C2514 C2517 1.499 . S
C2515 H2489 0.950 . S
C2515 C2514 1.414 . S
C2515 C2516 1.374 . S
C2516 H2490 0.950 . S
C2516 C2512 1.385 . S
C2516 C2515 1.374 . S
C2517 C2514 1.499 . S
C2517 C2518 1.373 . S
C2517 C2519 1.389 . S
C2518 H2491 0.950 . S
C2518 C2504 1.377 . S
C2518 C2517 1.373 . S
C2519 C2503 1.377 . S
C2519 C2517 1.389 . S
C2519 C2520 1.524 . S
C2520 C2519 1.524 . S
C2520 C2521 1.397 . S
C2520 C2525 1.363 . S
C2521 H2492 0.950 . S
C2521 C2520 1.397 . S
C2521 C2522 1.334 . S
C2522 H2493 0.950 . S
C2522 C2521 1.334 . S
C2522 C2523 1.287 . S
C2523 C2522 1.287 . S
C2523 C2524 1.524 . S
C2523 H2526 0.999 . S
C2524 H2494 0.950 . S
C2524 C2523 1.524 . S
C2524 C2525 1.415 . S
C2525 H2495 0.950 . S
C2525 C2520 1.363 . S
C2525 C2524 1.415 . S
H2526 C2523 0.999 . S
H2527 C2508 0.913 . S
C547 N332 1.430 . S
C562 N2 1.428 . S
C597 N35 1.429 . S
C612 N365 1.430 . S
C647 N266 1.430 . S
C662 N68 1.429 . S
C697 N101 1.429 . S
C712 N299 1.430 . S
C747 N464 1.430 . S
C762 N134 1.429 . S
C797 N167 1.430 . S
C812 N497 1.429 . S
C847 N200 1.429 . S
C862 N398 1.430 . S
C897 N431 1.430 . S
C912 N233 1.429 . S
C947 C480 0.762 . S
C962 C7 0.760 . S
C997 C513 0.761 . S
C1012 C40 0.759 . S
C1047 C73 0.761 . S
C1062 C414 0.761 . S
C1097 C447 0.761 . S
C1112 C106 0.761 . S
C1147 C139 0.761 . S
C1162 C348 0.761 . S
C1197 C172 0.761 . S
C1212 C381 0.761 . S
C1247 C282 0.761 . S
C1262 C205 0.761 . S
C1297 C238 0.761 . S
C1312 C315 0.761 . S
C1347 C216 0.761 . S
C1362 C271 0.761 . S
C1397 C249 0.761 . S
C1412 C304 0.761 . S
C1447 C150 0.761 . S
C1462 C337 0.761 . S
C1497 C370 0.760 . S
C1512 C183 0.761 . S
C1547 C403 0.761 . S
C1562 C84 0.761 . S
C1597 C436 0.760 . S
C1612 C117 0.761 . S
C1647 C469 0.760 . S
C1662 C18 0.761 . S
C1697 C51 0.761 . S
C1712 C502 0.761 . S
C1747 N376 1.747 . S
C1762 C21 1.729 . S
C1797 C54 1.729 . S
C1812 N277 1.747 . S
C1847 C87 1.729 . S
C1862 N310 1.747 . S
C1897 C120 1.729 . S
C1912 N343 1.747 . S
C1947 N178 1.747 . S
C1962 C153 1.729 . S
C1997 C186 1.729 . S
C2012 N211 1.747 . S
C2047 N244 1.747 . S
C2062 C219 1.729 . S
C2097 C252 1.729 . S
C2112 N145 1.747 . S
C2147 N112 1.747 . S
C2162 C285 1.729 . S
C2197 C318 1.729 . S
C2212 N13 1.747 . S
C2247 C351 1.729 . S
C2262 N46 1.747 . S
C2297 N79 1.747 . S
C2312 C384 1.729 . S
C2347 N442 1.747 . S
C2362 C417 1.729 . S
C2397 N475 1.747 . S
C2412 C450 1.729 . S
C2447 C483 1.729 . S
C2462 N508 1.747 . S
C2497 N409 1.747 . S
C2512 C516 1.729 . S
