# Generated by pormake.
# Topology umc, (4)-cn, num edge types: 1
# Building blocks:
#     Node 0, Type 0, BuildingBlock: ESEHIV_clean_sbu_0, # of connection points: 4
#     Node 1, Type 0, BuildingBlock: ESEHIV_clean_sbu_0, # of connection points: 4
#     Node 2, Type 0, BuildingBlock: ESEHIV_clean_sbu_0, # of connection points: 4
#     Node 3, Type 0, BuildingBlock: ESEHIV_clean_sbu_0, # of connection points: 4
#     Node 4, Type 0, BuildingBlock: ESEHIV_clean_sbu_0, # of connection points: 4
#     Node 5, Type 0, BuildingBlock: ESEHIV_clean_sbu_0, # of connection points: 4
#     Node 6, Type 0, BuildingBlock: ESEHIV_clean_sbu_0, # of connection points: 4
#     Node 7, Type 0, BuildingBlock: ESEHIV_clean_sbu_0, # of connection points: 4
#     Node 8, Type 0, BuildingBlock: ESEHIV_clean_sbu_0, # of connection points: 4
#     Node 9, Type 0, BuildingBlock: ESEHIV_clean_sbu_0, # of connection points: 4
#     Node 10, Type 0, BuildingBlock: ESEHIV_clean_sbu_0, # of connection points: 4
#     Node 11, Type 0, BuildingBlock: ESEHIV_clean_sbu_0, # of connection points: 4
#     Node 12, Type 0, BuildingBlock: ESEHIV_clean_sbu_0, # of connection points: 4
#     Node 13, Type 0, BuildingBlock: ESEHIV_clean_sbu_0, # of connection points: 4
#     Node 14, Type 0, BuildingBlock: ESEHIV_clean_sbu_0, # of connection points: 4
#     Node 15, Type 0, BuildingBlock: ESEHIV_clean_sbu_0, # of connection points: 4
#     Edge 16, Type (0, 0), BuildingBlock: MIFKUJ_clean_linker_0, # of connection points: 2
#     Edge 17, Type (0, 0), BuildingBlock: MIFKUJ_clean_linker_0, # of connection points: 2
#     Edge 18, Type (0, 0), BuildingBlock: MIFKUJ_clean_linker_0, # of connection points: 2
#     Edge 19, Type (0, 0), BuildingBlock: MIFKUJ_clean_linker_0, # of connection points: 2
#     Edge 20, Type (0, 0), BuildingBlock: MIFKUJ_clean_linker_0, # of connection points: 2
#     Edge 21, Type (0, 0), BuildingBlock: MIFKUJ_clean_linker_0, # of connection points: 2
#     Edge 22, Type (0, 0), BuildingBlock: MIFKUJ_clean_linker_0, # of connection points: 2
#     Edge 23, Type (0, 0), BuildingBlock: MIFKUJ_clean_linker_0, # of connection points: 2
#     Edge 24, Type (0, 0), BuildingBlock: MIFKUJ_clean_linker_0, # of connection points: 2
#     Edge 25, Type (0, 0), BuildingBlock: MIFKUJ_clean_linker_0, # of connection points: 2
#     Edge 26, Type (0, 0), BuildingBlock: MIFKUJ_clean_linker_0, # of connection points: 2
#     Edge 27, Type (0, 0), BuildingBlock: MIFKUJ_clean_linker_0, # of connection points: 2
#     Edge 28, Type (0, 0), BuildingBlock: MIFKUJ_clean_linker_0, # of connection points: 2
#     Edge 29, Type (0, 0), BuildingBlock: MIFKUJ_clean_linker_0, # of connection points: 2
#     Edge 30, Type (0, 0), BuildingBlock: MIFKUJ_clean_linker_0, # of connection points: 2
#     Edge 31, Type (0, 0), BuildingBlock: MIFKUJ_clean_linker_0, # of connection points: 2
#     Edge 32, Type (0, 0), BuildingBlock: MIFKUJ_clean_linker_0, # of connection points: 2
#     Edge 33, Type (0, 0), BuildingBlock: MIFKUJ_clean_linker_0, # of connection points: 2
#     Edge 34, Type (0, 0), BuildingBlock: MIFKUJ_clean_linker_0, # of connection points: 2
#     Edge 35, Type (0, 0), BuildingBlock: MIFKUJ_clean_linker_0, # of connection points: 2
#     Edge 36, Type (0, 0), BuildingBlock: MIFKUJ_clean_linker_0, # of connection points: 2
#     Edge 37, Type (0, 0), BuildingBlock: MIFKUJ_clean_linker_0, # of connection points: 2
#     Edge 38, Type (0, 0), BuildingBlock: MIFKUJ_clean_linker_0, # of connection points: 2
#     Edge 39, Type (0, 0), BuildingBlock: MIFKUJ_clean_linker_0, # of connection points: 2
#     Edge 40, Type (0, 0), BuildingBlock: MIFKUJ_clean_linker_0, # of connection points: 2
#     Edge 41, Type (0, 0), BuildingBlock: MIFKUJ_clean_linker_0, # of connection points: 2
#     Edge 42, Type (0, 0), BuildingBlock: MIFKUJ_clean_linker_0, # of connection points: 2
#     Edge 43, Type (0, 0), BuildingBlock: MIFKUJ_clean_linker_0, # of connection points: 2
#     Edge 44, Type (0, 0), BuildingBlock: MIFKUJ_clean_linker_0, # of connection points: 2
#     Edge 45, Type (0, 0), BuildingBlock: MIFKUJ_clean_linker_0, # of connection points: 2
#     Edge 46, Type (0, 0), BuildingBlock: MIFKUJ_clean_linker_0, # of connection points: 2
#     Edge 47, Type (0, 0), BuildingBlock: MIFKUJ_clean_linker_0, # of connection points: 2
# Relax obj value: 0.039
# Max RMSD: 0.092
# Mean RMSD: 0.092
data_MOF--net-umc--node1-ESEHIV_clean_sbu_0--edge1-MIFKUJ_clean_linker_0
_symmetry_space_group_name_H-M    P1
_symmetry_Int_Tables_number       1
_symmetry_cell_setting            triclinic
loop_
_symmetry_equiv_pos_as_xyz
'x, y, z'
_cell_length_a     74.457491
_cell_length_b     44.326116
_cell_length_c     72.792036
_cell_angle_alpha  90.209764
_cell_angle_beta   90.06712
_cell_angle_gamma 89.982208
loop_
_atom_site_label
_atom_site_type_symbol
_atom_site_fract_x
_atom_site_fract_y
_atom_site_fract_z
_atom_type_partial_charge
Cu0 Cu 0.38522 0.09968 0.38682 0.0
N1 N 0.41021 0.10123 0.38927 0.0
N2 N 0.43925 0.08821 0.38832 0.0
C3 C 0.42243 0.08168 0.38249 0.0
C4 C 0.43745 0.11289 0.39911 0.0
C5 C 0.41957 0.12075 0.39972 0.0
O6 O 0.37921 0.08013 0.36365 0.0
C7 C 0.38354 0.06162 0.41825 0.0
O8 O 0.39829 0.04972 0.41151 0.0
H9 H 0.41895 0.06272 0.37379 0.0
H10 H 0.41369 0.13885 0.4077 0.0
N11 N 0.37602 0.1388 0.38538 0.0
N12 N 0.35624 0.17682 0.38473 0.0
C13 C 0.35871 0.14696 0.38752 0.0
C14 C 0.38482 0.16427 0.38102 0.0
C15 C 0.37269 0.18777 0.38068 0.0
C16 C 0.3796 0.05207 0.35994 0.0
O17 O 0.38344 0.03269 0.37297 0.0
H18 H 0.34816 0.13118 0.39097 0.0
H19 H 0.399 0.16556 0.37791 0.0
O20 O 0.37519 0.08147 0.40893 0.0
H21 H 0.44817 0.12377 0.40669 0.0
H22 H 0.37569 0.21092 0.37715 0.0
Cu23 Cu 0.65568 0.90627 0.38352 0.0
N24 N 0.63068 0.90294 0.38495 0.0
N25 N 0.60153 0.91513 0.38408 0.0
C26 C 0.61845 0.9238 0.37997 0.0
C27 C 0.60321 0.88764 0.39182 0.0
C28 C 0.62119 0.88026 0.3924 0.0
O29 O 0.66192 0.92719 0.36096 0.0
C30 C 0.65633 0.94511 0.41495 0.0
O31 O 0.64223 0.95786 0.40739 0.0
H32 H 0.62194 0.94516 0.37378 0.0
H33 H 0.62699 0.86016 0.39833 0.0
N34 N 0.66595 0.86795 0.38168 0.0
N35 N 0.68671 0.8314 0.382 0.0
C36 C 0.68288 0.8604 0.38634 0.0
C37 C 0.65879 0.84301 0.37409 0.0
C38 C 0.67152 0.82041 0.37433 0.0
C39 C 0.66039 0.9552 0.35753 0.0
O40 O 0.65515 0.97376 0.37057 0.0
H41 H 0.69221 0.87609 0.39259 0.0
H42 H 0.64543 0.84162 0.3683 0.0
O43 O 0.66457 0.92434 0.40624 0.0
H44 H 0.59231 0.87436 0.39737 0.0
H45 H 0.66987 0.79798 0.36866 0.0
Cu46 Cu 0.38734 0.9065 0.14471 0.0
N47 N 0.4124 0.90355 0.1451 0.0
N48 N 0.44132 0.91728 0.14658 0.0
C49 C 0.42412 0.92522 0.15015 0.0
C50 C 0.44029 0.88948 0.13901 0.0
C51 C 0.42248 0.88119 0.13801 0.0
O52 O 0.37972 0.92775 0.1668 0.0
C53 C 0.36627 0.93257 0.11479 0.0
O54 O 0.35195 0.93056 0.12522 0.0
H55 H 0.42004 0.9467 0.15586 0.0
H56 H 0.4172 0.86088 0.13175 0.0
N57 N 0.37715 0.8679 0.14587 0.0
N58 N 0.35672 0.83076 0.14612 0.0
C59 C 0.36009 0.85993 0.14192 0.0
C60 C 0.38479 0.843 0.15294 0.0
C61 C 0.37231 0.82008 0.15301 0.0
C62 C 0.38146 0.95566 0.17053 0.0
O63 O 0.38755 0.97409 0.15789 0.0
H64 H 0.35025 0.87539 0.13644 0.0
H65 H 0.39829 0.8419 0.15838 0.0
O66 O 0.38154 0.92509 0.12121 0.0
H67 H 0.45149 0.87663 0.13366 0.0
H68 H 0.37437 0.7977 0.15852 0.0
Cu69 Cu 0.65626 0.10397 0.14324 0.0
N70 N 0.63129 0.10686 0.14114 0.0
N71 N 0.60218 0.09436 0.14186 0.0
C72 C 0.61903 0.08674 0.14702 0.0
C73 C 0.60397 0.12041 0.13247 0.0
C74 C 0.62192 0.12797 0.13199 0.0
O75 O 0.662 0.08358 0.16612 0.0
C76 C 0.65721 0.06496 0.11209 0.0
O77 O 0.64287 0.05283 0.1195 0.0
H78 H 0.62248 0.0666 0.1546 0.0
H79 H 0.62781 0.14702 0.12497 0.0
N80 N 0.66628 0.14247 0.145 0.0
N81 N 0.68684 0.17932 0.14523 0.0
C82 C 0.68346 0.14995 0.14146 0.0
C83 C 0.65847 0.16785 0.15126 0.0
C84 C 0.67108 0.19063 0.15136 0.0
C85 C 0.66129 0.05544 0.16941 0.0
O86 O 0.65737 0.03652 0.15608 0.0
H87 H 0.69327 0.134 0.13635 0.0
H88 H 0.6447 0.16948 0.15587 0.0
O89 O 0.66563 0.08546 0.12087 0.0
H90 H 0.59319 0.13251 0.12576 0.0
H91 H 0.6689 0.21346 0.15617 0.0
Cu92 Cu 0.65659 0.9105 0.64288 0.0
N93 N 0.63175 0.90605 0.64074 0.0
N94 N 0.60246 0.91739 0.64093 0.0
C95 C 0.61926 0.92696 0.64492 0.0
C96 C 0.60454 0.88925 0.63405 0.0
C97 C 0.62261 0.88238 0.63391 0.0
O98 O 0.66086 0.93771 0.6635 0.0
C99 C 0.65861 0.94734 0.61123 0.0
O100 O 0.64641 0.96344 0.61984 0.0
H101 H 0.62251 0.94885 0.65066 0.0
H102 H 0.6287 0.86181 0.62886 0.0
N103 N 0.66706 0.8731 0.64792 0.0
N104 N 0.68731 0.83592 0.65002 0.0
C105 C 0.68361 0.86357 0.64316 0.0
C106 C 0.65998 0.85076 0.65802 0.0
C107 C 0.6724 0.82781 0.65934 0.0
C108 C 0.67513 0.93748 0.67314 0.0
O109 O 0.68869 0.92052 0.66795 0.0
H110 H 0.69296 0.87716 0.63539 0.0
H111 H 0.64679 0.85135 0.66424 0.0
O112 O 0.66557 0.92481 0.61938 0.0
H113 H 0.59384 0.87498 0.62894 0.0
H114 H 0.67056 0.80683 0.66665 0.0
Cu115 Cu 0.38448 0.09652 0.6453 0.0
N116 N 0.40943 0.09947 0.64276 0.0
N117 N 0.43857 0.08705 0.64269 0.0
C118 C 0.4219 0.07951 0.64843 0.0
C119 C 0.43645 0.11292 0.63319 0.0
C120 C 0.41849 0.12042 0.6332 0.0
O121 O 0.3789 0.07674 0.66845 0.0
C122 C 0.38321 0.05833 0.61366 0.0
O123 O 0.39813 0.04687 0.62029 0.0
H124 H 0.41874 0.05946 0.65619 0.0
H125 H 0.41235 0.13924 0.62615 0.0
N126 N 0.37448 0.13507 0.64688 0.0
N127 N 0.35387 0.17187 0.64713 0.0
C128 C 0.35719 0.14237 0.6437 0.0
C129 C 0.38241 0.1607 0.65257 0.0
C130 C 0.36977 0.18345 0.65266 0.0
C131 C 0.38119 0.04915 0.67259 0.0
O132 O 0.38677 0.0301 0.65997 0.0
H133 H 0.34726 0.12621 0.63908 0.0
H134 H 0.39631 0.16256 0.65677 0.0
O135 O 0.37466 0.07782 0.62314 0.0
H136 H 0.44699 0.12486 0.62601 0.0
H137 H 0.37204 0.20648 0.65707 0.0
Cu138 Cu 0.65713 0.10024 0.88374 0.0
N139 N 0.63206 0.10376 0.8846 0.0
N140 N 0.60275 0.09268 0.88296 0.0
C141 C 0.61959 0.08432 0.87817 0.0
C142 C 0.60478 0.11851 0.89265 0.0
C143 C 0.62282 0.12518 0.89367 0.0
O144 O 0.66438 0.07774 0.86195 0.0
C145 C 0.65654 0.06404 0.91594 0.0
O146 O 0.64222 0.05199 0.90835 0.0
H147 H 0.62283 0.06412 0.87052 0.0
H148 H 0.62886 0.14378 0.90109 0.0
N149 N 0.66726 0.13858 0.88143 0.0
N150 N 0.68766 0.17569 0.881 0.0
C151 C 0.68431 0.14656 0.88533 0.0
C152 C 0.65953 0.16336 0.87434 0.0
C153 C 0.67203 0.18629 0.87411 0.0
C154 C 0.66107 0.05021 0.85829 0.0
O155 O 0.65289 0.03341 0.87052 0.0
H156 H 0.69405 0.13115 0.8911 0.0
H157 H 0.64588 0.16447 0.86929 0.0
O158 O 0.66548 0.08359 0.90701 0.0
H159 H 0.59409 0.13098 0.89928 0.0
H160 H 0.66988 0.20871 0.86871 0.0
Cu161 Cu 0.38664 0.90924 0.88809 0.0
N162 N 0.41167 0.90634 0.88712 0.0
N163 N 0.44048 0.92004 0.88441 0.0
C164 C 0.42315 0.92815 0.88186 0.0
C165 C 0.43981 0.89199 0.89155 0.0
C166 C 0.42205 0.88371 0.89331 0.0
O167 O 0.37883 0.93044 0.86615 0.0
C168 C 0.36603 0.93558 0.91822 0.0
O169 O 0.35166 0.93388 0.90779 0.0
H170 H 0.41885 0.94976 0.8766 0.0
H171 H 0.41706 0.86307 0.89931 0.0
N172 N 0.37637 0.87068 0.88688 0.0
N173 N 0.3558 0.83381 0.88665 0.0
C174 C 0.35946 0.8627 0.89139 0.0
C175 C 0.38362 0.84603 0.879 0.0
C176 C 0.37103 0.82326 0.87891 0.0
C177 C 0.38027 0.95843 0.86264 0.0
O178 O 0.38587 0.97705 0.8755 0.0
H179 H 0.34974 0.87815 0.89716 0.0
H180 H 0.39692 0.845 0.87309 0.0
O181 O 0.38121 0.92785 0.91173 0.0
H182 H 0.45128 0.87889 0.89598 0.0
H183 H 0.37288 0.80086 0.87326 0.0
Cu184 Cu 0.88769 0.60304 0.38528 0.0
N185 N 0.91274 0.60647 0.3846 0.0
N186 N 0.94171 0.59312 0.38351 0.0
C187 C 0.92451 0.58388 0.3816 0.0
C188 C 0.9407 0.62266 0.38793 0.0
C189 C 0.92284 0.63074 0.38876 0.0
O190 O 0.88003 0.58189 0.36316 0.0
C191 C 0.86717 0.57592 0.41522 0.0
O192 O 0.85274 0.57724 0.40485 0.0
H193 H 0.92053 0.561 0.37839 0.0
H194 H 0.91762 0.65252 0.39282 0.0
N195 N 0.87705 0.64133 0.38429 0.0
N196 N 0.85621 0.67777 0.38498 0.0
C197 C 0.86034 0.64911 0.38968 0.0
C198 C 0.88361 0.66583 0.37574 0.0
C199 C 0.87089 0.68837 0.37628 0.0
C200 C 0.88194 0.55409 0.35922 0.0
O201 O 0.88824 0.5355 0.37168 0.0
H202 H 0.85122 0.63383 0.39646 0.0
H203 H 0.89642 0.6668 0.36879 0.0
O204 O 0.88226 0.58413 0.40874 0.0
H205 H 0.95202 0.63706 0.39114 0.0
H206 H 0.87201 0.7103 0.36988 0.0
Cu207 Cu 0.15918 0.41581 0.38537 0.0
N208 N 0.13434 0.41035 0.38648 0.0
N209 N 0.10492 0.42094 0.38605 0.0
C210 C 0.12178 0.43186 0.38411 0.0
C211 C 0.10711 0.39128 0.38974 0.0
C212 C 0.12523 0.38487 0.39002 0.0
O213 O 0.16367 0.44481 0.36594 0.0
C214 C 0.16104 0.45105 0.41797 0.0
O215 O 0.14974 0.46879 0.40931 0.0
H216 H 0.12509 0.45515 0.38135 0.0
H217 H 0.13135 0.36319 0.39268 0.0
N218 N 0.17034 0.37942 0.37918 0.0
N219 N 0.19099 0.34291 0.37701 0.0
C220 C 0.18656 0.36962 0.38482 0.0
C221 C 0.16428 0.35831 0.3674 0.0
C222 C 0.17694 0.33572 0.36608 0.0
C223 C 0.17853 0.44685 0.35742 0.0
O224 O 0.1924 0.43119 0.3632 0.0
H225 H 0.19495 0.382 0.39437 0.0
H226 H 0.15168 0.35957 0.36004 0.0
O227 O 0.16745 0.42824 0.40959 0.0
H228 H 0.09645 0.37516 0.39198 0.0
H229 H 0.17609 0.31601 0.3573 0.0
Cu230 Cu 0.88542 0.41298 0.14243 0.0
N231 N 0.91042 0.4102 0.14067 0.0
N232 N 0.93959 0.42236 0.14177 0.0
C233 C 0.92273 0.43006 0.14691 0.0
C234 C 0.9377 0.39657 0.13201 0.0
C235 C 0.91975 0.38922 0.13131 0.0
O236 O 0.87928 0.43301 0.1654 0.0
C237 C 0.88484 0.45158 0.1112 0.0
O238 O 0.8991 0.46383 0.1188 0.0
H239 H 0.91931 0.45007 0.1547 0.0
H240 H 0.91381 0.37043 0.12399 0.0
N241 N 0.87557 0.37434 0.14391 0.0
N242 N 0.85515 0.33725 0.14419 0.0
C243 C 0.85843 0.36657 0.14029 0.0
C244 C 0.88345 0.34923 0.15036 0.0
C245 C 0.87094 0.32632 0.1505 0.0
C246 C 0.88009 0.46098 0.16924 0.0
O247 O 0.88447 0.48034 0.15638 0.0
H248 H 0.84856 0.38232 0.13512 0.0
H249 H 0.89718 0.34792 0.15516 0.0
O250 O 0.87628 0.4313 0.11992 0.0
H251 H 0.94842 0.38451 0.12515 0.0
H252 H 0.87319 0.30369 0.15552 0.0
Cu253 Cu 0.15774 0.59725 0.14507 0.0
N254 N 0.13294 0.60217 0.14264 0.0
N255 N 0.10361 0.59121 0.14261 0.0
C256 C 0.12032 0.58161 0.14692 0.0
C257 C 0.10587 0.61903 0.13545 0.0
C258 C 0.12397 0.62567 0.13544 0.0
O259 O 0.16172 0.57091 0.16596 0.0
C260 C 0.15935 0.56109 0.11282 0.0
O261 O 0.14566 0.54696 0.12022 0.0
H262 H 0.12341 0.5599 0.15289 0.0
H263 H 0.13021 0.64591 0.13018 0.0
N264 N 0.16859 0.63445 0.14983 0.0
N265 N 0.18928 0.67098 0.15122 0.0
C266 C 0.18545 0.6427 0.14542 0.0
C267 C 0.16148 0.65824 0.15874 0.0
C268 C 0.17418 0.68084 0.15957 0.0
C269 C 0.17682 0.56755 0.1739 0.0
O270 O 0.19118 0.5801 0.16679 0.0
H271 H 0.19469 0.62819 0.13806 0.0
H272 H 0.14806 0.65894 0.1644 0.0
O273 O 0.16711 0.58196 0.12189 0.0
H274 H 0.09528 0.63316 0.13002 0.0
H275 H 0.17254 0.70255 0.16622 0.0
Cu276 Cu 0.15532 0.40558 0.64614 0.0
N277 N 0.13025 0.40327 0.64506 0.0
N278 N 0.10128 0.4165 0.64686 0.0
C279 C 0.11837 0.42379 0.65135 0.0
C280 C 0.10253 0.3902 0.63751 0.0
C281 C 0.12039 0.38219 0.63638 0.0
O282 O 0.16217 0.42688 0.66847 0.0
C283 C 0.15572 0.44326 0.61444 0.0
O284 O 0.14157 0.45597 0.62193 0.0
H285 H 0.12226 0.44399 0.65871 0.0
H286 H 0.12587 0.36285 0.62921 0.0
N287 N 0.1651 0.36694 0.64807 0.0
N288 N 0.18549 0.32977 0.6484 0.0
C289 C 0.18211 0.35891 0.64409 0.0
C290 C 0.15738 0.34219 0.65516 0.0
C291 C 0.16988 0.31923 0.65534 0.0
C292 C 0.16056 0.45495 0.67176 0.0
O293 O 0.15495 0.47304 0.65871 0.0
H294 H 0.19183 0.37437 0.63836 0.0
H295 H 0.14379 0.34117 0.66034 0.0
O296 O 0.16412 0.42287 0.62326 0.0
H297 H 0.09144 0.37825 0.6312 0.0
H298 H 0.16774 0.29685 0.66081 0.0
Cu299 Cu 0.88669 0.60319 0.64323 0.0
N300 N 0.91172 0.60636 0.64426 0.0
N301 N 0.94068 0.59362 0.64725 0.0
C302 C 0.92344 0.58549 0.65039 0.0
C303 C 0.93967 0.62066 0.63882 0.0
C304 C 0.92184 0.62832 0.6369 0.0
O305 O 0.87881 0.58108 0.66478 0.0
C306 C 0.86634 0.57827 0.61232 0.0
O307 O 0.85171 0.58027 0.6223 0.0
H308 H 0.91937 0.56446 0.65661 0.0
H309 H 0.9166 0.64795 0.62993 0.0
N310 N 0.8764 0.64171 0.64488 0.0
N311 N 0.85595 0.67874 0.64608 0.0
C312 C 0.85921 0.64964 0.64152 0.0
C313 C 0.88423 0.66661 0.65184 0.0
C314 C 0.87172 0.68947 0.65252 0.0
C315 C 0.88018 0.55294 0.66782 0.0
O316 O 0.88599 0.53493 0.65474 0.0
H317 H 0.84909 0.63404 0.63669 0.0
H318 H 0.89793 0.66782 0.65672 0.0
O319 O 0.88144 0.58534 0.61933 0.0
H320 H 0.95094 0.63337 0.63357 0.0
H321 H 0.87402 0.71209 0.65765 0.0
Cu322 Cu 0.1559 0.60535 0.88651 0.0
N323 N 0.13098 0.60811 0.88915 0.0
N324 N 0.10189 0.59541 0.88915 0.0
C325 C 0.11866 0.58754 0.88388 0.0
C326 C 0.10379 0.62212 0.89794 0.0
C327 C 0.12173 0.62981 0.89796 0.0
O328 O 0.16112 0.5852 0.86337 0.0
C329 C 0.15772 0.56638 0.91754 0.0
O330 O 0.143 0.55448 0.91071 0.0
H331 H 0.12203 0.56695 0.87664 0.0
H332 H 0.12769 0.64943 0.9044 0.0
N333 N 0.16581 0.64392 0.88479 0.0
N334 N 0.18617 0.68104 0.88476 0.0
C335 C 0.18271 0.65203 0.88923 0.0
C336 C 0.15828 0.66857 0.87729 0.0
C337 C 0.17079 0.69151 0.87727 0.0
C338 C 0.16109 0.55703 0.85999 0.0
O339 O 0.15829 0.53784 0.87338 0.0
H340 H 0.19247 0.63658 0.89495 0.0
H341 H 0.14478 0.66955 0.87182 0.0
O342 O 0.16592 0.58666 0.90847 0.0
H343 H 0.0931 0.63467 0.90453 0.0
H344 H 0.16874 0.71406 0.87201 0.0
Cu345 Cu 0.88601 0.41029 0.88403 0.0
N346 N 0.911 0.4075 0.88624 0.0
N347 N 0.94009 0.42025 0.88627 0.0
C348 C 0.9233 0.42806 0.88102 0.0
C349 C 0.93824 0.39361 0.895 0.0
C350 C 0.92031 0.3859 0.89503 0.0
O351 O 0.88004 0.43008 0.86095 0.0
C352 C 0.88471 0.44991 0.915 0.0
O353 O 0.89883 0.46256 0.90746 0.0
H354 H 0.91993 0.44868 0.87391 0.0
H355 H 0.91438 0.36643 0.90156 0.0
N356 N 0.8761 0.37166 0.88248 0.0
N357 N 0.85564 0.33463 0.88236 0.0
C358 C 0.85899 0.36398 0.88624 0.0
C359 C 0.88388 0.34645 0.87595 0.0
C360 C 0.87134 0.32357 0.87592 0.0
C361 C 0.88208 0.45773 0.8568 0.0
O362 O 0.88769 0.47687 0.86938 0.0
H363 H 0.84919 0.37981 0.89151 0.0
H364 H 0.89756 0.34503 0.87104 0.0
O365 O 0.87656 0.42895 0.90635 0.0
H366 H 0.94895 0.38124 0.90165 0.0
H367 H 0.8735 0.30087 0.87087 0.0
H368 H 0.39875 0.02127 0.44198 0.0
H369 H 0.39358 0.01678 0.47494 0.0
H370 H 0.35207 0.08446 0.47182 0.0
H371 H 0.35731 0.08935 0.43877 0.0
H372 H 0.37522 0.09739 0.49866 0.0
H373 H 0.34189 0.01028 0.48088 0.0
H374 H 0.33617 0.96203 0.46498 0.0
H375 H 0.3797 0.92085 0.4944 0.0
H376 H 0.38586 0.96899 0.5103 0.0
H377 H 0.35634 0.08502 0.59356 0.0
H378 H 0.35146 0.08138 0.56038 0.0
H379 H 0.39429 0.01622 0.55622 0.0
H380 H 0.39913 0.01944 0.58936 0.0
H381 H 0.36681 1.00203 0.53306 0.0
H382 H 0.40214 0.09008 0.5479 0.0
H383 H 0.40839 0.13823 0.56372 0.0
H384 H 0.3613 0.17745 0.53944 0.0
H385 H 0.35464 0.12934 0.52366 0.0
C386 C 0.38829 0.03486 0.4482 0.0
C387 C 0.37849 0.05574 0.43767 0.0
C388 C 0.3853 0.03217 0.4671 0.0
C389 C 0.37237 0.05017 0.47593 0.0
C390 C 0.36213 0.07032 0.46535 0.0
C391 C 0.36508 0.07298 0.44641 0.0
C392 C 0.37057 0.04956 0.49633 0.0
C393 C 0.37298 0.07661 0.50614 0.0
C394 C 0.36808 0.02237 0.50619 0.0
C395 C 0.36442 0.99334 0.49668 0.0
C396 C 0.35033 0.99101 0.48385 0.0
C397 C 0.347 0.96366 0.47486 0.0
C398 C 0.35759 0.9384 0.47865 0.0
C399 C 0.37152 0.94043 0.49147 0.0
C400 C 0.37492 0.96774 0.5005 0.0
C401 C 0.36451 0.06948 0.58566 0.0
C402 C 0.37826 0.05273 0.59415 0.0
C403 C 0.36176 0.06754 0.56665 0.0
C404 C 0.37271 0.04891 0.55573 0.0
C405 C 0.3857 0.03083 0.56432 0.0
C406 C 0.38848 0.03276 0.58331 0.0
C407 C 0.37158 0.04979 0.53529 0.0
C408 C 0.36874 0.02283 0.52552 0.0
C409 C 0.37372 0.07704 0.52542 0.0
C410 C 0.37777 0.10603 0.53478 0.0
C411 C 0.39304 0.1089 0.54605 0.0
C412 C 0.39667 0.1362 0.55499 0.0
C413 C 0.38522 0.16086 0.55263 0.0
C414 C 0.37014 0.15831 0.54128 0.0
C415 C 0.36643 0.13104 0.53233 0.0
H416 H 0.38805 0.18197 0.55957 0.0
H417 H 0.35498 0.91725 0.47167 0.0
H418 H 0.67974 0.91393 0.58793 0.0
H419 H 0.6824 0.91903 0.55462 0.0
H420 H 0.64824 0.99761 0.55626 0.0
H421 H 0.64527 0.99237 0.58951 0.0
H422 H 0.63693 0.95936 0.53086 0.0
H423 H 0.69385 1.00258 0.54675 0.0
H424 H 0.72347 1.00472 0.56188 0.0
H425 H 0.73998 0.92504 0.53272 0.0
H426 H 0.71036 0.92218 0.5176 0.0
H427 H 0.64362 0.9909 0.43661 0.0
H428 H 0.64733 0.9969 0.46978 0.0
H429 H 0.68182 0.91872 0.47098 0.0
H430 H 0.67861 0.91312 0.43771 0.0
H431 H 0.69352 0.95965 0.49496 0.0
H432 H 0.63638 0.91397 0.4811 0.0
H433 H 0.60674 0.91055 0.46608 0.0
H434 H 0.59066 0.99362 0.49176 0.0
H435 H 0.62032 0.99771 0.50678 0.0
C436 C 0.67302 0.9326 0.58126 0.0
C437 C 0.66224 0.95268 0.59143 0.0
C438 C 0.6746 0.93555 0.56218 0.0
C439 C 0.66559 0.95881 0.55287 0.0
C440 C 0.6553 0.97946 0.56309 0.0
C441 C 0.65367 0.97648 0.58215 0.0
C442 C 0.66582 0.96035 0.53242 0.0
C443 C 0.64932 0.96001 0.52305 0.0
C444 C 0.68197 0.96031 0.52214 0.0
C445 C 0.69982 0.96203 0.53116 0.0
C446 C 0.70374 0.98538 0.54367 0.0
C447 C 0.72055 0.98675 0.55222 0.0
C448 C 0.73358 0.96499 0.54829 0.0
C449 C 0.72986 0.94186 0.53576 0.0
C450 C 0.71307 0.94038 0.52718 0.0
C451 C 0.65224 0.97526 0.44388 0.0
C452 C 0.66067 0.95134 0.43451 0.0
C453 C 0.65427 0.97863 0.46288 0.0
C454 C 0.66451 0.95783 0.473 0.0
C455 C 0.67377 0.93497 0.46353 0.0
C456 C 0.67191 0.93177 0.44448 0.0
C457 C 0.66464 0.95874 0.49347 0.0
C458 C 0.68116 0.95934 0.50282 0.0
C459 C 0.64851 0.95885 0.50379 0.0
C460 C 0.63062 0.95628 0.49492 0.0
C461 C 0.62656 0.93159 0.48346 0.0
C462 C 0.60976 0.92953 0.47496 0.0
C463 C 0.59684 0.95189 0.47794 0.0
C464 C 0.60069 0.97633 0.48946 0.0
C465 C 0.61749 0.97852 0.49798 0.0
H466 H 0.58384 0.95022 0.47138 0.0
H467 H 0.74658 0.96608 0.55493 0.0
H468 H 0.39336 0.93895 0.08979 0.0
H469 H 0.39083 0.94629 0.05674 0.0
H470 H 0.33315 0.95057 0.06144 0.0
H471 H 0.33556 0.94268 0.09468 0.0
H472 H 0.34279 0.91365 0.03401 0.0
H473 H 0.35819 0.01423 0.05179 0.0
H474 H 0.37568 0.05373 0.06766 0.0
H475 H 0.42283 0.02795 0.03754 0.0
H476 H 0.40568 0.98803 0.02164 0.0
H477 H 0.33542 0.94578 0.93846 0.0
H478 H 0.33312 0.95234 0.97181 0.0
H479 H 0.39081 0.94755 0.97645 0.0
H480 H 0.39324 0.94151 0.94324 0.0
H481 H 0.37795 0.98946 0.99929 0.0
H482 H 0.36396 0.88589 0.98448 0.0
H483 H 0.34728 0.84519 0.96881 0.0
H484 H 0.29821 0.87568 0.99367 0.0
H485 H 0.31459 0.91686 1.00929 0.0
C486 C 0.38011 0.9418 0.08389 0.0
C487 C 0.36465 0.94022 0.09496 0.0
C488 C 0.37869 0.94615 0.06493 0.0
C489 C 0.3618 0.94931 0.05654 0.0
C490 C 0.34634 0.94827 0.06758 0.0
C491 C 0.34774 0.9439 0.08661 0.0
C492 C 0.3604 0.95206 0.03616 0.0
C493 C 0.35017 0.93067 0.02645 0.0
C494 C 0.37033 0.97381 0.0262 0.0
C495 C 0.38066 0.99799 0.03561 0.0
C496 C 0.37231 0.01686 0.04863 0.0
C497 C 0.38217 0.03934 0.05762 0.0
C498 C 0.40036 0.04331 0.05363 0.0
C499 C 0.40874 0.02485 0.04061 0.0
C500 C 0.39895 1.00232 0.03158 0.0
C501 C 0.34763 0.94653 0.94654 0.0
C502 C 0.36451 0.94289 0.93813 0.0
C503 C 0.34629 0.95013 0.96565 0.0
C504 C 0.36178 0.94999 0.97673 0.0
C505 C 0.37865 0.94768 0.96825 0.0
C506 C 0.38001 0.94412 0.94921 0.0
C507 C 0.36055 0.95082 0.99717 0.0
C508 C 0.37033 0.97279 1.00688 0.0
C509 C 0.35029 0.92951 1.00714 0.0
C510 C 0.34046 0.90466 0.99787 0.0
C511 C 0.34959 0.88405 0.98649 0.0
C512 C 0.3402 0.86088 0.97763 0.0
C513 C 0.32169 0.85791 0.98019 0.0
C514 C 0.31254 0.87805 0.99166 0.0
C515 C 0.32187 0.9013 1.00053 0.0
H516 H 0.31443 0.83996 0.97332 0.0
H517 H 0.40797 0.06072 0.06062 0.0
H518 H 0.68126 0.09249 0.93804 0.0
H519 H 0.68464 0.08772 0.97132 0.0
H520 H 0.64416 0.01812 0.97179 0.0
H521 H 0.64048 0.02313 0.93861 0.0
H522 H 0.63685 0.05964 0.9967 0.0
H523 H 0.68939 1.00296 0.98003 0.0
H524 H 0.71825 0.99392 0.96437 0.0
H525 H 0.74157 0.06956 0.99264 0.0
H526 H 0.71277 0.0793 1.00831 0.0
H527 H 0.64245 0.02193 0.08973 0.0
H528 H 0.64585 0.01691 0.0565 0.0
H529 H 0.68457 0.08924 0.05661 0.0
H530 H 0.68147 0.09411 0.08998 0.0
H531 H 0.69353 0.04565 0.03155 0.0
H532 H 0.64132 0.10385 0.04698 0.0
H533 H 0.61262 0.11417 0.06266 0.0
H534 H 0.58879 0.03719 0.03624 0.0
H535 H 0.61745 0.02614 0.02061 0.0
C536 C 0.67329 0.07579 0.94517 0.0
C537 C 0.66053 0.05828 0.93563 0.0
C538 C 0.67528 0.07302 0.96423 0.0
C539 C 0.66469 0.05248 0.97413 0.0
C540 C 0.65245 0.0342 0.9645 0.0
C541 C 0.6504 0.03703 0.94549 0.0
C542 C 0.66532 0.05159 0.99459 0.0
C543 C 0.64922 0.05601 1.00427 0.0
C544 C 0.68152 0.04791 1.00456 0.0
C545 C 0.69887 0.04202 0.99522 0.0
C546 C 0.70063 0.01781 0.98281 0.0
C547 C 0.71699 0.01253 0.97395 0.0
C548 C 0.73173 0.03119 0.97747 0.0
C549 C 0.73015 0.05513 0.98991 0.0
C550 C 0.71381 0.06052 0.9988 0.0
C551 C 0.65193 0.03645 0.08277 0.0
C552 C 0.66153 0.05867 0.09252 0.0
C553 C 0.65382 0.03361 0.06373 0.0
C554 C 0.66518 0.05312 0.05399 0.0
C555 C 0.67565 0.07403 0.06381 0.0
C556 C 0.67384 0.0768 0.08291 0.0
C557 C 0.66504 0.05324 0.03353 0.0
C558 C 0.68118 0.04896 0.0239 0.0
C559 C 0.64889 0.05724 0.02353 0.0
C560 C 0.63159 0.06399 0.03277 0.0
C561 C 0.63 0.089 0.04462 0.0
C562 C 0.61374 0.09499 0.05349 0.0
C563 C 0.59891 0.0763 0.05049 0.0
C564 C 0.6003 0.05162 0.03857 0.0
C565 C 0.61655 0.04549 0.0297 0.0
H566 H 0.58632 0.08098 0.05737 0.0
H567 H 0.74438 0.02707 0.9706 0.0
H568 H 0.83628 0.56747 0.59121 0.0
H569 H 0.83479 0.56185 0.55771 0.0
H570 H 0.8925 0.56835 0.55467 0.0
H571 H 0.89411 0.57407 0.58794 0.0
H572 H 0.87655 0.60658 0.53115 0.0
H573 H 0.87103 0.50174 0.54701 0.0
H574 H 0.85769 0.45778 0.56252 0.0
H575 H 0.80739 0.47432 0.53545 0.0
H576 H 0.82038 0.51867 0.51996 0.0
H577 H 0.89459 0.56967 0.43986 0.0
H578 H 0.8925 0.56503 0.47314 0.0
H579 H 0.83474 0.56229 0.46941 0.0
H580 H 0.83668 0.56676 0.43586 0.0
H581 H 0.84829 0.52281 0.49615 0.0
H582 H 0.85379 0.62685 0.47992 0.0
H583 H 0.86703 0.67071 0.46421 0.0
H584 H 0.91701 0.65607 0.49229 0.0
H585 H 0.90415 0.6118 0.50796 0.0
C586 C 0.84867 0.56727 0.58344 0.0
C587 C 0.8653 0.57138 0.59232 0.0
C588 C 0.8478 0.564 0.56427 0.0
C589 C 0.86354 0.56469 0.55363 0.0
C590 C 0.88016 0.56787 0.56255 0.0
C591 C 0.88105 0.57106 0.58163 0.0
C592 C 0.8628 0.56397 0.53318 0.0
C593 C 0.87055 0.58805 0.52353 0.0
C594 C 0.85446 0.54033 0.52318 0.0
C595 C 0.84662 0.51373 0.53249 0.0
C596 C 0.85708 0.49618 0.5445 0.0
C597 C 0.84959 0.47115 0.55326 0.0
C598 C 0.83168 0.46332 0.55002 0.0
C599 C 0.82125 0.48045 0.53798 0.0
C600 C 0.82867 0.50552 0.52919 0.0
C601 C 0.88141 0.5677 0.44602 0.0
C602 C 0.86578 0.56893 0.43514 0.0
C603 C 0.88025 0.5651 0.4651 0.0
C604 C 0.86346 0.56384 0.47382 0.0
C605 C 0.84784 0.56335 0.46298 0.0
C606 C 0.84898 0.56594 0.4438 0.0
C607 C 0.86239 0.56508 0.49423 0.0
C608 C 0.85423 0.54132 0.50383 0.0
C609 C 0.87031 0.58907 0.50427 0.0
C610 C 0.87805 0.61584 0.49499 0.0
C611 C 0.86765 0.63284 0.48264 0.0
C612 C 0.87507 0.6578 0.47376 0.0
C613 C 0.89286 0.66613 0.47722 0.0
C614 C 0.90324 0.64957 0.48961 0.0
C615 C 0.89588 0.62455 0.49851 0.0
H616 H 0.89858 0.68546 0.47033 0.0
H617 H 0.82591 0.44393 0.55681 0.0
H618 H 0.178 0.41102 0.59172 0.0
H619 H 0.18176 0.41695 0.55861 0.0
H620 H 0.14723 0.49514 0.55972 0.0
H621 H 0.14296 0.48873 0.59276 0.0
H622 H 0.13701 0.45937 0.53355 0.0
H623 H 0.19427 0.49903 0.5519 0.0
H624 H 0.22345 0.49902 0.56797 0.0
H625 H 0.23925 0.41935 0.53839 0.0
H626 H 0.21008 0.41866 0.52231 0.0
H627 H 0.14877 0.49643 0.44029 0.0
H628 H 0.15096 0.49972 0.47373 0.0
H629 H 0.18225 0.41784 0.47458 0.0
H630 H 0.18039 0.41464 0.44108 0.0
H631 H 0.19475 0.45784 0.49964 0.0
H632 H 0.13733 0.41626 0.48294 0.0
H633 H 0.10816 0.41516 0.46687 0.0
H634 H 0.09271 0.49763 0.49364 0.0
H635 H 0.12192 0.49945 0.50969 0.0
C636 C 0.17145 0.42981 0.58499 0.0
C637 C 0.16013 0.44937 0.59491 0.0
C638 C 0.17367 0.43324 0.56601 0.0
C639 C 0.16489 0.45665 0.55658 0.0
C640 C 0.15412 0.47685 0.56662 0.0
C641 C 0.15174 0.47323 0.58555 0.0
C642 C 0.16585 0.45878 0.53615 0.0
C643 C 0.14968 0.45965 0.5262 0.0
C644 C 0.18233 0.4582 0.52642 0.0
C645 C 0.19992 0.45866 0.53601 0.0
C646 C 0.20392 0.48139 0.54891 0.0
C647 C 0.22047 0.48153 0.55801 0.0
C648 C 0.23318 0.45916 0.55423 0.0
C649 C 0.22939 0.43665 0.54131 0.0
C650 C 0.21286 0.4364 0.53219 0.0
C651 C 0.15633 0.47932 0.44754 0.0
C652 C 0.16426 0.45511 0.43798 0.0
C653 C 0.15751 0.48118 0.46669 0.0
C654 C 0.16649 0.45873 0.47673 0.0
C655 C 0.17519 0.43538 0.46716 0.0
C656 C 0.17408 0.43355 0.44798 0.0
C657 C 0.16595 0.45864 0.49718 0.0
C658 C 0.18214 0.45794 0.50708 0.0
C659 C 0.14949 0.45929 0.50691 0.0
C660 C 0.13188 0.45815 0.49737 0.0
C661 C 0.12777 0.43428 0.4853 0.0
C662 C 0.11122 0.43351 0.47621 0.0
C663 C 0.09861 0.45635 0.4792 0.0
C664 C 0.10251 0.47998 0.49132 0.0
C665 C 0.11905 0.48088 0.50043 0.0
H666 H 0.08581 0.45567 0.47217 0.0
H667 H 0.24598 0.4593 0.56129 0.0
H668 H 0.89825 0.49481 0.93683 0.0
H669 H 0.8948 0.5006 0.97002 0.0
H670 H 0.85858 0.42471 0.97094 0.0
H671 H 0.86164 0.41918 0.93762 0.0
H672 H 0.84808 0.46728 0.99538 0.0
H673 H 0.90312 0.41544 0.98093 0.0
H674 H 0.93229 0.40886 0.96539 0.0
H675 H 0.95185 0.49021 0.99058 0.0
H676 H 0.9227 0.49744 1.00614 0.0
H677 H 0.8612 0.42158 0.08864 0.0
H678 H 0.85802 0.4267 0.05538 0.0
H679 H 0.89606 0.50009 0.05587 0.0
H680 H 0.8996 0.49465 0.08906 0.0
H681 H 0.90504 0.46087 0.03059 0.0
H682 H 0.85013 0.51056 0.04698 0.0
H683 H 0.82085 0.51619 0.06241 0.0
H684 H 0.80087 0.43823 0.0338 0.0
H685 H 0.83012 0.43188 0.01837 0.0
C686 C 0.8893 0.47965 0.94402 0.0
C687 C 0.88038 0.45632 0.93455 0.0
C688 C 0.8874 0.48291 0.96304 0.0
C689 C 0.87674 0.46267 0.97308 0.0
C690 C 0.86695 0.44052 0.96353 0.0
C691 C 0.86874 0.43737 0.94445 0.0
C692 C 0.87684 0.46328 0.99356 0.0
C693 C 0.86051 0.46563 1.0031 0.0
C694 C 0.89307 0.4616 1.00368 0.0
C695 C 0.91069 0.45711 0.99456 0.0
C696 C 0.91361 0.432 0.98308 0.0
C697 C 0.93014 0.42815 0.97428 0.0
C698 C 0.9439 0.44913 0.97698 0.0
C699 C 0.94117 0.47399 0.98851 0.0
C700 C 0.92466 0.47795 0.99734 0.0
C701 C 0.86864 0.4392 0.08174 0.0
C702 C 0.88071 0.45764 0.09156 0.0
C703 C 0.86677 0.44216 0.06267 0.0
C704 C 0.87675 0.46388 0.05303 0.0
C705 C 0.88826 0.48309 0.06294 0.0
C706 C 0.89022 0.48002 0.08196 0.0
C707 C 0.87626 0.46511 0.03254 0.0
C708 C 0.89257 0.46287 0.02295 0.0
C709 C 0.86 0.46677 0.02244 0.0
C710 C 0.84238 0.4706 0.03164 0.0
C711 C 0.83954 0.49448 0.04408 0.0
C712 C 0.82294 0.49782 0.05281 0.0
C713 C 0.80902 0.47754 0.04912 0.0
C714 C 0.81167 0.45391 0.03665 0.0
C715 C 0.82825 0.45045 0.0279 0.0
H716 H 0.79618 0.48017 0.05589 0.0
H717 H 0.95669 0.44606 0.97019 0.0
H718 H 0.1855 0.58882 0.09243 0.0
H719 H 0.19007 0.58534 0.05922 0.0
H720 H 0.14768 0.51932 0.05537 0.0
H721 H 0.14322 0.52227 0.08857 0.0
H722 H 0.17474 0.50551 0.0321 0.0
H723 H 0.13947 0.59353 0.04692 0.0
H724 H 0.13316 0.64172 0.06269 0.0
H725 H 0.18012 0.68105 0.03836 0.0
H726 H 0.18683 0.63292 0.02264 0.0
H727 H 0.14254 0.52566 0.941 0.0
H728 H 0.14786 0.52061 0.97393 0.0
H729 H 0.18964 0.58781 0.97104 0.0
H730 H 0.18424 0.59329 0.93806 0.0
H731 H 0.16635 0.6009 0.99769 0.0
H732 H 0.19954 0.51349 0.97992 0.0
H733 H 0.20506 0.46518 0.96401 0.0
H734 H 0.16145 0.42445 0.99343 0.0
H735 H 0.15549 0.47265 1.00934 0.0
C736 C 0.17733 0.57319 0.08458 0.0
C737 C 0.16386 0.55605 0.09318 0.0
C738 C 0.17992 0.57132 0.06556 0.0
C739 C 0.169 0.55246 0.05473 0.0
C740 C 0.15623 0.5341 0.06341 0.0
C741 C 0.15367 0.53589 0.08243 0.0
C742 C 0.17 0.5533 0.03431 0.0
C743 C 0.1728 0.52632 0.02455 0.0
C744 C 0.16784 0.58055 0.02444 0.0
C745 C 0.16376 0.60954 0.03378 0.0
C746 C 0.14852 0.61239 0.04505 0.0
C747 C 0.14486 0.6397 0.05396 0.0
C748 C 0.15627 0.6644 0.05158 0.0
C749 C 0.17132 0.66187 0.04023 0.0
C750 C 0.17505 0.6346 0.03131 0.0
C751 C 0.15309 0.53901 0.94727 0.0
C752 C 0.1629 0.55998 0.93686 0.0
C753 C 0.15618 0.53599 0.96614 0.0
C754 C 0.16921 0.55374 0.97501 0.0
C755 C 0.1795 0.57388 0.96452 0.0
C756 C 0.17645 0.57688 0.94563 0.0
C757 C 0.17099 0.55306 0.99539 0.0
C758 C 0.16859 0.58011 1.00518 0.0
C759 C 0.17343 0.52585 1.00523 0.0
C760 C 0.17698 0.49678 0.99572 0.0
C761 C 0.19103 0.49431 0.98289 0.0
C762 C 0.19425 0.46692 0.9739 0.0
C763 C 0.18359 0.44178 0.97768 0.0
C764 C 0.16969 0.44395 0.99051 0.0
C765 C 0.1664 0.47129 0.99953 0.0
H766 H 0.18611 0.4206 0.9707 0.0
H767 H 0.15341 0.68552 0.05849 0.0
H768 H 0.59834 0.97609 0.38493 0.0
H769 H 0.57058 1.00544 0.38348 0.0
H770 H 0.53993 0.92336 0.37801 0.0
H771 H 0.56773 0.89383 0.37918 0.0
H772 H 0.528 0.96863 0.35457 0.0
H773 H 0.54173 0.95648 0.41851 0.0
H774 H 0.56105 0.95868 0.44598 0.0
H775 H 0.56648 0.05454 0.43973 0.0
H776 H 0.54735 0.05283 0.41202 0.0
H777 H 0.44218 0.02851 0.37991 0.0
H778 H 0.46985 0.99933 0.37671 0.0
H779 H 0.50105 0.07975 0.38658 0.0
H780 H 0.47347 0.10908 0.38966 0.0
H781 H 0.51278 0.03483 0.4074 0.0
H782 H 0.49816 0.04732 0.34385 0.0
H783 H 0.48 0.04471 0.31555 0.0
H784 H 0.47667 0.94839 0.32049 0.0
H785 H 0.49453 0.95045 0.34903 0.0
C786 C 0.58574 0.96427 0.38315 0.0
C787 C 0.58526 0.93257 0.38223 0.0
C788 C 0.56986 0.98108 0.38246 0.0
C789 C 0.55317 0.96657 0.38082 0.0
C790 C 0.55266 0.93501 0.37933 0.0
C791 C 0.56854 0.91816 0.38014 0.0
C792 C 0.53624 0.9843 0.38128 0.0
C793 C 0.52452 0.98282 0.3662 0.0
C794 C 0.53192 1.00328 0.39631 0.0
C795 C 0.54326 1.00448 0.41309 0.0
C796 C 0.54715 0.978 0.42291 0.0
C797 C 0.55806 0.97916 0.43854 0.0
C798 C 0.56505 0.00672 0.44458 0.0
C799 C 0.56108 0.0332 0.43502 0.0
C800 C 0.55019 0.03215 0.41936 0.0
C801 C 0.4549 0.04013 0.38109 0.0
C802 C 0.45553 0.0712 0.38514 0.0
C803 C 0.47075 0.02337 0.37927 0.0
C804 C 0.48757 0.03733 0.38134 0.0
C805 C 0.48824 0.06842 0.38502 0.0
C806 C 0.47243 0.08517 0.38685 0.0
C807 C 0.50446 0.01939 0.38059 0.0
C808 C 0.5162 0.02073 0.3957 0.0
C809 C 0.50875 1.0003 0.36557 0.0
C810 C 0.49755 0.99909 0.3487 0.0
C811 C 0.49337 0.02562 0.33905 0.0
C812 C 0.48316 0.02422 0.32293 0.0
C813 C 0.47719 0.9964 0.31624 0.0
C814 C 0.48131 0.96993 0.3257 0.0
C815 C 0.49146 0.9712 0.34185 0.0
H816 H 0.46941 0.99535 0.30368 0.0
H817 H 0.5735 0.00757 0.45668 0.0
H818 H 0.44326 0.97861 0.14783 0.0
H819 H 0.47037 0.00939 0.14934 0.0
H820 H 0.50288 0.92889 0.15059 0.0
H821 H 0.47577 0.89788 0.14976 0.0
H822 H 0.5158 0.97067 0.17402 0.0
H823 H 0.49697 0.96832 0.1108 0.0
H824 H 0.47564 0.97464 0.08515 0.0
H825 H 0.47044 0.06883 0.09808 0.0
H826 H 0.49156 0.06298 0.12398 0.0
H827 H 0.59918 0.03368 0.14594 0.0
H828 H 0.57153 1.00453 0.1489 0.0
H829 H 0.54046 0.08656 0.14633 0.0
H830 H 0.56811 0.11587 0.14333 0.0
H831 H 0.52643 0.04496 0.12439 0.0
H832 H 0.54631 0.04761 0.18703 0.0
H833 H 0.56779 0.04103 0.21251 0.0
H834 H 0.57124 0.94626 0.20062 0.0
H835 H 0.54996 0.95234 0.17489 0.0
C836 C 0.45611 0.96735 0.14873 0.0
C837 C 0.45726 0.93564 0.14853 0.0
C838 C 0.47165 0.98504 0.14941 0.0
C839 C 0.4887 0.97148 0.14977 0.0
C840 C 0.48989 0.93989 0.15021 0.0
C841 C 0.47436 0.92217 0.14956 0.0
C842 C 0.50529 0.99015 0.14917 0.0
C843 C 0.51822 0.98669 0.16307 0.0
C844 C 0.5083 0.01152 0.13509 0.0
C845 C 0.4957 0.01514 0.11944 0.0
C846 C 0.49118 0.99033 0.10826 0.0
C847 C 0.47914 0.99384 0.09366 0.0
C848 C 0.47165 0.0221 0.09002 0.0
C849 C 0.47623 0.04694 0.10093 0.0
C850 C 0.48824 0.04355 0.11556 0.0
C851 C 0.58651 0.0456 0.14629 0.0
C852 C 0.5859 0.07718 0.14443 0.0
C853 C 0.57067 0.02887 0.14797 0.0
C854 C 0.55388 0.04334 0.14803 0.0
C855 C 0.55324 0.07486 0.14629 0.0
C856 C 0.56907 0.0916 0.14453 0.0
C857 C 0.53697 0.02554 0.14926 0.0
C858 C 0.52399 0.02909 0.13542 0.0
C859 C 0.53394 1.00425 0.16339 0.0
C860 C 0.54666 1.00049 0.17892 0.0
C861 C 0.55175 0.0254 0.18976 0.0
C862 C 0.56387 0.02175 0.20427 0.0
C863 C 0.57091 0.99326 0.20816 0.0
C864 C 0.56579 0.96832 0.19758 0.0
C865 C 0.55368 0.97185 0.18305 0.0
H866 H 0.5803 0.99048 0.21939 0.0
H867 H 0.46233 0.02477 0.07872 0.0
H868 H 0.56884 0.89477 0.64508 0.0
H869 H 0.54077 0.9232 0.64694 0.0
H870 H 0.57028 0.00657 0.64267 0.0
H871 H 0.59839 0.97832 0.64076 0.0
H872 H 0.54455 0.01109 0.66832 0.0
H873 H 0.54797 0.97707 0.60571 0.0
H874 H 0.55123 0.93964 0.58079 0.0
H875 H 0.50406 0.89343 0.59957 0.0
H876 H 0.50066 0.93037 0.62477 0.0
H877 H 0.47273 0.10828 0.64256 0.0
H878 H 0.50041 0.07871 0.644 0.0
H879 H 0.46933 0.99705 0.64893 0.0
H880 H 0.44161 0.02639 0.64701 0.0
H881 H 0.49551 0.99079 0.62377 0.0
H882 H 0.49154 0.02639 0.68584 0.0
H883 H 0.48838 0.06432 0.71049 0.0
H884 H 0.5366 0.10821 0.69243 0.0
H885 H 0.53992 0.07077 0.6675 0.0
C886 C 0.56937 0.91914 0.64443 0.0
C887 C 0.58591 0.93419 0.64267 0.0
C888 C 0.5533 0.93538 0.64553 0.0
C889 C 0.55338 0.96704 0.64472 0.0
C890 C 0.56988 0.98217 0.64335 0.0
C891 C 0.58596 0.96595 0.64231 0.0
C892 C 0.53626 0.98438 0.64503 0.0
C893 C 0.53391 0.00689 0.65844 0.0
C894 C 0.52219 0.97849 0.63241 0.0
C895 C 0.52417 0.9563 0.61724 0.0
C896 C 0.53837 0.95879 0.60461 0.0
C897 C 0.54023 0.93769 0.59042 0.0
C898 C 0.52789 0.91412 0.58863 0.0
C899 C 0.51363 0.91166 0.601 0.0
C900 C 0.51172 0.93269 0.61523 0.0
C901 C 0.47177 0.08404 0.64394 0.0
C902 C 0.45491 0.06977 0.64467 0.0
C903 C 0.48762 0.06716 0.64492 0.0
C904 C 0.48697 0.03565 0.64674 0.0
C905 C 0.47018 0.02134 0.6476 0.0
C906 C 0.45432 0.03821 0.64666 0.0
C907 C 0.50379 0.01753 0.64704 0.0
C908 C 0.50611 0.9949 0.63371 0.0
C909 C 0.51783 0.0234 0.6597 0.0
C910 C 0.51588 0.04593 0.67469 0.0
C911 C 0.50139 0.04427 0.68703 0.0
C912 C 0.49959 0.06566 0.70107 0.0
C913 C 0.51226 0.0887 0.70299 0.0
C914 C 0.52678 0.09037 0.69091 0.0
C915 C 0.52865 0.06905 0.67683 0.0
H916 H 0.51084 0.10524 0.71388 0.0
H917 H 0.52934 0.89781 0.57763 0.0
H918 H 0.56892 0.11541 0.88206 0.0
H919 H 0.54087 0.08706 0.87983 0.0
H920 H 0.57078 1.00411 0.87505 0.0
H921 H 0.59891 0.03225 0.87743 0.0
H922 H 0.54194 1.00519 0.85152 0.0
H923 H 0.553 0.02455 0.91575 0.0
H924 H 0.55927 0.05641 0.94284 0.0
H925 H 0.51036 0.10549 0.93371 0.0
H926 H 0.50392 0.07417 0.90639 0.0
H927 H 0.47441 0.90047 0.87785 0.0
H928 H 0.50148 0.93128 0.87511 0.0
H929 H 0.46971 0.01195 0.88175 0.0
H930 H 0.44266 0.98126 0.88499 0.0
H931 H 0.49893 0.01349 0.90332 0.0
H932 H 0.48683 0.99312 0.84013 0.0
H933 H 0.48016 0.96154 0.81303 0.0
H934 H 0.53033 0.91504 0.8198 0.0
H935 H 0.53719 0.94608 0.84712 0.0
C936 C 0.56957 0.09114 0.88056 0.0
C937 C 0.58623 0.07616 0.88011 0.0
C938 C 0.5535 0.07496 0.87923 0.0
C939 C 0.5537 0.0434 0.87753 0.0
C940 C 0.57029 0.02845 0.87636 0.0
C941 C 0.58639 0.04463 0.87767 0.0
C942 C 0.53666 0.02592 0.87776 0.0
C943 C 0.53262 0.00674 0.86292 0.0
C944 C 0.52427 0.02849 0.89244 0.0
C945 C 0.52807 0.04722 0.90892 0.0
C946 C 0.54365 0.04229 0.91944 0.0
C947 C 0.54723 0.06022 0.93485 0.0
C948 C 0.53525 0.08302 0.93997 0.0
C949 C 0.51964 0.08786 0.92971 0.0
C950 C 0.51601 0.07001 0.91427 0.0
C951 C 0.47316 0.92475 0.87875 0.0
C952 C 0.45632 0.93832 0.88168 0.0
C953 C 0.48865 0.94237 0.87701 0.0
C954 C 0.48763 0.97397 0.87808 0.0
C955 C 0.47083 0.98762 0.88083 0.0
C956 C 0.45533 0.97002 0.88253 0.0
C957 C 0.50419 0.99267 0.87709 0.0
C958 C 0.50817 0.01204 0.89183 0.0
C959 C 0.51646 0.99033 0.8623 0.0
C960 C 0.51245 0.97175 0.84579 0.0
C961 C 0.49638 0.97601 0.83593 0.0
C962 C 0.49258 0.95822 0.82051 0.0
C963 C 0.50479 0.93624 0.81472 0.0
C964 C 0.52087 0.93206 0.82431 0.0
C965 C 0.52473 0.94976 0.83976 0.0
H966 H 0.50182 0.92249 0.80279 0.0
H967 H 0.53804 0.09688 0.9519 0.0
H968 H 0.97486 0.61119 0.373 0.0
H969 H 1.00235 0.58084 0.37248 0.0
H970 H 0.97251 0.50354 0.39128 0.0
H971 H 0.94501 0.53384 0.39196 0.0
H972 H 1.00433 0.51327 0.41084 0.0
H973 H 0.98504 0.50629 0.34781 0.0
H974 H 0.97543 0.52647 0.31784 0.0
H975 H 0.02543 0.57393 0.31274 0.0
H976 H 0.03524 0.55438 0.34282 0.0
H977 H 0.07194 0.40358 0.39844 0.0
H978 H 0.04402 0.43191 0.39681 0.0
H979 H 0.07167 0.50529 0.37033 0.0
H980 H 0.0995 0.4765 0.37095 0.0
H981 H 0.04063 0.49748 0.35451 0.0
H982 H 0.06008 0.5073 0.41687 0.0
H983 H 0.07032 0.48993 0.44726 0.0
H984 H 0.02114 0.44076 0.45434 0.0
H985 H 1.01069 0.45758 0.42386 0.0
C986 C 0.97417 0.58774 0.37703 0.0
C987 C 0.95775 0.57492 0.38249 0.0
C988 C 0.98985 0.57038 0.37661 0.0
C989 C 0.98945 0.53988 0.38174 0.0
C990 C 0.9731 0.52701 0.38722 0.0
C991 C 0.95738 0.54429 0.38746 0.0
C992 C 1.00618 0.52162 0.3818 0.0
C993 C 1.01215 0.50941 0.39848 0.0
C994 C 1.01665 0.51743 0.36578 0.0
C995 C 1.0108 0.52909 0.34765 0.0
C996 C 0.99393 0.52123 0.34037 0.0
C997 C 0.98846 0.53252 0.32335 0.0
C998 C 0.9998 0.55153 0.31341 0.0
C999 C 1.01665 0.55923 0.32046 0.0
C1000 C 0.02218 0.54803 0.33749 0.0
C1001 C 0.07217 0.42555 0.39205 0.0
C1002 C 0.08822 0.43763 0.38494 0.0
C1003 C 0.05614 0.44194 0.39133 0.0
C1004 C 0.05575 0.47103 0.38376 0.0
C1005 C 0.07161 0.48297 0.37635 0.0
C1006 C 0.08763 0.46649 0.3769 0.0
C1007 C 0.03884 0.489 0.38358 0.0
C1008 C 0.03284 0.50123 0.36689 0.0
C1009 C 0.02845 0.49359 0.39966 0.0
C1010 C 0.03468 0.48346 0.418 0.0
C1011 C 0.05151 0.4926 0.42484 0.0
C1012 C 0.05734 0.48288 0.4421 0.0
C1013 C 0.04641 0.46417 0.4527 0.0
C1014 C 0.02961 0.45521 0.44609 0.0
C1015 C 0.02371 0.46486 0.42884 0.0
H1016 H 0.05094 0.45668 0.46606 0.0
H1017 H 0.99554 0.56024 0.30024 0.0
H1018 H 0.09949 0.53036 0.1422 0.0
H1019 H 0.07138 0.5022 0.14395 0.0
H1020 H 0.0418 0.58562 0.14779 0.0
H1021 H 0.06998 0.61402 0.14649 0.0
H1022 H 0.02918 0.54296 0.17191 0.0
H1023 H 0.04349 0.5485 0.1077 0.0
H1024 H 0.06277 0.54269 0.08039 0.0
H1025 H 0.06654 0.4474 0.09009 0.0
H1026 H 0.04748 0.45271 0.11762 0.0
H1027 H 0.94292 0.48272 0.14806 0.0
H1028 H 0.97079 0.51153 0.15052 0.0
H1029 H 1.00144 0.42964 0.14391 0.0
H1030 H 0.97366 0.40065 0.14164 0.0
H1031 H 1.01343 0.47227 0.12142 0.0
H1032 H 0.99889 0.46597 0.18521 0.0
H1033 H 0.98085 0.47145 0.21341 0.0
H1034 H 0.97804 0.56721 0.20525 0.0
H1035 H 0.99579 0.56227 0.1768 0.0
C1036 C 0.08706 0.54278 0.14366 0.0
C1037 C 0.08702 0.57452 0.14416 0.0
C1038 C 0.07096 0.52662 0.1445 0.0
C1039 C 0.05446 0.5418 0.14579 0.0
C1040 C 0.05437 0.57344 0.14673 0.0
C1041 C 0.07048 0.58964 0.14583 0.0
C1042 C 0.03731 0.52463 0.14579 0.0
C1043 C 0.02558 0.52781 0.16076 0.0
C1044 C 0.03284 0.50434 0.13145 0.0
C1045 C 0.0442 0.50105 0.11482 0.0
C1046 C 0.04854 0.52634 0.10409 0.0
C1047 C 0.05941 0.52313 0.08856 0.0
C1048 C 0.06592 0.49471 0.08354 0.0
C1049 C 0.06152 0.46941 0.09401 0.0
C1050 C 0.05067 0.4725 0.10957 0.0
C1051 C 0.95556 0.47071 0.14746 0.0
C1052 C 0.95598 0.43928 0.14454 0.0
C1053 C 0.97152 0.48727 0.14884 0.0
C1054 C 0.98824 0.47277 0.14744 0.0
C1055 C 0.9887 0.44137 0.14493 0.0
C1056 C 0.97278 0.42481 0.14356 0.0
C1057 C 1.00525 0.4904 0.14761 0.0
C1058 C 1.01696 0.48739 0.13261 0.0
C1059 C 1.00969 0.51077 0.16196 0.0
C1060 C 0.99853 0.5137 0.17876 0.0
C1061 C 0.99423 0.48816 0.18929 0.0
C1062 C 0.9841 0.49118 0.20535 0.0
C1063 C 0.97831 0.51966 0.21112 0.0
C1064 C 0.98254 0.54516 0.20077 0.0
C1065 C 0.99262 0.54226 0.18467 0.0
H1066 H 0.97061 0.52197 0.22364 0.0
H1067 H 0.07433 0.49227 0.07151 0.0
H1068 H 0.94342 0.53254 0.64986 0.0
H1069 H 0.97093 0.503 0.65287 0.0
H1070 H 1.0021 0.58494 0.65455 0.0
H1071 H 0.97463 0.61467 0.65165 0.0
H1072 H 1.01614 0.54602 0.63071 0.0
H1073 H 0.99658 0.54167 0.69321 0.0
H1074 H 0.97538 0.53263 0.71859 0.0
H1075 H 0.97099 0.43955 0.70268 0.0
H1076 H 0.99209 0.44809 0.67709 0.0
H1077 H 0.09917 0.47725 0.65189 0.0
H1078 H 0.07195 0.50752 0.65496 0.0
H1079 H 0.03964 0.42705 0.65098 0.0
H1080 H 0.06686 0.39643 0.64846 0.0
H1081 H 0.02653 0.4659 0.67694 0.0
H1082 H 0.04562 0.47125 0.61386 0.0
H1083 H 0.06712 0.48067 0.58879 0.0
H1084 H 0.07237 0.57294 0.60615 0.0
H1085 H 0.05107 0.56394 0.6315 0.0
C1086 C 0.95606 0.54436 0.65121 0.0
C1087 C 0.95675 0.57607 0.65042 0.0
C1088 C 0.97182 0.52739 0.65291 0.0
C1089 C 0.98862 0.54172 0.65402 0.0
C1090 C 0.98932 0.57335 0.65363 0.0
C1091 C 0.97359 0.59033 0.65191 0.0
C1092 C 1.0055 0.52375 0.6546 0.0
C1093 C 1.01852 0.52886 0.64102 0.0
C1094 C 1.00847 0.50084 0.66777 0.0
C1095 C 0.99579 0.49559 0.68313 0.0
C1096 C 0.99099 0.51932 0.69504 0.0
C1097 C 0.97903 0.51427 0.70948 0.0
C1098 C 0.9718 0.48555 0.71221 0.0
C1099 C 0.97658 0.46179 0.70053 0.0
C1100 C 0.98858 0.4667 0.68608 0.0
C1101 C 0.08633 0.46584 0.65197 0.0
C1102 C 0.08526 0.43432 0.64979 0.0
C1103 C 0.07074 0.48326 0.65357 0.0
C1104 C 0.05373 0.46961 0.65293 0.0
C1105 C 0.05261 0.4381 0.65143 0.0
C1106 C 0.0682 0.42064 0.64982 0.0
C1107 C 0.03712 0.48828 0.65309 0.0
C1108 C 0.02416 0.48321 0.66673 0.0
C1109 C 0.03419 0.51132 0.64 0.0
C1110 C 0.04689 0.51684 0.62469 0.0
C1111 C 0.05146 0.49349 0.61241 0.0
C1112 C 0.06359 0.49876 0.59814 0.0
C1113 C 0.07114 0.52736 0.59591 0.0
C1114 C 0.06653 0.55078 0.60791 0.0
C1115 C 0.05442 0.54561 0.62223 0.0
H1116 H 0.08054 0.5314 0.58485 0.0
H1117 H 0.96251 0.4817 0.72339 0.0
H1118 H 0.09891 0.53452 0.88591 0.0
H1119 H 0.07126 0.50512 0.88377 0.0
H1120 H 0.04008 0.58706 0.88599 0.0
H1121 H 0.06772 0.61664 0.88813 0.0
H1122 H 0.02646 0.54585 0.9086 0.0
H1123 H 0.04542 0.54716 0.84562 0.0
H1124 H 0.06655 0.54 0.81991 0.0
H1125 H 0.0703 0.44556 0.83225 0.0
H1126 H 0.04937 0.45222 0.8582 0.0
H1127 H 0.94278 0.48125 0.88431 0.0
H1128 H 0.97033 0.51109 0.88312 0.0
H1129 H 1.00186 0.42948 0.88382 0.0
H1130 H 0.97429 0.39942 0.88461 0.0
H1131 H 1.0151 0.47068 0.85926 0.0
H1132 H 0.99703 0.4693 0.92246 0.0
H1133 H 0.97598 0.47581 0.94827 0.0
H1134 H 0.97072 0.56993 0.93562 0.0
H1135 H 0.99159 0.56389 0.90955 0.0
C1136 C 0.08621 0.54637 0.88567 0.0
C1137 C 0.08558 0.57802 0.88715 0.0
C1138 C 0.07037 0.52948 0.88448 0.0
C1139 C 0.05355 0.54386 0.88455 0.0
C1140 C 0.05288 0.57544 0.88595 0.0
C1141 C 0.06871 0.59233 0.88721 0.0
C1142 C 0.03666 0.52594 0.88365 0.0
C1143 C 0.02387 0.52978 0.89764 0.0
C1144 C 0.03344 0.50435 0.86963 0.0
C1145 C 0.04595 0.50025 0.85396 0.0
C1146 C 0.05085 0.5249 0.84294 0.0
C1147 C 0.06278 0.52093 0.82831 0.0
C1148 C 0.0698 0.49236 0.82448 0.0
C1149 C 0.06487 0.46768 0.83524 0.0
C1150 C 0.05296 0.47154 0.8499 0.0
C1151 C 0.95554 0.46959 0.88393 0.0
C1152 C 0.9563 0.43789 0.88462 0.0
C1153 C 0.9713 0.48671 0.88341 0.0
C1154 C 0.98817 0.47253 0.88359 0.0
C1155 C 0.98899 0.4409 0.88373 0.0
C1156 C 0.97323 0.42376 0.88433 0.0
C1157 C 1.00493 0.49073 0.88414 0.0
C1158 C 1.01769 0.48688 0.87015 0.0
C1159 C 1.00816 0.51227 0.89817 0.0
C1160 C 0.99573 0.51607 0.91394 0.0
C1161 C 0.99128 0.49134 0.92509 0.0
C1162 C 0.9794 0.49495 0.93979 0.0
C1163 C 0.97196 0.52324 0.94356 0.0
C1164 C 0.97646 0.54801 0.93267 0.0
C1165 C 0.98834 0.54452 0.91794 0.0
H1166 H 0.96275 0.52597 0.95494 0.0
H1167 H 0.07903 0.48933 0.81315 0.0
H1168 H 0.19583 0.28263 0.37268 0.0
H1169 H 0.224 0.25467 0.37513 0.0
H1170 H 0.25192 0.33696 0.38887 0.0
H1171 H 0.22385 0.36522 0.38597 0.0
H1172 H 0.27005 0.30468 0.36343 0.0
H1173 H 0.24266 0.28487 0.42172 0.0
H1174 H 0.21852 0.26862 0.44263 0.0
H1175 H 0.21971 0.17985 0.41886 0.0
H1176 H 0.24369 0.19569 0.39762 0.0
H1177 H 0.35172 0.23658 0.39158 0.0
H1178 H 0.32357 0.26488 0.39123 0.0
H1179 H 0.29453 0.18326 0.37852 0.0
H1180 H 0.32264 0.1548 0.37882 0.0
H1181 H 0.27705 0.21568 0.40396 0.0
H1182 H 0.30373 0.23541 0.34527 0.0
H1183 H 0.32762 0.25134 0.32398 0.0
H1184 H 0.32751 0.3399 0.34809 0.0
H1185 H 0.30377 0.32436 0.3697 0.0
C1186 C 0.20795 0.29483 0.37615 0.0
C1187 C 0.20753 0.32621 0.37914 0.0
C1188 C 0.22404 0.27875 0.37772 0.0
C1189 C 0.24007 0.29365 0.38237 0.0
C1190 C 0.23971 0.32496 0.38534 0.0
C1191 C 0.22361 0.34106 0.38382 0.0
C1192 C 0.25726 0.27668 0.38368 0.0
C1193 C 0.27167 0.2855 0.37251 0.0
C1194 C 0.25924 0.25117 0.39517 0.0
C1195 C 0.24485 0.24156 0.40796 0.0
C1196 C 0.23767 0.26195 0.42085 0.0
C1197 C 0.22404 0.2528 0.43278 0.0
C1198 C 0.21756 0.22325 0.43204 0.0
C1199 C 0.22473 0.20275 0.4194 0.0
C1200 C 0.23835 0.21179 0.40742 0.0
C1201 C 0.33938 0.22464 0.3886 0.0
C1202 C 0.33951 0.19338 0.38512 0.0
C1203 C 0.32327 0.24087 0.38842 0.0
C1204 C 0.30693 0.22629 0.38461 0.0
C1205 C 0.30696 0.19501 0.38151 0.0
C1206 C 0.32306 0.17873 0.38173 0.0
C1207 C 0.28985 0.24369 0.38371 0.0
C1208 C 0.27545 0.23492 0.39493 0.0
C1209 C 0.28785 0.2692 0.37223 0.0
C1210 C 0.3021 0.27862 0.35923 0.0
C1211 C 0.3089 0.25821 0.34613 0.0
C1212 C 0.3224 0.26718 0.33399 0.0
C1213 C 0.32912 0.29659 0.33472 0.0
C1214 C 0.32232 0.31711 0.34756 0.0
C1215 C 0.30883 0.30824 0.35975 0.0
H1216 H 0.33957 0.30349 0.3253 0.0
H1217 H 0.207 0.21621 0.4413 0.0
H1218 H 0.69236 0.77086 0.38366 0.0
H1219 H 0.72118 0.74482 0.38563 0.0
H1220 H 0.74862 0.83045 0.3874 0.0
H1221 H 0.71993 0.85666 0.38472 0.0
H1222 H 0.76475 0.79319 0.36403 0.0
H1223 H 0.74357 0.78627 0.42617 0.0
H1224 H 0.72196 0.77387 0.45065 0.0
H1225 H 0.72336 0.68056 0.43466 0.0
H1226 H 0.74481 0.69247 0.40992 0.0
H1227 H 0.85058 0.73794 0.38801 0.0
H1228 H 0.82168 0.76402 0.38916 0.0
H1229 H 0.79417 0.67843 0.38739 0.0
H1230 H 0.82306 0.65222 0.38636 0.0
H1231 H 0.77807 0.71567 0.41112 0.0
H1232 H 0.79853 0.72234 0.34876 0.0
H1233 H 0.81989 0.73427 0.32396 0.0
H1234 H 0.81948 0.82758 0.34 0.0
H1235 H 0.79828 0.81613 0.36506 0.0
C1236 C 0.7045 0.78422 0.38438 0.0
C1237 C 0.70372 0.81596 0.38402 0.0
C1238 C 0.72099 0.76926 0.38571 0.0
C1239 C 0.73709 0.78565 0.38688 0.0
C1240 C 0.73638 0.81729 0.38659 0.0
C1241 C 0.7199 0.83228 0.38522 0.0
C1242 C 0.75472 0.76986 0.38781 0.0
C1243 C 0.76775 0.77659 0.37451 0.0
C1244 C 0.7585 0.74755 0.40116 0.0
C1245 C 0.74567 0.74032 0.41608 0.0
C1246 C 0.73917 0.76314 0.42779 0.0
C1247 C 0.72697 0.75619 0.44173 0.0
C1248 C 0.72126 0.72645 0.44418 0.0
C1249 C 0.72778 0.70359 0.43273 0.0
C1250 C 0.73997 0.71042 0.41876 0.0
C1251 C 0.83838 0.72467 0.38785 0.0
C1252 C 0.83916 0.693 0.38695 0.0
C1253 C 0.82185 0.73961 0.38851 0.0
C1254 C 0.80571 0.72323 0.38803 0.0
C1255 C 0.80643 0.69157 0.38774 0.0
C1256 C 0.82298 0.6766 0.3872 0.0
C1257 C 0.7881 0.73914 0.3874 0.0
C1258 C 0.77508 0.73237 0.40069 0.0
C1259 C 0.78428 0.76136 0.37401 0.0
C1260 C 0.79696 0.76832 0.3589 0.0
C1261 C 0.80309 0.74536 0.34708 0.0
C1262 C 0.81516 0.75204 0.33297 0.0
C1263 C 0.82107 0.78165 0.33044 0.0
C1264 C 0.8149 0.80465 0.34199 0.0
C1265 C 0.80285 0.79809 0.35614 0.0
H1266 H 0.83041 0.78678 0.3195 0.0
H1267 H 0.71181 0.72112 0.45498 0.0
H1268 H 0.19418 0.73161 0.15008 0.0
H1269 H 0.22272 0.75864 0.148 0.0
H1270 H 0.25114 0.6739 0.14603 0.0
H1271 H 0.22267 0.64673 0.14853 0.0
H1272 H 0.26677 0.7129 0.16979 0.0
H1273 H 0.24582 0.7158 0.10754 0.0
H1274 H 0.22419 0.72581 0.08262 0.0
H1275 H 0.22392 0.81998 0.09667 0.0
H1276 H 0.24536 0.81045 0.12186 0.0
H1277 H 0.35167 0.77022 0.14372 0.0
H1278 H 0.3231 0.74323 0.14357 0.0
H1279 H 0.29458 0.82784 0.14556 0.0
H1280 H 0.32311 0.85506 0.14589 0.0
H1281 H 0.279 0.78887 0.12149 0.0
H1282 H 0.29942 0.78605 0.18395 0.0
H1283 H 0.32085 0.7763 0.20908 0.0
H1284 H 0.32187 0.68222 0.19486 0.0
H1285 H 0.30062 0.69149 0.16946 0.0
C1286 C 0.20649 0.7187 0.14928 0.0
C1287 C 0.2061 0.68696 0.14946 0.0
C1288 C 0.2228 0.7342 0.14793 0.0
C1289 C 0.23908 0.71831 0.14668 0.0
C1290 C 0.23875 0.68665 0.1469 0.0
C1291 C 0.22244 0.67113 0.14819 0.0
C1292 C 0.25647 0.73472 0.14558 0.0
C1293 C 0.26955 0.72917 0.15906 0.0
C1294 C 0.25993 0.75654 0.13187 0.0
C1295 C 0.24706 0.76235 0.11671 0.0
C1296 C 0.24103 0.7386 0.10542 0.0
C1297 C 0.22883 0.74419 0.09122 0.0
C1298 C 0.22265 0.7735 0.0881 0.0
C1299 C 0.2287 0.79728 0.09913 0.0
C1300 C 0.24089 0.7918 0.11336 0.0
C1301 C 0.33936 0.78316 0.14422 0.0
C1302 C 0.33978 0.81489 0.14497 0.0
C1303 C 0.323 0.76765 0.14409 0.0
C1304 C 0.30668 0.78348 0.1448 0.0
C1305 C 0.30701 0.81514 0.14501 0.0
C1306 C 0.32337 0.8307 0.14514 0.0
C1307 C 0.28931 0.76696 0.14567 0.0
C1308 C 0.27624 0.77253 0.13218 0.0
C1309 C 0.28582 0.74518 0.1594 0.0
C1310 C 0.29857 0.73952 0.17468 0.0
C1311 C 0.30433 0.76333 0.18608 0.0
C1312 C 0.31642 0.75788 0.20039 0.0
C1313 C 0.32276 0.72867 0.20353 0.0
C1314 C 0.31698 0.70484 0.19239 0.0
C1315 C 0.3049 0.71017 0.17804 0.0
H1316 H 0.33212 0.7245 0.21462 0.0
H1317 H 0.2132 0.77778 0.0771 0.0
H1318 H 0.69218 0.23976 0.1421 0.0
H1319 H 0.72087 0.26626 0.14104 0.0
H1320 H 0.74895 0.18128 0.14375 0.0
H1321 H 0.72033 0.15467 0.14555 0.0
H1322 H 0.76389 0.22081 0.1664 0.0
H1323 H 0.74564 0.22156 0.1033 0.0
H1324 H 0.72526 0.23076 0.0772 0.0
H1325 H 0.72477 0.32548 0.08977 0.0
H1326 H 0.74496 0.31678 0.11612 0.0
H1327 H 0.85 0.27657 0.14217 0.0
H1328 H 0.8214 0.24975 0.14159 0.0
H1329 H 0.79301 0.33452 0.14261 0.0
H1330 H 0.82153 0.3616 0.14351 0.0
H1331 H 0.77842 0.29492 0.11772 0.0
H1332 H 0.79648 0.29363 0.18109 0.0
H1333 H 0.81701 0.28412 0.20703 0.0
H1334 H 0.81802 0.18973 0.19357 0.0
H1335 H 0.79768 0.19875 0.16737 0.0
C1336 C 0.70442 0.22665 0.14258 0.0
C1337 C 0.70384 0.19498 0.1439 0.0
C1338 C 0.72086 0.24186 0.14178 0.0
C1339 C 0.73711 0.22578 0.14209 0.0
C1340 C 0.7366 0.1942 0.14341 0.0
C1341 C 0.72017 0.17896 0.14427 0.0
C1342 C 0.75464 0.24191 0.14151 0.0
C1343 C 0.76716 0.23666 0.15559 0.0
C1344 C 0.7588 0.26316 0.12765 0.0
C1345 C 0.74668 0.26847 0.1118 0.0
C1346 C 0.74107 0.24432 0.10059 0.0
C1347 C 0.72957 0.24944 0.08573 0.0
C1348 C 0.72368 0.27867 0.08185 0.0
C1349 C 0.72932 0.30284 0.0928 0.0
C1350 C 0.74081 0.29783 0.10769 0.0
C1351 C 0.83772 0.28961 0.14241 0.0
C1352 C 0.8382 0.32137 0.14302 0.0
C1353 C 0.82134 0.27419 0.14202 0.0
C1354 C 0.80505 0.29011 0.14226 0.0
C1355 C 0.80542 0.32176 0.14241 0.0
C1356 C 0.8218 0.33723 0.14286 0.0
C1357 C 0.78762 0.27373 0.14258 0.0
C1358 C 0.77514 0.27899 0.12848 0.0
C1359 C 0.78351 0.25241 0.15638 0.0
C1360 C 0.79571 0.24692 0.17215 0.0
C1361 C 0.8012 0.27088 0.18356 0.0
C1362 C 0.81278 0.26557 0.19833 0.0
C1363 C 0.81886 0.23635 0.20192 0.0
C1364 C 0.81332 0.21236 0.19076 0.0
C1365 C 0.80176 0.21756 0.17596 0.0
H1366 H 0.82782 0.23228 0.21336 0.0
H1367 H 0.71478 0.2826 0.07034 0.0
H1368 H 0.70008 0.79377 0.67368 0.0
H1369 H 0.72851 0.76663 0.67173 0.0
H1370 H 0.74107 0.81296 0.62136 0.0
H1371 H 0.71255 0.84021 0.62319 0.0
H1372 H 0.74247 0.72818 0.64767 0.0
H1373 H 0.78637 0.82521 0.61962 0.0
H1374 H 0.78738 0.88086 0.62018 0.0
H1375 H 0.75868 0.88175 0.67132 0.0
H1376 H 0.75773 0.82614 0.67119 0.0
H1377 H 0.82809 0.66864 0.62274 0.0
H1378 H 0.79921 0.69506 0.62216 0.0
H1379 H 0.81629 0.75063 0.66771 0.0
H1380 H 0.84512 0.72456 0.66824 0.0
H1381 H 0.79994 0.78436 0.64355 0.0
H1382 H 0.78709 0.69017 0.67322 0.0
H1383 H 0.78624 0.63477 0.67614 0.0
H1384 H 0.75309 0.62857 0.62797 0.0
H1385 H 0.75393 0.68394 0.62463 0.0
C1386 C 0.70875 0.79801 0.66206 0.0
C1387 C 0.70398 0.81932 0.64861 0.0
C1388 C 0.72506 0.78247 0.66099 0.0
C1389 C 0.73703 0.78789 0.6465 0.0
C1390 C 0.73219 0.80872 0.63285 0.0
C1391 C 0.71588 0.82436 0.63393 0.0
C1392 C 0.75469 0.77213 0.64593 0.0
C1393 C 0.75503 0.74047 0.64668 0.0
C1394 C 0.77113 0.7881 0.64494 0.0
C1395 C 0.77181 0.82154 0.64527 0.0
C1396 C 0.78033 0.8373 0.63101 0.0
C1397 C 0.78088 0.86883 0.63125 0.0
C1398 C 0.77304 0.88483 0.64574 0.0
C1399 C 0.76469 0.86934 0.66006 0.0
C1400 C 0.76412 0.83782 0.6599 0.0
C1401 C 0.82565 0.68639 0.63267 0.0
C1402 C 0.83895 0.69444 0.64553 0.0
C1403 C 0.80913 0.7015 0.63233 0.0
C1404 C 0.80546 0.72471 0.645 0.0
C1405 C 0.81879 0.73294 0.65772 0.0
C1406 C 0.83532 0.71801 0.65799 0.0
C1407 C 0.78775 0.74037 0.6452 0.0
C1408 C 0.78738 0.77202 0.64436 0.0
C1409 C 0.77132 0.72442 0.64654 0.0
C1410 C 0.77073 0.69116 0.64857 0.0
C1411 C 0.77972 0.67697 0.66318 0.0
C1412 C 0.77923 0.64558 0.66492 0.0
C1413 C 0.76966 0.62816 0.65222 0.0
C1414 C 0.76052 0.6421 0.63778 0.0
C1415 C 0.76099 0.67348 0.63596 0.0
H1416 H 0.76929 0.60386 0.65359 0.0
H1417 H 0.77347 0.90924 0.64589 0.0
H1418 H 0.19061 0.26898 0.6477 0.0
H1419 H 0.21918 0.24209 0.6467 0.0
H1420 H 0.24754 0.32676 0.64454 0.0
H1421 H 0.21907 0.35394 0.64588 0.0
H1422 H 0.26115 0.28537 0.62005 0.0
H1423 H 0.24566 0.28877 0.68406 0.0
H1424 H 0.2262 0.28125 0.71104 0.0
H1425 H 0.22468 0.18599 0.70022 0.0
H1426 H 0.24393 0.193 0.67301 0.0
H1427 H 0.34835 0.23204 0.64279 0.0
H1428 H 0.31959 0.25844 0.64208 0.0
H1429 H 0.29175 0.17369 0.64778 0.0
H1430 H 0.32047 0.14722 0.64917 0.0
H1431 H 0.27766 0.21487 0.6701 0.0
H1432 H 0.29346 0.21097 0.60641 0.0
H1433 H 0.31284 0.2182 0.57934 0.0
H1434 H 0.31366 0.31375 0.58924 0.0
H1435 H 0.29449 0.30704 0.61655 0.0
C1436 C 0.20287 0.282 0.64716 0.0
C1437 C 0.20239 0.31377 0.64701 0.0
C1438 C 0.21923 0.26653 0.64652 0.0
C1439 C 0.23552 0.28241 0.64574 0.0
C1440 C 0.23513 0.31403 0.64513 0.0
C1441 C 0.21877 0.32956 0.64583 0.0
C1442 C 0.25296 0.26603 0.64581 0.0
C1443 C 0.26487 0.27023 0.6311 0.0
C1444 C 0.25763 0.24574 0.66001 0.0
C1445 C 0.24608 0.24146 0.67638 0.0
C1446 C 0.24105 0.26625 0.68734 0.0
C1447 C 0.23008 0.26207 0.70269 0.0
C1448 C 0.22416 0.23317 0.70731 0.0
C1449 C 0.22924 0.20837 0.69661 0.0
C1450 C 0.2402 0.21243 0.68123 0.0
C1451 C 0.33615 0.21897 0.644 0.0
C1452 C 0.33682 0.18741 0.64603 0.0
C1453 C 0.31967 0.23411 0.6434 0.0
C1454 C 0.30346 0.21805 0.64467 0.0
C1455 C 0.30406 0.18658 0.6467 0.0
C1456 C 0.32054 0.17142 0.64733 0.0
C1457 C 0.2859 0.23412 0.64432 0.0
C1458 C 0.27395 0.22992 0.659 0.0
C1459 C 0.28118 0.25433 0.63007 0.0
C1460 C 0.29268 0.25846 0.61363 0.0
C1461 C 0.29789 0.2335 0.6029 0.0
C1462 C 0.30882 0.23751 0.5875 0.0
C1463 C 0.31452 0.26641 0.5826 0.0
C1464 C 0.30926 0.29137 0.59307 0.0
C1465 C 0.29835 0.28748 0.6085 0.0
H1466 H 0.32297 0.26947 0.57067 0.0
H1467 H 0.21567 0.22998 0.71921 0.0
H1468 H 0.72132 0.15173 0.88226 0.0
H1469 H 0.74971 0.17911 0.88392 0.0
H1470 H 0.72098 0.26358 0.88444 0.0
H1471 H 0.6925 0.23639 0.883 0.0
H1472 H 0.74856 0.26489 0.86043 0.0
H1473 H 0.74021 0.23646 0.92339 0.0
H1474 H 0.73465 0.20127 0.94891 0.0
H1475 H 0.78251 0.15213 0.93512 0.0
H1476 H 0.78822 0.18679 0.90933 0.0
H1477 H 0.82209 0.35913 0.88279 0.0
H1478 H 0.79355 0.33228 0.88401 0.0
H1479 H 0.82177 0.24734 0.88536 0.0
H1480 H 0.85042 0.27408 0.8849 0.0
H1481 H 0.79429 0.24651 0.90874 0.0
H1482 H 0.80243 0.27381 0.84556 0.0
H1483 H 0.8081 0.30841 0.81976 0.0
H1484 H 0.76074 0.35888 0.83357 0.0
H1485 H 0.75492 0.3248 0.85963 0.0
C1486 C 0.72096 0.17609 0.88299 0.0
C1487 C 0.70451 0.19176 0.8825 0.0
C1488 C 0.73725 0.19175 0.88389 0.0
C1489 C 0.73749 0.22343 0.88443 0.0
C1490 C 0.72114 0.23914 0.88398 0.0
C1491 C 0.70484 0.22352 0.88309 0.0
C1492 C 0.7548 0.2402 0.88505 0.0
C1493 C 0.75845 0.26119 0.87115 0.0
C1494 C 0.76791 0.23484 0.89877 0.0
C1495 C 0.76455 0.21405 0.91432 0.0
C1496 C 0.74947 0.21801 0.9257 0.0
C1497 C 0.74631 0.19818 0.94024 0.0
C1498 C 0.75819 0.17443 0.94361 0.0
C1499 C 0.7733 0.17051 0.93248 0.0
C1500 C 0.77652 0.19026 0.91791 0.0
C1501 C 0.82231 0.33478 0.8836 0.0
C1502 C 0.83868 0.31885 0.88364 0.0
C1503 C 0.80591 0.3194 0.8841 0.0
C1504 C 0.80547 0.28773 0.88448 0.0
C1505 C 0.82174 0.27177 0.88497 0.0
C1506 C 0.83815 0.28713 0.88453 0.0
C1507 C 0.78805 0.27123 0.88412 0.0
C1508 C 0.78439 0.25026 0.89805 0.0
C1509 C 0.77494 0.27651 0.87038 0.0
C1510 C 0.77835 0.29693 0.85466 0.0
C1511 C 0.7933 0.29242 0.84318 0.0
C1512 C 0.79653 0.31192 0.8285 0.0
C1513 C 0.78482 0.33588 0.82506 0.0
C1514 C 0.76982 0.34034 0.83627 0.0
C1515 C 0.76654 0.32092 0.85099 0.0
H1516 H 0.78734 0.35096 0.81369 0.0
H1517 H 0.75572 0.1591 0.95486 0.0
H1518 H 0.21209 0.6718 0.91035 0.0
H1519 H 0.24076 0.69843 0.91321 0.0
H1520 H 0.22736 0.75234 0.8659 0.0
H1521 H 0.19866 0.7261 0.86316 0.0
H1522 H 0.26871 0.70212 0.89196 0.0
H1523 H 0.24584 0.82142 0.86891 0.0
H1524 H 0.21881 0.85354 0.87032 0.0
H1525 H 0.20073 0.80598 0.91814 0.0
H1526 H 0.22776 0.77386 0.91717 0.0
H1527 H 0.3432 0.7892 0.86453 0.0
H1528 H 0.31436 0.76344 0.86671 0.0
H1529 H 0.30069 0.81735 0.91413 0.0
H1530 H 0.3296 0.84345 0.91192 0.0
H1531 H 0.27285 0.81383 0.89202 0.0
H1532 H 0.31318 0.7425 0.91831 0.0
H1533 H 0.34018 0.71042 0.92005 0.0
H1534 H 0.32323 0.6621 0.87183 0.0
H1535 H 0.29624 0.69417 0.86965 0.0
C1536 C 0.21527 0.6893 0.90056 0.0
C1537 C 0.20302 0.69691 0.88659 0.0
C1538 C 0.23166 0.70456 0.90221 0.0
C1539 C 0.23618 0.72772 0.88993 0.0
C1540 C 0.22405 0.73509 0.87584 0.0
C1541 C 0.20761 0.72004 0.87428 0.0
C1542 C 0.25373 0.7437 0.89155 0.0
C1543 C 0.26958 0.72654 0.89202 0.0
C1544 C 0.25496 0.7756 0.89202 0.0
C1545 C 0.23876 0.79506 0.89286 0.0
C1546 C 0.23613 0.81791 0.87978 0.0
C1547 C 0.2208 0.8361 0.88049 0.0
C1548 C 0.20803 0.83175 0.89428 0.0
C1549 C 0.2106 0.80926 0.90742 0.0
C1550 C 0.22591 0.79103 0.90679 0.0
C1551 C 0.33418 0.79537 0.87557 0.0
C1552 C 0.3388 0.8183 0.88813 0.0
C1553 C 0.31764 0.7806 0.87679 0.0
C1554 C 0.3054 0.7881 0.89074 0.0
C1555 C 0.3099 0.81113 0.90324 0.0
C1556 C 0.32642 0.82607 0.90196 0.0
C1557 C 0.28781 0.77223 0.89201 0.0
C1558 C 0.27196 0.7894 0.89206 0.0
C1559 C 0.28657 0.74035 0.89245 0.0
C1560 C 0.30275 0.72091 0.89374 0.0
C1561 C 0.31527 0.72517 0.90801 0.0
C1562 C 0.33057 0.70697 0.90908 0.0
C1563 C 0.33344 0.68427 0.89603 0.0
C1564 C 0.321 0.6797 0.88191 0.0
C1565 C 0.30568 0.69786 0.88077 0.0
H1566 H 0.34529 0.6702 0.89689 0.0
H1567 H 0.19617 0.84583 0.89479 0.0
H1568 H 0.37683 0.99407 0.34681 0.0
H1569 H 0.37479 0.97771 0.31472 0.0
H1570 H 0.37558 0.07057 0.2972 0.0
H1571 H 0.37703 0.08706 0.32917 0.0
H1572 H 0.353 0.04075 0.27663 0.0
H1573 H 0.41336 0.02488 0.29667 0.0
H1574 H 0.43694 1.00525 0.31716 0.0
H1575 H 0.42137 0.91444 0.30399 0.0
H1576 H 0.3973 0.93356 0.28382 0.0
H1577 H 0.38251 0.0138 0.18385 0.0
H1578 H 0.38009 0.03025 0.21596 0.0
H1579 H 0.37203 0.93808 0.23275 0.0
H1580 H 0.3743 0.92148 0.20083 0.0
H1581 H 0.39802 0.96742 0.25347 0.0
H1582 H 0.33743 0.98538 0.23284 0.0
H1583 H 0.31419 0.0069 0.21258 0.0
H1584 H 0.33203 0.09639 0.2261 0.0
H1585 H 0.35555 0.07538 0.24625 0.0
C1586 C 0.37643 0.01101 0.33614 0.0
C1587 C 0.37722 0.04187 0.34061 0.0
C1588 C 0.37534 1.00163 0.31776 0.0
C1589 C 0.37536 0.02288 0.30345 0.0
C1590 C 0.37558 0.0537 0.30793 0.0
C1591 C 0.37647 0.06309 0.32628 0.0
C1592 C 0.37575 0.01311 0.2838 0.0
C1593 C 0.36297 0.02496 0.27156 0.0
C1594 C 0.38865 0.99227 0.2771 0.0
C1595 C 0.40339 0.98067 0.28888 0.0
C1596 C 0.41488 1.00072 0.29823 0.0
C1597 C 0.42834 0.98968 0.30979 0.0
C1598 C 0.43066 0.9586 0.31188 0.0
C1599 C 0.41954 0.93851 0.30238 0.0
C1600 C 0.40596 0.94943 0.2909 0.0
C1601 C 0.38003 0.99706 0.19435 0.0
C1602 C 0.37859 0.96631 0.18971 0.0
C1603 C 0.37864 0.00651 0.2127 0.0
C1604 C 0.37587 0.98539 0.22677 0.0
C1605 C 0.37421 0.95477 0.22215 0.0
C1606 C 0.37544 0.94535 0.20384 0.0
C1607 C 0.37523 0.99496 0.24639 0.0
C1608 C 0.38802 0.98314 0.2586 0.0
C1609 C 0.36253 0.01613 0.25298 0.0
C1610 C 0.34836 0.02879 0.24091 0.0
C1611 C 0.3365 0.00964 0.23137 0.0
C1612 C 0.32325 0.02175 0.21993 0.0
C1613 C 0.32167 0.05299 0.21802 0.0
C1614 C 0.33329 0.07219 0.22758 0.0
C1615 C 0.34657 0.0602 0.23902 0.0
H1616 H 0.31141 0.06232 0.20915 0.0
H1617 H 0.44107 0.95009 0.32086 0.0
H1618 H 0.66366 0.08946 0.20071 0.0
H1619 H 0.66532 0.07205 0.23237 0.0
H1620 H 0.66575 0.97967 0.21348 0.0
H1621 H 0.66348 0.99701 0.18164 0.0
H1622 H 0.6437 0.98473 0.24099 0.0
H1623 H 0.70429 0.01637 0.23099 0.0
H1624 H 0.72856 0.05101 0.22183 0.0
H1625 H 0.7119 0.11447 0.26313 0.0
H1626 H 0.68736 0.08038 0.27238 0.0
H1627 H 0.6674 0.92146 0.32684 0.0
H1628 H 0.66931 0.93857 0.29507 0.0
H1629 H 0.66093 0.03038 0.31285 0.0
H1630 H 0.65897 0.01344 0.34482 0.0
H1631 H 0.68777 0.02484 0.28605 0.0
H1632 H 0.62675 0.99269 0.29534 0.0
H1633 H 0.60295 0.95715 0.30452 0.0
H1634 H 0.62136 0.8933 0.26423 0.0
H1635 H 0.64545 0.92829 0.25499 0.0
C1636 C 0.66426 0.06541 0.20323 0.0
C1637 C 0.66349 0.04462 0.18858 0.0
C1638 C 0.66531 0.05547 0.2214 0.0
C1639 C 0.66595 0.02451 0.22539 0.0
C1640 C 0.66531 1.00368 0.21079 0.0
C1641 C 0.66407 0.01362 0.19257 0.0
C1642 C 0.66654 0.01395 0.24482 0.0
C1643 C 0.65356 0.99314 0.25072 0.0
C1644 C 0.6791 0.0254 0.25775 0.0
C1645 C 0.69389 0.04592 0.25226 0.0
C1646 C 0.70572 0.0378 0.23803 0.0
C1647 C 0.71954 0.05733 0.23284 0.0
C1648 C 0.72175 0.08495 0.24186 0.0
C1649 C 0.71016 0.09308 0.25614 0.0
C1650 C 0.69631 0.07365 0.26137 0.0
C1651 C 0.66609 0.94535 0.32407 0.0
C1652 C 0.66293 0.96607 0.33842 0.0
C1653 C 0.66713 0.95507 0.30586 0.0
C1654 C 0.66505 0.9857 0.30155 0.0
C1655 C 0.66253 0.00662 0.31586 0.0
C1656 C 0.66137 0.99688 0.33412 0.0
C1657 C 0.66499 0.99568 0.28207 0.0
C1658 C 0.67802 0.01638 0.27622 0.0
C1659 C 0.65256 0.984 0.26915 0.0
C1660 C 0.63802 0.96299 0.27461 0.0
C1661 C 0.62582 0.97097 0.28854 0.0
C1662 C 0.61226 0.95094 0.29374 0.0
C1663 C 0.61067 0.92295 0.285 0.0
C1664 C 0.62262 0.91497 0.271 0.0
C1665 C 0.63622 0.9349 0.26578 0.0
H1666 H 0.60016 0.90748 0.28903 0.0
H1667 H 0.73245 0.10004 0.23782 0.0
H1668 H 0.65039 0.99632 0.8432 0.0
H1669 H 0.65492 0.9787 0.81167 0.0
H1670 H 0.68524 0.05915 0.79965 0.0
H1671 H 0.6804 0.07723 0.83098 0.0
H1672 H 0.66276 0.04922 0.77303 0.0
H1673 H 0.70569 0.9889 0.80505 0.0
H1674 H 0.71655 0.95379 0.82881 0.0
H1675 H 0.68038 0.88556 0.80901 0.0
H1676 H 0.66913 0.92041 0.78528 0.0
H1677 H 0.7034 0.94206 0.6971 0.0
H1678 H 0.70326 0.96345 0.72811 0.0
H1679 H 0.64754 0.98796 0.72164 0.0
H1680 H 0.64769 0.96729 0.69051 0.0
H1681 H 0.68548 0.94715 0.75732 0.0
H1682 H 0.63747 0.04903 0.74743 0.0
H1683 H 0.62955 0.08604 0.72351 0.0
H1684 H 0.68145 0.07479 0.69876 0.0
H1685 H 0.68977 0.03803 0.72265 0.0
C1686 C 0.65818 0.01013 0.8339 0.0
C1687 C 0.66504 0.03819 0.83965 0.0
C1688 C 0.6608 0.99999 0.81586 0.0
C1689 C 0.67055 0.01747 0.80324 0.0
C1690 C 0.67763 0.04527 0.80906 0.0
C1691 C 0.67491 0.05552 0.82704 0.0
C1692 C 0.67288 0.00731 0.78384 0.0
C1693 C 0.66776 0.0269 0.76962 0.0
C1694 C 0.6797 0.97841 0.77927 0.0
C1695 C 0.68646 0.95736 0.79349 0.0
C1696 C 0.69996 0.96648 0.80585 0.0
C1697 C 0.7062 0.94661 0.81929 0.0
C1698 C 0.69913 0.91748 0.82044 0.0
C1699 C 0.68584 0.90814 0.80812 0.0
C1700 C 0.67953 0.92793 0.79465 0.0
C1701 C 0.69118 0.95238 0.70217 0.0
C1702 C 0.67557 0.953 0.69126 0.0
C1703 C 0.69109 0.96447 0.71997 0.0
C1704 C 0.67543 0.97748 0.72725 0.0
C1705 C 0.6599 0.97852 0.71628 0.0
C1706 C 0.65999 0.96661 0.69845 0.0
C1707 C 0.67512 0.9889 0.74654 0.0
C1708 C 0.68055 0.96951 0.76074 0.0
C1709 C 0.66897 0.01823 0.75107 0.0
C1710 C 0.66417 0.04056 0.73674 0.0
C1711 C 0.64722 0.05455 0.73692 0.0
C1712 C 0.64265 0.07546 0.72336 0.0
C1713 C 0.65497 0.08269 0.7096 0.0
C1714 C 0.6719 0.06909 0.70939 0.0
C1715 C 0.67653 0.04818 0.72293 0.0
H1716 H 0.6514 0.09888 0.69911 0.0
H1717 H 0.70398 0.90214 0.83086 0.0
H1718 H 0.37693 0.9237 0.83176 0.0
H1719 H 0.3759 0.94028 0.79985 0.0
H1720 H 0.37729 0.03311 0.81763 0.0
H1721 H 0.37863 0.01669 0.84981 0.0
H1722 H 0.35135 0.01905 0.78846 0.0
H1723 H 0.41392 0.00737 0.80301 0.0
H1724 H 0.44054 0.98058 0.81485 0.0
H1725 H 0.43273 0.9102 0.77496 0.0
H1726 H 0.40589 0.93636 0.76305 0.0
H1727 H 0.37345 0.08436 0.7025 0.0
H1728 H 0.37189 0.06929 0.73463 0.0
H1729 H 0.38237 0.97695 0.71907 0.0
H1730 H 0.38442 0.99205 0.68681 0.0
H1731 H 0.40214 0.99134 0.74765 0.0
H1732 H 0.33983 1.00195 0.73291 0.0
H1733 H 0.31272 0.02737 0.72114 0.0
H1734 H 0.31921 0.09793 0.76117 0.0
H1735 H 0.34652 0.07313 0.77303 0.0
C1736 C 0.37684 0.94769 0.82898 0.0
C1737 C 0.37791 0.96888 0.8434 0.0
C1738 C 0.37632 0.9571 0.81069 0.0
C1739 C 0.37666 0.98789 0.80637 0.0
C1740 C 0.37704 0.00921 0.82069 0.0
C1741 C 0.37783 0.9998 0.83906 0.0
C1742 C 0.3772 0.99754 0.78685 0.0
C1743 C 0.36255 0.01342 0.77956 0.0
C1744 C 0.39161 0.98943 0.77517 0.0
C1745 C 0.40778 0.97368 0.78227 0.0
C1746 C 0.41778 0.98604 0.79688 0.0
C1747 C 0.43293 0.971 0.80358 0.0
C1748 C 0.43829 0.94367 0.7957 0.0
C1749 C 0.42854 0.93136 0.78107 0.0
C1750 C 0.41337 0.94629 0.77433 0.0
C1751 C 0.37528 0.06077 0.70584 0.0
C1752 C 0.37902 0.0394 0.692 0.0
C1753 C 0.37431 0.05215 0.72428 0.0
C1754 C 0.37679 0.02188 0.72935 0.0
C1755 C 0.38038 1.00044 0.71555 0.0
C1756 C 0.38148 0.00909 0.69708 0.0
C1757 C 0.37621 0.01285 0.74908 0.0
C1758 C 0.39089 0.99705 0.75646 0.0
C1759 C 0.36176 0.02087 0.7608 0.0
C1760 C 0.34532 0.03582 0.75373 0.0
C1761 C 0.33556 0.02301 0.73911 0.0
C1762 C 0.32014 0.03729 0.73244 0.0
C1763 C 0.31427 0.06429 0.74037 0.0
C1764 C 0.32379 0.07703 0.75503 0.0
C1765 C 0.33923 0.06286 0.76174 0.0
H1766 H 0.30233 0.07531 0.73519 0.0
H1767 H 0.45003 0.93206 0.8009 0.0
H1768 H 0.87795 0.51891 0.18264 0.0
H1769 H 0.87588 0.53488 0.2148 0.0
H1770 H 0.8754 0.44175 0.23182 0.0
H1771 H 0.87685 0.42568 0.19978 0.0
H1772 H 0.85313 0.47181 0.25235 0.0
H1773 H 0.91387 0.48649 0.23307 0.0
H1774 H 0.93784 0.50591 0.21303 0.0
H1775 H 0.92268 0.59686 0.22637 0.0
H1776 H 0.89829 0.57796 0.24614 0.0
H1777 H 0.88278 0.4962 0.34549 0.0
H1778 H 0.8803 0.48041 0.31324 0.0
H1779 H 0.87259 0.57301 0.29712 0.0
H1780 H 0.87489 0.58894 0.32916 0.0
H1781 H 0.89868 0.54349 0.27638 0.0
H1782 H 0.83786 0.52674 0.29642 0.0
H1783 H 0.81433 0.50546 0.31636 0.0
H1784 H 0.8314 0.41576 0.30232 0.0
H1785 H 0.85521 0.43652 0.28249 0.0
C1786 C 0.87725 0.50184 0.19322 0.0
C1787 C 0.87768 0.47102 0.1886 0.0
C1788 C 0.87616 0.51099 0.21164 0.0
C1789 C 0.87582 0.48954 0.22584 0.0
C1790 C 0.87568 0.45878 0.22118 0.0
C1791 C 0.87656 0.44962 0.2028 0.0
C1792 C 0.87617 0.49897 0.24555 0.0
C1793 C 0.86322 0.48724 0.25761 0.0
C1794 C 0.88921 0.51935 0.25249 0.0
C1795 C 0.90412 0.5308 0.24093 0.0
C1796 C 0.91557 0.51064 0.23164 0.0
C1797 C 0.92923 0.52155 0.22032 0.0
C1798 C 0.93177 0.55261 0.2184 0.0
C1799 C 0.92068 0.57281 0.22784 0.0
C1800 C 0.90691 0.56201 0.23909 0.0
C1801 C 0.88037 0.51316 0.3351 0.0
C1802 C 0.87903 0.54384 0.33996 0.0
C1803 C 0.87894 0.5041 0.31668 0.0
C1804 C 0.87626 0.52555 0.30276 0.0
C1805 C 0.8747 0.55609 0.30761 0.0
C1806 C 0.87594 0.56512 0.32599 0.0
C1807 C 0.87562 0.5164 0.28308 0.0
C1808 C 0.88857 0.52813 0.27106 0.0
C1809 C 0.86276 0.49571 0.27624 0.0
C1810 C 0.84843 0.48319 0.28812 0.0
C1811 C 0.8367 0.50248 0.29771 0.0
C1812 C 0.82329 0.49051 0.30897 0.0
C1813 C 0.8214 0.45928 0.31064 0.0
C1814 C 0.83289 0.43995 0.30103 0.0
C1815 C 0.84633 0.4518 0.28977 0.0
H1816 H 0.81101 0.45006 0.31936 0.0
H1817 H 0.94234 0.56103 0.20962 0.0
H1818 H 0.15081 0.47255 0.33832 0.0
H1819 H 0.15161 0.49354 0.30733 0.0
H1820 H 0.20877 0.47852 0.30495 0.0
H1821 H 0.20812 0.45734 0.33598 0.0
H1822 H 0.198 0.53453 0.29004 0.0
H1823 H 0.18254 0.42927 0.28494 0.0
H1824 H 0.16492 0.38375 0.29217 0.0
H1825 H 0.11704 0.4268 0.27232 0.0
H1826 H 0.13435 0.47277 0.26523 0.0
H1827 H 0.20683 0.55227 0.19367 0.0
H1828 H 0.20811 0.53163 0.22476 0.0
H1829 H 0.1502 0.53007 0.22685 0.0
H1830 H 0.14884 0.54968 0.19561 0.0
H1831 H 0.1623 0.48169 0.24215 0.0
H1832 H 0.17632 0.58689 0.24798 0.0
H1833 H 0.19277 0.63395 0.24152 0.0
H1834 H 0.24172 0.59345 0.2606 0.0
H1835 H 0.2256 0.54599 0.26695 0.0
C1836 C 0.16361 0.47405 0.33134 0.0
C1837 C 0.17939 0.46306 0.33962 0.0
C1838 C 0.16403 0.48594 0.31358 0.0
C1839 C 0.18021 0.48721 0.30375 0.0
C1840 C 0.19613 0.47765 0.31228 0.0
C1841 C 0.19572 0.46551 0.33001 0.0
C1842 C 0.18036 0.49724 0.28429 0.0
C1843 C 0.1904 0.52278 0.27949 0.0
C1844 C 0.1701 0.48229 0.27063 0.0
C1845 C 0.15971 0.45456 0.27472 0.0
C1846 C 0.16823 0.42911 0.28225 0.0
C1847 C 0.1583 0.40322 0.2863 0.0
C1848 C 0.13986 0.40241 0.28275 0.0
C1849 C 0.13132 0.42747 0.27509 0.0
C1850 C 0.14119 0.45344 0.27103 0.0
C1851 C 0.19437 0.54728 0.20069 0.0
C1852 C 0.17773 0.55277 0.19215 0.0
C1853 C 0.19511 0.53567 0.21854 0.0
C1854 C 0.17925 0.52984 0.22837 0.0
C1855 C 0.16264 0.53445 0.21964 0.0
C1856 C 0.16189 0.5457 0.20173 0.0
C1857 C 0.17985 0.51926 0.24779 0.0
C1858 C 0.16995 0.49351 0.25262 0.0
C1859 C 0.19007 0.53427 0.26151 0.0
C1860 C 0.19979 0.56279 0.25775 0.0
C1861 C 0.19062 0.58795 0.25067 0.0
C1862 C 0.19988 0.6147 0.24705 0.0
C1863 C 0.21829 0.61666 0.2506 0.0
C1864 C 0.22747 0.59188 0.25783 0.0
C1865 C 0.21827 0.56506 0.26145 0.0
H1866 H 0.22543 0.63739 0.24779 0.0
H1867 H 0.1322 0.38234 0.2859 0.0
H1868 H 0.16504 0.49887 0.84737 0.0
H1869 H 0.16674 0.48182 0.81532 0.0
H1870 H 0.16264 0.57395 0.79699 0.0
H1871 H 0.16105 0.59118 0.82883 0.0
H1872 H 0.1393 0.53542 0.77863 0.0
H1873 H 0.20197 0.53954 0.79488 0.0
H1874 H 0.22867 0.52753 0.81355 0.0
H1875 H 0.22137 0.43316 0.80232 0.0
H1876 H 0.19446 0.44458 0.78378 0.0
H1877 H 0.15792 0.51326 0.68433 0.0
H1878 H 0.15984 0.53094 0.71616 0.0
H1879 H 0.17042 0.44005 0.73418 0.0
H1880 H 0.16897 0.42234 0.70244 0.0
H1881 H 0.19066 0.47785 0.75293 0.0
H1882 H 0.12825 0.47197 0.73756 0.0
H1883 H 0.10099 0.48211 0.71933 0.0
H1884 H 0.10671 0.57708 0.72962 0.0
H1885 H 0.13418 0.56753 0.74769 0.0
C1886 C 0.16462 0.51551 0.83652 0.0
C1887 C 0.16294 0.5464 0.8407 0.0
C1888 C 0.16563 0.50574 0.81821 0.0
C1889 C 0.16487 0.52664 0.80376 0.0
C1890 C 0.16323 0.55743 0.80791 0.0
C1891 C 0.16241 0.56723 0.82616 0.0
C1892 C 0.16535 0.5165 0.78427 0.0
C1893 C 0.15063 0.52318 0.77293 0.0
C1894 C 0.17991 0.4998 0.77699 0.0
C1895 C 0.19609 0.4929 0.7881 0.0
C1896 C 0.20596 0.51621 0.79653 0.0
C1897 C 0.22115 0.50951 0.80706 0.0
C1898 C 0.22668 0.47959 0.80916 0.0
C1899 C 0.21706 0.45632 0.8007 0.0
C1900 C 0.20184 0.46289 0.79017 0.0
C1901 C 0.16083 0.49707 0.69504 0.0
C1902 C 0.16317 0.46634 0.6908 0.0
C1903 C 0.16182 0.50719 0.71326 0.0
C1904 C 0.16496 0.48675 0.72765 0.0
C1905 C 0.16793 0.45626 0.72337 0.0
C1906 C 0.16706 0.44616 0.70517 0.0
C1907 C 0.16463 0.49689 0.74719 0.0
C1908 C 0.17933 0.49014 0.75858 0.0
C1909 C 0.14995 0.51324 0.75459 0.0
C1910 C 0.13338 0.51906 0.74382 0.0
C1911 C 0.12377 0.49504 0.73582 0.0
C1912 C 0.10827 0.50067 0.72553 0.0
C1913 C 0.10215 0.53023 0.72328 0.0
C1914 C 0.11149 0.5542 0.73135 0.0
C1915 C 0.12702 0.54869 0.74163 0.0
H1916 H 0.09014 0.53455 0.71531 0.0
H1917 H 0.23845 0.47446 0.81731 0.0
H1918 H 0.87619 0.58618 0.69919 0.0
H1919 H 0.87485 0.56812 0.73077 0.0
H1920 H 0.87669 0.47616 0.71145 0.0
H1921 H 0.87838 0.49407 0.67959 0.0
H1922 H 0.85063 0.48932 0.74138 0.0
H1923 H 0.91268 0.50058 0.72559 0.0
H1924 H 0.93876 0.52773 0.71306 0.0
H1925 H 0.93298 0.59623 0.75448 0.0
H1926 H 0.90644 0.56998 0.76691 0.0
H1927 H 0.87387 0.42257 0.82696 0.0
H1928 H 0.87189 0.43774 0.79486 0.0
H1929 H 0.88265 0.53 0.81039 0.0
H1930 H 0.8851 0.51482 0.8426 0.0
H1931 H 0.90225 0.51518 0.78165 0.0
H1932 H 0.83994 0.5052 0.79711 0.0
H1933 H 0.81302 0.47959 0.8091 0.0
H1934 H 0.81895 0.40962 0.76861 0.0
H1935 H 0.84605 0.43462 0.75652 0.0
C1936 C 0.87611 0.56207 0.70155 0.0
C1937 C 0.87748 0.54156 0.6868 0.0
C1938 C 0.87537 0.55182 0.71966 0.0
C1939 C 0.87578 0.52084 0.72345 0.0
C1940 C 0.87635 0.50018 0.70879 0.0
C1941 C 0.87737 0.51045 0.69061 0.0
C1942 C 0.87661 0.51039 0.74281 0.0
C1943 C 0.862 0.49454 0.75015 0.0
C1944 C 0.8913 0.51785 0.75431 0.0
C1945 C 0.90743 0.53347 0.74706 0.0
C1946 C 0.91684 0.5216 0.73192 0.0
C1947 C 0.93174 0.5368 0.72485 0.0
C1948 C 0.93755 0.56368 0.73298 0.0
C1949 C 0.92846 0.57542 0.74819 0.0
C1950 C 0.91346 0.56041 0.75524 0.0
C1951 C 0.87568 0.44617 0.82362 0.0
C1952 C 0.87961 0.46749 0.83743 0.0
C1953 C 0.87446 0.45484 0.8052 0.0
C1954 C 0.87692 0.4851 0.80014 0.0
C1955 C 0.88069 0.5065 0.81391 0.0
C1956 C 0.88201 0.49781 0.83236 0.0
C1957 C 0.87615 0.49423 0.78044 0.0
C1958 C 0.89083 0.50986 0.77296 0.0
C1959 C 0.86149 0.48663 0.76885 0.0
C1960 C 0.84513 0.47164 0.77603 0.0
C1961 C 0.83558 0.48423 0.79085 0.0
C1962 C 0.82028 0.46985 0.79765 0.0
C1963 C 0.81431 0.44295 0.78966 0.0
C1964 C 0.8236 0.43044 0.7748 0.0
C1965 C 0.83893 0.44472 0.76796 0.0
H1966 H 0.80246 0.43184 0.79494 0.0
H1967 H 0.9491 0.57539 0.72749 0.0
loop_
_geom_bond_atom_site_label_1
_geom_bond_atom_site_label_2
_geom_bond_distance
_geom_bond_site_symmetry_2
_ccdc_geom_bond_type
Cu0 N1 1.999 . S
Cu0 O6 1.974 . S
Cu0 N11 1.985 . S
Cu0 O20 1.959 . S
N1 Cu0 1.999 . S
N1 C3 1.263 . S
N1 C5 1.389 . S
N2 C3 1.358 . S
N2 C4 1.400 . S
C3 N1 1.263 . S
C3 N2 1.358 . S
C3 H9 0.930 . S
C4 N2 1.400 . S
C4 C5 1.351 . S
C4 H21 0.930 . S
C5 N1 1.389 . S
C5 C4 1.351 . S
C5 H10 0.930 . S
O6 Cu0 1.974 . S
O6 C16 1.282 . S
C7 O8 1.261 . S
C7 O20 1.251 . S
O8 C7 1.261 . S
H9 C3 0.930 . S
H10 C5 0.930 . S
N11 Cu0 1.985 . S
N11 C13 1.335 . S
N11 C14 1.390 . S
N12 C13 1.345 . S
N12 C15 1.336 . S
C13 N11 1.335 . S
C13 N12 1.345 . S
C13 H18 0.930 . S
C14 N11 1.390 . S
C14 C15 1.346 . S
C14 H19 0.930 . S
C15 N12 1.336 . S
C15 C14 1.346 . S
C15 H22 0.929 . S
C16 O6 1.282 . S
C16 O17 1.216 . S
O17 C16 1.216 . S
H18 C13 0.930 . S
H19 C14 0.930 . S
O20 Cu0 1.959 . S
O20 C7 1.251 . S
H21 C4 0.930 . S
H22 C15 0.929 . S
Cu23 N24 1.999 . S
Cu23 O29 1.974 . S
Cu23 N34 1.985 . S
Cu23 O43 1.959 . S
N24 Cu23 1.999 . S
N24 C26 1.263 . S
N24 C28 1.389 . S
N25 C26 1.358 . S
N25 C27 1.400 . S
C26 N24 1.263 . S
C26 N25 1.358 . S
C26 H32 0.930 . S
C27 N25 1.400 . S
C27 C28 1.351 . S
C27 H44 0.930 . S
C28 N24 1.389 . S
C28 C27 1.351 . S
C28 H33 0.930 . S
O29 Cu23 1.974 . S
O29 C39 1.282 . S
C30 O31 1.261 . S
C30 O43 1.251 . S
O31 C30 1.261 . S
H32 C26 0.930 . S
H33 C28 0.930 . S
N34 Cu23 1.985 . S
N34 C36 1.335 . S
N34 C37 1.390 . S
N35 C36 1.345 . S
N35 C38 1.336 . S
C36 N34 1.335 . S
C36 N35 1.345 . S
C36 H41 0.930 . S
C37 N34 1.390 . S
C37 C38 1.346 . S
C37 H42 0.930 . S
C38 N35 1.336 . S
C38 C37 1.346 . S
C38 H45 0.929 . S
C39 O29 1.282 . S
C39 O40 1.216 . S
O40 C39 1.216 . S
H41 C36 0.930 . S
H42 C37 0.930 . S
O43 Cu23 1.959 . S
O43 C30 1.251 . S
H44 C27 0.930 . S
H45 C38 0.929 . S
Cu46 N47 1.999 . S
Cu46 O52 1.974 . S
Cu46 N57 1.985 . S
Cu46 O66 1.959 . S
N47 Cu46 1.999 . S
N47 C49 1.263 . S
N47 C51 1.389 . S
N48 C49 1.358 . S
N48 C50 1.400 . S
C49 N47 1.263 . S
C49 N48 1.358 . S
C49 H55 0.930 . S
C50 N48 1.400 . S
C50 C51 1.351 . S
C50 H67 0.930 . S
C51 N47 1.389 . S
C51 C50 1.351 . S
C51 H56 0.930 . S
O52 Cu46 1.974 . S
O52 C62 1.282 . S
C53 O54 1.261 . S
C53 O66 1.251 . S
O54 C53 1.261 . S
H55 C49 0.930 . S
H56 C51 0.930 . S
N57 Cu46 1.985 . S
N57 C59 1.335 . S
N57 C60 1.390 . S
N58 C59 1.345 . S
N58 C61 1.336 . S
C59 N57 1.335 . S
C59 N58 1.345 . S
C59 H64 0.930 . S
C60 N57 1.390 . S
C60 C61 1.346 . S
C60 H65 0.930 . S
C61 N58 1.336 . S
C61 C60 1.346 . S
C61 H68 0.929 . S
C62 O52 1.282 . S
C62 O63 1.216 . S
O63 C62 1.216 . S
H64 C59 0.930 . S
H65 C60 0.930 . S
O66 Cu46 1.959 . S
O66 C53 1.251 . S
H67 C50 0.930 . S
H68 C61 0.929 . S
Cu69 N70 1.999 . S
Cu69 O75 1.974 . S
Cu69 N80 1.985 . S
Cu69 O89 1.959 . S
N70 Cu69 1.999 . S
N70 C72 1.263 . S
N70 C74 1.389 . S
N71 C72 1.358 . S
N71 C73 1.400 . S
C72 N70 1.263 . S
C72 N71 1.358 . S
C72 H78 0.930 . S
C73 N71 1.400 . S
C73 C74 1.351 . S
C73 H90 0.930 . S
C74 N70 1.389 . S
C74 C73 1.351 . S
C74 H79 0.930 . S
O75 Cu69 1.974 . S
O75 C85 1.282 . S
C76 O77 1.261 . S
C76 O89 1.251 . S
O77 C76 1.261 . S
H78 C72 0.930 . S
H79 C74 0.930 . S
N80 Cu69 1.985 . S
N80 C82 1.335 . S
N80 C83 1.390 . S
N81 C82 1.345 . S
N81 C84 1.336 . S
C82 N80 1.335 . S
C82 N81 1.345 . S
C82 H87 0.930 . S
C83 N80 1.390 . S
C83 C84 1.346 . S
C83 H88 0.930 . S
C84 N81 1.336 . S
C84 C83 1.346 . S
C84 H91 0.929 . S
C85 O75 1.282 . S
C85 O86 1.216 . S
O86 C85 1.216 . S
H87 C82 0.930 . S
H88 C83 0.930 . S
O89 Cu69 1.959 . S
O89 C76 1.251 . S
H90 C73 0.930 . S
H91 C84 0.929 . S
Cu92 N93 1.999 . S
Cu92 O98 1.974 . S
Cu92 N103 1.985 . S
Cu92 O112 1.959 . S
N93 Cu92 1.999 . S
N93 C95 1.263 . S
N93 C97 1.389 . S
N94 C95 1.358 . S
N94 C96 1.400 . S
C95 N93 1.263 . S
C95 N94 1.358 . S
C95 H101 0.930 . S
C96 N94 1.400 . S
C96 C97 1.351 . S
C96 H113 0.930 . S
C97 N93 1.389 . S
C97 C96 1.351 . S
C97 H102 0.930 . S
O98 Cu92 1.974 . S
O98 C108 1.282 . S
C99 O100 1.261 . S
C99 O112 1.251 . S
O100 C99 1.261 . S
H101 C95 0.930 . S
H102 C97 0.930 . S
N103 Cu92 1.985 . S
N103 C105 1.335 . S
N103 C106 1.390 . S
N104 C105 1.345 . S
N104 C107 1.336 . S
C105 N103 1.335 . S
C105 N104 1.345 . S
C105 H110 0.930 . S
C106 N103 1.390 . S
C106 C107 1.346 . S
C106 H111 0.930 . S
C107 N104 1.336 . S
C107 C106 1.346 . S
C107 H114 0.929 . S
C108 O98 1.282 . S
C108 O109 1.216 . S
O109 C108 1.216 . S
H110 C105 0.930 . S
H111 C106 0.930 . S
O112 Cu92 1.959 . S
O112 C99 1.251 . S
H113 C96 0.930 . S
H114 C107 0.929 . S
Cu115 N116 1.999 . S
Cu115 O121 1.974 . S
Cu115 N126 1.985 . S
Cu115 O135 1.959 . S
N116 Cu115 1.999 . S
N116 C118 1.263 . S
N116 C120 1.389 . S
N117 C118 1.358 . S
N117 C119 1.400 . S
C118 N116 1.263 . S
C118 N117 1.358 . S
C118 H124 0.930 . S
C119 N117 1.400 . S
C119 C120 1.351 . S
C119 H136 0.930 . S
C120 N116 1.389 . S
C120 C119 1.351 . S
C120 H125 0.930 . S
O121 Cu115 1.974 . S
O121 C131 1.282 . S
C122 O123 1.261 . S
C122 O135 1.251 . S
O123 C122 1.261 . S
H124 C118 0.930 . S
H125 C120 0.930 . S
N126 Cu115 1.985 . S
N126 C128 1.335 . S
N126 C129 1.390 . S
N127 C128 1.345 . S
N127 C130 1.336 . S
C128 N126 1.335 . S
C128 N127 1.345 . S
C128 H133 0.930 . S
C129 N126 1.390 . S
C129 C130 1.346 . S
C129 H134 0.930 . S
C130 N127 1.336 . S
C130 C129 1.346 . S
C130 H137 0.929 . S
C131 O121 1.282 . S
C131 O132 1.216 . S
O132 C131 1.216 . S
H133 C128 0.930 . S
H134 C129 0.930 . S
O135 Cu115 1.959 . S
O135 C122 1.251 . S
H136 C119 0.930 . S
H137 C130 0.929 . S
Cu138 N139 1.999 . S
Cu138 O144 1.974 . S
Cu138 N149 1.985 . S
Cu138 O158 1.959 . S
N139 Cu138 1.999 . S
N139 C141 1.263 . S
N139 C143 1.389 . S
N140 C141 1.358 . S
N140 C142 1.400 . S
C141 N139 1.263 . S
C141 N140 1.358 . S
C141 H147 0.930 . S
C142 N140 1.400 . S
C142 C143 1.351 . S
C142 H159 0.930 . S
C143 N139 1.389 . S
C143 C142 1.351 . S
C143 H148 0.930 . S
O144 Cu138 1.974 . S
O144 C154 1.282 . S
C145 O146 1.261 . S
C145 O158 1.251 . S
O146 C145 1.261 . S
H147 C141 0.930 . S
H148 C143 0.930 . S
N149 Cu138 1.985 . S
N149 C151 1.335 . S
N149 C152 1.390 . S
N150 C151 1.345 . S
N150 C153 1.336 . S
C151 N149 1.335 . S
C151 N150 1.345 . S
C151 H156 0.930 . S
C152 N149 1.390 . S
C152 C153 1.346 . S
C152 H157 0.930 . S
C153 N150 1.336 . S
C153 C152 1.346 . S
C153 H160 0.929 . S
C154 O144 1.282 . S
C154 O155 1.216 . S
O155 C154 1.216 . S
H156 C151 0.930 . S
H157 C152 0.930 . S
O158 Cu138 1.959 . S
O158 C145 1.251 . S
H159 C142 0.930 . S
H160 C153 0.929 . S
Cu161 N162 1.999 . S
Cu161 O167 1.974 . S
Cu161 N172 1.985 . S
Cu161 O181 1.959 . S
N162 Cu161 1.999 . S
N162 C164 1.263 . S
N162 C166 1.389 . S
N163 C164 1.358 . S
N163 C165 1.400 . S
C164 N162 1.263 . S
C164 N163 1.358 . S
C164 H170 0.930 . S
C165 N163 1.400 . S
C165 C166 1.351 . S
C165 H182 0.930 . S
C166 N162 1.389 . S
C166 C165 1.351 . S
C166 H171 0.930 . S
O167 Cu161 1.974 . S
O167 C177 1.282 . S
C168 O169 1.261 . S
C168 O181 1.251 . S
O169 C168 1.261 . S
H170 C164 0.930 . S
H171 C166 0.930 . S
N172 Cu161 1.985 . S
N172 C174 1.335 . S
N172 C175 1.390 . S
N173 C174 1.345 . S
N173 C176 1.336 . S
C174 N172 1.335 . S
C174 N173 1.345 . S
C174 H179 0.930 . S
C175 N172 1.390 . S
C175 C176 1.346 . S
C175 H180 0.930 . S
C176 N173 1.336 . S
C176 C175 1.346 . S
C176 H183 0.929 . S
C177 O167 1.282 . S
C177 O178 1.216 . S
O178 C177 1.216 . S
H179 C174 0.930 . S
H180 C175 0.930 . S
O181 Cu161 1.959 . S
O181 C168 1.251 . S
H182 C165 0.930 . S
H183 C176 0.929 . S
Cu184 N185 1.999 . S
Cu184 O190 1.974 . S
Cu184 N195 1.985 . S
Cu184 O204 1.959 . S
N185 Cu184 1.999 . S
N185 C187 1.263 . S
N185 C189 1.389 . S
N186 C187 1.358 . S
N186 C188 1.400 . S
C187 N185 1.263 . S
C187 N186 1.358 . S
C187 H193 0.930 . S
C188 N186 1.400 . S
C188 C189 1.351 . S
C188 H205 0.930 . S
C189 N185 1.389 . S
C189 C188 1.351 . S
C189 H194 0.930 . S
O190 Cu184 1.974 . S
O190 C200 1.282 . S
C191 O192 1.261 . S
C191 O204 1.251 . S
O192 C191 1.261 . S
H193 C187 0.930 . S
H194 C189 0.930 . S
N195 Cu184 1.985 . S
N195 C197 1.335 . S
N195 C198 1.390 . S
N196 C197 1.345 . S
N196 C199 1.336 . S
C197 N195 1.335 . S
C197 N196 1.345 . S
C197 H202 0.930 . S
C198 N195 1.390 . S
C198 C199 1.346 . S
C198 H203 0.930 . S
C199 N196 1.336 . S
C199 C198 1.346 . S
C199 H206 0.929 . S
C200 O190 1.282 . S
C200 O201 1.216 . S
O201 C200 1.216 . S
H202 C197 0.930 . S
H203 C198 0.930 . S
O204 Cu184 1.959 . S
O204 C191 1.251 . S
H205 C188 0.930 . S
H206 C199 0.929 . S
Cu207 N208 1.999 . S
Cu207 O213 1.974 . S
Cu207 N218 1.985 . S
Cu207 O227 1.959 . S
N208 Cu207 1.999 . S
N208 C210 1.263 . S
N208 C212 1.389 . S
N209 C210 1.358 . S
N209 C211 1.400 . S
C210 N208 1.263 . S
C210 N209 1.358 . S
C210 H216 0.930 . S
C211 N209 1.400 . S
C211 C212 1.351 . S
C211 H228 0.930 . S
C212 N208 1.389 . S
C212 C211 1.351 . S
C212 H217 0.930 . S
O213 Cu207 1.974 . S
O213 C223 1.282 . S
C214 O215 1.261 . S
C214 O227 1.251 . S
O215 C214 1.261 . S
H216 C210 0.930 . S
H217 C212 0.930 . S
N218 Cu207 1.985 . S
N218 C220 1.335 . S
N218 C221 1.390 . S
N219 C220 1.345 . S
N219 C222 1.336 . S
C220 N218 1.335 . S
C220 N219 1.345 . S
C220 H225 0.930 . S
C221 N218 1.390 . S
C221 C222 1.346 . S
C221 H226 0.930 . S
C222 N219 1.336 . S
C222 C221 1.346 . S
C222 H229 0.929 . S
C223 O213 1.282 . S
C223 O224 1.216 . S
O224 C223 1.216 . S
H225 C220 0.930 . S
H226 C221 0.930 . S
O227 Cu207 1.959 . S
O227 C214 1.251 . S
H228 C211 0.930 . S
H229 C222 0.929 . S
Cu230 N231 1.999 . S
Cu230 O236 1.974 . S
Cu230 N241 1.985 . S
Cu230 O250 1.959 . S
N231 Cu230 1.999 . S
N231 C233 1.263 . S
N231 C235 1.389 . S
N232 C233 1.358 . S
N232 C234 1.400 . S
C233 N231 1.263 . S
C233 N232 1.358 . S
C233 H239 0.930 . S
C234 N232 1.400 . S
C234 C235 1.351 . S
C234 H251 0.930 . S
C235 N231 1.389 . S
C235 C234 1.351 . S
C235 H240 0.930 . S
O236 Cu230 1.974 . S
O236 C246 1.282 . S
C237 O238 1.261 . S
C237 O250 1.251 . S
O238 C237 1.261 . S
H239 C233 0.930 . S
H240 C235 0.930 . S
N241 Cu230 1.985 . S
N241 C243 1.335 . S
N241 C244 1.390 . S
N242 C243 1.345 . S
N242 C245 1.336 . S
C243 N241 1.335 . S
C243 N242 1.345 . S
C243 H248 0.930 . S
C244 N241 1.390 . S
C244 C245 1.346 . S
C244 H249 0.930 . S
C245 N242 1.336 . S
C245 C244 1.346 . S
C245 H252 0.929 . S
C246 O236 1.282 . S
C246 O247 1.216 . S
O247 C246 1.216 . S
H248 C243 0.930 . S
H249 C244 0.930 . S
O250 Cu230 1.959 . S
O250 C237 1.251 . S
H251 C234 0.930 . S
H252 C245 0.929 . S
Cu253 N254 1.999 . S
Cu253 O259 1.974 . S
Cu253 N264 1.985 . S
Cu253 O273 1.959 . S
N254 Cu253 1.999 . S
N254 C256 1.263 . S
N254 C258 1.389 . S
N255 C256 1.358 . S
N255 C257 1.400 . S
C256 N254 1.263 . S
C256 N255 1.358 . S
C256 H262 0.930 . S
C257 N255 1.400 . S
C257 C258 1.351 . S
C257 H274 0.930 . S
C258 N254 1.389 . S
C258 C257 1.351 . S
C258 H263 0.930 . S
O259 Cu253 1.974 . S
O259 C269 1.282 . S
C260 O261 1.261 . S
C260 O273 1.251 . S
O261 C260 1.261 . S
H262 C256 0.930 . S
H263 C258 0.930 . S
N264 Cu253 1.985 . S
N264 C266 1.335 . S
N264 C267 1.390 . S
N265 C266 1.345 . S
N265 C268 1.336 . S
C266 N264 1.335 . S
C266 N265 1.345 . S
C266 H271 0.930 . S
C267 N264 1.390 . S
C267 C268 1.346 . S
C267 H272 0.930 . S
C268 N265 1.336 . S
C268 C267 1.346 . S
C268 H275 0.929 . S
C269 O259 1.282 . S
C269 O270 1.216 . S
O270 C269 1.216 . S
H271 C266 0.930 . S
H272 C267 0.930 . S
O273 Cu253 1.959 . S
O273 C260 1.251 . S
H274 C257 0.930 . S
H275 C268 0.929 . S
Cu276 N277 1.999 . S
Cu276 O282 1.974 . S
Cu276 N287 1.985 . S
Cu276 O296 1.959 . S
N277 Cu276 1.999 . S
N277 C279 1.263 . S
N277 C281 1.389 . S
N278 C279 1.358 . S
N278 C280 1.400 . S
C279 N277 1.263 . S
C279 N278 1.358 . S
C279 H285 0.930 . S
C280 N278 1.400 . S
C280 C281 1.351 . S
C280 H297 0.930 . S
C281 N277 1.389 . S
C281 C280 1.351 . S
C281 H286 0.930 . S
O282 Cu276 1.974 . S
O282 C292 1.282 . S
C283 O284 1.261 . S
C283 O296 1.251 . S
O284 C283 1.261 . S
H285 C279 0.930 . S
H286 C281 0.930 . S
N287 Cu276 1.985 . S
N287 C289 1.335 . S
N287 C290 1.390 . S
N288 C289 1.345 . S
N288 C291 1.336 . S
C289 N287 1.335 . S
C289 N288 1.345 . S
C289 H294 0.930 . S
C290 N287 1.390 . S
C290 C291 1.346 . S
C290 H295 0.930 . S
C291 N288 1.336 . S
C291 C290 1.346 . S
C291 H298 0.929 . S
C292 O282 1.282 . S
C292 O293 1.216 . S
O293 C292 1.216 . S
H294 C289 0.930 . S
H295 C290 0.930 . S
O296 Cu276 1.959 . S
O296 C283 1.251 . S
H297 C280 0.930 . S
H298 C291 0.929 . S
Cu299 N300 1.999 . S
Cu299 O305 1.974 . S
Cu299 N310 1.985 . S
Cu299 O319 1.959 . S
N300 Cu299 1.999 . S
N300 C302 1.263 . S
N300 C304 1.389 . S
N301 C302 1.358 . S
N301 C303 1.400 . S
C302 N300 1.263 . S
C302 N301 1.358 . S
C302 H308 0.930 . S
C303 N301 1.400 . S
C303 C304 1.351 . S
C303 H320 0.930 . S
C304 N300 1.389 . S
C304 C303 1.351 . S
C304 H309 0.930 . S
O305 Cu299 1.974 . S
O305 C315 1.282 . S
C306 O307 1.261 . S
C306 O319 1.251 . S
O307 C306 1.261 . S
H308 C302 0.930 . S
H309 C304 0.930 . S
N310 Cu299 1.985 . S
N310 C312 1.335 . S
N310 C313 1.390 . S
N311 C312 1.345 . S
N311 C314 1.336 . S
C312 N310 1.335 . S
C312 N311 1.345 . S
C312 H317 0.930 . S
C313 N310 1.390 . S
C313 C314 1.346 . S
C313 H318 0.930 . S
C314 N311 1.336 . S
C314 C313 1.346 . S
C314 H321 0.929 . S
C315 O305 1.282 . S
C315 O316 1.216 . S
O316 C315 1.216 . S
H317 C312 0.930 . S
H318 C313 0.930 . S
O319 Cu299 1.959 . S
O319 C306 1.251 . S
H320 C303 0.930 . S
H321 C314 0.929 . S
Cu322 N323 1.999 . S
Cu322 O328 1.974 . S
Cu322 N333 1.985 . S
Cu322 O342 1.959 . S
N323 Cu322 1.999 . S
N323 C325 1.263 . S
N323 C327 1.389 . S
N324 C325 1.358 . S
N324 C326 1.400 . S
C325 N323 1.263 . S
C325 N324 1.358 . S
C325 H331 0.930 . S
C326 N324 1.400 . S
C326 C327 1.351 . S
C326 H343 0.930 . S
C327 N323 1.389 . S
C327 C326 1.351 . S
C327 H332 0.930 . S
O328 Cu322 1.974 . S
O328 C338 1.282 . S
C329 O330 1.261 . S
C329 O342 1.251 . S
O330 C329 1.261 . S
H331 C325 0.930 . S
H332 C327 0.930 . S
N333 Cu322 1.985 . S
N333 C335 1.335 . S
N333 C336 1.390 . S
N334 C335 1.345 . S
N334 C337 1.336 . S
C335 N333 1.335 . S
C335 N334 1.345 . S
C335 H340 0.930 . S
C336 N333 1.390 . S
C336 C337 1.346 . S
C336 H341 0.930 . S
C337 N334 1.336 . S
C337 C336 1.346 . S
C337 H344 0.929 . S
C338 O328 1.282 . S
C338 O339 1.216 . S
O339 C338 1.216 . S
H340 C335 0.930 . S
H341 C336 0.930 . S
O342 Cu322 1.959 . S
O342 C329 1.251 . S
H343 C326 0.930 . S
H344 C337 0.929 . S
Cu345 N346 1.999 . S
Cu345 O351 1.974 . S
Cu345 N356 1.985 . S
Cu345 O365 1.959 . S
N346 Cu345 1.999 . S
N346 C348 1.263 . S
N346 C350 1.389 . S
N347 C348 1.358 . S
N347 C349 1.400 . S
C348 N346 1.263 . S
C348 N347 1.358 . S
C348 H354 0.930 . S
C349 N347 1.400 . S
C349 C350 1.351 . S
C349 H366 0.930 . S
C350 N346 1.389 . S
C350 C349 1.351 . S
C350 H355 0.930 . S
O351 Cu345 1.974 . S
O351 C361 1.282 . S
C352 O353 1.261 . S
C352 O365 1.251 . S
O353 C352 1.261 . S
H354 C348 0.930 . S
H355 C350 0.930 . S
N356 Cu345 1.985 . S
N356 C358 1.335 . S
N356 C359 1.390 . S
N357 C358 1.345 . S
N357 C360 1.336 . S
C358 N356 1.335 . S
C358 N357 1.345 . S
C358 H363 0.930 . S
C359 N356 1.390 . S
C359 C360 1.346 . S
C359 H364 0.930 . S
C360 N357 1.336 . S
C360 C359 1.346 . S
C360 H367 0.929 . S
C361 O351 1.282 . S
C361 O362 1.216 . S
O362 C361 1.216 . S
H363 C358 0.930 . S
H364 C359 0.930 . S
O365 Cu345 1.959 . S
O365 C352 1.251 . S
H366 C349 0.930 . S
H367 C360 0.929 . S
H368 C386 0.951 . S
H369 C388 0.951 . S
H370 C390 0.950 . S
H371 C391 0.950 . S
H372 C393 0.950 . S
H373 C396 0.950 . S
H374 C397 0.950 . S
H375 C399 0.950 . S
H376 C400 0.950 . S
H377 C401 0.951 . S
H378 C403 0.951 . S
H379 C405 0.950 . S
H380 C406 0.950 . S
H381 C408 0.950 . S
H382 C411 0.950 . S
H383 C412 0.950 . S
H384 C414 0.950 . S
H385 C415 0.950 . S
C386 H368 0.951 . S
C386 C387 1.366 . S
C386 C388 1.388 . S
C387 C386 1.366 . S
C387 C391 1.385 . S
C388 H369 0.951 . S
C388 C386 1.388 . S
C388 C389 1.366 . S
C389 C388 1.366 . S
C389 C390 1.414 . S
C389 C392 1.499 . S
C390 H370 0.950 . S
C390 C389 1.414 . S
C390 C391 1.374 . S
C391 H371 0.950 . S
C391 C387 1.385 . S
C391 C390 1.374 . S
C392 C389 1.499 . S
C392 C393 1.373 . S
C392 C394 1.389 . S
C393 H372 0.950 . S
C393 C392 1.373 . S
C393 C409 1.377 . S
C394 C392 1.389 . S
C394 C395 1.524 . S
C394 C408 1.377 . S
C395 C394 1.524 . S
C395 C396 1.397 . S
C395 C400 1.363 . S
C396 H373 0.950 . S
C396 C395 1.397 . S
C396 C397 1.334 . S
C397 H374 0.950 . S
C397 C396 1.334 . S
C397 C398 1.287 . S
C398 C397 1.287 . S
C398 C399 1.524 . S
C398 H417 0.913 . S
C399 H375 0.950 . S
C399 C398 1.524 . S
C399 C400 1.415 . S
C400 H376 0.950 . S
C400 C395 1.363 . S
C400 C399 1.415 . S
C401 H377 0.951 . S
C401 C402 1.366 . S
C401 C403 1.388 . S
C402 C401 1.366 . S
C402 C406 1.385 . S
C403 H378 0.951 . S
C403 C401 1.388 . S
C403 C404 1.366 . S
C404 C403 1.366 . S
C404 C405 1.414 . S
C404 C407 1.499 . S
C405 H379 0.950 . S
C405 C404 1.414 . S
C405 C406 1.374 . S
C406 H380 0.950 . S
C406 C402 1.385 . S
C406 C405 1.374 . S
C407 C404 1.499 . S
C407 C408 1.373 . S
C407 C409 1.389 . S
C408 H381 0.950 . S
C408 C394 1.377 . S
C408 C407 1.373 . S
C409 C393 1.377 . S
C409 C407 1.389 . S
C409 C410 1.524 . S
C410 C409 1.524 . S
C410 C411 1.397 . S
C410 C415 1.363 . S
C411 H382 0.950 . S
C411 C410 1.397 . S
C411 C412 1.334 . S
C412 H383 0.950 . S
C412 C411 1.334 . S
C412 C413 1.287 . S
C413 C412 1.287 . S
C413 C414 1.524 . S
C413 H416 0.999 . S
C414 H384 0.950 . S
C414 C413 1.524 . S
C414 C415 1.415 . S
C415 H385 0.950 . S
C415 C410 1.363 . S
C415 C414 1.415 . S
H416 C413 0.999 . S
H417 C398 0.913 . S
H418 C436 0.951 . S
H419 C438 0.951 . S
H420 C440 0.950 . S
H421 C441 0.950 . S
H422 C443 0.950 . S
H423 C446 0.950 . S
H424 C447 0.950 . S
H425 C449 0.950 . S
H426 C450 0.950 . S
H427 C451 0.951 . S
H428 C453 0.951 . S
H429 C455 0.950 . S
H430 C456 0.950 . S
H431 C458 0.950 . S
H432 C461 0.950 . S
H433 C462 0.950 . S
H434 C464 0.950 . S
H435 C465 0.950 . S
C436 H418 0.951 . S
C436 C437 1.366 . S
C436 C438 1.388 . S
C437 C436 1.366 . S
C437 C441 1.385 . S
C438 H419 0.951 . S
C438 C436 1.388 . S
C438 C439 1.366 . S
C439 C438 1.366 . S
C439 C440 1.414 . S
C439 C442 1.499 . S
C440 H420 0.950 . S
C440 C439 1.414 . S
C440 C441 1.374 . S
C441 H421 0.950 . S
C441 C437 1.385 . S
C441 C440 1.374 . S
C442 C439 1.499 . S
C442 C443 1.373 . S
C442 C444 1.389 . S
C443 H422 0.950 . S
C443 C442 1.373 . S
C443 C459 1.377 . S
C444 C442 1.389 . S
C444 C445 1.524 . S
C444 C458 1.377 . S
C445 C444 1.524 . S
C445 C446 1.397 . S
C445 C450 1.363 . S
C446 H423 0.950 . S
C446 C445 1.397 . S
C446 C447 1.334 . S
C447 H424 0.950 . S
C447 C446 1.334 . S
C447 C448 1.287 . S
C448 C447 1.287 . S
C448 C449 1.524 . S
C448 H467 0.913 . S
C449 H425 0.950 . S
C449 C448 1.524 . S
C449 C450 1.415 . S
C450 H426 0.950 . S
C450 C445 1.363 . S
C450 C449 1.415 . S
C451 H427 0.951 . S
C451 C452 1.366 . S
C451 C453 1.388 . S
C452 C451 1.366 . S
C452 C456 1.385 . S
C453 H428 0.951 . S
C453 C451 1.388 . S
C453 C454 1.366 . S
C454 C453 1.366 . S
C454 C455 1.414 . S
C454 C457 1.499 . S
C455 H429 0.950 . S
C455 C454 1.414 . S
C455 C456 1.374 . S
C456 H430 0.950 . S
C456 C452 1.385 . S
C456 C455 1.374 . S
C457 C454 1.499 . S
C457 C458 1.373 . S
C457 C459 1.389 . S
C458 H431 0.950 . S
C458 C444 1.377 . S
C458 C457 1.373 . S
C459 C443 1.377 . S
C459 C457 1.389 . S
C459 C460 1.524 . S
C460 C459 1.524 . S
C460 C461 1.397 . S
C460 C465 1.363 . S
C461 H432 0.950 . S
C461 C460 1.397 . S
C461 C462 1.334 . S
C462 H433 0.950 . S
C462 C461 1.334 . S
C462 C463 1.287 . S
C463 C462 1.287 . S
C463 C464 1.524 . S
C463 H466 0.999 . S
C464 H434 0.950 . S
C464 C463 1.524 . S
C464 C465 1.415 . S
C465 H435 0.950 . S
C465 C460 1.363 . S
C465 C464 1.415 . S
H466 C463 0.999 . S
H467 C448 0.913 . S
H468 C486 0.951 . S
H469 C488 0.951 . S
H470 C490 0.950 . S
H471 C491 0.950 . S
H472 C493 0.950 . S
H473 C496 0.950 . S
H474 C497 0.950 . S
H475 C499 0.950 . S
H476 C500 0.950 . S
H477 C501 0.951 . S
H478 C503 0.951 . S
H479 C505 0.950 . S
H480 C506 0.950 . S
H481 C508 0.950 . S
H482 C511 0.950 . S
H483 C512 0.950 . S
H484 C514 0.950 . S
H485 C515 0.950 . S
C486 H468 0.951 . S
C486 C487 1.366 . S
C486 C488 1.388 . S
C487 C486 1.366 . S
C487 C491 1.385 . S
C488 H469 0.951 . S
C488 C486 1.388 . S
C488 C489 1.366 . S
C489 C488 1.366 . S
C489 C490 1.414 . S
C489 C492 1.499 . S
C490 H470 0.950 . S
C490 C489 1.414 . S
C490 C491 1.374 . S
C491 H471 0.950 . S
C491 C487 1.385 . S
C491 C490 1.374 . S
C492 C489 1.499 . S
C492 C493 1.373 . S
C492 C494 1.389 . S
C493 H472 0.950 . S
C493 C492 1.373 . S
C493 C509 1.377 1_554 S
C494 C492 1.389 . S
C494 C495 1.524 . S
C494 C508 1.377 1_554 S
C495 C494 1.524 . S
C495 C496 1.397 . S
C495 C500 1.363 . S
C496 H473 0.950 . S
C496 C495 1.397 . S
C496 C497 1.334 . S
C497 H474 0.950 . S
C497 C496 1.334 . S
C497 C498 1.287 . S
C498 C497 1.287 . S
C498 C499 1.524 . S
C498 H517 0.913 1_565 S
C499 H475 0.950 . S
C499 C498 1.524 . S
C499 C500 1.415 . S
C500 H476 0.950 . S
C500 C495 1.363 . S
C500 C499 1.415 . S
C501 H477 0.951 . S
C501 C502 1.366 . S
C501 C503 1.388 . S
C502 C501 1.366 . S
C502 C506 1.385 . S
C503 H478 0.951 . S
C503 C501 1.388 . S
C503 C504 1.366 . S
C504 C503 1.366 . S
C504 C505 1.414 . S
C504 C507 1.499 . S
C505 H479 0.950 . S
C505 C504 1.414 . S
C505 C506 1.374 . S
C506 H480 0.950 . S
C506 C502 1.385 . S
C506 C505 1.374 . S
C507 C504 1.499 . S
C507 C508 1.373 . S
C507 C509 1.389 . S
C508 H481 0.950 . S
C508 C494 1.377 1_556 S
C508 C507 1.373 . S
C509 C493 1.377 1_556 S
C509 C507 1.389 . S
C509 C510 1.524 . S
C510 C509 1.524 . S
C510 C511 1.397 . S
C510 C515 1.363 . S
C511 H482 0.950 . S
C511 C510 1.397 . S
C511 C512 1.334 . S
C512 H483 0.950 . S
C512 C511 1.334 . S
C512 C513 1.287 . S
C513 C512 1.287 . S
C513 C514 1.524 . S
C513 H516 0.999 . S
C514 H484 0.950 . S
C514 C513 1.524 . S
C514 C515 1.415 . S
C515 H485 0.950 . S
C515 C510 1.363 . S
C515 C514 1.415 . S
H516 C513 0.999 . S
H517 C498 0.913 1_545 S
H518 C536 0.951 . S
H519 C538 0.951 . S
H520 C540 0.950 . S
H521 C541 0.950 . S
H522 C543 0.950 . S
H523 C546 0.950 . S
H524 C547 0.950 . S
H525 C549 0.950 . S
H526 C550 0.950 . S
H527 C551 0.951 . S
H528 C553 0.951 . S
H529 C555 0.950 . S
H530 C556 0.950 . S
H531 C558 0.950 . S
H532 C561 0.950 . S
H533 C562 0.950 . S
H534 C564 0.950 . S
H535 C565 0.950 . S
C536 H518 0.951 . S
C536 C537 1.366 . S
C536 C538 1.388 . S
C537 C536 1.366 . S
C537 C541 1.385 . S
C538 H519 0.951 . S
C538 C536 1.388 . S
C538 C539 1.366 . S
C539 C538 1.366 . S
C539 C540 1.414 . S
C539 C542 1.499 . S
C540 H520 0.950 . S
C540 C539 1.414 . S
C540 C541 1.374 . S
C541 H521 0.950 . S
C541 C537 1.385 . S
C541 C540 1.374 . S
C542 C539 1.499 . S
C542 C543 1.373 . S
C542 C544 1.389 . S
C543 H522 0.950 . S
C543 C542 1.373 . S
C543 C559 1.377 1_556 S
C544 C542 1.389 . S
C544 C545 1.524 . S
C544 C558 1.377 1_556 S
C545 C544 1.524 . S
C545 C546 1.397 . S
C545 C550 1.363 . S
C546 H523 0.950 . S
C546 C545 1.397 . S
C546 C547 1.334 . S
C547 H524 0.950 . S
C547 C546 1.334 . S
C547 C548 1.287 . S
C548 C547 1.287 . S
C548 C549 1.524 . S
C548 H567 0.913 . S
C549 H525 0.950 . S
C549 C548 1.524 . S
C549 C550 1.415 . S
C550 H526 0.950 . S
C550 C545 1.363 . S
C550 C549 1.415 . S
C551 H527 0.951 . S
C551 C552 1.366 . S
C551 C553 1.388 . S
C552 C551 1.366 . S
C552 C556 1.385 . S
C553 H528 0.951 . S
C553 C551 1.388 . S
C553 C554 1.366 . S
C554 C553 1.366 . S
C554 C555 1.414 . S
C554 C557 1.499 . S
C555 H529 0.950 . S
C555 C554 1.414 . S
C555 C556 1.374 . S
C556 H530 0.950 . S
C556 C552 1.385 . S
C556 C555 1.374 . S
C557 C554 1.499 . S
C557 C558 1.373 . S
C557 C559 1.389 . S
C558 H531 0.950 . S
C558 C544 1.377 1_554 S
C558 C557 1.373 . S
C559 C543 1.377 1_554 S
C559 C557 1.389 . S
C559 C560 1.524 . S
C560 C559 1.524 . S
C560 C561 1.397 . S
C560 C565 1.363 . S
C561 H532 0.950 . S
C561 C560 1.397 . S
C561 C562 1.334 . S
C562 H533 0.950 . S
C562 C561 1.334 . S
C562 C563 1.287 . S
C563 C562 1.287 . S
C563 C564 1.524 . S
C563 H566 0.999 . S
C564 H534 0.950 . S
C564 C563 1.524 . S
C564 C565 1.415 . S
C565 H535 0.950 . S
C565 C560 1.363 . S
C565 C564 1.415 . S
H566 C563 0.999 . S
H567 C548 0.913 . S
H568 C586 0.951 . S
H569 C588 0.951 . S
H570 C590 0.950 . S
H571 C591 0.950 . S
H572 C593 0.950 . S
H573 C596 0.950 . S
H574 C597 0.950 . S
H575 C599 0.950 . S
H576 C600 0.950 . S
H577 C601 0.951 . S
H578 C603 0.951 . S
H579 C605 0.950 . S
H580 C606 0.950 . S
H581 C608 0.950 . S
H582 C611 0.950 . S
H583 C612 0.950 . S
H584 C614 0.950 . S
H585 C615 0.950 . S
C586 H568 0.951 . S
C586 C587 1.366 . S
C586 C588 1.388 . S
C587 C586 1.366 . S
C587 C591 1.385 . S
C588 H569 0.951 . S
C588 C586 1.388 . S
C588 C589 1.366 . S
C589 C588 1.366 . S
C589 C590 1.414 . S
C589 C592 1.499 . S
C590 H570 0.950 . S
C590 C589 1.414 . S
C590 C591 1.374 . S
C591 H571 0.950 . S
C591 C587 1.385 . S
C591 C590 1.374 . S
C592 C589 1.499 . S
C592 C593 1.373 . S
C592 C594 1.389 . S
C593 H572 0.950 . S
C593 C592 1.373 . S
C593 C609 1.377 . S
C594 C592 1.389 . S
C594 C595 1.524 . S
C594 C608 1.377 . S
C595 C594 1.524 . S
C595 C596 1.397 . S
C595 C600 1.363 . S
C596 H573 0.950 . S
C596 C595 1.397 . S
C596 C597 1.334 . S
C597 H574 0.950 . S
C597 C596 1.334 . S
C597 C598 1.287 . S
C598 C597 1.287 . S
C598 C599 1.524 . S
C598 H617 0.913 . S
C599 H575 0.950 . S
C599 C598 1.524 . S
C599 C600 1.415 . S
C600 H576 0.950 . S
C600 C595 1.363 . S
C600 C599 1.415 . S
C601 H577 0.951 . S
C601 C602 1.366 . S
C601 C603 1.388 . S
C602 C601 1.366 . S
C602 C606 1.385 . S
C603 H578 0.951 . S
C603 C601 1.388 . S
C603 C604 1.366 . S
C604 C603 1.366 . S
C604 C605 1.414 . S
C604 C607 1.499 . S
C605 H579 0.950 . S
C605 C604 1.414 . S
C605 C606 1.374 . S
C606 H580 0.950 . S
C606 C602 1.385 . S
C606 C605 1.374 . S
C607 C604 1.499 . S
C607 C608 1.373 . S
C607 C609 1.389 . S
C608 H581 0.950 . S
C608 C594 1.377 . S
C608 C607 1.373 . S
C609 C593 1.377 . S
C609 C607 1.389 . S
C609 C610 1.524 . S
C610 C609 1.524 . S
C610 C611 1.397 . S
C610 C615 1.363 . S
C611 H582 0.950 . S
C611 C610 1.397 . S
C611 C612 1.334 . S
C612 H583 0.950 . S
C612 C611 1.334 . S
C612 C613 1.287 . S
C613 C612 1.287 . S
C613 C614 1.524 . S
C613 H616 0.999 . S
C614 H584 0.950 . S
C614 C613 1.524 . S
C614 C615 1.415 . S
C615 H585 0.950 . S
C615 C610 1.363 . S
C615 C614 1.415 . S
H616 C613 0.999 . S
H617 C598 0.913 . S
H618 C636 0.951 . S
H619 C638 0.951 . S
H620 C640 0.950 . S
H621 C641 0.950 . S
H622 C643 0.950 . S
H623 C646 0.950 . S
H624 C647 0.950 . S
H625 C649 0.950 . S
H626 C650 0.950 . S
H627 C651 0.951 . S
H628 C653 0.951 . S
H629 C655 0.950 . S
H630 C656 0.950 . S
H631 C658 0.950 . S
H632 C661 0.950 . S
H633 C662 0.950 . S
H634 C664 0.950 . S
H635 C665 0.950 . S
C636 H618 0.951 . S
C636 C637 1.366 . S
C636 C638 1.388 . S
C637 C636 1.366 . S
C637 C641 1.385 . S
C638 H619 0.951 . S
C638 C636 1.388 . S
C638 C639 1.366 . S
C639 C638 1.366 . S
C639 C640 1.414 . S
C639 C642 1.499 . S
C640 H620 0.950 . S
C640 C639 1.414 . S
C640 C641 1.374 . S
C641 H621 0.950 . S
C641 C637 1.385 . S
C641 C640 1.374 . S
C642 C639 1.499 . S
C642 C643 1.373 . S
C642 C644 1.389 . S
C643 H622 0.950 . S
C643 C642 1.373 . S
C643 C659 1.377 . S
C644 C642 1.389 . S
C644 C645 1.524 . S
C644 C658 1.377 . S
C645 C644 1.524 . S
C645 C646 1.397 . S
C645 C650 1.363 . S
C646 H623 0.950 . S
C646 C645 1.397 . S
C646 C647 1.334 . S
C647 H624 0.950 . S
C647 C646 1.334 . S
C647 C648 1.287 . S
C648 C647 1.287 . S
C648 C649 1.524 . S
C648 H667 0.913 . S
C649 H625 0.950 . S
C649 C648 1.524 . S
C649 C650 1.415 . S
C650 H626 0.950 . S
C650 C645 1.363 . S
C650 C649 1.415 . S
C651 H627 0.951 . S
C651 C652 1.366 . S
C651 C653 1.388 . S
C652 C651 1.366 . S
C652 C656 1.385 . S
C653 H628 0.951 . S
C653 C651 1.388 . S
C653 C654 1.366 . S
C654 C653 1.366 . S
C654 C655 1.414 . S
C654 C657 1.499 . S
C655 H629 0.950 . S
C655 C654 1.414 . S
C655 C656 1.374 . S
C656 H630 0.950 . S
C656 C652 1.385 . S
C656 C655 1.374 . S
C657 C654 1.499 . S
C657 C658 1.373 . S
C657 C659 1.389 . S
C658 H631 0.950 . S
C658 C644 1.377 . S
C658 C657 1.373 . S
C659 C643 1.377 . S
C659 C657 1.389 . S
C659 C660 1.524 . S
C660 C659 1.524 . S
C660 C661 1.397 . S
C660 C665 1.363 . S
C661 H632 0.950 . S
C661 C660 1.397 . S
C661 C662 1.334 . S
C662 H633 0.950 . S
C662 C661 1.334 . S
C662 C663 1.287 . S
C663 C662 1.287 . S
C663 C664 1.524 . S
C663 H666 0.999 . S
C664 H634 0.950 . S
C664 C663 1.524 . S
C664 C665 1.415 . S
C665 H635 0.950 . S
C665 C660 1.363 . S
C665 C664 1.415 . S
H666 C663 0.999 . S
H667 C648 0.913 . S
H668 C686 0.951 . S
H669 C688 0.951 . S
H670 C690 0.950 . S
H671 C691 0.950 . S
H672 C693 0.950 . S
H673 C696 0.950 . S
H674 C697 0.950 . S
H675 C699 0.950 . S
H676 C700 0.950 . S
H677 C701 0.951 . S
H678 C703 0.951 . S
H679 C705 0.950 . S
H680 C706 0.950 . S
H681 C708 0.950 . S
H682 C711 0.950 . S
H683 C712 0.950 . S
H684 C714 0.950 . S
H685 C715 0.950 . S
C686 H668 0.951 . S
C686 C687 1.366 . S
C686 C688 1.388 . S
C687 C686 1.366 . S
C687 C691 1.385 . S
C688 H669 0.951 . S
C688 C686 1.388 . S
C688 C689 1.366 . S
C689 C688 1.366 . S
C689 C690 1.414 . S
C689 C692 1.499 . S
C690 H670 0.950 . S
C690 C689 1.414 . S
C690 C691 1.374 . S
C691 H671 0.950 . S
C691 C687 1.385 . S
C691 C690 1.374 . S
C692 C689 1.499 . S
C692 C693 1.373 . S
C692 C694 1.389 . S
C693 H672 0.950 . S
C693 C692 1.373 . S
C693 C709 1.377 1_556 S
C694 C692 1.389 . S
C694 C695 1.524 . S
C694 C708 1.377 1_556 S
C695 C694 1.524 . S
C695 C696 1.397 . S
C695 C700 1.363 . S
C696 H673 0.950 . S
C696 C695 1.397 . S
C696 C697 1.334 . S
C697 H674 0.950 . S
C697 C696 1.334 . S
C697 C698 1.287 . S
C698 C697 1.287 . S
C698 C699 1.524 . S
C698 H717 0.913 . S
C699 H675 0.950 . S
C699 C698 1.524 . S
C699 C700 1.415 . S
C700 H676 0.950 . S
C700 C695 1.363 . S
C700 C699 1.415 . S
C701 H677 0.951 . S
C701 C702 1.366 . S
C701 C703 1.388 . S
C702 C701 1.366 . S
C702 C706 1.385 . S
C703 H678 0.951 . S
C703 C701 1.388 . S
C703 C704 1.366 . S
C704 C703 1.366 . S
C704 C705 1.414 . S
C704 C707 1.499 . S
C705 H679 0.950 . S
C705 C704 1.414 . S
C705 C706 1.374 . S
C706 H680 0.950 . S
C706 C702 1.385 . S
C706 C705 1.374 . S
C707 C704 1.499 . S
C707 C708 1.373 . S
C707 C709 1.389 . S
C708 H681 0.950 . S
C708 C694 1.377 1_554 S
C708 C707 1.373 . S
C709 C693 1.377 1_554 S
C709 C707 1.389 . S
C709 C710 1.524 . S
C710 C709 1.524 . S
C710 C711 1.397 . S
C710 C715 1.363 . S
C711 H682 0.950 . S
C711 C710 1.397 . S
C711 C712 1.334 . S
C712 H683 0.950 . S
C712 C711 1.334 . S
C712 C713 1.287 . S
C713 C712 1.287 . S
C713 C714 1.524 . S
C713 H716 0.999 . S
C714 H684 0.950 . S
C714 C713 1.524 . S
C714 C715 1.415 . S
C715 H685 0.950 . S
C715 C710 1.363 . S
C715 C714 1.415 . S
H716 C713 0.999 . S
H717 C698 0.913 . S
H718 C736 0.951 . S
H719 C738 0.951 . S
H720 C740 0.950 . S
H721 C741 0.950 . S
H722 C743 0.950 . S
H723 C746 0.950 . S
H724 C747 0.950 . S
H725 C749 0.950 . S
H726 C750 0.950 . S
H727 C751 0.951 . S
H728 C753 0.951 . S
H729 C755 0.950 . S
H730 C756 0.950 . S
H731 C758 0.950 . S
H732 C761 0.950 . S
H733 C762 0.950 . S
H734 C764 0.950 . S
H735 C765 0.950 . S
C736 H718 0.951 . S
C736 C737 1.366 . S
C736 C738 1.388 . S
C737 C736 1.366 . S
C737 C741 1.385 . S
C738 H719 0.951 . S
C738 C736 1.388 . S
C738 C739 1.366 . S
C739 C738 1.366 . S
C739 C740 1.414 . S
C739 C742 1.499 . S
C740 H720 0.950 . S
C740 C739 1.414 . S
C740 C741 1.374 . S
C741 H721 0.950 . S
C741 C737 1.385 . S
C741 C740 1.374 . S
C742 C739 1.499 . S
C742 C743 1.373 . S
C742 C744 1.389 . S
C743 H722 0.950 . S
C743 C742 1.373 . S
C743 C759 1.377 1_554 S
C744 C742 1.389 . S
C744 C745 1.524 . S
C744 C758 1.377 1_554 S
C745 C744 1.524 . S
C745 C746 1.397 . S
C745 C750 1.363 . S
C746 H723 0.950 . S
C746 C745 1.397 . S
C746 C747 1.334 . S
C747 H724 0.950 . S
C747 C746 1.334 . S
C747 C748 1.287 . S
C748 C747 1.287 . S
C748 C749 1.524 . S
C748 H767 0.913 . S
C749 H725 0.950 . S
C749 C748 1.524 . S
C749 C750 1.415 . S
C750 H726 0.950 . S
C750 C745 1.363 . S
C750 C749 1.415 . S
C751 H727 0.951 . S
C751 C752 1.366 . S
C751 C753 1.388 . S
C752 C751 1.366 . S
C752 C756 1.385 . S
C753 H728 0.951 . S
C753 C751 1.388 . S
C753 C754 1.366 . S
C754 C753 1.366 . S
C754 C755 1.414 . S
C754 C757 1.499 . S
C755 H729 0.950 . S
C755 C754 1.414 . S
C755 C756 1.374 . S
C756 H730 0.950 . S
C756 C752 1.385 . S
C756 C755 1.374 . S
C757 C754 1.499 . S
C757 C758 1.373 . S
C757 C759 1.389 . S
C758 H731 0.950 . S
C758 C744 1.377 1_556 S
C758 C757 1.373 . S
C759 C743 1.377 1_556 S
C759 C757 1.389 . S
C759 C760 1.524 . S
C760 C759 1.524 . S
C760 C761 1.397 . S
C760 C765 1.363 . S
C761 H732 0.950 . S
C761 C760 1.397 . S
C761 C762 1.334 . S
C762 H733 0.950 . S
C762 C761 1.334 . S
C762 C763 1.287 . S
C763 C762 1.287 . S
C763 C764 1.524 . S
C763 H766 0.999 . S
C764 H734 0.950 . S
C764 C763 1.524 . S
C764 C765 1.415 . S
C765 H735 0.950 . S
C765 C760 1.363 . S
C765 C764 1.415 . S
H766 C763 0.999 . S
H767 C748 0.913 . S
H768 C786 0.951 . S
H769 C788 0.951 1_545 S
H770 C790 0.950 . S
H771 C791 0.950 . S
H772 C793 0.950 . S
H773 C796 0.950 1_565 S
H774 C797 0.950 . S
H775 C799 0.950 . S
H776 C800 0.950 . S
H777 C801 0.951 . S
H778 C803 0.951 1_565 S
H779 C805 0.950 . S
H780 C806 0.950 . S
H781 C808 0.950 . S
H782 C811 0.950 1_545 S
H783 C812 0.950 . S
H784 C814 0.950 . S
H785 C815 0.950 . S
C786 H768 0.951 . S
C786 C787 1.366 . S
C786 C788 1.388 . S
C787 C786 1.366 . S
C787 C791 1.385 . S
C788 H769 0.951 1_565 S
C788 C786 1.388 . S
C788 C789 1.366 . S
C789 C788 1.366 . S
C789 C790 1.414 . S
C789 C792 1.499 . S
C790 H770 0.950 . S
C790 C789 1.414 . S
C790 C791 1.374 . S
C791 H771 0.950 . S
C791 C787 1.385 . S
C791 C790 1.374 . S
C792 C789 1.499 . S
C792 C793 1.373 . S
C792 C794 1.389 1_565 S
C793 H772 0.950 . S
C793 C792 1.373 . S
C793 C809 1.377 . S
C794 C792 1.389 1_545 S
C794 C795 1.524 . S
C794 C808 1.377 . S
C795 C794 1.524 . S
C795 C796 1.397 . S
C795 C800 1.363 . S
C796 H773 0.950 1_545 S
C796 C795 1.397 . S
C796 C797 1.334 . S
C797 H774 0.950 . S
C797 C796 1.334 . S
C797 C798 1.287 . S
C798 C797 1.287 . S
C798 C799 1.524 . S
C798 H817 0.913 . S
C799 H775 0.950 . S
C799 C798 1.524 . S
C799 C800 1.415 . S
C800 H776 0.950 . S
C800 C795 1.363 . S
C800 C799 1.415 . S
C801 H777 0.951 . S
C801 C802 1.366 . S
C801 C803 1.388 . S
C802 C801 1.366 . S
C802 C806 1.385 . S
C803 H778 0.951 1_545 S
C803 C801 1.388 . S
C803 C804 1.366 . S
C804 C803 1.366 . S
C804 C805 1.414 . S
C804 C807 1.499 . S
C805 H779 0.950 . S
C805 C804 1.414 . S
C805 C806 1.374 . S
C806 H780 0.950 . S
C806 C802 1.385 . S
C806 C805 1.374 . S
C807 C804 1.499 . S
C807 C808 1.373 . S
C807 C809 1.389 1_545 S
C808 H781 0.950 . S
C808 C794 1.377 . S
C808 C807 1.373 . S
C809 C793 1.377 . S
C809 C807 1.389 1_565 S
C809 C810 1.524 . S
C810 C809 1.524 . S
C810 C811 1.397 . S
C810 C815 1.363 . S
C811 H782 0.950 1_565 S
C811 C810 1.397 . S
C811 C812 1.334 . S
C812 H783 0.950 . S
C812 C811 1.334 . S
C812 C813 1.287 . S
C813 C812 1.287 . S
C813 C814 1.524 . S
C813 H816 0.999 . S
C814 H784 0.950 . S
C814 C813 1.524 . S
C814 C815 1.415 . S
C815 H785 0.950 . S
C815 C810 1.363 . S
C815 C814 1.415 . S
H816 C813 0.999 . S
H817 C798 0.913 . S
H818 C836 0.951 . S
H819 C838 0.951 1_545 S
H820 C840 0.950 . S
H821 C841 0.950 . S
H822 C843 0.950 . S
H823 C846 0.950 . S
H824 C847 0.950 . S
H825 C849 0.950 . S
H826 C850 0.950 . S
H827 C851 0.951 . S
H828 C853 0.951 1_565 S
H829 C855 0.950 . S
H830 C856 0.950 . S
H831 C858 0.950 . S
H832 C861 0.950 . S
H833 C862 0.950 . S
H834 C864 0.950 . S
H835 C865 0.950 . S
C836 H818 0.951 . S
C836 C837 1.366 . S
C836 C838 1.388 . S
C837 C836 1.366 . S
C837 C841 1.385 . S
C838 H819 0.951 1_565 S
C838 C836 1.388 . S
C838 C839 1.366 . S
C839 C838 1.366 . S
C839 C840 1.414 . S
C839 C842 1.499 . S
C840 H820 0.950 . S
C840 C839 1.414 . S
C840 C841 1.374 . S
C841 H821 0.950 . S
C841 C837 1.385 . S
C841 C840 1.374 . S
C842 C839 1.499 . S
C842 C843 1.373 . S
C842 C844 1.389 1_565 S
C843 H822 0.950 . S
C843 C842 1.373 . S
C843 C859 1.377 . S
C844 C842 1.389 1_545 S
C844 C845 1.524 . S
C844 C858 1.377 . S
C845 C844 1.524 . S
C845 C846 1.397 1_545 S
C845 C850 1.363 . S
C846 H823 0.950 . S
C846 C845 1.397 1_565 S
C846 C847 1.334 . S
C847 H824 0.950 . S
C847 C846 1.334 . S
C847 C848 1.287 1_565 S
C848 C847 1.287 1_545 S
C848 C849 1.524 . S
C848 H867 0.913 . S
C849 H825 0.950 . S
C849 C848 1.524 . S
C849 C850 1.415 . S
C850 H826 0.950 . S
C850 C845 1.363 . S
C850 C849 1.415 . S
C851 H827 0.951 . S
C851 C852 1.366 . S
C851 C853 1.388 . S
C852 C851 1.366 . S
C852 C856 1.385 . S
C853 H828 0.951 1_545 S
C853 C851 1.388 . S
C853 C854 1.366 . S
C854 C853 1.366 . S
C854 C855 1.414 . S
C854 C857 1.499 . S
C855 H829 0.950 . S
C855 C854 1.414 . S
C855 C856 1.374 . S
C856 H830 0.950 . S
C856 C852 1.385 . S
C856 C855 1.374 . S
C857 C854 1.499 . S
C857 C858 1.373 . S
C857 C859 1.389 1_545 S
C858 H831 0.950 . S
C858 C844 1.377 . S
C858 C857 1.373 . S
C859 C843 1.377 . S
C859 C857 1.389 1_565 S
C859 C860 1.524 . S
C860 C859 1.524 . S
C860 C861 1.397 1_565 S
C860 C865 1.363 . S
C861 H832 0.950 . S
C861 C860 1.397 1_545 S
C861 C862 1.334 . S
C862 H833 0.950 . S
C862 C861 1.334 . S
C862 C863 1.287 1_545 S
C863 C862 1.287 1_565 S
C863 C864 1.524 . S
C863 H866 0.999 . S
C864 H834 0.950 . S
C864 C863 1.524 . S
C864 C865 1.415 . S
C865 H835 0.950 . S
C865 C860 1.363 . S
C865 C864 1.415 . S
H866 C863 0.999 . S
H867 C848 0.913 . S
H868 C886 0.951 . S
H869 C888 0.951 . S
H870 C890 0.950 1_545 S
H871 C891 0.950 . S
H872 C893 0.950 . S
H873 C896 0.950 . S
H874 C897 0.950 . S
H875 C899 0.950 . S
H876 C900 0.950 . S
H877 C901 0.951 . S
H878 C903 0.951 . S
H879 C905 0.950 1_565 S
H880 C906 0.950 . S
H881 C908 0.950 . S
H882 C911 0.950 . S
H883 C912 0.950 . S
H884 C914 0.950 . S
H885 C915 0.950 . S
C886 H868 0.951 . S
C886 C887 1.366 . S
C886 C888 1.388 . S
C887 C886 1.366 . S
C887 C891 1.385 . S
C888 H869 0.951 . S
C888 C886 1.388 . S
C888 C889 1.366 . S
C889 C888 1.366 . S
C889 C890 1.414 . S
C889 C892 1.499 . S
C890 H870 0.950 1_565 S
C890 C889 1.414 . S
C890 C891 1.374 . S
C891 H871 0.950 . S
C891 C887 1.385 . S
C891 C890 1.374 . S
C892 C889 1.499 . S
C892 C893 1.373 1_565 S
C892 C894 1.389 . S
C893 H872 0.950 . S
C893 C892 1.373 1_545 S
C893 C909 1.377 . S
C894 C892 1.389 . S
C894 C895 1.524 . S
C894 C908 1.377 . S
C895 C894 1.524 . S
C895 C896 1.397 . S
C895 C900 1.363 . S
C896 H873 0.950 . S
C896 C895 1.397 . S
C896 C897 1.334 . S
C897 H874 0.950 . S
C897 C896 1.334 . S
C897 C898 1.287 . S
C898 C897 1.287 . S
C898 C899 1.524 . S
C898 H917 0.913 . S
C899 H875 0.950 . S
C899 C898 1.524 . S
C899 C900 1.415 . S
C900 H876 0.950 . S
C900 C895 1.363 . S
C900 C899 1.415 . S
C901 H877 0.951 . S
C901 C902 1.366 . S
C901 C903 1.388 . S
C902 C901 1.366 . S
C902 C906 1.385 . S
C903 H878 0.951 . S
C903 C901 1.388 . S
C903 C904 1.366 . S
C904 C903 1.366 . S
C904 C905 1.414 . S
C904 C907 1.499 . S
C905 H879 0.950 1_545 S
C905 C904 1.414 . S
C905 C906 1.374 . S
C906 H880 0.950 . S
C906 C902 1.385 . S
C906 C905 1.374 . S
C907 C904 1.499 . S
C907 C908 1.373 1_545 S
C907 C909 1.389 . S
C908 H881 0.950 . S
C908 C894 1.377 . S
C908 C907 1.373 1_565 S
C909 C893 1.377 . S
C909 C907 1.389 . S
C909 C910 1.524 . S
C910 C909 1.524 . S
C910 C911 1.397 . S
C910 C915 1.363 . S
C911 H882 0.950 . S
C911 C910 1.397 . S
C911 C912 1.334 . S
C912 H883 0.950 . S
C912 C911 1.334 . S
C912 C913 1.287 . S
C913 C912 1.287 . S
C913 C914 1.524 . S
C913 H916 0.999 . S
C914 H884 0.950 . S
C914 C913 1.524 . S
C914 C915 1.415 . S
C915 H885 0.950 . S
C915 C910 1.363 . S
C915 C914 1.415 . S
H916 C913 0.999 . S
H917 C898 0.913 . S
H918 C936 0.951 . S
H919 C938 0.951 . S
H920 C940 0.950 1_565 S
H921 C941 0.950 . S
H922 C943 0.950 . S
H923 C946 0.950 . S
H924 C947 0.950 . S
H925 C949 0.950 . S
H926 C950 0.950 . S
H927 C951 0.951 . S
H928 C953 0.951 . S
H929 C955 0.950 1_545 S
H930 C956 0.950 . S
H931 C958 0.950 . S
H932 C961 0.950 . S
H933 C962 0.950 . S
H934 C964 0.950 . S
H935 C965 0.950 . S
C936 H918 0.951 . S
C936 C937 1.366 . S
C936 C938 1.388 . S
C937 C936 1.366 . S
C937 C941 1.385 . S
C938 H919 0.951 . S
C938 C936 1.388 . S
C938 C939 1.366 . S
C939 C938 1.366 . S
C939 C940 1.414 . S
C939 C942 1.499 . S
C940 H920 0.950 1_545 S
C940 C939 1.414 . S
C940 C941 1.374 . S
C941 H921 0.950 . S
C941 C937 1.385 . S
C941 C940 1.374 . S
C942 C939 1.499 . S
C942 C943 1.373 1_545 S
C942 C944 1.389 . S
C943 H922 0.950 . S
C943 C942 1.373 1_565 S
C943 C959 1.377 . S
C944 C942 1.389 . S
C944 C945 1.524 . S
C944 C958 1.377 . S
C945 C944 1.524 . S
C945 C946 1.397 . S
C945 C950 1.363 . S
C946 H923 0.950 . S
C946 C945 1.397 . S
C946 C947 1.334 . S
C947 H924 0.950 . S
C947 C946 1.334 . S
C947 C948 1.287 . S
C948 C947 1.287 . S
C948 C949 1.524 . S
C948 H967 0.913 . S
C949 H925 0.950 . S
C949 C948 1.524 . S
C949 C950 1.415 . S
C950 H926 0.950 . S
C950 C945 1.363 . S
C950 C949 1.415 . S
C951 H927 0.951 . S
C951 C952 1.366 . S
C951 C953 1.388 . S
C952 C951 1.366 . S
C952 C956 1.385 . S
C953 H928 0.951 . S
C953 C951 1.388 . S
C953 C954 1.366 . S
C954 C953 1.366 . S
C954 C955 1.414 . S
C954 C957 1.499 . S
C955 H929 0.950 1_565 S
C955 C954 1.414 . S
C955 C956 1.374 . S
C956 H930 0.950 . S
C956 C952 1.385 . S
C956 C955 1.374 . S
C957 C954 1.499 . S
C957 C958 1.373 1_565 S
C957 C959 1.389 . S
C958 H931 0.950 . S
C958 C944 1.377 . S
C958 C957 1.373 1_545 S
C959 C943 1.377 . S
C959 C957 1.389 . S
C959 C960 1.524 . S
C960 C959 1.524 . S
C960 C961 1.397 . S
C960 C965 1.363 . S
C961 H932 0.950 . S
C961 C960 1.397 . S
C961 C962 1.334 . S
C962 H933 0.950 . S
C962 C961 1.334 . S
C962 C963 1.287 . S
C963 C962 1.287 . S
C963 C964 1.524 . S
C963 H966 0.999 . S
C964 H934 0.950 . S
C964 C963 1.524 . S
C964 C965 1.415 . S
C965 H935 0.950 . S
C965 C960 1.363 . S
C965 C964 1.415 . S
H966 C963 0.999 . S
H967 C948 0.913 . S
H968 C986 0.951 . S
H969 C988 0.951 . S
H970 C990 0.950 . S
H971 C991 0.950 . S
H972 C993 0.950 . S
H973 C996 0.950 . S
H974 C997 0.950 . S
H975 C999 0.921 1_455 S
H976 C1000 0.950 . S
H977 C1001 0.951 . S
H978 C1003 0.951 . S
H979 C1005 0.950 . S
H980 C1006 0.950 . S
H981 C1008 0.950 . S
H982 C1011 0.950 . S
H983 C1012 0.950 . S
H984 C1014 0.921 1_655 S
H985 C1015 0.950 . S
C986 H968 0.951 . S
C986 C987 1.366 . S
C986 C988 1.388 . S
C987 C986 1.366 . S
C987 C991 1.385 . S
C988 H969 0.951 . S
C988 C986 1.388 . S
C988 C989 1.366 . S
C989 C988 1.366 . S
C989 C990 1.414 . S
C989 C992 1.499 . S
C990 H970 0.950 . S
C990 C989 1.414 . S
C990 C991 1.374 . S
C991 H971 0.950 . S
C991 C987 1.385 . S
C991 C990 1.374 . S
C992 C989 1.499 . S
C992 C993 1.373 . S
C992 C994 1.389 . S
C993 H972 0.950 . S
C993 C992 1.373 . S
C993 C1009 1.377 1_655 S
C994 C992 1.389 . S
C994 C995 1.524 . S
C994 C1008 1.377 1_655 S
C995 C994 1.524 . S
C995 C996 1.397 . S
C995 C1000 1.363 1_655 S
C996 H973 0.950 . S
C996 C995 1.397 . S
C996 C997 1.334 . S
C997 H974 0.950 . S
C997 C996 1.334 . S
C997 C998 1.287 . S
C998 C997 1.287 . S
C998 C999 1.569 . S
C998 H1017 0.913 . S
C999 H975 0.921 1_655 S
C999 C998 1.569 . S
C999 C1000 1.406 1_655 S
C1000 H976 0.950 . S
C1000 C995 1.363 1_455 S
C1000 C999 1.406 1_455 S
C1001 H977 0.951 . S
C1001 C1002 1.366 . S
C1001 C1003 1.388 . S
C1002 C1001 1.366 . S
C1002 C1006 1.385 . S
C1003 H978 0.951 . S
C1003 C1001 1.388 . S
C1003 C1004 1.366 . S
C1004 C1003 1.366 . S
C1004 C1005 1.414 . S
C1004 C1007 1.499 . S
C1005 H979 0.950 . S
C1005 C1004 1.414 . S
C1005 C1006 1.374 . S
C1006 H980 0.950 . S
C1006 C1002 1.385 . S
C1006 C1005 1.374 . S
C1007 C1004 1.499 . S
C1007 C1008 1.373 . S
C1007 C1009 1.389 . S
C1008 H981 0.950 . S
C1008 C994 1.377 1_455 S
C1008 C1007 1.373 . S
C1009 C993 1.377 1_455 S
C1009 C1007 1.389 . S
C1009 C1010 1.524 . S
C1010 C1009 1.524 . S
C1010 C1011 1.397 . S
C1010 C1015 1.363 1_455 S
C1011 H982 0.950 . S
C1011 C1010 1.397 . S
C1011 C1012 1.334 . S
C1012 H983 0.950 . S
C1012 C1011 1.334 . S
C1012 C1013 1.287 . S
C1013 C1012 1.287 . S
C1013 C1014 1.568 . S
C1013 H1016 0.999 . S
C1014 H984 0.921 1_455 S
C1014 C1013 1.568 . S
C1014 C1015 1.406 1_455 S
C1015 H985 0.950 . S
C1015 C1010 1.363 1_655 S
C1015 C1014 1.406 1_655 S
H1016 C1013 0.999 . S
H1017 C998 0.913 . S
H1018 C1036 0.951 . S
H1019 C1038 0.951 . S
H1020 C1040 0.950 . S
H1021 C1041 0.950 . S
H1022 C1043 0.950 . S
H1023 C1046 0.950 . S
H1024 C1047 0.950 . S
H1025 C1049 0.950 . S
H1026 C1050 0.950 . S
H1027 C1051 0.951 . S
H1028 C1053 0.951 . S
H1029 C1055 0.950 . S
H1030 C1056 0.950 . S
H1031 C1058 0.950 . S
H1032 C1061 0.950 . S
H1033 C1062 0.950 . S
H1034 C1064 0.950 . S
H1035 C1065 0.950 . S
C1036 H1018 0.951 . S
C1036 C1037 1.366 . S
C1036 C1038 1.388 . S
C1037 C1036 1.366 . S
C1037 C1041 1.385 . S
C1038 H1019 0.951 . S
C1038 C1036 1.388 . S
C1038 C1039 1.366 . S
C1039 C1038 1.366 . S
C1039 C1040 1.414 . S
C1039 C1042 1.499 . S
C1040 H1020 0.950 . S
C1040 C1039 1.414 . S
C1040 C1041 1.374 . S
C1041 H1021 0.950 . S
C1041 C1037 1.385 . S
C1041 C1040 1.374 . S
C1042 C1039 1.499 . S
C1042 C1043 1.373 . S
C1042 C1044 1.389 . S
C1043 H1022 0.950 . S
C1043 C1042 1.373 . S
C1043 C1059 1.377 1_455 S
C1044 C1042 1.389 . S
C1044 C1045 1.524 . S
C1044 C1058 1.377 1_455 S
C1045 C1044 1.524 . S
C1045 C1046 1.397 . S
C1045 C1050 1.363 . S
C1046 H1023 0.950 . S
C1046 C1045 1.397 . S
C1046 C1047 1.334 . S
C1047 H1024 0.950 . S
C1047 C1046 1.334 . S
C1047 C1048 1.287 . S
C1048 C1047 1.287 . S
C1048 C1049 1.524 . S
C1048 H1067 0.913 . S
C1049 H1025 0.950 . S
C1049 C1048 1.524 . S
C1049 C1050 1.415 . S
C1050 H1026 0.950 . S
C1050 C1045 1.363 . S
C1050 C1049 1.415 . S
C1051 H1027 0.951 . S
C1051 C1052 1.366 . S
C1051 C1053 1.388 . S
C1052 C1051 1.366 . S
C1052 C1056 1.385 . S
C1053 H1028 0.951 . S
C1053 C1051 1.388 . S
C1053 C1054 1.366 . S
C1054 C1053 1.366 . S
C1054 C1055 1.414 . S
C1054 C1057 1.499 . S
C1055 H1029 0.950 . S
C1055 C1054 1.414 . S
C1055 C1056 1.374 . S
C1056 H1030 0.950 . S
C1056 C1052 1.385 . S
C1056 C1055 1.374 . S
C1057 C1054 1.499 . S
C1057 C1058 1.373 . S
C1057 C1059 1.389 . S
C1058 H1031 0.950 . S
C1058 C1044 1.377 1_655 S
C1058 C1057 1.373 . S
C1059 C1043 1.377 1_655 S
C1059 C1057 1.389 . S
C1059 C1060 1.524 . S
C1060 C1059 1.524 . S
C1060 C1061 1.397 . S
C1060 C1065 1.363 . S
C1061 H1032 0.950 . S
C1061 C1060 1.397 . S
C1061 C1062 1.334 . S
C1062 H1033 0.950 . S
C1062 C1061 1.334 . S
C1062 C1063 1.287 . S
C1063 C1062 1.287 . S
C1063 C1064 1.524 . S
C1063 H1066 0.999 . S
C1064 H1034 0.950 . S
C1064 C1063 1.524 . S
C1064 C1065 1.415 . S
C1065 H1035 0.950 . S
C1065 C1060 1.363 . S
C1065 C1064 1.415 . S
H1066 C1063 0.999 . S
H1067 C1048 0.913 . S
H1068 C1086 0.951 . S
H1069 C1088 0.951 . S
H1070 C1090 0.950 . S
H1071 C1091 0.950 . S
H1072 C1093 0.950 . S
H1073 C1096 0.950 . S
H1074 C1097 0.950 . S
H1075 C1099 0.950 . S
H1076 C1100 0.950 . S
H1077 C1101 0.951 . S
H1078 C1103 0.951 . S
H1079 C1105 0.950 . S
H1080 C1106 0.950 . S
H1081 C1108 0.950 . S
H1082 C1111 0.950 . S
H1083 C1112 0.950 . S
H1084 C1114 0.950 . S
H1085 C1115 0.950 . S
C1086 H1068 0.951 . S
C1086 C1087 1.366 . S
C1086 C1088 1.388 . S
C1087 C1086 1.366 . S
C1087 C1091 1.385 . S
C1088 H1069 0.951 . S
C1088 C1086 1.388 . S
C1088 C1089 1.366 . S
C1089 C1088 1.366 . S
C1089 C1090 1.414 . S
C1089 C1092 1.499 . S
C1090 H1070 0.950 . S
C1090 C1089 1.414 . S
C1090 C1091 1.374 . S
C1091 H1071 0.950 . S
C1091 C1087 1.385 . S
C1091 C1090 1.374 . S
C1092 C1089 1.499 . S
C1092 C1093 1.373 . S
C1092 C1094 1.389 . S
C1093 H1072 0.950 . S
C1093 C1092 1.373 . S
C1093 C1109 1.377 1_655 S
C1094 C1092 1.389 . S
C1094 C1095 1.524 . S
C1094 C1108 1.377 1_655 S
C1095 C1094 1.524 . S
C1095 C1096 1.397 . S
C1095 C1100 1.363 . S
C1096 H1073 0.950 . S
C1096 C1095 1.397 . S
C1096 C1097 1.334 . S
C1097 H1074 0.950 . S
C1097 C1096 1.334 . S
C1097 C1098 1.287 . S
C1098 C1097 1.287 . S
C1098 C1099 1.524 . S
C1098 H1117 0.913 . S
C1099 H1075 0.950 . S
C1099 C1098 1.524 . S
C1099 C1100 1.415 . S
C1100 H1076 0.950 . S
C1100 C1095 1.363 . S
C1100 C1099 1.415 . S
C1101 H1077 0.951 . S
C1101 C1102 1.366 . S
C1101 C1103 1.388 . S
C1102 C1101 1.366 . S
C1102 C1106 1.385 . S
C1103 H1078 0.951 . S
C1103 C1101 1.388 . S
C1103 C1104 1.366 . S
C1104 C1103 1.366 . S
C1104 C1105 1.414 . S
C1104 C1107 1.499 . S
C1105 H1079 0.950 . S
C1105 C1104 1.414 . S
C1105 C1106 1.374 . S
C1106 H1080 0.950 . S
C1106 C1102 1.385 . S
C1106 C1105 1.374 . S
C1107 C1104 1.499 . S
C1107 C1108 1.373 . S
C1107 C1109 1.389 . S
C1108 H1081 0.950 . S
C1108 C1094 1.377 1_455 S
C1108 C1107 1.373 . S
C1109 C1093 1.377 1_455 S
C1109 C1107 1.389 . S
C1109 C1110 1.524 . S
C1110 C1109 1.524 . S
C1110 C1111 1.397 . S
C1110 C1115 1.363 . S
C1111 H1082 0.950 . S
C1111 C1110 1.397 . S
C1111 C1112 1.334 . S
C1112 H1083 0.950 . S
C1112 C1111 1.334 . S
C1112 C1113 1.287 . S
C1113 C1112 1.287 . S
C1113 C1114 1.524 . S
C1113 H1116 0.999 . S
C1114 H1084 0.950 . S
C1114 C1113 1.524 . S
C1114 C1115 1.415 . S
C1115 H1085 0.950 . S
C1115 C1110 1.363 . S
C1115 C1114 1.415 . S
H1116 C1113 0.999 . S
H1117 C1098 0.913 . S
H1118 C1136 0.951 . S
H1119 C1138 0.951 . S
H1120 C1140 0.950 . S
H1121 C1141 0.950 . S
H1122 C1143 0.950 . S
H1123 C1146 0.950 . S
H1124 C1147 0.950 . S
H1125 C1149 0.950 . S
H1126 C1150 0.950 . S
H1127 C1151 0.951 . S
H1128 C1153 0.951 . S
H1129 C1155 0.950 . S
H1130 C1156 0.950 . S
H1131 C1158 0.950 . S
H1132 C1161 0.950 . S
H1133 C1162 0.950 . S
H1134 C1164 0.950 . S
H1135 C1165 0.950 . S
C1136 H1118 0.951 . S
C1136 C1137 1.366 . S
C1136 C1138 1.388 . S
C1137 C1136 1.366 . S
C1137 C1141 1.385 . S
C1138 H1119 0.951 . S
C1138 C1136 1.388 . S
C1138 C1139 1.366 . S
C1139 C1138 1.366 . S
C1139 C1140 1.414 . S
C1139 C1142 1.499 . S
C1140 H1120 0.950 . S
C1140 C1139 1.414 . S
C1140 C1141 1.374 . S
C1141 H1121 0.950 . S
C1141 C1137 1.385 . S
C1141 C1140 1.374 . S
C1142 C1139 1.499 . S
C1142 C1143 1.373 . S
C1142 C1144 1.389 . S
C1143 H1122 0.950 . S
C1143 C1142 1.373 . S
C1143 C1159 1.377 1_455 S
C1144 C1142 1.389 . S
C1144 C1145 1.524 . S
C1144 C1158 1.377 1_455 S
C1145 C1144 1.524 . S
C1145 C1146 1.397 . S
C1145 C1150 1.363 . S
C1146 H1123 0.950 . S
C1146 C1145 1.397 . S
C1146 C1147 1.334 . S
C1147 H1124 0.950 . S
C1147 C1146 1.334 . S
C1147 C1148 1.287 . S
C1148 C1147 1.287 . S
C1148 C1149 1.524 . S
C1148 H1167 0.913 . S
C1149 H1125 0.950 . S
C1149 C1148 1.524 . S
C1149 C1150 1.415 . S
C1150 H1126 0.950 . S
C1150 C1145 1.363 . S
C1150 C1149 1.415 . S
C1151 H1127 0.951 . S
C1151 C1152 1.366 . S
C1151 C1153 1.388 . S
C1152 C1151 1.366 . S
C1152 C1156 1.385 . S
C1153 H1128 0.951 . S
C1153 C1151 1.388 . S
C1153 C1154 1.366 . S
C1154 C1153 1.366 . S
C1154 C1155 1.414 . S
C1154 C1157 1.499 . S
C1155 H1129 0.950 . S
C1155 C1154 1.414 . S
C1155 C1156 1.374 . S
C1156 H1130 0.950 . S
C1156 C1152 1.385 . S
C1156 C1155 1.374 . S
C1157 C1154 1.499 . S
C1157 C1158 1.373 . S
C1157 C1159 1.389 . S
C1158 H1131 0.950 . S
C1158 C1144 1.377 1_655 S
C1158 C1157 1.373 . S
C1159 C1143 1.377 1_655 S
C1159 C1157 1.389 . S
C1159 C1160 1.524 . S
C1160 C1159 1.524 . S
C1160 C1161 1.397 . S
C1160 C1165 1.363 . S
C1161 H1132 0.950 . S
C1161 C1160 1.397 . S
C1161 C1162 1.334 . S
C1162 H1133 0.950 . S
C1162 C1161 1.334 . S
C1162 C1163 1.287 . S
C1163 C1162 1.287 . S
C1163 C1164 1.524 . S
C1163 H1166 0.999 . S
C1164 H1134 0.950 . S
C1164 C1163 1.524 . S
C1164 C1165 1.415 . S
C1165 H1135 0.950 . S
C1165 C1160 1.363 . S
C1165 C1164 1.415 . S
H1166 C1163 0.999 . S
H1167 C1148 0.913 . S
H1168 C1186 0.951 . S
H1169 C1188 0.951 . S
H1170 C1190 0.950 . S
H1171 C1191 0.950 . S
H1172 C1193 0.950 . S
H1173 C1196 0.950 . S
H1174 C1197 0.950 . S
H1175 C1199 0.950 . S
H1176 C1200 0.950 . S
H1177 C1201 0.951 . S
H1178 C1203 0.951 . S
H1179 C1205 0.950 . S
H1180 C1206 0.950 . S
H1181 C1208 0.950 . S
H1182 C1211 0.950 . S
H1183 C1212 0.950 . S
H1184 C1214 0.950 . S
H1185 C1215 0.950 . S
C1186 H1168 0.951 . S
C1186 C1187 1.366 . S
C1186 C1188 1.388 . S
C1187 C1186 1.366 . S
C1187 C1191 1.385 . S
C1188 H1169 0.951 . S
C1188 C1186 1.388 . S
C1188 C1189 1.366 . S
C1189 C1188 1.366 . S
C1189 C1190 1.414 . S
C1189 C1192 1.499 . S
C1190 H1170 0.950 . S
C1190 C1189 1.414 . S
C1190 C1191 1.374 . S
C1191 H1171 0.950 . S
C1191 C1187 1.385 . S
C1191 C1190 1.374 . S
C1192 C1189 1.499 . S
C1192 C1193 1.373 . S
C1192 C1194 1.389 . S
C1193 H1172 0.950 . S
C1193 C1192 1.373 . S
C1193 C1209 1.377 . S
C1194 C1192 1.389 . S
C1194 C1195 1.524 . S
C1194 C1208 1.377 . S
C1195 C1194 1.524 . S
C1195 C1196 1.397 . S
C1195 C1200 1.363 . S
C1196 H1173 0.950 . S
C1196 C1195 1.397 . S
C1196 C1197 1.334 . S
C1197 H1174 0.950 . S
C1197 C1196 1.334 . S
C1197 C1198 1.287 . S
C1198 C1197 1.287 . S
C1198 C1199 1.524 . S
C1198 H1217 0.913 . S
C1199 H1175 0.950 . S
C1199 C1198 1.524 . S
C1199 C1200 1.415 . S
C1200 H1176 0.950 . S
C1200 C1195 1.363 . S
C1200 C1199 1.415 . S
C1201 H1177 0.951 . S
C1201 C1202 1.366 . S
C1201 C1203 1.388 . S
C1202 C1201 1.366 . S
C1202 C1206 1.385 . S
C1203 H1178 0.951 . S
C1203 C1201 1.388 . S
C1203 C1204 1.366 . S
C1204 C1203 1.366 . S
C1204 C1205 1.414 . S
C1204 C1207 1.499 . S
C1205 H1179 0.950 . S
C1205 C1204 1.414 . S
C1205 C1206 1.374 . S
C1206 H1180 0.950 . S
C1206 C1202 1.385 . S
C1206 C1205 1.374 . S
C1207 C1204 1.499 . S
C1207 C1208 1.373 . S
C1207 C1209 1.389 . S
C1208 H1181 0.950 . S
C1208 C1194 1.377 . S
C1208 C1207 1.373 . S
C1209 C1193 1.377 . S
C1209 C1207 1.389 . S
C1209 C1210 1.524 . S
C1210 C1209 1.524 . S
C1210 C1211 1.397 . S
C1210 C1215 1.363 . S
C1211 H1182 0.950 . S
C1211 C1210 1.397 . S
C1211 C1212 1.334 . S
C1212 H1183 0.950 . S
C1212 C1211 1.334 . S
C1212 C1213 1.287 . S
C1213 C1212 1.287 . S
C1213 C1214 1.524 . S
C1213 H1216 0.999 . S
C1214 H1184 0.950 . S
C1214 C1213 1.524 . S
C1214 C1215 1.415 . S
C1215 H1185 0.950 . S
C1215 C1210 1.363 . S
C1215 C1214 1.415 . S
H1216 C1213 0.999 . S
H1217 C1198 0.913 . S
H1218 C1236 0.951 . S
H1219 C1238 0.951 . S
H1220 C1240 0.950 . S
H1221 C1241 0.950 . S
H1222 C1243 0.950 . S
H1223 C1246 0.950 . S
H1224 C1247 0.950 . S
H1225 C1249 0.950 . S
H1226 C1250 0.950 . S
H1227 C1251 0.951 . S
H1228 C1253 0.951 . S
H1229 C1255 0.950 . S
H1230 C1256 0.950 . S
H1231 C1258 0.950 . S
H1232 C1261 0.950 . S
H1233 C1262 0.950 . S
H1234 C1264 0.950 . S
H1235 C1265 0.950 . S
C1236 H1218 0.951 . S
C1236 C1237 1.366 . S
C1236 C1238 1.388 . S
C1237 C1236 1.366 . S
C1237 C1241 1.385 . S
C1238 H1219 0.951 . S
C1238 C1236 1.388 . S
C1238 C1239 1.366 . S
C1239 C1238 1.366 . S
C1239 C1240 1.414 . S
C1239 C1242 1.499 . S
C1240 H1220 0.950 . S
C1240 C1239 1.414 . S
C1240 C1241 1.374 . S
C1241 H1221 0.950 . S
C1241 C1237 1.385 . S
C1241 C1240 1.374 . S
C1242 C1239 1.499 . S
C1242 C1243 1.373 . S
C1242 C1244 1.389 . S
C1243 H1222 0.950 . S
C1243 C1242 1.373 . S
C1243 C1259 1.377 . S
C1244 C1242 1.389 . S
C1244 C1245 1.524 . S
C1244 C1258 1.377 . S
C1245 C1244 1.524 . S
C1245 C1246 1.397 . S
C1245 C1250 1.363 . S
C1246 H1223 0.950 . S
C1246 C1245 1.397 . S
C1246 C1247 1.334 . S
C1247 H1224 0.950 . S
C1247 C1246 1.334 . S
C1247 C1248 1.287 . S
C1248 C1247 1.287 . S
C1248 C1249 1.524 . S
C1248 H1267 0.913 . S
C1249 H1225 0.950 . S
C1249 C1248 1.524 . S
C1249 C1250 1.415 . S
C1250 H1226 0.950 . S
C1250 C1245 1.363 . S
C1250 C1249 1.415 . S
C1251 H1227 0.951 . S
C1251 C1252 1.366 . S
C1251 C1253 1.388 . S
C1252 C1251 1.366 . S
C1252 C1256 1.385 . S
C1253 H1228 0.951 . S
C1253 C1251 1.388 . S
C1253 C1254 1.366 . S
C1254 C1253 1.366 . S
C1254 C1255 1.414 . S
C1254 C1257 1.499 . S
C1255 H1229 0.950 . S
C1255 C1254 1.414 . S
C1255 C1256 1.374 . S
C1256 H1230 0.950 . S
C1256 C1252 1.385 . S
C1256 C1255 1.374 . S
C1257 C1254 1.499 . S
C1257 C1258 1.373 . S
C1257 C1259 1.389 . S
C1258 H1231 0.950 . S
C1258 C1244 1.377 . S
C1258 C1257 1.373 . S
C1259 C1243 1.377 . S
C1259 C1257 1.389 . S
C1259 C1260 1.524 . S
C1260 C1259 1.524 . S
C1260 C1261 1.397 . S
C1260 C1265 1.363 . S
C1261 H1232 0.950 . S
C1261 C1260 1.397 . S
C1261 C1262 1.334 . S
C1262 H1233 0.950 . S
C1262 C1261 1.334 . S
C1262 C1263 1.287 . S
C1263 C1262 1.287 . S
C1263 C1264 1.524 . S
C1263 H1266 0.999 . S
C1264 H1234 0.950 . S
C1264 C1263 1.524 . S
C1264 C1265 1.415 . S
C1265 H1235 0.950 . S
C1265 C1260 1.363 . S
C1265 C1264 1.415 . S
H1266 C1263 0.999 . S
H1267 C1248 0.913 . S
H1268 C1286 0.951 . S
H1269 C1288 0.951 . S
H1270 C1290 0.950 . S
H1271 C1291 0.950 . S
H1272 C1293 0.950 . S
H1273 C1296 0.950 . S
H1274 C1297 0.950 . S
H1275 C1299 0.950 . S
H1276 C1300 0.950 . S
H1277 C1301 0.951 . S
H1278 C1303 0.951 . S
H1279 C1305 0.950 . S
H1280 C1306 0.950 . S
H1281 C1308 0.950 . S
H1282 C1311 0.950 . S
H1283 C1312 0.950 . S
H1284 C1314 0.950 . S
H1285 C1315 0.950 . S
C1286 H1268 0.951 . S
C1286 C1287 1.366 . S
C1286 C1288 1.388 . S
C1287 C1286 1.366 . S
C1287 C1291 1.385 . S
C1288 H1269 0.951 . S
C1288 C1286 1.388 . S
C1288 C1289 1.366 . S
C1289 C1288 1.366 . S
C1289 C1290 1.414 . S
C1289 C1292 1.499 . S
C1290 H1270 0.950 . S
C1290 C1289 1.414 . S
C1290 C1291 1.374 . S
C1291 H1271 0.950 . S
C1291 C1287 1.385 . S
C1291 C1290 1.374 . S
C1292 C1289 1.499 . S
C1292 C1293 1.373 . S
C1292 C1294 1.389 . S
C1293 H1272 0.950 . S
C1293 C1292 1.373 . S
C1293 C1309 1.377 . S
C1294 C1292 1.389 . S
C1294 C1295 1.524 . S
C1294 C1308 1.377 . S
C1295 C1294 1.524 . S
C1295 C1296 1.397 . S
C1295 C1300 1.363 . S
C1296 H1273 0.950 . S
C1296 C1295 1.397 . S
C1296 C1297 1.334 . S
C1297 H1274 0.950 . S
C1297 C1296 1.334 . S
C1297 C1298 1.287 . S
C1298 C1297 1.287 . S
C1298 C1299 1.524 . S
C1298 H1317 0.913 . S
C1299 H1275 0.950 . S
C1299 C1298 1.524 . S
C1299 C1300 1.415 . S
C1300 H1276 0.950 . S
C1300 C1295 1.363 . S
C1300 C1299 1.415 . S
C1301 H1277 0.951 . S
C1301 C1302 1.366 . S
C1301 C1303 1.388 . S
C1302 C1301 1.366 . S
C1302 C1306 1.385 . S
C1303 H1278 0.951 . S
C1303 C1301 1.388 . S
C1303 C1304 1.366 . S
C1304 C1303 1.366 . S
C1304 C1305 1.414 . S
C1304 C1307 1.499 . S
C1305 H1279 0.950 . S
C1305 C1304 1.414 . S
C1305 C1306 1.374 . S
C1306 H1280 0.950 . S
C1306 C1302 1.385 . S
C1306 C1305 1.374 . S
C1307 C1304 1.499 . S
C1307 C1308 1.373 . S
C1307 C1309 1.389 . S
C1308 H1281 0.950 . S
C1308 C1294 1.377 . S
C1308 C1307 1.373 . S
C1309 C1293 1.377 . S
C1309 C1307 1.389 . S
C1309 C1310 1.524 . S
C1310 C1309 1.524 . S
C1310 C1311 1.397 . S
C1310 C1315 1.363 . S
C1311 H1282 0.950 . S
C1311 C1310 1.397 . S
C1311 C1312 1.334 . S
C1312 H1283 0.950 . S
C1312 C1311 1.334 . S
C1312 C1313 1.287 . S
C1313 C1312 1.287 . S
C1313 C1314 1.524 . S
C1313 H1316 0.999 . S
C1314 H1284 0.950 . S
C1314 C1313 1.524 . S
C1314 C1315 1.415 . S
C1315 H1285 0.950 . S
C1315 C1310 1.363 . S
C1315 C1314 1.415 . S
H1316 C1313 0.999 . S
H1317 C1298 0.913 . S
H1318 C1336 0.951 . S
H1319 C1338 0.951 . S
H1320 C1340 0.950 . S
H1321 C1341 0.950 . S
H1322 C1343 0.950 . S
H1323 C1346 0.950 . S
H1324 C1347 0.950 . S
H1325 C1349 0.950 . S
H1326 C1350 0.950 . S
H1327 C1351 0.951 . S
H1328 C1353 0.951 . S
H1329 C1355 0.950 . S
H1330 C1356 0.950 . S
H1331 C1358 0.950 . S
H1332 C1361 0.950 . S
H1333 C1362 0.950 . S
H1334 C1364 0.950 . S
H1335 C1365 0.950 . S
C1336 H1318 0.951 . S
C1336 C1337 1.366 . S
C1336 C1338 1.388 . S
C1337 C1336 1.366 . S
C1337 C1341 1.385 . S
C1338 H1319 0.951 . S
C1338 C1336 1.388 . S
C1338 C1339 1.366 . S
C1339 C1338 1.366 . S
C1339 C1340 1.414 . S
C1339 C1342 1.499 . S
C1340 H1320 0.950 . S
C1340 C1339 1.414 . S
C1340 C1341 1.374 . S
C1341 H1321 0.950 . S
C1341 C1337 1.385 . S
C1341 C1340 1.374 . S
C1342 C1339 1.499 . S
C1342 C1343 1.373 . S
C1342 C1344 1.389 . S
C1343 H1322 0.950 . S
C1343 C1342 1.373 . S
C1343 C1359 1.377 . S
C1344 C1342 1.389 . S
C1344 C1345 1.524 . S
C1344 C1358 1.377 . S
C1345 C1344 1.524 . S
C1345 C1346 1.397 . S
C1345 C1350 1.363 . S
C1346 H1323 0.950 . S
C1346 C1345 1.397 . S
C1346 C1347 1.334 . S
C1347 H1324 0.950 . S
C1347 C1346 1.334 . S
C1347 C1348 1.287 . S
C1348 C1347 1.287 . S
C1348 C1349 1.524 . S
C1348 H1367 0.913 . S
C1349 H1325 0.950 . S
C1349 C1348 1.524 . S
C1349 C1350 1.415 . S
C1350 H1326 0.950 . S
C1350 C1345 1.363 . S
C1350 C1349 1.415 . S
C1351 H1327 0.951 . S
C1351 C1352 1.366 . S
C1351 C1353 1.388 . S
C1352 C1351 1.366 . S
C1352 C1356 1.385 . S
C1353 H1328 0.951 . S
C1353 C1351 1.388 . S
C1353 C1354 1.366 . S
C1354 C1353 1.366 . S
C1354 C1355 1.414 . S
C1354 C1357 1.499 . S
C1355 H1329 0.950 . S
C1355 C1354 1.414 . S
C1355 C1356 1.374 . S
C1356 H1330 0.950 . S
C1356 C1352 1.385 . S
C1356 C1355 1.374 . S
C1357 C1354 1.499 . S
C1357 C1358 1.373 . S
C1357 C1359 1.389 . S
C1358 H1331 0.950 . S
C1358 C1344 1.377 . S
C1358 C1357 1.373 . S
C1359 C1343 1.377 . S
C1359 C1357 1.389 . S
C1359 C1360 1.524 . S
C1360 C1359 1.524 . S
C1360 C1361 1.397 . S
C1360 C1365 1.363 . S
C1361 H1332 0.950 . S
C1361 C1360 1.397 . S
C1361 C1362 1.334 . S
C1362 H1333 0.950 . S
C1362 C1361 1.334 . S
C1362 C1363 1.287 . S
C1363 C1362 1.287 . S
C1363 C1364 1.524 . S
C1363 H1366 0.999 . S
C1364 H1334 0.950 . S
C1364 C1363 1.524 . S
C1364 C1365 1.415 . S
C1365 H1335 0.950 . S
C1365 C1360 1.363 . S
C1365 C1364 1.415 . S
H1366 C1363 0.999 . S
H1367 C1348 0.913 . S
H1368 C1386 0.951 . S
H1369 C1388 0.951 . S
H1370 C1390 0.950 . S
H1371 C1391 0.950 . S
H1372 C1393 0.950 . S
H1373 C1396 0.950 . S
H1374 C1397 0.950 . S
H1375 C1399 0.950 . S
H1376 C1400 0.950 . S
H1377 C1401 0.951 . S
H1378 C1403 0.951 . S
H1379 C1405 0.950 . S
H1380 C1406 0.950 . S
H1381 C1408 0.950 . S
H1382 C1411 0.950 . S
H1383 C1412 0.950 . S
H1384 C1414 0.950 . S
H1385 C1415 0.950 . S
C1386 H1368 0.951 . S
C1386 C1387 1.366 . S
C1386 C1388 1.388 . S
C1387 C1386 1.366 . S
C1387 C1391 1.385 . S
C1388 H1369 0.951 . S
C1388 C1386 1.388 . S
C1388 C1389 1.366 . S
C1389 C1388 1.366 . S
C1389 C1390 1.414 . S
C1389 C1392 1.499 . S
C1390 H1370 0.950 . S
C1390 C1389 1.414 . S
C1390 C1391 1.374 . S
C1391 H1371 0.950 . S
C1391 C1387 1.385 . S
C1391 C1390 1.374 . S
C1392 C1389 1.499 . S
C1392 C1393 1.373 . S
C1392 C1394 1.389 . S
C1393 H1372 0.950 . S
C1393 C1392 1.373 . S
C1393 C1409 1.377 . S
C1394 C1392 1.389 . S
C1394 C1395 1.524 . S
C1394 C1408 1.377 . S
C1395 C1394 1.524 . S
C1395 C1396 1.397 . S
C1395 C1400 1.363 . S
C1396 H1373 0.950 . S
C1396 C1395 1.397 . S
C1396 C1397 1.334 . S
C1397 H1374 0.950 . S
C1397 C1396 1.334 . S
C1397 C1398 1.287 . S
C1398 C1397 1.287 . S
C1398 C1399 1.524 . S
C1398 H1417 0.913 . S
C1399 H1375 0.950 . S
C1399 C1398 1.524 . S
C1399 C1400 1.415 . S
C1400 H1376 0.950 . S
C1400 C1395 1.363 . S
C1400 C1399 1.415 . S
C1401 H1377 0.951 . S
C1401 C1402 1.366 . S
C1401 C1403 1.388 . S
C1402 C1401 1.366 . S
C1402 C1406 1.385 . S
C1403 H1378 0.951 . S
C1403 C1401 1.388 . S
C1403 C1404 1.366 . S
C1404 C1403 1.366 . S
C1404 C1405 1.414 . S
C1404 C1407 1.499 . S
C1405 H1379 0.950 . S
C1405 C1404 1.414 . S
C1405 C1406 1.374 . S
C1406 H1380 0.950 . S
C1406 C1402 1.385 . S
C1406 C1405 1.374 . S
C1407 C1404 1.499 . S
C1407 C1408 1.373 . S
C1407 C1409 1.389 . S
C1408 H1381 0.950 . S
C1408 C1394 1.377 . S
C1408 C1407 1.373 . S
C1409 C1393 1.377 . S
C1409 C1407 1.389 . S
C1409 C1410 1.524 . S
C1410 C1409 1.524 . S
C1410 C1411 1.397 . S
C1410 C1415 1.363 . S
C1411 H1382 0.950 . S
C1411 C1410 1.397 . S
C1411 C1412 1.334 . S
C1412 H1383 0.950 . S
C1412 C1411 1.334 . S
C1412 C1413 1.287 . S
C1413 C1412 1.287 . S
C1413 C1414 1.524 . S
C1413 H1416 0.999 . S
C1414 H1384 0.950 . S
C1414 C1413 1.524 . S
C1414 C1415 1.415 . S
C1415 H1385 0.950 . S
C1415 C1410 1.363 . S
C1415 C1414 1.415 . S
H1416 C1413 0.999 . S
H1417 C1398 0.913 . S
H1418 C1436 0.951 . S
H1419 C1438 0.951 . S
H1420 C1440 0.950 . S
H1421 C1441 0.950 . S
H1422 C1443 0.950 . S
H1423 C1446 0.950 . S
H1424 C1447 0.950 . S
H1425 C1449 0.950 . S
H1426 C1450 0.950 . S
H1427 C1451 0.951 . S
H1428 C1453 0.951 . S
H1429 C1455 0.950 . S
H1430 C1456 0.950 . S
H1431 C1458 0.950 . S
H1432 C1461 0.950 . S
H1433 C1462 0.950 . S
H1434 C1464 0.950 . S
H1435 C1465 0.950 . S
C1436 H1418 0.951 . S
C1436 C1437 1.366 . S
C1436 C1438 1.388 . S
C1437 C1436 1.366 . S
C1437 C1441 1.385 . S
C1438 H1419 0.951 . S
C1438 C1436 1.388 . S
C1438 C1439 1.366 . S
C1439 C1438 1.366 . S
C1439 C1440 1.414 . S
C1439 C1442 1.499 . S
C1440 H1420 0.950 . S
C1440 C1439 1.414 . S
C1440 C1441 1.374 . S
C1441 H1421 0.950 . S
C1441 C1437 1.385 . S
C1441 C1440 1.374 . S
C1442 C1439 1.499 . S
C1442 C1443 1.373 . S
C1442 C1444 1.389 . S
C1443 H1422 0.950 . S
C1443 C1442 1.373 . S
C1443 C1459 1.377 . S
C1444 C1442 1.389 . S
C1444 C1445 1.524 . S
C1444 C1458 1.377 . S
C1445 C1444 1.524 . S
C1445 C1446 1.397 . S
C1445 C1450 1.363 . S
C1446 H1423 0.950 . S
C1446 C1445 1.397 . S
C1446 C1447 1.334 . S
C1447 H1424 0.950 . S
C1447 C1446 1.334 . S
C1447 C1448 1.287 . S
C1448 C1447 1.287 . S
C1448 C1449 1.524 . S
C1448 H1467 0.913 . S
C1449 H1425 0.950 . S
C1449 C1448 1.524 . S
C1449 C1450 1.415 . S
C1450 H1426 0.950 . S
C1450 C1445 1.363 . S
C1450 C1449 1.415 . S
C1451 H1427 0.951 . S
C1451 C1452 1.366 . S
C1451 C1453 1.388 . S
C1452 C1451 1.366 . S
C1452 C1456 1.385 . S
C1453 H1428 0.951 . S
C1453 C1451 1.388 . S
C1453 C1454 1.366 . S
C1454 C1453 1.366 . S
C1454 C1455 1.414 . S
C1454 C1457 1.499 . S
C1455 H1429 0.950 . S
C1455 C1454 1.414 . S
C1455 C1456 1.374 . S
C1456 H1430 0.950 . S
C1456 C1452 1.385 . S
C1456 C1455 1.374 . S
C1457 C1454 1.499 . S
C1457 C1458 1.373 . S
C1457 C1459 1.389 . S
C1458 H1431 0.950 . S
C1458 C1444 1.377 . S
C1458 C1457 1.373 . S
C1459 C1443 1.377 . S
C1459 C1457 1.389 . S
C1459 C1460 1.524 . S
C1460 C1459 1.524 . S
C1460 C1461 1.397 . S
C1460 C1465 1.363 . S
C1461 H1432 0.950 . S
C1461 C1460 1.397 . S
C1461 C1462 1.334 . S
C1462 H1433 0.950 . S
C1462 C1461 1.334 . S
C1462 C1463 1.287 . S
C1463 C1462 1.287 . S
C1463 C1464 1.524 . S
C1463 H1466 0.999 . S
C1464 H1434 0.950 . S
C1464 C1463 1.524 . S
C1464 C1465 1.415 . S
C1465 H1435 0.950 . S
C1465 C1460 1.363 . S
C1465 C1464 1.415 . S
H1466 C1463 0.999 . S
H1467 C1448 0.913 . S
H1468 C1486 0.951 . S
H1469 C1488 0.951 . S
H1470 C1490 0.950 . S
H1471 C1491 0.950 . S
H1472 C1493 0.950 . S
H1473 C1496 0.950 . S
H1474 C1497 0.950 . S
H1475 C1499 0.950 . S
H1476 C1500 0.950 . S
H1477 C1501 0.951 . S
H1478 C1503 0.951 . S
H1479 C1505 0.950 . S
H1480 C1506 0.950 . S
H1481 C1508 0.950 . S
H1482 C1511 0.950 . S
H1483 C1512 0.950 . S
H1484 C1514 0.950 . S
H1485 C1515 0.950 . S
C1486 H1468 0.951 . S
C1486 C1487 1.366 . S
C1486 C1488 1.388 . S
C1487 C1486 1.366 . S
C1487 C1491 1.385 . S
C1488 H1469 0.951 . S
C1488 C1486 1.388 . S
C1488 C1489 1.366 . S
C1489 C1488 1.366 . S
C1489 C1490 1.414 . S
C1489 C1492 1.499 . S
C1490 H1470 0.950 . S
C1490 C1489 1.414 . S
C1490 C1491 1.374 . S
C1491 H1471 0.950 . S
C1491 C1487 1.385 . S
C1491 C1490 1.374 . S
C1492 C1489 1.499 . S
C1492 C1493 1.373 . S
C1492 C1494 1.389 . S
C1493 H1472 0.950 . S
C1493 C1492 1.373 . S
C1493 C1509 1.377 . S
C1494 C1492 1.389 . S
C1494 C1495 1.524 . S
C1494 C1508 1.377 . S
C1495 C1494 1.524 . S
C1495 C1496 1.397 . S
C1495 C1500 1.363 . S
C1496 H1473 0.950 . S
C1496 C1495 1.397 . S
C1496 C1497 1.334 . S
C1497 H1474 0.950 . S
C1497 C1496 1.334 . S
C1497 C1498 1.287 . S
C1498 C1497 1.287 . S
C1498 C1499 1.524 . S
C1498 H1517 0.913 . S
C1499 H1475 0.950 . S
C1499 C1498 1.524 . S
C1499 C1500 1.415 . S
C1500 H1476 0.950 . S
C1500 C1495 1.363 . S
C1500 C1499 1.415 . S
C1501 H1477 0.951 . S
C1501 C1502 1.366 . S
C1501 C1503 1.388 . S
C1502 C1501 1.366 . S
C1502 C1506 1.385 . S
C1503 H1478 0.951 . S
C1503 C1501 1.388 . S
C1503 C1504 1.366 . S
C1504 C1503 1.366 . S
C1504 C1505 1.414 . S
C1504 C1507 1.499 . S
C1505 H1479 0.950 . S
C1505 C1504 1.414 . S
C1505 C1506 1.374 . S
C1506 H1480 0.950 . S
C1506 C1502 1.385 . S
C1506 C1505 1.374 . S
C1507 C1504 1.499 . S
C1507 C1508 1.373 . S
C1507 C1509 1.389 . S
C1508 H1481 0.950 . S
C1508 C1494 1.377 . S
C1508 C1507 1.373 . S
C1509 C1493 1.377 . S
C1509 C1507 1.389 . S
C1509 C1510 1.524 . S
C1510 C1509 1.524 . S
C1510 C1511 1.397 . S
C1510 C1515 1.363 . S
C1511 H1482 0.950 . S
C1511 C1510 1.397 . S
C1511 C1512 1.334 . S
C1512 H1483 0.950 . S
C1512 C1511 1.334 . S
C1512 C1513 1.287 . S
C1513 C1512 1.287 . S
C1513 C1514 1.524 . S
C1513 H1516 0.999 . S
C1514 H1484 0.950 . S
C1514 C1513 1.524 . S
C1514 C1515 1.415 . S
C1515 H1485 0.950 . S
C1515 C1510 1.363 . S
C1515 C1514 1.415 . S
H1516 C1513 0.999 . S
H1517 C1498 0.913 . S
H1518 C1536 0.951 . S
H1519 C1538 0.951 . S
H1520 C1540 0.950 . S
H1521 C1541 0.950 . S
H1522 C1543 0.950 . S
H1523 C1546 0.950 . S
H1524 C1547 0.950 . S
H1525 C1549 0.950 . S
H1526 C1550 0.950 . S
H1527 C1551 0.951 . S
H1528 C1553 0.951 . S
H1529 C1555 0.950 . S
H1530 C1556 0.950 . S
H1531 C1558 0.950 . S
H1532 C1561 0.950 . S
H1533 C1562 0.950 . S
H1534 C1564 0.950 . S
H1535 C1565 0.950 . S
C1536 H1518 0.951 . S
C1536 C1537 1.366 . S
C1536 C1538 1.388 . S
C1537 C1536 1.366 . S
C1537 C1541 1.385 . S
C1538 H1519 0.951 . S
C1538 C1536 1.388 . S
C1538 C1539 1.366 . S
C1539 C1538 1.366 . S
C1539 C1540 1.414 . S
C1539 C1542 1.499 . S
C1540 H1520 0.950 . S
C1540 C1539 1.414 . S
C1540 C1541 1.374 . S
C1541 H1521 0.950 . S
C1541 C1537 1.385 . S
C1541 C1540 1.374 . S
C1542 C1539 1.499 . S
C1542 C1543 1.373 . S
C1542 C1544 1.389 . S
C1543 H1522 0.950 . S
C1543 C1542 1.373 . S
C1543 C1559 1.377 . S
C1544 C1542 1.389 . S
C1544 C1545 1.524 . S
C1544 C1558 1.377 . S
C1545 C1544 1.524 . S
C1545 C1546 1.397 . S
C1545 C1550 1.363 . S
C1546 H1523 0.950 . S
C1546 C1545 1.397 . S
C1546 C1547 1.334 . S
C1547 H1524 0.950 . S
C1547 C1546 1.334 . S
C1547 C1548 1.287 . S
C1548 C1547 1.287 . S
C1548 C1549 1.524 . S
C1548 H1567 0.913 . S
C1549 H1525 0.950 . S
C1549 C1548 1.524 . S
C1549 C1550 1.415 . S
C1550 H1526 0.950 . S
C1550 C1545 1.363 . S
C1550 C1549 1.415 . S
C1551 H1527 0.951 . S
C1551 C1552 1.366 . S
C1551 C1553 1.388 . S
C1552 C1551 1.366 . S
C1552 C1556 1.385 . S
C1553 H1528 0.951 . S
C1553 C1551 1.388 . S
C1553 C1554 1.366 . S
C1554 C1553 1.366 . S
C1554 C1555 1.414 . S
C1554 C1557 1.499 . S
C1555 H1529 0.950 . S
C1555 C1554 1.414 . S
C1555 C1556 1.374 . S
C1556 H1530 0.950 . S
C1556 C1552 1.385 . S
C1556 C1555 1.374 . S
C1557 C1554 1.499 . S
C1557 C1558 1.373 . S
C1557 C1559 1.389 . S
C1558 H1531 0.950 . S
C1558 C1544 1.377 . S
C1558 C1557 1.373 . S
C1559 C1543 1.377 . S
C1559 C1557 1.389 . S
C1559 C1560 1.524 . S
C1560 C1559 1.524 . S
C1560 C1561 1.397 . S
C1560 C1565 1.363 . S
C1561 H1532 0.950 . S
C1561 C1560 1.397 . S
C1561 C1562 1.334 . S
C1562 H1533 0.950 . S
C1562 C1561 1.334 . S
C1562 C1563 1.287 . S
C1563 C1562 1.287 . S
C1563 C1564 1.524 . S
C1563 H1566 0.999 . S
C1564 H1534 0.950 . S
C1564 C1563 1.524 . S
C1564 C1565 1.415 . S
C1565 H1535 0.950 . S
C1565 C1560 1.363 . S
C1565 C1564 1.415 . S
H1566 C1563 0.999 . S
H1567 C1548 0.913 . S
H1568 C1586 0.951 . S
H1569 C1588 0.951 . S
H1570 C1590 0.950 . S
H1571 C1591 0.950 . S
H1572 C1593 0.950 . S
H1573 C1596 0.950 1_545 S
H1574 C1597 0.950 . S
H1575 C1599 0.950 . S
H1576 C1600 0.950 . S
H1577 C1601 0.951 . S
H1578 C1603 0.951 . S
H1579 C1605 0.950 . S
H1580 C1606 0.950 . S
H1581 C1608 0.950 . S
H1582 C1611 0.950 1_565 S
H1583 C1612 0.950 . S
H1584 C1614 0.950 . S
H1585 C1615 0.950 . S
C1586 H1568 0.951 . S
C1586 C1587 1.366 . S
C1586 C1588 1.388 . S
C1587 C1586 1.366 . S
C1587 C1591 1.385 . S
C1588 H1569 0.951 . S
C1588 C1586 1.388 . S
C1588 C1589 1.366 . S
C1589 C1588 1.366 . S
C1589 C1590 1.414 . S
C1589 C1592 1.499 . S
C1590 H1570 0.950 . S
C1590 C1589 1.414 . S
C1590 C1591 1.374 . S
C1591 H1571 0.950 . S
C1591 C1587 1.385 . S
C1591 C1590 1.374 . S
C1592 C1589 1.499 . S
C1592 C1593 1.373 . S
C1592 C1594 1.389 1_545 S
C1593 H1572 0.950 . S
C1593 C1592 1.373 . S
C1593 C1609 1.377 . S
C1594 C1592 1.389 1_565 S
C1594 C1595 1.524 . S
C1594 C1608 1.377 . S
C1595 C1594 1.524 . S
C1595 C1596 1.397 . S
C1595 C1600 1.363 . S
C1596 H1573 0.950 1_565 S
C1596 C1595 1.397 . S
C1596 C1597 1.334 . S
C1597 H1574 0.950 . S
C1597 C1596 1.334 . S
C1597 C1598 1.287 . S
C1598 C1597 1.287 . S
C1598 C1599 1.524 . S
C1598 H1617 0.913 . S
C1599 H1575 0.950 . S
C1599 C1598 1.524 . S
C1599 C1600 1.415 . S
C1600 H1576 0.950 . S
C1600 C1595 1.363 . S
C1600 C1599 1.415 . S
C1601 H1577 0.951 . S
C1601 C1602 1.366 . S
C1601 C1603 1.388 . S
C1602 C1601 1.366 . S
C1602 C1606 1.385 . S
C1603 H1578 0.951 . S
C1603 C1601 1.388 . S
C1603 C1604 1.366 . S
C1604 C1603 1.366 . S
C1604 C1605 1.414 . S
C1604 C1607 1.499 . S
C1605 H1579 0.950 . S
C1605 C1604 1.414 . S
C1605 C1606 1.374 . S
C1606 H1580 0.950 . S
C1606 C1602 1.385 . S
C1606 C1605 1.374 . S
C1607 C1604 1.499 . S
C1607 C1608 1.373 . S
C1607 C1609 1.389 1_565 S
C1608 H1581 0.950 . S
C1608 C1594 1.377 . S
C1608 C1607 1.373 . S
C1609 C1593 1.377 . S
C1609 C1607 1.389 1_545 S
C1609 C1610 1.524 . S
C1610 C1609 1.524 . S
C1610 C1611 1.397 . S
C1610 C1615 1.363 . S
C1611 H1582 0.950 1_545 S
C1611 C1610 1.397 . S
C1611 C1612 1.334 . S
C1612 H1583 0.950 . S
C1612 C1611 1.334 . S
C1612 C1613 1.287 . S
C1613 C1612 1.287 . S
C1613 C1614 1.524 . S
C1613 H1616 0.999 . S
C1614 H1584 0.950 . S
C1614 C1613 1.524 . S
C1614 C1615 1.415 . S
C1615 H1585 0.950 . S
C1615 C1610 1.363 . S
C1615 C1614 1.415 . S
H1616 C1613 0.999 . S
H1617 C1598 0.913 . S
H1618 C1636 0.951 . S
H1619 C1638 0.951 . S
H1620 C1640 0.950 . S
H1621 C1641 0.950 . S
H1622 C1643 0.950 . S
H1623 C1646 0.950 . S
H1624 C1647 0.950 . S
H1625 C1649 0.950 . S
H1626 C1650 0.950 . S
H1627 C1651 0.951 . S
H1628 C1653 0.951 . S
H1629 C1655 0.950 . S
H1630 C1656 0.950 . S
H1631 C1658 0.950 . S
H1632 C1661 0.950 . S
H1633 C1662 0.950 . S
H1634 C1664 0.950 . S
H1635 C1665 0.950 . S
C1636 H1618 0.951 . S
C1636 C1637 1.366 . S
C1636 C1638 1.388 . S
C1637 C1636 1.366 . S
C1637 C1641 1.385 . S
C1638 H1619 0.951 . S
C1638 C1636 1.388 . S
C1638 C1639 1.366 . S
C1639 C1638 1.366 . S
C1639 C1640 1.414 . S
C1639 C1642 1.499 . S
C1640 H1620 0.950 . S
C1640 C1639 1.414 . S
C1640 C1641 1.374 . S
C1641 H1621 0.950 . S
C1641 C1637 1.385 . S
C1641 C1640 1.374 . S
C1642 C1639 1.499 . S
C1642 C1643 1.373 1_545 S
C1642 C1644 1.389 . S
C1643 H1622 0.950 . S
C1643 C1642 1.373 1_565 S
C1643 C1659 1.377 . S
C1644 C1642 1.389 . S
C1644 C1645 1.524 . S
C1644 C1658 1.377 . S
C1645 C1644 1.524 . S
C1645 C1646 1.397 . S
C1645 C1650 1.363 . S
C1646 H1623 0.950 . S
C1646 C1645 1.397 . S
C1646 C1647 1.334 . S
C1647 H1624 0.950 . S
C1647 C1646 1.334 . S
C1647 C1648 1.287 . S
C1648 C1647 1.287 . S
C1648 C1649 1.524 . S
C1648 H1667 0.913 . S
C1649 H1625 0.950 . S
C1649 C1648 1.524 . S
C1649 C1650 1.415 . S
C1650 H1626 0.950 . S
C1650 C1645 1.363 . S
C1650 C1649 1.415 . S
C1651 H1627 0.951 . S
C1651 C1652 1.366 . S
C1651 C1653 1.388 . S
C1652 C1651 1.366 . S
C1652 C1656 1.385 . S
C1653 H1628 0.951 . S
C1653 C1651 1.388 . S
C1653 C1654 1.366 . S
C1654 C1653 1.366 . S
C1654 C1655 1.414 . S
C1654 C1657 1.499 . S
C1655 H1629 0.950 . S
C1655 C1654 1.414 . S
C1655 C1656 1.374 . S
C1656 H1630 0.950 . S
C1656 C1652 1.385 . S
C1656 C1655 1.374 . S
C1657 C1654 1.499 . S
C1657 C1658 1.373 1_565 S
C1657 C1659 1.389 . S
C1658 H1631 0.950 . S
C1658 C1644 1.377 . S
C1658 C1657 1.373 1_545 S
C1659 C1643 1.377 . S
C1659 C1657 1.389 . S
C1659 C1660 1.524 . S
C1660 C1659 1.524 . S
C1660 C1661 1.397 . S
C1660 C1665 1.363 . S
C1661 H1632 0.950 . S
C1661 C1660 1.397 . S
C1661 C1662 1.334 . S
C1662 H1633 0.950 . S
C1662 C1661 1.334 . S
C1662 C1663 1.287 . S
C1663 C1662 1.287 . S
C1663 C1664 1.524 . S
C1663 H1666 0.999 . S
C1664 H1634 0.950 . S
C1664 C1663 1.524 . S
C1664 C1665 1.415 . S
C1665 H1635 0.950 . S
C1665 C1660 1.363 . S
C1665 C1664 1.415 . S
H1666 C1663 0.999 . S
H1667 C1648 0.913 . S
H1668 C1686 0.951 . S
H1669 C1688 0.951 . S
H1670 C1690 0.950 . S
H1671 C1691 0.950 . S
H1672 C1693 0.950 . S
H1673 C1696 0.950 . S
H1674 C1697 0.950 . S
H1675 C1699 0.950 . S
H1676 C1700 0.950 . S
H1677 C1701 0.951 . S
H1678 C1703 0.951 . S
H1679 C1705 0.950 . S
H1680 C1706 0.950 . S
H1681 C1708 0.950 . S
H1682 C1711 0.950 . S
H1683 C1712 0.950 . S
H1684 C1714 0.950 . S
H1685 C1715 0.950 . S
C1686 H1668 0.951 . S
C1686 C1687 1.366 . S
C1686 C1688 1.388 . S
C1687 C1686 1.366 . S
C1687 C1691 1.385 . S
C1688 H1669 0.951 . S
C1688 C1686 1.388 . S
C1688 C1689 1.366 . S
C1689 C1688 1.366 . S
C1689 C1690 1.414 . S
C1689 C1692 1.499 . S
C1690 H1670 0.950 . S
C1690 C1689 1.414 . S
C1690 C1691 1.374 . S
C1691 H1671 0.950 . S
C1691 C1687 1.385 . S
C1691 C1690 1.374 . S
C1692 C1689 1.499 . S
C1692 C1693 1.373 . S
C1692 C1694 1.389 1_545 S
C1693 H1672 0.950 . S
C1693 C1692 1.373 . S
C1693 C1709 1.377 . S
C1694 C1692 1.389 1_565 S
C1694 C1695 1.524 . S
C1694 C1708 1.377 . S
C1695 C1694 1.524 . S
C1695 C1696 1.397 . S
C1695 C1700 1.363 . S
C1696 H1673 0.950 . S
C1696 C1695 1.397 . S
C1696 C1697 1.334 . S
C1697 H1674 0.950 . S
C1697 C1696 1.334 . S
C1697 C1698 1.287 . S
C1698 C1697 1.287 . S
C1698 C1699 1.524 . S
C1698 H1717 0.913 . S
C1699 H1675 0.950 . S
C1699 C1698 1.524 . S
C1699 C1700 1.415 . S
C1700 H1676 0.950 . S
C1700 C1695 1.363 . S
C1700 C1699 1.415 . S
C1701 H1677 0.951 . S
C1701 C1702 1.366 . S
C1701 C1703 1.388 . S
C1702 C1701 1.366 . S
C1702 C1706 1.385 . S
C1703 H1678 0.951 . S
C1703 C1701 1.388 . S
C1703 C1704 1.366 . S
C1704 C1703 1.366 . S
C1704 C1705 1.414 . S
C1704 C1707 1.499 . S
C1705 H1679 0.950 . S
C1705 C1704 1.414 . S
C1705 C1706 1.374 . S
C1706 H1680 0.950 . S
C1706 C1702 1.385 . S
C1706 C1705 1.374 . S
C1707 C1704 1.499 . S
C1707 C1708 1.373 . S
C1707 C1709 1.389 1_565 S
C1708 H1681 0.950 . S
C1708 C1694 1.377 . S
C1708 C1707 1.373 . S
C1709 C1693 1.377 . S
C1709 C1707 1.389 1_545 S
C1709 C1710 1.524 . S
C1710 C1709 1.524 . S
C1710 C1711 1.397 . S
C1710 C1715 1.363 . S
C1711 H1682 0.950 . S
C1711 C1710 1.397 . S
C1711 C1712 1.334 . S
C1712 H1683 0.950 . S
C1712 C1711 1.334 . S
C1712 C1713 1.287 . S
C1713 C1712 1.287 . S
C1713 C1714 1.524 . S
C1713 H1716 0.999 . S
C1714 H1684 0.950 . S
C1714 C1713 1.524 . S
C1714 C1715 1.415 . S
C1715 H1685 0.950 . S
C1715 C1710 1.363 . S
C1715 C1714 1.415 . S
H1716 C1713 0.999 . S
H1717 C1698 0.913 . S
H1718 C1736 0.951 . S
H1719 C1738 0.951 . S
H1720 C1740 0.950 . S
H1721 C1741 0.950 . S
H1722 C1743 0.950 . S
H1723 C1746 0.955 . S
H1724 C1747 0.950 1_545 S
H1725 C1749 0.950 . S
H1726 C1750 0.950 . S
H1727 C1751 0.951 . S
H1728 C1753 0.951 . S
H1729 C1755 0.950 . S
H1730 C1756 0.950 . S
H1731 C1758 0.950 . S
H1732 C1761 0.954 . S
H1733 C1762 0.950 1_565 S
H1734 C1764 0.950 . S
H1735 C1765 0.950 . S
C1736 H1718 0.951 . S
C1736 C1737 1.366 . S
C1736 C1738 1.388 . S
C1737 C1736 1.366 . S
C1737 C1741 1.385 . S
C1738 H1719 0.951 . S
C1738 C1736 1.388 . S
C1738 C1739 1.366 . S
C1739 C1738 1.366 . S
C1739 C1740 1.414 . S
C1739 C1742 1.499 . S
C1740 H1720 0.950 . S
C1740 C1739 1.414 . S
C1740 C1741 1.374 . S
C1741 H1721 0.950 . S
C1741 C1737 1.385 . S
C1741 C1740 1.374 . S
C1742 C1739 1.499 . S
C1742 C1743 1.373 . S
C1742 C1744 1.389 . S
C1743 H1722 0.950 . S
C1743 C1742 1.373 . S
C1743 C1759 1.377 1_565 S
C1744 C1742 1.389 . S
C1744 C1745 1.524 . S
C1744 C1758 1.377 1_565 S
C1745 C1744 1.524 . S
C1745 C1746 1.393 1_565 S
C1745 C1750 1.363 . S
C1746 H1723 0.955 . S
C1746 C1745 1.393 1_545 S
C1746 C1747 1.333 1_545 S
C1747 H1724 0.950 1_565 S
C1747 C1746 1.333 1_565 S
C1747 C1748 1.287 . S
C1748 C1747 1.287 . S
C1748 C1749 1.524 . S
C1748 H1767 0.913 . S
C1749 H1725 0.950 . S
C1749 C1748 1.524 . S
C1749 C1750 1.415 . S
C1750 H1726 0.950 . S
C1750 C1745 1.363 . S
C1750 C1749 1.415 . S
C1751 H1727 0.951 . S
C1751 C1752 1.366 . S
C1751 C1753 1.388 . S
C1752 C1751 1.366 . S
C1752 C1756 1.385 . S
C1753 H1728 0.951 . S
C1753 C1751 1.388 . S
C1753 C1754 1.366 . S
C1754 C1753 1.366 . S
C1754 C1755 1.414 . S
C1754 C1757 1.499 . S
C1755 H1729 0.950 . S
C1755 C1754 1.414 . S
C1755 C1756 1.374 . S
C1756 H1730 0.950 . S
C1756 C1752 1.385 . S
C1756 C1755 1.374 . S
C1757 C1754 1.499 . S
C1757 C1758 1.373 . S
C1757 C1759 1.389 . S
C1758 H1731 0.950 . S
C1758 C1744 1.377 1_545 S
C1758 C1757 1.373 . S
C1759 C1743 1.377 1_545 S
C1759 C1757 1.389 . S
C1759 C1760 1.524 . S
C1760 C1759 1.524 . S
C1760 C1761 1.393 1_545 S
C1760 C1765 1.363 . S
C1761 H1732 0.954 . S
C1761 C1760 1.393 1_565 S
C1761 C1762 1.333 1_565 S
C1762 H1733 0.950 1_545 S
C1762 C1761 1.333 1_545 S
C1762 C1763 1.287 . S
C1763 C1762 1.287 . S
C1763 C1764 1.524 . S
C1763 H1766 0.999 . S
C1764 H1734 0.950 . S
C1764 C1763 1.524 . S
C1764 C1765 1.415 . S
C1765 H1735 0.950 . S
C1765 C1760 1.363 . S
C1765 C1764 1.415 . S
H1766 C1763 0.999 . S
H1767 C1748 0.913 . S
H1768 C1786 0.951 . S
H1769 C1788 0.951 . S
H1770 C1790 0.950 . S
H1771 C1791 0.950 . S
H1772 C1793 0.950 . S
H1773 C1796 0.950 . S
H1774 C1797 0.950 . S
H1775 C1799 0.950 . S
H1776 C1800 0.950 . S
H1777 C1801 0.951 . S
H1778 C1803 0.951 . S
H1779 C1805 0.950 . S
H1780 C1806 0.950 . S
H1781 C1808 0.950 . S
H1782 C1811 0.950 . S
H1783 C1812 0.950 . S
H1784 C1814 0.950 . S
H1785 C1815 0.950 . S
C1786 H1768 0.951 . S
C1786 C1787 1.366 . S
C1786 C1788 1.388 . S
C1787 C1786 1.366 . S
C1787 C1791 1.385 . S
C1788 H1769 0.951 . S
C1788 C1786 1.388 . S
C1788 C1789 1.366 . S
C1789 C1788 1.366 . S
C1789 C1790 1.414 . S
C1789 C1792 1.499 . S
C1790 H1770 0.950 . S
C1790 C1789 1.414 . S
C1790 C1791 1.374 . S
C1791 H1771 0.950 . S
C1791 C1787 1.385 . S
C1791 C1790 1.374 . S
C1792 C1789 1.499 . S
C1792 C1793 1.373 . S
C1792 C1794 1.389 . S
C1793 H1772 0.950 . S
C1793 C1792 1.373 . S
C1793 C1809 1.377 . S
C1794 C1792 1.389 . S
C1794 C1795 1.524 . S
C1794 C1808 1.377 . S
C1795 C1794 1.524 . S
C1795 C1796 1.397 . S
C1795 C1800 1.363 . S
C1796 H1773 0.950 . S
C1796 C1795 1.397 . S
C1796 C1797 1.334 . S
C1797 H1774 0.950 . S
C1797 C1796 1.334 . S
C1797 C1798 1.287 . S
C1798 C1797 1.287 . S
C1798 C1799 1.524 . S
C1798 H1817 0.913 . S
C1799 H1775 0.950 . S
C1799 C1798 1.524 . S
C1799 C1800 1.415 . S
C1800 H1776 0.950 . S
C1800 C1795 1.363 . S
C1800 C1799 1.415 . S
C1801 H1777 0.951 . S
C1801 C1802 1.366 . S
C1801 C1803 1.388 . S
C1802 C1801 1.366 . S
C1802 C1806 1.385 . S
C1803 H1778 0.951 . S
C1803 C1801 1.388 . S
C1803 C1804 1.366 . S
C1804 C1803 1.366 . S
C1804 C1805 1.414 . S
C1804 C1807 1.499 . S
C1805 H1779 0.950 . S
C1805 C1804 1.414 . S
C1805 C1806 1.374 . S
C1806 H1780 0.950 . S
C1806 C1802 1.385 . S
C1806 C1805 1.374 . S
C1807 C1804 1.499 . S
C1807 C1808 1.373 . S
C1807 C1809 1.389 . S
C1808 H1781 0.950 . S
C1808 C1794 1.377 . S
C1808 C1807 1.373 . S
C1809 C1793 1.377 . S
C1809 C1807 1.389 . S
C1809 C1810 1.524 . S
C1810 C1809 1.524 . S
C1810 C1811 1.397 . S
C1810 C1815 1.363 . S
C1811 H1782 0.950 . S
C1811 C1810 1.397 . S
C1811 C1812 1.334 . S
C1812 H1783 0.950 . S
C1812 C1811 1.334 . S
C1812 C1813 1.287 . S
C1813 C1812 1.287 . S
C1813 C1814 1.524 . S
C1813 H1816 0.999 . S
C1814 H1784 0.950 . S
C1814 C1813 1.524 . S
C1814 C1815 1.415 . S
C1815 H1785 0.950 . S
C1815 C1810 1.363 . S
C1815 C1814 1.415 . S
H1816 C1813 0.999 . S
H1817 C1798 0.913 . S
H1818 C1836 0.951 . S
H1819 C1838 0.951 . S
H1820 C1840 0.950 . S
H1821 C1841 0.950 . S
H1822 C1843 0.950 . S
H1823 C1846 0.950 . S
H1824 C1847 0.950 . S
H1825 C1849 0.950 . S
H1826 C1850 0.950 . S
H1827 C1851 0.951 . S
H1828 C1853 0.951 . S
H1829 C1855 0.950 . S
H1830 C1856 0.950 . S
H1831 C1858 0.950 . S
H1832 C1861 0.950 . S
H1833 C1862 0.950 . S
H1834 C1864 0.950 . S
H1835 C1865 0.950 . S
C1836 H1818 0.951 . S
C1836 C1837 1.366 . S
C1836 C1838 1.388 . S
C1837 C1836 1.366 . S
C1837 C1841 1.385 . S
C1838 H1819 0.951 . S
C1838 C1836 1.388 . S
C1838 C1839 1.366 . S
C1839 C1838 1.366 . S
C1839 C1840 1.414 . S
C1839 C1842 1.499 . S
C1840 H1820 0.950 . S
C1840 C1839 1.414 . S
C1840 C1841 1.374 . S
C1841 H1821 0.950 . S
C1841 C1837 1.385 . S
C1841 C1840 1.374 . S
C1842 C1839 1.499 . S
C1842 C1843 1.373 . S
C1842 C1844 1.389 . S
C1843 H1822 0.950 . S
C1843 C1842 1.373 . S
C1843 C1859 1.377 . S
C1844 C1842 1.389 . S
C1844 C1845 1.524 . S
C1844 C1858 1.377 . S
C1845 C1844 1.524 . S
C1845 C1846 1.397 . S
C1845 C1850 1.363 . S
C1846 H1823 0.950 . S
C1846 C1845 1.397 . S
C1846 C1847 1.334 . S
C1847 H1824 0.950 . S
C1847 C1846 1.334 . S
C1847 C1848 1.287 . S
C1848 C1847 1.287 . S
C1848 C1849 1.524 . S
C1848 H1867 0.913 . S
C1849 H1825 0.950 . S
C1849 C1848 1.524 . S
C1849 C1850 1.415 . S
C1850 H1826 0.950 . S
C1850 C1845 1.363 . S
C1850 C1849 1.415 . S
C1851 H1827 0.951 . S
C1851 C1852 1.366 . S
C1851 C1853 1.388 . S
C1852 C1851 1.366 . S
C1852 C1856 1.385 . S
C1853 H1828 0.951 . S
C1853 C1851 1.388 . S
C1853 C1854 1.366 . S
C1854 C1853 1.366 . S
C1854 C1855 1.414 . S
C1854 C1857 1.499 . S
C1855 H1829 0.950 . S
C1855 C1854 1.414 . S
C1855 C1856 1.374 . S
C1856 H1830 0.950 . S
C1856 C1852 1.385 . S
C1856 C1855 1.374 . S
C1857 C1854 1.499 . S
C1857 C1858 1.373 . S
C1857 C1859 1.389 . S
C1858 H1831 0.950 . S
C1858 C1844 1.377 . S
C1858 C1857 1.373 . S
C1859 C1843 1.377 . S
C1859 C1857 1.389 . S
C1859 C1860 1.524 . S
C1860 C1859 1.524 . S
C1860 C1861 1.397 . S
C1860 C1865 1.363 . S
C1861 H1832 0.950 . S
C1861 C1860 1.397 . S
C1861 C1862 1.334 . S
C1862 H1833 0.950 . S
C1862 C1861 1.334 . S
C1862 C1863 1.287 . S
C1863 C1862 1.287 . S
C1863 C1864 1.524 . S
C1863 H1866 0.999 . S
C1864 H1834 0.950 . S
C1864 C1863 1.524 . S
C1864 C1865 1.415 . S
C1865 H1835 0.950 . S
C1865 C1860 1.363 . S
C1865 C1864 1.415 . S
H1866 C1863 0.999 . S
H1867 C1848 0.913 . S
H1868 C1886 0.951 . S
H1869 C1888 0.951 . S
H1870 C1890 0.950 . S
H1871 C1891 0.950 . S
H1872 C1893 0.950 . S
H1873 C1896 0.950 . S
H1874 C1897 0.950 . S
H1875 C1899 0.950 . S
H1876 C1900 0.950 . S
H1877 C1901 0.951 . S
H1878 C1903 0.951 . S
H1879 C1905 0.950 . S
H1880 C1906 0.950 . S
H1881 C1908 0.950 . S
H1882 C1911 0.950 . S
H1883 C1912 0.950 . S
H1884 C1914 0.950 . S
H1885 C1915 0.950 . S
C1886 H1868 0.951 . S
C1886 C1887 1.366 . S
C1886 C1888 1.388 . S
C1887 C1886 1.366 . S
C1887 C1891 1.385 . S
C1888 H1869 0.951 . S
C1888 C1886 1.388 . S
C1888 C1889 1.366 . S
C1889 C1888 1.366 . S
C1889 C1890 1.414 . S
C1889 C1892 1.499 . S
C1890 H1870 0.950 . S
C1890 C1889 1.414 . S
C1890 C1891 1.374 . S
C1891 H1871 0.950 . S
C1891 C1887 1.385 . S
C1891 C1890 1.374 . S
C1892 C1889 1.499 . S
C1892 C1893 1.373 . S
C1892 C1894 1.389 . S
C1893 H1872 0.950 . S
C1893 C1892 1.373 . S
C1893 C1909 1.377 . S
C1894 C1892 1.389 . S
C1894 C1895 1.524 . S
C1894 C1908 1.377 . S
C1895 C1894 1.524 . S
C1895 C1896 1.397 . S
C1895 C1900 1.363 . S
C1896 H1873 0.950 . S
C1896 C1895 1.397 . S
C1896 C1897 1.334 . S
C1897 H1874 0.950 . S
C1897 C1896 1.334 . S
C1897 C1898 1.287 . S
C1898 C1897 1.287 . S
C1898 C1899 1.524 . S
C1898 H1917 0.913 . S
C1899 H1875 0.950 . S
C1899 C1898 1.524 . S
C1899 C1900 1.415 . S
C1900 H1876 0.950 . S
C1900 C1895 1.363 . S
C1900 C1899 1.415 . S
C1901 H1877 0.951 . S
C1901 C1902 1.366 . S
C1901 C1903 1.388 . S
C1902 C1901 1.366 . S
C1902 C1906 1.385 . S
C1903 H1878 0.951 . S
C1903 C1901 1.388 . S
C1903 C1904 1.366 . S
C1904 C1903 1.366 . S
C1904 C1905 1.414 . S
C1904 C1907 1.499 . S
C1905 H1879 0.950 . S
C1905 C1904 1.414 . S
C1905 C1906 1.374 . S
C1906 H1880 0.950 . S
C1906 C1902 1.385 . S
C1906 C1905 1.374 . S
C1907 C1904 1.499 . S
C1907 C1908 1.373 . S
C1907 C1909 1.389 . S
C1908 H1881 0.950 . S
C1908 C1894 1.377 . S
C1908 C1907 1.373 . S
C1909 C1893 1.377 . S
C1909 C1907 1.389 . S
C1909 C1910 1.524 . S
C1910 C1909 1.524 . S
C1910 C1911 1.397 . S
C1910 C1915 1.363 . S
C1911 H1882 0.950 . S
C1911 C1910 1.397 . S
C1911 C1912 1.334 . S
C1912 H1883 0.950 . S
C1912 C1911 1.334 . S
C1912 C1913 1.287 . S
C1913 C1912 1.287 . S
C1913 C1914 1.524 . S
C1913 H1916 0.999 . S
C1914 H1884 0.950 . S
C1914 C1913 1.524 . S
C1914 C1915 1.415 . S
C1915 H1885 0.950 . S
C1915 C1910 1.363 . S
C1915 C1914 1.415 . S
H1916 C1913 0.999 . S
H1917 C1898 0.913 . S
H1918 C1936 0.951 . S
H1919 C1938 0.951 . S
H1920 C1940 0.950 . S
H1921 C1941 0.950 . S
H1922 C1943 0.950 . S
H1923 C1946 0.950 . S
H1924 C1947 0.950 . S
H1925 C1949 0.950 . S
H1926 C1950 0.950 . S
H1927 C1951 0.951 . S
H1928 C1953 0.951 . S
H1929 C1955 0.950 . S
H1930 C1956 0.950 . S
H1931 C1958 0.950 . S
H1932 C1961 0.950 . S
H1933 C1962 0.950 . S
H1934 C1964 0.950 . S
H1935 C1965 0.950 . S
C1936 H1918 0.951 . S
C1936 C1937 1.366 . S
C1936 C1938 1.388 . S
C1937 C1936 1.366 . S
C1937 C1941 1.385 . S
C1938 H1919 0.951 . S
C1938 C1936 1.388 . S
C1938 C1939 1.366 . S
C1939 C1938 1.366 . S
C1939 C1940 1.414 . S
C1939 C1942 1.499 . S
C1940 H1920 0.950 . S
C1940 C1939 1.414 . S
C1940 C1941 1.374 . S
C1941 H1921 0.950 . S
C1941 C1937 1.385 . S
C1941 C1940 1.374 . S
C1942 C1939 1.499 . S
C1942 C1943 1.373 . S
C1942 C1944 1.389 . S
C1943 H1922 0.950 . S
C1943 C1942 1.373 . S
C1943 C1959 1.377 . S
C1944 C1942 1.389 . S
C1944 C1945 1.524 . S
C1944 C1958 1.377 . S
C1945 C1944 1.524 . S
C1945 C1946 1.397 . S
C1945 C1950 1.363 . S
C1946 H1923 0.950 . S
C1946 C1945 1.397 . S
C1946 C1947 1.334 . S
C1947 H1924 0.950 . S
C1947 C1946 1.334 . S
C1947 C1948 1.287 . S
C1948 C1947 1.287 . S
C1948 C1949 1.524 . S
C1948 H1967 0.913 . S
C1949 H1925 0.950 . S
C1949 C1948 1.524 . S
C1949 C1950 1.415 . S
C1950 H1926 0.950 . S
C1950 C1945 1.363 . S
C1950 C1949 1.415 . S
C1951 H1927 0.951 . S
C1951 C1952 1.366 . S
C1951 C1953 1.388 . S
C1952 C1951 1.366 . S
C1952 C1956 1.385 . S
C1953 H1928 0.951 . S
C1953 C1951 1.388 . S
C1953 C1954 1.366 . S
C1954 C1953 1.366 . S
C1954 C1955 1.414 . S
C1954 C1957 1.499 . S
C1955 H1929 0.950 . S
C1955 C1954 1.414 . S
C1955 C1956 1.374 . S
C1956 H1930 0.950 . S
C1956 C1952 1.385 . S
C1956 C1955 1.374 . S
C1957 C1954 1.499 . S
C1957 C1958 1.373 . S
C1957 C1959 1.389 . S
C1958 H1931 0.950 . S
C1958 C1944 1.377 . S
C1958 C1957 1.373 . S
C1959 C1943 1.377 . S
C1959 C1957 1.389 . S
C1959 C1960 1.524 . S
C1960 C1959 1.524 . S
C1960 C1961 1.397 . S
C1960 C1965 1.363 . S
C1961 H1932 0.950 . S
C1961 C1960 1.397 . S
C1961 C1962 1.334 . S
C1962 H1933 0.950 . S
C1962 C1961 1.334 . S
C1962 C1963 1.287 . S
C1963 C1962 1.287 . S
C1963 C1964 1.524 . S
C1963 H1966 0.999 . S
C1964 H1934 0.950 . S
C1964 C1963 1.524 . S
C1964 C1965 1.415 . S
C1965 H1935 0.950 . S
C1965 C1960 1.363 . S
C1965 C1964 1.415 . S
H1966 C1963 0.999 . S
H1967 C1948 0.913 . S
C387 C7 1.697 . S
C402 C122 1.697 . S
C437 C99 1.697 . S
C452 C30 1.697 . S
C487 C53 1.697 . S
C502 C168 1.697 . S
C537 C145 1.697 . S
C552 C76 1.697 . S
C587 C306 1.697 . S
C602 C191 1.697 . S
C637 C283 1.697 . S
C652 C214 1.697 . S
C687 C352 1.697 . S
C702 C237 1.697 . S
C737 C260 1.697 . S
C752 C329 1.697 . S
C787 N25 1.457 . S
C802 N2 1.456 . S
C837 N48 1.457 . S
C852 N71 1.456 . S
C887 N94 1.457 . S
C902 N117 1.456 . S
C937 N140 1.457 . S
C952 N163 1.457 . S
C987 N186 1.456 . S
C1002 N209 1.457 . S
C1037 N255 1.457 . S
C1052 N232 1.456 . S
C1087 N301 1.456 . S
C1102 N278 1.457 . S
C1137 N324 1.456 . S
C1152 N347 1.457 . S
C1187 N219 1.470 . S
C1202 N12 1.470 . S
C1237 N35 1.470 . S
C1252 N196 1.470 . S
C1287 N265 1.470 . S
C1302 N58 1.471 . S
C1337 N81 1.470 . S
C1352 N242 1.471 . S
C1387 N104 1.470 . S
C1402 N311 1.470 . S
C1437 N288 1.471 . S
C1452 N127 1.470 . S
C1487 N150 1.470 . S
C1502 N357 1.471 . S
C1537 N334 1.470 . S
C1552 N173 1.470 . S
C1587 C16 1.678 . S
C1602 C62 1.678 . S
C1637 C85 1.678 . S
C1652 C39 1.677 . S
C1687 C154 1.678 . S
C1702 C108 1.678 . S
C1737 C177 1.678 . S
C1752 C131 1.678 . S
C1787 C246 1.678 . S
C1802 C200 1.678 . S
C1837 C223 1.677 . S
C1852 C269 1.678 . S
C1887 C338 1.678 . S
C1902 C292 1.677 . S
C1937 C315 1.678 . S
C1952 C361 1.678 . S
