# Generated by pormake.
# Topology kfi, (4)-cn, num edge types: 1
# Building blocks:
#     Node 0, Type 0, BuildingBlock: KUFVIS_clean_sbu_0, # of connection points: 4
#     Node 1, Type 0, BuildingBlock: KUFVIS_clean_sbu_0, # of connection points: 4
#     Node 2, Type 0, BuildingBlock: KUFVIS_clean_sbu_0, # of connection points: 4
#     Node 3, Type 0, BuildingBlock: KUFVIS_clean_sbu_0, # of connection points: 4
#     Node 4, Type 0, BuildingBlock: KUFVIS_clean_sbu_0, # of connection points: 4
#     Node 5, Type 0, BuildingBlock: KUFVIS_clean_sbu_0, # of connection points: 4
#     Node 6, Type 0, BuildingBlock: KUFVIS_clean_sbu_0, # of connection points: 4
#     Node 7, Type 0, BuildingBlock: KUFVIS_clean_sbu_0, # of connection points: 4
#     Node 8, Type 0, BuildingBlock: KUFVIS_clean_sbu_0, # of connection points: 4
#     Node 9, Type 0, BuildingBlock: KUFVIS_clean_sbu_0, # of connection points: 4
#     Node 10, Type 0, BuildingBlock: KUFVIS_clean_sbu_0, # of connection points: 4
#     Node 11, Type 0, BuildingBlock: KUFVIS_clean_sbu_0, # of connection points: 4
#     Node 12, Type 0, BuildingBlock: KUFVIS_clean_sbu_0, # of connection points: 4
#     Node 13, Type 0, BuildingBlock: KUFVIS_clean_sbu_0, # of connection points: 4
#     Node 14, Type 0, BuildingBlock: KUFVIS_clean_sbu_0, # of connection points: 4
#     Node 15, Type 0, BuildingBlock: KUFVIS_clean_sbu_0, # of connection points: 4
#     Node 16, Type 0, BuildingBlock: KUFVIS_clean_sbu_0, # of connection points: 4
#     Node 17, Type 0, BuildingBlock: KUFVIS_clean_sbu_0, # of connection points: 4
#     Node 18, Type 0, BuildingBlock: KUFVIS_clean_sbu_0, # of connection points: 4
#     Node 19, Type 0, BuildingBlock: KUFVIS_clean_sbu_0, # of connection points: 4
#     Node 20, Type 0, BuildingBlock: KUFVIS_clean_sbu_0, # of connection points: 4
#     Node 21, Type 0, BuildingBlock: KUFVIS_clean_sbu_0, # of connection points: 4
#     Node 22, Type 0, BuildingBlock: KUFVIS_clean_sbu_0, # of connection points: 4
#     Node 23, Type 0, BuildingBlock: KUFVIS_clean_sbu_0, # of connection points: 4
#     Node 24, Type 0, BuildingBlock: KUFVIS_clean_sbu_0, # of connection points: 4
#     Node 25, Type 0, BuildingBlock: KUFVIS_clean_sbu_0, # of connection points: 4
#     Node 26, Type 0, BuildingBlock: KUFVIS_clean_sbu_0, # of connection points: 4
#     Node 27, Type 0, BuildingBlock: KUFVIS_clean_sbu_0, # of connection points: 4
#     Node 28, Type 0, BuildingBlock: KUFVIS_clean_sbu_0, # of connection points: 4
#     Node 29, Type 0, BuildingBlock: KUFVIS_clean_sbu_0, # of connection points: 4
#     Node 30, Type 0, BuildingBlock: KUFVIS_clean_sbu_0, # of connection points: 4
#     Node 31, Type 0, BuildingBlock: KUFVIS_clean_sbu_0, # of connection points: 4
#     Node 32, Type 0, BuildingBlock: KUFVIS_clean_sbu_0, # of connection points: 4
#     Node 33, Type 0, BuildingBlock: KUFVIS_clean_sbu_0, # of connection points: 4
#     Node 34, Type 0, BuildingBlock: KUFVIS_clean_sbu_0, # of connection points: 4
#     Node 35, Type 0, BuildingBlock: KUFVIS_clean_sbu_0, # of connection points: 4
#     Node 36, Type 0, BuildingBlock: KUFVIS_clean_sbu_0, # of connection points: 4
#     Node 37, Type 0, BuildingBlock: KUFVIS_clean_sbu_0, # of connection points: 4
#     Node 38, Type 0, BuildingBlock: KUFVIS_clean_sbu_0, # of connection points: 4
#     Node 39, Type 0, BuildingBlock: KUFVIS_clean_sbu_0, # of connection points: 4
#     Node 40, Type 0, BuildingBlock: KUFVIS_clean_sbu_0, # of connection points: 4
#     Node 41, Type 0, BuildingBlock: KUFVIS_clean_sbu_0, # of connection points: 4
#     Node 42, Type 0, BuildingBlock: KUFVIS_clean_sbu_0, # of connection points: 4
#     Node 43, Type 0, BuildingBlock: KUFVIS_clean_sbu_0, # of connection points: 4
#     Node 44, Type 0, BuildingBlock: KUFVIS_clean_sbu_0, # of connection points: 4
#     Node 45, Type 0, BuildingBlock: KUFVIS_clean_sbu_0, # of connection points: 4
#     Node 46, Type 0, BuildingBlock: KUFVIS_clean_sbu_0, # of connection points: 4
#     Node 47, Type 0, BuildingBlock: KUFVIS_clean_sbu_0, # of connection points: 4
#     Node 48, Type 0, BuildingBlock: KUFVIS_clean_sbu_0, # of connection points: 4
#     Node 49, Type 0, BuildingBlock: KUFVIS_clean_sbu_0, # of connection points: 4
#     Node 50, Type 0, BuildingBlock: KUFVIS_clean_sbu_0, # of connection points: 4
#     Node 51, Type 0, BuildingBlock: KUFVIS_clean_sbu_0, # of connection points: 4
#     Node 52, Type 0, BuildingBlock: KUFVIS_clean_sbu_0, # of connection points: 4
#     Node 53, Type 0, BuildingBlock: KUFVIS_clean_sbu_0, # of connection points: 4
#     Node 54, Type 0, BuildingBlock: KUFVIS_clean_sbu_0, # of connection points: 4
#     Node 55, Type 0, BuildingBlock: KUFVIS_clean_sbu_0, # of connection points: 4
#     Node 56, Type 0, BuildingBlock: KUFVIS_clean_sbu_0, # of connection points: 4
#     Node 57, Type 0, BuildingBlock: KUFVIS_clean_sbu_0, # of connection points: 4
#     Node 58, Type 0, BuildingBlock: KUFVIS_clean_sbu_0, # of connection points: 4
#     Node 59, Type 0, BuildingBlock: KUFVIS_clean_sbu_0, # of connection points: 4
#     Node 60, Type 0, BuildingBlock: KUFVIS_clean_sbu_0, # of connection points: 4
#     Node 61, Type 0, BuildingBlock: KUFVIS_clean_sbu_0, # of connection points: 4
#     Node 62, Type 0, BuildingBlock: KUFVIS_clean_sbu_0, # of connection points: 4
#     Node 63, Type 0, BuildingBlock: KUFVIS_clean_sbu_0, # of connection points: 4
#     Node 64, Type 0, BuildingBlock: KUFVIS_clean_sbu_0, # of connection points: 4
#     Node 65, Type 0, BuildingBlock: KUFVIS_clean_sbu_0, # of connection points: 4
#     Node 66, Type 0, BuildingBlock: KUFVIS_clean_sbu_0, # of connection points: 4
#     Node 67, Type 0, BuildingBlock: KUFVIS_clean_sbu_0, # of connection points: 4
#     Node 68, Type 0, BuildingBlock: KUFVIS_clean_sbu_0, # of connection points: 4
#     Node 69, Type 0, BuildingBlock: KUFVIS_clean_sbu_0, # of connection points: 4
#     Node 70, Type 0, BuildingBlock: KUFVIS_clean_sbu_0, # of connection points: 4
#     Node 71, Type 0, BuildingBlock: KUFVIS_clean_sbu_0, # of connection points: 4
#     Node 72, Type 0, BuildingBlock: KUFVIS_clean_sbu_0, # of connection points: 4
#     Node 73, Type 0, BuildingBlock: KUFVIS_clean_sbu_0, # of connection points: 4
#     Node 74, Type 0, BuildingBlock: KUFVIS_clean_sbu_0, # of connection points: 4
#     Node 75, Type 0, BuildingBlock: KUFVIS_clean_sbu_0, # of connection points: 4
#     Node 76, Type 0, BuildingBlock: KUFVIS_clean_sbu_0, # of connection points: 4
#     Node 77, Type 0, BuildingBlock: KUFVIS_clean_sbu_0, # of connection points: 4
#     Node 78, Type 0, BuildingBlock: KUFVIS_clean_sbu_0, # of connection points: 4
#     Node 79, Type 0, BuildingBlock: KUFVIS_clean_sbu_0, # of connection points: 4
#     Node 80, Type 0, BuildingBlock: KUFVIS_clean_sbu_0, # of connection points: 4
#     Node 81, Type 0, BuildingBlock: KUFVIS_clean_sbu_0, # of connection points: 4
#     Node 82, Type 0, BuildingBlock: KUFVIS_clean_sbu_0, # of connection points: 4
#     Node 83, Type 0, BuildingBlock: KUFVIS_clean_sbu_0, # of connection points: 4
#     Node 84, Type 0, BuildingBlock: KUFVIS_clean_sbu_0, # of connection points: 4
#     Node 85, Type 0, BuildingBlock: KUFVIS_clean_sbu_0, # of connection points: 4
#     Node 86, Type 0, BuildingBlock: KUFVIS_clean_sbu_0, # of connection points: 4
#     Node 87, Type 0, BuildingBlock: KUFVIS_clean_sbu_0, # of connection points: 4
#     Node 88, Type 0, BuildingBlock: KUFVIS_clean_sbu_0, # of connection points: 4
#     Node 89, Type 0, BuildingBlock: KUFVIS_clean_sbu_0, # of connection points: 4
#     Node 90, Type 0, BuildingBlock: KUFVIS_clean_sbu_0, # of connection points: 4
#     Node 91, Type 0, BuildingBlock: KUFVIS_clean_sbu_0, # of connection points: 4
#     Node 92, Type 0, BuildingBlock: KUFVIS_clean_sbu_0, # of connection points: 4
#     Node 93, Type 0, BuildingBlock: KUFVIS_clean_sbu_0, # of connection points: 4
#     Node 94, Type 0, BuildingBlock: KUFVIS_clean_sbu_0, # of connection points: 4
#     Node 95, Type 0, BuildingBlock: KUFVIS_clean_sbu_0, # of connection points: 4
#     Edge 96, Type (0, 0), BuildingBlock: OJICUG_clean_linker_0, # of connection points: 2
#     Edge 97, Type (0, 0), BuildingBlock: OJICUG_clean_linker_0, # of connection points: 2
#     Edge 98, Type (0, 0), BuildingBlock: OJICUG_clean_linker_0, # of connection points: 2
#     Edge 99, Type (0, 0), BuildingBlock: OJICUG_clean_linker_0, # of connection points: 2
#     Edge 100, Type (0, 0), BuildingBlock: OJICUG_clean_linker_0, # of connection points: 2
#     Edge 101, Type (0, 0), BuildingBlock: OJICUG_clean_linker_0, # of connection points: 2
#     Edge 102, Type (0, 0), BuildingBlock: OJICUG_clean_linker_0, # of connection points: 2
#     Edge 103, Type (0, 0), BuildingBlock: OJICUG_clean_linker_0, # of connection points: 2
#     Edge 104, Type (0, 0), BuildingBlock: OJICUG_clean_linker_0, # of connection points: 2
#     Edge 105, Type (0, 0), BuildingBlock: OJICUG_clean_linker_0, # of connection points: 2
#     Edge 106, Type (0, 0), BuildingBlock: OJICUG_clean_linker_0, # of connection points: 2
#     Edge 107, Type (0, 0), BuildingBlock: OJICUG_clean_linker_0, # of connection points: 2
#     Edge 108, Type (0, 0), BuildingBlock: OJICUG_clean_linker_0, # of connection points: 2
#     Edge 109, Type (0, 0), BuildingBlock: OJICUG_clean_linker_0, # of connection points: 2
#     Edge 110, Type (0, 0), BuildingBlock: OJICUG_clean_linker_0, # of connection points: 2
#     Edge 111, Type (0, 0), BuildingBlock: OJICUG_clean_linker_0, # of connection points: 2
#     Edge 112, Type (0, 0), BuildingBlock: OJICUG_clean_linker_0, # of connection points: 2
#     Edge 113, Type (0, 0), BuildingBlock: OJICUG_clean_linker_0, # of connection points: 2
#     Edge 114, Type (0, 0), BuildingBlock: OJICUG_clean_linker_0, # of connection points: 2
#     Edge 115, Type (0, 0), BuildingBlock: OJICUG_clean_linker_0, # of connection points: 2
#     Edge 116, Type (0, 0), BuildingBlock: OJICUG_clean_linker_0, # of connection points: 2
#     Edge 117, Type (0, 0), BuildingBlock: OJICUG_clean_linker_0, # of connection points: 2
#     Edge 118, Type (0, 0), BuildingBlock: OJICUG_clean_linker_0, # of connection points: 2
#     Edge 119, Type (0, 0), BuildingBlock: OJICUG_clean_linker_0, # of connection points: 2
#     Edge 120, Type (0, 0), BuildingBlock: OJICUG_clean_linker_0, # of connection points: 2
#     Edge 121, Type (0, 0), BuildingBlock: OJICUG_clean_linker_0, # of connection points: 2
#     Edge 122, Type (0, 0), BuildingBlock: OJICUG_clean_linker_0, # of connection points: 2
#     Edge 123, Type (0, 0), BuildingBlock: OJICUG_clean_linker_0, # of connection points: 2
#     Edge 124, Type (0, 0), BuildingBlock: OJICUG_clean_linker_0, # of connection points: 2
#     Edge 125, Type (0, 0), BuildingBlock: OJICUG_clean_linker_0, # of connection points: 2
#     Edge 126, Type (0, 0), BuildingBlock: OJICUG_clean_linker_0, # of connection points: 2
#     Edge 127, Type (0, 0), BuildingBlock: OJICUG_clean_linker_0, # of connection points: 2
#     Edge 128, Type (0, 0), BuildingBlock: OJICUG_clean_linker_0, # of connection points: 2
#     Edge 129, Type (0, 0), BuildingBlock: OJICUG_clean_linker_0, # of connection points: 2
#     Edge 130, Type (0, 0), BuildingBlock: OJICUG_clean_linker_0, # of connection points: 2
#     Edge 131, Type (0, 0), BuildingBlock: OJICUG_clean_linker_0, # of connection points: 2
#     Edge 132, Type (0, 0), BuildingBlock: OJICUG_clean_linker_0, # of connection points: 2
#     Edge 133, Type (0, 0), BuildingBlock: OJICUG_clean_linker_0, # of connection points: 2
#     Edge 134, Type (0, 0), BuildingBlock: OJICUG_clean_linker_0, # of connection points: 2
#     Edge 135, Type (0, 0), BuildingBlock: OJICUG_clean_linker_0, # of connection points: 2
#     Edge 136, Type (0, 0), BuildingBlock: OJICUG_clean_linker_0, # of connection points: 2
#     Edge 137, Type (0, 0), BuildingBlock: OJICUG_clean_linker_0, # of connection points: 2
#     Edge 138, Type (0, 0), BuildingBlock: OJICUG_clean_linker_0, # of connection points: 2
#     Edge 139, Type (0, 0), BuildingBlock: OJICUG_clean_linker_0, # of connection points: 2
#     Edge 140, Type (0, 0), BuildingBlock: OJICUG_clean_linker_0, # of connection points: 2
#     Edge 141, Type (0, 0), BuildingBlock: OJICUG_clean_linker_0, # of connection points: 2
#     Edge 142, Type (0, 0), BuildingBlock: OJICUG_clean_linker_0, # of connection points: 2
#     Edge 143, Type (0, 0), BuildingBlock: OJICUG_clean_linker_0, # of connection points: 2
#     Edge 144, Type (0, 0), BuildingBlock: OJICUG_clean_linker_0, # of connection points: 2
#     Edge 145, Type (0, 0), BuildingBlock: OJICUG_clean_linker_0, # of connection points: 2
#     Edge 146, Type (0, 0), BuildingBlock: OJICUG_clean_linker_0, # of connection points: 2
#     Edge 147, Type (0, 0), BuildingBlock: OJICUG_clean_linker_0, # of connection points: 2
#     Edge 148, Type (0, 0), BuildingBlock: OJICUG_clean_linker_0, # of connection points: 2
#     Edge 149, Type (0, 0), BuildingBlock: OJICUG_clean_linker_0, # of connection points: 2
#     Edge 150, Type (0, 0), BuildingBlock: OJICUG_clean_linker_0, # of connection points: 2
#     Edge 151, Type (0, 0), BuildingBlock: OJICUG_clean_linker_0, # of connection points: 2
#     Edge 152, Type (0, 0), BuildingBlock: OJICUG_clean_linker_0, # of connection points: 2
#     Edge 153, Type (0, 0), BuildingBlock: OJICUG_clean_linker_0, # of connection points: 2
#     Edge 154, Type (0, 0), BuildingBlock: OJICUG_clean_linker_0, # of connection points: 2
#     Edge 155, Type (0, 0), BuildingBlock: OJICUG_clean_linker_0, # of connection points: 2
#     Edge 156, Type (0, 0), BuildingBlock: OJICUG_clean_linker_0, # of connection points: 2
#     Edge 157, Type (0, 0), BuildingBlock: OJICUG_clean_linker_0, # of connection points: 2
#     Edge 158, Type (0, 0), BuildingBlock: OJICUG_clean_linker_0, # of connection points: 2
#     Edge 159, Type (0, 0), BuildingBlock: OJICUG_clean_linker_0, # of connection points: 2
#     Edge 160, Type (0, 0), BuildingBlock: OJICUG_clean_linker_0, # of connection points: 2
#     Edge 161, Type (0, 0), BuildingBlock: OJICUG_clean_linker_0, # of connection points: 2
#     Edge 162, Type (0, 0), BuildingBlock: OJICUG_clean_linker_0, # of connection points: 2
#     Edge 163, Type (0, 0), BuildingBlock: OJICUG_clean_linker_0, # of connection points: 2
#     Edge 164, Type (0, 0), BuildingBlock: OJICUG_clean_linker_0, # of connection points: 2
#     Edge 165, Type (0, 0), BuildingBlock: OJICUG_clean_linker_0, # of connection points: 2
#     Edge 166, Type (0, 0), BuildingBlock: OJICUG_clean_linker_0, # of connection points: 2
#     Edge 167, Type (0, 0), BuildingBlock: OJICUG_clean_linker_0, # of connection points: 2
#     Edge 168, Type (0, 0), BuildingBlock: OJICUG_clean_linker_0, # of connection points: 2
#     Edge 169, Type (0, 0), BuildingBlock: OJICUG_clean_linker_0, # of connection points: 2
#     Edge 170, Type (0, 0), BuildingBlock: OJICUG_clean_linker_0, # of connection points: 2
#     Edge 171, Type (0, 0), BuildingBlock: OJICUG_clean_linker_0, # of connection points: 2
#     Edge 172, Type (0, 0), BuildingBlock: OJICUG_clean_linker_0, # of connection points: 2
#     Edge 173, Type (0, 0), BuildingBlock: OJICUG_clean_linker_0, # of connection points: 2
#     Edge 174, Type (0, 0), BuildingBlock: OJICUG_clean_linker_0, # of connection points: 2
#     Edge 175, Type (0, 0), BuildingBlock: OJICUG_clean_linker_0, # of connection points: 2
#     Edge 176, Type (0, 0), BuildingBlock: OJICUG_clean_linker_0, # of connection points: 2
#     Edge 177, Type (0, 0), BuildingBlock: OJICUG_clean_linker_0, # of connection points: 2
#     Edge 178, Type (0, 0), BuildingBlock: OJICUG_clean_linker_0, # of connection points: 2
#     Edge 179, Type (0, 0), BuildingBlock: OJICUG_clean_linker_0, # of connection points: 2
#     Edge 180, Type (0, 0), BuildingBlock: OJICUG_clean_linker_0, # of connection points: 2
#     Edge 181, Type (0, 0), BuildingBlock: OJICUG_clean_linker_0, # of connection points: 2
#     Edge 182, Type (0, 0), BuildingBlock: OJICUG_clean_linker_0, # of connection points: 2
#     Edge 183, Type (0, 0), BuildingBlock: OJICUG_clean_linker_0, # of connection points: 2
#     Edge 184, Type (0, 0), BuildingBlock: OJICUG_clean_linker_0, # of connection points: 2
#     Edge 185, Type (0, 0), BuildingBlock: OJICUG_clean_linker_0, # of connection points: 2
#     Edge 186, Type (0, 0), BuildingBlock: OJICUG_clean_linker_0, # of connection points: 2
#     Edge 187, Type (0, 0), BuildingBlock: OJICUG_clean_linker_0, # of connection points: 2
#     Edge 188, Type (0, 0), BuildingBlock: OJICUG_clean_linker_0, # of connection points: 2
#     Edge 189, Type (0, 0), BuildingBlock: OJICUG_clean_linker_0, # of connection points: 2
#     Edge 190, Type (0, 0), BuildingBlock: OJICUG_clean_linker_0, # of connection points: 2
#     Edge 191, Type (0, 0), BuildingBlock: OJICUG_clean_linker_0, # of connection points: 2
#     Edge 192, Type (0, 0), BuildingBlock: OJICUG_clean_linker_0, # of connection points: 2
#     Edge 193, Type (0, 0), BuildingBlock: OJICUG_clean_linker_0, # of connection points: 2
#     Edge 194, Type (0, 0), BuildingBlock: OJICUG_clean_linker_0, # of connection points: 2
#     Edge 195, Type (0, 0), BuildingBlock: OJICUG_clean_linker_0, # of connection points: 2
#     Edge 196, Type (0, 0), BuildingBlock: OJICUG_clean_linker_0, # of connection points: 2
#     Edge 197, Type (0, 0), BuildingBlock: OJICUG_clean_linker_0, # of connection points: 2
#     Edge 198, Type (0, 0), BuildingBlock: OJICUG_clean_linker_0, # of connection points: 2
#     Edge 199, Type (0, 0), BuildingBlock: OJICUG_clean_linker_0, # of connection points: 2
#     Edge 200, Type (0, 0), BuildingBlock: OJICUG_clean_linker_0, # of connection points: 2
#     Edge 201, Type (0, 0), BuildingBlock: OJICUG_clean_linker_0, # of connection points: 2
#     Edge 202, Type (0, 0), BuildingBlock: OJICUG_clean_linker_0, # of connection points: 2
#     Edge 203, Type (0, 0), BuildingBlock: OJICUG_clean_linker_0, # of connection points: 2
#     Edge 204, Type (0, 0), BuildingBlock: OJICUG_clean_linker_0, # of connection points: 2
#     Edge 205, Type (0, 0), BuildingBlock: OJICUG_clean_linker_0, # of connection points: 2
#     Edge 206, Type (0, 0), BuildingBlock: OJICUG_clean_linker_0, # of connection points: 2
#     Edge 207, Type (0, 0), BuildingBlock: OJICUG_clean_linker_0, # of connection points: 2
#     Edge 208, Type (0, 0), BuildingBlock: OJICUG_clean_linker_0, # of connection points: 2
#     Edge 209, Type (0, 0), BuildingBlock: OJICUG_clean_linker_0, # of connection points: 2
#     Edge 210, Type (0, 0), BuildingBlock: OJICUG_clean_linker_0, # of connection points: 2
#     Edge 211, Type (0, 0), BuildingBlock: OJICUG_clean_linker_0, # of connection points: 2
#     Edge 212, Type (0, 0), BuildingBlock: OJICUG_clean_linker_0, # of connection points: 2
#     Edge 213, Type (0, 0), BuildingBlock: OJICUG_clean_linker_0, # of connection points: 2
#     Edge 214, Type (0, 0), BuildingBlock: OJICUG_clean_linker_0, # of connection points: 2
#     Edge 215, Type (0, 0), BuildingBlock: OJICUG_clean_linker_0, # of connection points: 2
#     Edge 216, Type (0, 0), BuildingBlock: OJICUG_clean_linker_0, # of connection points: 2
#     Edge 217, Type (0, 0), BuildingBlock: OJICUG_clean_linker_0, # of connection points: 2
#     Edge 218, Type (0, 0), BuildingBlock: OJICUG_clean_linker_0, # of connection points: 2
#     Edge 219, Type (0, 0), BuildingBlock: OJICUG_clean_linker_0, # of connection points: 2
#     Edge 220, Type (0, 0), BuildingBlock: OJICUG_clean_linker_0, # of connection points: 2
#     Edge 221, Type (0, 0), BuildingBlock: OJICUG_clean_linker_0, # of connection points: 2
#     Edge 222, Type (0, 0), BuildingBlock: OJICUG_clean_linker_0, # of connection points: 2
#     Edge 223, Type (0, 0), BuildingBlock: OJICUG_clean_linker_0, # of connection points: 2
#     Edge 224, Type (0, 0), BuildingBlock: OJICUG_clean_linker_0, # of connection points: 2
#     Edge 225, Type (0, 0), BuildingBlock: OJICUG_clean_linker_0, # of connection points: 2
#     Edge 226, Type (0, 0), BuildingBlock: OJICUG_clean_linker_0, # of connection points: 2
#     Edge 227, Type (0, 0), BuildingBlock: OJICUG_clean_linker_0, # of connection points: 2
#     Edge 228, Type (0, 0), BuildingBlock: OJICUG_clean_linker_0, # of connection points: 2
#     Edge 229, Type (0, 0), BuildingBlock: OJICUG_clean_linker_0, # of connection points: 2
#     Edge 230, Type (0, 0), BuildingBlock: OJICUG_clean_linker_0, # of connection points: 2
#     Edge 231, Type (0, 0), BuildingBlock: OJICUG_clean_linker_0, # of connection points: 2
#     Edge 232, Type (0, 0), BuildingBlock: OJICUG_clean_linker_0, # of connection points: 2
#     Edge 233, Type (0, 0), BuildingBlock: OJICUG_clean_linker_0, # of connection points: 2
#     Edge 234, Type (0, 0), BuildingBlock: OJICUG_clean_linker_0, # of connection points: 2
#     Edge 235, Type (0, 0), BuildingBlock: OJICUG_clean_linker_0, # of connection points: 2
#     Edge 236, Type (0, 0), BuildingBlock: OJICUG_clean_linker_0, # of connection points: 2
#     Edge 237, Type (0, 0), BuildingBlock: OJICUG_clean_linker_0, # of connection points: 2
#     Edge 238, Type (0, 0), BuildingBlock: OJICUG_clean_linker_0, # of connection points: 2
#     Edge 239, Type (0, 0), BuildingBlock: OJICUG_clean_linker_0, # of connection points: 2
#     Edge 240, Type (0, 0), BuildingBlock: OJICUG_clean_linker_0, # of connection points: 2
#     Edge 241, Type (0, 0), BuildingBlock: OJICUG_clean_linker_0, # of connection points: 2
#     Edge 242, Type (0, 0), BuildingBlock: OJICUG_clean_linker_0, # of connection points: 2
#     Edge 243, Type (0, 0), BuildingBlock: OJICUG_clean_linker_0, # of connection points: 2
#     Edge 244, Type (0, 0), BuildingBlock: OJICUG_clean_linker_0, # of connection points: 2
#     Edge 245, Type (0, 0), BuildingBlock: OJICUG_clean_linker_0, # of connection points: 2
#     Edge 246, Type (0, 0), BuildingBlock: OJICUG_clean_linker_0, # of connection points: 2
#     Edge 247, Type (0, 0), BuildingBlock: OJICUG_clean_linker_0, # of connection points: 2
#     Edge 248, Type (0, 0), BuildingBlock: OJICUG_clean_linker_0, # of connection points: 2
#     Edge 249, Type (0, 0), BuildingBlock: OJICUG_clean_linker_0, # of connection points: 2
#     Edge 250, Type (0, 0), BuildingBlock: OJICUG_clean_linker_0, # of connection points: 2
#     Edge 251, Type (0, 0), BuildingBlock: OJICUG_clean_linker_0, # of connection points: 2
#     Edge 252, Type (0, 0), BuildingBlock: OJICUG_clean_linker_0, # of connection points: 2
#     Edge 253, Type (0, 0), BuildingBlock: OJICUG_clean_linker_0, # of connection points: 2
#     Edge 254, Type (0, 0), BuildingBlock: OJICUG_clean_linker_0, # of connection points: 2
#     Edge 255, Type (0, 0), BuildingBlock: OJICUG_clean_linker_0, # of connection points: 2
#     Edge 256, Type (0, 0), BuildingBlock: OJICUG_clean_linker_0, # of connection points: 2
#     Edge 257, Type (0, 0), BuildingBlock: OJICUG_clean_linker_0, # of connection points: 2
#     Edge 258, Type (0, 0), BuildingBlock: OJICUG_clean_linker_0, # of connection points: 2
#     Edge 259, Type (0, 0), BuildingBlock: OJICUG_clean_linker_0, # of connection points: 2
#     Edge 260, Type (0, 0), BuildingBlock: OJICUG_clean_linker_0, # of connection points: 2
#     Edge 261, Type (0, 0), BuildingBlock: OJICUG_clean_linker_0, # of connection points: 2
#     Edge 262, Type (0, 0), BuildingBlock: OJICUG_clean_linker_0, # of connection points: 2
#     Edge 263, Type (0, 0), BuildingBlock: OJICUG_clean_linker_0, # of connection points: 2
#     Edge 264, Type (0, 0), BuildingBlock: OJICUG_clean_linker_0, # of connection points: 2
#     Edge 265, Type (0, 0), BuildingBlock: OJICUG_clean_linker_0, # of connection points: 2
#     Edge 266, Type (0, 0), BuildingBlock: OJICUG_clean_linker_0, # of connection points: 2
#     Edge 267, Type (0, 0), BuildingBlock: OJICUG_clean_linker_0, # of connection points: 2
#     Edge 268, Type (0, 0), BuildingBlock: OJICUG_clean_linker_0, # of connection points: 2
#     Edge 269, Type (0, 0), BuildingBlock: OJICUG_clean_linker_0, # of connection points: 2
#     Edge 270, Type (0, 0), BuildingBlock: OJICUG_clean_linker_0, # of connection points: 2
#     Edge 271, Type (0, 0), BuildingBlock: OJICUG_clean_linker_0, # of connection points: 2
#     Edge 272, Type (0, 0), BuildingBlock: OJICUG_clean_linker_0, # of connection points: 2
#     Edge 273, Type (0, 0), BuildingBlock: OJICUG_clean_linker_0, # of connection points: 2
#     Edge 274, Type (0, 0), BuildingBlock: OJICUG_clean_linker_0, # of connection points: 2
#     Edge 275, Type (0, 0), BuildingBlock: OJICUG_clean_linker_0, # of connection points: 2
#     Edge 276, Type (0, 0), BuildingBlock: OJICUG_clean_linker_0, # of connection points: 2
#     Edge 277, Type (0, 0), BuildingBlock: OJICUG_clean_linker_0, # of connection points: 2
#     Edge 278, Type (0, 0), BuildingBlock: OJICUG_clean_linker_0, # of connection points: 2
#     Edge 279, Type (0, 0), BuildingBlock: OJICUG_clean_linker_0, # of connection points: 2
#     Edge 280, Type (0, 0), BuildingBlock: OJICUG_clean_linker_0, # of connection points: 2
#     Edge 281, Type (0, 0), BuildingBlock: OJICUG_clean_linker_0, # of connection points: 2
#     Edge 282, Type (0, 0), BuildingBlock: OJICUG_clean_linker_0, # of connection points: 2
#     Edge 283, Type (0, 0), BuildingBlock: OJICUG_clean_linker_0, # of connection points: 2
#     Edge 284, Type (0, 0), BuildingBlock: OJICUG_clean_linker_0, # of connection points: 2
#     Edge 285, Type (0, 0), BuildingBlock: OJICUG_clean_linker_0, # of connection points: 2
#     Edge 286, Type (0, 0), BuildingBlock: OJICUG_clean_linker_0, # of connection points: 2
#     Edge 287, Type (0, 0), BuildingBlock: OJICUG_clean_linker_0, # of connection points: 2
# Relax obj value: 0.152
# Max RMSD: 0.090
# Mean RMSD: 0.090
data_MOF--net-kfi--node1-KUFVIS_clean_sbu_0--edge1-OJICUG_clean_linker_0
_symmetry_space_group_name_H-M    P1
_symmetry_Int_Tables_number       1
_symmetry_cell_setting            triclinic
loop_
_symmetry_equiv_pos_as_xyz
'x, y, z'
_cell_length_a     64.656812
_cell_length_b     64.627126
_cell_length_c     64.652775
_cell_angle_alpha  89.979165
_cell_angle_beta   90.003342
_cell_angle_gamma 89.997234
loop_
_atom_site_label
_atom_site_type_symbol
_atom_site_fract_x
_atom_site_fract_y
_atom_site_fract_z
_atom_type_partial_charge
Mn0 Mn 0.07558 0.20618 0.31959 0.0
Mn1 Mn 0.1195 0.2124 0.29202 0.0
C2 C 0.07837 0.23349 0.29571 0.0
C3 C 0.0422 0.19163 0.32252 0.0
C4 C 0.11508 0.22155 0.33847 0.0
O5 O 0.09172 0.1785 0.32352 0.0
O6 O 0.11483 0.18258 0.29762 0.0
C7 C 0.10853 0.1903 0.25402 0.0
N8 N 0.11489 0.20837 0.26244 0.0
C9 C 0.13318 0.21861 0.22832 0.0
C10 C 0.12356 0.19941 0.22075 0.0
C11 C 0.11146 0.18641 0.23312 0.0
C12 C 0.12181 0.22382 0.25011 0.0
H13 H 0.10121 0.1786 0.26341 0.0
C14 C 0.10637 0.17172 0.31187 0.0
O15 O 0.05243 0.19792 0.33861 0.0
O16 O 0.05201 0.19228 0.30502 0.0
N17 N 0.12787 0.24092 0.28653 0.0
C18 C 0.14418 0.25165 0.30241 0.0
C19 C 0.16525 0.26814 0.29578 0.0
C20 C 0.17175 0.27612 0.27054 0.0
C21 C 0.15718 0.26753 0.24917 0.0
C22 C 0.12746 0.24367 0.26205 0.0
H23 H 0.14158 0.24989 0.31838 0.0
O24 O 0.06436 0.23387 0.31006 0.0
O25 O 0.09006 0.21733 0.29575 0.0
O26 O 0.09544 0.22058 0.33978 0.0
O27 O 0.12496 0.21651 0.32199 0.0
C28 C 0.16846 0.263 0.22836 0.0
C29 C 0.16221 0.24295 0.21578 0.0
H30 H 0.12563 0.19304 0.20542 0.0
H31 H 0.10555 0.17212 0.22666 0.0
H32 H 0.17478 0.2738 0.30832 0.0
H33 H 0.18582 0.28481 0.26803 0.0
H34 H 0.18193 0.27189 0.22392 0.0
H35 H 0.17221 0.24222 0.20204 0.0
Mn36 Mn 0.79542 0.07623 0.3186 0.0
Mn37 Mn 0.78481 0.11809 0.28894 0.0
C38 C 0.76904 0.0757 0.2941 0.0
C39 C 0.81187 0.04404 0.32313 0.0
C40 C 0.77478 0.11477 0.33513 0.0
O41 O 0.82154 0.09452 0.32178 0.0
O42 O 0.81455 0.11877 0.29724 0.0
C43 C 0.81463 0.11444 0.2532 0.0
N44 N 0.79421 0.11504 0.25891 0.0
C45 C 0.79189 0.14034 0.22284 0.0
C46 C 0.81273 0.13663 0.2206 0.0
C47 C 0.82304 0.12338 0.23471 0.0
C48 C 0.78068 0.12176 0.24482 0.0
H49 H 0.82562 0.10735 0.26359 0.0
C50 C 0.82644 0.11047 0.31088 0.0
O51 O 0.80477 0.0545 0.33875 0.0
O52 O 0.81117 0.05319 0.30529 0.0
N53 N 0.75397 0.12007 0.28334 0.0
C54 C 0.73907 0.13282 0.30064 0.0
C55 C 0.72284 0.15667 0.29562 0.0
C56 C 0.71961 0.16942 0.26984 0.0
C57 C 0.7326 0.15965 0.2464 0.0
C58 C 0.75512 0.12346 0.25886 0.0
H59 H 0.73845 0.12681 0.31611 0.0
O60 O 0.76894 0.06261 0.30931 0.0
O61 O 0.78436 0.08845 0.29353 0.0
O62 O 0.77919 0.09579 0.33814 0.0
O63 O 0.77773 0.12361 0.31778 0.0
C64 C 0.74926 0.17649 0.22572 0.0
C65 C 0.77829 0.1682 0.2136 0.0
H66 H 0.82148 0.14516 0.20918 0.0
H67 H 0.83952 0.1215 0.23237 0.0
H68 H 0.71485 0.16346 0.30866 0.0
H69 H 0.71168 0.18413 0.26913 0.0
H70 H 0.74372 0.19188 0.2222 0.0
H71 H 0.78666 0.17881 0.20372 0.0
Mn72 Mn 0.928 0.79959 0.31947 0.0
Mn73 Mn 0.88236 0.78625 0.29701 0.0
C74 C 0.92562 0.77152 0.29727 0.0
C75 C 0.95981 0.81685 0.3199 0.0
C76 C 0.89343 0.7771 0.342 0.0
O77 O 0.91043 0.82587 0.32341 0.0
O78 O 0.88188 0.81587 0.30573 0.0
C79 C 0.88142 0.8169 0.26129 0.0
N80 N 0.88189 0.79644 0.26693 0.0
C81 C 0.85624 0.79315 0.23117 0.0
C82 C 0.85873 0.81419 0.22912 0.0
C83 C 0.87181 0.82499 0.243 0.0
C84 C 0.87583 0.78276 0.25271 0.0
H85 H 0.88843 0.82811 0.2714 0.0
C86 C 0.8924 0.8293 0.31591 0.0
O87 O 0.95103 0.8104 0.33674 0.0
O88 O 0.94934 0.8147 0.30287 0.0
N89 N 0.87986 0.75565 0.29078 0.0
C90 C 0.86802 0.73995 0.30814 0.0
C91 C 0.84533 0.72217 0.30309 0.0
C92 C 0.83259 0.71844 0.27742 0.0
C93 C 0.84119 0.73236 0.25408 0.0
C94 C 0.87598 0.75697 0.26635 0.0
H95 H 0.87188 0.74155 0.32412 0.0
O96 O 0.94075 0.77276 0.3104 0.0
O97 O 0.91257 0.78664 0.29724 0.0
O98 O 0.91169 0.78433 0.34187 0.0
O99 O 0.88122 0.7779 0.32649 0.0
C100 C 0.82292 0.74823 0.23396 0.0
C101 C 0.82914 0.77796 0.22214 0.0
H102 H 0.8495 0.82263 0.218 0.0
H103 H 0.87301 0.84154 0.24066 0.0
H104 H 0.83876 0.71413 0.31621 0.0
H105 H 0.81834 0.7097 0.27679 0.0
H106 H 0.80787 0.74174 0.2306 0.0
H107 H 0.8179 0.78574 0.2125 0.0
Mn108 Mn 0.20558 0.92684 0.31767 0.0
Mn109 Mn 0.20907 0.88617 0.28459 0.0
C110 C 0.23234 0.92578 0.29367 0.0
C111 C 0.19247 0.96048 0.32439 0.0
C112 C 0.22237 0.88453 0.32982 0.0
O113 O 0.17755 0.91175 0.32116 0.0
O114 O 0.18005 0.8909 0.29339 0.0
C115 C 0.18427 0.88857 0.25151 0.0
N116 N 0.20386 0.89314 0.2565 0.0
C117 C 0.22201 0.86125 0.24666 0.0
C118 C 0.19694 0.85406 0.25118 0.0
C119 C 0.17996 0.8677 0.25118 0.0
C120 C 0.21807 0.88261 0.24465 0.0
H121 H 0.17199 0.89968 0.25398 0.0
C122 C 0.16991 0.89852 0.30853 0.0
O123 O 0.19891 0.94856 0.33926 0.0
O124 O 0.19215 0.95224 0.30614 0.0
N125 N 0.23517 0.87833 0.27456 0.0
C126 C 0.25285 0.87892 0.28629 0.0
C127 C 0.27145 0.86822 0.27994 0.0
C128 C 0.27706 0.84673 0.25259 0.0
C129 C 0.25525 0.84608 0.23833 0.0
C130 C 0.23107 0.86735 0.2537 0.0
H131 H 0.25277 0.8874 0.3007 0.0
O132 O 0.23312 0.93809 0.30943 0.0
O133 O 0.21555 0.91498 0.29167 0.0
O134 O 0.2202 0.90373 0.33427 0.0
O135 O 0.21614 0.87664 0.31277 0.0
C136 C 0.25659 0.83055 0.22007 0.0
C137 C 0.24853 0.84426 0.23221 0.0
H138 H 0.19188 0.83821 0.25354 0.0
H139 H 0.1642 0.86211 0.25209 0.0
H140 H 0.28199 0.87338 0.29234 0.0
H141 H 0.29016 0.83749 0.24676 0.0
H142 H 0.27274 0.82288 0.22076 0.0
H143 H 0.24698 0.83221 0.2126 0.0
Mn144 Mn 0.08757 0.79248 0.68305 0.0
Mn145 Mn 0.13044 0.78721 0.71277 0.0
C146 C 0.08969 0.76562 0.70724 0.0
C147 C 0.05409 0.80674 0.67853 0.0
C148 C 0.12831 0.77595 0.66685 0.0
O149 O 0.10313 0.82041 0.67949 0.0
O150 O 0.12586 0.81667 0.70575 0.0
C151 C 0.11638 0.81053 0.74904 0.0
N152 N 0.12368 0.7923 0.74179 0.0
C153 C 0.13851 0.78313 0.77781 0.0
C154 C 0.12806 0.80243 0.78388 0.0
C155 C 0.11718 0.815 0.77002 0.0
C156 C 0.12932 0.77722 0.75519 0.0
H157 H 0.10985 0.82187 0.73869 0.0
C158 C 0.11718 0.8275 0.69163 0.0
O159 O 0.06495 0.80018 0.66296 0.0
O160 O 0.06322 0.80634 0.69638 0.0
N161 N 0.13898 0.75919 0.71998 0.0
C162 C 0.15699 0.74838 0.70601 0.0
C163 C 0.17737 0.73222 0.71516 0.0
C164 C 0.18138 0.72493 0.74112 0.0
C165 C 0.16472 0.73393 0.76072 0.0
C166 C 0.13621 0.75709 0.74443 0.0
H167 H 0.15772 0.75169 0.68992 0.0
O168 O 0.07629 0.76488 0.69234 0.0
O169 O 0.10122 0.78189 0.70756 0.0
O170 O 0.10878 0.77782 0.66448 0.0
O171 O 0.13779 0.78172 0.68333 0.0
C172 C 0.17397 0.73917 0.78236 0.0
C173 C 0.16642 0.75951 0.7937 0.0
H174 H 0.12855 0.80922 0.79917 0.0
H175 H 0.11054 0.82939 0.77547 0.0
H176 H 0.18848 0.72682 0.70388 0.0
H177 H 0.19528 0.71657 0.74524 0.0
H178 H 0.18703 0.73055 0.7883 0.0
H179 H 0.17508 0.76076 0.80825 0.0
Mn180 Mn 0.20506 0.07795 0.68727 0.0
Mn181 Mn 0.21192 0.12045 0.71719 0.0
C182 C 0.23279 0.07935 0.71053 0.0
C183 C 0.19031 0.04509 0.68271 0.0
C184 C 0.22488 0.11793 0.67187 0.0
O185 O 0.17722 0.09328 0.68365 0.0
O186 O 0.18297 0.11795 0.7073 0.0
C187 C 0.18549 0.12055 0.74901 0.0
N188 N 0.20495 0.11474 0.74516 0.0
C189 C 0.22447 0.14563 0.75499 0.0
C190 C 0.20018 0.15423 0.74885 0.0
C191 C 0.18252 0.14156 0.74789 0.0
C192 C 0.21914 0.12467 0.75739 0.0
H193 H 0.17277 0.11007 0.74616 0.0
C194 C 0.17125 0.10871 0.69444 0.0
O195 O 0.19681 0.05592 0.66707 0.0
O196 O 0.1912 0.05391 0.70068 0.0
N197 N 0.23795 0.1271 0.72822 0.0
C198 C 0.25602 0.12553 0.71722 0.0
C199 C 0.27479 0.13569 0.72399 0.0
C200 C 0.28034 0.15737 0.75128 0.0
C201 C 0.25801 0.1592 0.76465 0.0
C202 C 0.23348 0.13883 0.74859 0.0
H203 H 0.25614 0.11653 0.70311 0.0
O204 O 0.23262 0.06624 0.6954 0.0
O205 O 0.21649 0.09092 0.7122 0.0
O206 O 0.21971 0.09914 0.66854 0.0
O207 O 0.22111 0.1275 0.68883 0.0
C208 C 0.25934 0.17484 0.78282 0.0
C209 C 0.25115 0.16139 0.77047 0.0
H210 H 0.1962 0.17027 0.74583 0.0
H211 H 0.16745 0.14779 0.74467 0.0
H212 H 0.28552 0.12991 0.71204 0.0
H213 H 0.29361 0.16611 0.75745 0.0
H214 H 0.27583 0.18173 0.78272 0.0
H215 H 0.24936 0.17366 0.78993 0.0
Mn216 Mn 0.92652 0.2092 0.68214 0.0
Mn217 Mn 0.88024 0.21438 0.70671 0.0
C218 C 0.92146 0.2363 0.7055 0.0
C219 C 0.96003 0.19521 0.67972 0.0
C220 C 0.88821 0.22596 0.6618 0.0
O221 O 0.91184 0.18118 0.67718 0.0
O222 O 0.88611 0.18499 0.70046 0.0
C223 C 0.89041 0.19154 0.74462 0.0
N224 N 0.88371 0.20958 0.73639 0.0
C225 C 0.86586 0.21938 0.77091 0.0
C226 C 0.87584 0.20026 0.7782 0.0
C227 C 0.88784 0.18746 0.76554 0.0
C228 C 0.87683 0.2249 0.74896 0.0
H229 H 0.8979 0.18006 0.73512 0.0
C230 C 0.89671 0.17407 0.68783 0.0
O231 O 0.95011 0.20181 0.6636 0.0
O232 O 0.94999 0.19554 0.69715 0.0
N233 N 0.87 0.24207 0.7127 0.0
C234 C 0.85289 0.25212 0.69704 0.0
C235 C 0.83174 0.26835 0.70411 0.0
C236 C 0.82561 0.27628 0.72947 0.0
C237 C 0.84074 0.26798 0.75058 0.0
C238 C 0.87071 0.24476 0.73723 0.0
H239 H 0.8523 0.24699 0.68127 0.0
O240 O 0.93651 0.23686 0.69225 0.0
O241 O 0.91009 0.21988 0.70503 0.0
O242 O 0.9077 0.22375 0.6618 0.0
O243 O 0.87642 0.22004 0.67661 0.0
C244 C 0.82982 0.26315 0.77155 0.0
C245 C 0.83658 0.24314 0.78396 0.0
H246 H 0.87413 0.19377 0.79353 0.0
H247 H 0.89405 0.17321 0.77181 0.0
H248 H 0.82133 0.27307 0.69192 0.0
H249 H 0.81132 0.28452 0.73225 0.0
H250 H 0.81627 0.27178 0.7762 0.0
H251 H 0.82678 0.24215 0.79784 0.0
Mn252 Mn 0.80771 0.9276 0.68379 0.0
Mn253 Mn 0.80118 0.88471 0.71328 0.0
C254 C 0.78208 0.92704 0.7092 0.0
C255 C 0.82261 0.9601 0.67765 0.0
C256 C 0.78308 0.88957 0.66975 0.0
O257 O 0.8346 0.91146 0.67813 0.0
O258 O 0.82856 0.88456 0.69936 0.0
C259 C 0.83634 0.88856 0.74426 0.0
N260 N 0.81582 0.8858 0.7403 0.0
C261 C 0.81565 0.86165 0.77445 0.0
C262 C 0.83641 0.86673 0.77662 0.0
C263 C 0.84615 0.88018 0.76221 0.0
C264 C 0.80474 0.87504 0.7538 0.0
H265 H 0.84567 0.89694 0.73326 0.0
C266 C 0.83996 0.8944 0.68657 0.0
O267 O 0.81461 0.94927 0.66277 0.0
O268 O 0.82335 0.95137 0.69571 0.0
N269 N 0.77438 0.8814 0.72694 0.0
C270 C 0.75404 0.88113 0.71655 0.0
C271 C 0.73497 0.86714 0.72316 0.0
C272 C 0.73809 0.84219 0.75443 0.0
C273 C 0.76084 0.84433 0.76472 0.0
C274 C 0.78077 0.87095 0.74547 0.0
H275 H 0.75225 0.88985 0.70244 0.0
O276 O 0.78162 0.94007 0.694 0.0
O277 O 0.79833 0.91498 0.71017 0.0
O278 O 0.79047 0.90742 0.66557 0.0
O279 O 0.7869 0.88027 0.68671 0.0
C280 C 0.77545 0.83319 0.78558 0.0
C281 C 0.80279 0.84188 0.79 0.0
H282 H 0.84536 0.85987 0.78899 0.0
H283 H 0.86247 0.88329 0.76431 0.0
H284 H 0.72205 0.86995 0.71245 0.0
H285 H 0.72731 0.83121 0.76152 0.0
H286 H 0.76551 0.82089 0.79445 0.0
H287 H 0.78877 0.83579 0.78971 0.0
Mn288 Mn 0.31789 0.08123 0.20715 0.0
Mn289 Mn 0.28997 0.12424 0.21755 0.0
C290 C 0.29513 0.08229 0.23487 0.0
C291 C 0.32052 0.04881 0.19083 0.0
C292 C 0.33628 0.11995 0.22612 0.0
O293 O 0.3203 0.09834 0.18025 0.0
O294 O 0.29675 0.12335 0.18742 0.0
C295 C 0.25279 0.11952 0.18953 0.0
N296 N 0.25954 0.1211 0.20957 0.0
C297 C 0.22338 0.14619 0.21264 0.0
C298 C 0.22029 0.14178 0.19204 0.0
C299 C 0.23393 0.12813 0.18162 0.0
C300 C 0.24605 0.1282 0.22344 0.0
H301 H 0.26252 0.11169 0.17849 0.0
C302 C 0.30931 0.11408 0.17509 0.0
O303 O 0.33681 0.05878 0.19709 0.0
O304 O 0.303 0.05837 0.19265 0.0
N305 N 0.28573 0.12779 0.24846 0.0
C306 C 0.30349 0.1413 0.2622 0.0
C307 C 0.29871 0.1654 0.27809 0.0
C308 C 0.27288 0.17776 0.28211 0.0
C309 C 0.24909 0.16729 0.27037 0.0
C310 C 0.26115 0.13078 0.24828 0.0
H311 H 0.31934 0.13644 0.26143 0.0
O312 O 0.30977 0.06858 0.23442 0.0
O313 O 0.29399 0.09454 0.21916 0.0
O314 O 0.33845 0.10075 0.22207 0.0
O315 O 0.31929 0.12955 0.22328 0.0
C316 C 0.22758 0.18354 0.25413 0.0
C317 C 0.21433 0.17429 0.22584 0.0
H318 H 0.20847 0.14998 0.18347 0.0
H319 H 0.23081 0.12553 0.16538 0.0
H320 H 0.31199 0.17278 0.2851 0.0
H321 H 0.27225 0.19269 0.28965 0.0
H322 H 0.22415 0.19904 0.25939 0.0
H323 H 0.20406 0.18455 0.21752 0.0
Mn324 Mn 0.92209 0.323 0.20643 0.0
Mn325 Mn 0.87602 0.29917 0.21507 0.0
C326 C 0.91822 0.30026 0.23449 0.0
C327 C 0.95517 0.32432 0.19117 0.0
C328 C 0.88492 0.34429 0.22534 0.0
O329 O 0.90617 0.32706 0.17871 0.0
O330 O 0.87962 0.30549 0.18542 0.0
C331 C 0.88574 0.26166 0.19157 0.0
N332 N 0.87943 0.26967 0.20983 0.0
C333 C 0.86201 0.23522 0.21983 0.0
C334 C 0.87128 0.22808 0.20029 0.0
C335 C 0.88303 0.2408 0.18732 0.0
C336 C 0.87338 0.25691 0.22527 0.0
H337 H 0.89305 0.2713 0.18009 0.0
C338 C 0.88998 0.31696 0.17316 0.0
O339 O 0.94569 0.34085 0.19741 0.0
O340 O 0.94482 0.30712 0.19242 0.0
N341 N 0.86762 0.29299 0.2433 0.0
C342 C 0.85111 0.30866 0.2543 0.0
C343 C 0.83051 0.30152 0.27118 0.0
C344 C 0.82441 0.27608 0.2789 0.0
C345 C 0.83895 0.25495 0.26967 0.0
C346 C 0.86819 0.26839 0.24556 0.0
H347 H 0.85047 0.32453 0.24948 0.0
O348 O 0.93325 0.31353 0.23404 0.0
O349 O 0.90607 0.30061 0.21867 0.0
O350 O 0.90412 0.34428 0.22117 0.0
O351 O 0.87272 0.32921 0.2212 0.0
C352 C 0.82759 0.23419 0.26486 0.0
C353 C 0.83345 0.22207 0.24438 0.0
H354 H 0.86919 0.21287 0.19364 0.0
H355 H 0.88885 0.23466 0.17285 0.0
H356 H 0.82036 0.31374 0.27643 0.0
H357 H 0.81039 0.2733 0.2876 0.0
H358 H 0.81431 0.22953 0.2739 0.0
H359 H 0.82345 0.20833 0.2435 0.0
Mn360 Mn 0.68267 0.92223 0.20704 0.0
Mn361 Mn 0.7125 0.88006 0.21602 0.0
C362 C 0.70672 0.92185 0.23362 0.0
C363 C 0.67765 0.95489 0.19145 0.0
C364 C 0.66631 0.88252 0.22539 0.0
O365 O 0.67998 0.90492 0.18028 0.0
O366 O 0.70539 0.88118 0.18594 0.0
C367 C 0.7496 0.88446 0.18794 0.0
N368 N 0.74298 0.88328 0.20807 0.0
C369 C 0.77877 0.85746 0.21112 0.0
C370 C 0.78186 0.86179 0.1905 0.0
C371 C 0.76833 0.87553 0.18004 0.0
C372 C 0.75642 0.87583 0.22192 0.0
H373 H 0.73979 0.89204 0.17676 0.0
C374 C 0.69156 0.8898 0.17444 0.0
O375 O 0.66222 0.94401 0.19829 0.0
O376 O 0.69565 0.94605 0.19209 0.0
N377 N 0.71676 0.87676 0.24695 0.0
C378 C 0.69886 0.86358 0.26084 0.0
C379 C 0.70332 0.83944 0.27677 0.0
C380 C 0.72897 0.82671 0.28074 0.0
C381 C 0.75286 0.8368 0.26889 0.0
C382 C 0.74129 0.87344 0.24672 0.0
H383 H 0.68322 0.86906 0.26064 0.0
O384 O 0.69152 0.93495 0.23398 0.0
O385 O 0.70771 0.90975 0.21778 0.0
O386 O 0.66352 0.90184 0.22263 0.0
O387 O 0.68346 0.87371 0.22157 0.0
C388 C 0.77397 0.8201 0.2526 0.0
C389 C 0.78737 0.82917 0.22428 0.0
H390 H 0.79351 0.85338 0.18192 0.0
H391 H 0.77137 0.8779 0.16374 0.0
H392 H 0.68998 0.83237 0.28397 0.0
H393 H 0.7294 0.8118 0.28832 0.0
H394 H 0.77716 0.80454 0.25789 0.0
H395 H 0.79754 0.81877 0.21602 0.0
Mn396 Mn 0.07769 0.68882 0.20561 0.0
Mn397 Mn 0.12205 0.71575 0.21405 0.0
C398 C 0.07958 0.71349 0.23155 0.0
C399 C 0.04489 0.68444 0.19058 0.0
C400 C 0.11449 0.67275 0.23127 0.0
O401 O 0.09334 0.68328 0.1787 0.0
O402 O 0.12252 0.70003 0.18754 0.0
C403 C 0.11889 0.74433 0.17693 0.0
N404 N 0.12193 0.74166 0.19762 0.0
C405 C 0.14617 0.77546 0.19533 0.0
C406 C 0.14101 0.77631 0.1745 0.0
C407 C 0.12729 0.76149 0.16586 0.0
C408 C 0.13254 0.75587 0.2078 0.0
H409 H 0.11018 0.73291 0.16845 0.0
C410 C 0.11188 0.68894 0.17509 0.0
O411 O 0.05515 0.66892 0.19814 0.0
O412 O 0.05427 0.70219 0.19052 0.0
N413 N 0.12594 0.73129 0.24027 0.0
C414 C 0.12647 0.72252 0.26153 0.0
C415 C 0.14094 0.73055 0.28009 0.0
C416 C 0.16616 0.76102 0.27379 0.0
C417 C 0.16383 0.76944 0.25049 0.0
C418 C 0.13663 0.74921 0.23239 0.0
H419 H 0.11755 0.70876 0.26454 0.0
O420 O 0.06591 0.69885 0.23209 0.0
O421 O 0.09169 0.71412 0.21547 0.0
O422 O 0.09748 0.6693 0.22178 0.0
O423 O 0.12431 0.68984 0.22993 0.0
C424 C 0.17516 0.78891 0.2343 0.0
C425 C 0.16629 0.79149 0.20685 0.0
H426 H 0.14797 0.78795 0.16469 0.0
H427 H 0.124 0.76256 0.14948 0.0
H428 H 0.13818 0.72117 0.294 0.0
H429 H 0.17751 0.76885 0.28366 0.0
H430 H 0.18773 0.79822 0.24348 0.0
H431 H 0.17249 0.79208 0.22078 0.0
Mn432 Mn 0.31881 0.92168 0.80117 0.0
Mn433 Mn 0.2878 0.87963 0.79509 0.0
C434 C 0.29526 0.92054 0.7737 0.0
C435 C 0.32353 0.95564 0.81474 0.0
C436 C 0.33337 0.88071 0.7818 0.0
O437 O 0.32194 0.90636 0.82941 0.0
O438 O 0.29758 0.88222 0.82387 0.0
C439 C 0.25555 0.87899 0.82135 0.0
N440 N 0.25986 0.88543 0.80212 0.0
C441 C 0.24896 0.85555 0.7814 0.0
C442 C 0.25404 0.84586 0.80551 0.0
C443 C 0.25494 0.85782 0.82368 0.0
C444 C 0.24746 0.87643 0.78743 0.0
H445 H 0.25835 0.88892 0.8345 0.0
C446 C 0.31069 0.89118 0.83551 0.0
O447 O 0.33909 0.9444 0.80876 0.0
O448 O 0.30572 0.9465 0.81453 0.0
N449 N 0.2768 0.87338 0.76908 0.0
C450 C 0.28812 0.87531 0.75129 0.0
C451 C 0.28108 0.86654 0.73207 0.0
C452 C 0.2531 0.84626 0.72507 0.0
C453 C 0.23935 0.84384 0.74713 0.0
C454 C 0.25588 0.86237 0.77278 0.0
H455 H 0.30266 0.88357 0.75173 0.0
O456 O 0.31082 0.93311 0.77357 0.0
O457 O 0.29335 0.90913 0.79015 0.0
O458 O 0.3372 0.89966 0.78637 0.0
O459 O 0.3161 0.87194 0.78608 0.0
C460 C 0.22063 0.829 0.74482 0.0
C461 C 0.23337 0.84156 0.75381 0.0
H462 H 0.25609 0.82954 0.80898 0.0
H463 H 0.25614 0.85074 0.83882 0.0
H464 H 0.29343 0.8724 0.72182 0.0
H465 H 0.24678 0.83852 0.71127 0.0
H466 H 0.22069 0.82295 0.72801 0.0
H467 H 0.21346 0.82991 0.75478 0.0
Mn468 Mn 0.07549 0.3219 0.79683 0.0
Mn469 Mn 0.11827 0.29253 0.78956 0.0
C470 C 0.07748 0.29821 0.76991 0.0
C471 C 0.04224 0.32578 0.81145 0.0
C472 C 0.11573 0.33856 0.77946 0.0
O473 O 0.09132 0.32473 0.8245 0.0
O474 O 0.11591 0.30024 0.81925 0.0
C475 C 0.1108 0.25647 0.8184 0.0
N476 N 0.11382 0.2625 0.79829 0.0
C477 C 0.13821 0.22579 0.79802 0.0
C478 C 0.13244 0.22345 0.81838 0.0
C479 C 0.11847 0.23771 0.82745 0.0
C480 C 0.12149 0.24845 0.78535 0.0
H481 H 0.10253 0.26674 0.8286 0.0
C482 C 0.10645 0.31343 0.83071 0.0
O483 O 0.05282 0.34164 0.80506 0.0
O484 O 0.05156 0.30805 0.81067 0.0
N485 N 0.12357 0.28726 0.75905 0.0
C486 C 0.13833 0.30428 0.74564 0.0
C487 C 0.16328 0.29846 0.73146 0.0
C488 C 0.17526 0.27222 0.72905 0.0
C489 C 0.16351 0.24904 0.74084 0.0
C490 C 0.12597 0.26263 0.7602 0.0
H491 H 0.13375 0.32023 0.74553 0.0
O492 O 0.06408 0.31313 0.76919 0.0
O493 O 0.08884 0.29731 0.78626 0.0
O494 O 0.09638 0.34138 0.78229 0.0
O495 O 0.12468 0.32144 0.78334 0.0
C496 C 0.17802 0.22759 0.75875 0.0
C497 C 0.16683 0.21567 0.78689 0.0
H498 H 0.1398 0.21176 0.82782 0.0
H499 H 0.11477 0.23518 0.84359 0.0
H500 H 0.17138 0.31134 0.7245 0.0
H501 H 0.1906 0.27103 0.7225 0.0
H502 H 0.19368 0.2235 0.75453 0.0
H503 H 0.17627 0.20533 0.79606 0.0
Mn504 Mn 0.68698 0.07586 0.79291 0.0
Mn505 Mn 0.71642 0.11778 0.78295 0.0
C506 C 0.71226 0.0754 0.76715 0.0
C507 C 0.6821 0.0439 0.80934 0.0
C508 C 0.67048 0.1143 0.77194 0.0
O509 O 0.68324 0.09379 0.81911 0.0
O510 O 0.70756 0.11836 0.81268 0.0
C511 C 0.75147 0.1146 0.81353 0.0
N512 N 0.7462 0.11521 0.793 0.0
C513 C 0.78096 0.14227 0.79174 0.0
C514 C 0.78278 0.13861 0.81264 0.0
C515 C 0.76919 0.1245 0.8225 0.0
C516 C 0.76025 0.12272 0.7799 0.0
H517 H 0.74126 0.1067 0.8241 0.0
C518 C 0.69403 0.10963 0.82445 0.0
O519 O 0.66664 0.0543 0.80181 0.0
O520 O 0.70001 0.05293 0.80891 0.0
N521 N 0.72269 0.11926 0.75215 0.0
C522 C 0.70532 0.13096 0.7366 0.0
C523 C 0.70952 0.15514 0.72054 0.0
C524 C 0.73469 0.16923 0.71811 0.0
C525 C 0.75821 0.16062 0.7318 0.0
C526 C 0.74688 0.1238 0.75396 0.0
H527 H 0.69072 0.12326 0.73465 0.0
O528 O 0.69703 0.06234 0.76656 0.0
O529 O 0.71226 0.08813 0.78249 0.0
O530 O 0.66763 0.09531 0.77634 0.0
O531 O 0.68767 0.12331 0.77521 0.0
C532 C 0.77767 0.17828 0.74904 0.0
C533 C 0.78928 0.17052 0.7784 0.0
H534 H 0.79342 0.14774 0.82178 0.0
H535 H 0.7712 0.12259 0.83901 0.0
H536 H 0.69652 0.16103 0.71184 0.0
H537 H 0.73491 0.18393 0.71012 0.0
H538 H 0.78062 0.19383 0.74362 0.0
H539 H 0.79838 0.18156 0.78707 0.0
Mn540 Mn 0.92628 0.68547 0.79782 0.0
Mn541 Mn 0.88578 0.71597 0.78508 0.0
C542 C 0.92857 0.7097 0.7712 0.0
C543 C 0.9578 0.68048 0.81533 0.0
C544 C 0.88813 0.66958 0.77576 0.0
O545 O 0.90712 0.68326 0.82345 0.0
O546 O 0.88373 0.70822 0.81514 0.0
C547 C 0.88893 0.75218 0.81433 0.0
N548 N 0.88895 0.74608 0.79403 0.0
C549 C 0.86337 0.7818 0.79021 0.0
C550 C 0.86627 0.78437 0.81115 0.0
C551 C 0.87941 0.77065 0.82213 0.0
C552 C 0.88255 0.75986 0.78006 0.0
H553 H 0.89598 0.74212 0.82563 0.0
C554 C 0.89139 0.69474 0.82774 0.0
O555 O 0.94723 0.66497 0.80815 0.0
O556 O 0.94905 0.69848 0.81414 0.0
N557 N 0.88566 0.7211 0.75399 0.0
C558 C 0.87392 0.70358 0.73863 0.0
C559 C 0.85067 0.70807 0.72137 0.0
C560 C 0.83773 0.73367 0.71733 0.0
C561 C 0.84669 0.75739 0.73045 0.0
C562 C 0.88203 0.74552 0.75464 0.0
H563 H 0.88101 0.68858 0.73766 0.0
O564 O 0.9411 0.69404 0.77171 0.0
O565 O 0.91525 0.71076 0.78601 0.0
O566 O 0.9068 0.66616 0.78111 0.0
O567 O 0.87964 0.68717 0.77818 0.0
C568 C 0.82911 0.77819 0.74613 0.0
C569 C 0.83609 0.79069 0.77533 0.0
H570 H 0.85724 0.79576 0.81945 0.0
H571 H 0.88076 0.7733 0.83861 0.0
H572 H 0.84461 0.69494 0.71297 0.0
H573 H 0.82341 0.73413 0.70871 0.0
H574 H 0.81395 0.78156 0.73991 0.0
H575 H 0.82508 0.8006 0.78311 0.0
Mn576 Mn 0.20471 0.3205 0.07705 0.0
Mn577 Mn 0.21818 0.29743 0.12248 0.0
C578 C 0.23239 0.29786 0.07892 0.0
C579 C 0.1869 0.32188 0.04559 0.0
C580 C 0.22738 0.34247 0.11165 0.0
O581 O 0.17888 0.3247 0.09507 0.0
O582 O 0.18856 0.30619 0.12328 0.0
C583 C 0.1878 0.26162 0.12434 0.0
N584 N 0.20826 0.26722 0.12317 0.0
C585 C 0.21228 0.2315 0.14891 0.0
C586 C 0.19121 0.22939 0.14691 0.0
C587 C 0.18001 0.24335 0.13425 0.0
C588 C 0.22218 0.25306 0.12907 0.0
H589 H 0.17631 0.27182 0.11784 0.0
C590 C 0.17538 0.31695 0.11299 0.0
O591 O 0.19394 0.33839 0.0545 0.0
O592 O 0.18888 0.3046 0.05571 0.0
N593 N 0.24884 0.29141 0.12457 0.0
C594 C 0.26451 0.30897 0.13613 0.0
C595 C 0.28259 0.3042 0.15864 0.0
C596 C 0.28672 0.27862 0.17146 0.0
C597 C 0.27296 0.2551 0.16312 0.0
C598 C 0.24782 0.26696 0.12856 0.0
H599 H 0.26278 0.32487 0.13216 0.0
O600 O 0.23113 0.3111 0.06387 0.0
O601 O 0.21744 0.29787 0.09219 0.0
O602 O 0.22056 0.34245 0.09327 0.0
O603 O 0.22625 0.32693 0.12378 0.0
C604 C 0.25751 0.23496 0.18174 0.0
C605 C 0.22785 0.22278 0.17591 0.0
H606 H 0.18305 0.21826 0.15637 0.0
H607 H 0.16343 0.2411 0.13366 0.0
H608 H 0.29058 0.31743 0.16504 0.0
H609 H 0.29563 0.27815 0.18561 0.0
H610 H 0.2642 0.23177 0.19674 0.0
H611 H 0.22025 0.21318 0.18733 0.0
Mn612 Mn 0.20236 0.68354 0.931 0.0
Mn613 Mn 0.20587 0.71498 0.8892 0.0
C614 C 0.22794 0.70906 0.93029 0.0
C615 C 0.18867 0.67679 0.96394 0.0
C616 C 0.22189 0.67026 0.89033 0.0
O617 O 0.17508 0.67803 0.91533 0.0
O618 O 0.17744 0.70412 0.89242 0.0
C619 C 0.17861 0.74631 0.88847 0.0
N620 N 0.19806 0.74283 0.89477 0.0
C621 C 0.21818 0.75397 0.86448 0.0
C622 C 0.19409 0.7482 0.85517 0.0
C623 C 0.1761 0.74673 0.86732 0.0
C624 C 0.2123 0.75563 0.88541 0.0
H625 H 0.16563 0.74265 0.89838 0.0
C626 C 0.16758 0.68929 0.9009 0.0
O627 O 0.1962 0.66205 0.95254 0.0
O628 O 0.18756 0.69495 0.95549 0.0
N629 N 0.23127 0.72677 0.88273 0.0
C630 C 0.24926 0.71595 0.88491 0.0
C631 C 0.26809 0.72302 0.87569 0.0
C632 C 0.27448 0.75061 0.85467 0.0
C633 C 0.25215 0.76396 0.85217 0.0
C634 C 0.22702 0.74737 0.87134 0.0
H635 H 0.24924 0.70175 0.89374 0.0
O636 O 0.229 0.69355 0.94291 0.0
O637 O 0.2115 0.70982 0.91869 0.0
O638 O 0.21844 0.66658 0.90942 0.0
O639 O 0.21591 0.68688 0.88125 0.0
C640 C 0.25395 0.78238 0.83688 0.0
C641 C 0.24534 0.76978 0.84985 0.0
H642 H 0.19051 0.74577 0.83895 0.0
H643 H 0.16099 0.74476 0.8604 0.0
H644 H 0.27857 0.71092 0.88172 0.0
H645 H 0.28808 0.75692 0.84658 0.0
H646 H 0.27068 0.78246 0.83062 0.0
H647 H 0.24388 0.78942 0.83778 0.0
Mn648 Mn 0.31616 0.20639 0.92581 0.0
Mn649 Mn 0.28742 0.21863 0.88395 0.0
C650 C 0.29104 0.23237 0.92706 0.0
C651 C 0.32053 0.18917 0.95763 0.0
C652 C 0.3335 0.22864 0.88842 0.0
O653 O 0.31963 0.18079 0.90665 0.0
O654 O 0.29566 0.18872 0.88207 0.0
C655 C 0.25152 0.18889 0.88411 0.0
N656 N 0.2573 0.20928 0.885 0.0
C657 C 0.22383 0.21307 0.85648 0.0
C658 C 0.22132 0.19205 0.85884 0.0
C659 C 0.23404 0.18101 0.87292 0.0
C660 C 0.24395 0.22317 0.87757 0.0
H661 H 0.26114 0.17758 0.89173 0.0
C662 C 0.30899 0.17636 0.89035 0.0
O663 O 0.33616 0.19663 0.94746 0.0
O664 O 0.30279 0.18982 0.94829 0.0
N665 N 0.28201 0.24963 0.88418 0.0
C666 C 0.30019 0.26548 0.87421 0.0
C667 C 0.29731 0.28315 0.85099 0.0
C668 C 0.27281 0.28708 0.83612 0.0
C669 C 0.24868 0.27344 0.84289 0.0
C670 C 0.25799 0.24872 0.8786 0.0
H671 H 0.3146 0.26645 0.88245 0.0
O672 O 0.30622 0.23233 0.94017 0.0
O673 O 0.291 0.21753 0.9137 0.0
O674 O 0.33609 0.22355 0.90727 0.0
O675 O 0.31635 0.22586 0.87924 0.0
C676 C 0.2297 0.25779 0.8233 0.0
C677 C 0.21706 0.22829 0.82876 0.0
H678 H 0.21086 0.18375 0.84876 0.0
H679 H 0.23154 0.16447 0.87374 0.0
H680 H 0.31069 0.29196 0.84621 0.0
H681 H 0.27335 0.29602 0.82198 0.0
H682 H 0.22753 0.26424 0.80802 0.0
H683 H 0.2082 0.22057 0.81685 0.0
Mn684 Mn 0.79542 0.317 0.92823 0.0
Mn685 Mn 0.7855 0.28904 0.88523 0.0
C686 C 0.76892 0.29251 0.9275 0.0
C687 C 0.81154 0.32089 0.96058 0.0
C688 C 0.77633 0.33518 0.89 0.0
O689 O 0.82173 0.32073 0.91028 0.0
O690 O 0.81544 0.29648 0.88556 0.0
C691 C 0.81423 0.25239 0.88736 0.0
N692 N 0.79398 0.25869 0.88672 0.0
C693 C 0.79153 0.22509 0.85822 0.0
C694 C 0.81219 0.22198 0.86227 0.0
C695 C 0.82245 0.23456 0.877 0.0
C696 C 0.78034 0.24569 0.87831 0.0
H697 H 0.82526 0.26186 0.89559 0.0
C698 C 0.82703 0.31012 0.89427 0.0
O699 O 0.80454 0.33667 0.95033 0.0
O700 O 0.81088 0.30315 0.95118 0.0
N701 N 0.75449 0.2846 0.88254 0.0
C702 C 0.74023 0.30325 0.87099 0.0
C703 C 0.72446 0.30061 0.84645 0.0
C704 C 0.721 0.27605 0.83155 0.0
C705 C 0.73325 0.25157 0.83963 0.0
C706 C 0.75516 0.26046 0.87719 0.0
H707 H 0.73967 0.31813 0.87835 0.0
O708 O 0.76869 0.30724 0.94114 0.0
O709 O 0.7845 0.29232 0.91505 0.0
O710 O 0.77951 0.33734 0.90928 0.0
O711 O 0.77961 0.31816 0.88077 0.0
C712 C 0.74987 0.232 0.82149 0.0
C713 C 0.77843 0.21853 0.8294 0.0
H714 H 0.82091 0.21113 0.85298 0.0
H715 H 0.83881 0.23164 0.87909 0.0
H716 H 0.71688 0.31434 0.84063 0.0
H717 H 0.71341 0.27675 0.81666 0.0
H718 H 0.74462 0.22991 0.80575 0.0
H719 H 0.78683 0.20934 0.81821 0.0
Mn720 Mn 0.68781 0.80125 0.92103 0.0
Mn721 Mn 0.71087 0.7885 0.87578 0.0
C722 C 0.71037 0.77351 0.91913 0.0
C723 C 0.68569 0.81707 0.95384 0.0
C724 C 0.6682 0.77379 0.88729 0.0
O725 O 0.68402 0.82813 0.9045 0.0
O726 O 0.69529 0.81514 0.87429 0.0
C727 C 0.73971 0.82565 0.87402 0.0
N728 N 0.73677 0.80477 0.8729 0.0
C729 C 0.7701 0.80464 0.84785 0.0
C730 C 0.77104 0.82588 0.85088 0.0
C731 C 0.75654 0.83585 0.86398 0.0
C732 C 0.75058 0.7936 0.86278 0.0
H733 H 0.72881 0.835 0.88244 0.0
C734 C 0.687 0.82957 0.88502 0.0
O735 O 0.66937 0.81083 0.94399 0.0
O736 O 0.70309 0.81574 0.94389 0.0
N737 N 0.72603 0.76196 0.87274 0.0
C738 C 0.7171 0.74082 0.87412 0.0
C739 C 0.72482 0.72097 0.86132 0.0
C740 C 0.75506 0.72469 0.83534 0.0
C741 C 0.76366 0.74809 0.83549 0.0
C742 C 0.74374 0.76876 0.86104 0.0
H743 H 0.70357 0.7387 0.88349 0.0
O744 O 0.69621 0.77445 0.93328 0.0
O745 O 0.71163 0.78904 0.90629 0.0
O746 O 0.66609 0.78589 0.9028 0.0
O747 O 0.68485 0.7726 0.87676 0.0
C748 C 0.78311 0.76304 0.82256 0.0
C749 C 0.78589 0.79119 0.8288 0.0
H750 H 0.78256 0.83494 0.84278 0.0
H751 H 0.75772 0.85247 0.8657 0.0
H752 H 0.71534 0.70746 0.86541 0.0
H753 H 0.7627 0.71375 0.8249 0.0
H754 H 0.79231 0.7527 0.81082 0.0
H755 H 0.78635 0.77672 0.82394 0.0
Mn756 Mn 0.7977 0.68868 0.07846 0.0
Mn757 Mn 0.79228 0.72124 0.11913 0.0
C758 C 0.77002 0.71176 0.07934 0.0
C759 C 0.81148 0.68367 0.04479 0.0
C760 C 0.7798 0.6756 0.1203 0.0
O761 O 0.82579 0.68588 0.09377 0.0
O762 O 0.82149 0.71255 0.11562 0.0
C763 C 0.8169 0.75455 0.11536 0.0
N764 N 0.79735 0.74917 0.11139 0.0
C765 C 0.77949 0.7595 0.14314 0.0
C766 C 0.8047 0.7553 0.15003 0.0
C767 C 0.82149 0.7555 0.13607 0.0
C768 C 0.78323 0.76119 0.12175 0.0
H769 H 0.829 0.75193 0.10409 0.0
C770 C 0.83255 0.69826 0.1077 0.0
O771 O 0.80558 0.66812 0.05614 0.0
O772 O 0.81095 0.70158 0.05365 0.0
N773 N 0.76616 0.73145 0.12637 0.0
C774 C 0.74843 0.7198 0.12583 0.0
C775 C 0.72986 0.72637 0.13645 0.0
C776 C 0.72442 0.75389 0.15776 0.0
C777 C 0.74632 0.76801 0.15835 0.0
C778 C 0.77039 0.75235 0.13721 0.0
H779 H 0.74851 0.70524 0.11757 0.0
O780 O 0.76989 0.69611 0.0669 0.0
O781 O 0.78655 0.714 0.09041 0.0
O782 O 0.78332 0.67119 0.10125 0.0
O783 O 0.78487 0.69295 0.12851 0.0
C784 C 0.74508 0.78637 0.17379 0.0
C785 C 0.75307 0.77411 0.16014 0.0
H786 H 0.80993 0.75306 0.16583 0.0
H787 H 0.83734 0.7551 0.14105 0.0
H788 H 0.71925 0.714 0.13136 0.0
H789 H 0.71135 0.75985 0.16695 0.0
H790 H 0.72894 0.7858 0.18147 0.0
H791 H 0.75473 0.79377 0.1721 0.0
Mn792 Mn 0.3194 0.79737 0.08274 0.0
Mn793 Mn 0.29062 0.78731 0.12524 0.0
C794 C 0.29603 0.7702 0.08319 0.0
C795 C 0.32307 0.81384 0.0505 0.0
C796 C 0.33685 0.7785 0.12166 0.0
O797 O 0.32219 0.82386 0.10035 0.0
O798 O 0.29742 0.81744 0.12445 0.0
C799 C 0.25335 0.81522 0.12079 0.0
N800 N 0.26013 0.79514 0.12204 0.0
C801 C 0.22397 0.79167 0.14713 0.0
C802 C 0.22075 0.81229 0.14286 0.0
C803 C 0.23441 0.82293 0.1294 0.0
C804 C 0.24672 0.78112 0.1291 0.0
H805 H 0.26316 0.82651 0.11337 0.0
C806 C 0.31088 0.82928 0.11578 0.0
O807 O 0.33901 0.80709 0.06071 0.0
O808 O 0.30535 0.81252 0.05978 0.0
N809 N 0.28657 0.75634 0.12862 0.0
C810 C 0.30441 0.74265 0.14207 0.0
C811 C 0.29975 0.72664 0.16612 0.0
C812 C 0.27395 0.7224 0.17847 0.0
C813 C 0.25009 0.73402 0.16804 0.0
C814 C 0.26199 0.75635 0.1316 0.0
H815 H 0.32019 0.74326 0.13703 0.0
O816 O 0.31086 0.77047 0.06969 0.0
O817 O 0.29498 0.78582 0.09557 0.0
O818 O 0.33927 0.7818 0.10238 0.0
O819 O 0.31981 0.78185 0.13093 0.0
C820 C 0.22848 0.75004 0.18433 0.0
C821 C 0.21502 0.77827 0.17518 0.0
H822 H 0.20888 0.82072 0.15111 0.0
H823 H 0.23125 0.83921 0.12703 0.0
H824 H 0.31307 0.71962 0.17343 0.0
H825 H 0.27338 0.71479 0.19335 0.0
H826 H 0.22507 0.74468 0.19981 0.0
H827 H 0.20469 0.78643 0.18548 0.0
Mn828 Mn 0.68364 0.20176 0.07529 0.0
Mn829 Mn 0.71261 0.20812 0.11853 0.0
C830 C 0.70895 0.22739 0.0768 0.0
C831 C 0.67839 0.18763 0.04203 0.0
C832 C 0.66958 0.22655 0.1136 0.0
O833 O 0.67814 0.1743 0.09069 0.0
O834 O 0.69731 0.1815 0.11875 0.0
C835 C 0.74114 0.17143 0.11242 0.0
N836 N 0.73853 0.19197 0.1164 0.0
C837 C 0.77278 0.18871 0.13975 0.0
C838 C 0.77358 0.16813 0.13367 0.0
C839 C 0.75845 0.16002 0.11999 0.0
C840 C 0.75294 0.20173 0.12708 0.0
H841 H 0.72952 0.16335 0.1036 0.0
C842 C 0.68532 0.16962 0.10852 0.0
O843 O 0.66317 0.19516 0.05277 0.0
O844 O 0.69618 0.18692 0.05124 0.0
N845 N 0.72794 0.23425 0.1227 0.0
C846 C 0.71895 0.25532 0.12448 0.0
C847 C 0.72687 0.27308 0.13989 0.0
C848 C 0.7577 0.26578 0.1644 0.0
C849 C 0.76639 0.24271 0.1606 0.0
C850 C 0.74606 0.22598 0.13266 0.0
H851 H 0.70505 0.25865 0.11589 0.0
O852 O 0.69387 0.22839 0.06367 0.0
O853 O 0.70963 0.21096 0.08845 0.0
O854 O 0.66516 0.21826 0.09613 0.0
O855 O 0.68683 0.22363 0.12273 0.0
C856 C 0.7861 0.22608 0.17074 0.0
C857 C 0.78889 0.19921 0.16029 0.0
H858 H 0.78535 0.15805 0.14 0.0
H859 H 0.75943 0.14378 0.11603 0.0
H860 H 0.71724 0.28697 0.13805 0.0
H861 H 0.76552 0.2751 0.1762 0.0
H862 H 0.79517 0.23456 0.18377 0.0
H863 H 0.78939 0.21274 0.16726 0.0
Mn864 Mn 0.93068 0.79886 0.68419 0.0
Mn865 Mn 0.88922 0.79798 0.71597 0.0
C866 C 0.92923 0.77374 0.70993 0.0
C867 C 0.96455 0.81147 0.67809 0.0
C868 C 0.88868 0.78187 0.67144 0.0
O869 O 0.91561 0.82647 0.67825 0.0
O870 O 0.89446 0.82656 0.70591 0.0
C871 C 0.88938 0.82422 0.74789 0.0
N872 N 0.89498 0.80462 0.744 0.0
C873 C 0.86365 0.78554 0.75432 0.0
C874 C 0.85538 0.81012 0.74898 0.0
C875 C 0.86834 0.82758 0.74794 0.0
C876 C 0.88483 0.79047 0.75627 0.0
H877 H 0.89985 0.83689 0.74471 0.0
C878 C 0.90223 0.83522 0.68995 0.0
O879 O 0.95322 0.80422 0.66312 0.0
O880 O 0.9555 0.81311 0.69585 0.0
N881 N 0.8814 0.77245 0.72687 0.0
C882 C 0.88312 0.75455 0.71578 0.0
C883 C 0.87343 0.7358 0.72259 0.0
C884 C 0.852 0.72963 0.74989 0.0
C885 C 0.85005 0.75182 0.76353 0.0
C886 C 0.87015 0.7766 0.74754 0.0
H887 H 0.89195 0.75453 0.7016 0.0
O888 O 0.94184 0.77209 0.69449 0.0
O889 O 0.91821 0.7906 0.71051 0.0
O890 O 0.90812 0.78301 0.6677 0.0
O891 O 0.8805 0.7896 0.68775 0.0
C892 C 0.83447 0.75022 0.78172 0.0
C893 C 0.84787 0.75862 0.76944 0.0
H894 H 0.83935 0.81435 0.74641 0.0
H895 H 0.8621 0.84297 0.74597 0.0
H896 H 0.8793 0.72532 0.71043 0.0
H897 H 0.84353 0.71614 0.75596 0.0
H898 H 0.8277 0.73368 0.78146 0.0
H899 H 0.83557 0.76016 0.7889 0.0
Mn900 Mn 0.20774 0.92471 0.68489 0.0
Mn901 Mn 0.21919 0.88219 0.71296 0.0
C902 C 0.23467 0.92477 0.70897 0.0
C903 C 0.19071 0.95653 0.68134 0.0
C904 C 0.22839 0.88699 0.66676 0.0
O905 O 0.18156 0.90645 0.68172 0.0
O906 O 0.18925 0.88164 0.70539 0.0
C907 C 0.18999 0.88463 0.74932 0.0
N908 N 0.21027 0.88411 0.74316 0.0
C909 C 0.21306 0.85671 0.77761 0.0
C910 C 0.19225 0.8603 0.78036 0.0
C911 C 0.18181 0.87455 0.76734 0.0
C912 C 0.22393 0.87651 0.75655 0.0
H913 H 0.17899 0.89267 0.73969 0.0
C914 C 0.17687 0.89036 0.69247 0.0
O915 O 0.19776 0.94657 0.66539 0.0
O916 O 0.192 0.94716 0.69904 0.0
N917 N 0.25018 0.88039 0.71792 0.0
C918 C 0.26505 0.86872 0.69985 0.0
C919 C 0.28157 0.84481 0.70348 0.0
C920 C 0.28517 0.83079 0.72855 0.0
C921 C 0.27231 0.83922 0.75259 0.0
C922 C 0.24933 0.87576 0.74219 0.0
H923 H 0.26551 0.87562 0.68474 0.0
O924 O 0.23437 0.93829 0.69413 0.0
O925 O 0.21941 0.91194 0.70941 0.0
O926 O 0.22377 0.906 0.66448 0.0
O927 O 0.22577 0.87755 0.68384 0.0
C928 C 0.25598 0.82115 0.7725 0.0
C929 C 0.22697 0.82854 0.78529 0.0
H930 H 0.18361 0.85108 0.79133 0.0
H931 H 0.16541 0.87645 0.77011 0.0
H932 H 0.28951 0.83879 0.69004 0.0
H933 H 0.29324 0.81613 0.72844 0.0
H934 H 0.26171 0.80566 0.77518 0.0
H935 H 0.21881 0.81738 0.79473 0.0
Mn936 Mn 0.08243 0.20588 0.68714 0.0
Mn937 Mn 0.12188 0.20995 0.7211 0.0
C938 C 0.08285 0.23321 0.71047 0.0
C939 C 0.04909 0.19236 0.68113 0.0
C940 C 0.12473 0.22396 0.6759 0.0
O941 O 0.09721 0.17777 0.68403 0.0
O942 O 0.11871 0.18104 0.71106 0.0
C943 C 0.11607 0.18407 0.75344 0.0
N944 N 0.11236 0.20374 0.74821 0.0
C945 C 0.14246 0.22178 0.76242 0.0
C946 C 0.15014 0.19674 0.75871 0.0
C947 C 0.13651 0.17977 0.75719 0.0
C948 C 0.12111 0.21772 0.76158 0.0
H949 H 0.10542 0.17186 0.74927 0.0
C950 C 0.11079 0.17048 0.69638 0.0
O951 O 0.06071 0.19855 0.66588 0.0
O952 O 0.05748 0.1926 0.69924 0.0
N953 N 0.12874 0.23554 0.7329 0.0
C954 C 0.12939 0.25349 0.72162 0.0
C955 C 0.13911 0.27193 0.7296 0.0
C956 C 0.15706 0.27711 0.75946 0.0
C957 C 0.15619 0.25495 0.77322 0.0
C958 C 0.13724 0.23097 0.75479 0.0
H959 H 0.12248 0.25379 0.70638 0.0
O960 O 0.07088 0.23361 0.69447 0.0
O961 O 0.09362 0.21648 0.71294 0.0
O962 O 0.10588 0.22025 0.67081 0.0
O963 O 0.13254 0.21864 0.69343 0.0
C964 C 0.16926 0.25602 0.79331 0.0
C965 C 0.15726 0.24811 0.77938 0.0
H966 H 0.16615 0.19169 0.75841 0.0
H967 H 0.14173 0.16398 0.75798 0.0
H968 H 0.13539 0.28269 0.71686 0.0
H969 H 0.16536 0.29017 0.76664 0.0
H970 H 0.17681 0.27222 0.79389 0.0
H971 H 0.16675 0.24624 0.80035 0.0
Mn972 Mn 0.80525 0.08059 0.68412 0.0
Mn973 Mn 0.80091 0.12055 0.7171 0.0
C974 C 0.77906 0.07953 0.70885 0.0
C975 C 0.82093 0.04855 0.6774 0.0
C976 C 0.786 0.12164 0.67211 0.0
O977 O 0.83198 0.09736 0.67955 0.0
O978 O 0.83007 0.1171 0.70804 0.0
C979 C 0.82598 0.11975 0.75014 0.0
N980 N 0.80678 0.11372 0.74509 0.0
C981 C 0.78608 0.1437 0.75606 0.0
C982 C 0.81052 0.15306 0.75221 0.0
C983 C 0.82854 0.14086 0.75154 0.0
C984 C 0.79178 0.12268 0.75725 0.0
H985 H 0.83914 0.10987 0.74707 0.0
C986 C 0.8398 0.11031 0.69225 0.0
O987 O 0.81306 0.05959 0.66252 0.0
O988 O 0.82091 0.05681 0.69561 0.0
N989 N 0.77475 0.12669 0.72737 0.0
C990 C 0.75739 0.12472 0.71553 0.0
C991 C 0.73807 0.13343 0.72193 0.0
C992 C 0.72998 0.15338 0.74984 0.0
C993 C 0.75151 0.15559 0.76445 0.0
C994 C 0.77768 0.13719 0.74864 0.0
H995 H 0.75822 0.11636 0.70109 0.0
O996 O 0.77889 0.06726 0.69306 0.0
O997 O 0.79514 0.09155 0.71037 0.0
O998 O 0.78858 0.10246 0.66788 0.0
O999 O 0.7929 0.12995 0.68878 0.0
C1000 C 0.74859 0.17025 0.78322 0.0
C1001 C 0.75798 0.15776 0.77072 0.0
H1002 H 0.8142 0.16926 0.7504 0.0
H1003 H 0.84379 0.14777 0.75089 0.0
H1004 H 0.72832 0.12771 0.70911 0.0
H1005 H 0.71594 0.16106 0.7557 0.0
H1006 H 0.73181 0.17638 0.78259 0.0
H1007 H 0.75827 0.16923 0.79074 0.0
Mn1008 Mn 0.91976 0.20564 0.31576 0.0
Mn1009 Mn 0.87716 0.21345 0.28603 0.0
C1010 C 0.91933 0.23186 0.29115 0.0
C1011 C 0.95282 0.19088 0.32096 0.0
C1012 C 0.88143 0.23013 0.32982 0.0
O1013 O 0.90357 0.1785 0.32033 0.0
O1014 O 0.87658 0.18581 0.29957 0.0
C1015 C 0.88103 0.17857 0.255 0.0
N1016 N 0.8784 0.1991 0.25903 0.0
C1017 C 0.85412 0.1995 0.22508 0.0
C1018 C 0.8589 0.17867 0.2229 0.0
C1019 C 0.87228 0.16877 0.23724 0.0
C1020 C 0.86758 0.21028 0.24577 0.0
H1021 H 0.88963 0.16923 0.26582 0.0
C1022 C 0.88631 0.17375 0.31187 0.0
O1023 O 0.94198 0.19808 0.33628 0.0
O1024 O 0.94371 0.19062 0.30312 0.0
N1025 N 0.87408 0.24083 0.27271 0.0
C1026 C 0.87377 0.26141 0.28303 0.0
C1027 C 0.86006 0.28085 0.27586 0.0
C1028 C 0.83562 0.2773 0.24439 0.0
C1029 C 0.83763 0.25456 0.2345 0.0
C1030 C 0.86375 0.23444 0.25407 0.0
H1031 H 0.88192 0.26309 0.29751 0.0
O1032 O 0.93215 0.23211 0.30652 0.0
O1033 O 0.90732 0.21569 0.28963 0.0
O1034 O 0.89906 0.22228 0.33439 0.0
O1035 O 0.87275 0.22712 0.31247 0.0
C1036 C 0.82649 0.24017 0.21373 0.0
C1037 C 0.83468 0.21269 0.2094 0.0
H1038 H 0.85199 0.16983 0.21049 0.0
H1039 H 0.87524 0.15242 0.23512 0.0
H1040 H 0.86281 0.29398 0.28629 0.0
H1041 H 0.82476 0.28797 0.23693 0.0
H1042 H 0.81485 0.25078 0.20492 0.0
H1043 H 0.82881 0.22683 0.20956 0.0
Mn1044 Mn 0.79793 0.92155 0.31767 0.0
Mn1045 Mn 0.79271 0.87874 0.28736 0.0
C1046 C 0.77095 0.91951 0.29405 0.0
C1047 C 0.81184 0.95494 0.32254 0.0
C1048 C 0.77824 0.88097 0.33237 0.0
O1049 O 0.82571 0.90672 0.3221 0.0
O1050 O 0.82111 0.88145 0.29873 0.0
C1051 C 0.82051 0.87935 0.2564 0.0
N1052 N 0.80088 0.88505 0.25978 0.0
C1053 C 0.78152 0.85504 0.24713 0.0
C1054 C 0.80569 0.84595 0.25302 0.0
C1055 C 0.82343 0.85833 0.25527 0.0
C1056 C 0.78699 0.87608 0.2464 0.0
H1057 H 0.8332 0.88936 0.26073 0.0
C1058 C 0.83215 0.89108 0.31194 0.0
O1059 O 0.8052 0.94397 0.33803 0.0
O1060 O 0.81166 0.94596 0.30464 0.0
N1061 N 0.76743 0.87182 0.27481 0.0
C1062 C 0.7492 0.87249 0.28553 0.0
C1063 C 0.73068 0.86272 0.27782 0.0
C1064 C 0.72562 0.84299 0.24903 0.0
C1065 C 0.74818 0.84218 0.23592 0.0
C1066 C 0.77236 0.86145 0.2538 0.0
H1067 H 0.74872 0.88096 0.29984 0.0
O1068 O 0.77056 0.93272 0.30908 0.0
O1069 O 0.78751 0.90825 0.2925 0.0
O1070 O 0.78319 0.89984 0.33576 0.0
O1071 O 0.78217 0.8713 0.31546 0.0
C1072 C 0.74719 0.82789 0.21667 0.0
C1073 C 0.75513 0.84045 0.23009 0.0
H1074 H 0.8097 0.82971 0.25463 0.0
H1075 H 0.83862 0.85162 0.25732 0.0
H1076 H 0.71977 0.86764 0.29 0.0
H1077 H 0.71247 0.83467 0.24207 0.0
H1078 H 0.73073 0.82095 0.21602 0.0
H1079 H 0.75726 0.82961 0.2098 0.0
Mn1080 Mn 0.08057 0.80135 0.31881 0.0
Mn1081 Mn 0.12625 0.79256 0.29482 0.0
C1082 C 0.08388 0.77291 0.29692 0.0
C1083 C 0.04816 0.81743 0.31966 0.0
C1084 C 0.11757 0.78295 0.34005 0.0
O1085 O 0.09688 0.82855 0.32291 0.0
O1086 O 0.12223 0.82264 0.29974 0.0
C1087 C 0.11727 0.81418 0.25589 0.0
N1088 N 0.12286 0.79616 0.26496 0.0
C1089 C 0.13933 0.78338 0.23078 0.0
C1090 C 0.13046 0.80269 0.22259 0.0
C1091 C 0.11964 0.81695 0.23474 0.0
C1092 C 0.12837 0.77976 0.25309 0.0
H1093 H 0.11079 0.82665 0.26488 0.0
C1094 C 0.11236 0.83452 0.31211 0.0
O1095 O 0.05731 0.8112 0.33641 0.0
O1096 O 0.05851 0.81565 0.30253 0.0
N1097 N 0.13461 0.76406 0.29011 0.0
C1098 C 0.15123 0.75371 0.3061 0.0
C1099 C 0.17113 0.73575 0.29965 0.0
C1100 C 0.17636 0.72617 0.27468 0.0
C1101 C 0.16153 0.73439 0.25334 0.0
C1102 C 0.13335 0.76018 0.26575 0.0
H1103 H 0.15247 0.75966 0.32154 0.0
O1104 O 0.06877 0.77399 0.31005 0.0
O1105 O 0.09626 0.78863 0.29665 0.0
O1106 O 0.09825 0.78641 0.33996 0.0
O1107 O 0.12974 0.78798 0.32519 0.0
C1108 C 0.1725 0.73745 0.23208 0.0
C1109 C 0.1669 0.75721 0.21874 0.0
H1110 H 0.13228 0.8082 0.20689 0.0
H1111 H 0.11427 0.83123 0.2278 0.0
H1112 H 0.18135 0.73092 0.31196 0.0
H1113 H 0.19004 0.71687 0.27217 0.0
H1114 H 0.18544 0.72775 0.22776 0.0
H1115 H 0.17663 0.75693 0.20483 0.0
Mn1116 Mn 0.20555 0.08411 0.32094 0.0
Mn1117 Mn 0.20943 0.12537 0.28861 0.0
C1118 C 0.2322 0.08547 0.29674 0.0
C1119 C 0.1925 0.05017 0.32648 0.0
C1120 C 0.22465 0.12587 0.33341 0.0
O1121 O 0.17723 0.09868 0.32485 0.0
O1122 O 0.18082 0.12211 0.29943 0.0
C1123 C 0.18228 0.12306 0.25718 0.0
N1124 N 0.20197 0.11795 0.26114 0.0
C1125 C 0.22068 0.14843 0.24861 0.0
C1126 C 0.19625 0.15687 0.25436 0.0
C1127 C 0.17876 0.14402 0.25606 0.0
C1128 C 0.21578 0.12724 0.24794 0.0
H1129 H 0.16981 0.11255 0.26087 0.0
C1130 C 0.17006 0.11315 0.31336 0.0
O1131 O 0.19901 0.06151 0.34178 0.0
O1132 O 0.19213 0.05913 0.30861 0.0
N1133 N 0.23497 0.13228 0.27652 0.0
C1134 C 0.25325 0.1319 0.28727 0.0
C1135 C 0.27169 0.14173 0.27932 0.0
C1136 C 0.27637 0.16145 0.25046 0.0
C1137 C 0.25378 0.16193 0.23741 0.0
C1138 C 0.22994 0.14234 0.25538 0.0
H1139 H 0.25384 0.1241 0.30206 0.0
O1140 O 0.23308 0.07304 0.31239 0.0
O1141 O 0.21543 0.09637 0.29509 0.0
O1142 O 0.2205 0.10696 0.33796 0.0
O1143 O 0.21914 0.13437 0.31633 0.0
C1144 C 0.2545 0.17623 0.21813 0.0
C1145 C 0.24677 0.16357 0.23158 0.0
H1146 H 0.19205 0.17292 0.25646 0.0
H1147 H 0.16333 0.15032 0.25769 0.0
H1148 H 0.28274 0.13699 0.29145 0.0
H1149 H 0.28938 0.16992 0.2434 0.0
H1150 H 0.27086 0.1834 0.21741 0.0
H1151 H 0.24441 0.17442 0.21134 0.0
Mn1152 Mn 0.68665 0.92337 0.79034 0.0
Mn1153 Mn 0.71577 0.88084 0.78442 0.0
C1154 C 0.71193 0.92252 0.76425 0.0
C1155 C 0.68212 0.95551 0.80654 0.0
C1156 C 0.66951 0.88374 0.77375 0.0
O1157 O 0.68175 0.90614 0.81687 0.0
O1158 O 0.70896 0.88436 0.81433 0.0
C1159 C 0.75277 0.89204 0.80801 0.0
N1160 N 0.74506 0.8862 0.78946 0.0
C1161 C 0.77978 0.86887 0.77968 0.0
C1162 C 0.78662 0.87806 0.79937 0.0
C1163 C 0.77362 0.88944 0.81241 0.0
C1164 C 0.75801 0.88006 0.77418 0.0
H1165 H 0.74284 0.89865 0.81969 0.0
C1166 C 0.69345 0.89185 0.82418 0.0
O1167 O 0.66659 0.94538 0.79881 0.0
O1168 O 0.69995 0.94635 0.80601 0.0
N1169 N 0.72227 0.87404 0.75577 0.0
C1170 C 0.70695 0.85807 0.74393 0.0
C1171 C 0.71431 0.83752 0.72711 0.0
C1172 C 0.73986 0.83148 0.71981 0.0
C1173 C 0.76077 0.846 0.72954 0.0
C1174 C 0.74678 0.87483 0.75385 0.0
H1175 H 0.6912 0.86219 0.74335 0.0
O1176 O 0.69714 0.93607 0.76364 0.0
O1177 O 0.71139 0.9102 0.77997 0.0
O1178 O 0.66775 0.90337 0.77445 0.0
O1179 O 0.6861 0.87434 0.77931 0.0
C1180 C 0.78157 0.83484 0.73441 0.0
C1181 C 0.79344 0.8407 0.75501 0.0
H1182 H 0.80182 0.87611 0.80609 0.0
H1183 H 0.77953 0.89497 0.82708 0.0
H1184 H 0.70204 0.82842 0.7203 0.0
H1185 H 0.7428 0.81777 0.71068 0.0
H1186 H 0.78646 0.82168 0.72531 0.0
H1187 H 0.80725 0.83084 0.75593 0.0
Mn1188 Mn 0.08006 0.68635 0.80249 0.0
Mn1189 Mn 0.12311 0.71631 0.7984 0.0
C1190 C 0.08214 0.71137 0.77691 0.0
C1191 C 0.04671 0.68084 0.8162 0.0
C1192 C 0.11985 0.67284 0.78029 0.0
O1193 O 0.09481 0.68059 0.83003 0.0
O1194 O 0.12152 0.70252 0.82588 0.0
C1195 C 0.11595 0.74716 0.83293 0.0
N1196 N 0.12034 0.74329 0.81267 0.0
C1197 C 0.14316 0.77822 0.81416 0.0
C1198 C 0.13665 0.78016 0.83454 0.0
C1199 C 0.1231 0.76528 0.84334 0.0
C1200 C 0.13141 0.75708 0.80233 0.0
H1201 H 0.1072 0.73592 0.84164 0.0
C1202 C 0.11124 0.6894 0.83654 0.0
O1203 O 0.05757 0.6657 0.80865 0.0
O1204 O 0.05578 0.69869 0.81704 0.0
N1205 N 0.12848 0.72987 0.77153 0.0
C1206 C 0.131 0.71948 0.75119 0.0
C1207 C 0.14623 0.72688 0.73311 0.0
C1208 C 0.1694 0.75911 0.7385 0.0
C1209 C 0.16501 0.76916 0.76092 0.0
C1210 C 0.13766 0.74884 0.77869 0.0
H1211 H 0.12339 0.70481 0.7488 0.0
O1212 O 0.06891 0.69638 0.77585 0.0
O1213 O 0.09322 0.71254 0.79376 0.0
O1214 O 0.10146 0.66837 0.78622 0.0
O1215 O 0.12865 0.68983 0.78493 0.0
C1216 C 0.17417 0.79038 0.77629 0.0
C1217 C 0.16324 0.79446 0.80282 0.0
H1218 H 0.14246 0.79273 0.84393 0.0
H1219 H 0.11881 0.76722 0.85941 0.0
H1220 H 0.14498 0.71623 0.71993 0.0
H1221 H 0.18097 0.76677 0.72876 0.0
H1222 H 0.18689 0.79971 0.76731 0.0
H1223 H 0.17038 0.79437 0.78932 0.0
Mn1224 Mn 0.32146 0.07883 0.79815 0.0
Mn1225 Mn 0.29365 0.12179 0.78644 0.0
C1226 C 0.29818 0.07934 0.77055 0.0
C1227 C 0.3246 0.04569 0.81383 0.0
C1228 C 0.33989 0.11723 0.77805 0.0
O1229 O 0.32346 0.09672 0.82508 0.0
O1230 O 0.30083 0.1222 0.81634 0.0
C1231 C 0.25677 0.11952 0.81524 0.0
N1232 N 0.2633 0.11975 0.79508 0.0
C1233 C 0.22782 0.14581 0.791 0.0
C1234 C 0.22493 0.14272 0.81187 0.0
C1235 C 0.23831 0.12924 0.82288 0.0
C1236 C 0.24992 0.12665 0.78107 0.0
H1237 H 0.26634 0.1119 0.82654 0.0
C1238 C 0.31291 0.11319 0.82929 0.0
O1239 O 0.34067 0.05617 0.80788 0.0
O1240 O 0.30705 0.05534 0.81267 0.0
N1241 N 0.28911 0.12375 0.75551 0.0
C1242 C 0.3069 0.13594 0.74059 0.0
C1243 C 0.30222 0.1589 0.72304 0.0
C1244 C 0.27654 0.1714 0.71856 0.0
C1245 C 0.2528 0.16225 0.73145 0.0
C1246 C 0.26462 0.12722 0.75591 0.0
H1247 H 0.32283 0.13134 0.74194 0.0
O1248 O 0.31312 0.06597 0.77096 0.0
O1249 O 0.29722 0.0919 0.78604 0.0
O1250 O 0.34217 0.09824 0.78295 0.0
O1251 O 0.32279 0.12671 0.78013 0.0
C1252 C 0.23195 0.18009 0.74686 0.0
C1253 C 0.21901 0.17312 0.77597 0.0
H1254 H 0.21346 0.15171 0.82009 0.0
H1255 H 0.23534 0.12765 0.83929 0.0
H1256 H 0.31551 0.1656 0.71539 0.0
H1257 H 0.27603 0.18576 0.70999 0.0
H1258 H 0.2287 0.19523 0.74053 0.0
H1259 H 0.20896 0.18411 0.7836 0.0
Mn1260 Mn 0.92015 0.31775 0.79937 0.0
Mn1261 Mn 0.87849 0.2867 0.79138 0.0
C1262 C 0.92045 0.2932 0.77325 0.0
C1263 C 0.95306 0.32391 0.81395 0.0
C1264 C 0.88155 0.33057 0.77451 0.0
O1265 O 0.90391 0.32178 0.8265 0.0
O1266 O 0.87729 0.30067 0.81882 0.0
C1267 C 0.88389 0.25647 0.82676 0.0
N1268 N 0.88087 0.26002 0.8062 0.0
C1269 C 0.85823 0.22501 0.80662 0.0
C1270 C 0.86325 0.22343 0.82745 0.0
C1271 C 0.87606 0.23851 0.83696 0.0
C1272 C 0.87076 0.24599 0.79531 0.0
H1273 H 0.89212 0.26781 0.83579 0.0
C1274 C 0.88672 0.31307 0.83102 0.0
O1275 O 0.94177 0.33894 0.80681 0.0
O1276 O 0.94444 0.30583 0.81433 0.0
N1277 N 0.87586 0.27267 0.76426 0.0
C1278 C 0.87492 0.28259 0.7435 0.0
C1279 C 0.8613 0.27453 0.72434 0.0
C1280 C 0.83811 0.24219 0.72873 0.0
C1281 C 0.84074 0.23278 0.75163 0.0
C1282 C 0.86637 0.2537 0.77106 0.0
H1283 H 0.88241 0.29739 0.74147 0.0
O1284 O 0.93279 0.30896 0.77292 0.0
O1285 O 0.90849 0.29131 0.78938 0.0
O1286 O 0.89883 0.33566 0.78281 0.0
O1287 O 0.87334 0.31288 0.77717 0.0
C1288 C 0.83046 0.2119 0.76666 0.0
C1289 C 0.83923 0.20841 0.79406 0.0
H1290 H 0.85691 0.21091 0.83659 0.0
H1291 H 0.87925 0.23681 0.85331 0.0
H1292 H 0.8635 0.28482 0.71099 0.0
H1293 H 0.82741 0.23415 0.71833 0.0
H1294 H 0.81827 0.2028 0.75692 0.0
H1295 H 0.83316 0.20817 0.78005 0.0
Mn1296 Mn 0.6841 0.07726 0.20323 0.0
Mn1297 Mn 0.71691 0.11777 0.20569 0.0
C1298 C 0.70933 0.07745 0.22883 0.0
C1299 C 0.6775 0.04415 0.18917 0.0
C1300 C 0.67236 0.11894 0.22139 0.0
O1301 O 0.67865 0.09345 0.17626 0.0
O1302 O 0.70699 0.11363 0.17672 0.0
C1303 C 0.74919 0.11618 0.17988 0.0
N1304 N 0.74477 0.11082 0.19941 0.0
C1305 C 0.75605 0.1416 0.21867 0.0
C1306 C 0.75126 0.15005 0.19405 0.0
C1307 C 0.75009 0.13719 0.17653 0.0
C1308 C 0.75727 0.12039 0.21375 0.0
H1309 H 0.74577 0.10582 0.16719 0.0
C1310 C 0.69064 0.10681 0.16793 0.0
O1311 O 0.66265 0.05542 0.19675 0.0
O1312 O 0.69548 0.05286 0.18818 0.0
N1313 N 0.72783 0.1249 0.23156 0.0
C1314 C 0.71645 0.12381 0.24938 0.0
C1315 C 0.72338 0.13349 0.26819 0.0
C1316 C 0.75149 0.15382 0.27442 0.0
C1317 C 0.76546 0.15499 0.25239 0.0
C1318 C 0.74896 0.13535 0.22757 0.0
H1319 H 0.70197 0.11547 0.24933 0.0
O1320 O 0.69377 0.06492 0.22977 0.0
O1321 O 0.7104 0.08891 0.21233 0.0
O1322 O 0.66811 0.09965 0.21956 0.0
O1323 O 0.68883 0.1271 0.21395 0.0
C1324 C 0.78428 0.16978 0.25409 0.0
C1325 C 0.77152 0.15688 0.24565 0.0
H1326 H 0.74931 0.16615 0.18979 0.0
H1327 H 0.74861 0.14351 0.16112 0.0
H1328 H 0.7109 0.12826 0.27862 0.0
H1329 H 0.75778 0.1622 0.28787 0.0
H1330 H 0.78413 0.1767 0.27058 0.0
H1331 H 0.79152 0.16831 0.24426 0.0
Mn1332 Mn 0.92354 0.68912 0.20413 0.0
Mn1333 Mn 0.88197 0.72008 0.21199 0.0
C1334 C 0.92336 0.71219 0.23185 0.0
C1335 C 0.95615 0.68433 0.18886 0.0
C1336 C 0.88367 0.67446 0.22441 0.0
O1337 O 0.90727 0.68602 0.17677 0.0
O1338 O 0.88411 0.7113 0.18246 0.0
C1339 C 0.88211 0.75318 0.18707 0.0
N1340 N 0.88794 0.74835 0.2063 0.0
C1341 C 0.85713 0.75735 0.22643 0.0
C1342 C 0.8485 0.75237 0.20191 0.0
C1343 C 0.86108 0.75261 0.18415 0.0
C1344 C 0.87808 0.76002 0.22111 0.0
H1345 H 0.8925 0.7509 0.17415 0.0
C1346 C 0.89248 0.69773 0.17077 0.0
O1347 O 0.94527 0.66871 0.19536 0.0
O1348 O 0.94736 0.70231 0.18974 0.0
N1349 N 0.87597 0.73014 0.2386 0.0
C1350 C 0.87811 0.71858 0.25627 0.0
C1351 C 0.86817 0.72454 0.27544 0.0
C1352 C 0.84615 0.75123 0.28226 0.0
C1353 C 0.84377 0.76539 0.26049 0.0
C1354 C 0.86404 0.75058 0.23513 0.0
H1355 H 0.88716 0.70452 0.25571 0.0
O1356 O 0.93619 0.69684 0.23133 0.0
O1357 O 0.91139 0.7142 0.2159 0.0
O1358 O 0.90245 0.67079 0.21943 0.0
O1359 O 0.87437 0.69147 0.22014 0.0
C1360 C 0.82782 0.78321 0.26271 0.0
C1361 C 0.84138 0.77143 0.25388 0.0
H1362 H 0.83247 0.74942 0.19787 0.0
H1363 H 0.85472 0.7509 0.16892 0.0
H1364 H 0.87431 0.71231 0.28566 0.0
H1365 H 0.83748 0.75678 0.29586 0.0
H1366 H 0.82115 0.78235 0.27927 0.0
H1367 H 0.8287 0.7907 0.253 0.0
Mn1368 Mn 0.31889 0.92765 0.20536 0.0
Mn1369 Mn 0.29417 0.88299 0.21875 0.0
C1370 C 0.29694 0.92599 0.23371 0.0
C1371 C 0.3206 0.95997 0.18885 0.0
C1372 C 0.3397 0.89188 0.22777 0.0
O1373 O 0.32176 0.91007 0.17887 0.0
O1374 O 0.30298 0.88234 0.18921 0.0
C1375 C 0.25867 0.88497 0.18799 0.0
N1376 N 0.26418 0.88445 0.20846 0.0
C1377 C 0.22687 0.86111 0.21088 0.0
C1378 C 0.22522 0.86414 0.18988 0.0
C1379 C 0.24 0.87653 0.17948 0.0
C1380 C 0.2495 0.87905 0.22191 0.0
H1381 H 0.26919 0.89192 0.17716 0.0
C1382 C 0.31346 0.89232 0.17562 0.0
O1383 O 0.33709 0.95023 0.1948 0.0
O1384 O 0.30321 0.95007 0.19077 0.0
N1385 N 0.28759 0.88003 0.24926 0.0
C1386 C 0.30415 0.86665 0.2646 0.0
C1387 C 0.2977 0.84371 0.28162 0.0
C1388 C 0.27129 0.83239 0.28489 0.0
C1389 C 0.24855 0.84282 0.27122 0.0
C1390 C 0.26297 0.87763 0.24777 0.0
H1391 H 0.32036 0.86948 0.26304 0.0
O1392 O 0.31074 0.9405 0.23245 0.0
O1393 O 0.29608 0.91313 0.21849 0.0
O1394 O 0.34052 0.91 0.22018 0.0
O1395 O 0.32355 0.88047 0.22729 0.0
C1396 C 0.2274 0.82635 0.25477 0.0
C1397 C 0.21614 0.83416 0.22522 0.0
H1398 H 0.21366 0.85577 0.18115 0.0
H1399 H 0.23796 0.87818 0.16294 0.0
H1400 H 0.31038 0.83609 0.28943 0.0
H1401 H 0.26979 0.81792 0.29315 0.0
H1402 H 0.22314 0.81132 0.26077 0.0
H1403 H 0.20597 0.82371 0.21701 0.0
Mn1404 Mn 0.0772 0.3162 0.20219 0.0
Mn1405 Mn 0.11937 0.28577 0.20857 0.0
C1406 C 0.07724 0.29066 0.22749 0.0
C1407 C 0.04429 0.32197 0.18759 0.0
C1408 C 0.11577 0.32902 0.22695 0.0
O1409 O 0.09359 0.32196 0.17547 0.0
O1410 O 0.12021 0.30044 0.18177 0.0
C1411 C 0.11556 0.25619 0.17244 0.0
N1412 N 0.11778 0.25931 0.19319 0.0
C1413 C 0.14113 0.22467 0.19273 0.0
C1414 C 0.13656 0.22333 0.17179 0.0
C1415 C 0.12386 0.23847 0.16218 0.0
C1416 C 0.12809 0.24532 0.20404 0.0
H1417 H 0.10778 0.26776 0.16323 0.0
C1418 C 0.11075 0.31353 0.17043 0.0
O1419 O 0.05512 0.33705 0.19532 0.0
O1420 O 0.0534 0.30416 0.1866 0.0
N1421 N 0.12209 0.27152 0.23518 0.0
C1422 C 0.12253 0.28141 0.25585 0.0
C1423 C 0.13599 0.27368 0.27498 0.0
C1424 C 0.15995 0.2418 0.27107 0.0
C1425 C 0.15782 0.23234 0.24802 0.0
C1426 C 0.13208 0.2529 0.22835 0.0
H1427 H 0.11463 0.29599 0.25784 0.0
O1428 O 0.06456 0.30612 0.22818 0.0
O1429 O 0.08929 0.28959 0.21127 0.0
O1430 O 0.09805 0.33401 0.21957 0.0
O1431 O 0.12425 0.31169 0.22317 0.0
C1432 C 0.16863 0.21171 0.23299 0.0
C1433 C 0.16027 0.20827 0.20544 0.0
H1434 H 0.14332 0.21108 0.1626 0.0
H1435 H 0.12123 0.23708 0.14571 0.0
H1436 H 0.13339 0.28404 0.28822 0.0
H1437 H 0.1706 0.234 0.28171 0.0
H1438 H 0.18071 0.2026 0.24286 0.0
H1439 H 0.16616 0.20801 0.21953 0.0
Mn1440 Mn 0.79608 0.68357 0.92162 0.0
Mn1441 Mn 0.78727 0.70757 0.87579 0.0
C1442 C 0.76786 0.70596 0.91803 0.0
C1443 C 0.81097 0.6819 0.95504 0.0
C1444 C 0.77907 0.66204 0.88402 0.0
O1445 O 0.82378 0.68025 0.90504 0.0
O1446 O 0.81723 0.70354 0.87976 0.0
C1447 C 0.80825 0.74715 0.88308 0.0
N1448 N 0.79032 0.73757 0.87812 0.0
C1449 C 0.77787 0.76991 0.85796 0.0
C1450 C 0.79721 0.77884 0.866 0.0
C1451 C 0.81119 0.76791 0.87841 0.0
C1452 C 0.77413 0.74878 0.87106 0.0
H1453 H 0.82057 0.73881 0.89065 0.0
C1454 C 0.82941 0.69131 0.88941 0.0
O1455 O 0.80519 0.66545 0.94513 0.0
O1456 O 0.80987 0.69918 0.9448 0.0
N1457 N 0.75837 0.71128 0.86814 0.0
C1458 C 0.74759 0.6939 0.85329 0.0
C1459 C 0.72957 0.69867 0.833 0.0
C1460 C 0.72013 0.72315 0.82558 0.0
C1461 C 0.72862 0.7457 0.83832 0.0
C1462 C 0.75458 0.73572 0.86728 0.0
H1463 H 0.75248 0.67809 0.85426 0.0
O1464 O 0.76843 0.69254 0.93294 0.0
O1465 O 0.78373 0.70603 0.9059 0.0
O1466 O 0.78139 0.66236 0.90351 0.0
O1467 O 0.78412 0.67712 0.87222 0.0
C1468 C 0.7317 0.76584 0.8254 0.0
C1469 C 0.75156 0.77951 0.82957 0.0
H1470 H 0.80289 0.79419 0.86249 0.0
H1471 H 0.82543 0.77532 0.88318 0.0
H1472 H 0.72449 0.68548 0.82404 0.0
H1473 H 0.71073 0.72448 0.8118 0.0
H1474 H 0.7219 0.76901 0.81221 0.0
H1475 H 0.75122 0.79253 0.81862 0.0
Mn1476 Mn 0.79428 0.31791 0.0822 0.0
Mn1477 Mn 0.78859 0.28934 0.12532 0.0
C1478 C 0.76707 0.2942 0.084 0.0
C1479 C 0.80973 0.32144 0.04944 0.0
C1480 C 0.7783 0.33535 0.12205 0.0
O1481 O 0.82151 0.32208 0.09859 0.0
O1482 O 0.81852 0.29495 0.12033 0.0
C1483 C 0.81023 0.25126 0.1133 0.0
N1484 N 0.79221 0.25981 0.11962 0.0
C1485 C 0.78024 0.22462 0.13484 0.0
C1486 C 0.7995 0.21718 0.12527 0.0
C1487 C 0.81334 0.23005 0.11471 0.0
C1488 C 0.77618 0.24749 0.12517 0.0
H1489 H 0.82249 0.26073 0.10709 0.0
C1490 C 0.82887 0.30997 0.11249 0.0
O1491 O 0.80293 0.33739 0.05962 0.0
O1492 O 0.80885 0.30379 0.05893 0.0
N1493 N 0.76022 0.2839 0.13384 0.0
C1494 C 0.74973 0.29879 0.15131 0.0
C1495 C 0.73217 0.29099 0.17107 0.0
C1496 C 0.72298 0.26562 0.175 0.0
C1497 C 0.73129 0.24526 0.15891 0.0
C1498 C 0.75659 0.25963 0.1312 0.0
H1499 H 0.75443 0.31454 0.15233 0.0
O1500 O 0.76706 0.30876 0.07021 0.0
O1501 O 0.7831 0.29381 0.09598 0.0
O1502 O 0.77916 0.337 0.10241 0.0
O1503 O 0.78461 0.31924 0.13181 0.0
C1504 C 0.7347 0.22344 0.16858 0.0
C1505 C 0.75451 0.21067 0.162 0.0
H1506 H 0.80527 0.2015 0.12626 0.0
H1507 H 0.82761 0.22358 0.10879 0.0
H1508 H 0.72719 0.30271 0.18191 0.0
H1509 H 0.71383 0.26223 0.18859 0.0
H1510 H 0.7252 0.21826 0.18136 0.0
H1511 H 0.75448 0.1962 0.17087 0.0
Mn1512 Mn 0.68404 0.8006 0.07558 0.0
Mn1513 Mn 0.70759 0.78757 0.12092 0.0
C1514 C 0.70554 0.77195 0.07809 0.0
C1515 C 0.68366 0.81692 0.04299 0.0
C1516 C 0.66232 0.7786 0.1112 0.0
O1517 O 0.68096 0.82737 0.09284 0.0
O1518 O 0.69889 0.8171 0.12111 0.0
C1519 C 0.74322 0.81822 0.11919 0.0
N1520 N 0.7376 0.79777 0.11979 0.0
C1521 C 0.77484 0.79527 0.1432 0.0
C1522 C 0.77663 0.81625 0.14006 0.0
C1523 C 0.76192 0.82668 0.12761 0.0
C1524 C 0.75216 0.78426 0.12533 0.0
H1525 H 0.73279 0.82909 0.11217 0.0
C1526 C 0.68878 0.83069 0.1108 0.0
O1527 O 0.66676 0.81124 0.05221 0.0
O1528 O 0.70063 0.81482 0.05351 0.0
N1529 N 0.71395 0.75708 0.12442 0.0
C1530 C 0.69726 0.74195 0.13788 0.0
C1531 C 0.70359 0.72501 0.16093 0.0
C1532 C 0.72998 0.72163 0.17229 0.0
C1533 C 0.75282 0.73509 0.16179 0.0
C1534 C 0.73856 0.75845 0.12686 0.0
H1535 H 0.68105 0.74364 0.13504 0.0
O1536 O 0.69218 0.77328 0.0632 0.0
O1537 O 0.70631 0.78733 0.09077 0.0
O1538 O 0.66185 0.78601 0.09295 0.0
O1539 O 0.67822 0.7792 0.12293 0.0
C1540 C 0.77417 0.7515 0.17808 0.0
C1541 C 0.7855 0.78097 0.17019 0.0
H1542 H 0.78824 0.82496 0.14839 0.0
H1543 H 0.76405 0.8432 0.12589 0.0
H1544 H 0.69085 0.71734 0.16859 0.0
H1545 H 0.73141 0.71345 0.18681 0.0
H1546 H 0.77849 0.74553 0.1931 0.0
H1547 H 0.79575 0.78916 0.18057 0.0
Mn1548 Mn 0.20776 0.68293 0.08525 0.0
Mn1549 Mn 0.21069 0.71559 0.12608 0.0
C1550 C 0.23343 0.70804 0.08586 0.0
C1551 C 0.1932 0.67642 0.05253 0.0
C1552 C 0.2268 0.67107 0.12673 0.0
O1553 O 0.18055 0.67764 0.10069 0.0
O1554 O 0.18224 0.70442 0.12274 0.0
C1555 C 0.18322 0.74656 0.12388 0.0
N1556 N 0.20296 0.74301 0.11871 0.0
C1557 C 0.22152 0.75565 0.14925 0.0
C1558 C 0.19717 0.74964 0.15771 0.0
C1559 C 0.17977 0.74743 0.14484 0.0
C1560 C 0.21662 0.75635 0.12806 0.0
H1561 H 0.17077 0.74236 0.11351 0.0
C1562 C 0.17266 0.68926 0.11453 0.0
O1563 O 0.20105 0.66153 0.06358 0.0
O1564 O 0.19285 0.69454 0.06101 0.0
N1565 N 0.23604 0.72791 0.13302 0.0
C1566 C 0.25439 0.7173 0.13258 0.0
C1567 C 0.27274 0.72533 0.14245 0.0
C1568 C 0.27723 0.75416 0.16226 0.0
C1569 C 0.25455 0.76705 0.16277 0.0
C1570 C 0.23084 0.74898 0.14313 0.0
H1571 H 0.2551 0.70257 0.12467 0.0
O1572 O 0.2345 0.69254 0.07326 0.0
O1573 O 0.21689 0.7091 0.09718 0.0
O1574 O 0.2237 0.66665 0.10765 0.0
O1575 O 0.22051 0.68792 0.13516 0.0
C1576 C 0.25513 0.78628 0.17714 0.0
C1577 C 0.2475 0.77282 0.16443 0.0
H1578 H 0.1929 0.74771 0.1738 0.0
H1579 H 0.16446 0.74509 0.15113 0.0
H1580 H 0.28387 0.71327 0.13769 0.0
H1581 H 0.2902 0.76127 0.17075 0.0
H1582 H 0.27149 0.78707 0.18431 0.0
H1583 H 0.24499 0.79301 0.17535 0.0
Mn1584 Mn 0.31546 0.20541 0.07955 0.0
Mn1585 Mn 0.28538 0.2132 0.12208 0.0
C1586 C 0.29227 0.23301 0.08045 0.0
C1587 C 0.31989 0.19018 0.04666 0.0
C1588 C 0.331 0.22581 0.11922 0.0
O1589 O 0.31896 0.17804 0.09565 0.0
O1590 O 0.29471 0.18406 0.11983 0.0
C1591 C 0.25273 0.18746 0.12315 0.0
N1592 N 0.25706 0.20677 0.11699 0.0
C1593 C 0.24813 0.2271 0.14769 0.0
C1594 C 0.25353 0.20271 0.15652 0.0
C1595 C 0.25331 0.18473 0.14424 0.0
C1596 C 0.24526 0.22151 0.12684 0.0
H1597 H 0.25502 0.17447 0.11286 0.0
C1598 C 0.30786 0.1723 0.11098 0.0
O1599 O 0.33556 0.19675 0.0574 0.0
O1600 O 0.30201 0.19108 0.05567 0.0
N1601 N 0.27488 0.23954 0.12831 0.0
C1602 C 0.28625 0.25731 0.12603 0.0
C1603 C 0.28023 0.27642 0.13596 0.0
C1604 C 0.25374 0.28308 0.15825 0.0
C1605 C 0.23985 0.26117 0.16089 0.0
C1606 C 0.25467 0.23584 0.14058 0.0
H1607 H 0.30018 0.25687 0.11677 0.0
O1608 O 0.30736 0.23263 0.06729 0.0
O1609 O 0.29053 0.217 0.09239 0.0
O1610 O 0.33427 0.22055 0.10043 0.0
O1611 O 0.31404 0.22202 0.12882 0.0
C1612 C 0.2222 0.26331 0.17703 0.0
C1613 C 0.23391 0.25451 0.16339 0.0
H1614 H 0.25659 0.19883 0.17258 0.0
H1615 H 0.25476 0.16944 0.15097 0.0
H1616 H 0.29228 0.28673 0.12964 0.0
H1617 H 0.24817 0.29666 0.16692 0.0
H1618 H 0.22297 0.27993 0.1836 0.0
H1619 H 0.21479 0.25352 0.17628 0.0
Mn1620 Mn 0.19851 0.3163 0.92488 0.0
Mn1621 Mn 0.20489 0.28684 0.88219 0.0
C1622 C 0.22515 0.29196 0.92433 0.0
C1623 C 0.18302 0.32063 0.95732 0.0
C1624 C 0.21957 0.33195 0.88571 0.0
O1625 O 0.1716 0.32139 0.90859 0.0
O1626 O 0.17595 0.29669 0.88458 0.0
C1627 C 0.1787 0.25469 0.87915 0.0
N1628 N 0.1977 0.2586 0.88648 0.0
C1629 C 0.21959 0.24895 0.85694 0.0
C1630 C 0.1958 0.25419 0.84662 0.0
C1631 C 0.1772 0.25471 0.85791 0.0
C1632 C 0.21278 0.24654 0.87751 0.0
H1633 H 0.16515 0.25754 0.88854 0.0
C1634 C 0.16505 0.31051 0.89348 0.0
O1635 O 0.19032 0.33631 0.94704 0.0
O1636 O 0.18327 0.30289 0.94802 0.0
N1637 N 0.23091 0.27604 0.87648 0.0
C1638 C 0.24843 0.28727 0.8799 0.0
C1639 C 0.2679 0.28107 0.87143 0.0
C1640 C 0.27618 0.25428 0.85005 0.0
C1641 C 0.25443 0.24036 0.84608 0.0
C1642 C 0.22787 0.25564 0.86438 0.0
H1643 H 0.24756 0.30114 0.88919 0.0
O1644 O 0.22504 0.30698 0.93755 0.0
O1645 O 0.20923 0.291 0.91201 0.0
O1646 O 0.21488 0.33487 0.90469 0.0
O1647 O 0.21446 0.31554 0.87575 0.0
C1648 C 0.25756 0.22244 0.83043 0.0
C1649 C 0.24793 0.2344 0.84328 0.0
H1650 H 0.19295 0.25692 0.83032 0.0
H1651 H 0.16236 0.25624 0.85029 0.0
H1652 H 0.27768 0.2933 0.87829 0.0
H1653 H 0.29035 0.24862 0.8425 0.0
H1654 H 0.27458 0.22304 0.82502 0.0
H1655 H 0.24769 0.21507 0.83065 0.0
Mn1656 Mn 0.68405 0.20152 0.91975 0.0
Mn1657 Mn 0.71574 0.20811 0.87843 0.0
C1658 C 0.70787 0.22866 0.91968 0.0
C1659 C 0.67856 0.18702 0.95282 0.0
C1660 C 0.67022 0.22174 0.87918 0.0
O1661 O 0.6806 0.17387 0.90386 0.0
O1662 O 0.70538 0.17942 0.88017 0.0
C1663 C 0.74754 0.1813 0.87767 0.0
N1664 N 0.74343 0.20041 0.88461 0.0
C1665 C 0.75562 0.2219 0.85579 0.0
C1666 C 0.7505 0.19819 0.84516 0.0
C1667 C 0.74886 0.17966 0.85648 0.0
C1668 C 0.75635 0.21518 0.87649 0.0
H1669 H 0.74403 0.16787 0.887 0.0
C1670 C 0.69189 0.1679 0.88874 0.0
O1671 O 0.66322 0.19363 0.94161 0.0
O1672 O 0.69658 0.18729 0.94412 0.0
N1673 N 0.72738 0.23407 0.87307 0.0
C1674 C 0.71627 0.25197 0.8752 0.0
C1675 C 0.72387 0.27134 0.86728 0.0
C1676 C 0.75258 0.27857 0.84816 0.0
C1677 C 0.7661 0.25639 0.84549 0.0
C1678 C 0.74861 0.23041 0.86265 0.0
H1679 H 0.70148 0.2515 0.883 0.0
O1680 O 0.69212 0.22867 0.93201 0.0
O1681 O 0.7098 0.21247 0.90791 0.0
O1682 O 0.66621 0.21686 0.89797 0.0
O1683 O 0.68763 0.21778 0.87049 0.0
C1684 C 0.78532 0.25888 0.83134 0.0
C1685 C 0.77206 0.24968 0.8432 0.0
H1686 H 0.74896 0.19528 0.82869 0.0
H1687 H 0.7476 0.16479 0.84886 0.0
H1688 H 0.71147 0.28158 0.87305 0.0
H1689 H 0.75934 0.29251 0.84105 0.0
H1690 H 0.78568 0.27588 0.82581 0.0
H1691 H 0.79232 0.24879 0.83216 0.0
Mn1692 Mn 0.31648 0.7972 0.93014 0.0
Mn1693 Mn 0.28637 0.7857 0.88918 0.0
C1694 C 0.29189 0.77078 0.93181 0.0
C1695 C 0.32157 0.81439 0.9618 0.0
C1696 C 0.33272 0.77647 0.89163 0.0
O1697 O 0.31911 0.82306 0.91132 0.0
O1698 O 0.29376 0.8159 0.88796 0.0
C1699 C 0.24966 0.8143 0.89158 0.0
N1700 N 0.25605 0.79407 0.89173 0.0
C1701 C 0.2213 0.78997 0.86481 0.0
C1702 C 0.2183 0.81084 0.86783 0.0
C1703 C 0.23141 0.82191 0.8815 0.0
C1704 C 0.24275 0.77996 0.8846 0.0
H1705 H 0.25936 0.82575 0.89892 0.0
C1706 C 0.3076 0.82799 0.8958 0.0
O1707 O 0.337 0.80709 0.95121 0.0
O1708 O 0.30355 0.8134 0.95305 0.0
N1709 N 0.28189 0.75453 0.88858 0.0
C1710 C 0.30001 0.73953 0.87727 0.0
C1711 C 0.29647 0.72239 0.85375 0.0
C1712 C 0.27137 0.71811 0.84002 0.0
C1713 C 0.24723 0.7308 0.84835 0.0
C1714 C 0.25759 0.75484 0.88423 0.0
H1715 H 0.31479 0.73865 0.88481 0.0
O1716 O 0.30744 0.77094 0.94449 0.0
O1717 O 0.2911 0.78589 0.91877 0.0
O1718 O 0.33588 0.78056 0.91064 0.0
O1719 O 0.31527 0.77957 0.88316 0.0
C1720 C 0.22685 0.74638 0.83016 0.0
C1721 C 0.21361 0.7753 0.83706 0.0
H1722 H 0.2071 0.81906 0.8585 0.0
H1723 H 0.22849 0.83835 0.88284 0.0
H1724 H 0.30978 0.714 0.84815 0.0
H1725 H 0.27146 0.70954 0.82566 0.0
H1726 H 0.22414 0.74028 0.81482 0.0
H1727 H 0.20398 0.78309 0.8258 0.0
Mn1728 Mn 0.57481 0.70381 0.82325 0.0
Mn1729 Mn 0.62053 0.70944 0.79983 0.0
C1730 C 0.57901 0.72966 0.79835 0.0
C1731 C 0.54174 0.68902 0.82516 0.0
C1732 C 0.61247 0.72079 0.84477 0.0
O1733 O 0.59087 0.67665 0.82957 0.0
O1734 O 0.61704 0.67988 0.80645 0.0
C1735 C 0.61427 0.68727 0.76211 0.0
N1736 N 0.6207 0.70492 0.77082 0.0
C1737 C 0.63939 0.71792 0.73765 0.0
C1738 C 0.63115 0.69722 0.73076 0.0
C1739 C 0.61904 0.68347 0.74199 0.0
C1740 C 0.63055 0.72044 0.76034 0.0
H1741 H 0.60577 0.67588 0.77089 0.0
C1742 C 0.60675 0.66957 0.81986 0.0
O1743 O 0.55098 0.69634 0.84141 0.0
O1744 O 0.55239 0.68879 0.80814 0.0
N1745 N 0.62532 0.7372 0.79303 0.0
C1746 C 0.62357 0.75307 0.80659 0.0
C1747 C 0.63183 0.77228 0.80271 0.0
C1748 C 0.64277 0.77655 0.78495 0.0
C1749 C 0.64532 0.76055 0.76726 0.0
C1750 C 0.63292 0.739 0.77363 0.0
H1751 H 0.6153 0.75119 0.82081 0.0
O1752 O 0.56401 0.73071 0.81164 0.0
O1753 O 0.59065 0.71337 0.79978 0.0
O1754 O 0.59283 0.71996 0.84401 0.0
O1755 O 0.62389 0.71498 0.8298 0.0
C1756 C 0.66327 0.76274 0.73348 0.0
C1757 C 0.66063 0.74403 0.72106 0.0
H1758 H 0.63348 0.68992 0.71587 0.0
H1759 H 0.61398 0.66905 0.73507 0.0
H1760 H 0.63018 0.78435 0.81419 0.0
H1761 H 0.64549 0.76821 0.77313 0.0
H1762 H 0.67241 0.77475 0.72553 0.0
H1763 H 0.66851 0.74526 0.70598 0.0
Mn1764 Mn 0.29458 0.5797 0.82233 0.0
Mn1765 Mn 0.28464 0.62242 0.79347 0.0
C1766 C 0.26714 0.58069 0.79899 0.0
C1767 C 0.30977 0.54642 0.82597 0.0
C1768 C 0.2755 0.61919 0.83966 0.0
O1769 O 0.32188 0.59667 0.82445 0.0
O1770 O 0.31459 0.62172 0.80088 0.0
C1771 C 0.31344 0.61733 0.75693 0.0
N1772 N 0.29328 0.61896 0.76329 0.0
C1773 C 0.29094 0.64405 0.72703 0.0
C1774 C 0.31159 0.63963 0.72435 0.0
C1775 C 0.32172 0.62594 0.73821 0.0
C1776 C 0.27973 0.62613 0.74956 0.0
H1777 H 0.32424 0.60944 0.76687 0.0
C1778 C 0.32696 0.61255 0.81349 0.0
O1779 O 0.30375 0.5571 0.84189 0.0
O1780 O 0.3087 0.55583 0.80829 0.0
N1781 N 0.25378 0.62577 0.78859 0.0
C1782 C 0.23953 0.63928 0.80594 0.0
C1783 C 0.22355 0.66323 0.80063 0.0
C1784 C 0.22004 0.67541 0.77463 0.0
C1785 C 0.23243 0.66489 0.75119 0.0
C1786 C 0.25451 0.62862 0.76403 0.0
H1787 H 0.24006 0.63458 0.82186 0.0
O1788 O 0.26712 0.56742 0.81403 0.0
O1789 O 0.28301 0.59272 0.79788 0.0
O1790 O 0.27972 0.60005 0.84235 0.0
O1791 O 0.27833 0.62832 0.82246 0.0
C1792 C 0.24904 0.6811 0.72995 0.0
C1793 C 0.27771 0.67199 0.71744 0.0
H1794 H 0.32039 0.64776 0.71267 0.0
H1795 H 0.33801 0.62327 0.73538 0.0
H1796 H 0.21619 0.67064 0.81369 0.0
H1797 H 0.21242 0.69028 0.77374 0.0
H1798 H 0.24371 0.69653 0.72625 0.0
H1799 H 0.28608 0.68222 0.70717 0.0
Mn1800 Mn 0.42411 0.29707 0.81863 0.0
Mn1801 Mn 0.38075 0.28948 0.79084 0.0
C1802 C 0.42249 0.26966 0.7946 0.0
C1803 C 0.45685 0.31273 0.82227 0.0
C1804 C 0.38513 0.28087 0.83738 0.0
O1805 O 0.4068 0.32423 0.82234 0.0
O1806 O 0.38463 0.31952 0.79576 0.0
C1807 C 0.39106 0.31108 0.75239 0.0
N1808 N 0.38515 0.29304 0.76119 0.0
C1809 C 0.36626 0.28204 0.7277 0.0
C1810 C 0.37541 0.30127 0.71962 0.0
C1811 C 0.38763 0.31462 0.7315 0.0
C1812 C 0.37824 0.27731 0.74924 0.0
H1813 H 0.39836 0.32304 0.76147 0.0
C1814 C 0.39222 0.33061 0.81031 0.0
O1815 O 0.44651 0.30602 0.83811 0.0
O1816 O 0.44745 0.31187 0.80454 0.0
N1817 N 0.37335 0.2606 0.78603 0.0
C1818 C 0.35772 0.2497 0.80244 0.0
C1819 C 0.33681 0.23275 0.79655 0.0
C1820 C 0.32983 0.22437 0.77158 0.0
C1821 C 0.34367 0.23299 0.74976 0.0
C1822 C 0.37323 0.25756 0.76157 0.0
H1823 H 0.36115 0.25114 0.81829 0.0
O1824 O 0.43639 0.26975 0.80907 0.0
O1825 O 0.4103 0.28546 0.79462 0.0
O1826 O 0.40473 0.28191 0.83863 0.0
O1827 O 0.37525 0.28594 0.8209 0.0
C1828 C 0.33176 0.23709 0.7292 0.0
C1829 C 0.33733 0.2571 0.71622 0.0
H1830 H 0.37289 0.3074 0.70425 0.0
H1831 H 0.39317 0.3289 0.7247 0.0
H1832 H 0.32782 0.22692 0.8094 0.0
H1833 H 0.31588 0.21536 0.76954 0.0
H1834 H 0.31835 0.22791 0.72521 0.0
H1835 H 0.32698 0.25751 0.70272 0.0
Mn1836 Mn 0.70682 0.42556 0.81896 0.0
Mn1837 Mn 0.71758 0.38334 0.79025 0.0
C1838 C 0.73296 0.42612 0.79437 0.0
C1839 C 0.68864 0.45646 0.82305 0.0
C1840 C 0.7277 0.38786 0.8363 0.0
O1841 O 0.68135 0.40708 0.82295 0.0
O1842 O 0.68769 0.3827 0.79845 0.0
C1843 C 0.6879 0.38561 0.7543 0.0
N1844 N 0.70831 0.38542 0.76012 0.0
C1845 C 0.71101 0.35876 0.72508 0.0
C1846 C 0.69015 0.36218 0.72261 0.0
C1847 C 0.67965 0.37588 0.73614 0.0
C1848 C 0.72195 0.37825 0.74638 0.0
H1849 H 0.67679 0.39297 0.76437 0.0
C1850 C 0.67609 0.39126 0.81222 0.0
O1851 O 0.6967 0.4469 0.83878 0.0
O1852 O 0.69009 0.44738 0.80522 0.0
N1853 N 0.74852 0.38162 0.78484 0.0
C1854 C 0.76359 0.36974 0.8026 0.0
C1855 C 0.78012 0.34591 0.79851 0.0
C1856 C 0.78354 0.33226 0.77322 0.0
C1857 C 0.77048 0.34102 0.74941 0.0
C1858 C 0.7475 0.37736 0.7605 0.0
H1859 H 0.76434 0.37655 0.81772 0.0
O1860 O 0.7328 0.43968 0.80917 0.0
O1861 O 0.71787 0.41307 0.79414 0.0
O1862 O 0.72366 0.40696 0.83878 0.0
O1863 O 0.72448 0.3786 0.81924 0.0
C1864 C 0.75405 0.32325 0.72933 0.0
C1865 C 0.72494 0.33076 0.71688 0.0
H1866 H 0.68154 0.35312 0.7115 0.0
H1867 H 0.66317 0.37752 0.73366 0.0
H1868 H 0.78823 0.33975 0.81178 0.0
H1869 H 0.79165 0.31762 0.77307 0.0
H1870 H 0.75979 0.30782 0.72636 0.0
H1871 H 0.71672 0.31973 0.70735 0.0
Mn1872 Mn 0.57969 0.29834 0.18333 0.0
Mn1873 Mn 0.62364 0.28807 0.21029 0.0
C1874 C 0.58163 0.27076 0.20636 0.0
C1875 C 0.54652 0.31362 0.18069 0.0
C1876 C 0.61813 0.27939 0.16411 0.0
O1877 O 0.59655 0.32562 0.18078 0.0
O1878 O 0.6226 0.31816 0.20319 0.0
C1879 C 0.62054 0.31648 0.24735 0.0
N1880 N 0.62169 0.29635 0.24077 0.0
C1881 C 0.64824 0.29351 0.27595 0.0
C1882 C 0.64409 0.31418 0.27897 0.0
C1883 C 0.62998 0.32454 0.26575 0.0
C1884 C 0.62932 0.28258 0.25412 0.0
H1885 H 0.61242 0.32748 0.23781 0.0
C1886 C 0.61284 0.33064 0.19112 0.0
O1887 O 0.55676 0.30766 0.16448 0.0
O1888 O 0.5563 0.3124 0.19817 0.0
N1889 N 0.62725 0.25716 0.21476 0.0
C1890 C 0.64 0.24315 0.19664 0.0
C1891 C 0.66414 0.22709 0.20071 0.0
C1892 C 0.67742 0.22323 0.22611 0.0
C1893 C 0.66794 0.23531 0.25014 0.0
C1894 C 0.63116 0.25755 0.23923 0.0
H1895 H 0.63487 0.24415 0.18086 0.0
O1896 O 0.56773 0.27087 0.19189 0.0
O1897 O 0.59372 0.28661 0.20717 0.0
O1898 O 0.59895 0.2836 0.16236 0.0
O1899 O 0.62809 0.28203 0.1809 0.0
C1900 C 0.68512 0.25167 0.27082 0.0
C1901 C 0.67659 0.2802 0.28407 0.0
H1902 H 0.65281 0.32284 0.29032 0.0
H1903 H 0.62762 0.34085 0.26877 0.0
H1904 H 0.67102 0.21997 0.18723 0.0
H1905 H 0.69231 0.21562 0.22624 0.0
H1906 H 0.70068 0.2463 0.27375 0.0
H1907 H 0.68726 0.28846 0.29395 0.0
Mn1908 Mn 0.7068 0.58315 0.18482 0.0
Mn1909 Mn 0.70975 0.62507 0.2165 0.0
C1910 C 0.73277 0.58502 0.2096 0.0
C1911 C 0.69342 0.54933 0.17948 0.0
C1912 C 0.72549 0.62477 0.17179 0.0
O1913 O 0.67902 0.59798 0.17965 0.0
O1914 O 0.6814 0.62134 0.2053 0.0
C1915 C 0.6822 0.62314 0.24749 0.0
N1916 N 0.70203 0.61824 0.24408 0.0
C1917 C 0.72009 0.64931 0.25612 0.0
C1918 C 0.69559 0.65725 0.24991 0.0
C1919 C 0.67839 0.64406 0.24805 0.0
C1920 C 0.71552 0.62806 0.25728 0.0
H1921 H 0.66993 0.61247 0.24351 0.0
C1922 C 0.67144 0.61249 0.19075 0.0
O1923 O 0.70049 0.56036 0.1642 0.0
O1924 O 0.69281 0.5585 0.19724 0.0
N1925 N 0.73497 0.63262 0.22883 0.0
C1926 C 0.75335 0.6323 0.21827 0.0
C1927 C 0.77151 0.64269 0.2261 0.0
C1928 C 0.77556 0.66327 0.25444 0.0
C1929 C 0.75284 0.66367 0.26727 0.0
C1930 C 0.72953 0.64317 0.24962 0.0
H1931 H 0.75421 0.62412 0.2037 0.0
O1932 O 0.73398 0.57211 0.19437 0.0
O1933 O 0.71602 0.59601 0.21061 0.0
O1934 O 0.72207 0.60563 0.1677 0.0
O1935 O 0.71962 0.63349 0.18864 0.0
C1936 C 0.75313 0.6785 0.28615 0.0
C1937 C 0.74576 0.66533 0.27299 0.0
H1938 H 0.69098 0.67327 0.24778 0.0
H1939 H 0.66293 0.65005 0.24582 0.0
H1940 H 0.78274 0.63785 0.21419 0.0
H1941 H 0.78835 0.67216 0.26137 0.0
H1942 H 0.76935 0.68598 0.2868 0.0
H1943 H 0.74303 0.67666 0.29292 0.0
Mn1944 Mn 0.42435 0.70425 0.18905 0.0
Mn1945 Mn 0.3826 0.71209 0.21971 0.0
C1946 C 0.42388 0.73223 0.21181 0.0
C1947 C 0.45677 0.68875 0.18431 0.0
C1948 C 0.38441 0.72418 0.17405 0.0
O1949 O 0.40841 0.67674 0.18619 0.0
O1950 O 0.38504 0.68265 0.21114 0.0
C1951 C 0.38275 0.68719 0.25281 0.0
N1952 N 0.38849 0.70646 0.24799 0.0
C1953 C 0.35749 0.72636 0.25676 0.0
C1954 C 0.34904 0.70177 0.25173 0.0
C1955 C 0.36175 0.68409 0.25195 0.0
C1956 C 0.37846 0.7212 0.25955 0.0
H1957 H 0.39329 0.67437 0.2507 0.0
C1958 C 0.39369 0.6708 0.19795 0.0
O1959 O 0.44588 0.6952 0.16869 0.0
O1960 O 0.44821 0.69007 0.20237 0.0
N1961 N 0.37632 0.73866 0.22962 0.0
C1962 C 0.37827 0.75631 0.21799 0.0
C1963 C 0.36814 0.77539 0.22386 0.0
C1964 C 0.34604 0.78211 0.25052 0.0
C1965 C 0.34384 0.76034 0.26473 0.0
C1966 C 0.36435 0.7351 0.25002 0.0
H1967 H 0.38737 0.75579 0.20396 0.0
O1968 O 0.43679 0.73163 0.19652 0.0
O1969 O 0.41203 0.7162 0.21395 0.0
O1970 O 0.40321 0.7192 0.1705 0.0
O1971 O 0.37506 0.72009 0.19106 0.0
C1972 C 0.32786 0.76246 0.28253 0.0
C1973 C 0.3415 0.75372 0.27078 0.0
H1974 H 0.33306 0.69762 0.24871 0.0
H1975 H 0.35553 0.6688 0.24993 0.0
H1976 H 0.37418 0.78563 0.21161 0.0
H1977 H 0.33725 0.79565 0.25602 0.0
H1978 H 0.32104 0.77897 0.28163 0.0
H1979 H 0.32883 0.75276 0.29004 0.0
Mn1980 Mn 0.2975 0.42479 0.18708 0.0
Mn1981 Mn 0.28344 0.37906 0.20961 0.0
C1982 C 0.26889 0.42235 0.20878 0.0
C1983 C 0.31405 0.45713 0.18589 0.0
C1984 C 0.27562 0.39013 0.16432 0.0
O1985 O 0.32396 0.40702 0.18398 0.0
O1986 O 0.31338 0.37865 0.20174 0.0
C1987 C 0.31289 0.37839 0.24619 0.0
N1988 N 0.29261 0.37858 0.24002 0.0
C1989 C 0.28876 0.35239 0.27533 0.0
C1990 C 0.30971 0.35512 0.27792 0.0
C1991 C 0.3207 0.36848 0.26445 0.0
C1992 C 0.27861 0.37213 0.2538 0.0
H1993 H 0.32418 0.38583 0.2365 0.0
C1994 C 0.32714 0.389 0.19179 0.0
O1995 O 0.30817 0.44759 0.16931 0.0
O1996 O 0.31208 0.44702 0.20319 0.0
N1997 N 0.25261 0.37622 0.21498 0.0
C1998 C 0.23769 0.36432 0.19699 0.0
C1999 C 0.22032 0.34112 0.20112 0.0
C2000 C 0.21612 0.32784 0.22645 0.0
C2001 C 0.22909 0.33636 0.25035 0.0
C2002 C 0.25322 0.37196 0.23941 0.0
H2003 H 0.2397 0.36841 0.18114 0.0
O2004 O 0.27034 0.43738 0.19554 0.0
O2005 O 0.28405 0.40937 0.20926 0.0
O2006 O 0.28288 0.40832 0.16464 0.0
O2007 O 0.27593 0.3779 0.17985 0.0
C2008 C 0.24476 0.31809 0.27063 0.0
C2009 C 0.27395 0.32478 0.28345 0.0
H2010 H 0.31801 0.34581 0.28909 0.0
H2011 H 0.33718 0.36976 0.26713 0.0
H2012 H 0.21287 0.33458 0.18765 0.0
H2013 H 0.20775 0.31335 0.22656 0.0
H2014 H 0.23853 0.30283 0.27352 0.0
H2015 H 0.28174 0.31352 0.29307 0.0
Mn2016 Mn 0.81712 0.57874 0.70911 0.0
Mn2017 Mn 0.78924 0.62213 0.71647 0.0
C2018 C 0.79314 0.58035 0.73636 0.0
C2019 C 0.82101 0.54621 0.69328 0.0
C2020 C 0.83579 0.61788 0.7249 0.0
O2021 O 0.82068 0.59578 0.68199 0.0
O2022 O 0.79403 0.61799 0.68643 0.0
C2023 C 0.75037 0.61278 0.69504 0.0
N2024 N 0.75943 0.6181 0.71313 0.0
C2025 C 0.72616 0.63727 0.72483 0.0
C2026 C 0.71783 0.62862 0.7055 0.0
C2027 C 0.72949 0.6166 0.69177 0.0
C2028 C 0.74771 0.62502 0.72904 0.0
H2029 H 0.75924 0.60565 0.68282 0.0
C2030 C 0.80849 0.61006 0.67541 0.0
O2031 O 0.83678 0.55656 0.70014 0.0
O2032 O 0.80318 0.5554 0.69432 0.0
N2033 N 0.78471 0.62943 0.74541 0.0
C2034 C 0.80132 0.64474 0.75647 0.0
C2035 C 0.79569 0.66527 0.77396 0.0
C2036 C 0.77086 0.67217 0.78278 0.0
C2037 C 0.74889 0.65862 0.77408 0.0
C2038 C 0.76029 0.62957 0.74872 0.0
H2039 H 0.81716 0.64144 0.75464 0.0
O2040 O 0.80769 0.56651 0.73637 0.0
O2041 O 0.79303 0.59252 0.72054 0.0
O2042 O 0.83701 0.59827 0.72415 0.0
O2043 O 0.81932 0.62769 0.71974 0.0
C2044 C 0.72838 0.67072 0.77051 0.0
C2045 C 0.71516 0.66568 0.75056 0.0
H2046 H 0.70243 0.63144 0.69959 0.0
H2047 H 0.72251 0.61148 0.67742 0.0
H2048 H 0.80864 0.6741 0.77982 0.0
H2049 H 0.76897 0.68592 0.79212 0.0
H2050 H 0.72455 0.68392 0.78007 0.0
H2051 H 0.70165 0.67597 0.75066 0.0
Mn2052 Mn 0.42232 0.81655 0.70129 0.0
Mn2053 Mn 0.37931 0.78708 0.70682 0.0
C2054 C 0.42093 0.79146 0.72696 0.0
C2055 C 0.45596 0.82099 0.68763 0.0
C2056 C 0.3834 0.83059 0.72503 0.0
O2057 O 0.40691 0.82213 0.67383 0.0
O2058 O 0.37968 0.80121 0.67956 0.0
C2059 C 0.38408 0.7565 0.67151 0.0
N2060 N 0.38092 0.76025 0.69201 0.0
C2061 C 0.35759 0.72558 0.69156 0.0
C2062 C 0.36312 0.72362 0.6709 0.0
C2063 C 0.37622 0.73849 0.66141 0.0
C2064 C 0.37022 0.74652 0.7028 0.0
H2065 H 0.39249 0.76768 0.66242 0.0
C2066 C 0.3898 0.81386 0.66825 0.0
O2067 O 0.44544 0.83655 0.69481 0.0
O2068 O 0.44619 0.80355 0.68657 0.0
N2069 N 0.37551 0.77322 0.73358 0.0
C2070 C 0.37467 0.78339 0.75407 0.0
C2071 C 0.36094 0.77587 0.77308 0.0
C2072 C 0.33722 0.74378 0.7693 0.0
C2073 C 0.33976 0.73396 0.74642 0.0
C2074 C 0.36574 0.75441 0.72688 0.0
H2075 H 0.38256 0.79798 0.75603 0.0
O2076 O 0.43394 0.80662 0.72778 0.0
O2077 O 0.40936 0.79036 0.7104 0.0
O2078 O 0.40143 0.83509 0.71801 0.0
O2079 O 0.37455 0.81346 0.72097 0.0
C2080 C 0.32938 0.71296 0.73148 0.0
C2081 C 0.33831 0.70921 0.70413 0.0
H2082 H 0.35711 0.71086 0.66193 0.0
H2083 H 0.3797 0.73653 0.64515 0.0
H2084 H 0.36328 0.78643 0.78619 0.0
H2085 H 0.32646 0.73608 0.77989 0.0
H2086 H 0.31735 0.70356 0.74125 0.0
H2087 H 0.33216 0.70911 0.71811 0.0
Mn2088 Mn 0.18443 0.42574 0.70636 0.0
Mn2089 Mn 0.21506 0.38353 0.71231 0.0
C2090 C 0.20802 0.42414 0.73386 0.0
C2091 C 0.17917 0.45897 0.69249 0.0
C2092 C 0.16983 0.38528 0.72597 0.0
O2093 O 0.18079 0.41078 0.67821 0.0
O2094 O 0.20468 0.38625 0.6836 0.0
C2095 C 0.24656 0.38486 0.6854 0.0
N2096 N 0.24284 0.38998 0.70507 0.0
C2097 C 0.25364 0.35885 0.72363 0.0
C2098 C 0.24742 0.35081 0.69917 0.0
C2099 C 0.24599 0.36393 0.68185 0.0
C2100 C 0.25552 0.37999 0.71883 0.0
H2101 H 0.24325 0.39562 0.67303 0.0
C2102 C 0.19167 0.39545 0.67202 0.0
O2103 O 0.16378 0.44774 0.69889 0.0
O2104 O 0.19725 0.45032 0.69284 0.0
N2105 N 0.22669 0.37652 0.73794 0.0
C2106 C 0.21583 0.37732 0.75612 0.0
C2107 C 0.22296 0.36672 0.77447 0.0
C2108 C 0.25072 0.34542 0.77917 0.0
C2109 C 0.26393 0.34452 0.75667 0.0
C2110 C 0.24721 0.36528 0.7329 0.0
H2111 H 0.2016 0.3861 0.75665 0.0
O2112 O 0.19273 0.43705 0.73408 0.0
O2113 O 0.20967 0.4129 0.71734 0.0
O2114 O 0.16622 0.40405 0.72086 0.0
O2115 O 0.18687 0.37591 0.72194 0.0
C2116 C 0.28244 0.32925 0.75739 0.0
C2117 C 0.26972 0.34267 0.7497 0.0
H2118 H 0.2447 0.33484 0.69478 0.0
H2119 H 0.24283 0.35806 0.66661 0.0
H2120 H 0.21097 0.37193 0.78544 0.0
H2121 H 0.25718 0.33642 0.79214 0.0
H2122 H 0.28264 0.32188 0.77367 0.0
H2123 H 0.28943 0.33087 0.74738 0.0
Mn2124 Mn 0.57931 0.18501 0.70574 0.0
Mn2125 Mn 0.62274 0.21293 0.71251 0.0
C2126 C 0.58153 0.20849 0.73339 0.0
C2127 C 0.54666 0.18205 0.6901 0.0
C2128 C 0.61869 0.16632 0.72112 0.0
O2129 O 0.59571 0.18141 0.67833 0.0
O2130 O 0.61812 0.20778 0.68268 0.0
C2131 C 0.61087 0.25095 0.69094 0.0
N2132 N 0.61762 0.24243 0.70882 0.0
C2133 C 0.63546 0.27667 0.71922 0.0
C2134 C 0.62554 0.28432 0.7002 0.0
C2135 C 0.61343 0.27194 0.68723 0.0
C2136 C 0.62445 0.25469 0.72433 0.0
H2137 H 0.60349 0.24159 0.67926 0.0
C2138 C 0.60996 0.19353 0.67166 0.0
O2139 O 0.55668 0.16592 0.69667 0.0
O2140 O 0.55616 0.19968 0.69147 0.0
N2141 N 0.63115 0.21816 0.74103 0.0
C2142 C 0.64776 0.2024 0.75146 0.0
C2143 C 0.66887 0.20916 0.76784 0.0
C2144 C 0.67508 0.23442 0.77601 0.0
C2145 C 0.66015 0.25567 0.76774 0.0
C2146 C 0.63043 0.24262 0.744 0.0
H2147 H 0.64539 0.18641 0.74953 0.0
O2148 O 0.56754 0.19412 0.73334 0.0
O2149 O 0.59342 0.20873 0.71739 0.0
O2150 O 0.59907 0.16489 0.72015 0.0
O2151 O 0.6285 0.18292 0.71623 0.0
C2152 C 0.6711 0.2767 0.7633 0.0
C2153 C 0.6645 0.2894 0.74342 0.0
H2154 H 0.62733 0.29975 0.69396 0.0
H2155 H 0.60724 0.27847 0.6731 0.0
H2156 H 0.67862 0.1967 0.7733 0.0
H2157 H 0.68919 0.23704 0.7846 0.0
H2158 H 0.68458 0.28125 0.77212 0.0
H2159 H 0.67429 0.30331 0.74273 0.0
Mn2160 Mn 0.81815 0.43158 0.29996 0.0
Mn2161 Mn 0.79314 0.38677 0.28864 0.0
C2162 C 0.79516 0.42967 0.27256 0.0
C2163 C 0.82071 0.4638 0.31649 0.0
C2164 C 0.83867 0.39491 0.27946 0.0
O2165 O 0.82186 0.41406 0.32646 0.0
O2166 O 0.80051 0.38732 0.31854 0.0
C2167 C 0.75621 0.38773 0.31756 0.0
N2168 N 0.76262 0.38751 0.29734 0.0
C2169 C 0.72734 0.36116 0.29363 0.0
C2170 C 0.72449 0.36439 0.31447 0.0
C2171 C 0.73783 0.378 0.32533 0.0
C2172 C 0.74912 0.38054 0.28337 0.0
H2173 H 0.76581 0.39532 0.32885 0.0
C2174 C 0.81224 0.39729 0.3311 0.0
O2175 O 0.83688 0.45404 0.30976 0.0
O2176 O 0.80317 0.45405 0.31517 0.0
N2177 N 0.78835 0.3837 0.25784 0.0
C2178 C 0.8064 0.37146 0.24327 0.0
C2179 C 0.80223 0.34805 0.22624 0.0
C2180 C 0.77681 0.33498 0.22196 0.0
C2181 C 0.75287 0.34394 0.23455 0.0
C2182 C 0.76388 0.37974 0.25827 0.0
H2183 H 0.82221 0.37609 0.24475 0.0
O2184 O 0.80894 0.44426 0.27318 0.0
O2185 O 0.79485 0.41697 0.28799 0.0
O2186 O 0.83919 0.41394 0.28424 0.0
O2187 O 0.82282 0.38348 0.28206 0.0
C2188 C 0.73231 0.32602 0.2503 0.0
C2189 C 0.71918 0.33334 0.27923 0.0
H2190 H 0.71319 0.35531 0.32283 0.0
H2191 H 0.73494 0.37963 0.34174 0.0
H2192 H 0.81569 0.34138 0.21887 0.0
H2193 H 0.77663 0.32041 0.21374 0.0
H2194 H 0.72938 0.31069 0.2443 0.0
H2195 H 0.70936 0.3223 0.2871 0.0
Mn2196 Mn 0.57994 0.81405 0.29964 0.0
Mn2197 Mn 0.62129 0.783 0.29175 0.0
C2198 C 0.58005 0.79122 0.27167 0.0
C2199 C 0.54766 0.81887 0.31546 0.0
C2200 C 0.61984 0.82877 0.27962 0.0
O2201 O 0.59649 0.81722 0.32679 0.0
O2202 O 0.61905 0.79139 0.32136 0.0
C2203 C 0.61951 0.74935 0.31623 0.0
N2204 N 0.61462 0.75477 0.2969 0.0
C2205 C 0.64583 0.74552 0.27764 0.0
C2206 C 0.65361 0.74976 0.30259 0.0
C2207 C 0.6404 0.74893 0.31992 0.0
C2208 C 0.62469 0.74313 0.28223 0.0
H2209 H 0.6087 0.75157 0.3288 0.0
C2210 C 0.61109 0.80536 0.33287 0.0
O2211 O 0.5585 0.83447 0.30885 0.0
O2212 O 0.55626 0.80081 0.31421 0.0
N2213 N 0.62766 0.77312 0.26521 0.0
C2214 C 0.62616 0.78491 0.24763 0.0
C2215 C 0.63661 0.77907 0.22871 0.0
C2216 C 0.65858 0.75225 0.22223 0.0
C2217 C 0.66018 0.73782 0.2439 0.0
C2218 C 0.6393 0.75253 0.26882 0.0
H2219 H 0.61721 0.79904 0.24809 0.0
O2220 O 0.56707 0.80644 0.27243 0.0
O2221 O 0.59203 0.78918 0.28759 0.0
O2222 O 0.60098 0.8323 0.28439 0.0
O2223 O 0.62922 0.81176 0.28392 0.0
C2224 C 0.67599 0.71985 0.24192 0.0
C2225 C 0.6623 0.73167 0.2505 0.0
H2226 H 0.66953 0.75237 0.30726 0.0
H2227 H 0.64612 0.74923 0.33551 0.0
H2228 H 0.63089 0.79146 0.21845 0.0
H2229 H 0.66759 0.74678 0.20884 0.0
H2230 H 0.68317 0.72085 0.22558 0.0
H2231 H 0.67474 0.71226 0.2515 0.0
Mn2232 Mn 0.18019 0.57626 0.29814 0.0
Mn2233 Mn 0.20856 0.61961 0.28921 0.0
C2234 C 0.20387 0.57807 0.27115 0.0
C2235 C 0.17702 0.54279 0.31282 0.0
C2236 C 0.16264 0.61562 0.2792 0.0
O2237 O 0.1772 0.59278 0.32554 0.0
O2238 O 0.19994 0.61864 0.31859 0.0
C2239 C 0.24376 0.61443 0.31965 0.0
N2240 N 0.23832 0.61621 0.29923 0.0
C2241 C 0.27492 0.64083 0.29865 0.0
C2242 C 0.27662 0.63632 0.31938 0.0
C2243 C 0.26216 0.6228 0.32882 0.0
C2244 C 0.2527 0.62327 0.28633 0.0
H2245 H 0.23328 0.60662 0.33 0.0
C2246 C 0.18747 0.60907 0.33069 0.0
O2247 O 0.16095 0.5532 0.30669 0.0
O2248 O 0.19451 0.55255 0.31214 0.0
N2249 N 0.21478 0.62356 0.25874 0.0
C2250 C 0.19814 0.63747 0.24399 0.0
C2251 C 0.20443 0.66145 0.22838 0.0
C2252 C 0.23074 0.67328 0.22599 0.0
C2253 C 0.25352 0.66235 0.23924 0.0
C2254 C 0.23935 0.6261 0.26052 0.0
H2255 H 0.18194 0.63358 0.24459 0.0
O2256 O 0.18909 0.56452 0.27068 0.0
O2257 O 0.20452 0.5899 0.28718 0.0
O2258 O 0.16007 0.59649 0.28344 0.0
O2259 O 0.17975 0.62502 0.2818 0.0
C2260 C 0.27437 0.67806 0.25684 0.0
C2261 C 0.28541 0.66871 0.28601 0.0
H2262 H 0.28798 0.64429 0.32872 0.0
H2263 H 0.26419 0.62008 0.34522 0.0
H2264 H 0.19175 0.66922 0.22072 0.0
H2265 H 0.23213 0.6882 0.21854 0.0
H2266 H 0.27857 0.69343 0.25174 0.0
H2267 H 0.29542 0.67877 0.29488 0.0
Mn2268 Mn 0.42897 0.18393 0.29852 0.0
Mn2269 Mn 0.38701 0.21505 0.2939 0.0
C2270 C 0.42715 0.20811 0.27153 0.0
C2271 C 0.46271 0.17897 0.31181 0.0
C2272 C 0.38791 0.17003 0.27949 0.0
O2273 O 0.41425 0.17986 0.32687 0.0
O2274 O 0.39031 0.20455 0.32247 0.0
C2275 C 0.38917 0.24634 0.32087 0.0
N2276 N 0.39371 0.24279 0.30105 0.0
C2277 C 0.36188 0.25321 0.28351 0.0
C2278 C 0.35469 0.24659 0.30815 0.0
C2279 C 0.36839 0.24521 0.32507 0.0
C2280 C 0.38309 0.25543 0.28771 0.0
H2281 H 0.40037 0.24308 0.33287 0.0
C2282 C 0.39935 0.19106 0.33359 0.0
O2283 O 0.45161 0.16348 0.30538 0.0
O2284 O 0.45363 0.19682 0.31195 0.0
N2285 N 0.37958 0.22672 0.26845 0.0
C2286 C 0.38019 0.2161 0.25011 0.0
C2287 C 0.36906 0.22329 0.23209 0.0
C2288 C 0.34712 0.25068 0.22828 0.0
C2289 C 0.34648 0.26357 0.25097 0.0
C2290 C 0.36813 0.24699 0.274 0.0
H2291 H 0.38904 0.20192 0.24926 0.0
O2292 O 0.43997 0.19277 0.27081 0.0
O2293 O 0.41613 0.20939 0.2882 0.0
O2294 O 0.40685 0.16602 0.28379 0.0
O2295 O 0.37895 0.18702 0.28448 0.0
C2296 C 0.33077 0.28173 0.25088 0.0
C2297 C 0.34466 0.26924 0.25806 0.0
H2298 H 0.33893 0.24341 0.31294 0.0
H2299 H 0.3632 0.24152 0.34045 0.0
H2300 H 0.37424 0.21155 0.22082 0.0
H2301 H 0.33768 0.25713 0.21563 0.0
H2302 H 0.323 0.28198 0.23479 0.0
H2303 H 0.33246 0.28861 0.26095 0.0
Mn2304 Mn 0.70736 0.82267 0.58099 0.0
Mn2305 Mn 0.71731 0.79535 0.62471 0.0
C2306 C 0.73472 0.79947 0.58279 0.0
C2307 C 0.69212 0.82519 0.54785 0.0
C2308 C 0.72641 0.84154 0.6196 0.0
O2309 O 0.68003 0.82517 0.59766 0.0
O2310 O 0.68721 0.80252 0.6236 0.0
C2311 C 0.68878 0.75834 0.62177 0.0
N2312 N 0.70893 0.76487 0.62278 0.0
C2313 C 0.71176 0.72982 0.64957 0.0
C2314 C 0.69107 0.72683 0.64552 0.0
C2315 C 0.6807 0.74001 0.63136 0.0
C2316 C 0.72267 0.75154 0.63048 0.0
H2317 H 0.67777 0.76788 0.61367 0.0
C2318 C 0.67482 0.81463 0.61375 0.0
O2319 O 0.69816 0.84149 0.55793 0.0
O2320 O 0.69326 0.80778 0.55776 0.0
N2321 N 0.74823 0.79078 0.62811 0.0
C2322 C 0.76245 0.80888 0.64065 0.0
C2323 C 0.77862 0.80486 0.6647 0.0
C2324 C 0.78243 0.7795 0.67809 0.0
C2325 C 0.77018 0.75547 0.66881 0.0
C2326 C 0.74776 0.76633 0.63212 0.0
H2327 H 0.76188 0.82452 0.6351 0.0
O2328 O 0.73477 0.81407 0.56903 0.0
O2329 O 0.71885 0.79866 0.59485 0.0
O2330 O 0.72223 0.84353 0.60041 0.0
O2331 O 0.72347 0.82466 0.62934 0.0
C2332 C 0.75382 0.73495 0.68619 0.0
C2333 C 0.72519 0.72176 0.67788 0.0
H2334 H 0.68242 0.71553 0.65433 0.0
H2335 H 0.66438 0.73702 0.6291 0.0
H2336 H 0.78593 0.81833 0.67141 0.0
H2337 H 0.79015 0.77939 0.69293 0.0
H2338 H 0.75926 0.73208 0.70174 0.0
H2339 H 0.71693 0.71198 0.68867 0.0
Mn2340 Mn 0.70741 0.1853 0.42807 0.0
Mn2341 Mn 0.71728 0.21454 0.38566 0.0
C2342 C 0.73399 0.20977 0.4276 0.0
C2343 C 0.69215 0.18065 0.46092 0.0
C2344 C 0.72679 0.16829 0.38909 0.0
O2345 O 0.68052 0.18254 0.4106 0.0
O2346 O 0.68745 0.20674 0.38597 0.0
C2347 C 0.688 0.25068 0.38935 0.0
N2348 N 0.70831 0.24469 0.38816 0.0
C2349 C 0.70985 0.27915 0.36062 0.0
C2350 C 0.68916 0.28171 0.36493 0.0
C2351 C 0.67932 0.26859 0.37951 0.0
C2352 C 0.72159 0.25819 0.38001 0.0
H2353 H 0.67736 0.24093 0.39772 0.0
C2354 C 0.67538 0.19358 0.39477 0.0
O2355 O 0.69874 0.1651 0.45007 0.0
O2356 O 0.6926 0.19857 0.45187 0.0
N2357 N 0.7482 0.21968 0.38292 0.0
C2358 C 0.76273 0.20168 0.37072 0.0
C2359 C 0.77832 0.20539 0.34621 0.0
C2360 C 0.78123 0.23048 0.33205 0.0
C2361 C 0.76854 0.25445 0.34093 0.0
C2362 C 0.74704 0.24397 0.37831 0.0
H2363 H 0.76336 0.18648 0.37743 0.0
O2364 O 0.73447 0.19457 0.44071 0.0
O2365 O 0.71828 0.21032 0.41536 0.0
O2366 O 0.72284 0.16545 0.40817 0.0
O2367 O 0.72381 0.18561 0.38027 0.0
C2368 C 0.75142 0.27423 0.32346 0.0
C2369 C 0.72264 0.28688 0.33194 0.0
H2370 H 0.68009 0.29258 0.35599 0.0
H2371 H 0.66296 0.27119 0.38193 0.0
H2372 H 0.78605 0.19198 0.33988 0.0
H2373 H 0.78872 0.23038 0.3171 0.0
H2374 H 0.75654 0.27693 0.30777 0.0
H2375 H 0.71404 0.29632 0.32112 0.0
Mn2376 Mn 0.82196 0.70728 0.42944 0.0
Mn2377 Mn 0.7985 0.72029 0.38395 0.0
C2378 C 0.8001 0.73576 0.42674 0.0
C2379 C 0.82313 0.69175 0.46246 0.0
C2380 C 0.84385 0.72879 0.39366 0.0
O2381 O 0.82458 0.68024 0.4123 0.0
O2382 O 0.80694 0.69075 0.38386 0.0
C2383 C 0.76268 0.68983 0.38457 0.0
N2384 N 0.76842 0.71025 0.38429 0.0
C2385 C 0.73252 0.71292 0.35879 0.0
C2386 C 0.7305 0.69193 0.3618 0.0
C2387 C 0.74445 0.68145 0.37507 0.0
C2388 C 0.75427 0.72377 0.37787 0.0
H2389 H 0.77267 0.67894 0.39216 0.0
C2390 C 0.81671 0.67701 0.3943 0.0
O2391 O 0.83975 0.69718 0.45267 0.0
O2392 O 0.8059 0.69343 0.45222 0.0
N2393 N 0.79242 0.75089 0.38083 0.0
C2394 C 0.80969 0.76621 0.36838 0.0
C2395 C 0.80447 0.78337 0.34523 0.0
C2396 C 0.77868 0.78682 0.33263 0.0
C2397 C 0.75538 0.77322 0.34187 0.0
C2398 C 0.76796 0.74954 0.37721 0.0
H2399 H 0.82569 0.76472 0.37221 0.0
O2400 O 0.81371 0.7348 0.44145 0.0
O2401 O 0.79949 0.72029 0.41417 0.0
O2402 O 0.84419 0.72152 0.41192 0.0
O2403 O 0.82793 0.72839 0.38201 0.0
C2404 C 0.735 0.75694 0.32427 0.0
C2405 C 0.7232 0.72743 0.33141 0.0
H2406 H 0.71933 0.68326 0.35285 0.0
H2407 H 0.74216 0.66493 0.37667 0.0
H2408 H 0.81754 0.79117 0.33831 0.0
H2409 H 0.77794 0.79511 0.31812 0.0
H2410 H 0.73148 0.76303 0.30909 0.0
H2411 H 0.71347 0.71933 0.32046 0.0
Mn2412 Mn 0.29591 0.81749 0.41852 0.0
Mn2413 Mn 0.291 0.78561 0.37701 0.0
C2414 C 0.26967 0.79307 0.41789 0.0
C2415 C 0.31077 0.82372 0.45115 0.0
C2416 C 0.27636 0.83064 0.37768 0.0
O2417 O 0.32303 0.82207 0.40276 0.0
O2418 O 0.31991 0.79603 0.37988 0.0
C2419 C 0.31761 0.75378 0.37778 0.0
N2420 N 0.29809 0.75774 0.38346 0.0
C2421 C 0.27853 0.74653 0.35297 0.0
C2422 C 0.30287 0.75215 0.34419 0.0
C2423 C 0.32062 0.7533 0.35673 0.0
C2424 C 0.28385 0.74501 0.37402 0.0
H2425 H 0.33039 0.75725 0.38801 0.0
C2426 C 0.3302 0.81063 0.38837 0.0
O2427 O 0.30331 0.83872 0.44002 0.0
O2428 O 0.31071 0.80552 0.44276 0.0
N2429 N 0.26507 0.77406 0.37049 0.0
C2430 C 0.24695 0.78505 0.37175 0.0
C2431 C 0.22815 0.77778 0.36204 0.0
C2432 C 0.22261 0.74986 0.34128 0.0
C2433 C 0.24494 0.73649 0.33977 0.0
C2434 C 0.26949 0.75323 0.35954 0.0
H2435 H 0.24682 0.79956 0.38008 0.0
O2436 O 0.26909 0.80847 0.43069 0.0
O2437 O 0.28597 0.79171 0.4063 0.0
O2438 O 0.28022 0.83456 0.3967 0.0
O2439 O 0.28165 0.81372 0.36875 0.0
C2440 C 0.24356 0.71787 0.32468 0.0
C2441 C 0.2518 0.73062 0.33773 0.0
H2442 H 0.30691 0.7544 0.32804 0.0
H2443 H 0.33591 0.75503 0.35016 0.0
H2444 H 0.21739 0.78986 0.36752 0.0
H2445 H 0.20935 0.74337 0.33282 0.0
H2446 H 0.22704 0.71775 0.31785 0.0
H2447 H 0.25355 0.71082 0.32598 0.0
Mn2448 Mn 0.18315 0.29449 0.42856 0.0
Mn2449 Mn 0.21291 0.28404 0.38691 0.0
C2450 C 0.20846 0.26847 0.42922 0.0
C2451 C 0.17801 0.31077 0.46079 0.0
C2452 C 0.16695 0.273 0.39006 0.0
O2453 O 0.17988 0.32095 0.41041 0.0
O2454 O 0.20398 0.31365 0.3859 0.0
C2455 C 0.24747 0.31496 0.39133 0.0
N2456 N 0.24244 0.29441 0.39011 0.0
C2457 C 0.27715 0.29421 0.36318 0.0
C2458 C 0.27871 0.31507 0.36726 0.0
C2459 C 0.26505 0.32442 0.38164 0.0
C2460 C 0.25666 0.28167 0.38249 0.0
H2461 H 0.23717 0.32512 0.39964 0.0
C2462 C 0.19074 0.32586 0.3944 0.0
O2463 O 0.16266 0.30338 0.45018 0.0
O2464 O 0.19596 0.31037 0.45184 0.0
N2465 N 0.2195 0.25328 0.38546 0.0
C2466 C 0.20235 0.23769 0.37348 0.0
C2467 C 0.20678 0.22214 0.34901 0.0
C2468 C 0.232 0.22033 0.33488 0.0
C2469 C 0.25533 0.23419 0.34374 0.0
C2470 C 0.24368 0.25552 0.38095 0.0
H2471 H 0.18775 0.23548 0.38111 0.0
O2472 O 0.19312 0.26795 0.44214 0.0
O2473 O 0.20848 0.28379 0.41649 0.0
O2474 O 0.16388 0.27797 0.40889 0.0
O2475 O 0.18426 0.27598 0.38116 0.0
C2476 C 0.27464 0.25208 0.32652 0.0
C2477 C 0.28564 0.28152 0.33473 0.0
H2478 H 0.28923 0.32453 0.35833 0.0
H2479 H 0.26688 0.3409 0.38398 0.0
H2480 H 0.19389 0.2134 0.34294 0.0
H2481 H 0.23232 0.21262 0.32004 0.0
H2482 H 0.27779 0.24697 0.31091 0.0
H2483 H 0.29461 0.29054 0.32386 0.0
Mn2484 Mn 0.29545 0.18156 0.57767 0.0
Mn2485 Mn 0.288 0.21109 0.62017 0.0
C2486 C 0.26907 0.20591 0.57883 0.0
C2487 C 0.31126 0.17707 0.54519 0.0
C2488 C 0.27718 0.16524 0.61737 0.0
O2489 O 0.32229 0.17773 0.59454 0.0
O2490 O 0.31769 0.20292 0.61855 0.0
C2491 C 0.31732 0.24685 0.61319 0.0
N2492 N 0.29706 0.24104 0.61572 0.0
C2493 C 0.29646 0.27817 0.63937 0.0
C2494 C 0.31682 0.28052 0.63374 0.0
C2495 C 0.3262 0.26587 0.62041 0.0
C2496 C 0.28398 0.25535 0.62277 0.0
H2497 H 0.32782 0.23623 0.60573 0.0
C2498 C 0.32862 0.18885 0.60974 0.0
O2499 O 0.30394 0.16146 0.55552 0.0
O2500 O 0.31058 0.19491 0.55432 0.0
N2501 N 0.25748 0.21666 0.62494 0.0
C2502 C 0.24383 0.19986 0.63974 0.0
C2503 C 0.22936 0.20601 0.66443 0.0
C2504 C 0.2269 0.23238 0.67607 0.0
C2505 C 0.23893 0.25537 0.66422 0.0
C2506 C 0.25871 0.24131 0.62707 0.0
H2507 H 0.24377 0.18383 0.63542 0.0
O2508 O 0.26848 0.1911 0.56531 0.0
O2509 O 0.2851 0.20639 0.59068 0.0
O2510 O 0.27979 0.16253 0.598 0.0
O2511 O 0.28143 0.18221 0.62645 0.0
C2512 C 0.25674 0.27689 0.67875 0.0
C2513 C 0.28505 0.2886 0.66776 0.0
H2514 H 0.32599 0.29261 0.64074 0.0
H2515 H 0.34241 0.2683 0.61698 0.0
H2516 H 0.22226 0.19325 0.6726 0.0
H2517 H 0.22017 0.23376 0.69132 0.0
H2518 H 0.25236 0.28113 0.69432 0.0
H2519 H 0.29417 0.29898 0.67719 0.0
Mn2520 Mn 0.81929 0.2996 0.5761 0.0
Mn2521 Mn 0.79438 0.28863 0.62112 0.0
C2522 C 0.79674 0.27194 0.57847 0.0
C2523 C 0.82185 0.31598 0.54391 0.0
C2524 C 0.83992 0.27986 0.61295 0.0
O2525 O 0.82283 0.32627 0.59324 0.0
O2526 O 0.80134 0.31869 0.61994 0.0
C2527 C 0.75706 0.31694 0.61899 0.0
N2528 N 0.76377 0.29683 0.61993 0.0
C2529 C 0.72829 0.29342 0.64598 0.0
C2530 C 0.72515 0.3141 0.64204 0.0
C2531 C 0.73846 0.32473 0.62824 0.0
C2532 C 0.75039 0.28284 0.62714 0.0
H2533 H 0.7666 0.32815 0.61117 0.0
C2534 C 0.81306 0.33116 0.60981 0.0
O2535 O 0.83803 0.30932 0.5537 0.0
O2536 O 0.80425 0.31453 0.55355 0.0
N2537 N 0.78998 0.25775 0.62509 0.0
C2538 C 0.80815 0.24389 0.63796 0.0
C2539 C 0.80409 0.22764 0.66197 0.0
C2540 C 0.77866 0.22345 0.67505 0.0
C2541 C 0.75457 0.23534 0.66549 0.0
C2542 C 0.76548 0.25791 0.62888 0.0
H2543 H 0.82399 0.24551 0.63344 0.0
O2544 O 0.81037 0.2726 0.56374 0.0
O2545 O 0.79621 0.28753 0.59094 0.0
O2546 O 0.8403 0.28429 0.59386 0.0
O2547 O 0.82415 0.28253 0.62449 0.0
C2548 C 0.7336 0.25137 0.6826 0.0
C2549 C 0.7201 0.27981 0.67417 0.0
H2550 H 0.71363 0.32257 0.65074 0.0
H2551 H 0.73534 0.34105 0.62604 0.0
H2552 H 0.81762 0.22076 0.66901 0.0
H2553 H 0.77851 0.21579 0.68992 0.0
H2554 H 0.73063 0.24587 0.69811 0.0
H2555 H 0.71006 0.2879 0.68483 0.0
Mn2556 Mn 0.19029 0.70109 0.57564 0.0
Mn2557 Mn 0.2232 0.70658 0.61556 0.0
C2558 C 0.21439 0.72804 0.57474 0.0
C2559 C 0.18407 0.68539 0.5435 0.0
C2560 C 0.17797 0.72078 0.61642 0.0
O2561 O 0.18606 0.67432 0.59256 0.0
O2562 O 0.21402 0.6773 0.61288 0.0
C2563 C 0.25633 0.68141 0.61266 0.0
N2564 N 0.25097 0.7008 0.60779 0.0
C2565 C 0.26256 0.72029 0.63817 0.0
C2566 C 0.25894 0.69545 0.64653 0.0
C2567 C 0.25859 0.67795 0.6335 0.0
C2568 C 0.26339 0.71542 0.61696 0.0
H2569 H 0.25312 0.6687 0.60225 0.0
C2570 C 0.19843 0.66717 0.60621 0.0
O2571 O 0.16898 0.69276 0.55459 0.0
O2572 O 0.20225 0.68577 0.55184 0.0
N2573 N 0.23386 0.73262 0.62177 0.0
C2574 C 0.22216 0.75019 0.62059 0.0
C2575 C 0.22865 0.76909 0.63034 0.0
C2576 C 0.25685 0.77601 0.65032 0.0
C2577 C 0.27132 0.75428 0.65138 0.0
C2578 C 0.25513 0.72903 0.63205 0.0
H2579 H 0.20771 0.74979 0.6122 0.0
O2580 O 0.19871 0.72782 0.56232 0.0
O2581 O 0.21612 0.712 0.58673 0.0
O2582 O 0.17362 0.71724 0.59742 0.0
O2583 O 0.19495 0.71496 0.625 0.0
C2584 C 0.29032 0.75648 0.66588 0.0
C2585 C 0.27759 0.7477 0.65317 0.0
H2586 H 0.25761 0.69098 0.66267 0.0
H2587 H 0.25903 0.66238 0.63941 0.0
H2588 H 0.21584 0.77921 0.62527 0.0
H2589 H 0.26291 0.78961 0.65862 0.0
H2590 H 0.28984 0.77295 0.67281 0.0
H2591 H 0.29782 0.74685 0.66425 0.0
Mn2592 Mn 0.42442 0.29732 0.18466 0.0
Mn2593 Mn 0.38237 0.28609 0.2137 0.0
C2594 C 0.42464 0.26973 0.20778 0.0
C2595 C 0.45702 0.31356 0.18111 0.0
C2596 C 0.38551 0.27774 0.16737 0.0
O2597 O 0.40639 0.32386 0.18256 0.0
O2598 O 0.38207 0.31614 0.20675 0.0
C2599 C 0.38561 0.31436 0.2509 0.0
N2600 N 0.38544 0.29424 0.24412 0.0
C2601 C 0.36145 0.28928 0.28095 0.0
C2602 C 0.36451 0.31012 0.28404 0.0
C2603 C 0.37695 0.32155 0.27003 0.0
C2604 C 0.37939 0.27989 0.25762 0.0
H2605 H 0.3922 0.32607 0.241 0.0
C2606 C 0.39051 0.32854 0.19368 0.0
O2607 O 0.44654 0.30736 0.16512 0.0
O2608 O 0.44768 0.31218 0.19878 0.0
N2609 N 0.38022 0.25511 0.21783 0.0
C2610 C 0.36709 0.24057 0.20041 0.0
C2611 C 0.34443 0.2229 0.20592 0.0
C2612 C 0.33332 0.21787 0.23213 0.0
C2613 C 0.34373 0.23025 0.25561 0.0
C2614 C 0.37805 0.25502 0.24246 0.0
H2615 H 0.37102 0.24203 0.18434 0.0
O2616 O 0.43774 0.27034 0.19262 0.0
O2617 O 0.41208 0.28523 0.20921 0.0
O2618 O 0.4046 0.28192 0.16458 0.0
O2619 O 0.37657 0.28027 0.18469 0.0
C2620 C 0.32708 0.24516 0.27776 0.0
C2621 C 0.33471 0.27399 0.29091 0.0
H2622 H 0.3561 0.31805 0.29614 0.0
H2623 H 0.3784 0.33794 0.27314 0.0
H2624 H 0.33708 0.21549 0.19286 0.0
H2625 H 0.31903 0.20925 0.23323 0.0
H2626 H 0.31215 0.23874 0.2817 0.0
H2627 H 0.3243 0.28139 0.30169 0.0
Mn2628 Mn 0.70504 0.42619 0.187 0.0
Mn2629 Mn 0.71142 0.38454 0.21878 0.0
C2630 C 0.73186 0.42572 0.2111 0.0
C2631 C 0.69127 0.45964 0.18093 0.0
C2632 C 0.72555 0.38561 0.17369 0.0
O2633 O 0.67744 0.4103 0.18327 0.0
O2634 O 0.68264 0.38647 0.20814 0.0
C2635 C 0.68451 0.38454 0.25041 0.0
N2636 N 0.70393 0.39066 0.24659 0.0
C2637 C 0.72407 0.36049 0.25763 0.0
C2638 C 0.69994 0.35125 0.25185 0.0
C2639 C 0.68192 0.36342 0.25076 0.0
C2640 C 0.71828 0.38141 0.25932 0.0
H2641 H 0.67155 0.3946 0.24709 0.0
C2642 C 0.67134 0.39504 0.19438 0.0
O2643 O 0.6978 0.44806 0.16586 0.0
O2644 O 0.69097 0.45104 0.19904 0.0
N2645 N 0.73735 0.37866 0.23045 0.0
C2646 C 0.75546 0.38044 0.21957 0.0
C2647 C 0.77436 0.37076 0.22659 0.0
C2648 C 0.78022 0.34982 0.25436 0.0
C2649 C 0.75787 0.34783 0.26769 0.0
C2650 C 0.733 0.36732 0.25107 0.0
H2651 H 0.75552 0.38923 0.20533 0.0
O2652 O 0.7322 0.43819 0.19546 0.0
O2653 O 0.71561 0.41407 0.21281 0.0
O2654 O 0.72037 0.40426 0.16951 0.0
O2655 O 0.72133 0.37666 0.19086 0.0
C2656 C 0.75948 0.33262 0.2862 0.0
C2657 C 0.75106 0.34564 0.27353 0.0
H2658 H 0.69622 0.33503 0.24951 0.0
H2659 H 0.66674 0.35653 0.24907 0.0
H2660 H 0.78503 0.37648 0.21454 0.0
H2661 H 0.79363 0.34146 0.26077 0.0
H2662 H 0.7761 0.32603 0.28628 0.0
H2663 H 0.74948 0.33377 0.29328 0.0
Mn2664 Mn 0.57715 0.70555 0.18214 0.0
Mn2665 Mn 0.62237 0.71775 0.20599 0.0
C2666 C 0.5793 0.7331 0.20505 0.0
C2667 C 0.54515 0.68869 0.18076 0.0
C2668 C 0.61254 0.72797 0.16093 0.0
O2669 O 0.59458 0.67916 0.17796 0.0
O2670 O 0.62262 0.68821 0.19691 0.0
C2671 C 0.622 0.68668 0.24136 0.0
N2672 N 0.62193 0.70721 0.23595 0.0
C2673 C 0.64656 0.70981 0.27246 0.0
C2674 C 0.64377 0.68878 0.27421 0.0
C2675 C 0.63096 0.67828 0.25985 0.0
C2676 C 0.62773 0.72066 0.25049 0.0
H2677 H 0.61516 0.67567 0.23093 0.0
C2678 C 0.61226 0.6752 0.18604 0.0
O2679 O 0.55423 0.69546 0.1642 0.0
O2680 O 0.55545 0.69023 0.19795 0.0
N2681 N 0.62511 0.74824 0.21266 0.0
C2682 C 0.6376 0.76403 0.19584 0.0
C2683 C 0.66029 0.78154 0.20178 0.0
C2684 C 0.67229 0.78485 0.22787 0.0
C2685 C 0.66286 0.77075 0.25078 0.0
C2686 C 0.62823 0.74661 0.23718 0.0
H2687 H 0.63416 0.76268 0.17972 0.0
O2688 O 0.56445 0.73229 0.19158 0.0
O2689 O 0.59219 0.71783 0.20502 0.0
O2690 O 0.59409 0.72124 0.16054 0.0
O2691 O 0.62442 0.72644 0.17664 0.0
C2692 C 0.68033 0.75446 0.2713 0.0
C2693 C 0.67353 0.72462 0.28249 0.0
H2694 H 0.65256 0.68011 0.28551 0.0
H2695 H 0.62947 0.66173 0.26198 0.0
H2696 H 0.66732 0.78967 0.18896 0.0
H2697 H 0.68659 0.79345 0.22903 0.0
H2698 H 0.69528 0.7608 0.27528 0.0
H2699 H 0.6843 0.71674 0.29255 0.0
Mn2700 Mn 0.29912 0.57931 0.19144 0.0
Mn2701 Mn 0.29354 0.6199 0.22381 0.0
C2702 C 0.27106 0.58014 0.21393 0.0
C2703 C 0.31371 0.54617 0.18692 0.0
C2704 C 0.28139 0.62098 0.17812 0.0
O2705 O 0.32694 0.59461 0.18856 0.0
O2706 O 0.32283 0.61637 0.21524 0.0
C2707 C 0.31805 0.61597 0.25726 0.0
N2708 N 0.29861 0.61181 0.25157 0.0
C2709 C 0.28008 0.64281 0.26299 0.0
C2710 C 0.3052 0.65035 0.25946 0.0
C2711 C 0.32223 0.6367 0.25933 0.0
C2712 C 0.28418 0.62145 0.26377 0.0
H2713 H 0.33041 0.60507 0.25433 0.0
C2714 C 0.33378 0.60844 0.20088 0.0
O2715 O 0.30768 0.55714 0.17115 0.0
O2716 O 0.31255 0.55503 0.20478 0.0
N2717 N 0.26734 0.62719 0.23401 0.0
C2718 C 0.24977 0.62709 0.2221 0.0
C2719 C 0.231 0.63724 0.22888 0.0
C2720 C 0.2249 0.65706 0.25736 0.0
C2721 C 0.2466 0.65713 0.27183 0.0
C2722 C 0.27116 0.63708 0.25546 0.0
H2723 H 0.25004 0.61934 0.20727 0.0
O2724 O 0.27138 0.5675 0.19844 0.0
O2725 O 0.28753 0.59127 0.21648 0.0
O2726 O 0.28487 0.6019 0.17381 0.0
O2727 O 0.28628 0.62931 0.19548 0.0
C2728 C 0.24489 0.67149 0.29099 0.0
C2729 C 0.25323 0.65862 0.27812 0.0
H2730 H 0.3102 0.66633 0.25814 0.0
H2731 H 0.33798 0.64206 0.25976 0.0
H2732 H 0.22063 0.63267 0.2161 0.0
H2733 H 0.21164 0.66579 0.26358 0.0
H2734 H 0.22869 0.67904 0.29057 0.0
H2735 H 0.25443 0.66946 0.29846 0.0
Mn2736 Mn 0.42042 0.70728 0.81915 0.0
Mn2737 Mn 0.37684 0.71478 0.79143 0.0
C2738 C 0.41845 0.73472 0.79539 0.0
C2739 C 0.45298 0.69154 0.82243 0.0
C2740 C 0.3815 0.7242 0.83786 0.0
O2741 O 0.40372 0.68003 0.82303 0.0
O2742 O 0.3805 0.68487 0.79743 0.0
C2743 C 0.38863 0.69209 0.75408 0.0
N2744 N 0.38199 0.71026 0.76204 0.0
C2745 C 0.36484 0.72011 0.72737 0.0
C2746 C 0.37474 0.70085 0.72027 0.0
C2747 C 0.38645 0.68798 0.73313 0.0
C2748 C 0.37572 0.72565 0.74928 0.0
H2749 H 0.39566 0.68052 0.76385 0.0
C2750 C 0.38895 0.67364 0.81138 0.0
O2751 O 0.44283 0.69823 0.8384 0.0
O2752 O 0.44359 0.69269 0.80472 0.0
N2753 N 0.36904 0.74334 0.78531 0.0
C2754 C 0.35243 0.75425 0.80072 0.0
C2755 C 0.33137 0.7705 0.79348 0.0
C2756 C 0.32524 0.77803 0.76801 0.0
C2757 C 0.3402 0.76917 0.74703 0.0
C2758 C 0.36983 0.74568 0.76078 0.0
H2759 H 0.35494 0.75297 0.81673 0.0
O2760 O 0.43248 0.73467 0.80972 0.0
O2761 O 0.40633 0.7189 0.79538 0.0
O2762 O 0.40103 0.72219 0.8392 0.0
O2763 O 0.37132 0.71959 0.82139 0.0
C2764 C 0.3293 0.76423 0.7261 0.0
C2765 C 0.33591 0.74402 0.71394 0.0
H2766 H 0.37313 0.69431 0.70495 0.0
H2767 H 0.39258 0.67363 0.72702 0.0
H2768 H 0.32165 0.77636 0.80576 0.0
H2769 H 0.31116 0.78661 0.76513 0.0
H2770 H 0.31586 0.77297 0.72128 0.0
H2771 H 0.32618 0.743 0.70001 0.0
Mn2772 Mn 0.29579 0.42341 0.8224 0.0
Mn2773 Mn 0.28536 0.3812 0.79326 0.0
C2774 C 0.26844 0.42318 0.79889 0.0
C2775 C 0.3111 0.45659 0.82618 0.0
C2776 C 0.27628 0.38408 0.83951 0.0
O2777 O 0.32293 0.40597 0.82434 0.0
O2778 O 0.31548 0.38137 0.80034 0.0
C2779 C 0.31375 0.3851 0.7562 0.0
N2780 N 0.29364 0.38434 0.76289 0.0
C2781 C 0.28968 0.35934 0.72664 0.0
C2782 C 0.31045 0.36295 0.72363 0.0
C2783 C 0.32135 0.37618 0.73734 0.0
C2784 C 0.27961 0.37763 0.74939 0.0
H2785 H 0.32504 0.39251 0.76596 0.0
C2786 C 0.32794 0.3902 0.81313 0.0
O2787 O 0.30508 0.44585 0.84207 0.0
O2788 O 0.31019 0.44719 0.8085 0.0
N2789 N 0.25439 0.37883 0.78887 0.0
C2790 C 0.23981 0.36589 0.80639 0.0
C2791 C 0.22271 0.34272 0.80123 0.0
C2792 C 0.21826 0.33087 0.77524 0.0
C2793 C 0.23075 0.34096 0.75168 0.0
C2794 C 0.25463 0.37611 0.7643 0.0
H2795 H 0.24052 0.37067 0.82224 0.0
O2796 O 0.26855 0.43617 0.81416 0.0
O2797 O 0.28417 0.41091 0.79769 0.0
O2798 O 0.28047 0.40319 0.84235 0.0
O2799 O 0.2793 0.37515 0.82226 0.0
C2800 C 0.24632 0.32404 0.73019 0.0
C2801 C 0.27515 0.332 0.71719 0.0
H2802 H 0.31872 0.35449 0.71179 0.0
H2803 H 0.33769 0.37817 0.73425 0.0
H2804 H 0.21516 0.33562 0.81436 0.0
H2805 H 0.20994 0.31638 0.77439 0.0
H2806 H 0.24028 0.30886 0.72657 0.0
H2807 H 0.28292 0.32147 0.70678 0.0
Mn2808 Mn 0.57923 0.30117 0.81694 0.0
Mn2809 Mn 0.6215 0.29554 0.78651 0.0
C2810 C 0.57976 0.27587 0.79139 0.0
C2811 C 0.54605 0.31542 0.82248 0.0
C2812 C 0.6182 0.27685 0.82972 0.0
O2813 O 0.59508 0.32828 0.82264 0.0
O2814 O 0.62173 0.32227 0.80113 0.0
C2815 C 0.61651 0.33167 0.75698 0.0
N2816 N 0.61955 0.31104 0.76014 0.0
C2817 C 0.6429 0.31232 0.72555 0.0
C2818 C 0.63768 0.33313 0.72426 0.0
C2819 C 0.62458 0.34227 0.73934 0.0
C2820 C 0.63023 0.30059 0.74619 0.0
H2821 H 0.60811 0.34047 0.76839 0.0
C2822 C 0.6121 0.33357 0.81407 0.0
O2823 O 0.55681 0.30773 0.83763 0.0
O2824 O 0.5553 0.31645 0.80477 0.0
N2825 N 0.62484 0.2691 0.77211 0.0
C2826 C 0.62569 0.24836 0.78183 0.0
C2827 C 0.63937 0.22949 0.77382 0.0
C2828 C 0.66302 0.23406 0.74178 0.0
C2829 C 0.6605 0.25719 0.73256 0.0
C2830 C 0.63465 0.27629 0.75352 0.0
H2831 H 0.61791 0.24609 0.79643 0.0
O2832 O 0.56706 0.27494 0.80682 0.0
O2833 O 0.5915 0.29231 0.79036 0.0
O2834 O 0.60037 0.28401 0.83474 0.0
O2835 O 0.62662 0.28086 0.81241 0.0
C2836 C 0.67091 0.27261 0.71196 0.0
C2837 C 0.66209 0.30008 0.70887 0.0
H2838 H 0.64404 0.34254 0.71197 0.0
H2839 H 0.62131 0.35863 0.73791 0.0
H2840 H 0.63704 0.21612 0.78406 0.0
H2841 H 0.67375 0.22365 0.73381 0.0
H2842 H 0.68297 0.26302 0.70249 0.0
H2843 H 0.66819 0.28608 0.70843 0.0
Mn2844 Mn 0.69921 0.57638 0.81848 0.0
Mn2845 Mn 0.70779 0.62084 0.79219 0.0
C2846 C 0.72506 0.57779 0.79368 0.0
C2847 C 0.68363 0.54415 0.82288 0.0
C2848 C 0.72575 0.6123 0.83474 0.0
O2849 O 0.67266 0.59237 0.82453 0.0
O2850 O 0.68123 0.62167 0.80789 0.0
C2851 C 0.67055 0.62055 0.7635 0.0
N2852 N 0.69145 0.62184 0.76612 0.0
C2853 C 0.69099 0.64611 0.73209 0.0
C2854 C 0.66981 0.64261 0.73134 0.0
C2855 C 0.66013 0.62988 0.74639 0.0
C2856 C 0.70235 0.63191 0.75197 0.0
H2857 H 0.66136 0.6127 0.77499 0.0
C2858 C 0.6689 0.6109 0.81902 0.0
O2859 O 0.69151 0.55419 0.83837 0.0
O2860 O 0.68348 0.55353 0.80512 0.0
N2861 N 0.7339 0.62377 0.777 0.0
C2862 C 0.7548 0.62311 0.78622 0.0
C2863 C 0.77415 0.6364 0.77874 0.0
C2864 C 0.77026 0.66185 0.74799 0.0
C2865 C 0.74695 0.66076 0.73897 0.0
C2866 C 0.72696 0.63477 0.75901 0.0
H2867 H 0.75695 0.61371 0.79966 0.0
O2868 O 0.72521 0.56403 0.80824 0.0
O2869 O 0.70914 0.59032 0.79313 0.0
O2870 O 0.71617 0.59534 0.83805 0.0
O2871 O 0.72388 0.62265 0.81808 0.0
C2872 C 0.73177 0.67283 0.71912 0.0
C2873 C 0.7039 0.66546 0.71612 0.0
H2874 H 0.66054 0.65029 0.71971 0.0
H2875 H 0.64352 0.62802 0.74544 0.0
H2876 H 0.78755 0.63286 0.78858 0.0
H2877 H 0.78105 0.67249 0.7404 0.0
H2878 H 0.74176 0.68485 0.70995 0.0
H2879 H 0.71817 0.67088 0.71572 0.0
Mn2880 Mn 0.18386 0.41941 0.29937 0.0
Mn2881 Mn 0.21456 0.37708 0.29256 0.0
C2882 C 0.20718 0.41818 0.27188 0.0
C2883 C 0.17903 0.45303 0.31329 0.0
C2884 C 0.16882 0.37881 0.28011 0.0
O2885 O 0.18062 0.40383 0.32729 0.0
O2886 O 0.20473 0.37938 0.3216 0.0
C2887 C 0.24682 0.37645 0.31872 0.0
N2888 N 0.24264 0.38269 0.2994 0.0
C2889 C 0.25282 0.35239 0.27901 0.0
C2890 C 0.24731 0.34317 0.30321 0.0
C2891 C 0.24683 0.35531 0.32128 0.0
C2892 C 0.2549 0.37328 0.28478 0.0
H2893 H 0.24403 0.38654 0.33176 0.0
C2894 C 0.19151 0.38834 0.33322 0.0
O2895 O 0.1635 0.44179 0.30723 0.0
O2896 O 0.19695 0.44407 0.31289 0.0
N2897 N 0.22555 0.37086 0.26631 0.0
C2898 C 0.21439 0.37283 0.24836 0.0
C2899 C 0.2213 0.36353 0.2292 0.0
C2900 C 0.24868 0.34227 0.22284 0.0
C2901 C 0.2622 0.33984 0.24499 0.0
C2902 C 0.24617 0.35933 0.27022 0.0
H2903 H 0.19996 0.38132 0.24866 0.0
O2904 O 0.1918 0.43099 0.27183 0.0
O2905 O 0.20906 0.40666 0.28821 0.0
O2906 O 0.16532 0.39774 0.28479 0.0
O2907 O 0.18613 0.36978 0.28367 0.0
C2908 C 0.28045 0.32434 0.24303 0.0
C2909 C 0.26808 0.33746 0.25174 0.0
H2910 H 0.24469 0.32698 0.30689 0.0
H2911 H 0.24535 0.34841 0.33648 0.0
H2912 H 0.20928 0.36959 0.2187 0.0
H2913 H 0.25487 0.334 0.20927 0.0
H2914 H 0.28026 0.31798 0.22632 0.0
H2915 H 0.28759 0.32519 0.25298 0.0
Mn2916 Mn 0.58551 0.18606 0.29733 0.0
Mn2917 Mn 0.62715 0.21778 0.29159 0.0
C2918 C 0.58652 0.20971 0.27015 0.0
C2919 C 0.5521 0.18033 0.31111 0.0
C2920 C 0.62651 0.17254 0.2777 0.0
O2921 O 0.6006 0.18263 0.32532 0.0
O2922 O 0.62465 0.20725 0.32041 0.0
C2923 C 0.62649 0.2495 0.31847 0.0
N2924 N 0.62053 0.24546 0.29904 0.0
C2925 C 0.65037 0.25754 0.27902 0.0
C2926 C 0.65975 0.25204 0.30317 0.0
C2927 C 0.64758 0.25052 0.32114 0.0
C2928 C 0.62939 0.25843 0.28472 0.0
H2929 H 0.61647 0.24601 0.3314 0.0
C2930 C 0.61564 0.19379 0.33172 0.0
O2931 O 0.56355 0.16509 0.3047 0.0
O2932 O 0.56066 0.19844 0.31093 0.0
N2933 N 0.63346 0.22958 0.26568 0.0
C2934 C 0.63233 0.21863 0.24753 0.0
C2935 C 0.64149 0.22633 0.2286 0.0
C2936 C 0.66121 0.25499 0.22288 0.0
C2937 C 0.66263 0.26827 0.24529 0.0
C2938 C 0.64386 0.2507 0.27008 0.0
H2939 H 0.62446 0.20386 0.24742 0.0
O2940 O 0.574 0.1941 0.26985 0.0
O2941 O 0.59779 0.2117 0.28665 0.0
O2942 O 0.60774 0.16844 0.28258 0.0
O2943 O 0.63533 0.1898 0.28197 0.0
C2944 C 0.67702 0.28744 0.24379 0.0
C2945 C 0.66457 0.27417 0.25215 0.0
H2946 H 0.67603 0.25027 0.3069 0.0
H2947 H 0.65447 0.2491 0.33635 0.0
H2948 H 0.63625 0.21412 0.21787 0.0
H2949 H 0.66923 0.26185 0.20949 0.0
H2950 H 0.68358 0.2879 0.22717 0.0
H2951 H 0.67561 0.29438 0.25384 0.0
Mn2952 Mn 0.8183 0.58451 0.29906 0.0
Mn2953 Mn 0.78971 0.62697 0.28847 0.0
C2954 C 0.79516 0.58467 0.27184 0.0
C2955 C 0.82143 0.5525 0.31599 0.0
C2956 C 0.83592 0.62306 0.27954 0.0
O2957 O 0.8213 0.60242 0.32521 0.0
O2958 O 0.79674 0.62671 0.31871 0.0
C2959 C 0.75246 0.62304 0.31646 0.0
N2960 N 0.7592 0.62382 0.29636 0.0
C2961 C 0.72251 0.64804 0.29218 0.0
C2962 C 0.71936 0.64426 0.31289 0.0
C2963 C 0.73331 0.63143 0.32391 0.0
C2964 C 0.74561 0.63018 0.28212 0.0
H2965 H 0.76243 0.61622 0.32799 0.0
C2966 C 0.81029 0.61808 0.33053 0.0
O2967 O 0.83757 0.56241 0.30923 0.0
O2968 O 0.80386 0.56201 0.31445 0.0
N2969 N 0.78551 0.62986 0.25746 0.0
C2970 C 0.80314 0.64332 0.24349 0.0
C2971 C 0.79807 0.66689 0.22689 0.0
C2972 C 0.77206 0.67866 0.22231 0.0
C2973 C 0.74836 0.66807 0.23413 0.0
C2974 C 0.76088 0.63238 0.25734 0.0
H2975 H 0.81903 0.63867 0.24435 0.0
O2976 O 0.80989 0.57107 0.2724 0.0
O2977 O 0.79403 0.59728 0.28729 0.0
O2978 O 0.83831 0.60382 0.28324 0.0
O2979 O 0.81891 0.63247 0.28276 0.0
C2980 C 0.72644 0.68437 0.24974 0.0
C2981 C 0.71309 0.67562 0.27815 0.0
H2982 H 0.70731 0.65248 0.32109 0.0
H2983 H 0.73021 0.62947 0.34025 0.0
H2984 H 0.81127 0.67429 0.21976 0.0
H2985 H 0.77123 0.69335 0.21435 0.0
H2986 H 0.72275 0.69965 0.244 0.0
H2987 H 0.70245 0.68581 0.28601 0.0
Mn2988 Mn 0.4272 0.82091 0.29833 0.0
Mn2989 Mn 0.38206 0.79714 0.28552 0.0
C2990 C 0.42521 0.79827 0.27055 0.0
C2991 C 0.4592 0.8222 0.31526 0.0
C2992 C 0.39178 0.84237 0.27617 0.0
O2993 O 0.40961 0.82461 0.32469 0.0
O2994 O 0.38165 0.80578 0.31505 0.0
C2995 C 0.38179 0.76144 0.31616 0.0
N2996 N 0.38215 0.76706 0.29571 0.0
C2997 C 0.35658 0.73119 0.29255 0.0
C2998 C 0.35911 0.72921 0.31358 0.0
C2999 C 0.37215 0.74318 0.32433 0.0
C3000 C 0.37598 0.75287 0.2821 0.0
H3001 H 0.3889 0.77154 0.32728 0.0
C3002 C 0.39191 0.8164 0.32832 0.0
O3003 O 0.45004 0.83881 0.30872 0.0
O3004 O 0.44896 0.80499 0.31349 0.0
N3005 N 0.37967 0.79092 0.25493 0.0
C3006 C 0.36771 0.80814 0.23918 0.0
C3007 C 0.34507 0.80286 0.22141 0.0
C3008 C 0.33255 0.77706 0.21775 0.0
C3009 C 0.34135 0.75382 0.23173 0.0
C3010 C 0.37601 0.76646 0.25631 0.0
H3011 H 0.37161 0.82414 0.2406 0.0
O3012 O 0.43998 0.81182 0.27151 0.0
O3013 O 0.41225 0.79811 0.28574 0.0
O3014 O 0.41022 0.84276 0.28294 0.0
O3015 O 0.38004 0.82655 0.27731 0.0
C3016 C 0.32322 0.73358 0.24763 0.0
C3017 C 0.32955 0.72186 0.27737 0.0
H3018 H 0.34994 0.71807 0.32207 0.0
H3019 H 0.37335 0.74092 0.34089 0.0
H3020 H 0.33842 0.81589 0.21329 0.0
H3021 H 0.31832 0.77628 0.20899 0.0
H3022 H 0.30821 0.73008 0.24114 0.0
H3023 H 0.31842 0.7121 0.28516 0.0
Mn3024 Mn 0.18374 0.58131 0.70642 0.0
Mn3025 Mn 0.21568 0.62255 0.71131 0.0
C3026 C 0.20697 0.58279 0.73404 0.0
C3027 C 0.17852 0.54792 0.69285 0.0
C3028 C 0.17017 0.62291 0.72438 0.0
O3029 O 0.18079 0.59566 0.67794 0.0
O3030 O 0.20594 0.61909 0.68241 0.0
C3031 C 0.24776 0.62015 0.68522 0.0
N3032 N 0.24337 0.61517 0.7048 0.0
C3033 C 0.25502 0.646 0.72345 0.0
C3034 C 0.24972 0.65422 0.69884 0.0
C3035 C 0.24817 0.64109 0.68156 0.0
C3036 C 0.25605 0.62476 0.71881 0.0
H3037 H 0.2445 0.60946 0.67279 0.0
C3038 C 0.19255 0.61003 0.67115 0.0
O3039 O 0.16304 0.5592 0.69896 0.0
O3040 O 0.19657 0.55654 0.69346 0.0
N3041 N 0.22689 0.62974 0.73715 0.0
C3042 C 0.21568 0.62942 0.75516 0.0
C3043 C 0.22314 0.63939 0.77374 0.0
C3044 C 0.25174 0.65937 0.77898 0.0
C3045 C 0.26531 0.65981 0.75671 0.0
C3046 C 0.24808 0.63992 0.73259 0.0
H3047 H 0.20087 0.62162 0.75537 0.0
O3048 O 0.19133 0.57032 0.73438 0.0
O3049 O 0.20916 0.59362 0.71729 0.0
O3050 O 0.16594 0.60395 0.72041 0.0
O3051 O 0.18757 0.63133 0.71985 0.0
C3052 C 0.28445 0.67426 0.75778 0.0
C3053 C 0.27129 0.66145 0.74982 0.0
H3054 H 0.24781 0.6703 0.69436 0.0
H3055 H 0.24586 0.64706 0.66621 0.0
H3056 H 0.21079 0.63462 0.78453 0.0
H3057 H 0.25842 0.66796 0.7921 0.0
H3058 H 0.28472 0.68152 0.77411 0.0
H3059 H 0.29149 0.67244 0.74786 0.0
Mn3060 Mn 0.42513 0.18708 0.70049 0.0
Mn3061 Mn 0.38146 0.21478 0.70856 0.0
C3062 C 0.42401 0.21186 0.72663 0.0
C3063 C 0.45799 0.18258 0.68573 0.0
C3064 C 0.38809 0.17147 0.72602 0.0
O3065 O 0.40917 0.18171 0.67348 0.0
O3066 O 0.38069 0.19982 0.68178 0.0
C3067 C 0.3836 0.24431 0.67203 0.0
N3068 N 0.38149 0.24115 0.69278 0.0
C3069 C 0.35757 0.27539 0.6924 0.0
C3070 C 0.36197 0.27676 0.67143 0.0
C3071 C 0.37488 0.26184 0.66177 0.0
C3072 C 0.37116 0.25506 0.70366 0.0
H3073 H 0.3918 0.23304 0.6629 0.0
C3074 C 0.39099 0.18833 0.66947 0.0
O3075 O 0.44754 0.16705 0.69303 0.0
O3076 O 0.44859 0.2003 0.68539 0.0
N3077 N 0.37853 0.22945 0.73495 0.0
C3078 C 0.37884 0.2199 0.75575 0.0
C3079 C 0.36564 0.22754 0.77508 0.0
C3080 C 0.34095 0.25892 0.77141 0.0
C3081 C 0.34233 0.26817 0.74819 0.0
C3082 C 0.36794 0.24777 0.72813 0.0
H3083 H 0.38761 0.20586 0.75785 0.0
O3084 O 0.43727 0.19686 0.7269 0.0
O3085 O 0.41182 0.21281 0.71049 0.0
O3086 O 0.40532 0.1677 0.71705 0.0
O3087 O 0.37853 0.18859 0.72384 0.0
C3088 C 0.33083 0.2885 0.73314 0.0
C3089 C 0.33849 0.29167 0.70534 0.0
H3090 H 0.35519 0.28904 0.66235 0.0
H3091 H 0.37749 0.26333 0.6453 0.0
H3092 H 0.36884 0.21743 0.78838 0.0
H3093 H 0.33044 0.26664 0.78223 0.0
H3094 H 0.319 0.29792 0.74315 0.0
H3095 H 0.33295 0.29202 0.71958 0.0
Mn3096 Mn 0.81695 0.42396 0.70282 0.0
Mn3097 Mn 0.78571 0.38212 0.70737 0.0
C3098 C 0.79305 0.42271 0.72963 0.0
C3099 C 0.82186 0.45732 0.68903 0.0
C3100 C 0.83122 0.3828 0.72091 0.0
O3101 O 0.82109 0.40885 0.67506 0.0
O3102 O 0.79542 0.38565 0.67853 0.0
C3103 C 0.75339 0.3819 0.68136 0.0
N3104 N 0.7577 0.38803 0.7007 0.0
C3105 C 0.74687 0.35778 0.72101 0.0
C3106 C 0.75177 0.3485 0.6967 0.0
C3107 C 0.75269 0.36076 0.67874 0.0
C3108 C 0.74536 0.37878 0.71534 0.0
H3109 H 0.75652 0.3919 0.66831 0.0
C3110 C 0.80958 0.39442 0.66796 0.0
O3111 O 0.8374 0.44632 0.69555 0.0
O3112 O 0.80401 0.44828 0.68902 0.0
N3113 N 0.77486 0.37534 0.73335 0.0
C3114 C 0.78625 0.37708 0.75109 0.0
C3115 C 0.77935 0.36805 0.77023 0.0
C3116 C 0.75147 0.34762 0.77717 0.0
C3117 C 0.73756 0.34549 0.75518 0.0
C3118 C 0.75387 0.36444 0.72969 0.0
H3119 H 0.80078 0.38537 0.75067 0.0
O3120 O 0.80849 0.43542 0.7301 0.0
O3121 O 0.79139 0.41139 0.71309 0.0
O3122 O 0.83488 0.40201 0.71768 0.0
O3123 O 0.8141 0.37409 0.71592 0.0
C3124 C 0.71891 0.33055 0.75739 0.0
C3125 C 0.73153 0.3433 0.7485 0.0
H3126 H 0.75379 0.33225 0.69296 0.0
H3127 H 0.75395 0.35391 0.66351 0.0
H3128 H 0.79176 0.3738 0.78047 0.0
H3129 H 0.74527 0.33966 0.79091 0.0
H3130 H 0.71913 0.32422 0.77411 0.0
H3131 H 0.71167 0.33159 0.74751 0.0
Mn3132 Mn 0.57916 0.81397 0.70514 0.0
Mn3133 Mn 0.62301 0.78536 0.70985 0.0
C3134 C 0.58286 0.79033 0.7327 0.0
C3135 C 0.54539 0.81815 0.6917 0.0
C3136 C 0.6193 0.83141 0.72186 0.0
O3137 O 0.5939 0.81837 0.67694 0.0
O3138 O 0.61936 0.79494 0.68104 0.0
C3139 C 0.61399 0.75143 0.68038 0.0
N3140 N 0.61802 0.75641 0.70053 0.0
C3141 C 0.64077 0.72212 0.7008 0.0
C3142 C 0.63535 0.71939 0.68029 0.0
C3143 C 0.62141 0.73314 0.67083 0.0
C3144 C 0.62573 0.74174 0.71302 0.0
H3145 H 0.60563 0.76219 0.67073 0.0
C3146 C 0.6096 0.80827 0.67022 0.0
O3147 O 0.5563 0.83378 0.69799 0.0
O3148 O 0.55455 0.80028 0.69203 0.0
N3149 N 0.63136 0.77675 0.73799 0.0
C3150 C 0.64928 0.79192 0.74851 0.0
C3151 C 0.67381 0.78322 0.76072 0.0
C3152 C 0.68126 0.75614 0.76375 0.0
C3153 C 0.6653 0.73536 0.75375 0.0
C3154 C 0.63126 0.7518 0.73704 0.0
H3155 H 0.64479 0.80731 0.7518 0.0
O3156 O 0.5691 0.80491 0.73317 0.0
O3157 O 0.59355 0.78922 0.71574 0.0
O3158 O 0.59996 0.83375 0.71886 0.0
O3159 O 0.62877 0.8144 0.71795 0.0
C3160 C 0.6759 0.71546 0.73719 0.0
C3161 C 0.66409 0.70947 0.71127 0.0
H3162 H 0.64267 0.70736 0.67125 0.0
H3163 H 0.61768 0.73063 0.6547 0.0
H3164 H 0.68393 0.79489 0.76714 0.0
H3165 H 0.69656 0.7526 0.76949 0.0
H3166 H 0.69153 0.70965 0.74427 0.0
H3167 H 0.67191 0.71089 0.72433 0.0
Mn3168 Mn 0.30243 0.18603 0.42381 0.0
Mn3169 Mn 0.2981 0.21915 0.38383 0.0
C3170 C 0.27578 0.21042 0.42449 0.0
C3171 C 0.31673 0.17897 0.45652 0.0
C3172 C 0.28374 0.17398 0.38241 0.0
O3173 O 0.32975 0.18209 0.4075 0.0
O3174 O 0.32748 0.21031 0.38729 0.0
C3175 C 0.32253 0.25295 0.38566 0.0
N3176 N 0.30342 0.24713 0.39113 0.0
C3177 C 0.28282 0.25868 0.36125 0.0
C3178 C 0.3075 0.25605 0.3522 0.0
C3179 C 0.32527 0.25604 0.36479 0.0
C3180 C 0.28824 0.25923 0.38239 0.0
H3181 H 0.33566 0.24995 0.39561 0.0
C3182 C 0.33742 0.19467 0.39425 0.0
O3183 O 0.30971 0.1642 0.44481 0.0
O3184 O 0.31713 0.19729 0.44842 0.0
N3185 N 0.27192 0.2293 0.37751 0.0
C3186 C 0.2547 0.21723 0.37932 0.0
C3187 C 0.23531 0.22354 0.37074 0.0
C3188 C 0.22683 0.25168 0.35131 0.0
C3189 C 0.24814 0.26664 0.34937 0.0
C3190 C 0.27454 0.25082 0.36746 0.0
H3191 H 0.25569 0.20269 0.38748 0.0
O3192 O 0.27558 0.19445 0.43653 0.0
O3193 O 0.29211 0.21226 0.41281 0.0
O3194 O 0.28649 0.16972 0.40154 0.0
O3195 O 0.29037 0.19078 0.3741 0.0
C3196 C 0.24491 0.28568 0.3351 0.0
C3197 C 0.25451 0.27307 0.34735 0.0
H3198 H 0.31151 0.2551 0.33593 0.0
H3199 H 0.34052 0.25761 0.35842 0.0
H3200 H 0.22573 0.21048 0.37623 0.0
H3201 H 0.2127 0.2575 0.34376 0.0
H3202 H 0.22815 0.28487 0.32891 0.0
H3203 H 0.25444 0.29334 0.33629 0.0
Mn3204 Mn 0.29786 0.82086 0.57221 0.0
Mn3205 Mn 0.28936 0.79089 0.614 0.0
C3206 C 0.27218 0.79546 0.5721 0.0
C3207 C 0.31356 0.82585 0.53983 0.0
C3208 C 0.27802 0.83676 0.61127 0.0
O3209 O 0.32434 0.8248 0.58992 0.0
O3210 O 0.3189 0.79968 0.61392 0.0
C3211 C 0.31983 0.75573 0.60972 0.0
N3212 N 0.29933 0.76111 0.61074 0.0
C3213 C 0.29823 0.72529 0.63642 0.0
C3214 C 0.31895 0.72325 0.63214 0.0
C3215 C 0.32874 0.73741 0.61855 0.0
C3216 C 0.28625 0.7469 0.61795 0.0
H3217 H 0.33048 0.76625 0.60229 0.0
C3218 C 0.33011 0.81379 0.6055 0.0
O3219 O 0.30615 0.84129 0.55035 0.0
O3220 O 0.31355 0.80801 0.54898 0.0
N3221 N 0.25871 0.78483 0.61652 0.0
C3222 C 0.24359 0.80187 0.62938 0.0
C3223 C 0.22776 0.79659 0.65343 0.0
C3224 C 0.22527 0.77078 0.6663 0.0
C3225 C 0.23866 0.74759 0.65644 0.0
C3226 C 0.26047 0.76041 0.61997 0.0
H3227 H 0.24238 0.81724 0.62318 0.0
O3228 O 0.27134 0.81074 0.55911 0.0
O3229 O 0.28786 0.79538 0.58445 0.0
O3230 O 0.28143 0.83991 0.59212 0.0
O3231 O 0.28196 0.81952 0.61987 0.0
C3232 C 0.25603 0.72728 0.6731 0.0
C3233 C 0.28527 0.71587 0.66451 0.0
H3234 H 0.32797 0.71181 0.64032 0.0
H3235 H 0.34518 0.73526 0.61622 0.0
H3236 H 0.21952 0.80946 0.66023 0.0
H3237 H 0.2175 0.76993 0.68108 0.0
H3238 H 0.25075 0.72365 0.68855 0.0
H3239 H 0.294 0.7062 0.67502 0.0
Mn3240 Mn 0.1856 0.29806 0.58292 0.0
Mn3241 Mn 0.2198 0.29419 0.62225 0.0
C3242 C 0.20946 0.27106 0.583 0.0
C3243 C 0.17889 0.31199 0.54979 0.0
C3244 C 0.17472 0.27983 0.6252 0.0
O3245 O 0.18213 0.32591 0.59821 0.0
O3246 O 0.20983 0.3232 0.61896 0.0
C3247 C 0.25222 0.31988 0.61641 0.0
N3248 N 0.24699 0.30019 0.61279 0.0
C3249 C 0.26083 0.28233 0.64319 0.0
C3250 C 0.25704 0.30743 0.65062 0.0
C3251 C 0.25569 0.32431 0.63687 0.0
C3252 C 0.26026 0.28623 0.62179 0.0
H3253 H 0.24815 0.33203 0.60564 0.0
C3254 C 0.19463 0.33344 0.61154 0.0
O3255 O 0.16394 0.3053 0.5615 0.0
O3256 O 0.19713 0.31191 0.55795 0.0
N3257 N 0.23146 0.26854 0.62921 0.0
C3258 C 0.22013 0.25064 0.62989 0.0
C3259 C 0.22792 0.23228 0.63993 0.0
C3260 C 0.25753 0.22717 0.65832 0.0
C3261 C 0.27138 0.24927 0.65738 0.0
C3262 C 0.25327 0.27312 0.63793 0.0
H3263 H 0.20499 0.25032 0.62277 0.0
O3264 O 0.19346 0.27057 0.57102 0.0
O3265 O 0.21162 0.28771 0.59396 0.0
O3266 O 0.16965 0.28316 0.60628 0.0
O3267 O 0.1921 0.28564 0.633 0.0
C3268 C 0.29133 0.24826 0.67068 0.0
C3269 C 0.27755 0.25609 0.65845 0.0
H3270 H 0.25657 0.3126 0.66658 0.0
H3271 H 0.25635 0.34012 0.64203 0.0
H3272 H 0.21518 0.22154 0.63618 0.0
H3273 H 0.26455 0.21418 0.66685 0.0
H3274 H 0.29178 0.23213 0.67841 0.0
H3275 H 0.29841 0.25799 0.66814 0.0
Mn3276 Mn 0.70813 0.18551 0.58357 0.0
Mn3277 Mn 0.71342 0.21767 0.6248 0.0
C3278 C 0.73489 0.20947 0.5843 0.0
C3279 C 0.6939 0.18022 0.55023 0.0
C3280 C 0.72806 0.17261 0.62474 0.0
O3281 O 0.68031 0.18178 0.59871 0.0
O3282 O 0.68462 0.20702 0.62222 0.0
C3283 C 0.68642 0.24927 0.62355 0.0
N3284 N 0.70592 0.24527 0.6178 0.0
C3285 C 0.72559 0.25741 0.64782 0.0
C3286 C 0.70142 0.25161 0.65695 0.0
C3287 C 0.68355 0.25013 0.64462 0.0
C3288 C 0.72007 0.25833 0.62679 0.0
H3289 H 0.67362 0.24581 0.61337 0.0
C3290 C 0.67357 0.19324 0.61334 0.0
O3291 O 0.70064 0.16481 0.5613 0.0
O3292 O 0.69414 0.19813 0.55912 0.0
N3293 N 0.73928 0.22961 0.63096 0.0
C3294 C 0.75756 0.21886 0.62985 0.0
C3295 C 0.77636 0.22673 0.63912 0.0
C3296 C 0.78166 0.25533 0.65902 0.0
C3297 C 0.75912 0.26838 0.66039 0.0
C3298 C 0.73465 0.25068 0.64136 0.0
H3299 H 0.75784 0.20409 0.62198 0.0
O3300 O 0.73541 0.19385 0.57181 0.0
O3301 O 0.71847 0.21121 0.59565 0.0
O3302 O 0.72338 0.16818 0.60594 0.0
O3303 O 0.72319 0.18982 0.63335 0.0
C3304 C 0.76032 0.28743 0.67495 0.0
C3305 C 0.75218 0.27419 0.66234 0.0
H3306 H 0.69769 0.24941 0.67312 0.0
H3307 H 0.6683 0.2485 0.65136 0.0
H3308 H 0.78726 0.21468 0.63387 0.0
H3309 H 0.79491 0.2623 0.66713 0.0
H3310 H 0.7769 0.28802 0.68161 0.0
H3311 H 0.7502 0.29427 0.67355 0.0
Mn3312 Mn 0.81774 0.70718 0.58556 0.0
Mn3313 Mn 0.78727 0.71379 0.62793 0.0
C3314 C 0.79498 0.73504 0.5872 0.0
C3315 C 0.82168 0.69315 0.55194 0.0
C3316 C 0.83277 0.72697 0.62617 0.0
O3317 O 0.82076 0.67901 0.60034 0.0
O3318 O 0.79757 0.68489 0.62549 0.0
C3319 C 0.75539 0.68701 0.62781 0.0
N3320 N 0.75948 0.7064 0.62172 0.0
C3321 C 0.74772 0.72662 0.65151 0.0
C3322 C 0.75321 0.7025 0.66099 0.0
C3323 C 0.75454 0.68445 0.64891 0.0
C3324 C 0.74665 0.72081 0.63058 0.0
H3325 H 0.75865 0.67404 0.61779 0.0
C3326 C 0.81019 0.67308 0.61595 0.0
O3327 O 0.83756 0.69902 0.56281 0.0
O3328 O 0.80396 0.69407 0.56117 0.0
N3329 N 0.77561 0.73976 0.63432 0.0
C3330 C 0.78662 0.75786 0.63304 0.0
C3331 C 0.7791 0.77684 0.6422 0.0
C3332 C 0.7506 0.7828 0.66208 0.0
C3333 C 0.73721 0.76045 0.66368 0.0
C3334 C 0.75455 0.7355 0.6449 0.0
H3335 H 0.8013 0.75789 0.625 0.0
O3336 O 0.81029 0.73494 0.57432 0.0
O3337 O 0.79281 0.71858 0.59849 0.0
O3338 O 0.83648 0.72139 0.60748 0.0
O3339 O 0.81551 0.72343 0.63536 0.0
C3340 C 0.71814 0.7621 0.67816 0.0
C3341 C 0.7313 0.75362 0.66568 0.0
H3342 H 0.75514 0.69886 0.67726 0.0
H3343 H 0.75597 0.66926 0.65586 0.0
H3344 H 0.79133 0.78749 0.63683 0.0
H3345 H 0.74387 0.79628 0.67008 0.0
H3346 H 0.7178 0.77877 0.68463 0.0
H3347 H 0.71115 0.75207 0.67684 0.0
Mn3348 Mn 0.70628 0.81726 0.42522 0.0
Mn3349 Mn 0.71389 0.78653 0.38323 0.0
C3350 C 0.73451 0.79489 0.42416 0.0
C3351 C 0.69192 0.82216 0.45849 0.0
C3352 C 0.72529 0.83218 0.38454 0.0
O3353 O 0.67826 0.81963 0.40967 0.0
O3354 O 0.68458 0.79529 0.38572 0.0
C3355 C 0.68891 0.75345 0.38426 0.0
N3356 N 0.70822 0.7584 0.38969 0.0
C3357 C 0.72786 0.74874 0.35881 0.0
C3358 C 0.70322 0.75352 0.3504 0.0
C3359 C 0.68564 0.75362 0.36328 0.0
C3360 C 0.72284 0.74656 0.37988 0.0
H3361 H 0.67618 0.75586 0.39485 0.0
C3362 C 0.67253 0.80815 0.39457 0.0
O3363 O 0.69773 0.83771 0.44715 0.0
O3364 O 0.69293 0.8041 0.44986 0.0
N3365 N 0.74032 0.77641 0.37679 0.0
C3366 C 0.75796 0.7881 0.37823 0.0
C3367 C 0.77703 0.78173 0.36839 0.0
C3368 C 0.78358 0.75441 0.34707 0.0
C3369 C 0.76175 0.74027 0.34529 0.0
C3370 C 0.73664 0.75567 0.36541 0.0
H3371 H 0.75748 0.80247 0.38677 0.0
O3372 O 0.734 0.81021 0.43702 0.0
O3373 O 0.71826 0.79248 0.41266 0.0
O3374 O 0.72063 0.8356 0.40346 0.0
O3375 O 0.72181 0.81509 0.37517 0.0
C3376 C 0.76376 0.72204 0.32977 0.0
C3377 C 0.75509 0.73419 0.34311 0.0
H3378 H 0.69897 0.75609 0.33436 0.0
H3379 H 0.67027 0.75529 0.35723 0.0
H3380 H 0.78735 0.79408 0.37409 0.0
H3381 H 0.79708 0.74857 0.33845 0.0
H3382 H 0.78026 0.72267 0.32292 0.0
H3383 H 0.75403 0.71462 0.33093 0.0
Mn3384 Mn 0.18392 0.70416 0.42327 0.0
Mn3385 Mn 0.20872 0.71578 0.3783 0.0
C3386 C 0.20706 0.7313 0.42149 0.0
C3387 C 0.18144 0.68694 0.45506 0.0
C3388 C 0.16347 0.72567 0.38727 0.0
O3389 O 0.1794 0.67819 0.40534 0.0
O3390 O 0.20096 0.68579 0.37869 0.0
C3391 C 0.24545 0.68661 0.3793 0.0
N3392 N 0.23922 0.70691 0.37912 0.0
C3393 C 0.27519 0.71053 0.35377 0.0
C3394 C 0.27786 0.68966 0.35699 0.0
C3395 C 0.26405 0.67878 0.37008 0.0
C3396 C 0.25306 0.72091 0.37268 0.0
H3397 H 0.23551 0.67527 0.3864 0.0
C3398 C 0.18884 0.67344 0.38853 0.0
O3399 O 0.16527 0.69424 0.44571 0.0
O3400 O 0.19888 0.68815 0.44513 0.0
N3401 N 0.21386 0.74662 0.37504 0.0
C3402 C 0.19607 0.76114 0.36235 0.0
C3403 C 0.20067 0.778 0.33887 0.0
C3404 C 0.22631 0.78213 0.32619 0.0
C3405 C 0.25009 0.76958 0.33566 0.0
C3406 C 0.23841 0.74615 0.3715 0.0
H3407 H 0.18015 0.75955 0.36648 0.0
O3408 O 0.19362 0.73047 0.43637 0.0
O3409 O 0.20713 0.71611 0.40853 0.0
O3410 O 0.16317 0.72063 0.40623 0.0
O3411 O 0.17901 0.72276 0.37543 0.0
C3412 C 0.27095 0.75368 0.3183 0.0
C3413 C 0.28388 0.72477 0.32604 0.0
H3414 H 0.28934 0.68129 0.34816 0.0
H3415 H 0.26676 0.66232 0.37163 0.0
H3416 H 0.18733 0.78528 0.33187 0.0
H3417 H 0.22675 0.79022 0.31155 0.0
H3418 H 0.27418 0.75957 0.30298 0.0
H3419 H 0.29385 0.7168 0.31524 0.0
Mn3420 Mn 0.81678 0.3025 0.42254 0.0
Mn3421 Mn 0.78534 0.29715 0.38111 0.0
C3422 C 0.79329 0.27528 0.42184 0.0
C3423 C 0.82152 0.31727 0.45535 0.0
C3424 C 0.83094 0.28381 0.38169 0.0
O3425 O 0.82069 0.33005 0.40711 0.0
O3426 O 0.79515 0.32611 0.38394 0.0
C3427 C 0.75307 0.32329 0.38105 0.0
N3428 N 0.75751 0.30406 0.38747 0.0
C3429 C 0.74567 0.28317 0.35807 0.0
C3430 C 0.7503 0.30727 0.3481 0.0
C3431 C 0.75167 0.32548 0.35992 0.0
C3432 C 0.74489 0.28926 0.37896 0.0
H3433 H 0.75655 0.33654 0.39066 0.0
C3434 C 0.80921 0.3369 0.39259 0.0
O3435 O 0.83716 0.31058 0.44459 0.0
O3436 O 0.80363 0.31663 0.44644 0.0
N3437 N 0.77427 0.27108 0.37483 0.0
C3438 C 0.78572 0.25332 0.37638 0.0
C3439 C 0.77847 0.23402 0.36792 0.0
C3440 C 0.74979 0.22682 0.34873 0.0
C3441 C 0.73582 0.2488 0.34681 0.0
C3442 C 0.75289 0.27459 0.36465 0.0
H3443 H 0.80051 0.25381 0.38419 0.0
O3444 O 0.80875 0.27527 0.43452 0.0
O3445 O 0.79132 0.29167 0.41033 0.0
O3446 O 0.83476 0.28751 0.40077 0.0
O3447 O 0.81367 0.2884 0.37301 0.0
C3448 C 0.71657 0.24636 0.33269 0.0
C3449 C 0.72972 0.25545 0.34474 0.0
H3450 H 0.75171 0.31069 0.33171 0.0
H3451 H 0.7527 0.34057 0.35271 0.0
H3452 H 0.79108 0.22383 0.37333 0.0
H3453 H 0.74326 0.21297 0.34124 0.0
H3454 H 0.7165 0.22953 0.32665 0.0
H3455 H 0.70938 0.25627 0.33385 0.0
C3456 C 0.11876 0.24243 0.37221 0.0
C3457 C 0.12743 0.23176 0.35515 0.0
H3458 H 0.12485 0.263 0.39807 0.0
C3459 C 0.14856 0.23419 0.35147 0.0
H3460 H 0.10252 0.24072 0.3759 0.0
C3461 C 0.15894 0.25067 0.36008 0.0
C3462 C 0.1517 0.26028 0.37811 0.0
H3463 H 0.15635 0.22577 0.33925 0.0
H3464 H 0.17347 0.25491 0.353 0.0
C3465 C 0.13129 0.25573 0.38444 0.0
C3466 C 0.74337 0.1586 0.35611 0.0
C3467 C 0.73775 0.15253 0.37619 0.0
H3468 H 0.76221 0.15412 0.33015 0.0
C3469 C 0.74477 0.13311 0.38338 0.0
H3470 H 0.73809 0.173 0.34936 0.0
C3471 C 0.75706 0.12032 0.37045 0.0
C3472 C 0.76352 0.12748 0.35083 0.0
H3473 H 0.74074 0.12785 0.39876 0.0
H3474 H 0.7616 0.1051 0.37579 0.0
C3475 C 0.75732 0.14737 0.34469 0.0
C3476 C 0.87601 0.73124 0.3726 0.0
C3477 C 0.86181 0.74054 0.38605 0.0
H3478 H 0.89875 0.73613 0.34894 0.0
C3479 C 0.86203 0.76215 0.38843 0.0
H3480 H 0.87616 0.7146 0.37059 0.0
C3481 C 0.87378 0.77448 0.37505 0.0
C3482 C 0.88641 0.76519 0.36011 0.0
H3483 H 0.8513 0.76959 0.39895 0.0
H3484 H 0.87185 0.79113 0.37536 0.0
C3485 C 0.88876 0.74356 0.36016 0.0
C3486 C 0.24013 0.85077 0.3363 0.0
C3487 C 0.23511 0.87079 0.34331 0.0
H3488 H 0.25712 0.82299 0.34107 0.0
C3489 C 0.24413 0.87776 0.36188 0.0
H3490 H 0.23377 0.84472 0.32203 0.0
C3491 C 0.25778 0.86498 0.37306 0.0
C3492 C 0.26297 0.84511 0.36571 0.0
H3493 H 0.24082 0.89314 0.36767 0.0
H3494 H 0.26434 0.87069 0.38737 0.0
C3495 C 0.25387 0.83826 0.34719 0.0
C3496 C 0.14312 0.73693 0.62497 0.0
C3497 C 0.16456 0.73525 0.62837 0.0
H3498 H 0.11452 0.75093 0.63475 0.0
C3499 C 0.17382 0.74888 0.64254 0.0
H3500 H 0.13551 0.7269 0.61392 0.0
C3501 C 0.16226 0.76382 0.65285 0.0
C3502 C 0.14061 0.76426 0.65116 0.0
H3503 H 0.19015 0.74808 0.64584 0.0
H3504 H 0.17026 0.77405 0.66345 0.0
C3505 C 0.13116 0.75099 0.63662 0.0
C3506 C 0.2674 0.15233 0.652 0.0
C3507 C 0.26651 0.14962 0.63045 0.0
H3508 H 0.25387 0.1464 0.68114 0.0
C3509 C 0.25253 0.135 0.62235 0.0
H3510 H 0.27804 0.16326 0.65895 0.0
C3511 C 0.23902 0.12417 0.63566 0.0
C3512 C 0.23886 0.12848 0.65703 0.0
H3513 H 0.25135 0.13265 0.60581 0.0
H3514 H 0.2282 0.11315 0.62919 0.0
C3515 C 0.25336 0.14257 0.66489 0.0
C3516 C 0.86107 0.24787 0.61494 0.0
C3517 C 0.85717 0.26814 0.62191 0.0
H3518 H 0.87342 0.21792 0.6228 0.0
C3519 C 0.86617 0.27498 0.64036 0.0
H3520 H 0.85394 0.24225 0.60085 0.0
C3521 C 0.87779 0.26137 0.65237 0.0
C3522 C 0.87954 0.24048 0.6467 0.0
H3523 H 0.86322 0.29048 0.64604 0.0
H3524 H 0.88409 0.26677 0.66695 0.0
C3525 C 0.87191 0.23392 0.62752 0.0
C3526 C 0.75349 0.86538 0.66482 0.0
C3527 C 0.76735 0.87959 0.65593 0.0
H3528 H 0.7285 0.84457 0.66102 0.0
C3529 C 0.76548 0.88363 0.63454 0.0
H3530 H 0.75445 0.86118 0.68092 0.0
C3531 C 0.75103 0.8725 0.62234 0.0
C3532 C 0.73768 0.85786 0.63155 0.0
H3533 H 0.77582 0.89452 0.62713 0.0
H3534 H 0.75106 0.87458 0.60572 0.0
C3535 C 0.73844 0.85554 0.65314 0.0
C3536 C 0.3682 0.12276 0.24923 0.0
C3537 C 0.3527 0.13202 0.23696 0.0
H3538 H 0.39188 0.12747 0.27237 0.0
C3539 C 0.35023 0.1536 0.23807 0.0
H3540 H 0.37045 0.10616 0.24888 0.0
C3541 C 0.36114 0.16526 0.25237 0.0
C3542 C 0.37622 0.15624 0.26514 0.0
H3543 H 0.33865 0.16149 0.22885 0.0
H3544 H 0.35742 0.18151 0.25343 0.0
C3545 C 0.38018 0.13488 0.26295 0.0
C3546 C 0.87576 0.35468 0.26093 0.0
C3547 C 0.87735 0.36005 0.23995 0.0
H3548 H 0.86172 0.36163 0.29015 0.0
C3549 C 0.8702 0.37944 0.23337 0.0
H3550 H 0.88175 0.34001 0.26641 0.0
C3551 C 0.85985 0.39246 0.24736 0.0
C3552 C 0.85592 0.38575 0.26772 0.0
H3553 H 0.87155 0.38397 0.2173 0.0
H3554 H 0.85298 0.40665 0.24167 0.0
C3555 C 0.86463 0.36714 0.27459 0.0
C3556 C 0.63584 0.87754 0.24985 0.0
C3557 C 0.65092 0.86934 0.23642 0.0
H3558 H 0.61391 0.87112 0.27419 0.0
C3559 C 0.65454 0.84786 0.23685 0.0
H3560 H 0.63279 0.89401 0.2501 0.0
C3561 C 0.64521 0.83534 0.25157 0.0
C3562 C 0.63055 0.84335 0.26539 0.0
H3563 H 0.66589 0.84078 0.22675 0.0
H3564 H 0.64969 0.81925 0.25204 0.0
C3565 C 0.6254 0.86452 0.26395 0.0
C3566 C 0.12187 0.63542 0.24162 0.0
C3567 C 0.12341 0.65686 0.24538 0.0
H3568 H 0.13323 0.605 0.24959 0.0
C3569 C 0.13509 0.66355 0.26241 0.0
H3570 H 0.11298 0.62977 0.22859 0.0
C3571 C 0.14589 0.64958 0.27463 0.0
C3572 C 0.14596 0.62838 0.26994 0.0
H3573 H 0.13671 0.67978 0.26595 0.0
H3574 H 0.15542 0.65562 0.28704 0.0
C3575 C 0.13325 0.62124 0.25375 0.0
C3576 C 0.3657 0.87682 0.75885 0.0
C3577 C 0.34821 0.86827 0.76886 0.0
H3578 H 0.39078 0.87191 0.73716 0.0
C3579 C 0.3433 0.84752 0.76458 0.0
H3580 H 0.36993 0.8928 0.76154 0.0
C3581 C 0.3547 0.83597 0.75046 0.0
C3582 C 0.37197 0.84432 0.74004 0.0
H3583 H 0.3301 0.8401 0.77177 0.0
H3584 H 0.34965 0.82024 0.74772 0.0
C3585 C 0.37757 0.86491 0.7447 0.0
C3586 C 0.16314 0.36059 0.75463 0.0
C3587 C 0.15517 0.37468 0.74018 0.0
H3588 H 0.15741 0.34018 0.77964 0.0
C3589 C 0.13385 0.37923 0.74077 0.0
H3590 H 0.17936 0.35659 0.75483 0.0
C3591 C 0.12067 0.3687 0.75464 0.0
C3592 C 0.12884 0.3541 0.76862 0.0
H3593 H 0.12727 0.39029 0.73003 0.0
H3594 H 0.10414 0.37124 0.75375 0.0
C3595 C 0.1504 0.35114 0.76907 0.0
C3596 C 0.65213 0.15335 0.73371 0.0
C3597 C 0.63105 0.14959 0.73111 0.0
H3598 H 0.67693 0.15169 0.75453 0.0
C3599 C 0.62239 0.13234 0.74149 0.0
H3600 H 0.65992 0.16569 0.72544 0.0
C3601 C 0.6349 0.11998 0.75467 0.0
C3602 C 0.65522 0.12639 0.75943 0.0
H3603 H 0.60618 0.12859 0.73963 0.0
H3604 H 0.6285 0.10619 0.7617 0.0
C3605 C 0.66242 0.14463 0.75016 0.0
C3606 C 0.85785 0.66189 0.75369 0.0
C3607 C 0.87588 0.65442 0.76324 0.0
H3608 H 0.83631 0.65915 0.72945 0.0
C3609 C 0.88199 0.63395 0.75872 0.0
H3610 H 0.85119 0.67671 0.75766 0.0
C3611 C 0.86961 0.62152 0.7455 0.0
C3612 C 0.85248 0.63026 0.73501 0.0
H3613 H 0.89564 0.62741 0.76589 0.0
H3614 H 0.87324 0.60527 0.74373 0.0
C3615 C 0.84879 0.6514 0.73754 0.0
C3616 C 0.26063 0.36087 0.1165 0.0
C3617 C 0.23905 0.36047 0.11912 0.0
H3618 H 0.28966 0.36989 0.13001 0.0
C3619 C 0.22982 0.37416 0.13311 0.0
H3620 H 0.26799 0.35057 0.1055 0.0
C3621 C 0.2422 0.38632 0.146 0.0
C3622 C 0.26375 0.38364 0.14606 0.0
H3623 H 0.2132 0.37424 0.13522 0.0
H3624 H 0.23483 0.39596 0.15757 0.0
C3625 C 0.27302 0.37184 0.13045 0.0
C3626 C 0.24897 0.66523 0.86344 0.0
C3627 C 0.23624 0.65645 0.87867 0.0
H3628 H 0.27239 0.66091 0.84087 0.0
C3629 C 0.23849 0.63517 0.88304 0.0
H3630 H 0.24798 0.6815 0.85969 0.0
C3631 C 0.25225 0.62281 0.87137 0.0
C3632 C 0.26446 0.63172 0.85566 0.0
H3633 H 0.22911 0.62798 0.89491 0.0
H3634 H 0.25268 0.60628 0.87405 0.0
C3635 C 0.2632 0.65328 0.85264 0.0
C3636 C 0.35179 0.26782 0.85018 0.0
C3637 C 0.37285 0.27053 0.85402 0.0
H3638 H 0.32707 0.24697 0.85153 0.0
C3639 C 0.38154 0.25988 0.87111 0.0
H3640 H 0.34405 0.27603 0.83778 0.0
C3641 C 0.3691 0.24634 0.88321 0.0
C3642 C 0.34881 0.24155 0.87671 0.0
H3643 H 0.39774 0.26178 0.8749 0.0
H3644 H 0.37554 0.23908 0.89686 0.0
C3645 C 0.34157 0.25121 0.85866 0.0
C3646 C 0.74581 0.35582 0.84591 0.0
C3647 C 0.73914 0.37551 0.85208 0.0
H3648 H 0.76618 0.33113 0.85001 0.0
C3649 C 0.74542 0.3828 0.87171 0.0
H3650 H 0.74095 0.34883 0.83148 0.0
C3651 C 0.75793 0.3702 0.88464 0.0
C3652 C 0.76554 0.3511 0.87724 0.0
H3653 H 0.74047 0.39787 0.8771 0.0
H3654 H 0.76163 0.37534 0.90014 0.0
C3655 C 0.76039 0.34521 0.857 0.0
C3656 C 0.64211 0.72512 0.86868 0.0
C3657 C 0.62313 0.73254 0.86132 0.0
H3658 H 0.67059 0.73212 0.88357 0.0
C3659 C 0.61747 0.75312 0.86584 0.0
H3660 H 0.64689 0.70938 0.86541 0.0
C3661 C 0.63152 0.76651 0.8758 0.0
C3662 C 0.65128 0.75939 0.88143 0.0
H3663 H 0.60307 0.75937 0.86 0.0
H3664 H 0.62754 0.78268 0.87766 0.0
C3665 C 0.65589 0.73832 0.87875 0.0
C3666 C 0.75946 0.64221 0.12617 0.0
C3667 C 0.7669 0.66142 0.13337 0.0
H3668 H 0.74052 0.61547 0.13245 0.0
C3669 C 0.76021 0.66827 0.15295 0.0
H3670 H 0.76405 0.63648 0.11112 0.0
C3671 C 0.74648 0.6566 0.1648 0.0
C3672 C 0.73896 0.6374 0.15777 0.0
H3673 H 0.76527 0.68299 0.15916 0.0
H3674 H 0.74198 0.66271 0.17974 0.0
C3675 C 0.74578 0.63025 0.13832 0.0
C3676 C 0.36753 0.75412 0.12566 0.0
C3677 C 0.35274 0.76762 0.13429 0.0
H3678 H 0.38956 0.72966 0.1315 0.0
C3679 C 0.34982 0.76733 0.15583 0.0
H3680 H 0.37005 0.7538 0.1091 0.0
C3681 C 0.35934 0.75254 0.16804 0.0
C3682 C 0.37371 0.7386 0.15966 0.0
H3683 H 0.33873 0.77751 0.16322 0.0
H3684 H 0.35514 0.75205 0.18418 0.0
C3685 C 0.37832 0.74 0.13839 0.0
C3686 C 0.66388 0.25648 0.13715 0.0
C3687 C 0.65527 0.24169 0.12372 0.0
H3688 H 0.65921 0.28083 0.15862 0.0
C3689 C 0.63358 0.24155 0.12123 0.0
H3690 H 0.68027 0.25713 0.14003 0.0
C3691 C 0.62096 0.25495 0.13314 0.0
C3692 C 0.62996 0.26904 0.1472 0.0
H3693 H 0.62637 0.23038 0.11104 0.0
H3694 H 0.60431 0.25345 0.13223 0.0
C3695 C 0.6516 0.27021 0.14811 0.0
C3696 C 0.88206 0.75655 0.64173 0.0
C3697 C 0.87474 0.76879 0.65826 0.0
H3698 H 0.87474 0.73366 0.61855 0.0
C3699 C 0.85375 0.76686 0.66383 0.0
H3700 H 0.89814 0.75737 0.63712 0.0
C3701 C 0.84069 0.75298 0.65373 0.0
C3702 C 0.84785 0.74063 0.6373 0.0
H3703 H 0.84729 0.77583 0.67642 0.0
H3704 H 0.82474 0.7522 0.6588 0.0
C3705 C 0.8687 0.74278 0.63123 0.0
C3706 C 0.24673 0.85529 0.65613 0.0
C3707 C 0.2398 0.87508 0.65057 0.0
H3708 H 0.26724 0.8308 0.65098 0.0
C3709 C 0.24594 0.88304 0.63115 0.0
H3710 H 0.24207 0.84791 0.67043 0.0
C3711 C 0.25866 0.87107 0.61783 0.0
C3712 C 0.26653 0.85181 0.62455 0.0
H3713 H 0.24084 0.89822 0.62625 0.0
H3714 H 0.26239 0.87686 0.60257 0.0
C3715 C 0.2613 0.84508 0.64453 0.0
C3716 C 0.1304 0.24462 0.6429 0.0
C3717 C 0.1377 0.23741 0.66215 0.0
H3718 H 0.13603 0.26372 0.61625 0.0
C3719 C 0.1569 0.2449 0.66923 0.0
H3720 H 0.11561 0.23944 0.63697 0.0
C3721 C 0.16837 0.2591 0.65758 0.0
C3722 C 0.16118 0.2663 0.6383 0.0
H3723 H 0.16307 0.24006 0.68404 0.0
H3724 H 0.18313 0.26419 0.66368 0.0
C3725 C 0.14203 0.25877 0.63109 0.0
C3726 C 0.76331 0.12729 0.64029 0.0
C3727 C 0.77188 0.13458 0.65899 0.0
H3728 H 0.74273 0.13333 0.61476 0.0
C3729 C 0.76526 0.15398 0.66636 0.0
H3730 H 0.7678 0.11234 0.63422 0.0
C3731 C 0.75062 0.16566 0.65558 0.0
C3732 C 0.74211 0.1586 0.6368 0.0
H3733 H 0.77112 0.16018 0.68078 0.0
H3734 H 0.74626 0.18052 0.66199 0.0
C3735 C 0.74874 0.13924 0.62924 0.0
C3736 C 0.85386 0.25648 0.33554 0.0
C3737 C 0.87021 0.2447 0.34393 0.0
H3738 H 0.82965 0.27812 0.34027 0.0
C3739 C 0.87484 0.24727 0.36506 0.0
H3740 H 0.84962 0.2553 0.31939 0.0
C3741 C 0.86276 0.26066 0.37749 0.0
C3742 C 0.84603 0.27184 0.36891 0.0
H3743 H 0.88733 0.23859 0.37207 0.0
H3744 H 0.8661 0.26173 0.39387 0.0
C3745 C 0.8422 0.26981 0.34766 0.0
C3746 C 0.77267 0.85993 0.36457 0.0
C3747 C 0.76459 0.87053 0.34746 0.0
H3748 H 0.76612 0.83989 0.3903 0.0
C3749 C 0.74309 0.87024 0.34407 0.0
H3750 H 0.78916 0.85996 0.36753 0.0
C3751 C 0.73003 0.85846 0.35669 0.0
C3752 C 0.73815 0.84739 0.37343 0.0
H3753 H 0.73629 0.8788 0.33144 0.0
H3754 H 0.71368 0.85765 0.35312 0.0
C3755 C 0.75949 0.84856 0.37757 0.0
C3756 C 0.14427 0.75893 0.38619 0.0
C3757 C 0.1466 0.73847 0.37902 0.0
H3758 H 0.13392 0.78974 0.37875 0.0
C3759 C 0.13643 0.73235 0.36093 0.0
H3760 H 0.1523 0.76399 0.4 0.0
C3761 C 0.12526 0.74678 0.34941 0.0
C3762 C 0.12525 0.76776 0.35511 0.0
H3763 H 0.13813 0.71672 0.35509 0.0
H3764 H 0.11811 0.7419 0.33505 0.0
C3765 C 0.13403 0.77367 0.374 0.0
C3766 C 0.24696 0.15716 0.33962 0.0
C3767 C 0.239 0.13819 0.34691 0.0
H3768 H 0.26734 0.18266 0.34443 0.0
C3769 C 0.24658 0.13061 0.36591 0.0
H3770 H 0.24188 0.16358 0.325 0.0
C3771 C 0.26148 0.1418 0.37728 0.0
C3772 C 0.26948 0.16069 0.36978 0.0
H3773 H 0.24107 0.11599 0.37197 0.0
H3774 H 0.26666 0.13569 0.39199 0.0
C3775 C 0.26196 0.16809 0.35073 0.0
C3776 C 0.65922 0.85079 0.75753 0.0
C3777 C 0.65359 0.87096 0.76289 0.0
H3778 H 0.65961 0.82957 0.73272 0.0
C3779 C 0.63494 0.87878 0.7545 0.0
H3780 H 0.67241 0.84317 0.76451 0.0
C3781 C 0.62297 0.86627 0.74095 0.0
C3782 C 0.63126 0.84746 0.73341 0.0
H3783 H 0.62956 0.89412 0.75856 0.0
H3784 H 0.60783 0.87145 0.73605 0.0
C3785 C 0.65112 0.84209 0.73986 0.0
C3786 C 0.16166 0.65562 0.74298 0.0
C3787 C 0.15563 0.63556 0.7372 0.0
H3788 H 0.15592 0.68227 0.76101 0.0
C3789 C 0.13712 0.62755 0.74563 0.0
H3790 H 0.17575 0.66251 0.73708 0.0
C3791 C 0.12518 0.63935 0.75967 0.0
C3792 C 0.13173 0.65922 0.76577 0.0
H3793 H 0.13206 0.61207 0.74171 0.0
H3794 H 0.11106 0.63284 0.7659 0.0
C3795 C 0.15014 0.66705 0.75705 0.0
C3796 C 0.35565 0.15114 0.77026 0.0
C3797 C 0.35657 0.12957 0.76794 0.0
H3798 H 0.36339 0.18059 0.7585 0.0
C3799 C 0.37007 0.12139 0.75286 0.0
H3800 H 0.34552 0.1581 0.78167 0.0
C3801 C 0.38134 0.13476 0.73963 0.0
C3802 C 0.37882 0.15642 0.74099 0.0
H3803 H 0.3709 0.10483 0.75043 0.0
H3804 H 0.39102 0.12818 0.72764 0.0
C3805 C 0.3661 0.16421 0.75681 0.0
C3806 C 0.87467 0.36592 0.75781 0.0
C3807 C 0.87026 0.34467 0.75998 0.0
H3808 H 0.86588 0.39487 0.74369 0.0
C3809 C 0.85423 0.33627 0.74781 0.0
H3810 H 0.88694 0.37293 0.7668 0.0
C3811 C 0.84261 0.34853 0.7345 0.0
C3812 C 0.84624 0.36988 0.73286 0.0
H3813 H 0.85026 0.32002 0.74865 0.0
H3814 H 0.83027 0.34117 0.72588 0.0
C3815 C 0.86269 0.37844 0.74444 0.0
C3816 C 0.64109 0.12559 0.24446 0.0
C3817 C 0.65956 0.13245 0.23514 0.0
H3818 H 0.61608 0.13269 0.26528 0.0
C3819 C 0.66711 0.15216 0.2406 0.0
H3820 H 0.63491 0.11044 0.24085 0.0
C3821 C 0.65673 0.16455 0.25485 0.0
C3822 C 0.63818 0.15792 0.2641 0.0
H3823 H 0.68138 0.15808 0.23411 0.0
H3824 H 0.66323 0.17961 0.25832 0.0
C3825 C 0.63041 0.13827 0.25864 0.0
C3826 C 0.85864 0.66895 0.2529 0.0
C3827 C 0.87293 0.66031 0.23905 0.0
H3828 H 0.83806 0.6646 0.27797 0.0
C3829 C 0.87741 0.63901 0.24071 0.0
H3830 H 0.85452 0.68511 0.2522 0.0
C3831 C 0.86657 0.62653 0.25502 0.0
C3832 C 0.85186 0.63543 0.26843 0.0
H3833 H 0.88858 0.63192 0.23045 0.0
H3834 H 0.86897 0.60995 0.25491 0.0
C3835 C 0.84908 0.657 0.26788 0.0
C3836 C 0.37308 0.87267 0.2307 0.0
C3837 C 0.35739 0.88438 0.23997 0.0
H3838 H 0.39774 0.85099 0.2356 0.0
C3839 C 0.35678 0.88608 0.26162 0.0
H3840 H 0.37394 0.87134 0.21402 0.0
C3841 C 0.36946 0.87356 0.27389 0.0
C3842 C 0.38378 0.86025 0.26459 0.0
H3843 H 0.3451 0.89555 0.26904 0.0
H3844 H 0.36708 0.87322 0.29048 0.0
C3845 C 0.38663 0.86109 0.24304 0.0
C3846 C 0.15597 0.3452 0.26641 0.0
C3847 C 0.15302 0.36659 0.26845 0.0
H3848 H 0.14721 0.31724 0.252 0.0
C3849 C 0.13643 0.37582 0.25757 0.0
H3850 H 0.16835 0.33735 0.27453 0.0
C3851 C 0.12367 0.36387 0.24437 0.0
C3852 C 0.12746 0.34257 0.2417 0.0
H3853 H 0.13377 0.39232 0.25868 0.0
H3854 H 0.11139 0.37138 0.23581 0.0
C3855 C 0.14361 0.33353 0.25328 0.0
C3856 C 0.77451 0.63592 0.85618 0.0
C3857 C 0.76745 0.64478 0.87459 0.0
H3858 H 0.76745 0.61707 0.83031 0.0
C3859 C 0.7474 0.63993 0.88164 0.0
H3860 H 0.78988 0.63935 0.85046 0.0
C3861 C 0.734 0.62793 0.86941 0.0
C3862 C 0.74066 0.62035 0.8502 0.0
H3863 H 0.74151 0.64687 0.89572 0.0
H3864 H 0.71812 0.62578 0.87429 0.0
C3865 C 0.76139 0.62352 0.84437 0.0
C3866 C 0.76925 0.35111 0.15598 0.0
C3867 C 0.76747 0.35152 0.13436 0.0
H3868 H 0.75608 0.35921 0.18477 0.0
C3869 C 0.75282 0.36501 0.1254 0.0
H3870 H 0.78049 0.34121 0.1635 0.0
C3871 C 0.73939 0.37673 0.13797 0.0
C3872 C 0.73991 0.37447 0.1596 0.0
H3873 H 0.75107 0.3658 0.10876 0.0
H3874 H 0.72803 0.38673 0.13079 0.0
C3875 C 0.75514 0.36161 0.16831 0.0
C3876 C 0.62972 0.77475 0.13146 0.0
C3877 C 0.64476 0.76609 0.1185 0.0
H3878 H 0.6064 0.76885 0.15433 0.0
C3879 C 0.64563 0.74448 0.1162 0.0
H3880 H 0.6288 0.79137 0.13346 0.0
C3881 C 0.63381 0.73164 0.12902 0.0
C3882 C 0.62013 0.74034 0.14337 0.0
H3883 H 0.65709 0.73752 0.10614 0.0
H3884 H 0.6364 0.71508 0.12872 0.0
C3885 C 0.61703 0.76188 0.1434 0.0
C3886 C 0.26201 0.65357 0.17024 0.0
C3887 C 0.26861 0.63384 0.16378 0.0
H3888 H 0.24365 0.68019 0.1642 0.0
C3889 C 0.26106 0.62618 0.14481 0.0
H3890 H 0.26719 0.66011 0.18477 0.0
C3891 C 0.24726 0.63797 0.13273 0.0
C3892 C 0.24046 0.65754 0.13954 0.0
H3893 H 0.26562 0.61099 0.13939 0.0
H3894 H 0.24186 0.63173 0.11816 0.0
C3895 C 0.24814 0.66511 0.15845 0.0
C3896 C 0.33809 0.25415 0.14411 0.0
C3897 C 0.34593 0.23984 0.12981 0.0
H3898 H 0.34403 0.27848 0.16525 0.0
C3899 C 0.36733 0.24016 0.12551 0.0
H3900 H 0.32184 0.25461 0.14792 0.0
C3901 C 0.38065 0.25359 0.13652 0.0
C3902 C 0.37256 0.26736 0.15137 0.0
H3903 H 0.37383 0.22949 0.11436 0.0
H3904 H 0.39719 0.25249 0.13417 0.0
C3905 C 0.35099 0.26804 0.15412 0.0
C3906 C 0.26363 0.34985 0.85161 0.0
C3907 C 0.26471 0.37134 0.85507 0.0
H3908 H 0.24757 0.3217 0.85645 0.0
C3909 C 0.25137 0.37994 0.87005 0.0
H3910 H 0.27359 0.34242 0.84035 0.0
C3911 C 0.23678 0.36734 0.88049 0.0
C3912 C 0.2347 0.34617 0.87544 0.0
H3913 H 0.25155 0.39643 0.873 0.0
H3914 H 0.22661 0.37428 0.89184 0.0
C3915 C 0.24847 0.33778 0.86092 0.0
C3916 C 0.65913 0.23792 0.8459 0.0
C3917 C 0.65503 0.23427 0.8669 0.0
H3918 H 0.6514 0.25382 0.81839 0.0
C3919 C 0.63773 0.24425 0.87584 0.0
H3920 H 0.67213 0.23061 0.83824 0.0
C3921 C 0.62528 0.25793 0.86405 0.0
C3922 C 0.63004 0.26202 0.84317 0.0
H3923 H 0.63415 0.24195 0.89203 0.0
H3924 H 0.61232 0.2656 0.87138 0.0
C3925 C 0.64705 0.2515 0.83439 0.0
C3926 C 0.36768 0.75813 0.88485 0.0
C3927 C 0.3476 0.7642 0.87878 0.0
H3928 H 0.39536 0.74151 0.87573 0.0
C3929 C 0.33982 0.75595 0.86024 0.0
H3930 H 0.37448 0.76423 0.89888 0.0
C3931 C 0.34915 0.73925 0.85095 0.0
C3932 C 0.36995 0.73513 0.85461 0.0
H3933 H 0.32522 0.76088 0.85373 0.0
H3934 H 0.34073 0.73155 0.8387 0.0
C3935 C 0.37931 0.74456 0.87205 0.0
C3936 C 0.07801 0.24067 0.25784 0.0
C3937 C 0.07776 0.24809 0.27827 0.0
H3938 H 0.07926 0.24842 0.22551 0.0
C3939 C 0.07537 0.26931 0.28178 0.0
H3940 H 0.07803 0.22422 0.25478 0.0
C3941 C 0.07467 0.28301 0.26507 0.0
C3942 C 0.07712 0.27574 0.24469 0.0
H3943 H 0.07428 0.27529 0.29739 0.0
H3944 H 0.07313 0.29942 0.26814 0.0
C3945 C 0.07831 0.25442 0.24112 0.0
C3946 C 0.73264 0.07395 0.28199 0.0
C3947 C 0.75377 0.07486 0.27745 0.0
H3948 H 0.70188 0.0746 0.26975 0.0
C3949 C 0.76036 0.07572 0.25678 0.0
H3950 H 0.72733 0.07307 0.29786 0.0
C3951 C 0.74592 0.0769 0.24079 0.0
C3952 C 0.72478 0.07708 0.24537 0.0
H3953 H 0.77669 0.07573 0.25304 0.0
H3954 H 0.75124 0.07736 0.22493 0.0
C3955 C 0.71821 0.07499 0.266 0.0
C3956 C 0.92761 0.72067 0.2691 0.0
C3957 C 0.92435 0.72728 0.24865 0.0
H3958 H 0.93021 0.72982 0.30095 0.0
C3959 C 0.92302 0.74843 0.24426 0.0
H3960 H 0.92914 0.70436 0.27267 0.0
C3961 C 0.92364 0.7628 0.26025 0.0
C3962 C 0.92569 0.75615 0.28078 0.0
H3963 H 0.9218 0.75386 0.22848 0.0
H3964 H 0.92248 0.77912 0.25659 0.0
C3965 C 0.92823 0.73509 0.28516 0.0
C3966 C 0.2442 0.92567 0.25731 0.0
C3967 C 0.24893 0.92598 0.2784 0.0
H3968 H 0.25615 0.92553 0.22648 0.0
C3969 C 0.26961 0.92771 0.28487 0.0
H3970 H 0.22832 0.9256 0.25207 0.0
C3971 C 0.2855 0.92798 0.27029 0.0
C3972 C 0.28071 0.92657 0.24925 0.0
H3973 H 0.27344 0.92842 0.30116 0.0
H3974 H 0.30144 0.92881 0.27541 0.0
C3975 C 0.26004 0.9259 0.24278 0.0
C3976 C 0.08507 0.74686 0.76219 0.0
C3977 C 0.08406 0.72544 0.75928 0.0
H3978 H 0.08614 0.77648 0.74746 0.0
C3979 C 0.08359 0.71733 0.7391 0.0
H3980 H 0.08452 0.75344 0.77759 0.0
C3981 C 0.0859 0.73036 0.72205 0.0
C3982 C 0.08797 0.75169 0.72501 0.0
H3983 H 0.08222 0.70081 0.73657 0.0
H3984 H 0.08618 0.72381 0.70663 0.0
C3985 C 0.08639 0.75992 0.74505 0.0
C3986 C 0.26095 0.07968 0.7615 0.0
C3987 C 0.28163 0.0783 0.75507 0.0
H3988 H 0.22918 0.08109 0.75226 0.0
C3989 C 0.28616 0.07597 0.734 0.0
H3990 H 0.25713 0.08062 0.77778 0.0
C3991 C 0.27016 0.07618 0.71944 0.0
C3992 C 0.24956 0.07893 0.72583 0.0
H3993 H 0.30202 0.07453 0.72881 0.0
H3994 H 0.2739 0.07476 0.70317 0.0
C3995 C 0.24502 0.0801 0.74697 0.0
C3996 C 0.91984 0.25719 0.75973 0.0
C3997 C 0.92093 0.2785 0.75607 0.0
H3998 H 0.92035 0.22699 0.7462 0.0
C3999 C 0.92339 0.28585 0.73575 0.0
H4000 H 0.9188 0.25121 0.77535 0.0
C4001 C 0.92304 0.27212 0.71913 0.0
C4002 C 0.92087 0.2509 0.72273 0.0
H4003 H 0.92478 0.30228 0.73271 0.0
H4004 H 0.92435 0.27806 0.7035 0.0
C4005 C 0.92032 0.24345 0.74312 0.0
C4006 C 0.72709 0.92731 0.72907 0.0
C4007 C 0.72993 0.92409 0.75029 0.0
H4008 H 0.74159 0.93105 0.69952 0.0
C4009 C 0.75015 0.92403 0.75831 0.0
H4010 H 0.71166 0.92832 0.72261 0.0
C4011 C 0.76731 0.92458 0.74508 0.0
C4012 C 0.76443 0.92652 0.72369 0.0
H4013 H 0.75269 0.92347 0.77483 0.0
H4014 H 0.78275 0.92367 0.75153 0.0
C4015 C 0.7442 0.92892 0.71593 0.0
C4016 C 0.26915 0.08286 0.28682 0.0
C4017 C 0.24832 0.08472 0.28094 0.0
H4018 H 0.30066 0.08088 0.2765 0.0
C4019 C 0.24295 0.08413 0.25999 0.0
H4020 H 0.27347 0.08278 0.30301 0.0
C4021 C 0.25835 0.08277 0.245 0.0
C4022 C 0.27922 0.08214 0.25084 0.0
H4023 H 0.22691 0.08437 0.25523 0.0
H4024 H 0.25397 0.08238 0.22883 0.0
C4025 C 0.28459 0.08165 0.2718 0.0
C4026 C 0.91764 0.2625 0.24155 0.0
C4027 C 0.91851 0.28288 0.24907 0.0
H4028 H 0.91618 0.23018 0.24915 0.0
C4029 C 0.92149 0.28628 0.27022 0.0
H4030 H 0.91703 0.25953 0.2251 0.0
C4031 C 0.92224 0.2695 0.28383 0.0
C4032 C 0.91938 0.2492 0.27648 0.0
H4033 H 0.92304 0.30185 0.27622 0.0
H4034 H 0.92423 0.27243 0.30021 0.0
C4035 C 0.91753 0.24576 0.2552 0.0
C4036 C 0.73385 0.92189 0.28494 0.0
C4037 C 0.75452 0.9198 0.27862 0.0
H4038 H 0.70215 0.92391 0.27529 0.0
C4039 C 0.75945 0.91996 0.25756 0.0
H4040 H 0.72989 0.92229 0.30122 0.0
C4041 C 0.74375 0.92131 0.2429 0.0
C4042 C 0.72302 0.92218 0.24919 0.0
H4043 H 0.77539 0.91941 0.25247 0.0
H4044 H 0.74777 0.92149 0.22664 0.0
C4045 C 0.7181 0.92297 0.27025 0.0
C4046 C 0.08307 0.74975 0.24366 0.0
C4047 C 0.08031 0.72876 0.2482 0.0
H4048 H 0.08518 0.78041 0.2559 0.0
C4049 C 0.07759 0.72244 0.26881 0.0
H4050 H 0.08433 0.75501 0.22779 0.0
C4051 C 0.07942 0.73676 0.28485 0.0
C4052 C 0.08331 0.75759 0.28034 0.0
H4053 H 0.07492 0.70631 0.27253 0.0
H4054 H 0.07789 0.73159 0.30072 0.0
C4055 C 0.08401 0.76414 0.25967 0.0
C4056 C 0.24395 0.92334 0.74616 0.0
C4057 C 0.25025 0.92522 0.72546 0.0
H4058 H 0.25343 0.92015 0.77777 0.0
C4059 C 0.27134 0.92662 0.72079 0.0
H4060 H 0.22768 0.92295 0.7501 0.0
C4061 C 0.28601 0.92499 0.73659 0.0
C4062 C 0.27972 0.92178 0.75716 0.0
H4063 H 0.27646 0.92829 0.70492 0.0
H4064 H 0.30229 0.92575 0.7327 0.0
C4065 C 0.2586 0.92152 0.76191 0.0
C4066 C 0.08078 0.27053 0.71898 0.0
C4067 C 0.08172 0.24986 0.72565 0.0
H4068 H 0.0789 0.30241 0.72813 0.0
C4069 C 0.07959 0.24521 0.74666 0.0
H4070 H 0.08185 0.27429 0.70268 0.0
C4071 C 0.07764 0.26112 0.76102 0.0
C4072 C 0.07789 0.2818 0.75447 0.0
H4073 H 0.07906 0.22932 0.75193 0.0
H4074 H 0.07608 0.2573 0.77726 0.0
C4075 C 0.07895 0.28649 0.73337 0.0
C4076 C 0.72545 0.07373 0.73102 0.0
C4077 C 0.72938 0.07474 0.75227 0.0
H4078 H 0.73839 0.07502 0.70055 0.0
C4079 C 0.74988 0.07626 0.75933 0.0
H4080 H 0.70975 0.07238 0.7253 0.0
C4081 C 0.76619 0.07813 0.74526 0.0
C4082 C 0.76215 0.0783 0.72399 0.0
H4083 H 0.75323 0.07637 0.77574 0.0
H4084 H 0.78188 0.07923 0.75098 0.0
C4085 C 0.74176 0.07543 0.71696 0.0
C4086 C 0.93201 0.7211 0.73467 0.0
C4087 C 0.93036 0.72608 0.75565 0.0
H4088 H 0.93237 0.73263 0.70364 0.0
C4089 C 0.92938 0.74692 0.76174 0.0
H4090 H 0.93297 0.70511 0.72974 0.0
C4091 C 0.9287 0.76261 0.74689 0.0
C4092 C 0.92918 0.75757 0.72585 0.0
H4093 H 0.92877 0.75102 0.77797 0.0
H4094 H 0.92802 0.77859 0.75183 0.0
C4095 C 0.93147 0.73678 0.71985 0.0
C4096 C 0.26882 0.28607 0.07582 0.0
C4097 C 0.24786 0.2815 0.07877 0.0
H4098 H 0.29962 0.27386 0.07438 0.0
C4099 C 0.24145 0.26093 0.0811 0.0
H4100 H 0.27389 0.30189 0.07362 0.0
C4101 C 0.25598 0.24508 0.08158 0.0
C4102 C 0.27704 0.24967 0.07976 0.0
H4103 H 0.2252 0.25713 0.08259 0.0
H4104 H 0.25074 0.22925 0.08306 0.0
C4105 C 0.28339 0.27015 0.07627 0.0
C4106 C 0.23904 0.74612 0.93028 0.0
C4107 C 0.24411 0.72507 0.93096 0.0
H4108 H 0.25046 0.77728 0.93075 0.0
C4109 C 0.26485 0.71919 0.93394 0.0
H4110 H 0.22308 0.75101 0.92903 0.0
C4111 C 0.28045 0.73411 0.9349 0.0
C4112 C 0.27547 0.75511 0.93306 0.0
H4113 H 0.26903 0.70299 0.93499 0.0
H4114 H 0.29641 0.72922 0.93635 0.0
C4115 C 0.25463 0.76107 0.93146 0.0
C4116 C 0.26219 0.28298 0.92938 0.0
C4117 C 0.24183 0.27649 0.9253 0.0
H4118 H 0.29395 0.27394 0.93297 0.0
C4119 C 0.2375 0.25531 0.92392 0.0
H4120 H 0.26577 0.29928 0.93099 0.0
C4121 C 0.25353 0.24087 0.9255 0.0
C4122 C 0.27407 0.24747 0.92816 0.0
H4123 H 0.22179 0.24993 0.9218 0.0
H4124 H 0.24995 0.22456 0.92422 0.0
C4125 C 0.27824 0.26856 0.93071 0.0
C4126 C 0.71738 0.26549 0.9253 0.0
C4127 C 0.72356 0.24494 0.92169 0.0
H4128 H 0.72715 0.29693 0.92985 0.0
C4129 C 0.74462 0.23993 0.92199 0.0
H4130 H 0.70113 0.26956 0.92565 0.0
C4131 C 0.75937 0.25545 0.92478 0.0
C4132 C 0.75323 0.27615 0.92708 0.0
H4133 H 0.74965 0.22405 0.92031 0.0
H4134 H 0.77561 0.25133 0.92481 0.0
C4135 C 0.73215 0.28105 0.9279 0.0
C4136 C 0.74614 0.75993 0.91619 0.0
C4137 C 0.72504 0.75624 0.91918 0.0
H4138 H 0.77641 0.74672 0.91517 0.0
C4139 C 0.71814 0.73601 0.92326 0.0
H4140 H 0.75188 0.77552 0.91395 0.0
C4141 C 0.73199 0.71942 0.92249 0.0
C4142 C 0.75295 0.72305 0.91839 0.0
H4143 H 0.70192 0.73297 0.92618 0.0
H4144 H 0.72635 0.70382 0.92492 0.0
C4145 C 0.76006 0.74347 0.91644 0.0
C4146 C 0.75814 0.74808 0.07873 0.0
C4147 C 0.75337 0.72699 0.07872 0.0
H4148 H 0.74633 0.77896 0.07861 0.0
C4149 C 0.73269 0.72056 0.07705 0.0
H4150 H 0.77404 0.75329 0.07863 0.0
C4151 C 0.71683 0.73521 0.07666 0.0
C4152 C 0.72168 0.75628 0.07789 0.0
H4153 H 0.72882 0.70426 0.07654 0.0
H4154 H 0.70088 0.73015 0.07587 0.0
C4155 C 0.74237 0.76267 0.07844 0.0
C4156 C 0.27025 0.71821 0.08345 0.0
C4157 C 0.24939 0.72398 0.08532 0.0
H4158 H 0.30169 0.72868 0.08156 0.0
C4159 C 0.24391 0.74491 0.08489 0.0
H4160 H 0.27465 0.70203 0.08325 0.0
C4161 C 0.25924 0.75999 0.08365 0.0
C4162 C 0.28013 0.75423 0.08298 0.0
H4163 H 0.22784 0.74958 0.08516 0.0
H4164 H 0.2548 0.77615 0.08336 0.0
C4165 C 0.2856 0.7333 0.08236 0.0
C4166 C 0.7173 0.26493 0.07627 0.0
C4167 C 0.72407 0.24432 0.07786 0.0
H4168 H 0.72565 0.297 0.07835 0.0
C4169 C 0.74523 0.2402 0.08004 0.0
H4170 H 0.70107 0.26842 0.07401 0.0
C4171 C 0.75927 0.25655 0.08173 0.0
C4172 C 0.75223 0.27708 0.08242 0.0
H4173 H 0.75086 0.22441 0.08037 0.0
H4174 H 0.77563 0.25313 0.08241 0.0
C4175 C 0.73125 0.28121 0.07891 0.0
C4176 C 0.5844 0.7536 0.74502 0.0
C4177 C 0.58376 0.77483 0.74953 0.0
H4178 H 0.58351 0.72262 0.75701 0.0
C4179 C 0.5811 0.78108 0.77018 0.0
H4180 H 0.5852 0.74835 0.72915 0.0
C4181 C 0.57957 0.76639 0.78605 0.0
C4182 C 0.58103 0.74517 0.78161 0.0
H4183 H 0.57994 0.79735 0.77402 0.0
H4184 H 0.57746 0.7716 0.80183 0.0
C4185 C 0.58325 0.7389 0.76093 0.0
C4186 C 0.21584 0.58043 0.77139 0.0
C4187 C 0.2223 0.58215 0.75071 0.0
H4188 H 0.22527 0.57889 0.80323 0.0
C4189 C 0.24342 0.58169 0.74601 0.0
H4190 H 0.19954 0.58025 0.77524 0.0
C4191 C 0.25797 0.58063 0.76187 0.0
C4192 C 0.25156 0.58019 0.78259 0.0
H4193 H 0.24866 0.58185 0.73012 0.0
H4194 H 0.27426 0.58034 0.75796 0.0
C4195 C 0.23044 0.57954 0.78731 0.0
C4196 C 0.4223 0.24816 0.74014 0.0
C4197 C 0.42404 0.22688 0.74382 0.0
H4198 H 0.42223 0.27848 0.75352 0.0
C4199 C 0.42708 0.21986 0.76423 0.0
H4200 H 0.42093 0.25402 0.7245 0.0
C4201 C 0.42636 0.23371 0.78085 0.0
C4202 C 0.42341 0.25487 0.77724 0.0
H4203 H 0.42908 0.20352 0.76739 0.0
H4204 H 0.42783 0.22788 0.79649 0.0
C4205 C 0.42265 0.26206 0.75673 0.0
C4206 C 0.76943 0.4279 0.78251 0.0
C4207 C 0.74834 0.42663 0.77784 0.0
H4208 H 0.8003 0.42708 0.77052 0.0
C4209 C 0.7419 0.42499 0.75718 0.0
H4210 H 0.7746 0.42937 0.79838 0.0
C4211 C 0.75647 0.42336 0.74137 0.0
C4212 C 0.77758 0.42353 0.74611 0.0
H4213 H 0.7256 0.42467 0.75332 0.0
H4214 H 0.75126 0.42226 0.72551 0.0
C4215 C 0.784 0.42641 0.76668 0.0
C4216 C 0.58268 0.21912 0.23313 0.0
C4217 C 0.58536 0.22529 0.25379 0.0
H4218 H 0.57963 0.229 0.20155 0.0
C4219 C 0.58517 0.24633 0.25884 0.0
H4220 H 0.58229 0.20286 0.22906 0.0
C4221 C 0.58334 0.26111 0.24327 0.0
C4222 C 0.58188 0.25498 0.22252 0.0
H4223 H 0.58609 0.25133 0.27479 0.0
H4224 H 0.58325 0.27734 0.24742 0.0
C4225 C 0.58103 0.23393 0.21751 0.0
C4226 C 0.75844 0.58454 0.26156 0.0
C4227 C 0.77934 0.58411 0.25586 0.0
H4228 H 0.72707 0.58515 0.25104 0.0
C4229 C 0.7849 0.58305 0.23498 0.0
H4230 H 0.75396 0.58455 0.27771 0.0
C4231 C 0.76959 0.58345 0.21983 0.0
C4232 C 0.74871 0.58506 0.22552 0.0
H4233 H 0.80102 0.58238 0.23043 0.0
H4234 H 0.77404 0.58292 0.20368 0.0
C4235 C 0.74316 0.58508 0.24643 0.0
C4236 C 0.42327 0.74499 0.24792 0.0
C4237 C 0.42467 0.7492 0.22674 0.0
H4238 H 0.4225 0.75759 0.27848 0.0
C4239 C 0.42776 0.76963 0.21997 0.0
H4240 H 0.42214 0.72924 0.25348 0.0
C4241 C 0.42815 0.78583 0.23425 0.0
C4242 C 0.42556 0.78162 0.25533 0.0
H4243 H 0.42932 0.77306 0.20364 0.0
H4244 H 0.42998 0.80159 0.22884 0.0
C4245 C 0.42369 0.76112 0.26214 0.0
C4246 C 0.23197 0.42411 0.2195 0.0
C4247 C 0.25289 0.42207 0.22466 0.0
H4248 H 0.20078 0.42403 0.23081 0.0
C4249 C 0.25877 0.41971 0.24539 0.0
H4250 H 0.22727 0.42623 0.20356 0.0
C4251 C 0.24382 0.41835 0.26079 0.0
C4252 C 0.22284 0.4193 0.25561 0.0
H4253 H 0.27496 0.41883 0.24966 0.0
H4254 H 0.24867 0.41689 0.27674 0.0
C4255 C 0.21696 0.42277 0.23498 0.0
C4256 C 0.73865 0.58035 0.75755 0.0
C4257 C 0.74226 0.57803 0.77877 0.0
H4258 H 0.75215 0.58107 0.72732 0.0
C4259 C 0.7626 0.57464 0.7858 0.0
H4260 H 0.72304 0.58197 0.75168 0.0
C4261 C 0.77927 0.57566 0.77207 0.0
C4262 C 0.77574 0.57923 0.75101 0.0
H4263 H 0.76567 0.57216 0.80209 0.0
H4264 H 0.79487 0.57392 0.77792 0.0
C4265 C 0.75529 0.58027 0.74373 0.0
C4266 C 0.42237 0.78412 0.76464 0.0
C4267 C 0.42039 0.7767 0.74425 0.0
H4268 H 0.42226 0.77657 0.797 0.0
C4269 C 0.41939 0.75536 0.74077 0.0
H4270 H 0.42378 0.80056 0.76762 0.0
C4271 C 0.41951 0.74172 0.75756 0.0
C4272 C 0.41939 0.74925 0.77795 0.0
H4273 H 0.4188 0.74928 0.72518 0.0
H4274 H 0.41959 0.72525 0.7546 0.0
C4275 C 0.42151 0.77051 0.7814 0.0
C4276 C 0.2592 0.42374 0.76168 0.0
C4277 C 0.25288 0.42436 0.78243 0.0
H4278 H 0.24977 0.42321 0.72993 0.0
C4279 C 0.23181 0.42624 0.78714 0.0
H4280 H 0.27547 0.4232 0.75773 0.0
C4281 C 0.21715 0.42633 0.77124 0.0
C4282 C 0.22344 0.42433 0.75053 0.0
H4283 H 0.22669 0.42711 0.80307 0.0
H4284 H 0.20089 0.42738 0.77512 0.0
C4285 C 0.24457 0.42361 0.74583 0.0
C4286 C 0.5809 0.26273 0.75506 0.0
C4287 C 0.57989 0.25885 0.77633 0.0
H4288 H 0.58061 0.24951 0.7247 0.0
C4289 C 0.5778 0.23833 0.78335 0.0
H4290 H 0.58158 0.27845 0.74927 0.0
C4291 C 0.5786 0.22182 0.76942 0.0
C4292 C 0.58077 0.22568 0.74824 0.0
H4293 H 0.57642 0.23503 0.79973 0.0
H4294 H 0.57777 0.20611 0.77519 0.0
C4295 C 0.58072 0.24622 0.7411 0.0
C4296 C 0.78423 0.43125 0.2358 0.0
C4297 C 0.77912 0.42937 0.25674 0.0
H4298 H 0.77287 0.43119 0.20465 0.0
C4299 C 0.75837 0.42739 0.26272 0.0
H4300 H 0.80018 0.43313 0.23102 0.0
C4301 C 0.74291 0.42614 0.2478 0.0
C4302 C 0.74806 0.42692 0.2268 0.0
H4303 H 0.75416 0.42673 0.27892 0.0
H4304 H 0.72695 0.42487 0.25267 0.0
C4305 C 0.76871 0.43009 0.22085 0.0
C4306 C 0.58053 0.75521 0.25857 0.0
C4307 C 0.57943 0.77645 0.25455 0.0
H4308 H 0.58132 0.72475 0.24568 0.0
C4309 C 0.57684 0.78345 0.23414 0.0
H4310 H 0.5812 0.74949 0.27427 0.0
C4311 C 0.57667 0.76933 0.21779 0.0
C4312 C 0.57899 0.74817 0.22183 0.0
H4313 H 0.57549 0.79983 0.23084 0.0
H4314 H 0.57517 0.77491 0.20206 0.0
C4315 C 0.58038 0.74114 0.24229 0.0
C4316 C 0.23343 0.57821 0.2211 0.0
C4317 C 0.25381 0.57965 0.22848 0.0
H4318 H 0.20122 0.57686 0.22916 0.0
C4319 C 0.25765 0.57893 0.24974 0.0
H4320 H 0.23029 0.57822 0.20464 0.0
C4321 C 0.24121 0.57791 0.26358 0.0
C4322 C 0.2208 0.57771 0.25627 0.0
H4323 H 0.27332 0.57879 0.25563 0.0
H4324 H 0.24443 0.57742 0.28001 0.0
C4325 C 0.21692 0.57732 0.23498 0.0
C4326 C 0.42616 0.24488 0.26032 0.0
C4327 C 0.42706 0.22386 0.25519 0.0
H4328 H 0.42498 0.27601 0.24903 0.0
C4329 C 0.42876 0.21798 0.23434 0.0
H4330 H 0.42607 0.24977 0.27631 0.0
C4331 C 0.42817 0.23294 0.21874 0.0
C4332 C 0.42605 0.25389 0.22391 0.0
H4333 H 0.42995 0.2018 0.23012 0.0
H4334 H 0.42888 0.22816 0.2027 0.0
C4335 C 0.42571 0.25982 0.24477 0.0
C4336 C 0.78604 0.77218 0.58341 0.0
C4337 C 0.77965 0.75159 0.58616 0.0
H4338 H 0.77649 0.80387 0.58043 0.0
C4339 C 0.75856 0.74676 0.58612 0.0
H4340 H 0.80233 0.77606 0.58288 0.0
C4341 C 0.74396 0.76247 0.58437 0.0
C4342 C 0.75031 0.78316 0.58288 0.0
H4343 H 0.75339 0.73086 0.58712 0.0
H4344 H 0.72769 0.7585 0.58438 0.0
C4345 C 0.77139 0.78796 0.58187 0.0
C4346 C 0.78479 0.23807 0.42597 0.0
C4347 C 0.77805 0.25856 0.42311 0.0
H4348 H 0.77588 0.20625 0.42955 0.0
C4349 C 0.75689 0.26304 0.42373 0.0
H4350 H 0.80115 0.23443 0.42609 0.0
C4351 C 0.74259 0.24707 0.42617 0.0
C4352 C 0.74929 0.22646 0.42774 0.0
H4353 H 0.75145 0.27884 0.42262 0.0
H4354 H 0.72626 0.25077 0.42648 0.0
C4355 C 0.77047 0.22205 0.42819 0.0
C4356 C 0.78803 0.77231 0.42864 0.0
C4357 C 0.78364 0.75117 0.42684 0.0
H4358 H 0.77545 0.80304 0.42878 0.0
C4359 C 0.7631 0.74446 0.42521 0.0
H4360 H 0.80383 0.77765 0.43021 0.0
C4361 C 0.74708 0.75877 0.42431 0.0
C4362 C 0.75144 0.77994 0.42499 0.0
H4363 H 0.75944 0.72811 0.42455 0.0
H4364 H 0.7313 0.75327 0.42341 0.0
C4365 C 0.77192 0.78668 0.42776 0.0
C4366 C 0.24369 0.74133 0.41936 0.0
C4367 C 0.2229 0.74719 0.42101 0.0
H4368 H 0.27504 0.75162 0.41735 0.0
C4369 C 0.21753 0.7681 0.42247 0.0
H4370 H 0.24804 0.72515 0.41898 0.0
C4371 C 0.23289 0.78315 0.42133 0.0
C4372 C 0.25363 0.7773 0.41864 0.0
H4373 H 0.2015 0.77274 0.42406 0.0
H4374 H 0.22859 0.79934 0.42216 0.0
C4375 C 0.25902 0.75636 0.4182 0.0
C4376 C 0.23832 0.21832 0.42846 0.0
C4377 C 0.25872 0.2255 0.42582 0.0
H4378 H 0.20623 0.22643 0.43156 0.0
C4379 C 0.2626 0.2468 0.42653 0.0
H4380 H 0.23504 0.20188 0.4285 0.0
C4381 C 0.24618 0.26075 0.42866 0.0
C4382 C 0.22569 0.25358 0.42994 0.0
H4383 H 0.27826 0.25263 0.42566 0.0
H4384 H 0.24945 0.27718 0.4289 0.0
C4385 C 0.2219 0.23227 0.43044 0.0
C4386 C 0.21809 0.23373 0.58119 0.0
C4387 C 0.22472 0.2544 0.58209 0.0
H4388 H 0.22729 0.20183 0.57968 0.0
C4389 C 0.24578 0.25903 0.58031 0.0
H4390 H 0.20179 0.22995 0.582 0.0
C4391 C 0.2602 0.24309 0.57878 0.0
C4392 C 0.25366 0.22241 0.57906 0.0
H4393 H 0.25104 0.27491 0.57973 0.0
H4394 H 0.27646 0.24689 0.57749 0.0
C4395 C 0.23254 0.21775 0.57975 0.0
C4396 C 0.78675 0.23493 0.57847 0.0
C4397 C 0.78112 0.25581 0.57928 0.0
H4398 H 0.77607 0.20357 0.5799 0.0
C4399 C 0.76026 0.26143 0.5809 0.0
H4400 H 0.80282 0.23044 0.57693 0.0
C4401 C 0.74514 0.24626 0.58274 0.0
C4402 C 0.75079 0.22538 0.58296 0.0
H4403 H 0.75569 0.27756 0.58081 0.0
H4404 H 0.72907 0.25083 0.58361 0.0
C4405 C 0.77157 0.21971 0.58025 0.0
C4406 C 0.26455 0.75778 0.57229 0.0
C4407 C 0.25736 0.77827 0.57145 0.0
H4408 H 0.25643 0.72565 0.57406 0.0
C4409 C 0.23606 0.78207 0.57049 0.0
H4410 H 0.28098 0.75453 0.57224 0.0
C4411 C 0.2221 0.76559 0.57155 0.0
C4412 C 0.22929 0.74518 0.57377 0.0
H4413 H 0.23023 0.79776 0.56954 0.0
H4414 H 0.20566 0.76882 0.57118 0.0
C4415 C 0.2506 0.74133 0.57354 0.0
C4416 C 0.00872 0.18158 0.30539 0.0
C4417 C 0.01954 0.18718 0.32342 0.0
H4418 H 0.9793 0.17796 0.29058 0.0
C4419 C 0.00805 0.19114 0.34151 0.0
H4420 H 0.01699 0.17839 0.29117 0.0
C4421 C 0.9863 0.19094 0.34117 0.0
C4422 C 0.97549 0.18672 0.32274 0.0
H4423 H 0.01582 0.19552 0.35568 0.0
H4424 H 0.97798 0.1952 0.35507 0.0
C4425 C 0.98702 0.18132 0.30506 0.0
C4426 C 0.81176 0.9885 0.34257 0.0
C4427 C 0.81634 0.97751 0.32434 0.0
H4428 H 0.80706 0.01822 0.35665 0.0
C4429 C 0.82262 0.98878 0.3068 0.0
H4430 H 0.80687 0.98035 0.35637 0.0
C4431 C 0.82275 0.01046 0.30696 0.0
C4432 C 0.81662 0.0215 0.32467 0.0
H4433 H 0.82637 0.98088 0.29251 0.0
H4434 H 0.82654 0.01855 0.29278 0.0
C4435 C 0.8119 0.01026 0.34273 0.0
C4436 C 0.99317 0.82309 0.3385 0.0
C4437 C 0.98205 0.82257 0.31981 0.0
H4438 H 0.02285 0.82221 0.35312 0.0
C4439 C 0.99304 0.8241 0.3011 0.0
H4440 H 0.98521 0.82206 0.35321 0.0
C4441 C 0.01473 0.82421 0.30105 0.0
C4442 C 0.02582 0.82276 0.31972 0.0
H4443 H 0.98496 0.82376 0.28642 0.0
H4444 H 0.02273 0.82397 0.28634 0.0
C4445 C 0.0148 0.82317 0.33846 0.0
C4446 C 0.18088 0.01653 0.31094 0.0
C4447 C 0.18865 0.02736 0.32816 0.0
H4448 H 0.17567 0.98722 0.29643 0.0
C4449 C 0.19517 0.01577 0.34544 0.0
H4450 H 0.17565 0.02482 0.29735 0.0
C4451 C 0.19516 0.99393 0.34491 0.0
C4452 C 0.18865 0.98319 0.32707 0.0
H4453 H 0.20136 0.02354 0.35893 0.0
H4454 H 0.20133 0.98551 0.35801 0.0
C4455 C 0.18089 0.99484 0.3104 0.0
C4456 C 0.02021 0.80687 0.65876 0.0
C4457 C 0.03154 0.81172 0.67675 0.0
H4458 H 0.99018 0.80313 0.64488 0.0
C4459 C 0.02061 0.81911 0.69405 0.0
H4460 H 0.02807 0.80108 0.64515 0.0
C4461 C 0.99895 0.82041 0.69384 0.0
C4462 C 0.98748 0.81425 0.67637 0.0
H4463 H 0.02873 0.82307 0.70816 0.0
H4464 H 0.99116 0.82529 0.70784 0.0
C4465 C 0.99844 0.80807 0.65858 0.0
C4466 C 0.17981 0.01131 0.69856 0.0
C4467 C 0.18538 0.0227 0.68087 0.0
H4468 H 0.17673 0.98142 0.71249 0.0
C4469 C 0.18912 0.01195 0.66234 0.0
H4470 H 0.17669 0.01908 0.71307 0.0
C4471 C 0.1891 0.99024 0.66199 0.0
C4472 C 0.18536 0.97887 0.68018 0.0
H4473 H 0.19339 0.02023 0.64841 0.0
H4474 H 0.1934 0.98243 0.64781 0.0
C4475 C 0.17981 0.98966 0.69822 0.0
C4476 C 0.9932 0.18396 0.69653 0.0
C4477 C 0.98253 0.19035 0.67873 0.0
H4478 H 0.02251 0.17907 0.71104 0.0
C4479 C 0.99402 0.19442 0.66064 0.0
H4480 H 0.98489 0.18059 0.71069 0.0
C4481 C 0.01574 0.19364 0.66083 0.0
C4482 C 0.02643 0.18867 0.6791 0.0
H4483 H 0.98631 0.19936 0.64661 0.0
H4484 H 0.02414 0.19808 0.64703 0.0
C4485 C 0.01484 0.18307 0.69669 0.0
C4486 C 0.82 0.01511 0.65743 0.0
C4487 C 0.82631 0.02633 0.67495 0.0
H4488 H 0.81413 0.98516 0.64438 0.0
C4489 C 0.83476 0.01544 0.69181 0.0
H4490 H 0.81339 0.02301 0.64421 0.0
C4491 C 0.83513 0.99381 0.69194 0.0
C4492 C 0.82711 0.98252 0.67521 0.0
H4493 H 0.8399 0.02358 0.70552 0.0
H4494 H 0.84052 0.98597 0.70574 0.0
C4495 C 0.82042 0.99339 0.65755 0.0
C4496 C 0.33989 0.99361 0.18594 0.0
C4497 C 0.32122 0.98253 0.18416 0.0
H4498 H 0.3544 0.02328 0.18923 0.0
C4499 C 0.3028 0.99371 0.18122 0.0
H4500 H 0.35439 0.98553 0.1882 0.0
C4501 C 0.30282 0.0154 0.18177 0.0
C4502 C 0.32126 0.02644 0.18532 0.0
H4503 H 0.28814 0.98572 0.17978 0.0
H4504 H 0.28817 0.02345 0.18067 0.0
C4505 C 0.33991 0.01531 0.18655 0.0
C4506 C 0.98936 0.34286 0.18881 0.0
C4507 C 0.97764 0.3247 0.18595 0.0
H4508 H 0.01959 0.35638 0.19138 0.0
C4509 C 0.98811 0.3064 0.18061 0.0
H4510 H 0.98185 0.35726 0.19292 0.0
C4511 C 0.00978 0.30596 0.17955 0.0
C4512 C 0.02158 0.32376 0.18395 0.0
H4513 H 0.97964 0.29214 0.17826 0.0
H4514 H 0.01731 0.29131 0.17646 0.0
C4515 C 0.01106 0.34239 0.18789 0.0
C4516 C 0.65781 0.98862 0.19213 0.0
C4517 C 0.67564 0.97739 0.18652 0.0
H4518 H 0.64423 0.01858 0.19723 0.0
C4519 C 0.69275 0.98842 0.17888 0.0
H4520 H 0.64436 0.98066 0.19815 0.0
C4521 C 0.69262 0.0101 0.17824 0.0
C4522 C 0.67542 0.02144 0.18534 0.0
H4523 H 0.70672 0.98036 0.17435 0.0
H4524 H 0.70653 0.01799 0.17325 0.0
C4525 C 0.65772 0.01041 0.19159 0.0
C4526 C 0.01151 0.70039 0.17892 0.0
C4527 C 0.02251 0.6828 0.18544 0.0
H4528 H 0.98192 0.71453 0.17448 0.0
C4529 C 0.01139 0.66457 0.18975 0.0
H4530 H 0.01955 0.71466 0.17537 0.0
C4531 C 0.98967 0.66448 0.18923 0.0
C4532 C 0.97866 0.68262 0.18439 0.0
H4533 H 0.01936 0.65072 0.19478 0.0
H4534 H 0.98155 0.6506 0.19393 0.0
C4535 C 0.98987 0.7003 0.1784 0.0
C4536 C 0.30728 0.99008 0.82341 0.0
C4537 C 0.32509 0.97855 0.8184 0.0
H4538 H 0.29319 0.02001 0.82622 0.0
C4539 C 0.3435 0.98953 0.81441 0.0
H4540 H 0.29278 0.98229 0.82657 0.0
C4541 C 0.34374 0.01137 0.81428 0.0
C4542 C 0.32557 0.02285 0.81808 0.0
H4543 H 0.35751 0.98128 0.8104 0.0
H4544 H 0.35794 0.01922 0.81013 0.0
C4545 C 0.3075 0.01183 0.82323 0.0
C4546 C 0.00809 0.34485 0.81162 0.0
C4547 C 0.01972 0.32704 0.81636 0.0
H4548 H 0.97785 0.35799 0.80735 0.0
C4549 C 0.00911 0.30933 0.82326 0.0
H4550 H 0.01572 0.35875 0.8062 0.0
C4551 C 0.98745 0.30892 0.82399 0.0
C4552 C 0.97573 0.32619 0.81777 0.0
H4553 H 0.0175 0.29535 0.82713 0.0
H4554 H 0.97989 0.29461 0.82835 0.0
C4555 C 0.98633 0.34442 0.81229 0.0
C4556 C 0.66213 0.01054 0.80938 0.0
C4557 C 0.68036 0.02147 0.81408 0.0
H4558 H 0.64828 0.98097 0.80352 0.0
C4559 C 0.69804 0.01019 0.81987 0.0
H4560 H 0.64822 0.01873 0.8049 0.0
C4561 C 0.69808 0.98855 0.81905 0.0
C4562 C 0.68044 0.97768 0.81243 0.0
H4563 H 0.71231 0.01808 0.82369 0.0
H4564 H 0.71237 0.98044 0.82233 0.0
C4565 C 0.66217 0.98885 0.80856 0.0
C4566 C 0.99122 0.69615 0.82727 0.0
C4567 C 0.9802 0.67865 0.82049 0.0
H4568 H 0.02077 0.71043 0.83157 0.0
C4569 C 0.99143 0.6607 0.81537 0.0
H4570 H 0.98313 0.71024 0.83138 0.0
C4571 C 0.01317 0.66083 0.81539 0.0
C4572 C 0.02415 0.6789 0.82058 0.0
H4573 H 0.98347 0.64696 0.81001 0.0
H4574 H 0.02133 0.64717 0.81013 0.0
C4575 C 0.01288 0.69626 0.82734 0.0
C4576 C 0.18207 0.34088 0.01214 0.0
C4577 C 0.18051 0.32237 0.02353 0.0
H4578 H 0.18384 0.35495 0.98217 0.0
C4579 C 0.17603 0.30395 0.01292 0.0
H4580 H 0.18541 0.35539 0.01983 0.0
C4581 C 0.17499 0.30374 0.99128 0.0
C4582 C 0.17854 0.32193 0.97981 0.0
H4583 H 0.17466 0.28944 0.0212 0.0
H4584 H 0.17284 0.28904 0.98354 0.0
C4585 C 0.18115 0.34066 0.99051 0.0
C4586 C 0.17726 0.69078 0.99815 0.0
C4587 C 0.18519 0.6742 0.98653 0.0
H4588 H 0.17324 0.70426 0.02806 0.0
C4589 C 0.19276 0.65674 0.99715 0.0
H4590 H 0.17121 0.70443 0.99052 0.0
C4591 C 0.19398 0.65665 0.01887 0.0
C4592 C 0.18763 0.67402 0.03033 0.0
H4593 H 0.19904 0.64372 0.98868 0.0
H4594 H 0.20113 0.64357 0.02653 0.0
C4595 C 0.17846 0.69068 0.01974 0.0
C4596 C 0.30383 0.1793 0.01297 0.0
C4597 C 0.32155 0.18518 0.02418 0.0
H4598 H 0.28971 0.17551 0.98324 0.0
C4599 C 0.33992 0.18904 0.01315 0.0
H4600 H 0.28943 0.17612 0.02091 0.0
C4601 C 0.34009 0.18866 0.9914 0.0
C4602 C 0.3219 0.18441 0.98019 0.0
H4603 H 0.35386 0.1936 0.02123 0.0
H4604 H 0.35416 0.19299 0.98341 0.0
C4605 C 0.30401 0.17891 0.99129 0.0
C4606 C 0.82083 0.30432 0.99447 0.0
C4607 C 0.81609 0.32227 0.98313 0.0
H4608 H 0.82285 0.29004 0.0243 0.0
C4609 C 0.81248 0.34078 0.99404 0.0
H4610 H 0.82374 0.2898 0.98663 0.0
C4611 C 0.81192 0.34092 0.01575 0.0
C4612 C 0.81498 0.32255 0.02703 0.0
H4613 H 0.80878 0.35491 0.98583 0.0
H4614 H 0.80785 0.35514 0.0236 0.0
C4615 C 0.82029 0.30446 0.01615 0.0
C4616 C 0.70274 0.824 0.00971 0.0
C4617 C 0.68391 0.8218 0.02042 0.0
H4618 H 0.71811 0.82453 0.98029 0.0
C4619 C 0.66548 0.82121 0.00884 0.0
H4620 H 0.71725 0.82448 0.01808 0.0
C4621 C 0.66598 0.82122 0.98714 0.0
C4622 C 0.68492 0.82184 0.97642 0.0
H4623 H 0.65068 0.81955 0.01651 0.0
H4624 H 0.65155 0.81957 0.9788 0.0
C4625 C 0.70324 0.82403 0.98798 0.0
C4626 C 0.81194 0.66346 0.01118 0.0
C4627 C 0.81537 0.68203 0.02199 0.0
H4628 H 0.80818 0.64874 0.98163 0.0
C4629 C 0.81997 0.69995 0.0104 0.0
H4630 H 0.80828 0.64938 0.0195 0.0
C4631 C 0.81981 0.69963 0.98868 0.0
C4632 C 0.81515 0.68136 0.97783 0.0
H4633 H 0.82272 0.71457 0.01811 0.0
H4634 H 0.8224 0.71397 0.9804 0.0
C4635 C 0.81187 0.66312 0.98939 0.0
C4636 C 0.34239 0.81533 0.01667 0.0
C4637 C 0.32426 0.81915 0.02809 0.0
H4638 H 0.35591 0.81114 0.98664 0.0
C4639 C 0.30627 0.82495 0.01731 0.0
H4640 H 0.35653 0.81084 0.02445 0.0
C4641 C 0.30592 0.82515 0.99564 0.0
C4642 C 0.32354 0.81954 0.98418 0.0
H4643 H 0.29204 0.8281 0.02557 0.0
H4644 H 0.29142 0.82842 0.98791 0.0
C4645 C 0.34204 0.81552 0.99494 0.0
C4646 C 0.6939 0.17591 0.98669 0.0
C4647 C 0.67659 0.18281 0.97544 0.0
H4648 H 0.70793 0.1717 0.01639 0.0
C4649 C 0.6587 0.18848 0.98648 0.0
H4650 H 0.70795 0.17137 0.97876 0.0
C4651 C 0.6587 0.1887 0.00825 0.0
C4652 C 0.67658 0.18323 0.01944 0.0
H4653 H 0.64511 0.19395 0.97835 0.0
H4654 H 0.64509 0.19429 0.01626 0.0
C4655 C 0.6939 0.17611 0.00836 0.0
C4656 C 0.48684 0.68191 0.80589 0.0
C4657 C 0.47531 0.68612 0.82386 0.0
H4658 H 0.51692 0.67918 0.79224 0.0
C4659 C 0.48588 0.68795 0.84279 0.0
H4660 H 0.47922 0.68036 0.79106 0.0
C4661 C 0.50753 0.68729 0.84347 0.0
C4662 C 0.51913 0.68475 0.82524 0.0
H4663 H 0.47751 0.69111 0.85695 0.0
H4664 H 0.51519 0.68999 0.85813 0.0
C4665 C 0.50851 0.68122 0.80658 0.0
C4666 C 0.31933 0.51247 0.80923 0.0
C4667 C 0.31428 0.52367 0.82722 0.0
H4668 H 0.32265 0.48275 0.79486 0.0
C4669 C 0.31094 0.51245 0.84561 0.0
H4670 H 0.32201 0.52047 0.79475 0.0
C4671 C 0.31131 0.49064 0.84568 0.0
C4672 C 0.31505 0.47944 0.82735 0.0
H4673 H 0.30695 0.52047 0.85977 0.0
H4674 H 0.30757 0.48256 0.85988 0.0
C4675 C 0.31971 0.49072 0.8093 0.0
C4676 C 0.51227 0.31424 0.84211 0.0
C4677 C 0.52332 0.31922 0.82403 0.0
H4678 H 0.48258 0.30861 0.85587 0.0
C4679 C 0.51202 0.32495 0.80629 0.0
H4680 H 0.52041 0.30971 0.85603 0.0
C4681 C 0.49035 0.32419 0.80614 0.0
C4682 C 0.47933 0.3178 0.82376 0.0
H4683 H 0.51995 0.32892 0.79207 0.0
H4684 H 0.48229 0.3276 0.79185 0.0
C4685 C 0.49053 0.31359 0.84199 0.0
C4686 C 0.67529 0.48884 0.80665 0.0
C4687 C 0.6816 0.4782 0.82455 0.0
H4688 H 0.67058 0.51823 0.79218 0.0
C4689 C 0.68443 0.48941 0.84295 0.0
H4690 H 0.6728 0.48064 0.79226 0.0
C4691 C 0.68313 0.51102 0.84291 0.0
C4692 C 0.67899 0.52177 0.82446 0.0
H4693 H 0.68916 0.48166 0.85704 0.0
H4694 H 0.68691 0.5193 0.85697 0.0
C4695 C 0.67399 0.51043 0.80661 0.0
C4696 C 0.49079 0.31542 0.16144 0.0
C4697 C 0.47969 0.31815 0.17998 0.0
H4698 H 0.52053 0.31212 0.14701 0.0
C4699 C 0.49097 0.3223 0.19815 0.0
H4700 H 0.48269 0.31213 0.14715 0.0
C4701 C 0.5127 0.32225 0.19809 0.0
C4702 C 0.52381 0.31808 0.17984 0.0
H4703 H 0.48304 0.32448 0.21274 0.0
H4704 H 0.52076 0.32441 0.21261 0.0
C4705 C 0.51256 0.31539 0.16137 0.0
C4706 C 0.68086 0.49414 0.19559 0.0
C4707 C 0.68782 0.48245 0.17861 0.0
H4708 H 0.67682 0.52414 0.20902 0.0
C4709 C 0.69415 0.49319 0.16069 0.0
H4710 H 0.67585 0.48652 0.20964 0.0
C4711 C 0.69477 0.51501 0.16034 0.0
C4712 C 0.68905 0.52661 0.17788 0.0
H4713 H 0.69972 0.48474 0.14735 0.0
H4714 H 0.70077 0.52272 0.14673 0.0
C4715 C 0.68145 0.51583 0.19522 0.0
C4716 C 0.51246 0.67899 0.19923 0.0
C4717 C 0.52281 0.68335 0.18062 0.0
H4718 H 0.48339 0.6769 0.21491 0.0
C4719 C 0.51102 0.68593 0.16249 0.0
H4720 H 0.52104 0.67684 0.21347 0.0
C4721 C 0.48936 0.68604 0.16333 0.0
C4722 C 0.47905 0.68353 0.1823 0.0
H4723 H 0.51848 0.68925 0.14787 0.0
H4724 H 0.48077 0.68944 0.14935 0.0
C4725 C 0.49083 0.67905 0.20005 0.0
C4726 C 0.32282 0.49064 0.20361 0.0
C4727 C 0.31884 0.47969 0.18529 0.0
H4728 H 0.32477 0.5202 0.21837 0.0
C4729 C 0.31631 0.49099 0.16679 0.0
H4730 H 0.32487 0.4825 0.21811 0.0
C4731 C 0.31606 0.51272 0.16693 0.0
C4732 C 0.31848 0.52364 0.18555 0.0
H4733 H 0.31323 0.48309 0.15235 0.0
H4734 H 0.3128 0.52089 0.15267 0.0
C4735 C 0.32272 0.51233 0.20372 0.0
C4736 C 0.84108 0.51282 0.69152 0.0
C4737 C 0.82271 0.52392 0.68768 0.0
H4738 H 0.85537 0.48298 0.69475 0.0
C4739 C 0.80516 0.51292 0.68111 0.0
H4740 H 0.85491 0.52079 0.69659 0.0
C4741 C 0.80548 0.49128 0.67995 0.0
C4742 C 0.82332 0.48004 0.68542 0.0
H4743 H 0.7908 0.52093 0.67792 0.0
H4744 H 0.7913 0.48332 0.67591 0.0
C4745 C 0.84137 0.4911 0.69043 0.0
C4746 C 0.51211 0.83869 0.6909 0.0
C4747 C 0.52285 0.82013 0.68693 0.0
H4748 H 0.4826 0.85369 0.69403 0.0
C4749 C 0.51139 0.80279 0.6805 0.0
H4750 H 0.5204 0.85236 0.6959 0.0
C4751 C 0.48974 0.80361 0.67928 0.0
C4752 C 0.47887 0.82176 0.68457 0.0
H4753 H 0.51907 0.78826 0.67726 0.0
H4754 H 0.48147 0.78962 0.6752 0.0
C4755 C 0.49039 0.83948 0.68978 0.0
C4756 C 0.15884 0.51417 0.69389 0.0
C4757 C 0.17665 0.5254 0.68835 0.0
H4758 H 0.14553 0.4842 0.69935 0.0
C4759 C 0.19401 0.51443 0.68118 0.0
H4760 H 0.14522 0.52213 0.69952 0.0
C4761 C 0.1942 0.49279 0.6811 0.0
C4762 C 0.17703 0.4815 0.68817 0.0
H4763 H 0.20795 0.52254 0.67665 0.0
H4764 H 0.20828 0.48493 0.67653 0.0
C4765 C 0.15903 0.49241 0.69379 0.0
C4766 C 0.49207 0.19909 0.67734 0.0
C4767 C 0.48063 0.18114 0.6819 0.0
H4768 H 0.52192 0.21341 0.67613 0.0
C4769 C 0.49142 0.16269 0.68602 0.0
H4770 H 0.4843 0.21357 0.67405 0.0
C4771 C 0.51309 0.1626 0.6872 0.0
C4772 C 0.52442 0.18097 0.68433 0.0
H4773 H 0.48312 0.14858 0.68959 0.0
H4774 H 0.52084 0.14841 0.69159 0.0
C4775 C 0.5137 0.19901 0.67857 0.0
C4776 C 0.80358 0.49751 0.32554 0.0
C4777 C 0.82175 0.48623 0.32161 0.0
H4778 H 0.7893 0.52735 0.32725 0.0
C4779 C 0.84046 0.49715 0.31938 0.0
H4780 H 0.78891 0.48963 0.32738 0.0
C4781 C 0.8407 0.51885 0.31924 0.0
C4782 C 0.82223 0.53012 0.32138 0.0
H4783 H 0.85478 0.48898 0.3164 0.0
H4784 H 0.85515 0.52673 0.31612 0.0
C4785 C 0.80383 0.5192 0.32545 0.0
C4786 C 0.51498 0.83977 0.31809 0.0
C4787 C 0.52534 0.82083 0.32063 0.0
H4788 H 0.48582 0.85516 0.31479 0.0
C4789 C 0.51359 0.80302 0.32503 0.0
H4790 H 0.52354 0.85379 0.31474 0.0
C4791 C 0.49194 0.80378 0.32499 0.0
C4792 C 0.48155 0.82237 0.32062 0.0
H4793 H 0.52105 0.78817 0.32719 0.0
H4794 H 0.4834 0.78951 0.32707 0.0
C4795 C 0.49331 0.84054 0.31812 0.0
C4796 C 0.15868 0.48658 0.31316 0.0
C4797 C 0.1772 0.47582 0.31719 0.0
H4798 H 0.14393 0.5161 0.30886 0.0
C4799 C 0.19486 0.48747 0.32239 0.0
H4800 H 0.14478 0.47819 0.30902 0.0
C4801 C 0.19438 0.50919 0.32229 0.0
C4802 C 0.17622 0.51999 0.317 0.0
H4803 H 0.20942 0.47982 0.32559 0.0
H4804 H 0.20858 0.51751 0.32541 0.0
C4805 C 0.15819 0.50838 0.31307 0.0
C4806 C 0.51808 0.19522 0.32242 0.0
C4807 C 0.52949 0.17808 0.31535 0.0
H4808 H 0.48827 0.20878 0.32722 0.0
C4809 C 0.51859 0.16004 0.30981 0.0
H4810 H 0.52588 0.20936 0.32689 0.0
C4811 C 0.49679 0.1597 0.30998 0.0
C4812 C 0.48544 0.17739 0.31571 0.0
H4813 H 0.52683 0.14657 0.30421 0.0
H4814 H 0.48888 0.14598 0.30451 0.0
C4815 C 0.49642 0.19488 0.32261 0.0
C4816 C 0.68261 0.80662 0.49292 0.0
C4817 C 0.68764 0.82422 0.48112 0.0
H4818 H 0.67972 0.79319 0.52309 0.0
C4819 C 0.69127 0.84296 0.49163 0.0
H4820 H 0.67967 0.79192 0.48544 0.0
C4821 C 0.69128 0.84369 0.51339 0.0
C4822 C 0.68767 0.8257 0.52516 0.0
H4823 H 0.69524 0.85682 0.48309 0.0
H4824 H 0.69527 0.8581 0.52094 0.0
C4825 C 0.68262 0.80735 0.51461 0.0
C4826 C 0.68195 0.19629 0.49502 0.0
C4827 C 0.68812 0.17883 0.48362 0.0
H4828 H 0.67854 0.21025 0.52483 0.0
C4829 C 0.69338 0.1607 0.49457 0.0
H4830 H 0.67777 0.21051 0.4872 0.0
C4831 C 0.69391 0.16056 0.51634 0.0
C4832 C 0.68916 0.17853 0.52766 0.0
H4833 H 0.69828 0.14696 0.48633 0.0
H4834 H 0.69919 0.14674 0.52422 0.0
C4835 C 0.68243 0.19613 0.5167 0.0
C4836 C 0.84163 0.69075 0.51838 0.0
C4837 C 0.82293 0.68864 0.52929 0.0
H4838 H 0.85645 0.69298 0.48877 0.0
C4839 C 0.80476 0.68468 0.51789 0.0
H4840 H 0.85591 0.69383 0.52658 0.0
C4841 C 0.80503 0.68426 0.49618 0.0
C4842 C 0.8235 0.6877 0.48522 0.0
H4843 H 0.79005 0.68293 0.52571 0.0
H4844 H 0.79055 0.68228 0.48799 0.0
C4845 C 0.84191 0.69024 0.49664 0.0
C4846 C 0.32381 0.80933 0.4847 0.0
C4847 C 0.31613 0.82628 0.4734 0.0
H4848 H 0.32945 0.79607 0.5145 0.0
C4849 C 0.31095 0.84446 0.4842 0.0
H4850 H 0.32808 0.79512 0.47691 0.0
C4851 C 0.31179 0.84502 0.50592 0.0
C4852 C 0.3178 0.8274 0.51725 0.0
H4853 H 0.305 0.8578 0.476 0.0
H4854 H 0.30639 0.85877 0.51382 0.0
C4855 C 0.32464 0.80989 0.50632 0.0
C4856 C 0.19327 0.32341 0.49415 0.0
C4857 C 0.17609 0.31576 0.48325 0.0
H4858 H 0.20739 0.32866 0.5236 0.0
C4859 C 0.1584 0.30995 0.4946 0.0
H4860 H 0.20712 0.32811 0.48599 0.0
C4861 C 0.15856 0.31019 0.51638 0.0
C4862 C 0.17641 0.31629 0.52724 0.0
H4863 H 0.1449 0.30392 0.48673 0.0
H4864 H 0.14522 0.30434 0.52464 0.0
C4865 C 0.19341 0.32371 0.51581 0.0
C4866 C 0.31208 0.15788 0.51119 0.0
C4867 C 0.31717 0.17548 0.52297 0.0
H4868 H 0.30818 0.14499 0.4808 0.0
C4869 C 0.32536 0.19281 0.51268 0.0
H4870 H 0.30571 0.14427 0.51861 0.0
C4871 C 0.32687 0.19319 0.49109 0.0
C4872 C 0.32016 0.17627 0.47915 0.0
H4873 H 0.32957 0.2066 0.52123 0.0
H4874 H 0.33214 0.20728 0.48371 0.0
C4875 C 0.31353 0.15828 0.48949 0.0
C4876 C 0.84144 0.31842 0.48875 0.0
C4877 C 0.82302 0.32196 0.4778 0.0
H4878 H 0.85561 0.31413 0.51839 0.0
C4879 C 0.80502 0.32698 0.489 0.0
H4880 H 0.85556 0.31455 0.48063 0.0
C4881 C 0.80499 0.32662 0.51064 0.0
C4882 C 0.82298 0.32135 0.5216 0.0
H4883 H 0.79056 0.32993 0.48107 0.0
H4884 H 0.79055 0.32925 0.51872 0.0
C4885 C 0.84143 0.31817 0.51044 0.0
C4886 C 0.19926 0.67491 0.50945 0.0
C4887 C 0.18176 0.6805 0.52115 0.0
H4888 H 0.21286 0.67231 0.47935 0.0
C4889 C 0.16316 0.68463 0.51069 0.0
H4890 H 0.21383 0.67151 0.51699 0.0
C4891 C 0.1626 0.68496 0.489 0.0
C4892 C 0.18064 0.68127 0.47734 0.0
H4893 H 0.14939 0.68896 0.51919 0.0
H4894 H 0.14836 0.68951 0.48144 0.0
C4895 C 0.19873 0.67535 0.48781 0.0
C4896 C 0.13638 0.12411 0.29836 0.0
C4897 C 0.14875 0.12153 0.31607 0.0
H4898 H 0.1126 0.1417 0.28341 0.0
C4899 C 0.14319 0.13234 0.33414 0.0
H4900 H 0.14034 0.11621 0.28414 0.0
C4901 C 0.12698 0.14701 0.33377 0.0
C4902 C 0.11615 0.15112 0.3153 0.0
H4903 H 0.15271 0.1311 0.34788 0.0
H4904 H 0.12453 0.15669 0.34723 0.0
C4905 C 0.12036 0.1387 0.29797 0.0
C4906 C 0.86272 0.15076 0.33224 0.0
C4907 C 0.87643 0.15334 0.31557 0.0
H4908 H 0.83629 0.13436 0.34412 0.0
C4909 C 0.87592 0.13881 0.29939 0.0
H4910 H 0.86234 0.16205 0.34462 0.0
C4911 C 0.8608 0.12326 0.29889 0.0
C4912 C 0.84612 0.12158 0.31481 0.0
H4913 H 0.88617 0.14042 0.28628 0.0
H4914 H 0.85965 0.11349 0.28533 0.0
C4915 C 0.84778 0.13491 0.33193 0.0
C4916 C 0.86965 0.85371 0.33538 0.0
C4917 C 0.88257 0.84982 0.31834 0.0
H4918 H 0.84366 0.8709 0.347 0.0
C4919 C 0.88156 0.86313 0.3012 0.0
H4920 H 0.86978 0.84335 0.34856 0.0
C4921 C 0.86651 0.87868 0.3002 0.0
C4922 C 0.85239 0.88146 0.31647 0.0
H4923 H 0.89123 0.86041 0.2878 0.0
H4924 H 0.86475 0.88733 0.28595 0.0
C4925 C 0.85475 0.86953 0.33451 0.0
C4926 C 0.13058 0.86259 0.33182 0.0
C4927 C 0.12043 0.85594 0.31375 0.0
H4928 H 0.15428 0.88223 0.34454 0.0
C4929 C 0.12315 0.86737 0.29549 0.0
H4930 H 0.12909 0.85377 0.346 0.0
C4931 C 0.13734 0.88368 0.2947 0.0
C4932 C 0.14937 0.88882 0.31208 0.0
H4933 H 0.11572 0.86247 0.28129 0.0
H4934 H 0.14048 0.89082 0.27986 0.0
C4935 C 0.14497 0.87897 0.331 0.0
C4936 C 0.15135 0.87004 0.67122 0.0
C4937 C 0.15648 0.88007 0.68986 0.0
H4938 H 0.13402 0.84541 0.65692 0.0
C4939 C 0.14461 0.87577 0.70753 0.0
H4940 H 0.1605 0.87277 0.65745 0.0
C4941 C 0.12945 0.86034 0.70719 0.0
C4942 C 0.12581 0.84867 0.6892 0.0
H4943 H 0.14818 0.88316 0.72212 0.0
H4944 H 0.12196 0.85616 0.72159 0.0
C4945 C 0.1361 0.85442 0.67089 0.0
C4946 C 0.13868 0.12153 0.71004 0.0
C4947 C 0.15034 0.11795 0.69206 0.0
H4948 H 0.11653 0.14081 0.72533 0.0
C4949 C 0.14505 0.12883 0.67395 0.0
H4950 H 0.1425 0.11356 0.72427 0.0
C4951 C 0.12987 0.14452 0.67451 0.0
C4952 C 0.11994 0.1496 0.69322 0.0
H4953 H 0.15411 0.1268 0.66001 0.0
H4954 H 0.12759 0.15408 0.66094 0.0
C4955 C 0.12375 0.13718 0.71065 0.0
C4956 C 0.87842 0.1464 0.668 0.0
C4957 C 0.88959 0.15242 0.68567 0.0
H4958 H 0.85377 0.12747 0.65607 0.0
C4959 C 0.88766 0.14055 0.70376 0.0
H4960 H 0.87923 0.15561 0.65402 0.0
C4961 C 0.87304 0.12468 0.70501 0.0
C4962 C 0.86007 0.12023 0.68815 0.0
H4963 H 0.89584 0.14502 0.71769 0.0
H4964 H 0.87046 0.11728 0.71984 0.0
C4965 C 0.86378 0.1303 0.66921 0.0
C4966 C 0.8788 0.85574 0.66725 0.0
C4967 C 0.8925 0.85515 0.68415 0.0
H4968 H 0.85106 0.86915 0.65463 0.0
C4969 C 0.89129 0.87094 0.69904 0.0
H4970 H 0.87893 0.84339 0.65593 0.0
C4971 C 0.87558 0.88585 0.69809 0.0
C4972 C 0.86049 0.88508 0.68247 0.0
H4973 H 0.90128 0.87058 0.71249 0.0
H4974 H 0.87411 0.89678 0.71069 0.0
C4975 C 0.86279 0.87047 0.66652 0.0
C4976 C 0.29288 0.14048 0.1261 0.0
C4977 C 0.31068 0.15188 0.12103 0.0
H4978 H 0.27868 0.11913 0.14697 0.0
C4979 C 0.32932 0.14711 0.13121 0.0
H4980 H 0.27826 0.14396 0.11869 0.0
C4981 C 0.32955 0.13276 0.14763 0.0
C4982 C 0.31113 0.1231 0.15407 0.0
H4983 H 0.34315 0.15601 0.128 0.0
H4984 H 0.34361 0.1308 0.15654 0.0
C4985 C 0.29309 0.12634 0.14244 0.0
C4986 C 0.86996 0.33541 0.14552 0.0
C4987 C 0.88143 0.31801 0.15185 0.0
H4988 H 0.84434 0.34663 0.12739 0.0
C4989 C 0.87825 0.29922 0.14135 0.0
H4990 H 0.87158 0.34994 0.15371 0.0
C4991 C 0.86241 0.29718 0.12671 0.0
C4992 C 0.84953 0.314 0.12187 0.0
H4993 H 0.88657 0.28545 0.14604 0.0
H4994 H 0.85912 0.28198 0.12046 0.0
C4995 C 0.85423 0.33346 0.13051 0.0
C4996 C 0.66981 0.86941 0.1497 0.0
C4997 C 0.68826 0.88014 0.15391 0.0
H4998 H 0.65536 0.84514 0.13208 0.0
C4999 C 0.70513 0.87751 0.14049 0.0
H5000 H 0.65672 0.87082 0.16008 0.0
C5001 C 0.70413 0.86329 0.12418 0.0
C5002 C 0.68646 0.85098 0.12123 0.0
H5003 H 0.71959 0.88544 0.14346 0.0
H5004 H 0.71784 0.86077 0.11495 0.0
C5005 C 0.66898 0.85479 0.1336 0.0
C5006 C 0.1521 0.66815 0.13902 0.0
C5007 C 0.15268 0.68405 0.1242 0.0
H5008 H 0.13819 0.65719 0.16715 0.0
C5009 C 0.13662 0.69867 0.12385 0.0
H5010 H 0.16466 0.65709 0.14 0.0
C5011 C 0.12121 0.69842 0.13908 0.0
C5012 C 0.12195 0.68389 0.15523 0.0
H5013 H 0.13704 0.71139 0.11293 0.0
H5014 H 0.10995 0.71081 0.13936 0.0
C5015 C 0.13697 0.66822 0.15458 0.0
C5016 C 0.33056 0.87001 0.86147 0.0
C5017 C 0.31275 0.88145 0.85632 0.0
H5018 H 0.343 0.84412 0.87848 0.0
C5019 C 0.29445 0.87741 0.86741 0.0
H5020 H 0.34472 0.87224 0.85281 0.0
C5021 C 0.29327 0.86098 0.8815 0.0
C5022 C 0.31052 0.84839 0.88538 0.0
H5023 H 0.28041 0.88575 0.86373 0.0
H5024 H 0.27845 0.85732 0.8884 0.0
C5025 C 0.32949 0.85371 0.87602 0.0
C5026 C 0.1408 0.33294 0.87331 0.0
C5027 C 0.1446 0.31433 0.88395 0.0
H5028 H 0.12497 0.34741 0.84783 0.0
C5029 C 0.13181 0.29724 0.87996 0.0
H5030 H 0.15078 0.34619 0.87572 0.0
C5031 C 0.11713 0.29794 0.86412 0.0
C5032 C 0.11492 0.31574 0.85186 0.0
H5033 H 0.13456 0.28264 0.88774 0.0
H5034 H 0.10887 0.2839 0.86024 0.0
C5035 C 0.12603 0.33363 0.85731 0.0
C5036 C 0.67145 0.1435 0.86663 0.0
C5037 C 0.68919 0.14748 0.87861 0.0
H5038 H 0.65898 0.12789 0.83994 0.0
C5039 C 0.70702 0.13558 0.87492 0.0
H5040 H 0.65769 0.15284 0.86867 0.0
C5041 C 0.70792 0.12176 0.8583 0.0
C5042 C 0.69088 0.11918 0.84511 0.0
H5043 H 0.721 0.13846 0.88369 0.0
H5044 H 0.72245 0.11415 0.85494 0.0
C5045 C 0.67227 0.12936 0.85004 0.0
C5046 C 0.87489 0.71009 0.85919 0.0
C5047 C 0.88051 0.69234 0.84799 0.0
H5048 H 0.85517 0.72331 0.88221 0.0
C5049 C 0.87244 0.67311 0.85442 0.0
H5050 H 0.88078 0.72511 0.85474 0.0
C5051 C 0.85745 0.67207 0.87031 0.0
C5052 C 0.85053 0.6902 0.88022 0.0
H5053 H 0.87627 0.65918 0.84593 0.0
H5054 H 0.84985 0.65744 0.87336 0.0
C5055 C 0.8603 0.709 0.87515 0.0
C5056 C 0.13941 0.30558 0.12095 0.0
C5057 C 0.15516 0.32036 0.12306 0.0
H5058 H 0.11197 0.29239 0.13419 0.0
C5059 C 0.1533 0.33561 0.13842 0.0
H5060 H 0.14078 0.29337 0.10954 0.0
C5061 C 0.13672 0.33517 0.1524 0.0
C5062 C 0.12181 0.31939 0.15133 0.0
H5063 H 0.16555 0.34684 0.14066 0.0
H5064 H 0.13672 0.34588 0.16529 0.0
C5065 C 0.12287 0.30508 0.13499 0.0
C5066 C 0.14658 0.66754 0.87716 0.0
C5067 C 0.14761 0.68438 0.89091 0.0
H5068 H 0.13372 0.65584 0.84878 0.0
C5069 C 0.13292 0.70028 0.88901 0.0
H5070 H 0.15816 0.65544 0.87783 0.0
C5071 C 0.11894 0.70047 0.87248 0.0
C5072 C 0.11946 0.68484 0.85741 0.0
H5073 H 0.1337 0.71369 0.89904 0.0
H5074 H 0.10905 0.71382 0.87047 0.0
C5075 C 0.13266 0.66783 0.86044 0.0
C5076 C 0.33102 0.15131 0.86989 0.0
C5077 C 0.31211 0.15617 0.87956 0.0
H5078 H 0.34634 0.13328 0.84635 0.0
C5079 C 0.29492 0.14356 0.87541 0.0
H5080 H 0.34446 0.16099 0.87247 0.0
C5081 C 0.29613 0.12751 0.86089 0.0
C5082 C 0.31445 0.12376 0.84976 0.0
H5083 H 0.28013 0.14686 0.88253 0.0
H5084 H 0.28219 0.11901 0.85728 0.0
C5085 C 0.33215 0.13532 0.85502 0.0
C5086 C 0.87691 0.30038 0.86607 0.0
C5087 C 0.8767 0.31645 0.85139 0.0
H5088 H 0.86124 0.28583 0.89151 0.0
C5089 C 0.86235 0.33259 0.85389 0.0
H5090 H 0.8877 0.28769 0.86455 0.0
C5091 C 0.84752 0.33181 0.8698 0.0
C5092 C 0.8466 0.31473 0.88327 0.0
H5093 H 0.86143 0.34486 0.8425 0.0
H5094 H 0.83555 0.34354 0.87029 0.0
C5095 C 0.86187 0.29938 0.88167 0.0
C5096 C 0.69964 0.88105 0.86101 0.0
C5097 C 0.68726 0.88052 0.84315 0.0
H5098 H 0.70814 0.86585 0.88935 0.0
C5099 C 0.67194 0.86517 0.84156 0.0
H5100 H 0.7119 0.89239 0.86238 0.0
C5101 C 0.67028 0.84958 0.85659 0.0
C5102 C 0.68348 0.84935 0.87386 0.0
H5103 H 0.66258 0.86406 0.8277 0.0
H5104 H 0.65975 0.83682 0.85391 0.0
C5105 C 0.69746 0.86584 0.87644 0.0
C5106 C 0.85873 0.6771 0.12747 0.0
C5107 C 0.85327 0.6957 0.11749 0.0
H5108 H 0.87602 0.66298 0.15229 0.0
C5109 C 0.86454 0.71367 0.12238 0.0
H5110 H 0.85001 0.66311 0.12446 0.0
C5111 C 0.87916 0.71364 0.13834 0.0
C5112 C 0.88315 0.6956 0.1498 0.0
H5113 H 0.8606 0.72829 0.11519 0.0
H5114 H 0.88612 0.7282 0.14286 0.0
C5115 C 0.8736 0.67704 0.1435 0.0
C5116 C 0.29706 0.86285 0.12862 0.0
C5117 C 0.31405 0.84968 0.1257 0.0
H5118 H 0.28415 0.88798 0.14581 0.0
C5119 C 0.33252 0.85387 0.13641 0.0
H5120 H 0.2826 0.85987 0.1207 0.0
C5121 C 0.33325 0.86974 0.15129 0.0
C5122 C 0.31564 0.88183 0.15538 0.0
H5123 H 0.3457 0.84365 0.13476 0.0
H5124 H 0.34692 0.87129 0.16086 0.0
C5125 C 0.29793 0.87891 0.14312 0.0
C5126 C 0.69648 0.13367 0.11657 0.0
C5127 C 0.6813 0.14918 0.1182 0.0
H5128 H 0.71145 0.10785 0.13126 0.0
C5129 C 0.66661 0.14758 0.13415 0.0
H5130 H 0.70817 0.13457 0.10463 0.0
C5131 C 0.66804 0.13176 0.14903 0.0
C5132 C 0.68455 0.11757 0.14857 0.0
H5133 H 0.65516 0.15965 0.13622 0.0
H5134 H 0.65758 0.132 0.16212 0.0
C5135 C 0.69832 0.11826 0.13177 0.0
C5136 C 0.63199 0.65007 0.84068 0.0
C5137 C 0.61633 0.6497 0.8256 0.0
H5138 H 0.66131 0.63776 0.85036 0.0
C5139 C 0.61607 0.63341 0.81122 0.0
H5140 H 0.63298 0.66289 0.85144 0.0
C5141 C 0.63216 0.61886 0.81078 0.0
C5142 C 0.64897 0.62066 0.82442 0.0
H5143 H 0.60461 0.63319 0.79899 0.0
H5144 H 0.63246 0.60749 0.79848 0.0
C5145 C 0.64831 0.6358 0.83996 0.0
C5146 C 0.35921 0.62593 0.79718 0.0
C5147 C 0.34784 0.62216 0.81533 0.0
H5148 H 0.38173 0.64485 0.78193 0.0
C5149 C 0.35383 0.63248 0.83356 0.0
H5150 H 0.35504 0.61834 0.78288 0.0
C5151 C 0.36949 0.64772 0.83306 0.0
C5152 C 0.3793 0.65291 0.81431 0.0
H5153 H 0.34509 0.63027 0.84767 0.0
H5154 H 0.37233 0.65687 0.8468 0.0
C5155 C 0.37467 0.64109 0.79666 0.0
C5156 C 0.37163 0.35565 0.83221 0.0
C5157 C 0.38166 0.35096 0.81343 0.0
H5158 H 0.34668 0.37219 0.84703 0.0
C5159 C 0.3764 0.36268 0.79586 0.0
H5160 H 0.37487 0.34655 0.84591 0.0
C5161 C 0.36034 0.37723 0.7965 0.0
C5162 C 0.34893 0.38058 0.81471 0.0
H5163 H 0.38357 0.35933 0.78108 0.0
H5164 H 0.35589 0.38479 0.78225 0.0
C5165 C 0.35539 0.37032 0.83284 0.0
C5166 C 0.62335 0.36839 0.80305 0.0
C5167 C 0.62243 0.35337 0.81877 0.0
H5168 H 0.64145 0.39216 0.78846 0.0
C5169 C 0.63746 0.35379 0.83447 0.0
H5170 H 0.61215 0.36829 0.79062 0.0
C5171 C 0.65409 0.36771 0.8334 0.0
C5172 C 0.65605 0.3812 0.81646 0.0
H5173 H 0.63754 0.34196 0.84635 0.0
H5174 H 0.66635 0.36664 0.84477 0.0
C5175 C 0.64016 0.382 0.80173 0.0
C5176 C 0.63881 0.37982 0.2081 0.0
C5177 C 0.65109 0.38466 0.19081 0.0
H5178 H 0.61644 0.35939 0.22145 0.0
C5179 C 0.64719 0.37414 0.17214 0.0
H5180 H 0.64162 0.38739 0.22278 0.0
C5181 C 0.63273 0.35778 0.17142 0.0
C5182 C 0.62192 0.35175 0.18935 0.0
H5183 H 0.65679 0.37707 0.15873 0.0
H5184 H 0.63148 0.34864 0.15744 0.0
C5185 C 0.62443 0.36363 0.20737 0.0
C5186 C 0.63487 0.65041 0.16673 0.0
C5187 C 0.62175 0.65448 0.18359 0.0
H5188 H 0.66071 0.63278 0.15543 0.0
C5189 C 0.62219 0.64099 0.20062 0.0
H5190 H 0.63517 0.66086 0.15363 0.0
C5191 C 0.6369 0.62512 0.20175 0.0
C5192 C 0.65129 0.62217 0.18573 0.0
H5193 H 0.61235 0.6438 0.21387 0.0
H5194 H 0.63825 0.61637 0.21599 0.0
C5195 C 0.64943 0.63426 0.16773 0.0
C5196 C 0.38102 0.63874 0.21476 0.0
C5197 C 0.38472 0.64972 0.19637 0.0
H5198 H 0.36225 0.61642 0.23039 0.0
C5199 C 0.3748 0.64312 0.17815 0.0
H5200 H 0.38834 0.64351 0.22904 0.0
C5201 C 0.35974 0.62733 0.1789 0.0
C5202 C 0.35443 0.61806 0.19789 0.0
H5203 H 0.37704 0.65156 0.16385 0.0
H5204 H 0.35076 0.62404 0.16515 0.0
C5205 C 0.36607 0.62315 0.21552 0.0
C5206 C 0.36867 0.3526 0.17238 0.0
C5207 C 0.37959 0.34859 0.19079 0.0
H5208 H 0.34333 0.36896 0.15817 0.0
C5209 C 0.3755 0.36102 0.20815 0.0
H5210 H 0.37108 0.3429 0.15894 0.0
C5211 C 0.35987 0.37604 0.20762 0.0
C5212 C 0.34769 0.37883 0.18983 0.0
H5213 H 0.38344 0.35816 0.22261 0.0
H5214 H 0.3564 0.38448 0.22164 0.0
C5215 C 0.35276 0.36751 0.17194 0.0
C5216 C 0.83062 0.64613 0.63524 0.0
C5217 C 0.81244 0.65195 0.62476 0.0
H5218 H 0.84382 0.62747 0.65951 0.0
C5219 C 0.79447 0.64014 0.62794 0.0
H5220 H 0.84457 0.65526 0.63348 0.0
C5221 C 0.794 0.62441 0.64281 0.0
C5222 C 0.81154 0.61996 0.65486 0.0
H5223 H 0.78021 0.64428 0.62022 0.0
H5224 H 0.77935 0.61701 0.64622 0.0
C5225 C 0.83019 0.63019 0.65015 0.0
C5226 C 0.35143 0.8348 0.62992 0.0
C5227 C 0.34999 0.81803 0.61612 0.0
H5228 H 0.36581 0.84686 0.65742 0.0
C5229 C 0.365 0.80237 0.61722 0.0
H5230 H 0.33968 0.84675 0.62984 0.0
C5231 C 0.38016 0.80264 0.63274 0.0
C5232 C 0.38041 0.81834 0.64778 0.0
H5233 H 0.36399 0.78903 0.60712 0.0
H5234 H 0.39054 0.78957 0.63402 0.0
C5235 C 0.36643 0.83489 0.6457 0.0
C5236 C 0.17235 0.35896 0.63091 0.0
C5237 C 0.19112 0.35422 0.62091 0.0
H5238 H 0.15753 0.37651 0.65511 0.0
C5239 C 0.20826 0.36707 0.6246 0.0
H5240 H 0.15899 0.34909 0.62875 0.0
C5241 C 0.20732 0.3829 0.63934 0.0
C5242 C 0.1893 0.3862 0.65108 0.0
H5243 H 0.223 0.36373 0.61733 0.0
H5244 H 0.22137 0.39123 0.64301 0.0
C5245 C 0.17147 0.37477 0.64598 0.0
C5246 C 0.64659 0.17216 0.63191 0.0
C5247 C 0.65238 0.19059 0.62185 0.0
H5248 H 0.62767 0.15843 0.65566 0.0
C5249 C 0.64017 0.20831 0.62483 0.0
H5250 H 0.65597 0.15838 0.63022 0.0
C5251 C 0.62403 0.20833 0.63922 0.0
C5252 C 0.61967 0.19062 0.65106 0.0
H5253 H 0.64427 0.22274 0.61738 0.0
H5254 H 0.61632 0.22284 0.6426 0.0
C5255 C 0.63031 0.17218 0.64643 0.0
C5256 C 0.79589 0.37041 0.37954 0.0
C5257 C 0.81293 0.35744 0.38318 0.0
H5258 H 0.78276 0.39417 0.36062 0.0
C5259 C 0.8315 0.36134 0.37253 0.0
H5260 H 0.78133 0.36759 0.38733 0.0
C5261 C 0.83222 0.37647 0.35688 0.0
C5262 C 0.81445 0.38796 0.35188 0.0
H5263 H 0.8447 0.35123 0.37467 0.0
H5264 H 0.84596 0.37769 0.34737 0.0
C5265 C 0.79668 0.38557 0.36413 0.0
C5266 C 0.641 0.79121 0.3807 0.0
C5267 C 0.65157 0.8097 0.38512 0.0
H5268 H 0.61962 0.77546 0.3609 0.0
C5269 C 0.64514 0.82791 0.375 0.0
H5270 H 0.64566 0.77689 0.38804 0.0
C5271 C 0.62988 0.82711 0.35936 0.0
C5272 C 0.62098 0.80808 0.35353 0.0
H5273 H 0.65332 0.84229 0.37764 0.0
H5274 H 0.62662 0.84095 0.35049 0.0
C5275 C 0.62604 0.79037 0.36508 0.0
C5276 C 0.16745 0.64811 0.36841 0.0
C5277 C 0.18575 0.65273 0.37921 0.0
H5278 H 0.15337 0.62965 0.34456 0.0
C5279 C 0.2027 0.63933 0.37725 0.0
H5280 H 0.15429 0.65845 0.36937 0.0
C5281 C 0.20203 0.6227 0.3634 0.0
C5282 C 0.18451 0.61924 0.35099 0.0
H5283 H 0.21701 0.64256 0.38532 0.0
H5284 H 0.21596 0.61371 0.36104 0.0
C5285 C 0.16685 0.6315 0.35434 0.0
C5286 C 0.37135 0.2077 0.3812 0.0
C5287 C 0.35807 0.19084 0.38465 0.0
H5288 H 0.39595 0.2204 0.36306 0.0
C5289 C 0.36241 0.17206 0.37444 0.0
H5290 H 0.36834 0.22243 0.3886 0.0
C5291 C 0.37827 0.17096 0.35943 0.0
C5292 C 0.39022 0.18854 0.35461 0.0
H5293 H 0.35221 0.15891 0.37642 0.0
H5294 H 0.37967 0.1571 0.35013 0.0
C5295 C 0.38728 0.20649 0.36656 0.0
C5296 C 0.64719 0.83331 0.63384 0.0
C5297 C 0.65345 0.816 0.62221 0.0
H5298 H 0.62731 0.84469 0.65801 0.0
C5299 C 0.64128 0.79801 0.62312 0.0
H5300 H 0.65651 0.84724 0.63378 0.0
C5301 C 0.62458 0.79658 0.63686 0.0
C5302 C 0.61955 0.81311 0.65007 0.0
H5303 H 0.64566 0.78442 0.61439 0.0
H5304 H 0.61689 0.78179 0.6386 0.0
C5305 C 0.63034 0.83189 0.64763 0.0
C5306 C 0.63507 0.17264 0.35804 0.0
C5307 C 0.62469 0.19103 0.35269 0.0
H5308 H 0.65935 0.15885 0.37628 0.0
C5309 C 0.6281 0.20872 0.36485 0.0
H5310 H 0.63316 0.1589 0.34864 0.0
C5311 C 0.64299 0.2087 0.38056 0.0
C5312 C 0.65491 0.19097 0.38459 0.0
H5313 H 0.6205 0.22316 0.36104 0.0
H5314 H 0.64639 0.22311 0.38837 0.0
C5315 C 0.65009 0.17261 0.37389 0.0
C5316 C 0.83313 0.63853 0.35421 0.0
C5317 C 0.81429 0.62822 0.35071 0.0
H5318 H 0.84889 0.66221 0.37148 0.0
C5319 C 0.79815 0.63089 0.36497 0.0
H5320 H 0.8457 0.63698 0.34324 0.0
C5321 C 0.80031 0.64465 0.3816 0.0
C5322 C 0.81835 0.65662 0.3839 0.0
H5323 H 0.78345 0.62322 0.36259 0.0
H5324 H 0.78717 0.64716 0.39163 0.0
C5325 C 0.83505 0.65281 0.37052 0.0
C5326 C 0.36883 0.83531 0.35273 0.0
C5327 C 0.38203 0.81849 0.34882 0.0
H5328 H 0.34213 0.84623 0.36928 0.0
C5329 C 0.38064 0.80092 0.36154 0.0
H5330 H 0.36924 0.84881 0.34279 0.0
C5331 C 0.36485 0.7992 0.37624 0.0
C5332 C 0.35049 0.81527 0.37891 0.0
H5333 H 0.39059 0.78773 0.35888 0.0
H5334 H 0.36288 0.78467 0.38437 0.0
C5335 C 0.35328 0.8338 0.36785 0.0
C5336 C 0.20623 0.37426 0.36583 0.0
C5337 C 0.18858 0.37842 0.35384 0.0
H5338 H 0.22048 0.35489 0.38854 0.0
C5339 C 0.17021 0.36767 0.35854 0.0
H5340 H 0.2207 0.38199 0.36242 0.0
C5341 C 0.1701 0.35183 0.37363 0.0
C5342 C 0.18838 0.34648 0.38423 0.0
H5343 H 0.15651 0.37006 0.34919 0.0
H5344 H 0.1563 0.34255 0.37559 0.0
C5345 C 0.20613 0.35856 0.38076 0.0
C5346 C 0.36575 0.16776 0.64898 0.0
C5347 C 0.38065 0.18357 0.64962 0.0
H5348 H 0.33772 0.15669 0.63498 0.0
C5349 C 0.38048 0.19869 0.63398 0.0
H5350 H 0.36512 0.1563 0.66121 0.0
C5351 C 0.36449 0.19925 0.61932 0.0
C5352 C 0.34871 0.18434 0.61968 0.0
H5353 H 0.39159 0.21122 0.63423 0.0
H5354 H 0.36358 0.21224 0.60876 0.0
C5355 C 0.35002 0.16803 0.634 0.0
C5356 C 0.83214 0.37416 0.64406 0.0
C5357 C 0.81353 0.38489 0.64755 0.0
H5358 H 0.84667 0.34837 0.62879 0.0
C5359 C 0.79649 0.38064 0.63476 0.0
H5360 H 0.84533 0.37674 0.65406 0.0
C5361 C 0.79724 0.36447 0.62042 0.0
C5362 C 0.81505 0.35221 0.61855 0.0
H5363 H 0.78188 0.38845 0.6373 0.0
H5364 H 0.7833 0.36048 0.61207 0.0
C5365 C 0.83287 0.35785 0.62967 0.0
C5366 C 0.17353 0.62933 0.64319 0.0
C5367 C 0.19099 0.61804 0.64964 0.0
H5368 H 0.16202 0.65373 0.6236 0.0
C5369 C 0.20932 0.61992 0.63811 0.0
H5370 H 0.15934 0.6286 0.65207 0.0
C5371 C 0.21095 0.63439 0.62209 0.0
C5372 C 0.19419 0.64725 0.61697 0.0
H5373 H 0.22307 0.61156 0.64274 0.0
H5374 H 0.2259 0.63678 0.61491 0.0
C5375 C 0.17509 0.64378 0.62688 0.0
loop_
_geom_bond_atom_site_label_1
_geom_bond_atom_site_label_2
_geom_bond_distance
_geom_bond_site_symmetry_2
_ccdc_geom_bond_type
Mn0 O5 2.095 . S
Mn0 O15 2.162 . S
Mn0 O16 2.297 . S
Mn0 O24 2.385 . S
Mn0 O25 2.209 . S
Mn0 O26 2.094 . S
Mn1 O6 2.121 . S
Mn1 N8 2.257 . S
Mn1 N17 2.282 . S
Mn1 O25 2.215 . S
Mn1 O27 2.117 . S
C2 O24 1.234 . S
C2 O25 1.283 . S
C3 O15 1.281 . S
C3 O16 1.236 . S
C4 O26 1.240 . S
C4 O27 1.264 . S
O5 Mn0 2.095 . S
O5 C14 1.250 . S
O6 Mn1 2.121 . S
O6 C14 1.258 . S
C7 N8 1.326 . S
C7 C11 1.460 . S
C7 H13 0.929 . S
N8 Mn1 2.257 . S
N8 C7 1.326 . S
N8 C12 1.362 . S
C9 C10 1.258 . S
C9 C12 1.431 . S
C9 C29 1.449 . S
C10 C9 1.258 . S
C10 C11 1.477 . S
C10 H30 0.931 . S
C11 C7 1.460 . S
C11 C10 1.477 . S
C11 H31 0.930 . S
C12 N8 1.362 . S
C12 C9 1.431 . S
C12 C22 1.476 . S
H13 C7 0.929 . S
C14 O5 1.250 . S
C14 O6 1.258 . S
O15 Mn0 2.162 . S
O15 C3 1.281 . S
O16 Mn0 2.297 . S
O16 C3 1.236 . S
N17 Mn1 2.282 . S
N17 C18 1.328 . S
N17 C22 1.318 . S
C18 N17 1.328 . S
C18 C19 1.457 . S
C18 H23 0.929 . S
C19 C18 1.457 . S
C19 C20 1.291 . S
C19 H32 0.931 . S
C20 C19 1.291 . S
C20 C21 1.373 . S
C20 H33 0.929 . S
C21 C20 1.373 . S
C21 C22 1.396 . S
C21 C28 1.403 . S
C22 C12 1.476 . S
C22 N17 1.318 . S
C22 C21 1.396 . S
H23 C18 0.929 . S
O24 Mn0 2.385 . S
O24 C2 1.234 . S
O25 Mn0 2.209 . S
O25 Mn1 2.215 . S
O25 C2 1.283 . S
O26 Mn0 2.094 . S
O26 C4 1.240 . S
O27 Mn1 2.117 . S
O27 C4 1.264 . S
C28 C21 1.403 . S
C28 C29 1.399 . S
C28 H34 0.929 . S
C29 C9 1.449 . S
C29 C28 1.399 . S
C29 H35 0.930 . S
H30 C10 0.931 . S
H31 C11 0.930 . S
H32 C19 0.931 . S
H33 C20 0.929 . S
H34 C28 0.929 . S
H35 C29 0.930 . S
Mn36 O41 2.095 . S
Mn36 O51 2.162 . S
Mn36 O52 2.297 . S
Mn36 O60 2.385 . S
Mn36 O61 2.209 . S
Mn36 O62 2.094 . S
Mn37 O42 2.121 . S
Mn37 N44 2.257 . S
Mn37 N53 2.282 . S
Mn37 O61 2.215 . S
Mn37 O63 2.117 . S
C38 O60 1.234 . S
C38 O61 1.283 . S
C39 O51 1.281 . S
C39 O52 1.236 . S
C40 O62 1.240 . S
C40 O63 1.264 . S
O41 Mn36 2.095 . S
O41 C50 1.250 . S
O42 Mn37 2.121 . S
O42 C50 1.258 . S
C43 N44 1.326 . S
C43 C47 1.460 . S
C43 H49 0.929 . S
N44 Mn37 2.257 . S
N44 C43 1.326 . S
N44 C48 1.362 . S
C45 C46 1.258 . S
C45 C48 1.431 . S
C45 C65 1.449 . S
C46 C45 1.258 . S
C46 C47 1.477 . S
C46 H66 0.931 . S
C47 C43 1.460 . S
C47 C46 1.477 . S
C47 H67 0.930 . S
C48 N44 1.362 . S
C48 C45 1.431 . S
C48 C58 1.476 . S
H49 C43 0.929 . S
C50 O41 1.250 . S
C50 O42 1.258 . S
O51 Mn36 2.162 . S
O51 C39 1.281 . S
O52 Mn36 2.297 . S
O52 C39 1.236 . S
N53 Mn37 2.282 . S
N53 C54 1.328 . S
N53 C58 1.318 . S
C54 N53 1.328 . S
C54 C55 1.457 . S
C54 H59 0.929 . S
C55 C54 1.457 . S
C55 C56 1.291 . S
C55 H68 0.931 . S
C56 C55 1.291 . S
C56 C57 1.373 . S
C56 H69 0.929 . S
C57 C56 1.373 . S
C57 C58 1.396 . S
C57 C64 1.403 . S
C58 C48 1.476 . S
C58 N53 1.318 . S
C58 C57 1.396 . S
H59 C54 0.929 . S
O60 Mn36 2.385 . S
O60 C38 1.234 . S
O61 Mn36 2.209 . S
O61 Mn37 2.215 . S
O61 C38 1.283 . S
O62 Mn36 2.094 . S
O62 C40 1.240 . S
O63 Mn37 2.117 . S
O63 C40 1.264 . S
C64 C57 1.403 . S
C64 C65 1.399 . S
C64 H70 0.929 . S
C65 C45 1.449 . S
C65 C64 1.399 . S
C65 H71 0.930 . S
H66 C46 0.931 . S
H67 C47 0.930 . S
H68 C55 0.931 . S
H69 C56 0.929 . S
H70 C64 0.929 . S
H71 C65 0.930 . S
Mn72 O77 2.095 . S
Mn72 O87 2.162 . S
Mn72 O88 2.297 . S
Mn72 O96 2.385 . S
Mn72 O97 2.209 . S
Mn72 O98 2.094 . S
Mn73 O78 2.121 . S
Mn73 N80 2.257 . S
Mn73 N89 2.282 . S
Mn73 O97 2.215 . S
Mn73 O99 2.117 . S
C74 O96 1.234 . S
C74 O97 1.283 . S
C75 O87 1.281 . S
C75 O88 1.236 . S
C76 O98 1.240 . S
C76 O99 1.264 . S
O77 Mn72 2.095 . S
O77 C86 1.250 . S
O78 Mn73 2.121 . S
O78 C86 1.258 . S
C79 N80 1.326 . S
C79 C83 1.460 . S
C79 H85 0.929 . S
N80 Mn73 2.257 . S
N80 C79 1.326 . S
N80 C84 1.362 . S
C81 C82 1.258 . S
C81 C84 1.431 . S
C81 C101 1.449 . S
C82 C81 1.258 . S
C82 C83 1.477 . S
C82 H102 0.931 . S
C83 C79 1.460 . S
C83 C82 1.477 . S
C83 H103 0.930 . S
C84 N80 1.362 . S
C84 C81 1.431 . S
C84 C94 1.476 . S
H85 C79 0.929 . S
C86 O77 1.250 . S
C86 O78 1.258 . S
O87 Mn72 2.162 . S
O87 C75 1.281 . S
O88 Mn72 2.297 . S
O88 C75 1.236 . S
N89 Mn73 2.282 . S
N89 C90 1.328 . S
N89 C94 1.318 . S
C90 N89 1.328 . S
C90 C91 1.457 . S
C90 H95 0.929 . S
C91 C90 1.457 . S
C91 C92 1.291 . S
C91 H104 0.931 . S
C92 C91 1.291 . S
C92 C93 1.373 . S
C92 H105 0.929 . S
C93 C92 1.373 . S
C93 C94 1.396 . S
C93 C100 1.403 . S
C94 C84 1.476 . S
C94 N89 1.318 . S
C94 C93 1.396 . S
H95 C90 0.929 . S
O96 Mn72 2.385 . S
O96 C74 1.234 . S
O97 Mn72 2.209 . S
O97 Mn73 2.215 . S
O97 C74 1.283 . S
O98 Mn72 2.094 . S
O98 C76 1.240 . S
O99 Mn73 2.117 . S
O99 C76 1.264 . S
C100 C93 1.403 . S
C100 C101 1.399 . S
C100 H106 0.929 . S
C101 C81 1.449 . S
C101 C100 1.399 . S
C101 H107 0.930 . S
H102 C82 0.931 . S
H103 C83 0.930 . S
H104 C91 0.931 . S
H105 C92 0.929 . S
H106 C100 0.929 . S
H107 C101 0.930 . S
Mn108 O113 2.095 . S
Mn108 O123 2.162 . S
Mn108 O124 2.297 . S
Mn108 O132 2.385 . S
Mn108 O133 2.209 . S
Mn108 O134 2.094 . S
Mn109 O114 2.121 . S
Mn109 N116 2.257 . S
Mn109 N125 2.282 . S
Mn109 O133 2.215 . S
Mn109 O135 2.117 . S
C110 O132 1.234 . S
C110 O133 1.283 . S
C111 O123 1.281 . S
C111 O124 1.236 . S
C112 O134 1.240 . S
C112 O135 1.264 . S
O113 Mn108 2.095 . S
O113 C122 1.250 . S
O114 Mn109 2.121 . S
O114 C122 1.258 . S
C115 N116 1.326 . S
C115 C119 1.460 . S
C115 H121 0.929 . S
N116 Mn109 2.257 . S
N116 C115 1.326 . S
N116 C120 1.362 . S
C117 C118 1.258 . S
C117 C120 1.431 . S
C117 C137 1.449 . S
C118 C117 1.258 . S
C118 C119 1.477 . S
C118 H138 0.931 . S
C119 C115 1.460 . S
C119 C118 1.477 . S
C119 H139 0.930 . S
C120 N116 1.362 . S
C120 C117 1.431 . S
C120 C130 1.476 . S
H121 C115 0.929 . S
C122 O113 1.250 . S
C122 O114 1.258 . S
O123 Mn108 2.162 . S
O123 C111 1.281 . S
O124 Mn108 2.297 . S
O124 C111 1.236 . S
N125 Mn109 2.282 . S
N125 C126 1.328 . S
N125 C130 1.318 . S
C126 N125 1.328 . S
C126 C127 1.457 . S
C126 H131 0.929 . S
C127 C126 1.457 . S
C127 C128 1.291 . S
C127 H140 0.931 . S
C128 C127 1.291 . S
C128 C129 1.373 . S
C128 H141 0.929 . S
C129 C128 1.373 . S
C129 C130 1.396 . S
C129 C136 1.403 . S
C130 C120 1.476 . S
C130 N125 1.318 . S
C130 C129 1.396 . S
H131 C126 0.929 . S
O132 Mn108 2.385 . S
O132 C110 1.234 . S
O133 Mn108 2.209 . S
O133 Mn109 2.215 . S
O133 C110 1.283 . S
O134 Mn108 2.094 . S
O134 C112 1.240 . S
O135 Mn109 2.117 . S
O135 C112 1.264 . S
C136 C129 1.403 . S
C136 C137 1.399 . S
C136 H142 0.929 . S
C137 C117 1.449 . S
C137 C136 1.399 . S
C137 H143 0.930 . S
H138 C118 0.931 . S
H139 C119 0.930 . S
H140 C127 0.931 . S
H141 C128 0.929 . S
H142 C136 0.929 . S
H143 C137 0.930 . S
Mn144 O149 2.095 . S
Mn144 O159 2.162 . S
Mn144 O160 2.297 . S
Mn144 O168 2.385 . S
Mn144 O169 2.209 . S
Mn144 O170 2.094 . S
Mn145 O150 2.121 . S
Mn145 N152 2.257 . S
Mn145 N161 2.282 . S
Mn145 O169 2.215 . S
Mn145 O171 2.117 . S
C146 O168 1.234 . S
C146 O169 1.283 . S
C147 O159 1.281 . S
C147 O160 1.236 . S
C148 O170 1.240 . S
C148 O171 1.264 . S
O149 Mn144 2.095 . S
O149 C158 1.250 . S
O150 Mn145 2.121 . S
O150 C158 1.258 . S
C151 N152 1.326 . S
C151 C155 1.460 . S
C151 H157 0.929 . S
N152 Mn145 2.257 . S
N152 C151 1.326 . S
N152 C156 1.362 . S
C153 C154 1.258 . S
C153 C156 1.431 . S
C153 C173 1.449 . S
C154 C153 1.258 . S
C154 C155 1.477 . S
C154 H174 0.931 . S
C155 C151 1.460 . S
C155 C154 1.477 . S
C155 H175 0.930 . S
C156 N152 1.362 . S
C156 C153 1.431 . S
C156 C166 1.476 . S
H157 C151 0.929 . S
C158 O149 1.250 . S
C158 O150 1.258 . S
O159 Mn144 2.162 . S
O159 C147 1.281 . S
O160 Mn144 2.297 . S
O160 C147 1.236 . S
N161 Mn145 2.282 . S
N161 C162 1.328 . S
N161 C166 1.318 . S
C162 N161 1.328 . S
C162 C163 1.457 . S
C162 H167 0.929 . S
C163 C162 1.457 . S
C163 C164 1.291 . S
C163 H176 0.931 . S
C164 C163 1.291 . S
C164 C165 1.373 . S
C164 H177 0.929 . S
C165 C164 1.373 . S
C165 C166 1.396 . S
C165 C172 1.403 . S
C166 C156 1.476 . S
C166 N161 1.318 . S
C166 C165 1.396 . S
H167 C162 0.929 . S
O168 Mn144 2.385 . S
O168 C146 1.234 . S
O169 Mn144 2.209 . S
O169 Mn145 2.215 . S
O169 C146 1.283 . S
O170 Mn144 2.094 . S
O170 C148 1.240 . S
O171 Mn145 2.117 . S
O171 C148 1.264 . S
C172 C165 1.403 . S
C172 C173 1.399 . S
C172 H178 0.929 . S
C173 C153 1.449 . S
C173 C172 1.399 . S
C173 H179 0.930 . S
H174 C154 0.931 . S
H175 C155 0.930 . S
H176 C163 0.931 . S
H177 C164 0.929 . S
H178 C172 0.929 . S
H179 C173 0.930 . S
Mn180 O185 2.095 . S
Mn180 O195 2.162 . S
Mn180 O196 2.297 . S
Mn180 O204 2.385 . S
Mn180 O205 2.209 . S
Mn180 O206 2.094 . S
Mn181 O186 2.121 . S
Mn181 N188 2.257 . S
Mn181 N197 2.282 . S
Mn181 O205 2.215 . S
Mn181 O207 2.117 . S
C182 O204 1.234 . S
C182 O205 1.283 . S
C183 O195 1.281 . S
C183 O196 1.236 . S
C184 O206 1.240 . S
C184 O207 1.264 . S
O185 Mn180 2.095 . S
O185 C194 1.250 . S
O186 Mn181 2.121 . S
O186 C194 1.258 . S
C187 N188 1.326 . S
C187 C191 1.460 . S
C187 H193 0.929 . S
N188 Mn181 2.257 . S
N188 C187 1.326 . S
N188 C192 1.362 . S
C189 C190 1.258 . S
C189 C192 1.431 . S
C189 C209 1.449 . S
C190 C189 1.258 . S
C190 C191 1.477 . S
C190 H210 0.931 . S
C191 C187 1.460 . S
C191 C190 1.477 . S
C191 H211 0.930 . S
C192 N188 1.362 . S
C192 C189 1.431 . S
C192 C202 1.476 . S
H193 C187 0.929 . S
C194 O185 1.250 . S
C194 O186 1.258 . S
O195 Mn180 2.162 . S
O195 C183 1.281 . S
O196 Mn180 2.297 . S
O196 C183 1.236 . S
N197 Mn181 2.282 . S
N197 C198 1.328 . S
N197 C202 1.318 . S
C198 N197 1.328 . S
C198 C199 1.457 . S
C198 H203 0.929 . S
C199 C198 1.457 . S
C199 C200 1.291 . S
C199 H212 0.931 . S
C200 C199 1.291 . S
C200 C201 1.373 . S
C200 H213 0.929 . S
C201 C200 1.373 . S
C201 C202 1.396 . S
C201 C208 1.403 . S
C202 C192 1.476 . S
C202 N197 1.318 . S
C202 C201 1.396 . S
H203 C198 0.929 . S
O204 Mn180 2.385 . S
O204 C182 1.234 . S
O205 Mn180 2.209 . S
O205 Mn181 2.215 . S
O205 C182 1.283 . S
O206 Mn180 2.094 . S
O206 C184 1.240 . S
O207 Mn181 2.117 . S
O207 C184 1.264 . S
C208 C201 1.403 . S
C208 C209 1.399 . S
C208 H214 0.929 . S
C209 C189 1.449 . S
C209 C208 1.399 . S
C209 H215 0.930 . S
H210 C190 0.931 . S
H211 C191 0.930 . S
H212 C199 0.931 . S
H213 C200 0.929 . S
H214 C208 0.929 . S
H215 C209 0.930 . S
Mn216 O221 2.095 . S
Mn216 O231 2.162 . S
Mn216 O232 2.297 . S
Mn216 O240 2.385 . S
Mn216 O241 2.209 . S
Mn216 O242 2.094 . S
Mn217 O222 2.121 . S
Mn217 N224 2.257 . S
Mn217 N233 2.282 . S
Mn217 O241 2.215 . S
Mn217 O243 2.117 . S
C218 O240 1.234 . S
C218 O241 1.283 . S
C219 O231 1.281 . S
C219 O232 1.236 . S
C220 O242 1.240 . S
C220 O243 1.264 . S
O221 Mn216 2.095 . S
O221 C230 1.250 . S
O222 Mn217 2.121 . S
O222 C230 1.258 . S
C223 N224 1.326 . S
C223 C227 1.460 . S
C223 H229 0.929 . S
N224 Mn217 2.257 . S
N224 C223 1.326 . S
N224 C228 1.362 . S
C225 C226 1.258 . S
C225 C228 1.431 . S
C225 C245 1.449 . S
C226 C225 1.258 . S
C226 C227 1.477 . S
C226 H246 0.931 . S
C227 C223 1.460 . S
C227 C226 1.477 . S
C227 H247 0.930 . S
C228 N224 1.362 . S
C228 C225 1.431 . S
C228 C238 1.476 . S
H229 C223 0.929 . S
C230 O221 1.250 . S
C230 O222 1.258 . S
O231 Mn216 2.162 . S
O231 C219 1.281 . S
O232 Mn216 2.297 . S
O232 C219 1.236 . S
N233 Mn217 2.282 . S
N233 C234 1.328 . S
N233 C238 1.318 . S
C234 N233 1.328 . S
C234 C235 1.457 . S
C234 H239 0.929 . S
C235 C234 1.457 . S
C235 C236 1.291 . S
C235 H248 0.931 . S
C236 C235 1.291 . S
C236 C237 1.373 . S
C236 H249 0.929 . S
C237 C236 1.373 . S
C237 C238 1.396 . S
C237 C244 1.403 . S
C238 C228 1.476 . S
C238 N233 1.318 . S
C238 C237 1.396 . S
H239 C234 0.929 . S
O240 Mn216 2.385 . S
O240 C218 1.234 . S
O241 Mn216 2.209 . S
O241 Mn217 2.215 . S
O241 C218 1.283 . S
O242 Mn216 2.094 . S
O242 C220 1.240 . S
O243 Mn217 2.117 . S
O243 C220 1.264 . S
C244 C237 1.403 . S
C244 C245 1.399 . S
C244 H250 0.929 . S
C245 C225 1.449 . S
C245 C244 1.399 . S
C245 H251 0.930 . S
H246 C226 0.931 . S
H247 C227 0.930 . S
H248 C235 0.931 . S
H249 C236 0.929 . S
H250 C244 0.929 . S
H251 C245 0.930 . S
Mn252 O257 2.095 . S
Mn252 O267 2.162 . S
Mn252 O268 2.297 . S
Mn252 O276 2.385 . S
Mn252 O277 2.209 . S
Mn252 O278 2.094 . S
Mn253 O258 2.121 . S
Mn253 N260 2.257 . S
Mn253 N269 2.282 . S
Mn253 O277 2.215 . S
Mn253 O279 2.117 . S
C254 O276 1.234 . S
C254 O277 1.283 . S
C255 O267 1.281 . S
C255 O268 1.236 . S
C256 O278 1.240 . S
C256 O279 1.264 . S
O257 Mn252 2.095 . S
O257 C266 1.250 . S
O258 Mn253 2.121 . S
O258 C266 1.258 . S
C259 N260 1.326 . S
C259 C263 1.460 . S
C259 H265 0.929 . S
N260 Mn253 2.257 . S
N260 C259 1.326 . S
N260 C264 1.362 . S
C261 C262 1.258 . S
C261 C264 1.431 . S
C261 C281 1.449 . S
C262 C261 1.258 . S
C262 C263 1.477 . S
C262 H282 0.931 . S
C263 C259 1.460 . S
C263 C262 1.477 . S
C263 H283 0.930 . S
C264 N260 1.362 . S
C264 C261 1.431 . S
C264 C274 1.476 . S
H265 C259 0.929 . S
C266 O257 1.250 . S
C266 O258 1.258 . S
O267 Mn252 2.162 . S
O267 C255 1.281 . S
O268 Mn252 2.297 . S
O268 C255 1.236 . S
N269 Mn253 2.282 . S
N269 C270 1.328 . S
N269 C274 1.318 . S
C270 N269 1.328 . S
C270 C271 1.457 . S
C270 H275 0.929 . S
C271 C270 1.457 . S
C271 C272 1.291 . S
C271 H284 0.931 . S
C272 C271 1.291 . S
C272 C273 1.373 . S
C272 H285 0.929 . S
C273 C272 1.373 . S
C273 C274 1.396 . S
C273 C280 1.403 . S
C274 C264 1.476 . S
C274 N269 1.318 . S
C274 C273 1.396 . S
H275 C270 0.929 . S
O276 Mn252 2.385 . S
O276 C254 1.234 . S
O277 Mn252 2.209 . S
O277 Mn253 2.215 . S
O277 C254 1.283 . S
O278 Mn252 2.094 . S
O278 C256 1.240 . S
O279 Mn253 2.117 . S
O279 C256 1.264 . S
C280 C273 1.403 . S
C280 C281 1.399 . S
C280 H286 0.929 . S
C281 C261 1.449 . S
C281 C280 1.399 . S
C281 H287 0.930 . S
H282 C262 0.931 . S
H283 C263 0.930 . S
H284 C271 0.931 . S
H285 C272 0.929 . S
H286 C280 0.929 . S
H287 C281 0.930 . S
Mn288 O293 2.095 . S
Mn288 O303 2.162 . S
Mn288 O304 2.297 . S
Mn288 O312 2.385 . S
Mn288 O313 2.209 . S
Mn288 O314 2.094 . S
Mn289 O294 2.121 . S
Mn289 N296 2.257 . S
Mn289 N305 2.282 . S
Mn289 O313 2.215 . S
Mn289 O315 2.117 . S
C290 O312 1.234 . S
C290 O313 1.283 . S
C291 O303 1.281 . S
C291 O304 1.236 . S
C292 O314 1.240 . S
C292 O315 1.264 . S
O293 Mn288 2.095 . S
O293 C302 1.250 . S
O294 Mn289 2.121 . S
O294 C302 1.258 . S
C295 N296 1.326 . S
C295 C299 1.460 . S
C295 H301 0.929 . S
N296 Mn289 2.257 . S
N296 C295 1.326 . S
N296 C300 1.362 . S
C297 C298 1.258 . S
C297 C300 1.431 . S
C297 C317 1.449 . S
C298 C297 1.258 . S
C298 C299 1.477 . S
C298 H318 0.931 . S
C299 C295 1.460 . S
C299 C298 1.477 . S
C299 H319 0.930 . S
C300 N296 1.362 . S
C300 C297 1.431 . S
C300 C310 1.476 . S
H301 C295 0.929 . S
C302 O293 1.250 . S
C302 O294 1.258 . S
O303 Mn288 2.162 . S
O303 C291 1.281 . S
O304 Mn288 2.297 . S
O304 C291 1.236 . S
N305 Mn289 2.282 . S
N305 C306 1.328 . S
N305 C310 1.318 . S
C306 N305 1.328 . S
C306 C307 1.457 . S
C306 H311 0.929 . S
C307 C306 1.457 . S
C307 C308 1.291 . S
C307 H320 0.931 . S
C308 C307 1.291 . S
C308 C309 1.373 . S
C308 H321 0.929 . S
C309 C308 1.373 . S
C309 C310 1.396 . S
C309 C316 1.403 . S
C310 C300 1.476 . S
C310 N305 1.318 . S
C310 C309 1.396 . S
H311 C306 0.929 . S
O312 Mn288 2.385 . S
O312 C290 1.234 . S
O313 Mn288 2.209 . S
O313 Mn289 2.215 . S
O313 C290 1.283 . S
O314 Mn288 2.094 . S
O314 C292 1.240 . S
O315 Mn289 2.117 . S
O315 C292 1.264 . S
C316 C309 1.403 . S
C316 C317 1.399 . S
C316 H322 0.929 . S
C317 C297 1.449 . S
C317 C316 1.399 . S
C317 H323 0.930 . S
H318 C298 0.931 . S
H319 C299 0.930 . S
H320 C307 0.931 . S
H321 C308 0.929 . S
H322 C316 0.929 . S
H323 C317 0.930 . S
Mn324 O329 2.095 . S
Mn324 O339 2.162 . S
Mn324 O340 2.297 . S
Mn324 O348 2.385 . S
Mn324 O349 2.209 . S
Mn324 O350 2.094 . S
Mn325 O330 2.121 . S
Mn325 N332 2.257 . S
Mn325 N341 2.282 . S
Mn325 O349 2.215 . S
Mn325 O351 2.117 . S
C326 O348 1.234 . S
C326 O349 1.283 . S
C327 O339 1.281 . S
C327 O340 1.236 . S
C328 O350 1.240 . S
C328 O351 1.264 . S
O329 Mn324 2.095 . S
O329 C338 1.250 . S
O330 Mn325 2.121 . S
O330 C338 1.258 . S
C331 N332 1.326 . S
C331 C335 1.460 . S
C331 H337 0.929 . S
N332 Mn325 2.257 . S
N332 C331 1.326 . S
N332 C336 1.362 . S
C333 C334 1.258 . S
C333 C336 1.431 . S
C333 C353 1.449 . S
C334 C333 1.258 . S
C334 C335 1.477 . S
C334 H354 0.931 . S
C335 C331 1.460 . S
C335 C334 1.477 . S
C335 H355 0.930 . S
C336 N332 1.362 . S
C336 C333 1.431 . S
C336 C346 1.476 . S
H337 C331 0.929 . S
C338 O329 1.250 . S
C338 O330 1.258 . S
O339 Mn324 2.162 . S
O339 C327 1.281 . S
O340 Mn324 2.297 . S
O340 C327 1.236 . S
N341 Mn325 2.282 . S
N341 C342 1.328 . S
N341 C346 1.318 . S
C342 N341 1.328 . S
C342 C343 1.457 . S
C342 H347 0.929 . S
C343 C342 1.457 . S
C343 C344 1.291 . S
C343 H356 0.931 . S
C344 C343 1.291 . S
C344 C345 1.373 . S
C344 H357 0.929 . S
C345 C344 1.373 . S
C345 C346 1.396 . S
C345 C352 1.403 . S
C346 C336 1.476 . S
C346 N341 1.318 . S
C346 C345 1.396 . S
H347 C342 0.929 . S
O348 Mn324 2.385 . S
O348 C326 1.234 . S
O349 Mn324 2.209 . S
O349 Mn325 2.215 . S
O349 C326 1.283 . S
O350 Mn324 2.094 . S
O350 C328 1.240 . S
O351 Mn325 2.117 . S
O351 C328 1.264 . S
C352 C345 1.403 . S
C352 C353 1.399 . S
C352 H358 0.929 . S
C353 C333 1.449 . S
C353 C352 1.399 . S
C353 H359 0.930 . S
H354 C334 0.931 . S
H355 C335 0.930 . S
H356 C343 0.931 . S
H357 C344 0.929 . S
H358 C352 0.929 . S
H359 C353 0.930 . S
Mn360 O365 2.095 . S
Mn360 O375 2.162 . S
Mn360 O376 2.297 . S
Mn360 O384 2.385 . S
Mn360 O385 2.209 . S
Mn360 O386 2.094 . S
Mn361 O366 2.121 . S
Mn361 N368 2.257 . S
Mn361 N377 2.282 . S
Mn361 O385 2.215 . S
Mn361 O387 2.117 . S
C362 O384 1.234 . S
C362 O385 1.283 . S
C363 O375 1.281 . S
C363 O376 1.236 . S
C364 O386 1.240 . S
C364 O387 1.264 . S
O365 Mn360 2.095 . S
O365 C374 1.250 . S
O366 Mn361 2.121 . S
O366 C374 1.258 . S
C367 N368 1.326 . S
C367 C371 1.460 . S
C367 H373 0.929 . S
N368 Mn361 2.257 . S
N368 C367 1.326 . S
N368 C372 1.362 . S
C369 C370 1.258 . S
C369 C372 1.431 . S
C369 C389 1.449 . S
C370 C369 1.258 . S
C370 C371 1.477 . S
C370 H390 0.931 . S
C371 C367 1.460 . S
C371 C370 1.477 . S
C371 H391 0.930 . S
C372 N368 1.362 . S
C372 C369 1.431 . S
C372 C382 1.476 . S
H373 C367 0.929 . S
C374 O365 1.250 . S
C374 O366 1.258 . S
O375 Mn360 2.162 . S
O375 C363 1.281 . S
O376 Mn360 2.297 . S
O376 C363 1.236 . S
N377 Mn361 2.282 . S
N377 C378 1.328 . S
N377 C382 1.318 . S
C378 N377 1.328 . S
C378 C379 1.457 . S
C378 H383 0.929 . S
C379 C378 1.457 . S
C379 C380 1.291 . S
C379 H392 0.931 . S
C380 C379 1.291 . S
C380 C381 1.373 . S
C380 H393 0.929 . S
C381 C380 1.373 . S
C381 C382 1.396 . S
C381 C388 1.403 . S
C382 C372 1.476 . S
C382 N377 1.318 . S
C382 C381 1.396 . S
H383 C378 0.929 . S
O384 Mn360 2.385 . S
O384 C362 1.234 . S
O385 Mn360 2.209 . S
O385 Mn361 2.215 . S
O385 C362 1.283 . S
O386 Mn360 2.094 . S
O386 C364 1.240 . S
O387 Mn361 2.117 . S
O387 C364 1.264 . S
C388 C381 1.403 . S
C388 C389 1.399 . S
C388 H394 0.929 . S
C389 C369 1.449 . S
C389 C388 1.399 . S
C389 H395 0.930 . S
H390 C370 0.931 . S
H391 C371 0.930 . S
H392 C379 0.931 . S
H393 C380 0.929 . S
H394 C388 0.929 . S
H395 C389 0.930 . S
Mn396 O401 2.095 . S
Mn396 O411 2.162 . S
Mn396 O412 2.297 . S
Mn396 O420 2.385 . S
Mn396 O421 2.209 . S
Mn396 O422 2.094 . S
Mn397 O402 2.121 . S
Mn397 N404 2.257 . S
Mn397 N413 2.282 . S
Mn397 O421 2.215 . S
Mn397 O423 2.117 . S
C398 O420 1.234 . S
C398 O421 1.283 . S
C399 O411 1.281 . S
C399 O412 1.236 . S
C400 O422 1.240 . S
C400 O423 1.264 . S
O401 Mn396 2.095 . S
O401 C410 1.250 . S
O402 Mn397 2.121 . S
O402 C410 1.258 . S
C403 N404 1.326 . S
C403 C407 1.460 . S
C403 H409 0.929 . S
N404 Mn397 2.257 . S
N404 C403 1.326 . S
N404 C408 1.362 . S
C405 C406 1.258 . S
C405 C408 1.431 . S
C405 C425 1.449 . S
C406 C405 1.258 . S
C406 C407 1.477 . S
C406 H426 0.931 . S
C407 C403 1.460 . S
C407 C406 1.477 . S
C407 H427 0.930 . S
C408 N404 1.362 . S
C408 C405 1.431 . S
C408 C418 1.476 . S
H409 C403 0.929 . S
C410 O401 1.250 . S
C410 O402 1.258 . S
O411 Mn396 2.162 . S
O411 C399 1.281 . S
O412 Mn396 2.297 . S
O412 C399 1.236 . S
N413 Mn397 2.282 . S
N413 C414 1.328 . S
N413 C418 1.318 . S
C414 N413 1.328 . S
C414 C415 1.457 . S
C414 H419 0.929 . S
C415 C414 1.457 . S
C415 C416 1.291 . S
C415 H428 0.931 . S
C416 C415 1.291 . S
C416 C417 1.373 . S
C416 H429 0.929 . S
C417 C416 1.373 . S
C417 C418 1.396 . S
C417 C424 1.403 . S
C418 C408 1.476 . S
C418 N413 1.318 . S
C418 C417 1.396 . S
H419 C414 0.929 . S
O420 Mn396 2.385 . S
O420 C398 1.234 . S
O421 Mn396 2.209 . S
O421 Mn397 2.215 . S
O421 C398 1.283 . S
O422 Mn396 2.094 . S
O422 C400 1.240 . S
O423 Mn397 2.117 . S
O423 C400 1.264 . S
C424 C417 1.403 . S
C424 C425 1.399 . S
C424 H430 0.929 . S
C425 C405 1.449 . S
C425 C424 1.399 . S
C425 H431 0.930 . S
H426 C406 0.931 . S
H427 C407 0.930 . S
H428 C415 0.931 . S
H429 C416 0.929 . S
H430 C424 0.929 . S
H431 C425 0.930 . S
Mn432 O437 2.095 . S
Mn432 O447 2.162 . S
Mn432 O448 2.297 . S
Mn432 O456 2.385 . S
Mn432 O457 2.209 . S
Mn432 O458 2.094 . S
Mn433 O438 2.121 . S
Mn433 N440 2.257 . S
Mn433 N449 2.282 . S
Mn433 O457 2.215 . S
Mn433 O459 2.117 . S
C434 O456 1.234 . S
C434 O457 1.283 . S
C435 O447 1.281 . S
C435 O448 1.236 . S
C436 O458 1.240 . S
C436 O459 1.264 . S
O437 Mn432 2.095 . S
O437 C446 1.250 . S
O438 Mn433 2.121 . S
O438 C446 1.258 . S
C439 N440 1.326 . S
C439 C443 1.460 . S
C439 H445 0.929 . S
N440 Mn433 2.257 . S
N440 C439 1.326 . S
N440 C444 1.362 . S
C441 C442 1.258 . S
C441 C444 1.431 . S
C441 C461 1.449 . S
C442 C441 1.258 . S
C442 C443 1.477 . S
C442 H462 0.931 . S
C443 C439 1.460 . S
C443 C442 1.477 . S
C443 H463 0.930 . S
C444 N440 1.362 . S
C444 C441 1.431 . S
C444 C454 1.476 . S
H445 C439 0.929 . S
C446 O437 1.250 . S
C446 O438 1.258 . S
O447 Mn432 2.162 . S
O447 C435 1.281 . S
O448 Mn432 2.297 . S
O448 C435 1.236 . S
N449 Mn433 2.282 . S
N449 C450 1.328 . S
N449 C454 1.318 . S
C450 N449 1.328 . S
C450 C451 1.457 . S
C450 H455 0.929 . S
C451 C450 1.457 . S
C451 C452 1.291 . S
C451 H464 0.931 . S
C452 C451 1.291 . S
C452 C453 1.373 . S
C452 H465 0.929 . S
C453 C452 1.373 . S
C453 C454 1.396 . S
C453 C460 1.403 . S
C454 C444 1.476 . S
C454 N449 1.318 . S
C454 C453 1.396 . S
H455 C450 0.929 . S
O456 Mn432 2.385 . S
O456 C434 1.234 . S
O457 Mn432 2.209 . S
O457 Mn433 2.215 . S
O457 C434 1.283 . S
O458 Mn432 2.094 . S
O458 C436 1.240 . S
O459 Mn433 2.117 . S
O459 C436 1.264 . S
C460 C453 1.403 . S
C460 C461 1.399 . S
C460 H466 0.929 . S
C461 C441 1.449 . S
C461 C460 1.399 . S
C461 H467 0.930 . S
H462 C442 0.931 . S
H463 C443 0.930 . S
H464 C451 0.931 . S
H465 C452 0.929 . S
H466 C460 0.929 . S
H467 C461 0.930 . S
Mn468 O473 2.095 . S
Mn468 O483 2.162 . S
Mn468 O484 2.297 . S
Mn468 O492 2.385 . S
Mn468 O493 2.209 . S
Mn468 O494 2.094 . S
Mn469 O474 2.121 . S
Mn469 N476 2.257 . S
Mn469 N485 2.282 . S
Mn469 O493 2.215 . S
Mn469 O495 2.117 . S
C470 O492 1.234 . S
C470 O493 1.283 . S
C471 O483 1.281 . S
C471 O484 1.236 . S
C472 O494 1.240 . S
C472 O495 1.264 . S
O473 Mn468 2.095 . S
O473 C482 1.250 . S
O474 Mn469 2.121 . S
O474 C482 1.258 . S
C475 N476 1.326 . S
C475 C479 1.460 . S
C475 H481 0.929 . S
N476 Mn469 2.257 . S
N476 C475 1.326 . S
N476 C480 1.362 . S
C477 C478 1.258 . S
C477 C480 1.431 . S
C477 C497 1.449 . S
C478 C477 1.258 . S
C478 C479 1.477 . S
C478 H498 0.931 . S
C479 C475 1.460 . S
C479 C478 1.477 . S
C479 H499 0.930 . S
C480 N476 1.362 . S
C480 C477 1.431 . S
C480 C490 1.476 . S
H481 C475 0.929 . S
C482 O473 1.250 . S
C482 O474 1.258 . S
O483 Mn468 2.162 . S
O483 C471 1.281 . S
O484 Mn468 2.297 . S
O484 C471 1.236 . S
N485 Mn469 2.282 . S
N485 C486 1.328 . S
N485 C490 1.318 . S
C486 N485 1.328 . S
C486 C487 1.457 . S
C486 H491 0.929 . S
C487 C486 1.457 . S
C487 C488 1.291 . S
C487 H500 0.931 . S
C488 C487 1.291 . S
C488 C489 1.373 . S
C488 H501 0.929 . S
C489 C488 1.373 . S
C489 C490 1.396 . S
C489 C496 1.403 . S
C490 C480 1.476 . S
C490 N485 1.318 . S
C490 C489 1.396 . S
H491 C486 0.929 . S
O492 Mn468 2.385 . S
O492 C470 1.234 . S
O493 Mn468 2.209 . S
O493 Mn469 2.215 . S
O493 C470 1.283 . S
O494 Mn468 2.094 . S
O494 C472 1.240 . S
O495 Mn469 2.117 . S
O495 C472 1.264 . S
C496 C489 1.403 . S
C496 C497 1.399 . S
C496 H502 0.929 . S
C497 C477 1.449 . S
C497 C496 1.399 . S
C497 H503 0.930 . S
H498 C478 0.931 . S
H499 C479 0.930 . S
H500 C487 0.931 . S
H501 C488 0.929 . S
H502 C496 0.929 . S
H503 C497 0.930 . S
Mn504 O509 2.095 . S
Mn504 O519 2.162 . S
Mn504 O520 2.297 . S
Mn504 O528 2.385 . S
Mn504 O529 2.209 . S
Mn504 O530 2.094 . S
Mn505 O510 2.121 . S
Mn505 N512 2.257 . S
Mn505 N521 2.282 . S
Mn505 O529 2.215 . S
Mn505 O531 2.117 . S
C506 O528 1.234 . S
C506 O529 1.283 . S
C507 O519 1.281 . S
C507 O520 1.236 . S
C508 O530 1.240 . S
C508 O531 1.264 . S
O509 Mn504 2.095 . S
O509 C518 1.250 . S
O510 Mn505 2.121 . S
O510 C518 1.258 . S
C511 N512 1.326 . S
C511 C515 1.460 . S
C511 H517 0.929 . S
N512 Mn505 2.257 . S
N512 C511 1.326 . S
N512 C516 1.362 . S
C513 C514 1.258 . S
C513 C516 1.431 . S
C513 C533 1.449 . S
C514 C513 1.258 . S
C514 C515 1.477 . S
C514 H534 0.931 . S
C515 C511 1.460 . S
C515 C514 1.477 . S
C515 H535 0.930 . S
C516 N512 1.362 . S
C516 C513 1.431 . S
C516 C526 1.476 . S
H517 C511 0.929 . S
C518 O509 1.250 . S
C518 O510 1.258 . S
O519 Mn504 2.162 . S
O519 C507 1.281 . S
O520 Mn504 2.297 . S
O520 C507 1.236 . S
N521 Mn505 2.282 . S
N521 C522 1.328 . S
N521 C526 1.318 . S
C522 N521 1.328 . S
C522 C523 1.457 . S
C522 H527 0.929 . S
C523 C522 1.457 . S
C523 C524 1.291 . S
C523 H536 0.931 . S
C524 C523 1.291 . S
C524 C525 1.373 . S
C524 H537 0.929 . S
C525 C524 1.373 . S
C525 C526 1.396 . S
C525 C532 1.403 . S
C526 C516 1.476 . S
C526 N521 1.318 . S
C526 C525 1.396 . S
H527 C522 0.929 . S
O528 Mn504 2.385 . S
O528 C506 1.234 . S
O529 Mn504 2.209 . S
O529 Mn505 2.215 . S
O529 C506 1.283 . S
O530 Mn504 2.094 . S
O530 C508 1.240 . S
O531 Mn505 2.117 . S
O531 C508 1.264 . S
C532 C525 1.403 . S
C532 C533 1.399 . S
C532 H538 0.929 . S
C533 C513 1.449 . S
C533 C532 1.399 . S
C533 H539 0.930 . S
H534 C514 0.931 . S
H535 C515 0.930 . S
H536 C523 0.931 . S
H537 C524 0.929 . S
H538 C532 0.929 . S
H539 C533 0.930 . S
Mn540 O545 2.095 . S
Mn540 O555 2.162 . S
Mn540 O556 2.297 . S
Mn540 O564 2.385 . S
Mn540 O565 2.209 . S
Mn540 O566 2.094 . S
Mn541 O546 2.121 . S
Mn541 N548 2.257 . S
Mn541 N557 2.282 . S
Mn541 O565 2.215 . S
Mn541 O567 2.117 . S
C542 O564 1.234 . S
C542 O565 1.283 . S
C543 O555 1.281 . S
C543 O556 1.236 . S
C544 O566 1.240 . S
C544 O567 1.264 . S
O545 Mn540 2.095 . S
O545 C554 1.250 . S
O546 Mn541 2.121 . S
O546 C554 1.258 . S
C547 N548 1.326 . S
C547 C551 1.460 . S
C547 H553 0.929 . S
N548 Mn541 2.257 . S
N548 C547 1.326 . S
N548 C552 1.362 . S
C549 C550 1.258 . S
C549 C552 1.431 . S
C549 C569 1.449 . S
C550 C549 1.258 . S
C550 C551 1.477 . S
C550 H570 0.931 . S
C551 C547 1.460 . S
C551 C550 1.477 . S
C551 H571 0.930 . S
C552 N548 1.362 . S
C552 C549 1.431 . S
C552 C562 1.476 . S
H553 C547 0.929 . S
C554 O545 1.250 . S
C554 O546 1.258 . S
O555 Mn540 2.162 . S
O555 C543 1.281 . S
O556 Mn540 2.297 . S
O556 C543 1.236 . S
N557 Mn541 2.282 . S
N557 C558 1.328 . S
N557 C562 1.318 . S
C558 N557 1.328 . S
C558 C559 1.457 . S
C558 H563 0.929 . S
C559 C558 1.457 . S
C559 C560 1.291 . S
C559 H572 0.931 . S
C560 C559 1.291 . S
C560 C561 1.373 . S
C560 H573 0.929 . S
C561 C560 1.373 . S
C561 C562 1.396 . S
C561 C568 1.403 . S
C562 C552 1.476 . S
C562 N557 1.318 . S
C562 C561 1.396 . S
H563 C558 0.929 . S
O564 Mn540 2.385 . S
O564 C542 1.234 . S
O565 Mn540 2.209 . S
O565 Mn541 2.215 . S
O565 C542 1.283 . S
O566 Mn540 2.094 . S
O566 C544 1.240 . S
O567 Mn541 2.117 . S
O567 C544 1.264 . S
C568 C561 1.403 . S
C568 C569 1.399 . S
C568 H574 0.929 . S
C569 C549 1.449 . S
C569 C568 1.399 . S
C569 H575 0.930 . S
H570 C550 0.931 . S
H571 C551 0.930 . S
H572 C559 0.931 . S
H573 C560 0.929 . S
H574 C568 0.929 . S
H575 C569 0.930 . S
Mn576 O581 2.095 . S
Mn576 O591 2.162 . S
Mn576 O592 2.297 . S
Mn576 O600 2.385 . S
Mn576 O601 2.209 . S
Mn576 O602 2.094 . S
Mn577 O582 2.121 . S
Mn577 N584 2.257 . S
Mn577 N593 2.282 . S
Mn577 O601 2.215 . S
Mn577 O603 2.117 . S
C578 O600 1.234 . S
C578 O601 1.283 . S
C579 O591 1.281 . S
C579 O592 1.236 . S
C580 O602 1.240 . S
C580 O603 1.264 . S
O581 Mn576 2.095 . S
O581 C590 1.250 . S
O582 Mn577 2.121 . S
O582 C590 1.258 . S
C583 N584 1.326 . S
C583 C587 1.460 . S
C583 H589 0.929 . S
N584 Mn577 2.257 . S
N584 C583 1.326 . S
N584 C588 1.362 . S
C585 C586 1.258 . S
C585 C588 1.431 . S
C585 C605 1.449 . S
C586 C585 1.258 . S
C586 C587 1.477 . S
C586 H606 0.931 . S
C587 C583 1.460 . S
C587 C586 1.477 . S
C587 H607 0.930 . S
C588 N584 1.362 . S
C588 C585 1.431 . S
C588 C598 1.476 . S
H589 C583 0.929 . S
C590 O581 1.250 . S
C590 O582 1.258 . S
O591 Mn576 2.162 . S
O591 C579 1.281 . S
O592 Mn576 2.297 . S
O592 C579 1.236 . S
N593 Mn577 2.282 . S
N593 C594 1.328 . S
N593 C598 1.318 . S
C594 N593 1.328 . S
C594 C595 1.457 . S
C594 H599 0.929 . S
C595 C594 1.457 . S
C595 C596 1.291 . S
C595 H608 0.931 . S
C596 C595 1.291 . S
C596 C597 1.373 . S
C596 H609 0.929 . S
C597 C596 1.373 . S
C597 C598 1.396 . S
C597 C604 1.403 . S
C598 C588 1.476 . S
C598 N593 1.318 . S
C598 C597 1.396 . S
H599 C594 0.929 . S
O600 Mn576 2.385 . S
O600 C578 1.234 . S
O601 Mn576 2.209 . S
O601 Mn577 2.215 . S
O601 C578 1.283 . S
O602 Mn576 2.094 . S
O602 C580 1.240 . S
O603 Mn577 2.117 . S
O603 C580 1.264 . S
C604 C597 1.403 . S
C604 C605 1.399 . S
C604 H610 0.929 . S
C605 C585 1.449 . S
C605 C604 1.399 . S
C605 H611 0.930 . S
H606 C586 0.931 . S
H607 C587 0.930 . S
H608 C595 0.931 . S
H609 C596 0.929 . S
H610 C604 0.929 . S
H611 C605 0.930 . S
Mn612 O617 2.095 . S
Mn612 O627 2.162 . S
Mn612 O628 2.297 . S
Mn612 O636 2.385 . S
Mn612 O637 2.209 . S
Mn612 O638 2.094 . S
Mn613 O618 2.121 . S
Mn613 N620 2.257 . S
Mn613 N629 2.282 . S
Mn613 O637 2.215 . S
Mn613 O639 2.117 . S
C614 O636 1.234 . S
C614 O637 1.283 . S
C615 O627 1.281 . S
C615 O628 1.236 . S
C616 O638 1.240 . S
C616 O639 1.264 . S
O617 Mn612 2.095 . S
O617 C626 1.250 . S
O618 Mn613 2.121 . S
O618 C626 1.258 . S
C619 N620 1.326 . S
C619 C623 1.460 . S
C619 H625 0.929 . S
N620 Mn613 2.257 . S
N620 C619 1.326 . S
N620 C624 1.362 . S
C621 C622 1.258 . S
C621 C624 1.431 . S
C621 C641 1.449 . S
C622 C621 1.258 . S
C622 C623 1.477 . S
C622 H642 0.931 . S
C623 C619 1.460 . S
C623 C622 1.477 . S
C623 H643 0.930 . S
C624 N620 1.362 . S
C624 C621 1.431 . S
C624 C634 1.476 . S
H625 C619 0.929 . S
C626 O617 1.250 . S
C626 O618 1.258 . S
O627 Mn612 2.162 . S
O627 C615 1.281 . S
O628 Mn612 2.297 . S
O628 C615 1.236 . S
N629 Mn613 2.282 . S
N629 C630 1.328 . S
N629 C634 1.318 . S
C630 N629 1.328 . S
C630 C631 1.457 . S
C630 H635 0.929 . S
C631 C630 1.457 . S
C631 C632 1.291 . S
C631 H644 0.931 . S
C632 C631 1.291 . S
C632 C633 1.373 . S
C632 H645 0.929 . S
C633 C632 1.373 . S
C633 C634 1.396 . S
C633 C640 1.403 . S
C634 C624 1.476 . S
C634 N629 1.318 . S
C634 C633 1.396 . S
H635 C630 0.929 . S
O636 Mn612 2.385 . S
O636 C614 1.234 . S
O637 Mn612 2.209 . S
O637 Mn613 2.215 . S
O637 C614 1.283 . S
O638 Mn612 2.094 . S
O638 C616 1.240 . S
O639 Mn613 2.117 . S
O639 C616 1.264 . S
C640 C633 1.403 . S
C640 C641 1.399 . S
C640 H646 0.929 . S
C641 C621 1.449 . S
C641 C640 1.399 . S
C641 H647 0.930 . S
H642 C622 0.931 . S
H643 C623 0.930 . S
H644 C631 0.931 . S
H645 C632 0.929 . S
H646 C640 0.929 . S
H647 C641 0.930 . S
Mn648 O653 2.095 . S
Mn648 O663 2.162 . S
Mn648 O664 2.297 . S
Mn648 O672 2.385 . S
Mn648 O673 2.209 . S
Mn648 O674 2.094 . S
Mn649 O654 2.121 . S
Mn649 N656 2.257 . S
Mn649 N665 2.282 . S
Mn649 O673 2.215 . S
Mn649 O675 2.117 . S
C650 O672 1.234 . S
C650 O673 1.283 . S
C651 O663 1.281 . S
C651 O664 1.236 . S
C652 O674 1.240 . S
C652 O675 1.264 . S
O653 Mn648 2.095 . S
O653 C662 1.250 . S
O654 Mn649 2.121 . S
O654 C662 1.258 . S
C655 N656 1.326 . S
C655 C659 1.460 . S
C655 H661 0.929 . S
N656 Mn649 2.257 . S
N656 C655 1.326 . S
N656 C660 1.362 . S
C657 C658 1.258 . S
C657 C660 1.431 . S
C657 C677 1.449 . S
C658 C657 1.258 . S
C658 C659 1.477 . S
C658 H678 0.931 . S
C659 C655 1.460 . S
C659 C658 1.477 . S
C659 H679 0.930 . S
C660 N656 1.362 . S
C660 C657 1.431 . S
C660 C670 1.476 . S
H661 C655 0.929 . S
C662 O653 1.250 . S
C662 O654 1.258 . S
O663 Mn648 2.162 . S
O663 C651 1.281 . S
O664 Mn648 2.297 . S
O664 C651 1.236 . S
N665 Mn649 2.282 . S
N665 C666 1.328 . S
N665 C670 1.318 . S
C666 N665 1.328 . S
C666 C667 1.457 . S
C666 H671 0.929 . S
C667 C666 1.457 . S
C667 C668 1.291 . S
C667 H680 0.931 . S
C668 C667 1.291 . S
C668 C669 1.373 . S
C668 H681 0.929 . S
C669 C668 1.373 . S
C669 C670 1.396 . S
C669 C676 1.403 . S
C670 C660 1.476 . S
C670 N665 1.318 . S
C670 C669 1.396 . S
H671 C666 0.929 . S
O672 Mn648 2.385 . S
O672 C650 1.234 . S
O673 Mn648 2.209 . S
O673 Mn649 2.215 . S
O673 C650 1.283 . S
O674 Mn648 2.094 . S
O674 C652 1.240 . S
O675 Mn649 2.117 . S
O675 C652 1.264 . S
C676 C669 1.403 . S
C676 C677 1.399 . S
C676 H682 0.929 . S
C677 C657 1.449 . S
C677 C676 1.399 . S
C677 H683 0.930 . S
H678 C658 0.931 . S
H679 C659 0.930 . S
H680 C667 0.931 . S
H681 C668 0.929 . S
H682 C676 0.929 . S
H683 C677 0.930 . S
Mn684 O689 2.095 . S
Mn684 O699 2.162 . S
Mn684 O700 2.297 . S
Mn684 O708 2.385 . S
Mn684 O709 2.209 . S
Mn684 O710 2.094 . S
Mn685 O690 2.121 . S
Mn685 N692 2.257 . S
Mn685 N701 2.282 . S
Mn685 O709 2.215 . S
Mn685 O711 2.117 . S
C686 O708 1.234 . S
C686 O709 1.283 . S
C687 O699 1.281 . S
C687 O700 1.236 . S
C688 O710 1.240 . S
C688 O711 1.264 . S
O689 Mn684 2.095 . S
O689 C698 1.250 . S
O690 Mn685 2.121 . S
O690 C698 1.258 . S
C691 N692 1.326 . S
C691 C695 1.460 . S
C691 H697 0.929 . S
N692 Mn685 2.257 . S
N692 C691 1.326 . S
N692 C696 1.362 . S
C693 C694 1.258 . S
C693 C696 1.431 . S
C693 C713 1.449 . S
C694 C693 1.258 . S
C694 C695 1.477 . S
C694 H714 0.931 . S
C695 C691 1.460 . S
C695 C694 1.477 . S
C695 H715 0.930 . S
C696 N692 1.362 . S
C696 C693 1.431 . S
C696 C706 1.476 . S
H697 C691 0.929 . S
C698 O689 1.250 . S
C698 O690 1.258 . S
O699 Mn684 2.162 . S
O699 C687 1.281 . S
O700 Mn684 2.297 . S
O700 C687 1.236 . S
N701 Mn685 2.282 . S
N701 C702 1.328 . S
N701 C706 1.318 . S
C702 N701 1.328 . S
C702 C703 1.457 . S
C702 H707 0.929 . S
C703 C702 1.457 . S
C703 C704 1.291 . S
C703 H716 0.931 . S
C704 C703 1.291 . S
C704 C705 1.373 . S
C704 H717 0.929 . S
C705 C704 1.373 . S
C705 C706 1.396 . S
C705 C712 1.403 . S
C706 C696 1.476 . S
C706 N701 1.318 . S
C706 C705 1.396 . S
H707 C702 0.929 . S
O708 Mn684 2.385 . S
O708 C686 1.234 . S
O709 Mn684 2.209 . S
O709 Mn685 2.215 . S
O709 C686 1.283 . S
O710 Mn684 2.094 . S
O710 C688 1.240 . S
O711 Mn685 2.117 . S
O711 C688 1.264 . S
C712 C705 1.403 . S
C712 C713 1.399 . S
C712 H718 0.929 . S
C713 C693 1.449 . S
C713 C712 1.399 . S
C713 H719 0.930 . S
H714 C694 0.931 . S
H715 C695 0.930 . S
H716 C703 0.931 . S
H717 C704 0.929 . S
H718 C712 0.929 . S
H719 C713 0.930 . S
Mn720 O725 2.095 . S
Mn720 O735 2.162 . S
Mn720 O736 2.297 . S
Mn720 O744 2.385 . S
Mn720 O745 2.209 . S
Mn720 O746 2.094 . S
Mn721 O726 2.121 . S
Mn721 N728 2.257 . S
Mn721 N737 2.282 . S
Mn721 O745 2.215 . S
Mn721 O747 2.117 . S
C722 O744 1.234 . S
C722 O745 1.283 . S
C723 O735 1.281 . S
C723 O736 1.236 . S
C724 O746 1.240 . S
C724 O747 1.264 . S
O725 Mn720 2.095 . S
O725 C734 1.250 . S
O726 Mn721 2.121 . S
O726 C734 1.258 . S
C727 N728 1.326 . S
C727 C731 1.460 . S
C727 H733 0.929 . S
N728 Mn721 2.257 . S
N728 C727 1.326 . S
N728 C732 1.362 . S
C729 C730 1.258 . S
C729 C732 1.431 . S
C729 C749 1.449 . S
C730 C729 1.258 . S
C730 C731 1.477 . S
C730 H750 0.931 . S
C731 C727 1.460 . S
C731 C730 1.477 . S
C731 H751 0.930 . S
C732 N728 1.362 . S
C732 C729 1.431 . S
C732 C742 1.476 . S
H733 C727 0.929 . S
C734 O725 1.250 . S
C734 O726 1.258 . S
O735 Mn720 2.162 . S
O735 C723 1.281 . S
O736 Mn720 2.297 . S
O736 C723 1.236 . S
N737 Mn721 2.282 . S
N737 C738 1.328 . S
N737 C742 1.318 . S
C738 N737 1.328 . S
C738 C739 1.457 . S
C738 H743 0.929 . S
C739 C738 1.457 . S
C739 C740 1.291 . S
C739 H752 0.931 . S
C740 C739 1.291 . S
C740 C741 1.373 . S
C740 H753 0.929 . S
C741 C740 1.373 . S
C741 C742 1.396 . S
C741 C748 1.403 . S
C742 C732 1.476 . S
C742 N737 1.318 . S
C742 C741 1.396 . S
H743 C738 0.929 . S
O744 Mn720 2.385 . S
O744 C722 1.234 . S
O745 Mn720 2.209 . S
O745 Mn721 2.215 . S
O745 C722 1.283 . S
O746 Mn720 2.094 . S
O746 C724 1.240 . S
O747 Mn721 2.117 . S
O747 C724 1.264 . S
C748 C741 1.403 . S
C748 C749 1.399 . S
C748 H754 0.929 . S
C749 C729 1.449 . S
C749 C748 1.399 . S
C749 H755 0.930 . S
H750 C730 0.931 . S
H751 C731 0.930 . S
H752 C739 0.931 . S
H753 C740 0.929 . S
H754 C748 0.929 . S
H755 C749 0.930 . S
Mn756 O761 2.095 . S
Mn756 O771 2.162 . S
Mn756 O772 2.297 . S
Mn756 O780 2.385 . S
Mn756 O781 2.209 . S
Mn756 O782 2.094 . S
Mn757 O762 2.121 . S
Mn757 N764 2.257 . S
Mn757 N773 2.282 . S
Mn757 O781 2.215 . S
Mn757 O783 2.117 . S
C758 O780 1.234 . S
C758 O781 1.283 . S
C759 O771 1.281 . S
C759 O772 1.236 . S
C760 O782 1.240 . S
C760 O783 1.264 . S
O761 Mn756 2.095 . S
O761 C770 1.250 . S
O762 Mn757 2.121 . S
O762 C770 1.258 . S
C763 N764 1.326 . S
C763 C767 1.460 . S
C763 H769 0.929 . S
N764 Mn757 2.257 . S
N764 C763 1.326 . S
N764 C768 1.362 . S
C765 C766 1.258 . S
C765 C768 1.431 . S
C765 C785 1.449 . S
C766 C765 1.258 . S
C766 C767 1.477 . S
C766 H786 0.931 . S
C767 C763 1.460 . S
C767 C766 1.477 . S
C767 H787 0.930 . S
C768 N764 1.362 . S
C768 C765 1.431 . S
C768 C778 1.476 . S
H769 C763 0.929 . S
C770 O761 1.250 . S
C770 O762 1.258 . S
O771 Mn756 2.162 . S
O771 C759 1.281 . S
O772 Mn756 2.297 . S
O772 C759 1.236 . S
N773 Mn757 2.282 . S
N773 C774 1.328 . S
N773 C778 1.318 . S
C774 N773 1.328 . S
C774 C775 1.457 . S
C774 H779 0.929 . S
C775 C774 1.457 . S
C775 C776 1.291 . S
C775 H788 0.931 . S
C776 C775 1.291 . S
C776 C777 1.373 . S
C776 H789 0.929 . S
C777 C776 1.373 . S
C777 C778 1.396 . S
C777 C784 1.403 . S
C778 C768 1.476 . S
C778 N773 1.318 . S
C778 C777 1.396 . S
H779 C774 0.929 . S
O780 Mn756 2.385 . S
O780 C758 1.234 . S
O781 Mn756 2.209 . S
O781 Mn757 2.215 . S
O781 C758 1.283 . S
O782 Mn756 2.094 . S
O782 C760 1.240 . S
O783 Mn757 2.117 . S
O783 C760 1.264 . S
C784 C777 1.403 . S
C784 C785 1.399 . S
C784 H790 0.929 . S
C785 C765 1.449 . S
C785 C784 1.399 . S
C785 H791 0.930 . S
H786 C766 0.931 . S
H787 C767 0.930 . S
H788 C775 0.931 . S
H789 C776 0.929 . S
H790 C784 0.929 . S
H791 C785 0.930 . S
Mn792 O797 2.095 . S
Mn792 O807 2.162 . S
Mn792 O808 2.297 . S
Mn792 O816 2.385 . S
Mn792 O817 2.209 . S
Mn792 O818 2.094 . S
Mn793 O798 2.121 . S
Mn793 N800 2.257 . S
Mn793 N809 2.282 . S
Mn793 O817 2.215 . S
Mn793 O819 2.117 . S
C794 O816 1.234 . S
C794 O817 1.283 . S
C795 O807 1.281 . S
C795 O808 1.236 . S
C796 O818 1.240 . S
C796 O819 1.264 . S
O797 Mn792 2.095 . S
O797 C806 1.250 . S
O798 Mn793 2.121 . S
O798 C806 1.258 . S
C799 N800 1.326 . S
C799 C803 1.460 . S
C799 H805 0.929 . S
N800 Mn793 2.257 . S
N800 C799 1.326 . S
N800 C804 1.362 . S
C801 C802 1.258 . S
C801 C804 1.431 . S
C801 C821 1.449 . S
C802 C801 1.258 . S
C802 C803 1.477 . S
C802 H822 0.931 . S
C803 C799 1.460 . S
C803 C802 1.477 . S
C803 H823 0.930 . S
C804 N800 1.362 . S
C804 C801 1.431 . S
C804 C814 1.476 . S
H805 C799 0.929 . S
C806 O797 1.250 . S
C806 O798 1.258 . S
O807 Mn792 2.162 . S
O807 C795 1.281 . S
O808 Mn792 2.297 . S
O808 C795 1.236 . S
N809 Mn793 2.282 . S
N809 C810 1.328 . S
N809 C814 1.318 . S
C810 N809 1.328 . S
C810 C811 1.457 . S
C810 H815 0.929 . S
C811 C810 1.457 . S
C811 C812 1.291 . S
C811 H824 0.931 . S
C812 C811 1.291 . S
C812 C813 1.373 . S
C812 H825 0.929 . S
C813 C812 1.373 . S
C813 C814 1.396 . S
C813 C820 1.403 . S
C814 C804 1.476 . S
C814 N809 1.318 . S
C814 C813 1.396 . S
H815 C810 0.929 . S
O816 Mn792 2.385 . S
O816 C794 1.234 . S
O817 Mn792 2.209 . S
O817 Mn793 2.215 . S
O817 C794 1.283 . S
O818 Mn792 2.094 . S
O818 C796 1.240 . S
O819 Mn793 2.117 . S
O819 C796 1.264 . S
C820 C813 1.403 . S
C820 C821 1.399 . S
C820 H826 0.929 . S
C821 C801 1.449 . S
C821 C820 1.399 . S
C821 H827 0.930 . S
H822 C802 0.931 . S
H823 C803 0.930 . S
H824 C811 0.931 . S
H825 C812 0.929 . S
H826 C820 0.929 . S
H827 C821 0.930 . S
Mn828 O833 2.095 . S
Mn828 O843 2.162 . S
Mn828 O844 2.297 . S
Mn828 O852 2.385 . S
Mn828 O853 2.209 . S
Mn828 O854 2.094 . S
Mn829 O834 2.121 . S
Mn829 N836 2.257 . S
Mn829 N845 2.282 . S
Mn829 O853 2.215 . S
Mn829 O855 2.117 . S
C830 O852 1.234 . S
C830 O853 1.283 . S
C831 O843 1.281 . S
C831 O844 1.236 . S
C832 O854 1.240 . S
C832 O855 1.264 . S
O833 Mn828 2.095 . S
O833 C842 1.250 . S
O834 Mn829 2.121 . S
O834 C842 1.258 . S
C835 N836 1.326 . S
C835 C839 1.460 . S
C835 H841 0.929 . S
N836 Mn829 2.257 . S
N836 C835 1.326 . S
N836 C840 1.362 . S
C837 C838 1.258 . S
C837 C840 1.431 . S
C837 C857 1.449 . S
C838 C837 1.258 . S
C838 C839 1.477 . S
C838 H858 0.931 . S
C839 C835 1.460 . S
C839 C838 1.477 . S
C839 H859 0.930 . S
C840 N836 1.362 . S
C840 C837 1.431 . S
C840 C850 1.476 . S
H841 C835 0.929 . S
C842 O833 1.250 . S
C842 O834 1.258 . S
O843 Mn828 2.162 . S
O843 C831 1.281 . S
O844 Mn828 2.297 . S
O844 C831 1.236 . S
N845 Mn829 2.282 . S
N845 C846 1.328 . S
N845 C850 1.318 . S
C846 N845 1.328 . S
C846 C847 1.457 . S
C846 H851 0.929 . S
C847 C846 1.457 . S
C847 C848 1.291 . S
C847 H860 0.931 . S
C848 C847 1.291 . S
C848 C849 1.373 . S
C848 H861 0.929 . S
C849 C848 1.373 . S
C849 C850 1.396 . S
C849 C856 1.403 . S
C850 C840 1.476 . S
C850 N845 1.318 . S
C850 C849 1.396 . S
H851 C846 0.929 . S
O852 Mn828 2.385 . S
O852 C830 1.234 . S
O853 Mn828 2.209 . S
O853 Mn829 2.215 . S
O853 C830 1.283 . S
O854 Mn828 2.094 . S
O854 C832 1.240 . S
O855 Mn829 2.117 . S
O855 C832 1.264 . S
C856 C849 1.403 . S
C856 C857 1.399 . S
C856 H862 0.929 . S
C857 C837 1.449 . S
C857 C856 1.399 . S
C857 H863 0.930 . S
H858 C838 0.931 . S
H859 C839 0.930 . S
H860 C847 0.931 . S
H861 C848 0.929 . S
H862 C856 0.929 . S
H863 C857 0.930 . S
Mn864 O869 2.095 . S
Mn864 O879 2.162 . S
Mn864 O880 2.297 . S
Mn864 O888 2.385 . S
Mn864 O889 2.209 . S
Mn864 O890 2.094 . S
Mn865 O870 2.121 . S
Mn865 N872 2.257 . S
Mn865 N881 2.282 . S
Mn865 O889 2.215 . S
Mn865 O891 2.117 . S
C866 O888 1.234 . S
C866 O889 1.283 . S
C867 O879 1.281 . S
C867 O880 1.236 . S
C868 O890 1.240 . S
C868 O891 1.264 . S
O869 Mn864 2.095 . S
O869 C878 1.250 . S
O870 Mn865 2.121 . S
O870 C878 1.258 . S
C871 N872 1.326 . S
C871 C875 1.460 . S
C871 H877 0.929 . S
N872 Mn865 2.257 . S
N872 C871 1.326 . S
N872 C876 1.362 . S
C873 C874 1.258 . S
C873 C876 1.431 . S
C873 C893 1.449 . S
C874 C873 1.258 . S
C874 C875 1.477 . S
C874 H894 0.931 . S
C875 C871 1.460 . S
C875 C874 1.477 . S
C875 H895 0.930 . S
C876 N872 1.362 . S
C876 C873 1.431 . S
C876 C886 1.476 . S
H877 C871 0.929 . S
C878 O869 1.250 . S
C878 O870 1.258 . S
O879 Mn864 2.162 . S
O879 C867 1.281 . S
O880 Mn864 2.297 . S
O880 C867 1.236 . S
N881 Mn865 2.282 . S
N881 C882 1.328 . S
N881 C886 1.318 . S
C882 N881 1.328 . S
C882 C883 1.457 . S
C882 H887 0.929 . S
C883 C882 1.457 . S
C883 C884 1.291 . S
C883 H896 0.931 . S
C884 C883 1.291 . S
C884 C885 1.373 . S
C884 H897 0.929 . S
C885 C884 1.373 . S
C885 C886 1.396 . S
C885 C892 1.403 . S
C886 C876 1.476 . S
C886 N881 1.318 . S
C886 C885 1.396 . S
H887 C882 0.929 . S
O888 Mn864 2.385 . S
O888 C866 1.234 . S
O889 Mn864 2.209 . S
O889 Mn865 2.215 . S
O889 C866 1.283 . S
O890 Mn864 2.094 . S
O890 C868 1.240 . S
O891 Mn865 2.117 . S
O891 C868 1.264 . S
C892 C885 1.403 . S
C892 C893 1.399 . S
C892 H898 0.929 . S
C893 C873 1.449 . S
C893 C892 1.399 . S
C893 H899 0.930 . S
H894 C874 0.931 . S
H895 C875 0.930 . S
H896 C883 0.931 . S
H897 C884 0.929 . S
H898 C892 0.929 . S
H899 C893 0.930 . S
Mn900 O905 2.095 . S
Mn900 O915 2.162 . S
Mn900 O916 2.297 . S
Mn900 O924 2.385 . S
Mn900 O925 2.209 . S
Mn900 O926 2.094 . S
Mn901 O906 2.121 . S
Mn901 N908 2.257 . S
Mn901 N917 2.282 . S
Mn901 O925 2.215 . S
Mn901 O927 2.117 . S
C902 O924 1.234 . S
C902 O925 1.283 . S
C903 O915 1.281 . S
C903 O916 1.236 . S
C904 O926 1.240 . S
C904 O927 1.264 . S
O905 Mn900 2.095 . S
O905 C914 1.250 . S
O906 Mn901 2.121 . S
O906 C914 1.258 . S
C907 N908 1.326 . S
C907 C911 1.460 . S
C907 H913 0.929 . S
N908 Mn901 2.257 . S
N908 C907 1.326 . S
N908 C912 1.362 . S
C909 C910 1.258 . S
C909 C912 1.431 . S
C909 C929 1.449 . S
C910 C909 1.258 . S
C910 C911 1.477 . S
C910 H930 0.931 . S
C911 C907 1.460 . S
C911 C910 1.477 . S
C911 H931 0.930 . S
C912 N908 1.362 . S
C912 C909 1.431 . S
C912 C922 1.476 . S
H913 C907 0.929 . S
C914 O905 1.250 . S
C914 O906 1.258 . S
O915 Mn900 2.162 . S
O915 C903 1.281 . S
O916 Mn900 2.297 . S
O916 C903 1.236 . S
N917 Mn901 2.282 . S
N917 C918 1.328 . S
N917 C922 1.318 . S
C918 N917 1.328 . S
C918 C919 1.457 . S
C918 H923 0.929 . S
C919 C918 1.457 . S
C919 C920 1.291 . S
C919 H932 0.931 . S
C920 C919 1.291 . S
C920 C921 1.373 . S
C920 H933 0.929 . S
C921 C920 1.373 . S
C921 C922 1.396 . S
C921 C928 1.403 . S
C922 C912 1.476 . S
C922 N917 1.318 . S
C922 C921 1.396 . S
H923 C918 0.929 . S
O924 Mn900 2.385 . S
O924 C902 1.234 . S
O925 Mn900 2.209 . S
O925 Mn901 2.215 . S
O925 C902 1.283 . S
O926 Mn900 2.094 . S
O926 C904 1.240 . S
O927 Mn901 2.117 . S
O927 C904 1.264 . S
C928 C921 1.403 . S
C928 C929 1.399 . S
C928 H934 0.929 . S
C929 C909 1.449 . S
C929 C928 1.399 . S
C929 H935 0.930 . S
H930 C910 0.931 . S
H931 C911 0.930 . S
H932 C919 0.931 . S
H933 C920 0.929 . S
H934 C928 0.929 . S
H935 C929 0.930 . S
Mn936 O941 2.095 . S
Mn936 O951 2.162 . S
Mn936 O952 2.297 . S
Mn936 O960 2.385 . S
Mn936 O961 2.209 . S
Mn936 O962 2.094 . S
Mn937 O942 2.121 . S
Mn937 N944 2.257 . S
Mn937 N953 2.282 . S
Mn937 O961 2.215 . S
Mn937 O963 2.117 . S
C938 O960 1.234 . S
C938 O961 1.283 . S
C939 O951 1.281 . S
C939 O952 1.236 . S
C940 O962 1.240 . S
C940 O963 1.264 . S
O941 Mn936 2.095 . S
O941 C950 1.250 . S
O942 Mn937 2.121 . S
O942 C950 1.258 . S
C943 N944 1.326 . S
C943 C947 1.460 . S
C943 H949 0.929 . S
N944 Mn937 2.257 . S
N944 C943 1.326 . S
N944 C948 1.362 . S
C945 C946 1.258 . S
C945 C948 1.431 . S
C945 C965 1.449 . S
C946 C945 1.258 . S
C946 C947 1.477 . S
C946 H966 0.931 . S
C947 C943 1.460 . S
C947 C946 1.477 . S
C947 H967 0.930 . S
C948 N944 1.362 . S
C948 C945 1.431 . S
C948 C958 1.476 . S
H949 C943 0.929 . S
C950 O941 1.250 . S
C950 O942 1.258 . S
O951 Mn936 2.162 . S
O951 C939 1.281 . S
O952 Mn936 2.297 . S
O952 C939 1.236 . S
N953 Mn937 2.282 . S
N953 C954 1.328 . S
N953 C958 1.318 . S
C954 N953 1.328 . S
C954 C955 1.457 . S
C954 H959 0.929 . S
C955 C954 1.457 . S
C955 C956 1.291 . S
C955 H968 0.931 . S
C956 C955 1.291 . S
C956 C957 1.373 . S
C956 H969 0.929 . S
C957 C956 1.373 . S
C957 C958 1.396 . S
C957 C964 1.403 . S
C958 C948 1.476 . S
C958 N953 1.318 . S
C958 C957 1.396 . S
H959 C954 0.929 . S
O960 Mn936 2.385 . S
O960 C938 1.234 . S
O961 Mn936 2.209 . S
O961 Mn937 2.215 . S
O961 C938 1.283 . S
O962 Mn936 2.094 . S
O962 C940 1.240 . S
O963 Mn937 2.117 . S
O963 C940 1.264 . S
C964 C957 1.403 . S
C964 C965 1.399 . S
C964 H970 0.929 . S
C965 C945 1.449 . S
C965 C964 1.399 . S
C965 H971 0.930 . S
H966 C946 0.931 . S
H967 C947 0.930 . S
H968 C955 0.931 . S
H969 C956 0.929 . S
H970 C964 0.929 . S
H971 C965 0.930 . S
Mn972 O977 2.095 . S
Mn972 O987 2.162 . S
Mn972 O988 2.297 . S
Mn972 O996 2.385 . S
Mn972 O997 2.209 . S
Mn972 O998 2.094 . S
Mn973 O978 2.121 . S
Mn973 N980 2.257 . S
Mn973 N989 2.282 . S
Mn973 O997 2.215 . S
Mn973 O999 2.117 . S
C974 O996 1.234 . S
C974 O997 1.283 . S
C975 O987 1.281 . S
C975 O988 1.236 . S
C976 O998 1.240 . S
C976 O999 1.264 . S
O977 Mn972 2.095 . S
O977 C986 1.250 . S
O978 Mn973 2.121 . S
O978 C986 1.258 . S
C979 N980 1.326 . S
C979 C983 1.460 . S
C979 H985 0.929 . S
N980 Mn973 2.257 . S
N980 C979 1.326 . S
N980 C984 1.362 . S
C981 C982 1.258 . S
C981 C984 1.431 . S
C981 C1001 1.449 . S
C982 C981 1.258 . S
C982 C983 1.477 . S
C982 H1002 0.931 . S
C983 C979 1.460 . S
C983 C982 1.477 . S
C983 H1003 0.930 . S
C984 N980 1.362 . S
C984 C981 1.431 . S
C984 C994 1.476 . S
H985 C979 0.929 . S
C986 O977 1.250 . S
C986 O978 1.258 . S
O987 Mn972 2.162 . S
O987 C975 1.281 . S
O988 Mn972 2.297 . S
O988 C975 1.236 . S
N989 Mn973 2.282 . S
N989 C990 1.328 . S
N989 C994 1.318 . S
C990 N989 1.328 . S
C990 C991 1.457 . S
C990 H995 0.929 . S
C991 C990 1.457 . S
C991 C992 1.291 . S
C991 H1004 0.931 . S
C992 C991 1.291 . S
C992 C993 1.373 . S
C992 H1005 0.929 . S
C993 C992 1.373 . S
C993 C994 1.396 . S
C993 C1000 1.403 . S
C994 C984 1.476 . S
C994 N989 1.318 . S
C994 C993 1.396 . S
H995 C990 0.929 . S
O996 Mn972 2.385 . S
O996 C974 1.234 . S
O997 Mn972 2.209 . S
O997 Mn973 2.215 . S
O997 C974 1.283 . S
O998 Mn972 2.094 . S
O998 C976 1.240 . S
O999 Mn973 2.117 . S
O999 C976 1.264 . S
C1000 C993 1.403 . S
C1000 C1001 1.399 . S
C1000 H1006 0.929 . S
C1001 C981 1.449 . S
C1001 C1000 1.399 . S
C1001 H1007 0.930 . S
H1002 C982 0.931 . S
H1003 C983 0.930 . S
H1004 C991 0.931 . S
H1005 C992 0.929 . S
H1006 C1000 0.929 . S
H1007 C1001 0.930 . S
Mn1008 O1013 2.095 . S
Mn1008 O1023 2.162 . S
Mn1008 O1024 2.297 . S
Mn1008 O1032 2.385 . S
Mn1008 O1033 2.209 . S
Mn1008 O1034 2.094 . S
Mn1009 O1014 2.121 . S
Mn1009 N1016 2.257 . S
Mn1009 N1025 2.282 . S
Mn1009 O1033 2.215 . S
Mn1009 O1035 2.117 . S
C1010 O1032 1.234 . S
C1010 O1033 1.283 . S
C1011 O1023 1.281 . S
C1011 O1024 1.236 . S
C1012 O1034 1.240 . S
C1012 O1035 1.264 . S
O1013 Mn1008 2.095 . S
O1013 C1022 1.250 . S
O1014 Mn1009 2.121 . S
O1014 C1022 1.258 . S
C1015 N1016 1.326 . S
C1015 C1019 1.460 . S
C1015 H1021 0.929 . S
N1016 Mn1009 2.257 . S
N1016 C1015 1.326 . S
N1016 C1020 1.362 . S
C1017 C1018 1.258 . S
C1017 C1020 1.431 . S
C1017 C1037 1.449 . S
C1018 C1017 1.258 . S
C1018 C1019 1.477 . S
C1018 H1038 0.931 . S
C1019 C1015 1.460 . S
C1019 C1018 1.477 . S
C1019 H1039 0.930 . S
C1020 N1016 1.362 . S
C1020 C1017 1.431 . S
C1020 C1030 1.476 . S
H1021 C1015 0.929 . S
C1022 O1013 1.250 . S
C1022 O1014 1.258 . S
O1023 Mn1008 2.162 . S
O1023 C1011 1.281 . S
O1024 Mn1008 2.297 . S
O1024 C1011 1.236 . S
N1025 Mn1009 2.282 . S
N1025 C1026 1.328 . S
N1025 C1030 1.318 . S
C1026 N1025 1.328 . S
C1026 C1027 1.457 . S
C1026 H1031 0.929 . S
C1027 C1026 1.457 . S
C1027 C1028 1.291 . S
C1027 H1040 0.931 . S
C1028 C1027 1.291 . S
C1028 C1029 1.373 . S
C1028 H1041 0.929 . S
C1029 C1028 1.373 . S
C1029 C1030 1.396 . S
C1029 C1036 1.403 . S
C1030 C1020 1.476 . S
C1030 N1025 1.318 . S
C1030 C1029 1.396 . S
H1031 C1026 0.929 . S
O1032 Mn1008 2.385 . S
O1032 C1010 1.234 . S
O1033 Mn1008 2.209 . S
O1033 Mn1009 2.215 . S
O1033 C1010 1.283 . S
O1034 Mn1008 2.094 . S
O1034 C1012 1.240 . S
O1035 Mn1009 2.117 . S
O1035 C1012 1.264 . S
C1036 C1029 1.403 . S
C1036 C1037 1.399 . S
C1036 H1042 0.929 . S
C1037 C1017 1.449 . S
C1037 C1036 1.399 . S
C1037 H1043 0.930 . S
H1038 C1018 0.931 . S
H1039 C1019 0.930 . S
H1040 C1027 0.931 . S
H1041 C1028 0.929 . S
H1042 C1036 0.929 . S
H1043 C1037 0.930 . S
Mn1044 O1049 2.095 . S
Mn1044 O1059 2.162 . S
Mn1044 O1060 2.297 . S
Mn1044 O1068 2.385 . S
Mn1044 O1069 2.209 . S
Mn1044 O1070 2.094 . S
Mn1045 O1050 2.121 . S
Mn1045 N1052 2.257 . S
Mn1045 N1061 2.282 . S
Mn1045 O1069 2.215 . S
Mn1045 O1071 2.117 . S
C1046 O1068 1.234 . S
C1046 O1069 1.283 . S
C1047 O1059 1.281 . S
C1047 O1060 1.236 . S
C1048 O1070 1.240 . S
C1048 O1071 1.264 . S
O1049 Mn1044 2.095 . S
O1049 C1058 1.250 . S
O1050 Mn1045 2.121 . S
O1050 C1058 1.258 . S
C1051 N1052 1.326 . S
C1051 C1055 1.460 . S
C1051 H1057 0.929 . S
N1052 Mn1045 2.257 . S
N1052 C1051 1.326 . S
N1052 C1056 1.362 . S
C1053 C1054 1.258 . S
C1053 C1056 1.431 . S
C1053 C1073 1.449 . S
C1054 C1053 1.258 . S
C1054 C1055 1.477 . S
C1054 H1074 0.931 . S
C1055 C1051 1.460 . S
C1055 C1054 1.477 . S
C1055 H1075 0.930 . S
C1056 N1052 1.362 . S
C1056 C1053 1.431 . S
C1056 C1066 1.476 . S
H1057 C1051 0.929 . S
C1058 O1049 1.250 . S
C1058 O1050 1.258 . S
O1059 Mn1044 2.162 . S
O1059 C1047 1.281 . S
O1060 Mn1044 2.297 . S
O1060 C1047 1.236 . S
N1061 Mn1045 2.282 . S
N1061 C1062 1.328 . S
N1061 C1066 1.318 . S
C1062 N1061 1.328 . S
C1062 C1063 1.457 . S
C1062 H1067 0.929 . S
C1063 C1062 1.457 . S
C1063 C1064 1.291 . S
C1063 H1076 0.931 . S
C1064 C1063 1.291 . S
C1064 C1065 1.373 . S
C1064 H1077 0.929 . S
C1065 C1064 1.373 . S
C1065 C1066 1.396 . S
C1065 C1072 1.403 . S
C1066 C1056 1.476 . S
C1066 N1061 1.318 . S
C1066 C1065 1.396 . S
H1067 C1062 0.929 . S
O1068 Mn1044 2.385 . S
O1068 C1046 1.234 . S
O1069 Mn1044 2.209 . S
O1069 Mn1045 2.215 . S
O1069 C1046 1.283 . S
O1070 Mn1044 2.094 . S
O1070 C1048 1.240 . S
O1071 Mn1045 2.117 . S
O1071 C1048 1.264 . S
C1072 C1065 1.403 . S
C1072 C1073 1.399 . S
C1072 H1078 0.929 . S
C1073 C1053 1.449 . S
C1073 C1072 1.399 . S
C1073 H1079 0.930 . S
H1074 C1054 0.931 . S
H1075 C1055 0.930 . S
H1076 C1063 0.931 . S
H1077 C1064 0.929 . S
H1078 C1072 0.929 . S
H1079 C1073 0.930 . S
Mn1080 O1085 2.095 . S
Mn1080 O1095 2.162 . S
Mn1080 O1096 2.297 . S
Mn1080 O1104 2.385 . S
Mn1080 O1105 2.209 . S
Mn1080 O1106 2.094 . S
Mn1081 O1086 2.121 . S
Mn1081 N1088 2.257 . S
Mn1081 N1097 2.282 . S
Mn1081 O1105 2.215 . S
Mn1081 O1107 2.117 . S
C1082 O1104 1.234 . S
C1082 O1105 1.283 . S
C1083 O1095 1.281 . S
C1083 O1096 1.236 . S
C1084 O1106 1.240 . S
C1084 O1107 1.264 . S
O1085 Mn1080 2.095 . S
O1085 C1094 1.250 . S
O1086 Mn1081 2.121 . S
O1086 C1094 1.258 . S
C1087 N1088 1.326 . S
C1087 C1091 1.460 . S
C1087 H1093 0.929 . S
N1088 Mn1081 2.257 . S
N1088 C1087 1.326 . S
N1088 C1092 1.362 . S
C1089 C1090 1.258 . S
C1089 C1092 1.431 . S
C1089 C1109 1.449 . S
C1090 C1089 1.258 . S
C1090 C1091 1.477 . S
C1090 H1110 0.931 . S
C1091 C1087 1.460 . S
C1091 C1090 1.477 . S
C1091 H1111 0.930 . S
C1092 N1088 1.362 . S
C1092 C1089 1.431 . S
C1092 C1102 1.476 . S
H1093 C1087 0.929 . S
C1094 O1085 1.250 . S
C1094 O1086 1.258 . S
O1095 Mn1080 2.162 . S
O1095 C1083 1.281 . S
O1096 Mn1080 2.297 . S
O1096 C1083 1.236 . S
N1097 Mn1081 2.282 . S
N1097 C1098 1.328 . S
N1097 C1102 1.318 . S
C1098 N1097 1.328 . S
C1098 C1099 1.457 . S
C1098 H1103 0.929 . S
C1099 C1098 1.457 . S
C1099 C1100 1.291 . S
C1099 H1112 0.931 . S
C1100 C1099 1.291 . S
C1100 C1101 1.373 . S
C1100 H1113 0.929 . S
C1101 C1100 1.373 . S
C1101 C1102 1.396 . S
C1101 C1108 1.403 . S
C1102 C1092 1.476 . S
C1102 N1097 1.318 . S
C1102 C1101 1.396 . S
H1103 C1098 0.929 . S
O1104 Mn1080 2.385 . S
O1104 C1082 1.234 . S
O1105 Mn1080 2.209 . S
O1105 Mn1081 2.215 . S
O1105 C1082 1.283 . S
O1106 Mn1080 2.094 . S
O1106 C1084 1.240 . S
O1107 Mn1081 2.117 . S
O1107 C1084 1.264 . S
C1108 C1101 1.403 . S
C1108 C1109 1.399 . S
C1108 H1114 0.929 . S
C1109 C1089 1.449 . S
C1109 C1108 1.399 . S
C1109 H1115 0.930 . S
H1110 C1090 0.931 . S
H1111 C1091 0.930 . S
H1112 C1099 0.931 . S
H1113 C1100 0.929 . S
H1114 C1108 0.929 . S
H1115 C1109 0.930 . S
Mn1116 O1121 2.095 . S
Mn1116 O1131 2.162 . S
Mn1116 O1132 2.297 . S
Mn1116 O1140 2.385 . S
Mn1116 O1141 2.209 . S
Mn1116 O1142 2.094 . S
Mn1117 O1122 2.121 . S
Mn1117 N1124 2.257 . S
Mn1117 N1133 2.282 . S
Mn1117 O1141 2.215 . S
Mn1117 O1143 2.117 . S
C1118 O1140 1.234 . S
C1118 O1141 1.283 . S
C1119 O1131 1.281 . S
C1119 O1132 1.236 . S
C1120 O1142 1.240 . S
C1120 O1143 1.264 . S
O1121 Mn1116 2.095 . S
O1121 C1130 1.250 . S
O1122 Mn1117 2.121 . S
O1122 C1130 1.258 . S
C1123 N1124 1.326 . S
C1123 C1127 1.460 . S
C1123 H1129 0.929 . S
N1124 Mn1117 2.257 . S
N1124 C1123 1.326 . S
N1124 C1128 1.362 . S
C1125 C1126 1.258 . S
C1125 C1128 1.431 . S
C1125 C1145 1.449 . S
C1126 C1125 1.258 . S
C1126 C1127 1.477 . S
C1126 H1146 0.931 . S
C1127 C1123 1.460 . S
C1127 C1126 1.477 . S
C1127 H1147 0.930 . S
C1128 N1124 1.362 . S
C1128 C1125 1.431 . S
C1128 C1138 1.476 . S
H1129 C1123 0.929 . S
C1130 O1121 1.250 . S
C1130 O1122 1.258 . S
O1131 Mn1116 2.162 . S
O1131 C1119 1.281 . S
O1132 Mn1116 2.297 . S
O1132 C1119 1.236 . S
N1133 Mn1117 2.282 . S
N1133 C1134 1.328 . S
N1133 C1138 1.318 . S
C1134 N1133 1.328 . S
C1134 C1135 1.457 . S
C1134 H1139 0.929 . S
C1135 C1134 1.457 . S
C1135 C1136 1.291 . S
C1135 H1148 0.931 . S
C1136 C1135 1.291 . S
C1136 C1137 1.373 . S
C1136 H1149 0.929 . S
C1137 C1136 1.373 . S
C1137 C1138 1.396 . S
C1137 C1144 1.403 . S
C1138 C1128 1.476 . S
C1138 N1133 1.318 . S
C1138 C1137 1.396 . S
H1139 C1134 0.929 . S
O1140 Mn1116 2.385 . S
O1140 C1118 1.234 . S
O1141 Mn1116 2.209 . S
O1141 Mn1117 2.215 . S
O1141 C1118 1.283 . S
O1142 Mn1116 2.094 . S
O1142 C1120 1.240 . S
O1143 Mn1117 2.117 . S
O1143 C1120 1.264 . S
C1144 C1137 1.403 . S
C1144 C1145 1.399 . S
C1144 H1150 0.929 . S
C1145 C1125 1.449 . S
C1145 C1144 1.399 . S
C1145 H1151 0.930 . S
H1146 C1126 0.931 . S
H1147 C1127 0.930 . S
H1148 C1135 0.931 . S
H1149 C1136 0.929 . S
H1150 C1144 0.929 . S
H1151 C1145 0.930 . S
Mn1152 O1157 2.095 . S
Mn1152 O1167 2.162 . S
Mn1152 O1168 2.297 . S
Mn1152 O1176 2.385 . S
Mn1152 O1177 2.209 . S
Mn1152 O1178 2.094 . S
Mn1153 O1158 2.121 . S
Mn1153 N1160 2.257 . S
Mn1153 N1169 2.282 . S
Mn1153 O1177 2.215 . S
Mn1153 O1179 2.117 . S
C1154 O1176 1.234 . S
C1154 O1177 1.283 . S
C1155 O1167 1.281 . S
C1155 O1168 1.236 . S
C1156 O1178 1.240 . S
C1156 O1179 1.264 . S
O1157 Mn1152 2.095 . S
O1157 C1166 1.250 . S
O1158 Mn1153 2.121 . S
O1158 C1166 1.258 . S
C1159 N1160 1.326 . S
C1159 C1163 1.460 . S
C1159 H1165 0.929 . S
N1160 Mn1153 2.257 . S
N1160 C1159 1.326 . S
N1160 C1164 1.362 . S
C1161 C1162 1.258 . S
C1161 C1164 1.431 . S
C1161 C1181 1.449 . S
C1162 C1161 1.258 . S
C1162 C1163 1.477 . S
C1162 H1182 0.931 . S
C1163 C1159 1.460 . S
C1163 C1162 1.477 . S
C1163 H1183 0.930 . S
C1164 N1160 1.362 . S
C1164 C1161 1.431 . S
C1164 C1174 1.476 . S
H1165 C1159 0.929 . S
C1166 O1157 1.250 . S
C1166 O1158 1.258 . S
O1167 Mn1152 2.162 . S
O1167 C1155 1.281 . S
O1168 Mn1152 2.297 . S
O1168 C1155 1.236 . S
N1169 Mn1153 2.282 . S
N1169 C1170 1.328 . S
N1169 C1174 1.318 . S
C1170 N1169 1.328 . S
C1170 C1171 1.457 . S
C1170 H1175 0.929 . S
C1171 C1170 1.457 . S
C1171 C1172 1.291 . S
C1171 H1184 0.931 . S
C1172 C1171 1.291 . S
C1172 C1173 1.373 . S
C1172 H1185 0.929 . S
C1173 C1172 1.373 . S
C1173 C1174 1.396 . S
C1173 C1180 1.403 . S
C1174 C1164 1.476 . S
C1174 N1169 1.318 . S
C1174 C1173 1.396 . S
H1175 C1170 0.929 . S
O1176 Mn1152 2.385 . S
O1176 C1154 1.234 . S
O1177 Mn1152 2.209 . S
O1177 Mn1153 2.215 . S
O1177 C1154 1.283 . S
O1178 Mn1152 2.094 . S
O1178 C1156 1.240 . S
O1179 Mn1153 2.117 . S
O1179 C1156 1.264 . S
C1180 C1173 1.403 . S
C1180 C1181 1.399 . S
C1180 H1186 0.929 . S
C1181 C1161 1.449 . S
C1181 C1180 1.399 . S
C1181 H1187 0.930 . S
H1182 C1162 0.931 . S
H1183 C1163 0.930 . S
H1184 C1171 0.931 . S
H1185 C1172 0.929 . S
H1186 C1180 0.929 . S
H1187 C1181 0.930 . S
Mn1188 O1193 2.095 . S
Mn1188 O1203 2.162 . S
Mn1188 O1204 2.297 . S
Mn1188 O1212 2.385 . S
Mn1188 O1213 2.209 . S
Mn1188 O1214 2.094 . S
Mn1189 O1194 2.121 . S
Mn1189 N1196 2.257 . S
Mn1189 N1205 2.282 . S
Mn1189 O1213 2.215 . S
Mn1189 O1215 2.117 . S
C1190 O1212 1.234 . S
C1190 O1213 1.283 . S
C1191 O1203 1.281 . S
C1191 O1204 1.236 . S
C1192 O1214 1.240 . S
C1192 O1215 1.264 . S
O1193 Mn1188 2.095 . S
O1193 C1202 1.250 . S
O1194 Mn1189 2.121 . S
O1194 C1202 1.258 . S
C1195 N1196 1.326 . S
C1195 C1199 1.460 . S
C1195 H1201 0.929 . S
N1196 Mn1189 2.257 . S
N1196 C1195 1.326 . S
N1196 C1200 1.362 . S
C1197 C1198 1.258 . S
C1197 C1200 1.431 . S
C1197 C1217 1.449 . S
C1198 C1197 1.258 . S
C1198 C1199 1.477 . S
C1198 H1218 0.931 . S
C1199 C1195 1.460 . S
C1199 C1198 1.477 . S
C1199 H1219 0.930 . S
C1200 N1196 1.362 . S
C1200 C1197 1.431 . S
C1200 C1210 1.476 . S
H1201 C1195 0.929 . S
C1202 O1193 1.250 . S
C1202 O1194 1.258 . S
O1203 Mn1188 2.162 . S
O1203 C1191 1.281 . S
O1204 Mn1188 2.297 . S
O1204 C1191 1.236 . S
N1205 Mn1189 2.282 . S
N1205 C1206 1.328 . S
N1205 C1210 1.318 . S
C1206 N1205 1.328 . S
C1206 C1207 1.457 . S
C1206 H1211 0.929 . S
C1207 C1206 1.457 . S
C1207 C1208 1.291 . S
C1207 H1220 0.931 . S
C1208 C1207 1.291 . S
C1208 C1209 1.373 . S
C1208 H1221 0.929 . S
C1209 C1208 1.373 . S
C1209 C1210 1.396 . S
C1209 C1216 1.403 . S
C1210 C1200 1.476 . S
C1210 N1205 1.318 . S
C1210 C1209 1.396 . S
H1211 C1206 0.929 . S
O1212 Mn1188 2.385 . S
O1212 C1190 1.234 . S
O1213 Mn1188 2.209 . S
O1213 Mn1189 2.215 . S
O1213 C1190 1.283 . S
O1214 Mn1188 2.094 . S
O1214 C1192 1.240 . S
O1215 Mn1189 2.117 . S
O1215 C1192 1.264 . S
C1216 C1209 1.403 . S
C1216 C1217 1.399 . S
C1216 H1222 0.929 . S
C1217 C1197 1.449 . S
C1217 C1216 1.399 . S
C1217 H1223 0.930 . S
H1218 C1198 0.931 . S
H1219 C1199 0.930 . S
H1220 C1207 0.931 . S
H1221 C1208 0.929 . S
H1222 C1216 0.929 . S
H1223 C1217 0.930 . S
Mn1224 O1229 2.095 . S
Mn1224 O1239 2.162 . S
Mn1224 O1240 2.297 . S
Mn1224 O1248 2.385 . S
Mn1224 O1249 2.209 . S
Mn1224 O1250 2.094 . S
Mn1225 O1230 2.121 . S
Mn1225 N1232 2.257 . S
Mn1225 N1241 2.282 . S
Mn1225 O1249 2.215 . S
Mn1225 O1251 2.117 . S
C1226 O1248 1.234 . S
C1226 O1249 1.283 . S
C1227 O1239 1.281 . S
C1227 O1240 1.236 . S
C1228 O1250 1.240 . S
C1228 O1251 1.264 . S
O1229 Mn1224 2.095 . S
O1229 C1238 1.250 . S
O1230 Mn1225 2.121 . S
O1230 C1238 1.258 . S
C1231 N1232 1.326 . S
C1231 C1235 1.460 . S
C1231 H1237 0.929 . S
N1232 Mn1225 2.257 . S
N1232 C1231 1.326 . S
N1232 C1236 1.362 . S
C1233 C1234 1.258 . S
C1233 C1236 1.431 . S
C1233 C1253 1.449 . S
C1234 C1233 1.258 . S
C1234 C1235 1.477 . S
C1234 H1254 0.931 . S
C1235 C1231 1.460 . S
C1235 C1234 1.477 . S
C1235 H1255 0.930 . S
C1236 N1232 1.362 . S
C1236 C1233 1.431 . S
C1236 C1246 1.476 . S
H1237 C1231 0.929 . S
C1238 O1229 1.250 . S
C1238 O1230 1.258 . S
O1239 Mn1224 2.162 . S
O1239 C1227 1.281 . S
O1240 Mn1224 2.297 . S
O1240 C1227 1.236 . S
N1241 Mn1225 2.282 . S
N1241 C1242 1.328 . S
N1241 C1246 1.318 . S
C1242 N1241 1.328 . S
C1242 C1243 1.457 . S
C1242 H1247 0.929 . S
C1243 C1242 1.457 . S
C1243 C1244 1.291 . S
C1243 H1256 0.931 . S
C1244 C1243 1.291 . S
C1244 C1245 1.373 . S
C1244 H1257 0.929 . S
C1245 C1244 1.373 . S
C1245 C1246 1.396 . S
C1245 C1252 1.403 . S
C1246 C1236 1.476 . S
C1246 N1241 1.318 . S
C1246 C1245 1.396 . S
H1247 C1242 0.929 . S
O1248 Mn1224 2.385 . S
O1248 C1226 1.234 . S
O1249 Mn1224 2.209 . S
O1249 Mn1225 2.215 . S
O1249 C1226 1.283 . S
O1250 Mn1224 2.094 . S
O1250 C1228 1.240 . S
O1251 Mn1225 2.117 . S
O1251 C1228 1.264 . S
C1252 C1245 1.403 . S
C1252 C1253 1.399 . S
C1252 H1258 0.929 . S
C1253 C1233 1.449 . S
C1253 C1252 1.399 . S
C1253 H1259 0.930 . S
H1254 C1234 0.931 . S
H1255 C1235 0.930 . S
H1256 C1243 0.931 . S
H1257 C1244 0.929 . S
H1258 C1252 0.929 . S
H1259 C1253 0.930 . S
Mn1260 O1265 2.095 . S
Mn1260 O1275 2.162 . S
Mn1260 O1276 2.297 . S
Mn1260 O1284 2.385 . S
Mn1260 O1285 2.209 . S
Mn1260 O1286 2.094 . S
Mn1261 O1266 2.121 . S
Mn1261 N1268 2.257 . S
Mn1261 N1277 2.282 . S
Mn1261 O1285 2.215 . S
Mn1261 O1287 2.117 . S
C1262 O1284 1.234 . S
C1262 O1285 1.283 . S
C1263 O1275 1.281 . S
C1263 O1276 1.236 . S
C1264 O1286 1.240 . S
C1264 O1287 1.264 . S
O1265 Mn1260 2.095 . S
O1265 C1274 1.250 . S
O1266 Mn1261 2.121 . S
O1266 C1274 1.258 . S
C1267 N1268 1.326 . S
C1267 C1271 1.460 . S
C1267 H1273 0.929 . S
N1268 Mn1261 2.257 . S
N1268 C1267 1.326 . S
N1268 C1272 1.362 . S
C1269 C1270 1.258 . S
C1269 C1272 1.431 . S
C1269 C1289 1.449 . S
C1270 C1269 1.258 . S
C1270 C1271 1.477 . S
C1270 H1290 0.931 . S
C1271 C1267 1.460 . S
C1271 C1270 1.477 . S
C1271 H1291 0.930 . S
C1272 N1268 1.362 . S
C1272 C1269 1.431 . S
C1272 C1282 1.476 . S
H1273 C1267 0.929 . S
C1274 O1265 1.250 . S
C1274 O1266 1.258 . S
O1275 Mn1260 2.162 . S
O1275 C1263 1.281 . S
O1276 Mn1260 2.297 . S
O1276 C1263 1.236 . S
N1277 Mn1261 2.282 . S
N1277 C1278 1.328 . S
N1277 C1282 1.318 . S
C1278 N1277 1.328 . S
C1278 C1279 1.457 . S
C1278 H1283 0.929 . S
C1279 C1278 1.457 . S
C1279 C1280 1.291 . S
C1279 H1292 0.931 . S
C1280 C1279 1.291 . S
C1280 C1281 1.373 . S
C1280 H1293 0.929 . S
C1281 C1280 1.373 . S
C1281 C1282 1.396 . S
C1281 C1288 1.403 . S
C1282 C1272 1.476 . S
C1282 N1277 1.318 . S
C1282 C1281 1.396 . S
H1283 C1278 0.929 . S
O1284 Mn1260 2.385 . S
O1284 C1262 1.234 . S
O1285 Mn1260 2.209 . S
O1285 Mn1261 2.215 . S
O1285 C1262 1.283 . S
O1286 Mn1260 2.094 . S
O1286 C1264 1.240 . S
O1287 Mn1261 2.117 . S
O1287 C1264 1.264 . S
C1288 C1281 1.403 . S
C1288 C1289 1.399 . S
C1288 H1294 0.929 . S
C1289 C1269 1.449 . S
C1289 C1288 1.399 . S
C1289 H1295 0.930 . S
H1290 C1270 0.931 . S
H1291 C1271 0.930 . S
H1292 C1279 0.931 . S
H1293 C1280 0.929 . S
H1294 C1288 0.929 . S
H1295 C1289 0.930 . S
Mn1296 O1301 2.095 . S
Mn1296 O1311 2.162 . S
Mn1296 O1312 2.297 . S
Mn1296 O1320 2.385 . S
Mn1296 O1321 2.209 . S
Mn1296 O1322 2.094 . S
Mn1297 O1302 2.121 . S
Mn1297 N1304 2.257 . S
Mn1297 N1313 2.282 . S
Mn1297 O1321 2.215 . S
Mn1297 O1323 2.117 . S
C1298 O1320 1.234 . S
C1298 O1321 1.283 . S
C1299 O1311 1.281 . S
C1299 O1312 1.236 . S
C1300 O1322 1.240 . S
C1300 O1323 1.264 . S
O1301 Mn1296 2.095 . S
O1301 C1310 1.250 . S
O1302 Mn1297 2.121 . S
O1302 C1310 1.258 . S
C1303 N1304 1.326 . S
C1303 C1307 1.460 . S
C1303 H1309 0.929 . S
N1304 Mn1297 2.257 . S
N1304 C1303 1.326 . S
N1304 C1308 1.362 . S
C1305 C1306 1.258 . S
C1305 C1308 1.431 . S
C1305 C1325 1.449 . S
C1306 C1305 1.258 . S
C1306 C1307 1.477 . S
C1306 H1326 0.931 . S
C1307 C1303 1.460 . S
C1307 C1306 1.477 . S
C1307 H1327 0.930 . S
C1308 N1304 1.362 . S
C1308 C1305 1.431 . S
C1308 C1318 1.476 . S
H1309 C1303 0.929 . S
C1310 O1301 1.250 . S
C1310 O1302 1.258 . S
O1311 Mn1296 2.162 . S
O1311 C1299 1.281 . S
O1312 Mn1296 2.297 . S
O1312 C1299 1.236 . S
N1313 Mn1297 2.282 . S
N1313 C1314 1.328 . S
N1313 C1318 1.318 . S
C1314 N1313 1.328 . S
C1314 C1315 1.457 . S
C1314 H1319 0.929 . S
C1315 C1314 1.457 . S
C1315 C1316 1.291 . S
C1315 H1328 0.931 . S
C1316 C1315 1.291 . S
C1316 C1317 1.373 . S
C1316 H1329 0.929 . S
C1317 C1316 1.373 . S
C1317 C1318 1.396 . S
C1317 C1324 1.403 . S
C1318 C1308 1.476 . S
C1318 N1313 1.318 . S
C1318 C1317 1.396 . S
H1319 C1314 0.929 . S
O1320 Mn1296 2.385 . S
O1320 C1298 1.234 . S
O1321 Mn1296 2.209 . S
O1321 Mn1297 2.215 . S
O1321 C1298 1.283 . S
O1322 Mn1296 2.094 . S
O1322 C1300 1.240 . S
O1323 Mn1297 2.117 . S
O1323 C1300 1.264 . S
C1324 C1317 1.403 . S
C1324 C1325 1.399 . S
C1324 H1330 0.929 . S
C1325 C1305 1.449 . S
C1325 C1324 1.399 . S
C1325 H1331 0.930 . S
H1326 C1306 0.931 . S
H1327 C1307 0.930 . S
H1328 C1315 0.931 . S
H1329 C1316 0.929 . S
H1330 C1324 0.929 . S
H1331 C1325 0.930 . S
Mn1332 O1337 2.095 . S
Mn1332 O1347 2.162 . S
Mn1332 O1348 2.297 . S
Mn1332 O1356 2.385 . S
Mn1332 O1357 2.209 . S
Mn1332 O1358 2.094 . S
Mn1333 O1338 2.121 . S
Mn1333 N1340 2.257 . S
Mn1333 N1349 2.282 . S
Mn1333 O1357 2.215 . S
Mn1333 O1359 2.117 . S
C1334 O1356 1.234 . S
C1334 O1357 1.283 . S
C1335 O1347 1.281 . S
C1335 O1348 1.236 . S
C1336 O1358 1.240 . S
C1336 O1359 1.264 . S
O1337 Mn1332 2.095 . S
O1337 C1346 1.250 . S
O1338 Mn1333 2.121 . S
O1338 C1346 1.258 . S
C1339 N1340 1.326 . S
C1339 C1343 1.460 . S
C1339 H1345 0.929 . S
N1340 Mn1333 2.257 . S
N1340 C1339 1.326 . S
N1340 C1344 1.362 . S
C1341 C1342 1.258 . S
C1341 C1344 1.431 . S
C1341 C1361 1.449 . S
C1342 C1341 1.258 . S
C1342 C1343 1.477 . S
C1342 H1362 0.931 . S
C1343 C1339 1.460 . S
C1343 C1342 1.477 . S
C1343 H1363 0.930 . S
C1344 N1340 1.362 . S
C1344 C1341 1.431 . S
C1344 C1354 1.476 . S
H1345 C1339 0.929 . S
C1346 O1337 1.250 . S
C1346 O1338 1.258 . S
O1347 Mn1332 2.162 . S
O1347 C1335 1.281 . S
O1348 Mn1332 2.297 . S
O1348 C1335 1.236 . S
N1349 Mn1333 2.282 . S
N1349 C1350 1.328 . S
N1349 C1354 1.318 . S
C1350 N1349 1.328 . S
C1350 C1351 1.457 . S
C1350 H1355 0.929 . S
C1351 C1350 1.457 . S
C1351 C1352 1.291 . S
C1351 H1364 0.931 . S
C1352 C1351 1.291 . S
C1352 C1353 1.373 . S
C1352 H1365 0.929 . S
C1353 C1352 1.373 . S
C1353 C1354 1.396 . S
C1353 C1360 1.403 . S
C1354 C1344 1.476 . S
C1354 N1349 1.318 . S
C1354 C1353 1.396 . S
H1355 C1350 0.929 . S
O1356 Mn1332 2.385 . S
O1356 C1334 1.234 . S
O1357 Mn1332 2.209 . S
O1357 Mn1333 2.215 . S
O1357 C1334 1.283 . S
O1358 Mn1332 2.094 . S
O1358 C1336 1.240 . S
O1359 Mn1333 2.117 . S
O1359 C1336 1.264 . S
C1360 C1353 1.403 . S
C1360 C1361 1.399 . S
C1360 H1366 0.929 . S
C1361 C1341 1.449 . S
C1361 C1360 1.399 . S
C1361 H1367 0.930 . S
H1362 C1342 0.931 . S
H1363 C1343 0.930 . S
H1364 C1351 0.931 . S
H1365 C1352 0.929 . S
H1366 C1360 0.929 . S
H1367 C1361 0.930 . S
Mn1368 O1373 2.095 . S
Mn1368 O1383 2.162 . S
Mn1368 O1384 2.297 . S
Mn1368 O1392 2.385 . S
Mn1368 O1393 2.209 . S
Mn1368 O1394 2.094 . S
Mn1369 O1374 2.121 . S
Mn1369 N1376 2.257 . S
Mn1369 N1385 2.282 . S
Mn1369 O1393 2.215 . S
Mn1369 O1395 2.117 . S
C1370 O1392 1.234 . S
C1370 O1393 1.283 . S
C1371 O1383 1.281 . S
C1371 O1384 1.236 . S
C1372 O1394 1.240 . S
C1372 O1395 1.264 . S
O1373 Mn1368 2.095 . S
O1373 C1382 1.250 . S
O1374 Mn1369 2.121 . S
O1374 C1382 1.258 . S
C1375 N1376 1.326 . S
C1375 C1379 1.460 . S
C1375 H1381 0.929 . S
N1376 Mn1369 2.257 . S
N1376 C1375 1.326 . S
N1376 C1380 1.362 . S
C1377 C1378 1.258 . S
C1377 C1380 1.431 . S
C1377 C1397 1.449 . S
C1378 C1377 1.258 . S
C1378 C1379 1.477 . S
C1378 H1398 0.931 . S
C1379 C1375 1.460 . S
C1379 C1378 1.477 . S
C1379 H1399 0.930 . S
C1380 N1376 1.362 . S
C1380 C1377 1.431 . S
C1380 C1390 1.476 . S
H1381 C1375 0.929 . S
C1382 O1373 1.250 . S
C1382 O1374 1.258 . S
O1383 Mn1368 2.162 . S
O1383 C1371 1.281 . S
O1384 Mn1368 2.297 . S
O1384 C1371 1.236 . S
N1385 Mn1369 2.282 . S
N1385 C1386 1.328 . S
N1385 C1390 1.318 . S
C1386 N1385 1.328 . S
C1386 C1387 1.457 . S
C1386 H1391 0.929 . S
C1387 C1386 1.457 . S
C1387 C1388 1.291 . S
C1387 H1400 0.931 . S
C1388 C1387 1.291 . S
C1388 C1389 1.373 . S
C1388 H1401 0.929 . S
C1389 C1388 1.373 . S
C1389 C1390 1.396 . S
C1389 C1396 1.403 . S
C1390 C1380 1.476 . S
C1390 N1385 1.318 . S
C1390 C1389 1.396 . S
H1391 C1386 0.929 . S
O1392 Mn1368 2.385 . S
O1392 C1370 1.234 . S
O1393 Mn1368 2.209 . S
O1393 Mn1369 2.215 . S
O1393 C1370 1.283 . S
O1394 Mn1368 2.094 . S
O1394 C1372 1.240 . S
O1395 Mn1369 2.117 . S
O1395 C1372 1.264 . S
C1396 C1389 1.403 . S
C1396 C1397 1.399 . S
C1396 H1402 0.929 . S
C1397 C1377 1.449 . S
C1397 C1396 1.399 . S
C1397 H1403 0.930 . S
H1398 C1378 0.931 . S
H1399 C1379 0.930 . S
H1400 C1387 0.931 . S
H1401 C1388 0.929 . S
H1402 C1396 0.929 . S
H1403 C1397 0.930 . S
Mn1404 O1409 2.095 . S
Mn1404 O1419 2.162 . S
Mn1404 O1420 2.297 . S
Mn1404 O1428 2.385 . S
Mn1404 O1429 2.209 . S
Mn1404 O1430 2.094 . S
Mn1405 O1410 2.121 . S
Mn1405 N1412 2.257 . S
Mn1405 N1421 2.282 . S
Mn1405 O1429 2.215 . S
Mn1405 O1431 2.117 . S
C1406 O1428 1.234 . S
C1406 O1429 1.283 . S
C1407 O1419 1.281 . S
C1407 O1420 1.236 . S
C1408 O1430 1.240 . S
C1408 O1431 1.264 . S
O1409 Mn1404 2.095 . S
O1409 C1418 1.250 . S
O1410 Mn1405 2.121 . S
O1410 C1418 1.258 . S
C1411 N1412 1.326 . S
C1411 C1415 1.460 . S
C1411 H1417 0.929 . S
N1412 Mn1405 2.257 . S
N1412 C1411 1.326 . S
N1412 C1416 1.362 . S
C1413 C1414 1.258 . S
C1413 C1416 1.431 . S
C1413 C1433 1.449 . S
C1414 C1413 1.258 . S
C1414 C1415 1.477 . S
C1414 H1434 0.931 . S
C1415 C1411 1.460 . S
C1415 C1414 1.477 . S
C1415 H1435 0.930 . S
C1416 N1412 1.362 . S
C1416 C1413 1.431 . S
C1416 C1426 1.476 . S
H1417 C1411 0.929 . S
C1418 O1409 1.250 . S
C1418 O1410 1.258 . S
O1419 Mn1404 2.162 . S
O1419 C1407 1.281 . S
O1420 Mn1404 2.297 . S
O1420 C1407 1.236 . S
N1421 Mn1405 2.282 . S
N1421 C1422 1.328 . S
N1421 C1426 1.318 . S
C1422 N1421 1.328 . S
C1422 C1423 1.457 . S
C1422 H1427 0.929 . S
C1423 C1422 1.457 . S
C1423 C1424 1.291 . S
C1423 H1436 0.931 . S
C1424 C1423 1.291 . S
C1424 C1425 1.373 . S
C1424 H1437 0.929 . S
C1425 C1424 1.373 . S
C1425 C1426 1.396 . S
C1425 C1432 1.403 . S
C1426 C1416 1.476 . S
C1426 N1421 1.318 . S
C1426 C1425 1.396 . S
H1427 C1422 0.929 . S
O1428 Mn1404 2.385 . S
O1428 C1406 1.234 . S
O1429 Mn1404 2.209 . S
O1429 Mn1405 2.215 . S
O1429 C1406 1.283 . S
O1430 Mn1404 2.094 . S
O1430 C1408 1.240 . S
O1431 Mn1405 2.117 . S
O1431 C1408 1.264 . S
C1432 C1425 1.403 . S
C1432 C1433 1.399 . S
C1432 H1438 0.929 . S
C1433 C1413 1.449 . S
C1433 C1432 1.399 . S
C1433 H1439 0.930 . S
H1434 C1414 0.931 . S
H1435 C1415 0.930 . S
H1436 C1423 0.931 . S
H1437 C1424 0.929 . S
H1438 C1432 0.929 . S
H1439 C1433 0.930 . S
Mn1440 O1445 2.095 . S
Mn1440 O1455 2.162 . S
Mn1440 O1456 2.297 . S
Mn1440 O1464 2.385 . S
Mn1440 O1465 2.209 . S
Mn1440 O1466 2.094 . S
Mn1441 O1446 2.121 . S
Mn1441 N1448 2.257 . S
Mn1441 N1457 2.282 . S
Mn1441 O1465 2.215 . S
Mn1441 O1467 2.117 . S
C1442 O1464 1.234 . S
C1442 O1465 1.283 . S
C1443 O1455 1.281 . S
C1443 O1456 1.236 . S
C1444 O1466 1.240 . S
C1444 O1467 1.264 . S
O1445 Mn1440 2.095 . S
O1445 C1454 1.250 . S
O1446 Mn1441 2.121 . S
O1446 C1454 1.258 . S
C1447 N1448 1.326 . S
C1447 C1451 1.460 . S
C1447 H1453 0.929 . S
N1448 Mn1441 2.257 . S
N1448 C1447 1.326 . S
N1448 C1452 1.362 . S
C1449 C1450 1.258 . S
C1449 C1452 1.431 . S
C1449 C1469 1.449 . S
C1450 C1449 1.258 . S
C1450 C1451 1.477 . S
C1450 H1470 0.931 . S
C1451 C1447 1.460 . S
C1451 C1450 1.477 . S
C1451 H1471 0.930 . S
C1452 N1448 1.362 . S
C1452 C1449 1.431 . S
C1452 C1462 1.476 . S
H1453 C1447 0.929 . S
C1454 O1445 1.250 . S
C1454 O1446 1.258 . S
O1455 Mn1440 2.162 . S
O1455 C1443 1.281 . S
O1456 Mn1440 2.297 . S
O1456 C1443 1.236 . S
N1457 Mn1441 2.282 . S
N1457 C1458 1.328 . S
N1457 C1462 1.318 . S
C1458 N1457 1.328 . S
C1458 C1459 1.457 . S
C1458 H1463 0.929 . S
C1459 C1458 1.457 . S
C1459 C1460 1.291 . S
C1459 H1472 0.931 . S
C1460 C1459 1.291 . S
C1460 C1461 1.373 . S
C1460 H1473 0.929 . S
C1461 C1460 1.373 . S
C1461 C1462 1.396 . S
C1461 C1468 1.403 . S
C1462 C1452 1.476 . S
C1462 N1457 1.318 . S
C1462 C1461 1.396 . S
H1463 C1458 0.929 . S
O1464 Mn1440 2.385 . S
O1464 C1442 1.234 . S
O1465 Mn1440 2.209 . S
O1465 Mn1441 2.215 . S
O1465 C1442 1.283 . S
O1466 Mn1440 2.094 . S
O1466 C1444 1.240 . S
O1467 Mn1441 2.117 . S
O1467 C1444 1.264 . S
C1468 C1461 1.403 . S
C1468 C1469 1.399 . S
C1468 H1474 0.929 . S
C1469 C1449 1.449 . S
C1469 C1468 1.399 . S
C1469 H1475 0.930 . S
H1470 C1450 0.931 . S
H1471 C1451 0.930 . S
H1472 C1459 0.931 . S
H1473 C1460 0.929 . S
H1474 C1468 0.929 . S
H1475 C1469 0.930 . S
Mn1476 O1481 2.095 . S
Mn1476 O1491 2.162 . S
Mn1476 O1492 2.297 . S
Mn1476 O1500 2.385 . S
Mn1476 O1501 2.209 . S
Mn1476 O1502 2.094 . S
Mn1477 O1482 2.121 . S
Mn1477 N1484 2.257 . S
Mn1477 N1493 2.282 . S
Mn1477 O1501 2.215 . S
Mn1477 O1503 2.117 . S
C1478 O1500 1.234 . S
C1478 O1501 1.283 . S
C1479 O1491 1.281 . S
C1479 O1492 1.236 . S
C1480 O1502 1.240 . S
C1480 O1503 1.264 . S
O1481 Mn1476 2.095 . S
O1481 C1490 1.250 . S
O1482 Mn1477 2.121 . S
O1482 C1490 1.258 . S
C1483 N1484 1.326 . S
C1483 C1487 1.460 . S
C1483 H1489 0.929 . S
N1484 Mn1477 2.257 . S
N1484 C1483 1.326 . S
N1484 C1488 1.362 . S
C1485 C1486 1.258 . S
C1485 C1488 1.431 . S
C1485 C1505 1.449 . S
C1486 C1485 1.258 . S
C1486 C1487 1.477 . S
C1486 H1506 0.931 . S
C1487 C1483 1.460 . S
C1487 C1486 1.477 . S
C1487 H1507 0.930 . S
C1488 N1484 1.362 . S
C1488 C1485 1.431 . S
C1488 C1498 1.476 . S
H1489 C1483 0.929 . S
C1490 O1481 1.250 . S
C1490 O1482 1.258 . S
O1491 Mn1476 2.162 . S
O1491 C1479 1.281 . S
O1492 Mn1476 2.297 . S
O1492 C1479 1.236 . S
N1493 Mn1477 2.282 . S
N1493 C1494 1.328 . S
N1493 C1498 1.318 . S
C1494 N1493 1.328 . S
C1494 C1495 1.457 . S
C1494 H1499 0.929 . S
C1495 C1494 1.457 . S
C1495 C1496 1.291 . S
C1495 H1508 0.931 . S
C1496 C1495 1.291 . S
C1496 C1497 1.373 . S
C1496 H1509 0.929 . S
C1497 C1496 1.373 . S
C1497 C1498 1.396 . S
C1497 C1504 1.403 . S
C1498 C1488 1.476 . S
C1498 N1493 1.318 . S
C1498 C1497 1.396 . S
H1499 C1494 0.929 . S
O1500 Mn1476 2.385 . S
O1500 C1478 1.234 . S
O1501 Mn1476 2.209 . S
O1501 Mn1477 2.215 . S
O1501 C1478 1.283 . S
O1502 Mn1476 2.094 . S
O1502 C1480 1.240 . S
O1503 Mn1477 2.117 . S
O1503 C1480 1.264 . S
C1504 C1497 1.403 . S
C1504 C1505 1.399 . S
C1504 H1510 0.929 . S
C1505 C1485 1.449 . S
C1505 C1504 1.399 . S
C1505 H1511 0.930 . S
H1506 C1486 0.931 . S
H1507 C1487 0.930 . S
H1508 C1495 0.931 . S
H1509 C1496 0.929 . S
H1510 C1504 0.929 . S
H1511 C1505 0.930 . S
Mn1512 O1517 2.095 . S
Mn1512 O1527 2.162 . S
Mn1512 O1528 2.297 . S
Mn1512 O1536 2.385 . S
Mn1512 O1537 2.209 . S
Mn1512 O1538 2.094 . S
Mn1513 O1518 2.121 . S
Mn1513 N1520 2.257 . S
Mn1513 N1529 2.282 . S
Mn1513 O1537 2.215 . S
Mn1513 O1539 2.117 . S
C1514 O1536 1.234 . S
C1514 O1537 1.283 . S
C1515 O1527 1.281 . S
C1515 O1528 1.236 . S
C1516 O1538 1.240 . S
C1516 O1539 1.264 . S
O1517 Mn1512 2.095 . S
O1517 C1526 1.250 . S
O1518 Mn1513 2.121 . S
O1518 C1526 1.258 . S
C1519 N1520 1.326 . S
C1519 C1523 1.460 . S
C1519 H1525 0.929 . S
N1520 Mn1513 2.257 . S
N1520 C1519 1.326 . S
N1520 C1524 1.362 . S
C1521 C1522 1.258 . S
C1521 C1524 1.431 . S
C1521 C1541 1.449 . S
C1522 C1521 1.258 . S
C1522 C1523 1.477 . S
C1522 H1542 0.931 . S
C1523 C1519 1.460 . S
C1523 C1522 1.477 . S
C1523 H1543 0.930 . S
C1524 N1520 1.362 . S
C1524 C1521 1.431 . S
C1524 C1534 1.476 . S
H1525 C1519 0.929 . S
C1526 O1517 1.250 . S
C1526 O1518 1.258 . S
O1527 Mn1512 2.162 . S
O1527 C1515 1.281 . S
O1528 Mn1512 2.297 . S
O1528 C1515 1.236 . S
N1529 Mn1513 2.282 . S
N1529 C1530 1.328 . S
N1529 C1534 1.318 . S
C1530 N1529 1.328 . S
C1530 C1531 1.457 . S
C1530 H1535 0.929 . S
C1531 C1530 1.457 . S
C1531 C1532 1.291 . S
C1531 H1544 0.931 . S
C1532 C1531 1.291 . S
C1532 C1533 1.373 . S
C1532 H1545 0.929 . S
C1533 C1532 1.373 . S
C1533 C1534 1.396 . S
C1533 C1540 1.403 . S
C1534 C1524 1.476 . S
C1534 N1529 1.318 . S
C1534 C1533 1.396 . S
H1535 C1530 0.929 . S
O1536 Mn1512 2.385 . S
O1536 C1514 1.234 . S
O1537 Mn1512 2.209 . S
O1537 Mn1513 2.215 . S
O1537 C1514 1.283 . S
O1538 Mn1512 2.094 . S
O1538 C1516 1.240 . S
O1539 Mn1513 2.117 . S
O1539 C1516 1.264 . S
C1540 C1533 1.403 . S
C1540 C1541 1.399 . S
C1540 H1546 0.929 . S
C1541 C1521 1.449 . S
C1541 C1540 1.399 . S
C1541 H1547 0.930 . S
H1542 C1522 0.931 . S
H1543 C1523 0.930 . S
H1544 C1531 0.931 . S
H1545 C1532 0.929 . S
H1546 C1540 0.929 . S
H1547 C1541 0.930 . S
Mn1548 O1553 2.095 . S
Mn1548 O1563 2.162 . S
Mn1548 O1564 2.297 . S
Mn1548 O1572 2.385 . S
Mn1548 O1573 2.209 . S
Mn1548 O1574 2.094 . S
Mn1549 O1554 2.121 . S
Mn1549 N1556 2.257 . S
Mn1549 N1565 2.282 . S
Mn1549 O1573 2.215 . S
Mn1549 O1575 2.117 . S
C1550 O1572 1.234 . S
C1550 O1573 1.283 . S
C1551 O1563 1.281 . S
C1551 O1564 1.236 . S
C1552 O1574 1.240 . S
C1552 O1575 1.264 . S
O1553 Mn1548 2.095 . S
O1553 C1562 1.250 . S
O1554 Mn1549 2.121 . S
O1554 C1562 1.258 . S
C1555 N1556 1.326 . S
C1555 C1559 1.460 . S
C1555 H1561 0.929 . S
N1556 Mn1549 2.257 . S
N1556 C1555 1.326 . S
N1556 C1560 1.362 . S
C1557 C1558 1.258 . S
C1557 C1560 1.431 . S
C1557 C1577 1.449 . S
C1558 C1557 1.258 . S
C1558 C1559 1.477 . S
C1558 H1578 0.931 . S
C1559 C1555 1.460 . S
C1559 C1558 1.477 . S
C1559 H1579 0.930 . S
C1560 N1556 1.362 . S
C1560 C1557 1.431 . S
C1560 C1570 1.476 . S
H1561 C1555 0.929 . S
C1562 O1553 1.250 . S
C1562 O1554 1.258 . S
O1563 Mn1548 2.162 . S
O1563 C1551 1.281 . S
O1564 Mn1548 2.297 . S
O1564 C1551 1.236 . S
N1565 Mn1549 2.282 . S
N1565 C1566 1.328 . S
N1565 C1570 1.318 . S
C1566 N1565 1.328 . S
C1566 C1567 1.457 . S
C1566 H1571 0.929 . S
C1567 C1566 1.457 . S
C1567 C1568 1.291 . S
C1567 H1580 0.931 . S
C1568 C1567 1.291 . S
C1568 C1569 1.373 . S
C1568 H1581 0.929 . S
C1569 C1568 1.373 . S
C1569 C1570 1.396 . S
C1569 C1576 1.403 . S
C1570 C1560 1.476 . S
C1570 N1565 1.318 . S
C1570 C1569 1.396 . S
H1571 C1566 0.929 . S
O1572 Mn1548 2.385 . S
O1572 C1550 1.234 . S
O1573 Mn1548 2.209 . S
O1573 Mn1549 2.215 . S
O1573 C1550 1.283 . S
O1574 Mn1548 2.094 . S
O1574 C1552 1.240 . S
O1575 Mn1549 2.117 . S
O1575 C1552 1.264 . S
C1576 C1569 1.403 . S
C1576 C1577 1.399 . S
C1576 H1582 0.929 . S
C1577 C1557 1.449 . S
C1577 C1576 1.399 . S
C1577 H1583 0.930 . S
H1578 C1558 0.931 . S
H1579 C1559 0.930 . S
H1580 C1567 0.931 . S
H1581 C1568 0.929 . S
H1582 C1576 0.929 . S
H1583 C1577 0.930 . S
Mn1584 O1589 2.095 . S
Mn1584 O1599 2.162 . S
Mn1584 O1600 2.297 . S
Mn1584 O1608 2.385 . S
Mn1584 O1609 2.209 . S
Mn1584 O1610 2.094 . S
Mn1585 O1590 2.121 . S
Mn1585 N1592 2.257 . S
Mn1585 N1601 2.282 . S
Mn1585 O1609 2.215 . S
Mn1585 O1611 2.117 . S
C1586 O1608 1.234 . S
C1586 O1609 1.283 . S
C1587 O1599 1.281 . S
C1587 O1600 1.236 . S
C1588 O1610 1.240 . S
C1588 O1611 1.264 . S
O1589 Mn1584 2.095 . S
O1589 C1598 1.250 . S
O1590 Mn1585 2.121 . S
O1590 C1598 1.258 . S
C1591 N1592 1.326 . S
C1591 C1595 1.460 . S
C1591 H1597 0.929 . S
N1592 Mn1585 2.257 . S
N1592 C1591 1.326 . S
N1592 C1596 1.362 . S
C1593 C1594 1.258 . S
C1593 C1596 1.431 . S
C1593 C1613 1.449 . S
C1594 C1593 1.258 . S
C1594 C1595 1.477 . S
C1594 H1614 0.931 . S
C1595 C1591 1.460 . S
C1595 C1594 1.477 . S
C1595 H1615 0.930 . S
C1596 N1592 1.362 . S
C1596 C1593 1.431 . S
C1596 C1606 1.476 . S
H1597 C1591 0.929 . S
C1598 O1589 1.250 . S
C1598 O1590 1.258 . S
O1599 Mn1584 2.162 . S
O1599 C1587 1.281 . S
O1600 Mn1584 2.297 . S
O1600 C1587 1.236 . S
N1601 Mn1585 2.282 . S
N1601 C1602 1.328 . S
N1601 C1606 1.318 . S
C1602 N1601 1.328 . S
C1602 C1603 1.457 . S
C1602 H1607 0.929 . S
C1603 C1602 1.457 . S
C1603 C1604 1.291 . S
C1603 H1616 0.931 . S
C1604 C1603 1.291 . S
C1604 C1605 1.373 . S
C1604 H1617 0.929 . S
C1605 C1604 1.373 . S
C1605 C1606 1.396 . S
C1605 C1612 1.403 . S
C1606 C1596 1.476 . S
C1606 N1601 1.318 . S
C1606 C1605 1.396 . S
H1607 C1602 0.929 . S
O1608 Mn1584 2.385 . S
O1608 C1586 1.234 . S
O1609 Mn1584 2.209 . S
O1609 Mn1585 2.215 . S
O1609 C1586 1.283 . S
O1610 Mn1584 2.094 . S
O1610 C1588 1.240 . S
O1611 Mn1585 2.117 . S
O1611 C1588 1.264 . S
C1612 C1605 1.403 . S
C1612 C1613 1.399 . S
C1612 H1618 0.929 . S
C1613 C1593 1.449 . S
C1613 C1612 1.399 . S
C1613 H1619 0.930 . S
H1614 C1594 0.931 . S
H1615 C1595 0.930 . S
H1616 C1603 0.931 . S
H1617 C1604 0.929 . S
H1618 C1612 0.929 . S
H1619 C1613 0.930 . S
Mn1620 O1625 2.095 . S
Mn1620 O1635 2.162 . S
Mn1620 O1636 2.297 . S
Mn1620 O1644 2.385 . S
Mn1620 O1645 2.209 . S
Mn1620 O1646 2.094 . S
Mn1621 O1626 2.121 . S
Mn1621 N1628 2.257 . S
Mn1621 N1637 2.282 . S
Mn1621 O1645 2.215 . S
Mn1621 O1647 2.117 . S
C1622 O1644 1.234 . S
C1622 O1645 1.283 . S
C1623 O1635 1.281 . S
C1623 O1636 1.236 . S
C1624 O1646 1.240 . S
C1624 O1647 1.264 . S
O1625 Mn1620 2.095 . S
O1625 C1634 1.250 . S
O1626 Mn1621 2.121 . S
O1626 C1634 1.258 . S
C1627 N1628 1.326 . S
C1627 C1631 1.460 . S
C1627 H1633 0.929 . S
N1628 Mn1621 2.257 . S
N1628 C1627 1.326 . S
N1628 C1632 1.362 . S
C1629 C1630 1.258 . S
C1629 C1632 1.431 . S
C1629 C1649 1.449 . S
C1630 C1629 1.258 . S
C1630 C1631 1.477 . S
C1630 H1650 0.931 . S
C1631 C1627 1.460 . S
C1631 C1630 1.477 . S
C1631 H1651 0.930 . S
C1632 N1628 1.362 . S
C1632 C1629 1.431 . S
C1632 C1642 1.476 . S
H1633 C1627 0.929 . S
C1634 O1625 1.250 . S
C1634 O1626 1.258 . S
O1635 Mn1620 2.162 . S
O1635 C1623 1.281 . S
O1636 Mn1620 2.297 . S
O1636 C1623 1.236 . S
N1637 Mn1621 2.282 . S
N1637 C1638 1.328 . S
N1637 C1642 1.318 . S
C1638 N1637 1.328 . S
C1638 C1639 1.457 . S
C1638 H1643 0.929 . S
C1639 C1638 1.457 . S
C1639 C1640 1.291 . S
C1639 H1652 0.931 . S
C1640 C1639 1.291 . S
C1640 C1641 1.373 . S
C1640 H1653 0.929 . S
C1641 C1640 1.373 . S
C1641 C1642 1.396 . S
C1641 C1648 1.403 . S
C1642 C1632 1.476 . S
C1642 N1637 1.318 . S
C1642 C1641 1.396 . S
H1643 C1638 0.929 . S
O1644 Mn1620 2.385 . S
O1644 C1622 1.234 . S
O1645 Mn1620 2.209 . S
O1645 Mn1621 2.215 . S
O1645 C1622 1.283 . S
O1646 Mn1620 2.094 . S
O1646 C1624 1.240 . S
O1647 Mn1621 2.117 . S
O1647 C1624 1.264 . S
C1648 C1641 1.403 . S
C1648 C1649 1.399 . S
C1648 H1654 0.929 . S
C1649 C1629 1.449 . S
C1649 C1648 1.399 . S
C1649 H1655 0.930 . S
H1650 C1630 0.931 . S
H1651 C1631 0.930 . S
H1652 C1639 0.931 . S
H1653 C1640 0.929 . S
H1654 C1648 0.929 . S
H1655 C1649 0.930 . S
Mn1656 O1661 2.095 . S
Mn1656 O1671 2.162 . S
Mn1656 O1672 2.297 . S
Mn1656 O1680 2.385 . S
Mn1656 O1681 2.209 . S
Mn1656 O1682 2.094 . S
Mn1657 O1662 2.121 . S
Mn1657 N1664 2.257 . S
Mn1657 N1673 2.282 . S
Mn1657 O1681 2.215 . S
Mn1657 O1683 2.117 . S
C1658 O1680 1.234 . S
C1658 O1681 1.283 . S
C1659 O1671 1.281 . S
C1659 O1672 1.236 . S
C1660 O1682 1.240 . S
C1660 O1683 1.264 . S
O1661 Mn1656 2.095 . S
O1661 C1670 1.250 . S
O1662 Mn1657 2.121 . S
O1662 C1670 1.258 . S
C1663 N1664 1.326 . S
C1663 C1667 1.460 . S
C1663 H1669 0.929 . S
N1664 Mn1657 2.257 . S
N1664 C1663 1.326 . S
N1664 C1668 1.362 . S
C1665 C1666 1.258 . S
C1665 C1668 1.431 . S
C1665 C1685 1.449 . S
C1666 C1665 1.258 . S
C1666 C1667 1.477 . S
C1666 H1686 0.931 . S
C1667 C1663 1.460 . S
C1667 C1666 1.477 . S
C1667 H1687 0.930 . S
C1668 N1664 1.362 . S
C1668 C1665 1.431 . S
C1668 C1678 1.476 . S
H1669 C1663 0.929 . S
C1670 O1661 1.250 . S
C1670 O1662 1.258 . S
O1671 Mn1656 2.162 . S
O1671 C1659 1.281 . S
O1672 Mn1656 2.297 . S
O1672 C1659 1.236 . S
N1673 Mn1657 2.282 . S
N1673 C1674 1.328 . S
N1673 C1678 1.318 . S
C1674 N1673 1.328 . S
C1674 C1675 1.457 . S
C1674 H1679 0.929 . S
C1675 C1674 1.457 . S
C1675 C1676 1.291 . S
C1675 H1688 0.931 . S
C1676 C1675 1.291 . S
C1676 C1677 1.373 . S
C1676 H1689 0.929 . S
C1677 C1676 1.373 . S
C1677 C1678 1.396 . S
C1677 C1684 1.403 . S
C1678 C1668 1.476 . S
C1678 N1673 1.318 . S
C1678 C1677 1.396 . S
H1679 C1674 0.929 . S
O1680 Mn1656 2.385 . S
O1680 C1658 1.234 . S
O1681 Mn1656 2.209 . S
O1681 Mn1657 2.215 . S
O1681 C1658 1.283 . S
O1682 Mn1656 2.094 . S
O1682 C1660 1.240 . S
O1683 Mn1657 2.117 . S
O1683 C1660 1.264 . S
C1684 C1677 1.403 . S
C1684 C1685 1.399 . S
C1684 H1690 0.929 . S
C1685 C1665 1.449 . S
C1685 C1684 1.399 . S
C1685 H1691 0.930 . S
H1686 C1666 0.931 . S
H1687 C1667 0.930 . S
H1688 C1675 0.931 . S
H1689 C1676 0.929 . S
H1690 C1684 0.929 . S
H1691 C1685 0.930 . S
Mn1692 O1697 2.095 . S
Mn1692 O1707 2.162 . S
Mn1692 O1708 2.297 . S
Mn1692 O1716 2.385 . S
Mn1692 O1717 2.209 . S
Mn1692 O1718 2.094 . S
Mn1693 O1698 2.121 . S
Mn1693 N1700 2.257 . S
Mn1693 N1709 2.282 . S
Mn1693 O1717 2.215 . S
Mn1693 O1719 2.117 . S
C1694 O1716 1.234 . S
C1694 O1717 1.283 . S
C1695 O1707 1.281 . S
C1695 O1708 1.236 . S
C1696 O1718 1.240 . S
C1696 O1719 1.264 . S
O1697 Mn1692 2.095 . S
O1697 C1706 1.250 . S
O1698 Mn1693 2.121 . S
O1698 C1706 1.258 . S
C1699 N1700 1.326 . S
C1699 C1703 1.460 . S
C1699 H1705 0.929 . S
N1700 Mn1693 2.257 . S
N1700 C1699 1.326 . S
N1700 C1704 1.362 . S
C1701 C1702 1.258 . S
C1701 C1704 1.431 . S
C1701 C1721 1.449 . S
C1702 C1701 1.258 . S
C1702 C1703 1.477 . S
C1702 H1722 0.931 . S
C1703 C1699 1.460 . S
C1703 C1702 1.477 . S
C1703 H1723 0.930 . S
C1704 N1700 1.362 . S
C1704 C1701 1.431 . S
C1704 C1714 1.476 . S
H1705 C1699 0.929 . S
C1706 O1697 1.250 . S
C1706 O1698 1.258 . S
O1707 Mn1692 2.162 . S
O1707 C1695 1.281 . S
O1708 Mn1692 2.297 . S
O1708 C1695 1.236 . S
N1709 Mn1693 2.282 . S
N1709 C1710 1.328 . S
N1709 C1714 1.318 . S
C1710 N1709 1.328 . S
C1710 C1711 1.457 . S
C1710 H1715 0.929 . S
C1711 C1710 1.457 . S
C1711 C1712 1.291 . S
C1711 H1724 0.931 . S
C1712 C1711 1.291 . S
C1712 C1713 1.373 . S
C1712 H1725 0.929 . S
C1713 C1712 1.373 . S
C1713 C1714 1.396 . S
C1713 C1720 1.403 . S
C1714 C1704 1.476 . S
C1714 N1709 1.318 . S
C1714 C1713 1.396 . S
H1715 C1710 0.929 . S
O1716 Mn1692 2.385 . S
O1716 C1694 1.234 . S
O1717 Mn1692 2.209 . S
O1717 Mn1693 2.215 . S
O1717 C1694 1.283 . S
O1718 Mn1692 2.094 . S
O1718 C1696 1.240 . S
O1719 Mn1693 2.117 . S
O1719 C1696 1.264 . S
C1720 C1713 1.403 . S
C1720 C1721 1.399 . S
C1720 H1726 0.929 . S
C1721 C1701 1.449 . S
C1721 C1720 1.399 . S
C1721 H1727 0.930 . S
H1722 C1702 0.931 . S
H1723 C1703 0.930 . S
H1724 C1711 0.931 . S
H1725 C1712 0.929 . S
H1726 C1720 0.929 . S
H1727 C1721 0.930 . S
Mn1728 O1733 2.095 . S
Mn1728 O1743 2.162 . S
Mn1728 O1744 2.297 . S
Mn1728 O1752 2.385 . S
Mn1728 O1753 2.209 . S
Mn1728 O1754 2.094 . S
Mn1729 O1734 2.121 . S
Mn1729 N1736 2.257 . S
Mn1729 N1745 2.282 . S
Mn1729 O1753 2.215 . S
Mn1729 O1755 2.117 . S
C1730 O1752 1.234 . S
C1730 O1753 1.283 . S
C1731 O1743 1.281 . S
C1731 O1744 1.236 . S
C1732 O1754 1.240 . S
C1732 O1755 1.264 . S
O1733 Mn1728 2.095 . S
O1733 C1742 1.250 . S
O1734 Mn1729 2.121 . S
O1734 C1742 1.258 . S
C1735 N1736 1.326 . S
C1735 C1739 1.460 . S
C1735 H1741 0.929 . S
N1736 Mn1729 2.257 . S
N1736 C1735 1.326 . S
N1736 C1740 1.362 . S
C1737 C1738 1.258 . S
C1737 C1740 1.431 . S
C1737 C1757 1.449 . S
C1738 C1737 1.258 . S
C1738 C1739 1.477 . S
C1738 H1758 0.931 . S
C1739 C1735 1.460 . S
C1739 C1738 1.477 . S
C1739 H1759 0.930 . S
C1740 N1736 1.362 . S
C1740 C1737 1.431 . S
C1740 C1750 1.476 . S
H1741 C1735 0.929 . S
C1742 O1733 1.250 . S
C1742 O1734 1.258 . S
O1743 Mn1728 2.162 . S
O1743 C1731 1.281 . S
O1744 Mn1728 2.297 . S
O1744 C1731 1.236 . S
N1745 Mn1729 2.282 . S
N1745 C1746 1.328 . S
N1745 C1750 1.318 . S
C1746 N1745 1.328 . S
C1746 C1747 1.457 . S
C1746 H1751 0.929 . S
C1747 C1746 1.457 . S
C1747 C1748 1.291 . S
C1747 H1760 0.931 . S
C1748 C1747 1.291 . S
C1748 C1749 1.373 . S
C1748 H1761 0.929 . S
C1749 C1748 1.373 . S
C1749 C1750 1.396 . S
C1749 C1756 1.403 . S
C1750 C1740 1.476 . S
C1750 N1745 1.318 . S
C1750 C1749 1.396 . S
H1751 C1746 0.929 . S
O1752 Mn1728 2.385 . S
O1752 C1730 1.234 . S
O1753 Mn1728 2.209 . S
O1753 Mn1729 2.215 . S
O1753 C1730 1.283 . S
O1754 Mn1728 2.094 . S
O1754 C1732 1.240 . S
O1755 Mn1729 2.117 . S
O1755 C1732 1.264 . S
C1756 C1749 1.403 . S
C1756 C1757 1.399 . S
C1756 H1762 0.929 . S
C1757 C1737 1.449 . S
C1757 C1756 1.399 . S
C1757 H1763 0.930 . S
H1758 C1738 0.931 . S
H1759 C1739 0.930 . S
H1760 C1747 0.931 . S
H1761 C1748 0.929 . S
H1762 C1756 0.929 . S
H1763 C1757 0.930 . S
Mn1764 O1769 2.095 . S
Mn1764 O1779 2.162 . S
Mn1764 O1780 2.297 . S
Mn1764 O1788 2.385 . S
Mn1764 O1789 2.209 . S
Mn1764 O1790 2.094 . S
Mn1765 O1770 2.121 . S
Mn1765 N1772 2.257 . S
Mn1765 N1781 2.282 . S
Mn1765 O1789 2.215 . S
Mn1765 O1791 2.117 . S
C1766 O1788 1.234 . S
C1766 O1789 1.283 . S
C1767 O1779 1.281 . S
C1767 O1780 1.236 . S
C1768 O1790 1.240 . S
C1768 O1791 1.264 . S
O1769 Mn1764 2.095 . S
O1769 C1778 1.250 . S
O1770 Mn1765 2.121 . S
O1770 C1778 1.258 . S
C1771 N1772 1.326 . S
C1771 C1775 1.460 . S
C1771 H1777 0.929 . S
N1772 Mn1765 2.257 . S
N1772 C1771 1.326 . S
N1772 C1776 1.362 . S
C1773 C1774 1.258 . S
C1773 C1776 1.431 . S
C1773 C1793 1.449 . S
C1774 C1773 1.258 . S
C1774 C1775 1.477 . S
C1774 H1794 0.931 . S
C1775 C1771 1.460 . S
C1775 C1774 1.477 . S
C1775 H1795 0.930 . S
C1776 N1772 1.362 . S
C1776 C1773 1.431 . S
C1776 C1786 1.476 . S
H1777 C1771 0.929 . S
C1778 O1769 1.250 . S
C1778 O1770 1.258 . S
O1779 Mn1764 2.162 . S
O1779 C1767 1.281 . S
O1780 Mn1764 2.297 . S
O1780 C1767 1.236 . S
N1781 Mn1765 2.282 . S
N1781 C1782 1.328 . S
N1781 C1786 1.318 . S
C1782 N1781 1.328 . S
C1782 C1783 1.457 . S
C1782 H1787 0.929 . S
C1783 C1782 1.457 . S
C1783 C1784 1.291 . S
C1783 H1796 0.931 . S
C1784 C1783 1.291 . S
C1784 C1785 1.373 . S
C1784 H1797 0.929 . S
C1785 C1784 1.373 . S
C1785 C1786 1.396 . S
C1785 C1792 1.403 . S
C1786 C1776 1.476 . S
C1786 N1781 1.318 . S
C1786 C1785 1.396 . S
H1787 C1782 0.929 . S
O1788 Mn1764 2.385 . S
O1788 C1766 1.234 . S
O1789 Mn1764 2.209 . S
O1789 Mn1765 2.215 . S
O1789 C1766 1.283 . S
O1790 Mn1764 2.094 . S
O1790 C1768 1.240 . S
O1791 Mn1765 2.117 . S
O1791 C1768 1.264 . S
C1792 C1785 1.403 . S
C1792 C1793 1.399 . S
C1792 H1798 0.929 . S
C1793 C1773 1.449 . S
C1793 C1792 1.399 . S
C1793 H1799 0.930 . S
H1794 C1774 0.931 . S
H1795 C1775 0.930 . S
H1796 C1783 0.931 . S
H1797 C1784 0.929 . S
H1798 C1792 0.929 . S
H1799 C1793 0.930 . S
Mn1800 O1805 2.095 . S
Mn1800 O1815 2.162 . S
Mn1800 O1816 2.297 . S
Mn1800 O1824 2.385 . S
Mn1800 O1825 2.209 . S
Mn1800 O1826 2.094 . S
Mn1801 O1806 2.121 . S
Mn1801 N1808 2.257 . S
Mn1801 N1817 2.282 . S
Mn1801 O1825 2.215 . S
Mn1801 O1827 2.117 . S
C1802 O1824 1.234 . S
C1802 O1825 1.283 . S
C1803 O1815 1.281 . S
C1803 O1816 1.236 . S
C1804 O1826 1.240 . S
C1804 O1827 1.264 . S
O1805 Mn1800 2.095 . S
O1805 C1814 1.250 . S
O1806 Mn1801 2.121 . S
O1806 C1814 1.258 . S
C1807 N1808 1.326 . S
C1807 C1811 1.460 . S
C1807 H1813 0.929 . S
N1808 Mn1801 2.257 . S
N1808 C1807 1.326 . S
N1808 C1812 1.362 . S
C1809 C1810 1.258 . S
C1809 C1812 1.431 . S
C1809 C1829 1.449 . S
C1810 C1809 1.258 . S
C1810 C1811 1.477 . S
C1810 H1830 0.931 . S
C1811 C1807 1.460 . S
C1811 C1810 1.477 . S
C1811 H1831 0.930 . S
C1812 N1808 1.362 . S
C1812 C1809 1.431 . S
C1812 C1822 1.476 . S
H1813 C1807 0.929 . S
C1814 O1805 1.250 . S
C1814 O1806 1.258 . S
O1815 Mn1800 2.162 . S
O1815 C1803 1.281 . S
O1816 Mn1800 2.297 . S
O1816 C1803 1.236 . S
N1817 Mn1801 2.282 . S
N1817 C1818 1.328 . S
N1817 C1822 1.318 . S
C1818 N1817 1.328 . S
C1818 C1819 1.457 . S
C1818 H1823 0.929 . S
C1819 C1818 1.457 . S
C1819 C1820 1.291 . S
C1819 H1832 0.931 . S
C1820 C1819 1.291 . S
C1820 C1821 1.373 . S
C1820 H1833 0.929 . S
C1821 C1820 1.373 . S
C1821 C1822 1.396 . S
C1821 C1828 1.403 . S
C1822 C1812 1.476 . S
C1822 N1817 1.318 . S
C1822 C1821 1.396 . S
H1823 C1818 0.929 . S
O1824 Mn1800 2.385 . S
O1824 C1802 1.234 . S
O1825 Mn1800 2.209 . S
O1825 Mn1801 2.215 . S
O1825 C1802 1.283 . S
O1826 Mn1800 2.094 . S
O1826 C1804 1.240 . S
O1827 Mn1801 2.117 . S
O1827 C1804 1.264 . S
C1828 C1821 1.403 . S
C1828 C1829 1.399 . S
C1828 H1834 0.929 . S
C1829 C1809 1.449 . S
C1829 C1828 1.399 . S
C1829 H1835 0.930 . S
H1830 C1810 0.931 . S
H1831 C1811 0.930 . S
H1832 C1819 0.931 . S
H1833 C1820 0.929 . S
H1834 C1828 0.929 . S
H1835 C1829 0.930 . S
Mn1836 O1841 2.095 . S
Mn1836 O1851 2.162 . S
Mn1836 O1852 2.297 . S
Mn1836 O1860 2.385 . S
Mn1836 O1861 2.209 . S
Mn1836 O1862 2.094 . S
Mn1837 O1842 2.121 . S
Mn1837 N1844 2.257 . S
Mn1837 N1853 2.282 . S
Mn1837 O1861 2.215 . S
Mn1837 O1863 2.117 . S
C1838 O1860 1.234 . S
C1838 O1861 1.283 . S
C1839 O1851 1.281 . S
C1839 O1852 1.236 . S
C1840 O1862 1.240 . S
C1840 O1863 1.264 . S
O1841 Mn1836 2.095 . S
O1841 C1850 1.250 . S
O1842 Mn1837 2.121 . S
O1842 C1850 1.258 . S
C1843 N1844 1.326 . S
C1843 C1847 1.460 . S
C1843 H1849 0.929 . S
N1844 Mn1837 2.257 . S
N1844 C1843 1.326 . S
N1844 C1848 1.362 . S
C1845 C1846 1.258 . S
C1845 C1848 1.431 . S
C1845 C1865 1.449 . S
C1846 C1845 1.258 . S
C1846 C1847 1.477 . S
C1846 H1866 0.931 . S
C1847 C1843 1.460 . S
C1847 C1846 1.477 . S
C1847 H1867 0.930 . S
C1848 N1844 1.362 . S
C1848 C1845 1.431 . S
C1848 C1858 1.476 . S
H1849 C1843 0.929 . S
C1850 O1841 1.250 . S
C1850 O1842 1.258 . S
O1851 Mn1836 2.162 . S
O1851 C1839 1.281 . S
O1852 Mn1836 2.297 . S
O1852 C1839 1.236 . S
N1853 Mn1837 2.282 . S
N1853 C1854 1.328 . S
N1853 C1858 1.318 . S
C1854 N1853 1.328 . S
C1854 C1855 1.457 . S
C1854 H1859 0.929 . S
C1855 C1854 1.457 . S
C1855 C1856 1.291 . S
C1855 H1868 0.931 . S
C1856 C1855 1.291 . S
C1856 C1857 1.373 . S
C1856 H1869 0.929 . S
C1857 C1856 1.373 . S
C1857 C1858 1.396 . S
C1857 C1864 1.403 . S
C1858 C1848 1.476 . S
C1858 N1853 1.318 . S
C1858 C1857 1.396 . S
H1859 C1854 0.929 . S
O1860 Mn1836 2.385 . S
O1860 C1838 1.234 . S
O1861 Mn1836 2.209 . S
O1861 Mn1837 2.215 . S
O1861 C1838 1.283 . S
O1862 Mn1836 2.094 . S
O1862 C1840 1.240 . S
O1863 Mn1837 2.117 . S
O1863 C1840 1.264 . S
C1864 C1857 1.403 . S
C1864 C1865 1.399 . S
C1864 H1870 0.929 . S
C1865 C1845 1.449 . S
C1865 C1864 1.399 . S
C1865 H1871 0.930 . S
H1866 C1846 0.931 . S
H1867 C1847 0.930 . S
H1868 C1855 0.931 . S
H1869 C1856 0.929 . S
H1870 C1864 0.929 . S
H1871 C1865 0.930 . S
Mn1872 O1877 2.095 . S
Mn1872 O1887 2.162 . S
Mn1872 O1888 2.297 . S
Mn1872 O1896 2.385 . S
Mn1872 O1897 2.209 . S
Mn1872 O1898 2.094 . S
Mn1873 O1878 2.121 . S
Mn1873 N1880 2.257 . S
Mn1873 N1889 2.282 . S
Mn1873 O1897 2.215 . S
Mn1873 O1899 2.117 . S
C1874 O1896 1.234 . S
C1874 O1897 1.283 . S
C1875 O1887 1.281 . S
C1875 O1888 1.236 . S
C1876 O1898 1.240 . S
C1876 O1899 1.264 . S
O1877 Mn1872 2.095 . S
O1877 C1886 1.250 . S
O1878 Mn1873 2.121 . S
O1878 C1886 1.258 . S
C1879 N1880 1.326 . S
C1879 C1883 1.460 . S
C1879 H1885 0.929 . S
N1880 Mn1873 2.257 . S
N1880 C1879 1.326 . S
N1880 C1884 1.362 . S
C1881 C1882 1.258 . S
C1881 C1884 1.431 . S
C1881 C1901 1.449 . S
C1882 C1881 1.258 . S
C1882 C1883 1.477 . S
C1882 H1902 0.931 . S
C1883 C1879 1.460 . S
C1883 C1882 1.477 . S
C1883 H1903 0.930 . S
C1884 N1880 1.362 . S
C1884 C1881 1.431 . S
C1884 C1894 1.476 . S
H1885 C1879 0.929 . S
C1886 O1877 1.250 . S
C1886 O1878 1.258 . S
O1887 Mn1872 2.162 . S
O1887 C1875 1.281 . S
O1888 Mn1872 2.297 . S
O1888 C1875 1.236 . S
N1889 Mn1873 2.282 . S
N1889 C1890 1.328 . S
N1889 C1894 1.318 . S
C1890 N1889 1.328 . S
C1890 C1891 1.457 . S
C1890 H1895 0.929 . S
C1891 C1890 1.457 . S
C1891 C1892 1.291 . S
C1891 H1904 0.931 . S
C1892 C1891 1.291 . S
C1892 C1893 1.373 . S
C1892 H1905 0.929 . S
C1893 C1892 1.373 . S
C1893 C1894 1.396 . S
C1893 C1900 1.403 . S
C1894 C1884 1.476 . S
C1894 N1889 1.318 . S
C1894 C1893 1.396 . S
H1895 C1890 0.929 . S
O1896 Mn1872 2.385 . S
O1896 C1874 1.234 . S
O1897 Mn1872 2.209 . S
O1897 Mn1873 2.215 . S
O1897 C1874 1.283 . S
O1898 Mn1872 2.094 . S
O1898 C1876 1.240 . S
O1899 Mn1873 2.117 . S
O1899 C1876 1.264 . S
C1900 C1893 1.403 . S
C1900 C1901 1.399 . S
C1900 H1906 0.929 . S
C1901 C1881 1.449 . S
C1901 C1900 1.399 . S
C1901 H1907 0.930 . S
H1902 C1882 0.931 . S
H1903 C1883 0.930 . S
H1904 C1891 0.931 . S
H1905 C1892 0.929 . S
H1906 C1900 0.929 . S
H1907 C1901 0.930 . S
Mn1908 O1913 2.095 . S
Mn1908 O1923 2.162 . S
Mn1908 O1924 2.297 . S
Mn1908 O1932 2.385 . S
Mn1908 O1933 2.209 . S
Mn1908 O1934 2.094 . S
Mn1909 O1914 2.121 . S
Mn1909 N1916 2.257 . S
Mn1909 N1925 2.282 . S
Mn1909 O1933 2.215 . S
Mn1909 O1935 2.117 . S
C1910 O1932 1.234 . S
C1910 O1933 1.283 . S
C1911 O1923 1.281 . S
C1911 O1924 1.236 . S
C1912 O1934 1.240 . S
C1912 O1935 1.264 . S
O1913 Mn1908 2.095 . S
O1913 C1922 1.250 . S
O1914 Mn1909 2.121 . S
O1914 C1922 1.258 . S
C1915 N1916 1.326 . S
C1915 C1919 1.460 . S
C1915 H1921 0.929 . S
N1916 Mn1909 2.257 . S
N1916 C1915 1.326 . S
N1916 C1920 1.362 . S
C1917 C1918 1.258 . S
C1917 C1920 1.431 . S
C1917 C1937 1.449 . S
C1918 C1917 1.258 . S
C1918 C1919 1.477 . S
C1918 H1938 0.931 . S
C1919 C1915 1.460 . S
C1919 C1918 1.477 . S
C1919 H1939 0.930 . S
C1920 N1916 1.362 . S
C1920 C1917 1.431 . S
C1920 C1930 1.476 . S
H1921 C1915 0.929 . S
C1922 O1913 1.250 . S
C1922 O1914 1.258 . S
O1923 Mn1908 2.162 . S
O1923 C1911 1.281 . S
O1924 Mn1908 2.297 . S
O1924 C1911 1.236 . S
N1925 Mn1909 2.282 . S
N1925 C1926 1.328 . S
N1925 C1930 1.318 . S
C1926 N1925 1.328 . S
C1926 C1927 1.457 . S
C1926 H1931 0.929 . S
C1927 C1926 1.457 . S
C1927 C1928 1.291 . S
C1927 H1940 0.931 . S
C1928 C1927 1.291 . S
C1928 C1929 1.373 . S
C1928 H1941 0.929 . S
C1929 C1928 1.373 . S
C1929 C1930 1.396 . S
C1929 C1936 1.403 . S
C1930 C1920 1.476 . S
C1930 N1925 1.318 . S
C1930 C1929 1.396 . S
H1931 C1926 0.929 . S
O1932 Mn1908 2.385 . S
O1932 C1910 1.234 . S
O1933 Mn1908 2.209 . S
O1933 Mn1909 2.215 . S
O1933 C1910 1.283 . S
O1934 Mn1908 2.094 . S
O1934 C1912 1.240 . S
O1935 Mn1909 2.117 . S
O1935 C1912 1.264 . S
C1936 C1929 1.403 . S
C1936 C1937 1.399 . S
C1936 H1942 0.929 . S
C1937 C1917 1.449 . S
C1937 C1936 1.399 . S
C1937 H1943 0.930 . S
H1938 C1918 0.931 . S
H1939 C1919 0.930 . S
H1940 C1927 0.931 . S
H1941 C1928 0.929 . S
H1942 C1936 0.929 . S
H1943 C1937 0.930 . S
Mn1944 O1949 2.095 . S
Mn1944 O1959 2.162 . S
Mn1944 O1960 2.297 . S
Mn1944 O1968 2.385 . S
Mn1944 O1969 2.209 . S
Mn1944 O1970 2.094 . S
Mn1945 O1950 2.121 . S
Mn1945 N1952 2.257 . S
Mn1945 N1961 2.282 . S
Mn1945 O1969 2.215 . S
Mn1945 O1971 2.117 . S
C1946 O1968 1.234 . S
C1946 O1969 1.283 . S
C1947 O1959 1.281 . S
C1947 O1960 1.236 . S
C1948 O1970 1.240 . S
C1948 O1971 1.264 . S
O1949 Mn1944 2.095 . S
O1949 C1958 1.250 . S
O1950 Mn1945 2.121 . S
O1950 C1958 1.258 . S
C1951 N1952 1.326 . S
C1951 C1955 1.460 . S
C1951 H1957 0.929 . S
N1952 Mn1945 2.257 . S
N1952 C1951 1.326 . S
N1952 C1956 1.362 . S
C1953 C1954 1.258 . S
C1953 C1956 1.431 . S
C1953 C1973 1.449 . S
C1954 C1953 1.258 . S
C1954 C1955 1.477 . S
C1954 H1974 0.931 . S
C1955 C1951 1.460 . S
C1955 C1954 1.477 . S
C1955 H1975 0.930 . S
C1956 N1952 1.362 . S
C1956 C1953 1.431 . S
C1956 C1966 1.476 . S
H1957 C1951 0.929 . S
C1958 O1949 1.250 . S
C1958 O1950 1.258 . S
O1959 Mn1944 2.162 . S
O1959 C1947 1.281 . S
O1960 Mn1944 2.297 . S
O1960 C1947 1.236 . S
N1961 Mn1945 2.282 . S
N1961 C1962 1.328 . S
N1961 C1966 1.318 . S
C1962 N1961 1.328 . S
C1962 C1963 1.457 . S
C1962 H1967 0.929 . S
C1963 C1962 1.457 . S
C1963 C1964 1.291 . S
C1963 H1976 0.931 . S
C1964 C1963 1.291 . S
C1964 C1965 1.373 . S
C1964 H1977 0.929 . S
C1965 C1964 1.373 . S
C1965 C1966 1.396 . S
C1965 C1972 1.403 . S
C1966 C1956 1.476 . S
C1966 N1961 1.318 . S
C1966 C1965 1.396 . S
H1967 C1962 0.929 . S
O1968 Mn1944 2.385 . S
O1968 C1946 1.234 . S
O1969 Mn1944 2.209 . S
O1969 Mn1945 2.215 . S
O1969 C1946 1.283 . S
O1970 Mn1944 2.094 . S
O1970 C1948 1.240 . S
O1971 Mn1945 2.117 . S
O1971 C1948 1.264 . S
C1972 C1965 1.403 . S
C1972 C1973 1.399 . S
C1972 H1978 0.929 . S
C1973 C1953 1.449 . S
C1973 C1972 1.399 . S
C1973 H1979 0.930 . S
H1974 C1954 0.931 . S
H1975 C1955 0.930 . S
H1976 C1963 0.931 . S
H1977 C1964 0.929 . S
H1978 C1972 0.929 . S
H1979 C1973 0.930 . S
Mn1980 O1985 2.095 . S
Mn1980 O1995 2.162 . S
Mn1980 O1996 2.297 . S
Mn1980 O2004 2.385 . S
Mn1980 O2005 2.209 . S
Mn1980 O2006 2.094 . S
Mn1981 O1986 2.121 . S
Mn1981 N1988 2.257 . S
Mn1981 N1997 2.282 . S
Mn1981 O2005 2.215 . S
Mn1981 O2007 2.117 . S
C1982 O2004 1.234 . S
C1982 O2005 1.283 . S
C1983 O1995 1.281 . S
C1983 O1996 1.236 . S
C1984 O2006 1.240 . S
C1984 O2007 1.264 . S
O1985 Mn1980 2.095 . S
O1985 C1994 1.250 . S
O1986 Mn1981 2.121 . S
O1986 C1994 1.258 . S
C1987 N1988 1.326 . S
C1987 C1991 1.460 . S
C1987 H1993 0.929 . S
N1988 Mn1981 2.257 . S
N1988 C1987 1.326 . S
N1988 C1992 1.362 . S
C1989 C1990 1.258 . S
C1989 C1992 1.431 . S
C1989 C2009 1.449 . S
C1990 C1989 1.258 . S
C1990 C1991 1.477 . S
C1990 H2010 0.931 . S
C1991 C1987 1.460 . S
C1991 C1990 1.477 . S
C1991 H2011 0.930 . S
C1992 N1988 1.362 . S
C1992 C1989 1.431 . S
C1992 C2002 1.476 . S
H1993 C1987 0.929 . S
C1994 O1985 1.250 . S
C1994 O1986 1.258 . S
O1995 Mn1980 2.162 . S
O1995 C1983 1.281 . S
O1996 Mn1980 2.297 . S
O1996 C1983 1.236 . S
N1997 Mn1981 2.282 . S
N1997 C1998 1.328 . S
N1997 C2002 1.318 . S
C1998 N1997 1.328 . S
C1998 C1999 1.457 . S
C1998 H2003 0.929 . S
C1999 C1998 1.457 . S
C1999 C2000 1.291 . S
C1999 H2012 0.931 . S
C2000 C1999 1.291 . S
C2000 C2001 1.373 . S
C2000 H2013 0.929 . S
C2001 C2000 1.373 . S
C2001 C2002 1.396 . S
C2001 C2008 1.403 . S
C2002 C1992 1.476 . S
C2002 N1997 1.318 . S
C2002 C2001 1.396 . S
H2003 C1998 0.929 . S
O2004 Mn1980 2.385 . S
O2004 C1982 1.234 . S
O2005 Mn1980 2.209 . S
O2005 Mn1981 2.215 . S
O2005 C1982 1.283 . S
O2006 Mn1980 2.094 . S
O2006 C1984 1.240 . S
O2007 Mn1981 2.117 . S
O2007 C1984 1.264 . S
C2008 C2001 1.403 . S
C2008 C2009 1.399 . S
C2008 H2014 0.929 . S
C2009 C1989 1.449 . S
C2009 C2008 1.399 . S
C2009 H2015 0.930 . S
H2010 C1990 0.931 . S
H2011 C1991 0.930 . S
H2012 C1999 0.931 . S
H2013 C2000 0.929 . S
H2014 C2008 0.929 . S
H2015 C2009 0.930 . S
Mn2016 O2021 2.095 . S
Mn2016 O2031 2.162 . S
Mn2016 O2032 2.297 . S
Mn2016 O2040 2.385 . S
Mn2016 O2041 2.209 . S
Mn2016 O2042 2.094 . S
Mn2017 O2022 2.121 . S
Mn2017 N2024 2.257 . S
Mn2017 N2033 2.282 . S
Mn2017 O2041 2.215 . S
Mn2017 O2043 2.117 . S
C2018 O2040 1.234 . S
C2018 O2041 1.283 . S
C2019 O2031 1.281 . S
C2019 O2032 1.236 . S
C2020 O2042 1.240 . S
C2020 O2043 1.264 . S
O2021 Mn2016 2.095 . S
O2021 C2030 1.250 . S
O2022 Mn2017 2.121 . S
O2022 C2030 1.258 . S
C2023 N2024 1.326 . S
C2023 C2027 1.460 . S
C2023 H2029 0.929 . S
N2024 Mn2017 2.257 . S
N2024 C2023 1.326 . S
N2024 C2028 1.362 . S
C2025 C2026 1.258 . S
C2025 C2028 1.431 . S
C2025 C2045 1.449 . S
C2026 C2025 1.258 . S
C2026 C2027 1.477 . S
C2026 H2046 0.931 . S
C2027 C2023 1.460 . S
C2027 C2026 1.477 . S
C2027 H2047 0.930 . S
C2028 N2024 1.362 . S
C2028 C2025 1.431 . S
C2028 C2038 1.476 . S
H2029 C2023 0.929 . S
C2030 O2021 1.250 . S
C2030 O2022 1.258 . S
O2031 Mn2016 2.162 . S
O2031 C2019 1.281 . S
O2032 Mn2016 2.297 . S
O2032 C2019 1.236 . S
N2033 Mn2017 2.282 . S
N2033 C2034 1.328 . S
N2033 C2038 1.318 . S
C2034 N2033 1.328 . S
C2034 C2035 1.457 . S
C2034 H2039 0.929 . S
C2035 C2034 1.457 . S
C2035 C2036 1.291 . S
C2035 H2048 0.931 . S
C2036 C2035 1.291 . S
C2036 C2037 1.373 . S
C2036 H2049 0.929 . S
C2037 C2036 1.373 . S
C2037 C2038 1.396 . S
C2037 C2044 1.403 . S
C2038 C2028 1.476 . S
C2038 N2033 1.318 . S
C2038 C2037 1.396 . S
H2039 C2034 0.929 . S
O2040 Mn2016 2.385 . S
O2040 C2018 1.234 . S
O2041 Mn2016 2.209 . S
O2041 Mn2017 2.215 . S
O2041 C2018 1.283 . S
O2042 Mn2016 2.094 . S
O2042 C2020 1.240 . S
O2043 Mn2017 2.117 . S
O2043 C2020 1.264 . S
C2044 C2037 1.403 . S
C2044 C2045 1.399 . S
C2044 H2050 0.929 . S
C2045 C2025 1.449 . S
C2045 C2044 1.399 . S
C2045 H2051 0.930 . S
H2046 C2026 0.931 . S
H2047 C2027 0.930 . S
H2048 C2035 0.931 . S
H2049 C2036 0.929 . S
H2050 C2044 0.929 . S
H2051 C2045 0.930 . S
Mn2052 O2057 2.095 . S
Mn2052 O2067 2.162 . S
Mn2052 O2068 2.297 . S
Mn2052 O2076 2.385 . S
Mn2052 O2077 2.209 . S
Mn2052 O2078 2.094 . S
Mn2053 O2058 2.121 . S
Mn2053 N2060 2.257 . S
Mn2053 N2069 2.282 . S
Mn2053 O2077 2.215 . S
Mn2053 O2079 2.117 . S
C2054 O2076 1.234 . S
C2054 O2077 1.283 . S
C2055 O2067 1.281 . S
C2055 O2068 1.236 . S
C2056 O2078 1.240 . S
C2056 O2079 1.264 . S
O2057 Mn2052 2.095 . S
O2057 C2066 1.250 . S
O2058 Mn2053 2.121 . S
O2058 C2066 1.258 . S
C2059 N2060 1.326 . S
C2059 C2063 1.460 . S
C2059 H2065 0.929 . S
N2060 Mn2053 2.257 . S
N2060 C2059 1.326 . S
N2060 C2064 1.362 . S
C2061 C2062 1.258 . S
C2061 C2064 1.431 . S
C2061 C2081 1.449 . S
C2062 C2061 1.258 . S
C2062 C2063 1.477 . S
C2062 H2082 0.931 . S
C2063 C2059 1.460 . S
C2063 C2062 1.477 . S
C2063 H2083 0.930 . S
C2064 N2060 1.362 . S
C2064 C2061 1.431 . S
C2064 C2074 1.476 . S
H2065 C2059 0.929 . S
C2066 O2057 1.250 . S
C2066 O2058 1.258 . S
O2067 Mn2052 2.162 . S
O2067 C2055 1.281 . S
O2068 Mn2052 2.297 . S
O2068 C2055 1.236 . S
N2069 Mn2053 2.282 . S
N2069 C2070 1.328 . S
N2069 C2074 1.318 . S
C2070 N2069 1.328 . S
C2070 C2071 1.457 . S
C2070 H2075 0.929 . S
C2071 C2070 1.457 . S
C2071 C2072 1.291 . S
C2071 H2084 0.931 . S
C2072 C2071 1.291 . S
C2072 C2073 1.373 . S
C2072 H2085 0.929 . S
C2073 C2072 1.373 . S
C2073 C2074 1.396 . S
C2073 C2080 1.403 . S
C2074 C2064 1.476 . S
C2074 N2069 1.318 . S
C2074 C2073 1.396 . S
H2075 C2070 0.929 . S
O2076 Mn2052 2.385 . S
O2076 C2054 1.234 . S
O2077 Mn2052 2.209 . S
O2077 Mn2053 2.215 . S
O2077 C2054 1.283 . S
O2078 Mn2052 2.094 . S
O2078 C2056 1.240 . S
O2079 Mn2053 2.117 . S
O2079 C2056 1.264 . S
C2080 C2073 1.403 . S
C2080 C2081 1.399 . S
C2080 H2086 0.929 . S
C2081 C2061 1.449 . S
C2081 C2080 1.399 . S
C2081 H2087 0.930 . S
H2082 C2062 0.931 . S
H2083 C2063 0.930 . S
H2084 C2071 0.931 . S
H2085 C2072 0.929 . S
H2086 C2080 0.929 . S
H2087 C2081 0.930 . S
Mn2088 O2093 2.095 . S
Mn2088 O2103 2.162 . S
Mn2088 O2104 2.297 . S
Mn2088 O2112 2.385 . S
Mn2088 O2113 2.209 . S
Mn2088 O2114 2.094 . S
Mn2089 O2094 2.121 . S
Mn2089 N2096 2.257 . S
Mn2089 N2105 2.282 . S
Mn2089 O2113 2.215 . S
Mn2089 O2115 2.117 . S
C2090 O2112 1.234 . S
C2090 O2113 1.283 . S
C2091 O2103 1.281 . S
C2091 O2104 1.236 . S
C2092 O2114 1.240 . S
C2092 O2115 1.264 . S
O2093 Mn2088 2.095 . S
O2093 C2102 1.250 . S
O2094 Mn2089 2.121 . S
O2094 C2102 1.258 . S
C2095 N2096 1.326 . S
C2095 C2099 1.460 . S
C2095 H2101 0.929 . S
N2096 Mn2089 2.257 . S
N2096 C2095 1.326 . S
N2096 C2100 1.362 . S
C2097 C2098 1.258 . S
C2097 C2100 1.431 . S
C2097 C2117 1.449 . S
C2098 C2097 1.258 . S
C2098 C2099 1.477 . S
C2098 H2118 0.931 . S
C2099 C2095 1.460 . S
C2099 C2098 1.477 . S
C2099 H2119 0.930 . S
C2100 N2096 1.362 . S
C2100 C2097 1.431 . S
C2100 C2110 1.476 . S
H2101 C2095 0.929 . S
C2102 O2093 1.250 . S
C2102 O2094 1.258 . S
O2103 Mn2088 2.162 . S
O2103 C2091 1.281 . S
O2104 Mn2088 2.297 . S
O2104 C2091 1.236 . S
N2105 Mn2089 2.282 . S
N2105 C2106 1.328 . S
N2105 C2110 1.318 . S
C2106 N2105 1.328 . S
C2106 C2107 1.457 . S
C2106 H2111 0.929 . S
C2107 C2106 1.457 . S
C2107 C2108 1.291 . S
C2107 H2120 0.931 . S
C2108 C2107 1.291 . S
C2108 C2109 1.373 . S
C2108 H2121 0.929 . S
C2109 C2108 1.373 . S
C2109 C2110 1.396 . S
C2109 C2116 1.403 . S
C2110 C2100 1.476 . S
C2110 N2105 1.318 . S
C2110 C2109 1.396 . S
H2111 C2106 0.929 . S
O2112 Mn2088 2.385 . S
O2112 C2090 1.234 . S
O2113 Mn2088 2.209 . S
O2113 Mn2089 2.215 . S
O2113 C2090 1.283 . S
O2114 Mn2088 2.094 . S
O2114 C2092 1.240 . S
O2115 Mn2089 2.117 . S
O2115 C2092 1.264 . S
C2116 C2109 1.403 . S
C2116 C2117 1.399 . S
C2116 H2122 0.929 . S
C2117 C2097 1.449 . S
C2117 C2116 1.399 . S
C2117 H2123 0.930 . S
H2118 C2098 0.931 . S
H2119 C2099 0.930 . S
H2120 C2107 0.931 . S
H2121 C2108 0.929 . S
H2122 C2116 0.929 . S
H2123 C2117 0.930 . S
Mn2124 O2129 2.095 . S
Mn2124 O2139 2.162 . S
Mn2124 O2140 2.297 . S
Mn2124 O2148 2.385 . S
Mn2124 O2149 2.209 . S
Mn2124 O2150 2.094 . S
Mn2125 O2130 2.121 . S
Mn2125 N2132 2.257 . S
Mn2125 N2141 2.282 . S
Mn2125 O2149 2.215 . S
Mn2125 O2151 2.117 . S
C2126 O2148 1.234 . S
C2126 O2149 1.283 . S
C2127 O2139 1.281 . S
C2127 O2140 1.236 . S
C2128 O2150 1.240 . S
C2128 O2151 1.264 . S
O2129 Mn2124 2.095 . S
O2129 C2138 1.250 . S
O2130 Mn2125 2.121 . S
O2130 C2138 1.258 . S
C2131 N2132 1.326 . S
C2131 C2135 1.460 . S
C2131 H2137 0.929 . S
N2132 Mn2125 2.257 . S
N2132 C2131 1.326 . S
N2132 C2136 1.362 . S
C2133 C2134 1.258 . S
C2133 C2136 1.431 . S
C2133 C2153 1.449 . S
C2134 C2133 1.258 . S
C2134 C2135 1.477 . S
C2134 H2154 0.931 . S
C2135 C2131 1.460 . S
C2135 C2134 1.477 . S
C2135 H2155 0.930 . S
C2136 N2132 1.362 . S
C2136 C2133 1.431 . S
C2136 C2146 1.476 . S
H2137 C2131 0.929 . S
C2138 O2129 1.250 . S
C2138 O2130 1.258 . S
O2139 Mn2124 2.162 . S
O2139 C2127 1.281 . S
O2140 Mn2124 2.297 . S
O2140 C2127 1.236 . S
N2141 Mn2125 2.282 . S
N2141 C2142 1.328 . S
N2141 C2146 1.318 . S
C2142 N2141 1.328 . S
C2142 C2143 1.457 . S
C2142 H2147 0.929 . S
C2143 C2142 1.457 . S
C2143 C2144 1.291 . S
C2143 H2156 0.931 . S
C2144 C2143 1.291 . S
C2144 C2145 1.373 . S
C2144 H2157 0.929 . S
C2145 C2144 1.373 . S
C2145 C2146 1.396 . S
C2145 C2152 1.403 . S
C2146 C2136 1.476 . S
C2146 N2141 1.318 . S
C2146 C2145 1.396 . S
H2147 C2142 0.929 . S
O2148 Mn2124 2.385 . S
O2148 C2126 1.234 . S
O2149 Mn2124 2.209 . S
O2149 Mn2125 2.215 . S
O2149 C2126 1.283 . S
O2150 Mn2124 2.094 . S
O2150 C2128 1.240 . S
O2151 Mn2125 2.117 . S
O2151 C2128 1.264 . S
C2152 C2145 1.403 . S
C2152 C2153 1.399 . S
C2152 H2158 0.929 . S
C2153 C2133 1.449 . S
C2153 C2152 1.399 . S
C2153 H2159 0.930 . S
H2154 C2134 0.931 . S
H2155 C2135 0.930 . S
H2156 C2143 0.931 . S
H2157 C2144 0.929 . S
H2158 C2152 0.929 . S
H2159 C2153 0.930 . S
Mn2160 O2165 2.095 . S
Mn2160 O2175 2.162 . S
Mn2160 O2176 2.297 . S
Mn2160 O2184 2.385 . S
Mn2160 O2185 2.209 . S
Mn2160 O2186 2.094 . S
Mn2161 O2166 2.121 . S
Mn2161 N2168 2.257 . S
Mn2161 N2177 2.282 . S
Mn2161 O2185 2.215 . S
Mn2161 O2187 2.117 . S
C2162 O2184 1.234 . S
C2162 O2185 1.283 . S
C2163 O2175 1.281 . S
C2163 O2176 1.236 . S
C2164 O2186 1.240 . S
C2164 O2187 1.264 . S
O2165 Mn2160 2.095 . S
O2165 C2174 1.250 . S
O2166 Mn2161 2.121 . S
O2166 C2174 1.258 . S
C2167 N2168 1.326 . S
C2167 C2171 1.460 . S
C2167 H2173 0.929 . S
N2168 Mn2161 2.257 . S
N2168 C2167 1.326 . S
N2168 C2172 1.362 . S
C2169 C2170 1.258 . S
C2169 C2172 1.431 . S
C2169 C2189 1.449 . S
C2170 C2169 1.258 . S
C2170 C2171 1.477 . S
C2170 H2190 0.931 . S
C2171 C2167 1.460 . S
C2171 C2170 1.477 . S
C2171 H2191 0.930 . S
C2172 N2168 1.362 . S
C2172 C2169 1.431 . S
C2172 C2182 1.476 . S
H2173 C2167 0.929 . S
C2174 O2165 1.250 . S
C2174 O2166 1.258 . S
O2175 Mn2160 2.162 . S
O2175 C2163 1.281 . S
O2176 Mn2160 2.297 . S
O2176 C2163 1.236 . S
N2177 Mn2161 2.282 . S
N2177 C2178 1.328 . S
N2177 C2182 1.318 . S
C2178 N2177 1.328 . S
C2178 C2179 1.457 . S
C2178 H2183 0.929 . S
C2179 C2178 1.457 . S
C2179 C2180 1.291 . S
C2179 H2192 0.931 . S
C2180 C2179 1.291 . S
C2180 C2181 1.373 . S
C2180 H2193 0.929 . S
C2181 C2180 1.373 . S
C2181 C2182 1.396 . S
C2181 C2188 1.403 . S
C2182 C2172 1.476 . S
C2182 N2177 1.318 . S
C2182 C2181 1.396 . S
H2183 C2178 0.929 . S
O2184 Mn2160 2.385 . S
O2184 C2162 1.234 . S
O2185 Mn2160 2.209 . S
O2185 Mn2161 2.215 . S
O2185 C2162 1.283 . S
O2186 Mn2160 2.094 . S
O2186 C2164 1.240 . S
O2187 Mn2161 2.117 . S
O2187 C2164 1.264 . S
C2188 C2181 1.403 . S
C2188 C2189 1.399 . S
C2188 H2194 0.929 . S
C2189 C2169 1.449 . S
C2189 C2188 1.399 . S
C2189 H2195 0.930 . S
H2190 C2170 0.931 . S
H2191 C2171 0.930 . S
H2192 C2179 0.931 . S
H2193 C2180 0.929 . S
H2194 C2188 0.929 . S
H2195 C2189 0.930 . S
Mn2196 O2201 2.095 . S
Mn2196 O2211 2.162 . S
Mn2196 O2212 2.297 . S
Mn2196 O2220 2.385 . S
Mn2196 O2221 2.209 . S
Mn2196 O2222 2.094 . S
Mn2197 O2202 2.121 . S
Mn2197 N2204 2.257 . S
Mn2197 N2213 2.282 . S
Mn2197 O2221 2.215 . S
Mn2197 O2223 2.117 . S
C2198 O2220 1.234 . S
C2198 O2221 1.283 . S
C2199 O2211 1.281 . S
C2199 O2212 1.236 . S
C2200 O2222 1.240 . S
C2200 O2223 1.264 . S
O2201 Mn2196 2.095 . S
O2201 C2210 1.250 . S
O2202 Mn2197 2.121 . S
O2202 C2210 1.258 . S
C2203 N2204 1.326 . S
C2203 C2207 1.460 . S
C2203 H2209 0.929 . S
N2204 Mn2197 2.257 . S
N2204 C2203 1.326 . S
N2204 C2208 1.362 . S
C2205 C2206 1.258 . S
C2205 C2208 1.431 . S
C2205 C2225 1.449 . S
C2206 C2205 1.258 . S
C2206 C2207 1.477 . S
C2206 H2226 0.931 . S
C2207 C2203 1.460 . S
C2207 C2206 1.477 . S
C2207 H2227 0.930 . S
C2208 N2204 1.362 . S
C2208 C2205 1.431 . S
C2208 C2218 1.476 . S
H2209 C2203 0.929 . S
C2210 O2201 1.250 . S
C2210 O2202 1.258 . S
O2211 Mn2196 2.162 . S
O2211 C2199 1.281 . S
O2212 Mn2196 2.297 . S
O2212 C2199 1.236 . S
N2213 Mn2197 2.282 . S
N2213 C2214 1.328 . S
N2213 C2218 1.318 . S
C2214 N2213 1.328 . S
C2214 C2215 1.457 . S
C2214 H2219 0.929 . S
C2215 C2214 1.457 . S
C2215 C2216 1.291 . S
C2215 H2228 0.931 . S
C2216 C2215 1.291 . S
C2216 C2217 1.373 . S
C2216 H2229 0.929 . S
C2217 C2216 1.373 . S
C2217 C2218 1.396 . S
C2217 C2224 1.403 . S
C2218 C2208 1.476 . S
C2218 N2213 1.318 . S
C2218 C2217 1.396 . S
H2219 C2214 0.929 . S
O2220 Mn2196 2.385 . S
O2220 C2198 1.234 . S
O2221 Mn2196 2.209 . S
O2221 Mn2197 2.215 . S
O2221 C2198 1.283 . S
O2222 Mn2196 2.094 . S
O2222 C2200 1.240 . S
O2223 Mn2197 2.117 . S
O2223 C2200 1.264 . S
C2224 C2217 1.403 . S
C2224 C2225 1.399 . S
C2224 H2230 0.929 . S
C2225 C2205 1.449 . S
C2225 C2224 1.399 . S
C2225 H2231 0.930 . S
H2226 C2206 0.931 . S
H2227 C2207 0.930 . S
H2228 C2215 0.931 . S
H2229 C2216 0.929 . S
H2230 C2224 0.929 . S
H2231 C2225 0.930 . S
Mn2232 O2237 2.095 . S
Mn2232 O2247 2.162 . S
Mn2232 O2248 2.297 . S
Mn2232 O2256 2.385 . S
Mn2232 O2257 2.209 . S
Mn2232 O2258 2.094 . S
Mn2233 O2238 2.121 . S
Mn2233 N2240 2.257 . S
Mn2233 N2249 2.282 . S
Mn2233 O2257 2.215 . S
Mn2233 O2259 2.117 . S
C2234 O2256 1.234 . S
C2234 O2257 1.283 . S
C2235 O2247 1.281 . S
C2235 O2248 1.236 . S
C2236 O2258 1.240 . S
C2236 O2259 1.264 . S
O2237 Mn2232 2.095 . S
O2237 C2246 1.250 . S
O2238 Mn2233 2.121 . S
O2238 C2246 1.258 . S
C2239 N2240 1.326 . S
C2239 C2243 1.460 . S
C2239 H2245 0.929 . S
N2240 Mn2233 2.257 . S
N2240 C2239 1.326 . S
N2240 C2244 1.362 . S
C2241 C2242 1.258 . S
C2241 C2244 1.431 . S
C2241 C2261 1.449 . S
C2242 C2241 1.258 . S
C2242 C2243 1.477 . S
C2242 H2262 0.931 . S
C2243 C2239 1.460 . S
C2243 C2242 1.477 . S
C2243 H2263 0.930 . S
C2244 N2240 1.362 . S
C2244 C2241 1.431 . S
C2244 C2254 1.476 . S
H2245 C2239 0.929 . S
C2246 O2237 1.250 . S
C2246 O2238 1.258 . S
O2247 Mn2232 2.162 . S
O2247 C2235 1.281 . S
O2248 Mn2232 2.297 . S
O2248 C2235 1.236 . S
N2249 Mn2233 2.282 . S
N2249 C2250 1.328 . S
N2249 C2254 1.318 . S
C2250 N2249 1.328 . S
C2250 C2251 1.457 . S
C2250 H2255 0.929 . S
C2251 C2250 1.457 . S
C2251 C2252 1.291 . S
C2251 H2264 0.931 . S
C2252 C2251 1.291 . S
C2252 C2253 1.373 . S
C2252 H2265 0.929 . S
C2253 C2252 1.373 . S
C2253 C2254 1.396 . S
C2253 C2260 1.403 . S
C2254 C2244 1.476 . S
C2254 N2249 1.318 . S
C2254 C2253 1.396 . S
H2255 C2250 0.929 . S
O2256 Mn2232 2.385 . S
O2256 C2234 1.234 . S
O2257 Mn2232 2.209 . S
O2257 Mn2233 2.215 . S
O2257 C2234 1.283 . S
O2258 Mn2232 2.094 . S
O2258 C2236 1.240 . S
O2259 Mn2233 2.117 . S
O2259 C2236 1.264 . S
C2260 C2253 1.403 . S
C2260 C2261 1.399 . S
C2260 H2266 0.929 . S
C2261 C2241 1.449 . S
C2261 C2260 1.399 . S
C2261 H2267 0.930 . S
H2262 C2242 0.931 . S
H2263 C2243 0.930 . S
H2264 C2251 0.931 . S
H2265 C2252 0.929 . S
H2266 C2260 0.929 . S
H2267 C2261 0.930 . S
Mn2268 O2273 2.095 . S
Mn2268 O2283 2.162 . S
Mn2268 O2284 2.297 . S
Mn2268 O2292 2.385 . S
Mn2268 O2293 2.209 . S
Mn2268 O2294 2.094 . S
Mn2269 O2274 2.121 . S
Mn2269 N2276 2.257 . S
Mn2269 N2285 2.282 . S
Mn2269 O2293 2.215 . S
Mn2269 O2295 2.117 . S
C2270 O2292 1.234 . S
C2270 O2293 1.283 . S
C2271 O2283 1.281 . S
C2271 O2284 1.236 . S
C2272 O2294 1.240 . S
C2272 O2295 1.264 . S
O2273 Mn2268 2.095 . S
O2273 C2282 1.250 . S
O2274 Mn2269 2.121 . S
O2274 C2282 1.258 . S
C2275 N2276 1.326 . S
C2275 C2279 1.460 . S
C2275 H2281 0.929 . S
N2276 Mn2269 2.257 . S
N2276 C2275 1.326 . S
N2276 C2280 1.362 . S
C2277 C2278 1.258 . S
C2277 C2280 1.431 . S
C2277 C2297 1.449 . S
C2278 C2277 1.258 . S
C2278 C2279 1.477 . S
C2278 H2298 0.931 . S
C2279 C2275 1.460 . S
C2279 C2278 1.477 . S
C2279 H2299 0.930 . S
C2280 N2276 1.362 . S
C2280 C2277 1.431 . S
C2280 C2290 1.476 . S
H2281 C2275 0.929 . S
C2282 O2273 1.250 . S
C2282 O2274 1.258 . S
O2283 Mn2268 2.162 . S
O2283 C2271 1.281 . S
O2284 Mn2268 2.297 . S
O2284 C2271 1.236 . S
N2285 Mn2269 2.282 . S
N2285 C2286 1.328 . S
N2285 C2290 1.318 . S
C2286 N2285 1.328 . S
C2286 C2287 1.457 . S
C2286 H2291 0.929 . S
C2287 C2286 1.457 . S
C2287 C2288 1.291 . S
C2287 H2300 0.931 . S
C2288 C2287 1.291 . S
C2288 C2289 1.373 . S
C2288 H2301 0.929 . S
C2289 C2288 1.373 . S
C2289 C2290 1.396 . S
C2289 C2296 1.403 . S
C2290 C2280 1.476 . S
C2290 N2285 1.318 . S
C2290 C2289 1.396 . S
H2291 C2286 0.929 . S
O2292 Mn2268 2.385 . S
O2292 C2270 1.234 . S
O2293 Mn2268 2.209 . S
O2293 Mn2269 2.215 . S
O2293 C2270 1.283 . S
O2294 Mn2268 2.094 . S
O2294 C2272 1.240 . S
O2295 Mn2269 2.117 . S
O2295 C2272 1.264 . S
C2296 C2289 1.403 . S
C2296 C2297 1.399 . S
C2296 H2302 0.929 . S
C2297 C2277 1.449 . S
C2297 C2296 1.399 . S
C2297 H2303 0.930 . S
H2298 C2278 0.931 . S
H2299 C2279 0.930 . S
H2300 C2287 0.931 . S
H2301 C2288 0.929 . S
H2302 C2296 0.929 . S
H2303 C2297 0.930 . S
Mn2304 O2309 2.095 . S
Mn2304 O2319 2.162 . S
Mn2304 O2320 2.297 . S
Mn2304 O2328 2.385 . S
Mn2304 O2329 2.209 . S
Mn2304 O2330 2.094 . S
Mn2305 O2310 2.121 . S
Mn2305 N2312 2.257 . S
Mn2305 N2321 2.282 . S
Mn2305 O2329 2.215 . S
Mn2305 O2331 2.117 . S
C2306 O2328 1.234 . S
C2306 O2329 1.283 . S
C2307 O2319 1.281 . S
C2307 O2320 1.236 . S
C2308 O2330 1.240 . S
C2308 O2331 1.264 . S
O2309 Mn2304 2.095 . S
O2309 C2318 1.250 . S
O2310 Mn2305 2.121 . S
O2310 C2318 1.258 . S
C2311 N2312 1.326 . S
C2311 C2315 1.460 . S
C2311 H2317 0.929 . S
N2312 Mn2305 2.257 . S
N2312 C2311 1.326 . S
N2312 C2316 1.362 . S
C2313 C2314 1.258 . S
C2313 C2316 1.431 . S
C2313 C2333 1.449 . S
C2314 C2313 1.258 . S
C2314 C2315 1.477 . S
C2314 H2334 0.931 . S
C2315 C2311 1.460 . S
C2315 C2314 1.477 . S
C2315 H2335 0.930 . S
C2316 N2312 1.362 . S
C2316 C2313 1.431 . S
C2316 C2326 1.476 . S
H2317 C2311 0.929 . S
C2318 O2309 1.250 . S
C2318 O2310 1.258 . S
O2319 Mn2304 2.162 . S
O2319 C2307 1.281 . S
O2320 Mn2304 2.297 . S
O2320 C2307 1.236 . S
N2321 Mn2305 2.282 . S
N2321 C2322 1.328 . S
N2321 C2326 1.318 . S
C2322 N2321 1.328 . S
C2322 C2323 1.457 . S
C2322 H2327 0.929 . S
C2323 C2322 1.457 . S
C2323 C2324 1.291 . S
C2323 H2336 0.931 . S
C2324 C2323 1.291 . S
C2324 C2325 1.373 . S
C2324 H2337 0.929 . S
C2325 C2324 1.373 . S
C2325 C2326 1.396 . S
C2325 C2332 1.403 . S
C2326 C2316 1.476 . S
C2326 N2321 1.318 . S
C2326 C2325 1.396 . S
H2327 C2322 0.929 . S
O2328 Mn2304 2.385 . S
O2328 C2306 1.234 . S
O2329 Mn2304 2.209 . S
O2329 Mn2305 2.215 . S
O2329 C2306 1.283 . S
O2330 Mn2304 2.094 . S
O2330 C2308 1.240 . S
O2331 Mn2305 2.117 . S
O2331 C2308 1.264 . S
C2332 C2325 1.403 . S
C2332 C2333 1.399 . S
C2332 H2338 0.929 . S
C2333 C2313 1.449 . S
C2333 C2332 1.399 . S
C2333 H2339 0.930 . S
H2334 C2314 0.931 . S
H2335 C2315 0.930 . S
H2336 C2323 0.931 . S
H2337 C2324 0.929 . S
H2338 C2332 0.929 . S
H2339 C2333 0.930 . S
Mn2340 O2345 2.095 . S
Mn2340 O2355 2.162 . S
Mn2340 O2356 2.297 . S
Mn2340 O2364 2.385 . S
Mn2340 O2365 2.209 . S
Mn2340 O2366 2.094 . S
Mn2341 O2346 2.121 . S
Mn2341 N2348 2.257 . S
Mn2341 N2357 2.282 . S
Mn2341 O2365 2.215 . S
Mn2341 O2367 2.117 . S
C2342 O2364 1.234 . S
C2342 O2365 1.283 . S
C2343 O2355 1.281 . S
C2343 O2356 1.236 . S
C2344 O2366 1.240 . S
C2344 O2367 1.264 . S
O2345 Mn2340 2.095 . S
O2345 C2354 1.250 . S
O2346 Mn2341 2.121 . S
O2346 C2354 1.258 . S
C2347 N2348 1.326 . S
C2347 C2351 1.460 . S
C2347 H2353 0.929 . S
N2348 Mn2341 2.257 . S
N2348 C2347 1.326 . S
N2348 C2352 1.362 . S
C2349 C2350 1.258 . S
C2349 C2352 1.431 . S
C2349 C2369 1.449 . S
C2350 C2349 1.258 . S
C2350 C2351 1.477 . S
C2350 H2370 0.931 . S
C2351 C2347 1.460 . S
C2351 C2350 1.477 . S
C2351 H2371 0.930 . S
C2352 N2348 1.362 . S
C2352 C2349 1.431 . S
C2352 C2362 1.476 . S
H2353 C2347 0.929 . S
C2354 O2345 1.250 . S
C2354 O2346 1.258 . S
O2355 Mn2340 2.162 . S
O2355 C2343 1.281 . S
O2356 Mn2340 2.297 . S
O2356 C2343 1.236 . S
N2357 Mn2341 2.282 . S
N2357 C2358 1.328 . S
N2357 C2362 1.318 . S
C2358 N2357 1.328 . S
C2358 C2359 1.457 . S
C2358 H2363 0.929 . S
C2359 C2358 1.457 . S
C2359 C2360 1.291 . S
C2359 H2372 0.931 . S
C2360 C2359 1.291 . S
C2360 C2361 1.373 . S
C2360 H2373 0.929 . S
C2361 C2360 1.373 . S
C2361 C2362 1.396 . S
C2361 C2368 1.403 . S
C2362 C2352 1.476 . S
C2362 N2357 1.318 . S
C2362 C2361 1.396 . S
H2363 C2358 0.929 . S
O2364 Mn2340 2.385 . S
O2364 C2342 1.234 . S
O2365 Mn2340 2.209 . S
O2365 Mn2341 2.215 . S
O2365 C2342 1.283 . S
O2366 Mn2340 2.094 . S
O2366 C2344 1.240 . S
O2367 Mn2341 2.117 . S
O2367 C2344 1.264 . S
C2368 C2361 1.403 . S
C2368 C2369 1.399 . S
C2368 H2374 0.929 . S
C2369 C2349 1.449 . S
C2369 C2368 1.399 . S
C2369 H2375 0.930 . S
H2370 C2350 0.931 . S
H2371 C2351 0.930 . S
H2372 C2359 0.931 . S
H2373 C2360 0.929 . S
H2374 C2368 0.929 . S
H2375 C2369 0.930 . S
Mn2376 O2381 2.095 . S
Mn2376 O2391 2.162 . S
Mn2376 O2392 2.297 . S
Mn2376 O2400 2.385 . S
Mn2376 O2401 2.209 . S
Mn2376 O2402 2.094 . S
Mn2377 O2382 2.121 . S
Mn2377 N2384 2.257 . S
Mn2377 N2393 2.282 . S
Mn2377 O2401 2.215 . S
Mn2377 O2403 2.117 . S
C2378 O2400 1.234 . S
C2378 O2401 1.283 . S
C2379 O2391 1.281 . S
C2379 O2392 1.236 . S
C2380 O2402 1.240 . S
C2380 O2403 1.264 . S
O2381 Mn2376 2.095 . S
O2381 C2390 1.250 . S
O2382 Mn2377 2.121 . S
O2382 C2390 1.258 . S
C2383 N2384 1.326 . S
C2383 C2387 1.460 . S
C2383 H2389 0.929 . S
N2384 Mn2377 2.257 . S
N2384 C2383 1.326 . S
N2384 C2388 1.362 . S
C2385 C2386 1.258 . S
C2385 C2388 1.431 . S
C2385 C2405 1.449 . S
C2386 C2385 1.258 . S
C2386 C2387 1.477 . S
C2386 H2406 0.931 . S
C2387 C2383 1.460 . S
C2387 C2386 1.477 . S
C2387 H2407 0.930 . S
C2388 N2384 1.362 . S
C2388 C2385 1.431 . S
C2388 C2398 1.476 . S
H2389 C2383 0.929 . S
C2390 O2381 1.250 . S
C2390 O2382 1.258 . S
O2391 Mn2376 2.162 . S
O2391 C2379 1.281 . S
O2392 Mn2376 2.297 . S
O2392 C2379 1.236 . S
N2393 Mn2377 2.282 . S
N2393 C2394 1.328 . S
N2393 C2398 1.318 . S
C2394 N2393 1.328 . S
C2394 C2395 1.457 . S
C2394 H2399 0.929 . S
C2395 C2394 1.457 . S
C2395 C2396 1.291 . S
C2395 H2408 0.931 . S
C2396 C2395 1.291 . S
C2396 C2397 1.373 . S
C2396 H2409 0.929 . S
C2397 C2396 1.373 . S
C2397 C2398 1.396 . S
C2397 C2404 1.403 . S
C2398 C2388 1.476 . S
C2398 N2393 1.318 . S
C2398 C2397 1.396 . S
H2399 C2394 0.929 . S
O2400 Mn2376 2.385 . S
O2400 C2378 1.234 . S
O2401 Mn2376 2.209 . S
O2401 Mn2377 2.215 . S
O2401 C2378 1.283 . S
O2402 Mn2376 2.094 . S
O2402 C2380 1.240 . S
O2403 Mn2377 2.117 . S
O2403 C2380 1.264 . S
C2404 C2397 1.403 . S
C2404 C2405 1.399 . S
C2404 H2410 0.929 . S
C2405 C2385 1.449 . S
C2405 C2404 1.399 . S
C2405 H2411 0.930 . S
H2406 C2386 0.931 . S
H2407 C2387 0.930 . S
H2408 C2395 0.931 . S
H2409 C2396 0.929 . S
H2410 C2404 0.929 . S
H2411 C2405 0.930 . S
Mn2412 O2417 2.095 . S
Mn2412 O2427 2.162 . S
Mn2412 O2428 2.297 . S
Mn2412 O2436 2.385 . S
Mn2412 O2437 2.209 . S
Mn2412 O2438 2.094 . S
Mn2413 O2418 2.121 . S
Mn2413 N2420 2.257 . S
Mn2413 N2429 2.282 . S
Mn2413 O2437 2.215 . S
Mn2413 O2439 2.117 . S
C2414 O2436 1.234 . S
C2414 O2437 1.283 . S
C2415 O2427 1.281 . S
C2415 O2428 1.236 . S
C2416 O2438 1.240 . S
C2416 O2439 1.264 . S
O2417 Mn2412 2.095 . S
O2417 C2426 1.250 . S
O2418 Mn2413 2.121 . S
O2418 C2426 1.258 . S
C2419 N2420 1.326 . S
C2419 C2423 1.460 . S
C2419 H2425 0.929 . S
N2420 Mn2413 2.257 . S
N2420 C2419 1.326 . S
N2420 C2424 1.362 . S
C2421 C2422 1.258 . S
C2421 C2424 1.431 . S
C2421 C2441 1.449 . S
C2422 C2421 1.258 . S
C2422 C2423 1.477 . S
C2422 H2442 0.931 . S
C2423 C2419 1.460 . S
C2423 C2422 1.477 . S
C2423 H2443 0.930 . S
C2424 N2420 1.362 . S
C2424 C2421 1.431 . S
C2424 C2434 1.476 . S
H2425 C2419 0.929 . S
C2426 O2417 1.250 . S
C2426 O2418 1.258 . S
O2427 Mn2412 2.162 . S
O2427 C2415 1.281 . S
O2428 Mn2412 2.297 . S
O2428 C2415 1.236 . S
N2429 Mn2413 2.282 . S
N2429 C2430 1.328 . S
N2429 C2434 1.318 . S
C2430 N2429 1.328 . S
C2430 C2431 1.457 . S
C2430 H2435 0.929 . S
C2431 C2430 1.457 . S
C2431 C2432 1.291 . S
C2431 H2444 0.931 . S
C2432 C2431 1.291 . S
C2432 C2433 1.373 . S
C2432 H2445 0.929 . S
C2433 C2432 1.373 . S
C2433 C2434 1.396 . S
C2433 C2440 1.403 . S
C2434 C2424 1.476 . S
C2434 N2429 1.318 . S
C2434 C2433 1.396 . S
H2435 C2430 0.929 . S
O2436 Mn2412 2.385 . S
O2436 C2414 1.234 . S
O2437 Mn2412 2.209 . S
O2437 Mn2413 2.215 . S
O2437 C2414 1.283 . S
O2438 Mn2412 2.094 . S
O2438 C2416 1.240 . S
O2439 Mn2413 2.117 . S
O2439 C2416 1.264 . S
C2440 C2433 1.403 . S
C2440 C2441 1.399 . S
C2440 H2446 0.929 . S
C2441 C2421 1.449 . S
C2441 C2440 1.399 . S
C2441 H2447 0.930 . S
H2442 C2422 0.931 . S
H2443 C2423 0.930 . S
H2444 C2431 0.931 . S
H2445 C2432 0.929 . S
H2446 C2440 0.929 . S
H2447 C2441 0.930 . S
Mn2448 O2453 2.095 . S
Mn2448 O2463 2.162 . S
Mn2448 O2464 2.297 . S
Mn2448 O2472 2.385 . S
Mn2448 O2473 2.209 . S
Mn2448 O2474 2.094 . S
Mn2449 O2454 2.121 . S
Mn2449 N2456 2.257 . S
Mn2449 N2465 2.282 . S
Mn2449 O2473 2.215 . S
Mn2449 O2475 2.117 . S
C2450 O2472 1.234 . S
C2450 O2473 1.283 . S
C2451 O2463 1.281 . S
C2451 O2464 1.236 . S
C2452 O2474 1.240 . S
C2452 O2475 1.264 . S
O2453 Mn2448 2.095 . S
O2453 C2462 1.250 . S
O2454 Mn2449 2.121 . S
O2454 C2462 1.258 . S
C2455 N2456 1.326 . S
C2455 C2459 1.460 . S
C2455 H2461 0.929 . S
N2456 Mn2449 2.257 . S
N2456 C2455 1.326 . S
N2456 C2460 1.362 . S
C2457 C2458 1.258 . S
C2457 C2460 1.431 . S
C2457 C2477 1.449 . S
C2458 C2457 1.258 . S
C2458 C2459 1.477 . S
C2458 H2478 0.931 . S
C2459 C2455 1.460 . S
C2459 C2458 1.477 . S
C2459 H2479 0.930 . S
C2460 N2456 1.362 . S
C2460 C2457 1.431 . S
C2460 C2470 1.476 . S
H2461 C2455 0.929 . S
C2462 O2453 1.250 . S
C2462 O2454 1.258 . S
O2463 Mn2448 2.162 . S
O2463 C2451 1.281 . S
O2464 Mn2448 2.297 . S
O2464 C2451 1.236 . S
N2465 Mn2449 2.282 . S
N2465 C2466 1.328 . S
N2465 C2470 1.318 . S
C2466 N2465 1.328 . S
C2466 C2467 1.457 . S
C2466 H2471 0.929 . S
C2467 C2466 1.457 . S
C2467 C2468 1.291 . S
C2467 H2480 0.931 . S
C2468 C2467 1.291 . S
C2468 C2469 1.373 . S
C2468 H2481 0.929 . S
C2469 C2468 1.373 . S
C2469 C2470 1.396 . S
C2469 C2476 1.403 . S
C2470 C2460 1.476 . S
C2470 N2465 1.318 . S
C2470 C2469 1.396 . S
H2471 C2466 0.929 . S
O2472 Mn2448 2.385 . S
O2472 C2450 1.234 . S
O2473 Mn2448 2.209 . S
O2473 Mn2449 2.215 . S
O2473 C2450 1.283 . S
O2474 Mn2448 2.094 . S
O2474 C2452 1.240 . S
O2475 Mn2449 2.117 . S
O2475 C2452 1.264 . S
C2476 C2469 1.403 . S
C2476 C2477 1.399 . S
C2476 H2482 0.929 . S
C2477 C2457 1.449 . S
C2477 C2476 1.399 . S
C2477 H2483 0.930 . S
H2478 C2458 0.931 . S
H2479 C2459 0.930 . S
H2480 C2467 0.931 . S
H2481 C2468 0.929 . S
H2482 C2476 0.929 . S
H2483 C2477 0.930 . S
Mn2484 O2489 2.095 . S
Mn2484 O2499 2.162 . S
Mn2484 O2500 2.297 . S
Mn2484 O2508 2.385 . S
Mn2484 O2509 2.209 . S
Mn2484 O2510 2.094 . S
Mn2485 O2490 2.121 . S
Mn2485 N2492 2.257 . S
Mn2485 N2501 2.282 . S
Mn2485 O2509 2.215 . S
Mn2485 O2511 2.117 . S
C2486 O2508 1.234 . S
C2486 O2509 1.283 . S
C2487 O2499 1.281 . S
C2487 O2500 1.236 . S
C2488 O2510 1.240 . S
C2488 O2511 1.264 . S
O2489 Mn2484 2.095 . S
O2489 C2498 1.250 . S
O2490 Mn2485 2.121 . S
O2490 C2498 1.258 . S
C2491 N2492 1.326 . S
C2491 C2495 1.460 . S
C2491 H2497 0.929 . S
N2492 Mn2485 2.257 . S
N2492 C2491 1.326 . S
N2492 C2496 1.362 . S
C2493 C2494 1.258 . S
C2493 C2496 1.431 . S
C2493 C2513 1.449 . S
C2494 C2493 1.258 . S
C2494 C2495 1.477 . S
C2494 H2514 0.931 . S
C2495 C2491 1.460 . S
C2495 C2494 1.477 . S
C2495 H2515 0.930 . S
C2496 N2492 1.362 . S
C2496 C2493 1.431 . S
C2496 C2506 1.476 . S
H2497 C2491 0.929 . S
C2498 O2489 1.250 . S
C2498 O2490 1.258 . S
O2499 Mn2484 2.162 . S
O2499 C2487 1.281 . S
O2500 Mn2484 2.297 . S
O2500 C2487 1.236 . S
N2501 Mn2485 2.282 . S
N2501 C2502 1.328 . S
N2501 C2506 1.318 . S
C2502 N2501 1.328 . S
C2502 C2503 1.457 . S
C2502 H2507 0.929 . S
C2503 C2502 1.457 . S
C2503 C2504 1.291 . S
C2503 H2516 0.931 . S
C2504 C2503 1.291 . S
C2504 C2505 1.373 . S
C2504 H2517 0.929 . S
C2505 C2504 1.373 . S
C2505 C2506 1.396 . S
C2505 C2512 1.403 . S
C2506 C2496 1.476 . S
C2506 N2501 1.318 . S
C2506 C2505 1.396 . S
H2507 C2502 0.929 . S
O2508 Mn2484 2.385 . S
O2508 C2486 1.234 . S
O2509 Mn2484 2.209 . S
O2509 Mn2485 2.215 . S
O2509 C2486 1.283 . S
O2510 Mn2484 2.094 . S
O2510 C2488 1.240 . S
O2511 Mn2485 2.117 . S
O2511 C2488 1.264 . S
C2512 C2505 1.403 . S
C2512 C2513 1.399 . S
C2512 H2518 0.929 . S
C2513 C2493 1.449 . S
C2513 C2512 1.399 . S
C2513 H2519 0.930 . S
H2514 C2494 0.931 . S
H2515 C2495 0.930 . S
H2516 C2503 0.931 . S
H2517 C2504 0.929 . S
H2518 C2512 0.929 . S
H2519 C2513 0.930 . S
Mn2520 O2525 2.095 . S
Mn2520 O2535 2.162 . S
Mn2520 O2536 2.297 . S
Mn2520 O2544 2.385 . S
Mn2520 O2545 2.209 . S
Mn2520 O2546 2.094 . S
Mn2521 O2526 2.121 . S
Mn2521 N2528 2.257 . S
Mn2521 N2537 2.282 . S
Mn2521 O2545 2.215 . S
Mn2521 O2547 2.117 . S
C2522 O2544 1.234 . S
C2522 O2545 1.283 . S
C2523 O2535 1.281 . S
C2523 O2536 1.236 . S
C2524 O2546 1.240 . S
C2524 O2547 1.264 . S
O2525 Mn2520 2.095 . S
O2525 C2534 1.250 . S
O2526 Mn2521 2.121 . S
O2526 C2534 1.258 . S
C2527 N2528 1.326 . S
C2527 C2531 1.460 . S
C2527 H2533 0.929 . S
N2528 Mn2521 2.257 . S
N2528 C2527 1.326 . S
N2528 C2532 1.362 . S
C2529 C2530 1.258 . S
C2529 C2532 1.431 . S
C2529 C2549 1.449 . S
C2530 C2529 1.258 . S
C2530 C2531 1.477 . S
C2530 H2550 0.931 . S
C2531 C2527 1.460 . S
C2531 C2530 1.477 . S
C2531 H2551 0.930 . S
C2532 N2528 1.362 . S
C2532 C2529 1.431 . S
C2532 C2542 1.476 . S
H2533 C2527 0.929 . S
C2534 O2525 1.250 . S
C2534 O2526 1.258 . S
O2535 Mn2520 2.162 . S
O2535 C2523 1.281 . S
O2536 Mn2520 2.297 . S
O2536 C2523 1.236 . S
N2537 Mn2521 2.282 . S
N2537 C2538 1.328 . S
N2537 C2542 1.318 . S
C2538 N2537 1.328 . S
C2538 C2539 1.457 . S
C2538 H2543 0.929 . S
C2539 C2538 1.457 . S
C2539 C2540 1.291 . S
C2539 H2552 0.931 . S
C2540 C2539 1.291 . S
C2540 C2541 1.373 . S
C2540 H2553 0.929 . S
C2541 C2540 1.373 . S
C2541 C2542 1.396 . S
C2541 C2548 1.403 . S
C2542 C2532 1.476 . S
C2542 N2537 1.318 . S
C2542 C2541 1.396 . S
H2543 C2538 0.929 . S
O2544 Mn2520 2.385 . S
O2544 C2522 1.234 . S
O2545 Mn2520 2.209 . S
O2545 Mn2521 2.215 . S
O2545 C2522 1.283 . S
O2546 Mn2520 2.094 . S
O2546 C2524 1.240 . S
O2547 Mn2521 2.117 . S
O2547 C2524 1.264 . S
C2548 C2541 1.403 . S
C2548 C2549 1.399 . S
C2548 H2554 0.929 . S
C2549 C2529 1.449 . S
C2549 C2548 1.399 . S
C2549 H2555 0.930 . S
H2550 C2530 0.931 . S
H2551 C2531 0.930 . S
H2552 C2539 0.931 . S
H2553 C2540 0.929 . S
H2554 C2548 0.929 . S
H2555 C2549 0.930 . S
Mn2556 O2561 2.095 . S
Mn2556 O2571 2.162 . S
Mn2556 O2572 2.297 . S
Mn2556 O2580 2.385 . S
Mn2556 O2581 2.209 . S
Mn2556 O2582 2.094 . S
Mn2557 O2562 2.121 . S
Mn2557 N2564 2.257 . S
Mn2557 N2573 2.282 . S
Mn2557 O2581 2.215 . S
Mn2557 O2583 2.117 . S
C2558 O2580 1.234 . S
C2558 O2581 1.283 . S
C2559 O2571 1.281 . S
C2559 O2572 1.236 . S
C2560 O2582 1.240 . S
C2560 O2583 1.264 . S
O2561 Mn2556 2.095 . S
O2561 C2570 1.250 . S
O2562 Mn2557 2.121 . S
O2562 C2570 1.258 . S
C2563 N2564 1.326 . S
C2563 C2567 1.460 . S
C2563 H2569 0.929 . S
N2564 Mn2557 2.257 . S
N2564 C2563 1.326 . S
N2564 C2568 1.362 . S
C2565 C2566 1.258 . S
C2565 C2568 1.431 . S
C2565 C2585 1.449 . S
C2566 C2565 1.258 . S
C2566 C2567 1.477 . S
C2566 H2586 0.931 . S
C2567 C2563 1.460 . S
C2567 C2566 1.477 . S
C2567 H2587 0.930 . S
C2568 N2564 1.362 . S
C2568 C2565 1.431 . S
C2568 C2578 1.476 . S
H2569 C2563 0.929 . S
C2570 O2561 1.250 . S
C2570 O2562 1.258 . S
O2571 Mn2556 2.162 . S
O2571 C2559 1.281 . S
O2572 Mn2556 2.297 . S
O2572 C2559 1.236 . S
N2573 Mn2557 2.282 . S
N2573 C2574 1.328 . S
N2573 C2578 1.318 . S
C2574 N2573 1.328 . S
C2574 C2575 1.457 . S
C2574 H2579 0.929 . S
C2575 C2574 1.457 . S
C2575 C2576 1.291 . S
C2575 H2588 0.931 . S
C2576 C2575 1.291 . S
C2576 C2577 1.373 . S
C2576 H2589 0.929 . S
C2577 C2576 1.373 . S
C2577 C2578 1.396 . S
C2577 C2584 1.403 . S
C2578 C2568 1.476 . S
C2578 N2573 1.318 . S
C2578 C2577 1.396 . S
H2579 C2574 0.929 . S
O2580 Mn2556 2.385 . S
O2580 C2558 1.234 . S
O2581 Mn2556 2.209 . S
O2581 Mn2557 2.215 . S
O2581 C2558 1.283 . S
O2582 Mn2556 2.094 . S
O2582 C2560 1.240 . S
O2583 Mn2557 2.117 . S
O2583 C2560 1.264 . S
C2584 C2577 1.403 . S
C2584 C2585 1.399 . S
C2584 H2590 0.929 . S
C2585 C2565 1.449 . S
C2585 C2584 1.399 . S
C2585 H2591 0.930 . S
H2586 C2566 0.931 . S
H2587 C2567 0.930 . S
H2588 C2575 0.931 . S
H2589 C2576 0.929 . S
H2590 C2584 0.929 . S
H2591 C2585 0.930 . S
Mn2592 O2597 2.095 . S
Mn2592 O2607 2.162 . S
Mn2592 O2608 2.297 . S
Mn2592 O2616 2.385 . S
Mn2592 O2617 2.209 . S
Mn2592 O2618 2.094 . S
Mn2593 O2598 2.121 . S
Mn2593 N2600 2.257 . S
Mn2593 N2609 2.282 . S
Mn2593 O2617 2.215 . S
Mn2593 O2619 2.117 . S
C2594 O2616 1.234 . S
C2594 O2617 1.283 . S
C2595 O2607 1.281 . S
C2595 O2608 1.236 . S
C2596 O2618 1.240 . S
C2596 O2619 1.264 . S
O2597 Mn2592 2.095 . S
O2597 C2606 1.250 . S
O2598 Mn2593 2.121 . S
O2598 C2606 1.258 . S
C2599 N2600 1.326 . S
C2599 C2603 1.460 . S
C2599 H2605 0.929 . S
N2600 Mn2593 2.257 . S
N2600 C2599 1.326 . S
N2600 C2604 1.362 . S
C2601 C2602 1.258 . S
C2601 C2604 1.431 . S
C2601 C2621 1.449 . S
C2602 C2601 1.258 . S
C2602 C2603 1.477 . S
C2602 H2622 0.931 . S
C2603 C2599 1.460 . S
C2603 C2602 1.477 . S
C2603 H2623 0.930 . S
C2604 N2600 1.362 . S
C2604 C2601 1.431 . S
C2604 C2614 1.476 . S
H2605 C2599 0.929 . S
C2606 O2597 1.250 . S
C2606 O2598 1.258 . S
O2607 Mn2592 2.162 . S
O2607 C2595 1.281 . S
O2608 Mn2592 2.297 . S
O2608 C2595 1.236 . S
N2609 Mn2593 2.282 . S
N2609 C2610 1.328 . S
N2609 C2614 1.318 . S
C2610 N2609 1.328 . S
C2610 C2611 1.457 . S
C2610 H2615 0.929 . S
C2611 C2610 1.457 . S
C2611 C2612 1.291 . S
C2611 H2624 0.931 . S
C2612 C2611 1.291 . S
C2612 C2613 1.373 . S
C2612 H2625 0.929 . S
C2613 C2612 1.373 . S
C2613 C2614 1.396 . S
C2613 C2620 1.403 . S
C2614 C2604 1.476 . S
C2614 N2609 1.318 . S
C2614 C2613 1.396 . S
H2615 C2610 0.929 . S
O2616 Mn2592 2.385 . S
O2616 C2594 1.234 . S
O2617 Mn2592 2.209 . S
O2617 Mn2593 2.215 . S
O2617 C2594 1.283 . S
O2618 Mn2592 2.094 . S
O2618 C2596 1.240 . S
O2619 Mn2593 2.117 . S
O2619 C2596 1.264 . S
C2620 C2613 1.403 . S
C2620 C2621 1.399 . S
C2620 H2626 0.929 . S
C2621 C2601 1.449 . S
C2621 C2620 1.399 . S
C2621 H2627 0.930 . S
H2622 C2602 0.931 . S
H2623 C2603 0.930 . S
H2624 C2611 0.931 . S
H2625 C2612 0.929 . S
H2626 C2620 0.929 . S
H2627 C2621 0.930 . S
Mn2628 O2633 2.095 . S
Mn2628 O2643 2.162 . S
Mn2628 O2644 2.297 . S
Mn2628 O2652 2.385 . S
Mn2628 O2653 2.209 . S
Mn2628 O2654 2.094 . S
Mn2629 O2634 2.121 . S
Mn2629 N2636 2.257 . S
Mn2629 N2645 2.282 . S
Mn2629 O2653 2.215 . S
Mn2629 O2655 2.117 . S
C2630 O2652 1.234 . S
C2630 O2653 1.283 . S
C2631 O2643 1.281 . S
C2631 O2644 1.236 . S
C2632 O2654 1.240 . S
C2632 O2655 1.264 . S
O2633 Mn2628 2.095 . S
O2633 C2642 1.250 . S
O2634 Mn2629 2.121 . S
O2634 C2642 1.258 . S
C2635 N2636 1.326 . S
C2635 C2639 1.460 . S
C2635 H2641 0.929 . S
N2636 Mn2629 2.257 . S
N2636 C2635 1.326 . S
N2636 C2640 1.362 . S
C2637 C2638 1.258 . S
C2637 C2640 1.431 . S
C2637 C2657 1.449 . S
C2638 C2637 1.258 . S
C2638 C2639 1.477 . S
C2638 H2658 0.931 . S
C2639 C2635 1.460 . S
C2639 C2638 1.477 . S
C2639 H2659 0.930 . S
C2640 N2636 1.362 . S
C2640 C2637 1.431 . S
C2640 C2650 1.476 . S
H2641 C2635 0.929 . S
C2642 O2633 1.250 . S
C2642 O2634 1.258 . S
O2643 Mn2628 2.162 . S
O2643 C2631 1.281 . S
O2644 Mn2628 2.297 . S
O2644 C2631 1.236 . S
N2645 Mn2629 2.282 . S
N2645 C2646 1.328 . S
N2645 C2650 1.318 . S
C2646 N2645 1.328 . S
C2646 C2647 1.457 . S
C2646 H2651 0.929 . S
C2647 C2646 1.457 . S
C2647 C2648 1.291 . S
C2647 H2660 0.931 . S
C2648 C2647 1.291 . S
C2648 C2649 1.373 . S
C2648 H2661 0.929 . S
C2649 C2648 1.373 . S
C2649 C2650 1.396 . S
C2649 C2656 1.403 . S
C2650 C2640 1.476 . S
C2650 N2645 1.318 . S
C2650 C2649 1.396 . S
H2651 C2646 0.929 . S
O2652 Mn2628 2.385 . S
O2652 C2630 1.234 . S
O2653 Mn2628 2.209 . S
O2653 Mn2629 2.215 . S
O2653 C2630 1.283 . S
O2654 Mn2628 2.094 . S
O2654 C2632 1.240 . S
O2655 Mn2629 2.117 . S
O2655 C2632 1.264 . S
C2656 C2649 1.403 . S
C2656 C2657 1.399 . S
C2656 H2662 0.929 . S
C2657 C2637 1.449 . S
C2657 C2656 1.399 . S
C2657 H2663 0.930 . S
H2658 C2638 0.931 . S
H2659 C2639 0.930 . S
H2660 C2647 0.931 . S
H2661 C2648 0.929 . S
H2662 C2656 0.929 . S
H2663 C2657 0.930 . S
Mn2664 O2669 2.095 . S
Mn2664 O2679 2.162 . S
Mn2664 O2680 2.297 . S
Mn2664 O2688 2.385 . S
Mn2664 O2689 2.209 . S
Mn2664 O2690 2.094 . S
Mn2665 O2670 2.121 . S
Mn2665 N2672 2.257 . S
Mn2665 N2681 2.282 . S
Mn2665 O2689 2.215 . S
Mn2665 O2691 2.117 . S
C2666 O2688 1.234 . S
C2666 O2689 1.283 . S
C2667 O2679 1.281 . S
C2667 O2680 1.236 . S
C2668 O2690 1.240 . S
C2668 O2691 1.264 . S
O2669 Mn2664 2.095 . S
O2669 C2678 1.250 . S
O2670 Mn2665 2.121 . S
O2670 C2678 1.258 . S
C2671 N2672 1.326 . S
C2671 C2675 1.460 . S
C2671 H2677 0.929 . S
N2672 Mn2665 2.257 . S
N2672 C2671 1.326 . S
N2672 C2676 1.362 . S
C2673 C2674 1.258 . S
C2673 C2676 1.431 . S
C2673 C2693 1.449 . S
C2674 C2673 1.258 . S
C2674 C2675 1.477 . S
C2674 H2694 0.931 . S
C2675 C2671 1.460 . S
C2675 C2674 1.477 . S
C2675 H2695 0.930 . S
C2676 N2672 1.362 . S
C2676 C2673 1.431 . S
C2676 C2686 1.476 . S
H2677 C2671 0.929 . S
C2678 O2669 1.250 . S
C2678 O2670 1.258 . S
O2679 Mn2664 2.162 . S
O2679 C2667 1.281 . S
O2680 Mn2664 2.297 . S
O2680 C2667 1.236 . S
N2681 Mn2665 2.282 . S
N2681 C2682 1.328 . S
N2681 C2686 1.318 . S
C2682 N2681 1.328 . S
C2682 C2683 1.457 . S
C2682 H2687 0.929 . S
C2683 C2682 1.457 . S
C2683 C2684 1.291 . S
C2683 H2696 0.931 . S
C2684 C2683 1.291 . S
C2684 C2685 1.373 . S
C2684 H2697 0.929 . S
C2685 C2684 1.373 . S
C2685 C2686 1.396 . S
C2685 C2692 1.403 . S
C2686 C2676 1.476 . S
C2686 N2681 1.318 . S
C2686 C2685 1.396 . S
H2687 C2682 0.929 . S
O2688 Mn2664 2.385 . S
O2688 C2666 1.234 . S
O2689 Mn2664 2.209 . S
O2689 Mn2665 2.215 . S
O2689 C2666 1.283 . S
O2690 Mn2664 2.094 . S
O2690 C2668 1.240 . S
O2691 Mn2665 2.117 . S
O2691 C2668 1.264 . S
C2692 C2685 1.403 . S
C2692 C2693 1.399 . S
C2692 H2698 0.929 . S
C2693 C2673 1.449 . S
C2693 C2692 1.399 . S
C2693 H2699 0.930 . S
H2694 C2674 0.931 . S
H2695 C2675 0.930 . S
H2696 C2683 0.931 . S
H2697 C2684 0.929 . S
H2698 C2692 0.929 . S
H2699 C2693 0.930 . S
Mn2700 O2705 2.095 . S
Mn2700 O2715 2.162 . S
Mn2700 O2716 2.297 . S
Mn2700 O2724 2.385 . S
Mn2700 O2725 2.209 . S
Mn2700 O2726 2.094 . S
Mn2701 O2706 2.121 . S
Mn2701 N2708 2.257 . S
Mn2701 N2717 2.282 . S
Mn2701 O2725 2.215 . S
Mn2701 O2727 2.117 . S
C2702 O2724 1.234 . S
C2702 O2725 1.283 . S
C2703 O2715 1.281 . S
C2703 O2716 1.236 . S
C2704 O2726 1.240 . S
C2704 O2727 1.264 . S
O2705 Mn2700 2.095 . S
O2705 C2714 1.250 . S
O2706 Mn2701 2.121 . S
O2706 C2714 1.258 . S
C2707 N2708 1.326 . S
C2707 C2711 1.460 . S
C2707 H2713 0.929 . S
N2708 Mn2701 2.257 . S
N2708 C2707 1.326 . S
N2708 C2712 1.362 . S
C2709 C2710 1.258 . S
C2709 C2712 1.431 . S
C2709 C2729 1.449 . S
C2710 C2709 1.258 . S
C2710 C2711 1.477 . S
C2710 H2730 0.931 . S
C2711 C2707 1.460 . S
C2711 C2710 1.477 . S
C2711 H2731 0.930 . S
C2712 N2708 1.362 . S
C2712 C2709 1.431 . S
C2712 C2722 1.476 . S
H2713 C2707 0.929 . S
C2714 O2705 1.250 . S
C2714 O2706 1.258 . S
O2715 Mn2700 2.162 . S
O2715 C2703 1.281 . S
O2716 Mn2700 2.297 . S
O2716 C2703 1.236 . S
N2717 Mn2701 2.282 . S
N2717 C2718 1.328 . S
N2717 C2722 1.318 . S
C2718 N2717 1.328 . S
C2718 C2719 1.457 . S
C2718 H2723 0.929 . S
C2719 C2718 1.457 . S
C2719 C2720 1.291 . S
C2719 H2732 0.931 . S
C2720 C2719 1.291 . S
C2720 C2721 1.373 . S
C2720 H2733 0.929 . S
C2721 C2720 1.373 . S
C2721 C2722 1.396 . S
C2721 C2728 1.403 . S
C2722 C2712 1.476 . S
C2722 N2717 1.318 . S
C2722 C2721 1.396 . S
H2723 C2718 0.929 . S
O2724 Mn2700 2.385 . S
O2724 C2702 1.234 . S
O2725 Mn2700 2.209 . S
O2725 Mn2701 2.215 . S
O2725 C2702 1.283 . S
O2726 Mn2700 2.094 . S
O2726 C2704 1.240 . S
O2727 Mn2701 2.117 . S
O2727 C2704 1.264 . S
C2728 C2721 1.403 . S
C2728 C2729 1.399 . S
C2728 H2734 0.929 . S
C2729 C2709 1.449 . S
C2729 C2728 1.399 . S
C2729 H2735 0.930 . S
H2730 C2710 0.931 . S
H2731 C2711 0.930 . S
H2732 C2719 0.931 . S
H2733 C2720 0.929 . S
H2734 C2728 0.929 . S
H2735 C2729 0.930 . S
Mn2736 O2741 2.095 . S
Mn2736 O2751 2.162 . S
Mn2736 O2752 2.297 . S
Mn2736 O2760 2.385 . S
Mn2736 O2761 2.209 . S
Mn2736 O2762 2.094 . S
Mn2737 O2742 2.121 . S
Mn2737 N2744 2.257 . S
Mn2737 N2753 2.282 . S
Mn2737 O2761 2.215 . S
Mn2737 O2763 2.117 . S
C2738 O2760 1.234 . S
C2738 O2761 1.283 . S
C2739 O2751 1.281 . S
C2739 O2752 1.236 . S
C2740 O2762 1.240 . S
C2740 O2763 1.264 . S
O2741 Mn2736 2.095 . S
O2741 C2750 1.250 . S
O2742 Mn2737 2.121 . S
O2742 C2750 1.258 . S
C2743 N2744 1.326 . S
C2743 C2747 1.460 . S
C2743 H2749 0.929 . S
N2744 Mn2737 2.257 . S
N2744 C2743 1.326 . S
N2744 C2748 1.362 . S
C2745 C2746 1.258 . S
C2745 C2748 1.431 . S
C2745 C2765 1.449 . S
C2746 C2745 1.258 . S
C2746 C2747 1.477 . S
C2746 H2766 0.931 . S
C2747 C2743 1.460 . S
C2747 C2746 1.477 . S
C2747 H2767 0.930 . S
C2748 N2744 1.362 . S
C2748 C2745 1.431 . S
C2748 C2758 1.476 . S
H2749 C2743 0.929 . S
C2750 O2741 1.250 . S
C2750 O2742 1.258 . S
O2751 Mn2736 2.162 . S
O2751 C2739 1.281 . S
O2752 Mn2736 2.297 . S
O2752 C2739 1.236 . S
N2753 Mn2737 2.282 . S
N2753 C2754 1.328 . S
N2753 C2758 1.318 . S
C2754 N2753 1.328 . S
C2754 C2755 1.457 . S
C2754 H2759 0.929 . S
C2755 C2754 1.457 . S
C2755 C2756 1.291 . S
C2755 H2768 0.931 . S
C2756 C2755 1.291 . S
C2756 C2757 1.373 . S
C2756 H2769 0.929 . S
C2757 C2756 1.373 . S
C2757 C2758 1.396 . S
C2757 C2764 1.403 . S
C2758 C2748 1.476 . S
C2758 N2753 1.318 . S
C2758 C2757 1.396 . S
H2759 C2754 0.929 . S
O2760 Mn2736 2.385 . S
O2760 C2738 1.234 . S
O2761 Mn2736 2.209 . S
O2761 Mn2737 2.215 . S
O2761 C2738 1.283 . S
O2762 Mn2736 2.094 . S
O2762 C2740 1.240 . S
O2763 Mn2737 2.117 . S
O2763 C2740 1.264 . S
C2764 C2757 1.403 . S
C2764 C2765 1.399 . S
C2764 H2770 0.929 . S
C2765 C2745 1.449 . S
C2765 C2764 1.399 . S
C2765 H2771 0.930 . S
H2766 C2746 0.931 . S
H2767 C2747 0.930 . S
H2768 C2755 0.931 . S
H2769 C2756 0.929 . S
H2770 C2764 0.929 . S
H2771 C2765 0.930 . S
Mn2772 O2777 2.095 . S
Mn2772 O2787 2.162 . S
Mn2772 O2788 2.297 . S
Mn2772 O2796 2.385 . S
Mn2772 O2797 2.209 . S
Mn2772 O2798 2.094 . S
Mn2773 O2778 2.121 . S
Mn2773 N2780 2.257 . S
Mn2773 N2789 2.282 . S
Mn2773 O2797 2.215 . S
Mn2773 O2799 2.117 . S
C2774 O2796 1.234 . S
C2774 O2797 1.283 . S
C2775 O2787 1.281 . S
C2775 O2788 1.236 . S
C2776 O2798 1.240 . S
C2776 O2799 1.264 . S
O2777 Mn2772 2.095 . S
O2777 C2786 1.250 . S
O2778 Mn2773 2.121 . S
O2778 C2786 1.258 . S
C2779 N2780 1.326 . S
C2779 C2783 1.460 . S
C2779 H2785 0.929 . S
N2780 Mn2773 2.257 . S
N2780 C2779 1.326 . S
N2780 C2784 1.362 . S
C2781 C2782 1.258 . S
C2781 C2784 1.431 . S
C2781 C2801 1.449 . S
C2782 C2781 1.258 . S
C2782 C2783 1.477 . S
C2782 H2802 0.931 . S
C2783 C2779 1.460 . S
C2783 C2782 1.477 . S
C2783 H2803 0.930 . S
C2784 N2780 1.362 . S
C2784 C2781 1.431 . S
C2784 C2794 1.476 . S
H2785 C2779 0.929 . S
C2786 O2777 1.250 . S
C2786 O2778 1.258 . S
O2787 Mn2772 2.162 . S
O2787 C2775 1.281 . S
O2788 Mn2772 2.297 . S
O2788 C2775 1.236 . S
N2789 Mn2773 2.282 . S
N2789 C2790 1.328 . S
N2789 C2794 1.318 . S
C2790 N2789 1.328 . S
C2790 C2791 1.457 . S
C2790 H2795 0.929 . S
C2791 C2790 1.457 . S
C2791 C2792 1.291 . S
C2791 H2804 0.931 . S
C2792 C2791 1.291 . S
C2792 C2793 1.373 . S
C2792 H2805 0.929 . S
C2793 C2792 1.373 . S
C2793 C2794 1.396 . S
C2793 C2800 1.403 . S
C2794 C2784 1.476 . S
C2794 N2789 1.318 . S
C2794 C2793 1.396 . S
H2795 C2790 0.929 . S
O2796 Mn2772 2.385 . S
O2796 C2774 1.234 . S
O2797 Mn2772 2.209 . S
O2797 Mn2773 2.215 . S
O2797 C2774 1.283 . S
O2798 Mn2772 2.094 . S
O2798 C2776 1.240 . S
O2799 Mn2773 2.117 . S
O2799 C2776 1.264 . S
C2800 C2793 1.403 . S
C2800 C2801 1.399 . S
C2800 H2806 0.929 . S
C2801 C2781 1.449 . S
C2801 C2800 1.399 . S
C2801 H2807 0.930 . S
H2802 C2782 0.931 . S
H2803 C2783 0.930 . S
H2804 C2791 0.931 . S
H2805 C2792 0.929 . S
H2806 C2800 0.929 . S
H2807 C2801 0.930 . S
Mn2808 O2813 2.095 . S
Mn2808 O2823 2.162 . S
Mn2808 O2824 2.297 . S
Mn2808 O2832 2.385 . S
Mn2808 O2833 2.209 . S
Mn2808 O2834 2.094 . S
Mn2809 O2814 2.121 . S
Mn2809 N2816 2.257 . S
Mn2809 N2825 2.282 . S
Mn2809 O2833 2.215 . S
Mn2809 O2835 2.117 . S
C2810 O2832 1.234 . S
C2810 O2833 1.283 . S
C2811 O2823 1.281 . S
C2811 O2824 1.236 . S
C2812 O2834 1.240 . S
C2812 O2835 1.264 . S
O2813 Mn2808 2.095 . S
O2813 C2822 1.250 . S
O2814 Mn2809 2.121 . S
O2814 C2822 1.258 . S
C2815 N2816 1.326 . S
C2815 C2819 1.460 . S
C2815 H2821 0.929 . S
N2816 Mn2809 2.257 . S
N2816 C2815 1.326 . S
N2816 C2820 1.362 . S
C2817 C2818 1.258 . S
C2817 C2820 1.431 . S
C2817 C2837 1.449 . S
C2818 C2817 1.258 . S
C2818 C2819 1.477 . S
C2818 H2838 0.931 . S
C2819 C2815 1.460 . S
C2819 C2818 1.477 . S
C2819 H2839 0.930 . S
C2820 N2816 1.362 . S
C2820 C2817 1.431 . S
C2820 C2830 1.476 . S
H2821 C2815 0.929 . S
C2822 O2813 1.250 . S
C2822 O2814 1.258 . S
O2823 Mn2808 2.162 . S
O2823 C2811 1.281 . S
O2824 Mn2808 2.297 . S
O2824 C2811 1.236 . S
N2825 Mn2809 2.282 . S
N2825 C2826 1.328 . S
N2825 C2830 1.318 . S
C2826 N2825 1.328 . S
C2826 C2827 1.457 . S
C2826 H2831 0.929 . S
C2827 C2826 1.457 . S
C2827 C2828 1.291 . S
C2827 H2840 0.931 . S
C2828 C2827 1.291 . S
C2828 C2829 1.373 . S
C2828 H2841 0.929 . S
C2829 C2828 1.373 . S
C2829 C2830 1.396 . S
C2829 C2836 1.403 . S
C2830 C2820 1.476 . S
C2830 N2825 1.318 . S
C2830 C2829 1.396 . S
H2831 C2826 0.929 . S
O2832 Mn2808 2.385 . S
O2832 C2810 1.234 . S
O2833 Mn2808 2.209 . S
O2833 Mn2809 2.215 . S
O2833 C2810 1.283 . S
O2834 Mn2808 2.094 . S
O2834 C2812 1.240 . S
O2835 Mn2809 2.117 . S
O2835 C2812 1.264 . S
C2836 C2829 1.403 . S
C2836 C2837 1.399 . S
C2836 H2842 0.929 . S
C2837 C2817 1.449 . S
C2837 C2836 1.399 . S
C2837 H2843 0.930 . S
H2838 C2818 0.931 . S
H2839 C2819 0.930 . S
H2840 C2827 0.931 . S
H2841 C2828 0.929 . S
H2842 C2836 0.929 . S
H2843 C2837 0.930 . S
Mn2844 O2849 2.095 . S
Mn2844 O2859 2.162 . S
Mn2844 O2860 2.297 . S
Mn2844 O2868 2.385 . S
Mn2844 O2869 2.209 . S
Mn2844 O2870 2.094 . S
Mn2845 O2850 2.121 . S
Mn2845 N2852 2.257 . S
Mn2845 N2861 2.282 . S
Mn2845 O2869 2.215 . S
Mn2845 O2871 2.117 . S
C2846 O2868 1.234 . S
C2846 O2869 1.283 . S
C2847 O2859 1.281 . S
C2847 O2860 1.236 . S
C2848 O2870 1.240 . S
C2848 O2871 1.264 . S
O2849 Mn2844 2.095 . S
O2849 C2858 1.250 . S
O2850 Mn2845 2.121 . S
O2850 C2858 1.258 . S
C2851 N2852 1.326 . S
C2851 C2855 1.460 . S
C2851 H2857 0.929 . S
N2852 Mn2845 2.257 . S
N2852 C2851 1.326 . S
N2852 C2856 1.362 . S
C2853 C2854 1.258 . S
C2853 C2856 1.431 . S
C2853 C2873 1.449 . S
C2854 C2853 1.258 . S
C2854 C2855 1.477 . S
C2854 H2874 0.931 . S
C2855 C2851 1.460 . S
C2855 C2854 1.477 . S
C2855 H2875 0.930 . S
C2856 N2852 1.362 . S
C2856 C2853 1.431 . S
C2856 C2866 1.476 . S
H2857 C2851 0.929 . S
C2858 O2849 1.250 . S
C2858 O2850 1.258 . S
O2859 Mn2844 2.162 . S
O2859 C2847 1.281 . S
O2860 Mn2844 2.297 . S
O2860 C2847 1.236 . S
N2861 Mn2845 2.282 . S
N2861 C2862 1.328 . S
N2861 C2866 1.318 . S
C2862 N2861 1.328 . S
C2862 C2863 1.457 . S
C2862 H2867 0.929 . S
C2863 C2862 1.457 . S
C2863 C2864 1.291 . S
C2863 H2876 0.931 . S
C2864 C2863 1.291 . S
C2864 C2865 1.373 . S
C2864 H2877 0.929 . S
C2865 C2864 1.373 . S
C2865 C2866 1.396 . S
C2865 C2872 1.403 . S
C2866 C2856 1.476 . S
C2866 N2861 1.318 . S
C2866 C2865 1.396 . S
H2867 C2862 0.929 . S
O2868 Mn2844 2.385 . S
O2868 C2846 1.234 . S
O2869 Mn2844 2.209 . S
O2869 Mn2845 2.215 . S
O2869 C2846 1.283 . S
O2870 Mn2844 2.094 . S
O2870 C2848 1.240 . S
O2871 Mn2845 2.117 . S
O2871 C2848 1.264 . S
C2872 C2865 1.403 . S
C2872 C2873 1.399 . S
C2872 H2878 0.929 . S
C2873 C2853 1.449 . S
C2873 C2872 1.399 . S
C2873 H2879 0.930 . S
H2874 C2854 0.931 . S
H2875 C2855 0.930 . S
H2876 C2863 0.931 . S
H2877 C2864 0.929 . S
H2878 C2872 0.929 . S
H2879 C2873 0.930 . S
Mn2880 O2885 2.095 . S
Mn2880 O2895 2.162 . S
Mn2880 O2896 2.297 . S
Mn2880 O2904 2.385 . S
Mn2880 O2905 2.209 . S
Mn2880 O2906 2.094 . S
Mn2881 O2886 2.121 . S
Mn2881 N2888 2.257 . S
Mn2881 N2897 2.282 . S
Mn2881 O2905 2.215 . S
Mn2881 O2907 2.117 . S
C2882 O2904 1.234 . S
C2882 O2905 1.283 . S
C2883 O2895 1.281 . S
C2883 O2896 1.236 . S
C2884 O2906 1.240 . S
C2884 O2907 1.264 . S
O2885 Mn2880 2.095 . S
O2885 C2894 1.250 . S
O2886 Mn2881 2.121 . S
O2886 C2894 1.258 . S
C2887 N2888 1.326 . S
C2887 C2891 1.460 . S
C2887 H2893 0.929 . S
N2888 Mn2881 2.257 . S
N2888 C2887 1.326 . S
N2888 C2892 1.362 . S
C2889 C2890 1.258 . S
C2889 C2892 1.431 . S
C2889 C2909 1.449 . S
C2890 C2889 1.258 . S
C2890 C2891 1.477 . S
C2890 H2910 0.931 . S
C2891 C2887 1.460 . S
C2891 C2890 1.477 . S
C2891 H2911 0.930 . S
C2892 N2888 1.362 . S
C2892 C2889 1.431 . S
C2892 C2902 1.476 . S
H2893 C2887 0.929 . S
C2894 O2885 1.250 . S
C2894 O2886 1.258 . S
O2895 Mn2880 2.162 . S
O2895 C2883 1.281 . S
O2896 Mn2880 2.297 . S
O2896 C2883 1.236 . S
N2897 Mn2881 2.282 . S
N2897 C2898 1.328 . S
N2897 C2902 1.318 . S
C2898 N2897 1.328 . S
C2898 C2899 1.457 . S
C2898 H2903 0.929 . S
C2899 C2898 1.457 . S
C2899 C2900 1.291 . S
C2899 H2912 0.931 . S
C2900 C2899 1.291 . S
C2900 C2901 1.373 . S
C2900 H2913 0.929 . S
C2901 C2900 1.373 . S
C2901 C2902 1.396 . S
C2901 C2908 1.403 . S
C2902 C2892 1.476 . S
C2902 N2897 1.318 . S
C2902 C2901 1.396 . S
H2903 C2898 0.929 . S
O2904 Mn2880 2.385 . S
O2904 C2882 1.234 . S
O2905 Mn2880 2.209 . S
O2905 Mn2881 2.215 . S
O2905 C2882 1.283 . S
O2906 Mn2880 2.094 . S
O2906 C2884 1.240 . S
O2907 Mn2881 2.117 . S
O2907 C2884 1.264 . S
C2908 C2901 1.403 . S
C2908 C2909 1.399 . S
C2908 H2914 0.929 . S
C2909 C2889 1.449 . S
C2909 C2908 1.399 . S
C2909 H2915 0.930 . S
H2910 C2890 0.931 . S
H2911 C2891 0.930 . S
H2912 C2899 0.931 . S
H2913 C2900 0.929 . S
H2914 C2908 0.929 . S
H2915 C2909 0.930 . S
Mn2916 O2921 2.095 . S
Mn2916 O2931 2.162 . S
Mn2916 O2932 2.297 . S
Mn2916 O2940 2.385 . S
Mn2916 O2941 2.209 . S
Mn2916 O2942 2.094 . S
Mn2917 O2922 2.121 . S
Mn2917 N2924 2.257 . S
Mn2917 N2933 2.282 . S
Mn2917 O2941 2.215 . S
Mn2917 O2943 2.117 . S
C2918 O2940 1.234 . S
C2918 O2941 1.283 . S
C2919 O2931 1.281 . S
C2919 O2932 1.236 . S
C2920 O2942 1.240 . S
C2920 O2943 1.264 . S
O2921 Mn2916 2.095 . S
O2921 C2930 1.250 . S
O2922 Mn2917 2.121 . S
O2922 C2930 1.258 . S
C2923 N2924 1.326 . S
C2923 C2927 1.460 . S
C2923 H2929 0.929 . S
N2924 Mn2917 2.257 . S
N2924 C2923 1.326 . S
N2924 C2928 1.362 . S
C2925 C2926 1.258 . S
C2925 C2928 1.431 . S
C2925 C2945 1.449 . S
C2926 C2925 1.258 . S
C2926 C2927 1.477 . S
C2926 H2946 0.931 . S
C2927 C2923 1.460 . S
C2927 C2926 1.477 . S
C2927 H2947 0.930 . S
C2928 N2924 1.362 . S
C2928 C2925 1.431 . S
C2928 C2938 1.476 . S
H2929 C2923 0.929 . S
C2930 O2921 1.250 . S
C2930 O2922 1.258 . S
O2931 Mn2916 2.162 . S
O2931 C2919 1.281 . S
O2932 Mn2916 2.297 . S
O2932 C2919 1.236 . S
N2933 Mn2917 2.282 . S
N2933 C2934 1.328 . S
N2933 C2938 1.318 . S
C2934 N2933 1.328 . S
C2934 C2935 1.457 . S
C2934 H2939 0.929 . S
C2935 C2934 1.457 . S
C2935 C2936 1.291 . S
C2935 H2948 0.931 . S
C2936 C2935 1.291 . S
C2936 C2937 1.373 . S
C2936 H2949 0.929 . S
C2937 C2936 1.373 . S
C2937 C2938 1.396 . S
C2937 C2944 1.403 . S
C2938 C2928 1.476 . S
C2938 N2933 1.318 . S
C2938 C2937 1.396 . S
H2939 C2934 0.929 . S
O2940 Mn2916 2.385 . S
O2940 C2918 1.234 . S
O2941 Mn2916 2.209 . S
O2941 Mn2917 2.215 . S
O2941 C2918 1.283 . S
O2942 Mn2916 2.094 . S
O2942 C2920 1.240 . S
O2943 Mn2917 2.117 . S
O2943 C2920 1.264 . S
C2944 C2937 1.403 . S
C2944 C2945 1.399 . S
C2944 H2950 0.929 . S
C2945 C2925 1.449 . S
C2945 C2944 1.399 . S
C2945 H2951 0.930 . S
H2946 C2926 0.931 . S
H2947 C2927 0.930 . S
H2948 C2935 0.931 . S
H2949 C2936 0.929 . S
H2950 C2944 0.929 . S
H2951 C2945 0.930 . S
Mn2952 O2957 2.095 . S
Mn2952 O2967 2.162 . S
Mn2952 O2968 2.297 . S
Mn2952 O2976 2.385 . S
Mn2952 O2977 2.209 . S
Mn2952 O2978 2.094 . S
Mn2953 O2958 2.121 . S
Mn2953 N2960 2.257 . S
Mn2953 N2969 2.282 . S
Mn2953 O2977 2.215 . S
Mn2953 O2979 2.117 . S
C2954 O2976 1.234 . S
C2954 O2977 1.283 . S
C2955 O2967 1.281 . S
C2955 O2968 1.236 . S
C2956 O2978 1.240 . S
C2956 O2979 1.264 . S
O2957 Mn2952 2.095 . S
O2957 C2966 1.250 . S
O2958 Mn2953 2.121 . S
O2958 C2966 1.258 . S
C2959 N2960 1.326 . S
C2959 C2963 1.460 . S
C2959 H2965 0.929 . S
N2960 Mn2953 2.257 . S
N2960 C2959 1.326 . S
N2960 C2964 1.362 . S
C2961 C2962 1.258 . S
C2961 C2964 1.431 . S
C2961 C2981 1.449 . S
C2962 C2961 1.258 . S
C2962 C2963 1.477 . S
C2962 H2982 0.931 . S
C2963 C2959 1.460 . S
C2963 C2962 1.477 . S
C2963 H2983 0.930 . S
C2964 N2960 1.362 . S
C2964 C2961 1.431 . S
C2964 C2974 1.476 . S
H2965 C2959 0.929 . S
C2966 O2957 1.250 . S
C2966 O2958 1.258 . S
O2967 Mn2952 2.162 . S
O2967 C2955 1.281 . S
O2968 Mn2952 2.297 . S
O2968 C2955 1.236 . S
N2969 Mn2953 2.282 . S
N2969 C2970 1.328 . S
N2969 C2974 1.318 . S
C2970 N2969 1.328 . S
C2970 C2971 1.457 . S
C2970 H2975 0.929 . S
C2971 C2970 1.457 . S
C2971 C2972 1.291 . S
C2971 H2984 0.931 . S
C2972 C2971 1.291 . S
C2972 C2973 1.373 . S
C2972 H2985 0.929 . S
C2973 C2972 1.373 . S
C2973 C2974 1.396 . S
C2973 C2980 1.403 . S
C2974 C2964 1.476 . S
C2974 N2969 1.318 . S
C2974 C2973 1.396 . S
H2975 C2970 0.929 . S
O2976 Mn2952 2.385 . S
O2976 C2954 1.234 . S
O2977 Mn2952 2.209 . S
O2977 Mn2953 2.215 . S
O2977 C2954 1.283 . S
O2978 Mn2952 2.094 . S
O2978 C2956 1.240 . S
O2979 Mn2953 2.117 . S
O2979 C2956 1.264 . S
C2980 C2973 1.403 . S
C2980 C2981 1.399 . S
C2980 H2986 0.929 . S
C2981 C2961 1.449 . S
C2981 C2980 1.399 . S
C2981 H2987 0.930 . S
H2982 C2962 0.931 . S
H2983 C2963 0.930 . S
H2984 C2971 0.931 . S
H2985 C2972 0.929 . S
H2986 C2980 0.929 . S
H2987 C2981 0.930 . S
Mn2988 O2993 2.095 . S
Mn2988 O3003 2.162 . S
Mn2988 O3004 2.297 . S
Mn2988 O3012 2.385 . S
Mn2988 O3013 2.209 . S
Mn2988 O3014 2.094 . S
Mn2989 O2994 2.121 . S
Mn2989 N2996 2.257 . S
Mn2989 N3005 2.282 . S
Mn2989 O3013 2.215 . S
Mn2989 O3015 2.117 . S
C2990 O3012 1.234 . S
C2990 O3013 1.283 . S
C2991 O3003 1.281 . S
C2991 O3004 1.236 . S
C2992 O3014 1.240 . S
C2992 O3015 1.264 . S
O2993 Mn2988 2.095 . S
O2993 C3002 1.250 . S
O2994 Mn2989 2.121 . S
O2994 C3002 1.258 . S
C2995 N2996 1.326 . S
C2995 C2999 1.460 . S
C2995 H3001 0.929 . S
N2996 Mn2989 2.257 . S
N2996 C2995 1.326 . S
N2996 C3000 1.362 . S
C2997 C2998 1.258 . S
C2997 C3000 1.431 . S
C2997 C3017 1.449 . S
C2998 C2997 1.258 . S
C2998 C2999 1.477 . S
C2998 H3018 0.931 . S
C2999 C2995 1.460 . S
C2999 C2998 1.477 . S
C2999 H3019 0.930 . S
C3000 N2996 1.362 . S
C3000 C2997 1.431 . S
C3000 C3010 1.476 . S
H3001 C2995 0.929 . S
C3002 O2993 1.250 . S
C3002 O2994 1.258 . S
O3003 Mn2988 2.162 . S
O3003 C2991 1.281 . S
O3004 Mn2988 2.297 . S
O3004 C2991 1.236 . S
N3005 Mn2989 2.282 . S
N3005 C3006 1.328 . S
N3005 C3010 1.318 . S
C3006 N3005 1.328 . S
C3006 C3007 1.457 . S
C3006 H3011 0.929 . S
C3007 C3006 1.457 . S
C3007 C3008 1.291 . S
C3007 H3020 0.931 . S
C3008 C3007 1.291 . S
C3008 C3009 1.373 . S
C3008 H3021 0.929 . S
C3009 C3008 1.373 . S
C3009 C3010 1.396 . S
C3009 C3016 1.403 . S
C3010 C3000 1.476 . S
C3010 N3005 1.318 . S
C3010 C3009 1.396 . S
H3011 C3006 0.929 . S
O3012 Mn2988 2.385 . S
O3012 C2990 1.234 . S
O3013 Mn2988 2.209 . S
O3013 Mn2989 2.215 . S
O3013 C2990 1.283 . S
O3014 Mn2988 2.094 . S
O3014 C2992 1.240 . S
O3015 Mn2989 2.117 . S
O3015 C2992 1.264 . S
C3016 C3009 1.403 . S
C3016 C3017 1.399 . S
C3016 H3022 0.929 . S
C3017 C2997 1.449 . S
C3017 C3016 1.399 . S
C3017 H3023 0.930 . S
H3018 C2998 0.931 . S
H3019 C2999 0.930 . S
H3020 C3007 0.931 . S
H3021 C3008 0.929 . S
H3022 C3016 0.929 . S
H3023 C3017 0.930 . S
Mn3024 O3029 2.095 . S
Mn3024 O3039 2.162 . S
Mn3024 O3040 2.297 . S
Mn3024 O3048 2.385 . S
Mn3024 O3049 2.209 . S
Mn3024 O3050 2.094 . S
Mn3025 O3030 2.121 . S
Mn3025 N3032 2.257 . S
Mn3025 N3041 2.282 . S
Mn3025 O3049 2.215 . S
Mn3025 O3051 2.117 . S
C3026 O3048 1.234 . S
C3026 O3049 1.283 . S
C3027 O3039 1.281 . S
C3027 O3040 1.236 . S
C3028 O3050 1.240 . S
C3028 O3051 1.264 . S
O3029 Mn3024 2.095 . S
O3029 C3038 1.250 . S
O3030 Mn3025 2.121 . S
O3030 C3038 1.258 . S
C3031 N3032 1.326 . S
C3031 C3035 1.460 . S
C3031 H3037 0.929 . S
N3032 Mn3025 2.257 . S
N3032 C3031 1.326 . S
N3032 C3036 1.362 . S
C3033 C3034 1.258 . S
C3033 C3036 1.431 . S
C3033 C3053 1.449 . S
C3034 C3033 1.258 . S
C3034 C3035 1.477 . S
C3034 H3054 0.931 . S
C3035 C3031 1.460 . S
C3035 C3034 1.477 . S
C3035 H3055 0.930 . S
C3036 N3032 1.362 . S
C3036 C3033 1.431 . S
C3036 C3046 1.476 . S
H3037 C3031 0.929 . S
C3038 O3029 1.250 . S
C3038 O3030 1.258 . S
O3039 Mn3024 2.162 . S
O3039 C3027 1.281 . S
O3040 Mn3024 2.297 . S
O3040 C3027 1.236 . S
N3041 Mn3025 2.282 . S
N3041 C3042 1.328 . S
N3041 C3046 1.318 . S
C3042 N3041 1.328 . S
C3042 C3043 1.457 . S
C3042 H3047 0.929 . S
C3043 C3042 1.457 . S
C3043 C3044 1.291 . S
C3043 H3056 0.931 . S
C3044 C3043 1.291 . S
C3044 C3045 1.373 . S
C3044 H3057 0.929 . S
C3045 C3044 1.373 . S
C3045 C3046 1.396 . S
C3045 C3052 1.403 . S
C3046 C3036 1.476 . S
C3046 N3041 1.318 . S
C3046 C3045 1.396 . S
H3047 C3042 0.929 . S
O3048 Mn3024 2.385 . S
O3048 C3026 1.234 . S
O3049 Mn3024 2.209 . S
O3049 Mn3025 2.215 . S
O3049 C3026 1.283 . S
O3050 Mn3024 2.094 . S
O3050 C3028 1.240 . S
O3051 Mn3025 2.117 . S
O3051 C3028 1.264 . S
C3052 C3045 1.403 . S
C3052 C3053 1.399 . S
C3052 H3058 0.929 . S
C3053 C3033 1.449 . S
C3053 C3052 1.399 . S
C3053 H3059 0.930 . S
H3054 C3034 0.931 . S
H3055 C3035 0.930 . S
H3056 C3043 0.931 . S
H3057 C3044 0.929 . S
H3058 C3052 0.929 . S
H3059 C3053 0.930 . S
Mn3060 O3065 2.095 . S
Mn3060 O3075 2.162 . S
Mn3060 O3076 2.297 . S
Mn3060 O3084 2.385 . S
Mn3060 O3085 2.209 . S
Mn3060 O3086 2.094 . S
Mn3061 O3066 2.121 . S
Mn3061 N3068 2.257 . S
Mn3061 N3077 2.282 . S
Mn3061 O3085 2.215 . S
Mn3061 O3087 2.117 . S
C3062 O3084 1.234 . S
C3062 O3085 1.283 . S
C3063 O3075 1.281 . S
C3063 O3076 1.236 . S
C3064 O3086 1.240 . S
C3064 O3087 1.264 . S
O3065 Mn3060 2.095 . S
O3065 C3074 1.250 . S
O3066 Mn3061 2.121 . S
O3066 C3074 1.258 . S
C3067 N3068 1.326 . S
C3067 C3071 1.460 . S
C3067 H3073 0.929 . S
N3068 Mn3061 2.257 . S
N3068 C3067 1.326 . S
N3068 C3072 1.362 . S
C3069 C3070 1.258 . S
C3069 C3072 1.431 . S
C3069 C3089 1.449 . S
C3070 C3069 1.258 . S
C3070 C3071 1.477 . S
C3070 H3090 0.931 . S
C3071 C3067 1.460 . S
C3071 C3070 1.477 . S
C3071 H3091 0.930 . S
C3072 N3068 1.362 . S
C3072 C3069 1.431 . S
C3072 C3082 1.476 . S
H3073 C3067 0.929 . S
C3074 O3065 1.250 . S
C3074 O3066 1.258 . S
O3075 Mn3060 2.162 . S
O3075 C3063 1.281 . S
O3076 Mn3060 2.297 . S
O3076 C3063 1.236 . S
N3077 Mn3061 2.282 . S
N3077 C3078 1.328 . S
N3077 C3082 1.318 . S
C3078 N3077 1.328 . S
C3078 C3079 1.457 . S
C3078 H3083 0.929 . S
C3079 C3078 1.457 . S
C3079 C3080 1.291 . S
C3079 H3092 0.931 . S
C3080 C3079 1.291 . S
C3080 C3081 1.373 . S
C3080 H3093 0.929 . S
C3081 C3080 1.373 . S
C3081 C3082 1.396 . S
C3081 C3088 1.403 . S
C3082 C3072 1.476 . S
C3082 N3077 1.318 . S
C3082 C3081 1.396 . S
H3083 C3078 0.929 . S
O3084 Mn3060 2.385 . S
O3084 C3062 1.234 . S
O3085 Mn3060 2.209 . S
O3085 Mn3061 2.215 . S
O3085 C3062 1.283 . S
O3086 Mn3060 2.094 . S
O3086 C3064 1.240 . S
O3087 Mn3061 2.117 . S
O3087 C3064 1.264 . S
C3088 C3081 1.403 . S
C3088 C3089 1.399 . S
C3088 H3094 0.929 . S
C3089 C3069 1.449 . S
C3089 C3088 1.399 . S
C3089 H3095 0.930 . S
H3090 C3070 0.931 . S
H3091 C3071 0.930 . S
H3092 C3079 0.931 . S
H3093 C3080 0.929 . S
H3094 C3088 0.929 . S
H3095 C3089 0.930 . S
Mn3096 O3101 2.095 . S
Mn3096 O3111 2.162 . S
Mn3096 O3112 2.297 . S
Mn3096 O3120 2.385 . S
Mn3096 O3121 2.209 . S
Mn3096 O3122 2.094 . S
Mn3097 O3102 2.121 . S
Mn3097 N3104 2.257 . S
Mn3097 N3113 2.282 . S
Mn3097 O3121 2.215 . S
Mn3097 O3123 2.117 . S
C3098 O3120 1.234 . S
C3098 O3121 1.283 . S
C3099 O3111 1.281 . S
C3099 O3112 1.236 . S
C3100 O3122 1.240 . S
C3100 O3123 1.264 . S
O3101 Mn3096 2.095 . S
O3101 C3110 1.250 . S
O3102 Mn3097 2.121 . S
O3102 C3110 1.258 . S
C3103 N3104 1.326 . S
C3103 C3107 1.460 . S
C3103 H3109 0.929 . S
N3104 Mn3097 2.257 . S
N3104 C3103 1.326 . S
N3104 C3108 1.362 . S
C3105 C3106 1.258 . S
C3105 C3108 1.431 . S
C3105 C3125 1.449 . S
C3106 C3105 1.258 . S
C3106 C3107 1.477 . S
C3106 H3126 0.931 . S
C3107 C3103 1.460 . S
C3107 C3106 1.477 . S
C3107 H3127 0.930 . S
C3108 N3104 1.362 . S
C3108 C3105 1.431 . S
C3108 C3118 1.476 . S
H3109 C3103 0.929 . S
C3110 O3101 1.250 . S
C3110 O3102 1.258 . S
O3111 Mn3096 2.162 . S
O3111 C3099 1.281 . S
O3112 Mn3096 2.297 . S
O3112 C3099 1.236 . S
N3113 Mn3097 2.282 . S
N3113 C3114 1.328 . S
N3113 C3118 1.318 . S
C3114 N3113 1.328 . S
C3114 C3115 1.457 . S
C3114 H3119 0.929 . S
C3115 C3114 1.457 . S
C3115 C3116 1.291 . S
C3115 H3128 0.931 . S
C3116 C3115 1.291 . S
C3116 C3117 1.373 . S
C3116 H3129 0.929 . S
C3117 C3116 1.373 . S
C3117 C3118 1.396 . S
C3117 C3124 1.403 . S
C3118 C3108 1.476 . S
C3118 N3113 1.318 . S
C3118 C3117 1.396 . S
H3119 C3114 0.929 . S
O3120 Mn3096 2.385 . S
O3120 C3098 1.234 . S
O3121 Mn3096 2.209 . S
O3121 Mn3097 2.215 . S
O3121 C3098 1.283 . S
O3122 Mn3096 2.094 . S
O3122 C3100 1.240 . S
O3123 Mn3097 2.117 . S
O3123 C3100 1.264 . S
C3124 C3117 1.403 . S
C3124 C3125 1.399 . S
C3124 H3130 0.929 . S
C3125 C3105 1.449 . S
C3125 C3124 1.399 . S
C3125 H3131 0.930 . S
H3126 C3106 0.931 . S
H3127 C3107 0.930 . S
H3128 C3115 0.931 . S
H3129 C3116 0.929 . S
H3130 C3124 0.929 . S
H3131 C3125 0.930 . S
Mn3132 O3137 2.095 . S
Mn3132 O3147 2.162 . S
Mn3132 O3148 2.297 . S
Mn3132 O3156 2.385 . S
Mn3132 O3157 2.209 . S
Mn3132 O3158 2.094 . S
Mn3133 O3138 2.121 . S
Mn3133 N3140 2.257 . S
Mn3133 N3149 2.282 . S
Mn3133 O3157 2.215 . S
Mn3133 O3159 2.117 . S
C3134 O3156 1.234 . S
C3134 O3157 1.283 . S
C3135 O3147 1.281 . S
C3135 O3148 1.236 . S
C3136 O3158 1.240 . S
C3136 O3159 1.264 . S
O3137 Mn3132 2.095 . S
O3137 C3146 1.250 . S
O3138 Mn3133 2.121 . S
O3138 C3146 1.258 . S
C3139 N3140 1.326 . S
C3139 C3143 1.460 . S
C3139 H3145 0.929 . S
N3140 Mn3133 2.257 . S
N3140 C3139 1.326 . S
N3140 C3144 1.362 . S
C3141 C3142 1.258 . S
C3141 C3144 1.431 . S
C3141 C3161 1.449 . S
C3142 C3141 1.258 . S
C3142 C3143 1.477 . S
C3142 H3162 0.931 . S
C3143 C3139 1.460 . S
C3143 C3142 1.477 . S
C3143 H3163 0.930 . S
C3144 N3140 1.362 . S
C3144 C3141 1.431 . S
C3144 C3154 1.476 . S
H3145 C3139 0.929 . S
C3146 O3137 1.250 . S
C3146 O3138 1.258 . S
O3147 Mn3132 2.162 . S
O3147 C3135 1.281 . S
O3148 Mn3132 2.297 . S
O3148 C3135 1.236 . S
N3149 Mn3133 2.282 . S
N3149 C3150 1.328 . S
N3149 C3154 1.318 . S
C3150 N3149 1.328 . S
C3150 C3151 1.457 . S
C3150 H3155 0.929 . S
C3151 C3150 1.457 . S
C3151 C3152 1.291 . S
C3151 H3164 0.931 . S
C3152 C3151 1.291 . S
C3152 C3153 1.373 . S
C3152 H3165 0.929 . S
C3153 C3152 1.373 . S
C3153 C3154 1.396 . S
C3153 C3160 1.403 . S
C3154 C3144 1.476 . S
C3154 N3149 1.318 . S
C3154 C3153 1.396 . S
H3155 C3150 0.929 . S
O3156 Mn3132 2.385 . S
O3156 C3134 1.234 . S
O3157 Mn3132 2.209 . S
O3157 Mn3133 2.215 . S
O3157 C3134 1.283 . S
O3158 Mn3132 2.094 . S
O3158 C3136 1.240 . S
O3159 Mn3133 2.117 . S
O3159 C3136 1.264 . S
C3160 C3153 1.403 . S
C3160 C3161 1.399 . S
C3160 H3166 0.929 . S
C3161 C3141 1.449 . S
C3161 C3160 1.399 . S
C3161 H3167 0.930 . S
H3162 C3142 0.931 . S
H3163 C3143 0.930 . S
H3164 C3151 0.931 . S
H3165 C3152 0.929 . S
H3166 C3160 0.929 . S
H3167 C3161 0.930 . S
Mn3168 O3173 2.095 . S
Mn3168 O3183 2.162 . S
Mn3168 O3184 2.297 . S
Mn3168 O3192 2.385 . S
Mn3168 O3193 2.209 . S
Mn3168 O3194 2.094 . S
Mn3169 O3174 2.121 . S
Mn3169 N3176 2.257 . S
Mn3169 N3185 2.282 . S
Mn3169 O3193 2.215 . S
Mn3169 O3195 2.117 . S
C3170 O3192 1.234 . S
C3170 O3193 1.283 . S
C3171 O3183 1.281 . S
C3171 O3184 1.236 . S
C3172 O3194 1.240 . S
C3172 O3195 1.264 . S
O3173 Mn3168 2.095 . S
O3173 C3182 1.250 . S
O3174 Mn3169 2.121 . S
O3174 C3182 1.258 . S
C3175 N3176 1.326 . S
C3175 C3179 1.460 . S
C3175 H3181 0.929 . S
N3176 Mn3169 2.257 . S
N3176 C3175 1.326 . S
N3176 C3180 1.362 . S
C3177 C3178 1.258 . S
C3177 C3180 1.431 . S
C3177 C3197 1.449 . S
C3178 C3177 1.258 . S
C3178 C3179 1.477 . S
C3178 H3198 0.931 . S
C3179 C3175 1.460 . S
C3179 C3178 1.477 . S
C3179 H3199 0.930 . S
C3180 N3176 1.362 . S
C3180 C3177 1.431 . S
C3180 C3190 1.476 . S
H3181 C3175 0.929 . S
C3182 O3173 1.250 . S
C3182 O3174 1.258 . S
O3183 Mn3168 2.162 . S
O3183 C3171 1.281 . S
O3184 Mn3168 2.297 . S
O3184 C3171 1.236 . S
N3185 Mn3169 2.282 . S
N3185 C3186 1.328 . S
N3185 C3190 1.318 . S
C3186 N3185 1.328 . S
C3186 C3187 1.457 . S
C3186 H3191 0.929 . S
C3187 C3186 1.457 . S
C3187 C3188 1.291 . S
C3187 H3200 0.931 . S
C3188 C3187 1.291 . S
C3188 C3189 1.373 . S
C3188 H3201 0.929 . S
C3189 C3188 1.373 . S
C3189 C3190 1.396 . S
C3189 C3196 1.403 . S
C3190 C3180 1.476 . S
C3190 N3185 1.318 . S
C3190 C3189 1.396 . S
H3191 C3186 0.929 . S
O3192 Mn3168 2.385 . S
O3192 C3170 1.234 . S
O3193 Mn3168 2.209 . S
O3193 Mn3169 2.215 . S
O3193 C3170 1.283 . S
O3194 Mn3168 2.094 . S
O3194 C3172 1.240 . S
O3195 Mn3169 2.117 . S
O3195 C3172 1.264 . S
C3196 C3189 1.403 . S
C3196 C3197 1.399 . S
C3196 H3202 0.929 . S
C3197 C3177 1.449 . S
C3197 C3196 1.399 . S
C3197 H3203 0.930 . S
H3198 C3178 0.931 . S
H3199 C3179 0.930 . S
H3200 C3187 0.931 . S
H3201 C3188 0.929 . S
H3202 C3196 0.929 . S
H3203 C3197 0.930 . S
Mn3204 O3209 2.095 . S
Mn3204 O3219 2.162 . S
Mn3204 O3220 2.297 . S
Mn3204 O3228 2.385 . S
Mn3204 O3229 2.209 . S
Mn3204 O3230 2.094 . S
Mn3205 O3210 2.121 . S
Mn3205 N3212 2.257 . S
Mn3205 N3221 2.282 . S
Mn3205 O3229 2.215 . S
Mn3205 O3231 2.117 . S
C3206 O3228 1.234 . S
C3206 O3229 1.283 . S
C3207 O3219 1.281 . S
C3207 O3220 1.236 . S
C3208 O3230 1.240 . S
C3208 O3231 1.264 . S
O3209 Mn3204 2.095 . S
O3209 C3218 1.250 . S
O3210 Mn3205 2.121 . S
O3210 C3218 1.258 . S
C3211 N3212 1.326 . S
C3211 C3215 1.460 . S
C3211 H3217 0.929 . S
N3212 Mn3205 2.257 . S
N3212 C3211 1.326 . S
N3212 C3216 1.362 . S
C3213 C3214 1.258 . S
C3213 C3216 1.431 . S
C3213 C3233 1.449 . S
C3214 C3213 1.258 . S
C3214 C3215 1.477 . S
C3214 H3234 0.931 . S
C3215 C3211 1.460 . S
C3215 C3214 1.477 . S
C3215 H3235 0.930 . S
C3216 N3212 1.362 . S
C3216 C3213 1.431 . S
C3216 C3226 1.476 . S
H3217 C3211 0.929 . S
C3218 O3209 1.250 . S
C3218 O3210 1.258 . S
O3219 Mn3204 2.162 . S
O3219 C3207 1.281 . S
O3220 Mn3204 2.297 . S
O3220 C3207 1.236 . S
N3221 Mn3205 2.282 . S
N3221 C3222 1.328 . S
N3221 C3226 1.318 . S
C3222 N3221 1.328 . S
C3222 C3223 1.457 . S
C3222 H3227 0.929 . S
C3223 C3222 1.457 . S
C3223 C3224 1.291 . S
C3223 H3236 0.931 . S
C3224 C3223 1.291 . S
C3224 C3225 1.373 . S
C3224 H3237 0.929 . S
C3225 C3224 1.373 . S
C3225 C3226 1.396 . S
C3225 C3232 1.403 . S
C3226 C3216 1.476 . S
C3226 N3221 1.318 . S
C3226 C3225 1.396 . S
H3227 C3222 0.929 . S
O3228 Mn3204 2.385 . S
O3228 C3206 1.234 . S
O3229 Mn3204 2.209 . S
O3229 Mn3205 2.215 . S
O3229 C3206 1.283 . S
O3230 Mn3204 2.094 . S
O3230 C3208 1.240 . S
O3231 Mn3205 2.117 . S
O3231 C3208 1.264 . S
C3232 C3225 1.403 . S
C3232 C3233 1.399 . S
C3232 H3238 0.929 . S
C3233 C3213 1.449 . S
C3233 C3232 1.399 . S
C3233 H3239 0.930 . S
H3234 C3214 0.931 . S
H3235 C3215 0.930 . S
H3236 C3223 0.931 . S
H3237 C3224 0.929 . S
H3238 C3232 0.929 . S
H3239 C3233 0.930 . S
Mn3240 O3245 2.095 . S
Mn3240 O3255 2.162 . S
Mn3240 O3256 2.297 . S
Mn3240 O3264 2.385 . S
Mn3240 O3265 2.209 . S
Mn3240 O3266 2.094 . S
Mn3241 O3246 2.121 . S
Mn3241 N3248 2.257 . S
Mn3241 N3257 2.282 . S
Mn3241 O3265 2.215 . S
Mn3241 O3267 2.117 . S
C3242 O3264 1.234 . S
C3242 O3265 1.283 . S
C3243 O3255 1.281 . S
C3243 O3256 1.236 . S
C3244 O3266 1.240 . S
C3244 O3267 1.264 . S
O3245 Mn3240 2.095 . S
O3245 C3254 1.250 . S
O3246 Mn3241 2.121 . S
O3246 C3254 1.258 . S
C3247 N3248 1.326 . S
C3247 C3251 1.460 . S
C3247 H3253 0.929 . S
N3248 Mn3241 2.257 . S
N3248 C3247 1.326 . S
N3248 C3252 1.362 . S
C3249 C3250 1.258 . S
C3249 C3252 1.431 . S
C3249 C3269 1.449 . S
C3250 C3249 1.258 . S
C3250 C3251 1.477 . S
C3250 H3270 0.931 . S
C3251 C3247 1.460 . S
C3251 C3250 1.477 . S
C3251 H3271 0.930 . S
C3252 N3248 1.362 . S
C3252 C3249 1.431 . S
C3252 C3262 1.476 . S
H3253 C3247 0.929 . S
C3254 O3245 1.250 . S
C3254 O3246 1.258 . S
O3255 Mn3240 2.162 . S
O3255 C3243 1.281 . S
O3256 Mn3240 2.297 . S
O3256 C3243 1.236 . S
N3257 Mn3241 2.282 . S
N3257 C3258 1.328 . S
N3257 C3262 1.318 . S
C3258 N3257 1.328 . S
C3258 C3259 1.457 . S
C3258 H3263 0.929 . S
C3259 C3258 1.457 . S
C3259 C3260 1.291 . S
C3259 H3272 0.931 . S
C3260 C3259 1.291 . S
C3260 C3261 1.373 . S
C3260 H3273 0.929 . S
C3261 C3260 1.373 . S
C3261 C3262 1.396 . S
C3261 C3268 1.403 . S
C3262 C3252 1.476 . S
C3262 N3257 1.318 . S
C3262 C3261 1.396 . S
H3263 C3258 0.929 . S
O3264 Mn3240 2.385 . S
O3264 C3242 1.234 . S
O3265 Mn3240 2.209 . S
O3265 Mn3241 2.215 . S
O3265 C3242 1.283 . S
O3266 Mn3240 2.094 . S
O3266 C3244 1.240 . S
O3267 Mn3241 2.117 . S
O3267 C3244 1.264 . S
C3268 C3261 1.403 . S
C3268 C3269 1.399 . S
C3268 H3274 0.929 . S
C3269 C3249 1.449 . S
C3269 C3268 1.399 . S
C3269 H3275 0.930 . S
H3270 C3250 0.931 . S
H3271 C3251 0.930 . S
H3272 C3259 0.931 . S
H3273 C3260 0.929 . S
H3274 C3268 0.929 . S
H3275 C3269 0.930 . S
Mn3276 O3281 2.095 . S
Mn3276 O3291 2.162 . S
Mn3276 O3292 2.297 . S
Mn3276 O3300 2.385 . S
Mn3276 O3301 2.209 . S
Mn3276 O3302 2.094 . S
Mn3277 O3282 2.121 . S
Mn3277 N3284 2.257 . S
Mn3277 N3293 2.282 . S
Mn3277 O3301 2.215 . S
Mn3277 O3303 2.117 . S
C3278 O3300 1.234 . S
C3278 O3301 1.283 . S
C3279 O3291 1.281 . S
C3279 O3292 1.236 . S
C3280 O3302 1.240 . S
C3280 O3303 1.264 . S
O3281 Mn3276 2.095 . S
O3281 C3290 1.250 . S
O3282 Mn3277 2.121 . S
O3282 C3290 1.258 . S
C3283 N3284 1.326 . S
C3283 C3287 1.460 . S
C3283 H3289 0.929 . S
N3284 Mn3277 2.257 . S
N3284 C3283 1.326 . S
N3284 C3288 1.362 . S
C3285 C3286 1.258 . S
C3285 C3288 1.431 . S
C3285 C3305 1.449 . S
C3286 C3285 1.258 . S
C3286 C3287 1.477 . S
C3286 H3306 0.931 . S
C3287 C3283 1.460 . S
C3287 C3286 1.477 . S
C3287 H3307 0.930 . S
C3288 N3284 1.362 . S
C3288 C3285 1.431 . S
C3288 C3298 1.476 . S
H3289 C3283 0.929 . S
C3290 O3281 1.250 . S
C3290 O3282 1.258 . S
O3291 Mn3276 2.162 . S
O3291 C3279 1.281 . S
O3292 Mn3276 2.297 . S
O3292 C3279 1.236 . S
N3293 Mn3277 2.282 . S
N3293 C3294 1.328 . S
N3293 C3298 1.318 . S
C3294 N3293 1.328 . S
C3294 C3295 1.457 . S
C3294 H3299 0.929 . S
C3295 C3294 1.457 . S
C3295 C3296 1.291 . S
C3295 H3308 0.931 . S
C3296 C3295 1.291 . S
C3296 C3297 1.373 . S
C3296 H3309 0.929 . S
C3297 C3296 1.373 . S
C3297 C3298 1.396 . S
C3297 C3304 1.403 . S
C3298 C3288 1.476 . S
C3298 N3293 1.318 . S
C3298 C3297 1.396 . S
H3299 C3294 0.929 . S
O3300 Mn3276 2.385 . S
O3300 C3278 1.234 . S
O3301 Mn3276 2.209 . S
O3301 Mn3277 2.215 . S
O3301 C3278 1.283 . S
O3302 Mn3276 2.094 . S
O3302 C3280 1.240 . S
O3303 Mn3277 2.117 . S
O3303 C3280 1.264 . S
C3304 C3297 1.403 . S
C3304 C3305 1.399 . S
C3304 H3310 0.929 . S
C3305 C3285 1.449 . S
C3305 C3304 1.399 . S
C3305 H3311 0.930 . S
H3306 C3286 0.931 . S
H3307 C3287 0.930 . S
H3308 C3295 0.931 . S
H3309 C3296 0.929 . S
H3310 C3304 0.929 . S
H3311 C3305 0.930 . S
Mn3312 O3317 2.095 . S
Mn3312 O3327 2.162 . S
Mn3312 O3328 2.297 . S
Mn3312 O3336 2.385 . S
Mn3312 O3337 2.209 . S
Mn3312 O3338 2.094 . S
Mn3313 O3318 2.121 . S
Mn3313 N3320 2.257 . S
Mn3313 N3329 2.282 . S
Mn3313 O3337 2.215 . S
Mn3313 O3339 2.117 . S
C3314 O3336 1.234 . S
C3314 O3337 1.283 . S
C3315 O3327 1.281 . S
C3315 O3328 1.236 . S
C3316 O3338 1.240 . S
C3316 O3339 1.264 . S
O3317 Mn3312 2.095 . S
O3317 C3326 1.250 . S
O3318 Mn3313 2.121 . S
O3318 C3326 1.258 . S
C3319 N3320 1.326 . S
C3319 C3323 1.460 . S
C3319 H3325 0.929 . S
N3320 Mn3313 2.257 . S
N3320 C3319 1.326 . S
N3320 C3324 1.362 . S
C3321 C3322 1.258 . S
C3321 C3324 1.431 . S
C3321 C3341 1.449 . S
C3322 C3321 1.258 . S
C3322 C3323 1.477 . S
C3322 H3342 0.931 . S
C3323 C3319 1.460 . S
C3323 C3322 1.477 . S
C3323 H3343 0.930 . S
C3324 N3320 1.362 . S
C3324 C3321 1.431 . S
C3324 C3334 1.476 . S
H3325 C3319 0.929 . S
C3326 O3317 1.250 . S
C3326 O3318 1.258 . S
O3327 Mn3312 2.162 . S
O3327 C3315 1.281 . S
O3328 Mn3312 2.297 . S
O3328 C3315 1.236 . S
N3329 Mn3313 2.282 . S
N3329 C3330 1.328 . S
N3329 C3334 1.318 . S
C3330 N3329 1.328 . S
C3330 C3331 1.457 . S
C3330 H3335 0.929 . S
C3331 C3330 1.457 . S
C3331 C3332 1.291 . S
C3331 H3344 0.931 . S
C3332 C3331 1.291 . S
C3332 C3333 1.373 . S
C3332 H3345 0.929 . S
C3333 C3332 1.373 . S
C3333 C3334 1.396 . S
C3333 C3340 1.403 . S
C3334 C3324 1.476 . S
C3334 N3329 1.318 . S
C3334 C3333 1.396 . S
H3335 C3330 0.929 . S
O3336 Mn3312 2.385 . S
O3336 C3314 1.234 . S
O3337 Mn3312 2.209 . S
O3337 Mn3313 2.215 . S
O3337 C3314 1.283 . S
O3338 Mn3312 2.094 . S
O3338 C3316 1.240 . S
O3339 Mn3313 2.117 . S
O3339 C3316 1.264 . S
C3340 C3333 1.403 . S
C3340 C3341 1.399 . S
C3340 H3346 0.929 . S
C3341 C3321 1.449 . S
C3341 C3340 1.399 . S
C3341 H3347 0.930 . S
H3342 C3322 0.931 . S
H3343 C3323 0.930 . S
H3344 C3331 0.931 . S
H3345 C3332 0.929 . S
H3346 C3340 0.929 . S
H3347 C3341 0.930 . S
Mn3348 O3353 2.095 . S
Mn3348 O3363 2.162 . S
Mn3348 O3364 2.297 . S
Mn3348 O3372 2.385 . S
Mn3348 O3373 2.209 . S
Mn3348 O3374 2.094 . S
Mn3349 O3354 2.121 . S
Mn3349 N3356 2.257 . S
Mn3349 N3365 2.282 . S
Mn3349 O3373 2.215 . S
Mn3349 O3375 2.117 . S
C3350 O3372 1.234 . S
C3350 O3373 1.283 . S
C3351 O3363 1.281 . S
C3351 O3364 1.236 . S
C3352 O3374 1.240 . S
C3352 O3375 1.264 . S
O3353 Mn3348 2.095 . S
O3353 C3362 1.250 . S
O3354 Mn3349 2.121 . S
O3354 C3362 1.258 . S
C3355 N3356 1.326 . S
C3355 C3359 1.460 . S
C3355 H3361 0.929 . S
N3356 Mn3349 2.257 . S
N3356 C3355 1.326 . S
N3356 C3360 1.362 . S
C3357 C3358 1.258 . S
C3357 C3360 1.431 . S
C3357 C3377 1.449 . S
C3358 C3357 1.258 . S
C3358 C3359 1.477 . S
C3358 H3378 0.931 . S
C3359 C3355 1.460 . S
C3359 C3358 1.477 . S
C3359 H3379 0.930 . S
C3360 N3356 1.362 . S
C3360 C3357 1.431 . S
C3360 C3370 1.476 . S
H3361 C3355 0.929 . S
C3362 O3353 1.250 . S
C3362 O3354 1.258 . S
O3363 Mn3348 2.162 . S
O3363 C3351 1.281 . S
O3364 Mn3348 2.297 . S
O3364 C3351 1.236 . S
N3365 Mn3349 2.282 . S
N3365 C3366 1.328 . S
N3365 C3370 1.318 . S
C3366 N3365 1.328 . S
C3366 C3367 1.457 . S
C3366 H3371 0.929 . S
C3367 C3366 1.457 . S
C3367 C3368 1.291 . S
C3367 H3380 0.931 . S
C3368 C3367 1.291 . S
C3368 C3369 1.373 . S
C3368 H3381 0.929 . S
C3369 C3368 1.373 . S
C3369 C3370 1.396 . S
C3369 C3376 1.403 . S
C3370 C3360 1.476 . S
C3370 N3365 1.318 . S
C3370 C3369 1.396 . S
H3371 C3366 0.929 . S
O3372 Mn3348 2.385 . S
O3372 C3350 1.234 . S
O3373 Mn3348 2.209 . S
O3373 Mn3349 2.215 . S
O3373 C3350 1.283 . S
O3374 Mn3348 2.094 . S
O3374 C3352 1.240 . S
O3375 Mn3349 2.117 . S
O3375 C3352 1.264 . S
C3376 C3369 1.403 . S
C3376 C3377 1.399 . S
C3376 H3382 0.929 . S
C3377 C3357 1.449 . S
C3377 C3376 1.399 . S
C3377 H3383 0.930 . S
H3378 C3358 0.931 . S
H3379 C3359 0.930 . S
H3380 C3367 0.931 . S
H3381 C3368 0.929 . S
H3382 C3376 0.929 . S
H3383 C3377 0.930 . S
Mn3384 O3389 2.095 . S
Mn3384 O3399 2.162 . S
Mn3384 O3400 2.297 . S
Mn3384 O3408 2.385 . S
Mn3384 O3409 2.209 . S
Mn3384 O3410 2.094 . S
Mn3385 O3390 2.121 . S
Mn3385 N3392 2.257 . S
Mn3385 N3401 2.282 . S
Mn3385 O3409 2.215 . S
Mn3385 O3411 2.117 . S
C3386 O3408 1.234 . S
C3386 O3409 1.283 . S
C3387 O3399 1.281 . S
C3387 O3400 1.236 . S
C3388 O3410 1.240 . S
C3388 O3411 1.264 . S
O3389 Mn3384 2.095 . S
O3389 C3398 1.250 . S
O3390 Mn3385 2.121 . S
O3390 C3398 1.258 . S
C3391 N3392 1.326 . S
C3391 C3395 1.460 . S
C3391 H3397 0.929 . S
N3392 Mn3385 2.257 . S
N3392 C3391 1.326 . S
N3392 C3396 1.362 . S
C3393 C3394 1.258 . S
C3393 C3396 1.431 . S
C3393 C3413 1.449 . S
C3394 C3393 1.258 . S
C3394 C3395 1.477 . S
C3394 H3414 0.931 . S
C3395 C3391 1.460 . S
C3395 C3394 1.477 . S
C3395 H3415 0.930 . S
C3396 N3392 1.362 . S
C3396 C3393 1.431 . S
C3396 C3406 1.476 . S
H3397 C3391 0.929 . S
C3398 O3389 1.250 . S
C3398 O3390 1.258 . S
O3399 Mn3384 2.162 . S
O3399 C3387 1.281 . S
O3400 Mn3384 2.297 . S
O3400 C3387 1.236 . S
N3401 Mn3385 2.282 . S
N3401 C3402 1.328 . S
N3401 C3406 1.318 . S
C3402 N3401 1.328 . S
C3402 C3403 1.457 . S
C3402 H3407 0.929 . S
C3403 C3402 1.457 . S
C3403 C3404 1.291 . S
C3403 H3416 0.931 . S
C3404 C3403 1.291 . S
C3404 C3405 1.373 . S
C3404 H3417 0.929 . S
C3405 C3404 1.373 . S
C3405 C3406 1.396 . S
C3405 C3412 1.403 . S
C3406 C3396 1.476 . S
C3406 N3401 1.318 . S
C3406 C3405 1.396 . S
H3407 C3402 0.929 . S
O3408 Mn3384 2.385 . S
O3408 C3386 1.234 . S
O3409 Mn3384 2.209 . S
O3409 Mn3385 2.215 . S
O3409 C3386 1.283 . S
O3410 Mn3384 2.094 . S
O3410 C3388 1.240 . S
O3411 Mn3385 2.117 . S
O3411 C3388 1.264 . S
C3412 C3405 1.403 . S
C3412 C3413 1.399 . S
C3412 H3418 0.929 . S
C3413 C3393 1.449 . S
C3413 C3412 1.399 . S
C3413 H3419 0.930 . S
H3414 C3394 0.931 . S
H3415 C3395 0.930 . S
H3416 C3403 0.931 . S
H3417 C3404 0.929 . S
H3418 C3412 0.929 . S
H3419 C3413 0.930 . S
Mn3420 O3425 2.095 . S
Mn3420 O3435 2.162 . S
Mn3420 O3436 2.297 . S
Mn3420 O3444 2.385 . S
Mn3420 O3445 2.209 . S
Mn3420 O3446 2.094 . S
Mn3421 O3426 2.121 . S
Mn3421 N3428 2.257 . S
Mn3421 N3437 2.282 . S
Mn3421 O3445 2.215 . S
Mn3421 O3447 2.117 . S
C3422 O3444 1.234 . S
C3422 O3445 1.283 . S
C3423 O3435 1.281 . S
C3423 O3436 1.236 . S
C3424 O3446 1.240 . S
C3424 O3447 1.264 . S
O3425 Mn3420 2.095 . S
O3425 C3434 1.250 . S
O3426 Mn3421 2.121 . S
O3426 C3434 1.258 . S
C3427 N3428 1.326 . S
C3427 C3431 1.460 . S
C3427 H3433 0.929 . S
N3428 Mn3421 2.257 . S
N3428 C3427 1.326 . S
N3428 C3432 1.362 . S
C3429 C3430 1.258 . S
C3429 C3432 1.431 . S
C3429 C3449 1.449 . S
C3430 C3429 1.258 . S
C3430 C3431 1.477 . S
C3430 H3450 0.931 . S
C3431 C3427 1.460 . S
C3431 C3430 1.477 . S
C3431 H3451 0.930 . S
C3432 N3428 1.362 . S
C3432 C3429 1.431 . S
C3432 C3442 1.476 . S
H3433 C3427 0.929 . S
C3434 O3425 1.250 . S
C3434 O3426 1.258 . S
O3435 Mn3420 2.162 . S
O3435 C3423 1.281 . S
O3436 Mn3420 2.297 . S
O3436 C3423 1.236 . S
N3437 Mn3421 2.282 . S
N3437 C3438 1.328 . S
N3437 C3442 1.318 . S
C3438 N3437 1.328 . S
C3438 C3439 1.457 . S
C3438 H3443 0.929 . S
C3439 C3438 1.457 . S
C3439 C3440 1.291 . S
C3439 H3452 0.931 . S
C3440 C3439 1.291 . S
C3440 C3441 1.373 . S
C3440 H3453 0.929 . S
C3441 C3440 1.373 . S
C3441 C3442 1.396 . S
C3441 C3448 1.403 . S
C3442 C3432 1.476 . S
C3442 N3437 1.318 . S
C3442 C3441 1.396 . S
H3443 C3438 0.929 . S
O3444 Mn3420 2.385 . S
O3444 C3422 1.234 . S
O3445 Mn3420 2.209 . S
O3445 Mn3421 2.215 . S
O3445 C3422 1.283 . S
O3446 Mn3420 2.094 . S
O3446 C3424 1.240 . S
O3447 Mn3421 2.117 . S
O3447 C3424 1.264 . S
C3448 C3441 1.403 . S
C3448 C3449 1.399 . S
C3448 H3454 0.929 . S
C3449 C3429 1.449 . S
C3449 C3448 1.399 . S
C3449 H3455 0.930 . S
H3450 C3430 0.931 . S
H3451 C3431 0.930 . S
H3452 C3439 0.931 . S
H3453 C3440 0.929 . S
H3454 C3448 0.929 . S
H3455 C3449 0.930 . S
C3456 C3457 1.387 . S
C3456 H3460 0.950 . S
C3456 C3465 1.390 . S
C3457 C3456 1.387 . S
C3457 C3459 1.387 . S
H3458 C3465 0.950 . S
C3459 C3457 1.387 . S
C3459 C3461 1.390 . S
C3459 H3463 0.950 . S
H3460 C3456 0.950 . S
C3461 C3459 1.390 . S
C3461 C3462 1.387 . S
C3461 H3464 0.950 . S
C3462 C3461 1.387 . S
C3462 C3465 1.387 . S
H3463 C3459 0.950 . S
H3464 C3461 0.950 . S
C3465 C3456 1.390 . S
C3465 H3458 0.950 . S
C3465 C3462 1.387 . S
C3466 C3467 1.387 . S
C3466 H3470 0.950 . S
C3466 C3475 1.390 . S
C3467 C3466 1.387 . S
C3467 C3469 1.387 . S
H3468 C3475 0.950 . S
C3469 C3467 1.387 . S
C3469 C3471 1.390 . S
C3469 H3473 0.950 . S
H3470 C3466 0.950 . S
C3471 C3469 1.390 . S
C3471 C3472 1.387 . S
C3471 H3474 0.950 . S
C3472 C3471 1.387 . S
C3472 C3475 1.387 . S
H3473 C3469 0.950 . S
H3474 C3471 0.950 . S
C3475 C3466 1.390 . S
C3475 H3468 0.950 . S
C3475 C3472 1.387 . S
C3476 C3477 1.387 . S
C3476 H3480 0.950 . S
C3476 C3485 1.390 . S
C3477 C3476 1.387 . S
C3477 C3479 1.387 . S
H3478 C3485 0.950 . S
C3479 C3477 1.387 . S
C3479 C3481 1.390 . S
C3479 H3483 0.950 . S
H3480 C3476 0.950 . S
C3481 C3479 1.390 . S
C3481 C3482 1.387 . S
C3481 H3484 0.950 . S
C3482 C3481 1.387 . S
C3482 C3485 1.387 . S
H3483 C3479 0.950 . S
H3484 C3481 0.950 . S
C3485 C3476 1.390 . S
C3485 H3478 0.950 . S
C3485 C3482 1.387 . S
C3486 C3487 1.387 . S
C3486 H3490 0.950 . S
C3486 C3495 1.390 . S
C3487 C3486 1.387 . S
C3487 C3489 1.387 . S
H3488 C3495 0.950 . S
C3489 C3487 1.387 . S
C3489 C3491 1.390 . S
C3489 H3493 0.950 . S
H3490 C3486 0.950 . S
C3491 C3489 1.390 . S
C3491 C3492 1.387 . S
C3491 H3494 0.950 . S
C3492 C3491 1.387 . S
C3492 C3495 1.387 . S
H3493 C3489 0.950 . S
H3494 C3491 0.950 . S
C3495 C3486 1.390 . S
C3495 H3488 0.950 . S
C3495 C3492 1.387 . S
C3496 C3497 1.387 . S
C3496 H3500 0.950 . S
C3496 C3505 1.390 . S
C3497 C3496 1.387 . S
C3497 C3499 1.387 . S
H3498 C3505 0.950 . S
C3499 C3497 1.387 . S
C3499 C3501 1.390 . S
C3499 H3503 0.950 . S
H3500 C3496 0.950 . S
C3501 C3499 1.390 . S
C3501 C3502 1.387 . S
C3501 H3504 0.950 . S
C3502 C3501 1.387 . S
C3502 C3505 1.387 . S
H3503 C3499 0.950 . S
H3504 C3501 0.950 . S
C3505 C3496 1.390 . S
C3505 H3498 0.950 . S
C3505 C3502 1.387 . S
C3506 C3507 1.387 . S
C3506 H3510 0.950 . S
C3506 C3515 1.390 . S
C3507 C3506 1.387 . S
C3507 C3509 1.387 . S
H3508 C3515 0.950 . S
C3509 C3507 1.387 . S
C3509 C3511 1.390 . S
C3509 H3513 0.950 . S
H3510 C3506 0.950 . S
C3511 C3509 1.390 . S
C3511 C3512 1.387 . S
C3511 H3514 0.950 . S
C3512 C3511 1.387 . S
C3512 C3515 1.387 . S
H3513 C3509 0.950 . S
H3514 C3511 0.950 . S
C3515 C3506 1.390 . S
C3515 H3508 0.950 . S
C3515 C3512 1.387 . S
C3516 C3517 1.387 . S
C3516 H3520 0.950 . S
C3516 C3525 1.390 . S
C3517 C3516 1.387 . S
C3517 C3519 1.387 . S
H3518 C3525 0.950 . S
C3519 C3517 1.387 . S
C3519 C3521 1.390 . S
C3519 H3523 0.950 . S
H3520 C3516 0.950 . S
C3521 C3519 1.390 . S
C3521 C3522 1.387 . S
C3521 H3524 0.950 . S
C3522 C3521 1.387 . S
C3522 C3525 1.387 . S
H3523 C3519 0.950 . S
H3524 C3521 0.950 . S
C3525 C3516 1.390 . S
C3525 H3518 0.950 . S
C3525 C3522 1.387 . S
C3526 C3527 1.387 . S
C3526 H3530 0.950 . S
C3526 C3535 1.390 . S
C3527 C3526 1.387 . S
C3527 C3529 1.387 . S
H3528 C3535 0.950 . S
C3529 C3527 1.387 . S
C3529 C3531 1.390 . S
C3529 H3533 0.950 . S
H3530 C3526 0.950 . S
C3531 C3529 1.390 . S
C3531 C3532 1.387 . S
C3531 H3534 0.950 . S
C3532 C3531 1.387 . S
C3532 C3535 1.387 . S
H3533 C3529 0.950 . S
H3534 C3531 0.950 . S
C3535 C3526 1.390 . S
C3535 H3528 0.950 . S
C3535 C3532 1.387 . S
C3536 C3537 1.387 . S
C3536 H3540 0.950 . S
C3536 C3545 1.390 . S
C3537 C3536 1.387 . S
C3537 C3539 1.387 . S
H3538 C3545 0.950 . S
C3539 C3537 1.387 . S
C3539 C3541 1.390 . S
C3539 H3543 0.950 . S
H3540 C3536 0.950 . S
C3541 C3539 1.390 . S
C3541 C3542 1.387 . S
C3541 H3544 0.950 . S
C3542 C3541 1.387 . S
C3542 C3545 1.387 . S
H3543 C3539 0.950 . S
H3544 C3541 0.950 . S
C3545 C3536 1.390 . S
C3545 H3538 0.950 . S
C3545 C3542 1.387 . S
C3546 C3547 1.387 . S
C3546 H3550 0.950 . S
C3546 C3555 1.390 . S
C3547 C3546 1.387 . S
C3547 C3549 1.387 . S
H3548 C3555 0.950 . S
C3549 C3547 1.387 . S
C3549 C3551 1.390 . S
C3549 H3553 0.950 . S
H3550 C3546 0.950 . S
C3551 C3549 1.390 . S
C3551 C3552 1.387 . S
C3551 H3554 0.950 . S
C3552 C3551 1.387 . S
C3552 C3555 1.387 . S
H3553 C3549 0.950 . S
H3554 C3551 0.950 . S
C3555 C3546 1.390 . S
C3555 H3548 0.950 . S
C3555 C3552 1.387 . S
C3556 C3557 1.387 . S
C3556 H3560 0.950 . S
C3556 C3565 1.390 . S
C3557 C3556 1.387 . S
C3557 C3559 1.387 . S
H3558 C3565 0.950 . S
C3559 C3557 1.387 . S
C3559 C3561 1.390 . S
C3559 H3563 0.950 . S
H3560 C3556 0.950 . S
C3561 C3559 1.390 . S
C3561 C3562 1.387 . S
C3561 H3564 0.950 . S
C3562 C3561 1.387 . S
C3562 C3565 1.387 . S
H3563 C3559 0.950 . S
H3564 C3561 0.950 . S
C3565 C3556 1.390 . S
C3565 H3558 0.950 . S
C3565 C3562 1.387 . S
C3566 C3567 1.387 . S
C3566 H3570 0.950 . S
C3566 C3575 1.390 . S
C3567 C3566 1.387 . S
C3567 C3569 1.387 . S
H3568 C3575 0.950 . S
C3569 C3567 1.387 . S
C3569 C3571 1.390 . S
C3569 H3573 0.950 . S
H3570 C3566 0.950 . S
C3571 C3569 1.390 . S
C3571 C3572 1.387 . S
C3571 H3574 0.950 . S
C3572 C3571 1.387 . S
C3572 C3575 1.387 . S
H3573 C3569 0.950 . S
H3574 C3571 0.950 . S
C3575 C3566 1.390 . S
C3575 H3568 0.950 . S
C3575 C3572 1.387 . S
C3576 C3577 1.387 . S
C3576 H3580 0.950 . S
C3576 C3585 1.390 . S
C3577 C3576 1.387 . S
C3577 C3579 1.387 . S
H3578 C3585 0.950 . S
C3579 C3577 1.387 . S
C3579 C3581 1.390 . S
C3579 H3583 0.950 . S
H3580 C3576 0.950 . S
C3581 C3579 1.390 . S
C3581 C3582 1.387 . S
C3581 H3584 0.950 . S
C3582 C3581 1.387 . S
C3582 C3585 1.387 . S
H3583 C3579 0.950 . S
H3584 C3581 0.950 . S
C3585 C3576 1.390 . S
C3585 H3578 0.950 . S
C3585 C3582 1.387 . S
C3586 C3587 1.387 . S
C3586 H3590 0.950 . S
C3586 C3595 1.390 . S
C3587 C3586 1.387 . S
C3587 C3589 1.387 . S
H3588 C3595 0.950 . S
C3589 C3587 1.387 . S
C3589 C3591 1.390 . S
C3589 H3593 0.950 . S
H3590 C3586 0.950 . S
C3591 C3589 1.390 . S
C3591 C3592 1.387 . S
C3591 H3594 0.950 . S
C3592 C3591 1.387 . S
C3592 C3595 1.387 . S
H3593 C3589 0.950 . S
H3594 C3591 0.950 . S
C3595 C3586 1.390 . S
C3595 H3588 0.950 . S
C3595 C3592 1.387 . S
C3596 C3597 1.387 . S
C3596 H3600 0.950 . S
C3596 C3605 1.390 . S
C3597 C3596 1.387 . S
C3597 C3599 1.387 . S
H3598 C3605 0.950 . S
C3599 C3597 1.387 . S
C3599 C3601 1.390 . S
C3599 H3603 0.950 . S
H3600 C3596 0.950 . S
C3601 C3599 1.390 . S
C3601 C3602 1.387 . S
C3601 H3604 0.950 . S
C3602 C3601 1.387 . S
C3602 C3605 1.387 . S
H3603 C3599 0.950 . S
H3604 C3601 0.950 . S
C3605 C3596 1.390 . S
C3605 H3598 0.950 . S
C3605 C3602 1.387 . S
C3606 C3607 1.387 . S
C3606 H3610 0.950 . S
C3606 C3615 1.390 . S
C3607 C3606 1.387 . S
C3607 C3609 1.387 . S
H3608 C3615 0.950 . S
C3609 C3607 1.387 . S
C3609 C3611 1.390 . S
C3609 H3613 0.950 . S
H3610 C3606 0.950 . S
C3611 C3609 1.390 . S
C3611 C3612 1.387 . S
C3611 H3614 0.950 . S
C3612 C3611 1.387 . S
C3612 C3615 1.387 . S
H3613 C3609 0.950 . S
H3614 C3611 0.950 . S
C3615 C3606 1.390 . S
C3615 H3608 0.950 . S
C3615 C3612 1.387 . S
C3616 C3617 1.387 . S
C3616 H3620 0.950 . S
C3616 C3625 1.390 . S
C3617 C3616 1.387 . S
C3617 C3619 1.387 . S
H3618 C3625 0.950 . S
C3619 C3617 1.387 . S
C3619 C3621 1.390 . S
C3619 H3623 0.950 . S
H3620 C3616 0.950 . S
C3621 C3619 1.390 . S
C3621 C3622 1.387 . S
C3621 H3624 0.950 . S
C3622 C3621 1.387 . S
C3622 C3625 1.387 . S
H3623 C3619 0.950 . S
H3624 C3621 0.950 . S
C3625 C3616 1.390 . S
C3625 H3618 0.950 . S
C3625 C3622 1.387 . S
C3626 C3627 1.387 . S
C3626 H3630 0.950 . S
C3626 C3635 1.390 . S
C3627 C3626 1.387 . S
C3627 C3629 1.387 . S
H3628 C3635 0.950 . S
C3629 C3627 1.387 . S
C3629 C3631 1.390 . S
C3629 H3633 0.950 . S
H3630 C3626 0.950 . S
C3631 C3629 1.390 . S
C3631 C3632 1.387 . S
C3631 H3634 0.950 . S
C3632 C3631 1.387 . S
C3632 C3635 1.387 . S
H3633 C3629 0.950 . S
H3634 C3631 0.950 . S
C3635 C3626 1.390 . S
C3635 H3628 0.950 . S
C3635 C3632 1.387 . S
C3636 C3637 1.387 . S
C3636 H3640 0.950 . S
C3636 C3645 1.390 . S
C3637 C3636 1.387 . S
C3637 C3639 1.387 . S
H3638 C3645 0.950 . S
C3639 C3637 1.387 . S
C3639 C3641 1.390 . S
C3639 H3643 0.950 . S
H3640 C3636 0.950 . S
C3641 C3639 1.390 . S
C3641 C3642 1.387 . S
C3641 H3644 0.950 . S
C3642 C3641 1.387 . S
C3642 C3645 1.387 . S
H3643 C3639 0.950 . S
H3644 C3641 0.950 . S
C3645 C3636 1.390 . S
C3645 H3638 0.950 . S
C3645 C3642 1.387 . S
C3646 C3647 1.387 . S
C3646 H3650 0.950 . S
C3646 C3655 1.390 . S
C3647 C3646 1.387 . S
C3647 C3649 1.387 . S
H3648 C3655 0.950 . S
C3649 C3647 1.387 . S
C3649 C3651 1.390 . S
C3649 H3653 0.950 . S
H3650 C3646 0.950 . S
C3651 C3649 1.390 . S
C3651 C3652 1.387 . S
C3651 H3654 0.950 . S
C3652 C3651 1.387 . S
C3652 C3655 1.387 . S
H3653 C3649 0.950 . S
H3654 C3651 0.950 . S
C3655 C3646 1.390 . S
C3655 H3648 0.950 . S
C3655 C3652 1.387 . S
C3656 C3657 1.387 . S
C3656 H3660 0.950 . S
C3656 C3665 1.390 . S
C3657 C3656 1.387 . S
C3657 C3659 1.387 . S
H3658 C3665 0.950 . S
C3659 C3657 1.387 . S
C3659 C3661 1.390 . S
C3659 H3663 0.950 . S
H3660 C3656 0.950 . S
C3661 C3659 1.390 . S
C3661 C3662 1.387 . S
C3661 H3664 0.950 . S
C3662 C3661 1.387 . S
C3662 C3665 1.387 . S
H3663 C3659 0.950 . S
H3664 C3661 0.950 . S
C3665 C3656 1.390 . S
C3665 H3658 0.950 . S
C3665 C3662 1.387 . S
C3666 C3667 1.387 . S
C3666 H3670 0.950 . S
C3666 C3675 1.390 . S
C3667 C3666 1.387 . S
C3667 C3669 1.387 . S
H3668 C3675 0.950 . S
C3669 C3667 1.387 . S
C3669 C3671 1.390 . S
C3669 H3673 0.950 . S
H3670 C3666 0.950 . S
C3671 C3669 1.390 . S
C3671 C3672 1.387 . S
C3671 H3674 0.950 . S
C3672 C3671 1.387 . S
C3672 C3675 1.387 . S
H3673 C3669 0.950 . S
H3674 C3671 0.950 . S
C3675 C3666 1.390 . S
C3675 H3668 0.950 . S
C3675 C3672 1.387 . S
C3676 C3677 1.387 . S
C3676 H3680 0.950 . S
C3676 C3685 1.390 . S
C3677 C3676 1.387 . S
C3677 C3679 1.387 . S
H3678 C3685 0.950 . S
C3679 C3677 1.387 . S
C3679 C3681 1.390 . S
C3679 H3683 0.950 . S
H3680 C3676 0.950 . S
C3681 C3679 1.390 . S
C3681 C3682 1.387 . S
C3681 H3684 0.950 . S
C3682 C3681 1.387 . S
C3682 C3685 1.387 . S
H3683 C3679 0.950 . S
H3684 C3681 0.950 . S
C3685 C3676 1.390 . S
C3685 H3678 0.950 . S
C3685 C3682 1.387 . S
C3686 C3687 1.387 . S
C3686 H3690 0.950 . S
C3686 C3695 1.390 . S
C3687 C3686 1.387 . S
C3687 C3689 1.387 . S
H3688 C3695 0.950 . S
C3689 C3687 1.387 . S
C3689 C3691 1.390 . S
C3689 H3693 0.950 . S
H3690 C3686 0.950 . S
C3691 C3689 1.390 . S
C3691 C3692 1.387 . S
C3691 H3694 0.950 . S
C3692 C3691 1.387 . S
C3692 C3695 1.387 . S
H3693 C3689 0.950 . S
H3694 C3691 0.950 . S
C3695 C3686 1.390 . S
C3695 H3688 0.950 . S
C3695 C3692 1.387 . S
C3696 C3697 1.387 . S
C3696 H3700 0.950 . S
C3696 C3705 1.390 . S
C3697 C3696 1.387 . S
C3697 C3699 1.387 . S
H3698 C3705 0.950 . S
C3699 C3697 1.387 . S
C3699 C3701 1.390 . S
C3699 H3703 0.950 . S
H3700 C3696 0.950 . S
C3701 C3699 1.390 . S
C3701 C3702 1.387 . S
C3701 H3704 0.950 . S
C3702 C3701 1.387 . S
C3702 C3705 1.387 . S
H3703 C3699 0.950 . S
H3704 C3701 0.950 . S
C3705 C3696 1.390 . S
C3705 H3698 0.950 . S
C3705 C3702 1.387 . S
C3706 C3707 1.387 . S
C3706 H3710 0.950 . S
C3706 C3715 1.390 . S
C3707 C3706 1.387 . S
C3707 C3709 1.387 . S
H3708 C3715 0.950 . S
C3709 C3707 1.387 . S
C3709 C3711 1.390 . S
C3709 H3713 0.950 . S
H3710 C3706 0.950 . S
C3711 C3709 1.390 . S
C3711 C3712 1.387 . S
C3711 H3714 0.950 . S
C3712 C3711 1.387 . S
C3712 C3715 1.387 . S
H3713 C3709 0.950 . S
H3714 C3711 0.950 . S
C3715 C3706 1.390 . S
C3715 H3708 0.950 . S
C3715 C3712 1.387 . S
C3716 C3717 1.387 . S
C3716 H3720 0.950 . S
C3716 C3725 1.390 . S
C3717 C3716 1.387 . S
C3717 C3719 1.387 . S
H3718 C3725 0.950 . S
C3719 C3717 1.387 . S
C3719 C3721 1.390 . S
C3719 H3723 0.950 . S
H3720 C3716 0.950 . S
C3721 C3719 1.390 . S
C3721 C3722 1.387 . S
C3721 H3724 0.950 . S
C3722 C3721 1.387 . S
C3722 C3725 1.387 . S
H3723 C3719 0.950 . S
H3724 C3721 0.950 . S
C3725 C3716 1.390 . S
C3725 H3718 0.950 . S
C3725 C3722 1.387 . S
C3726 C3727 1.387 . S
C3726 H3730 0.950 . S
C3726 C3735 1.390 . S
C3727 C3726 1.387 . S
C3727 C3729 1.387 . S
H3728 C3735 0.950 . S
C3729 C3727 1.387 . S
C3729 C3731 1.390 . S
C3729 H3733 0.950 . S
H3730 C3726 0.950 . S
C3731 C3729 1.390 . S
C3731 C3732 1.387 . S
C3731 H3734 0.950 . S
C3732 C3731 1.387 . S
C3732 C3735 1.387 . S
H3733 C3729 0.950 . S
H3734 C3731 0.950 . S
C3735 C3726 1.390 . S
C3735 H3728 0.950 . S
C3735 C3732 1.387 . S
C3736 C3737 1.387 . S
C3736 H3740 0.950 . S
C3736 C3745 1.390 . S
C3737 C3736 1.387 . S
C3737 C3739 1.387 . S
H3738 C3745 0.950 . S
C3739 C3737 1.387 . S
C3739 C3741 1.390 . S
C3739 H3743 0.950 . S
H3740 C3736 0.950 . S
C3741 C3739 1.390 . S
C3741 C3742 1.387 . S
C3741 H3744 0.950 . S
C3742 C3741 1.387 . S
C3742 C3745 1.387 . S
H3743 C3739 0.950 . S
H3744 C3741 0.950 . S
C3745 C3736 1.390 . S
C3745 H3738 0.950 . S
C3745 C3742 1.387 . S
C3746 C3747 1.387 . S
C3746 H3750 0.950 . S
C3746 C3755 1.390 . S
C3747 C3746 1.387 . S
C3747 C3749 1.387 . S
H3748 C3755 0.950 . S
C3749 C3747 1.387 . S
C3749 C3751 1.390 . S
C3749 H3753 0.950 . S
H3750 C3746 0.950 . S
C3751 C3749 1.390 . S
C3751 C3752 1.387 . S
C3751 H3754 0.950 . S
C3752 C3751 1.387 . S
C3752 C3755 1.387 . S
H3753 C3749 0.950 . S
H3754 C3751 0.950 . S
C3755 C3746 1.390 . S
C3755 H3748 0.950 . S
C3755 C3752 1.387 . S
C3756 C3757 1.387 . S
C3756 H3760 0.950 . S
C3756 C3765 1.390 . S
C3757 C3756 1.387 . S
C3757 C3759 1.387 . S
H3758 C3765 0.950 . S
C3759 C3757 1.387 . S
C3759 C3761 1.390 . S
C3759 H3763 0.950 . S
H3760 C3756 0.950 . S
C3761 C3759 1.390 . S
C3761 C3762 1.387 . S
C3761 H3764 0.950 . S
C3762 C3761 1.387 . S
C3762 C3765 1.387 . S
H3763 C3759 0.950 . S
H3764 C3761 0.950 . S
C3765 C3756 1.390 . S
C3765 H3758 0.950 . S
C3765 C3762 1.387 . S
C3766 C3767 1.387 . S
C3766 H3770 0.950 . S
C3766 C3775 1.390 . S
C3767 C3766 1.387 . S
C3767 C3769 1.387 . S
H3768 C3775 0.950 . S
C3769 C3767 1.387 . S
C3769 C3771 1.390 . S
C3769 H3773 0.950 . S
H3770 C3766 0.950 . S
C3771 C3769 1.390 . S
C3771 C3772 1.387 . S
C3771 H3774 0.950 . S
C3772 C3771 1.387 . S
C3772 C3775 1.387 . S
H3773 C3769 0.950 . S
H3774 C3771 0.950 . S
C3775 C3766 1.390 . S
C3775 H3768 0.950 . S
C3775 C3772 1.387 . S
C3776 C3777 1.387 . S
C3776 H3780 0.950 . S
C3776 C3785 1.390 . S
C3777 C3776 1.387 . S
C3777 C3779 1.387 . S
H3778 C3785 0.950 . S
C3779 C3777 1.387 . S
C3779 C3781 1.390 . S
C3779 H3783 0.950 . S
H3780 C3776 0.950 . S
C3781 C3779 1.390 . S
C3781 C3782 1.387 . S
C3781 H3784 0.950 . S
C3782 C3781 1.387 . S
C3782 C3785 1.387 . S
H3783 C3779 0.950 . S
H3784 C3781 0.950 . S
C3785 C3776 1.390 . S
C3785 H3778 0.950 . S
C3785 C3782 1.387 . S
C3786 C3787 1.387 . S
C3786 H3790 0.950 . S
C3786 C3795 1.390 . S
C3787 C3786 1.387 . S
C3787 C3789 1.387 . S
H3788 C3795 0.950 . S
C3789 C3787 1.387 . S
C3789 C3791 1.390 . S
C3789 H3793 0.950 . S
H3790 C3786 0.950 . S
C3791 C3789 1.390 . S
C3791 C3792 1.387 . S
C3791 H3794 0.950 . S
C3792 C3791 1.387 . S
C3792 C3795 1.387 . S
H3793 C3789 0.950 . S
H3794 C3791 0.950 . S
C3795 C3786 1.390 . S
C3795 H3788 0.950 . S
C3795 C3792 1.387 . S
C3796 C3797 1.387 . S
C3796 H3800 0.950 . S
C3796 C3805 1.390 . S
C3797 C3796 1.387 . S
C3797 C3799 1.387 . S
H3798 C3805 0.950 . S
C3799 C3797 1.387 . S
C3799 C3801 1.390 . S
C3799 H3803 0.950 . S
H3800 C3796 0.950 . S
C3801 C3799 1.390 . S
C3801 C3802 1.387 . S
C3801 H3804 0.950 . S
C3802 C3801 1.387 . S
C3802 C3805 1.387 . S
H3803 C3799 0.950 . S
H3804 C3801 0.950 . S
C3805 C3796 1.390 . S
C3805 H3798 0.950 . S
C3805 C3802 1.387 . S
C3806 C3807 1.387 . S
C3806 H3810 0.950 . S
C3806 C3815 1.390 . S
C3807 C3806 1.387 . S
C3807 C3809 1.387 . S
H3808 C3815 0.950 . S
C3809 C3807 1.387 . S
C3809 C3811 1.390 . S
C3809 H3813 0.950 . S
H3810 C3806 0.950 . S
C3811 C3809 1.390 . S
C3811 C3812 1.387 . S
C3811 H3814 0.950 . S
C3812 C3811 1.387 . S
C3812 C3815 1.387 . S
H3813 C3809 0.950 . S
H3814 C3811 0.950 . S
C3815 C3806 1.390 . S
C3815 H3808 0.950 . S
C3815 C3812 1.387 . S
C3816 C3817 1.387 . S
C3816 H3820 0.950 . S
C3816 C3825 1.390 . S
C3817 C3816 1.387 . S
C3817 C3819 1.387 . S
H3818 C3825 0.950 . S
C3819 C3817 1.387 . S
C3819 C3821 1.390 . S
C3819 H3823 0.950 . S
H3820 C3816 0.950 . S
C3821 C3819 1.390 . S
C3821 C3822 1.387 . S
C3821 H3824 0.950 . S
C3822 C3821 1.387 . S
C3822 C3825 1.387 . S
H3823 C3819 0.950 . S
H3824 C3821 0.950 . S
C3825 C3816 1.390 . S
C3825 H3818 0.950 . S
C3825 C3822 1.387 . S
C3826 C3827 1.387 . S
C3826 H3830 0.950 . S
C3826 C3835 1.390 . S
C3827 C3826 1.387 . S
C3827 C3829 1.387 . S
H3828 C3835 0.950 . S
C3829 C3827 1.387 . S
C3829 C3831 1.390 . S
C3829 H3833 0.950 . S
H3830 C3826 0.950 . S
C3831 C3829 1.390 . S
C3831 C3832 1.387 . S
C3831 H3834 0.950 . S
C3832 C3831 1.387 . S
C3832 C3835 1.387 . S
H3833 C3829 0.950 . S
H3834 C3831 0.950 . S
C3835 C3826 1.390 . S
C3835 H3828 0.950 . S
C3835 C3832 1.387 . S
C3836 C3837 1.387 . S
C3836 H3840 0.950 . S
C3836 C3845 1.390 . S
C3837 C3836 1.387 . S
C3837 C3839 1.387 . S
H3838 C3845 0.950 . S
C3839 C3837 1.387 . S
C3839 C3841 1.390 . S
C3839 H3843 0.950 . S
H3840 C3836 0.950 . S
C3841 C3839 1.390 . S
C3841 C3842 1.387 . S
C3841 H3844 0.950 . S
C3842 C3841 1.387 . S
C3842 C3845 1.387 . S
H3843 C3839 0.950 . S
H3844 C3841 0.950 . S
C3845 C3836 1.390 . S
C3845 H3838 0.950 . S
C3845 C3842 1.387 . S
C3846 C3847 1.387 . S
C3846 H3850 0.950 . S
C3846 C3855 1.390 . S
C3847 C3846 1.387 . S
C3847 C3849 1.387 . S
H3848 C3855 0.950 . S
C3849 C3847 1.387 . S
C3849 C3851 1.390 . S
C3849 H3853 0.950 . S
H3850 C3846 0.950 . S
C3851 C3849 1.390 . S
C3851 C3852 1.387 . S
C3851 H3854 0.950 . S
C3852 C3851 1.387 . S
C3852 C3855 1.387 . S
H3853 C3849 0.950 . S
H3854 C3851 0.950 . S
C3855 C3846 1.390 . S
C3855 H3848 0.950 . S
C3855 C3852 1.387 . S
C3856 C3857 1.387 . S
C3856 H3860 0.950 . S
C3856 C3865 1.390 . S
C3857 C3856 1.387 . S
C3857 C3859 1.387 . S
H3858 C3865 0.950 . S
C3859 C3857 1.387 . S
C3859 C3861 1.390 . S
C3859 H3863 0.950 . S
H3860 C3856 0.950 . S
C3861 C3859 1.390 . S
C3861 C3862 1.387 . S
C3861 H3864 0.950 . S
C3862 C3861 1.387 . S
C3862 C3865 1.387 . S
H3863 C3859 0.950 . S
H3864 C3861 0.950 . S
C3865 C3856 1.390 . S
C3865 H3858 0.950 . S
C3865 C3862 1.387 . S
C3866 C3867 1.387 . S
C3866 H3870 0.950 . S
C3866 C3875 1.390 . S
C3867 C3866 1.387 . S
C3867 C3869 1.387 . S
H3868 C3875 0.950 . S
C3869 C3867 1.387 . S
C3869 C3871 1.390 . S
C3869 H3873 0.950 . S
H3870 C3866 0.950 . S
C3871 C3869 1.390 . S
C3871 C3872 1.387 . S
C3871 H3874 0.950 . S
C3872 C3871 1.387 . S
C3872 C3875 1.387 . S
H3873 C3869 0.950 . S
H3874 C3871 0.950 . S
C3875 C3866 1.390 . S
C3875 H3868 0.950 . S
C3875 C3872 1.387 . S
C3876 C3877 1.387 . S
C3876 H3880 0.950 . S
C3876 C3885 1.390 . S
C3877 C3876 1.387 . S
C3877 C3879 1.387 . S
H3878 C3885 0.950 . S
C3879 C3877 1.387 . S
C3879 C3881 1.390 . S
C3879 H3883 0.950 . S
H3880 C3876 0.950 . S
C3881 C3879 1.390 . S
C3881 C3882 1.387 . S
C3881 H3884 0.950 . S
C3882 C3881 1.387 . S
C3882 C3885 1.387 . S
H3883 C3879 0.950 . S
H3884 C3881 0.950 . S
C3885 C3876 1.390 . S
C3885 H3878 0.950 . S
C3885 C3882 1.387 . S
C3886 C3887 1.387 . S
C3886 H3890 0.950 . S
C3886 C3895 1.390 . S
C3887 C3886 1.387 . S
C3887 C3889 1.387 . S
H3888 C3895 0.950 . S
C3889 C3887 1.387 . S
C3889 C3891 1.390 . S
C3889 H3893 0.950 . S
H3890 C3886 0.950 . S
C3891 C3889 1.390 . S
C3891 C3892 1.387 . S
C3891 H3894 0.950 . S
C3892 C3891 1.387 . S
C3892 C3895 1.387 . S
H3893 C3889 0.950 . S
H3894 C3891 0.950 . S
C3895 C3886 1.390 . S
C3895 H3888 0.950 . S
C3895 C3892 1.387 . S
C3896 C3897 1.387 . S
C3896 H3900 0.950 . S
C3896 C3905 1.390 . S
C3897 C3896 1.387 . S
C3897 C3899 1.387 . S
H3898 C3905 0.950 . S
C3899 C3897 1.387 . S
C3899 C3901 1.390 . S
C3899 H3903 0.950 . S
H3900 C3896 0.950 . S
C3901 C3899 1.390 . S
C3901 C3902 1.387 . S
C3901 H3904 0.950 . S
C3902 C3901 1.387 . S
C3902 C3905 1.387 . S
H3903 C3899 0.950 . S
H3904 C3901 0.950 . S
C3905 C3896 1.390 . S
C3905 H3898 0.950 . S
C3905 C3902 1.387 . S
C3906 C3907 1.387 . S
C3906 H3910 0.950 . S
C3906 C3915 1.390 . S
C3907 C3906 1.387 . S
C3907 C3909 1.387 . S
H3908 C3915 0.950 . S
C3909 C3907 1.387 . S
C3909 C3911 1.390 . S
C3909 H3913 0.950 . S
H3910 C3906 0.950 . S
C3911 C3909 1.390 . S
C3911 C3912 1.387 . S
C3911 H3914 0.950 . S
C3912 C3911 1.387 . S
C3912 C3915 1.387 . S
H3913 C3909 0.950 . S
H3914 C3911 0.950 . S
C3915 C3906 1.390 . S
C3915 H3908 0.950 . S
C3915 C3912 1.387 . S
C3916 C3917 1.387 . S
C3916 H3920 0.950 . S
C3916 C3925 1.390 . S
C3917 C3916 1.387 . S
C3917 C3919 1.387 . S
H3918 C3925 0.950 . S
C3919 C3917 1.387 . S
C3919 C3921 1.390 . S
C3919 H3923 0.950 . S
H3920 C3916 0.950 . S
C3921 C3919 1.390 . S
C3921 C3922 1.387 . S
C3921 H3924 0.950 . S
C3922 C3921 1.387 . S
C3922 C3925 1.387 . S
H3923 C3919 0.950 . S
H3924 C3921 0.950 . S
C3925 C3916 1.390 . S
C3925 H3918 0.950 . S
C3925 C3922 1.387 . S
C3926 C3927 1.387 . S
C3926 H3930 0.950 . S
C3926 C3935 1.390 . S
C3927 C3926 1.387 . S
C3927 C3929 1.387 . S
H3928 C3935 0.950 . S
C3929 C3927 1.387 . S
C3929 C3931 1.390 . S
C3929 H3933 0.950 . S
H3930 C3926 0.950 . S
C3931 C3929 1.390 . S
C3931 C3932 1.387 . S
C3931 H3934 0.950 . S
C3932 C3931 1.387 . S
C3932 C3935 1.387 . S
H3933 C3929 0.950 . S
H3934 C3931 0.950 . S
C3935 C3926 1.390 . S
C3935 H3928 0.950 . S
C3935 C3932 1.387 . S
C3936 C3937 1.387 . S
C3936 H3940 0.950 . S
C3936 C3945 1.390 . S
C3937 C3936 1.387 . S
C3937 C3939 1.387 . S
H3938 C3945 0.950 . S
C3939 C3937 1.387 . S
C3939 C3941 1.390 . S
C3939 H3943 0.950 . S
H3940 C3936 0.950 . S
C3941 C3939 1.390 . S
C3941 C3942 1.387 . S
C3941 H3944 0.950 . S
C3942 C3941 1.387 . S
C3942 C3945 1.387 . S
H3943 C3939 0.950 . S
H3944 C3941 0.950 . S
C3945 C3936 1.390 . S
C3945 H3938 0.950 . S
C3945 C3942 1.387 . S
C3946 C3947 1.387 . S
C3946 H3950 0.950 . S
C3946 C3955 1.390 . S
C3947 C3946 1.387 . S
C3947 C3949 1.387 . S
H3948 C3955 0.950 . S
C3949 C3947 1.387 . S
C3949 C3951 1.390 . S
C3949 H3953 0.950 . S
H3950 C3946 0.950 . S
C3951 C3949 1.390 . S
C3951 C3952 1.387 . S
C3951 H3954 0.950 . S
C3952 C3951 1.387 . S
C3952 C3955 1.387 . S
H3953 C3949 0.950 . S
H3954 C3951 0.950 . S
C3955 C3946 1.390 . S
C3955 H3948 0.950 . S
C3955 C3952 1.387 . S
C3956 C3957 1.387 . S
C3956 H3960 0.950 . S
C3956 C3965 1.390 . S
C3957 C3956 1.387 . S
C3957 C3959 1.387 . S
H3958 C3965 0.950 . S
C3959 C3957 1.387 . S
C3959 C3961 1.390 . S
C3959 H3963 0.950 . S
H3960 C3956 0.950 . S
C3961 C3959 1.390 . S
C3961 C3962 1.387 . S
C3961 H3964 0.950 . S
C3962 C3961 1.387 . S
C3962 C3965 1.387 . S
H3963 C3959 0.950 . S
H3964 C3961 0.950 . S
C3965 C3956 1.390 . S
C3965 H3958 0.950 . S
C3965 C3962 1.387 . S
C3966 C3967 1.387 . S
C3966 H3970 0.950 . S
C3966 C3975 1.390 . S
C3967 C3966 1.387 . S
C3967 C3969 1.387 . S
H3968 C3975 0.950 . S
C3969 C3967 1.387 . S
C3969 C3971 1.390 . S
C3969 H3973 0.950 . S
H3970 C3966 0.950 . S
C3971 C3969 1.390 . S
C3971 C3972 1.387 . S
C3971 H3974 0.950 . S
C3972 C3971 1.387 . S
C3972 C3975 1.387 . S
H3973 C3969 0.950 . S
H3974 C3971 0.950 . S
C3975 C3966 1.390 . S
C3975 H3968 0.950 . S
C3975 C3972 1.387 . S
C3976 C3977 1.387 . S
C3976 H3980 0.950 . S
C3976 C3985 1.390 . S
C3977 C3976 1.387 . S
C3977 C3979 1.387 . S
H3978 C3985 0.950 . S
C3979 C3977 1.387 . S
C3979 C3981 1.390 . S
C3979 H3983 0.950 . S
H3980 C3976 0.950 . S
C3981 C3979 1.390 . S
C3981 C3982 1.387 . S
C3981 H3984 0.950 . S
C3982 C3981 1.387 . S
C3982 C3985 1.387 . S
H3983 C3979 0.950 . S
H3984 C3981 0.950 . S
C3985 C3976 1.390 . S
C3985 H3978 0.950 . S
C3985 C3982 1.387 . S
C3986 C3987 1.387 . S
C3986 H3990 0.950 . S
C3986 C3995 1.390 . S
C3987 C3986 1.387 . S
C3987 C3989 1.387 . S
H3988 C3995 0.950 . S
C3989 C3987 1.387 . S
C3989 C3991 1.390 . S
C3989 H3993 0.950 . S
H3990 C3986 0.950 . S
C3991 C3989 1.390 . S
C3991 C3992 1.387 . S
C3991 H3994 0.950 . S
C3992 C3991 1.387 . S
C3992 C3995 1.387 . S
H3993 C3989 0.950 . S
H3994 C3991 0.950 . S
C3995 C3986 1.390 . S
C3995 H3988 0.950 . S
C3995 C3992 1.387 . S
C3996 C3997 1.387 . S
C3996 H4000 0.950 . S
C3996 C4005 1.390 . S
C3997 C3996 1.387 . S
C3997 C3999 1.387 . S
H3998 C4005 0.950 . S
C3999 C3997 1.387 . S
C3999 C4001 1.390 . S
C3999 H4003 0.950 . S
H4000 C3996 0.950 . S
C4001 C3999 1.390 . S
C4001 C4002 1.387 . S
C4001 H4004 0.950 . S
C4002 C4001 1.387 . S
C4002 C4005 1.387 . S
H4003 C3999 0.950 . S
H4004 C4001 0.950 . S
C4005 C3996 1.390 . S
C4005 H3998 0.950 . S
C4005 C4002 1.387 . S
C4006 C4007 1.387 . S
C4006 H4010 0.950 . S
C4006 C4015 1.390 . S
C4007 C4006 1.387 . S
C4007 C4009 1.387 . S
H4008 C4015 0.950 . S
C4009 C4007 1.387 . S
C4009 C4011 1.390 . S
C4009 H4013 0.950 . S
H4010 C4006 0.950 . S
C4011 C4009 1.390 . S
C4011 C4012 1.387 . S
C4011 H4014 0.950 . S
C4012 C4011 1.387 . S
C4012 C4015 1.387 . S
H4013 C4009 0.950 . S
H4014 C4011 0.950 . S
C4015 C4006 1.390 . S
C4015 H4008 0.950 . S
C4015 C4012 1.387 . S
C4016 C4017 1.387 . S
C4016 H4020 0.950 . S
C4016 C4025 1.390 . S
C4017 C4016 1.387 . S
C4017 C4019 1.387 . S
H4018 C4025 0.950 . S
C4019 C4017 1.387 . S
C4019 C4021 1.390 . S
C4019 H4023 0.950 . S
H4020 C4016 0.950 . S
C4021 C4019 1.390 . S
C4021 C4022 1.387 . S
C4021 H4024 0.950 . S
C4022 C4021 1.387 . S
C4022 C4025 1.387 . S
H4023 C4019 0.950 . S
H4024 C4021 0.950 . S
C4025 C4016 1.390 . S
C4025 H4018 0.950 . S
C4025 C4022 1.387 . S
C4026 C4027 1.387 . S
C4026 H4030 0.950 . S
C4026 C4035 1.390 . S
C4027 C4026 1.387 . S
C4027 C4029 1.387 . S
H4028 C4035 0.950 . S
C4029 C4027 1.387 . S
C4029 C4031 1.390 . S
C4029 H4033 0.950 . S
H4030 C4026 0.950 . S
C4031 C4029 1.390 . S
C4031 C4032 1.387 . S
C4031 H4034 0.950 . S
C4032 C4031 1.387 . S
C4032 C4035 1.387 . S
H4033 C4029 0.950 . S
H4034 C4031 0.950 . S
C4035 C4026 1.390 . S
C4035 H4028 0.950 . S
C4035 C4032 1.387 . S
C4036 C4037 1.387 . S
C4036 H4040 0.950 . S
C4036 C4045 1.390 . S
C4037 C4036 1.387 . S
C4037 C4039 1.387 . S
H4038 C4045 0.950 . S
C4039 C4037 1.387 . S
C4039 C4041 1.390 . S
C4039 H4043 0.950 . S
H4040 C4036 0.950 . S
C4041 C4039 1.390 . S
C4041 C4042 1.387 . S
C4041 H4044 0.950 . S
C4042 C4041 1.387 . S
C4042 C4045 1.387 . S
H4043 C4039 0.950 . S
H4044 C4041 0.950 . S
C4045 C4036 1.390 . S
C4045 H4038 0.950 . S
C4045 C4042 1.387 . S
C4046 C4047 1.387 . S
C4046 H4050 0.950 . S
C4046 C4055 1.390 . S
C4047 C4046 1.387 . S
C4047 C4049 1.387 . S
H4048 C4055 0.950 . S
C4049 C4047 1.387 . S
C4049 C4051 1.390 . S
C4049 H4053 0.950 . S
H4050 C4046 0.950 . S
C4051 C4049 1.390 . S
C4051 C4052 1.387 . S
C4051 H4054 0.950 . S
C4052 C4051 1.387 . S
C4052 C4055 1.387 . S
H4053 C4049 0.950 . S
H4054 C4051 0.950 . S
C4055 C4046 1.390 . S
C4055 H4048 0.950 . S
C4055 C4052 1.387 . S
C4056 C4057 1.387 . S
C4056 H4060 0.950 . S
C4056 C4065 1.390 . S
C4057 C4056 1.387 . S
C4057 C4059 1.387 . S
H4058 C4065 0.950 . S
C4059 C4057 1.387 . S
C4059 C4061 1.390 . S
C4059 H4063 0.950 . S
H4060 C4056 0.950 . S
C4061 C4059 1.390 . S
C4061 C4062 1.387 . S
C4061 H4064 0.950 . S
C4062 C4061 1.387 . S
C4062 C4065 1.387 . S
H4063 C4059 0.950 . S
H4064 C4061 0.950 . S
C4065 C4056 1.390 . S
C4065 H4058 0.950 . S
C4065 C4062 1.387 . S
C4066 C4067 1.387 . S
C4066 H4070 0.950 . S
C4066 C4075 1.390 . S
C4067 C4066 1.387 . S
C4067 C4069 1.387 . S
H4068 C4075 0.950 . S
C4069 C4067 1.387 . S
C4069 C4071 1.390 . S
C4069 H4073 0.950 . S
H4070 C4066 0.950 . S
C4071 C4069 1.390 . S
C4071 C4072 1.387 . S
C4071 H4074 0.950 . S
C4072 C4071 1.387 . S
C4072 C4075 1.387 . S
H4073 C4069 0.950 . S
H4074 C4071 0.950 . S
C4075 C4066 1.390 . S
C4075 H4068 0.950 . S
C4075 C4072 1.387 . S
C4076 C4077 1.387 . S
C4076 H4080 0.950 . S
C4076 C4085 1.390 . S
C4077 C4076 1.387 . S
C4077 C4079 1.387 . S
H4078 C4085 0.950 . S
C4079 C4077 1.387 . S
C4079 C4081 1.390 . S
C4079 H4083 0.950 . S
H4080 C4076 0.950 . S
C4081 C4079 1.390 . S
C4081 C4082 1.387 . S
C4081 H4084 0.950 . S
C4082 C4081 1.387 . S
C4082 C4085 1.387 . S
H4083 C4079 0.950 . S
H4084 C4081 0.950 . S
C4085 C4076 1.390 . S
C4085 H4078 0.950 . S
C4085 C4082 1.387 . S
C4086 C4087 1.387 . S
C4086 H4090 0.950 . S
C4086 C4095 1.390 . S
C4087 C4086 1.387 . S
C4087 C4089 1.387 . S
H4088 C4095 0.950 . S
C4089 C4087 1.387 . S
C4089 C4091 1.390 . S
C4089 H4093 0.950 . S
H4090 C4086 0.950 . S
C4091 C4089 1.390 . S
C4091 C4092 1.387 . S
C4091 H4094 0.950 . S
C4092 C4091 1.387 . S
C4092 C4095 1.387 . S
H4093 C4089 0.950 . S
H4094 C4091 0.950 . S
C4095 C4086 1.390 . S
C4095 H4088 0.950 . S
C4095 C4092 1.387 . S
C4096 C4097 1.387 . S
C4096 H4100 0.950 . S
C4096 C4105 1.390 . S
C4097 C4096 1.387 . S
C4097 C4099 1.387 . S
H4098 C4105 0.950 . S
C4099 C4097 1.387 . S
C4099 C4101 1.390 . S
C4099 H4103 0.950 . S
H4100 C4096 0.950 . S
C4101 C4099 1.390 . S
C4101 C4102 1.387 . S
C4101 H4104 0.950 . S
C4102 C4101 1.387 . S
C4102 C4105 1.387 . S
H4103 C4099 0.950 . S
H4104 C4101 0.950 . S
C4105 C4096 1.390 . S
C4105 H4098 0.950 . S
C4105 C4102 1.387 . S
C4106 C4107 1.387 . S
C4106 H4110 0.950 . S
C4106 C4115 1.390 . S
C4107 C4106 1.387 . S
C4107 C4109 1.387 . S
H4108 C4115 0.950 . S
C4109 C4107 1.387 . S
C4109 C4111 1.390 . S
C4109 H4113 0.950 . S
H4110 C4106 0.950 . S
C4111 C4109 1.390 . S
C4111 C4112 1.387 . S
C4111 H4114 0.950 . S
C4112 C4111 1.387 . S
C4112 C4115 1.387 . S
H4113 C4109 0.950 . S
H4114 C4111 0.950 . S
C4115 C4106 1.390 . S
C4115 H4108 0.950 . S
C4115 C4112 1.387 . S
C4116 C4117 1.387 . S
C4116 H4120 0.950 . S
C4116 C4125 1.390 . S
C4117 C4116 1.387 . S
C4117 C4119 1.387 . S
H4118 C4125 0.950 . S
C4119 C4117 1.387 . S
C4119 C4121 1.390 . S
C4119 H4123 0.950 . S
H4120 C4116 0.950 . S
C4121 C4119 1.390 . S
C4121 C4122 1.387 . S
C4121 H4124 0.950 . S
C4122 C4121 1.387 . S
C4122 C4125 1.387 . S
H4123 C4119 0.950 . S
H4124 C4121 0.950 . S
C4125 C4116 1.390 . S
C4125 H4118 0.950 . S
C4125 C4122 1.387 . S
C4126 C4127 1.387 . S
C4126 H4130 0.950 . S
C4126 C4135 1.390 . S
C4127 C4126 1.387 . S
C4127 C4129 1.387 . S
H4128 C4135 0.950 . S
C4129 C4127 1.387 . S
C4129 C4131 1.390 . S
C4129 H4133 0.950 . S
H4130 C4126 0.950 . S
C4131 C4129 1.390 . S
C4131 C4132 1.387 . S
C4131 H4134 0.950 . S
C4132 C4131 1.387 . S
C4132 C4135 1.387 . S
H4133 C4129 0.950 . S
H4134 C4131 0.950 . S
C4135 C4126 1.390 . S
C4135 H4128 0.950 . S
C4135 C4132 1.387 . S
C4136 C4137 1.387 . S
C4136 H4140 0.950 . S
C4136 C4145 1.390 . S
C4137 C4136 1.387 . S
C4137 C4139 1.387 . S
H4138 C4145 0.950 . S
C4139 C4137 1.387 . S
C4139 C4141 1.390 . S
C4139 H4143 0.950 . S
H4140 C4136 0.950 . S
C4141 C4139 1.390 . S
C4141 C4142 1.387 . S
C4141 H4144 0.950 . S
C4142 C4141 1.387 . S
C4142 C4145 1.387 . S
H4143 C4139 0.950 . S
H4144 C4141 0.950 . S
C4145 C4136 1.390 . S
C4145 H4138 0.950 . S
C4145 C4142 1.387 . S
C4146 C4147 1.387 . S
C4146 H4150 0.950 . S
C4146 C4155 1.390 . S
C4147 C4146 1.387 . S
C4147 C4149 1.387 . S
H4148 C4155 0.950 . S
C4149 C4147 1.387 . S
C4149 C4151 1.390 . S
C4149 H4153 0.950 . S
H4150 C4146 0.950 . S
C4151 C4149 1.390 . S
C4151 C4152 1.387 . S
C4151 H4154 0.950 . S
C4152 C4151 1.387 . S
C4152 C4155 1.387 . S
H4153 C4149 0.950 . S
H4154 C4151 0.950 . S
C4155 C4146 1.390 . S
C4155 H4148 0.950 . S
C4155 C4152 1.387 . S
C4156 C4157 1.387 . S
C4156 H4160 0.950 . S
C4156 C4165 1.390 . S
C4157 C4156 1.387 . S
C4157 C4159 1.387 . S
H4158 C4165 0.950 . S
C4159 C4157 1.387 . S
C4159 C4161 1.390 . S
C4159 H4163 0.950 . S
H4160 C4156 0.950 . S
C4161 C4159 1.390 . S
C4161 C4162 1.387 . S
C4161 H4164 0.950 . S
C4162 C4161 1.387 . S
C4162 C4165 1.387 . S
H4163 C4159 0.950 . S
H4164 C4161 0.950 . S
C4165 C4156 1.390 . S
C4165 H4158 0.950 . S
C4165 C4162 1.387 . S
C4166 C4167 1.387 . S
C4166 H4170 0.950 . S
C4166 C4175 1.390 . S
C4167 C4166 1.387 . S
C4167 C4169 1.387 . S
H4168 C4175 0.950 . S
C4169 C4167 1.387 . S
C4169 C4171 1.390 . S
C4169 H4173 0.950 . S
H4170 C4166 0.950 . S
C4171 C4169 1.390 . S
C4171 C4172 1.387 . S
C4171 H4174 0.950 . S
C4172 C4171 1.387 . S
C4172 C4175 1.387 . S
H4173 C4169 0.950 . S
H4174 C4171 0.950 . S
C4175 C4166 1.390 . S
C4175 H4168 0.950 . S
C4175 C4172 1.387 . S
C4176 C4177 1.387 . S
C4176 H4180 0.950 . S
C4176 C4185 1.390 . S
C4177 C4176 1.387 . S
C4177 C4179 1.387 . S
H4178 C4185 0.950 . S
C4179 C4177 1.387 . S
C4179 C4181 1.390 . S
C4179 H4183 0.950 . S
H4180 C4176 0.950 . S
C4181 C4179 1.390 . S
C4181 C4182 1.387 . S
C4181 H4184 0.950 . S
C4182 C4181 1.387 . S
C4182 C4185 1.387 . S
H4183 C4179 0.950 . S
H4184 C4181 0.950 . S
C4185 C4176 1.390 . S
C4185 H4178 0.950 . S
C4185 C4182 1.387 . S
C4186 C4187 1.387 . S
C4186 H4190 0.950 . S
C4186 C4195 1.390 . S
C4187 C4186 1.387 . S
C4187 C4189 1.387 . S
H4188 C4195 0.950 . S
C4189 C4187 1.387 . S
C4189 C4191 1.390 . S
C4189 H4193 0.950 . S
H4190 C4186 0.950 . S
C4191 C4189 1.390 . S
C4191 C4192 1.387 . S
C4191 H4194 0.950 . S
C4192 C4191 1.387 . S
C4192 C4195 1.387 . S
H4193 C4189 0.950 . S
H4194 C4191 0.950 . S
C4195 C4186 1.390 . S
C4195 H4188 0.950 . S
C4195 C4192 1.387 . S
C4196 C4197 1.387 . S
C4196 H4200 0.950 . S
C4196 C4205 1.390 . S
C4197 C4196 1.387 . S
C4197 C4199 1.387 . S
H4198 C4205 0.950 . S
C4199 C4197 1.387 . S
C4199 C4201 1.390 . S
C4199 H4203 0.950 . S
H4200 C4196 0.950 . S
C4201 C4199 1.390 . S
C4201 C4202 1.387 . S
C4201 H4204 0.950 . S
C4202 C4201 1.387 . S
C4202 C4205 1.387 . S
H4203 C4199 0.950 . S
H4204 C4201 0.950 . S
C4205 C4196 1.390 . S
C4205 H4198 0.950 . S
C4205 C4202 1.387 . S
C4206 C4207 1.387 . S
C4206 H4210 0.950 . S
C4206 C4215 1.390 . S
C4207 C4206 1.387 . S
C4207 C4209 1.387 . S
H4208 C4215 0.950 . S
C4209 C4207 1.387 . S
C4209 C4211 1.390 . S
C4209 H4213 0.950 . S
H4210 C4206 0.950 . S
C4211 C4209 1.390 . S
C4211 C4212 1.387 . S
C4211 H4214 0.950 . S
C4212 C4211 1.387 . S
C4212 C4215 1.387 . S
H4213 C4209 0.950 . S
H4214 C4211 0.950 . S
C4215 C4206 1.390 . S
C4215 H4208 0.950 . S
C4215 C4212 1.387 . S
C4216 C4217 1.387 . S
C4216 H4220 0.950 . S
C4216 C4225 1.390 . S
C4217 C4216 1.387 . S
C4217 C4219 1.387 . S
H4218 C4225 0.950 . S
C4219 C4217 1.387 . S
C4219 C4221 1.390 . S
C4219 H4223 0.950 . S
H4220 C4216 0.950 . S
C4221 C4219 1.390 . S
C4221 C4222 1.387 . S
C4221 H4224 0.950 . S
C4222 C4221 1.387 . S
C4222 C4225 1.387 . S
H4223 C4219 0.950 . S
H4224 C4221 0.950 . S
C4225 C4216 1.390 . S
C4225 H4218 0.950 . S
C4225 C4222 1.387 . S
C4226 C4227 1.387 . S
C4226 H4230 0.950 . S
C4226 C4235 1.390 . S
C4227 C4226 1.387 . S
C4227 C4229 1.387 . S
H4228 C4235 0.950 . S
C4229 C4227 1.387 . S
C4229 C4231 1.390 . S
C4229 H4233 0.950 . S
H4230 C4226 0.950 . S
C4231 C4229 1.390 . S
C4231 C4232 1.387 . S
C4231 H4234 0.950 . S
C4232 C4231 1.387 . S
C4232 C4235 1.387 . S
H4233 C4229 0.950 . S
H4234 C4231 0.950 . S
C4235 C4226 1.390 . S
C4235 H4228 0.950 . S
C4235 C4232 1.387 . S
C4236 C4237 1.387 . S
C4236 H4240 0.950 . S
C4236 C4245 1.390 . S
C4237 C4236 1.387 . S
C4237 C4239 1.387 . S
H4238 C4245 0.950 . S
C4239 C4237 1.387 . S
C4239 C4241 1.390 . S
C4239 H4243 0.950 . S
H4240 C4236 0.950 . S
C4241 C4239 1.390 . S
C4241 C4242 1.387 . S
C4241 H4244 0.950 . S
C4242 C4241 1.387 . S
C4242 C4245 1.387 . S
H4243 C4239 0.950 . S
H4244 C4241 0.950 . S
C4245 C4236 1.390 . S
C4245 H4238 0.950 . S
C4245 C4242 1.387 . S
C4246 C4247 1.387 . S
C4246 H4250 0.950 . S
C4246 C4255 1.390 . S
C4247 C4246 1.387 . S
C4247 C4249 1.387 . S
H4248 C4255 0.950 . S
C4249 C4247 1.387 . S
C4249 C4251 1.390 . S
C4249 H4253 0.950 . S
H4250 C4246 0.950 . S
C4251 C4249 1.390 . S
C4251 C4252 1.387 . S
C4251 H4254 0.950 . S
C4252 C4251 1.387 . S
C4252 C4255 1.387 . S
H4253 C4249 0.950 . S
H4254 C4251 0.950 . S
C4255 C4246 1.390 . S
C4255 H4248 0.950 . S
C4255 C4252 1.387 . S
C4256 C4257 1.387 . S
C4256 H4260 0.950 . S
C4256 C4265 1.390 . S
C4257 C4256 1.387 . S
C4257 C4259 1.387 . S
H4258 C4265 0.950 . S
C4259 C4257 1.387 . S
C4259 C4261 1.390 . S
C4259 H4263 0.950 . S
H4260 C4256 0.950 . S
C4261 C4259 1.390 . S
C4261 C4262 1.387 . S
C4261 H4264 0.950 . S
C4262 C4261 1.387 . S
C4262 C4265 1.387 . S
H4263 C4259 0.950 . S
H4264 C4261 0.950 . S
C4265 C4256 1.390 . S
C4265 H4258 0.950 . S
C4265 C4262 1.387 . S
C4266 C4267 1.387 . S
C4266 H4270 0.950 . S
C4266 C4275 1.390 . S
C4267 C4266 1.387 . S
C4267 C4269 1.387 . S
H4268 C4275 0.950 . S
C4269 C4267 1.387 . S
C4269 C4271 1.390 . S
C4269 H4273 0.950 . S
H4270 C4266 0.950 . S
C4271 C4269 1.390 . S
C4271 C4272 1.387 . S
C4271 H4274 0.950 . S
C4272 C4271 1.387 . S
C4272 C4275 1.387 . S
H4273 C4269 0.950 . S
H4274 C4271 0.950 . S
C4275 C4266 1.390 . S
C4275 H4268 0.950 . S
C4275 C4272 1.387 . S
C4276 C4277 1.387 . S
C4276 H4280 0.950 . S
C4276 C4285 1.390 . S
C4277 C4276 1.387 . S
C4277 C4279 1.387 . S
H4278 C4285 0.950 . S
C4279 C4277 1.387 . S
C4279 C4281 1.390 . S
C4279 H4283 0.950 . S
H4280 C4276 0.950 . S
C4281 C4279 1.390 . S
C4281 C4282 1.387 . S
C4281 H4284 0.950 . S
C4282 C4281 1.387 . S
C4282 C4285 1.387 . S
H4283 C4279 0.950 . S
H4284 C4281 0.950 . S
C4285 C4276 1.390 . S
C4285 H4278 0.950 . S
C4285 C4282 1.387 . S
C4286 C4287 1.387 . S
C4286 H4290 0.950 . S
C4286 C4295 1.390 . S
C4287 C4286 1.387 . S
C4287 C4289 1.387 . S
H4288 C4295 0.950 . S
C4289 C4287 1.387 . S
C4289 C4291 1.390 . S
C4289 H4293 0.950 . S
H4290 C4286 0.950 . S
C4291 C4289 1.390 . S
C4291 C4292 1.387 . S
C4291 H4294 0.950 . S
C4292 C4291 1.387 . S
C4292 C4295 1.387 . S
H4293 C4289 0.950 . S
H4294 C4291 0.950 . S
C4295 C4286 1.390 . S
C4295 H4288 0.950 . S
C4295 C4292 1.387 . S
C4296 C4297 1.387 . S
C4296 H4300 0.950 . S
C4296 C4305 1.390 . S
C4297 C4296 1.387 . S
C4297 C4299 1.387 . S
H4298 C4305 0.950 . S
C4299 C4297 1.387 . S
C4299 C4301 1.390 . S
C4299 H4303 0.950 . S
H4300 C4296 0.950 . S
C4301 C4299 1.390 . S
C4301 C4302 1.387 . S
C4301 H4304 0.950 . S
C4302 C4301 1.387 . S
C4302 C4305 1.387 . S
H4303 C4299 0.950 . S
H4304 C4301 0.950 . S
C4305 C4296 1.390 . S
C4305 H4298 0.950 . S
C4305 C4302 1.387 . S
C4306 C4307 1.387 . S
C4306 H4310 0.950 . S
C4306 C4315 1.390 . S
C4307 C4306 1.387 . S
C4307 C4309 1.387 . S
H4308 C4315 0.950 . S
C4309 C4307 1.387 . S
C4309 C4311 1.390 . S
C4309 H4313 0.950 . S
H4310 C4306 0.950 . S
C4311 C4309 1.390 . S
C4311 C4312 1.387 . S
C4311 H4314 0.950 . S
C4312 C4311 1.387 . S
C4312 C4315 1.387 . S
H4313 C4309 0.950 . S
H4314 C4311 0.950 . S
C4315 C4306 1.390 . S
C4315 H4308 0.950 . S
C4315 C4312 1.387 . S
C4316 C4317 1.387 . S
C4316 H4320 0.950 . S
C4316 C4325 1.390 . S
C4317 C4316 1.387 . S
C4317 C4319 1.387 . S
H4318 C4325 0.950 . S
C4319 C4317 1.387 . S
C4319 C4321 1.390 . S
C4319 H4323 0.950 . S
H4320 C4316 0.950 . S
C4321 C4319 1.390 . S
C4321 C4322 1.387 . S
C4321 H4324 0.950 . S
C4322 C4321 1.387 . S
C4322 C4325 1.387 . S
H4323 C4319 0.950 . S
H4324 C4321 0.950 . S
C4325 C4316 1.390 . S
C4325 H4318 0.950 . S
C4325 C4322 1.387 . S
C4326 C4327 1.387 . S
C4326 H4330 0.950 . S
C4326 C4335 1.390 . S
C4327 C4326 1.387 . S
C4327 C4329 1.387 . S
H4328 C4335 0.950 . S
C4329 C4327 1.387 . S
C4329 C4331 1.390 . S
C4329 H4333 0.950 . S
H4330 C4326 0.950 . S
C4331 C4329 1.390 . S
C4331 C4332 1.387 . S
C4331 H4334 0.950 . S
C4332 C4331 1.387 . S
C4332 C4335 1.387 . S
H4333 C4329 0.950 . S
H4334 C4331 0.950 . S
C4335 C4326 1.390 . S
C4335 H4328 0.950 . S
C4335 C4332 1.387 . S
C4336 C4337 1.387 . S
C4336 H4340 0.950 . S
C4336 C4345 1.390 . S
C4337 C4336 1.387 . S
C4337 C4339 1.387 . S
H4338 C4345 0.950 . S
C4339 C4337 1.387 . S
C4339 C4341 1.390 . S
C4339 H4343 0.950 . S
H4340 C4336 0.950 . S
C4341 C4339 1.390 . S
C4341 C4342 1.387 . S
C4341 H4344 0.950 . S
C4342 C4341 1.387 . S
C4342 C4345 1.387 . S
H4343 C4339 0.950 . S
H4344 C4341 0.950 . S
C4345 C4336 1.390 . S
C4345 H4338 0.950 . S
C4345 C4342 1.387 . S
C4346 C4347 1.387 . S
C4346 H4350 0.950 . S
C4346 C4355 1.390 . S
C4347 C4346 1.387 . S
C4347 C4349 1.387 . S
H4348 C4355 0.950 . S
C4349 C4347 1.387 . S
C4349 C4351 1.390 . S
C4349 H4353 0.950 . S
H4350 C4346 0.950 . S
C4351 C4349 1.390 . S
C4351 C4352 1.387 . S
C4351 H4354 0.950 . S
C4352 C4351 1.387 . S
C4352 C4355 1.387 . S
H4353 C4349 0.950 . S
H4354 C4351 0.950 . S
C4355 C4346 1.390 . S
C4355 H4348 0.950 . S
C4355 C4352 1.387 . S
C4356 C4357 1.387 . S
C4356 H4360 0.950 . S
C4356 C4365 1.390 . S
C4357 C4356 1.387 . S
C4357 C4359 1.387 . S
H4358 C4365 0.950 . S
C4359 C4357 1.387 . S
C4359 C4361 1.390 . S
C4359 H4363 0.950 . S
H4360 C4356 0.950 . S
C4361 C4359 1.390 . S
C4361 C4362 1.387 . S
C4361 H4364 0.950 . S
C4362 C4361 1.387 . S
C4362 C4365 1.387 . S
H4363 C4359 0.950 . S
H4364 C4361 0.950 . S
C4365 C4356 1.390 . S
C4365 H4358 0.950 . S
C4365 C4362 1.387 . S
C4366 C4367 1.387 . S
C4366 H4370 0.950 . S
C4366 C4375 1.390 . S
C4367 C4366 1.387 . S
C4367 C4369 1.387 . S
H4368 C4375 0.950 . S
C4369 C4367 1.387 . S
C4369 C4371 1.390 . S
C4369 H4373 0.950 . S
H4370 C4366 0.950 . S
C4371 C4369 1.390 . S
C4371 C4372 1.387 . S
C4371 H4374 0.950 . S
C4372 C4371 1.387 . S
C4372 C4375 1.387 . S
H4373 C4369 0.950 . S
H4374 C4371 0.950 . S
C4375 C4366 1.390 . S
C4375 H4368 0.950 . S
C4375 C4372 1.387 . S
C4376 C4377 1.387 . S
C4376 H4380 0.950 . S
C4376 C4385 1.390 . S
C4377 C4376 1.387 . S
C4377 C4379 1.387 . S
H4378 C4385 0.950 . S
C4379 C4377 1.387 . S
C4379 C4381 1.390 . S
C4379 H4383 0.950 . S
H4380 C4376 0.950 . S
C4381 C4379 1.390 . S
C4381 C4382 1.387 . S
C4381 H4384 0.950 . S
C4382 C4381 1.387 . S
C4382 C4385 1.387 . S
H4383 C4379 0.950 . S
H4384 C4381 0.950 . S
C4385 C4376 1.390 . S
C4385 H4378 0.950 . S
C4385 C4382 1.387 . S
C4386 C4387 1.387 . S
C4386 H4390 0.950 . S
C4386 C4395 1.390 . S
C4387 C4386 1.387 . S
C4387 C4389 1.387 . S
H4388 C4395 0.950 . S
C4389 C4387 1.387 . S
C4389 C4391 1.390 . S
C4389 H4393 0.950 . S
H4390 C4386 0.950 . S
C4391 C4389 1.390 . S
C4391 C4392 1.387 . S
C4391 H4394 0.950 . S
C4392 C4391 1.387 . S
C4392 C4395 1.387 . S
H4393 C4389 0.950 . S
H4394 C4391 0.950 . S
C4395 C4386 1.390 . S
C4395 H4388 0.950 . S
C4395 C4392 1.387 . S
C4396 C4397 1.387 . S
C4396 H4400 0.950 . S
C4396 C4405 1.390 . S
C4397 C4396 1.387 . S
C4397 C4399 1.387 . S
H4398 C4405 0.950 . S
C4399 C4397 1.387 . S
C4399 C4401 1.390 . S
C4399 H4403 0.950 . S
H4400 C4396 0.950 . S
C4401 C4399 1.390 . S
C4401 C4402 1.387 . S
C4401 H4404 0.950 . S
C4402 C4401 1.387 . S
C4402 C4405 1.387 . S
H4403 C4399 0.950 . S
H4404 C4401 0.950 . S
C4405 C4396 1.390 . S
C4405 H4398 0.950 . S
C4405 C4402 1.387 . S
C4406 C4407 1.387 . S
C4406 H4410 0.950 . S
C4406 C4415 1.390 . S
C4407 C4406 1.387 . S
C4407 C4409 1.387 . S
H4408 C4415 0.950 . S
C4409 C4407 1.387 . S
C4409 C4411 1.390 . S
C4409 H4413 0.950 . S
H4410 C4406 0.950 . S
C4411 C4409 1.390 . S
C4411 C4412 1.387 . S
C4411 H4414 0.950 . S
C4412 C4411 1.387 . S
C4412 C4415 1.387 . S
H4413 C4409 0.950 . S
H4414 C4411 0.950 . S
C4415 C4406 1.390 . S
C4415 H4408 0.950 . S
C4415 C4412 1.387 . S
C4416 C4417 1.387 . S
C4416 H4420 0.950 . S
C4416 C4425 1.390 1_455 S
C4417 C4416 1.387 . S
C4417 C4419 1.387 . S
H4418 C4425 0.950 . S
C4419 C4417 1.387 . S
C4419 C4421 1.390 1_455 S
C4419 H4423 0.950 . S
H4420 C4416 0.950 . S
C4421 C4419 1.390 1_655 S
C4421 C4422 1.387 . S
C4421 H4424 0.950 . S
C4422 C4421 1.387 . S
C4422 C4425 1.387 . S
H4423 C4419 0.950 . S
H4424 C4421 0.950 . S
C4425 C4416 1.390 1_655 S
C4425 H4418 0.950 . S
C4425 C4422 1.387 . S
C4426 C4427 1.387 . S
C4426 H4430 0.950 . S
C4426 C4435 1.390 1_565 S
C4427 C4426 1.387 . S
C4427 C4429 1.387 . S
H4428 C4435 0.950 . S
C4429 C4427 1.387 . S
C4429 C4431 1.390 1_565 S
C4429 H4433 0.950 . S
H4430 C4426 0.950 . S
C4431 C4429 1.390 1_545 S
C4431 C4432 1.387 . S
C4431 H4434 0.950 . S
C4432 C4431 1.387 . S
C4432 C4435 1.387 . S
H4433 C4429 0.950 . S
H4434 C4431 0.950 . S
C4435 C4426 1.390 1_545 S
C4435 H4428 0.950 . S
C4435 C4432 1.387 . S
C4436 C4437 1.387 . S
C4436 H4440 0.950 . S
C4436 C4445 1.390 1_655 S
C4437 C4436 1.387 . S
C4437 C4439 1.387 . S
H4438 C4445 0.950 . S
C4439 C4437 1.387 . S
C4439 C4441 1.390 1_655 S
C4439 H4443 0.950 . S
H4440 C4436 0.950 . S
C4441 C4439 1.390 1_455 S
C4441 C4442 1.387 . S
C4441 H4444 0.950 . S
C4442 C4441 1.387 . S
C4442 C4445 1.387 . S
H4443 C4439 0.950 . S
H4444 C4441 0.950 . S
C4445 C4436 1.390 1_455 S
C4445 H4438 0.950 . S
C4445 C4442 1.387 . S
C4446 C4447 1.387 . S
C4446 H4450 0.950 . S
C4446 C4455 1.390 1_545 S
C4447 C4446 1.387 . S
C4447 C4449 1.387 . S
H4448 C4455 0.950 . S
C4449 C4447 1.387 . S
C4449 C4451 1.390 1_545 S
C4449 H4453 0.950 . S
H4450 C4446 0.950 . S
C4451 C4449 1.390 1_565 S
C4451 C4452 1.387 . S
C4451 H4454 0.950 . S
C4452 C4451 1.387 . S
C4452 C4455 1.387 . S
H4453 C4449 0.950 . S
H4454 C4451 0.950 . S
C4455 C4446 1.390 1_565 S
C4455 H4448 0.950 . S
C4455 C4452 1.387 . S
C4456 C4457 1.387 . S
C4456 H4460 0.950 . S
C4456 C4465 1.390 1_455 S
C4457 C4456 1.387 . S
C4457 C4459 1.387 . S
H4458 C4465 0.950 . S
C4459 C4457 1.387 . S
C4459 C4461 1.390 1_455 S
C4459 H4463 0.950 . S
H4460 C4456 0.950 . S
C4461 C4459 1.390 1_655 S
C4461 C4462 1.387 . S
C4461 H4464 0.950 . S
C4462 C4461 1.387 . S
C4462 C4465 1.387 . S
H4463 C4459 0.950 . S
H4464 C4461 0.950 . S
C4465 C4456 1.390 1_655 S
C4465 H4458 0.950 . S
C4465 C4462 1.387 . S
C4466 C4467 1.387 . S
C4466 H4470 0.950 . S
C4466 C4475 1.390 1_545 S
C4467 C4466 1.387 . S
C4467 C4469 1.387 . S
H4468 C4475 0.950 . S
C4469 C4467 1.387 . S
C4469 C4471 1.390 1_545 S
C4469 H4473 0.950 . S
H4470 C4466 0.950 . S
C4471 C4469 1.390 1_565 S
C4471 C4472 1.387 . S
C4471 H4474 0.950 . S
C4472 C4471 1.387 . S
C4472 C4475 1.387 . S
H4473 C4469 0.950 . S
H4474 C4471 0.950 . S
C4475 C4466 1.390 1_565 S
C4475 H4468 0.950 . S
C4475 C4472 1.387 . S
C4476 C4477 1.387 . S
C4476 H4480 0.950 . S
C4476 C4485 1.390 1_655 S
C4477 C4476 1.387 . S
C4477 C4479 1.387 . S
H4478 C4485 0.950 . S
C4479 C4477 1.387 . S
C4479 C4481 1.390 1_655 S
C4479 H4483 0.950 . S
H4480 C4476 0.950 . S
C4481 C4479 1.390 1_455 S
C4481 C4482 1.387 . S
C4481 H4484 0.950 . S
C4482 C4481 1.387 . S
C4482 C4485 1.387 . S
H4483 C4479 0.950 . S
H4484 C4481 0.950 . S
C4485 C4476 1.390 1_455 S
C4485 H4478 0.950 . S
C4485 C4482 1.387 . S
C4486 C4487 1.387 . S
C4486 H4490 0.950 . S
C4486 C4495 1.390 1_545 S
C4487 C4486 1.387 . S
C4487 C4489 1.387 . S
H4488 C4495 0.950 . S
C4489 C4487 1.387 . S
C4489 C4491 1.390 1_545 S
C4489 H4493 0.950 . S
H4490 C4486 0.950 . S
C4491 C4489 1.390 1_565 S
C4491 C4492 1.387 . S
C4491 H4494 0.950 . S
C4492 C4491 1.387 . S
C4492 C4495 1.387 . S
H4493 C4489 0.950 . S
H4494 C4491 0.950 . S
C4495 C4486 1.390 1_565 S
C4495 H4488 0.950 . S
C4495 C4492 1.387 . S
C4496 C4497 1.387 . S
C4496 H4500 0.950 . S
C4496 C4505 1.390 1_565 S
C4497 C4496 1.387 . S
C4497 C4499 1.387 . S
H4498 C4505 0.950 . S
C4499 C4497 1.387 . S
C4499 C4501 1.390 1_565 S
C4499 H4503 0.950 . S
H4500 C4496 0.950 . S
C4501 C4499 1.390 1_545 S
C4501 C4502 1.387 . S
C4501 H4504 0.950 . S
C4502 C4501 1.387 . S
C4502 C4505 1.387 . S
H4503 C4499 0.950 . S
H4504 C4501 0.950 . S
C4505 C4496 1.390 1_545 S
C4505 H4498 0.950 . S
C4505 C4502 1.387 . S
C4506 C4507 1.387 . S
C4506 H4510 0.950 . S
C4506 C4515 1.390 1_655 S
C4507 C4506 1.387 . S
C4507 C4509 1.387 . S
H4508 C4515 0.950 . S
C4509 C4507 1.387 . S
C4509 C4511 1.390 1_655 S
C4509 H4513 0.950 . S
H4510 C4506 0.950 . S
C4511 C4509 1.390 1_455 S
C4511 C4512 1.387 . S
C4511 H4514 0.950 . S
C4512 C4511 1.387 . S
C4512 C4515 1.387 . S
H4513 C4509 0.950 . S
H4514 C4511 0.950 . S
C4515 C4506 1.390 1_455 S
C4515 H4508 0.950 . S
C4515 C4512 1.387 . S
C4516 C4517 1.387 . S
C4516 H4520 0.950 . S
C4516 C4525 1.390 1_565 S
C4517 C4516 1.387 . S
C4517 C4519 1.387 . S
H4518 C4525 0.950 . S
C4519 C4517 1.387 . S
C4519 C4521 1.390 1_565 S
C4519 H4523 0.950 . S
H4520 C4516 0.950 . S
C4521 C4519 1.390 1_545 S
C4521 C4522 1.387 . S
C4521 H4524 0.950 . S
C4522 C4521 1.387 . S
C4522 C4525 1.387 . S
H4523 C4519 0.950 . S
H4524 C4521 0.950 . S
C4525 C4516 1.390 1_545 S
C4525 H4518 0.950 . S
C4525 C4522 1.387 . S
C4526 C4527 1.387 . S
C4526 H4530 0.950 . S
C4526 C4535 1.390 1_455 S
C4527 C4526 1.387 . S
C4527 C4529 1.387 . S
H4528 C4535 0.950 . S
C4529 C4527 1.387 . S
C4529 C4531 1.390 1_455 S
C4529 H4533 0.950 . S
H4530 C4526 0.950 . S
C4531 C4529 1.390 1_655 S
C4531 C4532 1.387 . S
C4531 H4534 0.950 . S
C4532 C4531 1.387 . S
C4532 C4535 1.387 . S
H4533 C4529 0.950 . S
H4534 C4531 0.950 . S
C4535 C4526 1.390 1_655 S
C4535 H4528 0.950 . S
C4535 C4532 1.387 . S
C4536 C4537 1.387 . S
C4536 H4540 0.950 . S
C4536 C4545 1.390 1_565 S
C4537 C4536 1.387 . S
C4537 C4539 1.387 . S
H4538 C4545 0.950 . S
C4539 C4537 1.387 . S
C4539 C4541 1.390 1_565 S
C4539 H4543 0.950 . S
H4540 C4536 0.950 . S
C4541 C4539 1.390 1_545 S
C4541 C4542 1.387 . S
C4541 H4544 0.950 . S
C4542 C4541 1.387 . S
C4542 C4545 1.387 . S
H4543 C4539 0.950 . S
H4544 C4541 0.950 . S
C4545 C4536 1.390 1_545 S
C4545 H4538 0.950 . S
C4545 C4542 1.387 . S
C4546 C4547 1.387 . S
C4546 H4550 0.950 . S
C4546 C4555 1.390 1_455 S
C4547 C4546 1.387 . S
C4547 C4549 1.387 . S
H4548 C4555 0.950 . S
C4549 C4547 1.387 . S
C4549 C4551 1.390 1_455 S
C4549 H4553 0.950 . S
H4550 C4546 0.950 . S
C4551 C4549 1.390 1_655 S
C4551 C4552 1.387 . S
C4551 H4554 0.950 . S
C4552 C4551 1.387 . S
C4552 C4555 1.387 . S
H4553 C4549 0.950 . S
H4554 C4551 0.950 . S
C4555 C4546 1.390 1_655 S
C4555 H4548 0.950 . S
C4555 C4552 1.387 . S
C4556 C4557 1.387 . S
C4556 H4560 0.950 . S
C4556 C4565 1.390 1_545 S
C4557 C4556 1.387 . S
C4557 C4559 1.387 . S
H4558 C4565 0.950 . S
C4559 C4557 1.387 . S
C4559 C4561 1.390 1_545 S
C4559 H4563 0.950 . S
H4560 C4556 0.950 . S
C4561 C4559 1.390 1_565 S
C4561 C4562 1.387 . S
C4561 H4564 0.950 . S
C4562 C4561 1.387 . S
C4562 C4565 1.387 . S
H4563 C4559 0.950 . S
H4564 C4561 0.950 . S
C4565 C4556 1.390 1_565 S
C4565 H4558 0.950 . S
C4565 C4562 1.387 . S
C4566 C4567 1.387 . S
C4566 H4570 0.950 . S
C4566 C4575 1.390 1_655 S
C4567 C4566 1.387 . S
C4567 C4569 1.387 . S
H4568 C4575 0.950 . S
C4569 C4567 1.387 . S
C4569 C4571 1.390 1_655 S
C4569 H4573 0.950 . S
H4570 C4566 0.950 . S
C4571 C4569 1.390 1_455 S
C4571 C4572 1.387 . S
C4571 H4574 0.950 . S
C4572 C4571 1.387 . S
C4572 C4575 1.387 . S
H4573 C4569 0.950 . S
H4574 C4571 0.950 . S
C4575 C4566 1.390 1_455 S
C4575 H4568 0.950 . S
C4575 C4572 1.387 . S
C4576 C4577 1.387 . S
C4576 H4580 0.950 . S
C4576 C4585 1.390 1_554 S
C4577 C4576 1.387 . S
C4577 C4579 1.387 . S
H4578 C4585 0.950 . S
C4579 C4577 1.387 . S
C4579 C4581 1.390 1_554 S
C4579 H4583 0.950 . S
H4580 C4576 0.950 . S
C4581 C4579 1.390 1_556 S
C4581 C4582 1.387 . S
C4581 H4584 0.950 . S
C4582 C4581 1.387 . S
C4582 C4585 1.387 . S
H4583 C4579 0.950 . S
H4584 C4581 0.950 . S
C4585 C4576 1.390 1_556 S
C4585 H4578 0.950 . S
C4585 C4582 1.387 . S
C4586 C4587 1.387 . S
C4586 H4590 0.950 . S
C4586 C4595 1.390 1_556 S
C4587 C4586 1.387 . S
C4587 C4589 1.387 . S
H4588 C4595 0.950 . S
C4589 C4587 1.387 . S
C4589 C4591 1.390 1_556 S
C4589 H4593 0.950 . S
H4590 C4586 0.950 . S
C4591 C4589 1.390 1_554 S
C4591 C4592 1.387 . S
C4591 H4594 0.950 . S
C4592 C4591 1.387 . S
C4592 C4595 1.387 . S
H4593 C4589 0.950 . S
H4594 C4591 0.950 . S
C4595 C4586 1.390 1_554 S
C4595 H4588 0.950 . S
C4595 C4592 1.387 . S
C4596 C4597 1.387 . S
C4596 H4600 0.950 . S
C4596 C4605 1.390 1_554 S
C4597 C4596 1.387 . S
C4597 C4599 1.387 . S
H4598 C4605 0.950 . S
C4599 C4597 1.387 . S
C4599 C4601 1.390 1_554 S
C4599 H4603 0.950 . S
H4600 C4596 0.950 . S
C4601 C4599 1.390 1_556 S
C4601 C4602 1.387 . S
C4601 H4604 0.950 . S
C4602 C4601 1.387 . S
C4602 C4605 1.387 . S
H4603 C4599 0.950 . S
H4604 C4601 0.950 . S
C4605 C4596 1.390 1_556 S
C4605 H4598 0.950 . S
C4605 C4602 1.387 . S
C4606 C4607 1.387 . S
C4606 H4610 0.950 . S
C4606 C4615 1.390 1_556 S
C4607 C4606 1.387 . S
C4607 C4609 1.387 . S
H4608 C4615 0.950 . S
C4609 C4607 1.387 . S
C4609 C4611 1.390 1_556 S
C4609 H4613 0.950 . S
H4610 C4606 0.950 . S
C4611 C4609 1.390 1_554 S
C4611 C4612 1.387 . S
C4611 H4614 0.950 . S
C4612 C4611 1.387 . S
C4612 C4615 1.387 . S
H4613 C4609 0.950 . S
H4614 C4611 0.950 . S
C4615 C4606 1.390 1_554 S
C4615 H4608 0.950 . S
C4615 C4612 1.387 . S
C4616 C4617 1.387 . S
C4616 H4620 0.950 . S
C4616 C4625 1.390 1_554 S
C4617 C4616 1.387 . S
C4617 C4619 1.387 . S
H4618 C4625 0.950 . S
C4619 C4617 1.387 . S
C4619 C4621 1.390 1_554 S
C4619 H4623 0.950 . S
H4620 C4616 0.950 . S
C4621 C4619 1.390 1_556 S
C4621 C4622 1.387 . S
C4621 H4624 0.950 . S
C4622 C4621 1.387 . S
C4622 C4625 1.387 . S
H4623 C4619 0.950 . S
H4624 C4621 0.950 . S
C4625 C4616 1.390 1_556 S
C4625 H4618 0.950 . S
C4625 C4622 1.387 . S
C4626 C4627 1.387 . S
C4626 H4630 0.950 . S
C4626 C4635 1.390 1_554 S
C4627 C4626 1.387 . S
C4627 C4629 1.387 . S
H4628 C4635 0.950 . S
C4629 C4627 1.387 . S
C4629 C4631 1.390 1_554 S
C4629 H4633 0.950 . S
H4630 C4626 0.950 . S
C4631 C4629 1.390 1_556 S
C4631 C4632 1.387 . S
C4631 H4634 0.950 . S
C4632 C4631 1.387 . S
C4632 C4635 1.387 . S
H4633 C4629 0.950 . S
H4634 C4631 0.950 . S
C4635 C4626 1.390 1_556 S
C4635 H4628 0.950 . S
C4635 C4632 1.387 . S
C4636 C4637 1.387 . S
C4636 H4640 0.950 . S
C4636 C4645 1.390 1_554 S
C4637 C4636 1.387 . S
C4637 C4639 1.387 . S
H4638 C4645 0.950 . S
C4639 C4637 1.387 . S
C4639 C4641 1.390 1_554 S
C4639 H4643 0.950 . S
H4640 C4636 0.950 . S
C4641 C4639 1.390 1_556 S
C4641 C4642 1.387 . S
C4641 H4644 0.950 . S
C4642 C4641 1.387 . S
C4642 C4645 1.387 . S
H4643 C4639 0.950 . S
H4644 C4641 0.950 . S
C4645 C4636 1.390 1_556 S
C4645 H4638 0.950 . S
C4645 C4642 1.387 . S
C4646 C4647 1.387 . S
C4646 H4650 0.950 . S
C4646 C4655 1.390 1_556 S
C4647 C4646 1.387 . S
C4647 C4649 1.387 . S
H4648 C4655 0.950 . S
C4649 C4647 1.387 . S
C4649 C4651 1.390 1_556 S
C4649 H4653 0.950 . S
H4650 C4646 0.950 . S
C4651 C4649 1.390 1_554 S
C4651 C4652 1.387 . S
C4651 H4654 0.950 . S
C4652 C4651 1.387 . S
C4652 C4655 1.387 . S
H4653 C4649 0.950 . S
H4654 C4651 0.950 . S
C4655 C4646 1.390 1_554 S
C4655 H4648 0.950 . S
C4655 C4652 1.387 . S
C4656 C4657 1.387 . S
C4656 H4660 0.950 . S
C4656 C4665 1.390 . S
C4657 C4656 1.387 . S
C4657 C4659 1.387 . S
H4658 C4665 0.950 . S
C4659 C4657 1.387 . S
C4659 C4661 1.390 . S
C4659 H4663 0.950 . S
H4660 C4656 0.950 . S
C4661 C4659 1.390 . S
C4661 C4662 1.387 . S
C4661 H4664 0.950 . S
C4662 C4661 1.387 . S
C4662 C4665 1.387 . S
H4663 C4659 0.950 . S
H4664 C4661 0.950 . S
C4665 C4656 1.390 . S
C4665 H4658 0.950 . S
C4665 C4662 1.387 . S
C4666 C4667 1.387 . S
C4666 H4670 0.950 . S
C4666 C4675 1.390 . S
C4667 C4666 1.387 . S
C4667 C4669 1.387 . S
H4668 C4675 0.950 . S
C4669 C4667 1.387 . S
C4669 C4671 1.390 . S
C4669 H4673 0.950 . S
H4670 C4666 0.950 . S
C4671 C4669 1.390 . S
C4671 C4672 1.387 . S
C4671 H4674 0.950 . S
C4672 C4671 1.387 . S
C4672 C4675 1.387 . S
H4673 C4669 0.950 . S
H4674 C4671 0.950 . S
C4675 C4666 1.390 . S
C4675 H4668 0.950 . S
C4675 C4672 1.387 . S
C4676 C4677 1.387 . S
C4676 H4680 0.950 . S
C4676 C4685 1.390 . S
C4677 C4676 1.387 . S
C4677 C4679 1.387 . S
H4678 C4685 0.950 . S
C4679 C4677 1.387 . S
C4679 C4681 1.390 . S
C4679 H4683 0.950 . S
H4680 C4676 0.950 . S
C4681 C4679 1.390 . S
C4681 C4682 1.387 . S
C4681 H4684 0.950 . S
C4682 C4681 1.387 . S
C4682 C4685 1.387 . S
H4683 C4679 0.950 . S
H4684 C4681 0.950 . S
C4685 C4676 1.390 . S
C4685 H4678 0.950 . S
C4685 C4682 1.387 . S
C4686 C4687 1.387 . S
C4686 H4690 0.950 . S
C4686 C4695 1.390 . S
C4687 C4686 1.387 . S
C4687 C4689 1.387 . S
H4688 C4695 0.950 . S
C4689 C4687 1.387 . S
C4689 C4691 1.390 . S
C4689 H4693 0.950 . S
H4690 C4686 0.950 . S
C4691 C4689 1.390 . S
C4691 C4692 1.387 . S
C4691 H4694 0.950 . S
C4692 C4691 1.387 . S
C4692 C4695 1.387 . S
H4693 C4689 0.950 . S
H4694 C4691 0.950 . S
C4695 C4686 1.390 . S
C4695 H4688 0.950 . S
C4695 C4692 1.387 . S
C4696 C4697 1.387 . S
C4696 H4700 0.950 . S
C4696 C4705 1.390 . S
C4697 C4696 1.387 . S
C4697 C4699 1.387 . S
H4698 C4705 0.950 . S
C4699 C4697 1.387 . S
C4699 C4701 1.390 . S
C4699 H4703 0.950 . S
H4700 C4696 0.950 . S
C4701 C4699 1.390 . S
C4701 C4702 1.387 . S
C4701 H4704 0.950 . S
C4702 C4701 1.387 . S
C4702 C4705 1.387 . S
H4703 C4699 0.950 . S
H4704 C4701 0.950 . S
C4705 C4696 1.390 . S
C4705 H4698 0.950 . S
C4705 C4702 1.387 . S
C4706 C4707 1.387 . S
C4706 H4710 0.950 . S
C4706 C4715 1.390 . S
C4707 C4706 1.387 . S
C4707 C4709 1.387 . S
H4708 C4715 0.950 . S
C4709 C4707 1.387 . S
C4709 C4711 1.390 . S
C4709 H4713 0.950 . S
H4710 C4706 0.950 . S
C4711 C4709 1.390 . S
C4711 C4712 1.387 . S
C4711 H4714 0.950 . S
C4712 C4711 1.387 . S
C4712 C4715 1.387 . S
H4713 C4709 0.950 . S
H4714 C4711 0.950 . S
C4715 C4706 1.390 . S
C4715 H4708 0.950 . S
C4715 C4712 1.387 . S
C4716 C4717 1.387 . S
C4716 H4720 0.950 . S
C4716 C4725 1.390 . S
C4717 C4716 1.387 . S
C4717 C4719 1.387 . S
H4718 C4725 0.950 . S
C4719 C4717 1.387 . S
C4719 C4721 1.390 . S
C4719 H4723 0.950 . S
H4720 C4716 0.950 . S
C4721 C4719 1.390 . S
C4721 C4722 1.387 . S
C4721 H4724 0.950 . S
C4722 C4721 1.387 . S
C4722 C4725 1.387 . S
H4723 C4719 0.950 . S
H4724 C4721 0.950 . S
C4725 C4716 1.390 . S
C4725 H4718 0.950 . S
C4725 C4722 1.387 . S
C4726 C4727 1.387 . S
C4726 H4730 0.950 . S
C4726 C4735 1.390 . S
C4727 C4726 1.387 . S
C4727 C4729 1.387 . S
H4728 C4735 0.950 . S
C4729 C4727 1.387 . S
C4729 C4731 1.390 . S
C4729 H4733 0.950 . S
H4730 C4726 0.950 . S
C4731 C4729 1.390 . S
C4731 C4732 1.387 . S
C4731 H4734 0.950 . S
C4732 C4731 1.387 . S
C4732 C4735 1.387 . S
H4733 C4729 0.950 . S
H4734 C4731 0.950 . S
C4735 C4726 1.390 . S
C4735 H4728 0.950 . S
C4735 C4732 1.387 . S
C4736 C4737 1.387 . S
C4736 H4740 0.950 . S
C4736 C4745 1.390 . S
C4737 C4736 1.387 . S
C4737 C4739 1.387 . S
H4738 C4745 0.950 . S
C4739 C4737 1.387 . S
C4739 C4741 1.390 . S
C4739 H4743 0.950 . S
H4740 C4736 0.950 . S
C4741 C4739 1.390 . S
C4741 C4742 1.387 . S
C4741 H4744 0.950 . S
C4742 C4741 1.387 . S
C4742 C4745 1.387 . S
H4743 C4739 0.950 . S
H4744 C4741 0.950 . S
C4745 C4736 1.390 . S
C4745 H4738 0.950 . S
C4745 C4742 1.387 . S
C4746 C4747 1.387 . S
C4746 H4750 0.950 . S
C4746 C4755 1.390 . S
C4747 C4746 1.387 . S
C4747 C4749 1.387 . S
H4748 C4755 0.950 . S
C4749 C4747 1.387 . S
C4749 C4751 1.390 . S
C4749 H4753 0.950 . S
H4750 C4746 0.950 . S
C4751 C4749 1.390 . S
C4751 C4752 1.387 . S
C4751 H4754 0.950 . S
C4752 C4751 1.387 . S
C4752 C4755 1.387 . S
H4753 C4749 0.950 . S
H4754 C4751 0.950 . S
C4755 C4746 1.390 . S
C4755 H4748 0.950 . S
C4755 C4752 1.387 . S
C4756 C4757 1.387 . S
C4756 H4760 0.950 . S
C4756 C4765 1.390 . S
C4757 C4756 1.387 . S
C4757 C4759 1.387 . S
H4758 C4765 0.950 . S
C4759 C4757 1.387 . S
C4759 C4761 1.390 . S
C4759 H4763 0.950 . S
H4760 C4756 0.950 . S
C4761 C4759 1.390 . S
C4761 C4762 1.387 . S
C4761 H4764 0.950 . S
C4762 C4761 1.387 . S
C4762 C4765 1.387 . S
H4763 C4759 0.950 . S
H4764 C4761 0.950 . S
C4765 C4756 1.390 . S
C4765 H4758 0.950 . S
C4765 C4762 1.387 . S
C4766 C4767 1.387 . S
C4766 H4770 0.950 . S
C4766 C4775 1.390 . S
C4767 C4766 1.387 . S
C4767 C4769 1.387 . S
H4768 C4775 0.950 . S
C4769 C4767 1.387 . S
C4769 C4771 1.390 . S
C4769 H4773 0.950 . S
H4770 C4766 0.950 . S
C4771 C4769 1.390 . S
C4771 C4772 1.387 . S
C4771 H4774 0.950 . S
C4772 C4771 1.387 . S
C4772 C4775 1.387 . S
H4773 C4769 0.950 . S
H4774 C4771 0.950 . S
C4775 C4766 1.390 . S
C4775 H4768 0.950 . S
C4775 C4772 1.387 . S
C4776 C4777 1.387 . S
C4776 H4780 0.950 . S
C4776 C4785 1.390 . S
C4777 C4776 1.387 . S
C4777 C4779 1.387 . S
H4778 C4785 0.950 . S
C4779 C4777 1.387 . S
C4779 C4781 1.390 . S
C4779 H4783 0.950 . S
H4780 C4776 0.950 . S
C4781 C4779 1.390 . S
C4781 C4782 1.387 . S
C4781 H4784 0.950 . S
C4782 C4781 1.387 . S
C4782 C4785 1.387 . S
H4783 C4779 0.950 . S
H4784 C4781 0.950 . S
C4785 C4776 1.390 . S
C4785 H4778 0.950 . S
C4785 C4782 1.387 . S
C4786 C4787 1.387 . S
C4786 H4790 0.950 . S
C4786 C4795 1.390 . S
C4787 C4786 1.387 . S
C4787 C4789 1.387 . S
H4788 C4795 0.950 . S
C4789 C4787 1.387 . S
C4789 C4791 1.390 . S
C4789 H4793 0.950 . S
H4790 C4786 0.950 . S
C4791 C4789 1.390 . S
C4791 C4792 1.387 . S
C4791 H4794 0.950 . S
C4792 C4791 1.387 . S
C4792 C4795 1.387 . S
H4793 C4789 0.950 . S
H4794 C4791 0.950 . S
C4795 C4786 1.390 . S
C4795 H4788 0.950 . S
C4795 C4792 1.387 . S
C4796 C4797 1.387 . S
C4796 H4800 0.950 . S
C4796 C4805 1.390 . S
C4797 C4796 1.387 . S
C4797 C4799 1.387 . S
H4798 C4805 0.950 . S
C4799 C4797 1.387 . S
C4799 C4801 1.390 . S
C4799 H4803 0.950 . S
H4800 C4796 0.950 . S
C4801 C4799 1.390 . S
C4801 C4802 1.387 . S
C4801 H4804 0.950 . S
C4802 C4801 1.387 . S
C4802 C4805 1.387 . S
H4803 C4799 0.950 . S
H4804 C4801 0.950 . S
C4805 C4796 1.390 . S
C4805 H4798 0.950 . S
C4805 C4802 1.387 . S
C4806 C4807 1.387 . S
C4806 H4810 0.950 . S
C4806 C4815 1.390 . S
C4807 C4806 1.387 . S
C4807 C4809 1.387 . S
H4808 C4815 0.950 . S
C4809 C4807 1.387 . S
C4809 C4811 1.390 . S
C4809 H4813 0.950 . S
H4810 C4806 0.950 . S
C4811 C4809 1.390 . S
C4811 C4812 1.387 . S
C4811 H4814 0.950 . S
C4812 C4811 1.387 . S
C4812 C4815 1.387 . S
H4813 C4809 0.950 . S
H4814 C4811 0.950 . S
C4815 C4806 1.390 . S
C4815 H4808 0.950 . S
C4815 C4812 1.387 . S
C4816 C4817 1.387 . S
C4816 H4820 0.950 . S
C4816 C4825 1.390 . S
C4817 C4816 1.387 . S
C4817 C4819 1.387 . S
H4818 C4825 0.950 . S
C4819 C4817 1.387 . S
C4819 C4821 1.390 . S
C4819 H4823 0.950 . S
H4820 C4816 0.950 . S
C4821 C4819 1.390 . S
C4821 C4822 1.387 . S
C4821 H4824 0.950 . S
C4822 C4821 1.387 . S
C4822 C4825 1.387 . S
H4823 C4819 0.950 . S
H4824 C4821 0.950 . S
C4825 C4816 1.390 . S
C4825 H4818 0.950 . S
C4825 C4822 1.387 . S
C4826 C4827 1.387 . S
C4826 H4830 0.950 . S
C4826 C4835 1.390 . S
C4827 C4826 1.387 . S
C4827 C4829 1.387 . S
H4828 C4835 0.950 . S
C4829 C4827 1.387 . S
C4829 C4831 1.390 . S
C4829 H4833 0.950 . S
H4830 C4826 0.950 . S
C4831 C4829 1.390 . S
C4831 C4832 1.387 . S
C4831 H4834 0.950 . S
C4832 C4831 1.387 . S
C4832 C4835 1.387 . S
H4833 C4829 0.950 . S
H4834 C4831 0.950 . S
C4835 C4826 1.390 . S
C4835 H4828 0.950 . S
C4835 C4832 1.387 . S
C4836 C4837 1.387 . S
C4836 H4840 0.950 . S
C4836 C4845 1.390 . S
C4837 C4836 1.387 . S
C4837 C4839 1.387 . S
H4838 C4845 0.950 . S
C4839 C4837 1.387 . S
C4839 C4841 1.390 . S
C4839 H4843 0.950 . S
H4840 C4836 0.950 . S
C4841 C4839 1.390 . S
C4841 C4842 1.387 . S
C4841 H4844 0.950 . S
C4842 C4841 1.387 . S
C4842 C4845 1.387 . S
H4843 C4839 0.950 . S
H4844 C4841 0.950 . S
C4845 C4836 1.390 . S
C4845 H4838 0.950 . S
C4845 C4842 1.387 . S
C4846 C4847 1.387 . S
C4846 H4850 0.950 . S
C4846 C4855 1.390 . S
C4847 C4846 1.387 . S
C4847 C4849 1.387 . S
H4848 C4855 0.950 . S
C4849 C4847 1.387 . S
C4849 C4851 1.390 . S
C4849 H4853 0.950 . S
H4850 C4846 0.950 . S
C4851 C4849 1.390 . S
C4851 C4852 1.387 . S
C4851 H4854 0.950 . S
C4852 C4851 1.387 . S
C4852 C4855 1.387 . S
H4853 C4849 0.950 . S
H4854 C4851 0.950 . S
C4855 C4846 1.390 . S
C4855 H4848 0.950 . S
C4855 C4852 1.387 . S
C4856 C4857 1.387 . S
C4856 H4860 0.950 . S
C4856 C4865 1.390 . S
C4857 C4856 1.387 . S
C4857 C4859 1.387 . S
H4858 C4865 0.950 . S
C4859 C4857 1.387 . S
C4859 C4861 1.390 . S
C4859 H4863 0.950 . S
H4860 C4856 0.950 . S
C4861 C4859 1.390 . S
C4861 C4862 1.387 . S
C4861 H4864 0.950 . S
C4862 C4861 1.387 . S
C4862 C4865 1.387 . S
H4863 C4859 0.950 . S
H4864 C4861 0.950 . S
C4865 C4856 1.390 . S
C4865 H4858 0.950 . S
C4865 C4862 1.387 . S
C4866 C4867 1.387 . S
C4866 H4870 0.950 . S
C4866 C4875 1.390 . S
C4867 C4866 1.387 . S
C4867 C4869 1.387 . S
H4868 C4875 0.950 . S
C4869 C4867 1.387 . S
C4869 C4871 1.390 . S
C4869 H4873 0.950 . S
H4870 C4866 0.950 . S
C4871 C4869 1.390 . S
C4871 C4872 1.387 . S
C4871 H4874 0.950 . S
C4872 C4871 1.387 . S
C4872 C4875 1.387 . S
H4873 C4869 0.950 . S
H4874 C4871 0.950 . S
C4875 C4866 1.390 . S
C4875 H4868 0.950 . S
C4875 C4872 1.387 . S
C4876 C4877 1.387 . S
C4876 H4880 0.950 . S
C4876 C4885 1.390 . S
C4877 C4876 1.387 . S
C4877 C4879 1.387 . S
H4878 C4885 0.950 . S
C4879 C4877 1.387 . S
C4879 C4881 1.390 . S
C4879 H4883 0.950 . S
H4880 C4876 0.950 . S
C4881 C4879 1.390 . S
C4881 C4882 1.387 . S
C4881 H4884 0.950 . S
C4882 C4881 1.387 . S
C4882 C4885 1.387 . S
H4883 C4879 0.950 . S
H4884 C4881 0.950 . S
C4885 C4876 1.390 . S
C4885 H4878 0.950 . S
C4885 C4882 1.387 . S
C4886 C4887 1.387 . S
C4886 H4890 0.950 . S
C4886 C4895 1.390 . S
C4887 C4886 1.387 . S
C4887 C4889 1.387 . S
H4888 C4895 0.950 . S
C4889 C4887 1.387 . S
C4889 C4891 1.390 . S
C4889 H4893 0.950 . S
H4890 C4886 0.950 . S
C4891 C4889 1.390 . S
C4891 C4892 1.387 . S
C4891 H4894 0.950 . S
C4892 C4891 1.387 . S
C4892 C4895 1.387 . S
H4893 C4889 0.950 . S
H4894 C4891 0.950 . S
C4895 C4886 1.390 . S
C4895 H4888 0.950 . S
C4895 C4892 1.387 . S
C4896 C4897 1.387 . S
C4896 H4900 0.950 . S
C4896 C4905 1.390 . S
C4897 C4896 1.387 . S
C4897 C4899 1.387 . S
H4898 C4905 0.950 . S
C4899 C4897 1.387 . S
C4899 C4901 1.390 . S
C4899 H4903 0.950 . S
H4900 C4896 0.950 . S
C4901 C4899 1.390 . S
C4901 C4902 1.387 . S
C4901 H4904 0.950 . S
C4902 C4901 1.387 . S
C4902 C4905 1.387 . S
H4903 C4899 0.950 . S
H4904 C4901 0.950 . S
C4905 C4896 1.390 . S
C4905 H4898 0.950 . S
C4905 C4902 1.387 . S
C4906 C4907 1.387 . S
C4906 H4910 0.950 . S
C4906 C4915 1.390 . S
C4907 C4906 1.387 . S
C4907 C4909 1.387 . S
H4908 C4915 0.950 . S
C4909 C4907 1.387 . S
C4909 C4911 1.390 . S
C4909 H4913 0.950 . S
H4910 C4906 0.950 . S
C4911 C4909 1.390 . S
C4911 C4912 1.387 . S
C4911 H4914 0.950 . S
C4912 C4911 1.387 . S
C4912 C4915 1.387 . S
H4913 C4909 0.950 . S
H4914 C4911 0.950 . S
C4915 C4906 1.390 . S
C4915 H4908 0.950 . S
C4915 C4912 1.387 . S
C4916 C4917 1.387 . S
C4916 H4920 0.950 . S
C4916 C4925 1.390 . S
C4917 C4916 1.387 . S
C4917 C4919 1.387 . S
H4918 C4925 0.950 . S
C4919 C4917 1.387 . S
C4919 C4921 1.390 . S
C4919 H4923 0.950 . S
H4920 C4916 0.950 . S
C4921 C4919 1.390 . S
C4921 C4922 1.387 . S
C4921 H4924 0.950 . S
C4922 C4921 1.387 . S
C4922 C4925 1.387 . S
H4923 C4919 0.950 . S
H4924 C4921 0.950 . S
C4925 C4916 1.390 . S
C4925 H4918 0.950 . S
C4925 C4922 1.387 . S
C4926 C4927 1.387 . S
C4926 H4930 0.950 . S
C4926 C4935 1.390 . S
C4927 C4926 1.387 . S
C4927 C4929 1.387 . S
H4928 C4935 0.950 . S
C4929 C4927 1.387 . S
C4929 C4931 1.390 . S
C4929 H4933 0.950 . S
H4930 C4926 0.950 . S
C4931 C4929 1.390 . S
C4931 C4932 1.387 . S
C4931 H4934 0.950 . S
C4932 C4931 1.387 . S
C4932 C4935 1.387 . S
H4933 C4929 0.950 . S
H4934 C4931 0.950 . S
C4935 C4926 1.390 . S
C4935 H4928 0.950 . S
C4935 C4932 1.387 . S
C4936 C4937 1.387 . S
C4936 H4940 0.950 . S
C4936 C4945 1.390 . S
C4937 C4936 1.387 . S
C4937 C4939 1.387 . S
H4938 C4945 0.950 . S
C4939 C4937 1.387 . S
C4939 C4941 1.390 . S
C4939 H4943 0.950 . S
H4940 C4936 0.950 . S
C4941 C4939 1.390 . S
C4941 C4942 1.387 . S
C4941 H4944 0.950 . S
C4942 C4941 1.387 . S
C4942 C4945 1.387 . S
H4943 C4939 0.950 . S
H4944 C4941 0.950 . S
C4945 C4936 1.390 . S
C4945 H4938 0.950 . S
C4945 C4942 1.387 . S
C4946 C4947 1.387 . S
C4946 H4950 0.950 . S
C4946 C4955 1.390 . S
C4947 C4946 1.387 . S
C4947 C4949 1.387 . S
H4948 C4955 0.950 . S
C4949 C4947 1.387 . S
C4949 C4951 1.390 . S
C4949 H4953 0.950 . S
H4950 C4946 0.950 . S
C4951 C4949 1.390 . S
C4951 C4952 1.387 . S
C4951 H4954 0.950 . S
C4952 C4951 1.387 . S
C4952 C4955 1.387 . S
H4953 C4949 0.950 . S
H4954 C4951 0.950 . S
C4955 C4946 1.390 . S
C4955 H4948 0.950 . S
C4955 C4952 1.387 . S
C4956 C4957 1.387 . S
C4956 H4960 0.950 . S
C4956 C4965 1.390 . S
C4957 C4956 1.387 . S
C4957 C4959 1.387 . S
H4958 C4965 0.950 . S
C4959 C4957 1.387 . S
C4959 C4961 1.390 . S
C4959 H4963 0.950 . S
H4960 C4956 0.950 . S
C4961 C4959 1.390 . S
C4961 C4962 1.387 . S
C4961 H4964 0.950 . S
C4962 C4961 1.387 . S
C4962 C4965 1.387 . S
H4963 C4959 0.950 . S
H4964 C4961 0.950 . S
C4965 C4956 1.390 . S
C4965 H4958 0.950 . S
C4965 C4962 1.387 . S
C4966 C4967 1.387 . S
C4966 H4970 0.950 . S
C4966 C4975 1.390 . S
C4967 C4966 1.387 . S
C4967 C4969 1.387 . S
H4968 C4975 0.950 . S
C4969 C4967 1.387 . S
C4969 C4971 1.390 . S
C4969 H4973 0.950 . S
H4970 C4966 0.950 . S
C4971 C4969 1.390 . S
C4971 C4972 1.387 . S
C4971 H4974 0.950 . S
C4972 C4971 1.387 . S
C4972 C4975 1.387 . S
H4973 C4969 0.950 . S
H4974 C4971 0.950 . S
C4975 C4966 1.390 . S
C4975 H4968 0.950 . S
C4975 C4972 1.387 . S
C4976 C4977 1.387 . S
C4976 H4980 0.950 . S
C4976 C4985 1.390 . S
C4977 C4976 1.387 . S
C4977 C4979 1.387 . S
H4978 C4985 0.950 . S
C4979 C4977 1.387 . S
C4979 C4981 1.390 . S
C4979 H4983 0.950 . S
H4980 C4976 0.950 . S
C4981 C4979 1.390 . S
C4981 C4982 1.387 . S
C4981 H4984 0.950 . S
C4982 C4981 1.387 . S
C4982 C4985 1.387 . S
H4983 C4979 0.950 . S
H4984 C4981 0.950 . S
C4985 C4976 1.390 . S
C4985 H4978 0.950 . S
C4985 C4982 1.387 . S
C4986 C4987 1.387 . S
C4986 H4990 0.950 . S
C4986 C4995 1.390 . S
C4987 C4986 1.387 . S
C4987 C4989 1.387 . S
H4988 C4995 0.950 . S
C4989 C4987 1.387 . S
C4989 C4991 1.390 . S
C4989 H4993 0.950 . S
H4990 C4986 0.950 . S
C4991 C4989 1.390 . S
C4991 C4992 1.387 . S
C4991 H4994 0.950 . S
C4992 C4991 1.387 . S
C4992 C4995 1.387 . S
H4993 C4989 0.950 . S
H4994 C4991 0.950 . S
C4995 C4986 1.390 . S
C4995 H4988 0.950 . S
C4995 C4992 1.387 . S
C4996 C4997 1.387 . S
C4996 H5000 0.950 . S
C4996 C5005 1.390 . S
C4997 C4996 1.387 . S
C4997 C4999 1.387 . S
H4998 C5005 0.950 . S
C4999 C4997 1.387 . S
C4999 C5001 1.390 . S
C4999 H5003 0.950 . S
H5000 C4996 0.950 . S
C5001 C4999 1.390 . S
C5001 C5002 1.387 . S
C5001 H5004 0.950 . S
C5002 C5001 1.387 . S
C5002 C5005 1.387 . S
H5003 C4999 0.950 . S
H5004 C5001 0.950 . S
C5005 C4996 1.390 . S
C5005 H4998 0.950 . S
C5005 C5002 1.387 . S
C5006 C5007 1.387 . S
C5006 H5010 0.950 . S
C5006 C5015 1.390 . S
C5007 C5006 1.387 . S
C5007 C5009 1.387 . S
H5008 C5015 0.950 . S
C5009 C5007 1.387 . S
C5009 C5011 1.390 . S
C5009 H5013 0.950 . S
H5010 C5006 0.950 . S
C5011 C5009 1.390 . S
C5011 C5012 1.387 . S
C5011 H5014 0.950 . S
C5012 C5011 1.387 . S
C5012 C5015 1.387 . S
H5013 C5009 0.950 . S
H5014 C5011 0.950 . S
C5015 C5006 1.390 . S
C5015 H5008 0.950 . S
C5015 C5012 1.387 . S
C5016 C5017 1.387 . S
C5016 H5020 0.950 . S
C5016 C5025 1.390 . S
C5017 C5016 1.387 . S
C5017 C5019 1.387 . S
H5018 C5025 0.950 . S
C5019 C5017 1.387 . S
C5019 C5021 1.390 . S
C5019 H5023 0.950 . S
H5020 C5016 0.950 . S
C5021 C5019 1.390 . S
C5021 C5022 1.387 . S
C5021 H5024 0.950 . S
C5022 C5021 1.387 . S
C5022 C5025 1.387 . S
H5023 C5019 0.950 . S
H5024 C5021 0.950 . S
C5025 C5016 1.390 . S
C5025 H5018 0.950 . S
C5025 C5022 1.387 . S
C5026 C5027 1.387 . S
C5026 H5030 0.950 . S
C5026 C5035 1.390 . S
C5027 C5026 1.387 . S
C5027 C5029 1.387 . S
H5028 C5035 0.950 . S
C5029 C5027 1.387 . S
C5029 C5031 1.390 . S
C5029 H5033 0.950 . S
H5030 C5026 0.950 . S
C5031 C5029 1.390 . S
C5031 C5032 1.387 . S
C5031 H5034 0.950 . S
C5032 C5031 1.387 . S
C5032 C5035 1.387 . S
H5033 C5029 0.950 . S
H5034 C5031 0.950 . S
C5035 C5026 1.390 . S
C5035 H5028 0.950 . S
C5035 C5032 1.387 . S
C5036 C5037 1.387 . S
C5036 H5040 0.950 . S
C5036 C5045 1.390 . S
C5037 C5036 1.387 . S
C5037 C5039 1.387 . S
H5038 C5045 0.950 . S
C5039 C5037 1.387 . S
C5039 C5041 1.390 . S
C5039 H5043 0.950 . S
H5040 C5036 0.950 . S
C5041 C5039 1.390 . S
C5041 C5042 1.387 . S
C5041 H5044 0.950 . S
C5042 C5041 1.387 . S
C5042 C5045 1.387 . S
H5043 C5039 0.950 . S
H5044 C5041 0.950 . S
C5045 C5036 1.390 . S
C5045 H5038 0.950 . S
C5045 C5042 1.387 . S
C5046 C5047 1.387 . S
C5046 H5050 0.950 . S
C5046 C5055 1.390 . S
C5047 C5046 1.387 . S
C5047 C5049 1.387 . S
H5048 C5055 0.950 . S
C5049 C5047 1.387 . S
C5049 C5051 1.390 . S
C5049 H5053 0.950 . S
H5050 C5046 0.950 . S
C5051 C5049 1.390 . S
C5051 C5052 1.387 . S
C5051 H5054 0.950 . S
C5052 C5051 1.387 . S
C5052 C5055 1.387 . S
H5053 C5049 0.950 . S
H5054 C5051 0.950 . S
C5055 C5046 1.390 . S
C5055 H5048 0.950 . S
C5055 C5052 1.387 . S
C5056 C5057 1.387 . S
C5056 H5060 0.950 . S
C5056 C5065 1.390 . S
C5057 C5056 1.387 . S
C5057 C5059 1.387 . S
H5058 C5065 0.950 . S
C5059 C5057 1.387 . S
C5059 C5061 1.390 . S
C5059 H5063 0.950 . S
H5060 C5056 0.950 . S
C5061 C5059 1.390 . S
C5061 C5062 1.387 . S
C5061 H5064 0.950 . S
C5062 C5061 1.387 . S
C5062 C5065 1.387 . S
H5063 C5059 0.950 . S
H5064 C5061 0.950 . S
C5065 C5056 1.390 . S
C5065 H5058 0.950 . S
C5065 C5062 1.387 . S
C5066 C5067 1.387 . S
C5066 H5070 0.950 . S
C5066 C5075 1.390 . S
C5067 C5066 1.387 . S
C5067 C5069 1.387 . S
H5068 C5075 0.950 . S
C5069 C5067 1.387 . S
C5069 C5071 1.390 . S
C5069 H5073 0.950 . S
H5070 C5066 0.950 . S
C5071 C5069 1.390 . S
C5071 C5072 1.387 . S
C5071 H5074 0.950 . S
C5072 C5071 1.387 . S
C5072 C5075 1.387 . S
H5073 C5069 0.950 . S
H5074 C5071 0.950 . S
C5075 C5066 1.390 . S
C5075 H5068 0.950 . S
C5075 C5072 1.387 . S
C5076 C5077 1.387 . S
C5076 H5080 0.950 . S
C5076 C5085 1.390 . S
C5077 C5076 1.387 . S
C5077 C5079 1.387 . S
H5078 C5085 0.950 . S
C5079 C5077 1.387 . S
C5079 C5081 1.390 . S
C5079 H5083 0.950 . S
H5080 C5076 0.950 . S
C5081 C5079 1.390 . S
C5081 C5082 1.387 . S
C5081 H5084 0.950 . S
C5082 C5081 1.387 . S
C5082 C5085 1.387 . S
H5083 C5079 0.950 . S
H5084 C5081 0.950 . S
C5085 C5076 1.390 . S
C5085 H5078 0.950 . S
C5085 C5082 1.387 . S
C5086 C5087 1.387 . S
C5086 H5090 0.950 . S
C5086 C5095 1.390 . S
C5087 C5086 1.387 . S
C5087 C5089 1.387 . S
H5088 C5095 0.950 . S
C5089 C5087 1.387 . S
C5089 C5091 1.390 . S
C5089 H5093 0.950 . S
H5090 C5086 0.950 . S
C5091 C5089 1.390 . S
C5091 C5092 1.387 . S
C5091 H5094 0.950 . S
C5092 C5091 1.387 . S
C5092 C5095 1.387 . S
H5093 C5089 0.950 . S
H5094 C5091 0.950 . S
C5095 C5086 1.390 . S
C5095 H5088 0.950 . S
C5095 C5092 1.387 . S
C5096 C5097 1.387 . S
C5096 H5100 0.950 . S
C5096 C5105 1.390 . S
C5097 C5096 1.387 . S
C5097 C5099 1.387 . S
H5098 C5105 0.950 . S
C5099 C5097 1.387 . S
C5099 C5101 1.390 . S
C5099 H5103 0.950 . S
H5100 C5096 0.950 . S
C5101 C5099 1.390 . S
C5101 C5102 1.387 . S
C5101 H5104 0.950 . S
C5102 C5101 1.387 . S
C5102 C5105 1.387 . S
H5103 C5099 0.950 . S
H5104 C5101 0.950 . S
C5105 C5096 1.390 . S
C5105 H5098 0.950 . S
C5105 C5102 1.387 . S
C5106 C5107 1.387 . S
C5106 H5110 0.950 . S
C5106 C5115 1.390 . S
C5107 C5106 1.387 . S
C5107 C5109 1.387 . S
H5108 C5115 0.950 . S
C5109 C5107 1.387 . S
C5109 C5111 1.390 . S
C5109 H5113 0.950 . S
H5110 C5106 0.950 . S
C5111 C5109 1.390 . S
C5111 C5112 1.387 . S
C5111 H5114 0.950 . S
C5112 C5111 1.387 . S
C5112 C5115 1.387 . S
H5113 C5109 0.950 . S
H5114 C5111 0.950 . S
C5115 C5106 1.390 . S
C5115 H5108 0.950 . S
C5115 C5112 1.387 . S
C5116 C5117 1.387 . S
C5116 H5120 0.950 . S
C5116 C5125 1.390 . S
C5117 C5116 1.387 . S
C5117 C5119 1.387 . S
H5118 C5125 0.950 . S
C5119 C5117 1.387 . S
C5119 C5121 1.390 . S
C5119 H5123 0.950 . S
H5120 C5116 0.950 . S
C5121 C5119 1.390 . S
C5121 C5122 1.387 . S
C5121 H5124 0.950 . S
C5122 C5121 1.387 . S
C5122 C5125 1.387 . S
H5123 C5119 0.950 . S
H5124 C5121 0.950 . S
C5125 C5116 1.390 . S
C5125 H5118 0.950 . S
C5125 C5122 1.387 . S
C5126 C5127 1.387 . S
C5126 H5130 0.950 . S
C5126 C5135 1.390 . S
C5127 C5126 1.387 . S
C5127 C5129 1.387 . S
H5128 C5135 0.950 . S
C5129 C5127 1.387 . S
C5129 C5131 1.390 . S
C5129 H5133 0.950 . S
H5130 C5126 0.950 . S
C5131 C5129 1.390 . S
C5131 C5132 1.387 . S
C5131 H5134 0.950 . S
C5132 C5131 1.387 . S
C5132 C5135 1.387 . S
H5133 C5129 0.950 . S
H5134 C5131 0.950 . S
C5135 C5126 1.390 . S
C5135 H5128 0.950 . S
C5135 C5132 1.387 . S
C5136 C5137 1.387 . S
C5136 H5140 0.950 . S
C5136 C5145 1.390 . S
C5137 C5136 1.387 . S
C5137 C5139 1.387 . S
H5138 C5145 0.950 . S
C5139 C5137 1.387 . S
C5139 C5141 1.390 . S
C5139 H5143 0.950 . S
H5140 C5136 0.950 . S
C5141 C5139 1.390 . S
C5141 C5142 1.387 . S
C5141 H5144 0.950 . S
C5142 C5141 1.387 . S
C5142 C5145 1.387 . S
H5143 C5139 0.950 . S
H5144 C5141 0.950 . S
C5145 C5136 1.390 . S
C5145 H5138 0.950 . S
C5145 C5142 1.387 . S
C5146 C5147 1.387 . S
C5146 H5150 0.950 . S
C5146 C5155 1.390 . S
C5147 C5146 1.387 . S
C5147 C5149 1.387 . S
H5148 C5155 0.950 . S
C5149 C5147 1.387 . S
C5149 C5151 1.390 . S
C5149 H5153 0.950 . S
H5150 C5146 0.950 . S
C5151 C5149 1.390 . S
C5151 C5152 1.387 . S
C5151 H5154 0.950 . S
C5152 C5151 1.387 . S
C5152 C5155 1.387 . S
H5153 C5149 0.950 . S
H5154 C5151 0.950 . S
C5155 C5146 1.390 . S
C5155 H5148 0.950 . S
C5155 C5152 1.387 . S
C5156 C5157 1.387 . S
C5156 H5160 0.950 . S
C5156 C5165 1.390 . S
C5157 C5156 1.387 . S
C5157 C5159 1.387 . S
H5158 C5165 0.950 . S
C5159 C5157 1.387 . S
C5159 C5161 1.390 . S
C5159 H5163 0.950 . S
H5160 C5156 0.950 . S
C5161 C5159 1.390 . S
C5161 C5162 1.387 . S
C5161 H5164 0.950 . S
C5162 C5161 1.387 . S
C5162 C5165 1.387 . S
H5163 C5159 0.950 . S
H5164 C5161 0.950 . S
C5165 C5156 1.390 . S
C5165 H5158 0.950 . S
C5165 C5162 1.387 . S
C5166 C5167 1.387 . S
C5166 H5170 0.950 . S
C5166 C5175 1.390 . S
C5167 C5166 1.387 . S
C5167 C5169 1.387 . S
H5168 C5175 0.950 . S
C5169 C5167 1.387 . S
C5169 C5171 1.390 . S
C5169 H5173 0.950 . S
H5170 C5166 0.950 . S
C5171 C5169 1.390 . S
C5171 C5172 1.387 . S
C5171 H5174 0.950 . S
C5172 C5171 1.387 . S
C5172 C5175 1.387 . S
H5173 C5169 0.950 . S
H5174 C5171 0.950 . S
C5175 C5166 1.390 . S
C5175 H5168 0.950 . S
C5175 C5172 1.387 . S
C5176 C5177 1.387 . S
C5176 H5180 0.950 . S
C5176 C5185 1.390 . S
C5177 C5176 1.387 . S
C5177 C5179 1.387 . S
H5178 C5185 0.950 . S
C5179 C5177 1.387 . S
C5179 C5181 1.390 . S
C5179 H5183 0.950 . S
H5180 C5176 0.950 . S
C5181 C5179 1.390 . S
C5181 C5182 1.387 . S
C5181 H5184 0.950 . S
C5182 C5181 1.387 . S
C5182 C5185 1.387 . S
H5183 C5179 0.950 . S
H5184 C5181 0.950 . S
C5185 C5176 1.390 . S
C5185 H5178 0.950 . S
C5185 C5182 1.387 . S
C5186 C5187 1.387 . S
C5186 H5190 0.950 . S
C5186 C5195 1.390 . S
C5187 C5186 1.387 . S
C5187 C5189 1.387 . S
H5188 C5195 0.950 . S
C5189 C5187 1.387 . S
C5189 C5191 1.390 . S
C5189 H5193 0.950 . S
H5190 C5186 0.950 . S
C5191 C5189 1.390 . S
C5191 C5192 1.387 . S
C5191 H5194 0.950 . S
C5192 C5191 1.387 . S
C5192 C5195 1.387 . S
H5193 C5189 0.950 . S
H5194 C5191 0.950 . S
C5195 C5186 1.390 . S
C5195 H5188 0.950 . S
C5195 C5192 1.387 . S
C5196 C5197 1.387 . S
C5196 H5200 0.950 . S
C5196 C5205 1.390 . S
C5197 C5196 1.387 . S
C5197 C5199 1.387 . S
H5198 C5205 0.950 . S
C5199 C5197 1.387 . S
C5199 C5201 1.390 . S
C5199 H5203 0.950 . S
H5200 C5196 0.950 . S
C5201 C5199 1.390 . S
C5201 C5202 1.387 . S
C5201 H5204 0.950 . S
C5202 C5201 1.387 . S
C5202 C5205 1.387 . S
H5203 C5199 0.950 . S
H5204 C5201 0.950 . S
C5205 C5196 1.390 . S
C5205 H5198 0.950 . S
C5205 C5202 1.387 . S
C5206 C5207 1.387 . S
C5206 H5210 0.950 . S
C5206 C5215 1.390 . S
C5207 C5206 1.387 . S
C5207 C5209 1.387 . S
H5208 C5215 0.950 . S
C5209 C5207 1.387 . S
C5209 C5211 1.390 . S
C5209 H5213 0.950 . S
H5210 C5206 0.950 . S
C5211 C5209 1.390 . S
C5211 C5212 1.387 . S
C5211 H5214 0.950 . S
C5212 C5211 1.387 . S
C5212 C5215 1.387 . S
H5213 C5209 0.950 . S
H5214 C5211 0.950 . S
C5215 C5206 1.390 . S
C5215 H5208 0.950 . S
C5215 C5212 1.387 . S
C5216 C5217 1.387 . S
C5216 H5220 0.950 . S
C5216 C5225 1.390 . S
C5217 C5216 1.387 . S
C5217 C5219 1.387 . S
H5218 C5225 0.950 . S
C5219 C5217 1.387 . S
C5219 C5221 1.390 . S
C5219 H5223 0.950 . S
H5220 C5216 0.950 . S
C5221 C5219 1.390 . S
C5221 C5222 1.387 . S
C5221 H5224 0.950 . S
C5222 C5221 1.387 . S
C5222 C5225 1.387 . S
H5223 C5219 0.950 . S
H5224 C5221 0.950 . S
C5225 C5216 1.390 . S
C5225 H5218 0.950 . S
C5225 C5222 1.387 . S
C5226 C5227 1.387 . S
C5226 H5230 0.950 . S
C5226 C5235 1.390 . S
C5227 C5226 1.387 . S
C5227 C5229 1.387 . S
H5228 C5235 0.950 . S
C5229 C5227 1.387 . S
C5229 C5231 1.390 . S
C5229 H5233 0.950 . S
H5230 C5226 0.950 . S
C5231 C5229 1.390 . S
C5231 C5232 1.387 . S
C5231 H5234 0.950 . S
C5232 C5231 1.387 . S
C5232 C5235 1.387 . S
H5233 C5229 0.950 . S
H5234 C5231 0.950 . S
C5235 C5226 1.390 . S
C5235 H5228 0.950 . S
C5235 C5232 1.387 . S
C5236 C5237 1.387 . S
C5236 H5240 0.950 . S
C5236 C5245 1.390 . S
C5237 C5236 1.387 . S
C5237 C5239 1.387 . S
H5238 C5245 0.950 . S
C5239 C5237 1.387 . S
C5239 C5241 1.390 . S
C5239 H5243 0.950 . S
H5240 C5236 0.950 . S
C5241 C5239 1.390 . S
C5241 C5242 1.387 . S
C5241 H5244 0.950 . S
C5242 C5241 1.387 . S
C5242 C5245 1.387 . S
H5243 C5239 0.950 . S
H5244 C5241 0.950 . S
C5245 C5236 1.390 . S
C5245 H5238 0.950 . S
C5245 C5242 1.387 . S
C5246 C5247 1.387 . S
C5246 H5250 0.950 . S
C5246 C5255 1.390 . S
C5247 C5246 1.387 . S
C5247 C5249 1.387 . S
H5248 C5255 0.950 . S
C5249 C5247 1.387 . S
C5249 C5251 1.390 . S
C5249 H5253 0.950 . S
H5250 C5246 0.950 . S
C5251 C5249 1.390 . S
C5251 C5252 1.387 . S
C5251 H5254 0.950 . S
C5252 C5251 1.387 . S
C5252 C5255 1.387 . S
H5253 C5249 0.950 . S
H5254 C5251 0.950 . S
C5255 C5246 1.390 . S
C5255 H5248 0.950 . S
C5255 C5252 1.387 . S
C5256 C5257 1.387 . S
C5256 H5260 0.950 . S
C5256 C5265 1.390 . S
C5257 C5256 1.387 . S
C5257 C5259 1.387 . S
H5258 C5265 0.950 . S
C5259 C5257 1.387 . S
C5259 C5261 1.390 . S
C5259 H5263 0.950 . S
H5260 C5256 0.950 . S
C5261 C5259 1.390 . S
C5261 C5262 1.387 . S
C5261 H5264 0.950 . S
C5262 C5261 1.387 . S
C5262 C5265 1.387 . S
H5263 C5259 0.950 . S
H5264 C5261 0.950 . S
C5265 C5256 1.390 . S
C5265 H5258 0.950 . S
C5265 C5262 1.387 . S
C5266 C5267 1.387 . S
C5266 H5270 0.950 . S
C5266 C5275 1.390 . S
C5267 C5266 1.387 . S
C5267 C5269 1.387 . S
H5268 C5275 0.950 . S
C5269 C5267 1.387 . S
C5269 C5271 1.390 . S
C5269 H5273 0.950 . S
H5270 C5266 0.950 . S
C5271 C5269 1.390 . S
C5271 C5272 1.387 . S
C5271 H5274 0.950 . S
C5272 C5271 1.387 . S
C5272 C5275 1.387 . S
H5273 C5269 0.950 . S
H5274 C5271 0.950 . S
C5275 C5266 1.390 . S
C5275 H5268 0.950 . S
C5275 C5272 1.387 . S
C5276 C5277 1.387 . S
C5276 H5280 0.950 . S
C5276 C5285 1.390 . S
C5277 C5276 1.387 . S
C5277 C5279 1.387 . S
H5278 C5285 0.950 . S
C5279 C5277 1.387 . S
C5279 C5281 1.390 . S
C5279 H5283 0.950 . S
H5280 C5276 0.950 . S
C5281 C5279 1.390 . S
C5281 C5282 1.387 . S
C5281 H5284 0.950 . S
C5282 C5281 1.387 . S
C5282 C5285 1.387 . S
H5283 C5279 0.950 . S
H5284 C5281 0.950 . S
C5285 C5276 1.390 . S
C5285 H5278 0.950 . S
C5285 C5282 1.387 . S
C5286 C5287 1.387 . S
C5286 H5290 0.950 . S
C5286 C5295 1.390 . S
C5287 C5286 1.387 . S
C5287 C5289 1.387 . S
H5288 C5295 0.950 . S
C5289 C5287 1.387 . S
C5289 C5291 1.390 . S
C5289 H5293 0.950 . S
H5290 C5286 0.950 . S
C5291 C5289 1.390 . S
C5291 C5292 1.387 . S
C5291 H5294 0.950 . S
C5292 C5291 1.387 . S
C5292 C5295 1.387 . S
H5293 C5289 0.950 . S
H5294 C5291 0.950 . S
C5295 C5286 1.390 . S
C5295 H5288 0.950 . S
C5295 C5292 1.387 . S
C5296 C5297 1.387 . S
C5296 H5300 0.950 . S
C5296 C5305 1.390 . S
C5297 C5296 1.387 . S
C5297 C5299 1.387 . S
H5298 C5305 0.950 . S
C5299 C5297 1.387 . S
C5299 C5301 1.390 . S
C5299 H5303 0.950 . S
H5300 C5296 0.950 . S
C5301 C5299 1.390 . S
C5301 C5302 1.387 . S
C5301 H5304 0.950 . S
C5302 C5301 1.387 . S
C5302 C5305 1.387 . S
H5303 C5299 0.950 . S
H5304 C5301 0.950 . S
C5305 C5296 1.390 . S
C5305 H5298 0.950 . S
C5305 C5302 1.387 . S
C5306 C5307 1.387 . S
C5306 H5310 0.950 . S
C5306 C5315 1.390 . S
C5307 C5306 1.387 . S
C5307 C5309 1.387 . S
H5308 C5315 0.950 . S
C5309 C5307 1.387 . S
C5309 C5311 1.390 . S
C5309 H5313 0.950 . S
H5310 C5306 0.950 . S
C5311 C5309 1.390 . S
C5311 C5312 1.387 . S
C5311 H5314 0.950 . S
C5312 C5311 1.387 . S
C5312 C5315 1.387 . S
H5313 C5309 0.950 . S
H5314 C5311 0.950 . S
C5315 C5306 1.390 . S
C5315 H5308 0.950 . S
C5315 C5312 1.387 . S
C5316 C5317 1.387 . S
C5316 H5320 0.950 . S
C5316 C5325 1.390 . S
C5317 C5316 1.387 . S
C5317 C5319 1.387 . S
H5318 C5325 0.950 . S
C5319 C5317 1.387 . S
C5319 C5321 1.390 . S
C5319 H5323 0.950 . S
H5320 C5316 0.950 . S
C5321 C5319 1.390 . S
C5321 C5322 1.387 . S
C5321 H5324 0.950 . S
C5322 C5321 1.387 . S
C5322 C5325 1.387 . S
H5323 C5319 0.950 . S
H5324 C5321 0.950 . S
C5325 C5316 1.390 . S
C5325 H5318 0.950 . S
C5325 C5322 1.387 . S
C5326 C5327 1.387 . S
C5326 H5330 0.950 . S
C5326 C5335 1.390 . S
C5327 C5326 1.387 . S
C5327 C5329 1.387 . S
H5328 C5335 0.950 . S
C5329 C5327 1.387 . S
C5329 C5331 1.390 . S
C5329 H5333 0.950 . S
H5330 C5326 0.950 . S
C5331 C5329 1.390 . S
C5331 C5332 1.387 . S
C5331 H5334 0.950 . S
C5332 C5331 1.387 . S
C5332 C5335 1.387 . S
H5333 C5329 0.950 . S
H5334 C5331 0.950 . S
C5335 C5326 1.390 . S
C5335 H5328 0.950 . S
C5335 C5332 1.387 . S
C5336 C5337 1.387 . S
C5336 H5340 0.950 . S
C5336 C5345 1.390 . S
C5337 C5336 1.387 . S
C5337 C5339 1.387 . S
H5338 C5345 0.950 . S
C5339 C5337 1.387 . S
C5339 C5341 1.390 . S
C5339 H5343 0.950 . S
H5340 C5336 0.950 . S
C5341 C5339 1.390 . S
C5341 C5342 1.387 . S
C5341 H5344 0.950 . S
C5342 C5341 1.387 . S
C5342 C5345 1.387 . S
H5343 C5339 0.950 . S
H5344 C5341 0.950 . S
C5345 C5336 1.390 . S
C5345 H5338 0.950 . S
C5345 C5342 1.387 . S
C5346 C5347 1.387 . S
C5346 H5350 0.950 . S
C5346 C5355 1.390 . S
C5347 C5346 1.387 . S
C5347 C5349 1.387 . S
H5348 C5355 0.950 . S
C5349 C5347 1.387 . S
C5349 C5351 1.390 . S
C5349 H5353 0.950 . S
H5350 C5346 0.950 . S
C5351 C5349 1.390 . S
C5351 C5352 1.387 . S
C5351 H5354 0.950 . S
C5352 C5351 1.387 . S
C5352 C5355 1.387 . S
H5353 C5349 0.950 . S
H5354 C5351 0.950 . S
C5355 C5346 1.390 . S
C5355 H5348 0.950 . S
C5355 C5352 1.387 . S
C5356 C5357 1.387 . S
C5356 H5360 0.950 . S
C5356 C5365 1.390 . S
C5357 C5356 1.387 . S
C5357 C5359 1.387 . S
H5358 C5365 0.950 . S
C5359 C5357 1.387 . S
C5359 C5361 1.390 . S
C5359 H5363 0.950 . S
H5360 C5356 0.950 . S
C5361 C5359 1.390 . S
C5361 C5362 1.387 . S
C5361 H5364 0.950 . S
C5362 C5361 1.387 . S
C5362 C5365 1.387 . S
H5363 C5359 0.950 . S
H5364 C5361 0.950 . S
C5365 C5356 1.390 . S
C5365 H5358 0.950 . S
C5365 C5362 1.387 . S
C5366 C5367 1.387 . S
C5366 H5370 0.950 . S
C5366 C5375 1.390 . S
C5367 C5366 1.387 . S
C5367 C5369 1.387 . S
H5368 C5375 0.950 . S
C5369 C5367 1.387 . S
C5369 C5371 1.390 . S
C5369 H5373 0.950 . S
H5370 C5366 0.950 . S
C5371 C5369 1.390 . S
C5371 C5372 1.387 . S
C5371 H5374 0.950 . S
C5372 C5371 1.387 . S
C5372 C5375 1.387 . S
H5373 C5369 0.950 . S
H5374 C5371 0.950 . S
C5375 C5366 1.390 . S
C5375 H5368 0.950 . S
C5375 C5372 1.387 . S
C3457 C4 1.583 . S
C3462 C2452 1.583 . S
C3467 C2344 1.584 . S
C3472 C40 1.585 . S
C3477 C2380 1.584 . S
C3482 C76 1.583 . S
C3487 C112 1.585 . S
C3492 C2416 1.583 . S
C3497 C2560 1.583 . S
C3502 C148 1.583 . S
C3507 C2488 1.584 . S
C3512 C184 1.585 . S
C3517 C2524 1.583 . S
C3522 C220 1.584 . S
C3527 C256 1.584 . S
C3532 C2308 1.585 . S
C3537 C292 1.583 . S
C3542 C2272 1.584 . S
C3547 C328 1.583 . S
C3552 C2164 1.585 . S
C3557 C364 1.583 . S
C3562 C2200 1.583 . S
C3567 C400 1.584 . S
C3572 C2236 1.583 . S
C3577 C436 1.583 . S
C3582 C2056 1.584 . S
C3587 C2092 1.585 . S
C3592 C472 1.584 . S
C3597 C2128 1.584 . S
C3602 C508 1.585 . S
C3607 C544 1.584 . S
C3612 C2020 1.585 . S
C3617 C580 1.583 . S
C3622 C1984 1.585 . S
C3627 C616 1.584 . S
C3632 C1768 1.585 . S
C3637 C1804 1.585 . S
C3642 C652 1.584 . S
C3647 C1840 1.584 . S
C3652 C688 1.585 . S
C3657 C1732 1.585 . S
C3662 C724 1.584 . S
C3667 C760 1.583 . S
C3672 C1912 1.583 . S
C3677 C796 1.583 . S
C3682 C1948 1.584 . S
C3687 C832 1.583 . S
C3692 C1876 1.585 . S
C3697 C868 1.585 . S
C3702 C3316 1.583 . S
C3707 C904 1.583 . S
C3712 C3208 1.583 . S
C3717 C940 1.584 . S
C3722 C3244 1.585 . S
C3727 C976 1.585 . S
C3732 C3280 1.583 . S
C3737 C1012 1.584 . S
C3742 C3424 1.583 . S
C3747 C1048 1.583 . S
C3752 C3352 1.585 . S
C3757 C3388 1.585 . S
C3762 C1084 1.583 . S
C3767 C1120 1.583 . S
C3772 C3172 1.583 . S
C3777 C1156 1.583 . S
C3782 C3136 1.584 . S
C3787 C3028 1.583 . S
C3792 C1192 1.584 . S
C3797 C1228 1.583 . S
C3802 C3064 1.584 . S
C3807 C1264 1.584 . S
C3812 C3100 1.585 . S
C3817 C1300 1.585 . S
C3822 C2920 1.584 . S
C3827 C1336 1.584 . S
C3832 C2956 1.583 . S
C3837 C1372 1.583 . S
C3842 C2992 1.584 . S
C3847 C2884 1.583 . S
C3852 C1408 1.584 . S
C3857 C1444 1.583 . S
C3862 C2848 1.584 . S
C3867 C1480 1.583 . S
C3872 C2632 1.583 . S
C3877 C1516 1.583 . S
C3882 C2668 1.585 . S
C3887 C2704 1.583 . S
C3892 C1552 1.583 . S
C3897 C1588 1.585 . S
C3902 C2596 1.584 . S
C3907 C2776 1.583 . S
C3912 C1624 1.583 . S
C3917 C1660 1.583 . S
C3922 C2812 1.584 . S
C3927 C1696 1.584 . S
C3932 C2740 1.585 . S
C3937 C2 1.489 . S
C3942 C1406 1.487 . S
C3947 C38 1.487 . S
C3952 C1298 1.489 . S
C3957 C1334 1.489 . S
C3962 C74 1.487 . S
C3967 C110 1.489 . S
C3972 C1370 1.487 . S
C3977 C1190 1.489 . S
C3982 C146 1.487 . S
C3987 C1226 1.487 . S
C3992 C182 1.489 . S
C3997 C1262 1.487 . S
C4002 C218 1.489 . S
C4007 C1154 1.489 . S
C4012 C254 1.487 . S
C4017 C1118 1.489 . S
C4022 C290 1.487 . S
C4027 C326 1.489 . S
C4032 C1010 1.487 . S
C4037 C1046 1.489 . S
C4042 C362 1.487 . S
C4047 C398 1.489 . S
C4052 C1082 1.487 . S
C4057 C902 1.487 . S
C4062 C434 1.489 . S
C4067 C938 1.489 . S
C4072 C470 1.487 . S
C4077 C506 1.487 . S
C4082 C974 1.489 . S
C4087 C542 1.487 . S
C4092 C866 1.489 . S
C4097 C578 1.487 . S
C4102 C1586 1.489 . S
C4107 C614 1.489 . S
C4112 C1694 1.487 . S
C4117 C1622 1.489 . S
C4122 C650 1.487 . S
C4127 C1658 1.489 . S
C4132 C686 1.487 . S
C4137 C722 1.489 . S
C4142 C1442 1.487 . S
C4147 C758 1.489 . S
C4152 C1514 1.487 . S
C4157 C1550 1.489 . S
C4162 C794 1.487 . S
C4167 C830 1.487 . S
C4172 C1478 1.489 . S
C4177 C3134 1.487 . S
C4182 C1730 1.489 . S
C4187 C3026 1.489 . S
C4192 C1766 1.487 . S
C4197 C3062 1.487 . S
C4202 C1802 1.489 . S
C4207 C1838 1.487 . S
C4212 C3098 1.489 . S
C4217 C2918 1.489 . S
C4222 C1874 1.487 . S
C4227 C2954 1.487 . S
C4232 C1910 1.489 . S
C4237 C1946 1.489 . S
C4242 C2990 1.487 . S
C4247 C1982 1.487 . S
C4252 C2882 1.489 . S
C4257 C2846 1.487 . S
C4262 C2018 1.489 . S
C4267 C2054 1.489 . S
C4272 C2738 1.487 . S
C4277 C2774 1.487 . S
C4282 C2090 1.489 . S
C4287 C2810 1.487 . S
C4292 C2126 1.489 . S
C4297 C2162 1.487 . S
C4302 C2630 1.489 . S
C4307 C2198 1.489 . S
C4312 C2666 1.487 . S
C4317 C2702 1.489 . S
C4322 C2234 1.487 . S
C4327 C2270 1.489 . S
C4332 C2594 1.487 . S
C4337 C3314 1.489 . S
C4342 C2306 1.487 . S
C4347 C3422 1.489 . S
C4352 C2342 1.487 . S
C4357 C2378 1.487 . S
C4362 C3350 1.489 . S
C4367 C3386 1.487 . S
C4372 C2414 1.489 . S
C4377 C3170 1.489 . S
C4382 C2450 1.487 . S
C4387 C3242 1.489 . S
C4392 C2486 1.487 . S
C4397 C2522 1.487 . S
C4402 C3278 1.489 . S
C4407 C3206 1.487 . S
C4412 C2558 1.489 . S
C4417 C3 1.340 . S
C4422 C1011 1.341 . S
C4427 C1047 1.339 . S
C4432 C39 1.341 . S
C4437 C75 1.341 . S
C4442 C1083 1.340 . S
C4447 C1119 1.341 . S
C4452 C111 1.339 . S
C4457 C147 1.340 . S
C4462 C867 1.340 . S
C4467 C183 1.339 . S
C4472 C903 1.341 . S
C4477 C219 1.340 . S
C4482 C939 1.341 . S
C4487 C975 1.339 . S
C4492 C255 1.341 . S
C4497 C1371 1.340 . S
C4502 C291 1.340 . S
C4507 C327 1.341 . S
C4512 C1407 1.340 . S
C4517 C363 1.341 . S
C4522 C1299 1.340 . S
C4527 C399 1.340 . S
C4532 C1335 1.341 . S
C4537 C435 1.340 . S
C4542 C1227 1.340 . S
C4547 C471 1.340 . S
C4552 C1263 1.340 . S
C4557 C507 1.340 . S
C4562 C1155 1.340 . S
C4567 C543 1.340 . S
C4572 C1191 1.341 . S
C4577 C579 1.341 . S
C4582 C1623 1.339 . S
C4587 C615 1.340 . S
C4592 C1551 1.341 . S
C4597 C1587 1.340 . S
C4602 C651 1.340 . S
C4607 C687 1.339 . S
C4612 C1479 1.341 . S
C4617 C1515 1.341 . S
C4622 C723 1.340 . S
C4627 C759 1.341 . S
C4632 C1443 1.340 . S
C4637 C795 1.341 . S
C4642 C1695 1.340 . S
C4647 C1659 1.340 . S
C4652 C831 1.340 . S
C4657 C2739 1.341 . S
C4662 C1731 1.339 . S
C4667 C1767 1.339 . S
C4672 C2775 1.341 . S
C4677 C2811 1.340 . S
C4682 C1803 1.341 . S
C4687 C1839 1.339 . S
C4692 C2847 1.341 . S
C4697 C2595 1.340 . S
C4702 C1875 1.341 . S
C4707 C2631 1.341 . S
C4712 C1911 1.339 . S
C4717 C2667 1.341 . S
C4722 C1947 1.339 . S
C4727 C1983 1.339 . S
C4732 C2703 1.341 . S
C4737 C2019 1.341 . S
C4742 C3099 1.340 . S
C4747 C3135 1.340 . S
C4752 C2055 1.340 . S
C4757 C3027 1.340 . S
C4762 C2091 1.341 . S
C4767 C3063 1.341 . S
C4772 C2127 1.339 . S
C4777 C2163 1.339 . S
C4782 C2955 1.341 . S
C4787 C2199 1.340 . S
C4792 C2991 1.340 . S
C4797 C2883 1.340 . S
C4802 C2235 1.340 . S
C4807 C2919 1.341 . S
C4812 C2271 1.340 . S
C4817 C3351 1.341 . S
C4822 C2307 1.339 . S
C4827 C2343 1.340 . S
C4832 C3279 1.341 . S
C4837 C3315 1.340 . S
C4842 C2379 1.340 . S
C4847 C2415 1.339 . S
C4852 C3207 1.341 . S
C4857 C2451 1.340 . S
C4862 C3243 1.340 . S
C4867 C2487 1.341 . S
C4872 C3171 1.339 . S
C4877 C3423 1.340 . S
C4882 C2523 1.341 . S
C4887 C2559 1.340 . S
C4892 C3387 1.340 . S
C4897 C1130 1.208 . S
C4902 C14 1.213 . S
C4907 C1022 1.213 . S
C4912 C50 1.208 . S
C4917 C86 1.208 . S
C4922 C1058 1.213 . S
C4927 C1094 1.213 . S
C4932 C122 1.208 . S
C4937 C914 1.213 . S
C4942 C158 1.208 . S
C4947 C194 1.213 . S
C4952 C950 1.208 . S
C4957 C230 1.208 . S
C4962 C986 1.213 . S
C4967 C878 1.213 . S
C4972 C266 1.208 . S
C4977 C1598 1.208 . S
C4982 C302 1.213 . S
C4987 C338 1.208 . S
C4992 C1490 1.213 . S
C4997 C374 1.208 . S
C5002 C1526 1.213 . S
C5007 C1562 1.213 . S
C5012 C410 1.208 . S
C5017 C446 1.208 . S
C5022 C1706 1.213 . S
C5027 C1634 1.213 . S
C5032 C482 1.208 . S
C5037 C1670 1.213 . S
C5042 C518 1.208 . S
C5047 C554 1.213 . S
C5052 C1454 1.208 . S
C5057 C590 1.213 . S
C5062 C1418 1.208 . S
C5067 C626 1.208 . S
C5072 C1202 1.213 . S
C5077 C662 1.208 . S
C5082 C1238 1.213 . S
C5087 C1274 1.208 . S
C5092 C698 1.213 . S
C5097 C1166 1.208 . S
C5102 C734 1.213 . S
C5107 C770 1.208 . S
C5112 C1346 1.213 . S
C5117 C806 1.213 . S
C5122 C1382 1.208 . S
C5127 C842 1.213 . S
C5132 C1310 1.208 . S
C5137 C1742 1.208 . S
C5142 C2858 1.213 . S
C5147 C1778 1.213 . S
C5152 C2750 1.208 . S
C5157 C1814 1.208 . S
C5162 C2786 1.213 . S
C5167 C2822 1.208 . S
C5172 C1850 1.213 . S
C5177 C2642 1.208 . S
C5182 C1886 1.213 . S
C5187 C2678 1.213 . S
C5192 C1922 1.208 . S
C5197 C1958 1.213 . S
C5202 C2714 1.208 . S
C5207 C2606 1.213 . S
C5212 C1994 1.208 . S
C5217 C3326 1.213 . S
C5222 C2030 1.208 . S
C5227 C3218 1.213 . S
C5232 C2066 1.208 . S
C5237 C3254 1.213 . S
C5242 C2102 1.208 . S
C5247 C3290 1.213 . S
C5252 C2138 1.208 . S
C5257 C3434 1.208 . S
C5262 C2174 1.213 . S
C5267 C3362 1.208 . S
C5272 C2210 1.213 . S
C5277 C3398 1.213 . S
C5282 C2246 1.208 . S
C5287 C3182 1.208 . S
C5292 C2282 1.213 . S
C5297 C2318 1.208 . S
C5302 C3146 1.213 . S
C5307 C2930 1.213 . S
C5312 C2354 1.208 . S
C5317 C2966 1.213 . S
C5322 C2390 1.208 . S
C5327 C3002 1.213 . S
C5332 C2426 1.208 . S
C5337 C2894 1.208 . S
C5342 C2462 1.213 . S
C5347 C3074 1.213 . S
C5352 C2498 1.208 . S
C5357 C3110 1.213 . S
C5362 C2534 1.208 . S
C5367 C3038 1.213 . S
C5372 C2570 1.208 . S
