# Generated by pormake.
# Topology ung, (4)-cn, num edge types: 1
# Building blocks:
#     Node 0, Type 0, BuildingBlock: QUQFOY_clean_sbu_1, # of connection points: 4
#     Node 1, Type 0, BuildingBlock: QUQFOY_clean_sbu_1, # of connection points: 4
#     Node 2, Type 0, BuildingBlock: QUQFOY_clean_sbu_1, # of connection points: 4
#     Node 3, Type 0, BuildingBlock: QUQFOY_clean_sbu_1, # of connection points: 4
#     Node 4, Type 0, BuildingBlock: QUQFOY_clean_sbu_1, # of connection points: 4
#     Node 5, Type 0, BuildingBlock: QUQFOY_clean_sbu_1, # of connection points: 4
#     Node 6, Type 0, BuildingBlock: QUQFOY_clean_sbu_1, # of connection points: 4
#     Node 7, Type 0, BuildingBlock: QUQFOY_clean_sbu_1, # of connection points: 4
#     Node 8, Type 0, BuildingBlock: QUQFOY_clean_sbu_1, # of connection points: 4
#     Node 9, Type 0, BuildingBlock: QUQFOY_clean_sbu_1, # of connection points: 4
#     Node 10, Type 0, BuildingBlock: QUQFOY_clean_sbu_1, # of connection points: 4
#     Node 11, Type 0, BuildingBlock: QUQFOY_clean_sbu_1, # of connection points: 4
#     Node 12, Type 0, BuildingBlock: QUQFOY_clean_sbu_1, # of connection points: 4
#     Node 13, Type 0, BuildingBlock: QUQFOY_clean_sbu_1, # of connection points: 4
#     Node 14, Type 0, BuildingBlock: QUQFOY_clean_sbu_1, # of connection points: 4
#     Node 15, Type 0, BuildingBlock: QUQFOY_clean_sbu_1, # of connection points: 4
#     Node 16, Type 0, BuildingBlock: QUQFOY_clean_sbu_1, # of connection points: 4
#     Node 17, Type 0, BuildingBlock: QUQFOY_clean_sbu_1, # of connection points: 4
#     Edge 18, Type (0, 0), BuildingBlock: CIFDUS_clean_linker_0, # of connection points: 2
#     Edge 19, Type (0, 0), BuildingBlock: CIFDUS_clean_linker_0, # of connection points: 2
#     Edge 20, Type (0, 0), BuildingBlock: CIFDUS_clean_linker_0, # of connection points: 2
#     Edge 21, Type (0, 0), BuildingBlock: CIFDUS_clean_linker_0, # of connection points: 2
#     Edge 22, Type (0, 0), BuildingBlock: CIFDUS_clean_linker_0, # of connection points: 2
#     Edge 23, Type (0, 0), BuildingBlock: CIFDUS_clean_linker_0, # of connection points: 2
#     Edge 24, Type (0, 0), BuildingBlock: CIFDUS_clean_linker_0, # of connection points: 2
#     Edge 25, Type (0, 0), BuildingBlock: CIFDUS_clean_linker_0, # of connection points: 2
#     Edge 26, Type (0, 0), BuildingBlock: CIFDUS_clean_linker_0, # of connection points: 2
#     Edge 27, Type (0, 0), BuildingBlock: CIFDUS_clean_linker_0, # of connection points: 2
#     Edge 28, Type (0, 0), BuildingBlock: CIFDUS_clean_linker_0, # of connection points: 2
#     Edge 29, Type (0, 0), BuildingBlock: CIFDUS_clean_linker_0, # of connection points: 2
#     Edge 30, Type (0, 0), BuildingBlock: CIFDUS_clean_linker_0, # of connection points: 2
#     Edge 31, Type (0, 0), BuildingBlock: CIFDUS_clean_linker_0, # of connection points: 2
#     Edge 32, Type (0, 0), BuildingBlock: CIFDUS_clean_linker_0, # of connection points: 2
#     Edge 33, Type (0, 0), BuildingBlock: CIFDUS_clean_linker_0, # of connection points: 2
#     Edge 34, Type (0, 0), BuildingBlock: CIFDUS_clean_linker_0, # of connection points: 2
#     Edge 35, Type (0, 0), BuildingBlock: CIFDUS_clean_linker_0, # of connection points: 2
#     Edge 36, Type (0, 0), BuildingBlock: CIFDUS_clean_linker_0, # of connection points: 2
#     Edge 37, Type (0, 0), BuildingBlock: CIFDUS_clean_linker_0, # of connection points: 2
#     Edge 38, Type (0, 0), BuildingBlock: CIFDUS_clean_linker_0, # of connection points: 2
#     Edge 39, Type (0, 0), BuildingBlock: CIFDUS_clean_linker_0, # of connection points: 2
#     Edge 40, Type (0, 0), BuildingBlock: CIFDUS_clean_linker_0, # of connection points: 2
#     Edge 41, Type (0, 0), BuildingBlock: CIFDUS_clean_linker_0, # of connection points: 2
#     Edge 42, Type (0, 0), BuildingBlock: CIFDUS_clean_linker_0, # of connection points: 2
#     Edge 43, Type (0, 0), BuildingBlock: CIFDUS_clean_linker_0, # of connection points: 2
#     Edge 44, Type (0, 0), BuildingBlock: CIFDUS_clean_linker_0, # of connection points: 2
#     Edge 45, Type (0, 0), BuildingBlock: CIFDUS_clean_linker_0, # of connection points: 2
#     Edge 46, Type (0, 0), BuildingBlock: CIFDUS_clean_linker_0, # of connection points: 2
#     Edge 47, Type (0, 0), BuildingBlock: CIFDUS_clean_linker_0, # of connection points: 2
#     Edge 48, Type (0, 0), BuildingBlock: CIFDUS_clean_linker_0, # of connection points: 2
#     Edge 49, Type (0, 0), BuildingBlock: CIFDUS_clean_linker_0, # of connection points: 2
#     Edge 50, Type (0, 0), BuildingBlock: CIFDUS_clean_linker_0, # of connection points: 2
#     Edge 51, Type (0, 0), BuildingBlock: CIFDUS_clean_linker_0, # of connection points: 2
#     Edge 52, Type (0, 0), BuildingBlock: CIFDUS_clean_linker_0, # of connection points: 2
#     Edge 53, Type (0, 0), BuildingBlock: CIFDUS_clean_linker_0, # of connection points: 2
# Relax obj value: 0.073
# Max RMSD: 0.177
# Mean RMSD: 0.149
data_MOF--net-ung--node1-QUQFOY_clean_sbu_1--edge1-CIFDUS_clean_linker_0
_symmetry_space_group_name_H-M    P1
_symmetry_Int_Tables_number       1
_symmetry_cell_setting            triclinic
loop_
_symmetry_equiv_pos_as_xyz
'x, y, z'
_cell_length_a     61.829264
_cell_length_b     73.379015
_cell_length_c     19.7407
_cell_angle_alpha  90.798157
_cell_angle_beta   94.316124
_cell_angle_gamma 124.84214
loop_
_atom_site_label
_atom_site_type_symbol
_atom_site_fract_x
_atom_site_fract_y
_atom_site_fract_z
_atom_type_partial_charge
O0 O 0.04712 0.57053 0.33265 0.0
Cd1 Cd 0.05144 0.5908 0.25621 0.0
Cd2 Cd 0.00842 0.58393 0.30721 0.0
O3 O 1.0057 0.55684 0.34952 0.0
O4 O 0.07036 0.5863 0.18581 0.0
O5 O 0.02835 0.57423 0.16991 0.0
C6 C 0.04793 0.5749 0.14842 0.0
C7 C 0.97796 0.5837 0.2279 0.0
C8 C 0.02623 0.5567 0.36026 0.0
C9 C 0.06034 0.62882 0.33773 0.0
O10 O 0.03764 0.61428 0.35619 0.0
O11 O 0.06907 0.62418 0.28858 0.0
O12 O 0.97454 0.58235 0.29194 0.0
O13 O 0.99772 0.58404 0.2094 0.0
O14 O 0.46173 0.48051 0.31201 0.0
Cd15 Cd 0.43813 0.46201 0.2259 0.0
Cd16 Cd 0.44987 0.43495 0.27495 0.0
O17 O 0.48097 0.46316 0.33231 0.0
O18 O 0.44472 0.4839 0.15642 0.0
O19 O 0.45684 0.46079 0.15039 0.0
C20 C 0.45744 0.47738 0.12705 0.0
C21 C 0.45125 0.40886 0.20832 0.0
C22 C 0.47906 0.47922 0.34579 0.0
C23 C 0.39596 0.42548 0.29146 0.0
O24 O 0.41426 0.42326 0.31192 0.0
O25 O 0.39926 0.43833 0.24448 0.0
O26 O 0.45332 0.4092 0.27401 0.0
O27 O 0.45004 0.42412 0.18093 0.0
O28 O 0.57142 0.0205 0.21078 0.0
Cd29 Cd 0.59388 0.02603 0.29994 0.0
Cd30 Cd 0.58607 0.98959 0.24897 0.0
O31 O 0.55375 0.98478 0.1902 0.0
O32 O 0.58876 0.04532 0.35971 0.0
O33 O 0.57349 0.01044 0.3785 0.0
C34 C 0.57459 0.02812 0.39397 0.0
C35 C 0.58816 0.96702 0.32782 0.0
C36 C 0.55505 1.00226 0.17587 0.0
C37 C 0.63814 0.03298 0.23632 0.0
O38 O 0.62092 0.01325 0.21135 0.0
O39 O 0.63338 0.04103 0.28598 0.0
O40 O 0.58591 0.96242 0.2631 0.0
O41 O 0.5875 0.98357 0.34715 0.0
O42 O 0.06611 0.50125 0.82651 0.0
Cd43 Cd 0.06396 0.48288 0.74299 0.0
Cd44 Cd 0.02381 0.45115 0.80476 0.0
O45 O 0.02508 0.47753 0.85136 0.0
O46 O 0.08293 0.50444 0.6715 0.0
O47 O 0.03957 0.47979 0.66309 0.0
C48 C 0.06001 0.49636 0.63877 0.0
C49 C 0.99092 0.42282 0.72552 0.0
C50 C 0.04697 0.49678 0.85977 0.0
C51 C 0.07254 0.45188 0.81258 0.0
O52 O 0.05274 0.44718 0.84314 0.0
O53 O 0.07859 0.46355 0.76099 0.0
O54 O 0.98844 0.42105 0.79004 0.0
O55 O 0.01116 0.44102 0.70682 0.0
O56 O 0.55747 0.56478 0.70237 0.0
Cd57 Cd 0.58168 0.58134 0.78898 0.0
Cd58 Cd 0.57517 0.61212 0.74058 0.0
O59 O 0.54381 0.58603 0.67621 0.0
O60 O 0.57316 0.55755 0.85306 0.0
O61 O 0.56482 0.58281 0.86883 0.0
C62 C 0.5623 0.56494 0.88714 0.0
C63 C 0.57584 0.63749 0.81614 0.0
C64 C 0.54303 0.56848 0.66465 0.0
C65 C 0.62701 0.61695 0.72673 0.0
O66 O 0.61118 0.62228 0.70944 0.0
O67 O 0.62082 0.60211 0.76904 0.0
O68 O 0.57539 0.6397 0.75129 0.0
O69 O 0.57405 0.62015 0.83694 0.0
O70 O 0.47183 0.00898 0.82678 0.0
Cd71 Cd 0.44892 1.00583 0.74096 0.0
Cd72 Cd 0.46119 0.04263 0.79388 0.0
O73 O 0.49376 0.04536 0.84299 0.0
O74 O 0.45163 0.98708 0.67305 0.0
O75 O 0.46931 0.02299 0.66427 0.0
C76 C 0.46662 1.00503 0.64245 0.0
C77 C 0.45884 0.0687 0.73337 0.0
C78 C 0.49072 0.02722 0.85768 0.0
C79 C 0.40789 1.0019 0.81121 0.0
O80 O 0.42723 0.02071 0.83771 0.0
O81 O 0.41029 0.99346 0.75798 0.0
O82 O 0.46422 0.07122 0.79875 0.0
O83 O 0.45715 0.05235 0.70157 0.0
O84 O 0.73275 0.91672 0.65399 0.0
Cd85 Cd 0.73169 0.93381 0.57346 0.0
Cd86 Cd 0.69067 0.92592 0.63388 0.0
O87 O 0.69137 0.90043 0.6767 0.0
O88 O 0.75139 0.93088 0.50214 0.0
O89 O 0.70806 0.91402 0.49096 0.0
C90 C 0.72872 0.91705 0.46771 0.0
C91 C 0.65825 0.92318 0.556 0.0
C92 C 0.71329 0.90239 0.68521 0.0
C93 C 0.73977 0.97221 0.65025 0.0
O94 O 0.71935 0.95736 0.67741 0.0
O95 O 0.74651 0.96714 0.59754 0.0
O96 O 0.65555 0.92225 0.62047 0.0
O97 O 0.67846 0.92446 0.53636 0.0
O98 O 0.13498 0.81822 0.63488 0.0
Cd99 Cd 0.10934 0.79884 0.55323 0.0
Cd100 Cd 0.12397 0.77286 0.59778 0.0
O101 O 0.15492 0.80144 0.65514 0.0
O102 O 0.1127 0.82012 0.48492 0.0
O103 O 0.12565 0.79779 0.47185 0.0
C104 C 0.12495 0.81404 0.45099 0.0
C105 C 0.12523 0.74754 0.52663 0.0
C106 C 0.1528 0.81744 0.66794 0.0
C107 C 0.06994 0.76174 0.62525 0.0
O108 O 0.08868 0.75946 0.63856 0.0
O109 O 0.07205 0.77521 0.58164 0.0
O110 O 0.1288 0.74791 0.59212 0.0
O111 O 0.12301 0.76261 0.50179 0.0
O112 O 0.19922 0.31305 0.64662 0.0
Cd113 Cd 0.2169 0.30679 0.57401 0.0
Cd114 Cd 0.26109 0.34412 0.6359 0.0
O115 O 0.23311 0.348 0.67193 0.0
O116 O 0.19168 0.29153 0.48844 0.0
O117 O 0.22595 0.32672 0.49813 0.0
C118 C 0.2054 0.31054 0.46201 0.0
C119 C 0.29447 0.36972 0.57021 0.0
C120 C 0.20901 0.33208 0.67642 0.0
C121 C 0.25493 0.30112 0.65577 0.0
O122 O 0.26519 0.32084 0.68036 0.0
O123 O 0.23721 0.2928 0.60515 0.0
O124 O 0.2971 0.37335 0.63555 0.0
O125 O 0.27302 0.35192 0.54299 0.0
O126 O 0.71649 0.82972 0.15494 0.0
Cd127 Cd 0.71866 0.81324 0.07318 0.0
Cd128 Cd 0.67775 0.77872 0.1278 0.0
O129 O 0.67574 0.8032 0.17543 0.0
O130 O 0.73664 0.83576 1.00334 0.0
O131 O 0.69424 0.80795 0.9908 0.0
C132 C 0.71375 0.82582 0.96845 0.0
C133 C 0.64601 0.74985 0.04796 0.0
C134 C 0.69613 0.82326 0.1857 0.0
C135 C 0.72916 0.78326 0.14269 0.0
O136 O 0.70765 0.77626 0.16836 0.0
O137 O 0.73613 0.79625 0.09427 0.0
O138 O 0.64353 0.74783 0.11241 0.0
O139 O 0.66562 0.7685 0.02958 0.0
O140 O 0.22633 0.90424 0.02478 0.0
Cd141 Cd 0.24742 0.92171 0.11471 0.0
Cd142 Cd 0.24147 0.95012 0.05614 0.0
O143 O 0.21002 0.9233 0.99547 0.0
O144 O 0.23857 0.89829 0.17978 0.0
O145 O 0.22691 0.92164 0.18851 0.0
C146 C 0.22548 0.9044 0.20916 0.0
C147 C 0.24397 0.9783 0.12112 0.0
C148 C 0.21108 0.90663 0.98526 0.0
C149 C 0.29343 0.95552 0.05459 0.0
O150 O 0.27686 0.95864 0.02568 0.0
O151 O 0.28755 0.94346 0.10514 0.0
O152 O 0.24262 0.97802 0.0554 0.0
O153 O 0.24172 0.96159 0.14931 0.0
O154 O 0.13591 0.33413 0.12521 0.0
Cd155 Cd 0.10926 0.33244 0.05377 0.0
Cd156 Cd 0.13223 0.37386 0.1028 0.0
O157 O 0.16169 0.37057 0.14655 0.0
O158 O 0.10235 0.31049 0.97906 0.0
O159 O 0.12426 0.3468 0.96854 0.0
C160 C 0.11651 0.32739 0.94353 0.0
C161 C 0.13565 0.40187 0.03844 0.0
C162 C 0.15678 0.35136 0.155 0.0
C163 C 0.07743 0.33895 0.13972 0.0
O164 O 0.09869 0.35823 0.15288 0.0
O165 O 0.0756 0.32562 0.09393 0.0
O166 O 0.14342 0.40549 0.10283 0.0
O167 O 0.1285 0.38311 1.00941 0.0
O168 O 0.37962 0.23368 1.00398 0.0
Cd169 Cd 0.38533 0.25561 0.9312 0.0
Cd170 Cd 0.34208 0.24706 0.97238 0.0
O171 O 0.33704 0.21844 1.00757 0.0
O172 O 0.40654 0.25376 0.86299 0.0
O173 O 0.36418 0.24054 0.84123 0.0
C174 C 0.385 0.2427 0.82205 0.0
C175 C 0.31171 0.24988 0.90331 0.0
C176 C 0.35744 0.21852 0.02377 0.0
C177 C 0.39206 0.29126 0.01794 0.0
O178 O 0.36927 0.2756 0.03277 0.0
O179 O 0.40187 0.28837 0.96786 0.0
O180 O 0.30867 0.24567 0.96655 0.0
O181 O 0.33091 0.25078 0.87786 0.0
O182 O 0.80968 0.15239 0.99055 0.0
Cd183 Cd 0.78655 0.13219 0.90618 0.0
Cd184 Cd 0.80157 0.10844 0.95807 0.0
O185 O 0.83281 0.1383 1.00803 0.0
O186 O 0.79032 0.15241 0.83376 0.0
O187 O 0.80642 0.13209 0.83172 0.0
C188 C 0.80467 0.14731 0.80596 0.0
C189 C 0.80162 0.08098 0.89565 0.0
C190 C 0.82897 0.15323 0.02182 0.0
C191 C 0.74716 0.09581 0.9778 0.0
O192 O 0.76712 0.09623 1.00144 0.0
O193 O 0.74857 0.10662 0.92635 0.0
O194 O 0.80695 0.08389 0.96107 0.0
O195 O 0.79845 0.09484 0.86525 0.0
O196 O 0.90075 0.68916 0.87442 0.0
Cd197 Cd 0.9244 0.69645 0.96157 0.0
Cd198 Cd 0.91686 0.65823 0.92131 0.0
O199 O 0.88628 0.65408 0.85415 0.0
O200 O 0.91824 0.71484 0.02224 0.0
O201 O 0.90556 0.68053 0.04124 0.0
C202 C 0.90524 0.69751 0.05692 0.0
C203 C 0.91537 0.63359 0.99859 0.0
C204 C 0.88595 0.6708 0.83914 0.0
C205 C 0.96966 0.70158 0.90511 0.0
O206 O 0.95373 0.68075 0.89056 0.0
O207 O 0.9633 0.71187 0.94201 0.0
O208 O 0.91477 0.63008 0.93394 0.0
O209 O 0.91484 0.65015 0.01855 0.0
O210 O 0.37834 0.16028 0.50103 0.0
Cd211 Cd 0.38136 0.14299 0.42262 0.0
Cd212 Cd 0.34067 0.10965 0.47484 0.0
O213 O 0.33738 0.1337 0.51908 0.0
O214 O 0.40227 0.16534 0.35574 0.0
O215 O 0.35968 0.13828 0.33425 0.0
C216 C 0.38069 0.15589 0.31528 0.0
C217 C 0.30793 0.07873 0.40288 0.0
C218 C 0.35752 0.15381 0.52968 0.0
C219 C 0.39158 0.11381 0.49735 0.0
O220 O 0.36987 0.10712 0.52126 0.0
O221 O 0.3989 0.1264 0.44806 0.0
O222 O 0.30686 0.07895 0.46799 0.0
O223 O 0.32675 0.09662 0.37838 0.0
O224 O 0.90269 0.239 0.37864 0.0
Cd225 Cd 0.92542 0.25521 0.46736 0.0
Cd226 Cd 0.91946 0.2859 0.41729 0.0
O227 O 0.8891 0.26011 0.34992 0.0
O228 O 0.91685 0.23095 0.52947 0.0
O229 O 0.907 0.2552 0.54602 0.0
C230 C 0.90504 0.23747 0.56329 0.0
C231 C 0.91919 0.31068 0.49298 0.0
C232 C 0.88878 0.24277 0.33889 0.0
C233 C 0.97184 0.29137 0.40973 0.0
O234 O 0.95615 0.29664 0.39002 0.0
O235 O 0.96497 0.27629 0.45154 0.0
O236 O 0.91936 0.31325 0.42831 0.0
O237 O 0.9171 0.29317 0.5134 0.0
O238 O 0.80021 0.67257 0.48705 0.0
Cd239 Cd 0.7764 0.6677 0.40235 0.0
Cd240 Cd 0.78979 0.70745 0.44118 0.0
O241 O 0.82014 0.70887 0.50093 0.0
O242 O 0.7801 0.64972 0.33378 0.0
O243 O 0.79588 0.68533 0.32573 0.0
C244 C 0.79435 0.66793 0.30354 0.0
C245 C 0.79247 0.73564 0.37909 0.0
C246 C 0.81807 0.69122 0.51766 0.0
C247 C 0.73504 0.66745 0.4628 0.0
O248 O 0.75351 0.6878 0.47783 0.0
O249 O 0.73836 0.6555 0.42368 0.0
O250 O 0.79597 0.73739 0.44475 0.0
O251 O 0.78997 0.71883 0.34822 0.0
H252 H 0.00974 0.50044 0.91265 0.0
H253 H 0.094 0.53181 0.92106 0.0
H254 H 0.10199 0.55952 1.00766 0.0
H255 H 0.08512 0.57399 0.08537 0.0
H256 H 1.00107 0.54372 0.07461 0.0
H257 H 0.99308 0.51686 0.98444 0.0
C258 C 0.02982 0.51338 0.93339 0.0
C259 C 0.05118 0.51388 0.91067 0.0
C260 C 0.0344 0.5296 0.98275 0.0
C261 C 0.07714 0.53097 0.93748 0.0
C262 C 0.08178 0.54686 0.98718 0.0
C263 C 0.06509 0.56171 0.06271 0.0
C264 C 0.04377 0.56086 0.08714 0.0
C265 C 0.06057 0.54625 0.01069 0.0
C266 C 0.01792 0.54484 0.05689 0.0
C267 C 0.01327 0.52933 1.00547 0.0
H268 H 0.54131 0.5218 0.91269 0.0
H269 H 0.54263 0.57884 0.9779 0.0
H270 H 0.50877 0.55634 0.05399 0.0
H271 H 0.47828 0.52034 0.10098 0.0
H272 H 0.47731 0.46338 0.03717 0.0
H273 H 0.51106 0.48583 0.96053 0.0
C274 C 0.53448 0.52939 0.9443 0.0
C275 C 0.54463 0.55201 0.93989 0.0
C276 C 0.51464 0.51624 0.98715 0.0
C277 C 0.53526 0.56149 0.98053 0.0
C278 C 0.51575 0.5486 0.02372 0.0
C279 C 0.48514 0.51275 0.06946 0.0
C280 C 0.47507 0.49017 0.07415 0.0
C281 C 0.50505 0.5259 0.02682 0.0
C282 C 0.48458 0.4807 0.03406 0.0
C283 C 0.50403 0.49356 0.99061 0.0
H284 H 0.56088 0.03853 0.12404 0.0
H285 H 0.51576 0.96703 0.08936 0.0
H286 H 0.49297 0.9688 0.98525 0.0
H287 H 0.48588 0.99068 0.90547 0.0
H288 H 0.53137 0.06219 0.94105 0.0
H289 H 0.55457 0.06034 0.04361 0.0
C290 C 0.54595 0.02322 0.09415 0.0
C291 C 0.53987 1.0026 0.11487 0.0
C292 C 0.53331 0.02442 0.03432 0.0
C293 C 0.52068 0.98307 0.07485 0.0
C294 C 0.50777 0.9841 0.01524 0.0
C295 C 0.50103 1.00593 0.93524 0.0
C296 C 0.50687 0.02659 0.91555 0.0
C297 C 0.514 1.00471 0.99453 0.0
C298 C 0.52653 0.04611 0.95487 0.0
C299 C 0.53968 0.04505 0.0137 0.0
H300 H 0.53283 0.99192 0.44466 0.0
H301 H 0.57772 0.06359 0.45313 0.0
H302 H 0.54715 0.0627 0.52707 0.0
H303 H 0.50765 0.0415 0.58936 0.0
H304 H 0.46263 0.96977 0.57933 0.0
H305 H 0.49296 0.97076 0.50471 0.0
C306 C 0.53613 1.00738 0.4633 0.0
C307 C 0.55772 0.02781 0.44401 0.0
C308 C 0.51817 1.00671 0.50454 0.0
C309 C 0.56139 0.04765 0.46765 0.0
C310 C 0.54382 0.04714 0.50958 0.0
C311 C 0.50424 0.02606 0.57008 0.0
C312 C 0.4828 1.00558 0.58977 0.0
C313 C 0.52203 0.02675 0.52799 0.0
C314 C 0.47888 0.98576 0.56483 0.0
C315 C 0.49634 0.98631 0.5225 0.0
H316 H 0.06856 0.55598 0.40174 0.0
H317 H 0.98567 0.52333 0.42694 0.0
H318 H 0.98836 0.50034 0.51126 0.0
H319 H 0.01505 0.49126 0.5829 0.0
H320 H 0.09843 0.52567 0.5609 0.0
H321 H 0.09464 0.54612 0.46962 0.0
C322 C 0.05094 0.54374 0.42511 0.0
C323 C 0.02693 0.54149 0.40799 0.0
C324 C 0.05276 0.53091 0.47426 0.0
C325 C 1.00441 0.5255 0.43915 0.0
C326 C 1.00596 0.51235 0.48744 0.0
C327 C 0.03232 0.50301 0.55748 0.0
C328 C 0.05702 0.50692 0.5787 0.0
C329 C 0.03013 0.51514 0.50609 0.0
C330 C 0.07923 0.52237 0.54569 0.0
C331 C 0.07708 0.5341 0.49358 0.0
H332 H 0.54503 0.53456 0.6198 0.0
H333 H 0.50773 0.56831 0.57006 0.0
H334 H 0.48576 0.54421 0.46485 0.0
H335 H 0.47746 0.51381 0.38793 0.0
H336 H 0.51542 0.48061 0.43832 0.0
H337 H 0.5375 0.5049 0.54259 0.0
C338 C 0.53196 0.53667 0.58644 0.0
C339 C 0.52788 0.55318 0.60324 0.0
C340 C 0.51989 0.52312 0.52593 0.0
C341 C 0.51107 0.55567 0.5587 0.0
C342 C 0.49865 0.54198 0.49844 0.0
C343 C 0.49071 0.51193 0.42134 0.0
C344 C 0.49476 0.49534 0.40519 0.0
C345 C 0.50305 0.52574 0.48152 0.0
C346 C 0.51201 0.49323 0.44924 0.0
C347 C 0.52449 0.50702 0.50907 0.0
H348 H 0.73868 0.86472 0.23036 0.0
H349 H 0.65558 0.81763 0.25298 0.0
H350 H 0.65791 0.84347 0.33793 0.0
H351 H 0.68414 0.87861 0.41009 0.0
H352 H 0.76771 0.92455 0.39117 0.0
H353 H 0.76449 0.90006 0.29975 0.0
C354 C 0.72097 0.86009 0.25341 0.0
C355 C 0.69697 0.83916 0.23523 0.0
C356 C 0.72255 0.87487 0.30287 0.0
C357 C 0.67432 0.83354 0.26605 0.0
C358 C 0.67564 0.84834 0.31462 0.0
C359 C 0.70158 0.88342 0.38529 0.0
C360 C 0.72615 0.90345 0.40732 0.0
C361 C 0.69972 0.86895 0.33397 0.0
C362 C 0.74859 0.90927 0.37521 0.0
C363 C 0.74677 0.89523 0.32307 0.0
H364 H 0.14118 0.85598 0.42177 0.0
H365 H 0.14595 0.8019 0.35895 0.0
H366 H 0.17843 0.82545 0.28107 0.0
H367 H 0.20672 0.86175 0.23388 0.0
H368 H 0.20206 0.91594 0.2958 0.0
H369 H 0.16868 0.89214 0.37184 0.0
C370 C 0.14896 0.84923 0.3901 0.0
C371 C 0.14102 0.82716 0.39595 0.0
C372 C 0.16809 0.86303 0.34637 0.0
C373 C 0.15161 0.81879 0.35526 0.0
C374 C 0.17035 0.8323 0.31107 0.0
C375 C 0.19863 0.86844 0.26456 0.0
C376 C 0.20712 0.89067 0.25978 0.0
C377 C 0.17908 0.85455 0.3071 0.0
C378 C 0.19604 0.89894 0.29894 0.0
C379 C 0.17682 0.88529 0.34212 0.0
H380 H 0.22396 0.35038 0.40933 0.0
H381 H 0.16747 0.27957 0.3647 0.0
H382 H 0.15004 0.28637 0.26021 0.0
H383 H 0.14797 0.31217 0.18854 0.0
H384 H 0.20177 0.38306 0.23721 0.0
H385 H 0.22356 0.37645 0.33286 0.0
C386 C 0.20806 0.33641 0.37629 0.0
C387 C 0.19689 0.31445 0.39497 0.0
C388 C 0.19765 0.34047 0.31735 0.0
C389 C 0.17629 0.29658 0.3517 0.0
C390 C 0.16632 0.30048 0.29202 0.0
C391 C 0.16468 0.32629 0.21935 0.0
C392 C 0.17305 0.34813 0.20588 0.0
C393 C 0.17642 0.32234 0.27536 0.0
C394 C 0.19485 0.36611 0.2464 0.0
C395 C 0.20721 0.36231 0.30132 0.0
H396 H 0.15831 0.36021 0.88285 0.0
H397 H 0.09889 0.28927 0.86647 0.0
H398 H 0.12127 0.28476 0.77751 0.0
H399 H 0.1601 0.30048 0.71341 0.0
H400 H 0.22102 0.37117 0.73572 0.0
H401 H 0.19564 0.37623 0.81336 0.0
C402 C 0.14991 0.3438 0.85882 0.0
C403 C 0.12695 0.32509 0.88131 0.0
C404 C 0.1634 0.34125 0.80954 0.0
C405 C 0.11653 0.30394 0.85012 0.0
C406 C 0.12941 0.30134 0.79952 0.0
C407 C 0.16773 0.31705 0.73463 0.0
C408 C 0.19258 0.33539 0.71908 0.0
C409 C 0.15327 0.3198 0.78029 0.0
C410 C 0.20209 0.35672 0.74716 0.0
C411 C 0.18756 0.35964 0.79154 0.0
H412 H 0.75081 0.86118 0.90283 0.0
H413 H 0.66643 0.81292 0.90065 0.0
H414 H 0.65853 0.83199 0.81227 0.0
H415 H 0.6756 0.86381 0.73985 0.0
H416 H 0.76017 0.91123 0.74065 0.0
H417 H 0.76783 0.89112 0.82483 0.0
C418 C 0.7307 0.85468 0.88249 0.0
C419 C 0.70929 0.83573 0.9087 0.0
C420 C 0.72626 0.86573 0.83162 0.0
C421 C 0.68334 0.82748 0.88144 0.0
C422 C 0.67876 0.83845 0.83106 0.0
C423 C 0.69568 0.86967 0.75832 0.0
C424 C 0.71722 0.88911 0.73418 0.0
C425 C 0.70007 0.85784 0.80655 0.0
C426 C 0.74315 0.89633 0.75817 0.0
C427 C 0.74762 0.88485 0.80653 0.0
H428 H 0.21562 0.87366 0.94387 0.0
H429 H 0.17633 0.90532 0.88672 0.0
H430 H 0.15666 0.88149 0.7809 0.0
H431 H 0.15063 0.8519 0.7059 0.0
H432 H 0.18934 0.81979 0.76325 0.0
H433 H 0.21005 0.84432 0.86775 0.0
C434 C 0.20261 0.87532 0.90865 0.0
C435 C 0.1973 0.89121 0.92358 0.0
C436 C 0.1917 0.86182 0.84773 0.0
C437 C 0.18059 0.89317 0.87684 0.0
C438 C 0.16949 0.87965 0.81618 0.0
C439 C 0.16376 0.85028 0.7408 0.0
C440 C 0.16839 0.83394 0.72662 0.0
C441 C 0.17502 0.86401 0.80115 0.0
C442 C 0.18552 0.83224 0.77261 0.0
C443 C 0.19717 0.84614 0.8326 0.0
H444 H 0.34112 0.20648 0.75281 0.0
H445 H 0.42584 0.25154 0.75115 0.0
H446 H 0.4244 0.22881 0.65683 0.0
H447 H 0.39968 0.19465 0.58136 0.0
H448 H 0.31535 0.14816 0.58795 0.0
H449 H 0.31603 0.17292 0.67366 0.0
C450 C 0.3592 0.21154 0.73094 0.0
C451 C 0.38356 0.23074 0.75883 0.0
C452 C 0.35833 0.19797 0.67814 0.0
C453 C 0.40685 0.23687 0.73061 0.0
C454 C 0.40604 0.22382 0.67684 0.0
C455 C 0.38136 0.18998 0.60095 0.0
C456 C 0.3575 0.16948 0.57823 0.0
C457 C 0.38199 0.20409 0.65123 0.0
C458 C 0.33402 0.16375 0.60462 0.0
C459 C 0.33439 0.17792 0.65367 0.0
H460 H 0.82084 0.18898 0.77544 0.0
H461 H 0.82745 0.1355 0.71849 0.0
H462 H 0.86018 0.15905 0.64081 0.0
H463 H 0.88768 0.19514 0.59096 0.0
H464 H 0.88164 0.24882 0.65006 0.0
H465 H 0.84838 0.22504 0.72595 0.0
C466 C 0.82911 0.18235 0.74516 0.0
C467 C 0.8215 0.16044 0.75216 0.0
C468 C 0.84845 0.19618 0.70202 0.0
C469 C 0.83282 0.15226 0.71362 0.0
C470 C 0.85169 0.16577 0.66958 0.0
C471 C 0.87933 0.20173 0.62106 0.0
C472 C 0.8873 0.22379 0.61508 0.0
C473 C 0.85992 0.18786 0.66404 0.0
C474 C 0.876 0.23195 0.65389 0.0
C475 C 0.85682 0.21831 0.697 0.0
H476 H 0.88841 0.70578 0.78759 0.0
H477 H 0.84925 0.63493 0.7504 0.0
H478 H 0.82585 0.63545 0.64531 0.0
H479 H 0.81659 0.65605 0.56545 0.0
H480 H 0.85618 0.72694 0.60353 0.0
H481 H 0.87996 0.72637 0.7072 0.0
C482 C 0.87465 0.69032 0.75696 0.0
C483 C 0.87042 0.67025 0.77727 0.0
C484 C 0.86168 0.69084 0.69664 0.0
C485 C 0.85273 0.65054 0.73625 0.0
C486 C 0.83947 0.65088 0.6761 0.0
C487 C 0.83055 0.67146 0.59605 0.0
C488 C 0.83456 0.69156 0.57669 0.0
C489 C 0.84387 0.67095 0.65587 0.0
C490 C 0.85276 0.71129 0.61705 0.0
C491 C 0.86623 0.71094 0.6765 0.0
H492 H 0.83397 0.70548 0.25115 0.0
H493 H 0.79351 0.63413 0.24056 0.0
H494 H 0.82529 0.63723 0.16682 0.0
H495 H 0.86508 0.66017 0.10755 0.0
H496 H 0.90537 0.73146 0.11655 0.0
H497 H 0.87343 0.72844 0.18993 0.0
C498 C 0.83185 0.69057 0.23195 0.0
C499 C 0.81126 0.66958 0.25118 0.0
C500 C 0.85048 0.6925 0.19042 0.0
C501 C 0.80905 0.65047 0.22635 0.0
C502 C 0.82734 0.65224 0.18456 0.0
C503 C 0.8671 0.6751 0.12623 0.0
C504 C 0.88778 0.69605 0.10721 0.0
C505 C 0.84833 0.67318 0.16705 0.0
C506 C 0.88978 0.71516 0.13088 0.0
C507 C 0.87141 0.71342 0.17246 0.0
H508 H 0.33734 0.1499 0.24375 0.0
H509 H 0.42216 0.18565 0.2465 0.0
H510 H 0.42191 0.20668 0.15212 0.0
H511 H 0.39839 0.21723 0.07607 0.0
H512 H 0.31391 0.18332 0.07675 0.0
H513 H 0.31322 0.15917 0.16212 0.0
C514 C 0.35569 0.16202 0.22285 0.0
C515 C 0.37976 0.16623 0.25221 0.0
C516 C 0.3555 0.17454 0.16967 0.0
C517 C 0.4034 0.18215 0.22503 0.0
C518 C 0.40328 0.19422 0.17114 0.0
C519 C 0.37971 0.20441 0.0942 0.0
C520 C 0.35625 0.20224 0.07016 0.0
C521 C 0.37956 0.19093 0.1442 0.0
C522 C 0.33229 0.18547 0.09444 0.0
C523 C 0.3319 0.17166 0.1434 0.0
H524 H 0.89535 0.21181 0.29089 0.0
H525 H 0.85171 0.24041 0.2449 0.0
H526 H 0.83064 0.216 0.13988 0.0
H527 H 0.82425 0.18621 0.06331 0.0
H528 H 0.8685 0.15819 0.11061 0.0
H529 H 0.89028 0.18333 0.21321 0.0
C530 C 0.88109 0.21272 0.25838 0.0
C531 C 0.87484 0.22777 0.27633 0.0
C532 C 0.86948 0.19898 0.19815 0.0
C533 C 0.85669 0.22887 0.23265 0.0
C534 C 0.84475 0.21499 0.17257 0.0
C535 C 0.83883 0.18568 0.09565 0.0
C536 C 0.84466 0.17022 0.07927 0.0
C537 C 0.85101 0.19997 0.15498 0.0
C538 C 0.86367 0.16989 0.12178 0.0
C539 C 0.87599 0.18417 0.18068 0.0
H540 H 0.0869 0.67146 0.2966 0.0
H541 H 0.07056 0.63353 0.47366 0.0
H542 H 0.09288 0.66752 0.54819 0.0
H543 H 0.11249 0.70733 0.56372 0.0
H544 H 0.12552 0.74539 0.38809 0.0
H545 H 0.10953 0.71241 0.31273 0.0
C546 C 0.08876 0.67081 0.35144 0.0
C547 C 0.07716 0.65009 0.37976 0.0
C548 C 0.10086 0.69048 0.39437 0.0
C549 C 0.0793 0.64934 0.45087 0.0
C550 C 0.09202 0.66876 0.49353 0.0
C551 C 0.1124 0.70856 0.50902 0.0
C552 C 0.1202 0.72882 0.48171 0.0
C553 C 0.10225 0.68935 0.46598 0.0
C554 C 0.11961 0.72999 0.41055 0.0
C555 C 0.11034 0.71109 0.36734 0.0
H556 H 0.3986 0.42857 0.4268 0.0
H557 H 0.34278 0.40154 0.24716 0.0
H558 H 0.30585 0.38277 0.31893 0.0
H559 H 0.29014 0.37194 0.43289 0.0
H560 H 0.34672 0.40048 0.61166 0.0
H561 H 0.38289 0.42114 0.53992 0.0
C562 C 0.37829 0.41867 0.40342 0.0
C563 C 0.37323 0.41604 0.33206 0.0
C564 C 0.35748 0.40827 0.4448 0.0
C565 C 0.34699 0.40364 0.30206 0.0
C566 C 0.326 0.3929 0.34308 0.0
C567 C 0.31038 0.38287 0.45613 0.0
C568 C 0.31582 0.38449 0.52752 0.0
C569 C 0.33107 0.39476 0.41449 0.0
C570 C 0.34205 0.39893 0.55699 0.0
C571 C 0.36273 0.41065 0.51597 0.0
H572 H 0.62756 0.93786 0.58017 0.0
H573 H 0.64992 0.91332 0.41917 0.0
H574 H 0.62699 0.92208 0.33402 0.0
H575 H 0.60519 0.94072 0.30479 0.0
H576 H 0.58567 0.96784 0.46534 0.0
H577 H 0.6025 0.9539 0.55074 0.0
C578 C 0.62689 0.93398 0.52651 0.0
C579 C 0.64048 0.92498 0.50609 0.0
C580 C 0.61438 0.93977 0.47753 0.0
C581 C 0.63971 0.92031 0.43627 0.0
C582 C 0.62665 0.92538 0.38748 0.0
C583 C 0.60411 0.94319 0.3584 0.0
C584 C 0.59425 0.95539 0.37853 0.0
C585 C 0.6146 0.93572 0.40739 0.0
C586 C 0.59324 0.95859 0.44835 0.0
C587 C 0.60295 0.95067 0.49731 0.0
H588 H 0.6382 0.0352 0.10104 0.0
H589 H 0.68969 0.06318 0.28846 0.0
H590 H 0.72812 0.08558 0.2236 0.0
H591 H 0.74681 0.09585 0.11352 0.0
H592 H 0.69494 0.07007 0.92643 0.0
H593 H 0.65646 0.04813 0.99137 0.0
C594 C 0.65789 0.04621 0.12757 0.0
C595 C 0.6614 0.04733 0.19918 0.0
C596 C 0.67955 0.05935 0.09009 0.0
C597 C 0.68673 0.062 0.23336 0.0
C598 C 0.70858 0.07474 0.1963 0.0
C599 C 0.72702 0.08548 0.08706 0.0
C600 C 0.72355 0.08424 0.01541 0.0
C601 C 0.70519 0.07334 0.1247 0.0
C602 C 0.69794 0.07118 0.98152 0.0
C603 C 0.67606 0.05861 0.01861 0.0
H604 H 0.93073 0.6061 0.97551 0.0
H605 H 0.91089 0.63316 0.13544 0.0
H606 H 0.92542 0.6175 0.22086 0.0
H607 H 0.94865 0.59988 0.25096 0.0
H608 H 0.97118 0.57524 0.09065 0.0
H609 H 0.95052 0.5859 1.00498 0.0
C610 C 0.92906 0.60819 0.02893 0.0
C611 C 0.9198 0.62087 0.04891 0.0
C612 C 0.93821 0.59971 0.07799 0.0
C613 C 0.91801 0.62354 0.11853 0.0
C614 C 0.92641 0.61465 0.16752 0.0
C615 C 0.94851 0.59641 0.19729 0.0
C616 C 0.96152 0.58683 0.1773 0.0
C617 C 0.93727 0.60325 0.14803 0.0
C618 C 0.96142 0.58269 0.10747 0.0
C619 C 0.94966 0.58883 0.05836 0.0
H620 H 0.42118 0.33433 0.98101 0.0
H621 H 0.39573 0.29465 0.15481 0.0
H622 H 0.41525 0.32805 0.23061 0.0
H623 H 0.43528 0.36795 0.2466 0.0
H624 H 0.45719 0.40769 0.07271 0.0
H625 H 0.44375 0.37518 0.99832 0.0
C626 C 0.4204 0.33315 0.03558 0.0
C627 C 0.40705 0.3121 0.06238 0.0
C628 C 0.43088 0.35246 0.07891 0.0
C629 C 0.40581 0.31069 0.13307 0.0
C630 C 0.41695 0.32977 0.17646 0.0
C631 C 0.43764 0.36961 0.19266 0.0
C632 C 0.44724 0.39022 0.16534 0.0
C633 C 0.42893 0.35069 0.14985 0.0
C634 C 0.44981 0.39199 0.09508 0.0
C635 C 0.44204 0.37338 0.05242 0.0
H636 H 0.93835 0.35376 0.47074 0.0
H637 H 0.9134 0.30775 0.62903 0.0
H638 H 0.93037 0.3383 0.71532 0.0
H639 H 0.95742 0.37866 0.74687 0.0
H640 H 0.98467 0.42468 0.58842 0.0
H641 H 0.96151 0.3937 0.50167 0.0
C642 C 0.93607 0.35033 0.52397 0.0
C643 C 0.92473 0.32847 0.54326 0.0
C644 C 0.94661 0.3681 0.57364 0.0
C645 C 0.92214 0.32441 0.61264 0.0
C646 C 0.93195 0.34191 0.66216 0.0
C647 C 0.95779 0.38189 0.69338 0.0
C648 C 0.97291 0.40398 0.67428 0.0
C649 C 0.945 0.36393 0.64347 0.0
C650 C 0.97333 0.40785 0.60464 0.0
C651 C 0.96013 0.39012 0.55487 0.0
H652 H 0.64473 0.64868 0.63621 0.0
H653 H 0.66064 0.60368 0.72631 0.0
H654 H 0.69363 0.61353 0.6464 0.0
H655 H 0.7175 0.6347 0.54933 0.0
H656 H 0.70189 0.68019 0.46313 0.0
H657 H 0.6683 0.66968 0.5415 0.0
C658 C 0.65551 0.6411 0.63904 0.0
C659 C 0.65017 0.62545 0.68744 0.0
C660 C 0.6739 0.64644 0.59219 0.0
C661 C 0.66448 0.61592 0.69011 0.0
C662 C 0.68311 0.62134 0.64384 0.0
C663 C 0.70614 0.64178 0.54675 0.0
C664 C 0.71138 0.65764 0.49945 0.0
C665 C 0.68768 0.63632 0.59396 0.0
C666 C 0.69753 0.66751 0.49809 0.0
C667 C 0.67866 0.66173 0.54343 0.0
H668 H 0.40621 0.11689 0.63098 0.0
H669 H 0.41451 0.09629 0.435 0.0
H670 H 0.43802 0.08164 0.4904 0.0
H671 H 0.45286 0.07204 0.59589 0.0
H672 H 0.44672 0.09523 0.79097 0.0
H673 H 0.42625 0.11188 0.73474 0.0
C674 C 0.41346 0.10939 0.60052 0.0
C675 C 0.40843 0.10736 0.52929 0.0
C676 C 0.42736 0.10151 0.63262 0.0
C677 C 0.41818 0.09796 0.49002 0.0
C678 C 0.43152 0.08955 0.52172 0.0
C679 C 0.44747 0.08108 0.62598 0.0
C680 C 0.45112 0.08215 0.69767 0.0
C681 C 0.43579 0.09085 0.59315 0.0
C682 C 0.44419 0.09409 0.73583 0.0
C683 C 0.43228 0.10353 0.70372 0.0
H684 H 0.296 0.95163 0.92129 0.0
H685 H 0.34445 0.97666 0.1137 0.0
H686 H 0.3845 0.99285 0.054 0.0
H687 H 0.40532 1.00164 0.94657 0.0
H688 H 0.35653 0.97463 0.75476 0.0
H689 H 0.31657 0.95714 0.81489 0.0
C690 C 0.31538 0.96055 0.95008 0.0
C691 C 0.31755 0.96336 0.02149 0.0
C692 C 0.33799 0.9694 0.91556 0.0
C693 C 0.34251 0.97444 0.05868 0.0
C694 C 0.36528 0.98372 0.02454 0.0
C695 C 0.38589 0.99184 0.91803 0.0
C696 C 0.38369 0.98966 0.84638 0.0
C697 C 0.36321 0.98161 0.95297 0.0
C698 C 0.35857 0.97656 0.80986 0.0
C699 C 0.33582 0.96666 0.8442 0.0
H700 H 0.09578 0.45985 0.94027 0.0
H701 H 0.08528 0.42675 0.7464 0.0
H702 H 0.1065 0.40965 0.79791 0.0
H703 H 0.12378 0.40127 0.90143 0.0
H704 H 0.13601 0.43624 0.0937 0.0
H705 H 0.11899 0.45585 0.03931 0.0
C706 C 0.09858 0.44917 0.90921 0.0
C707 C 0.08886 0.44434 0.83999 0.0
C708 C 0.11108 0.43975 0.93896 0.0
C709 C 0.0927 0.43068 0.79982 0.0
C710 C 0.10471 0.42086 0.82938 0.0
C711 C 0.12325 0.41353 0.93111 0.0
C712 C 0.13092 0.41704 1.00184 0.0
C713 C 0.1134 0.42486 0.89935 0.0
C714 C 0.13025 0.43312 0.03934 0.0
C715 C 0.12031 0.44427 1.00835 0.0
H716 H 0.59514 0.68058 0.7933 0.0
H717 H 0.57005 0.63473 0.95204 0.0
H718 H 0.58669 0.6653 0.03796 0.0
H719 H 0.61319 0.70563 0.06919 0.0
H720 H 0.6405 0.75156 0.91049 0.0
H721 H 0.61803 0.72054 0.8239 0.0
C722 C 0.59278 0.6772 0.84654 0.0
C723 C 0.58146 0.65538 0.86609 0.0
C724 C 0.60311 0.695 0.89603 0.0
C725 C 0.57878 0.65137 0.93548 0.0
C726 C 0.58839 0.66888 0.98479 0.0
C727 C 0.61376 0.70883 0.01566 0.0
C728 C 0.62867 0.73091 0.99649 0.0
C729 C 0.60133 0.69086 0.96588 0.0
C730 C 0.62933 0.73474 0.92679 0.0
C731 C 0.61651 0.71699 0.87711 0.0
H732 H 0.75554 0.98351 0.78369 0.0
H733 H 0.76026 0.01179 0.59106 0.0
H734 H 0.78211 0.04886 0.64986 0.0
H735 H 0.79601 0.07234 0.75759 0.0
H736 H 0.79298 0.04364 0.94912 0.0
H737 H 0.77483 1.00772 0.88921 0.0
C738 C 0.76167 0.99788 0.75461 0.0
C739 C 0.75606 0.995 0.68339 0.0
C740 C 0.7745 0.01902 0.78862 0.0
C741 C 0.76439 0.01368 0.64598 0.0
C742 C 0.77676 0.03481 0.67965 0.0
C743 C 0.79183 0.05832 0.78611 0.0
C744 C 0.79562 0.06068 0.85793 0.0
C745 C 0.7814 0.03759 0.75116 0.0
C746 C 0.79028 0.04237 0.89398 0.0
C747 C 0.77971 0.02173 0.85976 0.0
H748 H 0.05984 0.73137 0.71697 0.0
H749 H 0.03141 0.7692 0.63562 0.0
H750 H 1.00002 0.75604 0.72187 0.0
H751 H 0.98079 0.73377 0.8209 0.0
H752 H 0.0082 0.69489 0.89754 0.0
H753 H 0.04078 0.70925 0.81417 0.0
C754 C 0.04668 0.73667 0.71753 0.0
C755 C 0.048 0.75125 0.66957 0.0
C756 C 0.02909 0.72937 0.76775 0.0
C757 C 0.03068 0.75783 0.67131 0.0
C758 C 0.01295 0.75052 0.72119 0.0
C759 C 0.99449 0.72902 0.82041 0.0
C760 C 0.99284 0.7139 0.86642 0.0
C761 C 0.01223 0.73652 0.77018 0.0
C762 C 0.00975 0.707 0.86368 0.0
C763 C 0.02804 0.71494 0.81547 0.0
H764 H 0.2549 0.29358 0.78851 0.0
H765 H 0.27316 0.27892 0.59769 0.0
H766 H 0.29134 0.26046 0.65684 0.0
H767 H 0.30494 0.25105 0.76492 0.0
H768 H 0.28336 0.26369 0.95397 0.0
H769 H 0.2632 0.28002 0.89352 0.0
C770 C 0.26261 0.2861 0.75994 0.0
C771 C 0.26302 0.28773 0.68919 0.0
C772 C 0.27242 0.27516 0.79405 0.0
C773 C 0.2727 0.2778 0.65228 0.0
C774 C 0.28315 0.26735 0.68615 0.0
C775 C 0.29545 0.25707 0.79264 0.0
C776 C 0.29587 0.25629 0.86404 0.0
C777 C 0.28353 0.26627 0.75729 0.0
C778 C 0.2833 0.264 0.89912 0.0
C779 C 0.2719 0.2735 0.86463 0.0
H780 H 0.99467 0.32684 0.33274 0.0
H781 H 1.00133 0.27442 0.40059 0.0
H782 H 0.03336 0.2835 0.31857 0.0
H783 H 0.05761 0.30513 0.22269 0.0
H784 H 0.05171 0.35815 0.15862 0.0
H785 H 0.02044 0.34956 0.24253 0.0
C786 C 1.00338 0.31757 0.3304 0.0
C787 C 0.9955 0.29991 0.37267 0.0
C788 C 0.02126 0.32255 0.28228 0.0
C789 C 0.00718 0.28821 0.36915 0.0
C790 C 0.02521 0.29319 0.32154 0.0
C791 C 0.049 0.31445 0.22655 0.0
C792 C 0.0561 0.33174 0.18351 0.0
C793 C 0.03187 0.30995 0.27669 0.0
C794 C 0.04586 0.34441 0.19034 0.0
C795 C 0.02828 0.33966 0.2387 0.0
H796 H 0.78466 0.73687 0.24088 0.0
H797 H 0.78797 0.76746 0.43347 0.0
H798 H 0.7704 0.78619 0.376 0.0
H799 H 0.74905 0.79036 0.2733 0.0
H800 H 0.74701 0.76152 0.07949 0.0
H801 H 0.7692 0.74571 0.1348 0.0
C802 C 0.78207 0.748 0.27008 0.0
C803 C 0.78734 0.75046 0.34166 0.0
C804 C 0.77186 0.75882 0.23655 0.0
C805 C 0.78401 0.7651 0.37852 0.0
C806 C 0.77379 0.77577 0.34572 0.0
C807 C 0.75394 0.78094 0.24316 0.0
C808 C 0.74634 0.77691 0.17276 0.0
C809 C 0.76685 0.77218 0.27518 0.0
C810 C 0.75282 0.76484 0.13382 0.0
C811 C 0.76535 0.75573 0.16553 0.0
H812 H 0.24186 0.98217 0.25775 0.0
H813 H 0.26349 0.01983 0.07912 0.0
H814 H 0.28346 0.05429 0.15021 0.0
H815 H 0.29912 0.07415 0.26407 0.0
H816 H 0.27652 0.03639 0.44245 0.0
H817 H 0.25247 1.0017 0.37065 0.0
C818 C 0.25052 0.99787 0.23426 0.0
C819 C 0.25139 0.99839 0.16318 0.0
C820 C 0.26207 0.0177 0.27554 0.0
C821 C 0.26252 0.01889 0.13363 0.0
C822 C 0.27413 0.03867 0.17434 0.0
C823 C 0.28859 0.05832 0.28719 0.0
C824 C 0.28991 0.05793 0.35864 0.0
C825 C 0.27469 0.03835 0.2455 0.0
C826 C 0.27591 0.03724 0.38767 0.0
C827 C 0.26223 0.01735 0.34661 0.0
loop_
_geom_bond_atom_site_label_1
_geom_bond_atom_site_label_2
_geom_bond_distance
_geom_bond_site_symmetry_2
_ccdc_geom_bond_type
O0 Cd1 2.223 . S
O0 C8 1.315 . S
Cd1 O0 2.223 . S
Cd1 O4 2.297 . S
Cd1 O5 2.439 . S
Cd1 O11 2.240 . S
Cd2 O3 2.240 1_655 S
Cd2 O10 2.223 1_655 S
Cd2 O12 2.297 . S
Cd2 O13 2.439 . S
O3 Cd2 2.240 1_455 S
O3 C8 1.279 . S
O4 Cd1 2.297 . S
O4 C6 1.247 . S
O5 Cd1 2.439 . S
O5 C6 1.208 . S
C6 O4 1.247 . S
C6 O5 1.208 . S
C7 O12 1.247 . S
C7 O13 1.208 . S
C8 O0 1.315 . S
C8 O3 1.279 . S
C9 O10 1.315 . S
C9 O11 1.279 . S
O10 Cd2 2.223 1_455 S
O10 C9 1.315 . S
O11 Cd1 2.240 . S
O11 C9 1.279 . S
O12 Cd2 2.297 . S
O12 C7 1.247 . S
O13 Cd2 2.439 . S
O13 C7 1.208 . S
O14 Cd15 2.223 . S
O14 C22 1.315 . S
Cd15 O14 2.223 . S
Cd15 O18 2.297 . S
Cd15 O19 2.439 . S
Cd15 O25 2.240 . S
Cd16 O17 2.240 . S
Cd16 O24 2.223 . S
Cd16 O26 2.297 . S
Cd16 O27 2.439 . S
O17 Cd16 2.240 . S
O17 C22 1.279 . S
O18 Cd15 2.297 . S
O18 C20 1.247 . S
O19 Cd15 2.439 . S
O19 C20 1.208 . S
C20 O18 1.247 . S
C20 O19 1.208 . S
C21 O26 1.247 . S
C21 O27 1.208 . S
C22 O14 1.315 . S
C22 O17 1.279 . S
C23 O24 1.315 . S
C23 O25 1.279 . S
O24 Cd16 2.223 . S
O24 C23 1.315 . S
O25 Cd15 2.240 . S
O25 C23 1.279 . S
O26 Cd16 2.297 . S
O26 C21 1.247 . S
O27 Cd16 2.439 . S
O27 C21 1.208 . S
O28 Cd29 2.223 . S
O28 C36 1.315 . S
Cd29 O28 2.223 . S
Cd29 O32 2.297 . S
Cd29 O33 2.439 . S
Cd29 O39 2.240 . S
Cd30 O31 2.240 . S
Cd30 O38 2.223 1_565 S
Cd30 O40 2.297 . S
Cd30 O41 2.439 . S
O31 Cd30 2.240 . S
O31 C36 1.279 1_565 S
O32 Cd29 2.297 . S
O32 C34 1.247 . S
O33 Cd29 2.439 . S
O33 C34 1.208 . S
C34 O32 1.247 . S
C34 O33 1.208 . S
C35 O40 1.247 . S
C35 O41 1.208 . S
C36 O28 1.315 . S
C36 O31 1.279 1_545 S
C37 O38 1.315 . S
C37 O39 1.279 . S
O38 Cd30 2.223 1_545 S
O38 C37 1.315 . S
O39 Cd29 2.240 . S
O39 C37 1.279 . S
O40 Cd30 2.297 . S
O40 C35 1.247 . S
O41 Cd30 2.439 . S
O41 C35 1.208 . S
O42 Cd43 2.223 . S
O42 C50 1.315 . S
Cd43 O42 2.223 . S
Cd43 O46 2.297 . S
Cd43 O47 2.439 . S
Cd43 O53 2.240 . S
Cd44 O45 2.240 . S
Cd44 O52 2.223 1_655 S
Cd44 O54 2.297 . S
Cd44 O55 2.439 . S
O45 Cd44 2.240 . S
O45 C50 1.279 1_655 S
O46 Cd43 2.297 . S
O46 C48 1.247 . S
O47 Cd43 2.439 . S
O47 C48 1.208 . S
C48 O46 1.247 . S
C48 O47 1.208 . S
C49 O54 1.247 . S
C49 O55 1.208 . S
C50 O42 1.315 . S
C50 O45 1.279 1_455 S
C51 O52 1.315 . S
C51 O53 1.279 . S
O52 Cd44 2.223 1_455 S
O52 C51 1.315 . S
O53 Cd43 2.240 . S
O53 C51 1.279 . S
O54 Cd44 2.297 . S
O54 C49 1.247 . S
O55 Cd44 2.439 . S
O55 C49 1.208 . S
O56 Cd57 2.223 . S
O56 C64 1.315 . S
Cd57 O56 2.223 . S
Cd57 O60 2.297 . S
Cd57 O61 2.439 . S
Cd57 O67 2.240 . S
Cd58 O59 2.240 . S
Cd58 O66 2.223 . S
Cd58 O68 2.297 . S
Cd58 O69 2.439 . S
O59 Cd58 2.240 . S
O59 C64 1.279 . S
O60 Cd57 2.297 . S
O60 C62 1.247 . S
O61 Cd57 2.439 . S
O61 C62 1.208 . S
C62 O60 1.247 . S
C62 O61 1.208 . S
C63 O68 1.247 . S
C63 O69 1.208 . S
C64 O56 1.315 . S
C64 O59 1.279 . S
C65 O66 1.315 . S
C65 O67 1.279 . S
O66 Cd58 2.223 . S
O66 C65 1.315 . S
O67 Cd57 2.240 . S
O67 C65 1.279 . S
O68 Cd58 2.297 . S
O68 C63 1.247 . S
O69 Cd58 2.439 . S
O69 C63 1.208 . S
O70 Cd71 2.223 . S
O70 C78 1.315 . S
Cd71 O70 2.223 . S
Cd71 O74 2.297 . S
Cd71 O75 2.439 . S
Cd71 O81 2.240 . S
Cd72 O73 2.240 . S
Cd72 O80 2.223 . S
Cd72 O82 2.297 . S
Cd72 O83 2.439 . S
O73 Cd72 2.240 . S
O73 C78 1.279 . S
O74 Cd71 2.297 . S
O74 C76 1.247 . S
O75 Cd71 2.439 . S
O75 C76 1.208 . S
C76 O74 1.247 . S
C76 O75 1.208 . S
C77 O82 1.247 . S
C77 O83 1.208 . S
C78 O70 1.315 . S
C78 O73 1.279 . S
C79 O80 1.315 . S
C79 O81 1.279 . S
O80 Cd72 2.223 . S
O80 C79 1.315 . S
O81 Cd71 2.240 . S
O81 C79 1.279 . S
O82 Cd72 2.297 . S
O82 C77 1.247 . S
O83 Cd72 2.439 . S
O83 C77 1.208 . S
O84 Cd85 2.223 . S
O84 C92 1.315 . S
Cd85 O84 2.223 . S
Cd85 O88 2.297 . S
Cd85 O89 2.439 . S
Cd85 O95 2.240 . S
Cd86 O87 2.240 . S
Cd86 O94 2.223 . S
Cd86 O96 2.297 . S
Cd86 O97 2.439 . S
O87 Cd86 2.240 . S
O87 C92 1.279 . S
O88 Cd85 2.297 . S
O88 C90 1.247 . S
O89 Cd85 2.439 . S
O89 C90 1.208 . S
C90 O88 1.247 . S
C90 O89 1.208 . S
C91 O96 1.247 . S
C91 O97 1.208 . S
C92 O84 1.315 . S
C92 O87 1.279 . S
C93 O94 1.315 . S
C93 O95 1.279 . S
O94 Cd86 2.223 . S
O94 C93 1.315 . S
O95 Cd85 2.240 . S
O95 C93 1.279 . S
O96 Cd86 2.297 . S
O96 C91 1.247 . S
O97 Cd86 2.439 . S
O97 C91 1.208 . S
O98 Cd99 2.223 . S
O98 C106 1.315 . S
Cd99 O98 2.223 . S
Cd99 O102 2.297 . S
Cd99 O103 2.439 . S
Cd99 O109 2.240 . S
Cd100 O101 2.240 . S
Cd100 O108 2.223 . S
Cd100 O110 2.297 . S
Cd100 O111 2.439 . S
O101 Cd100 2.240 . S
O101 C106 1.279 . S
O102 Cd99 2.297 . S
O102 C104 1.247 . S
O103 Cd99 2.439 . S
O103 C104 1.208 . S
C104 O102 1.247 . S
C104 O103 1.208 . S
C105 O110 1.247 . S
C105 O111 1.208 . S
C106 O98 1.315 . S
C106 O101 1.279 . S
C107 O108 1.315 . S
C107 O109 1.279 . S
O108 Cd100 2.223 . S
O108 C107 1.315 . S
O109 Cd99 2.240 . S
O109 C107 1.279 . S
O110 Cd100 2.297 . S
O110 C105 1.247 . S
O111 Cd100 2.439 . S
O111 C105 1.208 . S
O112 Cd113 2.223 . S
O112 C120 1.315 . S
Cd113 O112 2.223 . S
Cd113 O116 2.297 . S
Cd113 O117 2.439 . S
Cd113 O123 2.240 . S
Cd114 O115 2.240 . S
Cd114 O122 2.223 . S
Cd114 O124 2.297 . S
Cd114 O125 2.439 . S
O115 Cd114 2.240 . S
O115 C120 1.279 . S
O116 Cd113 2.297 . S
O116 C118 1.247 . S
O117 Cd113 2.439 . S
O117 C118 1.208 . S
C118 O116 1.247 . S
C118 O117 1.208 . S
C119 O124 1.247 . S
C119 O125 1.208 . S
C120 O112 1.315 . S
C120 O115 1.279 . S
C121 O122 1.315 . S
C121 O123 1.279 . S
O122 Cd114 2.223 . S
O122 C121 1.315 . S
O123 Cd113 2.240 . S
O123 C121 1.279 . S
O124 Cd114 2.297 . S
O124 C119 1.247 . S
O125 Cd114 2.439 . S
O125 C119 1.208 . S
O126 Cd127 2.223 . S
O126 C134 1.315 . S
Cd127 O126 2.223 . S
Cd127 O130 2.297 . S
Cd127 O131 2.439 1_554 S
Cd127 O137 2.240 . S
Cd128 O129 2.240 . S
Cd128 O136 2.223 . S
Cd128 O138 2.297 . S
Cd128 O139 2.439 1_554 S
O129 Cd128 2.240 . S
O129 C134 1.279 . S
O130 Cd127 2.297 . S
O130 C132 1.247 1_554 S
O131 Cd127 2.439 1_556 S
O131 C132 1.208 . S
C132 O130 1.247 1_556 S
C132 O131 1.208 . S
C133 O138 1.247 . S
C133 O139 1.208 1_554 S
C134 O126 1.315 . S
C134 O129 1.279 . S
C135 O136 1.315 . S
C135 O137 1.279 . S
O136 Cd128 2.223 . S
O136 C135 1.315 . S
O137 Cd127 2.240 . S
O137 C135 1.279 . S
O138 Cd128 2.297 . S
O138 C133 1.247 . S
O139 Cd128 2.439 1_556 S
O139 C133 1.208 1_556 S
O140 Cd141 2.223 1_556 S
O140 C148 1.315 . S
Cd141 O140 2.223 1_554 S
Cd141 O144 2.297 . S
Cd141 O145 2.439 . S
Cd141 O151 2.240 . S
Cd142 O143 2.240 . S
Cd142 O150 2.223 1_554 S
Cd142 O152 2.297 . S
Cd142 O153 2.439 . S
O143 Cd142 2.240 . S
O143 C148 1.279 1_554 S
O144 Cd141 2.297 . S
O144 C146 1.247 . S
O145 Cd141 2.439 . S
O145 C146 1.208 . S
C146 O144 1.247 . S
C146 O145 1.208 . S
C147 O152 1.247 . S
C147 O153 1.208 . S
C148 O140 1.315 . S
C148 O143 1.279 1_556 S
C149 O150 1.315 1_554 S
C149 O151 1.279 . S
O150 Cd142 2.223 1_556 S
O150 C149 1.315 1_556 S
O151 Cd141 2.240 . S
O151 C149 1.279 . S
O152 Cd142 2.297 . S
O152 C147 1.247 . S
O153 Cd142 2.439 . S
O153 C147 1.208 . S
O154 Cd155 2.223 . S
O154 C162 1.315 . S
Cd155 O154 2.223 . S
Cd155 O158 2.297 . S
Cd155 O159 2.439 1_554 S
Cd155 O165 2.240 . S
Cd156 O157 2.240 . S
Cd156 O164 2.223 . S
Cd156 O166 2.297 . S
Cd156 O167 2.439 . S
O157 Cd156 2.240 . S
O157 C162 1.279 . S
O158 Cd155 2.297 . S
O158 C160 1.247 1_554 S
O159 Cd155 2.439 1_556 S
O159 C160 1.208 . S
C160 O158 1.247 1_556 S
C160 O159 1.208 . S
C161 O166 1.247 . S
C161 O167 1.208 . S
C162 O154 1.315 . S
C162 O157 1.279 . S
C163 O164 1.315 . S
C163 O165 1.279 . S
O164 Cd156 2.223 . S
O164 C163 1.315 . S
O165 Cd155 2.240 . S
O165 C163 1.279 . S
O166 Cd156 2.297 . S
O166 C161 1.247 . S
O167 Cd156 2.439 . S
O167 C161 1.208 . S
O168 Cd169 2.223 1_554 S
O168 C176 1.315 . S
Cd169 O168 2.223 1_556 S
Cd169 O172 2.297 . S
Cd169 O173 2.439 . S
Cd169 O179 2.240 . S
Cd170 O171 2.240 . S
Cd170 O178 2.223 1_556 S
Cd170 O180 2.297 . S
Cd170 O181 2.439 . S
O171 Cd170 2.240 . S
O171 C176 1.279 1_556 S
O172 Cd169 2.297 . S
O172 C174 1.247 . S
O173 Cd169 2.439 . S
O173 C174 1.208 . S
C174 O172 1.247 . S
C174 O173 1.208 . S
C175 O180 1.247 . S
C175 O181 1.208 . S
C176 O168 1.315 . S
C176 O171 1.279 1_554 S
C177 O178 1.315 . S
C177 O179 1.279 1_554 S
O178 Cd170 2.223 1_554 S
O178 C177 1.315 . S
O179 Cd169 2.240 . S
O179 C177 1.279 1_556 S
O180 Cd170 2.297 . S
O180 C175 1.247 . S
O181 Cd170 2.439 . S
O181 C175 1.208 . S
O182 Cd183 2.223 1_554 S
O182 C190 1.315 . S
Cd183 O182 2.223 1_556 S
Cd183 O186 2.297 . S
Cd183 O187 2.439 . S
Cd183 O193 2.240 . S
Cd184 O185 2.240 . S
Cd184 O192 2.223 1_556 S
Cd184 O194 2.297 . S
Cd184 O195 2.439 . S
O185 Cd184 2.240 . S
O185 C190 1.279 1_556 S
O186 Cd183 2.297 . S
O186 C188 1.247 . S
O187 Cd183 2.439 . S
O187 C188 1.208 . S
C188 O186 1.247 . S
C188 O187 1.208 . S
C189 O194 1.247 . S
C189 O195 1.208 . S
C190 O182 1.315 . S
C190 O185 1.279 1_554 S
C191 O192 1.315 1_556 S
C191 O193 1.279 . S
O192 Cd184 2.223 1_554 S
O192 C191 1.315 1_554 S
O193 Cd183 2.240 . S
O193 C191 1.279 . S
O194 Cd184 2.297 . S
O194 C189 1.247 . S
O195 Cd184 2.439 . S
O195 C189 1.208 . S
O196 Cd197 2.223 . S
O196 C204 1.315 . S
Cd197 O196 2.223 . S
Cd197 O200 2.297 . S
Cd197 O201 2.439 1_556 S
Cd197 O207 2.240 . S
Cd198 O199 2.240 . S
Cd198 O206 2.223 . S
Cd198 O208 2.297 . S
Cd198 O209 2.439 . S
O199 Cd198 2.240 . S
O199 C204 1.279 . S
O200 Cd197 2.297 . S
O200 C202 1.247 1_556 S
O201 Cd197 2.439 1_554 S
O201 C202 1.208 . S
C202 O200 1.247 1_554 S
C202 O201 1.208 . S
C203 O208 1.247 . S
C203 O209 1.208 . S
C204 O196 1.315 . S
C204 O199 1.279 . S
C205 O206 1.315 . S
C205 O207 1.279 . S
O206 Cd198 2.223 . S
O206 C205 1.315 . S
O207 Cd197 2.240 . S
O207 C205 1.279 . S
O208 Cd198 2.297 . S
O208 C203 1.247 . S
O209 Cd198 2.439 . S
O209 C203 1.208 . S
O210 Cd211 2.223 . S
O210 C218 1.315 . S
Cd211 O210 2.223 . S
Cd211 O214 2.297 . S
Cd211 O215 2.439 . S
Cd211 O221 2.240 . S
Cd212 O213 2.240 . S
Cd212 O220 2.223 . S
Cd212 O222 2.297 . S
Cd212 O223 2.439 . S
O213 Cd212 2.240 . S
O213 C218 1.279 . S
O214 Cd211 2.297 . S
O214 C216 1.247 . S
O215 Cd211 2.439 . S
O215 C216 1.208 . S
C216 O214 1.247 . S
C216 O215 1.208 . S
C217 O222 1.247 . S
C217 O223 1.208 . S
C218 O210 1.315 . S
C218 O213 1.279 . S
C219 O220 1.315 . S
C219 O221 1.279 . S
O220 Cd212 2.223 . S
O220 C219 1.315 . S
O221 Cd211 2.240 . S
O221 C219 1.279 . S
O222 Cd212 2.297 . S
O222 C217 1.247 . S
O223 Cd212 2.439 . S
O223 C217 1.208 . S
O224 Cd225 2.223 . S
O224 C232 1.315 . S
Cd225 O224 2.223 . S
Cd225 O228 2.297 . S
Cd225 O229 2.439 . S
Cd225 O235 2.240 . S
Cd226 O227 2.240 . S
Cd226 O234 2.223 . S
Cd226 O236 2.297 . S
Cd226 O237 2.439 . S
O227 Cd226 2.240 . S
O227 C232 1.279 . S
O228 Cd225 2.297 . S
O228 C230 1.247 . S
O229 Cd225 2.439 . S
O229 C230 1.208 . S
C230 O228 1.247 . S
C230 O229 1.208 . S
C231 O236 1.247 . S
C231 O237 1.208 . S
C232 O224 1.315 . S
C232 O227 1.279 . S
C233 O234 1.315 . S
C233 O235 1.279 . S
O234 Cd226 2.223 . S
O234 C233 1.315 . S
O235 Cd225 2.240 . S
O235 C233 1.279 . S
O236 Cd226 2.297 . S
O236 C231 1.247 . S
O237 Cd226 2.439 . S
O237 C231 1.208 . S
O238 Cd239 2.223 . S
O238 C246 1.315 . S
Cd239 O238 2.223 . S
Cd239 O242 2.297 . S
Cd239 O243 2.439 . S
Cd239 O249 2.240 . S
Cd240 O241 2.240 . S
Cd240 O248 2.223 . S
Cd240 O250 2.297 . S
Cd240 O251 2.439 . S
O241 Cd240 2.240 . S
O241 C246 1.279 . S
O242 Cd239 2.297 . S
O242 C244 1.247 . S
O243 Cd239 2.439 . S
O243 C244 1.208 . S
C244 O242 1.247 . S
C244 O243 1.208 . S
C245 O250 1.247 . S
C245 O251 1.208 . S
C246 O238 1.315 . S
C246 O241 1.279 . S
C247 O248 1.315 . S
C247 O249 1.279 . S
O248 Cd240 2.223 . S
O248 C247 1.315 . S
O249 Cd239 2.240 . S
O249 C247 1.279 . S
O250 Cd240 2.297 . S
O250 C245 1.247 . S
O251 Cd240 2.439 . S
O251 C245 1.208 . S
H252 C258 0.930 . S
H253 C261 0.930 . S
H254 C262 0.930 . S
H255 C263 0.930 . S
H256 C266 0.930 1_655 S
H257 C267 0.930 . S
C258 H252 0.930 . S
C258 C259 1.355 1_655 S
C258 C260 1.415 1_655 S
C259 C258 1.355 1_455 S
C259 C261 1.419 . S
C260 C258 1.415 1_455 S
C260 C265 1.425 . S
C260 C267 1.409 1_455 S
C261 H253 0.930 . S
C261 C259 1.419 . S
C261 C262 1.362 . S
C262 H254 0.930 . S
C262 C261 1.362 . S
C262 C265 1.409 . S
C263 H255 0.930 . S
C263 C264 1.355 . S
C263 C265 1.415 1_554 S
C264 C263 1.355 . S
C264 C266 1.419 . S
C265 C260 1.425 . S
C265 C262 1.409 . S
C265 C263 1.415 1_556 S
C266 H256 0.930 1_455 S
C266 C264 1.419 . S
C266 C267 1.362 1_454 S
C267 H257 0.930 . S
C267 C260 1.409 1_655 S
C267 C266 1.362 1_656 S
H268 C274 0.930 . S
H269 C277 0.930 . S
H270 C278 0.930 . S
H271 C279 0.930 . S
H272 C282 0.930 . S
H273 C283 0.930 1_556 S
C274 H268 0.930 . S
C274 C275 1.355 . S
C274 C276 1.415 . S
C275 C274 1.355 . S
C275 C277 1.419 . S
C276 C274 1.415 . S
C276 C281 1.425 1_556 S
C276 C283 1.409 1_556 S
C277 H269 0.930 . S
C277 C275 1.419 . S
C277 C278 1.362 1_556 S
C278 H270 0.930 . S
C278 C277 1.362 1_554 S
C278 C281 1.409 . S
C279 H271 0.930 . S
C279 C280 1.355 . S
C279 C281 1.415 . S
C280 C279 1.355 . S
C280 C282 1.419 . S
C281 C276 1.425 1_554 S
C281 C278 1.409 . S
C281 C279 1.415 . S
C282 H272 0.930 . S
C282 C280 1.419 . S
C282 C283 1.362 . S
C283 H273 0.930 1_554 S
C283 C276 1.409 1_554 S
C283 C282 1.362 . S
H284 C290 0.930 . S
H285 C293 0.930 . S
H286 C294 0.930 . S
H287 C295 0.930 . S
H288 C298 0.930 1_554 S
H289 C299 0.930 . S
C290 H284 0.930 . S
C290 C291 1.355 . S
C290 C292 1.415 . S
C291 C290 1.355 . S
C291 C293 1.419 . S
C292 C290 1.415 . S
C292 C297 1.425 1_554 S
C292 C299 1.409 . S
C293 H285 0.930 . S
C293 C291 1.419 . S
C293 C294 1.362 1_554 S
C294 H286 0.930 . S
C294 C293 1.362 1_556 S
C294 C297 1.409 . S
C295 H287 0.930 . S
C295 C296 1.355 . S
C295 C297 1.415 . S
C296 C295 1.355 . S
C296 C298 1.420 . S
C297 C292 1.425 1_556 S
C297 C294 1.409 . S
C297 C295 1.415 . S
C298 H288 0.930 1_556 S
C298 C296 1.420 . S
C298 C299 1.361 1_556 S
C299 H289 0.930 . S
C299 C292 1.409 . S
C299 C298 1.361 1_554 S
H300 C306 0.930 . S
H301 C309 0.930 . S
H302 C310 0.930 . S
H303 C311 0.930 . S
H304 C314 0.930 . S
H305 C315 0.930 . S
C306 H300 0.930 . S
C306 C307 1.355 . S
C306 C308 1.415 . S
C307 C306 1.355 . S
C307 C309 1.419 . S
C308 C306 1.415 . S
C308 C313 1.425 . S
C308 C315 1.409 . S
C309 H301 0.930 . S
C309 C307 1.419 . S
C309 C310 1.362 . S
C310 H302 0.930 . S
C310 C309 1.362 . S
C310 C313 1.409 . S
C311 H303 0.930 . S
C311 C312 1.355 . S
C311 C313 1.415 . S
C312 C311 1.355 . S
C312 C314 1.419 . S
C313 C308 1.425 . S
C313 C310 1.409 . S
C313 C311 1.415 . S
C314 H304 0.930 . S
C314 C312 1.419 . S
C314 C315 1.362 . S
C315 H305 0.930 . S
C315 C308 1.409 . S
C315 C314 1.362 . S
H316 C322 0.930 . S
H317 C325 0.930 . S
H318 C326 0.930 . S
H319 C327 0.931 . S
H320 C330 0.930 . S
H321 C331 0.930 . S
C322 H316 0.930 . S
C322 C323 1.355 . S
C322 C324 1.415 . S
C323 C322 1.355 . S
C323 C325 1.419 1_455 S
C324 C322 1.415 . S
C324 C329 1.425 . S
C324 C331 1.409 . S
C325 H317 0.930 . S
C325 C323 1.419 1_655 S
C325 C326 1.362 . S
C326 H318 0.930 . S
C326 C325 1.362 . S
C326 C329 1.409 1_655 S
C327 H319 0.931 . S
C327 C328 1.352 1_655 S
C327 C329 1.415 1_655 S
C328 C327 1.352 1_455 S
C328 C330 1.419 . S
C329 C324 1.425 . S
C329 C326 1.409 1_455 S
C329 C327 1.415 1_455 S
C330 H320 0.930 . S
C330 C328 1.419 . S
C330 C331 1.362 . S
C331 H321 0.930 . S
C331 C324 1.409 . S
C331 C330 1.362 . S
H332 C338 0.930 . S
H333 C341 0.930 . S
H334 C342 0.930 . S
H335 C343 0.930 . S
H336 C346 0.930 . S
H337 C347 0.930 . S
C338 H332 0.930 . S
C338 C339 1.355 . S
C338 C340 1.415 . S
C339 C338 1.355 . S
C339 C341 1.419 . S
C340 C338 1.415 . S
C340 C345 1.425 . S
C340 C347 1.409 . S
C341 H333 0.930 . S
C341 C339 1.419 . S
C341 C342 1.362 . S
C342 H334 0.930 . S
C342 C341 1.362 . S
C342 C345 1.409 . S
C343 H335 0.930 . S
C343 C344 1.355 . S
C343 C345 1.415 . S
C344 C343 1.355 . S
C344 C346 1.419 . S
C345 C340 1.425 . S
C345 C342 1.409 . S
C345 C343 1.415 . S
C346 H336 0.930 . S
C346 C344 1.419 . S
C346 C347 1.362 . S
C347 H337 0.930 . S
C347 C340 1.409 . S
C347 C346 1.362 . S
H348 C354 0.930 . S
H349 C357 0.930 . S
H350 C358 0.930 . S
H351 C359 0.930 . S
H352 C362 0.930 . S
H353 C363 0.930 . S
C354 H348 0.930 . S
C354 C355 1.355 . S
C354 C356 1.415 . S
C355 C354 1.355 . S
C355 C357 1.419 . S
C356 C354 1.415 . S
C356 C361 1.425 . S
C356 C363 1.409 . S
C357 H349 0.930 . S
C357 C355 1.419 . S
C357 C358 1.362 . S
C358 H350 0.930 . S
C358 C357 1.362 . S
C358 C361 1.409 . S
C359 H351 0.930 . S
C359 C360 1.355 . S
C359 C361 1.415 . S
C360 C359 1.355 . S
C360 C362 1.419 . S
C361 C356 1.425 . S
C361 C358 1.409 . S
C361 C359 1.415 . S
C362 H352 0.930 . S
C362 C360 1.419 . S
C362 C363 1.362 . S
C363 H353 0.930 . S
C363 C356 1.409 . S
C363 C362 1.362 . S
H364 C370 0.930 . S
H365 C373 0.930 . S
H366 C374 0.930 . S
H367 C375 0.930 . S
H368 C378 0.930 . S
H369 C379 0.930 . S
C370 H364 0.930 . S
C370 C371 1.355 . S
C370 C372 1.415 . S
C371 C370 1.355 . S
C371 C373 1.419 . S
C372 C370 1.415 . S
C372 C377 1.425 . S
C372 C379 1.409 . S
C373 H365 0.930 . S
C373 C371 1.419 . S
C373 C374 1.362 . S
C374 H366 0.930 . S
C374 C373 1.362 . S
C374 C377 1.409 . S
C375 H367 0.930 . S
C375 C376 1.355 . S
C375 C377 1.415 . S
C376 C375 1.355 . S
C376 C378 1.419 . S
C377 C372 1.425 . S
C377 C374 1.409 . S
C377 C375 1.415 . S
C378 H368 0.930 . S
C378 C376 1.419 . S
C378 C379 1.362 . S
C379 H369 0.930 . S
C379 C372 1.409 . S
C379 C378 1.362 . S
H380 C386 0.930 . S
H381 C389 0.930 . S
H382 C390 0.930 . S
H383 C391 0.930 . S
H384 C394 0.930 . S
H385 C395 0.930 . S
C386 H380 0.930 . S
C386 C387 1.355 . S
C386 C388 1.415 . S
C387 C386 1.355 . S
C387 C389 1.419 . S
C388 C386 1.415 . S
C388 C393 1.425 . S
C388 C395 1.409 . S
C389 H381 0.930 . S
C389 C387 1.419 . S
C389 C390 1.362 . S
C390 H382 0.930 . S
C390 C389 1.362 . S
C390 C393 1.409 . S
C391 H383 0.930 . S
C391 C392 1.355 . S
C391 C393 1.415 . S
C392 C391 1.355 . S
C392 C394 1.419 . S
C393 C388 1.425 . S
C393 C390 1.409 . S
C393 C391 1.415 . S
C394 H384 0.930 . S
C394 C392 1.419 . S
C394 C395 1.362 . S
C395 H385 0.930 . S
C395 C388 1.409 . S
C395 C394 1.362 . S
H396 C402 0.930 . S
H397 C405 0.930 . S
H398 C406 0.930 . S
H399 C407 0.930 . S
H400 C410 0.930 . S
H401 C411 0.930 . S
C402 H396 0.930 . S
C402 C403 1.355 . S
C402 C404 1.415 . S
C403 C402 1.355 . S
C403 C405 1.419 . S
C404 C402 1.415 . S
C404 C409 1.425 . S
C404 C411 1.409 . S
C405 H397 0.930 . S
C405 C403 1.419 . S
C405 C406 1.362 . S
C406 H398 0.930 . S
C406 C405 1.362 . S
C406 C409 1.409 . S
C407 H399 0.930 . S
C407 C408 1.355 . S
C407 C409 1.415 . S
C408 C407 1.355 . S
C408 C410 1.419 . S
C409 C404 1.425 . S
C409 C406 1.409 . S
C409 C407 1.415 . S
C410 H400 0.930 . S
C410 C408 1.419 . S
C410 C411 1.362 . S
C411 H401 0.930 . S
C411 C404 1.409 . S
C411 C410 1.362 . S
H412 C418 0.930 . S
H413 C421 0.930 . S
H414 C422 0.930 . S
H415 C423 0.930 . S
H416 C426 0.930 . S
H417 C427 0.930 . S
C418 H412 0.930 . S
C418 C419 1.355 . S
C418 C420 1.415 . S
C419 C418 1.355 . S
C419 C421 1.419 . S
C420 C418 1.415 . S
C420 C425 1.425 . S
C420 C427 1.409 . S
C421 H413 0.930 . S
C421 C419 1.419 . S
C421 C422 1.362 . S
C422 H414 0.930 . S
C422 C421 1.362 . S
C422 C425 1.409 . S
C423 H415 0.930 . S
C423 C424 1.355 . S
C423 C425 1.415 . S
C424 C423 1.355 . S
C424 C426 1.419 . S
C425 C420 1.425 . S
C425 C422 1.409 . S
C425 C423 1.415 . S
C426 H416 0.930 . S
C426 C424 1.419 . S
C426 C427 1.362 . S
C427 H417 0.930 . S
C427 C420 1.409 . S
C427 C426 1.362 . S
H428 C434 0.930 . S
H429 C437 0.919 1_554 S
H430 C438 0.930 . S
H431 C439 0.930 . S
H432 C442 0.930 . S
H433 C443 0.930 . S
C434 H428 0.930 . S
C434 C435 1.355 . S
C434 C436 1.415 . S
C435 C434 1.355 . S
C435 C437 1.419 . S
C436 C434 1.415 . S
C436 C441 1.425 . S
C436 C443 1.409 . S
C437 H429 0.919 1_556 S
C437 C435 1.419 . S
C437 C438 1.362 . S
C438 H430 0.930 . S
C438 C437 1.362 . S
C438 C441 1.409 . S
C439 H431 0.930 . S
C439 C440 1.355 . S
C439 C441 1.415 . S
C440 C439 1.355 . S
C440 C442 1.419 . S
C441 C436 1.425 . S
C441 C438 1.409 . S
C441 C439 1.415 . S
C442 H432 0.930 . S
C442 C440 1.419 . S
C442 C443 1.362 . S
C443 H433 0.930 . S
C443 C436 1.409 . S
C443 C442 1.362 . S
H444 C450 0.930 . S
H445 C453 0.930 . S
H446 C454 0.930 . S
H447 C455 0.930 . S
H448 C458 0.930 . S
H449 C459 0.930 . S
C450 H444 0.930 . S
C450 C451 1.355 . S
C450 C452 1.415 . S
C451 C450 1.355 . S
C451 C453 1.419 . S
C452 C450 1.415 . S
C452 C457 1.425 . S
C452 C459 1.409 . S
C453 H445 0.930 . S
C453 C451 1.419 . S
C453 C454 1.362 . S
C454 H446 0.930 . S
C454 C453 1.362 . S
C454 C457 1.409 . S
C455 H447 0.930 . S
C455 C456 1.355 . S
C455 C457 1.415 . S
C456 C455 1.355 . S
C456 C458 1.419 . S
C457 C452 1.425 . S
C457 C454 1.409 . S
C457 C455 1.415 . S
C458 H448 0.930 . S
C458 C456 1.419 . S
C458 C459 1.362 . S
C459 H449 0.930 . S
C459 C452 1.409 . S
C459 C458 1.362 . S
H460 C466 0.930 . S
H461 C469 0.930 . S
H462 C470 0.930 . S
H463 C471 0.930 . S
H464 C474 0.930 . S
H465 C475 0.930 . S
C466 H460 0.930 . S
C466 C467 1.355 . S
C466 C468 1.415 . S
C467 C466 1.355 . S
C467 C469 1.419 . S
C468 C466 1.415 . S
C468 C473 1.425 . S
C468 C475 1.409 . S
C469 H461 0.930 . S
C469 C467 1.419 . S
C469 C470 1.362 . S
C470 H462 0.930 . S
C470 C469 1.362 . S
C470 C473 1.409 . S
C471 H463 0.930 . S
C471 C472 1.355 . S
C471 C473 1.415 . S
C472 C471 1.355 . S
C472 C474 1.419 . S
C473 C468 1.425 . S
C473 C470 1.409 . S
C473 C471 1.415 . S
C474 H464 0.930 . S
C474 C472 1.419 . S
C474 C475 1.362 . S
C475 H465 0.930 . S
C475 C468 1.409 . S
C475 C474 1.362 . S
H476 C482 0.930 . S
H477 C485 0.930 . S
H478 C486 0.930 . S
H479 C487 0.930 . S
H480 C490 0.930 . S
H481 C491 0.930 . S
C482 H476 0.930 . S
C482 C483 1.355 . S
C482 C484 1.415 . S
C483 C482 1.355 . S
C483 C485 1.419 . S
C484 C482 1.415 . S
C484 C489 1.425 . S
C484 C491 1.409 . S
C485 H477 0.930 . S
C485 C483 1.419 . S
C485 C486 1.362 . S
C486 H478 0.930 . S
C486 C485 1.362 . S
C486 C489 1.409 . S
C487 H479 0.930 . S
C487 C488 1.355 . S
C487 C489 1.415 . S
C488 C487 1.355 . S
C488 C490 1.419 . S
C489 C484 1.425 . S
C489 C486 1.409 . S
C489 C487 1.415 . S
C490 H480 0.930 . S
C490 C488 1.419 . S
C490 C491 1.362 . S
C491 H481 0.930 . S
C491 C484 1.409 . S
C491 C490 1.362 . S
H492 C498 0.930 . S
H493 C501 0.930 . S
H494 C502 0.930 . S
H495 C503 0.930 . S
H496 C506 0.930 . S
H497 C507 0.930 . S
C498 H492 0.930 . S
C498 C499 1.355 . S
C498 C500 1.415 . S
C499 C498 1.355 . S
C499 C501 1.419 . S
C500 C498 1.415 . S
C500 C505 1.425 . S
C500 C507 1.409 . S
C501 H493 0.930 . S
C501 C499 1.419 . S
C501 C502 1.362 . S
C502 H494 0.930 . S
C502 C501 1.362 . S
C502 C505 1.409 . S
C503 H495 0.930 . S
C503 C504 1.355 . S
C503 C505 1.415 . S
C504 C503 1.355 . S
C504 C506 1.419 . S
C505 C500 1.425 . S
C505 C502 1.409 . S
C505 C503 1.415 . S
C506 H496 0.930 . S
C506 C504 1.419 . S
C506 C507 1.362 . S
C507 H497 0.930 . S
C507 C500 1.409 . S
C507 C506 1.362 . S
H508 C514 0.930 . S
H509 C517 0.930 . S
H510 C518 0.930 . S
H511 C519 0.930 . S
H512 C522 0.930 . S
H513 C523 0.930 . S
C514 H508 0.930 . S
C514 C515 1.355 . S
C514 C516 1.415 . S
C515 C514 1.355 . S
C515 C517 1.419 . S
C516 C514 1.415 . S
C516 C521 1.425 . S
C516 C523 1.409 . S
C517 H509 0.930 . S
C517 C515 1.419 . S
C517 C518 1.362 . S
C518 H510 0.930 . S
C518 C517 1.362 . S
C518 C521 1.409 . S
C519 H511 0.930 . S
C519 C520 1.355 . S
C519 C521 1.415 . S
C520 C519 1.355 . S
C520 C522 1.419 . S
C521 C516 1.425 . S
C521 C518 1.409 . S
C521 C519 1.415 . S
C522 H512 0.930 . S
C522 C520 1.419 . S
C522 C523 1.362 . S
C523 H513 0.930 . S
C523 C516 1.409 . S
C523 C522 1.362 . S
H524 C530 0.930 . S
H525 C533 0.930 . S
H526 C534 0.930 . S
H527 C535 0.930 . S
H528 C538 0.930 . S
H529 C539 0.930 . S
C530 H524 0.930 . S
C530 C531 1.355 . S
C530 C532 1.415 . S
C531 C530 1.355 . S
C531 C533 1.419 . S
C532 C530 1.415 . S
C532 C537 1.425 . S
C532 C539 1.409 . S
C533 H525 0.930 . S
C533 C531 1.419 . S
C533 C534 1.362 . S
C534 H526 0.930 . S
C534 C533 1.362 . S
C534 C537 1.409 . S
C535 H527 0.930 . S
C535 C536 1.355 . S
C535 C537 1.415 . S
C536 C535 1.355 . S
C536 C538 1.419 . S
C537 C532 1.425 . S
C537 C534 1.409 . S
C537 C535 1.415 . S
C538 H528 0.930 . S
C538 C536 1.419 . S
C538 C539 1.362 . S
C539 H529 0.930 . S
C539 C532 1.409 . S
C539 C538 1.362 . S
H540 C546 0.930 . S
H541 C549 0.930 . S
H542 C550 0.930 . S
H543 C551 0.930 . S
H544 C554 0.930 . S
H545 C555 0.930 . S
C546 H540 0.930 . S
C546 C547 1.355 . S
C546 C548 1.415 . S
C547 C546 1.355 . S
C547 C549 1.419 . S
C548 C546 1.415 . S
C548 C553 1.425 . S
C548 C555 1.409 . S
C549 H541 0.930 . S
C549 C547 1.419 . S
C549 C550 1.362 . S
C550 H542 0.930 . S
C550 C549 1.362 . S
C550 C553 1.409 . S
C551 H543 0.930 . S
C551 C552 1.355 . S
C551 C553 1.415 . S
C552 C551 1.355 . S
C552 C554 1.419 . S
C553 C548 1.425 . S
C553 C550 1.409 . S
C553 C551 1.415 . S
C554 H544 0.930 . S
C554 C552 1.419 . S
C554 C555 1.362 . S
C555 H545 0.930 . S
C555 C548 1.409 . S
C555 C554 1.362 . S
H556 C562 0.930 . S
H557 C565 0.930 . S
H558 C566 0.930 . S
H559 C567 0.930 . S
H560 C570 0.930 . S
H561 C571 0.930 . S
C562 H556 0.930 . S
C562 C563 1.355 . S
C562 C564 1.415 . S
C563 C562 1.355 . S
C563 C565 1.419 . S
C564 C562 1.415 . S
C564 C569 1.425 . S
C564 C571 1.409 . S
C565 H557 0.930 . S
C565 C563 1.419 . S
C565 C566 1.362 . S
C566 H558 0.930 . S
C566 C565 1.362 . S
C566 C569 1.409 . S
C567 H559 0.930 . S
C567 C568 1.355 . S
C567 C569 1.415 . S
C568 C567 1.355 . S
C568 C570 1.419 . S
C569 C564 1.425 . S
C569 C566 1.409 . S
C569 C567 1.415 . S
C570 H560 0.930 . S
C570 C568 1.419 . S
C570 C571 1.362 . S
C571 H561 0.930 . S
C571 C564 1.409 . S
C571 C570 1.362 . S
H572 C578 0.930 . S
H573 C581 0.930 . S
H574 C582 0.930 . S
H575 C583 0.930 . S
H576 C586 0.930 . S
H577 C587 0.930 . S
C578 H572 0.930 . S
C578 C579 1.355 . S
C578 C580 1.415 . S
C579 C578 1.355 . S
C579 C581 1.419 . S
C580 C578 1.415 . S
C580 C585 1.425 . S
C580 C587 1.409 . S
C581 H573 0.930 . S
C581 C579 1.419 . S
C581 C582 1.362 . S
C582 H574 0.930 . S
C582 C581 1.362 . S
C582 C585 1.409 . S
C583 H575 0.930 . S
C583 C584 1.355 . S
C583 C585 1.415 . S
C584 C583 1.355 . S
C584 C586 1.419 . S
C585 C580 1.425 . S
C585 C582 1.409 . S
C585 C583 1.415 . S
C586 H576 0.930 . S
C586 C584 1.419 . S
C586 C587 1.362 . S
C587 H577 0.930 . S
C587 C580 1.409 . S
C587 C586 1.362 . S
H588 C594 0.930 . S
H589 C597 0.930 . S
H590 C598 0.929 1_556 S
H591 C599 0.930 1_556 S
H592 C602 0.930 . S
H593 C603 0.930 . S
C594 H588 0.930 . S
C594 C595 1.355 . S
C594 C596 1.415 . S
C595 C594 1.355 . S
C595 C597 1.419 . S
C596 C594 1.415 . S
C596 C601 1.425 . S
C596 C603 1.409 . S
C597 H589 0.930 . S
C597 C595 1.419 . S
C597 C598 1.362 . S
C598 H590 0.929 1_554 S
C598 C597 1.362 . S
C598 C601 1.409 . S
C599 H591 0.930 1_554 S
C599 C600 1.355 . S
C599 C601 1.415 . S
C600 C599 1.355 . S
C600 C602 1.419 . S
C601 C596 1.425 . S
C601 C598 1.409 . S
C601 C599 1.415 . S
C602 H592 0.930 . S
C602 C600 1.419 . S
C602 C603 1.362 . S
C603 H593 0.930 . S
C603 C596 1.409 . S
C603 C602 1.362 . S
H604 C610 0.930 . S
H605 C613 0.930 . S
H606 C614 0.930 . S
H607 C615 0.930 . S
H608 C618 0.930 . S
H609 C619 0.930 1_455 S
C610 H604 0.930 . S
C610 C611 1.355 . S
C610 C612 1.415 1_556 S
C611 C610 1.355 . S
C611 C613 1.419 1_556 S
C612 C610 1.415 1_554 S
C612 C617 1.425 . S
C612 C619 1.409 . S
C613 H605 0.930 . S
C613 C611 1.419 1_554 S
C613 C614 1.362 . S
C614 H606 0.930 . S
C614 C613 1.362 . S
C614 C617 1.409 . S
C615 H607 0.930 . S
C615 C616 1.355 . S
C615 C617 1.415 . S
C616 C615 1.355 . S
C616 C618 1.419 1_655 S
C617 C612 1.425 . S
C617 C614 1.409 . S
C617 C615 1.415 . S
C618 H608 0.930 . S
C618 C616 1.419 1_455 S
C618 C619 1.362 1_455 S
C619 H609 0.930 1_655 S
C619 C612 1.409 . S
C619 C618 1.362 1_655 S
H620 C626 0.930 . S
H621 C629 0.930 . S
H622 C630 0.930 . S
H623 C631 0.930 . S
H624 C634 0.930 . S
H625 C635 0.930 . S
C626 H620 0.930 . S
C626 C627 1.355 . S
C626 C628 1.415 . S
C627 C626 1.355 . S
C627 C629 1.419 . S
C628 C626 1.415 . S
C628 C633 1.425 . S
C628 C635 1.409 . S
C629 H621 0.930 . S
C629 C627 1.419 . S
C629 C630 1.362 . S
C630 H622 0.930 . S
C630 C629 1.362 . S
C630 C633 1.409 . S
C631 H623 0.930 . S
C631 C632 1.355 . S
C631 C633 1.415 . S
C632 C631 1.355 . S
C632 C634 1.419 . S
C633 C628 1.425 . S
C633 C630 1.409 . S
C633 C631 1.415 . S
C634 H624 0.930 . S
C634 C632 1.419 . S
C634 C635 1.362 . S
C635 H625 0.930 . S
C635 C628 1.409 . S
C635 C634 1.362 . S
H636 C642 0.930 . S
H637 C645 0.930 . S
H638 C646 0.930 . S
H639 C647 0.930 . S
H640 C650 0.930 . S
H641 C651 0.930 . S
C642 H636 0.930 . S
C642 C643 1.355 . S
C642 C644 1.415 . S
C643 C642 1.355 . S
C643 C645 1.419 . S
C644 C642 1.415 . S
C644 C649 1.425 . S
C644 C651 1.409 . S
C645 H637 0.930 . S
C645 C643 1.419 . S
C645 C646 1.362 . S
C646 H638 0.930 . S
C646 C645 1.362 . S
C646 C649 1.409 . S
C647 H639 0.930 . S
C647 C648 1.355 . S
C647 C649 1.415 . S
C648 C647 1.355 . S
C648 C650 1.419 . S
C649 C644 1.425 . S
C649 C646 1.409 . S
C649 C647 1.415 . S
C650 H640 0.930 . S
C650 C648 1.419 . S
C650 C651 1.362 . S
C651 H641 0.930 . S
C651 C644 1.409 . S
C651 C650 1.362 . S
H652 C658 0.930 . S
H653 C661 0.930 . S
H654 C662 0.930 . S
H655 C663 0.930 . S
H656 C666 0.930 . S
H657 C667 0.930 . S
C658 H652 0.930 . S
C658 C659 1.355 . S
C658 C660 1.415 . S
C659 C658 1.355 . S
C659 C661 1.419 . S
C660 C658 1.415 . S
C660 C665 1.425 . S
C660 C667 1.409 . S
C661 H653 0.930 . S
C661 C659 1.419 . S
C661 C662 1.362 . S
C662 H654 0.930 . S
C662 C661 1.362 . S
C662 C665 1.409 . S
C663 H655 0.930 . S
C663 C664 1.355 . S
C663 C665 1.415 . S
C664 C663 1.355 . S
C664 C666 1.419 . S
C665 C660 1.425 . S
C665 C662 1.409 . S
C665 C663 1.415 . S
C666 H656 0.930 . S
C666 C664 1.419 . S
C666 C667 1.362 . S
C667 H657 0.930 . S
C667 C660 1.409 . S
C667 C666 1.362 . S
H668 C674 0.930 . S
H669 C677 0.930 . S
H670 C678 0.930 . S
H671 C679 0.930 . S
H672 C682 0.930 . S
H673 C683 0.930 . S
C674 H668 0.930 . S
C674 C675 1.355 . S
C674 C676 1.415 . S
C675 C674 1.355 . S
C675 C677 1.419 . S
C676 C674 1.415 . S
C676 C681 1.425 . S
C676 C683 1.409 . S
C677 H669 0.930 . S
C677 C675 1.419 . S
C677 C678 1.362 . S
C678 H670 0.930 . S
C678 C677 1.362 . S
C678 C681 1.409 . S
C679 H671 0.930 . S
C679 C680 1.355 . S
C679 C681 1.415 . S
C680 C679 1.355 . S
C680 C682 1.419 . S
C681 C676 1.425 . S
C681 C678 1.409 . S
C681 C679 1.415 . S
C682 H672 0.930 . S
C682 C680 1.419 . S
C682 C683 1.362 . S
C683 H673 0.930 . S
C683 C676 1.409 . S
C683 C682 1.362 . S
H684 C690 0.930 . S
H685 C693 0.930 1_554 S
H686 C694 0.930 . S
H687 C695 0.930 . S
H688 C698 0.930 . S
H689 C699 0.930 . S
C690 H684 0.930 . S
C690 C691 1.355 . S
C690 C692 1.415 . S
C691 C690 1.355 . S
C691 C693 1.419 . S
C692 C690 1.415 . S
C692 C697 1.425 . S
C692 C699 1.409 1_565 S
C693 H685 0.930 1_556 S
C693 C691 1.419 . S
C693 C694 1.362 . S
C694 H686 0.930 . S
C694 C693 1.362 . S
C694 C697 1.409 . S
C695 H687 0.930 . S
C695 C696 1.355 1_565 S
C695 C697 1.415 . S
C696 C695 1.355 1_545 S
C696 C698 1.419 . S
C697 C692 1.425 . S
C697 C694 1.409 . S
C697 C695 1.415 . S
C698 H688 0.930 . S
C698 C696 1.419 . S
C698 C699 1.362 . S
C699 H689 0.930 . S
C699 C692 1.409 1_545 S
C699 C698 1.362 . S
H700 C706 0.930 . S
H701 C709 0.930 . S
H702 C710 0.930 . S
H703 C711 0.930 . S
H704 C714 0.930 1_554 S
H705 C715 0.930 . S
C706 H700 0.930 . S
C706 C707 1.355 . S
C706 C708 1.415 . S
C707 C706 1.355 . S
C707 C709 1.419 . S
C708 C706 1.415 . S
C708 C713 1.425 . S
C708 C715 1.409 . S
C709 H701 0.930 . S
C709 C707 1.419 . S
C709 C710 1.362 . S
C710 H702 0.930 . S
C710 C709 1.362 . S
C710 C713 1.409 . S
C711 H703 0.930 . S
C711 C712 1.355 . S
C711 C713 1.415 . S
C712 C711 1.355 . S
C712 C714 1.419 . S
C713 C708 1.425 . S
C713 C710 1.409 . S
C713 C711 1.415 . S
C714 H704 0.930 1_556 S
C714 C712 1.419 . S
C714 C715 1.362 . S
C715 H705 0.930 . S
C715 C708 1.409 . S
C715 C714 1.362 . S
H716 C722 0.930 . S
H717 C725 0.930 . S
H718 C726 0.930 . S
H719 C727 0.930 . S
H720 C730 0.930 . S
H721 C731 0.930 . S
C722 H716 0.930 . S
C722 C723 1.355 . S
C722 C724 1.415 . S
C723 C722 1.355 . S
C723 C725 1.419 . S
C724 C722 1.415 . S
C724 C729 1.425 . S
C724 C731 1.409 . S
C725 H717 0.930 . S
C725 C723 1.419 . S
C725 C726 1.362 . S
C726 H718 0.930 . S
C726 C725 1.362 . S
C726 C729 1.409 . S
C727 H719 0.930 . S
C727 C728 1.355 . S
C727 C729 1.415 . S
C728 C727 1.355 . S
C728 C730 1.419 . S
C729 C724 1.425 . S
C729 C726 1.409 . S
C729 C727 1.415 . S
C730 H720 0.930 . S
C730 C728 1.419 . S
C730 C731 1.362 . S
C731 H721 0.930 . S
C731 C724 1.409 . S
C731 C730 1.362 . S
H732 C738 0.930 . S
H733 C741 0.930 . S
H734 C742 0.963 . S
H735 C743 0.930 . S
H736 C746 0.930 1_545 S
H737 C747 0.930 . S
C738 H732 0.930 . S
C738 C739 1.355 . S
C738 C740 1.415 . S
C739 C738 1.355 . S
C739 C741 1.419 . S
C740 C738 1.415 . S
C740 C745 1.425 . S
C740 C747 1.409 . S
C741 H733 0.930 . S
C741 C739 1.419 . S
C741 C742 1.362 . S
C742 H734 0.963 . S
C742 C741 1.362 . S
C742 C745 1.409 . S
C743 H735 0.930 . S
C743 C744 1.355 . S
C743 C745 1.415 1_545 S
C744 C743 1.355 . S
C744 C746 1.419 1_545 S
C745 C740 1.425 . S
C745 C742 1.409 . S
C745 C743 1.415 1_565 S
C746 H736 0.930 1_565 S
C746 C744 1.419 1_565 S
C746 C747 1.362 . S
C747 H737 0.930 . S
C747 C740 1.409 . S
C747 C746 1.362 . S
H748 C754 0.930 . S
H749 C757 0.930 . S
H750 C758 0.930 . S
H751 C759 0.930 . S
H752 C762 0.930 . S
H753 C763 0.930 . S
C754 H748 0.930 . S
C754 C755 1.355 . S
C754 C756 1.415 . S
C755 C754 1.355 . S
C755 C757 1.419 . S
C756 C754 1.415 . S
C756 C761 1.425 . S
C756 C763 1.409 . S
C757 H749 0.930 . S
C757 C755 1.419 . S
C757 C758 1.362 . S
C758 H750 0.930 . S
C758 C757 1.362 . S
C758 C761 1.409 . S
C759 H751 0.930 . S
C759 C760 1.355 1_455 S
C759 C761 1.415 . S
C760 C759 1.355 1_655 S
C760 C762 1.419 . S
C761 C756 1.425 . S
C761 C758 1.409 . S
C761 C759 1.415 . S
C762 H752 0.930 . S
C762 C760 1.419 . S
C762 C763 1.362 1_655 S
C763 H753 0.930 . S
C763 C756 1.409 . S
C763 C762 1.362 1_455 S
H764 C770 0.930 . S
H765 C773 0.930 . S
H766 C774 0.930 . S
H767 C775 0.930 . S
H768 C778 0.930 . S
H769 C779 0.930 . S
C770 H764 0.930 . S
C770 C771 1.355 . S
C770 C772 1.415 . S
C771 C770 1.355 . S
C771 C773 1.419 . S
C772 C770 1.415 . S
C772 C777 1.425 . S
C772 C779 1.409 . S
C773 H765 0.930 . S
C773 C771 1.419 . S
C773 C774 1.362 . S
C774 H766 0.930 . S
C774 C773 1.362 . S
C774 C777 1.409 . S
C775 H767 0.930 . S
C775 C776 1.355 . S
C775 C777 1.415 . S
C776 C775 1.355 . S
C776 C778 1.419 . S
C777 C772 1.425 . S
C777 C774 1.409 . S
C777 C775 1.415 . S
C778 H768 0.930 . S
C778 C776 1.419 . S
C778 C779 1.362 . S
C779 H769 0.930 . S
C779 C772 1.409 . S
C779 C778 1.362 . S
H780 C786 0.930 . S
H781 C789 0.930 . S
H782 C790 0.930 . S
H783 C791 0.930 . S
H784 C794 0.930 . S
H785 C795 0.930 . S
C786 H780 0.930 . S
C786 C787 1.355 . S
C786 C788 1.415 1_655 S
C787 C786 1.355 . S
C787 C789 1.419 . S
C788 C786 1.415 1_455 S
C788 C793 1.425 . S
C788 C795 1.409 . S
C789 H781 0.930 . S
C789 C787 1.419 . S
C789 C790 1.362 . S
C790 H782 0.930 . S
C790 C789 1.362 . S
C790 C793 1.409 1_655 S
C791 H783 0.930 . S
C791 C792 1.355 . S
C791 C793 1.415 . S
C792 C791 1.355 . S
C792 C794 1.419 . S
C793 C788 1.425 . S
C793 C790 1.409 1_455 S
C793 C791 1.415 . S
C794 H784 0.930 . S
C794 C792 1.419 . S
C794 C795 1.362 . S
C795 H785 0.930 . S
C795 C788 1.409 . S
C795 C794 1.362 . S
H796 C802 0.930 . S
H797 C805 0.930 . S
H798 C806 0.930 . S
H799 C807 0.930 . S
H800 C810 0.930 . S
H801 C811 0.930 . S
C802 H796 0.930 . S
C802 C803 1.355 . S
C802 C804 1.415 . S
C803 C802 1.355 . S
C803 C805 1.419 . S
C804 C802 1.415 . S
C804 C809 1.425 . S
C804 C811 1.409 . S
C805 H797 0.930 . S
C805 C803 1.419 . S
C805 C806 1.362 . S
C806 H798 0.930 . S
C806 C805 1.362 . S
C806 C809 1.409 . S
C807 H799 0.930 . S
C807 C808 1.355 . S
C807 C809 1.415 . S
C808 C807 1.355 . S
C808 C810 1.419 . S
C809 C804 1.425 . S
C809 C806 1.409 . S
C809 C807 1.415 . S
C810 H800 0.930 . S
C810 C808 1.419 . S
C810 C811 1.362 . S
C811 H801 0.930 . S
C811 C804 1.409 . S
C811 C810 1.362 . S
H812 C818 0.930 . S
H813 C821 0.930 . S
H814 C822 0.930 . S
H815 C823 0.930 . S
H816 C826 0.930 . S
H817 C827 0.930 1_565 S
C818 H812 0.930 . S
C818 C819 1.355 . S
C818 C820 1.415 1_565 S
C819 C818 1.355 . S
C819 C821 1.419 1_565 S
C820 C818 1.415 1_545 S
C820 C825 1.425 . S
C820 C827 1.409 . S
C821 H813 0.930 . S
C821 C819 1.419 1_545 S
C821 C822 1.362 . S
C822 H814 0.930 . S
C822 C821 1.362 . S
C822 C825 1.409 . S
C823 H815 0.930 . S
C823 C824 1.355 . S
C823 C825 1.415 . S
C824 C823 1.355 . S
C824 C826 1.419 . S
C825 C820 1.425 . S
C825 C822 1.409 . S
C825 C823 1.415 . S
C826 H816 0.930 . S
C826 C824 1.419 . S
C826 C827 1.362 . S
C827 H817 0.930 1_545 S
C827 C820 1.409 . S
C827 C826 1.362 . S
C259 C50 1.305 . S
C264 C6 1.415 . S
C275 C62 1.514 . S
C280 C20 1.501 . S
C291 C36 1.630 . S
C296 C78 1.607 . S
C307 C34 1.426 . S
C312 C76 1.411 . S
C323 C8 1.373 . S
C328 C48 1.382 . S
C339 C64 1.522 . S
C344 C22 1.455 . S
C355 C134 1.300 . S
C360 C90 1.334 . S
C371 C104 1.421 . S
C376 C146 1.428 . S
C387 C118 1.396 . S
C392 C162 1.376 . S
C403 C160 1.554 . S
C408 C120 1.494 . S
C419 C132 1.453 . S
C424 C92 1.349 . S
C435 C148 1.606 . S
C440 C106 1.579 . S
C451 C174 1.473 . S
C456 C218 1.471 . S
C467 C188 1.445 . S
C472 C230 1.453 . S
C483 C204 1.522 . S
C488 C246 1.490 . S
C499 C244 1.377 . S
C504 C202 1.390 . S
C515 C216 1.385 . S
C520 C176 1.338 . S
C531 C232 1.510 . S
C536 C190 1.491 . S
C547 C9 1.420 . S
C552 C105 1.470 . S
C563 C23 1.451 . S
C568 C119 1.425 . S
C579 C91 1.201 . S
C584 C35 1.202 . S
C595 C37 1.609 . S
C600 C191 1.607 1_554 S
C611 C203 1.122 . S
C616 C7 1.119 . S
C627 C177 1.547 . S
C632 C21 1.491 . S
C643 C231 1.171 . S
C648 C49 1.176 . S
C659 C65 1.520 . S
C664 C247 1.581 . S
C675 C219 1.423 . S
C680 C77 1.429 . S
C691 C149 1.598 1_556 S
C696 C79 1.589 . S
C707 C51 1.243 . S
C712 C161 1.315 1_556 S
C723 C63 1.109 . S
C728 C133 1.107 1_556 S
C739 C93 1.307 . S
C744 C189 1.349 . S
C755 C107 1.575 . S
C760 C205 1.484 . S
C771 C121 1.288 . S
C776 C175 1.275 . S
C787 C233 1.506 . S
C792 C163 1.531 . S
C803 C245 1.446 . S
C808 C135 1.354 . S
C819 C147 1.181 . S
C824 C217 1.175 . S
