# Generated by pormake.
# Topology qtz-e, (6)-cn, num edge types: 1
# Building blocks:
#     Node 0, Type 0, BuildingBlock: BETGAK_clean_sbu_0, # of connection points: 6
#     Node 1, Type 0, BuildingBlock: BETGAK_clean_sbu_0, # of connection points: 6
#     Node 2, Type 0, BuildingBlock: BETGAK_clean_sbu_0, # of connection points: 6
#     Node 3, Type 0, BuildingBlock: BETGAK_clean_sbu_0, # of connection points: 6
#     Node 4, Type 0, BuildingBlock: BETGAK_clean_sbu_0, # of connection points: 6
#     Node 5, Type 0, BuildingBlock: BETGAK_clean_sbu_0, # of connection points: 6
#     Edge 6, Type (0, 0), BuildingBlock: XIVTED_clean_linker_0, # of connection points: 2
#     Edge 7, Type (0, 0), BuildingBlock: XIVTED_clean_linker_0, # of connection points: 2
#     Edge 8, Type (0, 0), BuildingBlock: XIVTED_clean_linker_0, # of connection points: 2
#     Edge 9, Type (0, 0), BuildingBlock: XIVTED_clean_linker_0, # of connection points: 2
#     Edge 10, Type (0, 0), BuildingBlock: XIVTED_clean_linker_0, # of connection points: 2
#     Edge 11, Type (0, 0), BuildingBlock: XIVTED_clean_linker_0, # of connection points: 2
#     Edge 12, Type (0, 0), BuildingBlock: XIVTED_clean_linker_0, # of connection points: 2
#     Edge 13, Type (0, 0), BuildingBlock: XIVTED_clean_linker_0, # of connection points: 2
#     Edge 14, Type (0, 0), BuildingBlock: XIVTED_clean_linker_0, # of connection points: 2
#     Edge 15, Type (0, 0), BuildingBlock: XIVTED_clean_linker_0, # of connection points: 2
#     Edge 16, Type (0, 0), BuildingBlock: XIVTED_clean_linker_0, # of connection points: 2
#     Edge 17, Type (0, 0), BuildingBlock: XIVTED_clean_linker_0, # of connection points: 2
#     Edge 18, Type (0, 0), BuildingBlock: XIVTED_clean_linker_0, # of connection points: 2
#     Edge 19, Type (0, 0), BuildingBlock: XIVTED_clean_linker_0, # of connection points: 2
#     Edge 20, Type (0, 0), BuildingBlock: XIVTED_clean_linker_0, # of connection points: 2
#     Edge 21, Type (0, 0), BuildingBlock: XIVTED_clean_linker_0, # of connection points: 2
#     Edge 22, Type (0, 0), BuildingBlock: XIVTED_clean_linker_0, # of connection points: 2
#     Edge 23, Type (0, 0), BuildingBlock: XIVTED_clean_linker_0, # of connection points: 2
# Relax obj value: 0.185
# Max RMSD: 0.209
# Mean RMSD: 0.209
data_MOF--net-qtz-e--node1-BETGAK_clean_sbu_0--edge1-XIVTED_clean_linker_0
_symmetry_space_group_name_H-M    P1
_symmetry_Int_Tables_number       1
_symmetry_cell_setting            triclinic
loop_
_symmetry_equiv_pos_as_xyz
'x, y, z'
_cell_length_a     25.642549
_cell_length_b     25.919304
_cell_length_c     52.076387
_cell_angle_alpha  90.507704
_cell_angle_beta   89.67581
_cell_angle_gamma 119.66571
loop_
_atom_site_label
_atom_site_type_symbol
_atom_site_fract_x
_atom_site_fract_y
_atom_site_fract_z
_atom_type_partial_charge
La0 La 0.17674 0.48709 0.18335 0.0
La1 La 0.13283 0.36001 0.16522 0.0
C2 C 0.1789 0.57836 0.20144 0.0
C3 C 0.19136 0.60394 0.22736 0.0
C4 C 0.19343 0.65807 0.23226 0.0
C5 C 0.20757 0.68335 0.25684 0.0
C6 C 0.21969 0.65467 0.27689 0.0
C7 C 0.21728 0.60017 0.27178 0.0
C8 C 0.20352 0.5752 0.2472 0.0
C9 C 0.25721 0.45486 0.18897 0.0
C10 C 0.10128 0.37562 0.22167 0.0
C11 C 0.12681 0.2705 0.14272 0.0
C12 C 0.14386 0.26227 0.11639 0.0
C13 C 0.14305 0.29695 0.09595 0.0
C14 C 0.15825 0.28839 0.071 0.0
C15 C 0.17456 0.24482 0.06584 0.0
C16 C 0.1763 0.2109 0.08651 0.0
C17 C 0.16114 0.21958 0.11148 0.0
C18 C 0.06088 0.40455 0.15715 0.0
C19 C 0.21268 0.46987 0.12831 0.0
O20 O 0.22468 0.57884 0.18999 0.0
O21 O 0.12956 0.52706 0.19894 0.0
O22 O 0.26887 0.50928 0.18766 0.0
O23 O 0.20103 0.42039 0.19111 0.0
O24 O 0.12389 0.43273 0.21608 0.0
O25 O 0.10381 0.33757 0.20516 0.0
O26 O 0.08195 0.2809 0.14441 0.0
O27 O 0.17079 0.3053 0.158 0.0
O28 O 0.04164 0.34888 0.16169 0.0
O29 O 0.11658 0.43022 0.15558 0.0
O30 O 0.1959 0.41492 0.1353 0.0
O31 O 0.19926 0.50436 0.14255 0.0
H32 H 0.18471 0.68102 0.21704 0.0
H33 H 0.20982 0.72575 0.26003 0.0
H34 H 0.22543 0.57645 0.28682 0.0
H35 H 0.20265 0.53355 0.24363 0.0
H36 H 0.13 0.33034 0.09918 0.0
H37 H 0.15573 0.31502 0.05567 0.0
H38 H 0.18963 0.17767 0.08345 0.0
H39 H 0.16261 0.19267 0.12696 0.0
La40 La 0.83095 0.32981 0.43059 0.0
La41 La 0.85043 0.22816 0.44978 0.0
C42 C 0.84886 0.42709 0.41325 0.0
C43 C 0.8442 0.44354 0.38673 0.0
C44 C 0.81579 0.47678 0.38194 0.0
C45 C 0.80335 0.48547 0.35676 0.0
C46 C 0.81907 0.46096 0.33589 0.0
C47 C 0.84899 0.42901 0.34075 0.0
C48 C 0.86126 0.42024 0.36591 0.0
C49 C 0.74082 0.22377 0.42015 0.0
C50 C 0.90201 0.2809 0.39596 0.0
C51 C 0.83814 0.13588 0.47138 0.0
C52 C 0.82671 0.11355 0.49833 0.0
C53 C 0.87425 0.11845 0.51343 0.0
C54 C 0.86449 0.09769 0.53874 0.0
C55 C 0.80666 0.07066 0.54974 0.0
C56 C 0.75899 0.0658 0.53459 0.0
C57 C 0.76885 0.08689 0.50925 0.0
C58 C 0.93225 0.33826 0.4615 0.0
C59 C 0.77862 0.27555 0.4847 0.0
O60 O 0.79777 0.38774 0.42343 0.0
O61 O 0.89233 0.41557 0.4179 0.0
O62 O 0.74072 0.27303 0.41653 0.0
O63 O 0.79542 0.2378 0.42203 0.0
O64 O 0.89269 0.32514 0.40269 0.0
O65 O 0.88113 0.2318 0.40991 0.0
O66 O 0.89026 0.18282 0.4668 0.0
O67 O 0.79463 0.13834 0.45939 0.0
O68 O 0.94552 0.29696 0.45674 0.0
O69 O 0.87705 0.31648 0.46067 0.0
O70 O 0.78956 0.23197 0.47865 0.0
O71 O 0.79898 0.32387 0.47029 0.0
H72 H 0.80143 0.49432 0.39773 0.0
H73 H 0.77964 0.50975 0.35371 0.0
H74 H 0.8626 0.41039 0.32513 0.0
H75 H 0.88276 0.39394 0.36901 0.0
H76 H 0.91935 0.13857 0.50568 0.0
H77 H 0.90272 0.10347 0.54975 0.0
H78 H 0.71367 0.04468 0.54209 0.0
H79 H 0.73096 0.08199 0.49821 0.0
La80 La 0.50549 0.67868 0.84937 0.0
La81 La 0.63344 0.76377 0.83215 0.0
C82 C 0.41605 0.58848 0.86747 0.0
C83 C 0.39372 0.57078 0.89402 0.0
C84 C 0.34223 0.57228 0.90227 0.0
C85 C 0.32387 0.5614 0.92792 0.0
C86 C 0.35643 0.54842 0.94587 0.0
C87 C 0.40684 0.54502 0.93743 0.0
C88 C 0.42518 0.55589 0.91178 0.0
C89 C 0.53479 0.78905 0.85599 0.0
C90 C 0.61823 0.71739 0.88817 0.0
C91 C 0.723 0.84573 0.80926 0.0
C92 C 0.73118 0.8713 0.78296 0.0
C93 C 0.75567 0.85231 0.76327 0.0
C94 C 0.76203 0.87422 0.73827 0.0
C95 C 0.74466 0.91639 0.73213 0.0
C96 C 0.72044 0.93573 0.7519 0.0
C97 C 0.71393 0.91362 0.77697 0.0
C98 C 0.5912 0.64914 0.82296 0.0
C99 C 0.52203 0.73388 0.79543 0.0
O100 O 0.41389 0.63461 0.85872 0.0
O101 O 0.4666 0.59013 0.86142 0.0
O102 O 0.4803 0.74581 0.85378 0.0
O103 O 0.57099 0.7692 0.85819 0.0
O104 O 0.56086 0.68215 0.88216 0.0
O105 O 0.65644 0.7582 0.87206 0.0
O106 O 0.71199 0.7909 0.81044 0.0
O107 O 0.68981 0.85543 0.82561 0.0
O108 O 0.64673 0.68587 0.82861 0.0
O109 O 0.56405 0.6777 0.82139 0.0
O110 O 0.57709 0.7723 0.803 0.0
O111 O 0.48751 0.68546 0.80889 0.0
H112 H 0.3168 0.58309 0.88895 0.0
H113 H 0.28418 0.56323 0.9337 0.0
H114 H 0.43319 0.53555 0.95078 0.0
H115 H 0.46488 0.554 0.90608 0.0
H116 H 0.76957 0.81989 0.76711 0.0
H117 H 0.77989 0.85726 0.72366 0.0
H118 H 0.70724 0.96868 0.74815 0.0
H119 H 0.69529 0.92972 0.79161 0.0
La120 La 0.70191 0.51625 0.09755 0.0
La121 La 0.76864 0.64221 0.11785 0.0
C122 C 0.63392 0.41191 0.08203 0.0
C123 C 0.6229 0.38721 0.0558 0.0
C124 C 0.65326 0.42421 0.03498 0.0
C125 C 0.6409 0.40211 1.00985 0.0
C126 C 0.59773 0.34253 1.00502 0.0
C127 C 0.56813 0.30534 0.02603 0.0
C128 C 0.58063 0.32755 0.05122 0.0
C129 C 0.81915 0.57308 0.08837 0.0
C130 C 0.72568 0.62236 0.06107 0.0
C131 C 0.8432 0.73388 0.14225 0.0
C132 C 0.87313 0.74359 0.16763 0.0
C133 C 0.88546 0.79412 0.18222 0.0
C134 C 0.9089 0.80195 0.20713 0.0
C135 C 0.9204 0.75918 0.21826 0.0
C136 C 0.90887 0.7089 0.20337 0.0
C137 C 0.88557 0.70122 0.17837 0.0
C138 C 0.6499 0.59228 0.11664 0.0
C139 C 0.73632 0.53549 0.15636 0.0
O140 O 0.68798 0.43023 0.09102 0.0
O141 O 0.61583 0.45045 0.08637 0.0
O142 O 0.778 0.54055 0.07194 0.0
O143 O 0.79245 0.57619 0.10813 0.0
O144 O 0.68783 0.567 0.06792 0.0
O145 O 0.76979 0.65921 0.07652 0.0
O146 O 0.78513 0.7123 0.14314 0.0
O147 O 0.85852 0.70857 0.12404 0.0
O148 O 0.68666 0.64873 0.11375 0.0
O149 O 0.68048 0.56829 0.12193 0.0
O150 O 0.76238 0.59307 0.15216 0.0
O151 O 0.70817 0.49561 0.13794 0.0
H152 H 0.68576 0.47059 0.03814 0.0
H153 H 0.66388 0.43222 0.99418 0.0
H154 H 0.53511 0.25908 1.02301 0.0
H155 H 0.55678 0.29838 0.06705 0.0
H156 H 0.87612 0.82735 0.17445 0.0
H157 H 0.91805 0.84175 0.21766 0.0
H158 H 0.91635 0.67458 0.21124 0.0
H159 H 0.87628 0.66159 0.16766 0.0
La160 La 0.32791 0.82388 0.51486 0.0
La161 La 0.23809 0.86459 0.49994 0.0
C162 C 0.41614 0.82222 0.53459 0.0
C163 C 0.42531 0.81116 0.56133 0.0
C164 C 0.37614 0.78541 0.57818 0.0
C165 C 0.3842 0.7759 0.60381 0.0
C166 C 0.44165 0.79212 0.61311 0.0
C167 C 0.49091 0.81802 0.59614 0.0
C168 C 0.48274 0.82745 0.57041 0.0
C169 C 0.21624 0.73953 0.51528 0.0
C170 C 0.27986 0.88516 0.5569 0.0
C171 C 0.14957 0.86393 0.47856 0.0
C172 C 0.12406 0.85003 0.45211 0.0
C173 C 0.11063 0.88986 0.43966 0.0
C174 C 0.08791 0.87862 0.41454 0.0
C175 C 0.07793 0.82709 0.40107 0.0
C176 C 0.09153 0.7872 0.4136 0.0
C177 C 0.11411 0.79841 0.4388 0.0
C178 C 0.35307 0.94398 0.49797 0.0
C179 C 0.28947 0.80907 0.45763 0.0
O180 O 0.37275 0.7767 0.52261 0.0
O181 O 0.41429 0.87121 0.53085 0.0
O182 O 0.26154 0.73122 0.51191 0.0
O183 O 0.23471 0.79316 0.52137 0.0
O184 O 0.31701 0.8655 0.55001 0.0
O185 O 0.23917 0.88416 0.54091 0.0
O186 O 0.20223 0.9116 0.48104 0.0
O187 O 0.14542 0.81975 0.49222 0.0
O188 O 0.31171 0.95759 0.50328 0.0
O189 O 0.32865 0.89037 0.4921 0.0
O190 O 0.24686 0.82048 0.4654 0.0
O191 O 0.33302 0.81538 0.47322 0.0
H192 H 0.33146 0.77304 0.57154 0.0
H193 H 0.34556 0.75684 0.61645 0.0
H194 H 0.53567 0.83056 0.60271 0.0
H195 H 0.52116 0.84756 0.55765 0.0
H196 H 0.11813 0.93013 0.44935 0.0
H197 H 0.07905 0.91099 0.40554 0.0
H198 H 0.08406 0.7468 0.40408 0.0
H199 H 0.12414 0.76677 0.44776 0.0
La200 La 0.4975 0.18508 0.76344 0.0
La201 La 0.37135 0.12945 0.78428 0.0
C202 C 0.60264 0.22072 0.74788 0.0
C203 C 0.6292 0.2379 0.72204 0.0
C204 C 0.61155 0.26882 0.70537 0.0
C205 C 0.63011 0.27743 0.67972 0.0
C206 C 0.66623 0.25482 0.67018 0.0
C207 C 0.6856 0.22578 0.68715 0.0
C208 C 0.66723 0.21742 0.71285 0.0
C209 C 0.44009 0.24454 0.75347 0.0
C210 C 0.38907 0.10032 0.72786 0.0
C211 C 0.27724 0.11246 0.80728 0.0
C212 C 0.26496 0.13348 0.8319 0.0
C213 C 0.21299 0.09565 0.84573 0.0
C214 C 0.20364 0.11112 0.87047 0.0
C215 C 0.24638 0.16473 0.88213 0.0
C216 C 0.29765 0.20353 0.86783 0.0
C217 C 0.30679 0.18809 0.84297 0.0
C218 C 0.421 0.06076 0.78434 0.0
C219 C 0.48071 0.20514 0.82233 0.0
O220 O 0.58548 0.25559 0.75892 0.0
O221 O 0.56247 0.16443 0.75021 0.0
O222 O 0.47335 0.23545 0.7374 0.0
O223 O 0.4378 0.21704 0.77353 0.0
O224 O 0.44516 0.11777 0.73457 0.0
O225 O 0.35309 0.11003 0.7431 0.0
O226 O 0.30078 0.07807 0.80955 0.0
O227 O 0.30296 0.15148 0.78891 0.0
O228 O 0.36411 0.04133 0.78101 0.0
O229 O 0.44581 0.11526 0.78885 0.0
O230 O 0.42215 0.17702 0.81824 0.0
O231 O 0.51944 0.21125 0.80396 0.0
H232 H 0.58166 0.28455 0.71187 0.0
H233 H 0.61392 0.29943 0.66711 0.0
H234 H 0.71407 0.20851 0.68044 0.0
H235 H 0.68105 0.19316 0.72533 0.0
H236 H 0.18014 0.05329 0.8376 0.0
H237 H 0.163 0.08062 0.88055 0.0
H238 H 0.33185 0.24492 0.87614 0.0
H239 H 0.34743 0.21806 0.83274 0.0
H240 H 0.344 0.75156 0.43454 0.0
H241 H 0.16946 0.71205 0.3025 0.0
H242 H 0.23113 0.82755 0.41876 0.0
H243 H 0.30222 0.65708 0.31116 0.0
H244 H 0.19224 0.75393 0.34564 0.0
H245 H 0.33102 0.71636 0.3897 0.0
C246 C 0.31699 0.76121 0.42164 0.0
C247 C 0.28787 0.79168 0.43046 0.0
C248 C 0.21667 0.73294 0.33812 0.0
C249 C 0.27255 0.75157 0.37958 0.0
C250 C 0.20386 0.70926 0.31337 0.0
C251 C 0.23402 0.68106 0.3031 0.0
C252 C 0.25978 0.72824 0.35292 0.0
C253 C 0.27727 0.67772 0.31842 0.0
C254 C 0.30941 0.741 0.39614 0.0
C255 C 0.25334 0.80306 0.413 0.0
N256 N 0.28878 0.7009 0.3426 0.0
N257 N 0.24641 0.78275 0.38853 0.0
H258 H 0.66327 0.1676 0.63936 0.0
H259 H 0.77984 0.3665 0.51296 0.0
H260 H 0.69999 0.34898 0.63741 0.0
H261 H 0.71734 0.17831 0.51479 0.0
H262 H 0.74871 0.36186 0.55794 0.0
H263 H 0.68392 0.17213 0.59347 0.0
C264 C 0.6762 0.20861 0.6293 0.0
C265 C 0.68034 0.25813 0.64232 0.0
C266 C 0.74132 0.32155 0.54837 0.0
C267 C 0.70318 0.26341 0.58947 0.0
C268 C 0.75872 0.32411 0.52266 0.0
C269 C 0.7518 0.27287 0.5102 0.0
C270 C 0.71707 0.26742 0.5616 0.0
C271 C 0.72438 0.21915 0.52372 0.0
C272 C 0.68739 0.211 0.603 0.0
C273 C 0.69601 0.30968 0.62812 0.0
N274 N 0.70859 0.21798 0.54869 0.0
N275 N 0.70714 0.3111 0.60247 0.0
H276 H 0.22597 0.56358 0.09885 0.0
H277 H 0.35399 0.46499 0.97857 0.0
H278 H 0.26348 0.41853 0.09948 0.0
H279 H 0.31783 0.61075 0.97583 0.0
H280 H 0.32479 0.45074 0.0237 0.0
H281 H 0.26438 0.58596 0.05464 0.0
C282 C 0.2428 0.5369 0.08982 0.0
C283 C 0.24098 0.48882 0.10277 0.0
C284 C 0.32334 0.48599 1.01329 0.0
C285 C 0.28438 0.5137 0.05235 0.0
C286 C 0.34026 0.49427 0.9875 0.0
C287 C 0.33832 0.53909 0.97335 0.0
C288 C 0.30433 0.52282 0.02514 0.0
C289 C 0.31923 0.57511 0.98591 0.0
C290 C 0.26441 0.54945 0.06457 0.0
C291 C 0.26325 0.45558 0.09015 0.0
N292 N 0.30295 0.56619 1.01108 0.0
N293 N 0.28366 0.46845 0.06567 0.0
H294 H 0.77748 0.37844 0.2966 0.0
H295 H 0.7545 0.60216 0.19903 0.0
H296 H 0.82528 0.55962 0.31429 0.0
H297 H 0.7253 0.43021 0.17459 0.0
H298 H 0.77145 0.58149 0.24231 0.0
H299 H 0.75178 0.39183 0.25281 0.0
C300 C 0.78288 0.42111 0.29127 0.0
C301 C 0.80357 0.46804 0.3092 0.0
C302 C 0.76113 0.54791 0.22765 0.0
C303 C 0.77336 0.48314 0.25934 0.0
C304 C 0.75135 0.55965 0.20279 0.0
C305 C 0.73909 0.51803 0.18301 0.0
C306 C 0.7588 0.49398 0.23312 0.0
C307 C 0.73467 0.46347 0.18928 0.0
C308 C 0.76781 0.42849 0.26633 0.0
C309 C 0.80872 0.52193 0.30132 0.0
N310 N 0.74502 0.45309 0.21388 0.0
N311 N 0.79376 0.5279 0.27704 0.0
H312 H 0.57523 0.83561 0.76775 0.0
H313 H 0.37134 0.6953 0.64304 0.0
H314 H 0.4271 0.6557 0.76515 0.0
H315 H 0.53073 0.86789 0.64567 0.0
H316 H 0.38541 0.68184 0.68845 0.0
H317 H 0.55313 0.8502 0.72407 0.0
C318 C 0.53767 0.79911 0.75803 0.0
C319 C 0.50331 0.744 0.77007 0.0
C320 C 0.41724 0.72263 0.67907 0.0
C321 C 0.47771 0.76065 0.71971 0.0
C322 C 0.40916 0.73047 0.65319 0.0
C323 C 0.45004 0.78278 0.64051 0.0
C324 C 0.46641 0.76754 0.6924 0.0
C325 C 0.49858 0.82653 0.65454 0.0
C326 C 0.52512 0.80756 0.733 0.0
C327 C 0.45477 0.6988 0.75657 0.0
N328 N 0.50534 0.81791 0.6797 0.0
N329 N 0.44362 0.70799 0.73198 0.0
H330 H 0.486 0.26907 0.9853 0.0
H331 H 0.59687 0.27265 0.84051 0.0
H332 H 0.67274 0.36576 0.96332 0.0
H333 H 0.41162 0.18602 0.86495 0.0
H334 H 0.62738 0.30564 0.88509 0.0
H335 H 0.45956 0.2356 0.94104 0.0
C336 C 0.5216 0.28279 0.97122 0.0
C337 C 0.58173 0.32019 0.97815 0.0
C338 C 0.58009 0.27949 0.88056 0.0
C339 C 0.55161 0.2826 0.92702 0.0
C340 C 0.56267 0.26067 0.85514 0.0
C341 C 0.50156 0.22677 0.84884 0.0
C342 C 0.53603 0.26401 0.89975 0.0
C343 C 0.45923 0.21249 0.86865 0.0
C344 C 0.50642 0.26402 0.94583 0.0
C345 C 0.62573 0.33742 0.95883 0.0
N346 N 0.47725 0.23108 0.89306 0.0
N347 N 0.60982 0.3185 0.93415 0.0
H348 H 0.27266 0.39104 0.14998 0.0
H349 H 0.6136 0.63499 0.15641 0.0
H350 H 0.35564 0.49467 0.21794 0.0
H351 H 0.54938 0.49219 0.10109 0.0
H352 H 0.51654 0.5837 0.17845 0.0
H353 H 0.37143 0.42012 0.13246 0.0
C354 C 0.31121 0.41722 0.1619 0.0
C355 C 0.30566 0.44079 0.18543 0.0
C356 C 0.5236 0.56346 0.16148 0.0
C357 C 0.41923 0.47682 0.16493 0.0
C358 C 0.57847 0.59331 0.14866 0.0
C359 C 0.58883 0.56785 0.12682 0.0
C360 C 0.47869 0.50805 0.15222 0.0
C361 C 0.54277 0.51304 0.11789 0.0
C362 C 0.36803 0.43487 0.15161 0.0
C363 C 0.35798 0.4755 0.1997 0.0
N364 N 0.48936 0.48499 0.13052 0.0
N365 N 0.41267 0.49396 0.18895 0.0
H366 H 0.11155 0.67334 0.54127 0.0
H367 H 0.04671 0.41439 0.44525 0.0
H368 H 0.19221 0.70333 0.46619 0.0
H369 H 0.90609 0.40123 0.4953 0.0
H370 H 0.10595 0.5207 0.45603 0.0
H371 H 0.03458 0.57373 0.52696 0.0
C372 C 0.11111 0.66029 0.52142 0.0
C373 C 0.15772 0.6967 0.50476 0.0
C374 C 0.062 0.49434 0.46459 0.0
C375 C 0.07319 0.583 0.48888 0.0
C376 C 0.02891 0.43385 0.45873 0.0
C377 C 0.97205 0.39968 0.46951 0.0
C378 C 0.03818 0.51985 0.48168 0.0
C379 C 0.95 0.42664 0.48659 0.0
C380 C 0.06803 0.60325 0.51339 0.0
C381 C 0.1566 0.67713 0.47948 0.0
N382 N 0.98334 0.4852 0.49236 0.0
N383 N 0.11594 0.62108 0.47246 0.0
H384 H 0.53817 0.08957 0.785 0.0
H385 H 0.48363 0.83894 0.88388 0.0
H386 H 0.36177 0.95296 0.8079 0.0
H387 H 0.60643 0.8741 0.82113 0.0
H388 H 0.46075 0.91311 0.86688 0.0
H389 H 0.58186 0.03631 0.80675 0.0
C390 C 0.50863 0.04789 0.7942 0.0
C391 C 0.44625 0.02486 0.7942 0.0
C392 C 0.49447 0.90602 0.85744 0.0
C393 C 0.49603 0.96639 0.82036 0.0
C394 C 0.50849 0.86471 0.86736 0.0
C395 C 0.54743 0.85056 0.85399 0.0
C396 C 0.52038 0.93389 0.83423 0.0
C397 C 0.57737 0.88427 0.83236 0.0
C398 C 0.53365 0.01812 0.80683 0.0
C399 C 0.40998 0.97158 0.80707 0.0
N400 N 0.56249 0.92393 0.82281 0.0
N401 N 0.43552 0.94439 0.81995 0.0
H402 H 0.65273 0.59285 0.80712 0.0
H403 H 0.37492 0.27953 0.7828 0.0
H404 H 0.47469 0.5703 0.81278 0.0
H405 H 0.52932 0.347 0.73279 0.0
H406 H 0.41002 0.38102 0.79857 0.0
H407 H 0.6098 0.49545 0.7855 0.0
C408 C 0.60469 0.56709 0.80415 0.0
C409 C 0.56705 0.58906 0.81203 0.0
C410 C 0.4353 0.37351 0.78371 0.0
C411 C 0.51811 0.47875 0.78756 0.0
C412 C 0.41497 0.31592 0.77451 0.0
C413 C 0.44902 0.30493 0.7564 0.0
C414 C 0.49084 0.41969 0.77526 0.0
C415 C 0.50141 0.35347 0.74664 0.0
C416 C 0.58039 0.51209 0.79162 0.0
C417 C 0.50513 0.55444 0.80741 0.0
N418 N 0.52155 0.40864 0.75667 0.0
N419 N 0.48243 0.50065 0.79571 0.0
H420 H 0.945 0.34794 0.13905 0.0
H421 H 0.91426 0.63118 0.12067 0.0
H422 H 0.09905 0.52143 0.15106 0.0
H423 H 0.83531 0.48595 0.06623 0.0
H424 H 0.97696 0.59145 0.13693 0.0
H425 H 0.89354 0.39539 0.11825 0.0
C426 C 0.96749 0.39588 0.1377 0.0
C427 C 0.0259 0.43093 0.14706 0.0
C428 C 0.94672 0.56918 0.12106 0.0
C429 C 0.96797 0.48497 0.12352 0.0
C430 C 0.91163 0.59219 0.11158 0.0
C431 C 0.86972 0.562 0.09206 0.0
C432 C 0.93836 0.51488 0.1114 0.0
C433 C 0.86717 0.51088 0.08125 0.0
C434 C 0.93855 0.42279 0.12563 0.0
C435 C 0.0536 0.49288 0.1445 0.0
N436 N 0.89995 0.48808 0.0915 0.0
N437 N 0.02421 0.51805 0.13318 0.0
H438 H 0.41554 0.06431 0.50552 0.0
H439 H 0.69932 0.10299 0.42519 0.0
H440 H 0.43573 0.91642 0.47984 0.0
H441 H 0.67151 0.24546 0.45243 0.0
H442 H 0.61113 0.03296 0.45062 0.0
H443 H 0.51897 0.13175 0.49222 0.0
C444 C 0.442 0.04615 0.49732 0.0
C445 C 0.417 0.98514 0.49331 0.0
C446 C 0.62523 0.07983 0.45118 0.0
C447 C 0.53452 0.0613 0.47767 0.0
C448 C 0.67536 0.1195 0.43672 0.0
C449 C 0.69233 0.17978 0.43647 0.0
C450 C 0.59259 0.10123 0.46526 0.0
C451 C 0.65967 0.19918 0.45161 0.0
C452 C 0.50096 0.08442 0.4897 0.0
C453 C 0.4532 0.96346 0.48289 0.0
N454 N 0.61156 0.16015 0.46523 0.0
N455 N 0.50994 0.00157 0.47504 0.0
H456 H 0.27486 0.27341 0.90384 0.0
H457 H 0.14523 0.1379 0.04286 0.0
H458 H 0.19977 0.08826 0.92288 0.0
H459 H 0.23359 0.32575 0.02708 0.0
H460 H 0.16499 0.1197 0.99883 0.0
H461 H 0.26032 0.29418 0.94851 0.0
C462 C 0.25556 0.2371 0.91735 0.0
C463 C 0.23816 0.1788 0.90933 0.0
C464 C 0.18025 0.16497 1.00497 0.0
C465 C 0.22086 0.20237 0.96064 0.0
C466 C 0.16933 0.17552 0.03027 0.0
C467 C 0.1878 0.23355 0.03895 0.0
C468 C 0.20979 0.21267 0.98792 0.0
C469 C 0.21773 0.28015 1.02132 0.0
C470 C 0.24701 0.24901 0.94288 0.0
C471 C 0.21279 0.13368 0.92784 0.0
N472 N 0.22768 0.2687 0.99671 0.0
N473 N 0.20488 0.14639 0.95247 0.0
H474 H 0.98579 0.38556 0.37615 0.0
H475 H 0.03561 0.26124 0.2417 0.0
H476 H 0.89855 0.19745 0.36043 0.0
H477 H 0.10474 0.44568 0.26174 0.0
H478 H 0.99013 0.2337 0.28494 0.0
H479 H 0.03569 0.40484 0.33493 0.0
C480 C 0.97725 0.34798 0.36402 0.0
C481 C 0.93728 0.28971 0.37186 0.0
C482 C 0.01551 0.28011 0.27977 0.0
C483 C -0.00513 0.31185 0.32366 0.0
C484 C 0.04156 0.29592 0.2551 0.0
C485 C 0.07415 0.35601 0.24781 0.0
C486 C 0.02246 0.32474 0.29732 0.0
C487 C 0.08008 0.3988 0.2661 0.0
C488 C 0.00593 0.35913 0.34029 0.0
C489 C 0.92903 0.24309 0.35524 0.0
N490 N 0.05469 0.38236 0.28972 0.0
N491 N 0.95715 0.25515 0.33178 0.0
H492 H 0.67157 0.94724 0.70496 0.0
H493 H 0.86264 0.01817 0.57482 0.0
H494 H 0.83579 0.94025 0.6977 0.0
H495 H 0.72678 0.06838 0.58652 0.0
H496 H 0.84762 0.98234 0.61881 0.0
H497 H 0.6856 0.98498 0.66099 0.0
C498 C 0.71078 0.95392 0.6943 0.0
C499 C 0.75244 0.94016 0.70532 0.0
C500 C 0.82111 0.00127 0.6118 0.0
C501 C 0.76813 0.9826 0.65454 0.0
C502 C 0.82992 0.02223 0.5866 0.0
C503 C 0.79641 0.0471 0.57668 0.0
C504 C 0.77797 0.00441 0.62747 0.0
C505 C 0.75341 0.04916 0.59301 0.0
C506 C 0.71854 0.97521 0.66908 0.0
C507 C 0.80172 0.94894 0.69012 0.0
N508 N 0.74545 0.02815 0.6175 0.0
N509 N 0.808 0.96931 0.66565 0.0
H510 H 0.54714 0.64744 0.92678 0.0
H511 H 0.80045 0.7236 0.03277 0.0
H512 H 0.73307 0.77014 0.9097 0.0
H513 H 0.62552 0.56643 0.0315 0.0
H514 H 0.77806 0.75179 0.99069 0.0
H515 H 0.57602 0.62909 0.96831 0.0
C516 C 0.59432 0.67058 0.93163 0.0
C517 C 0.63767 0.70982 0.91425 0.0
C518 C 0.74486 0.71118 0.99975 0.0
C519 C 0.6715 0.68894 0.96277 0.0
C520 C 0.75748 0.69517 0.02379 0.0
C521 C 0.71492 0.64245 0.03583 0.0
C522 C 0.68896 0.67469 0.98798 0.0
C523 C 0.66006 0.60732 1.02315 0.0
C524 C 0.61085 0.66 0.95558 0.0
C525 C 0.69803 0.73921 0.92231 0.0
N526 N 0.6488 0.62416 1.00019 0.0
N527 N 0.71326 0.72809 0.94599 0.0
H528 H 0.99236 0.84956 0.38054 0.0
H529 H 0.00218 0.7302 0.23855 0.0
H530 H 0.10658 0.77712 0.35995 0.0
H531 H 0.89091 0.8053 0.26022 0.0
H532 H 0.03923 0.74435 0.28278 0.0
H533 H 0.95426 0.83219 0.33665 0.0
C534 C 0.00983 0.8303 0.36681 0.0
C535 C 0.05325 0.8152 0.3742 0.0
C536 C 0.00672 0.75775 0.27784 0.0
C537 C 0.00873 0.79431 0.32345 0.0
C538 C 0.98518 0.74936 0.25255 0.0
C539 C 0.94336 0.76681 0.24534 0.0
C540 C 0.98633 0.78366 0.2963 0.0
C541 C 0.92385 0.79208 0.26451 0.0
C542 C 0.98764 0.82001 0.34167 0.0
C543 C 0.07282 0.78908 0.3554 0.0
N544 N 0.94541 0.79969 0.28893 0.0
N545 N 0.05062 0.77966 0.33099 0.0
H546 H 0.28511 0.07172 0.70043 0.0
H547 H 0.3532 0.88572 0.59479 0.0
H548 H 0.44249 0.05177 0.69865 0.0
H549 H 0.22555 0.94454 0.57975 0.0
H550 H 0.37464 0.93511 0.6362 0.0
H551 H 0.25264 0.01637 0.65936 0.0
C552 C 0.31273 0.05571 0.69154 0.0
C553 C 0.3668 0.06675 0.70314 0.0
C554 C 0.34177 0.93731 0.62398 0.0
C555 C 0.32957 0.00292 0.65638 0.0
C556 C 0.32916 0.90872 0.60017 0.0
C557 C 0.2876 0.911 0.58337 0.0
C558 C 0.31276 0.96886 0.63156 0.0
C559 C 0.25798 0.94153 0.59193 0.0
C560 C 0.29423 0.02427 0.66807 0.0
C561 C 0.4007 0.04491 0.69059 0.0
N562 N 0.27127 0.96947 0.61539 0.0
N563 N 0.38147 0.01413 0.66815 0.0
loop_
_geom_bond_atom_site_label_1
_geom_bond_atom_site_label_2
_geom_bond_distance
_geom_bond_site_symmetry_2
_ccdc_geom_bond_type
La0 C2 2.928 . S
La0 O20 2.521 . S
La0 O21 2.628 . S
La0 O22 2.554 . S
La0 O23 2.757 . S
La0 O24 2.470 . S
La0 O29 2.482 . S
La0 O31 2.503 . S
La1 C11 2.928 . S
La1 O23 2.482 . S
La1 O25 2.503 . S
La1 O26 2.521 . S
La1 O27 2.628 . S
La1 O28 2.572 . S
La1 O29 2.757 . S
La1 O30 2.470 . S
C2 La0 2.928 . S
C2 C3 1.503 . S
C2 O20 1.261 . S
C2 O21 1.243 . S
C3 C2 1.503 . S
C3 C4 1.394 . S
C3 C8 1.373 . S
C4 C3 1.394 . S
C4 C5 1.380 . S
C4 H32 0.930 . S
C5 C4 1.380 . S
C5 C6 1.376 . S
C5 H33 0.930 . S
C6 C5 1.376 . S
C6 C7 1.370 . S
C7 C6 1.370 . S
C7 C8 1.396 . S
C7 H34 0.929 . S
C8 C3 1.373 . S
C8 C7 1.396 . S
C8 H35 0.929 . S
C9 O22 1.240 . S
C9 O23 1.289 . S
C10 O24 1.258 . S
C10 O25 1.256 . S
C11 La1 2.928 . S
C11 C12 1.503 . S
C11 O26 1.261 . S
C11 O27 1.243 . S
C12 C11 1.503 . S
C12 C13 1.394 . S
C12 C17 1.373 . S
C13 C12 1.394 . S
C13 C14 1.380 . S
C13 H36 0.930 . S
C14 C13 1.380 . S
C14 C15 1.376 . S
C14 H37 0.930 . S
C15 C14 1.376 . S
C15 C16 1.370 . S
C16 C15 1.370 . S
C16 C17 1.396 . S
C16 H38 0.929 . S
C17 C12 1.373 . S
C17 C16 1.396 . S
C17 H39 0.929 . S
C18 O28 1.239 . S
C18 O29 1.289 . S
C19 O30 1.258 . S
C19 O31 1.256 . S
O20 La0 2.521 . S
O20 C2 1.261 . S
O21 La0 2.628 . S
O21 C2 1.243 . S
O22 La0 2.554 . S
O22 C9 1.240 . S
O23 La0 2.757 . S
O23 La1 2.482 . S
O23 C9 1.289 . S
O24 La0 2.470 . S
O24 C10 1.258 . S
O25 La1 2.503 . S
O25 C10 1.256 . S
O26 La1 2.521 . S
O26 C11 1.261 . S
O27 La1 2.628 . S
O27 C11 1.243 . S
O28 La1 2.572 . S
O28 C18 1.239 . S
O29 La0 2.482 . S
O29 La1 2.757 . S
O29 C18 1.289 . S
O30 La1 2.470 . S
O30 C19 1.258 . S
O31 La0 2.503 . S
O31 C19 1.256 . S
H32 C4 0.930 . S
H33 C5 0.930 . S
H34 C7 0.929 . S
H35 C8 0.929 . S
H36 C13 0.930 . S
H37 C14 0.930 . S
H38 C16 0.929 . S
H39 C17 0.929 . S
La40 C42 2.928 . S
La40 O60 2.521 . S
La40 O61 2.628 . S
La40 O62 2.554 . S
La40 O63 2.757 . S
La40 O64 2.470 . S
La40 O69 2.482 . S
La40 O71 2.503 . S
La41 C51 2.928 . S
La41 O63 2.482 . S
La41 O65 2.503 . S
La41 O66 2.521 . S
La41 O67 2.628 . S
La41 O68 2.554 1_655 S
La41 O69 2.757 . S
La41 O70 2.470 . S
C42 La40 2.928 . S
C42 C43 1.503 . S
C42 O60 1.261 . S
C42 O61 1.243 . S
C43 C42 1.503 . S
C43 C44 1.394 . S
C43 C48 1.373 . S
C44 C43 1.394 . S
C44 C45 1.380 . S
C44 H72 0.930 . S
C45 C44 1.380 . S
C45 C46 1.376 . S
C45 H73 0.930 . S
C46 C45 1.376 . S
C46 C47 1.370 . S
C47 C46 1.370 . S
C47 C48 1.396 . S
C47 H74 0.929 . S
C48 C43 1.373 . S
C48 C47 1.396 . S
C48 H75 0.929 . S
C49 O62 1.240 . S
C49 O63 1.289 . S
C50 O64 1.258 . S
C50 O65 1.256 . S
C51 La41 2.928 . S
C51 C52 1.503 . S
C51 O66 1.261 . S
C51 O67 1.243 . S
C52 C51 1.503 . S
C52 C53 1.394 . S
C52 C57 1.373 . S
C53 C52 1.394 . S
C53 C54 1.380 . S
C53 H76 0.930 1_655 S
C54 C53 1.380 . S
C54 C55 1.376 . S
C54 H77 0.930 1_655 S
C55 C54 1.376 . S
C55 C56 1.370 . S
C56 C55 1.370 . S
C56 C57 1.396 . S
C56 H78 0.929 . S
C57 C52 1.373 . S
C57 C56 1.396 . S
C57 H79 0.929 . S
C58 O68 1.240 . S
C58 O69 1.289 1_455 S
C59 O70 1.258 . S
C59 O71 1.256 . S
O60 La40 2.521 . S
O60 C42 1.261 . S
O61 La40 2.628 . S
O61 C42 1.243 . S
O62 La40 2.554 . S
O62 C49 1.240 . S
O63 La40 2.757 . S
O63 La41 2.482 . S
O63 C49 1.289 . S
O64 La40 2.470 . S
O64 C50 1.258 . S
O65 La41 2.503 . S
O65 C50 1.256 . S
O66 La41 2.521 . S
O66 C51 1.261 . S
O67 La41 2.628 . S
O67 C51 1.243 . S
O68 La41 2.554 1_455 S
O68 C58 1.240 . S
O69 La40 2.482 . S
O69 La41 2.757 . S
O69 C58 1.289 1_655 S
O70 La41 2.470 . S
O70 C59 1.258 . S
O71 La40 2.503 . S
O71 C59 1.256 . S
H72 C44 0.930 . S
H73 C45 0.930 . S
H74 C47 0.929 . S
H75 C48 0.929 . S
H76 C53 0.930 1_455 S
H77 C54 0.930 1_455 S
H78 C56 0.929 . S
H79 C57 0.929 . S
La80 C82 2.928 . S
La80 O100 2.521 . S
La80 O101 2.628 . S
La80 O102 2.554 . S
La80 O103 2.757 . S
La80 O104 2.470 . S
La80 O109 2.482 . S
La80 O111 2.503 . S
La81 C91 2.928 . S
La81 O103 2.482 . S
La81 O105 2.503 . S
La81 O106 2.521 . S
La81 O107 2.628 . S
La81 O108 2.554 . S
La81 O109 2.757 . S
La81 O110 2.470 . S
C82 La80 2.928 . S
C82 C83 1.503 . S
C82 O100 1.261 . S
C82 O101 1.243 . S
C83 C82 1.503 . S
C83 C84 1.394 . S
C83 C88 1.373 . S
C84 C83 1.394 . S
C84 C85 1.380 . S
C84 H112 0.930 . S
C85 C84 1.380 . S
C85 C86 1.376 . S
C85 H113 0.930 . S
C86 C85 1.376 . S
C86 C87 1.370 . S
C87 C86 1.370 . S
C87 C88 1.396 . S
C87 H114 0.929 . S
C88 C83 1.373 . S
C88 C87 1.396 . S
C88 H115 0.929 . S
C89 O102 1.240 . S
C89 O103 1.289 . S
C90 O104 1.258 . S
C90 O105 1.256 . S
C91 La81 2.928 . S
C91 C92 1.503 . S
C91 O106 1.261 . S
C91 O107 1.243 . S
C92 C91 1.503 . S
C92 C93 1.394 . S
C92 C97 1.373 . S
C93 C92 1.394 . S
C93 C94 1.380 . S
C93 H116 0.930 . S
C94 C93 1.380 . S
C94 C95 1.376 . S
C94 H117 0.930 . S
C95 C94 1.376 . S
C95 C96 1.370 . S
C96 C95 1.370 . S
C96 C97 1.396 . S
C96 H118 0.929 . S
C97 C92 1.373 . S
C97 C96 1.396 . S
C97 H119 0.929 . S
C98 O108 1.240 . S
C98 O109 1.289 . S
C99 O110 1.258 . S
C99 O111 1.256 . S
O100 La80 2.521 . S
O100 C82 1.261 . S
O101 La80 2.628 . S
O101 C82 1.243 . S
O102 La80 2.554 . S
O102 C89 1.240 . S
O103 La80 2.757 . S
O103 La81 2.482 . S
O103 C89 1.289 . S
O104 La80 2.470 . S
O104 C90 1.258 . S
O105 La81 2.503 . S
O105 C90 1.256 . S
O106 La81 2.521 . S
O106 C91 1.261 . S
O107 La81 2.628 . S
O107 C91 1.243 . S
O108 La81 2.554 . S
O108 C98 1.240 . S
O109 La80 2.482 . S
O109 La81 2.757 . S
O109 C98 1.289 . S
O110 La81 2.470 . S
O110 C99 1.258 . S
O111 La80 2.503 . S
O111 C99 1.256 . S
H112 C84 0.930 . S
H113 C85 0.930 . S
H114 C87 0.929 . S
H115 C88 0.929 . S
H116 C93 0.930 . S
H117 C94 0.930 . S
H118 C96 0.929 . S
H119 C97 0.929 . S
La120 C122 2.928 . S
La120 O140 2.521 . S
La120 O141 2.628 . S
La120 O142 2.554 . S
La120 O143 2.757 . S
La120 O144 2.470 . S
La120 O149 2.482 . S
La120 O151 2.503 . S
La121 C131 2.928 . S
La121 O143 2.482 . S
La121 O145 2.503 . S
La121 O146 2.521 . S
La121 O147 2.628 . S
La121 O148 2.554 . S
La121 O149 2.757 . S
La121 O150 2.470 . S
C122 La120 2.928 . S
C122 C123 1.503 1_554 S
C122 O140 1.261 . S
C122 O141 1.243 . S
C123 C122 1.503 1_556 S
C123 C124 1.394 . S
C123 C128 1.373 . S
C124 C123 1.394 . S
C124 C125 1.380 . S
C124 H152 0.930 . S
C125 C124 1.380 . S
C125 C126 1.376 . S
C125 H153 0.930 . S
C126 C125 1.376 . S
C126 C127 1.370 . S
C127 C126 1.370 . S
C127 C128 1.396 . S
C127 H154 0.929 . S
C128 C123 1.373 . S
C128 C127 1.396 . S
C128 H155 0.929 . S
C129 O142 1.240 . S
C129 O143 1.289 . S
C130 O144 1.258 . S
C130 O145 1.256 . S
C131 La121 2.928 . S
C131 C132 1.503 . S
C131 O146 1.261 . S
C131 O147 1.243 . S
C132 C131 1.503 . S
C132 C133 1.394 . S
C132 C137 1.373 . S
C133 C132 1.394 . S
C133 C134 1.380 . S
C133 H156 0.930 . S
C134 C133 1.380 . S
C134 C135 1.376 . S
C134 H157 0.930 . S
C135 C134 1.376 . S
C135 C136 1.370 . S
C136 C135 1.370 . S
C136 C137 1.396 . S
C136 H158 0.929 . S
C137 C132 1.373 . S
C137 C136 1.396 . S
C137 H159 0.929 . S
C138 O148 1.240 . S
C138 O149 1.289 . S
C139 O150 1.258 . S
C139 O151 1.256 . S
O140 La120 2.521 . S
O140 C122 1.261 . S
O141 La120 2.628 . S
O141 C122 1.243 . S
O142 La120 2.554 . S
O142 C129 1.240 . S
O143 La120 2.757 . S
O143 La121 2.482 . S
O143 C129 1.289 . S
O144 La120 2.470 . S
O144 C130 1.258 . S
O145 La121 2.503 . S
O145 C130 1.256 . S
O146 La121 2.521 . S
O146 C131 1.261 . S
O147 La121 2.628 . S
O147 C131 1.243 . S
O148 La121 2.554 . S
O148 C138 1.240 . S
O149 La120 2.482 . S
O149 La121 2.757 . S
O149 C138 1.289 . S
O150 La121 2.470 . S
O150 C139 1.258 . S
O151 La120 2.503 . S
O151 C139 1.256 . S
H152 C124 0.930 . S
H153 C125 0.930 . S
H154 C127 0.929 . S
H155 C128 0.929 . S
H156 C133 0.930 . S
H157 C134 0.930 . S
H158 C136 0.929 . S
H159 C137 0.929 . S
La160 C162 2.928 . S
La160 O180 2.521 . S
La160 O181 2.628 . S
La160 O182 2.554 . S
La160 O183 2.757 . S
La160 O184 2.470 . S
La160 O189 2.482 . S
La160 O191 2.503 . S
La161 C171 2.928 . S
La161 O183 2.482 . S
La161 O185 2.503 . S
La161 O186 2.521 . S
La161 O187 2.628 . S
La161 O188 2.554 1_565 S
La161 O189 2.757 . S
La161 O190 2.470 . S
C162 La160 2.928 . S
C162 C163 1.503 . S
C162 O180 1.261 . S
C162 O181 1.243 . S
C163 C162 1.503 . S
C163 C164 1.394 . S
C163 C168 1.373 . S
C164 C163 1.394 . S
C164 C165 1.380 . S
C164 H192 0.930 . S
C165 C164 1.380 . S
C165 C166 1.376 . S
C165 H193 0.930 . S
C166 C165 1.376 . S
C166 C167 1.370 . S
C167 C166 1.370 . S
C167 C168 1.396 . S
C167 H194 0.929 . S
C168 C163 1.373 . S
C168 C167 1.396 . S
C168 H195 0.929 . S
C169 O182 1.240 . S
C169 O183 1.289 . S
C170 O184 1.258 . S
C170 O185 1.256 . S
C171 La161 2.928 . S
C171 C172 1.503 . S
C171 O186 1.261 . S
C171 O187 1.243 . S
C172 C171 1.503 . S
C172 C173 1.394 . S
C172 C177 1.373 . S
C173 C172 1.394 . S
C173 C174 1.380 . S
C173 H196 0.930 1_565 S
C174 C173 1.380 . S
C174 C175 1.376 . S
C174 H197 0.930 1_565 S
C175 C174 1.376 . S
C175 C176 1.370 . S
C176 C175 1.370 . S
C176 C177 1.396 . S
C176 H198 0.929 . S
C177 C172 1.373 . S
C177 C176 1.396 . S
C177 H199 0.929 . S
C178 O188 1.240 . S
C178 O189 1.289 1_545 S
C179 O190 1.258 . S
C179 O191 1.256 . S
O180 La160 2.521 . S
O180 C162 1.261 . S
O181 La160 2.628 . S
O181 C162 1.243 . S
O182 La160 2.554 . S
O182 C169 1.240 . S
O183 La160 2.757 . S
O183 La161 2.482 . S
O183 C169 1.289 . S
O184 La160 2.470 . S
O184 C170 1.258 . S
O185 La161 2.503 . S
O185 C170 1.256 . S
O186 La161 2.521 . S
O186 C171 1.261 . S
O187 La161 2.628 . S
O187 C171 1.243 . S
O188 La161 2.554 1_545 S
O188 C178 1.240 . S
O189 La160 2.482 . S
O189 La161 2.757 . S
O189 C178 1.289 1_565 S
O190 La161 2.470 . S
O190 C179 1.258 . S
O191 La160 2.503 . S
O191 C179 1.256 . S
H192 C164 0.930 . S
H193 C165 0.930 . S
H194 C167 0.929 . S
H195 C168 0.929 . S
H196 C173 0.930 1_545 S
H197 C174 0.930 1_545 S
H198 C176 0.929 . S
H199 C177 0.929 . S
La200 C202 2.928 . S
La200 O220 2.521 . S
La200 O221 2.628 . S
La200 O222 2.554 . S
La200 O223 2.757 . S
La200 O224 2.470 . S
La200 O229 2.482 . S
La200 O231 2.503 . S
La201 C211 2.928 . S
La201 O223 2.482 . S
La201 O225 2.503 . S
La201 O226 2.521 . S
La201 O227 2.628 . S
La201 O228 2.572 . S
La201 O229 2.757 . S
La201 O230 2.470 . S
C202 La200 2.928 . S
C202 C203 1.503 . S
C202 O220 1.261 . S
C202 O221 1.243 . S
C203 C202 1.503 . S
C203 C204 1.394 . S
C203 C208 1.373 . S
C204 C203 1.394 . S
C204 C205 1.380 . S
C204 H232 0.930 . S
C205 C204 1.380 . S
C205 C206 1.376 . S
C205 H233 0.930 . S
C206 C205 1.376 . S
C206 C207 1.370 . S
C207 C206 1.370 . S
C207 C208 1.396 . S
C207 H234 0.929 . S
C208 C203 1.373 . S
C208 C207 1.396 . S
C208 H235 0.929 . S
C209 O222 1.240 . S
C209 O223 1.289 . S
C210 O224 1.258 . S
C210 O225 1.256 . S
C211 La201 2.928 . S
C211 C212 1.503 . S
C211 O226 1.261 . S
C211 O227 1.243 . S
C212 C211 1.503 . S
C212 C213 1.394 . S
C212 C217 1.373 . S
C213 C212 1.394 . S
C213 C214 1.380 . S
C213 H236 0.930 . S
C214 C213 1.380 . S
C214 C215 1.376 . S
C214 H237 0.930 . S
C215 C214 1.376 . S
C215 C216 1.370 . S
C216 C215 1.370 . S
C216 C217 1.396 . S
C216 H238 0.929 . S
C217 C212 1.373 . S
C217 C216 1.396 . S
C217 H239 0.929 . S
C218 O228 1.239 . S
C218 O229 1.289 . S
C219 O230 1.258 . S
C219 O231 1.256 . S
O220 La200 2.521 . S
O220 C202 1.261 . S
O221 La200 2.628 . S
O221 C202 1.243 . S
O222 La200 2.554 . S
O222 C209 1.240 . S
O223 La200 2.757 . S
O223 La201 2.482 . S
O223 C209 1.289 . S
O224 La200 2.470 . S
O224 C210 1.258 . S
O225 La201 2.503 . S
O225 C210 1.256 . S
O226 La201 2.521 . S
O226 C211 1.261 . S
O227 La201 2.628 . S
O227 C211 1.243 . S
O228 La201 2.572 . S
O228 C218 1.239 . S
O229 La200 2.482 . S
O229 La201 2.757 . S
O229 C218 1.289 . S
O230 La201 2.470 . S
O230 C219 1.258 . S
O231 La200 2.503 . S
O231 C219 1.256 . S
H232 C204 0.930 . S
H233 C205 0.930 . S
H234 C207 0.929 . S
H235 C208 0.929 . S
H236 C213 0.930 . S
H237 C214 0.930 . S
H238 C216 0.929 . S
H239 C217 0.929 . S
H240 C246 0.930 . S
H241 C250 0.930 . S
H242 C255 0.929 . S
H243 C253 0.929 . S
H244 C248 0.929 . S
H245 C254 0.929 . S
C246 H240 0.930 . S
C246 C247 1.367 . S
C246 C254 1.378 . S
C247 C246 1.367 . S
C247 C255 1.433 . S
C248 H244 0.929 . S
C248 C250 1.378 . S
C248 C252 1.350 . S
C249 C252 1.463 . S
C249 C254 1.350 . S
C249 N257 1.427 . S
C250 H241 0.930 . S
C250 C248 1.378 . S
C250 C251 1.367 . S
C251 C250 1.367 . S
C251 C253 1.433 . S
C252 C248 1.350 . S
C252 C249 1.463 . S
C252 N256 1.427 . S
C253 H243 0.929 . S
C253 C251 1.433 . S
C253 N256 1.384 . S
C254 H245 0.929 . S
C254 C246 1.378 . S
C254 C249 1.350 . S
C255 H242 0.929 . S
C255 C247 1.433 . S
C255 N257 1.384 . S
N256 C252 1.427 . S
N256 C253 1.384 . S
N257 C249 1.427 . S
N257 C255 1.384 . S
H258 C264 0.930 . S
H259 C268 0.930 . S
H260 C273 0.929 . S
H261 C271 0.929 . S
H262 C266 0.929 . S
H263 C272 0.929 . S
C264 H258 0.930 . S
C264 C265 1.367 . S
C264 C272 1.378 . S
C265 C264 1.367 . S
C265 C273 1.433 . S
C266 H262 0.929 . S
C266 C268 1.378 . S
C266 C270 1.350 . S
C267 C270 1.463 . S
C267 C272 1.350 . S
C267 N275 1.427 . S
C268 H259 0.930 . S
C268 C266 1.378 . S
C268 C269 1.367 . S
C269 C268 1.367 . S
C269 C271 1.433 . S
C270 C266 1.350 . S
C270 C267 1.463 . S
C270 N274 1.427 . S
C271 H261 0.929 . S
C271 C269 1.433 . S
C271 N274 1.384 . S
C272 H263 0.929 . S
C272 C264 1.378 . S
C272 C267 1.350 . S
C273 H260 0.929 . S
C273 C265 1.433 . S
C273 N275 1.384 . S
N274 C270 1.427 . S
N274 C271 1.384 . S
N275 C267 1.427 . S
N275 C273 1.384 . S
H276 C282 0.930 . S
H277 C286 0.930 . S
H278 C291 0.929 . S
H279 C289 0.929 . S
H280 C284 0.929 . S
H281 C290 0.929 . S
C282 H276 0.930 . S
C282 C283 1.367 . S
C282 C290 1.378 . S
C283 C282 1.367 . S
C283 C291 1.433 . S
C284 H280 0.929 . S
C284 C286 1.378 1_554 S
C284 C288 1.350 . S
C285 C288 1.463 . S
C285 C290 1.350 . S
C285 N293 1.427 . S
C286 H277 0.930 . S
C286 C284 1.378 1_556 S
C286 C287 1.367 . S
C287 C286 1.367 . S
C287 C289 1.433 . S
C288 C284 1.350 . S
C288 C285 1.463 . S
C288 N292 1.427 . S
C289 H279 0.929 . S
C289 C287 1.433 . S
C289 N292 1.384 1_556 S
C290 H281 0.929 . S
C290 C282 1.378 . S
C290 C285 1.350 . S
C291 H278 0.929 . S
C291 C283 1.433 . S
C291 N293 1.384 . S
N292 C288 1.427 . S
N292 C289 1.384 1_554 S
N293 C285 1.427 . S
N293 C291 1.384 . S
H294 C300 0.930 . S
H295 C304 0.930 . S
H296 C309 0.929 . S
H297 C307 0.929 . S
H298 C302 0.929 . S
H299 C308 0.929 . S
C300 H294 0.930 . S
C300 C301 1.367 . S
C300 C308 1.378 . S
C301 C300 1.367 . S
C301 C309 1.433 . S
C302 H298 0.929 . S
C302 C304 1.378 . S
C302 C306 1.350 . S
C303 C306 1.463 . S
C303 C308 1.350 . S
C303 N311 1.427 . S
C304 H295 0.930 . S
C304 C302 1.378 . S
C304 C305 1.367 . S
C305 C304 1.367 . S
C305 C307 1.433 . S
C306 C302 1.350 . S
C306 C303 1.463 . S
C306 N310 1.427 . S
C307 H297 0.929 . S
C307 C305 1.433 . S
C307 N310 1.384 . S
C308 H299 0.929 . S
C308 C300 1.378 . S
C308 C303 1.350 . S
C309 H296 0.929 . S
C309 C301 1.433 . S
C309 N311 1.384 . S
N310 C306 1.427 . S
N310 C307 1.384 . S
N311 C303 1.427 . S
N311 C309 1.384 . S
H312 C318 0.930 . S
H313 C322 0.930 . S
H314 C327 0.929 . S
H315 C325 0.929 . S
H316 C320 0.929 . S
H317 C326 0.929 . S
C318 H312 0.930 . S
C318 C319 1.367 . S
C318 C326 1.378 . S
C319 C318 1.367 . S
C319 C327 1.433 . S
C320 H316 0.929 . S
C320 C322 1.378 . S
C320 C324 1.350 . S
C321 C324 1.463 . S
C321 C326 1.350 . S
C321 N329 1.427 . S
C322 H313 0.930 . S
C322 C320 1.378 . S
C322 C323 1.367 . S
C323 C322 1.367 . S
C323 C325 1.433 . S
C324 C320 1.350 . S
C324 C321 1.463 . S
C324 N328 1.427 . S
C325 H315 0.929 . S
C325 C323 1.433 . S
C325 N328 1.384 . S
C326 H317 0.929 . S
C326 C318 1.378 . S
C326 C321 1.350 . S
C327 H314 0.929 . S
C327 C319 1.433 . S
C327 N329 1.384 . S
N328 C324 1.427 . S
N328 C325 1.384 . S
N329 C321 1.427 . S
N329 C327 1.384 . S
H330 C336 0.930 . S
H331 C340 0.930 . S
H332 C345 0.929 . S
H333 C343 0.929 . S
H334 C338 0.929 . S
H335 C344 0.929 . S
C336 H330 0.930 . S
C336 C337 1.367 . S
C336 C344 1.378 . S
C337 C336 1.367 . S
C337 C345 1.433 . S
C338 H334 0.929 . S
C338 C340 1.378 . S
C338 C342 1.350 . S
C339 C342 1.463 . S
C339 C344 1.350 . S
C339 N347 1.427 . S
C340 H331 0.930 . S
C340 C338 1.378 . S
C340 C341 1.367 . S
C341 C340 1.367 . S
C341 C343 1.433 . S
C342 C338 1.350 . S
C342 C339 1.463 . S
C342 N346 1.427 . S
C343 H333 0.929 . S
C343 C341 1.433 . S
C343 N346 1.384 . S
C344 H335 0.929 . S
C344 C336 1.378 . S
C344 C339 1.350 . S
C345 H332 0.929 . S
C345 C337 1.433 . S
C345 N347 1.384 . S
N346 C342 1.427 . S
N346 C343 1.384 . S
N347 C339 1.427 . S
N347 C345 1.384 . S
H348 C354 0.930 . S
H349 C358 0.930 . S
H350 C363 0.929 . S
H351 C361 0.929 . S
H352 C356 0.929 . S
H353 C362 0.929 . S
C354 H348 0.930 . S
C354 C355 1.367 . S
C354 C362 1.378 . S
C355 C354 1.367 . S
C355 C363 1.433 . S
C356 H352 0.929 . S
C356 C358 1.378 . S
C356 C360 1.350 . S
C357 C360 1.463 . S
C357 C362 1.350 . S
C357 N365 1.427 . S
C358 H349 0.930 . S
C358 C356 1.378 . S
C358 C359 1.367 . S
C359 C358 1.367 . S
C359 C361 1.433 . S
C360 C356 1.350 . S
C360 C357 1.463 . S
C360 N364 1.427 . S
C361 H351 0.929 . S
C361 C359 1.433 . S
C361 N364 1.384 . S
C362 H353 0.929 . S
C362 C354 1.378 . S
C362 C357 1.350 . S
C363 H350 0.929 . S
C363 C355 1.433 . S
C363 N365 1.384 . S
N364 C360 1.427 . S
N364 C361 1.384 . S
N365 C357 1.427 . S
N365 C363 1.384 . S
H366 C372 0.930 . S
H367 C376 0.930 . S
H368 C381 0.929 . S
H369 C379 0.929 1_655 S
H370 C374 0.929 . S
H371 C380 0.929 . S
C372 H366 0.930 . S
C372 C373 1.367 . S
C372 C380 1.378 . S
C373 C372 1.367 . S
C373 C381 1.433 . S
C374 H370 0.929 . S
C374 C376 1.378 . S
C374 C378 1.350 . S
C375 C378 1.463 . S
C375 C380 1.350 . S
C375 N383 1.427 . S
C376 H367 0.930 . S
C376 C374 1.378 . S
C376 C377 1.367 . S
C377 C376 1.367 . S
C377 C379 1.433 . S
C378 C374 1.350 . S
C378 C375 1.463 . S
C378 N382 1.427 . S
C379 H369 0.929 1_455 S
C379 C377 1.433 . S
C379 N382 1.384 . S
C380 H371 0.929 . S
C380 C372 1.378 . S
C380 C375 1.350 . S
C381 H368 0.929 . S
C381 C373 1.433 . S
C381 N383 1.384 . S
N382 C378 1.427 . S
N382 C379 1.384 . S
N383 C375 1.427 . S
N383 C381 1.384 . S
H384 C390 0.930 . S
H385 C394 0.930 . S
H386 C399 0.929 . S
H387 C397 0.929 . S
H388 C392 0.929 . S
H389 C398 0.929 . S
C390 H384 0.930 . S
C390 C391 1.367 . S
C390 C398 1.378 . S
C391 C390 1.367 . S
C391 C399 1.433 . S
C392 H388 0.929 . S
C392 C394 1.378 . S
C392 C396 1.350 . S
C393 C396 1.463 . S
C393 C398 1.350 . S
C393 N401 1.427 . S
C394 H385 0.930 . S
C394 C392 1.378 . S
C394 C395 1.367 . S
C395 C394 1.367 . S
C395 C397 1.433 . S
C396 C392 1.350 . S
C396 C393 1.463 . S
C396 N400 1.427 . S
C397 H387 0.929 . S
C397 C395 1.433 . S
C397 N400 1.384 . S
C398 H389 0.929 . S
C398 C390 1.378 . S
C398 C393 1.350 . S
C399 H386 0.929 . S
C399 C391 1.433 . S
C399 N401 1.384 . S
N400 C396 1.427 . S
N400 C397 1.384 . S
N401 C393 1.427 . S
N401 C399 1.384 . S
H402 C408 0.930 . S
H403 C412 0.930 . S
H404 C417 0.929 . S
H405 C415 0.929 . S
H406 C410 0.929 . S
H407 C416 0.929 . S
C408 H402 0.930 . S
C408 C409 1.367 . S
C408 C416 1.378 . S
C409 C408 1.367 . S
C409 C417 1.433 . S
C410 H406 0.929 . S
C410 C412 1.378 . S
C410 C414 1.350 . S
C411 C414 1.463 . S
C411 C416 1.350 . S
C411 N419 1.427 . S
C412 H403 0.930 . S
C412 C410 1.378 . S
C412 C413 1.367 . S
C413 C412 1.367 . S
C413 C415 1.433 . S
C414 C410 1.350 . S
C414 C411 1.463 . S
C414 N418 1.427 . S
C415 H405 0.929 . S
C415 C413 1.433 . S
C415 N418 1.384 . S
C416 H407 0.929 . S
C416 C408 1.378 . S
C416 C411 1.350 . S
C417 H404 0.929 . S
C417 C409 1.433 . S
C417 N419 1.384 . S
N418 C414 1.427 . S
N418 C415 1.384 . S
N419 C411 1.427 . S
N419 C417 1.384 . S
H420 C426 0.930 . S
H421 C430 0.930 . S
H422 C435 0.929 . S
H423 C433 0.929 . S
H424 C428 0.929 . S
H425 C434 0.929 . S
C426 H420 0.930 . S
C426 C427 1.367 . S
C426 C434 1.378 . S
C427 C426 1.367 . S
C427 C435 1.433 1_655 S
C428 H424 0.929 . S
C428 C430 1.378 . S
C428 C432 1.350 . S
C429 C432 1.463 . S
C429 C434 1.350 . S
C429 N437 1.427 1_655 S
C430 H421 0.930 . S
C430 C428 1.378 . S
C430 C431 1.367 . S
C431 C430 1.367 . S
C431 C433 1.433 . S
C432 C428 1.350 . S
C432 C429 1.463 . S
C432 N436 1.427 . S
C433 H423 0.929 . S
C433 C431 1.433 . S
C433 N436 1.384 . S
C434 H425 0.929 . S
C434 C426 1.378 . S
C434 C429 1.350 . S
C435 H422 0.929 . S
C435 C427 1.433 1_455 S
C435 N437 1.384 . S
N436 C432 1.427 . S
N436 C433 1.384 . S
N437 C429 1.427 1_455 S
N437 C435 1.384 . S
H438 C444 0.930 . S
H439 C448 0.930 . S
H440 C453 0.929 1_565 S
H441 C451 0.929 . S
H442 C446 0.929 . S
H443 C452 0.929 . S
C444 H438 0.930 . S
C444 C445 1.367 . S
C444 C452 1.378 . S
C445 C444 1.367 . S
C445 C453 1.433 . S
C446 H442 0.929 . S
C446 C448 1.378 . S
C446 C450 1.350 . S
C447 C450 1.463 . S
C447 C452 1.350 . S
C447 N455 1.427 . S
C448 H439 0.930 . S
C448 C446 1.378 . S
C448 C449 1.367 . S
C449 C448 1.367 . S
C449 C451 1.433 . S
C450 C446 1.350 . S
C450 C447 1.463 . S
C450 N454 1.427 . S
C451 H441 0.929 . S
C451 C449 1.433 . S
C451 N454 1.384 . S
C452 H443 0.929 . S
C452 C444 1.378 . S
C452 C447 1.350 . S
C453 H440 0.929 1_545 S
C453 C445 1.433 . S
C453 N455 1.384 . S
N454 C450 1.427 . S
N454 C451 1.384 . S
N455 C447 1.427 . S
N455 C453 1.384 . S
H456 C462 0.930 . S
H457 C466 0.930 . S
H458 C471 0.929 . S
H459 C469 0.929 . S
H460 C464 0.929 . S
H461 C470 0.929 . S
C462 H456 0.930 . S
C462 C463 1.367 . S
C462 C470 1.378 . S
C463 C462 1.367 . S
C463 C471 1.433 . S
C464 H460 0.929 . S
C464 C466 1.378 1_556 S
C464 C468 1.350 . S
C465 C468 1.463 . S
C465 C470 1.350 . S
C465 N473 1.427 . S
C466 H457 0.930 . S
C466 C464 1.378 1_554 S
C466 C467 1.367 . S
C467 C466 1.367 . S
C467 C469 1.433 1_554 S
C468 C464 1.350 . S
C468 C465 1.463 . S
C468 N472 1.427 . S
C469 H459 0.929 . S
C469 C467 1.433 1_556 S
C469 N472 1.384 . S
C470 H461 0.929 . S
C470 C462 1.378 . S
C470 C465 1.350 . S
C471 H458 0.929 . S
C471 C463 1.433 . S
C471 N473 1.384 . S
N472 C468 1.427 . S
N472 C469 1.384 . S
N473 C465 1.427 . S
N473 C471 1.384 . S
H474 C480 0.930 . S
H475 C484 0.930 . S
H476 C489 0.929 . S
H477 C487 0.929 . S
H478 C482 0.929 . S
H479 C488 0.929 . S
C480 H474 0.930 . S
C480 C481 1.367 1_455 S
C480 C488 1.378 . S
C481 C480 1.367 1_655 S
C481 C489 1.433 . S
C482 H478 0.929 . S
C482 C484 1.378 . S
C482 C486 1.350 1_655 S
C483 C486 1.463 . S
C483 C488 1.350 . S
C483 N491 1.427 1_455 S
C484 H475 0.930 . S
C484 C482 1.378 . S
C484 C485 1.367 1_655 S
C485 C484 1.367 1_455 S
C485 C487 1.433 . S
C486 C482 1.350 1_455 S
C486 C483 1.463 . S
C486 N490 1.427 . S
C487 H477 0.929 . S
C487 C485 1.433 . S
C487 N490 1.384 . S
C488 H479 0.929 . S
C488 C480 1.378 . S
C488 C483 1.350 . S
C489 H476 0.929 . S
C489 C481 1.433 . S
C489 N491 1.384 . S
N490 C486 1.427 . S
N490 C487 1.384 . S
N491 C483 1.427 1_655 S
N491 C489 1.384 . S
H492 C498 0.930 . S
H493 C502 0.927 1_455 S
H494 C507 0.929 . S
H495 C505 0.929 . S
H496 C500 0.929 . S
H497 C506 0.929 . S
C498 H492 0.930 . S
C498 C499 1.367 . S
C498 C506 1.378 . S
C499 C498 1.367 . S
C499 C507 1.433 . S
C500 H496 0.929 . S
C500 C502 1.378 . S
C500 C504 1.350 . S
C501 C504 1.463 1_565 S
C501 C506 1.350 . S
C501 N509 1.427 . S
C502 H493 0.927 1_655 S
C502 C500 1.378 . S
C502 C503 1.367 . S
C503 C502 1.367 . S
C503 C505 1.433 . S
C504 C500 1.350 . S
C504 C501 1.463 1_545 S
C504 N508 1.427 . S
C505 H495 0.929 . S
C505 C503 1.433 . S
C505 N508 1.384 . S
C506 H497 0.929 . S
C506 C498 1.378 . S
C506 C501 1.350 . S
C507 H494 0.929 . S
C507 C499 1.433 . S
C507 N509 1.384 . S
N508 C504 1.427 . S
N508 C505 1.384 . S
N509 C501 1.427 . S
N509 C507 1.384 . S
H510 C516 0.930 . S
H511 C520 0.930 1_554 S
H512 C525 0.929 . S
H513 C523 0.929 . S
H514 C518 0.929 . S
H515 C524 0.929 . S
C516 H510 0.930 . S
C516 C517 1.367 . S
C516 C524 1.378 . S
C517 C516 1.367 . S
C517 C525 1.433 . S
C518 H514 0.929 . S
C518 C520 1.378 . S
C518 C522 1.350 . S
C519 C522 1.463 . S
C519 C524 1.350 . S
C519 N527 1.427 . S
C520 H511 0.930 1_556 S
C520 C518 1.378 . S
C520 C521 1.367 1_556 S
C521 C520 1.367 1_554 S
C521 C523 1.433 . S
C522 C518 1.350 . S
C522 C519 1.463 . S
C522 N526 1.427 . S
C523 H513 0.929 . S
C523 C521 1.433 . S
C523 N526 1.384 1_554 S
C524 H515 0.929 . S
C524 C516 1.378 . S
C524 C519 1.350 . S
C525 H512 0.929 . S
C525 C517 1.433 . S
C525 N527 1.384 . S
N526 C522 1.427 . S
N526 C523 1.384 1_556 S
N527 C519 1.427 . S
N527 C525 1.384 . S
H528 C534 0.930 . S
H529 C538 0.930 . S
H530 C543 0.929 . S
H531 C541 0.929 . S
H532 C536 0.929 . S
H533 C542 0.929 1_655 S
C534 H528 0.930 . S
C534 C535 1.367 . S
C534 C542 1.378 . S
C535 C534 1.367 . S
C535 C543 1.433 . S
C536 H532 0.929 . S
C536 C538 1.378 1_455 S
C536 C540 1.350 1_455 S
C537 C540 1.463 1_455 S
C537 C542 1.350 . S
C537 N545 1.427 . S
C538 H529 0.930 . S
C538 C536 1.378 1_655 S
C538 C539 1.367 . S
C539 C538 1.367 . S
C539 C541 1.433 . S
C540 C536 1.350 1_655 S
C540 C537 1.463 1_655 S
C540 N544 1.427 . S
C541 H531 0.929 . S
C541 C539 1.433 . S
C541 N544 1.384 . S
C542 H533 0.929 1_455 S
C542 C534 1.378 . S
C542 C537 1.350 . S
C543 H530 0.929 . S
C543 C535 1.433 . S
C543 N545 1.384 . S
N544 C540 1.427 . S
N544 C541 1.384 . S
N545 C537 1.427 . S
N545 C543 1.384 . S
H546 C552 0.930 1_565 S
H547 C556 0.930 . S
H548 C561 0.929 . S
H549 C559 0.929 . S
H550 C554 0.929 . S
H551 C560 0.929 . S
C552 H546 0.930 1_545 S
C552 C553 1.367 . S
C552 C560 1.378 1_545 S
C553 C552 1.367 . S
C553 C561 1.433 . S
C554 H550 0.929 . S
C554 C556 1.378 . S
C554 C558 1.350 . S
C555 C558 1.463 . S
C555 C560 1.350 1_545 S
C555 N563 1.427 . S
C556 H547 0.930 . S
C556 C554 1.378 . S
C556 C557 1.367 1_545 S
C557 C556 1.367 1_565 S
C557 C559 1.433 . S
C558 C554 1.350 . S
C558 C555 1.463 . S
C558 N562 1.427 1_545 S
C559 H549 0.929 . S
C559 C557 1.433 . S
C559 N562 1.384 . S
C560 H551 0.929 . S
C560 C552 1.378 1_565 S
C560 C555 1.350 1_565 S
C561 H548 0.929 . S
C561 C553 1.433 . S
C561 N563 1.384 . S
N562 C558 1.427 1_565 S
N562 C559 1.384 . S
N563 C555 1.427 . S
N563 C561 1.384 . S
C247 C179 1.483 . S
C251 C6 1.456 . S
C265 C206 1.464 . S
C269 C59 1.485 . S
C283 C19 1.486 . S
C287 C86 1.465 . S
C301 C46 1.460 . S
C305 C139 1.483 . S
C319 C99 1.482 . S
C323 C166 1.454 . S
C337 C126 1.463 . S
C341 C219 1.485 . S
C355 C9 1.188 . S
C359 C138 1.341 . S
C373 C169 1.207 . S
C377 C58 1.357 . S
C391 C218 1.356 1_565 S
C395 C89 1.196 . S
C409 C98 1.345 . S
C413 C209 1.205 . S
C427 C18 1.352 1_655 S
C431 C129 1.211 . S
C445 C178 1.357 . S
C449 C49 1.208 . S
C463 C215 0.843 . S
C467 C15 0.850 . S
C481 C50 1.742 . S
C485 C10 1.742 . S
C499 C95 0.844 . S
C503 C55 0.858 . S
C517 C90 1.737 . S
C521 C130 1.737 . S
C535 C175 0.852 . S
C539 C135 0.842 . S
C553 C210 1.741 . S
C557 C170 1.741 . S
