# Generated by pormake.
# Topology hbo, (4)-cn, num edge types: 1
# Building blocks:
#     Node 0, Type 0, BuildingBlock: KOZSID_clean_sbu_0, # of connection points: 4
#     Node 1, Type 0, BuildingBlock: KOZSID_clean_sbu_0, # of connection points: 4
#     Node 2, Type 0, BuildingBlock: KOZSID_clean_sbu_0, # of connection points: 4
#     Node 3, Type 0, BuildingBlock: KOZSID_clean_sbu_0, # of connection points: 4
#     Node 4, Type 0, BuildingBlock: KOZSID_clean_sbu_0, # of connection points: 4
#     Node 5, Type 0, BuildingBlock: KOZSID_clean_sbu_0, # of connection points: 4
#     Node 6, Type 0, BuildingBlock: KOZSID_clean_sbu_0, # of connection points: 4
#     Node 7, Type 0, BuildingBlock: KOZSID_clean_sbu_0, # of connection points: 4
#     Node 8, Type 0, BuildingBlock: KOZSID_clean_sbu_0, # of connection points: 4
#     Node 9, Type 0, BuildingBlock: KOZSID_clean_sbu_0, # of connection points: 4
#     Node 10, Type 0, BuildingBlock: KOZSID_clean_sbu_0, # of connection points: 4
#     Node 11, Type 0, BuildingBlock: KOZSID_clean_sbu_0, # of connection points: 4
#     Node 12, Type 0, BuildingBlock: KOZSID_clean_sbu_0, # of connection points: 4
#     Node 13, Type 0, BuildingBlock: KOZSID_clean_sbu_0, # of connection points: 4
#     Node 14, Type 0, BuildingBlock: KOZSID_clean_sbu_0, # of connection points: 4
#     Node 15, Type 0, BuildingBlock: KOZSID_clean_sbu_0, # of connection points: 4
#     Node 16, Type 0, BuildingBlock: KOZSID_clean_sbu_0, # of connection points: 4
#     Node 17, Type 0, BuildingBlock: KOZSID_clean_sbu_0, # of connection points: 4
#     Node 18, Type 0, BuildingBlock: KOZSID_clean_sbu_0, # of connection points: 4
#     Node 19, Type 0, BuildingBlock: KOZSID_clean_sbu_0, # of connection points: 4
#     Node 20, Type 0, BuildingBlock: KOZSID_clean_sbu_0, # of connection points: 4
#     Node 21, Type 0, BuildingBlock: KOZSID_clean_sbu_0, # of connection points: 4
#     Node 22, Type 0, BuildingBlock: KOZSID_clean_sbu_0, # of connection points: 4
#     Node 23, Type 0, BuildingBlock: KOZSID_clean_sbu_0, # of connection points: 4
#     Edge 24, Type (0, 0), BuildingBlock: KIFKEQ_clean_linker_1, # of connection points: 2
#     Edge 25, Type (0, 0), BuildingBlock: KIFKEQ_clean_linker_1, # of connection points: 2
#     Edge 26, Type (0, 0), BuildingBlock: KIFKEQ_clean_linker_1, # of connection points: 2
#     Edge 27, Type (0, 0), BuildingBlock: KIFKEQ_clean_linker_1, # of connection points: 2
#     Edge 28, Type (0, 0), BuildingBlock: KIFKEQ_clean_linker_1, # of connection points: 2
#     Edge 29, Type (0, 0), BuildingBlock: KIFKEQ_clean_linker_1, # of connection points: 2
#     Edge 30, Type (0, 0), BuildingBlock: KIFKEQ_clean_linker_1, # of connection points: 2
#     Edge 31, Type (0, 0), BuildingBlock: KIFKEQ_clean_linker_1, # of connection points: 2
#     Edge 32, Type (0, 0), BuildingBlock: KIFKEQ_clean_linker_1, # of connection points: 2
#     Edge 33, Type (0, 0), BuildingBlock: KIFKEQ_clean_linker_1, # of connection points: 2
#     Edge 34, Type (0, 0), BuildingBlock: KIFKEQ_clean_linker_1, # of connection points: 2
#     Edge 35, Type (0, 0), BuildingBlock: KIFKEQ_clean_linker_1, # of connection points: 2
#     Edge 36, Type (0, 0), BuildingBlock: KIFKEQ_clean_linker_1, # of connection points: 2
#     Edge 37, Type (0, 0), BuildingBlock: KIFKEQ_clean_linker_1, # of connection points: 2
#     Edge 38, Type (0, 0), BuildingBlock: KIFKEQ_clean_linker_1, # of connection points: 2
#     Edge 39, Type (0, 0), BuildingBlock: KIFKEQ_clean_linker_1, # of connection points: 2
#     Edge 40, Type (0, 0), BuildingBlock: KIFKEQ_clean_linker_1, # of connection points: 2
#     Edge 41, Type (0, 0), BuildingBlock: KIFKEQ_clean_linker_1, # of connection points: 2
#     Edge 42, Type (0, 0), BuildingBlock: KIFKEQ_clean_linker_1, # of connection points: 2
#     Edge 43, Type (0, 0), BuildingBlock: KIFKEQ_clean_linker_1, # of connection points: 2
#     Edge 44, Type (0, 0), BuildingBlock: KIFKEQ_clean_linker_1, # of connection points: 2
#     Edge 45, Type (0, 0), BuildingBlock: KIFKEQ_clean_linker_1, # of connection points: 2
#     Edge 46, Type (0, 0), BuildingBlock: KIFKEQ_clean_linker_1, # of connection points: 2
#     Edge 47, Type (0, 0), BuildingBlock: KIFKEQ_clean_linker_1, # of connection points: 2
#     Edge 48, Type (0, 0), BuildingBlock: KIFKEQ_clean_linker_1, # of connection points: 2
#     Edge 49, Type (0, 0), BuildingBlock: KIFKEQ_clean_linker_1, # of connection points: 2
#     Edge 50, Type (0, 0), BuildingBlock: KIFKEQ_clean_linker_1, # of connection points: 2
#     Edge 51, Type (0, 0), BuildingBlock: KIFKEQ_clean_linker_1, # of connection points: 2
#     Edge 52, Type (0, 0), BuildingBlock: KIFKEQ_clean_linker_1, # of connection points: 2
#     Edge 53, Type (0, 0), BuildingBlock: KIFKEQ_clean_linker_1, # of connection points: 2
#     Edge 54, Type (0, 0), BuildingBlock: KIFKEQ_clean_linker_1, # of connection points: 2
#     Edge 55, Type (0, 0), BuildingBlock: KIFKEQ_clean_linker_1, # of connection points: 2
#     Edge 56, Type (0, 0), BuildingBlock: KIFKEQ_clean_linker_1, # of connection points: 2
#     Edge 57, Type (0, 0), BuildingBlock: KIFKEQ_clean_linker_1, # of connection points: 2
#     Edge 58, Type (0, 0), BuildingBlock: KIFKEQ_clean_linker_1, # of connection points: 2
#     Edge 59, Type (0, 0), BuildingBlock: KIFKEQ_clean_linker_1, # of connection points: 2
#     Edge 60, Type (0, 0), BuildingBlock: KIFKEQ_clean_linker_1, # of connection points: 2
#     Edge 61, Type (0, 0), BuildingBlock: KIFKEQ_clean_linker_1, # of connection points: 2
#     Edge 62, Type (0, 0), BuildingBlock: KIFKEQ_clean_linker_1, # of connection points: 2
#     Edge 63, Type (0, 0), BuildingBlock: KIFKEQ_clean_linker_1, # of connection points: 2
#     Edge 64, Type (0, 0), BuildingBlock: KIFKEQ_clean_linker_1, # of connection points: 2
#     Edge 65, Type (0, 0), BuildingBlock: KIFKEQ_clean_linker_1, # of connection points: 2
#     Edge 66, Type (0, 0), BuildingBlock: KIFKEQ_clean_linker_1, # of connection points: 2
#     Edge 67, Type (0, 0), BuildingBlock: KIFKEQ_clean_linker_1, # of connection points: 2
#     Edge 68, Type (0, 0), BuildingBlock: KIFKEQ_clean_linker_1, # of connection points: 2
#     Edge 69, Type (0, 0), BuildingBlock: KIFKEQ_clean_linker_1, # of connection points: 2
#     Edge 70, Type (0, 0), BuildingBlock: KIFKEQ_clean_linker_1, # of connection points: 2
#     Edge 71, Type (0, 0), BuildingBlock: KIFKEQ_clean_linker_1, # of connection points: 2
# Relax obj value: 0.075
# Max RMSD: 0.317
# Mean RMSD: 0.297
data_MOF--net-hbo--node1-KOZSID_clean_sbu_0--edge1-KIFKEQ_clean_linker_1
_symmetry_space_group_name_H-M    P1
_symmetry_Int_Tables_number       1
_symmetry_cell_setting            triclinic
loop_
_symmetry_equiv_pos_as_xyz
'x, y, z'
_cell_length_a     69.846042
_cell_length_b     64.048527
_cell_length_c     63.976609
_cell_angle_alpha  90.078906
_cell_angle_beta   90.392943
_cell_angle_gamma 88.68479
loop_
_atom_site_label
_atom_site_type_symbol
_atom_site_fract_x
_atom_site_fract_y
_atom_site_fract_z
_atom_type_partial_charge
C0 C 0.1817 0.34533 0.31084 0.0
C1 C 0.18781 0.34113 0.33113 0.0
C2 C 0.18643 0.3596 0.34189 0.0
C3 C 0.1796 0.37398 0.32763 0.0
N4 N 0.1765 0.36573 0.30861 0.0
Co5 Co 0.16705 0.38118 0.2835 0.0
N6 N 0.17435 0.4086 0.2956 0.0
C7 C 0.17856 0.41208 0.31589 0.0
C8 C 0.18263 0.43248 0.32016 0.0
C9 C 0.18057 0.44268 0.3015 0.0
C10 C 0.17522 0.42789 0.28679 0.0
N11 N 0.15709 0.39691 0.25866 0.0
C12 C 0.15877 0.41738 0.25315 0.0
C13 C 0.14809 0.4218 0.23528 0.0
C14 C 0.13922 0.40367 0.22967 0.0
C15 C 0.1449 0.38914 0.24437 0.0
N16 N 0.16027 0.35361 0.27169 0.0
C17 C 0.14806 0.35052 0.25574 0.0
C18 C 0.14691 0.32974 0.25044 0.0
C19 C 0.1592 0.31923 0.26393 0.0
C20 C 0.16723 0.33419 0.27673 0.0
N21 N 0.14118 0.38398 0.29596 0.0
C22 C 0.10109 0.38484 0.30337 0.0
C23 C 0.11257 0.36695 0.3077 0.0
C24 C 0.1324 0.36683 0.30387 0.0
C25 C 0.11072 0.40276 0.29687 0.0
C26 C 0.13059 0.4021 0.29365 0.0
N27 N 0.19233 0.37748 0.27009 0.0
C28 C 0.20898 0.36465 0.23953 0.0
C29 C 0.22588 0.36122 0.25098 0.0
C30 C 0.22591 0.36735 0.27215 0.0
C31 C 0.20906 0.37573 0.28132 0.0
C32 C 0.19261 0.37269 0.24923 0.0
H33 H 0.20934 0.3798 0.2977 0.0
H34 H 0.17982 0.3735 0.23988 0.0
H35 H 0.14047 0.35246 0.30636 0.0
H36 H 0.13712 0.41606 0.28804 0.0
C37 C 0.18006 0.3956 0.33012 0.0
C38 C 0.1806 0.32959 0.29424 0.0
C39 C 0.16867 0.43345 0.26556 0.0
C40 C 0.14095 0.36765 0.24405 0.0
H41 H 0.19302 0.32637 0.33742 0.0
H42 H 0.19099 0.36243 0.35783 0.0
H43 H 0.18668 0.43915 0.33506 0.0
H44 H 0.18216 0.45929 0.29918 0.0
H45 H 0.14652 0.43671 0.22743 0.0
H46 H 0.12991 0.40134 0.21632 0.0
H47 H 0.13881 0.3231 0.23769 0.0
H48 H 0.16201 0.30255 0.26428 0.0
H49 H 0.10633 0.35283 0.31357 0.0
H50 H 0.10298 0.41712 0.29322 0.0
H51 H 0.20794 0.35999 0.22329 0.0
H52 H 0.23871 0.36535 0.28165 0.0
C53 C 0.15962 0.67629 0.7333 0.0
C54 C 0.16134 0.68124 0.7123 0.0
C55 C 0.15765 0.66335 0.70133 0.0
C56 C 0.15377 0.64864 0.71623 0.0
N57 N 0.15466 0.65622 0.73579 0.0
Co58 Co 0.14894 0.64077 0.76167 0.0
N59 N 0.15395 0.61339 0.74777 0.0
C60 C 0.15481 0.61028 0.72695 0.0
C61 C 0.15851 0.58986 0.72159 0.0
C62 C 0.15974 0.57932 0.74015 0.0
C63 C 0.15646 0.59391 0.75591 0.0
N64 N 0.14219 0.62488 0.78716 0.0
C65 C 0.14466 0.60422 0.79186 0.0
C66 C 0.13649 0.59983 0.81101 0.0
C67 C 0.12856 0.61829 0.81835 0.0
C68 C 0.1322 0.63296 0.80331 0.0
N69 N 0.14485 0.66836 0.77521 0.0
C70 C 0.13558 0.67184 0.79322 0.0
C71 C 0.13724 0.69218 0.7999 0.0
C72 C 0.14828 0.7019 0.78514 0.0
C73 C 0.15274 0.68697 0.77014 0.0
N74 N 0.12138 0.64023 0.75328 0.0
C75 C 0.08053 0.64128 0.74963 0.0
C76 C 0.09144 0.65937 0.74712 0.0
C77 C 0.1116 0.65846 0.74868 0.0
C78 C 0.09105 0.62244 0.75276 0.0
C79 C 0.11118 0.62227 0.75466 0.0
N80 N 0.17604 0.64246 0.77133 0.0
C81 C 0.19616 0.65327 0.80018 0.0
C82 C 0.21108 0.65835 0.7868 0.0
C83 C 0.20855 0.65374 0.7654 0.0
C84 C 0.19102 0.64559 0.75801 0.0
C85 C 0.17913 0.64538 0.79231 0.0
H86 H 0.18926 0.64302 0.74143 0.0
H87 H 0.16796 0.64349 0.80348 0.0
H88 H 0.11922 0.67284 0.74705 0.0
H89 H 0.11837 0.60758 0.75804 0.0
C90 C 0.1537 0.62708 0.71299 0.0
C91 C 0.16348 0.69062 0.75057 0.0
C92 C 0.15326 0.58815 0.77789 0.0
C93 C 0.12938 0.6548 0.80518 0.0
H94 H 0.1654 0.69603 0.70569 0.0
H95 H 0.15891 0.66102 0.68463 0.0
H96 H 0.16027 0.58342 0.70606 0.0
H97 H 0.16214 0.56265 0.74178 0.0
H98 H 0.13614 0.58483 0.81874 0.0
H99 H 0.12147 0.62077 0.83316 0.0
H100 H 0.13205 0.69886 0.81439 0.0
H101 H 0.15269 0.71796 0.78559 0.0
H102 H 0.08458 0.67449 0.74473 0.0
H103 H 0.08389 0.60771 0.75406 0.0
H104 H 0.197 0.65658 0.81676 0.0
H105 H 0.2198 0.6569 0.75436 0.0
C106 C 0.87436 0.67858 0.30059 0.0
C107 C 0.86908 0.68217 0.32118 0.0
C108 C 0.8718 0.66357 0.3315 0.0
C109 C 0.87862 0.6498 0.31668 0.0
N110 N 0.88049 0.65865 0.2978 0.0
Co111 Co 0.88985 0.64469 0.27209 0.0
N112 N 0.88359 0.61672 0.28318 0.0
C113 C 0.88016 0.61227 0.3034 0.0
C114 C 0.87638 0.59165 0.30674 0.0
C115 C 0.87784 0.58239 0.28753 0.0
C116 C 0.88264 0.59792 0.27345 0.0
N117 N 0.89988 0.63039 0.24667 0.0
C118 C 0.89845 0.61019 0.24027 0.0
C119 C 0.90903 0.60673 0.22227 0.0
C120 C 0.91751 0.62529 0.21749 0.0
C121 C 0.91174 0.63909 0.2328 0.0
N122 N 0.89546 0.67287 0.26135 0.0
C123 C 0.90725 0.67717 0.24554 0.0
C124 C 0.90675 0.69811 0.24058 0.0
C125 C 0.89376 0.70734 0.25412 0.0
C126 C 0.88706 0.6915 0.26663 0.0
N127 N 0.91602 0.64237 0.28435 0.0
C128 C 0.95615 0.64244 0.29223 0.0
C129 C 0.94427 0.65991 0.29686 0.0
C130 C 0.92443 0.65957 0.29282 0.0
C131 C 0.94694 0.62442 0.28507 0.0
C132 C 0.92704 0.62463 0.28155 0.0
N133 N 0.86423 0.64799 0.25881 0.0
C134 C 0.84709 0.66149 0.22861 0.0
C135 C 0.8302 0.66418 0.24 0.0
C136 C 0.83044 0.65732 0.26093 0.0
C137 C 0.84756 0.64906 0.26999 0.0
C138 C 0.86364 0.65342 0.23812 0.0
H139 H 0.84752 0.64457 0.28626 0.0
H140 H 0.87633 0.65321 0.22878 0.0
H141 H 0.91602 0.67364 0.29563 0.0
H142 H 0.92082 0.61066 0.27539 0.0
C143 C 0.87888 0.62808 0.31846 0.0
C144 C 0.87335 0.69422 0.28399 0.0
C145 C 0.88882 0.59353 0.25191 0.0
C146 C 0.91494 0.66078 0.23324 0.0
H147 H 0.86344 0.69655 0.32787 0.0
H148 H 0.868 0.66018 0.3475 0.0
H149 H 0.87284 0.58423 0.32136 0.0
H150 H 0.87623 0.5659 0.28442 0.0
H151 H 0.91072 0.59221 0.21374 0.0
H152 H 0.92653 0.6284 0.20422 0.0
H153 H 0.91404 0.70561 0.22785 0.0
H154 H 0.88955 0.72369 0.25455 0.0
H155 H 0.95021 0.67406 0.30317 0.0
H156 H 0.95505 0.61039 0.28117 0.0
H157 H 0.84799 0.66671 0.21256 0.0
H158 H 0.81768 0.65874 0.27038 0.0
C159 C 0.87419 0.34638 0.72973 0.0
C160 C 0.87106 0.34396 0.70843 0.0
C161 C 0.87444 0.36295 0.69945 0.0
C162 C 0.87955 0.37575 0.71572 0.0
N163 N 0.87971 0.36593 0.73426 0.0
Co164 Co 0.88707 0.37817 0.76148 0.0
N165 N 0.88162 0.407 0.75122 0.0
C166 C 0.87988 0.41257 0.73096 0.0
C167 C 0.87677 0.43359 0.7282 0.0
C168 C 0.87689 0.44191 0.74791 0.0
C169 C 0.88017 0.42542 0.7617 0.0
N170 N 0.89539 0.39074 0.7884 0.0
C171 C 0.89361 0.41071 0.79562 0.0
C172 C 0.90276 0.41267 0.81481 0.0
C173 C 0.91073 0.39339 0.81953 0.0
C174 C 0.90608 0.38069 0.80301 0.0
N175 N 0.89173 0.34915 0.77133 0.0
C176 C 0.90198 0.34347 0.78829 0.0
C177 C 0.90048 0.32251 0.79257 0.0
C178 C 0.88847 0.31471 0.77739 0.0
C179 C 0.88335 0.33133 0.76452 0.0
N180 N 0.914 0.37973 0.75183 0.0
C181 C 0.95424 0.37955 0.74483 0.0
C182 C 0.94299 0.36229 0.7395 0.0
C183 C 0.9231 0.36267 0.74315 0.0
C184 C 0.94441 0.39722 0.75282 0.0
C185 C 0.92451 0.39708 0.75591 0.0
N186 N 0.86055 0.37565 0.77207 0.0
C187 C 0.84116 0.36274 0.80028 0.0
C188 C 0.82574 0.35966 0.78677 0.0
C189 C 0.82751 0.3663 0.76595 0.0
C190 C 0.84493 0.37468 0.75901 0.0
C191 C 0.85827 0.37049 0.79271 0.0
H192 H 0.84607 0.37917 0.74281 0.0
H193 H 0.87 0.37067 0.80357 0.0
H194 H 0.91514 0.34886 0.7395 0.0
H195 H 0.91784 0.41088 0.76248 0.0
C196 C 0.8799 0.39752 0.71506 0.0
C197 C 0.8713 0.33013 0.74538 0.0
C198 C 0.88474 0.42843 0.78399 0.0
C199 C 0.90888 0.35884 0.802 0.0
H200 H 0.86631 0.33011 0.70038 0.0
H201 H 0.87222 0.36723 0.68323 0.0
H202 H 0.87471 0.44191 0.71362 0.0
H203 H 0.87557 0.45837 0.75158 0.0
H204 H 0.90378 0.42662 0.82427 0.0
H205 H 0.91858 0.38907 0.83357 0.0
H206 H 0.90635 0.31413 0.80592 0.0
H207 H 0.88383 0.29877 0.77627 0.0
H208 H 0.94944 0.34837 0.7327 0.0
H209 H 0.952 0.41101 0.7575 0.0
H210 H 0.84044 0.35793 0.81649 0.0
H211 H 0.81575 0.36455 0.75503 0.0
C212 C 0.22892 0.17747 0.34172 0.0
C213 C 0.21109 0.18117 0.33251 0.0
C214 C 0.20253 0.16226 0.3309 0.0
C215 C 0.21553 0.14813 0.33917 0.0
N216 N 0.23177 0.15687 0.34597 0.0
Co217 Co 0.25411 0.14172 0.35895 0.0
N218 N 0.24539 0.11408 0.34832 0.0
C219 C 0.22794 0.11039 0.34015 0.0
C220 C 0.22542 0.09 0.33451 0.0
C221 C 0.2422 0.07993 0.33973 0.0
C222 C 0.25408 0.0948 0.34842 0.0
N223 N 0.27599 0.12613 0.37263 0.0
C224 C 0.28167 0.10558 0.37155 0.0
C225 C 0.29664 0.1014 0.38539 0.0
C226 C 0.30017 0.1197 0.39576 0.0
C227 C 0.28722 0.13409 0.38776 0.0
N228 N 0.26272 0.16945 0.36897 0.0
C229 C 0.27579 0.17254 0.3841 0.0
C230 C 0.27912 0.19336 0.38748 0.0
C231 C 0.26736 0.20401 0.3736 0.0
C232 C 0.25747 0.18908 0.36248 0.0
N233 N 0.23949 0.13829 0.38515 0.0
C234 C 0.23073 0.13753 0.42815 0.0
C235 C 0.22673 0.15536 0.41603 0.0
C236 C 0.23112 0.15539 0.39459 0.0
C237 C 0.23714 0.11944 0.4177 0.0
C238 C 0.24105 0.12004 0.39623 0.0
N239 N 0.2696 0.14621 0.33354 0.0
C240 C 0.29954 0.15878 0.32015 0.0
C241 C 0.29123 0.16339 0.30073 0.0
C242 C 0.27196 0.15804 0.29766 0.0
C243 C 0.26152 0.14911 0.31413 0.0
C244 C 0.28862 0.15046 0.33616 0.0
H245 H 0.2467 0.14549 0.31139 0.0
H246 H 0.29555 0.14887 0.35108 0.0
H247 H 0.22906 0.1698 0.38607 0.0
H248 H 0.24669 0.10602 0.38908 0.0
C249 C 0.21458 0.12657 0.33705 0.0
C250 C 0.24236 0.19398 0.34683 0.0
C251 C 0.27212 0.08916 0.35926 0.0
C252 C 0.28624 0.15552 0.39257 0.0
H253 H 0.20496 0.19596 0.3273 0.0
H254 H 0.18888 0.15908 0.32358 0.0
H255 H 0.21283 0.08322 0.32756 0.0
H256 H 0.24499 0.06332 0.33814 0.0
H257 H 0.30391 0.08653 0.38807 0.0
H258 H 0.31096 0.12222 0.40767 0.0
H259 H 0.28931 0.20002 0.39827 0.0
H260 H 0.26613 0.22079 0.3719 0.0
H261 H 0.22146 0.16965 0.42328 0.0
H262 H 0.23986 0.10506 0.42623 0.0
H263 H 0.31425 0.16274 0.3235 0.0
H264 H 0.26494 0.161 0.28279 0.0
C265 C 0.36361 0.79965 0.84325 0.0
C266 C 0.35749 0.82019 0.84004 0.0
C267 C 0.35909 0.83015 0.8589 0.0
C268 C 0.36605 0.8152 0.8725 0.0
N269 N 0.36906 0.79652 0.86334 0.0
Co270 Co 0.37867 0.77064 0.87731 0.0
N271 N 0.37119 0.78146 0.90538 0.0
C272 C 0.36679 0.80157 0.90991 0.0
C273 C 0.36246 0.80486 0.93052 0.0
C274 C 0.36459 0.78573 0.93977 0.0
C275 C 0.37029 0.77176 0.92423 0.0
N276 N 0.3889 0.74509 0.89166 0.0
C277 C 0.38746 0.73875 0.91194 0.0
C278 C 0.39848 0.72077 0.91536 0.0
C279 C 0.40731 0.71595 0.89676 0.0
C280 C 0.40129 0.73121 0.88297 0.0
N281 N 0.38547 0.76018 0.84908 0.0
C282 C 0.39779 0.74436 0.8449 0.0
C283 C 0.39853 0.73988 0.82385 0.0
C284 C 0.3858 0.75376 0.81437 0.0
C285 C 0.37796 0.76594 0.83018 0.0
N286 N 0.4046 0.78273 0.88038 0.0
C287 C 0.44488 0.7894 0.88143 0.0
C288 C 0.4336 0.79425 0.86361 0.0
C289 C 0.41369 0.79084 0.86341 0.0
C290 C 0.4349 0.78266 0.89917 0.0
C291 C 0.41499 0.77978 0.89842 0.0
N292 N 0.35343 0.7574 0.87323 0.0
C293 C 0.33737 0.72702 0.85984 0.0
C294 C 0.32001 0.73812 0.85746 0.0
C295 C 0.31962 0.7592 0.86399 0.0
C296 C 0.33641 0.76846 0.87203 0.0
C297 C 0.35358 0.73673 0.86767 0.0
H298 H 0.33577 0.78474 0.87646 0.0
H299 H 0.36657 0.7275 0.86782 0.0
H300 H 0.40582 0.79385 0.8491 0.0
H301 H 0.40829 0.77394 0.91226 0.0
C302 C 0.36544 0.81666 0.89421 0.0
C303 C 0.36416 0.78355 0.82701 0.0
C304 C 0.37746 0.75045 0.92878 0.0
C305 C 0.40515 0.73187 0.86134 0.0
H306 H 0.35202 0.82714 0.82573 0.0
H307 H 0.35446 0.84597 0.86255 0.0
H308 H 0.35825 0.81943 0.93796 0.0
H309 H 0.36292 0.78265 0.95627 0.0
H310 H 0.40029 0.71234 0.92991 0.0
H311 H 0.41685 0.70277 0.89365 0.0
H312 H 0.40656 0.72735 0.81637 0.0
H313 H 0.38255 0.75473 0.79783 0.0
H314 H 0.44006 0.80028 0.84961 0.0
H315 H 0.44241 0.77858 0.91348 0.0
H316 H 0.33887 0.71095 0.85472 0.0
H317 H 0.30654 0.76852 0.86273 0.0
C318 C 0.72809 0.85289 0.33704 0.0
C319 C 0.70926 0.84681 0.33439 0.0
C320 C 0.70104 0.84744 0.35374 0.0
C321 C 0.71519 0.85405 0.36701 0.0
N322 N 0.73174 0.85779 0.35724 0.0
Co323 Co 0.75521 0.8689 0.37051 0.0
N324 N 0.7469 0.86011 0.3989 0.0
C325 C 0.72916 0.85403 0.40391 0.0
C326 C 0.72728 0.84891 0.42457 0.0
C327 C 0.7448 0.85237 0.43335 0.0
C328 C 0.75644 0.85964 0.41751 0.0
N329 N 0.7781 0.88119 0.3842 0.0
C330 C 0.7843 0.88051 0.40447 0.0
C331 C 0.79988 0.89328 0.40733 0.0
C332 C 0.80332 0.90251 0.3884 0.0
C333 C 0.78967 0.89496 0.375 0.0
N334 N 0.76346 0.87653 0.34184 0.0
C335 C 0.77735 0.88989 0.33723 0.0
C336 C 0.78109 0.8905 0.31616 0.0
C337 C 0.76877 0.87662 0.30703 0.0
C338 C 0.75803 0.86836 0.32303 0.0
N339 N 0.74217 0.89661 0.37391 0.0
C340 C 0.73446 0.94011 0.3762 0.0
C341 C 0.732 0.92907 0.35743 0.0
C342 C 0.73547 0.90733 0.35673 0.0
C343 C 0.73916 0.92852 0.39414 0.0
C344 C 0.74299 0.90695 0.39267 0.0
N345 N 0.76922 0.84193 0.36625 0.0
C346 C 0.79848 0.82529 0.35395 0.0
C347 C 0.7893 0.80646 0.35038 0.0
C348 C 0.76985 0.80546 0.35588 0.0
C349 C 0.76016 0.82325 0.36415 0.0
C350 C 0.78833 0.84259 0.36163 0.0
H351 H 0.7452 0.82208 0.36798 0.0
H352 H 0.79603 0.85683 0.36244 0.0
H353 H 0.73382 0.89947 0.34192 0.0
H354 H 0.74785 0.89909 0.40661 0.0
C355 C 0.71483 0.85253 0.38872 0.0
C356 C 0.74209 0.85368 0.32014 0.0
C357 C 0.77491 0.86948 0.42174 0.0
C358 C 0.78852 0.89849 0.3533 0.0
H359 H 0.70231 0.842 0.32006 0.0
H360 H 0.68683 0.84248 0.3578 0.0
H361 H 0.7146 0.84355 0.43238 0.0
H362 H 0.74827 0.85081 0.44979 0.0
H363 H 0.8077 0.89594 0.42172 0.0
H364 H 0.81456 0.91326 0.38482 0.0
H365 H 0.7921 0.89919 0.30843 0.0
H366 H 0.76799 0.87294 0.29056 0.0
H367 H 0.72792 0.93725 0.34322 0.0
H368 H 0.74111 0.93626 0.40904 0.0
H369 H 0.81335 0.8271 0.34974 0.0
H370 H 0.76213 0.79115 0.35362 0.0
C371 C 0.67156 0.22681 0.84223 0.0
C372 C 0.67335 0.20587 0.83677 0.0
C373 C 0.66989 0.19465 0.85452 0.0
C374 C 0.66605 0.20931 0.8697 0.0
N375 N 0.66676 0.22901 0.86258 0.0
Co376 Co 0.66109 0.25462 0.87912 0.0
N377 N 0.66617 0.23981 0.90606 0.0
C378 C 0.667 0.21889 0.90844 0.0
C379 C 0.66995 0.21274 0.92874 0.0
C380 C 0.6707 0.23086 0.94001 0.0
C381 C 0.66811 0.24721 0.92592 0.0
N382 N 0.65416 0.2798 0.89602 0.0
C383 C 0.65608 0.28368 0.91691 0.0
C384 C 0.64814 0.3031 0.92187 0.0
C385 C 0.64074 0.31138 0.90364 0.0
C386 C 0.64454 0.29667 0.88848 0.0
N387 N 0.65709 0.26912 0.85194 0.0
C388 C 0.64816 0.2877 0.84927 0.0
C389 C 0.64954 0.29483 0.82906 0.0
C390 C 0.66006 0.27976 0.81849 0.0
C391 C 0.66447 0.26412 0.83279 0.0
N392 N 0.63357 0.24713 0.87998 0.0
C393 C 0.59274 0.24523 0.88042 0.0
C394 C 0.60325 0.24365 0.86167 0.0
C395 C 0.62343 0.24424 0.86184 0.0
C396 C 0.60366 0.24634 0.899 0.0
C397 C 0.62374 0.24754 0.89844 0.0
N398 N 0.68823 0.26335 0.87735 0.0
C399 C 0.70889 0.29203 0.86905 0.0
C400 C 0.72298 0.27837 0.86134 0.0
C401 C 0.72007 0.25684 0.86343 0.0
C402 C 0.70281 0.24966 0.87203 0.0
C403 C 0.69177 0.28435 0.8767 0.0
H404 H 0.70092 0.23303 0.87315 0.0
H405 H 0.68103 0.29589 0.88048 0.0
H406 H 0.63075 0.24325 0.84706 0.0
H407 H 0.63114 0.2496 0.91307 0.0
C408 C 0.666 0.20555 0.89117 0.0
C409 C 0.67482 0.24419 0.82792 0.0
C410 C 0.66441 0.26898 0.93255 0.0
C411 C 0.64208 0.29937 0.86676 0.0
H412 H 0.67719 0.19942 0.82168 0.0
H413 H 0.67117 0.17788 0.8564 0.0
H414 H 0.67123 0.19695 0.93468 0.0
H415 H 0.67203 0.23181 0.95684 0.0
H416 H 0.64766 0.31047 0.93709 0.0
H417 H 0.63392 0.32659 0.90161 0.0
H418 H 0.64445 0.30972 0.82298 0.0
H419 H 0.66418 0.28043 0.80225 0.0
H420 H 0.59612 0.24272 0.84668 0.0
H421 H 0.59692 0.24667 0.91415 0.0
H422 H 0.71052 0.30877 0.86789 0.0
H423 H 0.73083 0.24567 0.85808 0.0
C424 C 0.30489 0.84963 0.68832 0.0
C425 C 0.3243 0.84473 0.69033 0.0
C426 C 0.33173 0.84499 0.67067 0.0
C427 C 0.31652 0.84987 0.65781 0.0
N428 N 0.29988 0.85285 0.668 0.0
Co429 Co 0.2747 0.86111 0.65495 0.0
N430 N 0.28415 0.85436 0.62614 0.0
C431 C 0.30241 0.84947 0.62105 0.0
C432 C 0.30505 0.8456 0.60021 0.0
C433 C 0.28742 0.84854 0.5913 0.0
C434 C 0.27494 0.85416 0.6073 0.0
N435 N 0.25023 0.8712 0.64142 0.0
C436 C 0.24452 0.87137 0.62091 0.0
C437 C 0.2268 0.88131 0.6186 0.0
C438 C 0.22128 0.88774 0.63816 0.0
C439 C 0.23588 0.88141 0.65136 0.0
N440 N 0.26531 0.86665 0.68389 0.0
C441 C 0.24882 0.87657 0.68889 0.0
C442 C 0.24542 0.8767 0.71004 0.0
C443 C 0.26072 0.86606 0.71893 0.0
C444 C 0.27263 0.86004 0.70268 0.0
N445 N 0.28372 0.89031 0.65272 0.0
C446 C 0.28712 0.93445 0.65231 0.0
C447 C 0.29128 0.92268 0.67039 0.0
C448 C 0.28967 0.90078 0.67022 0.0
C449 C 0.28281 0.92323 0.63404 0.0
C450 C 0.28129 0.9014 0.63455 0.0
N451 N 0.26446 0.83215 0.6583 0.0
C452 C 0.23573 0.81218 0.66381 0.0
C453 C 0.24508 0.79884 0.67819 0.0
C454 C 0.26508 0.80081 0.67979 0.0
C455 C 0.27445 0.817 0.66932 0.0
C456 C 0.2455 0.82842 0.65415 0.0
H457 H 0.28972 0.81741 0.67109 0.0
H458 H 0.23701 0.83817 0.64395 0.0
H459 H 0.29236 0.89251 0.68463 0.0
H460 H 0.27722 0.89378 0.62029 0.0
C461 C 0.31673 0.84841 0.63619 0.0
C462 C 0.2914 0.8494 0.70572 0.0
C463 C 0.25544 0.86234 0.60324 0.0
C464 C 0.2361 0.88338 0.67318 0.0
H465 H 0.33222 0.84066 0.70438 0.0
H466 H 0.34627 0.84094 0.66619 0.0
H467 H 0.3183 0.84151 0.59235 0.0
H468 H 0.28438 0.84767 0.57473 0.0
H469 H 0.21873 0.88362 0.60426 0.0
H470 H 0.20806 0.89583 0.64229 0.0
H471 H 0.23304 0.8832 0.71802 0.0
H472 H 0.26296 0.86316 0.73544 0.0
H473 H 0.29487 0.93031 0.68496 0.0
H474 H 0.28019 0.93126 0.61939 0.0
H475 H 0.22069 0.81058 0.6602 0.0
H476 H 0.27362 0.79052 0.68967 0.0
C477 C 0.67519 0.80465 0.17991 0.0
C478 C 0.67883 0.82552 0.18384 0.0
C479 C 0.67625 0.83586 0.16526 0.0
C480 C 0.67102 0.82081 0.15115 0.0
N481 N 0.67003 0.80172 0.15973 0.0
Co482 Co 0.662 0.77601 0.14515 0.0
N483 N 0.6681 0.78789 0.11727 0.0
C484 C 0.67086 0.80826 0.11329 0.0
C485 C 0.67458 0.81224 0.09268 0.0
C486 C 0.67379 0.79328 0.08291 0.0
C487 C 0.66944 0.77869 0.09814 0.0
N488 N 0.65298 0.75076 0.13015 0.0
C489 C 0.65454 0.74501 0.10969 0.0
C490 C 0.64465 0.72684 0.10592 0.0
C491 C 0.63647 0.72125 0.12452 0.0
C492 C 0.64172 0.73628 0.13867 0.0
N493 N 0.65679 0.76437 0.17324 0.0
C494 C 0.646 0.74777 0.17715 0.0
C495 C 0.64671 0.7421 0.19789 0.0
C496 C 0.65872 0.75603 0.20748 0.0
C497 C 0.66463 0.76961 0.19209 0.0
N498 N 0.63533 0.78747 0.14326 0.0
C499 C 0.59502 0.79396 0.14281 0.0
C500 C 0.60582 0.79653 0.1612 0.0
C501 C 0.62587 0.79361 0.16102 0.0
C502 C 0.60512 0.78951 0.12438 0.0
C503 C 0.6251 0.78625 0.12494 0.0
N504 N 0.68812 0.76344 0.14802 0.0
C505 C 0.70623 0.7329 0.15955 0.0
C506 C 0.72246 0.74463 0.16364 0.0
C507 C 0.72142 0.76606 0.15863 0.0
C508 C 0.70421 0.77509 0.15053 0.0
C509 C 0.68951 0.74242 0.15187 0.0
H510 H 0.7037 0.79164 0.14729 0.0
H511 H 0.67734 0.73262 0.15067 0.0
H512 H 0.63359 0.79535 0.17556 0.0
H513 H 0.63204 0.78165 0.11063 0.0
C514 C 0.67117 0.82296 0.12945 0.0
C515 C 0.67685 0.788 0.19555 0.0
C516 C 0.66388 0.7572 0.09315 0.0
C517 C 0.63881 0.73582 0.16046 0.0
H518 H 0.68328 0.83244 0.19847 0.0
H519 H 0.67898 0.85213 0.16217 0.0
H520 H 0.67751 0.82715 0.08559 0.0
H521 H 0.67542 0.79066 0.0663 0.0
H522 H 0.64328 0.71867 0.09118 0.0
H523 H 0.62806 0.70759 0.12746 0.0
H524 H 0.64018 0.72872 0.20501 0.0
H525 H 0.66278 0.75595 0.22381 0.0
H526 H 0.59879 0.80044 0.17578 0.0
H527 H 0.59752 0.78745 0.10973 0.0
H528 H 0.70593 0.71645 0.16339 0.0
H529 H 0.73366 0.77583 0.16122 0.0
C530 C 0.7241 0.17681 0.684 0.0
C531 C 0.70461 0.17953 0.68748 0.0
C532 C 0.69587 0.17902 0.66831 0.0
C533 C 0.71045 0.17586 0.65432 0.0
N534 N 0.72786 0.17419 0.66335 0.0
Co535 Co 0.75236 0.16703 0.64871 0.0
N536 N 0.74085 0.17348 0.62061 0.0
C537 C 0.72216 0.17766 0.61673 0.0
C538 C 0.71814 0.18196 0.59617 0.0
C539 C 0.7353 0.18004 0.5862 0.0
C540 C 0.74886 0.17435 0.60127 0.0
N541 N 0.77623 0.15807 0.63361 0.0
C542 C 0.78066 0.15836 0.61279 0.0
C543 C 0.79857 0.14928 0.60935 0.0
C544 C 0.80556 0.14304 0.6285 0.0
C545 C 0.79157 0.14858 0.6426 0.0
N546 N 0.76371 0.16181 0.67706 0.0
C547 C 0.78094 0.15283 0.68092 0.0
C548 C 0.78602 0.15354 0.7017 0.0
C549 C 0.77109 0.16373 0.71156 0.0
C550 C 0.75757 0.16856 0.69626 0.0
N551 N 0.7441 0.1375 0.6468 0.0
C552 C 0.73978 0.09343 0.64582 0.0
C553 C 0.73698 0.10499 0.66431 0.0
C554 C 0.7391 0.12683 0.66445 0.0
C555 C 0.74358 0.10482 0.62761 0.0
C556 C 0.74557 0.1266 0.62841 0.0
N557 N 0.76183 0.19636 0.65156 0.0
C558 C 0.79056 0.21683 0.65476 0.0
C559 C 0.7828 0.22862 0.67131 0.0
C560 C 0.76318 0.22606 0.67516 0.0
C561 C 0.7529 0.21053 0.66458 0.0
C562 C 0.77995 0.2011 0.64513 0.0
H563 H 0.73792 0.20969 0.66789 0.0
H564 H 0.78716 0.19252 0.63303 0.0
H565 H 0.73739 0.13491 0.67912 0.0
H566 H 0.74902 0.13436 0.61409 0.0
C567 C 0.70876 0.17761 0.63273 0.0
C568 C 0.7387 0.17876 0.70037 0.0
C569 C 0.76834 0.16705 0.59589 0.0
C570 C 0.79285 0.14668 0.66438 0.0
H571 H 0.69755 0.1823 0.70227 0.0
H572 H 0.6808 0.18165 0.66492 0.0
H573 H 0.70433 0.18577 0.58921 0.0
H574 H 0.7374 0.18172 0.56956 0.0
H575 H 0.80582 0.14746 0.59454 0.0
H576 H 0.81934 0.13565 0.63178 0.0
H577 H 0.79936 0.14813 0.70874 0.0
H578 H 0.7704 0.16732 0.72805 0.0
H579 H 0.73393 0.09719 0.67888 0.0
H580 H 0.7453 0.09696 0.61274 0.0
H581 H 0.80501 0.2192 0.64944 0.0
H582 H 0.75575 0.23528 0.68686 0.0
C583 C 0.37696 0.22215 0.17928 0.0
C584 C 0.37165 0.20143 0.18002 0.0
C585 C 0.37374 0.19369 0.16015 0.0
C586 C 0.38026 0.21006 0.14852 0.0
N587 N 0.38257 0.22747 0.1599 0.0
Co588 Co 0.39164 0.2546 0.14958 0.0
N589 N 0.38431 0.24765 0.12033 0.0
C590 C 0.38033 0.2284 0.11319 0.0
C591 C 0.37599 0.22799 0.09228 0.0
C592 C 0.37769 0.24814 0.08567 0.0
C593 C 0.38314 0.25983 0.10299 0.0
N594 N 0.40153 0.28142 0.139 0.0
C595 C 0.40022 0.29025 0.11968 0.0
C596 C 0.41094 0.30819 0.11882 0.0
C597 C 0.41952 0.31039 0.13807 0.0
C598 C 0.41361 0.29372 0.14967 0.0
N599 N 0.39805 0.26125 0.17908 0.0
C600 C 0.40993 0.27611 0.18563 0.0
C601 C 0.40981 0.2783 0.20705 0.0
C602 C 0.39696 0.26398 0.21425 0.0
C603 C 0.38996 0.25378 0.19679 0.0
N604 N 0.41768 0.24226 0.14535 0.0
C605 C 0.45789 0.23548 0.14268 0.0
C606 C 0.44773 0.23019 0.1608 0.0
C607 C 0.42771 0.2334 0.16169 0.0
C608 C 0.44697 0.24231 0.12536 0.0
C609 C 0.42714 0.24566 0.12703 0.0
N610 N 0.36624 0.26781 0.15462 0.0
C611 C 0.34937 0.29562 0.17276 0.0
C612 C 0.33254 0.2843 0.17287 0.0
C613 C 0.33241 0.26521 0.16197 0.0
C614 C 0.34949 0.25717 0.15296 0.0
C615 C 0.36581 0.2873 0.16348 0.0
H616 H 0.3494 0.24194 0.1457 0.0
H617 H 0.37854 0.29624 0.16498 0.0
H618 H 0.42052 0.22983 0.1761 0.0
H619 H 0.41977 0.25217 0.11368 0.0
C620 C 0.37956 0.21134 0.12676 0.0
C621 C 0.37626 0.23653 0.19703 0.0
C622 C 0.39047 0.28114 0.10135 0.0
C623 C 0.41728 0.29031 0.17112 0.0
H624 H 0.36631 0.19302 0.19336 0.0
H625 H 0.36962 0.17846 0.15458 0.0
H626 H 0.37214 0.21461 0.08292 0.0
H627 H 0.37607 0.25336 0.06967 0.0
H628 H 0.4127 0.31837 0.10551 0.0
H629 H 0.42877 0.3228 0.14305 0.0
H630 H 0.41723 0.28981 0.21627 0.0
H631 H 0.39301 0.26157 0.23037 0.0
H632 H 0.4552 0.2246 0.17464 0.0
H633 H 0.4537 0.24575 0.11062 0.0
H634 H 0.35004 0.31065 0.18049 0.0
H635 H 0.31958 0.25605 0.16142 0.0
C636 C 0.84226 0.65878 0.7773 0.0
C637 C 0.82795 0.65031 0.76505 0.0
C638 C 0.83686 0.63649 0.75153 0.0
C639 C 0.85609 0.63729 0.75618 0.0
N640 N 0.85977 0.65068 0.77177 0.0
Co641 Co 0.88572 0.65788 0.78223 0.0
N642 N 0.89913 0.64552 0.75744 0.0
C643 C 0.89108 0.63204 0.74396 0.0
C644 C 0.90378 0.62431 0.72943 0.0
C645 C 0.92101 0.63307 0.73431 0.0
C646 C 0.91793 0.64581 0.75158 0.0
N647 N 0.91148 0.66599 0.79283 0.0
C648 C 0.92888 0.66608 0.78335 0.0
C649 C 0.94273 0.67413 0.79661 0.0
C650 C 0.93405 0.67809 0.81529 0.0
C651 C 0.91537 0.67269 0.81236 0.0
N652 N 0.87269 0.66935 0.8075 0.0
C653 C 0.88113 0.67351 0.82596 0.0
C654 C 0.86857 0.68099 0.84073 0.0
C655 C 0.85111 0.68178 0.83092 0.0
C656 C 0.85408 0.67485 0.8106 0.0
N657 N 0.8883 0.63011 0.79588 0.0
C658 C 0.88841 0.58643 0.80284 0.0
C659 C 0.90525 0.59671 0.7975 0.0
C660 C 0.90492 0.61843 0.79426 0.0
C661 C 0.87202 0.59897 0.80665 0.0
C662 C 0.87234 0.62068 0.80338 0.0
N663 N 0.88205 0.68494 0.76752 0.0
C664 C 0.87055 0.72096 0.76819 0.0
C665 C 0.86408 0.71949 0.74734 0.0
C666 C 0.86863 0.70116 0.73644 0.0
C667 C 0.87754 0.68433 0.74664 0.0
C668 C 0.87964 0.70353 0.77795 0.0
H669 H 0.87922 0.67029 0.73767 0.0
H670 H 0.88358 0.70474 0.79424 0.0
H671 H 0.9179 0.62542 0.78906 0.0
H672 H 0.85923 0.6296 0.80565 0.0
C673 C 0.87122 0.62868 0.74434 0.0
C674 C 0.83891 0.67364 0.79474 0.0
C675 C 0.93361 0.65586 0.7633 0.0
C676 C 0.90096 0.67485 0.82723 0.0
H677 H 0.81274 0.65381 0.76576 0.0
H678 H 0.83015 0.62765 0.73917 0.0
H679 H 0.90088 0.61362 0.71675 0.0
H680 H 0.93444 0.62996 0.72644 0.0
H681 H 0.95777 0.67615 0.79342 0.0
H682 H 0.9406 0.68418 0.82935 0.0
H683 H 0.87188 0.68648 0.85632 0.0
H684 H 0.83781 0.68728 0.83781 0.0
H685 H 0.9184 0.58795 0.79458 0.0
H686 H 0.8588 0.59202 0.81153 0.0
H687 H 0.86771 0.73498 0.77721 0.0
H688 H 0.86459 0.69943 0.72016 0.0
C689 C 0.88399 0.33918 0.27563 0.0
C690 C 0.8897 0.32255 0.2631 0.0
C691 C 0.90227 0.33038 0.2487 0.0
C692 C 0.90349 0.35136 0.25311 0.0
N693 N 0.89254 0.35706 0.26939 0.0
Co694 Co 0.88767 0.38612 0.27919 0.0
N695 N 0.89789 0.39879 0.2533 0.0
C696 C 0.90917 0.38863 0.23943 0.0
C697 C 0.91467 0.40126 0.22331 0.0
C698 C 0.90663 0.42059 0.22751 0.0
C699 C 0.89667 0.4188 0.24609 0.0
N700 N 0.88185 0.41497 0.28925 0.0
C701 C 0.88132 0.4335 0.27891 0.0
C702 C 0.87784 0.44996 0.29271 0.0
C703 C 0.87645 0.4415 0.31222 0.0
C704 C 0.87915 0.42045 0.3094 0.0
N705 N 0.87866 0.37385 0.30565 0.0
C706 C 0.87764 0.38363 0.32422 0.0
C707 C 0.87199 0.37082 0.34012 0.0
C708 C 0.86921 0.3518 0.33089 0.0
C709 C 0.87321 0.35422 0.30982 0.0
N710 N 0.91397 0.38723 0.2911 0.0
C711 C 0.95383 0.38629 0.29955 0.0
C712 C 0.94426 0.40482 0.29353 0.0
C713 C 0.9245 0.40494 0.28927 0.0
C714 C 0.94274 0.36854 0.30248 0.0
C715 C 0.92288 0.36943 0.29857 0.0
N716 N 0.86183 0.38392 0.26617 0.0
C717 C 0.82898 0.37259 0.26883 0.0
C718 C 0.82914 0.36586 0.24786 0.0
C719 C 0.84504 0.37074 0.2359 0.0
C720 C 0.86099 0.37962 0.24518 0.0
C721 C 0.84547 0.38176 0.27766 0.0
H722 H 0.87313 0.38108 0.23524 0.0
H723 H 0.84536 0.38571 0.29408 0.0
H724 H 0.91802 0.41922 0.28349 0.0
H725 H 0.91488 0.35539 0.30074 0.0
C726 C 0.91139 0.3667 0.24025 0.0
C727 C 0.87135 0.33781 0.29408 0.0
C728 C 0.88715 0.43655 0.25703 0.0
C729 C 0.87819 0.40536 0.3251 0.0
H730 H 0.88517 0.30656 0.26405 0.0
H731 H 0.90885 0.32197 0.23584 0.0
H732 H 0.92295 0.3968 0.20971 0.0
H733 H 0.90801 0.43442 0.21799 0.0
H734 H 0.87733 0.4665 0.28933 0.0
H735 H 0.87396 0.44976 0.32675 0.0
H736 H 0.86919 0.37507 0.35621 0.0
H737 H 0.86441 0.33788 0.33865 0.0
H738 H 0.95216 0.41896 0.29108 0.0
H739 H 0.9494 0.35394 0.3075 0.0
H740 H 0.81677 0.36964 0.27864 0.0
H741 H 0.84565 0.36662 0.21948 0.0
C742 C 0.17075 0.33012 0.76396 0.0
C743 C 0.16396 0.31444 0.77663 0.0
C744 C 0.15222 0.32403 0.79115 0.0
C745 C 0.15246 0.345 0.78656 0.0
N746 N 0.16359 0.34914 0.77012 0.0
Co747 Co 0.16851 0.37744 0.7588 0.0
N748 N 0.15884 0.39205 0.78436 0.0
C749 C 0.14798 0.38313 0.79907 0.0
C750 C 0.14239 0.39688 0.81446 0.0
C751 C 0.14982 0.41573 0.80889 0.0
C752 C 0.15952 0.41254 0.79026 0.0
N753 N 0.174 0.40561 0.74721 0.0
C754 C 0.17397 0.42484 0.75634 0.0
C755 C 0.1775 0.44025 0.74163 0.0
C756 C 0.17952 0.43048 0.72278 0.0
C757 C 0.17711 0.40975 0.72687 0.0
N758 N 0.17753 0.36313 0.73293 0.0
C759 C 0.17942 0.37207 0.71407 0.0
C760 C 0.18594 0.35845 0.69901 0.0
C761 C 0.18836 0.3397 0.70901 0.0
C762 C 0.18316 0.34299 0.72969 0.0
N763 N 0.14196 0.37908 0.74733 0.0
C764 C 0.10172 0.37882 0.74089 0.0
C765 C 0.11114 0.3973 0.74592 0.0
C766 C 0.13109 0.3971 0.74912 0.0
C767 C 0.11318 0.36079 0.7377 0.0
C768 C 0.13317 0.36134 0.74059 0.0
N769 N 0.19455 0.37491 0.77127 0.0
C770 C 0.22879 0.36846 0.76817 0.0
C771 C 0.23021 0.36212 0.78926 0.0
C772 C 0.21344 0.36326 0.80109 0.0
C773 C 0.19605 0.3696 0.79196 0.0
C774 C 0.21091 0.37499 0.75956 0.0
H775 H 0.18362 0.36895 0.80166 0.0
H776 H 0.21021 0.37934 0.74326 0.0
H777 H 0.13747 0.4114 0.75412 0.0
H778 H 0.1414 0.34706 0.73834 0.0
C779 C 0.14521 0.36142 0.79902 0.0
C780 C 0.18305 0.3265 0.74553 0.0
C781 C 0.16772 0.42964 0.77783 0.0
C782 C 0.17876 0.39371 0.71219 0.0
H783 H 0.16718 0.29787 0.77549 0.0
H784 H 0.14502 0.31664 0.804 0.0
H785 H 0.13412 0.39357 0.82826 0.0
H786 H 0.14799 0.43025 0.81739 0.0
H787 H 0.17771 0.45697 0.74394 0.0
H788 H 0.18226 0.43769 0.70784 0.0
H789 H 0.1895 0.36196 0.68297 0.0
H790 H 0.19353 0.32532 0.7019 0.0
H791 H 0.10305 0.41169 0.74847 0.0
H792 H 0.1067 0.34621 0.7333 0.0
H793 H 0.24133 0.36819 0.75832 0.0
H794 H 0.2134 0.35827 0.81726 0.0
C795 C 0.17531 0.69363 0.27254 0.0
C796 C 0.17613 0.70783 0.25626 0.0
C797 C 0.17246 0.69702 0.23829 0.0
C798 C 0.16974 0.67682 0.2445 0.0
N799 N 0.17083 0.67415 0.2654 0.0
Co800 Co 0.17256 0.64632 0.27991 0.0
N801 N 0.1677 0.63004 0.25355 0.0
C802 C 0.16591 0.63826 0.23423 0.0
C803 C 0.16268 0.62361 0.21901 0.0
C804 C 0.16253 0.60485 0.22926 0.0
C805 C 0.16571 0.60909 0.25025 0.0
N806 N 0.17566 0.61866 0.29449 0.0
C807 C 0.17384 0.59872 0.28741 0.0
C808 C 0.17705 0.58429 0.30333 0.0
C809 C 0.18122 0.59536 0.32089 0.0
C810 C 0.18023 0.61586 0.31486 0.0
N811 N 0.176 0.66229 0.30668 0.0
C812 C 0.17841 0.65407 0.32592 0.0
C813 C 0.17945 0.66868 0.34153 0.0
C814 C 0.1782 0.68748 0.33157 0.0
C815 C 0.17675 0.68318 0.31035 0.0
N816 N 0.14427 0.6466 0.28479 0.0
C817 C 0.10362 0.64633 0.28963 0.0
C818 C 0.11616 0.63946 0.30568 0.0
C819 C 0.13623 0.63966 0.30295 0.0
C820 C 0.11216 0.65328 0.27118 0.0
C821 C 0.13213 0.65346 0.26921 0.0
N822 N 0.20069 0.64682 0.27383 0.0
C823 C 0.22677 0.67106 0.27268 0.0
C824 C 0.23137 0.6649 0.25226 0.0
C825 C 0.22257 0.64693 0.24458 0.0
C826 C 0.20772 0.6378 0.25588 0.0
C827 C 0.21195 0.66132 0.28341 0.0
H828 H 0.20131 0.62426 0.24912 0.0
H829 H 0.20917 0.66653 0.29901 0.0
H830 H 0.14505 0.63409 0.31564 0.0
H831 H 0.13752 0.65902 0.25471 0.0
C832 C 0.16756 0.65974 0.23109 0.0
C833 C 0.18039 0.69886 0.29433 0.0
C834 C 0.16869 0.59256 0.26603 0.0
C835 C 0.18106 0.63269 0.32853 0.0
H836 H 0.17981 0.72411 0.2571 0.0
H837 H 0.17271 0.70297 0.22247 0.0
H838 H 0.16093 0.62621 0.20239 0.0
H839 H 0.16088 0.5897 0.22204 0.0
H840 H 0.17603 0.56748 0.30253 0.0
H841 H 0.18388 0.58923 0.33643 0.0
H842 H 0.18179 0.66599 0.35806 0.0
H843 H 0.17967 0.70262 0.33889 0.0
H844 H 0.11061 0.63411 0.32043 0.0
H845 H 0.10353 0.6583 0.25793 0.0
H846 H 0.23419 0.68376 0.28015 0.0
H847 H 0.22624 0.64062 0.22939 0.0
C848 C 0.77072 0.83501 0.65928 0.0
C849 C 0.75776 0.81902 0.66055 0.0
C850 C 0.74 0.82782 0.657 0.0
C851 C 0.74307 0.84867 0.65386 0.0
N852 N 0.76174 0.85363 0.65452 0.0
Co853 Co 0.77167 0.8828 0.65555 0.0
N854 N 0.74575 0.89606 0.6502 0.0
C855 C 0.7291 0.88589 0.64905 0.0
C856 C 0.71354 0.89887 0.64529 0.0
C857 C 0.72074 0.91856 0.6441 0.0
C858 C 0.74034 0.9165 0.64727 0.0
N859 N 0.78174 0.9118 0.65798 0.0
C860 C 0.77297 0.9308 0.65537 0.0
C861 C 0.7855 0.94694 0.65912 0.0
C862 C 0.80274 0.9379 0.66416 0.0
C863 C 0.79981 0.91685 0.66325 0.0
N864 N 0.79795 0.8699 0.6594 0.0
C865 C 0.81443 0.88014 0.66209 0.0
C866 C 0.83037 0.86733 0.66334 0.0
C867 C 0.8236 0.84757 0.66197 0.0
C868 C 0.80382 0.84955 0.66023 0.0
N869 N 0.77583 0.88276 0.62464 0.0
C870 C 0.77985 0.88277 0.58036 0.0
C871 C 0.79407 0.89092 0.59353 0.0
C872 C 0.79172 0.89094 0.61549 0.0
C873 C 0.76382 0.87441 0.58999 0.0
C874 C 0.76218 0.87442 0.61181 0.0
N875 N 0.76644 0.88191 0.68635 0.0
C876 C 0.76846 0.85826 0.71584 0.0
C877 C 0.74943 0.86288 0.72154 0.0
C878 C 0.74054 0.88002 0.71133 0.0
C879 C 0.74942 0.88954 0.6942 0.0
C880 C 0.77682 0.86848 0.69889 0.0
H881 H 0.74181 0.90238 0.68688 0.0
H882 H 0.79139 0.86451 0.69548 0.0
H883 H 0.80277 0.89773 0.62486 0.0
H884 H 0.74959 0.86768 0.61806 0.0
C885 C 0.72878 0.86419 0.65145 0.0
C886 C 0.79121 0.83219 0.66438 0.0
C887 C 0.75299 0.93449 0.64915 0.0
C888 C 0.81426 0.90165 0.66466 0.0
H889 H 0.76075 0.80283 0.66445 0.0
H890 H 0.7264 0.82009 0.65755 0.0
H891 H 0.6987 0.89457 0.64375 0.0
H892 H 0.71249 0.93288 0.64172 0.0
H893 H 0.7826 0.96358 0.65797 0.0
H894 H 0.81602 0.94573 0.66735 0.0
H895 H 0.84506 0.87178 0.66593 0.0
H896 H 0.83206 0.8333 0.66373 0.0
H897 H 0.80675 0.89766 0.58694 0.0
H898 H 0.75253 0.8676 0.5807 0.0
H899 H 0.77679 0.84613 0.72361 0.0
H900 H 0.72657 0.88584 0.71606 0.0
C901 C 0.67379 0.25872 0.19314 0.0
C902 C 0.67402 0.27453 0.20797 0.0
C903 C 0.67126 0.29293 0.19742 0.0
C904 C 0.66962 0.28741 0.17678 0.0
N905 N 0.67058 0.26659 0.17353 0.0
Co906 Co 0.67317 0.25286 0.14542 0.0
N907 N 0.66817 0.27961 0.1297 0.0
C908 C 0.66633 0.29873 0.13834 0.0
C909 C 0.6627 0.31424 0.12397 0.0
C910 C 0.66224 0.30436 0.10496 0.0
C911 C 0.66575 0.28331 0.10878 0.0
N912 N 0.67709 0.23916 0.11749 0.0
C913 C 0.67488 0.24665 0.09769 0.0
C914 C 0.68007 0.23169 0.08291 0.0
C915 C 0.68537 0.21411 0.09366 0.0
C916 C 0.6833 0.2193 0.11431 0.0
N917 N 0.67671 0.22566 0.16064 0.0
C918 C 0.6804 0.20685 0.15192 0.0
C919 C 0.68105 0.19071 0.16596 0.0
C920 C 0.67813 0.19989 0.18497 0.0
C921 C 0.67617 0.22121 0.1814 0.0
N922 N 0.64512 0.24787 0.14406 0.0
C923 C 0.60479 0.24247 0.14261 0.0
C924 C 0.61762 0.22708 0.13487 0.0
C925 C 0.6376 0.23006 0.13574 0.0
C926 C 0.61283 0.26039 0.15129 0.0
C927 C 0.63268 0.26281 0.15171 0.0
N928 N 0.70115 0.25893 0.14775 0.0
C929 C 0.72744 0.25943 0.17267 0.0
C930 C 0.73257 0.27943 0.16623 0.0
C931 C 0.72351 0.28735 0.14815 0.0
C932 C 0.70832 0.27658 0.13882 0.0
C933 C 0.71216 0.24932 0.16294 0.0
H934 H 0.70188 0.2834 0.12505 0.0
H935 H 0.70886 0.23424 0.16884 0.0
H936 H 0.64683 0.21793 0.12954 0.0
H937 H 0.63776 0.27703 0.15828 0.0
C938 C 0.66774 0.30132 0.16 0.0
C939 C 0.67826 0.23667 0.1981 0.0
C940 C 0.66785 0.26763 0.09201 0.0
C941 C 0.68422 0.2051 0.13071 0.0
H942 H 0.67663 0.27307 0.22458 0.0
H943 H 0.67115 0.30852 0.20396 0.0
H944 H 0.66061 0.33078 0.12693 0.0
H945 H 0.65995 0.31182 0.08995 0.0
H946 H 0.67976 0.23317 0.06607 0.0
H947 H 0.68948 0.19906 0.08716 0.0
H948 H 0.68411 0.17436 0.16287 0.0
H949 H 0.67882 0.192 0.19992 0.0
H950 H 0.61233 0.21294 0.12783 0.0
H951 H 0.60388 0.27264 0.158 0.0
H952 H 0.7344 0.25196 0.18595 0.0
H953 H 0.72777 0.30207 0.14151 0.0
C954 C 0.25479 0.19268 0.66102 0.0
C955 C 0.26616 0.20826 0.65324 0.0
C956 C 0.2793 0.19863 0.6403 0.0
C957 C 0.27524 0.17773 0.64088 0.0
N958 N 0.26036 0.17361 0.65328 0.0
Co959 Co 0.25088 0.1453 0.66007 0.0
N960 N 0.27342 0.13058 0.64721 0.0
C961 C 0.28621 0.13958 0.63462 0.0
C962 C 0.29984 0.1257 0.62723 0.0
C963 C 0.29528 0.10672 0.63553 0.0
C964 C 0.27903 0.11002 0.64754 0.0
N965 N 0.24157 0.11719 0.66821 0.0
C966 C 0.25058 0.0981 0.66829 0.0
C967 C 0.23828 0.08269 0.67486 0.0
C968 C 0.22101 0.09231 0.67867 0.0
C969 C 0.22364 0.11297 0.67429 0.0
N970 N 0.22739 0.15969 0.67115 0.0
C971 C 0.21074 0.1505 0.67548 0.0
C972 C 0.19681 0.16419 0.68245 0.0
C973 C 0.20517 0.18327 0.68263 0.0
C974 C 0.22379 0.18014 0.67559 0.0
N975 N 0.23824 0.1433 0.63225 0.0
C976 C 0.23055 0.14176 0.58864 0.0
C977 C 0.23416 0.12351 0.60034 0.0
C978 C 0.23809 0.12461 0.62182 0.0
C979 C 0.22903 0.16062 0.59993 0.0
C980 C 0.23254 0.16097 0.62164 0.0
N981 N 0.26468 0.14804 0.68745 0.0
C982 C 0.26719 0.16751 0.71991 0.0
C983 C 0.28727 0.16701 0.71872 0.0
C984 C 0.29555 0.15413 0.70348 0.0
C985 C 0.2842 0.1449 0.68821 0.0
C986 C 0.25621 0.15746 0.70446 0.0
H987 H 0.29197 0.13628 0.67659 0.0
H988 H 0.24089 0.15841 0.70598 0.0
H989 H 0.24207 0.11027 0.62956 0.0
H990 H 0.23168 0.17584 0.62955 0.0
C991 C 0.28628 0.16135 0.63229 0.0
C992 C 0.23793 0.19663 0.67437 0.0
C993 C 0.26942 0.09331 0.65906 0.0
C994 C 0.20989 0.12886 0.67658 0.0
H995 H 0.26497 0.22483 0.6565 0.0
H996 H 0.2908 0.20595 0.63199 0.0
H997 H 0.312 0.12907 0.6175 0.0
H998 H 0.30313 0.09215 0.63317 0.0
H999 H 0.24115 0.06605 0.67586 0.0
H1000 H 0.20802 0.08506 0.68383 0.0
H1001 H 0.18264 0.16056 0.68794 0.0
H1002 H 0.19843 0.19767 0.68796 0.0
H1003 H 0.23459 0.1083 0.59296 0.0
H1004 H 0.22605 0.17528 0.59207 0.0
H1005 H 0.25993 0.17645 0.73198 0.0
H1006 H 0.31095 0.15187 0.70266 0.0
C1007 C 0.37689 0.76765 0.18607 0.0
C1008 C 0.38208 0.75353 0.20162 0.0
C1009 C 0.39415 0.73886 0.19252 0.0
C1010 C 0.39562 0.74466 0.1719 0.0
N1011 N 0.38528 0.76206 0.1676 0.0
Co1012 Co 0.3807 0.77395 0.13933 0.0
N1013 N 0.38977 0.74816 0.12463 0.0
C1014 C 0.40046 0.73281 0.1336 0.0
C1015 C 0.40519 0.71709 0.11981 0.0
C1016 C 0.39728 0.72311 0.10096 0.0
C1017 C 0.38814 0.7423 0.10418 0.0
N1018 N 0.37534 0.78623 0.11126 0.0
C1019 C 0.37449 0.7772 0.09201 0.0
C1020 C 0.37165 0.79228 0.07659 0.0
C1021 C 0.37101 0.81124 0.08643 0.0
C1022 C 0.37348 0.80684 0.10723 0.0
N1023 N 0.37266 0.80016 0.15363 0.0
C1024 C 0.37229 0.81932 0.14511 0.0
C1025 C 0.36699 0.83469 0.15905 0.0
C1026 C 0.36374 0.82447 0.17746 0.0
C1027 C 0.36711 0.80338 0.17359 0.0
N1028 N 0.40744 0.78392 0.13843 0.0
C1029 C 0.44758 0.79085 0.13937 0.0
C1030 C 0.43819 0.78409 0.12111 0.0
C1031 C 0.41833 0.78103 0.12089 0.0
C1032 C 0.4359 0.79509 0.15685 0.0
C1033 C 0.41607 0.79147 0.15609 0.0
N1034 N 0.35436 0.76289 0.14128 0.0
C1035 C 0.32192 0.7676 0.15409 0.0
C1036 C 0.32078 0.74614 0.15844 0.0
C1037 C 0.33606 0.73322 0.15224 0.0
C1038 C 0.35253 0.74177 0.14395 0.0
C1039 C 0.33864 0.77558 0.14498 0.0
H1040 H 0.36422 0.73098 0.14151 0.0
H1041 H 0.33923 0.79218 0.14226 0.0
H1042 H 0.412 0.77541 0.10663 0.0
H1043 H 0.40783 0.79417 0.17008 0.0
C1044 C 0.40283 0.73217 0.15549 0.0
C1045 C 0.36474 0.78677 0.18902 0.0
C1046 C 0.37921 0.75513 0.08731 0.0
C1047 C 0.37299 0.82153 0.12344 0.0
H1048 H 0.37742 0.75347 0.21768 0.0
H1049 H 0.40013 0.72491 0.19981 0.0
H1050 H 0.41291 0.70262 0.12318 0.0
H1051 H 0.39823 0.71438 0.0865 0.0
H1052 H 0.37102 0.79001 0.05985 0.0
H1053 H 0.36911 0.82644 0.07923 0.0
H1054 H 0.3647 0.85117 0.15593 0.0
H1055 H 0.35907 0.83164 0.19194 0.0
H1056 H 0.44611 0.78032 0.10709 0.0
H1057 H 0.44195 0.80096 0.17124 0.0
H1058 H 0.31022 0.77818 0.15817 0.0
H1059 H 0.33595 0.71657 0.15522 0.0
C1060 C 0.75975 0.17124 0.33563 0.0
C1061 C 0.7739 0.17086 0.32052 0.0
C1062 C 0.79107 0.16899 0.33086 0.0
C1063 C 0.78653 0.16842 0.35168 0.0
N1064 N 0.76751 0.16925 0.35524 0.0
Co1065 Co 0.75561 0.1731 0.38352 0.0
N1066 N 0.78035 0.16755 0.3989 0.0
C1067 C 0.79775 0.16594 0.39004 0.0
C1068 C 0.81226 0.1622 0.40423 0.0
C1069 C 0.80352 0.16152 0.42335 0.0
C1070 C 0.78411 0.16493 0.41977 0.0
N1071 N 0.7437 0.17813 0.4116 0.0
C1072 C 0.75078 0.1754 0.43132 0.0
C1073 C 0.73722 0.18086 0.44628 0.0
C1074 C 0.72117 0.18735 0.43573 0.0
C1075 C 0.72571 0.18543 0.41502 0.0
N1076 N 0.73045 0.17746 0.36863 0.0
C1077 C 0.71359 0.18272 0.37753 0.0
C1078 C 0.69838 0.18295 0.36389 0.0
C1079 C 0.70609 0.17799 0.34494 0.0
C1080 C 0.72569 0.17535 0.3481 0.0
N1081 N 0.75048 0.14271 0.38517 0.0
C1082 C 0.74444 0.09887 0.38558 0.0
C1083 C 0.73073 0.1132 0.39367 0.0
C1084 C 0.73397 0.13492 0.39323 0.0
C1085 C 0.76113 0.10732 0.37733 0.0
C1086 C 0.76393 0.12886 0.37757 0.0
N1087 N 0.76184 0.20326 0.38086 0.0
C1088 C 0.767 0.22955 0.35449 0.0
C1089 C 0.78373 0.23586 0.3645 0.0
C1090 C 0.78759 0.22782 0.38454 0.0
C1091 C 0.77627 0.21174 0.39257 0.0
C1092 C 0.75598 0.21387 0.36326 0.0
H1093 H 0.78022 0.20522 0.40755 0.0
H1094 H 0.74366 0.20939 0.3546 0.0
H1095 H 0.72308 0.14529 0.39944 0.0
H1096 H 0.77717 0.13414 0.37135 0.0
C1097 C 0.79965 0.1671 0.36831 0.0
C1098 C 0.73936 0.17564 0.33081 0.0
C1099 C 0.7701 0.16767 0.43678 0.0
C1100 C 0.71252 0.18706 0.39874 0.0
H1101 H 0.7721 0.17255 0.3038 0.0
H1102 H 0.80521 0.16864 0.32404 0.0
H1103 H 0.82739 0.16017 0.40108 0.0
H1104 H 0.81065 0.15931 0.43829 0.0
H1105 H 0.7386 0.17989 0.4631 0.0
H1106 H 0.70749 0.19195 0.44238 0.0
H1107 H 0.68352 0.18669 0.36725 0.0
H1108 H 0.69837 0.17771 0.33022 0.0
H1109 H 0.71762 0.1078 0.4005 0.0
H1110 H 0.77211 0.09748 0.3703 0.0
H1111 H 0.76282 0.23611 0.33949 0.0
H1112 H 0.79995 0.23289 0.39333 0.0
C1113 C 0.35331 0.27823 0.86821 0.0
C1114 C 0.33958 0.26295 0.8677 0.0
C1115 C 0.34903 0.24429 0.87091 0.0
C1116 C 0.36796 0.24917 0.87312 0.0
N1117 N 0.37115 0.26985 0.87215 0.0
Co1118 Co 0.39704 0.28268 0.87 0.0
N1119 N 0.41116 0.25544 0.87528 0.0
C1120 C 0.40302 0.23665 0.87714 0.0
C1121 C 0.41593 0.22076 0.88148 0.0
C1122 C 0.43342 0.22997 0.8823 0.0
C1123 C 0.43025 0.25103 0.87815 0.0
N1124 N 0.42276 0.29545 0.86643 0.0
C1125 C 0.44082 0.28714 0.8683 0.0
C1126 C 0.45444 0.30142 0.86235 0.0
C1127 C 0.44477 0.31943 0.85722 0.0
C1128 C 0.42585 0.31513 0.85997 0.0
N1129 N 0.38326 0.31032 0.86622 0.0
C1130 C 0.39142 0.32881 0.86255 0.0
C1131 C 0.37859 0.34526 0.86105 0.0
C1132 C 0.36104 0.33664 0.8633 0.0
C1133 C 0.36423 0.31531 0.86578 0.0
N1134 N 0.39786 0.28787 0.90067 0.0
C1135 C 0.39947 0.29312 0.94465 0.0
C1136 C 0.40535 0.30895 0.93111 0.0
C1137 C 0.40462 0.30594 0.90924 0.0
C1138 C 0.39249 0.2749 0.93563 0.0
C1139 C 0.39167 0.27269 0.91392 0.0
N1140 N 0.39547 0.27651 0.83941 0.0
C1141 C 0.37224 0.27674 0.81127 0.0
C1142 C 0.3766 0.2558 0.80671 0.0
C1143 C 0.39314 0.24699 0.816 0.0
C1144 C 0.40274 0.25794 0.83179 0.0
C1145 C 0.38222 0.28697 0.82718 0.0
H1146 H 0.41518 0.25043 0.83866 0.0
H1147 H 0.37814 0.30291 0.83014 0.0
H1148 H 0.40966 0.31823 0.89942 0.0
H1149 H 0.38607 0.25842 0.9081 0.0
C1150 C 0.38318 0.23474 0.87531 0.0
C1151 C 0.34899 0.30024 0.86311 0.0
C1152 C 0.44585 0.266 0.87572 0.0
C1153 C 0.41094 0.32983 0.85884 0.0
H1154 H 0.32442 0.26497 0.86452 0.0
H1155 H 0.34292 0.22891 0.87085 0.0
H1156 H 0.41299 0.20442 0.88387 0.0
H1157 H 0.44697 0.22199 0.88531 0.0
H1158 H 0.46983 0.29922 0.86186 0.0
H1159 H 0.45085 0.33408 0.85255 0.0
H1160 H 0.38157 0.36141 0.85764 0.0
H1161 H 0.34739 0.34485 0.86168 0.0
H1162 H 0.41089 0.32335 0.93735 0.0
H1163 H 0.38749 0.26232 0.94535 0.0
H1164 H 0.36067 0.28492 0.80317 0.0
H1165 H 0.39796 0.23127 0.81218 0.0
C1166 C 0.26462 0.82991 0.36618 0.0
C1167 C 0.27867 0.81488 0.37054 0.0
C1168 C 0.29311 0.82489 0.38097 0.0
C1169 C 0.2872 0.84548 0.38232 0.0
N1170 N 0.26995 0.84901 0.37347 0.0
Co1171 Co 0.25723 0.87693 0.36967 0.0
N1172 N 0.28049 0.89266 0.37799 0.0
C1173 C 0.29615 0.88409 0.38723 0.0
C1174 C 0.3099 0.89849 0.39167 0.0
C1175 C 0.30239 0.91734 0.38493 0.0
C1176 C 0.28437 0.91348 0.37676 0.0
N1177 N 0.24425 0.90469 0.36496 0.0
C1178 C 0.25138 0.92429 0.36382 0.0
C1179 C 0.2367 0.93916 0.36145 0.0
C1180 C 0.21991 0.92867 0.36142 0.0
C1181 C 0.22515 0.90807 0.36375 0.0
N1182 N 0.23335 0.86171 0.36303 0.0
C1183 C 0.21547 0.86995 0.36346 0.0
C1184 C 0.20155 0.85555 0.35995 0.0
C1185 C 0.21126 0.837 0.35708 0.0
C1186 C 0.23061 0.84123 0.35889 0.0
N1187 N 0.24963 0.87733 0.39968 0.0
C1188 C 0.2455 0.8755 0.44393 0.0
C1189 C 0.24941 0.89434 0.43365 0.0
C1190 C 0.25133 0.89494 0.41172 0.0
C1191 C 0.24267 0.85791 0.43118 0.0
C1192 C 0.24472 0.85915 0.40934 0.0
N1193 N 0.26606 0.87528 0.33975 0.0
C1194 C 0.26468 0.85514 0.30746 0.0
C1195 C 0.28454 0.85683 0.30424 0.0
C1196 C 0.29402 0.87066 0.3176 0.0
C1197 C 0.28476 0.87946 0.33499 0.0
C1198 C 0.25571 0.865 0.32473 0.0
H1199 H 0.29357 0.88884 0.34478 0.0
H1200 H 0.24051 0.86321 0.3262 0.0
H1201 H 0.25494 0.90958 0.40469 0.0
H1202 H 0.24291 0.84506 0.40038 0.0
C1203 C 0.29834 0.86229 0.38881 0.0
C1204 C 0.24599 0.82561 0.35601 0.0
C1205 C 0.27138 0.92989 0.36794 0.0
C1206 C 0.21256 0.8915 0.36397 0.0
H1207 H 0.27858 0.79848 0.36653 0.0
H1208 H 0.30666 0.8181 0.38615 0.0
H1209 H 0.32398 0.89555 0.39833 0.0
H1210 H 0.30947 0.93217 0.38573 0.0
H1211 H 0.23787 0.95596 0.36081 0.0
H1212 H 0.20557 0.93532 0.36008 0.0
H1213 H 0.18624 0.85835 0.35877 0.0
H1214 H 0.20486 0.82212 0.35373 0.0
H1215 H 0.25176 0.90848 0.4425 0.0
H1216 H 0.23907 0.84305 0.43799 0.0
H1217 H 0.25603 0.84565 0.29731 0.0
H1218 H 0.30885 0.87442 0.31522 0.0
C1219 C 0.6642 0.76535 0.83527 0.0
C1220 C 0.65933 0.7512 0.81984 0.0
C1221 C 0.64846 0.73626 0.82936 0.0
C1222 C 0.64733 0.74203 0.85007 0.0
N1223 N 0.65673 0.75964 0.85401 0.0
Co1224 Co 0.66097 0.77214 0.88202 0.0
N1225 N 0.65373 0.74639 0.8972 0.0
C1226 C 0.64386 0.73067 0.88861 0.0
C1227 C 0.63997 0.71526 0.90277 0.0
C1228 C 0.64754 0.72187 0.92147 0.0
C1229 C 0.65565 0.74108 0.91778 0.0
N1230 N 0.66601 0.78501 0.90985 0.0
C1231 C 0.6676 0.77637 0.92922 0.0
C1232 C 0.66992 0.79175 0.94436 0.0
C1233 C 0.66942 0.81052 0.93425 0.0
C1234 C 0.66684 0.80571 0.91357 0.0
N1235 N 0.66715 0.79832 0.86732 0.0
C1236 C 0.66657 0.81761 0.87559 0.0
C1237 C 0.67069 0.83288 0.86138 0.0
C1238 C 0.67414 0.82248 0.84301 0.0
C1239 C 0.67204 0.80139 0.84721 0.0
N1240 N 0.63355 0.78148 0.88319 0.0
C1241 C 0.59301 0.78728 0.88282 0.0
C1242 C 0.60312 0.78274 0.9014 0.0
C1243 C 0.62319 0.77981 0.90124 0.0
C1244 C 0.60391 0.78989 0.86465 0.0
C1245 C 0.62401 0.78725 0.86523 0.0
N1246 N 0.68804 0.76165 0.87967 0.0
C1247 C 0.72082 0.76695 0.86853 0.0
C1248 C 0.72347 0.74553 0.8639 0.0
C1249 C 0.70836 0.73245 0.86869 0.0
C1250 C 0.69107 0.74066 0.87638 0.0
C1251 C 0.70315 0.77462 0.87669 0.0
H1252 H 0.67979 0.72977 0.87805 0.0
H1253 H 0.70147 0.79119 0.87951 0.0
H1254 H 0.63016 0.77537 0.91568 0.0
H1255 H 0.63175 0.78918 0.85085 0.0
C1256 C 0.64112 0.72962 0.86676 0.0
C1257 C 0.67502 0.78467 0.83194 0.0
C1258 C 0.6639 0.75441 0.93438 0.0
C1259 C 0.66618 0.82015 0.89722 0.0
H1260 H 0.66332 0.75153 0.80354 0.0
H1261 H 0.64296 0.72227 0.82222 0.0
H1262 H 0.63292 0.70067 0.89977 0.0
H1263 H 0.64699 0.71358 0.93616 0.0
H1264 H 0.67089 0.78982 0.96113 0.0
H1265 H 0.6706 0.82586 0.94119 0.0
H1266 H 0.67209 0.84944 0.86427 0.0
H1267 H 0.67813 0.82952 0.82835 0.0
H1268 H 0.59551 0.78057 0.91589 0.0
H1269 H 0.59694 0.79381 0.84996 0.0
H1270 H 0.73214 0.77778 0.8655 0.0
H1271 H 0.70936 0.71588 0.86536 0.0
H1272 H 0.1379 0.56841 0.25532 0.0
H1273 H 0.19887 0.5645 0.2652 0.0
H1274 H 0.13708 0.53033 0.25149 0.0
H1275 H 0.1982 0.52655 0.26234 0.0
H1276 H 0.1957 0.45788 0.24733 0.0
H1277 H 0.19536 0.49593 0.24364 0.0
H1278 H 0.13854 0.49907 0.26998 0.0
H1279 H 0.13884 0.46099 0.27271 0.0
C1280 C 0.15119 0.5594 0.25638 0.0
C1281 C 0.16845 0.56955 0.26049 0.0
C1282 C 0.15073 0.53743 0.25449 0.0
C1283 C 0.16755 0.52485 0.25677 0.0
C1284 C 0.18491 0.53529 0.26014 0.0
C1285 C 0.18534 0.5572 0.26187 0.0
C1286 C 0.18296 0.46674 0.25177 0.0
C1287 C 0.16717 0.45635 0.25994 0.0
C1288 C 0.18282 0.4887 0.25 0.0
C1289 C 0.16698 0.5011 0.25667 0.0
C1290 C 0.15096 0.49045 0.26431 0.0
C1291 C 0.15107 0.46848 0.2659 0.0
H1292 H 0.95917 0.63197 0.78607 0.0
H1293 H 0.95558 0.66909 0.73014 0.0
H1294 H 0.99363 0.62835 0.78224 0.0
H1295 H 0.99016 0.66436 0.72512 0.0
H1296 H 0.0551 0.67063 0.73151 0.0
H1297 H 0.02056 0.67306 0.73385 0.0
H1298 H 0.02063 0.61521 0.76847 0.0
H1299 H 0.05512 0.61392 0.76804 0.0
C1300 C 0.96578 0.63901 0.7726 0.0
C1301 C 0.95452 0.65098 0.75853 0.0
C1302 C 0.98575 0.63681 0.77023 0.0
C1303 C 0.99535 0.64608 0.75333 0.0
C1304 C 0.9838 0.6573 0.73868 0.0
C1305 C 0.96377 0.6598 0.74131 0.0
C1306 C 0.04796 0.65852 0.74001 0.0
C1307 C 0.05862 0.64212 0.7497 0.0
C1308 C 0.02775 0.65974 0.74102 0.0
C1309 C 1.01715 0.64442 0.75146 0.0
C1310 C 0.02779 0.62774 0.76065 0.0
C1311 C 0.04797 0.62675 0.75999 0.0
H1312 H 0.85748 0.46409 0.24924 0.0
H1313 H 0.91905 0.45939 0.24854 0.0
H1314 H 0.85888 0.50173 0.24419 0.0
H1315 H 0.92069 0.49684 0.24203 0.0
H1316 H 0.91795 0.56618 0.26148 0.0
H1317 H 0.91808 0.52824 0.2589 0.0
H1318 H 0.8639 0.5318 0.22576 0.0
H1319 H 0.86355 0.56985 0.22961 0.0
C1320 C 0.87133 0.47106 0.24719 0.0
C1321 C 0.88812 0.45865 0.24905 0.0
C1322 C 0.8722 0.49278 0.24425 0.0
C1323 C 0.88994 0.50283 0.24282 0.0
C1324 C 0.90672 0.49007 0.2435 0.0
C1325 C 0.90582 0.4684 0.2468 0.0
C1326 C 0.90635 0.5588 0.25316 0.0
C1327 C 0.89086 0.571 0.24552 0.0
C1328 C 0.90635 0.53691 0.25163 0.0
C1329 C 0.89092 0.52645 0.24221 0.0
C1330 C 0.8759 0.53893 0.23355 0.0
C1331 C 0.8758 0.56086 0.23538 0.0
H1332 H 0.07801 0.35003 0.7583 0.0
H1333 H 0.0764 0.40644 0.72167 0.0
H1334 H 0.04317 0.35009 0.75886 0.0
H1335 H 0.04154 0.40605 0.72107 0.0
H1336 H 0.97887 0.41246 0.7384 0.0
H1337 H 1.01345 0.41199 0.7377 0.0
H1338 H 1.01424 0.34478 0.74364 0.0
H1339 H 0.97967 0.34547 0.74643 0.0
C1340 C 0.07019 0.36228 0.75 0.0
C1341 C 0.08016 0.37823 0.73995 0.0
C1342 C 0.05002 0.3623 0.75021 0.0
C1343 C 0.03899 0.37809 0.74003 0.0
C1344 C 0.04912 0.39381 0.7296 0.0
C1345 C 0.06929 0.39399 0.72975 0.0
C1346 C 0.98627 0.39752 0.73997 0.0
C1347 C 0.97593 0.37903 0.74271 0.0
C1348 C 1.00641 0.3972 0.73913 0.0
C1349 C 1.01721 0.37834 0.74059 0.0
C1350 C 1.00685 0.35979 0.74285 0.0
C1351 C 0.9867 0.36015 0.74405 0.0
H1352 H 0.19526 0.45896 0.78406 0.0
H1353 H 0.13412 0.45214 0.78397 0.0
H1354 H 0.1911 0.49678 0.78695 0.0
H1355 H 0.12969 0.48984 0.78819 0.0
H1356 H 0.1809 0.56559 0.7996 0.0
H1357 H 0.18381 0.52762 0.80374 0.0
H1358 H 0.13002 0.52091 0.77081 0.0
H1359 H 0.12692 0.55877 0.76786 0.0
C1360 C 0.1809 0.46554 0.78537 0.0
C1361 C 0.16506 0.45239 0.78399 0.0
C1362 C 0.17843 0.48739 0.78707 0.0
C1363 C 0.15998 0.49695 0.78767 0.0
C1364 C 0.14417 0.48353 0.78731 0.0
C1365 C 0.14667 0.4617 0.7853 0.0
C1366 C 0.1695 0.55593 0.79378 0.0
C1367 C 0.15361 0.56524 0.78357 0.0
C1368 C 0.17126 0.53401 0.79582 0.0
C1369 C 0.15729 0.52062 0.78745 0.0
C1370 C 0.14106 0.53023 0.77786 0.0
C1371 C 0.13922 0.5521 0.77608 0.0
H1372 H 0.98274 0.6102 0.30001 0.0
H1373 H 0.97958 0.67658 0.28809 0.0
H1374 H 1.01742 0.61124 0.29972 0.0
H1375 H 1.01413 0.67791 0.2897 0.0
H1376 H 0.07648 0.67295 0.27147 0.0
H1377 H 0.042 0.67151 0.2725 0.0
H1378 H 0.0462 0.61934 0.31515 0.0
H1379 H 0.08095 0.61967 0.31266 0.0
C1380 C 0.98928 0.62511 0.29741 0.0
C1381 C 0.97784 0.64326 0.2939 0.0
C1382 C 1.00944 0.62577 0.29761 0.0
C1383 C 1.01908 0.64465 0.29458 0.0
C1384 C 1.00762 0.66288 0.29165 0.0
C1385 C 0.98749 0.66218 0.29114 0.0
C1386 C 0.07023 0.66086 0.28083 0.0
C1387 C 0.08198 0.64624 0.29173 0.0
C1388 C 0.05015 0.66029 0.28177 0.0
C1389 C 0.0408 0.64532 0.29396 0.0
C1390 C 0.05253 0.63096 0.30525 0.0
C1391 C 0.07269 0.63136 0.30409 0.0
H1392 H 0.85945 0.56143 0.78895 0.0
H1393 H 0.9158 0.55768 0.81692 0.0
H1394 H 0.85876 0.52355 0.78711 0.0
H1395 H 0.91502 0.51963 0.8155 0.0
H1396 H 0.91621 0.45291 0.78705 0.0
H1397 H 0.91709 0.49056 0.79325 0.0
H1398 H 0.85607 0.49165 0.8042 0.0
H1399 H 0.85536 0.4541 0.79717 0.0
C1400 C 0.87159 0.55255 0.79512 0.0
C1401 C 0.88766 0.56288 0.80313 0.0
C1402 C 0.8712 0.53063 0.79409 0.0
C1403 C 0.88682 0.51812 0.80117 0.0
C1404 C 0.90279 0.52847 0.80952 0.0
C1405 C 0.90323 0.55044 0.81041 0.0
C1406 C 0.90311 0.46119 0.79131 0.0
C1407 C 0.88577 0.45048 0.79199 0.0
C1408 C 0.90355 0.48287 0.79484 0.0
C1409 C 0.88663 0.49456 0.79916 0.0
C1410 C 0.86939 0.48353 0.80056 0.0
C1411 C 0.86897 0.46187 0.79688 0.0
H1412 H 0.97721 0.41283 0.32124 0.0
H1413 H 0.97912 0.3578 0.28248 0.0
H1414 H 1.01203 0.41185 0.32394 0.0
H1415 H 1.01394 0.3574 0.28382 0.0
H1416 H 0.07675 0.35135 0.29895 0.0
H1417 H 0.0422 0.35108 0.30015 0.0
H1418 H 0.04073 0.41794 0.30956 0.0
H1419 H 0.07529 0.41785 0.31066 0.0
C1420 C 0.98512 0.40056 0.31315 0.0
C1421 C 0.97528 0.38534 0.30174 0.0
C1422 C 1.00526 0.40006 0.3145 0.0
C1423 C 1.01635 0.38459 0.30403 0.0
C1424 C 1.00632 0.36936 0.29259 0.0
C1425 C 0.98618 0.36962 0.29167 0.0
C1426 C 0.06923 0.366 0.30184 0.0
C1427 C 0.07938 0.38462 0.3047 0.0
C1428 C 0.04908 0.36592 0.30207 0.0
C1429 C 0.03811 0.38452 0.30472 0.0
C1430 C 0.04826 0.40311 0.30773 0.0
C1431 C 0.06841 0.40312 0.30795 0.0
H1432 H 0.24792 0.11347 0.56165 0.0
H1433 H 0.21101 0.16859 0.56106 0.0
H1434 H 0.24639 0.11189 0.5241 0.0
H1435 H 0.21111 0.16819 0.52307 0.0
H1436 H 0.20199 0.15358 0.45346 0.0
H1437 H 0.20103 0.15433 0.49167 0.0
H1438 H 0.25744 0.12508 0.49388 0.0
H1439 H 0.25772 0.12336 0.45602 0.0
C1440 C 0.23934 0.1253 0.55368 0.0
C1441 C 0.22943 0.14106 0.56497 0.0
C1442 C 0.23884 0.12466 0.53176 0.0
C1443 C 0.22882 0.14004 0.52002 0.0
C1444 C 0.21887 0.15584 0.53124 0.0
C1445 C 0.21907 0.15626 0.55328 0.0
C1446 C 0.2141 0.1472 0.4622 0.0
C1447 C 0.22981 0.13813 0.4516 0.0
C1448 C 0.21365 0.14776 0.48422 0.0
C1449 C 0.22908 0.13962 0.49635 0.0
C1450 C 0.24493 0.13094 0.48552 0.0
C1451 C 0.24518 0.13003 0.46361 0.0
H1452 H 0.35181 0.73095 0.95411 0.0
H1453 H 0.40747 0.75831 0.955 0.0
H1454 H 0.3527 0.72797 0.99225 0.0
H1455 H 0.40826 0.75639 0.99309 0.0
H1456 H 0.41022 0.74494 0.06253 0.0
H1457 H 0.41082 0.73935 0.02473 0.0
H1458 H 0.34921 0.74724 0.02251 0.0
H1459 H 0.34879 0.75162 0.06039 0.0
C1460 C 0.36446 0.73588 0.96249 0.0
C1461 C 0.37974 0.74443 0.95147 0.0
C1462 C 0.36488 0.73456 0.9845 0.0
C1463 C 0.38049 0.74212 0.99628 0.0
C1464 C 0.39607 0.75002 0.98498 0.0
C1465 C 0.39569 0.75111 0.96299 0.0
C1466 C 0.39677 0.74477 0.05401 0.0
C1467 C 0.37942 0.74831 0.06464 0.0
C1468 C 0.39709 0.74196 0.03214 0.0
C1469 C 0.38007 0.74295 0.02004 0.0
C1470 C 0.36267 0.74594 0.03092 0.0
C1471 C 0.36237 0.74851 0.05279 0.0
H1472 H 0.76388 0.90329 0.44506 0.0
H1473 H 0.79594 0.84524 0.44943 0.0
H1474 H 0.76665 0.908 0.48297 0.0
H1475 H 0.79887 0.84984 0.48747 0.0
H1476 H 0.81099 0.87267 0.55538 0.0
H1477 H 0.81219 0.87094 0.51703 0.0
H1478 H 0.75295 0.89135 0.51372 0.0
H1479 H 0.7518 0.89314 0.55175 0.0
C1480 C 0.77195 0.89179 0.45412 0.0
C1481 C 0.77994 0.87406 0.44421 0.0
C1482 C 0.77336 0.89433 0.47592 0.0
C1483 C 0.78288 0.87925 0.48851 0.0
C1484 C 0.79158 0.86191 0.4784 0.0
C1485 C 0.78997 0.85927 0.45657 0.0
C1486 C 0.79829 0.87701 0.54645 0.0
C1487 C 0.78128 0.88298 0.55683 0.0
C1488 C 0.79892 0.87584 0.52442 0.0
C1489 C 0.78267 0.88101 0.51207 0.0
C1490 C 0.76584 0.88745 0.52251 0.0
C1491 C 0.76513 0.88831 0.54444 0.0
H1492 H 0.63961 0.25514 0.0652 0.0
H1493 H 0.69115 0.29065 0.06673 0.0
H1494 H 0.63835 0.25808 0.02709 0.0
H1495 H 0.6899 0.29404 0.02853 0.0
H1496 H 0.69511 0.27152 0.95936 0.0
H1497 H 0.69507 0.27393 0.99756 0.0
H1498 H 0.63329 0.27876 0.99661 0.0
H1499 H 0.63354 0.27589 0.95841 0.0
C1500 C 0.65039 0.26411 0.05738 0.0
C1501 C 0.66529 0.27294 0.06909 0.0
C1502 C 0.64972 0.26581 0.03541 0.0
C1503 C 0.66405 0.27628 0.02432 0.0
C1504 C 0.67869 0.28562 0.03623 0.0
C1505 C 0.6793 0.28396 0.05823 0.0
C1506 C 0.68156 0.27355 0.96733 0.0
C1507 C 0.66436 0.27387 0.95573 0.0
C1508 C 0.68149 0.27495 0.98933 0.0
C1509 C 0.66416 0.27652 1.00057 0.0
C1510 C 0.64696 0.27732 0.9888 0.0
C1511 C 0.64707 0.27598 0.96678 0.0
H1512 H 0.23289 0.90497 0.47303 0.0
H1513 H 0.25726 0.84256 0.46918 0.0
H1514 H 0.23278 0.90243 0.51111 0.0
H1515 H 0.25717 0.84004 0.50706 0.0
H1516 H 0.24281 0.83305 0.57543 0.0
H1517 H 0.23877 0.83642 0.53753 0.0
H1518 H 0.25208 0.90182 0.54195 0.0
H1519 H 0.25562 0.89829 0.57993 0.0
C1520 C 0.23832 0.89071 0.48019 0.0
C1521 C 0.24499 0.87396 0.46761 0.0
C1522 C 0.23826 0.88924 0.50221 0.0
C1523 C 0.24487 0.87096 0.51256 0.0
C1524 C 0.25152 0.85425 0.49996 0.0
C1525 C 0.25157 0.85571 0.478 0.0
C1526 C 0.24433 0.84825 0.56831 0.0
C1527 C 0.24921 0.86546 0.58077 0.0
C1528 C 0.24234 0.85018 0.54646 0.0
C1529 C 0.2453 0.86938 0.53625 0.0
C1530 C 0.24946 0.8868 0.54896 0.0
C1531 C 0.25143 0.88484 0.57084 0.0
H1532 H 0.63455 0.76561 0.06574 0.0
H1533 H 0.69054 0.73638 0.06898 0.0
H1534 H 0.63433 0.76174 0.02777 0.0
H1535 H 0.69025 0.73149 0.03099 0.0
H1536 H 0.69429 0.75101 0.96153 0.0
H1537 H 0.69372 0.74877 0.99959 0.0
H1538 H 0.63225 0.74252 0.99731 0.0
H1539 H 0.63299 0.74588 0.95926 0.0
C1540 C 0.64659 0.75773 0.0583 0.0
C1541 C 0.66245 0.75106 0.07042 0.0
C1542 C 0.64652 0.75544 0.0364 0.0
C1543 C 0.66232 0.74631 0.0258 0.0
C1544 C 0.67791 0.73895 0.0382 0.0
C1545 C 0.67801 0.74144 0.06012 0.0
C1546 C 0.68072 0.74865 0.96918 0.0
C1547 C 0.66374 0.74832 0.95723 0.0
C1548 C 0.68033 0.74735 0.99116 0.0
C1549 C 0.6629 0.74558 1.00204 0.0
C1550 C 0.64598 0.74428 0.98987 0.0
C1551 C 0.64639 0.74579 0.96789 0.0
H1552 H 0.79127 0.19163 0.57169 0.0
H1553 H 0.75598 0.13757 0.5682 0.0
H1554 H 0.79535 0.1907 0.53365 0.0
H1555 H 0.75929 0.13685 0.53023 0.0
H1556 H 0.7735 0.13266 0.46155 0.0
H1557 H 0.77639 0.13093 0.49971 0.0
H1558 H 0.77992 0.19817 0.50213 0.0
H1559 H 0.77777 0.1995 0.46403 0.0
C1560 C 0.78464 0.17932 0.56278 0.0
C1561 C 0.77346 0.16456 0.57305 0.0
C1562 C 0.78672 0.1789 0.54082 0.0
C1563 C 0.77756 0.16378 0.52834 0.0
C1564 C 0.76689 0.14861 0.53891 0.0
C1565 C 0.76492 0.14899 0.56082 0.0
C1566 C 0.77546 0.14697 0.47027 0.0
C1567 C 0.77565 0.16618 0.45967 0.0
C1568 C 0.7768 0.14608 0.49229 0.0
C1569 C 0.77819 0.16443 0.50454 0.0
C1570 C 0.77914 0.18357 0.49366 0.0
C1571 C 0.77792 0.18441 0.47166 0.0
H1572 H 0.3652 0.30133 0.07484 0.0
H1573 H 0.42326 0.27751 0.07877 0.0
H1574 H 0.369 0.30718 0.03716 0.0
H1575 H 0.42719 0.28326 0.04121 0.0
H1576 H 0.4145 0.26466 0.97226 0.0
H1577 H 0.41379 0.2655 1.01034 0.0
H1578 H 0.38595 0.32633 1.00839 0.0
H1579 H 0.38672 0.32544 0.96996 0.0
C1580 C 0.37897 0.29802 0.06773 0.0
C1581 C 0.39403 0.28927 0.07976 0.0
C1582 C 0.38116 0.30128 0.04613 0.0
C1583 C 0.39836 0.29554 0.03601 0.0
C1584 C 0.41368 0.28767 0.04836 0.0
C1585 C 0.41154 0.28461 0.06993 0.0
C1586 C 0.40838 0.27833 0.97993 0.0
C1587 C 0.40063 0.29496 0.96799 0.0
C1588 C 0.40808 0.27888 1.00183 0.0
C1589 C 0.39982 0.29599 1.01258 0.0
C1590 C 0.39234 0.31285 1.00068 0.0
C1591 C 0.39291 0.31243 0.97865 0.0
H1592 H 0.5772 0.27337 0.13669 0.0
H1593 H 0.58307 0.20679 0.14623 0.0
H1594 H 0.54275 0.27091 0.13741 0.0
H1595 H 0.5482 0.20409 0.14551 0.0
H1596 H 0.48412 0.20934 0.16359 0.0
H1597 H 0.51903 0.21044 0.16342 0.0
H1598 H 0.516 0.26121 0.11908 0.0
H1599 H 0.48148 0.26118 0.12044 0.0
C1600 C 0.57122 0.2581 0.13895 0.0
C1601 C 0.58328 0.24033 0.14165 0.0
C1602 C 0.55122 0.25662 0.13899 0.0
C1603 C 0.54231 0.23726 0.1414 0.0
C1604 C 0.55432 0.21937 0.14384 0.0
C1605 C 0.57445 0.22088 0.14396 0.0
C1606 C 0.49084 0.22091 0.15396 0.0
C1607 C 0.47957 0.23512 0.142 0.0
C1608 C 0.51103 0.22136 0.15363 0.0
C1609 C 0.52069 0.23599 0.14131 0.0
C1610 C 0.50938 0.24991 0.12913 0.0
C1611 C 0.48931 0.24961 0.12961 0.0
H1612 H 0.56835 0.80701 0.91051 0.0
H1613 H 0.56829 0.77039 0.85399 0.0
H1614 H 0.53348 0.80891 0.90975 0.0
H1615 H 0.53345 0.77115 0.85367 0.0
H1616 H 0.47009 0.78591 0.84794 0.0
H1617 H 0.50468 0.78702 0.84792 0.0
H1618 H 0.50474 0.79446 0.91505 0.0
H1619 H 0.47015 0.79543 0.91481 0.0
C1620 C 0.56088 0.79916 0.89798 0.0
C1621 C 0.57134 0.78862 0.88228 0.0
C1622 C 0.54067 0.80009 0.89757 0.0
C1623 C 0.53002 0.79014 0.88167 0.0
C1624 C 0.54065 0.77951 0.86602 0.0
C1625 C 0.56085 0.77894 0.86622 0.0
C1626 C 0.47729 0.78829 0.86274 0.0
C1627 C 0.46669 0.79057 0.88137 0.0
C1628 C 0.4975 0.78849 0.86279 0.0
C1629 C 0.50815 0.79063 0.88151 0.0
C1630 C 0.49753 0.79303 0.90012 0.0
C1631 C 0.47733 0.79319 0.90003 0.0
H1632 H 0.71516 0.96605 0.4038 0.0
H1633 H 0.75254 0.96734 0.35048 0.0
H1634 H 0.71618 1.00435 0.40626 0.0
H1635 H 0.75397 1.00543 0.3533 0.0
H1636 H 0.77205 0.0671 0.38734 0.0
H1637 H 0.76811 0.02971 0.3839 0.0
H1638 H 0.70683 0.03867 0.38186 0.0
H1639 H 0.71058 0.07657 0.38382 0.0
C1640 C 0.72348 0.9745 0.39252 0.0
C1641 C 0.73369 0.96357 0.37686 0.0
C1642 C 0.72402 0.99645 0.3939 0.0
C1643 C 0.7352 1.00798 0.38001 0.0
C1644 C 0.74526 0.99705 0.36428 0.0
C1645 C 0.74434 0.97521 0.36257 0.0
C1646 C 0.75764 0.06144 0.38569 0.0
C1647 C 0.74168 0.07543 0.38541 0.0
C1648 C 0.75543 0.03979 0.3839 0.0
C1649 C 0.73718 0.03115 0.38239 0.0
C1650 C 0.72112 0.04483 0.38299 0.0
C1651 C 0.72332 0.06664 0.38427 0.0
H1652 H 0.47195 0.28337 0.90224 0.0
H1653 H 0.46745 0.23563 0.8552 0.0
H1654 H 0.50643 0.27815 0.90337 0.0
H1655 H 0.50187 0.22869 0.85753 0.0
H1656 H 0.56632 0.23242 0.85003 0.0
H1657 H 0.53194 0.23662 0.84962 0.0
H1658 H 0.53392 0.26266 0.91194 0.0
H1659 H 0.56823 0.26094 0.9113 0.0
C1660 C 0.47835 0.27125 0.89254 0.0
C1661 C 0.46679 0.25988 0.87874 0.0
C1662 C 0.49835 0.26805 0.89324 0.0
C1663 C 0.50765 0.25288 0.88053 0.0
C1664 C 0.49581 0.24089 0.86732 0.0
C1665 C 0.47581 0.24452 0.86624 0.0
C1666 C 0.55966 0.23948 0.86358 0.0
C1667 C 0.57085 0.24637 0.88064 0.0
C1668 C 0.5395 0.24152 0.86352 0.0
C1669 C 0.52943 0.25009 0.88073 0.0
C1670 C 0.5406 0.25643 0.898 0.0
C1671 C 0.56074 0.25493 0.89783 0.0
H1672 H 0.28052 0.95661 0.40032 0.0
H1673 H 0.27243 0.95535 0.33361 0.0
H1674 H 0.28384 0.99459 0.39917 0.0
H1675 H 0.27496 0.99327 0.33229 0.0
H1676 H 0.28939 0.06176 0.33172 0.0
H1677 H 0.29241 0.02368 0.33417 0.0
H1678 H 0.26674 0.02619 0.3954 0.0
H1679 H 0.26443 0.06429 0.39296 0.0
C1680 C 0.27986 0.96441 0.38532 0.0
C1681 C 0.27658 0.95276 0.36701 0.0
C1682 C 0.28143 0.98637 0.38464 0.0
C1683 C 0.2796 0.99753 0.36562 0.0
C1684 C 0.27682 0.98563 0.34727 0.0
C1685 C 0.27534 0.96372 0.34797 0.0
C1686 C 0.28488 0.05416 0.34591 0.0
C1687 C 0.277 0.06617 0.36229 0.0
C1688 C 0.28631 0.03217 0.34725 0.0
C1689 C 0.2797 0.02133 0.36495 0.0
C1690 C 0.27231 0.03358 0.38159 0.0
C1691 C 0.27098 0.05558 0.38026 0.0
H1692 H 0.57066 0.77533 0.17025 0.0
H1693 H 0.57033 0.81444 0.11552 0.0
H1694 H 0.53584 0.77489 0.16949 0.0
H1695 H 0.53544 0.8152 0.11529 0.0
H1696 H 0.47302 0.79888 0.10716 0.0
H1697 H 0.50758 0.79932 0.10817 0.0
H1698 H 0.50665 0.78982 0.17501 0.0
H1699 H 0.47218 0.78722 0.17366 0.0
C1700 C 0.56311 0.7842 0.15824 0.0
C1701 C 0.57344 0.79492 0.14296 0.0
C1702 C 0.54294 0.78407 0.15781 0.0
C1703 C 0.53226 0.79502 0.14231 0.0
C1704 C 0.54274 0.8061 0.12727 0.0
C1705 C 0.56292 0.80585 0.12746 0.0
C1706 C 0.48003 0.79646 0.12211 0.0
C1707 C 0.46924 0.7928 0.14028 0.0
C1708 C 0.50017 0.79715 0.12276 0.0
C1709 C 0.51049 0.79462 0.14169 0.0
C1710 C 0.49967 0.79144 0.15994 0.0
C1711 C 0.47954 0.79037 0.15923 0.0
H1712 H 0.73935 0.9602 0.6801 0.0
H1713 H 0.75212 0.95938 0.61442 0.0
H1714 H 0.73479 0.9982 0.67895 0.0
H1715 H 0.74707 0.99732 0.61285 0.0
H1716 H 0.76221 0.066 0.62281 0.0
H1717 H 0.7626 0.02807 0.62278 0.0
H1718 H 0.71728 0.02861 0.66835 0.0
H1719 H 0.71698 0.06675 0.66845 0.0
C1720 C 0.7405 0.96813 0.66524 0.0
C1721 C 0.74574 0.95674 0.64727 0.0
C1722 C 0.73797 0.99001 0.66453 0.0
C1723 C 0.7407 1.00122 0.64583 0.0
C1724 C 0.74516 0.98954 0.62767 0.0
C1725 C 0.74773 0.96768 0.62842 0.0
C1726 C 0.75208 0.05815 0.63264 0.0
C1727 C 0.7395 0.0698 0.64556 0.0
C1728 C 0.75228 0.03618 0.6326 0.0
C1729 C 0.7399 0.02488 0.64548 0.0
C1730 C 0.72725 0.03651 0.65837 0.0
C1731 C 0.72707 0.05854 0.65843 0.0
H1732 H 0.28217 0.06681 0.69003 0.0
H1733 H 0.26986 0.06858 0.62403 0.0
H1734 H 0.28766 0.02893 0.68809 0.0
H1735 H 0.27573 0.0308 0.62177 0.0
H1736 H 0.26293 0.96122 0.63032 0.0
H1737 H 0.26088 0.99911 0.63129 0.0
H1738 H 0.3072 0.99996 0.67625 0.0
H1739 H 0.30937 0.96186 0.67521 0.0
C1740 C 0.28112 0.05912 0.67499 0.0
C1741 C 0.27583 0.07075 0.65715 0.0
C1742 C 0.28426 0.03735 0.67383 0.0
C1743 C 0.28207 0.02649 0.65477 0.0
C1744 C 0.2773 0.03836 0.63681 0.0
C1745 C 0.27419 0.06012 0.638 0.0
C1746 C 0.27297 0.96936 0.64019 0.0
C1747 C 0.28641 0.9581 0.65259 0.0
C1748 C 0.27176 0.9913 0.64076 0.0
C1749 C 0.2839 1.00293 0.6538 0.0
C1750 C 0.2974 0.99172 0.66618 0.0
C1751 C 0.29864 0.96972 0.66558 0.0
H1752 H 0.16487 0.29616 0.31381 0.0
H1753 H 0.21706 0.31595 0.28533 0.0
H1754 H 0.18139 0.2645 0.3268 0.0
H1755 H 0.23371 0.28418 0.29809 0.0
H1756 H 0.25026 0.21284 0.30959 0.0
H1757 H 0.23563 0.24505 0.29524 0.0
H1758 H 0.20617 0.2556 0.35351 0.0
H1759 H 0.22099 0.22352 0.36775 0.0
C1760 C 0.17976 0.29342 0.30984 0.0
C1761 C 0.18954 0.30834 0.29817 0.0
C1762 C 0.18936 0.27543 0.31757 0.0
C1763 C 0.20903 0.27172 0.31375 0.0
C1764 C 0.21859 0.28633 0.30132 0.0
C1765 C 0.20903 0.30449 0.29385 0.0
C1766 C 0.24115 0.22246 0.31952 0.0
C1767 C 0.23717 0.2159 0.33999 0.0
C1768 C 0.23261 0.24085 0.31125 0.0
C1769 C 0.21947 0.25297 0.32306 0.0
C1770 C 0.21597 0.24663 0.34379 0.0
C1771 C 0.22473 0.22842 0.35213 0.0
H1772 H 0.30927 0.69749 0.86257 0.0
H1773 H 0.29221 0.75389 0.82991 0.0
H1774 H 0.28511 0.6784 0.84405 0.0
H1775 H 0.26662 0.7349 0.81226 0.0
H1776 H 0.23197 0.69061 0.76988 0.0
H1777 H 0.2577 0.71024 0.78653 0.0
H1778 H 0.25368 0.67126 0.84134 0.0
H1779 H 0.22939 0.65105 0.82427 0.0
C1780 C 0.30024 0.70597 0.85151 0.0
C1781 C 0.30305 0.72736 0.84774 0.0
C1782 C 0.28599 0.69495 0.84098 0.0
C1783 C 0.27352 0.70487 0.82648 0.0
C1784 C 0.27597 0.72645 0.82301 0.0
C1785 C 0.29051 0.73751 0.83346 0.0
C1786 C 0.23695 0.68594 0.78528 0.0
C1787 C 0.22839 0.66913 0.79562 0.0
C1788 C 0.25154 0.69749 0.79507 0.0
C1789 C 0.25803 0.69262 0.81552 0.0
C1790 C 0.24961 0.67555 0.82555 0.0
C1791 C 0.2353 0.66397 0.81575 0.0
H1792 H 0.88302 0.73455 0.29342 0.0
H1793 H 0.83455 0.69517 0.28431 0.0
H1794 H 0.86192 0.76183 0.30808 0.0
H1795 H 0.81343 0.72198 0.29933 0.0
H1796 H 0.77802 0.781 0.31789 0.0
H1797 H 0.79776 0.75563 0.29837 0.0
H1798 H 0.84529 0.76698 0.34007 0.0
H1799 H 0.82572 0.79228 0.35924 0.0
C1800 C 0.86775 0.73204 0.29384 0.0
C1801 C 0.8604 0.7129 0.28722 0.0
C1802 C 0.85563 0.74748 0.30268 0.0
C1803 C 0.83586 0.74412 0.3053 0.0
C1804 C 0.82844 0.72537 0.29752 0.0
C1805 C 0.84055 0.70998 0.28873 0.0
C1806 C 0.79259 0.7778 0.32306 0.0
C1807 C 0.80024 0.7888 0.34013 0.0
C1808 C 0.804 0.76332 0.31178 0.0
C1809 C 0.82338 0.75941 0.31729 0.0
C1810 C 0.83071 0.76993 0.33483 0.0
C1811 C 0.81937 0.78435 0.34602 0.0
H1812 H 0.80179 0.37159 0.81826 0.0
H1813 H 0.81208 0.32179 0.7742 0.0
H1814 H 0.77745 0.35116 0.83531 0.0
H1815 H 0.78844 0.30053 0.7919 0.0
H1816 H 0.7338 0.27261 0.82053 0.0
H1817 H 0.75728 0.29241 0.80093 0.0
H1818 H 0.7735 0.32409 0.85788 0.0
H1819 H 0.74933 0.30515 0.87686 0.0
C1820 C 0.79865 0.35627 0.8121 0.0
C1821 C 0.80871 0.34844 0.79473 0.0
C1822 C 0.78489 0.34428 0.82213 0.0
C1823 C 0.78102 0.32374 0.81549 0.0
C1824 C 0.79072 0.31621 0.79758 0.0
C1825 C 0.8043 0.32843 0.7873 0.0
C1826 C 0.74267 0.28357 0.82884 0.0
C1827 C 0.73978 0.28722 0.85029 0.0
C1828 C 0.75617 0.29504 0.81759 0.0
C1829 C 0.7673 0.31037 0.82753 0.0
C1830 C 0.76493 0.3131 0.84928 0.0
C1831 C 0.75125 0.30194 0.86037 0.0
H1832 H 0.20668 0.80054 0.68947 0.0
H1833 H 0.25782 0.76207 0.698 0.0
H1834 H 0.18858 0.77585 0.70906 0.0
H1835 H 0.24013 0.73867 0.71973 0.0
H1836 H 0.1999 0.68645 0.73689 0.0
H1837 H 0.21981 0.71237 0.72134 0.0
H1838 H 0.17831 0.76049 0.73846 0.0
H1839 H 0.15768 0.73377 0.7526 0.0
C1840 C 0.21426 0.78686 0.69537 0.0
C1841 C 0.23398 0.78351 0.69133 0.0
C1842 C 0.20377 0.77273 0.70731 0.0
C1843 C 0.21255 0.75481 0.7163 0.0
C1844 C 0.2324 0.7518 0.71287 0.0
C1845 C 0.24282 0.76567 0.70049 0.0
C1846 C 0.19528 0.70264 0.73796 0.0
C1847 C 0.17731 0.7079 0.74658 0.0
C1848 C 0.2068 0.71776 0.72888 0.0
C1849 C 0.20096 0.73897 0.72822 0.0
C1850 C 0.18339 0.74442 0.73802 0.0
C1851 C 0.17165 0.7291 0.7468 0.0
H1852 H 0.74621 0.75936 0.19504 0.0
H1853 H 0.73748 0.70559 0.15571 0.0
H1854 H 0.77166 0.74009 0.21392 0.0
H1855 H 0.76156 0.68605 0.17519 0.0
H1856 H 0.81733 0.65992 0.1997 0.0
H1857 H 0.79334 0.68058 0.18124 0.0
H1858 H 0.7792 0.71325 0.23844 0.0
H1859 H 0.80455 0.69331 0.25674 0.0
C1860 C 0.7498 0.74353 0.19027 0.0
C1861 C 0.73963 0.73411 0.17379 0.0
C1862 C 0.7642 0.73228 0.20137 0.0
C1863 C 0.76885 0.71128 0.19634 0.0
C1864 C 0.75886 0.70217 0.17956 0.0
C1865 C 0.74473 0.7134 0.16841 0.0
C1866 C 0.80922 0.67156 0.20844 0.0
C1867 C 0.81316 0.67493 0.22979 0.0
C1868 C 0.79514 0.68336 0.19781 0.0
C1869 C 0.78404 0.6988 0.20815 0.0
C1870 C 0.78754 0.70181 0.22971 0.0
C1871 C 0.8019 0.69006 0.24037 0.0
H1872 H 0.82207 0.22629 0.67821 0.0
H1873 H 0.77214 0.26359 0.69512 0.0
H1874 H 0.8421 0.24936 0.69793 0.0
H1875 H 0.79199 0.28525 0.71683 0.0
H1876 H 0.83411 0.33586 0.73432 0.0
H1877 H 0.81271 0.31146 0.71817 0.0
H1878 H 0.85484 0.26179 0.72788 0.0
H1879 H 0.87686 0.28703 0.74253 0.0
C1880 C 0.81517 0.23939 0.68602 0.0
C1881 C 0.79517 0.24294 0.68435 0.0
C1882 C 0.82682 0.25251 0.69797 0.0
C1883 C 0.819 0.26953 0.7093 0.0
C1884 C 0.79893 0.27276 0.70814 0.0
C1885 C 0.78731 0.25991 0.69577 0.0
C1886 C 0.83862 0.31961 0.73356 0.0
C1887 C 0.8571 0.31346 0.74036 0.0
C1888 C 0.82623 0.30541 0.72418 0.0
C1889 C 0.83173 0.28427 0.72137 0.0
C1890 C 0.84995 0.27788 0.7292 0.0
C1891 C 0.86254 0.2923 0.73827 0.0
H1892 H 0.23905 0.36599 0.21091 0.0
H1893 H 0.25062 0.33121 0.26756 0.0
H1894 H 0.26351 0.34539 0.19279 0.0
H1895 H 0.27549 0.31078 0.2494 0.0
H1896 H 0.3326 0.29614 0.21371 0.0
H1897 H 0.30721 0.31412 0.23322 0.0
H1898 H 0.26955 0.30947 0.1797 0.0
H1899 H 0.29519 0.29147 0.16012 0.0
C1900 C 0.24679 0.35393 0.21957 0.0
C1901 C 0.24264 0.35026 0.24077 0.0
C1902 C 0.26082 0.34202 0.20908 0.0
C1903 C 0.27135 0.32615 0.21947 0.0
C1904 C 0.26771 0.32289 0.24086 0.0
C1905 C 0.25351 0.33474 0.25135 0.0
C1906 C 0.31881 0.29875 0.20619 0.0
C1907 C 0.31594 0.29248 0.18531 0.0
C1908 C 0.30421 0.30899 0.21742 0.0
C1909 C 0.28633 0.31349 0.20804 0.0
C1910 C 0.28322 0.30655 0.18736 0.0
C1911 C 0.29782 0.29603 0.17617 0.0
H1912 H 0.3375 0.23592 0.19638 0.0
H1913 H 0.3859 0.22339 0.23682 0.0
H1914 H 0.31645 0.21905 0.22109 0.0
H1915 H 0.36482 0.20709 0.26218 0.0
H1916 H 0.3284 0.15552 0.28906 0.0
H1917 H 0.34831 0.17572 0.26589 0.0
H1918 H 0.30037 0.21776 0.25331 0.0
H1919 H 0.28032 0.1971 0.27629 0.0
C1920 C 0.3435 0.23027 0.21102 0.0
C1921 C 0.36331 0.23143 0.21482 0.0
C1922 C 0.33142 0.22046 0.22523 0.0
C1923 C 0.33879 0.21135 0.24372 0.0
C1924 C 0.35854 0.21349 0.24799 0.0
C1925 C 0.37064 0.22328 0.23368 0.0
C1926 C 0.32206 0.16903 0.28129 0.0
C1927 C 0.30268 0.1746 0.2846 0.0
C1928 C 0.33358 0.18082 0.2681 0.0
C1929 C 0.32621 0.19874 0.2578 0.0
C1930 C 0.30667 0.20405 0.26075 0.0
C1931 C 0.29507 0.19212 0.2739 0.0
H1932 H 0.37714 0.80381 0.79247 0.0
H1933 H 0.3269 0.77553 0.81746 0.0
H1934 H 0.3577 0.81974 0.7644 0.0
H1935 H 0.30736 0.79114 0.7892 0.0
H1936 H 0.28444 0.81043 0.72119 0.0
H1937 H 0.30174 0.79212 0.74957 0.0
H1938 H 0.33215 0.84838 0.76352 0.0
H1939 H 0.31462 0.8666 0.73538 0.0
C1940 C 0.36205 0.80036 0.79147 0.0
C1941 C 0.35365 0.788 0.8069 0.0
C1942 C 0.3508 0.8098 0.77562 0.0
C1943 C 0.33084 0.80701 0.7746 0.0
C1944 C 0.32264 0.79365 0.78939 0.0
C1945 C 0.33386 0.78449 0.80547 0.0
C1946 C 0.29438 0.81902 0.73077 0.0
C1947 C 0.29801 0.84002 0.72616 0.0
C1948 C 0.30444 0.80848 0.74694 0.0
C1949 C 0.31868 0.8186 0.75866 0.0
C1950 C 0.32158 0.83993 0.75464 0.0
C1951 C 0.3113 0.85051 0.73874 0.0
H1952 H 0.73508 0.86899 0.28016 0.0
H1953 H 0.73702 0.81189 0.31577 0.0
H1954 H 0.72143 0.85011 0.2503 0.0
H1955 H 0.72229 0.79336 0.28637 0.0
H1956 H 0.6659 0.79045 0.23719 0.0
H1957 H 0.68455 0.80422 0.26666 0.0
H1958 H 0.73283 0.81211 0.22614 0.0
H1959 H 0.71466 0.79716 0.19701 0.0
C1960 C 0.73328 0.8523 0.2814 0.0
C1961 C 0.73771 0.84189 0.30026 0.0
C1962 C 0.72513 0.84153 0.26439 0.0
C1963 C 0.72066 0.82024 0.266 0.0
C1964 C 0.72551 0.80973 0.28462 0.0
C1965 C 0.73411 0.82033 0.30138 0.0
C1966 C 0.68078 0.79408 0.23477 0.0
C1967 C 0.6889 0.79206 0.21477 0.0
C1968 C 0.69138 0.80234 0.2516 0.0
C1969 C 0.71016 0.80938 0.24871 0.0
C1970 C 0.71842 0.80689 0.22889 0.0
C1971 C 0.70804 0.79815 0.21226 0.0
H1972 H 0.7252 0.219 0.70323 0.0
H1973 H 0.73857 0.16541 0.74173 0.0
H1974 H 0.71115 0.23708 0.73331 0.0
H1975 H 0.72507 0.18381 0.77211 0.0
H1976 H 0.71166 0.22954 0.82618 0.0
H1977 H 0.72904 0.21507 0.7962 0.0
H1978 H 0.68171 0.23271 0.75583 0.0
H1979 H 0.66408 0.24657 0.78604 0.0
C1980 C 0.72566 0.21126 0.71827 0.0
C1981 C 0.73353 0.19084 0.72 0.0
C1982 C 0.71738 0.2216 0.73552 0.0
C1983 C 0.71687 0.21201 0.75528 0.0
C1984 C 0.72537 0.19186 0.75725 0.0
C1985 C 0.73337 0.18134 0.73984 0.0
C1986 C 0.70514 0.23082 0.81082 0.0
C1987 C 0.68661 0.2398 0.80858 0.0
C1988 C 0.71504 0.22226 0.79362 0.0
C1989 C 0.70685 0.22257 0.77346 0.0
C1990 C 0.68863 0.23235 0.77102 0.0
C1991 C 0.67857 0.24061 0.78835 0.0
H1992 H 0.7959 0.79034 0.65457 0.0
H1993 H 0.80528 0.83432 0.70436 0.0
H1994 H 0.81274 0.76317 0.67507 0.0
H1995 H 0.82103 0.80748 0.72512 0.0
H1996 H 0.86852 0.76226 0.74743 0.0
H1997 H 0.8499 0.78859 0.72791 0.0
H1998 H 0.81306 0.74055 0.70429 0.0
H1999 H 0.83194 0.71437 0.72338 0.0
C2000 C 0.80101 0.79407 0.67012 0.0
C2001 C 0.79878 0.8145 0.6779 0.0
C2002 C 0.81074 0.77851 0.68194 0.0
C2003 C 0.81851 0.78299 0.70189 0.0
C2004 C 0.8157 0.80332 0.70978 0.0
C2005 C 0.80619 0.81877 0.69794 0.0
C2006 C 0.85635 0.75738 0.73822 0.0
C2007 C 0.85193 0.73613 0.73687 0.0
C2008 C 0.84557 0.7725 0.72698 0.0
C2009 C 0.82986 0.76686 0.71425 0.0
C2010 C 0.82521 0.74561 0.71341 0.0
C2011 C 0.83605 0.73054 0.7245 0.0
H2012 H 0.76516 0.26567 0.18727 0.0
H2013 H 0.73198 0.32183 0.17387 0.0
H2014 H 0.78683 0.28568 0.20894 0.0
H2015 H 0.75423 0.34207 0.19492 0.0
H2016 H 0.78947 0.37056 0.24892 0.0
H2017 H 0.76576 0.34961 0.23013 0.0
H2018 H 0.81145 0.31013 0.20597 0.0
H2019 H 0.8347 0.33045 0.225 0.0
C2020 C 0.76244 0.2823 0.18887 0.0
C2021 C 0.74671 0.292 0.1786 0.0
C2022 C 0.77505 0.2939 0.20123 0.0
C2023 C 0.77245 0.31565 0.20379 0.0
C2024 C 0.75669 0.32537 0.19359 0.0
C2025 C 0.74405 0.31375 0.18118 0.0
C2026 C 0.79435 0.35722 0.23982 0.0
C2027 C 0.81404 0.35238 0.23834 0.0
C2028 C 0.78078 0.34531 0.22883 0.0
C2029 C 0.78657 0.32811 0.21631 0.0
C2030 C 0.80625 0.32302 0.2155 0.0
C2031 C 0.81969 0.33488 0.22632 0.0
H2032 H 0.16486 0.29359 0.72748 0.0
H2033 H 0.22042 0.31299 0.74831 0.0
H2034 H 0.17962 0.26309 0.7102 0.0
H2035 H 0.23532 0.28234 0.73126 0.0
H2036 H 0.25076 0.21228 0.71174 0.0
H2037 H 0.23799 0.24275 0.731 0.0
H2038 H 0.20051 0.25762 0.67896 0.0
H2039 H 0.21352 0.22739 0.65978 0.0
C2040 C 0.18018 0.29092 0.72895 0.0
C2041 C 0.1914 0.30543 0.7397 0.0
C2042 C 0.18872 0.27363 0.71873 0.0
C2043 C 0.20876 0.27024 0.71907 0.0
C2044 C 0.21988 0.28429 0.7307 0.0
C2045 C 0.21134 0.30178 0.74064 0.0
C2046 C 0.24018 0.22243 0.70424 0.0
C2047 C 0.23329 0.21754 0.68415 0.0
C2048 C 0.23273 0.23983 0.71533 0.0
C2049 C 0.21792 0.25257 0.70675 0.0
C2050 C 0.21162 0.24804 0.68629 0.0
C2051 C 0.21928 0.23089 0.67512 0.0
H2052 H 0.2587 0.651 0.22415 0.0
H2053 H 0.23368 0.7076 0.24979 0.0
H2054 H 0.2787 0.67164 0.20142 0.0
H2055 H 0.25342 0.72832 0.22679 0.0
H2056 H 0.30575 0.75929 0.19598 0.0
H2057 H 0.28429 0.74029 0.21887 0.0
H2058 H 0.27855 0.69261 0.17152 0.0
H2059 H 0.30038 0.71131 0.14913 0.0
C2060 C 0.25736 0.66786 0.22489 0.0
C2061 C 0.24451 0.67751 0.23895 0.0
C2062 C 0.26881 0.6798 0.2117 0.0
C2063 C 0.26772 0.70185 0.21193 0.0
C2064 C 0.25499 0.71148 0.22619 0.0
C2065 C 0.24362 0.69952 0.23948 0.0
C2066 C 0.29955 0.74498 0.19032 0.0
C2067 C 0.30482 0.73686 0.17068 0.0
C2068 C 0.28725 0.73396 0.20351 0.0
C2069 C 0.27977 0.71455 0.19737 0.0
C2070 C 0.28435 0.70709 0.17723 0.0
C2071 C 0.29673 0.71798 0.16419 0.0
H2072 H 0.83345 0.34153 0.30204 0.0
H2073 H 0.87926 0.29539 0.29933 0.0
H2074 H 0.8129 0.31628 0.31885 0.0
H2075 H 0.85823 0.26965 0.31535 0.0
H2076 H 0.80042 0.22923 0.32658 0.0
H2077 H 0.82181 0.25215 0.30731 0.0
H2078 H 0.81857 0.29706 0.35747 0.0
H2079 H 0.79768 0.27378 0.37711 0.0
C2080 C 0.83889 0.32572 0.30424 0.0
C2081 C 0.8579 0.32043 0.29878 0.0
C2082 C 0.82718 0.31133 0.31416 0.0
C2083 C 0.83396 0.29102 0.3186 0.0
C2084 C 0.85257 0.28519 0.31206 0.0
C2085 C 0.86452 0.29983 0.30252 0.0
C2086 C 0.8044 0.24395 0.33356 0.0
C2087 C 0.79731 0.24972 0.35338 0.0
C2088 C 0.8167 0.25701 0.32254 0.0
C2089 C 0.82184 0.27644 0.33081 0.0
C2090 C 0.81481 0.2822 0.35066 0.0
C2091 C 0.80291 0.26888 0.36194 0.0
H2092 H 0.24362 0.36773 0.82946 0.0
H2093 H 0.2585 0.33681 0.77161 0.0
H2094 H 0.27125 0.35127 0.84657 0.0
H2095 H 0.2865 0.32055 0.78878 0.0
H2096 H 0.34577 0.31376 0.82266 0.0
H2097 H 0.3177 0.32805 0.80434 0.0
H2098 H 0.28345 0.31745 0.85906 0.0
H2099 H 0.31181 0.30301 0.87735 0.0
C2100 C 0.25272 0.35735 0.82032 0.0
C2101 C 0.24852 0.35358 0.79905 0.0
C2102 C 0.26864 0.34781 0.83024 0.0
C2103 C 0.28113 0.33426 0.81925 0.0
C2104 C 0.27732 0.33093 0.79782 0.0
C2105 C 0.26125 0.34039 0.78789 0.0
C2106 C 0.33217 0.314 0.83063 0.0
C2107 C 0.33103 0.30686 0.85138 0.0
C2108 C 0.31601 0.32229 0.8201 0.0
C2109 C 0.29815 0.32405 0.83011 0.0
C2110 C 0.29694 0.3166 0.85083 0.0
C2111 C 0.31315 0.3081 0.8613 0.0
H2112 H 0.2333 0.82154 0.31593 0.0
H2113 H 0.24571 0.78512 0.37111 0.0
H2114 H 0.21869 0.79131 0.29939 0.0
H2115 H 0.23132 0.75465 0.35452 0.0
H2116 H 0.21596 0.69916 0.31281 0.0
H2117 H 0.2338 0.72864 0.32611 0.0
H2118 H 0.18927 0.77086 0.30368 0.0
H2119 H 0.17123 0.74108 0.29051 0.0
C2120 C 0.23346 0.80684 0.32429 0.0
C2121 C 0.24119 0.80569 0.34467 0.0
C2122 C 0.22479 0.78955 0.31491 0.0
C2123 C 0.22363 0.7704 0.32556 0.0
C2124 C 0.23208 0.76899 0.34566 0.0
C2125 C 0.24057 0.78643 0.35515 0.0
C2126 C 0.21005 0.71471 0.31035 0.0
C2127 C 0.19221 0.7176 0.30016 0.0
C2128 C 0.22026 0.73169 0.31822 0.0
C2129 C 0.21309 0.75229 0.3161 0.0
C2130 C 0.19546 0.7553 0.30543 0.0
C2131 C 0.1851 0.7382 0.29774 0.0
H2132 H 0.80476 0.65638 0.80622 0.0
H2133 H 0.8311 0.71554 0.79593 0.0
H2134 H 0.77697 0.67432 0.82173 0.0
H2135 H 0.80367 0.73365 0.81194 0.0
H2136 H 0.74456 0.76176 0.83135 0.0
H2137 H 0.77085 0.74487 0.81199 0.0
H2138 H 0.76868 0.6916 0.85311 0.0
H2139 H 0.74254 0.70834 0.87217 0.0
C2140 C 0.80434 0.67328 0.80667 0.0
C2141 C 0.81999 0.6845 0.79934 0.0
C2142 C 0.78854 0.68366 0.81602 0.0
C2143 C 0.78794 0.70562 0.81853 0.0
C2144 C 0.8033 0.71684 0.81027 0.0
C2145 C 0.81907 0.70645 0.80094 0.0
C2146 C 0.74988 0.74657 0.83645 0.0
C2147 C 0.74117 0.73649 0.85338 0.0
C2148 C 0.76498 0.73676 0.82524 0.0
C2149 C 0.77192 0.71653 0.83057 0.0
C2150 C 0.76355 0.70682 0.84792 0.0
C2151 C 0.74852 0.71657 0.85906 0.0
H2152 H 0.7643 0.83812 0.75396 0.0
H2153 H 0.71033 0.85697 0.72543 0.0
H2154 H 0.74772 0.81523 0.77713 0.0
H2155 H 0.69357 0.83581 0.75032 0.0
H2156 H 0.66494 0.78811 0.79009 0.0
H2157 H 0.68336 0.80466 0.76256 0.0
H2158 H 0.73038 0.81204 0.80614 0.0
H2159 H 0.71246 0.79423 0.83264 0.0
C2160 C 0.74889 0.83762 0.75251 0.0
C2161 C 0.73895 0.84978 0.73738 0.0
C2162 C 0.73919 0.82454 0.76631 0.0
C2163 C 0.71902 0.8234 0.76606 0.0
C2164 C 0.70904 0.83569 0.75108 0.0
C2165 C 0.71879 0.84841 0.73693 0.0
C2166 C 0.67957 0.79236 0.79336 0.0
C2167 C 0.68739 0.7893 0.81345 0.0
C2168 C 0.69006 0.80246 0.77771 0.0
C2169 C 0.70853 0.81025 0.78183 0.0
C2170 C 0.71651 0.80619 0.80178 0.0
C2171 C 0.70619 0.79581 0.81718 0.0
H2172 H 0.73945 0.15941 0.29069 0.0
H2173 H 0.72409 0.21507 0.32524 0.0
H2174 H 0.72572 0.17529 0.25881 0.0
H2175 H 0.71015 0.2307 0.29376 0.0
H2176 H 0.66561 0.23877 0.23893 0.0
H2177 H 0.68165 0.22503 0.27048 0.0
H2178 H 0.72997 0.20477 0.23336 0.0
H2179 H 0.71416 0.21885 0.20211 0.0
C2180 C 0.73347 0.17514 0.29142 0.0
C2181 C 0.73305 0.18595 0.31057 0.0
C2182 C 0.7255 0.18425 0.27318 0.0
C2183 C 0.71663 0.20428 0.27367 0.0
C2184 C 0.71659 0.21519 0.29275 0.0
C2185 C 0.72477 0.20624 0.31083 0.0
C2186 C 0.67983 0.23181 0.23761 0.0
C2187 C 0.68864 0.2302 0.21796 0.0
C2188 C 0.68902 0.22381 0.25568 0.0
C2189 C 0.70714 0.21363 0.25454 0.0
C2190 C 0.71598 0.21225 0.23489 0.0
C2191 C 0.70694 0.22051 0.21695 0.0
H2192 H 0.31995 0.18666 0.70733 0.0
H2193 H 0.28289 0.17852 0.76035 0.0
H2194 H 0.34113 0.20756 0.72849 0.0
H2195 H 0.30418 0.19996 0.78161 0.0
H2196 H 0.33739 0.25696 0.80629 0.0
H2197 H 0.31559 0.23587 0.78564 0.0
H2198 H 0.36396 0.20401 0.75721 0.0
H2199 H 0.38579 0.22551 0.77745 0.0
C2200 C 0.31639 0.18904 0.72362 0.0
C2201 C 0.29977 0.18041 0.73214 0.0
C2202 C 0.32861 0.20116 0.73578 0.0
C2203 C 0.32458 0.20532 0.75687 0.0
C2204 C 0.30773 0.19717 0.76538 0.0
C2205 C 0.29548 0.18486 0.75317 0.0
C2206 C 0.34342 0.24567 0.79541 0.0
C2207 C 0.36343 0.24315 0.79343 0.0
C2208 C 0.33087 0.23333 0.78378 0.0
C2209 C 0.33794 0.21818 0.76972 0.0
C2210 C 0.35795 0.21566 0.76772 0.0
C2211 C 0.37051 0.22791 0.77946 0.0
H2212 H 0.32341 0.84634 0.30291 0.0
H2213 H 0.27113 0.83751 0.26772 0.0
H2214 H 0.34128 0.82813 0.27648 0.0
H2215 H 0.28882 0.81689 0.24244 0.0
H2216 H 0.32732 0.79911 0.18748 0.0
H2217 H 0.30782 0.81449 0.21479 0.0
H2218 H 0.35282 0.8003 0.25977 0.0
H2219 H 0.37292 0.78691 0.23169 0.0
C2220 C 0.3155 0.84068 0.28956 0.0
C2221 C 0.2955 0.84431 0.28771 0.0
C2222 C 0.32593 0.82947 0.27437 0.0
C2223 C 0.31688 0.82063 0.25679 0.0
C2224 C 0.29678 0.82363 0.25522 0.0
C2225 C 0.28638 0.83538 0.27019 0.0
C2226 C 0.33289 0.79888 0.20331 0.0
C2227 C 0.35163 0.79124 0.20727 0.0
C2228 C 0.32159 0.80778 0.21923 0.0
C2229 C 0.32842 0.80914 0.24 0.0
C2230 C 0.34687 0.80031 0.24413 0.0
C2231 C 0.35838 0.79187 0.22801 0.0
loop_
_geom_bond_atom_site_label_1
_geom_bond_atom_site_label_2
_geom_bond_distance
_geom_bond_site_symmetry_2
_ccdc_geom_bond_type
C0 C1 1.443 . S
C0 N4 1.376 . S
C0 C38 1.389 . S
C1 C0 1.443 . S
C1 C2 1.340 . S
C1 H41 0.951 . S
C2 C1 1.340 . S
C2 C3 1.439 . S
C2 H42 0.950 . S
C3 C2 1.439 . S
C3 N4 1.374 . S
C3 C37 1.395 . S
N4 C0 1.376 . S
N4 C3 1.374 . S
N4 Co5 2.008 . S
Co5 N4 2.008 . S
Co5 N6 1.995 . S
Co5 N11 2.008 . S
Co5 N16 1.995 . S
Co5 N21 2.282 . S
Co5 N27 2.282 . S
N6 Co5 1.995 . S
N6 C7 1.376 . S
N6 C10 1.383 . S
C7 N6 1.376 . S
C7 C8 1.446 . S
C7 C37 1.391 . S
C8 C7 1.446 . S
C8 C9 1.339 . S
C8 H43 0.949 . S
C9 C8 1.339 . S
C9 C10 1.439 . S
C9 H44 0.950 . S
C10 N6 1.383 . S
C10 C9 1.439 . S
C10 C39 1.392 . S
N11 Co5 2.008 . S
N11 C12 1.376 . S
N11 C15 1.374 . S
C12 N11 1.376 . S
C12 C13 1.443 . S
C12 C39 1.389 . S
C13 C12 1.443 . S
C13 C14 1.340 . S
C13 H45 0.951 . S
C14 C13 1.340 . S
C14 C15 1.439 . S
C14 H46 0.950 . S
C15 N11 1.374 . S
C15 C14 1.439 . S
C15 C40 1.395 . S
N16 Co5 1.995 . S
N16 C17 1.376 . S
N16 C20 1.383 . S
C17 N16 1.376 . S
C17 C18 1.446 . S
C17 C40 1.391 . S
C18 C17 1.446 . S
C18 C19 1.339 . S
C18 H47 0.949 . S
C19 C18 1.339 . S
C19 C20 1.439 . S
C19 H48 0.950 . S
C20 N16 1.383 . S
C20 C19 1.439 . S
C20 C38 1.392 . S
N21 Co5 2.282 . S
N21 C24 1.332 . S
N21 C26 1.332 . S
C22 C23 1.386 . S
C22 C25 1.388 . S
C23 C22 1.386 . S
C23 C24 1.382 . S
C23 H49 0.950 . S
C24 N21 1.332 . S
C24 C23 1.382 . S
C24 H35 0.952 . S
C25 C22 1.388 . S
C25 C26 1.382 . S
C25 H50 0.950 . S
C26 N21 1.332 . S
C26 C25 1.382 . S
C26 H36 0.948 . S
N27 Co5 2.282 . S
N27 C31 1.332 . S
N27 C32 1.332 . S
C28 C29 1.388 . S
C28 C32 1.382 . S
C28 H51 0.950 . S
C29 C28 1.388 . S
C29 C30 1.386 . S
C30 C29 1.386 . S
C30 C31 1.382 . S
C30 H52 0.950 . S
C31 N27 1.332 . S
C31 C30 1.382 . S
C31 H33 0.952 . S
C32 N27 1.332 . S
C32 C28 1.382 . S
C32 H34 0.948 . S
H33 C31 0.952 . S
H34 C32 0.948 . S
H35 C24 0.952 . S
H36 C26 0.948 . S
C37 C3 1.395 . S
C37 C7 1.391 . S
C38 C0 1.389 . S
C38 C20 1.392 . S
C39 C10 1.392 . S
C39 C12 1.389 . S
C40 C15 1.395 . S
C40 C17 1.391 . S
H41 C1 0.951 . S
H42 C2 0.950 . S
H43 C8 0.949 . S
H44 C9 0.950 . S
H45 C13 0.951 . S
H46 C14 0.950 . S
H47 C18 0.949 . S
H48 C19 0.950 . S
H49 C23 0.950 . S
H50 C25 0.950 . S
H51 C28 0.950 . S
H52 C30 0.950 . S
C53 C54 1.443 . S
C53 N57 1.376 . S
C53 C91 1.389 . S
C54 C53 1.443 . S
C54 C55 1.340 . S
C54 H94 0.951 . S
C55 C54 1.340 . S
C55 C56 1.439 . S
C55 H95 0.950 . S
C56 C55 1.439 . S
C56 N57 1.374 . S
C56 C90 1.395 . S
N57 C53 1.376 . S
N57 C56 1.374 . S
N57 Co58 2.008 . S
Co58 N57 2.008 . S
Co58 N59 1.995 . S
Co58 N64 2.008 . S
Co58 N69 1.995 . S
Co58 N74 2.282 . S
Co58 N80 2.282 . S
N59 Co58 1.995 . S
N59 C60 1.376 . S
N59 C63 1.383 . S
C60 N59 1.376 . S
C60 C61 1.446 . S
C60 C90 1.391 . S
C61 C60 1.446 . S
C61 C62 1.339 . S
C61 H96 0.949 . S
C62 C61 1.339 . S
C62 C63 1.439 . S
C62 H97 0.950 . S
C63 N59 1.383 . S
C63 C62 1.439 . S
C63 C92 1.392 . S
N64 Co58 2.008 . S
N64 C65 1.376 . S
N64 C68 1.374 . S
C65 N64 1.376 . S
C65 C66 1.443 . S
C65 C92 1.389 . S
C66 C65 1.443 . S
C66 C67 1.340 . S
C66 H98 0.951 . S
C67 C66 1.340 . S
C67 C68 1.439 . S
C67 H99 0.950 . S
C68 N64 1.374 . S
C68 C67 1.439 . S
C68 C93 1.395 . S
N69 Co58 1.995 . S
N69 C70 1.376 . S
N69 C73 1.383 . S
C70 N69 1.376 . S
C70 C71 1.446 . S
C70 C93 1.391 . S
C71 C70 1.446 . S
C71 C72 1.339 . S
C71 H100 0.949 . S
C72 C71 1.339 . S
C72 C73 1.439 . S
C72 H101 0.950 . S
C73 N69 1.383 . S
C73 C72 1.439 . S
C73 C91 1.392 . S
N74 Co58 2.282 . S
N74 C77 1.332 . S
N74 C79 1.332 . S
C75 C76 1.386 . S
C75 C78 1.388 . S
C76 C75 1.386 . S
C76 C77 1.382 . S
C76 H102 0.950 . S
C77 N74 1.332 . S
C77 C76 1.382 . S
C77 H88 0.952 . S
C78 C75 1.388 . S
C78 C79 1.382 . S
C78 H103 0.950 . S
C79 N74 1.332 . S
C79 C78 1.382 . S
C79 H89 0.948 . S
N80 Co58 2.282 . S
N80 C84 1.332 . S
N80 C85 1.332 . S
C81 C82 1.388 . S
C81 C85 1.382 . S
C81 H104 0.950 . S
C82 C81 1.388 . S
C82 C83 1.386 . S
C83 C82 1.386 . S
C83 C84 1.382 . S
C83 H105 0.950 . S
C84 N80 1.332 . S
C84 C83 1.382 . S
C84 H86 0.952 . S
C85 N80 1.332 . S
C85 C81 1.382 . S
C85 H87 0.948 . S
H86 C84 0.952 . S
H87 C85 0.948 . S
H88 C77 0.952 . S
H89 C79 0.948 . S
C90 C56 1.395 . S
C90 C60 1.391 . S
C91 C53 1.389 . S
C91 C73 1.392 . S
C92 C63 1.392 . S
C92 C65 1.389 . S
C93 C68 1.395 . S
C93 C70 1.391 . S
H94 C54 0.951 . S
H95 C55 0.950 . S
H96 C61 0.949 . S
H97 C62 0.950 . S
H98 C66 0.951 . S
H99 C67 0.950 . S
H100 C71 0.949 . S
H101 C72 0.950 . S
H102 C76 0.950 . S
H103 C78 0.950 . S
H104 C81 0.950 . S
H105 C83 0.950 . S
C106 C107 1.443 . S
C106 N110 1.376 . S
C106 C144 1.389 . S
C107 C106 1.443 . S
C107 C108 1.340 . S
C107 H147 0.951 . S
C108 C107 1.340 . S
C108 C109 1.439 . S
C108 H148 0.950 . S
C109 C108 1.439 . S
C109 N110 1.374 . S
C109 C143 1.395 . S
N110 C106 1.376 . S
N110 C109 1.374 . S
N110 Co111 2.008 . S
Co111 N110 2.008 . S
Co111 N112 1.995 . S
Co111 N117 2.008 . S
Co111 N122 1.995 . S
Co111 N127 2.282 . S
Co111 N133 2.282 . S
N112 Co111 1.995 . S
N112 C113 1.376 . S
N112 C116 1.383 . S
C113 N112 1.376 . S
C113 C114 1.446 . S
C113 C143 1.391 . S
C114 C113 1.446 . S
C114 C115 1.339 . S
C114 H149 0.949 . S
C115 C114 1.339 . S
C115 C116 1.439 . S
C115 H150 0.950 . S
C116 N112 1.383 . S
C116 C115 1.439 . S
C116 C145 1.392 . S
N117 Co111 2.008 . S
N117 C118 1.376 . S
N117 C121 1.374 . S
C118 N117 1.376 . S
C118 C119 1.443 . S
C118 C145 1.389 . S
C119 C118 1.443 . S
C119 C120 1.340 . S
C119 H151 0.951 . S
C120 C119 1.340 . S
C120 C121 1.439 . S
C120 H152 0.950 . S
C121 N117 1.374 . S
C121 C120 1.439 . S
C121 C146 1.395 . S
N122 Co111 1.995 . S
N122 C123 1.376 . S
N122 C126 1.383 . S
C123 N122 1.376 . S
C123 C124 1.446 . S
C123 C146 1.391 . S
C124 C123 1.446 . S
C124 C125 1.339 . S
C124 H153 0.949 . S
C125 C124 1.339 . S
C125 C126 1.439 . S
C125 H154 0.950 . S
C126 N122 1.383 . S
C126 C125 1.439 . S
C126 C144 1.392 . S
N127 Co111 2.282 . S
N127 C130 1.332 . S
N127 C132 1.332 . S
C128 C129 1.386 . S
C128 C131 1.388 . S
C129 C128 1.386 . S
C129 C130 1.382 . S
C129 H155 0.950 . S
C130 N127 1.332 . S
C130 C129 1.382 . S
C130 H141 0.952 . S
C131 C128 1.388 . S
C131 C132 1.382 . S
C131 H156 0.950 . S
C132 N127 1.332 . S
C132 C131 1.382 . S
C132 H142 0.948 . S
N133 Co111 2.282 . S
N133 C137 1.332 . S
N133 C138 1.332 . S
C134 C135 1.388 . S
C134 C138 1.382 . S
C134 H157 0.950 . S
C135 C134 1.388 . S
C135 C136 1.386 . S
C136 C135 1.386 . S
C136 C137 1.382 . S
C136 H158 0.950 . S
C137 N133 1.332 . S
C137 C136 1.382 . S
C137 H139 0.952 . S
C138 N133 1.332 . S
C138 C134 1.382 . S
C138 H140 0.948 . S
H139 C137 0.952 . S
H140 C138 0.948 . S
H141 C130 0.952 . S
H142 C132 0.948 . S
C143 C109 1.395 . S
C143 C113 1.391 . S
C144 C106 1.389 . S
C144 C126 1.392 . S
C145 C116 1.392 . S
C145 C118 1.389 . S
C146 C121 1.395 . S
C146 C123 1.391 . S
H147 C107 0.951 . S
H148 C108 0.950 . S
H149 C114 0.949 . S
H150 C115 0.950 . S
H151 C119 0.951 . S
H152 C120 0.950 . S
H153 C124 0.949 . S
H154 C125 0.950 . S
H155 C129 0.950 . S
H156 C131 0.950 . S
H157 C134 0.950 . S
H158 C136 0.950 . S
C159 C160 1.443 . S
C159 N163 1.376 . S
C159 C197 1.389 . S
C160 C159 1.443 . S
C160 C161 1.340 . S
C160 H200 0.951 . S
C161 C160 1.340 . S
C161 C162 1.439 . S
C161 H201 0.950 . S
C162 C161 1.439 . S
C162 N163 1.374 . S
C162 C196 1.395 . S
N163 C159 1.376 . S
N163 C162 1.374 . S
N163 Co164 2.008 . S
Co164 N163 2.008 . S
Co164 N165 1.995 . S
Co164 N170 2.008 . S
Co164 N175 1.995 . S
Co164 N180 2.282 . S
Co164 N186 2.282 . S
N165 Co164 1.995 . S
N165 C166 1.376 . S
N165 C169 1.383 . S
C166 N165 1.376 . S
C166 C167 1.446 . S
C166 C196 1.391 . S
C167 C166 1.446 . S
C167 C168 1.339 . S
C167 H202 0.949 . S
C168 C167 1.339 . S
C168 C169 1.439 . S
C168 H203 0.950 . S
C169 N165 1.383 . S
C169 C168 1.439 . S
C169 C198 1.392 . S
N170 Co164 2.008 . S
N170 C171 1.376 . S
N170 C174 1.374 . S
C171 N170 1.376 . S
C171 C172 1.443 . S
C171 C198 1.389 . S
C172 C171 1.443 . S
C172 C173 1.340 . S
C172 H204 0.951 . S
C173 C172 1.340 . S
C173 C174 1.439 . S
C173 H205 0.950 . S
C174 N170 1.374 . S
C174 C173 1.439 . S
C174 C199 1.395 . S
N175 Co164 1.995 . S
N175 C176 1.376 . S
N175 C179 1.383 . S
C176 N175 1.376 . S
C176 C177 1.446 . S
C176 C199 1.391 . S
C177 C176 1.446 . S
C177 C178 1.339 . S
C177 H206 0.949 . S
C178 C177 1.339 . S
C178 C179 1.439 . S
C178 H207 0.950 . S
C179 N175 1.383 . S
C179 C178 1.439 . S
C179 C197 1.392 . S
N180 Co164 2.282 . S
N180 C183 1.332 . S
N180 C185 1.332 . S
C181 C182 1.386 . S
C181 C184 1.388 . S
C182 C181 1.386 . S
C182 C183 1.382 . S
C182 H208 0.950 . S
C183 N180 1.332 . S
C183 C182 1.382 . S
C183 H194 0.952 . S
C184 C181 1.388 . S
C184 C185 1.382 . S
C184 H209 0.950 . S
C185 N180 1.332 . S
C185 C184 1.382 . S
C185 H195 0.948 . S
N186 Co164 2.282 . S
N186 C190 1.332 . S
N186 C191 1.332 . S
C187 C188 1.388 . S
C187 C191 1.382 . S
C187 H210 0.950 . S
C188 C187 1.388 . S
C188 C189 1.386 . S
C189 C188 1.386 . S
C189 C190 1.382 . S
C189 H211 0.950 . S
C190 N186 1.332 . S
C190 C189 1.382 . S
C190 H192 0.952 . S
C191 N186 1.332 . S
C191 C187 1.382 . S
C191 H193 0.948 . S
H192 C190 0.952 . S
H193 C191 0.948 . S
H194 C183 0.952 . S
H195 C185 0.948 . S
C196 C162 1.395 . S
C196 C166 1.391 . S
C197 C159 1.389 . S
C197 C179 1.392 . S
C198 C169 1.392 . S
C198 C171 1.389 . S
C199 C174 1.395 . S
C199 C176 1.391 . S
H200 C160 0.951 . S
H201 C161 0.950 . S
H202 C167 0.949 . S
H203 C168 0.950 . S
H204 C172 0.951 . S
H205 C173 0.950 . S
H206 C177 0.949 . S
H207 C178 0.950 . S
H208 C182 0.950 . S
H209 C184 0.950 . S
H210 C187 0.950 . S
H211 C189 0.950 . S
C212 C213 1.443 . S
C212 N216 1.376 . S
C212 C250 1.389 . S
C213 C212 1.443 . S
C213 C214 1.340 . S
C213 H253 0.951 . S
C214 C213 1.340 . S
C214 C215 1.439 . S
C214 H254 0.950 . S
C215 C214 1.439 . S
C215 N216 1.374 . S
C215 C249 1.395 . S
N216 C212 1.376 . S
N216 C215 1.374 . S
N216 Co217 2.008 . S
Co217 N216 2.008 . S
Co217 N218 1.995 . S
Co217 N223 2.008 . S
Co217 N228 1.995 . S
Co217 N233 2.282 . S
Co217 N239 2.282 . S
N218 Co217 1.995 . S
N218 C219 1.376 . S
N218 C222 1.383 . S
C219 N218 1.376 . S
C219 C220 1.446 . S
C219 C249 1.391 . S
C220 C219 1.446 . S
C220 C221 1.339 . S
C220 H255 0.949 . S
C221 C220 1.339 . S
C221 C222 1.439 . S
C221 H256 0.950 . S
C222 N218 1.383 . S
C222 C221 1.439 . S
C222 C251 1.392 . S
N223 Co217 2.008 . S
N223 C224 1.376 . S
N223 C227 1.374 . S
C224 N223 1.376 . S
C224 C225 1.443 . S
C224 C251 1.389 . S
C225 C224 1.443 . S
C225 C226 1.340 . S
C225 H257 0.951 . S
C226 C225 1.340 . S
C226 C227 1.439 . S
C226 H258 0.950 . S
C227 N223 1.374 . S
C227 C226 1.439 . S
C227 C252 1.395 . S
N228 Co217 1.995 . S
N228 C229 1.376 . S
N228 C232 1.383 . S
C229 N228 1.376 . S
C229 C230 1.446 . S
C229 C252 1.391 . S
C230 C229 1.446 . S
C230 C231 1.339 . S
C230 H259 0.949 . S
C231 C230 1.339 . S
C231 C232 1.439 . S
C231 H260 0.950 . S
C232 N228 1.383 . S
C232 C231 1.439 . S
C232 C250 1.392 . S
N233 Co217 2.282 . S
N233 C236 1.332 . S
N233 C238 1.332 . S
C234 C235 1.386 . S
C234 C237 1.388 . S
C235 C234 1.386 . S
C235 C236 1.382 . S
C235 H261 0.950 . S
C236 N233 1.332 . S
C236 C235 1.382 . S
C236 H247 0.952 . S
C237 C234 1.388 . S
C237 C238 1.382 . S
C237 H262 0.950 . S
C238 N233 1.332 . S
C238 C237 1.382 . S
C238 H248 0.948 . S
N239 Co217 2.282 . S
N239 C243 1.332 . S
N239 C244 1.332 . S
C240 C241 1.388 . S
C240 C244 1.382 . S
C240 H263 0.950 . S
C241 C240 1.388 . S
C241 C242 1.386 . S
C242 C241 1.386 . S
C242 C243 1.382 . S
C242 H264 0.950 . S
C243 N239 1.332 . S
C243 C242 1.382 . S
C243 H245 0.952 . S
C244 N239 1.332 . S
C244 C240 1.382 . S
C244 H246 0.948 . S
H245 C243 0.952 . S
H246 C244 0.948 . S
H247 C236 0.952 . S
H248 C238 0.948 . S
C249 C215 1.395 . S
C249 C219 1.391 . S
C250 C212 1.389 . S
C250 C232 1.392 . S
C251 C222 1.392 . S
C251 C224 1.389 . S
C252 C227 1.395 . S
C252 C229 1.391 . S
H253 C213 0.951 . S
H254 C214 0.950 . S
H255 C220 0.949 . S
H256 C221 0.950 . S
H257 C225 0.951 . S
H258 C226 0.950 . S
H259 C230 0.949 . S
H260 C231 0.950 . S
H261 C235 0.950 . S
H262 C237 0.950 . S
H263 C240 0.950 . S
H264 C242 0.950 . S
C265 C266 1.443 . S
C265 N269 1.376 . S
C265 C303 1.389 . S
C266 C265 1.443 . S
C266 C267 1.340 . S
C266 H306 0.951 . S
C267 C266 1.340 . S
C267 C268 1.439 . S
C267 H307 0.950 . S
C268 C267 1.439 . S
C268 N269 1.374 . S
C268 C302 1.395 . S
N269 C265 1.376 . S
N269 C268 1.374 . S
N269 Co270 2.008 . S
Co270 N269 2.008 . S
Co270 N271 1.995 . S
Co270 N276 2.008 . S
Co270 N281 1.995 . S
Co270 N286 2.282 . S
Co270 N292 2.282 . S
N271 Co270 1.995 . S
N271 C272 1.376 . S
N271 C275 1.383 . S
C272 N271 1.376 . S
C272 C273 1.446 . S
C272 C302 1.391 . S
C273 C272 1.446 . S
C273 C274 1.339 . S
C273 H308 0.949 . S
C274 C273 1.339 . S
C274 C275 1.439 . S
C274 H309 0.950 . S
C275 N271 1.383 . S
C275 C274 1.439 . S
C275 C304 1.392 . S
N276 Co270 2.008 . S
N276 C277 1.376 . S
N276 C280 1.374 . S
C277 N276 1.376 . S
C277 C278 1.443 . S
C277 C304 1.389 . S
C278 C277 1.443 . S
C278 C279 1.340 . S
C278 H310 0.951 . S
C279 C278 1.340 . S
C279 C280 1.439 . S
C279 H311 0.950 . S
C280 N276 1.374 . S
C280 C279 1.439 . S
C280 C305 1.395 . S
N281 Co270 1.995 . S
N281 C282 1.376 . S
N281 C285 1.383 . S
C282 N281 1.376 . S
C282 C283 1.446 . S
C282 C305 1.391 . S
C283 C282 1.446 . S
C283 C284 1.339 . S
C283 H312 0.949 . S
C284 C283 1.339 . S
C284 C285 1.439 . S
C284 H313 0.950 . S
C285 N281 1.383 . S
C285 C284 1.439 . S
C285 C303 1.392 . S
N286 Co270 2.282 . S
N286 C289 1.332 . S
N286 C291 1.332 . S
C287 C288 1.386 . S
C287 C290 1.388 . S
C288 C287 1.386 . S
C288 C289 1.382 . S
C288 H314 0.950 . S
C289 N286 1.332 . S
C289 C288 1.382 . S
C289 H300 0.952 . S
C290 C287 1.388 . S
C290 C291 1.382 . S
C290 H315 0.950 . S
C291 N286 1.332 . S
C291 C290 1.382 . S
C291 H301 0.948 . S
N292 Co270 2.282 . S
N292 C296 1.332 . S
N292 C297 1.332 . S
C293 C294 1.388 . S
C293 C297 1.382 . S
C293 H316 0.950 . S
C294 C293 1.388 . S
C294 C295 1.386 . S
C295 C294 1.386 . S
C295 C296 1.382 . S
C295 H317 0.950 . S
C296 N292 1.332 . S
C296 C295 1.382 . S
C296 H298 0.952 . S
C297 N292 1.332 . S
C297 C293 1.382 . S
C297 H299 0.948 . S
H298 C296 0.952 . S
H299 C297 0.948 . S
H300 C289 0.952 . S
H301 C291 0.948 . S
C302 C268 1.395 . S
C302 C272 1.391 . S
C303 C265 1.389 . S
C303 C285 1.392 . S
C304 C275 1.392 . S
C304 C277 1.389 . S
C305 C280 1.395 . S
C305 C282 1.391 . S
H306 C266 0.951 . S
H307 C267 0.950 . S
H308 C273 0.949 . S
H309 C274 0.950 . S
H310 C278 0.951 . S
H311 C279 0.950 . S
H312 C283 0.949 . S
H313 C284 0.950 . S
H314 C288 0.950 . S
H315 C290 0.950 . S
H316 C293 0.950 . S
H317 C295 0.950 . S
C318 C319 1.443 . S
C318 N322 1.376 . S
C318 C356 1.389 . S
C319 C318 1.443 . S
C319 C320 1.340 . S
C319 H359 0.951 . S
C320 C319 1.340 . S
C320 C321 1.439 . S
C320 H360 0.950 . S
C321 C320 1.439 . S
C321 N322 1.374 . S
C321 C355 1.395 . S
N322 C318 1.376 . S
N322 C321 1.374 . S
N322 Co323 2.008 . S
Co323 N322 2.008 . S
Co323 N324 1.995 . S
Co323 N329 2.008 . S
Co323 N334 1.995 . S
Co323 N339 2.282 . S
Co323 N345 2.282 . S
N324 Co323 1.995 . S
N324 C325 1.376 . S
N324 C328 1.383 . S
C325 N324 1.376 . S
C325 C326 1.446 . S
C325 C355 1.391 . S
C326 C325 1.446 . S
C326 C327 1.339 . S
C326 H361 0.949 . S
C327 C326 1.339 . S
C327 C328 1.439 . S
C327 H362 0.950 . S
C328 N324 1.383 . S
C328 C327 1.439 . S
C328 C357 1.392 . S
N329 Co323 2.008 . S
N329 C330 1.376 . S
N329 C333 1.374 . S
C330 N329 1.376 . S
C330 C331 1.443 . S
C330 C357 1.389 . S
C331 C330 1.443 . S
C331 C332 1.340 . S
C331 H363 0.951 . S
C332 C331 1.340 . S
C332 C333 1.439 . S
C332 H364 0.950 . S
C333 N329 1.374 . S
C333 C332 1.439 . S
C333 C358 1.395 . S
N334 Co323 1.995 . S
N334 C335 1.376 . S
N334 C338 1.383 . S
C335 N334 1.376 . S
C335 C336 1.446 . S
C335 C358 1.391 . S
C336 C335 1.446 . S
C336 C337 1.339 . S
C336 H365 0.949 . S
C337 C336 1.339 . S
C337 C338 1.439 . S
C337 H366 0.950 . S
C338 N334 1.383 . S
C338 C337 1.439 . S
C338 C356 1.392 . S
N339 Co323 2.282 . S
N339 C342 1.332 . S
N339 C344 1.332 . S
C340 C341 1.386 . S
C340 C343 1.388 . S
C341 C340 1.386 . S
C341 C342 1.382 . S
C341 H367 0.950 . S
C342 N339 1.332 . S
C342 C341 1.382 . S
C342 H353 0.952 . S
C343 C340 1.388 . S
C343 C344 1.382 . S
C343 H368 0.950 . S
C344 N339 1.332 . S
C344 C343 1.382 . S
C344 H354 0.948 . S
N345 Co323 2.282 . S
N345 C349 1.332 . S
N345 C350 1.332 . S
C346 C347 1.388 . S
C346 C350 1.382 . S
C346 H369 0.950 . S
C347 C346 1.388 . S
C347 C348 1.386 . S
C348 C347 1.386 . S
C348 C349 1.382 . S
C348 H370 0.950 . S
C349 N345 1.332 . S
C349 C348 1.382 . S
C349 H351 0.952 . S
C350 N345 1.332 . S
C350 C346 1.382 . S
C350 H352 0.948 . S
H351 C349 0.952 . S
H352 C350 0.948 . S
H353 C342 0.952 . S
H354 C344 0.948 . S
C355 C321 1.395 . S
C355 C325 1.391 . S
C356 C318 1.389 . S
C356 C338 1.392 . S
C357 C328 1.392 . S
C357 C330 1.389 . S
C358 C333 1.395 . S
C358 C335 1.391 . S
H359 C319 0.951 . S
H360 C320 0.950 . S
H361 C326 0.949 . S
H362 C327 0.950 . S
H363 C331 0.951 . S
H364 C332 0.950 . S
H365 C336 0.949 . S
H366 C337 0.950 . S
H367 C341 0.950 . S
H368 C343 0.950 . S
H369 C346 0.950 . S
H370 C348 0.950 . S
C371 C372 1.443 . S
C371 N375 1.376 . S
C371 C409 1.389 . S
C372 C371 1.443 . S
C372 C373 1.340 . S
C372 H412 0.951 . S
C373 C372 1.340 . S
C373 C374 1.439 . S
C373 H413 0.950 . S
C374 C373 1.439 . S
C374 N375 1.374 . S
C374 C408 1.395 . S
N375 C371 1.376 . S
N375 C374 1.374 . S
N375 Co376 2.008 . S
Co376 N375 2.008 . S
Co376 N377 1.995 . S
Co376 N382 2.008 . S
Co376 N387 1.995 . S
Co376 N392 2.282 . S
Co376 N398 2.282 . S
N377 Co376 1.995 . S
N377 C378 1.376 . S
N377 C381 1.383 . S
C378 N377 1.376 . S
C378 C379 1.446 . S
C378 C408 1.391 . S
C379 C378 1.446 . S
C379 C380 1.339 . S
C379 H414 0.949 . S
C380 C379 1.339 . S
C380 C381 1.439 . S
C380 H415 0.950 . S
C381 N377 1.383 . S
C381 C380 1.439 . S
C381 C410 1.392 . S
N382 Co376 2.008 . S
N382 C383 1.376 . S
N382 C386 1.374 . S
C383 N382 1.376 . S
C383 C384 1.443 . S
C383 C410 1.389 . S
C384 C383 1.443 . S
C384 C385 1.340 . S
C384 H416 0.951 . S
C385 C384 1.340 . S
C385 C386 1.439 . S
C385 H417 0.950 . S
C386 N382 1.374 . S
C386 C385 1.439 . S
C386 C411 1.395 . S
N387 Co376 1.995 . S
N387 C388 1.376 . S
N387 C391 1.383 . S
C388 N387 1.376 . S
C388 C389 1.446 . S
C388 C411 1.391 . S
C389 C388 1.446 . S
C389 C390 1.339 . S
C389 H418 0.949 . S
C390 C389 1.339 . S
C390 C391 1.439 . S
C390 H419 0.950 . S
C391 N387 1.383 . S
C391 C390 1.439 . S
C391 C409 1.392 . S
N392 Co376 2.282 . S
N392 C395 1.332 . S
N392 C397 1.332 . S
C393 C394 1.386 . S
C393 C396 1.388 . S
C394 C393 1.386 . S
C394 C395 1.382 . S
C394 H420 0.950 . S
C395 N392 1.332 . S
C395 C394 1.382 . S
C395 H406 0.952 . S
C396 C393 1.388 . S
C396 C397 1.382 . S
C396 H421 0.950 . S
C397 N392 1.332 . S
C397 C396 1.382 . S
C397 H407 0.948 . S
N398 Co376 2.282 . S
N398 C402 1.332 . S
N398 C403 1.332 . S
C399 C400 1.388 . S
C399 C403 1.382 . S
C399 H422 0.950 . S
C400 C399 1.388 . S
C400 C401 1.386 . S
C401 C400 1.386 . S
C401 C402 1.382 . S
C401 H423 0.950 . S
C402 N398 1.332 . S
C402 C401 1.382 . S
C402 H404 0.952 . S
C403 N398 1.332 . S
C403 C399 1.382 . S
C403 H405 0.948 . S
H404 C402 0.952 . S
H405 C403 0.948 . S
H406 C395 0.952 . S
H407 C397 0.948 . S
C408 C374 1.395 . S
C408 C378 1.391 . S
C409 C371 1.389 . S
C409 C391 1.392 . S
C410 C381 1.392 . S
C410 C383 1.389 . S
C411 C386 1.395 . S
C411 C388 1.391 . S
H412 C372 0.951 . S
H413 C373 0.950 . S
H414 C379 0.949 . S
H415 C380 0.950 . S
H416 C384 0.951 . S
H417 C385 0.950 . S
H418 C389 0.949 . S
H419 C390 0.950 . S
H420 C394 0.950 . S
H421 C396 0.950 . S
H422 C399 0.950 . S
H423 C401 0.950 . S
C424 C425 1.443 . S
C424 N428 1.376 . S
C424 C462 1.389 . S
C425 C424 1.443 . S
C425 C426 1.340 . S
C425 H465 0.951 . S
C426 C425 1.340 . S
C426 C427 1.439 . S
C426 H466 0.950 . S
C427 C426 1.439 . S
C427 N428 1.374 . S
C427 C461 1.395 . S
N428 C424 1.376 . S
N428 C427 1.374 . S
N428 Co429 2.008 . S
Co429 N428 2.008 . S
Co429 N430 1.995 . S
Co429 N435 2.008 . S
Co429 N440 1.995 . S
Co429 N445 2.282 . S
Co429 N451 2.282 . S
N430 Co429 1.995 . S
N430 C431 1.376 . S
N430 C434 1.383 . S
C431 N430 1.376 . S
C431 C432 1.446 . S
C431 C461 1.391 . S
C432 C431 1.446 . S
C432 C433 1.339 . S
C432 H467 0.949 . S
C433 C432 1.339 . S
C433 C434 1.439 . S
C433 H468 0.950 . S
C434 N430 1.383 . S
C434 C433 1.439 . S
C434 C463 1.392 . S
N435 Co429 2.008 . S
N435 C436 1.376 . S
N435 C439 1.374 . S
C436 N435 1.376 . S
C436 C437 1.443 . S
C436 C463 1.389 . S
C437 C436 1.443 . S
C437 C438 1.340 . S
C437 H469 0.951 . S
C438 C437 1.340 . S
C438 C439 1.439 . S
C438 H470 0.950 . S
C439 N435 1.374 . S
C439 C438 1.439 . S
C439 C464 1.395 . S
N440 Co429 1.995 . S
N440 C441 1.376 . S
N440 C444 1.383 . S
C441 N440 1.376 . S
C441 C442 1.446 . S
C441 C464 1.391 . S
C442 C441 1.446 . S
C442 C443 1.339 . S
C442 H471 0.949 . S
C443 C442 1.339 . S
C443 C444 1.439 . S
C443 H472 0.950 . S
C444 N440 1.383 . S
C444 C443 1.439 . S
C444 C462 1.392 . S
N445 Co429 2.282 . S
N445 C448 1.332 . S
N445 C450 1.332 . S
C446 C447 1.386 . S
C446 C449 1.388 . S
C447 C446 1.386 . S
C447 C448 1.382 . S
C447 H473 0.950 . S
C448 N445 1.332 . S
C448 C447 1.382 . S
C448 H459 0.952 . S
C449 C446 1.388 . S
C449 C450 1.382 . S
C449 H474 0.950 . S
C450 N445 1.332 . S
C450 C449 1.382 . S
C450 H460 0.948 . S
N451 Co429 2.282 . S
N451 C455 1.332 . S
N451 C456 1.332 . S
C452 C453 1.388 . S
C452 C456 1.382 . S
C452 H475 0.950 . S
C453 C452 1.388 . S
C453 C454 1.386 . S
C454 C453 1.386 . S
C454 C455 1.382 . S
C454 H476 0.950 . S
C455 N451 1.332 . S
C455 C454 1.382 . S
C455 H457 0.952 . S
C456 N451 1.332 . S
C456 C452 1.382 . S
C456 H458 0.948 . S
H457 C455 0.952 . S
H458 C456 0.948 . S
H459 C448 0.952 . S
H460 C450 0.948 . S
C461 C427 1.395 . S
C461 C431 1.391 . S
C462 C424 1.389 . S
C462 C444 1.392 . S
C463 C434 1.392 . S
C463 C436 1.389 . S
C464 C439 1.395 . S
C464 C441 1.391 . S
H465 C425 0.951 . S
H466 C426 0.950 . S
H467 C432 0.949 . S
H468 C433 0.950 . S
H469 C437 0.951 . S
H470 C438 0.950 . S
H471 C442 0.949 . S
H472 C443 0.950 . S
H473 C447 0.950 . S
H474 C449 0.950 . S
H475 C452 0.950 . S
H476 C454 0.950 . S
C477 C478 1.443 . S
C477 N481 1.376 . S
C477 C515 1.389 . S
C478 C477 1.443 . S
C478 C479 1.340 . S
C478 H518 0.951 . S
C479 C478 1.340 . S
C479 C480 1.439 . S
C479 H519 0.950 . S
C480 C479 1.439 . S
C480 N481 1.374 . S
C480 C514 1.395 . S
N481 C477 1.376 . S
N481 C480 1.374 . S
N481 Co482 2.008 . S
Co482 N481 2.008 . S
Co482 N483 1.995 . S
Co482 N488 2.008 . S
Co482 N493 1.995 . S
Co482 N498 2.282 . S
Co482 N504 2.282 . S
N483 Co482 1.995 . S
N483 C484 1.376 . S
N483 C487 1.383 . S
C484 N483 1.376 . S
C484 C485 1.446 . S
C484 C514 1.391 . S
C485 C484 1.446 . S
C485 C486 1.339 . S
C485 H520 0.949 . S
C486 C485 1.339 . S
C486 C487 1.439 . S
C486 H521 0.950 . S
C487 N483 1.383 . S
C487 C486 1.439 . S
C487 C516 1.392 . S
N488 Co482 2.008 . S
N488 C489 1.376 . S
N488 C492 1.374 . S
C489 N488 1.376 . S
C489 C490 1.443 . S
C489 C516 1.389 . S
C490 C489 1.443 . S
C490 C491 1.340 . S
C490 H522 0.951 . S
C491 C490 1.340 . S
C491 C492 1.439 . S
C491 H523 0.950 . S
C492 N488 1.374 . S
C492 C491 1.439 . S
C492 C517 1.395 . S
N493 Co482 1.995 . S
N493 C494 1.376 . S
N493 C497 1.383 . S
C494 N493 1.376 . S
C494 C495 1.446 . S
C494 C517 1.391 . S
C495 C494 1.446 . S
C495 C496 1.339 . S
C495 H524 0.949 . S
C496 C495 1.339 . S
C496 C497 1.439 . S
C496 H525 0.950 . S
C497 N493 1.383 . S
C497 C496 1.439 . S
C497 C515 1.392 . S
N498 Co482 2.282 . S
N498 C501 1.332 . S
N498 C503 1.332 . S
C499 C500 1.386 . S
C499 C502 1.388 . S
C500 C499 1.386 . S
C500 C501 1.382 . S
C500 H526 0.950 . S
C501 N498 1.332 . S
C501 C500 1.382 . S
C501 H512 0.952 . S
C502 C499 1.388 . S
C502 C503 1.382 . S
C502 H527 0.950 . S
C503 N498 1.332 . S
C503 C502 1.382 . S
C503 H513 0.948 . S
N504 Co482 2.282 . S
N504 C508 1.332 . S
N504 C509 1.332 . S
C505 C506 1.388 . S
C505 C509 1.382 . S
C505 H528 0.950 . S
C506 C505 1.388 . S
C506 C507 1.386 . S
C507 C506 1.386 . S
C507 C508 1.382 . S
C507 H529 0.950 . S
C508 N504 1.332 . S
C508 C507 1.382 . S
C508 H510 0.952 . S
C509 N504 1.332 . S
C509 C505 1.382 . S
C509 H511 0.948 . S
H510 C508 0.952 . S
H511 C509 0.948 . S
H512 C501 0.952 . S
H513 C503 0.948 . S
C514 C480 1.395 . S
C514 C484 1.391 . S
C515 C477 1.389 . S
C515 C497 1.392 . S
C516 C487 1.392 . S
C516 C489 1.389 . S
C517 C492 1.395 . S
C517 C494 1.391 . S
H518 C478 0.951 . S
H519 C479 0.950 . S
H520 C485 0.949 . S
H521 C486 0.950 . S
H522 C490 0.951 . S
H523 C491 0.950 . S
H524 C495 0.949 . S
H525 C496 0.950 . S
H526 C500 0.950 . S
H527 C502 0.950 . S
H528 C505 0.950 . S
H529 C507 0.950 . S
C530 C531 1.443 . S
C530 N534 1.376 . S
C530 C568 1.389 . S
C531 C530 1.443 . S
C531 C532 1.340 . S
C531 H571 0.951 . S
C532 C531 1.340 . S
C532 C533 1.439 . S
C532 H572 0.950 . S
C533 C532 1.439 . S
C533 N534 1.374 . S
C533 C567 1.395 . S
N534 C530 1.376 . S
N534 C533 1.374 . S
N534 Co535 2.008 . S
Co535 N534 2.008 . S
Co535 N536 1.995 . S
Co535 N541 2.008 . S
Co535 N546 1.995 . S
Co535 N551 2.282 . S
Co535 N557 2.282 . S
N536 Co535 1.995 . S
N536 C537 1.376 . S
N536 C540 1.383 . S
C537 N536 1.376 . S
C537 C538 1.446 . S
C537 C567 1.391 . S
C538 C537 1.446 . S
C538 C539 1.339 . S
C538 H573 0.949 . S
C539 C538 1.339 . S
C539 C540 1.439 . S
C539 H574 0.950 . S
C540 N536 1.383 . S
C540 C539 1.439 . S
C540 C569 1.392 . S
N541 Co535 2.008 . S
N541 C542 1.376 . S
N541 C545 1.374 . S
C542 N541 1.376 . S
C542 C543 1.443 . S
C542 C569 1.389 . S
C543 C542 1.443 . S
C543 C544 1.340 . S
C543 H575 0.951 . S
C544 C543 1.340 . S
C544 C545 1.439 . S
C544 H576 0.950 . S
C545 N541 1.374 . S
C545 C544 1.439 . S
C545 C570 1.395 . S
N546 Co535 1.995 . S
N546 C547 1.376 . S
N546 C550 1.383 . S
C547 N546 1.376 . S
C547 C548 1.446 . S
C547 C570 1.391 . S
C548 C547 1.446 . S
C548 C549 1.339 . S
C548 H577 0.949 . S
C549 C548 1.339 . S
C549 C550 1.439 . S
C549 H578 0.950 . S
C550 N546 1.383 . S
C550 C549 1.439 . S
C550 C568 1.392 . S
N551 Co535 2.282 . S
N551 C554 1.332 . S
N551 C556 1.332 . S
C552 C553 1.386 . S
C552 C555 1.388 . S
C553 C552 1.386 . S
C553 C554 1.382 . S
C553 H579 0.950 . S
C554 N551 1.332 . S
C554 C553 1.382 . S
C554 H565 0.952 . S
C555 C552 1.388 . S
C555 C556 1.382 . S
C555 H580 0.950 . S
C556 N551 1.332 . S
C556 C555 1.382 . S
C556 H566 0.948 . S
N557 Co535 2.282 . S
N557 C561 1.332 . S
N557 C562 1.332 . S
C558 C559 1.388 . S
C558 C562 1.382 . S
C558 H581 0.950 . S
C559 C558 1.388 . S
C559 C560 1.386 . S
C560 C559 1.386 . S
C560 C561 1.382 . S
C560 H582 0.950 . S
C561 N557 1.332 . S
C561 C560 1.382 . S
C561 H563 0.952 . S
C562 N557 1.332 . S
C562 C558 1.382 . S
C562 H564 0.948 . S
H563 C561 0.952 . S
H564 C562 0.948 . S
H565 C554 0.952 . S
H566 C556 0.948 . S
C567 C533 1.395 . S
C567 C537 1.391 . S
C568 C530 1.389 . S
C568 C550 1.392 . S
C569 C540 1.392 . S
C569 C542 1.389 . S
C570 C545 1.395 . S
C570 C547 1.391 . S
H571 C531 0.951 . S
H572 C532 0.950 . S
H573 C538 0.949 . S
H574 C539 0.950 . S
H575 C543 0.951 . S
H576 C544 0.950 . S
H577 C548 0.949 . S
H578 C549 0.950 . S
H579 C553 0.950 . S
H580 C555 0.950 . S
H581 C558 0.950 . S
H582 C560 0.950 . S
C583 C584 1.443 . S
C583 N587 1.376 . S
C583 C621 1.389 . S
C584 C583 1.443 . S
C584 C585 1.340 . S
C584 H624 0.951 . S
C585 C584 1.340 . S
C585 C586 1.439 . S
C585 H625 0.950 . S
C586 C585 1.439 . S
C586 N587 1.374 . S
C586 C620 1.395 . S
N587 C583 1.376 . S
N587 C586 1.374 . S
N587 Co588 2.008 . S
Co588 N587 2.008 . S
Co588 N589 1.995 . S
Co588 N594 2.008 . S
Co588 N599 1.995 . S
Co588 N604 2.282 . S
Co588 N610 2.282 . S
N589 Co588 1.995 . S
N589 C590 1.376 . S
N589 C593 1.383 . S
C590 N589 1.376 . S
C590 C591 1.446 . S
C590 C620 1.391 . S
C591 C590 1.446 . S
C591 C592 1.339 . S
C591 H626 0.949 . S
C592 C591 1.339 . S
C592 C593 1.439 . S
C592 H627 0.950 . S
C593 N589 1.383 . S
C593 C592 1.439 . S
C593 C622 1.392 . S
N594 Co588 2.008 . S
N594 C595 1.376 . S
N594 C598 1.374 . S
C595 N594 1.376 . S
C595 C596 1.443 . S
C595 C622 1.389 . S
C596 C595 1.443 . S
C596 C597 1.340 . S
C596 H628 0.951 . S
C597 C596 1.340 . S
C597 C598 1.439 . S
C597 H629 0.950 . S
C598 N594 1.374 . S
C598 C597 1.439 . S
C598 C623 1.395 . S
N599 Co588 1.995 . S
N599 C600 1.376 . S
N599 C603 1.383 . S
C600 N599 1.376 . S
C600 C601 1.446 . S
C600 C623 1.391 . S
C601 C600 1.446 . S
C601 C602 1.339 . S
C601 H630 0.949 . S
C602 C601 1.339 . S
C602 C603 1.439 . S
C602 H631 0.950 . S
C603 N599 1.383 . S
C603 C602 1.439 . S
C603 C621 1.392 . S
N604 Co588 2.282 . S
N604 C607 1.332 . S
N604 C609 1.332 . S
C605 C606 1.386 . S
C605 C608 1.388 . S
C606 C605 1.386 . S
C606 C607 1.382 . S
C606 H632 0.950 . S
C607 N604 1.332 . S
C607 C606 1.382 . S
C607 H618 0.952 . S
C608 C605 1.388 . S
C608 C609 1.382 . S
C608 H633 0.950 . S
C609 N604 1.332 . S
C609 C608 1.382 . S
C609 H619 0.948 . S
N610 Co588 2.282 . S
N610 C614 1.332 . S
N610 C615 1.332 . S
C611 C612 1.388 . S
C611 C615 1.382 . S
C611 H634 0.950 . S
C612 C611 1.388 . S
C612 C613 1.386 . S
C613 C612 1.386 . S
C613 C614 1.382 . S
C613 H635 0.950 . S
C614 N610 1.332 . S
C614 C613 1.382 . S
C614 H616 0.952 . S
C615 N610 1.332 . S
C615 C611 1.382 . S
C615 H617 0.948 . S
H616 C614 0.952 . S
H617 C615 0.948 . S
H618 C607 0.952 . S
H619 C609 0.948 . S
C620 C586 1.395 . S
C620 C590 1.391 . S
C621 C583 1.389 . S
C621 C603 1.392 . S
C622 C593 1.392 . S
C622 C595 1.389 . S
C623 C598 1.395 . S
C623 C600 1.391 . S
H624 C584 0.951 . S
H625 C585 0.950 . S
H626 C591 0.949 . S
H627 C592 0.950 . S
H628 C596 0.951 . S
H629 C597 0.950 . S
H630 C601 0.949 . S
H631 C602 0.950 . S
H632 C606 0.950 . S
H633 C608 0.950 . S
H634 C611 0.950 . S
H635 C613 0.950 . S
C636 C637 1.443 . S
C636 N640 1.376 . S
C636 C674 1.389 . S
C637 C636 1.443 . S
C637 C638 1.340 . S
C637 H677 0.951 . S
C638 C637 1.340 . S
C638 C639 1.439 . S
C638 H678 0.950 . S
C639 C638 1.439 . S
C639 N640 1.374 . S
C639 C673 1.395 . S
N640 C636 1.376 . S
N640 C639 1.374 . S
N640 Co641 2.008 . S
Co641 N640 2.008 . S
Co641 N642 1.995 . S
Co641 N647 2.008 . S
Co641 N652 1.995 . S
Co641 N657 2.282 . S
Co641 N663 2.282 . S
N642 Co641 1.995 . S
N642 C643 1.376 . S
N642 C646 1.383 . S
C643 N642 1.376 . S
C643 C644 1.446 . S
C643 C673 1.391 . S
C644 C643 1.446 . S
C644 C645 1.339 . S
C644 H679 0.949 . S
C645 C644 1.339 . S
C645 C646 1.439 . S
C645 H680 0.950 . S
C646 N642 1.383 . S
C646 C645 1.439 . S
C646 C675 1.392 . S
N647 Co641 2.008 . S
N647 C648 1.376 . S
N647 C651 1.374 . S
C648 N647 1.376 . S
C648 C649 1.443 . S
C648 C675 1.389 . S
C649 C648 1.443 . S
C649 C650 1.340 . S
C649 H681 0.951 . S
C650 C649 1.340 . S
C650 C651 1.439 . S
C650 H682 0.950 . S
C651 N647 1.374 . S
C651 C650 1.439 . S
C651 C676 1.395 . S
N652 Co641 1.995 . S
N652 C653 1.376 . S
N652 C656 1.383 . S
C653 N652 1.376 . S
C653 C654 1.446 . S
C653 C676 1.391 . S
C654 C653 1.446 . S
C654 C655 1.339 . S
C654 H683 0.949 . S
C655 C654 1.339 . S
C655 C656 1.439 . S
C655 H684 0.950 . S
C656 N652 1.383 . S
C656 C655 1.439 . S
C656 C674 1.392 . S
N657 Co641 2.282 . S
N657 C660 1.332 . S
N657 C662 1.332 . S
C658 C659 1.386 . S
C658 C661 1.388 . S
C659 C658 1.386 . S
C659 C660 1.382 . S
C659 H685 0.950 . S
C660 N657 1.332 . S
C660 C659 1.382 . S
C660 H671 0.952 . S
C661 C658 1.388 . S
C661 C662 1.382 . S
C661 H686 0.950 . S
C662 N657 1.332 . S
C662 C661 1.382 . S
C662 H672 0.948 . S
N663 Co641 2.282 . S
N663 C667 1.332 . S
N663 C668 1.332 . S
C664 C665 1.388 . S
C664 C668 1.382 . S
C664 H687 0.950 . S
C665 C664 1.388 . S
C665 C666 1.386 . S
C666 C665 1.386 . S
C666 C667 1.382 . S
C666 H688 0.950 . S
C667 N663 1.332 . S
C667 C666 1.382 . S
C667 H669 0.952 . S
C668 N663 1.332 . S
C668 C664 1.382 . S
C668 H670 0.948 . S
H669 C667 0.952 . S
H670 C668 0.948 . S
H671 C660 0.952 . S
H672 C662 0.948 . S
C673 C639 1.395 . S
C673 C643 1.391 . S
C674 C636 1.389 . S
C674 C656 1.392 . S
C675 C646 1.392 . S
C675 C648 1.389 . S
C676 C651 1.395 . S
C676 C653 1.391 . S
H677 C637 0.951 . S
H678 C638 0.950 . S
H679 C644 0.949 . S
H680 C645 0.950 . S
H681 C649 0.951 . S
H682 C650 0.950 . S
H683 C654 0.949 . S
H684 C655 0.950 . S
H685 C659 0.950 . S
H686 C661 0.950 . S
H687 C664 0.950 . S
H688 C666 0.950 . S
C689 C690 1.443 . S
C689 N693 1.376 . S
C689 C727 1.389 . S
C690 C689 1.443 . S
C690 C691 1.340 . S
C690 H730 0.951 . S
C691 C690 1.340 . S
C691 C692 1.439 . S
C691 H731 0.950 . S
C692 C691 1.439 . S
C692 N693 1.374 . S
C692 C726 1.395 . S
N693 C689 1.376 . S
N693 C692 1.374 . S
N693 Co694 2.008 . S
Co694 N693 2.008 . S
Co694 N695 1.995 . S
Co694 N700 2.008 . S
Co694 N705 1.995 . S
Co694 N710 2.282 . S
Co694 N716 2.282 . S
N695 Co694 1.995 . S
N695 C696 1.376 . S
N695 C699 1.383 . S
C696 N695 1.376 . S
C696 C697 1.446 . S
C696 C726 1.391 . S
C697 C696 1.446 . S
C697 C698 1.339 . S
C697 H732 0.949 . S
C698 C697 1.339 . S
C698 C699 1.439 . S
C698 H733 0.950 . S
C699 N695 1.383 . S
C699 C698 1.439 . S
C699 C728 1.392 . S
N700 Co694 2.008 . S
N700 C701 1.376 . S
N700 C704 1.374 . S
C701 N700 1.376 . S
C701 C702 1.443 . S
C701 C728 1.389 . S
C702 C701 1.443 . S
C702 C703 1.340 . S
C702 H734 0.951 . S
C703 C702 1.340 . S
C703 C704 1.439 . S
C703 H735 0.950 . S
C704 N700 1.374 . S
C704 C703 1.439 . S
C704 C729 1.395 . S
N705 Co694 1.995 . S
N705 C706 1.376 . S
N705 C709 1.383 . S
C706 N705 1.376 . S
C706 C707 1.446 . S
C706 C729 1.391 . S
C707 C706 1.446 . S
C707 C708 1.339 . S
C707 H736 0.949 . S
C708 C707 1.339 . S
C708 C709 1.439 . S
C708 H737 0.950 . S
C709 N705 1.383 . S
C709 C708 1.439 . S
C709 C727 1.392 . S
N710 Co694 2.282 . S
N710 C713 1.332 . S
N710 C715 1.332 . S
C711 C712 1.386 . S
C711 C714 1.388 . S
C712 C711 1.386 . S
C712 C713 1.382 . S
C712 H738 0.950 . S
C713 N710 1.332 . S
C713 C712 1.382 . S
C713 H724 0.952 . S
C714 C711 1.388 . S
C714 C715 1.382 . S
C714 H739 0.950 . S
C715 N710 1.332 . S
C715 C714 1.382 . S
C715 H725 0.948 . S
N716 Co694 2.282 . S
N716 C720 1.332 . S
N716 C721 1.332 . S
C717 C718 1.388 . S
C717 C721 1.382 . S
C717 H740 0.950 . S
C718 C717 1.388 . S
C718 C719 1.386 . S
C719 C718 1.386 . S
C719 C720 1.382 . S
C719 H741 0.950 . S
C720 N716 1.332 . S
C720 C719 1.382 . S
C720 H722 0.952 . S
C721 N716 1.332 . S
C721 C717 1.382 . S
C721 H723 0.948 . S
H722 C720 0.952 . S
H723 C721 0.948 . S
H724 C713 0.952 . S
H725 C715 0.948 . S
C726 C692 1.395 . S
C726 C696 1.391 . S
C727 C689 1.389 . S
C727 C709 1.392 . S
C728 C699 1.392 . S
C728 C701 1.389 . S
C729 C704 1.395 . S
C729 C706 1.391 . S
H730 C690 0.951 . S
H731 C691 0.950 . S
H732 C697 0.949 . S
H733 C698 0.950 . S
H734 C702 0.951 . S
H735 C703 0.950 . S
H736 C707 0.949 . S
H737 C708 0.950 . S
H738 C712 0.950 . S
H739 C714 0.950 . S
H740 C717 0.950 . S
H741 C719 0.950 . S
C742 C743 1.443 . S
C742 N746 1.376 . S
C742 C780 1.389 . S
C743 C742 1.443 . S
C743 C744 1.340 . S
C743 H783 0.951 . S
C744 C743 1.340 . S
C744 C745 1.439 . S
C744 H784 0.950 . S
C745 C744 1.439 . S
C745 N746 1.374 . S
C745 C779 1.395 . S
N746 C742 1.376 . S
N746 C745 1.374 . S
N746 Co747 2.008 . S
Co747 N746 2.008 . S
Co747 N748 1.995 . S
Co747 N753 2.008 . S
Co747 N758 1.995 . S
Co747 N763 2.282 . S
Co747 N769 2.282 . S
N748 Co747 1.995 . S
N748 C749 1.376 . S
N748 C752 1.383 . S
C749 N748 1.376 . S
C749 C750 1.446 . S
C749 C779 1.391 . S
C750 C749 1.446 . S
C750 C751 1.339 . S
C750 H785 0.949 . S
C751 C750 1.339 . S
C751 C752 1.439 . S
C751 H786 0.950 . S
C752 N748 1.383 . S
C752 C751 1.439 . S
C752 C781 1.392 . S
N753 Co747 2.008 . S
N753 C754 1.376 . S
N753 C757 1.374 . S
C754 N753 1.376 . S
C754 C755 1.443 . S
C754 C781 1.389 . S
C755 C754 1.443 . S
C755 C756 1.340 . S
C755 H787 0.951 . S
C756 C755 1.340 . S
C756 C757 1.439 . S
C756 H788 0.950 . S
C757 N753 1.374 . S
C757 C756 1.439 . S
C757 C782 1.395 . S
N758 Co747 1.995 . S
N758 C759 1.376 . S
N758 C762 1.383 . S
C759 N758 1.376 . S
C759 C760 1.446 . S
C759 C782 1.391 . S
C760 C759 1.446 . S
C760 C761 1.339 . S
C760 H789 0.949 . S
C761 C760 1.339 . S
C761 C762 1.439 . S
C761 H790 0.950 . S
C762 N758 1.383 . S
C762 C761 1.439 . S
C762 C780 1.392 . S
N763 Co747 2.282 . S
N763 C766 1.332 . S
N763 C768 1.332 . S
C764 C765 1.386 . S
C764 C767 1.388 . S
C765 C764 1.386 . S
C765 C766 1.382 . S
C765 H791 0.950 . S
C766 N763 1.332 . S
C766 C765 1.382 . S
C766 H777 0.952 . S
C767 C764 1.388 . S
C767 C768 1.382 . S
C767 H792 0.950 . S
C768 N763 1.332 . S
C768 C767 1.382 . S
C768 H778 0.948 . S
N769 Co747 2.282 . S
N769 C773 1.332 . S
N769 C774 1.332 . S
C770 C771 1.388 . S
C770 C774 1.382 . S
C770 H793 0.950 . S
C771 C770 1.388 . S
C771 C772 1.386 . S
C772 C771 1.386 . S
C772 C773 1.382 . S
C772 H794 0.950 . S
C773 N769 1.332 . S
C773 C772 1.382 . S
C773 H775 0.952 . S
C774 N769 1.332 . S
C774 C770 1.382 . S
C774 H776 0.948 . S
H775 C773 0.952 . S
H776 C774 0.948 . S
H777 C766 0.952 . S
H778 C768 0.948 . S
C779 C745 1.395 . S
C779 C749 1.391 . S
C780 C742 1.389 . S
C780 C762 1.392 . S
C781 C752 1.392 . S
C781 C754 1.389 . S
C782 C757 1.395 . S
C782 C759 1.391 . S
H783 C743 0.951 . S
H784 C744 0.950 . S
H785 C750 0.949 . S
H786 C751 0.950 . S
H787 C755 0.951 . S
H788 C756 0.950 . S
H789 C760 0.949 . S
H790 C761 0.950 . S
H791 C765 0.950 . S
H792 C767 0.950 . S
H793 C770 0.950 . S
H794 C772 0.950 . S
C795 C796 1.443 . S
C795 N799 1.376 . S
C795 C833 1.389 . S
C796 C795 1.443 . S
C796 C797 1.340 . S
C796 H836 0.951 . S
C797 C796 1.340 . S
C797 C798 1.439 . S
C797 H837 0.950 . S
C798 C797 1.439 . S
C798 N799 1.374 . S
C798 C832 1.395 . S
N799 C795 1.376 . S
N799 C798 1.374 . S
N799 Co800 2.008 . S
Co800 N799 2.008 . S
Co800 N801 1.995 . S
Co800 N806 2.008 . S
Co800 N811 1.995 . S
Co800 N816 2.282 . S
Co800 N822 2.282 . S
N801 Co800 1.995 . S
N801 C802 1.376 . S
N801 C805 1.383 . S
C802 N801 1.376 . S
C802 C803 1.446 . S
C802 C832 1.391 . S
C803 C802 1.446 . S
C803 C804 1.339 . S
C803 H838 0.949 . S
C804 C803 1.339 . S
C804 C805 1.439 . S
C804 H839 0.950 . S
C805 N801 1.383 . S
C805 C804 1.439 . S
C805 C834 1.392 . S
N806 Co800 2.008 . S
N806 C807 1.376 . S
N806 C810 1.374 . S
C807 N806 1.376 . S
C807 C808 1.443 . S
C807 C834 1.389 . S
C808 C807 1.443 . S
C808 C809 1.340 . S
C808 H840 0.951 . S
C809 C808 1.340 . S
C809 C810 1.439 . S
C809 H841 0.950 . S
C810 N806 1.374 . S
C810 C809 1.439 . S
C810 C835 1.395 . S
N811 Co800 1.995 . S
N811 C812 1.376 . S
N811 C815 1.383 . S
C812 N811 1.376 . S
C812 C813 1.446 . S
C812 C835 1.391 . S
C813 C812 1.446 . S
C813 C814 1.339 . S
C813 H842 0.949 . S
C814 C813 1.339 . S
C814 C815 1.439 . S
C814 H843 0.950 . S
C815 N811 1.383 . S
C815 C814 1.439 . S
C815 C833 1.392 . S
N816 Co800 2.282 . S
N816 C819 1.332 . S
N816 C821 1.332 . S
C817 C818 1.386 . S
C817 C820 1.388 . S
C818 C817 1.386 . S
C818 C819 1.382 . S
C818 H844 0.950 . S
C819 N816 1.332 . S
C819 C818 1.382 . S
C819 H830 0.952 . S
C820 C817 1.388 . S
C820 C821 1.382 . S
C820 H845 0.950 . S
C821 N816 1.332 . S
C821 C820 1.382 . S
C821 H831 0.948 . S
N822 Co800 2.282 . S
N822 C826 1.332 . S
N822 C827 1.332 . S
C823 C824 1.388 . S
C823 C827 1.382 . S
C823 H846 0.950 . S
C824 C823 1.388 . S
C824 C825 1.386 . S
C825 C824 1.386 . S
C825 C826 1.382 . S
C825 H847 0.950 . S
C826 N822 1.332 . S
C826 C825 1.382 . S
C826 H828 0.952 . S
C827 N822 1.332 . S
C827 C823 1.382 . S
C827 H829 0.948 . S
H828 C826 0.952 . S
H829 C827 0.948 . S
H830 C819 0.952 . S
H831 C821 0.948 . S
C832 C798 1.395 . S
C832 C802 1.391 . S
C833 C795 1.389 . S
C833 C815 1.392 . S
C834 C805 1.392 . S
C834 C807 1.389 . S
C835 C810 1.395 . S
C835 C812 1.391 . S
H836 C796 0.951 . S
H837 C797 0.950 . S
H838 C803 0.949 . S
H839 C804 0.950 . S
H840 C808 0.951 . S
H841 C809 0.950 . S
H842 C813 0.949 . S
H843 C814 0.950 . S
H844 C818 0.950 . S
H845 C820 0.950 . S
H846 C823 0.950 . S
H847 C825 0.950 . S
C848 C849 1.443 . S
C848 N852 1.376 . S
C848 C886 1.389 . S
C849 C848 1.443 . S
C849 C850 1.340 . S
C849 H889 0.951 . S
C850 C849 1.340 . S
C850 C851 1.439 . S
C850 H890 0.950 . S
C851 C850 1.439 . S
C851 N852 1.374 . S
C851 C885 1.395 . S
N852 C848 1.376 . S
N852 C851 1.374 . S
N852 Co853 2.008 . S
Co853 N852 2.008 . S
Co853 N854 1.995 . S
Co853 N859 2.008 . S
Co853 N864 1.995 . S
Co853 N869 2.282 . S
Co853 N875 2.282 . S
N854 Co853 1.995 . S
N854 C855 1.376 . S
N854 C858 1.383 . S
C855 N854 1.376 . S
C855 C856 1.446 . S
C855 C885 1.391 . S
C856 C855 1.446 . S
C856 C857 1.339 . S
C856 H891 0.949 . S
C857 C856 1.339 . S
C857 C858 1.439 . S
C857 H892 0.950 . S
C858 N854 1.383 . S
C858 C857 1.439 . S
C858 C887 1.392 . S
N859 Co853 2.008 . S
N859 C860 1.376 . S
N859 C863 1.374 . S
C860 N859 1.376 . S
C860 C861 1.443 . S
C860 C887 1.389 . S
C861 C860 1.443 . S
C861 C862 1.340 . S
C861 H893 0.951 . S
C862 C861 1.340 . S
C862 C863 1.439 . S
C862 H894 0.950 . S
C863 N859 1.374 . S
C863 C862 1.439 . S
C863 C888 1.395 . S
N864 Co853 1.995 . S
N864 C865 1.376 . S
N864 C868 1.383 . S
C865 N864 1.376 . S
C865 C866 1.446 . S
C865 C888 1.391 . S
C866 C865 1.446 . S
C866 C867 1.339 . S
C866 H895 0.949 . S
C867 C866 1.339 . S
C867 C868 1.439 . S
C867 H896 0.950 . S
C868 N864 1.383 . S
C868 C867 1.439 . S
C868 C886 1.392 . S
N869 Co853 2.282 . S
N869 C872 1.332 . S
N869 C874 1.332 . S
C870 C871 1.386 . S
C870 C873 1.388 . S
C871 C870 1.386 . S
C871 C872 1.382 . S
C871 H897 0.950 . S
C872 N869 1.332 . S
C872 C871 1.382 . S
C872 H883 0.952 . S
C873 C870 1.388 . S
C873 C874 1.382 . S
C873 H898 0.950 . S
C874 N869 1.332 . S
C874 C873 1.382 . S
C874 H884 0.948 . S
N875 Co853 2.282 . S
N875 C879 1.332 . S
N875 C880 1.332 . S
C876 C877 1.388 . S
C876 C880 1.382 . S
C876 H899 0.950 . S
C877 C876 1.388 . S
C877 C878 1.386 . S
C878 C877 1.386 . S
C878 C879 1.382 . S
C878 H900 0.950 . S
C879 N875 1.332 . S
C879 C878 1.382 . S
C879 H881 0.952 . S
C880 N875 1.332 . S
C880 C876 1.382 . S
C880 H882 0.948 . S
H881 C879 0.952 . S
H882 C880 0.948 . S
H883 C872 0.952 . S
H884 C874 0.948 . S
C885 C851 1.395 . S
C885 C855 1.391 . S
C886 C848 1.389 . S
C886 C868 1.392 . S
C887 C858 1.392 . S
C887 C860 1.389 . S
C888 C863 1.395 . S
C888 C865 1.391 . S
H889 C849 0.951 . S
H890 C850 0.950 . S
H891 C856 0.949 . S
H892 C857 0.950 . S
H893 C861 0.951 . S
H894 C862 0.950 . S
H895 C866 0.949 . S
H896 C867 0.950 . S
H897 C871 0.950 . S
H898 C873 0.950 . S
H899 C876 0.950 . S
H900 C878 0.950 . S
C901 C902 1.443 . S
C901 N905 1.376 . S
C901 C939 1.389 . S
C902 C901 1.443 . S
C902 C903 1.340 . S
C902 H942 0.951 . S
C903 C902 1.340 . S
C903 C904 1.439 . S
C903 H943 0.950 . S
C904 C903 1.439 . S
C904 N905 1.374 . S
C904 C938 1.395 . S
N905 C901 1.376 . S
N905 C904 1.374 . S
N905 Co906 2.008 . S
Co906 N905 2.008 . S
Co906 N907 1.995 . S
Co906 N912 2.008 . S
Co906 N917 1.995 . S
Co906 N922 2.282 . S
Co906 N928 2.282 . S
N907 Co906 1.995 . S
N907 C908 1.376 . S
N907 C911 1.383 . S
C908 N907 1.376 . S
C908 C909 1.446 . S
C908 C938 1.391 . S
C909 C908 1.446 . S
C909 C910 1.339 . S
C909 H944 0.949 . S
C910 C909 1.339 . S
C910 C911 1.439 . S
C910 H945 0.950 . S
C911 N907 1.383 . S
C911 C910 1.439 . S
C911 C940 1.392 . S
N912 Co906 2.008 . S
N912 C913 1.376 . S
N912 C916 1.374 . S
C913 N912 1.376 . S
C913 C914 1.443 . S
C913 C940 1.389 . S
C914 C913 1.443 . S
C914 C915 1.340 . S
C914 H946 0.951 . S
C915 C914 1.340 . S
C915 C916 1.439 . S
C915 H947 0.950 . S
C916 N912 1.374 . S
C916 C915 1.439 . S
C916 C941 1.395 . S
N917 Co906 1.995 . S
N917 C918 1.376 . S
N917 C921 1.383 . S
C918 N917 1.376 . S
C918 C919 1.446 . S
C918 C941 1.391 . S
C919 C918 1.446 . S
C919 C920 1.339 . S
C919 H948 0.949 . S
C920 C919 1.339 . S
C920 C921 1.439 . S
C920 H949 0.950 . S
C921 N917 1.383 . S
C921 C920 1.439 . S
C921 C939 1.392 . S
N922 Co906 2.282 . S
N922 C925 1.332 . S
N922 C927 1.332 . S
C923 C924 1.386 . S
C923 C926 1.388 . S
C924 C923 1.386 . S
C924 C925 1.382 . S
C924 H950 0.950 . S
C925 N922 1.332 . S
C925 C924 1.382 . S
C925 H936 0.952 . S
C926 C923 1.388 . S
C926 C927 1.382 . S
C926 H951 0.950 . S
C927 N922 1.332 . S
C927 C926 1.382 . S
C927 H937 0.948 . S
N928 Co906 2.282 . S
N928 C932 1.332 . S
N928 C933 1.332 . S
C929 C930 1.388 . S
C929 C933 1.382 . S
C929 H952 0.950 . S
C930 C929 1.388 . S
C930 C931 1.386 . S
C931 C930 1.386 . S
C931 C932 1.382 . S
C931 H953 0.950 . S
C932 N928 1.332 . S
C932 C931 1.382 . S
C932 H934 0.952 . S
C933 N928 1.332 . S
C933 C929 1.382 . S
C933 H935 0.948 . S
H934 C932 0.952 . S
H935 C933 0.948 . S
H936 C925 0.952 . S
H937 C927 0.948 . S
C938 C904 1.395 . S
C938 C908 1.391 . S
C939 C901 1.389 . S
C939 C921 1.392 . S
C940 C911 1.392 . S
C940 C913 1.389 . S
C941 C916 1.395 . S
C941 C918 1.391 . S
H942 C902 0.951 . S
H943 C903 0.950 . S
H944 C909 0.949 . S
H945 C910 0.950 . S
H946 C914 0.951 . S
H947 C915 0.950 . S
H948 C919 0.949 . S
H949 C920 0.950 . S
H950 C924 0.950 . S
H951 C926 0.950 . S
H952 C929 0.950 . S
H953 C931 0.950 . S
C954 C955 1.443 . S
C954 N958 1.376 . S
C954 C992 1.389 . S
C955 C954 1.443 . S
C955 C956 1.340 . S
C955 H995 0.951 . S
C956 C955 1.340 . S
C956 C957 1.439 . S
C956 H996 0.950 . S
C957 C956 1.439 . S
C957 N958 1.374 . S
C957 C991 1.395 . S
N958 C954 1.376 . S
N958 C957 1.374 . S
N958 Co959 2.008 . S
Co959 N958 2.008 . S
Co959 N960 1.995 . S
Co959 N965 2.008 . S
Co959 N970 1.995 . S
Co959 N975 2.282 . S
Co959 N981 2.282 . S
N960 Co959 1.995 . S
N960 C961 1.376 . S
N960 C964 1.383 . S
C961 N960 1.376 . S
C961 C962 1.446 . S
C961 C991 1.391 . S
C962 C961 1.446 . S
C962 C963 1.339 . S
C962 H997 0.949 . S
C963 C962 1.339 . S
C963 C964 1.439 . S
C963 H998 0.950 . S
C964 N960 1.383 . S
C964 C963 1.439 . S
C964 C993 1.392 . S
N965 Co959 2.008 . S
N965 C966 1.376 . S
N965 C969 1.374 . S
C966 N965 1.376 . S
C966 C967 1.443 . S
C966 C993 1.389 . S
C967 C966 1.443 . S
C967 C968 1.340 . S
C967 H999 0.951 . S
C968 C967 1.340 . S
C968 C969 1.439 . S
C968 H1000 0.950 . S
C969 N965 1.374 . S
C969 C968 1.439 . S
C969 C994 1.395 . S
N970 Co959 1.995 . S
N970 C971 1.376 . S
N970 C974 1.383 . S
C971 N970 1.376 . S
C971 C972 1.446 . S
C971 C994 1.391 . S
C972 C971 1.446 . S
C972 C973 1.339 . S
C972 H1001 0.949 . S
C973 C972 1.339 . S
C973 C974 1.439 . S
C973 H1002 0.950 . S
C974 N970 1.383 . S
C974 C973 1.439 . S
C974 C992 1.392 . S
N975 Co959 2.282 . S
N975 C978 1.332 . S
N975 C980 1.332 . S
C976 C977 1.386 . S
C976 C979 1.388 . S
C977 C976 1.386 . S
C977 C978 1.382 . S
C977 H1003 0.950 . S
C978 N975 1.332 . S
C978 C977 1.382 . S
C978 H989 0.952 . S
C979 C976 1.388 . S
C979 C980 1.382 . S
C979 H1004 0.950 . S
C980 N975 1.332 . S
C980 C979 1.382 . S
C980 H990 0.948 . S
N981 Co959 2.282 . S
N981 C985 1.332 . S
N981 C986 1.332 . S
C982 C983 1.388 . S
C982 C986 1.382 . S
C982 H1005 0.950 . S
C983 C982 1.388 . S
C983 C984 1.386 . S
C984 C983 1.386 . S
C984 C985 1.382 . S
C984 H1006 0.950 . S
C985 N981 1.332 . S
C985 C984 1.382 . S
C985 H987 0.952 . S
C986 N981 1.332 . S
C986 C982 1.382 . S
C986 H988 0.948 . S
H987 C985 0.952 . S
H988 C986 0.948 . S
H989 C978 0.952 . S
H990 C980 0.948 . S
C991 C957 1.395 . S
C991 C961 1.391 . S
C992 C954 1.389 . S
C992 C974 1.392 . S
C993 C964 1.392 . S
C993 C966 1.389 . S
C994 C969 1.395 . S
C994 C971 1.391 . S
H995 C955 0.951 . S
H996 C956 0.950 . S
H997 C962 0.949 . S
H998 C963 0.950 . S
H999 C967 0.951 . S
H1000 C968 0.950 . S
H1001 C972 0.949 . S
H1002 C973 0.950 . S
H1003 C977 0.950 . S
H1004 C979 0.950 . S
H1005 C982 0.950 . S
H1006 C984 0.950 . S
C1007 C1008 1.443 . S
C1007 N1011 1.376 . S
C1007 C1045 1.389 . S
C1008 C1007 1.443 . S
C1008 C1009 1.340 . S
C1008 H1048 0.951 . S
C1009 C1008 1.340 . S
C1009 C1010 1.439 . S
C1009 H1049 0.950 . S
C1010 C1009 1.439 . S
C1010 N1011 1.374 . S
C1010 C1044 1.395 . S
N1011 C1007 1.376 . S
N1011 C1010 1.374 . S
N1011 Co1012 2.008 . S
Co1012 N1011 2.008 . S
Co1012 N1013 1.995 . S
Co1012 N1018 2.008 . S
Co1012 N1023 1.995 . S
Co1012 N1028 2.282 . S
Co1012 N1034 2.282 . S
N1013 Co1012 1.995 . S
N1013 C1014 1.376 . S
N1013 C1017 1.383 . S
C1014 N1013 1.376 . S
C1014 C1015 1.446 . S
C1014 C1044 1.391 . S
C1015 C1014 1.446 . S
C1015 C1016 1.339 . S
C1015 H1050 0.949 . S
C1016 C1015 1.339 . S
C1016 C1017 1.439 . S
C1016 H1051 0.950 . S
C1017 N1013 1.383 . S
C1017 C1016 1.439 . S
C1017 C1046 1.392 . S
N1018 Co1012 2.008 . S
N1018 C1019 1.376 . S
N1018 C1022 1.374 . S
C1019 N1018 1.376 . S
C1019 C1020 1.443 . S
C1019 C1046 1.389 . S
C1020 C1019 1.443 . S
C1020 C1021 1.340 . S
C1020 H1052 0.951 . S
C1021 C1020 1.340 . S
C1021 C1022 1.439 . S
C1021 H1053 0.950 . S
C1022 N1018 1.374 . S
C1022 C1021 1.439 . S
C1022 C1047 1.395 . S
N1023 Co1012 1.995 . S
N1023 C1024 1.376 . S
N1023 C1027 1.383 . S
C1024 N1023 1.376 . S
C1024 C1025 1.446 . S
C1024 C1047 1.391 . S
C1025 C1024 1.446 . S
C1025 C1026 1.339 . S
C1025 H1054 0.949 . S
C1026 C1025 1.339 . S
C1026 C1027 1.439 . S
C1026 H1055 0.950 . S
C1027 N1023 1.383 . S
C1027 C1026 1.439 . S
C1027 C1045 1.392 . S
N1028 Co1012 2.282 . S
N1028 C1031 1.332 . S
N1028 C1033 1.332 . S
C1029 C1030 1.386 . S
C1029 C1032 1.388 . S
C1030 C1029 1.386 . S
C1030 C1031 1.382 . S
C1030 H1056 0.950 . S
C1031 N1028 1.332 . S
C1031 C1030 1.382 . S
C1031 H1042 0.952 . S
C1032 C1029 1.388 . S
C1032 C1033 1.382 . S
C1032 H1057 0.950 . S
C1033 N1028 1.332 . S
C1033 C1032 1.382 . S
C1033 H1043 0.948 . S
N1034 Co1012 2.282 . S
N1034 C1038 1.332 . S
N1034 C1039 1.332 . S
C1035 C1036 1.388 . S
C1035 C1039 1.382 . S
C1035 H1058 0.950 . S
C1036 C1035 1.388 . S
C1036 C1037 1.386 . S
C1037 C1036 1.386 . S
C1037 C1038 1.382 . S
C1037 H1059 0.950 . S
C1038 N1034 1.332 . S
C1038 C1037 1.382 . S
C1038 H1040 0.952 . S
C1039 N1034 1.332 . S
C1039 C1035 1.382 . S
C1039 H1041 0.948 . S
H1040 C1038 0.952 . S
H1041 C1039 0.948 . S
H1042 C1031 0.952 . S
H1043 C1033 0.948 . S
C1044 C1010 1.395 . S
C1044 C1014 1.391 . S
C1045 C1007 1.389 . S
C1045 C1027 1.392 . S
C1046 C1017 1.392 . S
C1046 C1019 1.389 . S
C1047 C1022 1.395 . S
C1047 C1024 1.391 . S
H1048 C1008 0.951 . S
H1049 C1009 0.950 . S
H1050 C1015 0.949 . S
H1051 C1016 0.950 . S
H1052 C1020 0.951 . S
H1053 C1021 0.950 . S
H1054 C1025 0.949 . S
H1055 C1026 0.950 . S
H1056 C1030 0.950 . S
H1057 C1032 0.950 . S
H1058 C1035 0.950 . S
H1059 C1037 0.950 . S
C1060 C1061 1.443 . S
C1060 N1064 1.376 . S
C1060 C1098 1.389 . S
C1061 C1060 1.443 . S
C1061 C1062 1.340 . S
C1061 H1101 0.951 . S
C1062 C1061 1.340 . S
C1062 C1063 1.439 . S
C1062 H1102 0.950 . S
C1063 C1062 1.439 . S
C1063 N1064 1.374 . S
C1063 C1097 1.395 . S
N1064 C1060 1.376 . S
N1064 C1063 1.374 . S
N1064 Co1065 2.008 . S
Co1065 N1064 2.008 . S
Co1065 N1066 1.995 . S
Co1065 N1071 2.008 . S
Co1065 N1076 1.995 . S
Co1065 N1081 2.282 . S
Co1065 N1087 2.282 . S
N1066 Co1065 1.995 . S
N1066 C1067 1.376 . S
N1066 C1070 1.383 . S
C1067 N1066 1.376 . S
C1067 C1068 1.446 . S
C1067 C1097 1.391 . S
C1068 C1067 1.446 . S
C1068 C1069 1.339 . S
C1068 H1103 0.949 . S
C1069 C1068 1.339 . S
C1069 C1070 1.439 . S
C1069 H1104 0.950 . S
C1070 N1066 1.383 . S
C1070 C1069 1.439 . S
C1070 C1099 1.392 . S
N1071 Co1065 2.008 . S
N1071 C1072 1.376 . S
N1071 C1075 1.374 . S
C1072 N1071 1.376 . S
C1072 C1073 1.443 . S
C1072 C1099 1.389 . S
C1073 C1072 1.443 . S
C1073 C1074 1.340 . S
C1073 H1105 0.951 . S
C1074 C1073 1.340 . S
C1074 C1075 1.439 . S
C1074 H1106 0.950 . S
C1075 N1071 1.374 . S
C1075 C1074 1.439 . S
C1075 C1100 1.395 . S
N1076 Co1065 1.995 . S
N1076 C1077 1.376 . S
N1076 C1080 1.383 . S
C1077 N1076 1.376 . S
C1077 C1078 1.446 . S
C1077 C1100 1.391 . S
C1078 C1077 1.446 . S
C1078 C1079 1.339 . S
C1078 H1107 0.949 . S
C1079 C1078 1.339 . S
C1079 C1080 1.439 . S
C1079 H1108 0.950 . S
C1080 N1076 1.383 . S
C1080 C1079 1.439 . S
C1080 C1098 1.392 . S
N1081 Co1065 2.282 . S
N1081 C1084 1.332 . S
N1081 C1086 1.332 . S
C1082 C1083 1.386 . S
C1082 C1085 1.388 . S
C1083 C1082 1.386 . S
C1083 C1084 1.382 . S
C1083 H1109 0.950 . S
C1084 N1081 1.332 . S
C1084 C1083 1.382 . S
C1084 H1095 0.952 . S
C1085 C1082 1.388 . S
C1085 C1086 1.382 . S
C1085 H1110 0.950 . S
C1086 N1081 1.332 . S
C1086 C1085 1.382 . S
C1086 H1096 0.948 . S
N1087 Co1065 2.282 . S
N1087 C1091 1.332 . S
N1087 C1092 1.332 . S
C1088 C1089 1.388 . S
C1088 C1092 1.382 . S
C1088 H1111 0.950 . S
C1089 C1088 1.388 . S
C1089 C1090 1.386 . S
C1090 C1089 1.386 . S
C1090 C1091 1.382 . S
C1090 H1112 0.950 . S
C1091 N1087 1.332 . S
C1091 C1090 1.382 . S
C1091 H1093 0.952 . S
C1092 N1087 1.332 . S
C1092 C1088 1.382 . S
C1092 H1094 0.948 . S
H1093 C1091 0.952 . S
H1094 C1092 0.948 . S
H1095 C1084 0.952 . S
H1096 C1086 0.948 . S
C1097 C1063 1.395 . S
C1097 C1067 1.391 . S
C1098 C1060 1.389 . S
C1098 C1080 1.392 . S
C1099 C1070 1.392 . S
C1099 C1072 1.389 . S
C1100 C1075 1.395 . S
C1100 C1077 1.391 . S
H1101 C1061 0.951 . S
H1102 C1062 0.950 . S
H1103 C1068 0.949 . S
H1104 C1069 0.950 . S
H1105 C1073 0.951 . S
H1106 C1074 0.950 . S
H1107 C1078 0.949 . S
H1108 C1079 0.950 . S
H1109 C1083 0.950 . S
H1110 C1085 0.950 . S
H1111 C1088 0.950 . S
H1112 C1090 0.950 . S
C1113 C1114 1.443 . S
C1113 N1117 1.376 . S
C1113 C1151 1.389 . S
C1114 C1113 1.443 . S
C1114 C1115 1.340 . S
C1114 H1154 0.951 . S
C1115 C1114 1.340 . S
C1115 C1116 1.439 . S
C1115 H1155 0.950 . S
C1116 C1115 1.439 . S
C1116 N1117 1.374 . S
C1116 C1150 1.395 . S
N1117 C1113 1.376 . S
N1117 C1116 1.374 . S
N1117 Co1118 2.008 . S
Co1118 N1117 2.008 . S
Co1118 N1119 1.995 . S
Co1118 N1124 2.008 . S
Co1118 N1129 1.995 . S
Co1118 N1134 2.282 . S
Co1118 N1140 2.282 . S
N1119 Co1118 1.995 . S
N1119 C1120 1.376 . S
N1119 C1123 1.383 . S
C1120 N1119 1.376 . S
C1120 C1121 1.446 . S
C1120 C1150 1.391 . S
C1121 C1120 1.446 . S
C1121 C1122 1.339 . S
C1121 H1156 0.949 . S
C1122 C1121 1.339 . S
C1122 C1123 1.439 . S
C1122 H1157 0.950 . S
C1123 N1119 1.383 . S
C1123 C1122 1.439 . S
C1123 C1152 1.392 . S
N1124 Co1118 2.008 . S
N1124 C1125 1.376 . S
N1124 C1128 1.374 . S
C1125 N1124 1.376 . S
C1125 C1126 1.443 . S
C1125 C1152 1.389 . S
C1126 C1125 1.443 . S
C1126 C1127 1.340 . S
C1126 H1158 0.951 . S
C1127 C1126 1.340 . S
C1127 C1128 1.439 . S
C1127 H1159 0.950 . S
C1128 N1124 1.374 . S
C1128 C1127 1.439 . S
C1128 C1153 1.395 . S
N1129 Co1118 1.995 . S
N1129 C1130 1.376 . S
N1129 C1133 1.383 . S
C1130 N1129 1.376 . S
C1130 C1131 1.446 . S
C1130 C1153 1.391 . S
C1131 C1130 1.446 . S
C1131 C1132 1.339 . S
C1131 H1160 0.949 . S
C1132 C1131 1.339 . S
C1132 C1133 1.439 . S
C1132 H1161 0.950 . S
C1133 N1129 1.383 . S
C1133 C1132 1.439 . S
C1133 C1151 1.392 . S
N1134 Co1118 2.282 . S
N1134 C1137 1.332 . S
N1134 C1139 1.332 . S
C1135 C1136 1.386 . S
C1135 C1138 1.388 . S
C1136 C1135 1.386 . S
C1136 C1137 1.382 . S
C1136 H1162 0.950 . S
C1137 N1134 1.332 . S
C1137 C1136 1.382 . S
C1137 H1148 0.952 . S
C1138 C1135 1.388 . S
C1138 C1139 1.382 . S
C1138 H1163 0.950 . S
C1139 N1134 1.332 . S
C1139 C1138 1.382 . S
C1139 H1149 0.948 . S
N1140 Co1118 2.282 . S
N1140 C1144 1.332 . S
N1140 C1145 1.332 . S
C1141 C1142 1.388 . S
C1141 C1145 1.382 . S
C1141 H1164 0.950 . S
C1142 C1141 1.388 . S
C1142 C1143 1.386 . S
C1143 C1142 1.386 . S
C1143 C1144 1.382 . S
C1143 H1165 0.950 . S
C1144 N1140 1.332 . S
C1144 C1143 1.382 . S
C1144 H1146 0.952 . S
C1145 N1140 1.332 . S
C1145 C1141 1.382 . S
C1145 H1147 0.948 . S
H1146 C1144 0.952 . S
H1147 C1145 0.948 . S
H1148 C1137 0.952 . S
H1149 C1139 0.948 . S
C1150 C1116 1.395 . S
C1150 C1120 1.391 . S
C1151 C1113 1.389 . S
C1151 C1133 1.392 . S
C1152 C1123 1.392 . S
C1152 C1125 1.389 . S
C1153 C1128 1.395 . S
C1153 C1130 1.391 . S
H1154 C1114 0.951 . S
H1155 C1115 0.950 . S
H1156 C1121 0.949 . S
H1157 C1122 0.950 . S
H1158 C1126 0.951 . S
H1159 C1127 0.950 . S
H1160 C1131 0.949 . S
H1161 C1132 0.950 . S
H1162 C1136 0.950 . S
H1163 C1138 0.950 . S
H1164 C1141 0.950 . S
H1165 C1143 0.950 . S
C1166 C1167 1.443 . S
C1166 N1170 1.376 . S
C1166 C1204 1.389 . S
C1167 C1166 1.443 . S
C1167 C1168 1.340 . S
C1167 H1207 0.951 . S
C1168 C1167 1.340 . S
C1168 C1169 1.439 . S
C1168 H1208 0.950 . S
C1169 C1168 1.439 . S
C1169 N1170 1.374 . S
C1169 C1203 1.395 . S
N1170 C1166 1.376 . S
N1170 C1169 1.374 . S
N1170 Co1171 2.008 . S
Co1171 N1170 2.008 . S
Co1171 N1172 1.995 . S
Co1171 N1177 2.008 . S
Co1171 N1182 1.995 . S
Co1171 N1187 2.282 . S
Co1171 N1193 2.282 . S
N1172 Co1171 1.995 . S
N1172 C1173 1.376 . S
N1172 C1176 1.383 . S
C1173 N1172 1.376 . S
C1173 C1174 1.446 . S
C1173 C1203 1.391 . S
C1174 C1173 1.446 . S
C1174 C1175 1.339 . S
C1174 H1209 0.949 . S
C1175 C1174 1.339 . S
C1175 C1176 1.439 . S
C1175 H1210 0.950 . S
C1176 N1172 1.383 . S
C1176 C1175 1.439 . S
C1176 C1205 1.392 . S
N1177 Co1171 2.008 . S
N1177 C1178 1.376 . S
N1177 C1181 1.374 . S
C1178 N1177 1.376 . S
C1178 C1179 1.443 . S
C1178 C1205 1.389 . S
C1179 C1178 1.443 . S
C1179 C1180 1.340 . S
C1179 H1211 0.951 . S
C1180 C1179 1.340 . S
C1180 C1181 1.439 . S
C1180 H1212 0.950 . S
C1181 N1177 1.374 . S
C1181 C1180 1.439 . S
C1181 C1206 1.395 . S
N1182 Co1171 1.995 . S
N1182 C1183 1.376 . S
N1182 C1186 1.383 . S
C1183 N1182 1.376 . S
C1183 C1184 1.446 . S
C1183 C1206 1.391 . S
C1184 C1183 1.446 . S
C1184 C1185 1.339 . S
C1184 H1213 0.949 . S
C1185 C1184 1.339 . S
C1185 C1186 1.439 . S
C1185 H1214 0.950 . S
C1186 N1182 1.383 . S
C1186 C1185 1.439 . S
C1186 C1204 1.392 . S
N1187 Co1171 2.282 . S
N1187 C1190 1.332 . S
N1187 C1192 1.332 . S
C1188 C1189 1.386 . S
C1188 C1191 1.388 . S
C1189 C1188 1.386 . S
C1189 C1190 1.382 . S
C1189 H1215 0.950 . S
C1190 N1187 1.332 . S
C1190 C1189 1.382 . S
C1190 H1201 0.952 . S
C1191 C1188 1.388 . S
C1191 C1192 1.382 . S
C1191 H1216 0.950 . S
C1192 N1187 1.332 . S
C1192 C1191 1.382 . S
C1192 H1202 0.948 . S
N1193 Co1171 2.282 . S
N1193 C1197 1.332 . S
N1193 C1198 1.332 . S
C1194 C1195 1.388 . S
C1194 C1198 1.382 . S
C1194 H1217 0.950 . S
C1195 C1194 1.388 . S
C1195 C1196 1.386 . S
C1196 C1195 1.386 . S
C1196 C1197 1.382 . S
C1196 H1218 0.950 . S
C1197 N1193 1.332 . S
C1197 C1196 1.382 . S
C1197 H1199 0.952 . S
C1198 N1193 1.332 . S
C1198 C1194 1.382 . S
C1198 H1200 0.948 . S
H1199 C1197 0.952 . S
H1200 C1198 0.948 . S
H1201 C1190 0.952 . S
H1202 C1192 0.948 . S
C1203 C1169 1.395 . S
C1203 C1173 1.391 . S
C1204 C1166 1.389 . S
C1204 C1186 1.392 . S
C1205 C1176 1.392 . S
C1205 C1178 1.389 . S
C1206 C1181 1.395 . S
C1206 C1183 1.391 . S
H1207 C1167 0.951 . S
H1208 C1168 0.950 . S
H1209 C1174 0.949 . S
H1210 C1175 0.950 . S
H1211 C1179 0.951 . S
H1212 C1180 0.950 . S
H1213 C1184 0.949 . S
H1214 C1185 0.950 . S
H1215 C1189 0.950 . S
H1216 C1191 0.950 . S
H1217 C1194 0.950 . S
H1218 C1196 0.950 . S
C1219 C1220 1.443 . S
C1219 N1223 1.376 . S
C1219 C1257 1.389 . S
C1220 C1219 1.443 . S
C1220 C1221 1.340 . S
C1220 H1260 0.951 . S
C1221 C1220 1.340 . S
C1221 C1222 1.439 . S
C1221 H1261 0.950 . S
C1222 C1221 1.439 . S
C1222 N1223 1.374 . S
C1222 C1256 1.395 . S
N1223 C1219 1.376 . S
N1223 C1222 1.374 . S
N1223 Co1224 2.008 . S
Co1224 N1223 2.008 . S
Co1224 N1225 1.995 . S
Co1224 N1230 2.008 . S
Co1224 N1235 1.995 . S
Co1224 N1240 2.282 . S
Co1224 N1246 2.282 . S
N1225 Co1224 1.995 . S
N1225 C1226 1.376 . S
N1225 C1229 1.383 . S
C1226 N1225 1.376 . S
C1226 C1227 1.446 . S
C1226 C1256 1.391 . S
C1227 C1226 1.446 . S
C1227 C1228 1.339 . S
C1227 H1262 0.949 . S
C1228 C1227 1.339 . S
C1228 C1229 1.439 . S
C1228 H1263 0.950 . S
C1229 N1225 1.383 . S
C1229 C1228 1.439 . S
C1229 C1258 1.392 . S
N1230 Co1224 2.008 . S
N1230 C1231 1.376 . S
N1230 C1234 1.374 . S
C1231 N1230 1.376 . S
C1231 C1232 1.443 . S
C1231 C1258 1.389 . S
C1232 C1231 1.443 . S
C1232 C1233 1.340 . S
C1232 H1264 0.951 . S
C1233 C1232 1.340 . S
C1233 C1234 1.439 . S
C1233 H1265 0.950 . S
C1234 N1230 1.374 . S
C1234 C1233 1.439 . S
C1234 C1259 1.395 . S
N1235 Co1224 1.995 . S
N1235 C1236 1.376 . S
N1235 C1239 1.383 . S
C1236 N1235 1.376 . S
C1236 C1237 1.446 . S
C1236 C1259 1.391 . S
C1237 C1236 1.446 . S
C1237 C1238 1.339 . S
C1237 H1266 0.949 . S
C1238 C1237 1.339 . S
C1238 C1239 1.439 . S
C1238 H1267 0.950 . S
C1239 N1235 1.383 . S
C1239 C1238 1.439 . S
C1239 C1257 1.392 . S
N1240 Co1224 2.282 . S
N1240 C1243 1.332 . S
N1240 C1245 1.332 . S
C1241 C1242 1.386 . S
C1241 C1244 1.388 . S
C1242 C1241 1.386 . S
C1242 C1243 1.382 . S
C1242 H1268 0.950 . S
C1243 N1240 1.332 . S
C1243 C1242 1.382 . S
C1243 H1254 0.952 . S
C1244 C1241 1.388 . S
C1244 C1245 1.382 . S
C1244 H1269 0.950 . S
C1245 N1240 1.332 . S
C1245 C1244 1.382 . S
C1245 H1255 0.948 . S
N1246 Co1224 2.282 . S
N1246 C1250 1.332 . S
N1246 C1251 1.332 . S
C1247 C1248 1.388 . S
C1247 C1251 1.382 . S
C1247 H1270 0.950 . S
C1248 C1247 1.388 . S
C1248 C1249 1.386 . S
C1249 C1248 1.386 . S
C1249 C1250 1.382 . S
C1249 H1271 0.950 . S
C1250 N1246 1.332 . S
C1250 C1249 1.382 . S
C1250 H1252 0.952 . S
C1251 N1246 1.332 . S
C1251 C1247 1.382 . S
C1251 H1253 0.948 . S
H1252 C1250 0.952 . S
H1253 C1251 0.948 . S
H1254 C1243 0.952 . S
H1255 C1245 0.948 . S
C1256 C1222 1.395 . S
C1256 C1226 1.391 . S
C1257 C1219 1.389 . S
C1257 C1239 1.392 . S
C1258 C1229 1.392 . S
C1258 C1231 1.389 . S
C1259 C1234 1.395 . S
C1259 C1236 1.391 . S
H1260 C1220 0.951 . S
H1261 C1221 0.950 . S
H1262 C1227 0.949 . S
H1263 C1228 0.950 . S
H1264 C1232 0.951 . S
H1265 C1233 0.950 . S
H1266 C1237 0.949 . S
H1267 C1238 0.950 . S
H1268 C1242 0.950 . S
H1269 C1244 0.950 . S
H1270 C1247 0.950 . S
H1271 C1249 0.950 . S
H1272 C1280 0.950 . S
H1273 C1285 0.950 . S
H1274 C1282 0.950 . S
H1275 C1284 0.950 . S
H1276 C1286 0.950 . S
H1277 C1288 0.950 . S
H1278 C1290 0.950 . S
H1279 C1291 0.950 . S
C1280 H1272 0.950 . S
C1280 C1281 1.386 . S
C1280 C1282 1.391 . S
C1281 C1280 1.386 . S
C1281 C1285 1.393 . S
C1282 H1274 0.950 . S
C1282 C1280 1.391 . S
C1282 C1283 1.400 . S
C1283 C1282 1.400 . S
C1283 C1284 1.398 . S
C1283 C1289 1.491 . S
C1284 H1275 0.950 . S
C1284 C1283 1.398 . S
C1284 C1285 1.391 . S
C1285 H1273 0.950 . S
C1285 C1281 1.393 . S
C1285 C1284 1.391 . S
C1286 H1276 0.950 . S
C1286 C1287 1.386 . S
C1286 C1288 1.391 . S
C1287 C1286 1.386 . S
C1287 C1291 1.393 . S
C1288 H1277 0.950 . S
C1288 C1286 1.391 . S
C1288 C1289 1.400 . S
C1289 C1283 1.491 . S
C1289 C1288 1.400 . S
C1289 C1290 1.398 . S
C1290 H1278 0.950 . S
C1290 C1289 1.398 . S
C1290 C1291 1.391 . S
C1291 H1279 0.950 . S
C1291 C1287 1.393 . S
C1291 C1290 1.391 . S
H1292 C1300 0.950 . S
H1293 C1305 0.950 . S
H1294 C1302 0.950 . S
H1295 C1304 0.950 . S
H1296 C1306 0.950 . S
H1297 C1308 0.948 1_655 S
H1298 C1310 0.950 . S
H1299 C1311 0.950 . S
C1300 H1292 0.950 . S
C1300 C1301 1.386 . S
C1300 C1302 1.391 . S
C1301 C1300 1.386 . S
C1301 C1305 1.393 . S
C1302 H1294 0.950 . S
C1302 C1300 1.391 . S
C1302 C1303 1.400 . S
C1303 C1302 1.400 . S
C1303 C1304 1.398 . S
C1303 C1309 1.491 . S
C1304 H1295 0.950 . S
C1304 C1303 1.398 . S
C1304 C1305 1.391 . S
C1305 H1293 0.950 . S
C1305 C1301 1.393 . S
C1305 C1304 1.391 . S
C1306 H1296 0.950 . S
C1306 C1307 1.386 . S
C1306 C1308 1.391 . S
C1307 C1306 1.386 . S
C1307 C1311 1.393 . S
C1308 H1297 0.948 1_455 S
C1308 C1306 1.391 . S
C1308 C1309 1.400 1_455 S
C1309 C1303 1.491 . S
C1309 C1308 1.400 1_655 S
C1309 C1310 1.398 1_655 S
C1310 H1298 0.950 . S
C1310 C1309 1.398 1_455 S
C1310 C1311 1.391 . S
C1311 H1299 0.950 . S
C1311 C1307 1.393 . S
C1311 C1310 1.391 . S
H1312 C1320 0.950 . S
H1313 C1325 0.950 . S
H1314 C1322 0.950 . S
H1315 C1324 0.950 . S
H1316 C1326 0.950 . S
H1317 C1328 0.950 . S
H1318 C1330 0.950 . S
H1319 C1331 0.950 . S
C1320 H1312 0.950 . S
C1320 C1321 1.386 . S
C1320 C1322 1.391 . S
C1321 C1320 1.386 . S
C1321 C1325 1.393 . S
C1322 H1314 0.950 . S
C1322 C1320 1.391 . S
C1322 C1323 1.400 . S
C1323 C1322 1.400 . S
C1323 C1324 1.398 . S
C1323 C1329 1.491 . S
C1324 H1315 0.950 . S
C1324 C1323 1.398 . S
C1324 C1325 1.391 . S
C1325 H1313 0.950 . S
C1325 C1321 1.393 . S
C1325 C1324 1.391 . S
C1326 H1316 0.950 . S
C1326 C1327 1.386 . S
C1326 C1328 1.391 . S
C1327 C1326 1.386 . S
C1327 C1331 1.393 . S
C1328 H1317 0.950 . S
C1328 C1326 1.391 . S
C1328 C1329 1.400 . S
C1329 C1323 1.491 . S
C1329 C1328 1.400 . S
C1329 C1330 1.398 . S
C1330 H1318 0.950 . S
C1330 C1329 1.398 . S
C1330 C1331 1.391 . S
C1331 H1319 0.950 . S
C1331 C1327 1.393 . S
C1331 C1330 1.391 . S
H1332 C1340 0.950 . S
H1333 C1345 0.950 . S
H1334 C1342 0.950 . S
H1335 C1344 0.950 . S
H1336 C1346 0.950 . S
H1337 C1348 0.950 . S
H1338 C1350 0.950 . S
H1339 C1351 0.950 . S
C1340 H1332 0.950 . S
C1340 C1341 1.386 . S
C1340 C1342 1.391 . S
C1341 C1340 1.386 . S
C1341 C1345 1.393 . S
C1342 H1334 0.950 . S
C1342 C1340 1.391 . S
C1342 C1343 1.400 . S
C1343 C1342 1.400 . S
C1343 C1344 1.398 . S
C1343 C1349 1.491 1_455 S
C1344 H1335 0.950 . S
C1344 C1343 1.398 . S
C1344 C1345 1.391 . S
C1345 H1333 0.950 . S
C1345 C1341 1.393 . S
C1345 C1344 1.391 . S
C1346 H1336 0.950 . S
C1346 C1347 1.386 . S
C1346 C1348 1.391 . S
C1347 C1346 1.386 . S
C1347 C1351 1.393 . S
C1348 H1337 0.950 . S
C1348 C1346 1.391 . S
C1348 C1349 1.400 . S
C1349 C1343 1.491 1_655 S
C1349 C1348 1.400 . S
C1349 C1350 1.398 . S
C1350 H1338 0.950 . S
C1350 C1349 1.398 . S
C1350 C1351 1.391 . S
C1351 H1339 0.950 . S
C1351 C1347 1.393 . S
C1351 C1350 1.391 . S
H1352 C1360 0.950 . S
H1353 C1365 0.950 . S
H1354 C1362 0.950 . S
H1355 C1364 0.950 . S
H1356 C1366 0.950 . S
H1357 C1368 0.950 . S
H1358 C1370 0.950 . S
H1359 C1371 0.950 . S
C1360 H1352 0.950 . S
C1360 C1361 1.386 . S
C1360 C1362 1.391 . S
C1361 C1360 1.386 . S
C1361 C1365 1.393 . S
C1362 H1354 0.950 . S
C1362 C1360 1.391 . S
C1362 C1363 1.400 . S
C1363 C1362 1.400 . S
C1363 C1364 1.398 . S
C1363 C1369 1.491 . S
C1364 H1355 0.950 . S
C1364 C1363 1.398 . S
C1364 C1365 1.391 . S
C1365 H1353 0.950 . S
C1365 C1361 1.393 . S
C1365 C1364 1.391 . S
C1366 H1356 0.950 . S
C1366 C1367 1.386 . S
C1366 C1368 1.391 . S
C1367 C1366 1.386 . S
C1367 C1371 1.393 . S
C1368 H1357 0.950 . S
C1368 C1366 1.391 . S
C1368 C1369 1.400 . S
C1369 C1363 1.491 . S
C1369 C1368 1.400 . S
C1369 C1370 1.398 . S
C1370 H1358 0.950 . S
C1370 C1369 1.398 . S
C1370 C1371 1.391 . S
C1371 H1359 0.950 . S
C1371 C1367 1.393 . S
C1371 C1370 1.391 . S
H1372 C1380 0.950 . S
H1373 C1385 0.950 . S
H1374 C1382 0.950 . S
H1375 C1384 0.950 . S
H1376 C1386 0.950 . S
H1377 C1388 0.950 . S
H1378 C1390 0.950 . S
H1379 C1391 0.950 . S
C1380 H1372 0.950 . S
C1380 C1381 1.386 . S
C1380 C1382 1.391 . S
C1381 C1380 1.386 . S
C1381 C1385 1.393 . S
C1382 H1374 0.950 . S
C1382 C1380 1.391 . S
C1382 C1383 1.400 . S
C1383 C1382 1.400 . S
C1383 C1384 1.398 . S
C1383 C1389 1.491 1_655 S
C1384 H1375 0.950 . S
C1384 C1383 1.398 . S
C1384 C1385 1.391 . S
C1385 H1373 0.950 . S
C1385 C1381 1.393 . S
C1385 C1384 1.391 . S
C1386 H1376 0.950 . S
C1386 C1387 1.386 . S
C1386 C1388 1.391 . S
C1387 C1386 1.386 . S
C1387 C1391 1.393 . S
C1388 H1377 0.950 . S
C1388 C1386 1.391 . S
C1388 C1389 1.400 . S
C1389 C1383 1.491 1_455 S
C1389 C1388 1.400 . S
C1389 C1390 1.398 . S
C1390 H1378 0.950 . S
C1390 C1389 1.398 . S
C1390 C1391 1.391 . S
C1391 H1379 0.950 . S
C1391 C1387 1.393 . S
C1391 C1390 1.391 . S
H1392 C1400 0.950 . S
H1393 C1405 0.950 . S
H1394 C1402 0.950 . S
H1395 C1404 0.950 . S
H1396 C1406 0.950 . S
H1397 C1408 0.950 . S
H1398 C1410 0.950 . S
H1399 C1411 0.950 . S
C1400 H1392 0.950 . S
C1400 C1401 1.386 . S
C1400 C1402 1.391 . S
C1401 C1400 1.386 . S
C1401 C1405 1.393 . S
C1402 H1394 0.950 . S
C1402 C1400 1.391 . S
C1402 C1403 1.400 . S
C1403 C1402 1.400 . S
C1403 C1404 1.398 . S
C1403 C1409 1.491 . S
C1404 H1395 0.950 . S
C1404 C1403 1.398 . S
C1404 C1405 1.391 . S
C1405 H1393 0.950 . S
C1405 C1401 1.393 . S
C1405 C1404 1.391 . S
C1406 H1396 0.950 . S
C1406 C1407 1.386 . S
C1406 C1408 1.391 . S
C1407 C1406 1.386 . S
C1407 C1411 1.393 . S
C1408 H1397 0.950 . S
C1408 C1406 1.391 . S
C1408 C1409 1.400 . S
C1409 C1403 1.491 . S
C1409 C1408 1.400 . S
C1409 C1410 1.398 . S
C1410 H1398 0.950 . S
C1410 C1409 1.398 . S
C1410 C1411 1.391 . S
C1411 H1399 0.950 . S
C1411 C1407 1.393 . S
C1411 C1410 1.391 . S
H1412 C1420 0.950 . S
H1413 C1425 0.950 . S
H1414 C1422 0.950 . S
H1415 C1424 0.950 . S
H1416 C1426 0.950 . S
H1417 C1428 0.950 . S
H1418 C1430 0.950 . S
H1419 C1431 0.950 . S
C1420 H1412 0.950 . S
C1420 C1421 1.386 . S
C1420 C1422 1.391 . S
C1421 C1420 1.386 . S
C1421 C1425 1.393 . S
C1422 H1414 0.950 . S
C1422 C1420 1.391 . S
C1422 C1423 1.400 . S
C1423 C1422 1.400 . S
C1423 C1424 1.398 . S
C1423 C1429 1.491 1_655 S
C1424 H1415 0.950 . S
C1424 C1423 1.398 . S
C1424 C1425 1.391 . S
C1425 H1413 0.950 . S
C1425 C1421 1.393 . S
C1425 C1424 1.391 . S
C1426 H1416 0.950 . S
C1426 C1427 1.386 . S
C1426 C1428 1.391 . S
C1427 C1426 1.386 . S
C1427 C1431 1.393 . S
C1428 H1417 0.950 . S
C1428 C1426 1.391 . S
C1428 C1429 1.400 . S
C1429 C1423 1.491 1_455 S
C1429 C1428 1.400 . S
C1429 C1430 1.398 . S
C1430 H1418 0.950 . S
C1430 C1429 1.398 . S
C1430 C1431 1.391 . S
C1431 H1419 0.950 . S
C1431 C1427 1.393 . S
C1431 C1430 1.391 . S
H1432 C1440 0.950 . S
H1433 C1445 0.950 . S
H1434 C1442 0.950 . S
H1435 C1444 0.950 . S
H1436 C1446 0.950 . S
H1437 C1448 0.950 . S
H1438 C1450 0.950 . S
H1439 C1451 0.950 . S
C1440 H1432 0.950 . S
C1440 C1441 1.386 . S
C1440 C1442 1.391 . S
C1441 C1440 1.386 . S
C1441 C1445 1.393 . S
C1442 H1434 0.950 . S
C1442 C1440 1.391 . S
C1442 C1443 1.400 . S
C1443 C1442 1.400 . S
C1443 C1444 1.398 . S
C1443 C1449 1.491 . S
C1444 H1435 0.950 . S
C1444 C1443 1.398 . S
C1444 C1445 1.391 . S
C1445 H1433 0.950 . S
C1445 C1441 1.393 . S
C1445 C1444 1.391 . S
C1446 H1436 0.950 . S
C1446 C1447 1.386 . S
C1446 C1448 1.391 . S
C1447 C1446 1.386 . S
C1447 C1451 1.393 . S
C1448 H1437 0.950 . S
C1448 C1446 1.391 . S
C1448 C1449 1.400 . S
C1449 C1443 1.491 . S
C1449 C1448 1.400 . S
C1449 C1450 1.398 . S
C1450 H1438 0.950 . S
C1450 C1449 1.398 . S
C1450 C1451 1.391 . S
C1451 H1439 0.950 . S
C1451 C1447 1.393 . S
C1451 C1450 1.391 . S
H1452 C1460 0.950 . S
H1453 C1465 0.950 . S
H1454 C1462 0.950 . S
H1455 C1464 0.950 . S
H1456 C1466 0.950 . S
H1457 C1468 0.950 . S
H1458 C1470 0.950 . S
H1459 C1471 0.950 . S
C1460 H1452 0.950 . S
C1460 C1461 1.386 . S
C1460 C1462 1.391 . S
C1461 C1460 1.386 . S
C1461 C1465 1.393 . S
C1462 H1454 0.950 . S
C1462 C1460 1.391 . S
C1462 C1463 1.400 . S
C1463 C1462 1.400 . S
C1463 C1464 1.398 . S
C1463 C1469 1.491 1_556 S
C1464 H1455 0.950 . S
C1464 C1463 1.398 . S
C1464 C1465 1.391 . S
C1465 H1453 0.950 . S
C1465 C1461 1.393 . S
C1465 C1464 1.391 . S
C1466 H1456 0.950 . S
C1466 C1467 1.386 . S
C1466 C1468 1.391 . S
C1467 C1466 1.386 . S
C1467 C1471 1.393 . S
C1468 H1457 0.950 . S
C1468 C1466 1.391 . S
C1468 C1469 1.400 . S
C1469 C1463 1.491 1_554 S
C1469 C1468 1.400 . S
C1469 C1470 1.398 . S
C1470 H1458 0.950 . S
C1470 C1469 1.398 . S
C1470 C1471 1.391 . S
C1471 H1459 0.950 . S
C1471 C1467 1.393 . S
C1471 C1470 1.391 . S
H1472 C1480 0.950 . S
H1473 C1485 0.950 . S
H1474 C1482 0.950 . S
H1475 C1484 0.950 . S
H1476 C1486 0.950 . S
H1477 C1488 0.950 . S
H1478 C1490 0.950 . S
H1479 C1491 0.950 . S
C1480 H1472 0.950 . S
C1480 C1481 1.386 . S
C1480 C1482 1.391 . S
C1481 C1480 1.386 . S
C1481 C1485 1.393 . S
C1482 H1474 0.950 . S
C1482 C1480 1.391 . S
C1482 C1483 1.400 . S
C1483 C1482 1.400 . S
C1483 C1484 1.398 . S
C1483 C1489 1.491 . S
C1484 H1475 0.950 . S
C1484 C1483 1.398 . S
C1484 C1485 1.391 . S
C1485 H1473 0.950 . S
C1485 C1481 1.393 . S
C1485 C1484 1.391 . S
C1486 H1476 0.950 . S
C1486 C1487 1.386 . S
C1486 C1488 1.391 . S
C1487 C1486 1.386 . S
C1487 C1491 1.393 . S
C1488 H1477 0.950 . S
C1488 C1486 1.391 . S
C1488 C1489 1.400 . S
C1489 C1483 1.491 . S
C1489 C1488 1.400 . S
C1489 C1490 1.398 . S
C1490 H1478 0.950 . S
C1490 C1489 1.398 . S
C1490 C1491 1.391 . S
C1491 H1479 0.950 . S
C1491 C1487 1.393 . S
C1491 C1490 1.391 . S
H1492 C1500 0.950 . S
H1493 C1505 0.950 . S
H1494 C1502 0.950 . S
H1495 C1504 0.950 . S
H1496 C1506 0.950 . S
H1497 C1508 0.950 . S
H1498 C1510 0.950 . S
H1499 C1511 0.950 . S
C1500 H1492 0.950 . S
C1500 C1501 1.386 . S
C1500 C1502 1.391 . S
C1501 C1500 1.386 . S
C1501 C1505 1.393 . S
C1502 H1494 0.950 . S
C1502 C1500 1.391 . S
C1502 C1503 1.400 . S
C1503 C1502 1.400 . S
C1503 C1504 1.398 . S
C1503 C1509 1.491 1_554 S
C1504 H1495 0.950 . S
C1504 C1503 1.398 . S
C1504 C1505 1.391 . S
C1505 H1493 0.950 . S
C1505 C1501 1.393 . S
C1505 C1504 1.391 . S
C1506 H1496 0.950 . S
C1506 C1507 1.386 . S
C1506 C1508 1.391 . S
C1507 C1506 1.386 . S
C1507 C1511 1.393 . S
C1508 H1497 0.950 . S
C1508 C1506 1.391 . S
C1508 C1509 1.400 . S
C1509 C1503 1.491 1_556 S
C1509 C1508 1.400 . S
C1509 C1510 1.398 . S
C1510 H1498 0.950 . S
C1510 C1509 1.398 . S
C1510 C1511 1.391 . S
C1511 H1499 0.950 . S
C1511 C1507 1.393 . S
C1511 C1510 1.391 . S
H1512 C1520 0.950 . S
H1513 C1525 0.950 . S
H1514 C1522 0.950 . S
H1515 C1524 0.950 . S
H1516 C1526 0.950 . S
H1517 C1528 0.950 . S
H1518 C1530 0.950 . S
H1519 C1531 0.950 . S
C1520 H1512 0.950 . S
C1520 C1521 1.386 . S
C1520 C1522 1.391 . S
C1521 C1520 1.386 . S
C1521 C1525 1.393 . S
C1522 H1514 0.950 . S
C1522 C1520 1.391 . S
C1522 C1523 1.400 . S
C1523 C1522 1.400 . S
C1523 C1524 1.398 . S
C1523 C1529 1.491 . S
C1524 H1515 0.950 . S
C1524 C1523 1.398 . S
C1524 C1525 1.391 . S
C1525 H1513 0.950 . S
C1525 C1521 1.393 . S
C1525 C1524 1.391 . S
C1526 H1516 0.950 . S
C1526 C1527 1.386 . S
C1526 C1528 1.391 . S
C1527 C1526 1.386 . S
C1527 C1531 1.393 . S
C1528 H1517 0.950 . S
C1528 C1526 1.391 . S
C1528 C1529 1.400 . S
C1529 C1523 1.491 . S
C1529 C1528 1.400 . S
C1529 C1530 1.398 . S
C1530 H1518 0.950 . S
C1530 C1529 1.398 . S
C1530 C1531 1.391 . S
C1531 H1519 0.950 . S
C1531 C1527 1.393 . S
C1531 C1530 1.391 . S
H1532 C1540 0.950 . S
H1533 C1545 0.950 . S
H1534 C1542 0.950 . S
H1535 C1544 0.950 . S
H1536 C1546 0.950 . S
H1537 C1548 0.950 . S
H1538 C1550 0.950 . S
H1539 C1551 0.950 . S
C1540 H1532 0.950 . S
C1540 C1541 1.386 . S
C1540 C1542 1.391 . S
C1541 C1540 1.386 . S
C1541 C1545 1.393 . S
C1542 H1534 0.950 . S
C1542 C1540 1.391 . S
C1542 C1543 1.400 . S
C1543 C1542 1.400 . S
C1543 C1544 1.398 . S
C1543 C1549 1.491 1_554 S
C1544 H1535 0.950 . S
C1544 C1543 1.398 . S
C1544 C1545 1.391 . S
C1545 H1533 0.950 . S
C1545 C1541 1.393 . S
C1545 C1544 1.391 . S
C1546 H1536 0.950 . S
C1546 C1547 1.386 . S
C1546 C1548 1.391 . S
C1547 C1546 1.386 . S
C1547 C1551 1.393 . S
C1548 H1537 0.950 . S
C1548 C1546 1.391 . S
C1548 C1549 1.400 . S
C1549 C1543 1.491 1_556 S
C1549 C1548 1.400 . S
C1549 C1550 1.398 . S
C1550 H1538 0.950 . S
C1550 C1549 1.398 . S
C1550 C1551 1.391 . S
C1551 H1539 0.950 . S
C1551 C1547 1.393 . S
C1551 C1550 1.391 . S
H1552 C1560 0.950 . S
H1553 C1565 0.950 . S
H1554 C1562 0.950 . S
H1555 C1564 0.950 . S
H1556 C1566 0.950 . S
H1557 C1568 0.950 . S
H1558 C1570 0.950 . S
H1559 C1571 0.950 . S
C1560 H1552 0.950 . S
C1560 C1561 1.386 . S
C1560 C1562 1.391 . S
C1561 C1560 1.386 . S
C1561 C1565 1.393 . S
C1562 H1554 0.950 . S
C1562 C1560 1.391 . S
C1562 C1563 1.400 . S
C1563 C1562 1.400 . S
C1563 C1564 1.398 . S
C1563 C1569 1.491 . S
C1564 H1555 0.950 . S
C1564 C1563 1.398 . S
C1564 C1565 1.391 . S
C1565 H1553 0.950 . S
C1565 C1561 1.393 . S
C1565 C1564 1.391 . S
C1566 H1556 0.950 . S
C1566 C1567 1.386 . S
C1566 C1568 1.391 . S
C1567 C1566 1.386 . S
C1567 C1571 1.393 . S
C1568 H1557 0.950 . S
C1568 C1566 1.391 . S
C1568 C1569 1.400 . S
C1569 C1563 1.491 . S
C1569 C1568 1.400 . S
C1569 C1570 1.398 . S
C1570 H1558 0.950 . S
C1570 C1569 1.398 . S
C1570 C1571 1.391 . S
C1571 H1559 0.950 . S
C1571 C1567 1.393 . S
C1571 C1570 1.391 . S
H1572 C1580 0.950 . S
H1573 C1585 0.950 . S
H1574 C1582 0.950 . S
H1575 C1584 0.950 . S
H1576 C1586 0.950 . S
H1577 C1588 0.950 . S
H1578 C1590 0.950 1_554 S
H1579 C1591 0.950 . S
C1580 H1572 0.950 . S
C1580 C1581 1.386 . S
C1580 C1582 1.391 . S
C1581 C1580 1.386 . S
C1581 C1585 1.393 . S
C1582 H1574 0.950 . S
C1582 C1580 1.391 . S
C1582 C1583 1.400 . S
C1583 C1582 1.400 . S
C1583 C1584 1.398 . S
C1583 C1589 1.491 . S
C1584 H1575 0.950 . S
C1584 C1583 1.398 . S
C1584 C1585 1.391 . S
C1585 H1573 0.950 . S
C1585 C1581 1.393 . S
C1585 C1584 1.391 . S
C1586 H1576 0.950 . S
C1586 C1587 1.386 . S
C1586 C1588 1.391 . S
C1587 C1586 1.386 . S
C1587 C1591 1.393 . S
C1588 H1577 0.950 . S
C1588 C1586 1.391 . S
C1588 C1589 1.400 1_556 S
C1589 C1583 1.491 . S
C1589 C1588 1.400 1_554 S
C1589 C1590 1.398 1_554 S
C1590 H1578 0.950 1_556 S
C1590 C1589 1.398 1_556 S
C1590 C1591 1.391 . S
C1591 H1579 0.950 . S
C1591 C1587 1.393 . S
C1591 C1590 1.391 . S
H1592 C1600 0.950 . S
H1593 C1605 0.950 . S
H1594 C1602 0.950 . S
H1595 C1604 0.950 . S
H1596 C1606 0.950 . S
H1597 C1608 0.950 . S
H1598 C1610 0.950 . S
H1599 C1611 0.950 . S
C1600 H1592 0.950 . S
C1600 C1601 1.386 . S
C1600 C1602 1.391 . S
C1601 C1600 1.386 . S
C1601 C1605 1.393 . S
C1602 H1594 0.950 . S
C1602 C1600 1.391 . S
C1602 C1603 1.400 . S
C1603 C1602 1.400 . S
C1603 C1604 1.398 . S
C1603 C1609 1.491 . S
C1604 H1595 0.950 . S
C1604 C1603 1.398 . S
C1604 C1605 1.391 . S
C1605 H1593 0.950 . S
C1605 C1601 1.393 . S
C1605 C1604 1.391 . S
C1606 H1596 0.950 . S
C1606 C1607 1.386 . S
C1606 C1608 1.391 . S
C1607 C1606 1.386 . S
C1607 C1611 1.393 . S
C1608 H1597 0.950 . S
C1608 C1606 1.391 . S
C1608 C1609 1.400 . S
C1609 C1603 1.491 . S
C1609 C1608 1.400 . S
C1609 C1610 1.398 . S
C1610 H1598 0.950 . S
C1610 C1609 1.398 . S
C1610 C1611 1.391 . S
C1611 H1599 0.950 . S
C1611 C1607 1.393 . S
C1611 C1610 1.391 . S
H1612 C1620 0.950 . S
H1613 C1625 0.950 . S
H1614 C1622 0.950 . S
H1615 C1624 0.950 . S
H1616 C1626 0.950 . S
H1617 C1628 0.950 . S
H1618 C1630 0.950 . S
H1619 C1631 0.950 . S
C1620 H1612 0.950 . S
C1620 C1621 1.386 . S
C1620 C1622 1.391 . S
C1621 C1620 1.386 . S
C1621 C1625 1.393 . S
C1622 H1614 0.950 . S
C1622 C1620 1.391 . S
C1622 C1623 1.400 . S
C1623 C1622 1.400 . S
C1623 C1624 1.398 . S
C1623 C1629 1.491 . S
C1624 H1615 0.950 . S
C1624 C1623 1.398 . S
C1624 C1625 1.391 . S
C1625 H1613 0.950 . S
C1625 C1621 1.393 . S
C1625 C1624 1.391 . S
C1626 H1616 0.950 . S
C1626 C1627 1.386 . S
C1626 C1628 1.391 . S
C1627 C1626 1.386 . S
C1627 C1631 1.393 . S
C1628 H1617 0.950 . S
C1628 C1626 1.391 . S
C1628 C1629 1.400 . S
C1629 C1623 1.491 . S
C1629 C1628 1.400 . S
C1629 C1630 1.398 . S
C1630 H1618 0.950 . S
C1630 C1629 1.398 . S
C1630 C1631 1.391 . S
C1631 H1619 0.950 . S
C1631 C1627 1.393 . S
C1631 C1630 1.391 . S
H1632 C1640 0.950 . S
H1633 C1645 0.950 . S
H1634 C1642 0.950 . S
H1635 C1644 0.950 . S
H1636 C1646 0.950 . S
H1637 C1648 0.950 . S
H1638 C1650 0.950 . S
H1639 C1651 0.950 . S
C1640 H1632 0.950 . S
C1640 C1641 1.386 . S
C1640 C1642 1.391 . S
C1641 C1640 1.386 . S
C1641 C1645 1.393 . S
C1642 H1634 0.950 . S
C1642 C1640 1.391 . S
C1642 C1643 1.400 . S
C1643 C1642 1.400 . S
C1643 C1644 1.398 . S
C1643 C1649 1.491 1_565 S
C1644 H1635 0.950 . S
C1644 C1643 1.398 . S
C1644 C1645 1.391 . S
C1645 H1633 0.950 . S
C1645 C1641 1.393 . S
C1645 C1644 1.391 . S
C1646 H1636 0.950 . S
C1646 C1647 1.386 . S
C1646 C1648 1.391 . S
C1647 C1646 1.386 . S
C1647 C1651 1.393 . S
C1648 H1637 0.950 . S
C1648 C1646 1.391 . S
C1648 C1649 1.400 . S
C1649 C1643 1.491 1_545 S
C1649 C1648 1.400 . S
C1649 C1650 1.398 . S
C1650 H1638 0.950 . S
C1650 C1649 1.398 . S
C1650 C1651 1.391 . S
C1651 H1639 0.950 . S
C1651 C1647 1.393 . S
C1651 C1650 1.391 . S
H1652 C1660 0.950 . S
H1653 C1665 0.950 . S
H1654 C1662 0.950 . S
H1655 C1664 0.950 . S
H1656 C1666 0.950 . S
H1657 C1668 0.950 . S
H1658 C1670 0.950 . S
H1659 C1671 0.950 . S
C1660 H1652 0.950 . S
C1660 C1661 1.386 . S
C1660 C1662 1.391 . S
C1661 C1660 1.386 . S
C1661 C1665 1.393 . S
C1662 H1654 0.950 . S
C1662 C1660 1.391 . S
C1662 C1663 1.400 . S
C1663 C1662 1.400 . S
C1663 C1664 1.398 . S
C1663 C1669 1.491 . S
C1664 H1655 0.950 . S
C1664 C1663 1.398 . S
C1664 C1665 1.391 . S
C1665 H1653 0.950 . S
C1665 C1661 1.393 . S
C1665 C1664 1.391 . S
C1666 H1656 0.950 . S
C1666 C1667 1.386 . S
C1666 C1668 1.391 . S
C1667 C1666 1.386 . S
C1667 C1671 1.393 . S
C1668 H1657 0.950 . S
C1668 C1666 1.391 . S
C1668 C1669 1.400 . S
C1669 C1663 1.491 . S
C1669 C1668 1.400 . S
C1669 C1670 1.398 . S
C1670 H1658 0.950 . S
C1670 C1669 1.398 . S
C1670 C1671 1.391 . S
C1671 H1659 0.950 . S
C1671 C1667 1.393 . S
C1671 C1670 1.391 . S
H1672 C1680 0.950 . S
H1673 C1685 0.950 . S
H1674 C1682 0.950 . S
H1675 C1684 0.950 . S
H1676 C1686 0.950 . S
H1677 C1688 0.950 . S
H1678 C1690 0.950 . S
H1679 C1691 0.950 . S
C1680 H1672 0.950 . S
C1680 C1681 1.386 . S
C1680 C1682 1.391 . S
C1681 C1680 1.386 . S
C1681 C1685 1.393 . S
C1682 H1674 0.950 . S
C1682 C1680 1.391 . S
C1682 C1683 1.400 . S
C1683 C1682 1.400 . S
C1683 C1684 1.398 . S
C1683 C1689 1.491 1_565 S
C1684 H1675 0.950 . S
C1684 C1683 1.398 . S
C1684 C1685 1.391 . S
C1685 H1673 0.950 . S
C1685 C1681 1.393 . S
C1685 C1684 1.391 . S
C1686 H1676 0.950 . S
C1686 C1687 1.386 . S
C1686 C1688 1.391 . S
C1687 C1686 1.386 . S
C1687 C1691 1.393 . S
C1688 H1677 0.950 . S
C1688 C1686 1.391 . S
C1688 C1689 1.400 . S
C1689 C1683 1.491 1_545 S
C1689 C1688 1.400 . S
C1689 C1690 1.398 . S
C1690 H1678 0.950 . S
C1690 C1689 1.398 . S
C1690 C1691 1.391 . S
C1691 H1679 0.950 . S
C1691 C1687 1.393 . S
C1691 C1690 1.391 . S
H1692 C1700 0.950 . S
H1693 C1705 0.950 . S
H1694 C1702 0.950 . S
H1695 C1704 0.950 . S
H1696 C1706 0.950 . S
H1697 C1708 0.950 . S
H1698 C1710 0.950 . S
H1699 C1711 0.950 . S
C1700 H1692 0.950 . S
C1700 C1701 1.386 . S
C1700 C1702 1.391 . S
C1701 C1700 1.386 . S
C1701 C1705 1.393 . S
C1702 H1694 0.950 . S
C1702 C1700 1.391 . S
C1702 C1703 1.400 . S
C1703 C1702 1.400 . S
C1703 C1704 1.398 . S
C1703 C1709 1.491 . S
C1704 H1695 0.950 . S
C1704 C1703 1.398 . S
C1704 C1705 1.391 . S
C1705 H1693 0.950 . S
C1705 C1701 1.393 . S
C1705 C1704 1.391 . S
C1706 H1696 0.950 . S
C1706 C1707 1.386 . S
C1706 C1708 1.391 . S
C1707 C1706 1.386 . S
C1707 C1711 1.393 . S
C1708 H1697 0.950 . S
C1708 C1706 1.391 . S
C1708 C1709 1.400 . S
C1709 C1703 1.491 . S
C1709 C1708 1.400 . S
C1709 C1710 1.398 . S
C1710 H1698 0.950 . S
C1710 C1709 1.398 . S
C1710 C1711 1.391 . S
C1711 H1699 0.950 . S
C1711 C1707 1.393 . S
C1711 C1710 1.391 . S
H1712 C1720 0.950 . S
H1713 C1725 0.950 . S
H1714 C1722 0.950 . S
H1715 C1724 0.950 . S
H1716 C1726 0.950 . S
H1717 C1728 0.950 . S
H1718 C1730 0.950 . S
H1719 C1731 0.950 . S
C1720 H1712 0.950 . S
C1720 C1721 1.386 . S
C1720 C1722 1.391 . S
C1721 C1720 1.386 . S
C1721 C1725 1.393 . S
C1722 H1714 0.950 . S
C1722 C1720 1.391 . S
C1722 C1723 1.400 . S
C1723 C1722 1.400 . S
C1723 C1724 1.398 . S
C1723 C1729 1.491 1_565 S
C1724 H1715 0.950 . S
C1724 C1723 1.398 . S
C1724 C1725 1.391 . S
C1725 H1713 0.950 . S
C1725 C1721 1.393 . S
C1725 C1724 1.391 . S
C1726 H1716 0.950 . S
C1726 C1727 1.386 . S
C1726 C1728 1.391 . S
C1727 C1726 1.386 . S
C1727 C1731 1.393 . S
C1728 H1717 0.950 . S
C1728 C1726 1.391 . S
C1728 C1729 1.400 . S
C1729 C1723 1.491 1_545 S
C1729 C1728 1.400 . S
C1729 C1730 1.398 . S
C1730 H1718 0.950 . S
C1730 C1729 1.398 . S
C1730 C1731 1.391 . S
C1731 H1719 0.950 . S
C1731 C1727 1.393 . S
C1731 C1730 1.391 . S
H1732 C1740 0.950 . S
H1733 C1745 0.950 . S
H1734 C1742 0.950 . S
H1735 C1744 0.950 . S
H1736 C1746 0.950 . S
H1737 C1748 0.950 . S
H1738 C1750 0.950 . S
H1739 C1751 0.950 . S
C1740 H1732 0.950 . S
C1740 C1741 1.386 . S
C1740 C1742 1.391 . S
C1741 C1740 1.386 . S
C1741 C1745 1.393 . S
C1742 H1734 0.950 . S
C1742 C1740 1.391 . S
C1742 C1743 1.400 . S
C1743 C1742 1.400 . S
C1743 C1744 1.398 . S
C1743 C1749 1.491 1_545 S
C1744 H1735 0.950 . S
C1744 C1743 1.398 . S
C1744 C1745 1.391 . S
C1745 H1733 0.950 . S
C1745 C1741 1.393 . S
C1745 C1744 1.391 . S
C1746 H1736 0.950 . S
C1746 C1747 1.386 . S
C1746 C1748 1.391 . S
C1747 C1746 1.386 . S
C1747 C1751 1.393 . S
C1748 H1737 0.950 . S
C1748 C1746 1.391 . S
C1748 C1749 1.400 . S
C1749 C1743 1.491 1_565 S
C1749 C1748 1.400 . S
C1749 C1750 1.398 . S
C1750 H1738 0.950 . S
C1750 C1749 1.398 . S
C1750 C1751 1.391 . S
C1751 H1739 0.950 . S
C1751 C1747 1.393 . S
C1751 C1750 1.391 . S
H1752 C1760 0.950 . S
H1753 C1765 0.950 . S
H1754 C1762 0.950 . S
H1755 C1764 0.950 . S
H1756 C1766 0.950 . S
H1757 C1768 0.950 . S
H1758 C1770 0.950 . S
H1759 C1771 0.950 . S
C1760 H1752 0.950 . S
C1760 C1761 1.386 . S
C1760 C1762 1.391 . S
C1761 C1760 1.386 . S
C1761 C1765 1.393 . S
C1762 H1754 0.950 . S
C1762 C1760 1.391 . S
C1762 C1763 1.400 . S
C1763 C1762 1.400 . S
C1763 C1764 1.398 . S
C1763 C1769 1.491 . S
C1764 H1755 0.950 . S
C1764 C1763 1.398 . S
C1764 C1765 1.391 . S
C1765 H1753 0.950 . S
C1765 C1761 1.393 . S
C1765 C1764 1.391 . S
C1766 H1756 0.950 . S
C1766 C1767 1.386 . S
C1766 C1768 1.391 . S
C1767 C1766 1.386 . S
C1767 C1771 1.393 . S
C1768 H1757 0.950 . S
C1768 C1766 1.391 . S
C1768 C1769 1.400 . S
C1769 C1763 1.491 . S
C1769 C1768 1.400 . S
C1769 C1770 1.398 . S
C1770 H1758 0.950 . S
C1770 C1769 1.398 . S
C1770 C1771 1.391 . S
C1771 H1759 0.950 . S
C1771 C1767 1.393 . S
C1771 C1770 1.391 . S
H1772 C1780 0.950 . S
H1773 C1785 0.950 . S
H1774 C1782 0.950 . S
H1775 C1784 0.950 . S
H1776 C1786 0.950 . S
H1777 C1788 0.950 . S
H1778 C1790 0.950 . S
H1779 C1791 0.950 . S
C1780 H1772 0.950 . S
C1780 C1781 1.386 . S
C1780 C1782 1.391 . S
C1781 C1780 1.386 . S
C1781 C1785 1.393 . S
C1782 H1774 0.950 . S
C1782 C1780 1.391 . S
C1782 C1783 1.400 . S
C1783 C1782 1.400 . S
C1783 C1784 1.398 . S
C1783 C1789 1.491 . S
C1784 H1775 0.950 . S
C1784 C1783 1.398 . S
C1784 C1785 1.391 . S
C1785 H1773 0.950 . S
C1785 C1781 1.393 . S
C1785 C1784 1.391 . S
C1786 H1776 0.950 . S
C1786 C1787 1.386 . S
C1786 C1788 1.391 . S
C1787 C1786 1.386 . S
C1787 C1791 1.393 . S
C1788 H1777 0.950 . S
C1788 C1786 1.391 . S
C1788 C1789 1.400 . S
C1789 C1783 1.491 . S
C1789 C1788 1.400 . S
C1789 C1790 1.398 . S
C1790 H1778 0.950 . S
C1790 C1789 1.398 . S
C1790 C1791 1.391 . S
C1791 H1779 0.950 . S
C1791 C1787 1.393 . S
C1791 C1790 1.391 . S
H1792 C1800 0.950 . S
H1793 C1805 0.950 . S
H1794 C1802 0.950 . S
H1795 C1804 0.950 . S
H1796 C1806 0.950 . S
H1797 C1808 0.950 . S
H1798 C1810 0.950 . S
H1799 C1811 0.950 . S
C1800 H1792 0.950 . S
C1800 C1801 1.386 . S
C1800 C1802 1.391 . S
C1801 C1800 1.386 . S
C1801 C1805 1.393 . S
C1802 H1794 0.950 . S
C1802 C1800 1.391 . S
C1802 C1803 1.400 . S
C1803 C1802 1.400 . S
C1803 C1804 1.398 . S
C1803 C1809 1.491 . S
C1804 H1795 0.950 . S
C1804 C1803 1.398 . S
C1804 C1805 1.391 . S
C1805 H1793 0.950 . S
C1805 C1801 1.393 . S
C1805 C1804 1.391 . S
C1806 H1796 0.950 . S
C1806 C1807 1.386 . S
C1806 C1808 1.391 . S
C1807 C1806 1.386 . S
C1807 C1811 1.393 . S
C1808 H1797 0.950 . S
C1808 C1806 1.391 . S
C1808 C1809 1.400 . S
C1809 C1803 1.491 . S
C1809 C1808 1.400 . S
C1809 C1810 1.398 . S
C1810 H1798 0.950 . S
C1810 C1809 1.398 . S
C1810 C1811 1.391 . S
C1811 H1799 0.950 . S
C1811 C1807 1.393 . S
C1811 C1810 1.391 . S
H1812 C1820 0.950 . S
H1813 C1825 0.950 . S
H1814 C1822 0.950 . S
H1815 C1824 0.950 . S
H1816 C1826 0.950 . S
H1817 C1828 0.950 . S
H1818 C1830 0.950 . S
H1819 C1831 0.950 . S
C1820 H1812 0.950 . S
C1820 C1821 1.386 . S
C1820 C1822 1.391 . S
C1821 C1820 1.386 . S
C1821 C1825 1.393 . S
C1822 H1814 0.950 . S
C1822 C1820 1.391 . S
C1822 C1823 1.400 . S
C1823 C1822 1.400 . S
C1823 C1824 1.398 . S
C1823 C1829 1.491 . S
C1824 H1815 0.950 . S
C1824 C1823 1.398 . S
C1824 C1825 1.391 . S
C1825 H1813 0.950 . S
C1825 C1821 1.393 . S
C1825 C1824 1.391 . S
C1826 H1816 0.950 . S
C1826 C1827 1.386 . S
C1826 C1828 1.391 . S
C1827 C1826 1.386 . S
C1827 C1831 1.393 . S
C1828 H1817 0.950 . S
C1828 C1826 1.391 . S
C1828 C1829 1.400 . S
C1829 C1823 1.491 . S
C1829 C1828 1.400 . S
C1829 C1830 1.398 . S
C1830 H1818 0.950 . S
C1830 C1829 1.398 . S
C1830 C1831 1.391 . S
C1831 H1819 0.950 . S
C1831 C1827 1.393 . S
C1831 C1830 1.391 . S
H1832 C1840 0.950 . S
H1833 C1845 0.950 . S
H1834 C1842 0.950 . S
H1835 C1844 0.950 . S
H1836 C1846 0.950 . S
H1837 C1848 0.950 . S
H1838 C1850 0.950 . S
H1839 C1851 0.950 . S
C1840 H1832 0.950 . S
C1840 C1841 1.386 . S
C1840 C1842 1.391 . S
C1841 C1840 1.386 . S
C1841 C1845 1.393 . S
C1842 H1834 0.950 . S
C1842 C1840 1.391 . S
C1842 C1843 1.400 . S
C1843 C1842 1.400 . S
C1843 C1844 1.398 . S
C1843 C1849 1.491 . S
C1844 H1835 0.950 . S
C1844 C1843 1.398 . S
C1844 C1845 1.391 . S
C1845 H1833 0.950 . S
C1845 C1841 1.393 . S
C1845 C1844 1.391 . S
C1846 H1836 0.950 . S
C1846 C1847 1.386 . S
C1846 C1848 1.391 . S
C1847 C1846 1.386 . S
C1847 C1851 1.393 . S
C1848 H1837 0.950 . S
C1848 C1846 1.391 . S
C1848 C1849 1.400 . S
C1849 C1843 1.491 . S
C1849 C1848 1.400 . S
C1849 C1850 1.398 . S
C1850 H1838 0.950 . S
C1850 C1849 1.398 . S
C1850 C1851 1.391 . S
C1851 H1839 0.950 . S
C1851 C1847 1.393 . S
C1851 C1850 1.391 . S
H1852 C1860 0.950 . S
H1853 C1865 0.950 . S
H1854 C1862 0.950 . S
H1855 C1864 0.950 . S
H1856 C1866 0.950 . S
H1857 C1868 0.950 . S
H1858 C1870 0.950 . S
H1859 C1871 0.950 . S
C1860 H1852 0.950 . S
C1860 C1861 1.386 . S
C1860 C1862 1.391 . S
C1861 C1860 1.386 . S
C1861 C1865 1.393 . S
C1862 H1854 0.950 . S
C1862 C1860 1.391 . S
C1862 C1863 1.400 . S
C1863 C1862 1.400 . S
C1863 C1864 1.398 . S
C1863 C1869 1.491 . S
C1864 H1855 0.950 . S
C1864 C1863 1.398 . S
C1864 C1865 1.391 . S
C1865 H1853 0.950 . S
C1865 C1861 1.393 . S
C1865 C1864 1.391 . S
C1866 H1856 0.950 . S
C1866 C1867 1.386 . S
C1866 C1868 1.391 . S
C1867 C1866 1.386 . S
C1867 C1871 1.393 . S
C1868 H1857 0.950 . S
C1868 C1866 1.391 . S
C1868 C1869 1.400 . S
C1869 C1863 1.491 . S
C1869 C1868 1.400 . S
C1869 C1870 1.398 . S
C1870 H1858 0.950 . S
C1870 C1869 1.398 . S
C1870 C1871 1.391 . S
C1871 H1859 0.950 . S
C1871 C1867 1.393 . S
C1871 C1870 1.391 . S
H1872 C1880 0.950 . S
H1873 C1885 0.950 . S
H1874 C1882 0.950 . S
H1875 C1884 0.950 . S
H1876 C1886 0.950 . S
H1877 C1888 0.950 . S
H1878 C1890 0.950 . S
H1879 C1891 0.950 . S
C1880 H1872 0.950 . S
C1880 C1881 1.386 . S
C1880 C1882 1.391 . S
C1881 C1880 1.386 . S
C1881 C1885 1.393 . S
C1882 H1874 0.950 . S
C1882 C1880 1.391 . S
C1882 C1883 1.400 . S
C1883 C1882 1.400 . S
C1883 C1884 1.398 . S
C1883 C1889 1.491 . S
C1884 H1875 0.950 . S
C1884 C1883 1.398 . S
C1884 C1885 1.391 . S
C1885 H1873 0.950 . S
C1885 C1881 1.393 . S
C1885 C1884 1.391 . S
C1886 H1876 0.950 . S
C1886 C1887 1.386 . S
C1886 C1888 1.391 . S
C1887 C1886 1.386 . S
C1887 C1891 1.393 . S
C1888 H1877 0.950 . S
C1888 C1886 1.391 . S
C1888 C1889 1.400 . S
C1889 C1883 1.491 . S
C1889 C1888 1.400 . S
C1889 C1890 1.398 . S
C1890 H1878 0.950 . S
C1890 C1889 1.398 . S
C1890 C1891 1.391 . S
C1891 H1879 0.950 . S
C1891 C1887 1.393 . S
C1891 C1890 1.391 . S
H1892 C1900 0.950 . S
H1893 C1905 0.950 . S
H1894 C1902 0.950 . S
H1895 C1904 0.950 . S
H1896 C1906 0.950 . S
H1897 C1908 0.950 . S
H1898 C1910 0.950 . S
H1899 C1911 0.950 . S
C1900 H1892 0.950 . S
C1900 C1901 1.386 . S
C1900 C1902 1.391 . S
C1901 C1900 1.386 . S
C1901 C1905 1.393 . S
C1902 H1894 0.950 . S
C1902 C1900 1.391 . S
C1902 C1903 1.400 . S
C1903 C1902 1.400 . S
C1903 C1904 1.398 . S
C1903 C1909 1.491 . S
C1904 H1895 0.950 . S
C1904 C1903 1.398 . S
C1904 C1905 1.391 . S
C1905 H1893 0.950 . S
C1905 C1901 1.393 . S
C1905 C1904 1.391 . S
C1906 H1896 0.950 . S
C1906 C1907 1.386 . S
C1906 C1908 1.391 . S
C1907 C1906 1.386 . S
C1907 C1911 1.393 . S
C1908 H1897 0.950 . S
C1908 C1906 1.391 . S
C1908 C1909 1.400 . S
C1909 C1903 1.491 . S
C1909 C1908 1.400 . S
C1909 C1910 1.398 . S
C1910 H1898 0.950 . S
C1910 C1909 1.398 . S
C1910 C1911 1.391 . S
C1911 H1899 0.950 . S
C1911 C1907 1.393 . S
C1911 C1910 1.391 . S
H1912 C1920 0.950 . S
H1913 C1925 0.950 . S
H1914 C1922 0.950 . S
H1915 C1924 0.950 . S
H1916 C1926 0.950 . S
H1917 C1928 0.950 . S
H1918 C1930 0.950 . S
H1919 C1931 0.950 . S
C1920 H1912 0.950 . S
C1920 C1921 1.386 . S
C1920 C1922 1.391 . S
C1921 C1920 1.386 . S
C1921 C1925 1.393 . S
C1922 H1914 0.950 . S
C1922 C1920 1.391 . S
C1922 C1923 1.400 . S
C1923 C1922 1.400 . S
C1923 C1924 1.398 . S
C1923 C1929 1.491 . S
C1924 H1915 0.950 . S
C1924 C1923 1.398 . S
C1924 C1925 1.391 . S
C1925 H1913 0.950 . S
C1925 C1921 1.393 . S
C1925 C1924 1.391 . S
C1926 H1916 0.950 . S
C1926 C1927 1.386 . S
C1926 C1928 1.391 . S
C1927 C1926 1.386 . S
C1927 C1931 1.393 . S
C1928 H1917 0.950 . S
C1928 C1926 1.391 . S
C1928 C1929 1.400 . S
C1929 C1923 1.491 . S
C1929 C1928 1.400 . S
C1929 C1930 1.398 . S
C1930 H1918 0.950 . S
C1930 C1929 1.398 . S
C1930 C1931 1.391 . S
C1931 H1919 0.950 . S
C1931 C1927 1.393 . S
C1931 C1930 1.391 . S
H1932 C1940 0.950 . S
H1933 C1945 0.950 . S
H1934 C1942 0.950 . S
H1935 C1944 0.950 . S
H1936 C1946 0.950 . S
H1937 C1948 0.950 . S
H1938 C1950 0.950 . S
H1939 C1951 0.950 . S
C1940 H1932 0.950 . S
C1940 C1941 1.386 . S
C1940 C1942 1.391 . S
C1941 C1940 1.386 . S
C1941 C1945 1.393 . S
C1942 H1934 0.950 . S
C1942 C1940 1.391 . S
C1942 C1943 1.400 . S
C1943 C1942 1.400 . S
C1943 C1944 1.398 . S
C1943 C1949 1.491 . S
C1944 H1935 0.950 . S
C1944 C1943 1.398 . S
C1944 C1945 1.391 . S
C1945 H1933 0.950 . S
C1945 C1941 1.393 . S
C1945 C1944 1.391 . S
C1946 H1936 0.950 . S
C1946 C1947 1.386 . S
C1946 C1948 1.391 . S
C1947 C1946 1.386 . S
C1947 C1951 1.393 . S
C1948 H1937 0.950 . S
C1948 C1946 1.391 . S
C1948 C1949 1.400 . S
C1949 C1943 1.491 . S
C1949 C1948 1.400 . S
C1949 C1950 1.398 . S
C1950 H1938 0.950 . S
C1950 C1949 1.398 . S
C1950 C1951 1.391 . S
C1951 H1939 0.950 . S
C1951 C1947 1.393 . S
C1951 C1950 1.391 . S
H1952 C1960 0.950 . S
H1953 C1965 0.950 . S
H1954 C1962 0.950 . S
H1955 C1964 0.950 . S
H1956 C1966 0.950 . S
H1957 C1968 0.950 . S
H1958 C1970 0.950 . S
H1959 C1971 0.950 . S
C1960 H1952 0.950 . S
C1960 C1961 1.386 . S
C1960 C1962 1.391 . S
C1961 C1960 1.386 . S
C1961 C1965 1.393 . S
C1962 H1954 0.950 . S
C1962 C1960 1.391 . S
C1962 C1963 1.400 . S
C1963 C1962 1.400 . S
C1963 C1964 1.398 . S
C1963 C1969 1.491 . S
C1964 H1955 0.950 . S
C1964 C1963 1.398 . S
C1964 C1965 1.391 . S
C1965 H1953 0.950 . S
C1965 C1961 1.393 . S
C1965 C1964 1.391 . S
C1966 H1956 0.950 . S
C1966 C1967 1.386 . S
C1966 C1968 1.391 . S
C1967 C1966 1.386 . S
C1967 C1971 1.393 . S
C1968 H1957 0.950 . S
C1968 C1966 1.391 . S
C1968 C1969 1.400 . S
C1969 C1963 1.491 . S
C1969 C1968 1.400 . S
C1969 C1970 1.398 . S
C1970 H1958 0.950 . S
C1970 C1969 1.398 . S
C1970 C1971 1.391 . S
C1971 H1959 0.950 . S
C1971 C1967 1.393 . S
C1971 C1970 1.391 . S
H1972 C1980 0.950 . S
H1973 C1985 0.950 . S
H1974 C1982 0.950 . S
H1975 C1984 0.950 . S
H1976 C1986 0.950 . S
H1977 C1988 0.950 . S
H1978 C1990 0.950 . S
H1979 C1991 0.950 . S
C1980 H1972 0.950 . S
C1980 C1981 1.386 . S
C1980 C1982 1.391 . S
C1981 C1980 1.386 . S
C1981 C1985 1.393 . S
C1982 H1974 0.950 . S
C1982 C1980 1.391 . S
C1982 C1983 1.400 . S
C1983 C1982 1.400 . S
C1983 C1984 1.398 . S
C1983 C1989 1.491 . S
C1984 H1975 0.950 . S
C1984 C1983 1.398 . S
C1984 C1985 1.391 . S
C1985 H1973 0.950 . S
C1985 C1981 1.393 . S
C1985 C1984 1.391 . S
C1986 H1976 0.950 . S
C1986 C1987 1.386 . S
C1986 C1988 1.391 . S
C1987 C1986 1.386 . S
C1987 C1991 1.393 . S
C1988 H1977 0.950 . S
C1988 C1986 1.391 . S
C1988 C1989 1.400 . S
C1989 C1983 1.491 . S
C1989 C1988 1.400 . S
C1989 C1990 1.398 . S
C1990 H1978 0.950 . S
C1990 C1989 1.398 . S
C1990 C1991 1.391 . S
C1991 H1979 0.950 . S
C1991 C1987 1.393 . S
C1991 C1990 1.391 . S
H1992 C2000 0.950 . S
H1993 C2005 0.950 . S
H1994 C2002 0.950 . S
H1995 C2004 0.950 . S
H1996 C2006 0.950 . S
H1997 C2008 0.950 . S
H1998 C2010 0.950 . S
H1999 C2011 0.950 . S
C2000 H1992 0.950 . S
C2000 C2001 1.386 . S
C2000 C2002 1.391 . S
C2001 C2000 1.386 . S
C2001 C2005 1.393 . S
C2002 H1994 0.950 . S
C2002 C2000 1.391 . S
C2002 C2003 1.400 . S
C2003 C2002 1.400 . S
C2003 C2004 1.398 . S
C2003 C2009 1.491 . S
C2004 H1995 0.950 . S
C2004 C2003 1.398 . S
C2004 C2005 1.391 . S
C2005 H1993 0.950 . S
C2005 C2001 1.393 . S
C2005 C2004 1.391 . S
C2006 H1996 0.950 . S
C2006 C2007 1.386 . S
C2006 C2008 1.391 . S
C2007 C2006 1.386 . S
C2007 C2011 1.393 . S
C2008 H1997 0.950 . S
C2008 C2006 1.391 . S
C2008 C2009 1.400 . S
C2009 C2003 1.491 . S
C2009 C2008 1.400 . S
C2009 C2010 1.398 . S
C2010 H1998 0.950 . S
C2010 C2009 1.398 . S
C2010 C2011 1.391 . S
C2011 H1999 0.950 . S
C2011 C2007 1.393 . S
C2011 C2010 1.391 . S
H2012 C2020 0.950 . S
H2013 C2025 0.950 . S
H2014 C2022 0.950 . S
H2015 C2024 0.950 . S
H2016 C2026 0.950 . S
H2017 C2028 0.950 . S
H2018 C2030 0.950 . S
H2019 C2031 0.950 . S
C2020 H2012 0.950 . S
C2020 C2021 1.386 . S
C2020 C2022 1.391 . S
C2021 C2020 1.386 . S
C2021 C2025 1.393 . S
C2022 H2014 0.950 . S
C2022 C2020 1.391 . S
C2022 C2023 1.400 . S
C2023 C2022 1.400 . S
C2023 C2024 1.398 . S
C2023 C2029 1.491 . S
C2024 H2015 0.950 . S
C2024 C2023 1.398 . S
C2024 C2025 1.391 . S
C2025 H2013 0.950 . S
C2025 C2021 1.393 . S
C2025 C2024 1.391 . S
C2026 H2016 0.950 . S
C2026 C2027 1.386 . S
C2026 C2028 1.391 . S
C2027 C2026 1.386 . S
C2027 C2031 1.393 . S
C2028 H2017 0.950 . S
C2028 C2026 1.391 . S
C2028 C2029 1.400 . S
C2029 C2023 1.491 . S
C2029 C2028 1.400 . S
C2029 C2030 1.398 . S
C2030 H2018 0.950 . S
C2030 C2029 1.398 . S
C2030 C2031 1.391 . S
C2031 H2019 0.950 . S
C2031 C2027 1.393 . S
C2031 C2030 1.391 . S
H2032 C2040 0.950 . S
H2033 C2045 0.950 . S
H2034 C2042 0.950 . S
H2035 C2044 0.950 . S
H2036 C2046 0.950 . S
H2037 C2048 0.950 . S
H2038 C2050 0.950 . S
H2039 C2051 0.950 . S
C2040 H2032 0.950 . S
C2040 C2041 1.386 . S
C2040 C2042 1.391 . S
C2041 C2040 1.386 . S
C2041 C2045 1.393 . S
C2042 H2034 0.950 . S
C2042 C2040 1.391 . S
C2042 C2043 1.400 . S
C2043 C2042 1.400 . S
C2043 C2044 1.398 . S
C2043 C2049 1.491 . S
C2044 H2035 0.950 . S
C2044 C2043 1.398 . S
C2044 C2045 1.391 . S
C2045 H2033 0.950 . S
C2045 C2041 1.393 . S
C2045 C2044 1.391 . S
C2046 H2036 0.950 . S
C2046 C2047 1.386 . S
C2046 C2048 1.391 . S
C2047 C2046 1.386 . S
C2047 C2051 1.393 . S
C2048 H2037 0.950 . S
C2048 C2046 1.391 . S
C2048 C2049 1.400 . S
C2049 C2043 1.491 . S
C2049 C2048 1.400 . S
C2049 C2050 1.398 . S
C2050 H2038 0.950 . S
C2050 C2049 1.398 . S
C2050 C2051 1.391 . S
C2051 H2039 0.950 . S
C2051 C2047 1.393 . S
C2051 C2050 1.391 . S
H2052 C2060 0.950 . S
H2053 C2065 0.950 . S
H2054 C2062 0.950 . S
H2055 C2064 0.950 . S
H2056 C2066 0.950 . S
H2057 C2068 0.950 . S
H2058 C2070 0.950 . S
H2059 C2071 0.950 . S
C2060 H2052 0.950 . S
C2060 C2061 1.386 . S
C2060 C2062 1.391 . S
C2061 C2060 1.386 . S
C2061 C2065 1.393 . S
C2062 H2054 0.950 . S
C2062 C2060 1.391 . S
C2062 C2063 1.400 . S
C2063 C2062 1.400 . S
C2063 C2064 1.398 . S
C2063 C2069 1.491 . S
C2064 H2055 0.950 . S
C2064 C2063 1.398 . S
C2064 C2065 1.391 . S
C2065 H2053 0.950 . S
C2065 C2061 1.393 . S
C2065 C2064 1.391 . S
C2066 H2056 0.950 . S
C2066 C2067 1.386 . S
C2066 C2068 1.391 . S
C2067 C2066 1.386 . S
C2067 C2071 1.393 . S
C2068 H2057 0.950 . S
C2068 C2066 1.391 . S
C2068 C2069 1.400 . S
C2069 C2063 1.491 . S
C2069 C2068 1.400 . S
C2069 C2070 1.398 . S
C2070 H2058 0.950 . S
C2070 C2069 1.398 . S
C2070 C2071 1.391 . S
C2071 H2059 0.950 . S
C2071 C2067 1.393 . S
C2071 C2070 1.391 . S
H2072 C2080 0.950 . S
H2073 C2085 0.950 . S
H2074 C2082 0.950 . S
H2075 C2084 0.950 . S
H2076 C2086 0.950 . S
H2077 C2088 0.950 . S
H2078 C2090 0.950 . S
H2079 C2091 0.950 . S
C2080 H2072 0.950 . S
C2080 C2081 1.386 . S
C2080 C2082 1.391 . S
C2081 C2080 1.386 . S
C2081 C2085 1.393 . S
C2082 H2074 0.950 . S
C2082 C2080 1.391 . S
C2082 C2083 1.400 . S
C2083 C2082 1.400 . S
C2083 C2084 1.398 . S
C2083 C2089 1.491 . S
C2084 H2075 0.950 . S
C2084 C2083 1.398 . S
C2084 C2085 1.391 . S
C2085 H2073 0.950 . S
C2085 C2081 1.393 . S
C2085 C2084 1.391 . S
C2086 H2076 0.950 . S
C2086 C2087 1.386 . S
C2086 C2088 1.391 . S
C2087 C2086 1.386 . S
C2087 C2091 1.393 . S
C2088 H2077 0.950 . S
C2088 C2086 1.391 . S
C2088 C2089 1.400 . S
C2089 C2083 1.491 . S
C2089 C2088 1.400 . S
C2089 C2090 1.398 . S
C2090 H2078 0.950 . S
C2090 C2089 1.398 . S
C2090 C2091 1.391 . S
C2091 H2079 0.950 . S
C2091 C2087 1.393 . S
C2091 C2090 1.391 . S
H2092 C2100 0.950 . S
H2093 C2105 0.950 . S
H2094 C2102 0.950 . S
H2095 C2104 0.950 . S
H2096 C2106 0.950 . S
H2097 C2108 0.950 . S
H2098 C2110 0.950 . S
H2099 C2111 0.950 . S
C2100 H2092 0.950 . S
C2100 C2101 1.386 . S
C2100 C2102 1.391 . S
C2101 C2100 1.386 . S
C2101 C2105 1.393 . S
C2102 H2094 0.950 . S
C2102 C2100 1.391 . S
C2102 C2103 1.400 . S
C2103 C2102 1.400 . S
C2103 C2104 1.398 . S
C2103 C2109 1.491 . S
C2104 H2095 0.950 . S
C2104 C2103 1.398 . S
C2104 C2105 1.391 . S
C2105 H2093 0.950 . S
C2105 C2101 1.393 . S
C2105 C2104 1.391 . S
C2106 H2096 0.950 . S
C2106 C2107 1.386 . S
C2106 C2108 1.391 . S
C2107 C2106 1.386 . S
C2107 C2111 1.393 . S
C2108 H2097 0.950 . S
C2108 C2106 1.391 . S
C2108 C2109 1.400 . S
C2109 C2103 1.491 . S
C2109 C2108 1.400 . S
C2109 C2110 1.398 . S
C2110 H2098 0.950 . S
C2110 C2109 1.398 . S
C2110 C2111 1.391 . S
C2111 H2099 0.950 . S
C2111 C2107 1.393 . S
C2111 C2110 1.391 . S
H2112 C2120 0.950 . S
H2113 C2125 0.950 . S
H2114 C2122 0.950 . S
H2115 C2124 0.950 . S
H2116 C2126 0.950 . S
H2117 C2128 0.950 . S
H2118 C2130 0.950 . S
H2119 C2131 0.950 . S
C2120 H2112 0.950 . S
C2120 C2121 1.386 . S
C2120 C2122 1.391 . S
C2121 C2120 1.386 . S
C2121 C2125 1.393 . S
C2122 H2114 0.950 . S
C2122 C2120 1.391 . S
C2122 C2123 1.400 . S
C2123 C2122 1.400 . S
C2123 C2124 1.398 . S
C2123 C2129 1.491 . S
C2124 H2115 0.950 . S
C2124 C2123 1.398 . S
C2124 C2125 1.391 . S
C2125 H2113 0.950 . S
C2125 C2121 1.393 . S
C2125 C2124 1.391 . S
C2126 H2116 0.950 . S
C2126 C2127 1.386 . S
C2126 C2128 1.391 . S
C2127 C2126 1.386 . S
C2127 C2131 1.393 . S
C2128 H2117 0.950 . S
C2128 C2126 1.391 . S
C2128 C2129 1.400 . S
C2129 C2123 1.491 . S
C2129 C2128 1.400 . S
C2129 C2130 1.398 . S
C2130 H2118 0.950 . S
C2130 C2129 1.398 . S
C2130 C2131 1.391 . S
C2131 H2119 0.950 . S
C2131 C2127 1.393 . S
C2131 C2130 1.391 . S
H2132 C2140 0.950 . S
H2133 C2145 0.950 . S
H2134 C2142 0.950 . S
H2135 C2144 0.950 . S
H2136 C2146 0.950 . S
H2137 C2148 0.950 . S
H2138 C2150 0.950 . S
H2139 C2151 0.950 . S
C2140 H2132 0.950 . S
C2140 C2141 1.386 . S
C2140 C2142 1.391 . S
C2141 C2140 1.386 . S
C2141 C2145 1.393 . S
C2142 H2134 0.950 . S
C2142 C2140 1.391 . S
C2142 C2143 1.400 . S
C2143 C2142 1.400 . S
C2143 C2144 1.398 . S
C2143 C2149 1.491 . S
C2144 H2135 0.950 . S
C2144 C2143 1.398 . S
C2144 C2145 1.391 . S
C2145 H2133 0.950 . S
C2145 C2141 1.393 . S
C2145 C2144 1.391 . S
C2146 H2136 0.950 . S
C2146 C2147 1.386 . S
C2146 C2148 1.391 . S
C2147 C2146 1.386 . S
C2147 C2151 1.393 . S
C2148 H2137 0.950 . S
C2148 C2146 1.391 . S
C2148 C2149 1.400 . S
C2149 C2143 1.491 . S
C2149 C2148 1.400 . S
C2149 C2150 1.398 . S
C2150 H2138 0.950 . S
C2150 C2149 1.398 . S
C2150 C2151 1.391 . S
C2151 H2139 0.950 . S
C2151 C2147 1.393 . S
C2151 C2150 1.391 . S
H2152 C2160 0.950 . S
H2153 C2165 0.950 . S
H2154 C2162 0.950 . S
H2155 C2164 0.950 . S
H2156 C2166 0.950 . S
H2157 C2168 0.950 . S
H2158 C2170 0.950 . S
H2159 C2171 0.950 . S
C2160 H2152 0.950 . S
C2160 C2161 1.386 . S
C2160 C2162 1.391 . S
C2161 C2160 1.386 . S
C2161 C2165 1.393 . S
C2162 H2154 0.950 . S
C2162 C2160 1.391 . S
C2162 C2163 1.400 . S
C2163 C2162 1.400 . S
C2163 C2164 1.398 . S
C2163 C2169 1.491 . S
C2164 H2155 0.950 . S
C2164 C2163 1.398 . S
C2164 C2165 1.391 . S
C2165 H2153 0.950 . S
C2165 C2161 1.393 . S
C2165 C2164 1.391 . S
C2166 H2156 0.950 . S
C2166 C2167 1.386 . S
C2166 C2168 1.391 . S
C2167 C2166 1.386 . S
C2167 C2171 1.393 . S
C2168 H2157 0.950 . S
C2168 C2166 1.391 . S
C2168 C2169 1.400 . S
C2169 C2163 1.491 . S
C2169 C2168 1.400 . S
C2169 C2170 1.398 . S
C2170 H2158 0.950 . S
C2170 C2169 1.398 . S
C2170 C2171 1.391 . S
C2171 H2159 0.950 . S
C2171 C2167 1.393 . S
C2171 C2170 1.391 . S
H2172 C2180 0.950 . S
H2173 C2185 0.950 . S
H2174 C2182 0.950 . S
H2175 C2184 0.950 . S
H2176 C2186 0.950 . S
H2177 C2188 0.950 . S
H2178 C2190 0.950 . S
H2179 C2191 0.950 . S
C2180 H2172 0.950 . S
C2180 C2181 1.386 . S
C2180 C2182 1.391 . S
C2181 C2180 1.386 . S
C2181 C2185 1.393 . S
C2182 H2174 0.950 . S
C2182 C2180 1.391 . S
C2182 C2183 1.400 . S
C2183 C2182 1.400 . S
C2183 C2184 1.398 . S
C2183 C2189 1.491 . S
C2184 H2175 0.950 . S
C2184 C2183 1.398 . S
C2184 C2185 1.391 . S
C2185 H2173 0.950 . S
C2185 C2181 1.393 . S
C2185 C2184 1.391 . S
C2186 H2176 0.950 . S
C2186 C2187 1.386 . S
C2186 C2188 1.391 . S
C2187 C2186 1.386 . S
C2187 C2191 1.393 . S
C2188 H2177 0.950 . S
C2188 C2186 1.391 . S
C2188 C2189 1.400 . S
C2189 C2183 1.491 . S
C2189 C2188 1.400 . S
C2189 C2190 1.398 . S
C2190 H2178 0.950 . S
C2190 C2189 1.398 . S
C2190 C2191 1.391 . S
C2191 H2179 0.950 . S
C2191 C2187 1.393 . S
C2191 C2190 1.391 . S
H2192 C2200 0.950 . S
H2193 C2205 0.950 . S
H2194 C2202 0.950 . S
H2195 C2204 0.950 . S
H2196 C2206 0.950 . S
H2197 C2208 0.950 . S
H2198 C2210 0.950 . S
H2199 C2211 0.950 . S
C2200 H2192 0.950 . S
C2200 C2201 1.386 . S
C2200 C2202 1.391 . S
C2201 C2200 1.386 . S
C2201 C2205 1.393 . S
C2202 H2194 0.950 . S
C2202 C2200 1.391 . S
C2202 C2203 1.400 . S
C2203 C2202 1.400 . S
C2203 C2204 1.398 . S
C2203 C2209 1.491 . S
C2204 H2195 0.950 . S
C2204 C2203 1.398 . S
C2204 C2205 1.391 . S
C2205 H2193 0.950 . S
C2205 C2201 1.393 . S
C2205 C2204 1.391 . S
C2206 H2196 0.950 . S
C2206 C2207 1.386 . S
C2206 C2208 1.391 . S
C2207 C2206 1.386 . S
C2207 C2211 1.393 . S
C2208 H2197 0.950 . S
C2208 C2206 1.391 . S
C2208 C2209 1.400 . S
C2209 C2203 1.491 . S
C2209 C2208 1.400 . S
C2209 C2210 1.398 . S
C2210 H2198 0.950 . S
C2210 C2209 1.398 . S
C2210 C2211 1.391 . S
C2211 H2199 0.950 . S
C2211 C2207 1.393 . S
C2211 C2210 1.391 . S
H2212 C2220 0.950 . S
H2213 C2225 0.950 . S
H2214 C2222 0.950 . S
H2215 C2224 0.950 . S
H2216 C2226 0.950 . S
H2217 C2228 0.950 . S
H2218 C2230 0.950 . S
H2219 C2231 0.950 . S
C2220 H2212 0.950 . S
C2220 C2221 1.386 . S
C2220 C2222 1.391 . S
C2221 C2220 1.386 . S
C2221 C2225 1.393 . S
C2222 H2214 0.950 . S
C2222 C2220 1.391 . S
C2222 C2223 1.400 . S
C2223 C2222 1.400 . S
C2223 C2224 1.398 . S
C2223 C2229 1.491 . S
C2224 H2215 0.950 . S
C2224 C2223 1.398 . S
C2224 C2225 1.391 . S
C2225 H2213 0.950 . S
C2225 C2221 1.393 . S
C2225 C2224 1.391 . S
C2226 H2216 0.950 . S
C2226 C2227 1.386 . S
C2226 C2228 1.391 . S
C2227 C2226 1.386 . S
C2227 C2231 1.393 . S
C2228 H2217 0.950 . S
C2228 C2226 1.391 . S
C2228 C2229 1.400 . S
C2229 C2223 1.491 . S
C2229 C2228 1.400 . S
C2229 C2230 1.398 . S
C2230 H2218 0.950 . S
C2230 C2229 1.398 . S
C2230 C2231 1.391 . S
C2231 H2219 0.950 . S
C2231 C2227 1.393 . S
C2231 C2230 1.391 . S
C1281 C834 2.040 . S
C1287 C39 2.038 . S
C1301 C675 2.111 . S
C1307 C75 2.070 . S
C1321 C728 1.665 . S
C1327 C145 1.681 . S
C1341 C764 1.896 . S
C1347 C181 1.896 . S
C1361 C781 2.040 . S
C1367 C92 2.020 . S
C1381 C128 1.860 . S
C1387 C817 1.855 . S
C1401 C658 1.826 . S
C1407 C198 1.860 . S
C1421 C711 1.802 . S
C1427 C22 1.816 . S
C1441 C976 1.711 . S
C1447 C234 1.694 . S
C1461 C304 1.985 . S
C1467 C1046 1.980 . S
C1481 C357 1.854 . S
C1487 C870 1.829 . S
C1501 C940 2.162 . S
C1507 C410 2.154 . S
C1521 C1188 2.111 . S
C1527 C463 2.144 . S
C1541 C516 1.901 . S
C1547 C1258 1.898 . S
C1561 C569 2.192 . S
C1567 C1099 2.186 . S
C1581 C622 1.664 . S
C1587 C1135 1.597 . S
C1601 C923 1.727 . S
C1607 C605 1.715 . S
C1621 C1241 2.019 . S
C1627 C287 2.029 . S
C1641 C340 1.836 . S
C1647 C1082 1.812 . S
C1661 C1152 2.060 . S
C1667 C393 2.018 . S
C1681 C1205 2.126 . S
C1687 C251 2.145 . S
C1701 C499 1.882 . S
C1707 C1029 1.882 . S
C1721 C887 2.012 . S
C1727 C552 1.994 . S
C1741 C993 1.882 . S
C1747 C446 1.876 . S
C1761 C38 1.983 . S
C1767 C250 1.986 . S
C1781 C294 1.809 . S
C1787 C82 1.799 . S
C1801 C144 1.827 . S
C1807 C347 1.824 . S
C1821 C188 1.743 . S
C1827 C400 1.737 . S
C1841 C453 1.962 . S
C1847 C91 1.961 . S
C1861 C506 1.717 . S
C1867 C135 1.718 . S
C1881 C559 2.006 . S
C1887 C197 2.009 . S
C1901 C29 1.660 . S
C1907 C612 1.656 . S
C1921 C621 1.928 . S
C1927 C241 1.910 . S
C1941 C303 2.154 . S
C1947 C462 2.156 . S
C1961 C356 1.983 . S
C1967 C515 1.980 . S
C1981 C568 2.216 . S
C1987 C409 2.216 . S
C2001 C886 1.971 . S
C2007 C665 1.958 . S
C2021 C930 1.766 . S
C2027 C718 1.759 . S
C2041 C780 1.974 . S
C2047 C992 1.968 . S
C2061 C824 1.844 . S
C2067 C1036 1.846 . S
C2081 C727 1.929 . S
C2087 C1089 1.920 . S
C2101 C771 1.880 . S
C2107 C1151 1.890 . S
C2121 C1204 2.155 . S
C2127 C833 2.156 . S
C2141 C674 1.944 . S
C2147 C1248 1.926 . S
C2161 C877 1.835 . S
C2167 C1257 1.843 . S
C2181 C1098 2.030 . S
C2187 C939 2.031 . S
C2201 C983 1.814 . S
C2207 C1142 1.797 . S
C2221 C1195 1.940 . S
C2227 C1045 1.945 . S
