# Generated by pormake.
# Topology sxb, (6)-cn, num edge types: 1
# Building blocks:
#     Node 0, Type 0, BuildingBlock: BETGAK_clean_sbu_0, # of connection points: 6
#     Node 1, Type 0, BuildingBlock: BETGAK_clean_sbu_0, # of connection points: 6
#     Node 2, Type 0, BuildingBlock: BETGAK_clean_sbu_0, # of connection points: 6
#     Node 3, Type 0, BuildingBlock: BETGAK_clean_sbu_0, # of connection points: 6
#     Edge 4, Type (0, 0), BuildingBlock: UVAHIK_clean_linker_0, # of connection points: 2
#     Edge 5, Type (0, 0), BuildingBlock: UVAHIK_clean_linker_0, # of connection points: 2
#     Edge 6, Type (0, 0), BuildingBlock: UVAHIK_clean_linker_0, # of connection points: 2
#     Edge 7, Type (0, 0), BuildingBlock: UVAHIK_clean_linker_0, # of connection points: 2
#     Edge 8, Type (0, 0), BuildingBlock: UVAHIK_clean_linker_0, # of connection points: 2
#     Edge 9, Type (0, 0), BuildingBlock: UVAHIK_clean_linker_0, # of connection points: 2
#     Edge 10, Type (0, 0), BuildingBlock: UVAHIK_clean_linker_0, # of connection points: 2
#     Edge 11, Type (0, 0), BuildingBlock: UVAHIK_clean_linker_0, # of connection points: 2
#     Edge 12, Type (0, 0), BuildingBlock: UVAHIK_clean_linker_0, # of connection points: 2
#     Edge 13, Type (0, 0), BuildingBlock: UVAHIK_clean_linker_0, # of connection points: 2
#     Edge 14, Type (0, 0), BuildingBlock: UVAHIK_clean_linker_0, # of connection points: 2
#     Edge 15, Type (0, 0), BuildingBlock: UVAHIK_clean_linker_0, # of connection points: 2
# Relax obj value: 0.289
# Max RMSD: 0.108
# Mean RMSD: 0.071
data_MOF--net-sxb--node1-BETGAK_clean_sbu_0--edge1-UVAHIK_clean_linker_0
_symmetry_space_group_name_H-M    P1
_symmetry_Int_Tables_number       1
_symmetry_cell_setting            triclinic
loop_
_symmetry_equiv_pos_as_xyz
'x, y, z'
_cell_length_a     22.521652
_cell_length_b     44.436035
_cell_length_c     39.603541
_cell_angle_alpha  92.585477
_cell_angle_beta   94.372142
_cell_angle_gamma 72.289912
loop_
_atom_site_label
_atom_site_type_symbol
_atom_site_fract_x
_atom_site_fract_y
_atom_site_fract_z
_atom_type_partial_charge
La0 La 1.02191 1.0197 0.98672 0.0
La1 La 0.12338 0.03626 -0.01072 0.0
C2 C 0.91531 1.01781 -0.0023 0.0
C3 C 0.85706 0.04393 -0.00239 0.0
C4 C 0.80965 0.04368 0.97291 0.0
C5 C 0.75582 0.06919 0.97029 0.0
C6 C 0.7474 0.09552 -0.00715 0.0
C7 C 0.7961 0.09615 0.01695 0.0
C8 C 0.85058 0.07057 0.0193 0.0
C9 C 1.05859 1.01915 0.92391 0.0
C10 C 1.00413 0.09724 0.98659 0.0
C11 C 0.23026 0.03715 0.97782 0.0
C12 C 0.28825 1.01078 0.97969 0.0
C13 C 0.33497 1.0118 0.00453 0.0
C14 C 0.38922 0.98656 0.00787 0.0
C15 C 0.39867 0.95976 0.98593 0.0
C16 C 0.35015 0.95808 0.9622 0.0
C17 C 0.2954 0.98339 0.95904 0.0
C18 C 0.08636 0.03707 0.05203 0.0
C19 C 0.1413 0.95861 -0.01102 0.0
O20 O 0.93894 1.01097 0.96826 0.0
O21 O 0.95767 1.01847 0.02189 0.0
O22 O 1.04148 0.99706 0.93667 0.0
O23 O 1.05625 0.04055 0.94673 0.0
O24 O 0.97828 0.0742 -0.00904 0.0
O25 O 1.06506 0.0871 0.98225 0.0
O26 O 0.20565 0.04641 0.00674 0.0
O27 O 0.18857 0.03496 0.95384 0.0
O28 O 0.10349 0.05916 0.03919 0.0
O29 O 0.08894 1.01553 0.0293 0.0
O30 O 0.16796 0.98178 0.98773 0.0
O31 O 0.07959 0.96848 -0.0095 0.0
H32 H 0.8141 1.02358 0.95566 0.0
H33 H 0.71928 0.06706 0.95182 0.0
H34 H 0.79079 0.11574 0.03493 0.0
H35 H 0.88724 0.07164 0.03825 0.0
H36 H 0.32996 0.03242 0.02107 0.0
H37 H 0.4255 0.98937 0.02616 0.0
H38 H 0.35611 0.93801 0.9448 0.0
H39 H 0.25929 0.98165 0.94005 0.0
La40 La 0.09505 0.99355 0.4894 0.0
La41 La 1.05047 0.06427 0.48809 0.0
C42 C 0.12274 0.93991 0.51331 0.0
C43 C 0.08819 0.91723 0.5063 0.0
C44 C 1.06769 0.912 0.47278 0.0
C45 C 1.02213 0.89703 0.46636 0.0
C46 C 0.99633 0.88726 0.49332 0.0
C47 C 1.01738 0.89195 0.52681 0.0
C48 C 1.06338 0.90678 0.53327 0.0
C49 C 1.07043 1.01017 0.42426 0.0
C50 C 0.93689 0.02812 0.48772 0.0
C51 C 1.0223 0.11788 0.46402 0.0
C52 C 1.0615 0.13882 0.46561 0.0
C53 C 0.07724 0.15185 0.49676 0.0
C54 C 0.12365 0.16665 0.49904 0.0
C55 C 0.15472 0.16855 0.47025 0.0
C56 C 0.1391 0.15556 0.43922 0.0
C57 C 0.09236 0.1411 0.43682 0.0
C58 C 0.07575 0.04747 0.55312 0.0
C59 C 0.2085 0.0298 0.48937 0.0
O60 O 0.15094 0.94623 0.48795 0.0
O61 O 0.09071 0.9654 0.52929 0.0
O62 O 0.08776 0.98134 0.43465 0.0
O63 O 1.06511 1.02752 0.45096 0.0
O64 O 0.98643 1.00108 0.4878 0.0
O65 O 0.95263 0.05545 0.48769 0.0
O66 O 1.0022 0.11259 0.49271 0.0
O67 O 1.04448 0.09191 0.44612 0.0
O68 O 1.05788 0.07631 0.54281 0.0
O69 O 0.08086 0.03017 0.52641 0.0
O70 O 0.1589 0.05682 0.48855 0.0
O71 O 0.19284 1.00252 0.49039 0.0
H72 H 0.08472 0.92064 0.4515 0.0
H73 H 1.00621 0.89358 0.44036 0.0
H74 H 0.99841 0.88408 0.54791 0.0
H75 H 0.07744 0.91145 0.55927 0.0
H76 H 1.05489 0.15004 0.51952 0.0
H77 H 0.13444 0.17708 0.52309 0.0
H78 H 0.16297 0.15672 0.41679 0.0
H79 H 0.08189 0.13067 0.41271 0.0
La80 La 0.51902 0.51877 0.98251 0.0
La81 La 0.62462 0.53678 -0.0119 0.0
C82 C 0.41192 0.51454 0.98739 0.0
C83 C 0.35353 0.54031 -0.01221 0.0
C84 C 0.30584 0.53991 0.96337 0.0
C85 C 0.25301 0.56592 0.96005 0.0
C86 C 0.24586 0.59279 0.98171 0.0
C87 C 0.29497 0.59343 0.00553 0.0
C88 C 0.34841 0.56739 0.00856 0.0
C89 C 0.56463 0.51836 0.9224 0.0
C90 C 0.50034 0.59655 0.98673 0.0
C91 C 0.72288 0.54219 0.96809 0.0
C92 C 0.78451 0.51861 0.97261 0.0
C93 C 0.82449 0.52121 0.0006 0.0
C94 C 0.87775 0.49636 0.00856 0.0
C95 C 0.8929 0.46828 -0.01152 0.0
C96 C 0.85263 0.46577 0.96042 0.0
C97 C 0.79933 0.49076 0.95237 0.0
C98 C 0.60624 0.53017 0.05306 0.0
C99 C 0.6435 0.45949 -0.01055 0.0
O100 O 0.43847 0.51111 0.9588 0.0
O101 O 0.45174 0.51312 0.01347 0.0
O102 O 0.54959 0.49518 0.9342 0.0
O103 O 0.5577 0.53992 0.94544 0.0
O104 O 0.47355 0.57315 0.9834 0.0
O105 O 0.5626 0.58738 -0.0108 0.0
O106 O 0.69865 0.55637 -0.00422 0.0
O107 O 0.68244 0.53289 0.94832 0.0
O108 O 0.65103 0.53888 0.0423 0.0
O109 O 0.57179 0.52556 0.02751 0.0
O110 O 0.66946 0.48253 0.98538 0.0
O111 O 0.58199 0.46914 -0.00752 0.0
H112 H 0.30969 0.51951 0.94662 0.0
H113 H 0.21647 0.56399 0.94151 0.0
H114 H 0.29092 0.61353 0.0227 0.0
H115 H 0.38561 0.56853 0.02713 0.0
H116 H 0.81415 0.54231 0.01669 0.0
H117 H 0.90829 0.49997 0.02976 0.0
H118 H 0.86341 0.44486 0.94409 0.0
H119 H 0.7692 0.48793 0.93059 0.0
La120 La 0.59177 0.49721 0.48971 0.0
La121 La 0.54666 0.56178 0.48611 0.0
C122 C 0.61837 0.44449 0.51602 0.0
C123 C 0.58322 0.42174 0.51289 0.0
C124 C 0.56859 0.40966 0.481 0.0
C125 C 0.52481 0.39322 0.47766 0.0
C126 C 0.49512 0.3889 0.5061 0.0
C127 C 0.50979 0.40094 0.53787 0.0
C128 C 0.55408 0.41692 0.54131 0.0
C129 C 0.56804 0.50741 0.42275 0.0
C130 C 0.43309 0.52856 0.48492 0.0
C131 C 0.5267 0.61824 0.47147 0.0
C132 C 0.57084 0.63651 0.47567 0.0
C133 C 0.59542 0.64207 0.50823 0.0
C134 C 0.64218 0.6564 0.51213 0.0
C135 C 0.6649 0.6655 0.48364 0.0
C136 C 0.6417 0.65938 0.45104 0.0
C137 C 0.59461 0.64502 0.44707 0.0
C138 C 0.55585 0.5429 0.54978 0.0
C139 C 0.70606 0.5302 0.48845 0.0
O140 O 0.64413 0.44921 0.48895 0.0
O141 O 0.58852 0.47089 0.53127 0.0
O142 O 0.58861 0.47999 0.43638 0.0
O143 O 0.56002 0.52783 0.44662 0.0
O144 O 0.48398 0.50332 0.49236 0.0
O145 O 0.44844 0.55454 0.47759 0.0
O146 O 0.51024 0.60958 0.49941 0.0
O147 O 0.54052 0.59512 0.4491 0.0
O148 O 0.50845 0.56367 0.53552 0.0
O149 O 0.5964 0.53281 0.52778 0.0
O150 O 0.65504 0.55648 0.48698 0.0
O151 O 0.69108 0.50311 0.49025 0.0
H152 H 0.58954 0.41359 0.45853 0.0
H153 H 0.51462 0.38364 0.45302 0.0
H154 H 0.48677 0.39808 0.56002 0.0
H155 H 0.56359 0.42676 0.56594 0.0
H156 H 0.57911 0.63516 0.53082 0.0
H157 H 0.65985 0.66096 0.53746 0.0
H158 H 0.65841 0.66668 0.42878 0.0
H159 H 0.5771 0.64033 0.42176 0.0
C160 C 0.48673 0.65735 0.00214 0.0
C161 C 0.46131 0.63356 0.98746 0.0
C162 C 0.45316 0.69094 0.00267 0.0
C163 C 0.30066 0.75653 0.96601 0.0
H164 H 0.35777 0.81341 0.02765 0.0
C165 C 0.15324 0.89769 0.97501 0.0
C166 C 0.17976 0.92153 -0.01162 0.0
C167 C 0.18675 0.86408 0.97437 0.0
C168 C 0.34019 0.7986 0.00968 0.0
H169 H 0.3751 0.63063 0.96137 0.0
H170 H 0.3186 0.68761 0.96131 0.0
H171 H 0.41216 0.75663 0.02783 0.0
H172 H 0.26774 0.92456 0.01203 0.0
H173 H 0.32402 0.86753 0.01218 0.0
H174 H 0.22857 0.79854 0.94794 0.0
C175 C 0.36553 0.6804 0.97308 0.0
C176 C 0.37254 0.7648 0.00976 0.0
C177 C 0.39877 0.64663 0.97321 0.0
C178 C 0.24322 0.9085 0.00127 0.0
C179 C 0.27634 0.87473 0.00144 0.0
C180 C 0.26824 0.79033 0.96598 0.0
C181 C 0.39103 0.70433 -0.01212 0.0
C182 C 0.35454 0.74196 -0.01209 0.0
C183 C 0.24981 0.85076 -0.01212 0.0
C184 C 0.28628 0.81315 -0.01219 0.0
H185 H 0.53377 0.64995 0.01383 0.0
H186 H 0.47745 0.70659 0.01459 0.0
H187 H 0.28305 0.74175 0.94802 0.0
H188 H 0.10547 0.90508 0.96436 0.0
H189 H 0.16175 0.84834 0.96345 0.0
C190 C 0.74227 0.40907 0.9762 0.0
C191 C 0.68257 0.42246 -0.01011 0.0
C192 C 0.77569 0.37532 0.97567 0.0
C193 C 0.77639 0.2917 0.00969 0.0
H194 H 0.9087 0.25676 0.94948 0.0
C195 C 0.90736 0.148 0.00166 0.0
C196 C 0.96566 0.13435 0.98662 0.0
C197 C 0.87418 0.18176 0.00226 0.0
C198 C 0.87245 0.26526 0.96704 0.0
H199 H 0.61529 0.40659 0.01448 0.0
H200 H 0.67197 0.34996 0.01444 0.0
H201 H 0.85397 0.31344 0.95038 0.0
H202 H 1.03081 0.14983 0.95972 0.0
H203 H 0.97461 0.2065 0.95996 0.0
H204 H 0.79488 0.24357 0.02641 0.0
C205 C 0.6939 0.36539 0.00345 0.0
C206 C 0.83985 0.29905 0.96756 0.0
C207 C 0.6601 0.39897 0.00341 0.0
C208 C 0.98711 0.15765 0.9719 0.0
C209 C 0.95355 0.19127 0.97197 0.0
C210 C 0.80905 0.25792 0.00921 0.0
C211 C 0.75324 0.3517 -0.01066 0.0
C212 C 0.79001 0.31408 -0.01111 0.0
C213 C 0.8955 0.20521 0.98736 0.0
C214 C 0.85885 0.24287 -0.01215 0.0
H215 H 0.76348 0.42479 0.96513 0.0
H216 H 0.82032 0.36789 0.96446 0.0
H217 H 0.74012 0.30023 0.02724 0.0
H218 H 0.88713 0.13245 0.01378 0.0
H219 H 0.83064 0.18932 0.01455 0.0
C220 C 0.18914 0.21059 0.44748 0.0
C221 C 0.1981 0.18726 0.47158 0.0
C222 C 0.22432 0.23133 0.45044 0.0
C223 C 0.30228 0.26812 0.51457 0.0
H224 H 0.36442 0.29741 0.43756 0.0
C225 C 0.46253 0.34529 0.52662 0.0
C226 C 0.45308 0.36942 0.50341 0.0
C227 C 0.42684 0.32482 0.52315 0.0
C228 C 0.34623 0.28976 0.45908 0.0
H229 H 0.25228 0.16585 0.51672 0.0
H230 H 0.31508 0.20248 0.52186 0.0
H231 H 0.32052 0.25353 0.42994 0.0
H232 H 0.39803 0.3922 0.45911 0.0
H233 H 0.3347 0.35581 0.45289 0.0
H234 H 0.32825 0.30427 0.54374 0.0
C235 C 0.28016 0.20477 0.50095 0.0
C236 C 0.32191 0.26455 0.45484 0.0
C237 C 0.24457 0.18396 0.49803 0.0
C238 C 0.40618 0.37347 0.47708 0.0
C239 C 0.37019 0.35285 0.47359 0.0
C240 C 0.32665 0.29331 0.51882 0.0
C241 C 0.26912 0.22898 0.47752 0.0
C242 C 0.29985 0.2536 0.48256 0.0
C243 C 0.38112 0.32816 0.4964 0.0
C244 C 0.34904 0.30413 0.49114 0.0
H245 H 0.1527 0.21385 0.42725 0.0
H246 H 0.21421 0.25019 0.43247 0.0
H247 H 0.28417 0.26047 0.53612 0.0
H248 H 0.49928 0.34146 0.54673 0.0
H249 H 0.43689 0.30552 0.54057 0.0
C250 C 0.89662 0.87742 0.50403 0.0
C251 C 0.95114 0.86986 0.48642 0.0
C252 C 0.85917 0.85756 0.5011 0.0
C253 C 0.83311 0.78909 0.45356 0.0
H254 H 0.8059 0.76376 0.54218 0.0
C255 C 0.75942 0.67907 0.46987 0.0
C256 C 0.70595 0.68534 0.48815 0.0
C257 C 0.79288 0.70079 0.4711 0.0
C258 C 0.81324 0.77071 0.51733 0.0
H259 H 1.008 0.83733 0.45069 0.0
H260 H 0.94335 0.80237 0.44598 0.0
H261 H 0.84625 0.80832 0.53776 0.0
H262 H 0.64592 0.71802 0.52259 0.0
H263 H 0.70383 0.75601 0.52449 0.0
H264 H 0.8005 0.75125 0.4332 0.0
C265 C 0.92866 0.82374 0.46145 0.0
C266 C 0.8354 0.79636 0.51475 0.0
C267 C 0.96574 0.84361 0.46424 0.0
C268 C 0.68776 0.7126 0.50876 0.0
C269 C 0.72084 0.73425 0.50988 0.0
C270 C 0.811 0.7634 0.45615 0.0
C271 C 0.87642 0.83 0.48074 0.0
C272 C 0.8457 0.8056 0.48286 0.0
C273 C 0.77262 0.72887 0.49044 0.0
C274 C 0.80107 0.75408 0.48805 0.0
H275 H 0.88438 0.89796 0.52089 0.0
H276 H 0.81842 0.86293 0.51581 0.0
H277 H 0.84074 0.79594 0.42873 0.0
H278 H 0.77409 0.65793 0.45404 0.0
H279 H 0.83329 0.69619 0.45624 0.0
C280 C 0.50606 0.93664 0.01007 0.0
C281 C 0.46356 0.93945 0.98163 0.0
C282 C 0.55164 0.95206 0.00964 0.0
C283 C 0.52637 1.02361 0.96536 0.0
H284 H 0.6577 0.03647 0.02766 0.0
C285 C 0.64115 0.12035 0.96803 0.0
C286 C 0.68312 0.1168 -0.0032 0.0
C287 C 0.59486 0.10529 0.96764 0.0
C288 C 0.61974 0.03342 0.01074 0.0
H289 H 0.45767 0.941 0.92683 0.0
H290 H 0.53883 0.96607 0.92518 0.0
H291 H 0.64867 0.98349 0.01839 0.0
H292 H 0.68709 0.11505 0.05153 0.0
H293 H 0.60454 0.09074 0.05185 0.0
H294 H 0.49753 0.07357 0.95769 0.0
C295 C 0.53179 0.9571 0.94906 0.0
C296 C 0.61561 1.00292 0.00494 0.0
C297 C 0.48569 0.9422 0.95004 0.0
C298 C 0.65959 0.11424 0.02804 0.0
C299 C 0.61262 0.0998 0.02824 0.0
C300 C 0.53055 0.05412 0.97113 0.0
C301 C 0.5575 0.96652 0.97967 0.0
C302 C 0.56898 0.99764 0.98215 0.0
C303 C 0.58774 0.09066 -0.00277 0.0
C304 C 0.57691 0.05941 -0.00589 0.0
H305 H 0.49323 0.93141 0.03446 0.0
H306 H 0.57311 0.95742 0.03362 0.0
H307 H 0.48838 1.02057 0.94846 0.0
H308 H 0.65501 0.12564 0.94393 0.0
H309 H 0.57399 0.10019 0.94337 0.0
C310 C 0.30899 0.05435 0.50341 0.0
C311 C 0.28348 0.02988 0.48911 0.0
C312 C 0.37542 0.05398 0.50358 0.0
C313 C 0.54907 1.008 0.4685 0.0
H314 H 0.61009 0.06699 0.52446 0.0
C315 C 0.83639 1.00363 0.4732 0.0
C316 C 0.86189 1.02803 0.48776 0.0
C317 C 0.76994 1.00399 0.47291 0.0
C318 C 0.59624 0.04988 0.50799 0.0
H319 H 0.32225 0.98525 0.46252 0.0
H320 H 0.43162 0.98522 0.46153 0.0
H321 H 0.50056 0.06744 0.52471 0.0
H322 H 0.82303 0.07253 0.51456 0.0
H323 H 0.71365 0.07255 0.51531 0.0
H324 H 0.64477 0.99045 0.45177 0.0
C325 C 0.39997 1.00528 0.47389 0.0
C326 C 0.52994 0.05015 0.50814 0.0
C327 C 0.33393 1.00526 0.4745 0.0
C328 C 0.81139 0.05257 0.50242 0.0
C329 C 0.74533 0.05254 0.50289 0.0
C330 C 0.61539 1.00773 0.46834 0.0
C331 C 0.42587 0.02951 0.48863 0.0
C332 C 0.50131 0.02923 0.48842 0.0
C333 C 0.71947 0.02838 0.48795 0.0
C334 C 0.64402 0.02865 0.48809 0.0
H335 H 0.27699 0.0745 0.51549 0.0
H336 H 0.38695 0.07394 0.51577 0.0
H337 H 0.53521 0.99089 0.45203 0.0
H338 H 0.86842 0.98356 0.46102 0.0
H339 H 0.75843 0.9841 0.46055 0.0
C340 C 0.99156 0.44376 0.96326 0.0
C341 C 0.95719 0.44611 -0.00809 0.0
C342 C 1.04185 0.45599 0.96579 0.0
C343 C 1.03571 0.52398 0.01857 0.0
H344 H 0.1361 0.541 0.9512 0.0
C345 C 0.15909 0.61525 0.01716 0.0
C346 C 0.18227 0.61506 0.98516 0.0
C347 C 0.10969 0.60284 0.01956 0.0
C348 C 0.10686 0.53677 0.96975 0.0
H349 H 0.96717 0.44364 0.04649 0.0
H350 H 1.05559 0.46439 0.05158 0.0
H351 H 0.13392 0.4873 0.95757 0.0
H352 H 0.15339 0.62092 0.93198 0.0
H353 H 1.06782 0.59886 0.93548 0.0
H354 H 1.01022 0.57351 0.03125 0.0
C355 C 1.04015 0.45752 0.02666 0.0
C356 C 0.1067 0.50583 0.97382 0.0
C357 C 0.98988 0.44512 0.02373 0.0
C358 C 0.13943 0.61784 0.95687 0.0
C359 C 0.09058 0.60483 0.95879 0.0
C360 C 1.03666 0.55489 0.01481 0.0
C361 C 1.05868 0.46801 -0.00266 0.0
C362 C 1.07068 0.49903 -0.00195 0.0
C363 C 0.0826 0.59276 -0.01021 0.0
C364 C 1.07172 0.56165 -0.00986 0.0
H365 H 0.97109 0.4409 0.93813 0.0
H366 H 1.05805 0.46158 0.94251 0.0
H367 H 1.0057 0.51996 0.03683 0.0
H368 H 0.18774 0.61658 0.04008 0.0
H369 H 0.10202 0.5955 0.04415 0.0
C370 C 0.33733 0.50348 0.49831 0.0
C371 C 0.35846 0.52814 0.48512 0.0
C372 C 0.27112 0.50371 0.49891 0.0
C373 C 0.08701 0.55241 0.47137 0.0
H374 H 1.04401 0.48695 0.51544 0.0
C375 C 0.80197 0.55625 0.4778 0.0
C376 C 0.7808 0.53059 0.48839 0.0
C377 C 0.86828 0.55588 0.47722 0.0
C378 C 1.05256 0.506 0.50251 0.0
H379 H 0.31204 0.57316 0.46173 0.0
H380 H 0.20265 0.57331 0.46213 0.0
H381 H 0.15355 0.48635 0.51487 0.0
H382 H 0.82739 0.48367 0.50738 0.0
H383 H 0.93695 0.4834 0.50739 0.0
H384 H 0.98602 0.57211 0.45911 0.0
C385 C 0.23786 0.55298 0.47275 0.0
C386 C 0.11885 0.50564 0.50218 0.0
C387 C 0.30391 0.55291 0.47249 0.0
C388 C 0.83549 0.50473 0.49866 0.0
C389 C 0.90165 0.50459 0.49867 0.0
C390 C 1.02072 0.55281 0.47179 0.0
C391 C 0.21642 0.52847 0.48608 0.0
C392 C 0.14108 0.52881 0.48655 0.0
C393 C 0.92308 0.53006 0.48775 0.0
C394 C 0.99849 0.52964 0.48736 0.0
H395 H 0.37285 0.48321 0.50889 0.0
H396 H 0.26322 0.4835 0.50985 0.0
H397 H 0.09552 0.57146 0.45843 0.0
H398 H 0.7664 0.57742 0.46921 0.0
H399 H 0.8762 0.5769 0.4683 0.0
C400 C 1.03816 0.9997 0.36349 0.0
C401 C 1.06156 1.01864 0.38704 0.0
C402 C 1.03729 1.00325 0.32816 0.0
C403 C 0.0874 0.04997 0.26017 0.0
H404 H 1.03044 0.99196 0.20001 0.0
C405 C 0.07743 0.06131 0.11164 0.0
C406 C 0.08087 0.03485 0.08988 0.0
C407 C 0.0739 0.05995 0.14706 0.0
C408 C 1.0476 1.00828 0.21601 0.0
H409 H 0.10346 0.05649 0.39072 0.0
H410 H 0.10329 0.06273 0.32991 0.0
H411 H 1.0264 0.98879 0.25982 0.0
H412 H 0.08357 0.98581 0.08958 0.0
H413 H 0.07936 0.98289 0.15089 0.0
H414 H 0.11029 0.0686 0.21548 0.0
C415 C 0.08394 0.04506 0.33805 0.0
C416 C 1.04459 1.00679 0.25149 0.0
C417 C 0.08363 0.0418 0.37369 0.0
C418 C 0.08059 1.00684 0.10513 0.0
C419 C 0.07774 1.00533 0.14074 0.0
C420 C 0.09085 0.05127 0.2246 0.0
C421 C 1.06154 1.0255 0.31397 0.0
C422 C 1.06429 1.02758 0.27498 0.0
C423 C 0.07432 0.03188 0.16277 0.0
C424 C 1.071 0.03046 0.20144 0.0
H425 H 1.02093 0.98144 0.37248 0.0
H426 H 1.01804 0.98764 0.31243 0.0
H427 H 0.10354 0.06684 0.27572 0.0
H428 H 0.07718 0.08347 0.1012 0.0
H429 H 1.07005 0.08137 0.16198 0.0
C430 C 1.0644 0.99555 0.86408 0.0
C431 C 1.06403 1.02149 0.88612 0.0
C432 C 1.06792 0.99705 0.8287 0.0
C433 C 0.10683 0.0449 0.76104 0.0
H434 H 1.02668 0.99651 0.69997 0.0
C435 C 0.10422 0.05915 0.614 0.0
C436 C 0.08465 0.03899 0.59027 0.0
C437 C 0.10457 0.05554 0.64924 0.0
C438 C 1.05046 1.01008 0.71605 0.0
H439 H 1.06707 0.06969 0.88705 0.0
H440 H 1.07231 0.07264 0.82565 0.0
H441 H 1.02119 0.99393 0.76051 0.0
H442 H 1.04949 0.99875 0.58616 0.0
H443 H 1.05163 0.99148 0.64704 0.0
H444 H 0.13775 0.06056 0.71751 0.0
C445 C 1.07091 0.05065 0.8357 0.0
C446 C 1.04707 1.00856 0.75156 0.0
C447 C 1.06757 0.04909 0.87125 0.0
C448 C 1.06644 1.01439 0.60333 0.0
C449 C 1.06665 1.0107 0.63889 0.0
C450 C 0.11093 0.04614 0.72565 0.0
C451 C 1.07106 1.02465 0.81348 0.0
C452 C 0.07483 1.02611 0.77501 0.0
C453 C 0.08495 0.03151 0.66306 0.0
C454 C 0.08238 0.02902 0.70184 0.0
H455 H 1.06211 0.97374 0.87424 0.0
H456 H 1.06904 0.97613 0.81335 0.0
H457 H 0.13024 0.05843 0.77754 0.0
H458 H 0.11823 0.07856 0.60521 0.0
H459 H 0.11864 0.07276 0.66529 0.0
C460 C 0.54374 0.49267 0.36158 0.0
C461 C 0.56333 0.51308 0.38498 0.0
C462 C 0.54306 0.49618 0.32619 0.0
C463 C 0.57234 0.54953 0.2586 0.0
H464 H 0.56659 0.47863 0.19927 0.0
C465 C 0.62866 0.54318 0.11498 0.0
C466 C 0.59542 0.52933 0.09046 0.0
C467 C 0.6209 0.54258 0.15002 0.0
C468 C 0.56766 0.49893 0.2152 0.0
H469 H 0.59887 0.5532 0.38862 0.0
H470 H 0.60165 0.55836 0.32774 0.0
H471 H 0.56222 0.4748 0.25976 0.0
H472 H 0.527 0.50397 0.08481 0.0
H473 H 0.51429 0.50224 0.14587 0.0
H474 H 0.58039 0.57295 0.21347 0.0
C475 C 0.58376 0.54018 0.33609 0.0
C476 C 0.56481 0.49687 0.25062 0.0
C477 C 0.58246 0.53723 0.37158 0.0
C478 C 0.55368 0.51486 0.10257 0.0
C479 C 0.54666 0.51377 0.13786 0.0
C480 C 0.57634 0.55133 0.2232 0.0
C481 C 0.56431 0.51962 0.31222 0.0
C482 C 0.56695 0.52211 0.27353 0.0
C483 C 0.58019 0.52762 0.16244 0.0
C484 C 0.57409 0.52606 0.2006 0.0
H485 H 0.52834 0.47384 0.37071 0.0
H486 H 0.52549 0.48017 0.30998 0.0
H487 H 0.57297 0.57012 0.27403 0.0
H488 H 0.66116 0.55469 0.10705 0.0
H489 H 0.64826 0.55334 0.16751 0.0
C490 C 0.51417 0.55499 0.60806 0.0
C491 C 0.56343 0.53835 0.58796 0.0
C492 C 0.5185 0.5524 0.64361 0.0
C493 C 0.61123 0.50357 0.71747 0.0
H494 H 0.51721 0.57563 0.76997 0.0
C495 C 0.5824 0.49432 0.86315 0.0
C496 C 0.57201 0.52122 0.88491 0.0
C497 C 0.58548 0.49628 0.8278 0.0
C498 C 0.54457 0.55518 0.75617 0.0
H499 H 0.65645 0.50514 0.59084 0.0
H500 H 0.6646 0.50066 0.65295 0.0
H501 H 0.51684 0.57904 0.70901 0.0
H502 H 0.55764 0.5716 0.88541 0.0
H503 H 0.56345 0.57524 0.82418 0.0
H504 H 0.6404 0.48004 0.7649 0.0
C505 C 0.62182 0.51584 0.64103 0.0
C506 C 0.54354 0.55697 0.7205 0.0
C507 C 0.61742 0.5185 0.60511 0.0
C508 C 0.5658 0.55026 0.86982 0.0
C509 C 0.56855 0.55231 0.83428 0.0
C510 C 0.61241 0.5018 0.75325 0.0
C511 C 0.5725 0.53303 0.66123 0.0
C512 C 0.57628 0.53114 0.70008 0.0
C513 C 0.57802 0.52536 0.81225 0.0
C514 C 0.57872 0.52751 0.77358 0.0
H515 H 0.4714 0.57035 0.59624 0.0
H516 H 0.47841 0.56554 0.65719 0.0
H517 H 0.63707 0.48289 0.70341 0.0
H518 H 0.58752 0.47144 0.87349 0.0
H519 H 0.5921 0.47482 0.8126 0.0
loop_
_geom_bond_atom_site_label_1
_geom_bond_atom_site_label_2
_geom_bond_distance
_geom_bond_site_symmetry_2
_ccdc_geom_bond_type
La0 C2 2.928 . S
La0 O20 2.521 . S
La0 O21 2.628 1_566 S
La0 O22 2.554 . S
La0 O23 2.757 1_655 S
La0 O24 2.470 1_565 S
La0 O29 2.482 1_566 S
La0 O31 2.503 1_655 S
La1 C11 2.928 . S
La1 O23 2.482 1_544 S
La1 O25 2.503 1_455 S
La1 O26 2.521 . S
La1 O27 2.628 1_544 S
La1 O28 2.554 . S
La1 O29 2.757 1_455 S
La1 O30 2.470 1_545 S
C2 La0 2.928 . S
C2 C3 1.503 1_565 S
C2 O20 1.261 . S
C2 O21 1.243 1_566 S
C3 C2 1.503 1_545 S
C3 C4 1.394 . S
C3 C8 1.373 1_556 S
C4 C3 1.394 . S
C4 C5 1.380 . S
C4 H32 0.930 1_545 S
C5 C4 1.380 . S
C5 C6 1.376 . S
C5 H33 0.930 . S
C6 C5 1.376 . S
C6 C7 1.370 1_556 S
C7 C6 1.370 1_554 S
C7 C8 1.396 . S
C7 H34 0.929 . S
C8 C3 1.373 1_554 S
C8 C7 1.396 . S
C8 H35 0.929 . S
C9 O22 1.240 . S
C9 O23 1.289 1_655 S
C10 O24 1.258 . S
C10 O25 1.256 1_556 S
C11 La1 2.928 . S
C11 C12 1.503 1_545 S
C11 O26 1.261 . S
C11 O27 1.243 1_544 S
C12 C11 1.503 1_565 S
C12 C13 1.394 . S
C12 C17 1.373 1_554 S
C13 C12 1.394 . S
C13 C14 1.380 . S
C13 H36 0.930 1_565 S
C14 C13 1.380 . S
C14 C15 1.376 . S
C14 H37 0.930 . S
C15 C14 1.376 . S
C15 C16 1.370 1_554 S
C16 C15 1.370 1_556 S
C16 C17 1.396 . S
C16 H38 0.929 . S
C17 C12 1.373 1_556 S
C17 C16 1.396 . S
C17 H39 0.929 . S
C18 O28 1.240 . S
C18 O29 1.289 1_455 S
C19 O30 1.258 . S
C19 O31 1.256 1_554 S
O20 La0 2.521 . S
O20 C2 1.261 . S
O21 La0 2.628 1_544 S
O21 C2 1.243 1_544 S
O22 La0 2.554 . S
O22 C9 1.240 . S
O23 La0 2.757 1_455 S
O23 La1 2.482 1_566 S
O23 C9 1.289 1_455 S
O24 La0 2.470 1_545 S
O24 C10 1.258 . S
O25 La1 2.503 1_655 S
O25 C10 1.256 1_554 S
O26 La1 2.521 . S
O26 C11 1.261 . S
O27 La1 2.628 1_566 S
O27 C11 1.243 1_566 S
O28 La1 2.554 . S
O28 C18 1.240 . S
O29 La0 2.482 1_544 S
O29 La1 2.757 1_655 S
O29 C18 1.289 1_655 S
O30 La1 2.470 1_565 S
O30 C19 1.258 . S
O31 La0 2.503 1_455 S
O31 C19 1.256 1_556 S
H32 C4 0.930 1_565 S
H33 C5 0.930 . S
H34 C7 0.929 . S
H35 C8 0.929 . S
H36 C13 0.930 1_545 S
H37 C14 0.930 . S
H38 C16 0.929 . S
H39 C17 0.929 . S
La40 C42 2.928 1_455 S
La40 O60 2.521 1_455 S
La40 O61 2.628 1_455 S
La40 O62 2.553 . S
La40 O63 2.757 1_565 S
La40 O64 2.470 1_455 S
La40 O69 2.482 1_455 S
La40 O71 2.503 . S
La41 C51 2.928 1_655 S
La41 O63 2.482 1_655 S
La41 O65 2.503 . S
La41 O66 2.521 1_655 S
La41 O67 2.628 1_655 S
La41 O68 2.553 . S
La41 O69 2.757 1_545 S
La41 O70 2.470 1_655 S
C42 La40 2.928 1_655 S
C42 C43 1.503 . S
C42 O60 1.261 . S
C42 O61 1.243 . S
C43 C42 1.503 . S
C43 C44 1.394 . S
C43 C48 1.373 . S
C44 C43 1.394 . S
C44 C45 1.380 . S
C44 H72 0.930 . S
C45 C44 1.380 . S
C45 C46 1.376 . S
C45 H73 0.930 . S
C46 C45 1.376 . S
C46 C47 1.370 . S
C47 C46 1.370 . S
C47 C48 1.396 . S
C47 H74 0.929 . S
C48 C43 1.373 . S
C48 C47 1.396 . S
C48 H75 0.929 . S
C49 O62 1.245 . S
C49 O63 1.289 1_565 S
C50 O64 1.258 1_545 S
C50 O65 1.256 . S
C51 La41 2.928 1_455 S
C51 C52 1.503 . S
C51 O66 1.261 . S
C51 O67 1.243 . S
C52 C51 1.503 . S
C52 C53 1.394 . S
C52 C57 1.373 . S
C53 C52 1.394 . S
C53 C54 1.380 . S
C53 H76 0.930 . S
C54 C53 1.380 . S
C54 C55 1.376 . S
C54 H77 0.930 . S
C55 C54 1.376 . S
C55 C56 1.370 . S
C56 C55 1.370 . S
C56 C57 1.396 . S
C56 H78 0.929 . S
C57 C52 1.373 . S
C57 C56 1.396 . S
C57 H79 0.929 . S
C58 O68 1.244 . S
C58 O69 1.289 1_545 S
C59 O70 1.258 1_565 S
C59 O71 1.256 . S
O60 La40 2.521 1_655 S
O60 C42 1.261 . S
O61 La40 2.628 1_655 S
O61 C42 1.243 . S
O62 La40 2.553 . S
O62 C49 1.245 . S
O63 La40 2.757 1_545 S
O63 La41 2.482 1_455 S
O63 C49 1.289 1_545 S
O64 La40 2.470 1_655 S
O64 C50 1.258 1_565 S
O65 La41 2.503 . S
O65 C50 1.256 . S
O66 La41 2.521 1_455 S
O66 C51 1.261 . S
O67 La41 2.628 1_455 S
O67 C51 1.243 . S
O68 La41 2.553 . S
O68 C58 1.244 . S
O69 La40 2.482 1_655 S
O69 La41 2.757 1_565 S
O69 C58 1.289 1_565 S
O70 La41 2.470 1_455 S
O70 C59 1.258 1_545 S
O71 La40 2.503 . S
O71 C59 1.256 . S
H72 C44 0.930 . S
H73 C45 0.930 . S
H74 C47 0.929 . S
H75 C48 0.929 . S
H76 C53 0.930 . S
H77 C54 0.930 . S
H78 C56 0.929 . S
H79 C57 0.929 . S
La80 C82 2.928 . S
La80 O100 2.521 . S
La80 O101 2.628 1_556 S
La80 O102 2.554 . S
La80 O103 2.757 . S
La80 O104 2.470 . S
La80 O109 2.482 1_556 S
La80 O111 2.503 . S
La81 C91 2.928 . S
La81 O103 2.482 1_554 S
La81 O105 2.503 . S
La81 O106 2.521 . S
La81 O107 2.628 1_554 S
La81 O108 2.554 . S
La81 O109 2.757 . S
La81 O110 2.470 . S
C82 La80 2.928 . S
C82 C83 1.503 . S
C82 O100 1.261 . S
C82 O101 1.243 1_556 S
C83 C82 1.503 . S
C83 C84 1.394 . S
C83 C88 1.373 1_556 S
C84 C83 1.394 . S
C84 C85 1.380 . S
C84 H112 0.930 . S
C85 C84 1.380 . S
C85 C86 1.376 . S
C85 H113 0.930 . S
C86 C85 1.376 . S
C86 C87 1.370 1_556 S
C87 C86 1.370 1_554 S
C87 C88 1.396 . S
C87 H114 0.929 . S
C88 C83 1.373 1_554 S
C88 C87 1.396 . S
C88 H115 0.929 . S
C89 O102 1.240 . S
C89 O103 1.289 . S
C90 O104 1.258 . S
C90 O105 1.256 1_556 S
C91 La81 2.928 . S
C91 C92 1.503 . S
C91 O106 1.261 . S
C91 O107 1.243 1_554 S
C92 C91 1.503 . S
C92 C93 1.394 . S
C92 C97 1.373 1_554 S
C93 C92 1.394 . S
C93 C94 1.380 . S
C93 H116 0.930 . S
C94 C93 1.380 . S
C94 C95 1.376 . S
C94 H117 0.930 . S
C95 C94 1.376 . S
C95 C96 1.370 1_554 S
C96 C95 1.370 1_556 S
C96 C97 1.396 . S
C96 H118 0.929 . S
C97 C92 1.373 1_556 S
C97 C96 1.396 . S
C97 H119 0.929 . S
C98 O108 1.240 . S
C98 O109 1.289 . S
C99 O110 1.258 . S
C99 O111 1.256 1_554 S
O100 La80 2.521 . S
O100 C82 1.261 . S
O101 La80 2.628 1_554 S
O101 C82 1.243 1_554 S
O102 La80 2.554 . S
O102 C89 1.240 . S
O103 La80 2.757 . S
O103 La81 2.482 1_556 S
O103 C89 1.289 . S
O104 La80 2.470 . S
O104 C90 1.258 . S
O105 La81 2.503 . S
O105 C90 1.256 1_554 S
O106 La81 2.521 . S
O106 C91 1.261 . S
O107 La81 2.628 1_556 S
O107 C91 1.243 1_556 S
O108 La81 2.554 . S
O108 C98 1.240 . S
O109 La80 2.482 1_554 S
O109 La81 2.757 . S
O109 C98 1.289 . S
O110 La81 2.470 . S
O110 C99 1.258 . S
O111 La80 2.503 . S
O111 C99 1.256 1_556 S
H112 C84 0.930 . S
H113 C85 0.930 . S
H114 C87 0.929 . S
H115 C88 0.929 . S
H116 C93 0.930 . S
H117 C94 0.930 . S
H118 C96 0.929 . S
H119 C97 0.929 . S
La120 C122 2.928 . S
La120 O140 2.521 . S
La120 O141 2.628 . S
La120 O142 2.554 . S
La120 O143 2.757 . S
La120 O144 2.470 . S
La120 O149 2.482 . S
La120 O151 2.503 . S
La121 C131 2.928 . S
La121 O143 2.482 . S
La121 O145 2.503 . S
La121 O146 2.521 . S
La121 O147 2.628 . S
La121 O148 2.554 . S
La121 O149 2.757 . S
La121 O150 2.470 . S
C122 La120 2.928 . S
C122 C123 1.503 . S
C122 O140 1.261 . S
C122 O141 1.243 . S
C123 C122 1.503 . S
C123 C124 1.394 . S
C123 C128 1.373 . S
C124 C123 1.394 . S
C124 C125 1.380 . S
C124 H152 0.930 . S
C125 C124 1.380 . S
C125 C126 1.376 . S
C125 H153 0.930 . S
C126 C125 1.376 . S
C126 C127 1.370 . S
C127 C126 1.370 . S
C127 C128 1.396 . S
C127 H154 0.929 . S
C128 C123 1.373 . S
C128 C127 1.396 . S
C128 H155 0.929 . S
C129 O142 1.240 . S
C129 O143 1.289 . S
C130 O144 1.258 . S
C130 O145 1.256 . S
C131 La121 2.928 . S
C131 C132 1.503 . S
C131 O146 1.261 . S
C131 O147 1.243 . S
C132 C131 1.503 . S
C132 C133 1.394 . S
C132 C137 1.373 . S
C133 C132 1.394 . S
C133 C134 1.380 . S
C133 H156 0.930 . S
C134 C133 1.380 . S
C134 C135 1.376 . S
C134 H157 0.930 . S
C135 C134 1.376 . S
C135 C136 1.370 . S
C136 C135 1.370 . S
C136 C137 1.396 . S
C136 H158 0.929 . S
C137 C132 1.373 . S
C137 C136 1.396 . S
C137 H159 0.929 . S
C138 O148 1.240 . S
C138 O149 1.289 . S
C139 O150 1.258 . S
C139 O151 1.256 . S
O140 La120 2.521 . S
O140 C122 1.261 . S
O141 La120 2.628 . S
O141 C122 1.243 . S
O142 La120 2.554 . S
O142 C129 1.240 . S
O143 La120 2.757 . S
O143 La121 2.482 . S
O143 C129 1.289 . S
O144 La120 2.470 . S
O144 C130 1.258 . S
O145 La121 2.503 . S
O145 C130 1.256 . S
O146 La121 2.521 . S
O146 C131 1.261 . S
O147 La121 2.628 . S
O147 C131 1.243 . S
O148 La121 2.554 . S
O148 C138 1.240 . S
O149 La120 2.482 . S
O149 La121 2.757 . S
O149 C138 1.289 . S
O150 La121 2.470 . S
O150 C139 1.258 . S
O151 La120 2.503 . S
O151 C139 1.256 . S
H152 C124 0.930 . S
H153 C125 0.930 . S
H154 C127 0.929 . S
H155 C128 0.929 . S
H156 C133 0.930 . S
H157 C134 0.930 . S
H158 C136 0.929 . S
H159 C137 0.929 . S
C160 C161 1.349 . S
C160 C162 1.327 . S
C160 H185 0.950 . S
C161 C160 1.349 . S
C161 C177 1.349 1_554 S
C162 C160 1.327 . S
C162 C181 1.443 . S
C162 H186 0.950 . S
C163 C180 1.574 . S
C163 C182 1.361 1_556 S
C163 H187 0.949 . S
H164 C168 0.949 . S
C165 C166 1.373 . S
C165 C167 1.327 . S
C165 H188 0.950 . S
C166 C165 1.373 . S
C166 C178 1.325 1_556 S
C167 C165 1.327 . S
C167 C183 1.438 . S
C167 H189 0.950 . S
C168 H164 0.949 . S
C168 C176 1.574 . S
C168 C184 1.367 1_554 S
H169 C177 0.950 . S
H170 C175 0.950 . S
H171 C176 0.949 . S
H172 C178 0.950 . S
H173 C179 0.950 . S
H174 C180 0.949 . S
C175 H170 0.950 . S
C175 C177 1.327 . S
C175 C181 1.414 1_556 S
C176 C168 1.574 . S
C176 H171 0.949 . S
C176 C182 1.376 . S
C177 C161 1.349 1_556 S
C177 H169 0.950 . S
C177 C175 1.327 . S
C178 C166 1.325 1_554 S
C178 H172 0.950 . S
C178 C179 1.327 . S
C179 H173 0.950 . S
C179 C178 1.327 . S
C179 C183 1.419 1_554 S
C180 C163 1.574 . S
C180 H174 0.949 . S
C180 C184 1.370 . S
C181 C162 1.443 . S
C181 C175 1.414 1_554 S
C181 C182 1.523 . S
C182 C163 1.361 1_554 S
C182 C176 1.376 . S
C182 C181 1.523 . S
C183 C167 1.438 . S
C183 C179 1.419 1_556 S
C183 C184 1.523 . S
C184 C168 1.367 1_556 S
C184 C180 1.370 . S
C184 C183 1.523 . S
H185 C160 0.950 . S
H186 C162 0.950 . S
H187 C163 0.949 . S
H188 C165 0.950 . S
H189 C167 0.950 . S
C190 C191 1.375 . S
C190 C192 1.327 . S
C190 H215 0.950 . S
C191 C190 1.375 . S
C191 C207 1.324 1_556 S
C192 C190 1.327 . S
C192 C211 1.438 . S
C192 H216 0.950 . S
C193 C210 1.574 . S
C193 C212 1.367 1_554 S
C193 H217 0.949 . S
H194 C198 0.949 . S
C195 C196 1.349 . S
C195 C197 1.327 . S
C195 H218 0.950 . S
C196 C195 1.349 . S
C196 C208 1.349 1_554 S
C197 C195 1.327 . S
C197 C213 1.444 . S
C197 H219 0.950 . S
C198 H194 0.949 . S
C198 C206 1.574 . S
C198 C214 1.361 1_556 S
H199 C207 0.950 . S
H200 C205 0.950 . S
H201 C206 0.949 . S
H202 C208 0.950 . S
H203 C209 0.950 . S
H204 C210 0.949 . S
C205 H200 0.950 . S
C205 C207 1.327 . S
C205 C211 1.419 1_554 S
C206 C198 1.574 . S
C206 H201 0.949 . S
C206 C212 1.370 . S
C207 C191 1.324 1_554 S
C207 H199 0.950 . S
C207 C205 1.327 . S
C208 C196 1.349 1_556 S
C208 H202 0.950 . S
C208 C209 1.327 . S
C209 H203 0.950 . S
C209 C208 1.327 . S
C209 C213 1.413 1_556 S
C210 C193 1.574 . S
C210 H204 0.949 . S
C210 C214 1.376 . S
C211 C192 1.438 . S
C211 C205 1.419 1_556 S
C211 C212 1.523 . S
C212 C193 1.367 1_556 S
C212 C206 1.370 . S
C212 C211 1.523 . S
C213 C197 1.444 . S
C213 C209 1.413 1_554 S
C213 C214 1.523 . S
C214 C198 1.361 1_554 S
C214 C210 1.376 . S
C214 C213 1.523 . S
H215 C190 0.950 . S
H216 C192 0.950 . S
H217 C193 0.949 . S
H218 C195 0.950 . S
H219 C197 0.950 . S
C220 C221 1.349 . S
C220 C222 1.327 . S
C220 H245 0.950 . S
C221 C220 1.349 . S
C221 C237 1.349 . S
C222 C220 1.327 . S
C222 C241 1.429 . S
C222 H246 0.950 . S
C223 C240 1.574 . S
C223 C242 1.368 . S
C223 H247 0.949 . S
H224 C228 0.949 . S
C225 C226 1.349 . S
C225 C227 1.327 . S
C225 H248 0.950 . S
C226 C225 1.349 . S
C226 C238 1.349 . S
C227 C225 1.327 . S
C227 C243 1.429 . S
C227 H249 0.950 . S
C228 H224 0.949 . S
C228 C236 1.574 . S
C228 C244 1.368 . S
H229 C237 0.950 . S
H230 C235 0.950 . S
H231 C236 0.949 . S
H232 C238 0.950 . S
H233 C239 0.950 . S
H234 C240 0.949 . S
C235 H230 0.950 . S
C235 C237 1.327 . S
C235 C241 1.429 . S
C236 C228 1.574 . S
C236 H231 0.949 . S
C236 C242 1.368 . S
C237 C221 1.349 . S
C237 H229 0.950 . S
C237 C235 1.327 . S
C238 C226 1.349 . S
C238 H232 0.950 . S
C238 C239 1.327 . S
C239 H233 0.950 . S
C239 C238 1.327 . S
C239 C243 1.429 . S
C240 C223 1.574 . S
C240 H234 0.949 . S
C240 C244 1.368 . S
C241 C222 1.429 . S
C241 C235 1.429 . S
C241 C242 1.523 . S
C242 C223 1.368 . S
C242 C236 1.368 . S
C242 C241 1.523 . S
C243 C227 1.429 . S
C243 C239 1.429 . S
C243 C244 1.523 . S
C244 C228 1.368 . S
C244 C240 1.368 . S
C244 C243 1.523 . S
H245 C220 0.950 . S
H246 C222 0.950 . S
H247 C223 0.949 . S
H248 C225 0.950 . S
H249 C227 0.950 . S
C250 C251 1.349 . S
C250 C252 1.327 . S
C250 H275 0.950 . S
C251 C250 1.349 . S
C251 C267 1.349 . S
C252 C250 1.327 . S
C252 C271 1.429 . S
C252 H276 0.950 . S
C253 C270 1.574 . S
C253 C272 1.368 . S
C253 H277 0.949 . S
H254 C258 0.949 . S
C255 C256 1.349 . S
C255 C257 1.327 . S
C255 H278 0.950 . S
C256 C255 1.349 . S
C256 C268 1.349 . S
C257 C255 1.327 . S
C257 C273 1.429 . S
C257 H279 0.950 . S
C258 H254 0.949 . S
C258 C266 1.574 . S
C258 C274 1.368 . S
H259 C267 0.950 . S
H260 C265 0.950 . S
H261 C266 0.949 . S
H262 C268 0.950 . S
H263 C269 0.950 . S
H264 C270 0.949 . S
C265 H260 0.950 . S
C265 C267 1.327 . S
C265 C271 1.429 . S
C266 C258 1.574 . S
C266 H261 0.949 . S
C266 C272 1.368 . S
C267 C251 1.349 . S
C267 H259 0.950 . S
C267 C265 1.327 . S
C268 C256 1.349 . S
C268 H262 0.950 . S
C268 C269 1.327 . S
C269 H263 0.950 . S
C269 C268 1.327 . S
C269 C273 1.429 . S
C270 C253 1.574 . S
C270 H264 0.949 . S
C270 C274 1.368 . S
C271 C252 1.429 . S
C271 C265 1.429 . S
C271 C272 1.523 . S
C272 C253 1.368 . S
C272 C266 1.368 . S
C272 C271 1.523 . S
C273 C257 1.429 . S
C273 C269 1.429 . S
C273 C274 1.523 . S
C274 C258 1.368 . S
C274 C270 1.368 . S
C274 C273 1.523 . S
H275 C250 0.950 . S
H276 C252 0.950 . S
H277 C253 0.949 . S
H278 C255 0.950 . S
H279 C257 0.950 . S
C280 C281 1.349 . S
C280 C282 1.327 . S
C280 H305 0.950 . S
C281 C280 1.349 . S
C281 C297 1.349 1_554 S
C282 C280 1.327 . S
C282 C301 1.447 . S
C282 H306 0.950 . S
C283 C300 1.574 . S
C283 C302 1.359 1_546 S
C283 H307 0.949 . S
H284 C288 0.949 . S
C285 C286 1.349 . S
C285 C287 1.327 . S
C285 H308 0.950 . S
C286 C285 1.349 . S
C286 C298 1.349 1_556 S
C287 C285 1.327 . S
C287 C303 1.441 . S
C287 H309 0.950 . S
C288 H284 0.949 . S
C288 C296 1.574 . S
C288 C304 1.366 1_564 S
H289 C297 0.950 . S
H290 C295 0.950 . S
H291 C296 0.949 . S
H292 C298 0.950 . S
H293 C299 0.950 . S
H294 C300 0.949 . S
C295 H290 0.950 . S
C295 C297 1.327 . S
C295 C301 1.413 1_556 S
C296 C288 1.574 . S
C296 H291 0.949 . S
C296 C302 1.377 . S
C297 C281 1.349 1_556 S
C297 H289 0.950 . S
C297 C295 1.327 . S
C298 C286 1.349 1_554 S
C298 H292 0.950 . S
C298 C299 1.327 . S
C299 H293 0.950 . S
C299 C298 1.327 . S
C299 C303 1.418 1_554 S
C300 C283 1.574 . S
C300 H294 0.949 . S
C300 C304 1.371 . S
C301 C282 1.447 . S
C301 C295 1.413 1_554 S
C301 C302 1.522 . S
C302 C283 1.359 1_564 S
C302 C296 1.377 . S
C302 C301 1.522 . S
C303 C287 1.441 . S
C303 C299 1.418 1_556 S
C303 C304 1.522 . S
C304 C288 1.366 1_546 S
C304 C300 1.371 . S
C304 C303 1.522 . S
H305 C280 0.950 . S
H306 C282 0.950 . S
H307 C283 0.949 . S
H308 C285 0.950 . S
H309 C287 0.950 . S
C310 C311 1.349 1_545 S
C310 C312 1.327 . S
C310 H335 0.950 . S
C311 C310 1.349 1_565 S
C311 C327 1.349 . S
C312 C310 1.327 . S
C312 C331 1.424 1_545 S
C312 H336 0.950 . S
C313 C330 1.574 . S
C313 C332 1.369 . S
C313 H337 0.949 . S
H314 C318 0.949 . S
C315 C316 1.349 1_565 S
C315 C317 1.327 . S
C315 H338 0.950 . S
C316 C315 1.349 1_545 S
C316 C328 1.349 . S
C317 C315 1.327 . S
C317 C333 1.429 1_565 S
C317 H339 0.950 . S
C318 H314 0.949 . S
C318 C326 1.574 . S
C318 C334 1.376 . S
H319 C327 0.950 . S
H320 C325 0.950 . S
H321 C326 0.949 . S
H322 C328 0.950 . S
H323 C329 0.950 . S
H324 C330 0.949 . S
C325 H320 0.950 . S
C325 C327 1.327 . S
C325 C331 1.439 . S
C326 C318 1.574 . S
C326 H321 0.949 . S
C326 C332 1.368 1_545 S
C327 C311 1.349 . S
C327 H319 0.950 . S
C327 C325 1.327 . S
C328 C316 1.349 . S
C328 H322 0.950 . S
C328 C329 1.327 . S
C329 H323 0.950 . S
C329 C328 1.327 . S
C329 C333 1.429 . S
C330 C313 1.574 . S
C330 H324 0.949 . S
C330 C334 1.357 1_565 S
C331 C312 1.424 1_565 S
C331 C325 1.439 . S
C331 C332 1.519 . S
C332 C313 1.369 . S
C332 C326 1.368 1_565 S
C332 C331 1.519 . S
C333 C317 1.429 1_545 S
C333 C329 1.429 . S
C333 C334 1.528 . S
C334 C318 1.376 . S
C334 C330 1.357 1_545 S
C334 C333 1.528 . S
H335 C310 0.950 . S
H336 C312 0.950 . S
H337 C313 0.949 . S
H338 C315 0.950 . S
H339 C317 0.950 . S
C340 C341 1.349 1_556 S
C340 C342 1.327 . S
C340 H365 0.950 . S
C341 C340 1.349 1_554 S
C341 C357 1.349 . S
C342 C340 1.327 . S
C342 C361 1.411 1_556 S
C342 H366 0.950 . S
C343 C360 1.574 1_655 S
C343 C362 1.378 . S
C343 H367 0.949 . S
H344 C348 0.949 . S
C345 C346 1.349 1_554 S
C345 C347 1.327 . S
C345 H368 0.950 . S
C346 C345 1.349 1_556 S
C346 C358 1.349 . S
C347 C345 1.327 . S
C347 C363 1.416 1_554 S
C347 H369 0.950 . S
C348 H344 0.949 . S
C348 C356 1.574 1_455 S
C348 C364 1.371 . S
H349 C357 0.950 . S
H350 C355 0.950 . S
H351 C356 0.949 . S
H352 C358 0.950 . S
H353 C359 0.950 . S
H354 C360 0.949 . S
C355 H350 0.950 . S
C355 C357 1.327 . S
C355 C361 1.449 . S
C356 C348 1.574 1_655 S
C356 H351 0.949 . S
C356 C362 1.358 1_556 S
C357 C341 1.349 . S
C357 H349 0.950 . S
C357 C355 1.327 . S
C358 C346 1.349 . S
C358 H352 0.950 . S
C358 C359 1.327 . S
C359 H353 0.950 . S
C359 C358 1.327 . S
C359 C363 1.442 . S
C360 C343 1.574 1_455 S
C360 H354 0.949 . S
C360 C364 1.365 1_554 S
C361 C342 1.411 1_554 S
C361 C355 1.449 . S
C361 C362 1.522 . S
C362 C343 1.378 . S
C362 C356 1.358 1_554 S
C362 C361 1.522 . S
C363 C347 1.416 1_556 S
C363 C359 1.442 . S
C363 C364 1.522 . S
C364 C348 1.371 . S
C364 C360 1.365 1_556 S
C364 C363 1.522 . S
H365 C340 0.950 . S
H366 C342 0.950 . S
H367 C343 0.949 . S
H368 C345 0.950 . S
H369 C347 0.950 . S
C370 C371 1.349 . S
C370 C372 1.327 . S
C370 H395 0.950 . S
C371 C370 1.349 . S
C371 C387 1.349 . S
C372 C370 1.327 . S
C372 C391 1.429 . S
C372 H396 0.950 . S
C373 C390 1.574 1_455 S
C373 C392 1.368 . S
C373 H397 0.949 . S
H374 C378 0.949 . S
C375 C376 1.349 . S
C375 C377 1.327 . S
C375 H398 0.950 . S
C376 C375 1.349 . S
C376 C388 1.349 . S
C377 C375 1.327 . S
C377 C393 1.429 . S
C377 H399 0.950 . S
C378 H374 0.949 . S
C378 C386 1.574 1_655 S
C378 C394 1.368 . S
H379 C387 0.950 . S
H380 C385 0.950 . S
H381 C386 0.949 . S
H382 C388 0.950 . S
H383 C389 0.950 . S
H384 C390 0.949 . S
C385 H380 0.950 . S
C385 C387 1.327 . S
C385 C391 1.429 . S
C386 C378 1.574 1_455 S
C386 H381 0.949 . S
C386 C392 1.368 . S
C387 C371 1.349 . S
C387 H379 0.950 . S
C387 C385 1.327 . S
C388 C376 1.349 . S
C388 H382 0.950 . S
C388 C389 1.327 . S
C389 H383 0.950 . S
C389 C388 1.327 . S
C389 C393 1.429 . S
C390 C373 1.574 1_655 S
C390 H384 0.949 . S
C390 C394 1.368 . S
C391 C372 1.429 . S
C391 C385 1.429 . S
C391 C392 1.523 . S
C392 C373 1.368 . S
C392 C386 1.368 . S
C392 C391 1.523 . S
C393 C377 1.429 . S
C393 C389 1.429 . S
C393 C394 1.523 . S
C394 C378 1.368 . S
C394 C390 1.368 . S
C394 C393 1.523 . S
H395 C370 0.950 . S
H396 C372 0.950 . S
H397 C373 0.949 . S
H398 C375 0.950 . S
H399 C377 0.950 . S
C400 C401 1.349 1_565 S
C400 C402 1.327 . S
C400 H425 0.950 . S
C401 C400 1.349 1_545 S
C401 C417 1.349 1_655 S
C402 C400 1.327 . S
C402 C421 1.429 1_565 S
C402 H426 0.950 . S
C403 C420 1.574 . S
C403 C422 1.368 1_455 S
C403 H427 0.949 . S
H404 C408 0.949 . S
C405 C406 1.341 1_455 S
C405 C407 1.327 . S
C405 H428 0.950 . S
C406 C405 1.341 1_655 S
C406 C418 1.359 1_545 S
C407 C405 1.327 . S
C407 C423 1.416 1_455 S
C407 H429 0.950 . S
C408 H404 0.949 . S
C408 C416 1.574 . S
C408 C424 1.368 1_565 S
H409 C417 0.950 . S
H410 C415 0.950 . S
H411 C416 0.949 . S
H412 C418 0.950 . S
H413 C419 0.950 . S
H414 C420 0.949 . S
C415 H410 0.950 . S
C415 C417 1.327 . S
C415 C421 1.429 1_455 S
C416 C408 1.574 . S
C416 H411 0.949 . S
C416 C422 1.368 1_565 S
C417 C401 1.349 1_455 S
C417 H409 0.950 . S
C417 C415 1.327 . S
C418 C406 1.359 1_565 S
C418 H412 0.950 . S
C418 C419 1.327 . S
C419 H413 0.950 . S
C419 C418 1.327 . S
C419 C423 1.439 1_565 S
C420 C403 1.574 . S
C420 H414 0.949 . S
C420 C424 1.368 1_455 S
C421 C402 1.429 1_545 S
C421 C415 1.429 1_655 S
C421 C422 1.523 . S
C422 C403 1.368 1_655 S
C422 C416 1.368 1_545 S
C422 C421 1.523 . S
C423 C407 1.416 1_655 S
C423 C419 1.439 1_545 S
C423 C424 1.525 . S
C424 C408 1.368 1_545 S
C424 C420 1.368 1_655 S
C424 C423 1.525 . S
H425 C400 0.950 . S
H426 C402 0.950 . S
H427 C403 0.949 . S
H428 C405 0.950 . S
H429 C407 0.950 . S
C430 C431 1.336 1_655 S
C430 C432 1.327 . S
C430 H455 0.950 . S
C431 C430 1.336 1_455 S
C431 C447 1.364 1_565 S
C432 C430 1.327 . S
C432 C451 1.458 1_655 S
C432 H456 0.950 . S
C433 C450 1.574 . S
C433 C452 1.338 1_545 S
C433 H457 0.949 . S
H434 C438 0.949 . S
C435 C436 1.326 1_545 S
C435 C437 1.327 . S
C435 H458 0.950 . S
C436 C435 1.326 1_565 S
C436 C448 1.373 1_455 S
C437 C435 1.327 . S
C437 C453 1.403 1_545 S
C437 H459 0.950 . S
C438 H434 0.949 . S
C438 C446 1.574 . S
C438 C454 1.397 1_655 S
H439 C447 0.950 . S
H440 C445 0.950 . S
H441 C446 0.949 . S
H442 C448 0.950 . S
H443 C449 0.950 . S
H444 C450 0.949 . S
C445 H440 0.950 . S
C445 C447 1.327 . S
C445 C451 1.401 1_545 S
C446 C438 1.574 . S
C446 H441 0.949 . S
C446 C452 1.398 1_655 S
C447 C431 1.364 1_545 S
C447 H439 0.950 . S
C447 C445 1.327 . S
C448 C436 1.373 1_655 S
C448 H442 0.950 . S
C448 C449 1.327 . S
C449 H443 0.950 . S
C449 C448 1.327 . S
C449 C453 1.453 1_655 S
C450 C433 1.574 . S
C450 H444 0.949 . S
C450 C454 1.341 1_545 S
C451 C432 1.458 1_455 S
C451 C445 1.401 1_565 S
C451 C452 1.523 . S
C452 C433 1.338 1_565 S
C452 C446 1.398 1_455 S
C452 C451 1.523 . S
C453 C437 1.403 1_565 S
C453 C449 1.453 1_455 S
C453 C454 1.523 . S
C454 C438 1.397 1_455 S
C454 C450 1.341 1_565 S
C454 C453 1.523 . S
H455 C430 0.950 . S
H456 C432 0.950 . S
H457 C433 0.949 . S
H458 C435 0.950 . S
H459 C437 0.950 . S
C460 C461 1.349 . S
C460 C462 1.327 . S
C460 H485 0.950 . S
C461 C460 1.349 . S
C461 C477 1.349 . S
C462 C460 1.327 . S
C462 C481 1.429 . S
C462 H486 0.950 . S
C463 C480 1.574 . S
C463 C482 1.368 . S
C463 H487 0.949 . S
H464 C468 0.949 . S
C465 C466 1.349 . S
C465 C467 1.327 . S
C465 H488 0.950 . S
C466 C465 1.349 . S
C466 C478 1.349 . S
C467 C465 1.327 . S
C467 C483 1.429 . S
C467 H489 0.950 . S
C468 H464 0.949 . S
C468 C476 1.574 . S
C468 C484 1.368 . S
H469 C477 0.950 . S
H470 C475 0.950 . S
H471 C476 0.949 . S
H472 C478 0.950 . S
H473 C479 0.950 . S
H474 C480 0.949 . S
C475 H470 0.950 . S
C475 C477 1.327 . S
C475 C481 1.429 . S
C476 C468 1.574 . S
C476 H471 0.949 . S
C476 C482 1.368 . S
C477 C461 1.349 . S
C477 H469 0.950 . S
C477 C475 1.327 . S
C478 C466 1.349 . S
C478 H472 0.950 . S
C478 C479 1.327 . S
C479 H473 0.950 . S
C479 C478 1.327 . S
C479 C483 1.429 . S
C480 C463 1.574 . S
C480 H474 0.949 . S
C480 C484 1.368 . S
C481 C462 1.429 . S
C481 C475 1.429 . S
C481 C482 1.523 . S
C482 C463 1.368 . S
C482 C476 1.368 . S
C482 C481 1.523 . S
C483 C467 1.429 . S
C483 C479 1.429 . S
C483 C484 1.523 . S
C484 C468 1.368 . S
C484 C480 1.368 . S
C484 C483 1.523 . S
H485 C460 0.950 . S
H486 C462 0.950 . S
H487 C463 0.949 . S
H488 C465 0.950 . S
H489 C467 0.950 . S
C490 C491 1.349 . S
C490 C492 1.327 . S
C490 H515 0.950 . S
C491 C490 1.349 . S
C491 C507 1.349 . S
C492 C490 1.327 . S
C492 C511 1.429 . S
C492 H516 0.950 . S
C493 C510 1.574 . S
C493 C512 1.368 . S
C493 H517 0.949 . S
H494 C498 0.949 . S
C495 C496 1.349 . S
C495 C497 1.327 . S
C495 H518 0.950 . S
C496 C495 1.349 . S
C496 C508 1.349 . S
C497 C495 1.327 . S
C497 C513 1.429 . S
C497 H519 0.950 . S
C498 H494 0.949 . S
C498 C506 1.574 . S
C498 C514 1.368 . S
H499 C507 0.950 . S
H500 C505 0.950 . S
H501 C506 0.949 . S
H502 C508 0.950 . S
H503 C509 0.950 . S
H504 C510 0.949 . S
C505 H500 0.950 . S
C505 C507 1.327 . S
C505 C511 1.429 . S
C506 C498 1.574 . S
C506 H501 0.949 . S
C506 C512 1.368 . S
C507 C491 1.349 . S
C507 H499 0.950 . S
C507 C505 1.327 . S
C508 C496 1.349 . S
C508 H502 0.950 . S
C508 C509 1.327 . S
C509 H503 0.950 . S
C509 C508 1.327 . S
C509 C513 1.429 . S
C510 C493 1.574 . S
C510 H504 0.949 . S
C510 C514 1.368 . S
C511 C492 1.429 . S
C511 C505 1.429 . S
C511 C512 1.523 . S
C512 C493 1.368 . S
C512 C506 1.368 . S
C512 C511 1.523 . S
C513 C497 1.429 . S
C513 C509 1.429 . S
C513 C514 1.523 . S
C514 C498 1.368 . S
C514 C510 1.368 . S
C514 C513 1.523 . S
H515 C490 0.950 . S
H516 C492 0.950 . S
H517 C493 0.949 . S
H518 C495 0.950 . S
H519 C497 0.950 . S
C161 C90 3.527 1_554 S
C166 C19 3.525 1_556 S
C191 C99 3.525 1_556 S
C196 C10 3.527 1_554 S
C221 C55 0.081 . S
C226 C126 0.081 . S
C251 C46 0.081 . S
C256 C135 0.081 . S
C281 C15 0.986 . S
C286 C6 0.986 . S
C311 C59 4.907 . S
C316 C50 4.907 . S
C341 C95 0.986 . S
C346 C86 0.986 . S
C371 C130 4.907 . S
C376 C139 4.907 . S
C401 C49 1.448 1_645 S
C406 C18 1.443 1_655 S
C431 C9 1.444 1_455 S
C436 C58 1.441 1_465 S
C461 C129 1.448 . S
C466 C98 1.449 . S
C491 C138 1.448 . S
C496 C89 1.454 . S
