# Generated by pormake.
# Topology wiv, (6)-cn, num edge types: 1
# Building blocks:
#     Node 0, Type 0, BuildingBlock: CUWYAW_clean_sbu_0, # of connection points: 6
#     Node 1, Type 0, BuildingBlock: CUWYAW_clean_sbu_0, # of connection points: 6
#     Node 2, Type 0, BuildingBlock: CUWYAW_clean_sbu_0, # of connection points: 6
#     Node 3, Type 0, BuildingBlock: CUWYAW_clean_sbu_0, # of connection points: 6
#     Node 4, Type 0, BuildingBlock: CUWYAW_clean_sbu_0, # of connection points: 6
#     Node 5, Type 0, BuildingBlock: CUWYAW_clean_sbu_0, # of connection points: 6
#     Node 6, Type 0, BuildingBlock: CUWYAW_clean_sbu_0, # of connection points: 6
#     Node 7, Type 0, BuildingBlock: CUWYAW_clean_sbu_0, # of connection points: 6
#     Node 8, Type 0, BuildingBlock: CUWYAW_clean_sbu_0, # of connection points: 6
#     Node 9, Type 0, BuildingBlock: CUWYAW_clean_sbu_0, # of connection points: 6
#     Node 10, Type 0, BuildingBlock: CUWYAW_clean_sbu_0, # of connection points: 6
#     Node 11, Type 0, BuildingBlock: CUWYAW_clean_sbu_0, # of connection points: 6
#     Node 12, Type 0, BuildingBlock: CUWYAW_clean_sbu_0, # of connection points: 6
#     Node 13, Type 0, BuildingBlock: CUWYAW_clean_sbu_0, # of connection points: 6
#     Node 14, Type 0, BuildingBlock: CUWYAW_clean_sbu_0, # of connection points: 6
#     Node 15, Type 0, BuildingBlock: CUWYAW_clean_sbu_0, # of connection points: 6
#     Edge 16, Type (0, 0), BuildingBlock: KIFKEQ_clean_linker_1, # of connection points: 2
#     Edge 17, Type (0, 0), BuildingBlock: KIFKEQ_clean_linker_1, # of connection points: 2
#     Edge 18, Type (0, 0), BuildingBlock: KIFKEQ_clean_linker_1, # of connection points: 2
#     Edge 19, Type (0, 0), BuildingBlock: KIFKEQ_clean_linker_1, # of connection points: 2
#     Edge 20, Type (0, 0), BuildingBlock: KIFKEQ_clean_linker_1, # of connection points: 2
#     Edge 21, Type (0, 0), BuildingBlock: KIFKEQ_clean_linker_1, # of connection points: 2
#     Edge 22, Type (0, 0), BuildingBlock: KIFKEQ_clean_linker_1, # of connection points: 2
#     Edge 23, Type (0, 0), BuildingBlock: KIFKEQ_clean_linker_1, # of connection points: 2
#     Edge 24, Type (0, 0), BuildingBlock: KIFKEQ_clean_linker_1, # of connection points: 2
#     Edge 25, Type (0, 0), BuildingBlock: KIFKEQ_clean_linker_1, # of connection points: 2
#     Edge 26, Type (0, 0), BuildingBlock: KIFKEQ_clean_linker_1, # of connection points: 2
#     Edge 27, Type (0, 0), BuildingBlock: KIFKEQ_clean_linker_1, # of connection points: 2
#     Edge 28, Type (0, 0), BuildingBlock: KIFKEQ_clean_linker_1, # of connection points: 2
#     Edge 29, Type (0, 0), BuildingBlock: KIFKEQ_clean_linker_1, # of connection points: 2
#     Edge 30, Type (0, 0), BuildingBlock: KIFKEQ_clean_linker_1, # of connection points: 2
#     Edge 31, Type (0, 0), BuildingBlock: KIFKEQ_clean_linker_1, # of connection points: 2
#     Edge 32, Type (0, 0), BuildingBlock: KIFKEQ_clean_linker_1, # of connection points: 2
#     Edge 33, Type (0, 0), BuildingBlock: KIFKEQ_clean_linker_1, # of connection points: 2
#     Edge 34, Type (0, 0), BuildingBlock: KIFKEQ_clean_linker_1, # of connection points: 2
#     Edge 35, Type (0, 0), BuildingBlock: KIFKEQ_clean_linker_1, # of connection points: 2
#     Edge 36, Type (0, 0), BuildingBlock: KIFKEQ_clean_linker_1, # of connection points: 2
#     Edge 37, Type (0, 0), BuildingBlock: KIFKEQ_clean_linker_1, # of connection points: 2
#     Edge 38, Type (0, 0), BuildingBlock: KIFKEQ_clean_linker_1, # of connection points: 2
#     Edge 39, Type (0, 0), BuildingBlock: KIFKEQ_clean_linker_1, # of connection points: 2
#     Edge 40, Type (0, 0), BuildingBlock: KIFKEQ_clean_linker_1, # of connection points: 2
#     Edge 41, Type (0, 0), BuildingBlock: KIFKEQ_clean_linker_1, # of connection points: 2
#     Edge 42, Type (0, 0), BuildingBlock: KIFKEQ_clean_linker_1, # of connection points: 2
#     Edge 43, Type (0, 0), BuildingBlock: KIFKEQ_clean_linker_1, # of connection points: 2
#     Edge 44, Type (0, 0), BuildingBlock: KIFKEQ_clean_linker_1, # of connection points: 2
#     Edge 45, Type (0, 0), BuildingBlock: KIFKEQ_clean_linker_1, # of connection points: 2
#     Edge 46, Type (0, 0), BuildingBlock: KIFKEQ_clean_linker_1, # of connection points: 2
#     Edge 47, Type (0, 0), BuildingBlock: KIFKEQ_clean_linker_1, # of connection points: 2
#     Edge 48, Type (0, 0), BuildingBlock: KIFKEQ_clean_linker_1, # of connection points: 2
#     Edge 49, Type (0, 0), BuildingBlock: KIFKEQ_clean_linker_1, # of connection points: 2
#     Edge 50, Type (0, 0), BuildingBlock: KIFKEQ_clean_linker_1, # of connection points: 2
#     Edge 51, Type (0, 0), BuildingBlock: KIFKEQ_clean_linker_1, # of connection points: 2
#     Edge 52, Type (0, 0), BuildingBlock: KIFKEQ_clean_linker_1, # of connection points: 2
#     Edge 53, Type (0, 0), BuildingBlock: KIFKEQ_clean_linker_1, # of connection points: 2
#     Edge 54, Type (0, 0), BuildingBlock: KIFKEQ_clean_linker_1, # of connection points: 2
#     Edge 55, Type (0, 0), BuildingBlock: KIFKEQ_clean_linker_1, # of connection points: 2
#     Edge 56, Type (0, 0), BuildingBlock: KIFKEQ_clean_linker_1, # of connection points: 2
#     Edge 57, Type (0, 0), BuildingBlock: KIFKEQ_clean_linker_1, # of connection points: 2
#     Edge 58, Type (0, 0), BuildingBlock: KIFKEQ_clean_linker_1, # of connection points: 2
#     Edge 59, Type (0, 0), BuildingBlock: KIFKEQ_clean_linker_1, # of connection points: 2
#     Edge 60, Type (0, 0), BuildingBlock: KIFKEQ_clean_linker_1, # of connection points: 2
#     Edge 61, Type (0, 0), BuildingBlock: KIFKEQ_clean_linker_1, # of connection points: 2
#     Edge 62, Type (0, 0), BuildingBlock: KIFKEQ_clean_linker_1, # of connection points: 2
#     Edge 63, Type (0, 0), BuildingBlock: KIFKEQ_clean_linker_1, # of connection points: 2
# Relax obj value: 0.128
# Max RMSD: 0.185
# Mean RMSD: 0.185
data_MOF--net-wiv--node1-CUWYAW_clean_sbu_0--edge1-KIFKEQ_clean_linker_1
_symmetry_space_group_name_H-M    P1
_symmetry_Int_Tables_number       1
_symmetry_cell_setting            triclinic
loop_
_symmetry_equiv_pos_as_xyz
'x, y, z'
_cell_length_a     51.968068
_cell_length_b     51.951453
_cell_length_c     25.132802
_cell_angle_alpha  89.921816
_cell_angle_beta   89.9548
_cell_angle_gamma 90.120622
loop_
_atom_site_label
_atom_site_type_symbol
_atom_site_fract_x
_atom_site_fract_y
_atom_site_fract_z
_atom_type_partial_charge
C0 C 0.40634 0.12342 0.98339 0.0
Eu1 Eu 0.38414 0.11313 0.07436 0.0
C2 C 0.3994 0.12221 0.92613 0.0
C3 C 0.41477 0.10786 0.89114 0.0
C4 C 0.40856 0.10615 0.83704 0.0
C5 C 0.38683 0.11885 0.81636 0.0
C6 C 0.37143 0.13324 0.85158 0.0
C7 C 0.37764 0.13492 0.90578 0.0
C8 C 0.38204 0.06507 0.11811 0.0
C9 C 0.32318 0.10369 0.04725 0.0
C10 C 0.32674 0.09561 0.25504 0.0
Eu11 Eu 0.34786 0.10796 0.16389 0.0
C12 C 0.33285 0.0987 0.3125 0.0
C13 C 0.33207 0.1229 0.33756 0.0
C14 C 0.33773 0.12529 0.39188 0.0
C15 C 0.3444 0.10359 0.42247 0.0
C16 C 0.34516 0.07942 0.3973 0.0
C17 C 0.33936 0.07701 0.34311 0.0
C18 C 0.35101 0.15725 0.12834 0.0
C19 C 0.40988 0.11976 0.18695 0.0
O20 O 0.39492 0.1408 1.01273 0.0
O21 O 0.40865 0.10139 1.00803 0.0
O22 O 0.40304 0.07617 0.10214 0.0
O23 O 0.36293 0.07931 0.10819 0.0
O24 O 0.34562 0.11301 0.03202 0.0
O25 O 0.31945 0.09698 0.09769 0.0
O26 O 0.34159 0.08019 0.22794 0.0
O27 O 0.32063 0.11621 0.22795 0.0
O28 O 0.32987 0.14542 0.14098 0.0
O29 O 0.37003 0.14214 0.13357 0.0
O30 O 0.38732 0.11162 0.20543 0.0
O31 O 0.41303 0.12493 0.13597 0.0
H32 H 0.4316 0.09782 0.90576 0.0
H33 H 0.42067 0.09453 0.81156 0.0
H34 H 0.35472 0.14354 0.83722 0.0
H35 H 0.36536 0.14615 0.93166 0.0
H36 H 0.32714 0.14005 0.31529 0.0
H37 H 0.33722 0.14424 0.40977 0.0
H38 H 0.34988 0.06224 0.4197 0.0
H39 H 0.33993 0.05808 0.32508 0.0
C40 C 0.09299 0.68226 0.79313 0.0
Eu41 Eu 0.10651 0.6617 0.88412 0.0
C42 C 0.09619 0.67617 0.73573 0.0
C43 C 0.12053 0.67148 0.71328 0.0
C44 C 0.12302 0.66587 0.65893 0.0
C45 C 0.10124 0.66469 0.62562 0.0
C46 C 0.0769 0.66923 0.64843 0.0
C47 C 0.07444 0.67492 0.70272 0.0
C48 C 0.15632 0.65945 0.91687 0.0
C49 C 0.11915 0.6001 0.86057 0.0
C50 C 0.12559 0.60375 0.06429 0.0
Eu51 Eu 0.11371 0.62542 0.97352 0.0
C52 C 0.12305 0.6106 0.12122 0.0
C53 C 0.10488 0.62879 0.13834 0.0
C54 C 0.10267 0.63505 0.19244 0.0
C55 C 0.11855 0.6232 0.23072 0.0
C56 C 0.13684 0.6051 0.21313 0.0
C57 C 0.13906 0.59891 0.15903 0.0
C58 C 0.06499 0.62678 0.93294 0.0
C59 C 0.10327 0.68626 1.00076 0.0
O60 O 0.07824 0.66677 0.82051 0.0
O61 O 0.11345 0.68918 0.81976 0.0
O62 O 0.14425 0.68032 0.90375 0.0
O63 O 0.14143 0.6402 0.91249 0.0
O64 O 0.10876 0.62197 0.84373 0.0
O65 O 0.12671 0.59761 0.91044 0.0
O66 O 0.14177 0.61753 0.03631 0.0
O67 O 0.10422 0.5992 0.03854 0.0
O68 O 0.07654 0.60595 0.94822 0.0
O69 O 0.07915 0.64607 0.94215 0.0
O70 O 0.11337 0.66409 1.0153 0.0
O71 O 0.09555 0.68975 0.95089 0.0
H72 H 0.13771 0.67219 0.73763 0.0
H73 H 0.14212 0.66282 0.64292 0.0
H74 H 0.05962 0.66807 0.6245 0.0
H75 H 0.05543 0.67829 0.71902 0.0
H76 H 0.0923 0.63809 0.10987 0.0
H77 H 0.08821 0.64887 0.20432 0.0
H78 H 0.1497 0.59587 0.24112 0.0
H79 H 0.15332 0.58495 0.1467 0.0
C80 C 0.60211 0.88543 0.98518 0.0
Eu81 Eu 0.62427 0.89492 0.07651 0.0
C82 C 0.60924 0.8874 0.92789 0.0
C83 C 0.59598 0.90463 0.89464 0.0
C84 C 0.6024 0.90694 0.84065 0.0
C85 C 0.62216 0.89193 0.81829 0.0
C86 C 0.63537 0.87459 0.85157 0.0
C87 C 0.62903 0.87237 0.90568 0.0
C88 C 0.62542 0.94271 0.12141 0.0
C89 C 0.68511 0.9049 0.0484 0.0
C90 C 0.68286 0.91346 0.25567 0.0
Eu91 Eu 0.66105 0.90098 0.16527 0.0
C92 C 0.67637 0.91199 0.31309 0.0
C93 C 0.69558 0.90578 0.35011 0.0
C94 C 0.68979 0.90383 0.40447 0.0
C95 C 0.66456 0.90792 0.42324 0.0
C96 C 0.64536 0.91425 0.38585 0.0
C97 C 0.65122 0.91632 0.33151 0.0
C98 C 0.6589 0.85179 0.1287 0.0
C99 C 0.59945 0.88786 0.18927 0.0
O100 O 0.61354 0.8678 1.01391 0.0
O101 O 0.59948 0.9071 1.01094 0.0
O102 O 0.60455 0.93085 0.10733 0.0
O103 O 0.64482 0.92917 0.10986 0.0
O104 O 0.66275 0.89514 0.03399 0.0
O105 O 0.68897 0.9121 0.09841 0.0
O106 O 0.66965 0.92955 0.22646 0.0
O107 O 0.68674 0.8916 0.23148 0.0
O108 O 0.67984 0.86395 0.14132 0.0
O109 O 0.63958 0.86635 0.13511 0.0
O110 O 0.62134 0.8983 0.20619 0.0
O111 O 0.59681 0.88079 0.13916 0.0
H112 H 0.58055 0.91634 0.91045 0.0
H113 H 0.59158 0.92025 0.8162 0.0
H114 H 0.65088 0.86294 0.83594 0.0
H115 H 0.63974 0.85895 0.93006 0.0
H116 H 0.71514 0.90244 0.33693 0.0
H117 H 0.70523 0.89937 0.43184 0.0
H118 H 0.62565 0.91724 0.39837 0.0
H119 H 0.63607 0.92122 0.30384 0.0
C120 C 0.92417 0.32615 0.79562 0.0
Eu121 Eu 0.90331 0.34499 0.88146 0.0
C122 C 0.91963 0.32894 0.73762 0.0
C123 C 0.89465 0.33009 0.7164 0.0
C124 C 0.89085 0.33443 0.66183 0.0
C125 C 0.91193 0.33794 0.62719 0.0
C126 C 0.93692 0.33661 0.64875 0.0
C127 C 0.94069 0.33217 0.70323 0.0
C128 C 0.85189 0.35106 0.89944 0.0
C129 C 0.88713 0.40638 0.86153 0.0
C130 C 0.88423 0.40454 0.06903 0.0
Eu131 Eu 0.89533 0.38379 0.97727 0.0
C132 C 0.88602 0.39629 0.12543 0.0
C133 C 0.9054 0.37934 0.14247 0.0
C134 C 0.90728 0.37215 0.19613 0.0
C135 C 0.88985 0.38176 0.23418 0.0
C136 C 0.87027 0.3985 0.21668 0.0
C137 C 0.86839 0.40565 0.16297 0.0
C138 C 0.94258 0.38259 0.93045 0.0
C139 C 0.90534 0.32174 1.00178 0.0
O140 O 0.93267 0.34683 0.81962 0.0
O141 O 0.9068 0.31374 0.82378 0.0
O142 O 0.86136 0.33534 0.86456 0.0
O143 O 0.87019 0.36171 0.92401 0.0
O144 O 0.89872 0.38516 0.84402 0.0
O145 O 0.88 0.40904 0.91185 0.0
O146 O 0.86716 0.39273 0.03942 0.0
O147 O 0.90607 0.40816 0.04409 0.0
O148 O 0.9316 0.40352 0.94726 0.0
O149 O 0.92851 0.36335 0.94092 0.0
O150 O 0.89897 0.34505 1.0184 0.0
O151 O 0.90987 0.31677 0.95057 0.0
H152 H 0.87802 0.32793 0.74205 0.0
H153 H 0.87133 0.335 0.64682 0.0
H154 H 0.95365 0.33964 0.6238 0.0
H155 H 0.96014 0.33174 0.71873 0.0
H156 H 0.91925 0.37178 0.11432 0.0
H157 H 0.92277 0.35946 0.20791 0.0
H158 H 0.85623 0.40599 0.24446 0.0
H159 H 0.8532 0.41863 0.15077 0.0
C160 C 0.40754 0.38737 0.31994 0.0
Eu161 Eu 0.38518 0.39633 0.22864 0.0
C162 C 0.40034 0.38837 0.37709 0.0
C163 C 0.41462 0.40395 0.4119 0.0
C164 C 0.40806 0.40559 0.46584 0.0
C165 C 0.38709 0.39158 0.48644 0.0
C166 C 0.37287 0.37584 0.45157 0.0
C167 C 0.37938 0.37427 0.39751 0.0
C168 C 0.38296 0.44385 0.18255 0.0
C169 C 0.32411 0.40487 0.25562 0.0
C170 C 0.32681 0.41116 0.04813 0.0
Eu171 Eu 0.3488 0.40017 0.13912 0.0
C172 C 0.33325 0.40875 0.99097 0.0
C173 C 0.31354 0.40506 0.95367 0.0
C174 C 0.31923 0.40287 0.89934 0.0
C175 C 0.34484 0.40425 0.88106 0.0
C176 C 0.36457 0.40783 0.91879 0.0
C177 C 0.35883 0.41011 0.97306 0.0
C178 C 0.35196 0.35153 0.17799 0.0
C179 C 0.41093 0.38892 0.11639 0.0
O180 O 0.39706 0.36936 0.29062 0.0
O181 O 0.40887 0.40944 0.29512 0.0
O182 O 0.40399 0.43304 0.19883 0.0
O183 O 0.36385 0.42963 0.19325 0.0
O184 O 0.34665 0.39601 0.27106 0.0
O185 O 0.32032 0.41123 0.20505 0.0
O186 O 0.34039 0.42758 0.07572 0.0
O187 O 0.32278 0.38974 0.07408 0.0
O188 O 0.33077 0.36312 0.16518 0.0
O189 O 0.37101 0.36653 0.17118 0.0
O190 O 0.38833 0.39668 0.09771 0.0
O191 O 0.41415 0.38427 0.16752 0.0
H192 H 0.43092 0.41492 0.3973 0.0
H193 H 0.41965 0.41763 0.49158 0.0
H194 H 0.35643 0.365 0.4659 0.0
H195 H 0.36789 0.36216 0.37172 0.0
H196 H 0.29366 0.40403 0.96655 0.0
H197 H 0.30348 0.40051 0.8716 0.0
H198 H 0.38454 0.40861 0.90653 0.0
H199 H 0.37442 0.41298 1.00097 0.0
C200 C 0.41098 0.68498 1.00921 0.0
Eu201 Eu 0.40018 0.66314 0.91804 0.0
C202 C 0.40975 0.678 0.06657 0.0
C203 C 0.39364 0.69199 0.10079 0.0
C204 C 0.39212 0.6859 0.15501 0.0
C205 C 0.40687 0.66575 0.17675 0.0
C206 C 0.42307 0.65176 0.14232 0.0
C207 C 0.42446 0.65776 0.08794 0.0
C208 C 0.35122 0.66009 0.88061 0.0
C209 C 0.38882 0.60151 0.94251 0.0
C210 C 0.38344 0.60445 0.73873 0.0
Eu211 Eu 0.39504 0.62636 0.82914 0.0
C212 C 0.38661 0.61083 0.68161 0.0
C213 C 0.40878 0.62337 0.6626 0.0
C214 C 0.41132 0.62938 0.60842 0.0
C215 C 0.39168 0.62314 0.57194 0.0
C216 C 0.36939 0.61082 0.59149 0.0
C217 C 0.36695 0.60471 0.64559 0.0
C218 C 0.44296 0.62814 0.87305 0.0
C219 C 0.4057 0.68741 0.80111 0.0
O220 O 0.42804 0.67333 0.97962 0.0
O221 O 0.38902 0.68774 0.9847 0.0
O222 O 0.36303 0.68127 0.89284 0.0
O223 O 0.36609 0.64105 0.88745 0.0
O224 O 0.39892 0.62354 0.9592 0.0
O225 O 0.38162 0.59878 0.8925 0.0
O226 O 0.36737 0.61882 0.76551 0.0
O227 O 0.40434 0.5993 0.7657 0.0
O228 O 0.4319 0.60722 0.8565 0.0
O229 O 0.4289 0.64739 0.8629 0.0
O230 O 0.39808 0.66445 0.78513 0.0
O231 O 0.41038 0.69192 0.85217 0.0
H232 H 0.38208 0.70767 0.08548 0.0
H233 H 0.37907 0.69687 0.17972 0.0
H234 H 0.43501 0.63635 0.15742 0.0
H235 H 0.43712 0.64657 0.06277 0.0
H236 H 0.42419 0.62851 0.6896 0.0
H237 H 0.42889 0.6386 0.59511 0.0
H238 H 0.3536 0.60614 0.56513 0.0
H239 H 0.34956 0.59527 0.65939 0.0
C240 C 0.60341 0.62512 0.31593 0.0
Eu241 Eu 0.62551 0.61419 0.22508 0.0
C242 C 0.61026 0.62267 0.37291 0.0
C243 C 0.62946 0.60551 0.38983 0.0
C244 C 0.63568 0.60331 0.44398 0.0
C245 C 0.6227 0.6181 0.48253 0.0
C246 C 0.60353 0.63533 0.46517 0.0
C247 C 0.59744 0.6376 0.41101 0.0
C248 C 0.62667 0.56578 0.18298 0.0
C249 C 0.68637 0.60404 0.25278 0.0
C250 C 0.68237 0.59314 0.04519 0.0
Eu251 Eu 0.66203 0.60707 0.13602 0.0
C252 C 0.67586 0.59601 0.98792 0.0
C253 C 0.66832 0.61983 0.96638 0.0
C254 C 0.66251 0.62215 0.91207 0.0
C255 C 0.66394 0.6007 0.87788 0.0
C256 C 0.67123 0.57683 0.89989 0.0
C257 C 0.67714 0.57456 0.95414 0.0
C258 C 0.65985 0.65684 0.16912 0.0
C259 C 0.60052 0.62032 0.11212 0.0
O260 O 0.61663 0.64184 0.2881 0.0
O261 O 0.59965 0.60365 0.29 0.0
O262 O 0.60582 0.57764 0.19694 0.0
O263 O 0.64603 0.57963 0.19343 0.0
O264 O 0.66414 0.61411 0.26703 0.0
O265 O 0.69 0.59628 0.20301 0.0
O266 O 0.66731 0.57827 0.07339 0.0
O267 O 0.68911 0.6139 0.07104 0.0
O268 O 0.68072 0.64476 0.15597 0.0
O269 O 0.64058 0.64199 0.16447 0.0
O270 O 0.62234 0.60981 0.09534 0.0
O271 O 0.59799 0.62776 0.16204 0.0
H272 H 0.63958 0.59371 0.36118 0.0
H273 H 0.65035 0.58966 0.45569 0.0
H274 H 0.59338 0.64732 0.49343 0.0
H275 H 0.58265 0.65104 0.39887 0.0
H276 H 0.66699 0.63673 0.99141 0.0
H277 H 0.6573 0.64092 0.89678 0.0
H278 H 0.67212 0.55975 0.87533 0.0
H279 H 0.68269 0.55594 0.9698 0.0
C280 C 0.59894 0.32783 1.00245 0.0
Eu281 Eu 0.60991 0.34949 0.91118 0.0
C282 C 0.60132 0.33455 0.05963 0.0
C283 C 0.62453 0.34378 0.08121 0.0
C284 C 0.62634 0.34974 0.13548 0.0
C285 C 0.60496 0.34679 0.16953 0.0
C286 C 0.58169 0.33783 0.14749 0.0
C287 C 0.57993 0.33175 0.0933 0.0
C288 C 0.65832 0.35451 0.87129 0.0
C289 C 0.62022 0.41173 0.93476 0.0
C290 C 0.62075 0.40943 0.73086 0.0
Eu291 Eu 0.61261 0.38637 0.82196 0.0
C292 C 0.61956 0.40224 0.67395 0.0
C293 C 0.60372 0.38201 0.65642 0.0
C294 C 0.60259 0.37557 0.6023 0.0
C295 C 0.61714 0.38936 0.56444 0.0
C296 C 0.63307 0.40954 0.58237 0.0
C297 C 0.63428 0.41585 0.63652 0.0
C298 C 0.56574 0.38325 0.87019 0.0
C299 C 0.60515 0.32487 0.79501 0.0
O300 O 0.58234 0.34114 0.97478 0.0
O301 O 0.62018 0.3235 0.97603 0.0
O302 O 0.64776 0.3328 0.88479 0.0
O303 O 0.64272 0.37285 0.87895 0.0
O304 O 0.61301 0.38885 0.95326 0.0
O305 O 0.62457 0.41528 0.88353 0.0
O306 O 0.63904 0.39882 0.75907 0.0
O307 O 0.59885 0.41011 0.75639 0.0
O308 O 0.57629 0.40456 0.85438 0.0
O309 O 0.5799 0.36438 0.85796 0.0
O310 O 0.61315 0.34778 0.77932 0.0
O311 O 0.59934 0.32076 0.84572 0.0
H312 H 0.64134 0.3463 0.05624 0.0
H313 H 0.64467 0.35628 0.15085 0.0
H314 H 0.56465 0.33576 0.17196 0.0
H315 H 0.56177 0.32487 0.07759 0.0
H316 H 0.59207 0.37129 0.68454 0.0
H317 H 0.58993 0.3601 0.59003 0.0
H318 H 0.64481 0.42035 0.55457 0.0
H319 H 0.6467 0.43146 0.64917 0.0
C320 C 0.90684 0.62022 0.48477 0.0
Eu321 Eu 0.88428 0.61181 0.57621 0.0
C322 C 0.89946 0.61876 0.42762 0.0
C323 C 0.91266 0.60196 0.39343 0.0
C324 C 0.90603 0.60022 0.33948 0.0
C325 C 0.88612 0.6154 0.31817 0.0
C326 C 0.87293 0.63225 0.35245 0.0
C327 C 0.87946 0.63389 0.40649 0.0
C328 C 0.8809 0.5648 0.6238 0.0
C329 C 0.82299 0.60405 0.54809 0.0
C330 C 0.82367 0.60082 0.75594 0.0
Eu331 Eu 0.84692 0.60944 0.6649 0.0
C332 C 0.83027 0.60178 0.81327 0.0
C333 C 0.81113 0.60747 0.85079 0.0
C334 C 0.81705 0.60878 0.90516 0.0
C335 C 0.84235 0.60453 0.92336 0.0
C336 C 0.86148 0.59878 0.8854 0.0
C337 C 0.85548 0.59738 0.83107 0.0
C338 C 0.85267 0.65762 0.62355 0.0
C339 C 0.90906 0.61856 0.68921 0.0
O340 O 0.89636 0.63838 0.51358 0.0
O341 O 0.90839 0.59839 0.5105 0.0
O342 O 0.90218 0.57504 0.6069 0.0
O343 O 0.86202 0.5792 0.61248 0.0
O344 O 0.84598 0.61196 0.53285 0.0
O345 O 0.81846 0.59874 0.59892 0.0
O346 O 0.83467 0.5829 0.72752 0.0
O347 O 0.82289 0.62282 0.7309 0.0
O348 O 0.83073 0.64714 0.63547 0.0
O349 O 0.87069 0.64193 0.63291 0.0
O350 O 0.88654 0.60964 0.70628 0.0
O351 O 0.91235 0.62482 0.63875 0.0
H352 H 0.9282 0.59015 0.40848 0.0
H353 H 0.91681 0.58725 0.31424 0.0
H354 H 0.85728 0.64399 0.33764 0.0
H355 H 0.86875 0.64694 0.43167 0.0
H356 H 0.79152 0.61087 0.83804 0.0
H357 H 0.80166 0.61283 0.93297 0.0
H358 H 0.88124 0.59572 0.89747 0.0
H359 H 0.87056 0.5929 0.80295 0.0
C360 C 0.59702 0.18123 0.29937 0.0
Eu361 Eu 0.60854 0.15979 0.3905 0.0
C362 C 0.59958 0.17463 0.24222 0.0
C363 C 0.62245 0.16431 0.22142 0.0
C364 C 0.62445 0.1584 0.16714 0.0
C365 C 0.60357 0.16248 0.13237 0.0
C366 C 0.5806 0.17252 0.1537 0.0
C367 C 0.57868 0.17855 0.20788 0.0
C368 C 0.6573 0.15486 0.42842 0.0
C369 C 0.61878 0.09754 0.3674 0.0
C370 C 0.62005 0.10021 0.57106 0.0
Eu371 Eu 0.61166 0.12319 0.48002 0.0
C372 C 0.6189 0.10737 0.62796 0.0
C373 C 0.60368 0.12803 0.64538 0.0
C374 C 0.60256 0.13443 0.69951 0.0
C375 C 0.61646 0.12015 0.73749 0.0
C376 C 0.63173 0.0995 0.71969 0.0
C377 C 0.63297 0.09324 0.66552 0.0
C378 C 0.56452 0.12613 0.43298 0.0
C379 C 0.60456 0.18467 0.50659 0.0
O380 O 0.58078 0.16738 0.327 0.0
O381 O 0.61815 0.18613 0.3257 0.0
O382 O 0.6467 0.17651 0.415 0.0
O383 O 0.64148 0.13653 0.42192 0.0
O384 O 0.61147 0.12032 0.34874 0.0
O385 O 0.62339 0.09419 0.41856 0.0
O386 O 0.63824 0.111 0.54268 0.0
O387 O 0.5981 0.09937 0.54578 0.0
O388 O 0.57512 0.10488 0.44866 0.0
O389 O 0.5788 0.14504 0.44471 0.0
O390 O 0.61272 0.16186 0.52221 0.0
O391 O 0.59832 0.18861 0.45606 0.0
H392 H 0.63886 0.16088 0.24701 0.0
H393 H 0.64255 0.151 0.15236 0.0
H394 H 0.56392 0.17547 0.12867 0.0
H395 H 0.56076 0.18626 0.22305 0.0
H396 H 0.59251 0.13911 0.61716 0.0
H397 H 0.5904 0.15027 0.71171 0.0
H398 H 0.64295 0.08829 0.74762 0.0
H399 H 0.64488 0.07727 0.65295 0.0
C400 C 0.10167 0.38546 0.48361 0.0
Eu401 Eu 0.12424 0.39546 0.57422 0.0
C402 C 0.10848 0.38628 0.42633 0.0
C403 C 0.09183 0.39847 0.39036 0.0
C404 C 0.09799 0.39998 0.33619 0.0
C405 C 0.12102 0.38934 0.31659 0.0
C406 C 0.13768 0.37708 0.35279 0.0
C407 C 0.13145 0.3755 0.407 0.0
C408 C 0.12617 0.44319 0.61925 0.0
C409 C 0.18523 0.40507 0.54711 0.0
C410 C 0.18197 0.4114 0.75495 0.0
Eu411 Eu 0.16053 0.40002 0.66369 0.0
C412 C 0.17549 0.40875 0.81245 0.0
C413 C 0.18096 0.38594 0.84047 0.0
C414 C 0.17515 0.38373 0.89475 0.0
C415 C 0.1638 0.40428 0.92257 0.0
C416 C 0.15844 0.42713 0.89455 0.0
C417 C 0.16429 0.42936 0.8403 0.0
C418 C 0.15766 0.35113 0.62612 0.0
C419 C 0.09844 0.38874 0.68675 0.0
O420 O 0.11278 0.36792 0.51309 0.0
O421 O 0.10007 0.40766 0.50773 0.0
O422 O 0.10522 0.43215 0.60297 0.0
O423 O 0.14535 0.4291 0.60892 0.0
O424 O 0.16273 0.39605 0.53158 0.0
O425 O 0.18902 0.41127 0.59776 0.0
O426 O 0.16827 0.42762 0.72716 0.0
O427 O 0.18691 0.39037 0.7284 0.0
O428 O 0.17875 0.363 0.63879 0.0
O429 O 0.13851 0.36599 0.63242 0.0
O430 O 0.12103 0.39668 0.7053 0.0
O431 O 0.09531 0.38365 0.6358 0.0
H432 H 0.07405 0.40699 0.40427 0.0
H433 H 0.08485 0.40989 0.30979 0.0
H434 H 0.15544 0.36842 0.33918 0.0
H435 H 0.14466 0.36591 0.43375 0.0
H436 H 0.18974 0.36971 0.82051 0.0
H437 H 0.17931 0.36574 0.91479 0.0
H438 H 0.15009 0.44352 0.91473 0.0
H439 H 0.16013 0.44734 0.82021 0.0
C440 C 0.40592 0.82457 0.29485 0.0
Eu441 Eu 0.39721 0.84688 0.38642 0.0
C442 C 0.40512 0.83189 0.23773 0.0
C443 C 0.39002 0.8174 0.20241 0.0
C444 C 0.38865 0.82398 0.14843 0.0
C445 C 0.40252 0.84516 0.12827 0.0
C446 C 0.41778 0.85961 0.16366 0.0
C447 C 0.419 0.85312 0.21782 0.0
C448 C 0.34894 0.85222 0.42703 0.0
C449 C 0.38817 0.90885 0.36189 0.0
C450 C 0.38452 0.90671 0.56616 0.0
Eu451 Eu 0.3946 0.88412 0.47555 0.0
C452 C 0.38671 0.9001 0.62337 0.0
C453 C 0.39164 0.91952 0.66072 0.0
C454 C 0.39375 0.91363 0.71502 0.0
C455 C 0.39113 0.88808 0.73328 0.0
C456 C 0.38632 0.86864 0.69547 0.0
C457 C 0.38401 0.87461 0.64128 0.0
C458 C 0.44157 0.88136 0.42812 0.0
C459 C 0.40389 0.82264 0.50281 0.0
O460 O 0.42398 0.83475 0.32432 0.0
O461 O 0.38385 0.82348 0.31959 0.0
O462 O 0.35949 0.83039 0.41495 0.0
O463 O 0.3647 0.87037 0.41855 0.0
O464 O 0.39712 0.88641 0.3449 0.0
O465 O 0.38181 0.91205 0.41232 0.0
O466 O 0.36744 0.89387 0.53853 0.0
O467 O 0.40609 0.90991 0.54016 0.0
O468 O 0.4314 0.90249 0.44579 0.0
O469 O 0.42724 0.86233 0.43923 0.0
O470 O 0.39735 0.84584 0.5192 0.0
O471 O 0.40734 0.81786 0.45148 0.0
H472 H 0.3792 0.80092 0.21664 0.0
H473 H 0.37696 0.81224 0.12228 0.0
H474 H 0.4285 0.87618 0.14963 0.0
H475 H 0.43071 0.8648 0.24404 0.0
H476 H 0.39371 0.93934 0.64791 0.0
H477 H 0.39704 0.92923 0.74274 0.0
H478 H 0.38457 0.8487 0.70755 0.0
H479 H 0.38005 0.85924 0.61346 0.0
C480 C 0.90513 0.88387 0.81998 0.0
Eu481 Eu 0.88395 0.89468 0.72848 0.0
C482 C 0.89766 0.88521 0.87708 0.0
C483 C 0.9132 0.89906 0.91268 0.0
C484 C 0.90644 0.9012 0.96647 0.0
C485 C 0.88395 0.88942 0.98639 0.0
C486 C 0.86838 0.87549 0.95055 0.0
C487 C 0.87516 0.87341 0.8966 0.0
C488 C 0.88295 0.94171 0.68095 0.0
C489 C 0.82209 0.90543 0.7536 0.0
C490 C 0.82599 0.92324 0.54689 0.0
Eu491 Eu 0.84481 0.90254 0.63299 0.0
C492 C 0.8292 0.91914 0.48874 0.0
C493 C 0.82726 0.89456 0.46561 0.0
C494 C 0.83199 0.89109 0.41105 0.0
C495 C 0.83903 0.91205 0.37846 0.0
C496 C 0.84068 0.93664 0.40176 0.0
C497 C 0.83578 0.94011 0.45612 0.0
C498 C 0.85065 0.85116 0.6519 0.0
C499 C 0.90613 0.88634 0.61239 0.0
O500 O 0.89378 0.86659 0.78999 0.0
O501 O 0.9081 0.90594 0.79558 0.0
O502 O 0.90384 0.93064 0.69767 0.0
O503 O 0.86359 0.92783 0.6917 0.0
O504 O 0.8454 0.89888 0.77006 0.0
O505 O 0.81693 0.90961 0.70233 0.0
O506 O 0.8463 0.93214 0.5716 0.0
O507 O 0.81378 0.90554 0.57455 0.0
O508 O 0.83486 0.86057 0.61707 0.0
O509 O 0.86149 0.8695 0.67599 0.0
O510 O 0.88479 0.89777 0.59507 0.0
O511 O 0.90904 0.87936 0.66275 0.0
H512 H 0.93058 0.90846 0.89873 0.0
H513 H 0.91872 0.91249 0.99226 0.0
H514 H 0.85108 0.86591 0.96422 0.0
H515 H 0.86269 0.86263 0.87022 0.0
H516 H 0.82253 0.87793 0.48978 0.0
H517 H 0.83081 0.87186 0.39468 0.0
H518 H 0.84574 0.95328 0.37792 0.0
H519 H 0.83751 0.95924 0.47292 0.0
C520 C 0.90704 0.18154 0.50178 0.0
Eu521 Eu 0.89792 0.15878 0.41068 0.0
C522 C 0.90515 0.17499 0.55897 0.0
C523 C 0.90141 0.19458 0.59648 0.0
C524 C 0.89969 0.18878 0.65085 0.0
C525 C 0.90158 0.16316 0.66898 0.0
C526 C 0.90522 0.14355 0.63102 0.0
C527 C 0.90706 0.14941 0.5767 0.0
C528 C 0.84993 0.15348 0.36908 0.0
C529 C 0.8887 0.09629 0.43371 0.0
C530 C 0.88893 0.09912 0.23017 0.0
Eu531 Eu 0.89632 0.122 0.32147 0.0
C532 C 0.88939 0.10639 0.17305 0.0
C533 C 0.90481 0.09236 0.1376 0.0
C534 C 0.90603 0.09906 0.08366 0.0
C535 C 0.89176 0.11995 0.06373 0.0
C536 C 0.87618 0.13393 0.09928 0.0
C537 C 0.87504 0.12726 0.15333 0.0
C538 C 0.94292 0.1253 0.37071 0.0
C539 C 0.90337 0.18334 0.29432 0.0
O540 O 0.92448 0.16934 0.4742 0.0
O541 O 0.88539 0.18373 0.47588 0.0
O542 O 0.86045 0.17528 0.38183 0.0
O543 O 0.86557 0.13523 0.37745 0.0
O544 O 0.8955 0.11923 0.4524 0.0
O545 O 0.88463 0.09276 0.38248 0.0
O546 O 0.87025 0.10823 0.25959 0.0
O547 O 0.91105 0.09945 0.25481 0.0
O548 O 0.9328 0.10405 0.35352 0.0
O549 O 0.92862 0.14415 0.3588 0.0
O550 O 0.89542 0.16045 0.27871 0.0
O551 O 0.90886 0.18751 0.34513 0.0
H552 H 0.89997 0.21446 0.58372 0.0
H553 H 0.89729 0.20446 0.67873 0.0
H554 H 0.9064 0.12358 0.64313 0.0
H555 H 0.91004 0.13394 0.54862 0.0
H556 H 0.91599 0.07615 0.1517 0.0
H557 H 0.91795 0.08764 0.05741 0.0
H558 H 0.86517 0.15031 0.08548 0.0
H559 H 0.86307 0.13858 0.17968 0.0
C560 C 0.10248 0.12279 0.81696 0.0
Eu561 Eu 0.12456 0.11299 0.72567 0.0
C562 C 0.10958 0.12075 0.87424 0.0
C563 C 0.09634 0.10339 0.90741 0.0
C564 C 0.10273 0.10104 0.96139 0.0
C565 C 0.12242 0.11617 0.98384 0.0
C566 C 0.13561 0.13364 0.95066 0.0
C567 C 0.12932 0.13588 0.89656 0.0
C568 C 0.12568 0.06512 0.68124 0.0
C569 C 0.18546 0.10318 0.75376 0.0
C570 C 0.18305 0.09452 0.54634 0.0
Eu571 Eu 0.16131 0.10701 0.63684 0.0
C572 C 0.17656 0.09604 0.48894 0.0
C573 C 0.19569 0.10265 0.45194 0.0
C574 C 0.18991 0.10462 0.39759 0.0
C575 C 0.16473 0.10015 0.37882 0.0
C576 C 0.1456 0.09342 0.41619 0.0
C577 C 0.15147 0.09132 0.47051 0.0
C578 C 0.15871 0.1564 0.67231 0.0
C579 C 0.09967 0.11955 0.61275 0.0
O580 O 0.11422 0.14027 0.78819 0.0
O581 O 0.09947 0.10115 0.7912 0.0
O582 O 0.10483 0.07687 0.69566 0.0
O583 O 0.1451 0.07877 0.69245 0.0
O584 O 0.16303 0.11265 0.76837 0.0
O585 O 0.18938 0.09625 0.70359 0.0
O586 O 0.16976 0.07844 0.57558 0.0
O587 O 0.18709 0.11636 0.5706 0.0
O588 O 0.17975 0.14441 0.66002 0.0
O589 O 0.13956 0.1415 0.66643 0.0
O590 O 0.12161 0.10926 0.59592 0.0
O591 O 0.09699 0.12671 0.66282 0.0
H592 H 0.08095 0.09159 0.89153 0.0
H593 H 0.09193 0.08763 0.98577 0.0
H594 H 0.15107 0.14538 0.96636 0.0
H595 H 0.14002 0.1494 0.87226 0.0
H596 H 0.21521 0.10628 0.46511 0.0
H597 H 0.2053 0.1094 0.37024 0.0
H598 H 0.12594 0.09013 0.40369 0.0
H599 H 0.13638 0.0861 0.49814 0.0
C600 C 0.09911 0.82583 0.50258 0.0
Eu601 Eu 0.10832 0.84809 0.41096 0.0
C602 C 0.10126 0.83256 0.56001 0.0
C603 C 0.12488 0.83076 0.58713 0.0
C604 C 0.12655 0.83673 0.6414 0.0
C605 C 0.10467 0.84463 0.67006 0.0
C606 C 0.08106 0.84636 0.64291 0.0
C607 C 0.07936 0.84032 0.5887 0.0
C608 C 0.15631 0.8535 0.36939 0.0
C609 C 0.11766 0.9105 0.43456 0.0
C610 C 0.11748 0.90827 0.23094 0.0
Eu611 Eu 0.10985 0.88507 0.32199 0.0
C612 C 0.11709 0.90124 0.17376 0.0
C613 C 0.10322 0.91653 0.13782 0.0
C614 C 0.1022 0.91018 0.08372 0.0
C615 C 0.11511 0.88835 0.06408 0.0
C616 C 0.129 0.87301 0.10031 0.0
C617 C 0.13001 0.87939 0.15448 0.0
C618 C 0.06322 0.88143 0.37116 0.0
C619 C 0.10267 0.82377 0.29443 0.0
O620 O 0.08168 0.83804 0.47496 0.0
O621 O 0.12042 0.82271 0.47571 0.0
O622 O 0.14583 0.83167 0.38229 0.0
O623 O 0.14064 0.87173 0.37776 0.0
O624 O 0.11097 0.88748 0.45321 0.0
O625 O 0.1215 0.91417 0.38324 0.0
O626 O 0.13605 0.89887 0.26025 0.0
O627 O 0.09531 0.90796 0.25551 0.0
O628 O 0.07326 0.90279 0.35419 0.0
O629 O 0.07762 0.8627 0.35913 0.0
O630 O 0.11041 0.84675 0.27879 0.0
O631 O 0.09749 0.8194 0.34539 0.0
H632 H 0.14214 0.82472 0.56649 0.0
H633 H 0.14511 0.83542 0.66079 0.0
H634 H 0.06372 0.85199 0.66376 0.0
H635 H 0.0608 0.8416 0.56928 0.0
H636 H 0.093 0.9334 0.15169 0.0
H637 H 0.09096 0.92224 0.05741 0.0
H638 H 0.13942 0.85622 0.08675 0.0
H639 H 0.14085 0.86718 0.18122 0.0
H640 H 0.36093 0.95375 0.3743 0.0
H641 H 0.40987 0.91383 0.26284 0.0
H642 H 0.35811 0.99024 0.31281 0.0
H643 H 0.40726 0.95043 0.2018 0.0
H644 H 0.42277 0.03505 0.14597 0.0
H645 H 0.42306 0.9967 0.20227 0.0
H646 H 0.34064 1.00187 0.22 0.0
H647 H 0.34027 0.03996 0.16201 0.0
C648 C 0.37104 0.9527 0.33667 0.0
C649 C 0.38569 0.9308 0.32373 0.0
C650 C 0.36929 0.97358 0.30127 0.0
C651 C 0.38249 0.97333 0.25234 0.0
C652 C 0.397 0.95137 0.23927 0.0
C653 C 0.3984 0.93032 0.27425 0.0
C654 C 0.40464 0.0279 0.16139 0.0
C655 C 0.38152 0.0408 0.14989 0.0
C656 C 0.40482 0.00585 0.19364 0.0
C657 C 0.3819 0.99622 0.21597 0.0
C658 C 0.35868 0.00892 0.20396 0.0
C659 C 0.35846 0.03075 0.17074 0.0
H660 H 0.95257 0.64832 0.67908 0.0
H661 H 0.91559 0.59439 0.78532 0.0
H662 H 0.98906 0.65151 0.74035 0.0
H663 H 0.95192 0.59765 0.84651 0.0
H664 H 0.03624 0.5854 0.90296 0.0
H665 H 0.99811 0.58448 0.84639 0.0
H666 H 1.0008 0.66727 0.83292 0.0
H667 H 0.03883 0.66821 0.89085 0.0
C668 C 0.95213 0.63723 0.71559 0.0
C669 C 0.931 0.62116 0.72725 0.0
C670 C 0.97299 0.63921 0.75092 0.0
C671 C 0.97349 0.62486 0.79848 0.0
C672 C 0.9523 0.60888 0.81016 0.0
C673 C 0.93131 0.60717 0.77522 0.0
C674 C 0.02859 0.60347 0.88842 0.0
C675 C 0.04077 0.62687 0.90111 0.0
C676 C 0.00665 0.60293 0.85599 0.0
C677 C 0.99636 0.62578 0.8348 0.0
C678 C 0.00835 0.64928 0.84803 0.0
C679 C 0.03012 0.64983 0.88129 0.0
H680 H 0.66395 0.97854 0.13509 0.0
H681 H 0.5874 0.95876 0.18778 0.0
H682 H 0.66334 0.01674 0.1932 0.0
H683 H 0.5872 0.99617 0.24688 0.0
H684 H 0.6156 0.04641 0.39204 0.0
H685 H 0.61807 0.00947 0.33196 0.0
H686 H 0.63087 0.06062 0.19931 0.0
H687 H 0.62757 0.09787 0.25924 0.0
C688 C 0.64707 0.98232 0.15911 0.0
C689 C 0.62566 0.96576 0.15656 0.0
C690 C 0.64669 1.00418 0.19219 0.0
C691 C 0.62519 0.00945 0.22451 0.0
C692 C 0.60401 0.99262 0.22247 0.0
C693 C 0.60411 0.97125 0.18846 0.0
C694 C 0.61905 0.04986 0.35013 0.0
C695 C 0.62138 0.07516 0.33056 0.0
C696 C 0.62039 0.02867 0.31572 0.0
C697 C 0.62474 0.03213 0.26098 0.0
C698 C 0.62766 0.05736 0.24138 0.0
C699 C 0.62566 0.07867 0.27567 0.0
H700 H 0.95964 0.42104 0.86576 0.0
H701 H 0.97761 0.34366 0.91565 0.0
H702 H 0.99734 0.42115 0.80713 0.0
H703 H 0.01607 0.34418 0.85815 0.0
H704 H 0.09828 0.38163 0.79549 0.0
H705 H 0.06073 0.37852 0.85488 0.0
H706 H 0.01019 0.38823 0.72052 0.0
H707 H 0.04742 0.39049 0.66097 0.0
C708 C 0.97179 0.40412 0.86454 0.0
C709 C 0.9657 0.38235 0.89544 0.0
C710 C 0.99332 0.40418 0.83086 0.0
C711 C 0.00971 0.38274 0.82829 0.0
C712 C 1.00384 0.36103 0.85962 0.0
C713 C 0.98184 0.3607 0.89234 0.0
C714 C 0.07916 0.38289 0.77857 0.0
C715 C 0.07591 0.38623 0.72335 0.0
C716 C 0.05769 0.38101 0.81256 0.0
C717 C 0.03256 0.38312 0.79227 0.0
C718 C 0.02933 0.38654 0.73723 0.0
C719 C 0.05069 0.38775 0.70316 0.0
H720 H 0.42357 0.4742 0.1547 0.0
H721 H 0.34106 0.4688 0.13921 0.0
H722 H 0.42369 0.51287 0.09944 0.0
H723 H 0.34125 0.50731 0.08241 0.0
H724 H 0.36082 0.55697 0.92994 0.0
H725 H 0.35804 0.52009 0.9904 0.0
H726 H 0.4083 0.55885 0.10104 0.0
H727 H 0.41093 0.59582 0.04097 0.0
C728 C 0.4054 0.48131 0.13961 0.0
C729 C 0.38232 0.46819 0.15102 0.0
C730 C 0.40547 0.50357 0.10798 0.0
C731 C 0.3825 0.51323 0.08621 0.0
C732 C 0.35933 0.50026 0.09802 0.0
C733 C 0.35921 0.47819 0.13056 0.0
C734 C 0.37117 0.55772 0.96729 0.0
C735 C 0.38616 0.57943 0.98035 0.0
C736 C 0.36945 0.5366 1.00212 0.0
C737 C 0.38299 0.53641 0.0506 0.0
C738 C 0.39778 0.55822 0.06387 0.0
C739 C 0.39919 0.5795 0.02945 0.0
H740 H 0.55666 0.64921 0.12461 0.0
H741 H 0.59422 0.59793 1.01417 0.0
H742 H 0.51978 0.65242 0.06448 0.0
H743 H 0.55727 0.60102 0.95438 0.0
H744 H 0.4725 0.58712 0.90111 0.0
H745 H 0.51112 0.5865 0.95626 0.0
H746 H 0.50715 0.66907 0.97264 0.0
H747 H 0.46868 0.66974 0.91595 0.0
C748 C 0.55714 0.6387 0.08744 0.0
C749 C 0.57848 0.62326 0.07444 0.0
C750 C 0.53602 0.64067 0.0528 0.0
C751 C 0.53547 0.62694 1.00456 0.0
C752 C 0.55692 0.61169 0.99136 0.0
C753 C 0.57819 0.61003 0.02559 0.0
C754 C 0.47995 0.60521 0.91603 0.0
C755 C 0.4673 0.62847 0.90448 0.0
C756 C 0.50218 0.60485 0.94761 0.0
C757 C 0.51227 0.62771 0.96915 0.0
C758 C 0.49976 0.65106 0.95722 0.0
C759 C 0.4777 0.65146 0.92476 0.0
H760 H 0.58827 0.54909 0.11807 0.0
H761 H 0.66546 0.53051 0.16788 0.0
H762 H 0.58818 0.51189 0.0584 0.0
H763 H 0.66496 0.49251 0.1092 0.0
H764 H 0.62927 0.41102 0.04276 0.0
H765 H 0.63249 0.44802 0.10337 0.0
H766 H 0.61929 0.49966 0.97186 0.0
H767 H 0.61689 0.46297 0.91105 0.0
C768 C 0.60515 0.53689 0.11668 0.0
C769 C 0.62685 0.54268 0.14791 0.0
C770 C 0.6051 0.51565 0.08233 0.0
C771 C 0.62651 0.49923 0.07926 0.0
C772 C 0.64814 0.50476 0.11099 0.0
C773 C 0.64845 0.52649 0.14443 0.0
C774 C 0.62727 0.43028 0.02671 0.0
C775 C 0.62289 0.43399 0.97192 0.0
C776 C 0.62922 0.45144 0.0614 0.0
C777 C 0.62615 0.47673 0.04233 0.0
C778 C 0.62172 0.48041 0.98768 0.0
C779 C 0.62043 0.45936 0.95286 0.0
H780 H 0.41075 0.37942 1.00848 0.0
H781 H 0.462 0.39197 0.14108 0.0
H782 H 0.44807 0.37592 0.94865 0.0
H783 H 0.49901 0.38919 0.08108 0.0
H784 H 0.5476 0.42165 0.93281 0.0
H785 H 0.51024 0.42118 0.99203 0.0
H786 H 0.49394 0.34283 0.9467 0.0
H787 H 0.53218 0.34293 0.88838 0.0
C788 C 0.42991 0.38143 1.02488 0.0
C789 C 0.43333 0.386 0.07966 0.0
C790 C 0.45125 0.37926 0.99067 0.0
C791 C 0.47643 0.38223 1.01027 0.0
C792 C 0.47984 0.38677 0.06491 0.0
C793 C 0.45861 0.38831 0.09925 0.0
C794 C 0.5361 0.40427 0.93538 0.0
C795 C 0.54282 0.38233 0.90575 0.0
C796 C 0.51474 0.40402 0.96943 0.0
C797 C 0.49912 0.38203 0.9738 0.0
C798 C 0.50559 0.36009 0.94384 0.0
C799 C 0.52747 0.36011 0.91067 0.0
H800 H 0.90873 0.41301 0.76286 0.0
H801 H 0.85786 0.4501 0.87488 0.0
H802 H 0.90555 0.45018 0.70385 0.0
H803 H 0.85467 0.48736 0.81547 0.0
H804 H 0.83866 0.54043 0.66827 0.0
H805 H 0.83845 0.50172 0.72465 0.0
H806 H 0.92079 0.49555 0.70654 0.0
H807 H 0.92104 0.53421 0.65159 0.0
C808 C 0.89666 0.42896 0.77481 0.0
C809 C 0.88364 0.42847 0.82396 0.0
C810 C 0.89496 0.4504 0.74099 0.0
C811 C 0.87995 0.4719 0.7549 0.0
C812 C 0.86628 0.47111 0.80326 0.0
C813 C 0.86824 0.44976 0.8375 0.0
C814 C 0.85669 0.53085 0.67662 0.0
C815 C 0.87988 0.54059 0.65573 0.0
C816 C 0.85659 0.50867 0.70893 0.0
C817 C 0.87961 0.49542 0.72017 0.0
C818 C 0.90266 0.505 0.69835 0.0
C819 C 0.9028 0.52728 0.66688 0.0
H820 H 0.54583 0.08738 0.3718 0.0
H821 H 0.53139 0.16656 0.41374 0.0
H822 H 0.50844 0.08772 0.3127 0.0
H823 H 0.49314 0.16652 0.35553 0.0
H824 H 0.40945 0.1264 0.29575 0.0
H825 H 0.44668 0.13018 0.35571 0.0
H826 H 0.49798 0.12263 0.22191 0.0
H827 H 0.46106 0.11966 0.16176 0.0
C828 C 0.53453 0.10482 0.36874 0.0
C829 C 0.54154 0.12693 0.39763 0.0
C830 C 0.51316 0.10499 0.33479 0.0
C831 C 0.49783 0.12707 0.32976 0.0
C832 C 0.50458 0.14919 0.35894 0.0
C833 C 0.52645 0.14923 0.39206 0.0
C834 C 0.42867 0.12578 0.27904 0.0
C835 C 0.43221 0.12277 0.22382 0.0
C836 C 0.44994 0.12807 0.31337 0.0
C837 C 0.47518 0.12681 0.29336 0.0
C838 C 0.47873 0.12379 0.23832 0.0
C839 C 0.45755 0.12211 0.20393 0.0
H840 H 0.1475 0.55582 0.87314 0.0
H841 H 0.09692 0.59416 0.76238 0.0
H842 H 0.15052 0.51904 0.81262 0.0
H843 H 0.09979 0.55733 0.7023 0.0
H844 H 0.08529 0.47283 0.64776 0.0
H845 H 0.08484 0.5112 0.70368 0.0
H846 H 0.16734 0.5067 0.72035 0.0
H847 H 0.16786 0.46852 0.66284 0.0
C848 C 0.13709 0.55649 0.83586 0.0
C849 C 0.1219 0.57802 0.82287 0.0
C850 C 0.13895 0.53543 0.80099 0.0
C851 C 0.12536 0.53514 0.75256 0.0
C852 C 0.11035 0.55677 0.73942 0.0
C853 C 0.1088 0.57797 0.77385 0.0
C854 C 0.10341 0.48011 0.6629 0.0
C855 C 0.1266 0.46739 0.65116 0.0
C856 C 0.10314 0.50219 0.69494 0.0
C857 C 0.12603 0.51206 0.71679 0.0
C858 C 0.14932 0.49948 0.70469 0.0
C859 C 0.14962 0.4776 0.67173 0.0
H860 H 0.55594 0.85822 0.17725 0.0
H861 H 0.59238 0.91114 0.28602 0.0
H862 H 0.51875 0.85519 0.23679 0.0
H863 H 0.55542 0.90797 0.34552 0.0
H864 H 0.47158 0.92191 0.39925 0.0
H865 H 0.51005 0.92207 0.34379 0.0
H866 H 0.50475 0.83953 0.32747 0.0
H867 H 0.46622 0.83937 0.38418 0.0
C868 C 0.55615 0.86907 0.21401 0.0
C869 C 0.57731 0.88489 0.22677 0.0
C870 C 0.53486 0.86719 0.24834 0.0
C871 C 0.53398 0.88136 0.29601 0.0
C872 C 0.55528 0.89694 0.30898 0.0
C873 C 0.57665 0.89859 0.27499 0.0
C874 C 0.47867 0.90373 0.38422 0.0
C875 C 0.46566 0.88063 0.39593 0.0
C876 C 0.50084 0.90382 0.35248 0.0
C877 C 0.5106 0.88083 0.33102 0.0
C878 C 0.49765 0.85764 0.34287 0.0
C879 C 0.47557 0.85752 0.37537 0.0
H880 H 0.84423 0.97689 0.66591 0.0
H881 H 0.92129 0.95815 0.61541 0.0
H882 H 0.84471 0.01492 0.60724 0.0
H883 H 0.92141 0.99547 0.55577 0.0
H884 H 0.89406 0.04535 0.40977 0.0
H885 H 0.89193 0.00837 0.47002 0.0
H886 H 0.87538 0.05908 0.60126 0.0
H887 H 0.87815 0.09635 0.54114 0.0
C888 C 0.86121 0.98088 0.64223 0.0
C889 C 0.88277 0.96464 0.64546 0.0
C890 C 0.86151 1.00264 0.60884 0.0
C891 C 0.88312 0.00817 0.57697 0.0
C892 C 0.90449 0.99169 0.57977 0.0
C893 C 0.90445 0.97039 0.61408 0.0
C894 C 0.88986 0.04868 0.45141 0.0
C895 C 0.88634 0.07388 0.47058 0.0
C896 C 0.88874 0.02748 0.48593 0.0
C897 C 0.88347 0.03082 0.54033 0.0
C898 C 0.87936 0.05592 0.55947 0.0
C899 C 0.88109 0.07725 0.5251 0.0
H900 H 0.09282 0.09602 0.51622 0.0
H901 H 0.05614 0.14915 0.62397 0.0
H902 H 0.05618 0.09912 0.45605 0.0
H903 H 0.01923 0.15211 0.5637 0.0
H904 H 0.96742 0.16753 0.41481 0.0
H905 H 0.00563 0.16757 0.47242 0.0
H906 H 0.01081 0.085 0.45706 0.0
H907 H 0.9727 0.08495 0.40076 0.0
C908 C 0.0771 0.1086 0.5269 0.0
C909 C 0.07761 0.12238 0.57504 0.0
C910 C 0.05591 0.11021 0.4925 0.0
C911 C 0.03462 0.12582 0.50494 0.0
C912 C 0.03534 0.14007 0.55255 0.0
C913 C 0.05646 0.13823 0.5873 0.0
C914 C 0.97669 0.14942 0.424 0.0
C915 C 0.96683 0.12623 0.40347 0.0
C916 C 0.99858 0.14942 0.45704 0.0
C917 C 0.01141 0.12627 0.46945 0.0
C918 C 1.0017 0.10322 0.448 0.0
C919 C 0.97973 0.1032 0.41574 0.0
H920 H 0.11374 0.96164 0.41064 0.0
H921 H 0.12752 0.91007 0.54237 0.0
H922 H 0.11662 0.99848 0.47084 0.0
H923 H 0.1312 0.94725 0.60243 0.0
H924 H 0.16416 0.02943 0.66642 0.0
H925 H 0.16321 0.99127 0.60819 0.0
H926 H 0.0868 0.01161 0.55661 0.0
H927 H 0.08735 0.04897 0.61576 0.0
C928 C 0.11766 0.95814 0.45234 0.0
C929 C 0.12038 0.93282 0.47157 0.0
C930 C 0.11924 0.97928 0.48683 0.0
C931 C 0.12422 0.97578 0.54132 0.0
C932 C 0.12751 0.95055 0.56056 0.0
C933 C 0.12528 0.92927 0.5262 0.0
C934 C 0.14715 0.02561 0.64283 0.0
C935 C 0.12577 0.0421 0.64598 0.0
C936 C 0.14657 1.00376 0.60968 0.0
C937 C 0.1249 0.99843 0.57791 0.0
C938 C 0.10375 0.0152 0.58057 0.0
C939 C 0.10406 0.03654 0.61462 0.0
H940 H 0.03923 0.8389 0.41543 0.0
H941 H 0.03268 0.92136 0.40038 0.0
H942 H 1.00093 0.83834 0.47295 0.0
H943 H 0.99437 0.92075 0.45632 0.0
H944 H 0.91212 0.90795 0.5136 0.0
H945 H 0.949 0.90506 0.45389 0.0
H946 H 0.98714 0.85448 0.56479 0.0
H947 H 0.95015 0.85739 0.62501 0.0
C948 C 0.02966 0.85687 0.42437 0.0
C949 C 0.03921 0.88019 0.40366 0.0
C950 C 0.00772 0.85657 0.45732 0.0
C951 C 0.99448 0.87951 0.4693 0.0
C952 C 1.00384 0.90268 0.44759 0.0
C953 C 0.0259 0.90303 0.41555 0.0
C954 C 0.92822 0.896 0.52527 0.0
C955 C 0.92807 0.88298 0.57445 0.0
C956 C 0.94949 0.89447 0.49103 0.0
C957 C 0.97117 0.87964 0.50453 0.0
C958 C 0.97074 0.86595 0.55293 0.0
C959 C 0.94955 0.86775 0.58761 0.0
H960 H 0.31487 0.18872 0.17032 0.0
H961 H 0.39136 0.1901 0.10343 0.0
H962 H 0.31718 0.23425 0.18718 0.0
H963 H 0.39313 0.23698 0.11693 0.0
H964 H 0.39464 0.31985 0.18702 0.0
H965 H 0.396 0.27285 0.17575 0.0
H966 H 0.3141 0.27271 0.14537 0.0
H967 H 0.31265 0.31845 0.16003 0.0
C968 C 0.33211 0.19889 0.1581 0.0
C969 C 0.35282 0.18569 0.13483 0.0
C970 C 0.33339 0.22531 0.16752 0.0
C971 C 0.35513 0.23983 0.15253 0.0
C972 C 0.37607 0.22661 0.1294 0.0
C973 C 0.375 0.19977 0.12106 0.0
C974 C 0.37694 0.30953 0.17886 0.0
C975 C 0.35351 0.32293 0.17501 0.0
C976 C 0.37773 0.28261 0.17172 0.0
C977 C 0.35512 0.26858 0.16003 0.0
C978 C 0.33187 0.28232 0.15589 0.0
C979 C 0.33104 0.30886 0.16396 0.0
H980 H 0.31944 0.61804 0.86395 0.0
H981 H 0.31832 0.69866 0.90501 0.0
H982 H 0.27233 0.61648 0.87247 0.0
H983 H 0.27234 0.69688 0.91688 0.0
H984 H 0.18863 0.69726 0.88427 0.0
H985 H 0.23457 0.69569 0.87159 0.0
H986 H 0.23566 0.61724 0.92934 0.0
H987 H 0.18858 0.61845 0.93872 0.0
C988 C 0.30916 0.63538 0.87475 0.0
C989 C 0.32265 0.65853 0.88313 0.0
C990 C 0.28217 0.63447 0.88026 0.0
C991 C 0.26814 0.65663 0.8949 0.0
C992 C 0.28198 0.67954 0.90392 0.0
C993 C 0.30863 0.68055 0.89745 0.0
C994 C 0.19855 0.67962 0.89453 0.0
C995 C 0.18486 0.65804 0.91298 0.0
C996 C 0.22517 0.67875 0.88758 0.0
C997 C 0.23931 0.65647 0.90023 0.0
C998 C 0.22559 0.63472 0.91873 0.0
C999 C 0.19862 0.63545 0.9247 0.0
H1000 H 0.61726 0.81939 0.11286 0.0
H1001 H 0.69798 0.81939 0.15293 0.0
H1002 H 0.61625 0.77232 0.12238 0.0
H1003 H 0.69676 0.77341 0.16581 0.0
H1004 H 0.69767 0.68924 0.13655 0.0
H1005 H 0.69587 0.73513 0.12275 0.0
H1006 H 0.61733 0.73608 0.1797 0.0
H1007 H 0.61878 0.68907 0.19016 0.0
C1008 C 0.63475 0.80936 0.12364 0.0
C1009 C 0.65775 0.82317 0.13152 0.0
C1010 C 0.63415 0.78238 0.12975 0.0
C1011 C 0.65648 0.76865 0.14452 0.0
C1012 C 0.67928 0.7828 0.15285 0.0
C1013 C 0.67997 0.80945 0.1458 0.0
C1014 C 0.67997 0.69913 0.14643 0.0
C1015 C 0.65842 0.6854 0.16492 0.0
C1016 C 0.67897 0.72573 0.13882 0.0
C1017 C 0.65657 0.73982 0.1508 0.0
C1018 C 0.63489 0.72606 0.1695 0.0
C1019 C 0.63576 0.69912 0.17612 0.0
H1020 H 0.82346 0.39559 0.89759 0.0
H1021 H 0.8173 0.31338 0.91588 0.0
H1022 H 0.77651 0.39856 0.88872 0.0
H1023 H 0.77073 0.31615 0.9107 0.0
H1024 H 0.69336 0.32003 0.83639 0.0
H1025 H 0.73982 0.32122 0.84661 0.0
H1026 H 0.73414 0.39579 0.92199 0.0
H1027 H 0.68745 0.39501 0.90854 0.0
C1028 C 0.81193 0.37831 0.90175 0.0
C1029 C 0.82391 0.35427 0.90782 0.0
C1030 C 0.78499 0.37991 0.89638 0.0
C1031 C 0.76952 0.35751 0.89756 0.0
C1032 C 0.78175 0.33378 0.90741 0.0
C1033 C 0.80852 0.33217 0.91149 0.0
C1034 C 0.70211 0.33685 0.85436 0.0
C1035 C 0.68676 0.35738 0.87159 0.0
C1036 C 0.72882 0.33744 0.8611 0.0
C1037 C 0.74105 0.35831 0.88664 0.0
C1038 C 0.72566 0.37937 0.90211 0.0
C1039 C 0.69884 0.37897 0.89437 0.0
H1040 H 0.81843 0.69302 0.58889 0.0
H1041 H 0.89341 0.68639 0.66081 0.0
H1042 H 0.82001 0.73948 0.59945 0.0
H1043 H 0.8946 0.73307 0.67443 0.0
H1044 H 0.89501 0.82248 0.64948 0.0
H1045 H 0.89763 0.77549 0.64067 0.0
H1046 H 0.81533 0.77022 0.66436 0.0
H1047 H 0.81289 0.81683 0.6696 0.0
C1048 C 0.83533 0.7016 0.60688 0.0
C1049 C 0.85573 0.68605 0.62402 0.0
C1050 C 0.83614 0.72831 0.61378 0.0
C1051 C 0.85714 0.74032 0.6393 0.0
C1052 C 0.87809 0.72474 0.65461 0.0
C1053 C 0.87744 0.69793 0.64677 0.0
C1054 C 0.87768 0.81106 0.65408 0.0
C1055 C 0.85376 0.82319 0.66063 0.0
C1056 C 0.87909 0.7841 0.64873 0.0
C1057 C 0.85659 0.76878 0.65036 0.0
C1058 C 0.83301 0.78114 0.66074 0.0
C1059 C 0.83159 0.80792 0.66485 0.0
H1060 H 0.82128 0.11126 0.39967 0.0
H1061 H 0.8143 0.18952 0.34422 0.0
H1062 H 0.77489 0.10987 0.41701 0.0
H1063 H 0.76808 0.18798 0.35936 0.0
H1064 H 0.69342 0.19141 0.44733 0.0
H1065 H 0.73954 0.18914 0.43154 0.0
H1066 H 0.73166 0.1096 0.38392 0.0
H1067 H 0.68537 0.11179 0.40188 0.0
C1068 C 0.80973 0.12795 0.38998 0.0
C1069 C 0.82147 0.15057 0.37083 0.0
C1070 C 0.78309 0.1272 0.4 0.0
C1071 C 0.76758 0.14901 0.39076 0.0
C1072 C 0.77933 0.17106 0.36874 0.0
C1073 C 0.80586 0.17187 0.35932 0.0
C1074 C 0.70159 0.17333 0.43422 0.0
C1075 C 0.68571 0.15184 0.42576 0.0
C1076 C 0.72807 0.17207 0.42444 0.0
C1077 C 0.7395 0.14934 0.40512 0.0
C1078 C 0.72371 0.12744 0.39879 0.0
C1079 C 0.69713 0.12866 0.40916 0.0
H1080 H 0.19651 0.31876 0.65155 0.0
H1081 H 0.11582 0.31868 0.61116 0.0
H1082 H 0.19518 0.27298 0.66599 0.0
H1083 H 0.11473 0.27164 0.62212 0.0
H1084 H 0.11741 0.18859 0.69189 0.0
H1085 H 0.11577 0.23553 0.67997 0.0
H1086 H 0.19451 0.23453 0.6242 0.0
H1087 H 0.19651 0.18879 0.63959 0.0
C1088 C 0.17846 0.30884 0.64464 0.0
C1089 C 0.15629 0.32252 0.62981 0.0
C1090 C 0.17773 0.28226 0.65258 0.0
C1091 C 0.15495 0.26807 0.64451 0.0
C1092 C 0.13264 0.28173 0.62924 0.0
C1093 C 0.13328 0.30869 0.62231 0.0
C1094 C 0.1344 0.19864 0.67786 0.0
C1095 C 0.15719 0.18494 0.6675 0.0
C1096 C 0.13342 0.22553 0.67038 0.0
C1097 C 0.1551 0.23927 0.65159 0.0
C1098 C 0.1776 0.22518 0.64039 0.0
C1099 C 0.17872 0.19865 0.64892 0.0
H1100 H 0.32087 0.89518 0.39983 0.0
H1101 H 0.3128 0.81581 0.44775 0.0
H1102 H 0.27454 0.89735 0.38246 0.0
H1103 H 0.26663 0.81809 0.43247 0.0
H1104 H 0.19192 0.81741 0.34499 0.0
H1105 H 0.23813 0.81897 0.36002 0.0
H1106 H 0.23134 0.89724 0.41632 0.0
H1107 H 0.18493 0.89581 0.39919 0.0
C1108 C 0.3091 0.87836 0.40777 0.0
C1109 C 0.32052 0.85525 0.42486 0.0
C1110 C 0.2825 0.87958 0.39775 0.0
C1111 C 0.2667 0.85774 0.40491 0.0
C1112 C 0.27812 0.8351 0.42476 0.0
C1113 C 0.30462 0.83384 0.43424 0.0
C1114 C 0.20036 0.83509 0.35977 0.0
C1115 C 0.18475 0.85643 0.37098 0.0
C1116 C 0.22688 0.83592 0.36913 0.0
C1117 C 0.23862 0.85803 0.39072 0.0
C1118 C 0.22312 0.87987 0.39966 0.0
C1119 C 0.19648 0.8791 0.38974 0.0
H1120 H 0.23661 0.08746 0.74497 0.0
H1121 H 0.18091 0.11375 0.86006 0.0
H1122 H 0.26911 0.08514 0.81553 0.0
H1123 H 0.21313 0.11206 0.92953 0.0
H1124 H 0.27153 0.08951 0.05742 0.0
H1125 H 0.23887 0.087 0.98711 0.0
H1126 H 0.29565 0.11033 0.87104 0.0
H1127 H 0.32794 0.11212 0.94022 0.0
C1128 C 0.23122 0.09275 0.78511 0.0
C1129 C 0.20594 0.10088 0.79612 0.0
C1130 C 0.24996 0.09157 0.82586 0.0
C1131 C 0.24406 0.09843 0.87904 0.0
C1132 C 0.21865 0.1062 0.88982 0.0
C1133 C 0.20005 0.1074 0.84933 0.0
C1134 C 0.27705 0.09395 1.01688 0.0
C1135 C 0.30257 0.10116 1.0052 0.0
C1136 C 0.25823 0.09268 0.97628 0.0
C1137 C 0.2643 0.09849 0.92259 0.0
C1138 C 0.28995 0.1053 0.91118 0.0
C1139 C 0.30861 0.10659 0.9515 0.0
H1140 H 0.08425 0.7364 0.99338 0.0
H1141 H 0.11743 0.68291 0.10537 0.0
H1142 H 0.08166 0.76884 0.0641 0.0
H1143 H 0.11523 0.71495 0.1749 0.0
H1144 H 0.09195 0.77137 0.30531 0.0
H1145 H 0.08971 0.73875 0.23497 0.0
H1146 H 0.10641 0.79709 0.11729 0.0
H1147 H 0.10788 0.82935 0.18666 0.0
C1148 C 0.09097 0.73147 0.03285 0.0
C1149 C 0.10101 0.7068 0.04299 0.0
C1150 C 0.08962 0.75017 0.07367 0.0
C1151 C 0.09819 0.74479 0.12604 0.0
C1152 C 0.10797 0.72001 0.13591 0.0
C1153 C 0.10939 0.70149 0.09536 0.0
C1154 C 0.09498 0.77724 0.26443 0.0
C1155 C 0.10027 0.80319 0.25234 0.0
C1156 C 0.09387 0.75845 0.22379 0.0
C1157 C 0.09794 0.76498 0.16966 0.0
C1158 C 0.10278 0.79103 0.15784 0.0
C1159 C 0.1039 0.80968 0.19822 0.0
H1160 H 0.73546 0.92336 0.05566 0.0
H1161 H 0.68126 0.89143 0.94355 0.0
H1162 H 0.7678 0.92597 0.98471 0.0
H1163 H 0.71332 0.89331 0.8739 0.0
H1164 H 0.76975 0.91603 0.74329 0.0
H1165 H 0.7373 0.91833 0.81391 0.0
H1166 H 0.79573 0.9017 0.93106 0.0
H1167 H 0.82787 0.90031 0.86148 0.0
C1168 C 0.73038 0.91686 1.01612 0.0
C1169 C 0.70556 0.90715 1.006 0.0
C1170 C 0.74902 0.9182 0.97517 0.0
C1171 C 0.74346 0.90988 0.92275 0.0
C1172 C 0.71853 0.90039 0.91293 0.0
C1173 C 0.70003 0.89909 0.95356 0.0
C1174 C 0.77569 0.91304 0.78412 0.0
C1175 C 0.80164 0.90784 0.79597 0.0
C1176 C 0.75699 0.91418 0.82492 0.0
C1177 C 0.76358 0.91012 0.87898 0.0
C1178 C 0.78962 0.90533 0.89058 0.0
C1179 C 0.8082 0.90426 0.85004 0.0
H1180 H 0.89505 0.32621 0.10832 0.0
H1181 H 0.91922 0.27009 0.99218 0.0
H1182 H 0.89634 0.29388 0.17752 0.0
H1183 H 0.92099 0.23738 0.06248 0.0
H1184 H 0.8936 0.17902 0.18775 0.0
H1185 H 0.89558 0.21144 0.11867 0.0
H1186 H 0.92094 0.26748 0.23416 0.0
H1187 H 0.91821 0.23474 0.30437 0.0
C1188 C 0.90096 0.30699 0.09731 0.0
C1189 C 0.90707 0.30105 0.0439 0.0
C1190 C 0.90184 0.28828 0.13764 0.0
C1191 C 0.90883 0.26269 0.12649 0.0
C1192 C 0.91517 0.25669 0.07309 0.0
C1193 C 0.9143 0.27555 0.03249 0.0
C1194 C 0.89964 0.19821 0.1989 0.0
C1195 C 0.90561 0.20404 0.25238 0.0
C1196 C 0.90102 0.21693 0.15864 0.0
C1197 C 0.9085 0.24239 0.16994 0.0
C1198 C 0.91475 0.24827 0.22344 0.0
C1199 C 0.91333 0.2294 0.26398 0.0
H1200 H 0.27327 0.42153 0.24609 0.0
H1201 H 0.32777 0.3933 0.3616 0.0
H1202 H 0.2405 0.42419 0.31613 0.0
H1203 H 0.29529 0.39519 0.43046 0.0
H1204 H 0.2372 0.41767 0.55826 0.0
H1205 H 0.2701 0.42005 0.48838 0.0
H1206 H 0.21292 0.40002 0.37078 0.0
H1207 H 0.18039 0.39859 0.4396 0.0
C1208 C 0.27833 0.41585 0.2862 0.0
C1209 C 0.30338 0.40713 0.2975 0.0
C1210 C 0.25943 0.41722 0.32666 0.0
C1211 C 0.26492 0.40992 0.37981 0.0
C1212 C 0.29008 0.40146 0.39082 0.0
C1213 C 0.30884 0.40013 0.35066 0.0
C1214 C 0.23164 0.41396 0.51747 0.0
C1215 C 0.20594 0.40772 0.50526 0.0
C1216 C 0.25061 0.41513 0.47709 0.0
C1217 C 0.24451 0.41013 0.42311 0.0
C1218 C 0.21868 0.40437 0.41117 0.0
C1219 C 0.19987 0.40325 0.45127 0.0
H1220 H 0.40098 0.74047 0.80994 0.0
H1221 H 0.41638 0.68062 0.6958 0.0
H1222 H 0.4011 0.77232 0.73826 0.0
H1223 H 0.41807 0.71216 0.62477 0.0
H1224 H 0.39599 0.76996 0.49541 0.0
H1225 H 0.39704 0.73817 0.5671 0.0
H1226 H 0.42118 0.79745 0.67709 0.0
H1227 H 0.41875 0.82901 0.60607 0.0
C1228 C 0.40493 0.73415 0.76971 0.0
C1229 C 0.4086 0.70786 0.75904 0.0
C1230 C 0.40511 0.7525 0.72811 0.0
C1231 C 0.40945 0.74526 0.67444 0.0
C1232 C 0.41392 0.71892 0.66455 0.0
C1233 C 0.41325 0.70064 0.70583 0.0
C1234 C 0.40171 0.77609 0.53485 0.0
C1235 C 0.40713 0.80217 0.54466 0.0
C1236 C 0.40243 0.75777 0.57644 0.0
C1237 C 0.40909 0.7648 0.6292 0.0
C1238 C 0.41526 0.7909 0.63813 0.0
C1239 C 0.41409 0.80918 0.59688 0.0
H1240 H 0.68294 0.61884 0.35697 0.0
H1241 H 0.73646 0.58487 0.24617 0.0
H1242 H 0.7148 0.61671 0.4269 0.0
H1243 H 0.76877 0.58251 0.31727 0.0
H1244 H 0.82889 0.60971 0.44044 0.0
H1245 H 0.79684 0.60799 0.37056 0.0
H1246 H 0.7383 0.59062 0.48729 0.0
H1247 H 0.77069 0.59292 0.55812 0.0
C1248 C 0.70148 0.61063 0.34732 0.0
C1249 C 0.70684 0.60197 0.29519 0.0
C1250 C 0.71989 0.60928 0.38808 0.0
C1251 C 0.74463 0.59934 0.37862 0.0
C1252 C 0.7501 0.59056 0.32647 0.0
C1253 C 0.73149 0.5918 0.28546 0.0
C1254 C 0.80922 0.60547 0.45168 0.0
C1255 C 0.80259 0.60163 0.50566 0.0
C1256 C 0.79071 0.60424 0.41102 0.0
C1257 C 0.76468 0.59915 0.42246 0.0
C1258 C 0.75801 0.59493 0.47645 0.0
C1259 C 0.77666 0.5961 0.51735 0.0
H1260 H 0.58909 0.23581 0.496 0.0
H1261 H 0.61667 0.18138 0.61247 0.0
H1262 H 0.5873 0.26904 0.56523 0.0
H1263 H 0.61497 0.21417 0.68082 0.0
H1264 H 0.5905 0.27348 0.80607 0.0
H1265 H 0.58844 0.24029 0.73682 0.0
H1266 H 0.61392 0.29578 0.62005 0.0
H1267 H 0.61585 0.32857 0.68846 0.0
C1268 C 0.59471 0.23082 0.53618 0.0
C1269 C 0.60291 0.20563 0.54806 0.0
C1270 C 0.5938 0.24996 0.57612 0.0
C1271 C 0.6009 0.24453 0.62935 0.0
C1272 C 0.60887 0.21927 0.641 0.0
C1273 C 0.60995 0.20031 0.60123 0.0
C1274 C 0.59557 0.27863 0.76563 0.0
C1275 C 0.60324 0.30398 0.75345 0.0
C1276 C 0.59451 0.2595 0.72567 0.0
C1277 C 0.60095 0.26511 0.67212 0.0
C1278 C 0.60836 0.29054 0.66016 0.0
C1279 C 0.60958 0.30949 0.69994 0.0
H1280 H 0.31971 0.1329 0.49765 0.0
H1281 H 0.38298 0.07996 0.47856 0.0
H1282 H 0.32988 0.13706 0.59215 0.0
H1283 H 0.39274 0.08362 0.5732 0.0
H1284 H 0.41999 0.11854 0.73109 0.0
H1285 H 0.40967 0.11491 0.6369 0.0
H1286 H 0.32872 0.11198 0.67519 0.0
H1287 H 0.33901 0.11524 0.76967 0.0
C1288 C 0.33584 0.1222 0.51354 0.0
C1289 C 0.35053 0.10611 0.48034 0.0
C1290 C 0.3415 0.12437 0.56789 0.0
C1291 C 0.36214 0.11067 0.59044 0.0
C1292 C 0.37687 0.09465 0.55718 0.0
C1293 C 0.3711 0.09234 0.50295 0.0
C1294 C 0.39998 0.11684 0.71966 0.0
C1295 C 0.38038 0.1171 0.75839 0.0
C1296 C 0.39406 0.1148 0.66547 0.0
C1297 C 0.36836 0.11309 0.6483 0.0
C1298 C 0.34871 0.11359 0.68687 0.0
C1299 C 0.35464 0.1155 0.74116 0.0
H1300 H 0.07416 0.68525 0.54164 0.0
H1301 H 0.13434 0.63066 0.57718 0.0
H1302 H 0.07793 0.67509 0.44736 0.0
H1303 H 0.13893 0.6214 0.48268 0.0
H1304 H 0.1216 0.59031 0.31621 0.0
H1305 H 0.11752 0.60037 0.41042 0.0
H1306 H 0.10551 0.68045 0.37143 0.0
H1307 H 0.10955 0.67035 0.27705 0.0
C1308 C 0.0882 0.67105 0.52949 0.0
C1309 C 0.10388 0.65877 0.56747 0.0
C1310 C 0.0906 0.66546 0.47513 0.0
C1311 C 0.10877 0.64741 0.457 0.0
C1312 C 0.1245 0.63518 0.49496 0.0
C1313 C 0.12209 0.64076 0.54931 0.0
C1314 C 0.11834 0.61012 0.32762 0.0
C1315 C 0.11598 0.62948 0.28867 0.0
C1316 C 0.116 0.61592 0.38186 0.0
C1317 C 0.11122 0.64127 0.39893 0.0
C1318 C 0.10879 0.66064 0.35998 0.0
C1319 C 0.11112 0.65483 0.30568 0.0
H1320 H 0.63089 0.93693 0.48291 0.0
H1321 H 0.68408 0.87346 0.49606 0.0
H1322 H 0.62045 0.93266 0.57695 0.0
H1323 H 0.67472 0.87013 0.59067 0.0
H1324 H 0.63303 0.85329 0.74731 0.0
H1325 H 0.64298 0.85704 0.65279 0.0
H1326 H 0.63668 0.93978 0.66384 0.0
H1327 H 0.62629 0.93591 0.75811 0.0
C1328 C 0.64038 0.92203 0.50571 0.0
C1329 C 0.65835 0.90554 0.48138 0.0
C1330 C 0.63464 0.9198 0.56008 0.0
C1331 C 0.64675 0.90108 0.59195 0.0
C1332 C 0.66472 0.8846 0.56761 0.0
C1333 C 0.67039 0.88676 0.51322 0.0
C1334 C 0.63396 0.8723 0.72966 0.0
C1335 C 0.62879 0.89428 0.7605 0.0
C1336 C 0.63972 0.87448 0.6753 0.0
C1337 C 0.64066 0.89874 0.65016 0.0
C1338 C 0.63568 0.92073 0.68123 0.0
C1339 C 0.62976 0.91852 0.73551 0.0
H1340 H 0.88251 0.41263 0.32162 0.0
H1341 H 0.90303 0.33495 0.27798 0.0
H1342 H 0.88723 0.40157 0.41525 0.0
H1343 H 0.90779 0.32388 0.3718 0.0
H1344 H 0.94035 0.32082 0.54174 0.0
H1345 H 0.93487 0.33125 0.44788 0.0
H1346 H 0.86832 0.37725 0.48645 0.0
H1347 H 0.87449 0.36779 0.58051 0.0
C1348 C 0.88774 0.39308 0.3319 0.0
C1349 C 0.89235 0.37473 0.29185 0.0
C1350 C 0.89047 0.38671 0.38583 0.0
C1351 C 0.8979 0.36178 0.40148 0.0
C1352 C 0.90243 0.34338 0.36145 0.0
C1353 C 0.89969 0.34976 0.30747 0.0
C1354 C 0.92466 0.33335 0.53038 0.0
C1355 C 0.90794 0.34348 0.56917 0.0
C1356 C 0.92131 0.33908 0.47627 0.0
C1357 C 0.90114 0.35515 0.4592 0.0
C1358 C 0.88427 0.36509 0.49792 0.0
C1359 C 0.88762 0.35935 0.55202 0.0
H1360 H 0.38566 0.43468 0.5492 0.0
H1361 H 0.3729 0.35258 0.55431 0.0
H1362 H 0.37518 0.43765 0.6435 0.0
H1363 H 0.36275 0.35543 0.64891 0.0
H1364 H 0.3222 0.37291 0.80625 0.0
H1365 H 0.33148 0.37027 0.7114 0.0
H1366 H 0.39143 0.42733 0.7295 0.0
H1367 H 0.38127 0.43091 0.82373 0.0
C1368 C 0.38083 0.4172 0.57056 0.0
C1369 C 0.3802 0.39338 0.54406 0.0
C1370 C 0.37485 0.41889 0.6248 0.0
C1371 C 0.36819 0.39678 0.65423 0.0
C1372 C 0.3674 0.37296 0.62757 0.0
C1373 C 0.37326 0.37129 0.57323 0.0
C1374 C 0.33717 0.38513 0.78996 0.0
C1375 C 0.35091 0.40218 0.82298 0.0
C1376 C 0.34274 0.38337 0.73551 0.0
C1377 C 0.36224 0.39857 0.71243 0.0
C1378 C 0.37605 0.41554 0.7455 0.0
C1379 C 0.37044 0.41734 0.7999 0.0
H1380 H 0.40107 0.699 0.26117 0.0
H1381 H 0.40917 0.61813 0.22504 0.0
H1382 H 0.39702 0.68873 0.35513 0.0
H1383 H 0.40684 0.60801 0.31942 0.0
H1384 H 0.37503 0.59488 0.48597 0.0
H1385 H 0.37842 0.60538 0.392 0.0
H1386 H 0.41941 0.67525 0.4314 0.0
H1387 H 0.41451 0.66557 0.52559 0.0
C1388 C 0.40201 0.67899 0.2731 0.0
C1389 C 0.40532 0.65944 0.23494 0.0
C1390 C 0.40008 0.67311 0.32739 0.0
C1391 C 0.40161 0.64748 0.34544 0.0
C1392 C 0.40519 0.62794 0.30733 0.0
C1393 C 0.40693 0.63381 0.25297 0.0
C1394 C 0.38446 0.61269 0.4748 0.0
C1395 C 0.39439 0.62937 0.5139 0.0
C1396 C 0.38677 0.61855 0.42056 0.0
C1397 C 0.39928 0.64118 0.40354 0.0
C1398 C 0.40935 0.6578 0.44263 0.0
C1399 C 0.40687 0.65203 0.49692 0.0
H1400 H 0.62682 0.63056 0.8299 0.0
H1401 H 0.6874 0.5766 0.79319 0.0
H1402 H 0.61761 0.63522 0.73546 0.0
H1403 H 0.67726 0.58023 0.69892 0.0
H1404 H 0.67017 0.61236 0.52957 0.0
H1405 H 0.68016 0.6083 0.62401 0.0
H1406 H 0.5992 0.61342 0.66157 0.0
H1407 H 0.5893 0.6177 0.56731 0.0
C1408 C 0.63824 0.61968 0.80181 0.0
C1409 C 0.65793 0.60322 0.81968 0.0
C1410 C 0.63269 0.62209 0.74742 0.0
C1411 C 0.6466 0.60807 0.70908 0.0
C1412 C 0.66629 0.5916 0.72693 0.0
C1413 C 0.67188 0.58923 0.78133 0.0
C1414 C 0.65447 0.61244 0.55792 0.0
C1415 C 0.6289 0.61545 0.54052 0.0
C1416 C 0.6602 0.61007 0.61227 0.0
C1417 C 0.64053 0.61056 0.6509 0.0
C1418 C 0.61496 0.61344 0.63338 0.0
C1419 C 0.60925 0.61589 0.57909 0.0
H1420 H 0.61533 0.42262 0.47962 0.0
H1421 H 0.61517 0.34156 0.51774 0.0
H1422 H 0.61242 0.41236 0.3853 0.0
H1423 H 0.61258 0.33122 0.42327 0.0
H1424 H 0.58225 0.32164 0.25391 0.0
H1425 H 0.58476 0.33208 0.34812 0.0
H1426 H 0.63582 0.39548 0.31205 0.0
H1427 H 0.63216 0.38593 0.21758 0.0
C1428 C 0.61496 0.40258 0.46788 0.0
C1429 C 0.61552 0.38295 0.5065 0.0
C1430 C 0.61332 0.39666 0.4136 0.0
C1431 C 0.6123 0.37092 0.39623 0.0
C1432 C 0.61289 0.35128 0.43492 0.0
C1433 C 0.61443 0.35721 0.48926 0.0
C1434 C 0.59376 0.33803 0.26586 0.0
C1435 C 0.60692 0.35295 0.22766 0.0
C1436 C 0.5955 0.34382 0.32021 0.0
C1437 C 0.61054 0.36464 0.33814 0.0
C1438 C 0.62378 0.37949 0.29996 0.0
C1439 C 0.62196 0.37377 0.2456 0.0
H1440 H 0.82297 0.63794 0.99827 0.0
H1441 H 0.8762 0.57475 0.9809 0.0
H1442 H 0.83266 0.64001 0.09286 0.0
H1443 H 0.88696 0.57776 0.07492 0.0
H1444 H 0.88184 0.57218 0.25599 0.0
H1445 H 0.87107 0.56949 0.16176 0.0
H1446 H 0.86468 0.65235 0.15486 0.0
H1447 H 0.875 0.6549 0.24931 0.0
C1448 C 0.83674 0.62443 1.0145 0.0
C1449 C 0.8487 0.60611 0.98149 0.0
C1450 C 0.84259 0.62586 0.06887 0.0
C1451 C 0.86068 0.6091 0.09202 0.0
C1452 C 0.87269 0.59082 0.05898 0.0
C1453 C 0.86677 0.58932 1.00464 0.0
C1454 C 0.87827 0.58984 0.23429 0.0
C1455 C 0.87931 0.61376 0.26042 0.0
C1456 C 0.87213 0.58832 0.18006 0.0
C1457 C 0.867 0.6107 0.15018 0.0
C1458 C 0.86804 0.63462 0.17645 0.0
C1459 C 0.87402 0.63612 0.23077 0.0
H1460 H 0.61635 0.16789 0.78447 0.0
H1461 H 0.6127 0.08684 0.82194 0.0
H1462 H 0.6137 0.17818 0.87895 0.0
H1463 H 0.60965 0.09705 0.91627 0.0
H1464 H 0.62919 0.12225 0.08476 0.0
H1465 H 0.63312 0.11274 0.99033 0.0
H1466 H 0.58555 0.17846 0.95337 0.0
H1467 H 0.58287 0.18884 0.04755 0.0
C1468 C 0.61475 0.15225 0.81283 0.0
C1469 C 0.6148 0.12652 0.79542 0.0
C1470 C 0.61318 0.15815 0.86716 0.0
C1471 C 0.61146 0.13848 0.90569 0.0
C1472 C 0.61144 0.11275 0.88813 0.0
C1473 C 0.61315 0.10686 0.83385 0.0
C1474 C 0.61984 0.13492 0.05656 0.0
C1475 C 0.60571 0.15638 0.07425 0.0
C1476 C 0.6218 0.12923 1.0022 0.0
C1477 C 0.6096 0.14474 0.96378 0.0
C1478 C 0.59549 0.1662 0.98147 0.0
C1479 C 0.59363 0.17196 0.0358 0.0
H1480 H 0.08869 0.38386 0.231 0.0
H1481 H 0.16818 0.39876 0.2707 0.0
H1482 H 0.09907 0.38735 0.13673 0.0
H1483 H 0.17858 0.40224 0.17628 0.0
H1484 H 0.19253 0.38139 1.00119 0.0
H1485 H 0.18225 0.37719 0.09551 0.0
H1486 H 0.1113 0.41858 0.07021 0.0
H1487 H 0.12111 0.42191 0.9756 0.0
C1488 C 0.10836 0.3881 0.2197 0.0
C1489 C 0.12755 0.39108 0.25871 0.0
C1490 C 0.11433 0.39011 0.1655 0.0
C1491 C 0.13967 0.39516 0.14865 0.0
C1492 C 0.15892 0.39798 0.18762 0.0
C1493 C 0.15295 0.39597 0.24189 0.0
C1494 C 0.1746 0.38937 1.0156 0.0
C1495 C 0.15765 0.40195 0.98054 0.0
C1496 C 0.16884 0.38723 0.06992 0.0
C1497 C 0.14593 0.39755 0.09073 0.0
C1498 C 0.12898 0.41013 0.05565 0.0
C1499 C 0.13477 0.41232 1.00137 0.0
H1500 H 0.35975 0.84661 0.06465 0.0
H1501 H 0.44183 0.85931 0.06117 0.0
H1502 H 0.35715 0.85721 0.97037 0.0
H1503 H 0.43942 0.8694 0.96646 0.0
H1504 H 0.42317 0.90967 0.80838 0.0
H1505 H 0.42553 0.90022 0.90313 0.0
H1506 H 0.3671 0.84164 0.88456 0.0
H1507 H 0.36364 0.85215 0.79058 0.0
C1508 C 0.37731 0.85144 0.04361 0.0
C1509 C 0.401 0.85204 0.07059 0.0
C1510 C 0.37585 0.85746 0.98934 0.0
C1511 C 0.39809 0.86409 0.96026 0.0
C1512 C 0.42179 0.8648 0.98742 0.0
C1513 C 0.42321 0.85895 0.04184 0.0
C1514 C 0.41055 0.895 0.82452 0.0
C1515 C 0.39313 0.88179 0.79138 0.0
C1516 C 0.41217 0.8893 0.87897 0.0
C1517 C 0.39652 0.87012 0.90198 0.0
C1518 C 0.37924 0.85679 0.86874 0.0
C1519 C 0.37752 0.86258 0.81439 0.0
H1520 H 0.87843 0.93364 0.32096 0.0
H1521 H 0.81378 0.88191 0.30504 0.0
H1522 H 0.88859 0.9279 0.227 0.0
H1523 H 0.82429 0.87573 0.211 0.0
H1524 H 0.83569 0.89441 0.03129 0.0
H1525 H 0.82461 0.89915 0.12521 0.0
H1526 H 0.90507 0.89486 0.16669 0.0
H1527 H 0.91617 0.88965 0.07324 0.0
C1528 C 0.8663 0.9211 0.29739 0.0
C1529 C 0.84522 0.90831 0.32077 0.0
C1530 C 0.8723 0.91758 0.24352 0.0
C1531 C 0.85733 0.90128 0.21122 0.0
C1532 C 0.83615 0.88858 0.23446 0.0
C1533 C 0.83026 0.89193 0.28856 0.0
C1534 C 0.85105 0.89412 0.06039 0.0
C1535 C 0.8769 0.89175 0.04415 0.0
C1536 C 0.84466 0.8969 0.11439 0.0
C1537 C 0.86393 0.89756 0.15371 0.0
C1538 C 0.88972 0.89493 0.13756 0.0
C1539 C 0.8961 0.89199 0.08372 0.0
H1540 H 0.93441 0.12188 0.99955 0.0
H1541 H 0.85227 0.13404 0.99729 0.0
H1542 H 0.93672 0.13262 0.90527 0.0
H1543 H 0.85445 0.14443 0.90271 0.0
H1544 H 0.87058 0.18531 0.745 0.0
H1545 H 0.86866 0.17585 0.83986 0.0
H1546 H 0.92598 0.11657 0.8195 0.0
H1547 H 0.92889 0.12695 0.72526 0.0
C1548 C 0.91678 0.12663 0.97882 0.0
C1549 C 0.89314 0.12701 1.00612 0.0
C1550 C 0.91809 0.13275 0.92458 0.0
C1551 C 0.89576 0.13932 0.89594 0.0
C1552 C 0.87213 0.13986 0.9234 0.0
C1553 C 0.87085 0.13386 0.97775 0.0
C1554 C 0.88303 0.17046 0.76078 0.0
C1555 C 0.89995 0.15697 0.72711 0.0
C1556 C 0.88167 0.16478 0.81525 0.0
C1557 C 0.89714 0.1454 0.83772 0.0
C1558 C 0.91398 0.13185 0.804 0.0
C1559 C 0.9154 0.13758 0.74958 0.0
H1560 H 0.13298 0.15483 0.05503 0.0
H1561 H 0.12674 0.07216 0.04381 0.0
H1562 H 0.14287 0.15108 0.14952 0.0
H1563 H 0.1371 0.06828 0.13806 0.0
H1564 H 0.13136 0.07077 0.31899 0.0
H1565 H 0.12091 0.07504 0.22502 0.0
H1566 H 0.17459 0.13833 0.2116 0.0
H1567 H 0.18393 0.135 0.30617 0.0
C1568 C 0.13401 0.13581 0.07258 0.0
C1569 C 0.129 0.11381 0.04163 0.0
C1570 C 0.13974 0.13362 0.12694 0.0
C1571 C 0.14082 0.10935 0.15195 0.0
C1572 C 0.13599 0.08735 0.12077 0.0
C1573 C 0.13009 0.08955 0.06651 0.0
C1574 C 0.14072 0.08584 0.29628 0.0
C1575 C 0.15852 0.10253 0.3207 0.0
C1576 C 0.13497 0.08807 0.24194 0.0
C1577 C 0.14691 0.107 0.21015 0.0
C1578 C 0.16472 0.12369 0.23458 0.0
C1579 C 0.17039 0.12153 0.28895 0.0
H1580 H 0.08133 0.88419 0.72384 0.0
H1581 H 0.13195 0.81939 0.7478 0.0
H1582 H 0.08373 0.89421 0.81848 0.0
H1583 H 0.135 0.82991 0.84223 0.0
H1584 H 0.11151 0.8404 1.01804 0.0
H1585 H 0.10929 0.8298 0.9236 0.0
H1586 H 0.11391 0.91059 0.88415 0.0
H1587 H 0.11637 0.92121 0.97836 0.0
C1588 C 0.09295 0.87203 0.74927 0.0
C1589 C 0.10642 0.85094 0.72799 0.0
C1590 C 0.09456 0.87796 0.80354 0.0
C1591 C 0.10961 0.86292 0.83817 0.0
C1592 C 0.12303 0.84178 0.81694 0.0
C1593 C 0.12151 0.83592 0.76259 0.0
C1594 C 0.11234 0.85592 0.98928 0.0
C1595 C 0.11405 0.88171 1.00616 0.0
C1596 C 0.11104 0.84982 0.93501 0.0
C1597 C 0.11133 0.86933 0.89607 0.0
C1598 C 0.11317 0.89508 0.91293 0.0
C1599 C 0.11456 0.90117 0.96713 0.0
loop_
_geom_bond_atom_site_label_1
_geom_bond_atom_site_label_2
_geom_bond_distance
_geom_bond_site_symmetry_2
_ccdc_geom_bond_type
C0 Eu1 2.835 1_556 S
C0 C2 1.500 . S
C0 O20 1.257 . S
C0 O21 1.260 . S
Eu1 C0 2.835 1_554 S
Eu1 O20 2.473 1_554 S
Eu1 O21 2.480 1_554 S
Eu1 O22 2.430 . S
Eu1 O23 2.670 . S
Eu1 O24 2.394 . S
Eu1 O29 2.355 . S
Eu1 O31 2.374 . S
C2 C0 1.500 . S
C2 C3 1.377 . S
C2 C7 1.377 . S
C3 C2 1.377 . S
C3 C4 1.395 . S
C3 H32 0.931 . S
C4 C3 1.395 . S
C4 C5 1.383 . S
C4 H33 0.931 . S
C5 C4 1.383 . S
C5 C6 1.394 . S
C6 C5 1.394 . S
C6 C7 1.378 . S
C6 H34 0.931 . S
C7 C2 1.377 . S
C7 C6 1.378 . S
C7 H35 0.931 . S
C8 O22 1.259 . S
C8 O23 1.270 . S
C9 O24 1.251 . S
C9 O25 1.251 . S
C10 Eu11 2.835 . S
C10 C12 1.500 . S
C10 O26 1.257 . S
C10 O27 1.260 . S
Eu11 C10 2.835 . S
Eu11 O23 2.355 . S
Eu11 O25 2.374 . S
Eu11 O26 2.473 . S
Eu11 O27 2.480 . S
Eu11 O28 2.430 . S
Eu11 O29 2.670 . S
Eu11 O30 2.394 . S
C12 C10 1.500 . S
C12 C13 1.377 . S
C12 C17 1.377 . S
C13 C12 1.377 . S
C13 C14 1.395 . S
C13 H36 0.931 . S
C14 C13 1.395 . S
C14 C15 1.383 . S
C14 H37 0.931 . S
C15 C14 1.383 . S
C15 C16 1.394 . S
C16 C15 1.394 . S
C16 C17 1.378 . S
C16 H38 0.931 . S
C17 C12 1.377 . S
C17 C16 1.378 . S
C17 H39 0.931 . S
C18 O28 1.259 . S
C18 O29 1.270 . S
C19 O30 1.251 . S
C19 O31 1.251 . S
O20 C0 1.257 . S
O20 Eu1 2.473 1_556 S
O21 C0 1.260 . S
O21 Eu1 2.480 1_556 S
O22 Eu1 2.430 . S
O22 C8 1.259 . S
O23 Eu1 2.670 . S
O23 C8 1.270 . S
O23 Eu11 2.355 . S
O24 Eu1 2.394 . S
O24 C9 1.251 . S
O25 C9 1.251 . S
O25 Eu11 2.374 . S
O26 C10 1.257 . S
O26 Eu11 2.473 . S
O27 C10 1.260 . S
O27 Eu11 2.480 . S
O28 Eu11 2.430 . S
O28 C18 1.259 . S
O29 Eu1 2.355 . S
O29 Eu11 2.670 . S
O29 C18 1.270 . S
O30 Eu11 2.394 . S
O30 C19 1.251 . S
O31 Eu1 2.374 . S
O31 C19 1.251 . S
H32 C3 0.931 . S
H33 C4 0.931 . S
H34 C6 0.931 . S
H35 C7 0.931 . S
H36 C13 0.931 . S
H37 C14 0.931 . S
H38 C16 0.931 . S
H39 C17 0.931 . S
C40 Eu41 2.835 . S
C40 C42 1.500 . S
C40 O60 1.257 . S
C40 O61 1.260 . S
Eu41 C40 2.835 . S
Eu41 O60 2.473 . S
Eu41 O61 2.480 . S
Eu41 O62 2.430 . S
Eu41 O63 2.670 . S
Eu41 O64 2.394 . S
Eu41 O69 2.355 . S
Eu41 O71 2.374 . S
C42 C40 1.500 . S
C42 C43 1.377 . S
C42 C47 1.377 . S
C43 C42 1.377 . S
C43 C44 1.395 . S
C43 H72 0.931 . S
C44 C43 1.395 . S
C44 C45 1.383 . S
C44 H73 0.931 . S
C45 C44 1.383 . S
C45 C46 1.394 . S
C46 C45 1.394 . S
C46 C47 1.378 . S
C46 H74 0.931 . S
C47 C42 1.377 . S
C47 C46 1.378 . S
C47 H75 0.931 . S
C48 O62 1.259 . S
C48 O63 1.270 . S
C49 O64 1.251 . S
C49 O65 1.251 . S
C50 Eu51 2.835 1_554 S
C50 C52 1.500 . S
C50 O66 1.257 . S
C50 O67 1.260 . S
Eu51 C50 2.835 1_556 S
Eu51 O63 2.355 . S
Eu51 O65 2.374 . S
Eu51 O66 2.473 1_556 S
Eu51 O67 2.480 1_556 S
Eu51 O68 2.430 . S
Eu51 O69 2.670 . S
Eu51 O70 2.394 . S
C52 C50 1.500 . S
C52 C53 1.377 . S
C52 C57 1.377 . S
C53 C52 1.377 . S
C53 C54 1.395 . S
C53 H76 0.931 . S
C54 C53 1.395 . S
C54 C55 1.383 . S
C54 H77 0.931 . S
C55 C54 1.383 . S
C55 C56 1.394 . S
C56 C55 1.394 . S
C56 C57 1.378 . S
C56 H78 0.931 . S
C57 C52 1.377 . S
C57 C56 1.378 . S
C57 H79 0.931 . S
C58 O68 1.259 . S
C58 O69 1.270 . S
C59 O70 1.251 . S
C59 O71 1.251 . S
O60 C40 1.257 . S
O60 Eu41 2.473 . S
O61 C40 1.260 . S
O61 Eu41 2.480 . S
O62 Eu41 2.430 . S
O62 C48 1.259 . S
O63 Eu41 2.670 . S
O63 C48 1.270 . S
O63 Eu51 2.355 . S
O64 Eu41 2.394 . S
O64 C49 1.251 . S
O65 C49 1.251 . S
O65 Eu51 2.374 . S
O66 C50 1.257 . S
O66 Eu51 2.473 1_554 S
O67 C50 1.260 . S
O67 Eu51 2.480 1_554 S
O68 Eu51 2.430 . S
O68 C58 1.259 . S
O69 Eu41 2.355 . S
O69 Eu51 2.670 . S
O69 C58 1.270 . S
O70 Eu51 2.394 . S
O70 C59 1.251 . S
O71 Eu41 2.374 . S
O71 C59 1.251 . S
H72 C43 0.931 . S
H73 C44 0.931 . S
H74 C46 0.931 . S
H75 C47 0.931 . S
H76 C53 0.931 . S
H77 C54 0.931 . S
H78 C56 0.931 . S
H79 C57 0.931 . S
C80 Eu81 2.835 1_556 S
C80 C82 1.500 . S
C80 O100 1.257 . S
C80 O101 1.260 . S
Eu81 C80 2.835 1_554 S
Eu81 O100 2.473 1_554 S
Eu81 O101 2.480 1_554 S
Eu81 O102 2.430 . S
Eu81 O103 2.670 . S
Eu81 O104 2.394 . S
Eu81 O109 2.355 . S
Eu81 O111 2.374 . S
C82 C80 1.500 . S
C82 C83 1.377 . S
C82 C87 1.377 . S
C83 C82 1.377 . S
C83 C84 1.395 . S
C83 H112 0.931 . S
C84 C83 1.395 . S
C84 C85 1.383 . S
C84 H113 0.931 . S
C85 C84 1.383 . S
C85 C86 1.394 . S
C86 C85 1.394 . S
C86 C87 1.378 . S
C86 H114 0.931 . S
C87 C82 1.377 . S
C87 C86 1.378 . S
C87 H115 0.931 . S
C88 O102 1.259 . S
C88 O103 1.270 . S
C89 O104 1.251 . S
C89 O105 1.251 . S
C90 Eu91 2.835 . S
C90 C92 1.500 . S
C90 O106 1.257 . S
C90 O107 1.260 . S
Eu91 C90 2.835 . S
Eu91 O103 2.355 . S
Eu91 O105 2.374 . S
Eu91 O106 2.473 . S
Eu91 O107 2.480 . S
Eu91 O108 2.430 . S
Eu91 O109 2.670 . S
Eu91 O110 2.394 . S
C92 C90 1.500 . S
C92 C93 1.377 . S
C92 C97 1.377 . S
C93 C92 1.377 . S
C93 C94 1.395 . S
C93 H116 0.931 . S
C94 C93 1.395 . S
C94 C95 1.383 . S
C94 H117 0.931 . S
C95 C94 1.383 . S
C95 C96 1.394 . S
C96 C95 1.394 . S
C96 C97 1.378 . S
C96 H118 0.931 . S
C97 C92 1.377 . S
C97 C96 1.378 . S
C97 H119 0.931 . S
C98 O108 1.259 . S
C98 O109 1.270 . S
C99 O110 1.251 . S
C99 O111 1.251 . S
O100 C80 1.257 . S
O100 Eu81 2.473 1_556 S
O101 C80 1.260 . S
O101 Eu81 2.480 1_556 S
O102 Eu81 2.430 . S
O102 C88 1.259 . S
O103 Eu81 2.670 . S
O103 C88 1.270 . S
O103 Eu91 2.355 . S
O104 Eu81 2.394 . S
O104 C89 1.251 . S
O105 C89 1.251 . S
O105 Eu91 2.374 . S
O106 C90 1.257 . S
O106 Eu91 2.473 . S
O107 C90 1.260 . S
O107 Eu91 2.480 . S
O108 Eu91 2.430 . S
O108 C98 1.259 . S
O109 Eu81 2.355 . S
O109 Eu91 2.670 . S
O109 C98 1.270 . S
O110 Eu91 2.394 . S
O110 C99 1.251 . S
O111 Eu81 2.374 . S
O111 C99 1.251 . S
H112 C83 0.931 . S
H113 C84 0.931 . S
H114 C86 0.931 . S
H115 C87 0.931 . S
H116 C93 0.931 . S
H117 C94 0.931 . S
H118 C96 0.931 . S
H119 C97 0.931 . S
C120 Eu121 2.835 . S
C120 C122 1.500 . S
C120 O140 1.257 . S
C120 O141 1.260 . S
Eu121 C120 2.835 . S
Eu121 O140 2.473 . S
Eu121 O141 2.480 . S
Eu121 O142 2.430 . S
Eu121 O143 2.670 . S
Eu121 O144 2.394 . S
Eu121 O149 2.355 . S
Eu121 O151 2.374 . S
C122 C120 1.500 . S
C122 C123 1.377 . S
C122 C127 1.377 . S
C123 C122 1.377 . S
C123 C124 1.395 . S
C123 H152 0.931 . S
C124 C123 1.395 . S
C124 C125 1.383 . S
C124 H153 0.931 . S
C125 C124 1.383 . S
C125 C126 1.394 . S
C126 C125 1.394 . S
C126 C127 1.378 . S
C126 H154 0.931 . S
C127 C122 1.377 . S
C127 C126 1.378 . S
C127 H155 0.931 . S
C128 O142 1.259 . S
C128 O143 1.270 . S
C129 O144 1.251 . S
C129 O145 1.251 . S
C130 Eu131 2.835 1_554 S
C130 C132 1.500 . S
C130 O146 1.257 . S
C130 O147 1.260 . S
Eu131 C130 2.835 1_556 S
Eu131 O143 2.355 . S
Eu131 O145 2.374 . S
Eu131 O146 2.473 1_556 S
Eu131 O147 2.480 1_556 S
Eu131 O148 2.430 . S
Eu131 O149 2.670 . S
Eu131 O150 2.394 . S
C132 C130 1.500 . S
C132 C133 1.377 . S
C132 C137 1.377 . S
C133 C132 1.377 . S
C133 C134 1.395 . S
C133 H156 0.931 . S
C134 C133 1.395 . S
C134 C135 1.383 . S
C134 H157 0.931 . S
C135 C134 1.383 . S
C135 C136 1.394 . S
C136 C135 1.394 . S
C136 C137 1.378 . S
C136 H158 0.931 . S
C137 C132 1.377 . S
C137 C136 1.378 . S
C137 H159 0.931 . S
C138 O148 1.259 . S
C138 O149 1.270 . S
C139 O150 1.251 . S
C139 O151 1.251 . S
O140 C120 1.257 . S
O140 Eu121 2.473 . S
O141 C120 1.260 . S
O141 Eu121 2.480 . S
O142 Eu121 2.430 . S
O142 C128 1.259 . S
O143 Eu121 2.670 . S
O143 C128 1.270 . S
O143 Eu131 2.355 . S
O144 Eu121 2.394 . S
O144 C129 1.251 . S
O145 C129 1.251 . S
O145 Eu131 2.374 . S
O146 C130 1.257 . S
O146 Eu131 2.473 1_554 S
O147 C130 1.260 . S
O147 Eu131 2.480 1_554 S
O148 Eu131 2.430 . S
O148 C138 1.259 . S
O149 Eu121 2.355 . S
O149 Eu131 2.670 . S
O149 C138 1.270 . S
O150 Eu131 2.394 . S
O150 C139 1.251 . S
O151 Eu121 2.374 . S
O151 C139 1.251 . S
H152 C123 0.931 . S
H153 C124 0.931 . S
H154 C126 0.931 . S
H155 C127 0.931 . S
H156 C133 0.931 . S
H157 C134 0.931 . S
H158 C136 0.931 . S
H159 C137 0.931 . S
C160 Eu161 2.835 . S
C160 C162 1.500 . S
C160 O180 1.257 . S
C160 O181 1.260 . S
Eu161 C160 2.835 . S
Eu161 O180 2.473 . S
Eu161 O181 2.480 . S
Eu161 O182 2.430 . S
Eu161 O183 2.670 . S
Eu161 O184 2.394 . S
Eu161 O189 2.355 . S
Eu161 O191 2.374 . S
C162 C160 1.500 . S
C162 C163 1.377 . S
C162 C167 1.377 . S
C163 C162 1.377 . S
C163 C164 1.395 . S
C163 H192 0.931 . S
C164 C163 1.395 . S
C164 C165 1.383 . S
C164 H193 0.931 . S
C165 C164 1.383 . S
C165 C166 1.394 . S
C166 C165 1.394 . S
C166 C167 1.378 . S
C166 H194 0.931 . S
C167 C162 1.377 . S
C167 C166 1.378 . S
C167 H195 0.931 . S
C168 O182 1.259 . S
C168 O183 1.270 . S
C169 O184 1.251 . S
C169 O185 1.251 . S
C170 Eu171 2.835 1_556 S
C170 C172 1.500 . S
C170 O186 1.257 . S
C170 O187 1.260 . S
Eu171 C170 2.835 1_554 S
Eu171 O183 2.355 . S
Eu171 O185 2.374 . S
Eu171 O186 2.473 1_554 S
Eu171 O187 2.480 1_554 S
Eu171 O188 2.430 . S
Eu171 O189 2.670 . S
Eu171 O190 2.394 . S
C172 C170 1.500 . S
C172 C173 1.377 . S
C172 C177 1.377 . S
C173 C172 1.377 . S
C173 C174 1.395 . S
C173 H196 0.931 . S
C174 C173 1.395 . S
C174 C175 1.383 . S
C174 H197 0.931 . S
C175 C174 1.383 . S
C175 C176 1.394 . S
C176 C175 1.394 . S
C176 C177 1.378 . S
C176 H198 0.931 . S
C177 C172 1.377 . S
C177 C176 1.378 . S
C177 H199 0.931 . S
C178 O188 1.259 . S
C178 O189 1.270 . S
C179 O190 1.251 . S
C179 O191 1.251 . S
O180 C160 1.257 . S
O180 Eu161 2.473 . S
O181 C160 1.260 . S
O181 Eu161 2.480 . S
O182 Eu161 2.430 . S
O182 C168 1.259 . S
O183 Eu161 2.670 . S
O183 C168 1.270 . S
O183 Eu171 2.355 . S
O184 Eu161 2.394 . S
O184 C169 1.251 . S
O185 C169 1.251 . S
O185 Eu171 2.374 . S
O186 C170 1.257 . S
O186 Eu171 2.473 1_556 S
O187 C170 1.260 . S
O187 Eu171 2.480 1_556 S
O188 Eu171 2.430 . S
O188 C178 1.259 . S
O189 Eu161 2.355 . S
O189 Eu171 2.670 . S
O189 C178 1.270 . S
O190 Eu171 2.394 . S
O190 C179 1.251 . S
O191 Eu161 2.374 . S
O191 C179 1.251 . S
H192 C163 0.931 . S
H193 C164 0.931 . S
H194 C166 0.931 . S
H195 C167 0.931 . S
H196 C173 0.931 . S
H197 C174 0.931 . S
H198 C176 0.931 . S
H199 C177 0.931 . S
C200 Eu201 2.835 1_554 S
C200 C202 1.500 . S
C200 O220 1.257 . S
C200 O221 1.260 . S
Eu201 C200 2.835 1_556 S
Eu201 O220 2.473 1_556 S
Eu201 O221 2.480 1_556 S
Eu201 O222 2.430 . S
Eu201 O223 2.670 . S
Eu201 O224 2.394 . S
Eu201 O229 2.355 . S
Eu201 O231 2.374 . S
C202 C200 1.500 . S
C202 C203 1.377 . S
C202 C207 1.377 . S
C203 C202 1.377 . S
C203 C204 1.395 . S
C203 H232 0.931 . S
C204 C203 1.395 . S
C204 C205 1.383 . S
C204 H233 0.931 . S
C205 C204 1.383 . S
C205 C206 1.394 . S
C206 C205 1.394 . S
C206 C207 1.378 . S
C206 H234 0.931 . S
C207 C202 1.377 . S
C207 C206 1.378 . S
C207 H235 0.931 . S
C208 O222 1.259 . S
C208 O223 1.270 . S
C209 O224 1.251 . S
C209 O225 1.251 . S
C210 Eu211 2.835 . S
C210 C212 1.500 . S
C210 O226 1.257 . S
C210 O227 1.260 . S
Eu211 C210 2.835 . S
Eu211 O223 2.355 . S
Eu211 O225 2.374 . S
Eu211 O226 2.473 . S
Eu211 O227 2.480 . S
Eu211 O228 2.430 . S
Eu211 O229 2.670 . S
Eu211 O230 2.394 . S
C212 C210 1.500 . S
C212 C213 1.377 . S
C212 C217 1.377 . S
C213 C212 1.377 . S
C213 C214 1.395 . S
C213 H236 0.931 . S
C214 C213 1.395 . S
C214 C215 1.383 . S
C214 H237 0.931 . S
C215 C214 1.383 . S
C215 C216 1.394 . S
C216 C215 1.394 . S
C216 C217 1.378 . S
C216 H238 0.931 . S
C217 C212 1.377 . S
C217 C216 1.378 . S
C217 H239 0.931 . S
C218 O228 1.259 . S
C218 O229 1.270 . S
C219 O230 1.251 . S
C219 O231 1.251 . S
O220 C200 1.257 . S
O220 Eu201 2.473 1_554 S
O221 C200 1.260 . S
O221 Eu201 2.480 1_554 S
O222 Eu201 2.430 . S
O222 C208 1.259 . S
O223 Eu201 2.670 . S
O223 C208 1.270 . S
O223 Eu211 2.355 . S
O224 Eu201 2.394 . S
O224 C209 1.251 . S
O225 C209 1.251 . S
O225 Eu211 2.374 . S
O226 C210 1.257 . S
O226 Eu211 2.473 . S
O227 C210 1.260 . S
O227 Eu211 2.480 . S
O228 Eu211 2.430 . S
O228 C218 1.259 . S
O229 Eu201 2.355 . S
O229 Eu211 2.670 . S
O229 C218 1.270 . S
O230 Eu211 2.394 . S
O230 C219 1.251 . S
O231 Eu201 2.374 . S
O231 C219 1.251 . S
H232 C203 0.931 . S
H233 C204 0.931 . S
H234 C206 0.931 . S
H235 C207 0.931 . S
H236 C213 0.931 . S
H237 C214 0.931 . S
H238 C216 0.931 . S
H239 C217 0.931 . S
C240 Eu241 2.835 . S
C240 C242 1.500 . S
C240 O260 1.257 . S
C240 O261 1.260 . S
Eu241 C240 2.835 . S
Eu241 O260 2.473 . S
Eu241 O261 2.480 . S
Eu241 O262 2.430 . S
Eu241 O263 2.670 . S
Eu241 O264 2.394 . S
Eu241 O269 2.355 . S
Eu241 O271 2.374 . S
C242 C240 1.500 . S
C242 C243 1.377 . S
C242 C247 1.377 . S
C243 C242 1.377 . S
C243 C244 1.395 . S
C243 H272 0.931 . S
C244 C243 1.395 . S
C244 C245 1.383 . S
C244 H273 0.931 . S
C245 C244 1.383 . S
C245 C246 1.394 . S
C246 C245 1.394 . S
C246 C247 1.378 . S
C246 H274 0.931 . S
C247 C242 1.377 . S
C247 C246 1.378 . S
C247 H275 0.931 . S
C248 O262 1.259 . S
C248 O263 1.270 . S
C249 O264 1.251 . S
C249 O265 1.251 . S
C250 Eu251 2.835 1_556 S
C250 C252 1.500 . S
C250 O266 1.257 . S
C250 O267 1.260 . S
Eu251 C250 2.835 1_554 S
Eu251 O263 2.355 . S
Eu251 O265 2.374 . S
Eu251 O266 2.473 1_554 S
Eu251 O267 2.480 1_554 S
Eu251 O268 2.430 . S
Eu251 O269 2.670 . S
Eu251 O270 2.394 . S
C252 C250 1.500 . S
C252 C253 1.377 . S
C252 C257 1.377 . S
C253 C252 1.377 . S
C253 C254 1.395 . S
C253 H276 0.931 . S
C254 C253 1.395 . S
C254 C255 1.383 . S
C254 H277 0.931 . S
C255 C254 1.383 . S
C255 C256 1.394 . S
C256 C255 1.394 . S
C256 C257 1.378 . S
C256 H278 0.931 . S
C257 C252 1.377 . S
C257 C256 1.378 . S
C257 H279 0.931 . S
C258 O268 1.259 . S
C258 O269 1.270 . S
C259 O270 1.251 . S
C259 O271 1.251 . S
O260 C240 1.257 . S
O260 Eu241 2.473 . S
O261 C240 1.260 . S
O261 Eu241 2.480 . S
O262 Eu241 2.430 . S
O262 C248 1.259 . S
O263 Eu241 2.670 . S
O263 C248 1.270 . S
O263 Eu251 2.355 . S
O264 Eu241 2.394 . S
O264 C249 1.251 . S
O265 C249 1.251 . S
O265 Eu251 2.374 . S
O266 C250 1.257 . S
O266 Eu251 2.473 1_556 S
O267 C250 1.260 . S
O267 Eu251 2.480 1_556 S
O268 Eu251 2.430 . S
O268 C258 1.259 . S
O269 Eu241 2.355 . S
O269 Eu251 2.670 . S
O269 C258 1.270 . S
O270 Eu251 2.394 . S
O270 C259 1.251 . S
O271 Eu241 2.374 . S
O271 C259 1.251 . S
H272 C243 0.931 . S
H273 C244 0.931 . S
H274 C246 0.931 . S
H275 C247 0.931 . S
H276 C253 0.931 . S
H277 C254 0.931 . S
H278 C256 0.931 . S
H279 C257 0.931 . S
C280 Eu281 2.835 1_554 S
C280 C282 1.500 . S
C280 O300 1.257 . S
C280 O301 1.260 . S
Eu281 C280 2.835 1_556 S
Eu281 O300 2.473 1_556 S
Eu281 O301 2.480 1_556 S
Eu281 O302 2.430 . S
Eu281 O303 2.670 . S
Eu281 O304 2.394 . S
Eu281 O309 2.355 . S
Eu281 O311 2.374 . S
C282 C280 1.500 . S
C282 C283 1.377 . S
C282 C287 1.377 . S
C283 C282 1.377 . S
C283 C284 1.395 . S
C283 H312 0.931 . S
C284 C283 1.395 . S
C284 C285 1.383 . S
C284 H313 0.931 . S
C285 C284 1.383 . S
C285 C286 1.394 . S
C286 C285 1.394 . S
C286 C287 1.378 . S
C286 H314 0.931 . S
C287 C282 1.377 . S
C287 C286 1.378 . S
C287 H315 0.931 . S
C288 O302 1.259 . S
C288 O303 1.270 . S
C289 O304 1.251 . S
C289 O305 1.251 . S
C290 Eu291 2.835 . S
C290 C292 1.500 . S
C290 O306 1.257 . S
C290 O307 1.260 . S
Eu291 C290 2.835 . S
Eu291 O303 2.355 . S
Eu291 O305 2.374 . S
Eu291 O306 2.473 . S
Eu291 O307 2.480 . S
Eu291 O308 2.430 . S
Eu291 O309 2.670 . S
Eu291 O310 2.394 . S
C292 C290 1.500 . S
C292 C293 1.377 . S
C292 C297 1.377 . S
C293 C292 1.377 . S
C293 C294 1.395 . S
C293 H316 0.931 . S
C294 C293 1.395 . S
C294 C295 1.383 . S
C294 H317 0.931 . S
C295 C294 1.383 . S
C295 C296 1.394 . S
C296 C295 1.394 . S
C296 C297 1.378 . S
C296 H318 0.931 . S
C297 C292 1.377 . S
C297 C296 1.378 . S
C297 H319 0.931 . S
C298 O308 1.259 . S
C298 O309 1.270 . S
C299 O310 1.251 . S
C299 O311 1.251 . S
O300 C280 1.257 . S
O300 Eu281 2.473 1_554 S
O301 C280 1.260 . S
O301 Eu281 2.480 1_554 S
O302 Eu281 2.430 . S
O302 C288 1.259 . S
O303 Eu281 2.670 . S
O303 C288 1.270 . S
O303 Eu291 2.355 . S
O304 Eu281 2.394 . S
O304 C289 1.251 . S
O305 C289 1.251 . S
O305 Eu291 2.374 . S
O306 C290 1.257 . S
O306 Eu291 2.473 . S
O307 C290 1.260 . S
O307 Eu291 2.480 . S
O308 Eu291 2.430 . S
O308 C298 1.259 . S
O309 Eu281 2.355 . S
O309 Eu291 2.670 . S
O309 C298 1.270 . S
O310 Eu291 2.394 . S
O310 C299 1.251 . S
O311 Eu281 2.374 . S
O311 C299 1.251 . S
H312 C283 0.931 . S
H313 C284 0.931 . S
H314 C286 0.931 . S
H315 C287 0.931 . S
H316 C293 0.931 . S
H317 C294 0.931 . S
H318 C296 0.931 . S
H319 C297 0.931 . S
C320 Eu321 2.835 . S
C320 C322 1.500 . S
C320 O340 1.257 . S
C320 O341 1.260 . S
Eu321 C320 2.835 . S
Eu321 O340 2.473 . S
Eu321 O341 2.480 . S
Eu321 O342 2.430 . S
Eu321 O343 2.670 . S
Eu321 O344 2.394 . S
Eu321 O349 2.355 . S
Eu321 O351 2.374 . S
C322 C320 1.500 . S
C322 C323 1.377 . S
C322 C327 1.377 . S
C323 C322 1.377 . S
C323 C324 1.395 . S
C323 H352 0.931 . S
C324 C323 1.395 . S
C324 C325 1.383 . S
C324 H353 0.931 . S
C325 C324 1.383 . S
C325 C326 1.394 . S
C326 C325 1.394 . S
C326 C327 1.378 . S
C326 H354 0.931 . S
C327 C322 1.377 . S
C327 C326 1.378 . S
C327 H355 0.931 . S
C328 O342 1.259 . S
C328 O343 1.270 . S
C329 O344 1.251 . S
C329 O345 1.251 . S
C330 Eu331 2.835 . S
C330 C332 1.500 . S
C330 O346 1.257 . S
C330 O347 1.260 . S
Eu331 C330 2.835 . S
Eu331 O343 2.355 . S
Eu331 O345 2.374 . S
Eu331 O346 2.473 . S
Eu331 O347 2.480 . S
Eu331 O348 2.430 . S
Eu331 O349 2.670 . S
Eu331 O350 2.394 . S
C332 C330 1.500 . S
C332 C333 1.377 . S
C332 C337 1.377 . S
C333 C332 1.377 . S
C333 C334 1.395 . S
C333 H356 0.931 . S
C334 C333 1.395 . S
C334 C335 1.383 . S
C334 H357 0.931 . S
C335 C334 1.383 . S
C335 C336 1.394 . S
C336 C335 1.394 . S
C336 C337 1.378 . S
C336 H358 0.931 . S
C337 C332 1.377 . S
C337 C336 1.378 . S
C337 H359 0.931 . S
C338 O348 1.259 . S
C338 O349 1.270 . S
C339 O350 1.251 . S
C339 O351 1.251 . S
O340 C320 1.257 . S
O340 Eu321 2.473 . S
O341 C320 1.260 . S
O341 Eu321 2.480 . S
O342 Eu321 2.430 . S
O342 C328 1.259 . S
O343 Eu321 2.670 . S
O343 C328 1.270 . S
O343 Eu331 2.355 . S
O344 Eu321 2.394 . S
O344 C329 1.251 . S
O345 C329 1.251 . S
O345 Eu331 2.374 . S
O346 C330 1.257 . S
O346 Eu331 2.473 . S
O347 C330 1.260 . S
O347 Eu331 2.480 . S
O348 Eu331 2.430 . S
O348 C338 1.259 . S
O349 Eu321 2.355 . S
O349 Eu331 2.670 . S
O349 C338 1.270 . S
O350 Eu331 2.394 . S
O350 C339 1.251 . S
O351 Eu321 2.374 . S
O351 C339 1.251 . S
H352 C323 0.931 . S
H353 C324 0.931 . S
H354 C326 0.931 . S
H355 C327 0.931 . S
H356 C333 0.931 . S
H357 C334 0.931 . S
H358 C336 0.931 . S
H359 C337 0.931 . S
C360 Eu361 2.835 . S
C360 C362 1.500 . S
C360 O380 1.257 . S
C360 O381 1.260 . S
Eu361 C360 2.835 . S
Eu361 O380 2.473 . S
Eu361 O381 2.480 . S
Eu361 O382 2.430 . S
Eu361 O383 2.670 . S
Eu361 O384 2.394 . S
Eu361 O389 2.355 . S
Eu361 O391 2.374 . S
C362 C360 1.500 . S
C362 C363 1.377 . S
C362 C367 1.377 . S
C363 C362 1.377 . S
C363 C364 1.395 . S
C363 H392 0.931 . S
C364 C363 1.395 . S
C364 C365 1.383 . S
C364 H393 0.931 . S
C365 C364 1.383 . S
C365 C366 1.394 . S
C366 C365 1.394 . S
C366 C367 1.378 . S
C366 H394 0.931 . S
C367 C362 1.377 . S
C367 C366 1.378 . S
C367 H395 0.931 . S
C368 O382 1.259 . S
C368 O383 1.270 . S
C369 O384 1.251 . S
C369 O385 1.251 . S
C370 Eu371 2.835 . S
C370 C372 1.500 . S
C370 O386 1.257 . S
C370 O387 1.260 . S
Eu371 C370 2.835 . S
Eu371 O383 2.355 . S
Eu371 O385 2.374 . S
Eu371 O386 2.473 . S
Eu371 O387 2.480 . S
Eu371 O388 2.430 . S
Eu371 O389 2.670 . S
Eu371 O390 2.394 . S
C372 C370 1.500 . S
C372 C373 1.377 . S
C372 C377 1.377 . S
C373 C372 1.377 . S
C373 C374 1.395 . S
C373 H396 0.931 . S
C374 C373 1.395 . S
C374 C375 1.383 . S
C374 H397 0.931 . S
C375 C374 1.383 . S
C375 C376 1.394 . S
C376 C375 1.394 . S
C376 C377 1.378 . S
C376 H398 0.931 . S
C377 C372 1.377 . S
C377 C376 1.378 . S
C377 H399 0.931 . S
C378 O388 1.259 . S
C378 O389 1.270 . S
C379 O390 1.251 . S
C379 O391 1.251 . S
O380 C360 1.257 . S
O380 Eu361 2.473 . S
O381 C360 1.260 . S
O381 Eu361 2.480 . S
O382 Eu361 2.430 . S
O382 C368 1.259 . S
O383 Eu361 2.670 . S
O383 C368 1.270 . S
O383 Eu371 2.355 . S
O384 Eu361 2.394 . S
O384 C369 1.251 . S
O385 C369 1.251 . S
O385 Eu371 2.374 . S
O386 C370 1.257 . S
O386 Eu371 2.473 . S
O387 C370 1.260 . S
O387 Eu371 2.480 . S
O388 Eu371 2.430 . S
O388 C378 1.259 . S
O389 Eu361 2.355 . S
O389 Eu371 2.670 . S
O389 C378 1.270 . S
O390 Eu371 2.394 . S
O390 C379 1.251 . S
O391 Eu361 2.374 . S
O391 C379 1.251 . S
H392 C363 0.931 . S
H393 C364 0.931 . S
H394 C366 0.931 . S
H395 C367 0.931 . S
H396 C373 0.931 . S
H397 C374 0.931 . S
H398 C376 0.931 . S
H399 C377 0.931 . S
C400 Eu401 2.835 . S
C400 C402 1.500 . S
C400 O420 1.257 . S
C400 O421 1.260 . S
Eu401 C400 2.835 . S
Eu401 O420 2.473 . S
Eu401 O421 2.480 . S
Eu401 O422 2.430 . S
Eu401 O423 2.670 . S
Eu401 O424 2.394 . S
Eu401 O429 2.355 . S
Eu401 O431 2.374 . S
C402 C400 1.500 . S
C402 C403 1.377 . S
C402 C407 1.377 . S
C403 C402 1.377 . S
C403 C404 1.395 . S
C403 H432 0.931 . S
C404 C403 1.395 . S
C404 C405 1.383 . S
C404 H433 0.931 . S
C405 C404 1.383 . S
C405 C406 1.394 . S
C406 C405 1.394 . S
C406 C407 1.378 . S
C406 H434 0.931 . S
C407 C402 1.377 . S
C407 C406 1.378 . S
C407 H435 0.931 . S
C408 O422 1.259 . S
C408 O423 1.270 . S
C409 O424 1.251 . S
C409 O425 1.251 . S
C410 Eu411 2.835 . S
C410 C412 1.500 . S
C410 O426 1.257 . S
C410 O427 1.260 . S
Eu411 C410 2.835 . S
Eu411 O423 2.355 . S
Eu411 O425 2.374 . S
Eu411 O426 2.473 . S
Eu411 O427 2.480 . S
Eu411 O428 2.430 . S
Eu411 O429 2.670 . S
Eu411 O430 2.394 . S
C412 C410 1.500 . S
C412 C413 1.377 . S
C412 C417 1.377 . S
C413 C412 1.377 . S
C413 C414 1.395 . S
C413 H436 0.931 . S
C414 C413 1.395 . S
C414 C415 1.383 . S
C414 H437 0.931 . S
C415 C414 1.383 . S
C415 C416 1.394 . S
C416 C415 1.394 . S
C416 C417 1.378 . S
C416 H438 0.931 . S
C417 C412 1.377 . S
C417 C416 1.378 . S
C417 H439 0.931 . S
C418 O428 1.259 . S
C418 O429 1.270 . S
C419 O430 1.251 . S
C419 O431 1.251 . S
O420 C400 1.257 . S
O420 Eu401 2.473 . S
O421 C400 1.260 . S
O421 Eu401 2.480 . S
O422 Eu401 2.430 . S
O422 C408 1.259 . S
O423 Eu401 2.670 . S
O423 C408 1.270 . S
O423 Eu411 2.355 . S
O424 Eu401 2.394 . S
O424 C409 1.251 . S
O425 C409 1.251 . S
O425 Eu411 2.374 . S
O426 C410 1.257 . S
O426 Eu411 2.473 . S
O427 C410 1.260 . S
O427 Eu411 2.480 . S
O428 Eu411 2.430 . S
O428 C418 1.259 . S
O429 Eu401 2.355 . S
O429 Eu411 2.670 . S
O429 C418 1.270 . S
O430 Eu411 2.394 . S
O430 C419 1.251 . S
O431 Eu401 2.374 . S
O431 C419 1.251 . S
H432 C403 0.931 . S
H433 C404 0.931 . S
H434 C406 0.931 . S
H435 C407 0.931 . S
H436 C413 0.931 . S
H437 C414 0.931 . S
H438 C416 0.931 . S
H439 C417 0.931 . S
C440 Eu441 2.835 . S
C440 C442 1.500 . S
C440 O460 1.257 . S
C440 O461 1.260 . S
Eu441 C440 2.835 . S
Eu441 O460 2.473 . S
Eu441 O461 2.480 . S
Eu441 O462 2.430 . S
Eu441 O463 2.670 . S
Eu441 O464 2.394 . S
Eu441 O469 2.355 . S
Eu441 O471 2.374 . S
C442 C440 1.500 . S
C442 C443 1.377 . S
C442 C447 1.377 . S
C443 C442 1.377 . S
C443 C444 1.395 . S
C443 H472 0.931 . S
C444 C443 1.395 . S
C444 C445 1.383 . S
C444 H473 0.931 . S
C445 C444 1.383 . S
C445 C446 1.394 . S
C446 C445 1.394 . S
C446 C447 1.378 . S
C446 H474 0.931 . S
C447 C442 1.377 . S
C447 C446 1.378 . S
C447 H475 0.931 . S
C448 O462 1.259 . S
C448 O463 1.270 . S
C449 O464 1.251 . S
C449 O465 1.251 . S
C450 Eu451 2.835 . S
C450 C452 1.500 . S
C450 O466 1.257 . S
C450 O467 1.260 . S
Eu451 C450 2.835 . S
Eu451 O463 2.355 . S
Eu451 O465 2.374 . S
Eu451 O466 2.473 . S
Eu451 O467 2.480 . S
Eu451 O468 2.430 . S
Eu451 O469 2.670 . S
Eu451 O470 2.394 . S
C452 C450 1.500 . S
C452 C453 1.377 . S
C452 C457 1.377 . S
C453 C452 1.377 . S
C453 C454 1.395 . S
C453 H476 0.931 . S
C454 C453 1.395 . S
C454 C455 1.383 . S
C454 H477 0.931 . S
C455 C454 1.383 . S
C455 C456 1.394 . S
C456 C455 1.394 . S
C456 C457 1.378 . S
C456 H478 0.931 . S
C457 C452 1.377 . S
C457 C456 1.378 . S
C457 H479 0.931 . S
C458 O468 1.259 . S
C458 O469 1.270 . S
C459 O470 1.251 . S
C459 O471 1.251 . S
O460 C440 1.257 . S
O460 Eu441 2.473 . S
O461 C440 1.260 . S
O461 Eu441 2.480 . S
O462 Eu441 2.430 . S
O462 C448 1.259 . S
O463 Eu441 2.670 . S
O463 C448 1.270 . S
O463 Eu451 2.355 . S
O464 Eu441 2.394 . S
O464 C449 1.251 . S
O465 C449 1.251 . S
O465 Eu451 2.374 . S
O466 C450 1.257 . S
O466 Eu451 2.473 . S
O467 C450 1.260 . S
O467 Eu451 2.480 . S
O468 Eu451 2.430 . S
O468 C458 1.259 . S
O469 Eu441 2.355 . S
O469 Eu451 2.670 . S
O469 C458 1.270 . S
O470 Eu451 2.394 . S
O470 C459 1.251 . S
O471 Eu441 2.374 . S
O471 C459 1.251 . S
H472 C443 0.931 . S
H473 C444 0.931 . S
H474 C446 0.931 . S
H475 C447 0.931 . S
H476 C453 0.931 . S
H477 C454 0.931 . S
H478 C456 0.931 . S
H479 C457 0.931 . S
C480 Eu481 2.835 . S
C480 C482 1.500 . S
C480 O500 1.257 . S
C480 O501 1.260 . S
Eu481 C480 2.835 . S
Eu481 O500 2.473 . S
Eu481 O501 2.480 . S
Eu481 O502 2.430 . S
Eu481 O503 2.670 . S
Eu481 O504 2.394 . S
Eu481 O509 2.355 . S
Eu481 O511 2.374 . S
C482 C480 1.500 . S
C482 C483 1.377 . S
C482 C487 1.377 . S
C483 C482 1.377 . S
C483 C484 1.395 . S
C483 H512 0.931 . S
C484 C483 1.395 . S
C484 C485 1.383 . S
C484 H513 0.931 . S
C485 C484 1.383 . S
C485 C486 1.394 . S
C486 C485 1.394 . S
C486 C487 1.378 . S
C486 H514 0.931 . S
C487 C482 1.377 . S
C487 C486 1.378 . S
C487 H515 0.931 . S
C488 O502 1.259 . S
C488 O503 1.270 . S
C489 O504 1.251 . S
C489 O505 1.251 . S
C490 Eu491 2.835 . S
C490 C492 1.500 . S
C490 O506 1.257 . S
C490 O507 1.260 . S
Eu491 C490 2.835 . S
Eu491 O503 2.355 . S
Eu491 O505 2.374 . S
Eu491 O506 2.473 . S
Eu491 O507 2.480 . S
Eu491 O508 2.430 . S
Eu491 O509 2.670 . S
Eu491 O510 2.394 . S
C492 C490 1.500 . S
C492 C493 1.377 . S
C492 C497 1.377 . S
C493 C492 1.377 . S
C493 C494 1.395 . S
C493 H516 0.931 . S
C494 C493 1.395 . S
C494 C495 1.383 . S
C494 H517 0.931 . S
C495 C494 1.383 . S
C495 C496 1.394 . S
C496 C495 1.394 . S
C496 C497 1.378 . S
C496 H518 0.931 . S
C497 C492 1.377 . S
C497 C496 1.378 . S
C497 H519 0.931 . S
C498 O508 1.259 . S
C498 O509 1.270 . S
C499 O510 1.251 . S
C499 O511 1.251 . S
O500 C480 1.257 . S
O500 Eu481 2.473 . S
O501 C480 1.260 . S
O501 Eu481 2.480 . S
O502 Eu481 2.430 . S
O502 C488 1.259 . S
O503 Eu481 2.670 . S
O503 C488 1.270 . S
O503 Eu491 2.355 . S
O504 Eu481 2.394 . S
O504 C489 1.251 . S
O505 C489 1.251 . S
O505 Eu491 2.374 . S
O506 C490 1.257 . S
O506 Eu491 2.473 . S
O507 C490 1.260 . S
O507 Eu491 2.480 . S
O508 Eu491 2.430 . S
O508 C498 1.259 . S
O509 Eu481 2.355 . S
O509 Eu491 2.670 . S
O509 C498 1.270 . S
O510 Eu491 2.394 . S
O510 C499 1.251 . S
O511 Eu481 2.374 . S
O511 C499 1.251 . S
H512 C483 0.931 . S
H513 C484 0.931 . S
H514 C486 0.931 . S
H515 C487 0.931 . S
H516 C493 0.931 . S
H517 C494 0.931 . S
H518 C496 0.931 . S
H519 C497 0.931 . S
C520 Eu521 2.835 . S
C520 C522 1.500 . S
C520 O540 1.257 . S
C520 O541 1.260 . S
Eu521 C520 2.835 . S
Eu521 O540 2.473 . S
Eu521 O541 2.480 . S
Eu521 O542 2.430 . S
Eu521 O543 2.670 . S
Eu521 O544 2.394 . S
Eu521 O549 2.355 . S
Eu521 O551 2.374 . S
C522 C520 1.500 . S
C522 C523 1.377 . S
C522 C527 1.377 . S
C523 C522 1.377 . S
C523 C524 1.395 . S
C523 H552 0.931 . S
C524 C523 1.395 . S
C524 C525 1.383 . S
C524 H553 0.931 . S
C525 C524 1.383 . S
C525 C526 1.394 . S
C526 C525 1.394 . S
C526 C527 1.378 . S
C526 H554 0.931 . S
C527 C522 1.377 . S
C527 C526 1.378 . S
C527 H555 0.931 . S
C528 O542 1.259 . S
C528 O543 1.270 . S
C529 O544 1.251 . S
C529 O545 1.251 . S
C530 Eu531 2.835 . S
C530 C532 1.500 . S
C530 O546 1.257 . S
C530 O547 1.260 . S
Eu531 C530 2.835 . S
Eu531 O543 2.355 . S
Eu531 O545 2.374 . S
Eu531 O546 2.473 . S
Eu531 O547 2.480 . S
Eu531 O548 2.430 . S
Eu531 O549 2.670 . S
Eu531 O550 2.394 . S
C532 C530 1.500 . S
C532 C533 1.377 . S
C532 C537 1.377 . S
C533 C532 1.377 . S
C533 C534 1.395 . S
C533 H556 0.931 . S
C534 C533 1.395 . S
C534 C535 1.383 . S
C534 H557 0.931 . S
C535 C534 1.383 . S
C535 C536 1.394 . S
C536 C535 1.394 . S
C536 C537 1.378 . S
C536 H558 0.931 . S
C537 C532 1.377 . S
C537 C536 1.378 . S
C537 H559 0.931 . S
C538 O548 1.259 . S
C538 O549 1.270 . S
C539 O550 1.251 . S
C539 O551 1.251 . S
O540 C520 1.257 . S
O540 Eu521 2.473 . S
O541 C520 1.260 . S
O541 Eu521 2.480 . S
O542 Eu521 2.430 . S
O542 C528 1.259 . S
O543 Eu521 2.670 . S
O543 C528 1.270 . S
O543 Eu531 2.355 . S
O544 Eu521 2.394 . S
O544 C529 1.251 . S
O545 C529 1.251 . S
O545 Eu531 2.374 . S
O546 C530 1.257 . S
O546 Eu531 2.473 . S
O547 C530 1.260 . S
O547 Eu531 2.480 . S
O548 Eu531 2.430 . S
O548 C538 1.259 . S
O549 Eu521 2.355 . S
O549 Eu531 2.670 . S
O549 C538 1.270 . S
O550 Eu531 2.394 . S
O550 C539 1.251 . S
O551 Eu521 2.374 . S
O551 C539 1.251 . S
H552 C523 0.931 . S
H553 C524 0.931 . S
H554 C526 0.931 . S
H555 C527 0.931 . S
H556 C533 0.931 . S
H557 C534 0.931 . S
H558 C536 0.931 . S
H559 C537 0.931 . S
C560 Eu561 2.835 . S
C560 C562 1.500 . S
C560 O580 1.257 . S
C560 O581 1.260 . S
Eu561 C560 2.835 . S
Eu561 O580 2.473 . S
Eu561 O581 2.480 . S
Eu561 O582 2.430 . S
Eu561 O583 2.670 . S
Eu561 O584 2.394 . S
Eu561 O589 2.355 . S
Eu561 O591 2.374 . S
C562 C560 1.500 . S
C562 C563 1.377 . S
C562 C567 1.377 . S
C563 C562 1.377 . S
C563 C564 1.395 . S
C563 H592 0.931 . S
C564 C563 1.395 . S
C564 C565 1.383 . S
C564 H593 0.931 . S
C565 C564 1.383 . S
C565 C566 1.394 . S
C566 C565 1.394 . S
C566 C567 1.378 . S
C566 H594 0.931 . S
C567 C562 1.377 . S
C567 C566 1.378 . S
C567 H595 0.931 . S
C568 O582 1.259 . S
C568 O583 1.270 . S
C569 O584 1.251 . S
C569 O585 1.251 . S
C570 Eu571 2.835 . S
C570 C572 1.500 . S
C570 O586 1.257 . S
C570 O587 1.260 . S
Eu571 C570 2.835 . S
Eu571 O583 2.355 . S
Eu571 O585 2.374 . S
Eu571 O586 2.473 . S
Eu571 O587 2.480 . S
Eu571 O588 2.430 . S
Eu571 O589 2.670 . S
Eu571 O590 2.394 . S
C572 C570 1.500 . S
C572 C573 1.377 . S
C572 C577 1.377 . S
C573 C572 1.377 . S
C573 C574 1.395 . S
C573 H596 0.931 . S
C574 C573 1.395 . S
C574 C575 1.383 . S
C574 H597 0.931 . S
C575 C574 1.383 . S
C575 C576 1.394 . S
C576 C575 1.394 . S
C576 C577 1.378 . S
C576 H598 0.931 . S
C577 C572 1.377 . S
C577 C576 1.378 . S
C577 H599 0.931 . S
C578 O588 1.259 . S
C578 O589 1.270 . S
C579 O590 1.251 . S
C579 O591 1.251 . S
O580 C560 1.257 . S
O580 Eu561 2.473 . S
O581 C560 1.260 . S
O581 Eu561 2.480 . S
O582 Eu561 2.430 . S
O582 C568 1.259 . S
O583 Eu561 2.670 . S
O583 C568 1.270 . S
O583 Eu571 2.355 . S
O584 Eu561 2.394 . S
O584 C569 1.251 . S
O585 C569 1.251 . S
O585 Eu571 2.374 . S
O586 C570 1.257 . S
O586 Eu571 2.473 . S
O587 C570 1.260 . S
O587 Eu571 2.480 . S
O588 Eu571 2.430 . S
O588 C578 1.259 . S
O589 Eu561 2.355 . S
O589 Eu571 2.670 . S
O589 C578 1.270 . S
O590 Eu571 2.394 . S
O590 C579 1.251 . S
O591 Eu561 2.374 . S
O591 C579 1.251 . S
H592 C563 0.931 . S
H593 C564 0.931 . S
H594 C566 0.931 . S
H595 C567 0.931 . S
H596 C573 0.931 . S
H597 C574 0.931 . S
H598 C576 0.931 . S
H599 C577 0.931 . S
C600 Eu601 2.835 . S
C600 C602 1.500 . S
C600 O620 1.257 . S
C600 O621 1.260 . S
Eu601 C600 2.835 . S
Eu601 O620 2.473 . S
Eu601 O621 2.480 . S
Eu601 O622 2.430 . S
Eu601 O623 2.670 . S
Eu601 O624 2.394 . S
Eu601 O629 2.355 . S
Eu601 O631 2.374 . S
C602 C600 1.500 . S
C602 C603 1.377 . S
C602 C607 1.377 . S
C603 C602 1.377 . S
C603 C604 1.395 . S
C603 H632 0.931 . S
C604 C603 1.395 . S
C604 C605 1.383 . S
C604 H633 0.931 . S
C605 C604 1.383 . S
C605 C606 1.394 . S
C606 C605 1.394 . S
C606 C607 1.378 . S
C606 H634 0.931 . S
C607 C602 1.377 . S
C607 C606 1.378 . S
C607 H635 0.931 . S
C608 O622 1.259 . S
C608 O623 1.270 . S
C609 O624 1.251 . S
C609 O625 1.251 . S
C610 Eu611 2.835 . S
C610 C612 1.500 . S
C610 O626 1.257 . S
C610 O627 1.260 . S
Eu611 C610 2.835 . S
Eu611 O623 2.355 . S
Eu611 O625 2.374 . S
Eu611 O626 2.473 . S
Eu611 O627 2.480 . S
Eu611 O628 2.430 . S
Eu611 O629 2.670 . S
Eu611 O630 2.394 . S
C612 C610 1.500 . S
C612 C613 1.377 . S
C612 C617 1.377 . S
C613 C612 1.377 . S
C613 C614 1.395 . S
C613 H636 0.931 . S
C614 C613 1.395 . S
C614 C615 1.383 . S
C614 H637 0.931 . S
C615 C614 1.383 . S
C615 C616 1.394 . S
C616 C615 1.394 . S
C616 C617 1.378 . S
C616 H638 0.931 . S
C617 C612 1.377 . S
C617 C616 1.378 . S
C617 H639 0.931 . S
C618 O628 1.259 . S
C618 O629 1.270 . S
C619 O630 1.251 . S
C619 O631 1.251 . S
O620 C600 1.257 . S
O620 Eu601 2.473 . S
O621 C600 1.260 . S
O621 Eu601 2.480 . S
O622 Eu601 2.430 . S
O622 C608 1.259 . S
O623 Eu601 2.670 . S
O623 C608 1.270 . S
O623 Eu611 2.355 . S
O624 Eu601 2.394 . S
O624 C609 1.251 . S
O625 C609 1.251 . S
O625 Eu611 2.374 . S
O626 C610 1.257 . S
O626 Eu611 2.473 . S
O627 C610 1.260 . S
O627 Eu611 2.480 . S
O628 Eu611 2.430 . S
O628 C618 1.259 . S
O629 Eu601 2.355 . S
O629 Eu611 2.670 . S
O629 C618 1.270 . S
O630 Eu611 2.394 . S
O630 C619 1.251 . S
O631 Eu601 2.374 . S
O631 C619 1.251 . S
H632 C603 0.931 . S
H633 C604 0.931 . S
H634 C606 0.931 . S
H635 C607 0.931 . S
H636 C613 0.931 . S
H637 C614 0.931 . S
H638 C616 0.931 . S
H639 C617 0.931 . S
H640 C648 0.950 . S
H641 C653 0.950 . S
H642 C650 0.950 . S
H643 C652 0.950 . S
H644 C654 0.950 . S
H645 C656 0.950 . S
H646 C658 0.950 . S
H647 C659 0.950 . S
C648 H640 0.950 . S
C648 C649 1.386 . S
C648 C650 1.391 . S
C649 C648 1.386 . S
C649 C653 1.393 . S
C650 H642 0.950 . S
C650 C648 1.391 . S
C650 C651 1.400 . S
C651 C650 1.400 . S
C651 C652 1.398 . S
C651 C657 1.491 . S
C652 H643 0.950 . S
C652 C651 1.398 . S
C652 C653 1.391 . S
C653 H641 0.950 . S
C653 C649 1.393 . S
C653 C652 1.391 . S
C654 H644 0.950 . S
C654 C655 1.386 . S
C654 C656 1.391 1_545 S
C655 C654 1.386 . S
C655 C659 1.393 . S
C656 H645 0.950 . S
C656 C654 1.391 1_565 S
C656 C657 1.400 . S
C657 C651 1.491 . S
C657 C656 1.400 . S
C657 C658 1.398 1_565 S
C658 H646 0.950 . S
C658 C657 1.398 1_545 S
C658 C659 1.391 . S
C659 H647 0.950 . S
C659 C655 1.393 . S
C659 C658 1.391 . S
H660 C668 0.950 . S
H661 C673 0.950 . S
H662 C670 0.950 . S
H663 C672 0.950 . S
H664 C674 0.950 . S
H665 C676 0.950 . S
H666 C678 0.950 . S
H667 C679 0.950 . S
C668 H660 0.950 . S
C668 C669 1.386 . S
C668 C670 1.391 . S
C669 C668 1.386 . S
C669 C673 1.393 . S
C670 H662 0.950 . S
C670 C668 1.391 . S
C670 C671 1.400 . S
C671 C670 1.400 . S
C671 C672 1.398 . S
C671 C677 1.491 . S
C672 H663 0.950 . S
C672 C671 1.398 . S
C672 C673 1.391 . S
C673 H661 0.950 . S
C673 C669 1.393 . S
C673 C672 1.391 . S
C674 H664 0.950 . S
C674 C675 1.386 . S
C674 C676 1.391 1_455 S
C675 C674 1.386 . S
C675 C679 1.393 . S
C676 H665 0.950 . S
C676 C674 1.391 1_655 S
C676 C677 1.400 . S
C677 C671 1.491 . S
C677 C676 1.400 . S
C677 C678 1.398 1_655 S
C678 H666 0.950 . S
C678 C677 1.398 1_455 S
C678 C679 1.391 . S
C679 H667 0.950 . S
C679 C675 1.393 . S
C679 C678 1.391 . S
H680 C688 0.950 . S
H681 C693 0.950 . S
H682 C690 0.950 . S
H683 C692 0.950 . S
H684 C694 0.950 . S
H685 C696 0.950 . S
H686 C698 0.950 . S
H687 C699 0.950 . S
C688 H680 0.950 . S
C688 C689 1.386 . S
C688 C690 1.391 1_565 S
C689 C688 1.386 . S
C689 C693 1.393 . S
C690 H682 0.950 . S
C690 C688 1.391 1_545 S
C690 C691 1.400 . S
C691 C690 1.400 . S
C691 C692 1.398 1_545 S
C691 C697 1.491 . S
C692 H683 0.950 . S
C692 C691 1.398 1_565 S
C692 C693 1.391 . S
C693 H681 0.950 . S
C693 C689 1.393 . S
C693 C692 1.391 . S
C694 H684 0.950 . S
C694 C695 1.386 . S
C694 C696 1.391 . S
C695 C694 1.386 . S
C695 C699 1.393 . S
C696 H685 0.950 . S
C696 C694 1.391 . S
C696 C697 1.400 . S
C697 C691 1.491 . S
C697 C696 1.400 . S
C697 C698 1.398 . S
C698 H686 0.950 . S
C698 C697 1.398 . S
C698 C699 1.391 . S
C699 H687 0.950 . S
C699 C695 1.393 . S
C699 C698 1.391 . S
H700 C708 0.950 . S
H701 C713 0.950 . S
H702 C710 0.950 . S
H703 C712 0.950 . S
H704 C714 0.950 . S
H705 C716 0.950 . S
H706 C718 0.950 . S
H707 C719 0.950 . S
C708 H700 0.950 . S
C708 C709 1.386 . S
C708 C710 1.391 . S
C709 C708 1.386 . S
C709 C713 1.393 . S
C710 H702 0.950 . S
C710 C708 1.391 . S
C710 C711 1.400 1_655 S
C711 C710 1.400 1_455 S
C711 C712 1.398 . S
C711 C717 1.491 . S
C712 H703 0.950 . S
C712 C711 1.398 . S
C712 C713 1.391 1_455 S
C713 H701 0.950 . S
C713 C709 1.393 . S
C713 C712 1.391 1_655 S
C714 H704 0.950 . S
C714 C715 1.386 . S
C714 C716 1.391 . S
C715 C714 1.386 . S
C715 C719 1.393 . S
C716 H705 0.950 . S
C716 C714 1.391 . S
C716 C717 1.400 . S
C717 C711 1.491 . S
C717 C716 1.400 . S
C717 C718 1.398 . S
C718 H706 0.950 . S
C718 C717 1.398 . S
C718 C719 1.391 . S
C719 H707 0.950 . S
C719 C715 1.393 . S
C719 C718 1.391 . S
H720 C728 0.950 . S
H721 C733 0.950 . S
H722 C730 0.950 . S
H723 C732 0.950 1_556 S
H724 C734 0.950 . S
H725 C736 0.950 . S
H726 C738 0.950 . S
H727 C739 0.950 . S
C728 H720 0.950 . S
C728 C729 1.386 . S
C728 C730 1.391 . S
C729 C728 1.386 . S
C729 C733 1.393 . S
C730 H722 0.950 . S
C730 C728 1.391 . S
C730 C731 1.400 . S
C731 C730 1.400 . S
C731 C732 1.398 . S
C731 C737 1.491 . S
C732 H723 0.950 1_554 S
C732 C731 1.398 . S
C732 C733 1.391 . S
C733 H721 0.950 . S
C733 C729 1.393 . S
C733 C732 1.391 . S
C734 H724 0.950 . S
C734 C735 1.386 . S
C734 C736 1.391 . S
C735 C734 1.386 . S
C735 C739 1.393 1_556 S
C736 H725 0.950 . S
C736 C734 1.391 . S
C736 C737 1.400 1_556 S
C737 C731 1.491 . S
C737 C736 1.400 1_554 S
C737 C738 1.398 . S
C738 H726 0.950 . S
C738 C737 1.398 . S
C738 C739 1.391 . S
C739 H727 0.950 . S
C739 C735 1.393 1_554 S
C739 C738 1.391 . S
H740 C748 0.950 . S
H741 C753 0.950 . S
H742 C750 0.950 . S
H743 C752 0.950 . S
H744 C754 0.950 . S
H745 C756 0.950 . S
H746 C758 0.950 1_554 S
H747 C759 0.950 . S
C748 H740 0.950 . S
C748 C749 1.386 . S
C748 C750 1.391 . S
C749 C748 1.386 . S
C749 C753 1.393 1_554 S
C750 H742 0.950 . S
C750 C748 1.391 . S
C750 C751 1.400 1_554 S
C751 C750 1.400 1_556 S
C751 C752 1.398 . S
C751 C757 1.491 . S
C752 H743 0.950 . S
C752 C751 1.398 . S
C752 C753 1.391 . S
C753 H741 0.950 . S
C753 C749 1.393 1_556 S
C753 C752 1.391 . S
C754 H744 0.950 . S
C754 C755 1.386 . S
C754 C756 1.391 . S
C755 C754 1.386 . S
C755 C759 1.393 . S
C756 H745 0.950 . S
C756 C754 1.391 . S
C756 C757 1.400 . S
C757 C751 1.491 . S
C757 C756 1.400 . S
C757 C758 1.398 . S
C758 H746 0.950 1_556 S
C758 C757 1.398 . S
C758 C759 1.391 . S
C759 H747 0.950 . S
C759 C755 1.393 . S
C759 C758 1.391 . S
H760 C768 0.950 . S
H761 C773 0.950 . S
H762 C770 0.950 1_556 S
H763 C772 0.950 . S
H764 C774 0.950 . S
H765 C776 0.950 . S
H766 C778 0.950 . S
H767 C779 0.950 . S
C768 H760 0.950 . S
C768 C769 1.386 . S
C768 C770 1.391 . S
C769 C768 1.386 . S
C769 C773 1.393 . S
C770 H762 0.950 1_554 S
C770 C768 1.391 . S
C770 C771 1.400 . S
C771 C770 1.400 . S
C771 C772 1.398 . S
C771 C777 1.491 . S
C772 H763 0.950 . S
C772 C771 1.398 . S
C772 C773 1.391 . S
C773 H761 0.950 . S
C773 C769 1.393 . S
C773 C772 1.391 . S
C774 H764 0.950 . S
C774 C775 1.386 1_554 S
C774 C776 1.391 . S
C775 C774 1.386 1_556 S
C775 C779 1.393 . S
C776 H765 0.950 . S
C776 C774 1.391 . S
C776 C777 1.400 . S
C777 C771 1.491 . S
C777 C776 1.400 . S
C777 C778 1.398 1_554 S
C778 H766 0.950 . S
C778 C777 1.398 1_556 S
C778 C779 1.391 . S
C779 H767 0.950 . S
C779 C775 1.393 . S
C779 C778 1.391 . S
H780 C788 0.950 . S
H781 C793 0.950 . S
H782 C790 0.950 . S
H783 C792 0.950 . S
H784 C794 0.950 . S
H785 C796 0.950 . S
H786 C798 0.950 . S
H787 C799 0.950 . S
C788 H780 0.950 . S
C788 C789 1.386 . S
C788 C790 1.391 1_554 S
C789 C788 1.386 . S
C789 C793 1.393 . S
C790 H782 0.950 . S
C790 C788 1.391 1_556 S
C790 C791 1.400 . S
C791 C790 1.400 . S
C791 C792 1.398 . S
C791 C797 1.491 . S
C792 H783 0.950 . S
C792 C791 1.398 . S
C792 C793 1.391 1_556 S
C793 H781 0.950 . S
C793 C789 1.393 . S
C793 C792 1.391 1_554 S
C794 H784 0.950 . S
C794 C795 1.386 . S
C794 C796 1.391 . S
C795 C794 1.386 . S
C795 C799 1.393 . S
C796 H785 0.950 . S
C796 C794 1.391 . S
C796 C797 1.400 . S
C797 C791 1.491 . S
C797 C796 1.400 . S
C797 C798 1.398 . S
C798 H786 0.950 . S
C798 C797 1.398 . S
C798 C799 1.391 . S
C799 H787 0.950 . S
C799 C795 1.393 . S
C799 C798 1.391 . S
H800 C808 0.950 . S
H801 C813 0.950 . S
H802 C810 0.950 . S
H803 C812 0.950 . S
H804 C814 0.950 . S
H805 C816 0.950 . S
H806 C818 0.950 . S
H807 C819 0.950 . S
C808 H800 0.950 . S
C808 C809 1.386 . S
C808 C810 1.391 . S
C809 C808 1.386 . S
C809 C813 1.393 . S
C810 H802 0.950 . S
C810 C808 1.391 . S
C810 C811 1.400 . S
C811 C810 1.400 . S
C811 C812 1.398 . S
C811 C817 1.491 . S
C812 H803 0.950 . S
C812 C811 1.398 . S
C812 C813 1.391 . S
C813 H801 0.950 . S
C813 C809 1.393 . S
C813 C812 1.391 . S
C814 H804 0.950 . S
C814 C815 1.386 . S
C814 C816 1.391 . S
C815 C814 1.386 . S
C815 C819 1.393 . S
C816 H805 0.950 . S
C816 C814 1.391 . S
C816 C817 1.400 . S
C817 C811 1.491 . S
C817 C816 1.400 . S
C817 C818 1.398 . S
C818 H806 0.950 . S
C818 C817 1.398 . S
C818 C819 1.391 . S
C819 H807 0.950 . S
C819 C815 1.393 . S
C819 C818 1.391 . S
H820 C828 0.950 . S
H821 C833 0.950 . S
H822 C830 0.950 . S
H823 C832 0.950 . S
H824 C834 0.950 . S
H825 C836 0.950 . S
H826 C838 0.950 . S
H827 C839 0.950 . S
C828 H820 0.950 . S
C828 C829 1.386 . S
C828 C830 1.391 . S
C829 C828 1.386 . S
C829 C833 1.393 . S
C830 H822 0.950 . S
C830 C828 1.391 . S
C830 C831 1.400 . S
C831 C830 1.400 . S
C831 C832 1.398 . S
C831 C837 1.491 . S
C832 H823 0.950 . S
C832 C831 1.398 . S
C832 C833 1.391 . S
C833 H821 0.950 . S
C833 C829 1.393 . S
C833 C832 1.391 . S
C834 H824 0.950 . S
C834 C835 1.386 . S
C834 C836 1.391 . S
C835 C834 1.386 . S
C835 C839 1.393 . S
C836 H825 0.950 . S
C836 C834 1.391 . S
C836 C837 1.400 . S
C837 C831 1.491 . S
C837 C836 1.400 . S
C837 C838 1.398 . S
C838 H826 0.950 . S
C838 C837 1.398 . S
C838 C839 1.391 . S
C839 H827 0.950 . S
C839 C835 1.393 . S
C839 C838 1.391 . S
H840 C848 0.950 . S
H841 C853 0.950 . S
H842 C850 0.950 . S
H843 C852 0.950 . S
H844 C854 0.950 . S
H845 C856 0.950 . S
H846 C858 0.950 . S
H847 C859 0.950 . S
C848 H840 0.950 . S
C848 C849 1.386 . S
C848 C850 1.391 . S
C849 C848 1.386 . S
C849 C853 1.393 . S
C850 H842 0.950 . S
C850 C848 1.391 . S
C850 C851 1.400 . S
C851 C850 1.400 . S
C851 C852 1.398 . S
C851 C857 1.491 . S
C852 H843 0.950 . S
C852 C851 1.398 . S
C852 C853 1.391 . S
C853 H841 0.950 . S
C853 C849 1.393 . S
C853 C852 1.391 . S
C854 H844 0.950 . S
C854 C855 1.386 . S
C854 C856 1.391 . S
C855 C854 1.386 . S
C855 C859 1.393 . S
C856 H845 0.950 . S
C856 C854 1.391 . S
C856 C857 1.400 . S
C857 C851 1.491 . S
C857 C856 1.400 . S
C857 C858 1.398 . S
C858 H846 0.950 . S
C858 C857 1.398 . S
C858 C859 1.391 . S
C859 H847 0.950 . S
C859 C855 1.393 . S
C859 C858 1.391 . S
H860 C868 0.950 . S
H861 C873 0.950 . S
H862 C870 0.950 . S
H863 C872 0.950 . S
H864 C874 0.950 . S
H865 C876 0.950 . S
H866 C878 0.950 . S
H867 C879 0.950 . S
C868 H860 0.950 . S
C868 C869 1.386 . S
C868 C870 1.391 . S
C869 C868 1.386 . S
C869 C873 1.393 . S
C870 H862 0.950 . S
C870 C868 1.391 . S
C870 C871 1.400 . S
C871 C870 1.400 . S
C871 C872 1.398 . S
C871 C877 1.491 . S
C872 H863 0.950 . S
C872 C871 1.398 . S
C872 C873 1.391 . S
C873 H861 0.950 . S
C873 C869 1.393 . S
C873 C872 1.391 . S
C874 H864 0.950 . S
C874 C875 1.386 . S
C874 C876 1.391 . S
C875 C874 1.386 . S
C875 C879 1.393 . S
C876 H865 0.950 . S
C876 C874 1.391 . S
C876 C877 1.400 . S
C877 C871 1.491 . S
C877 C876 1.400 . S
C877 C878 1.398 . S
C878 H866 0.950 . S
C878 C877 1.398 . S
C878 C879 1.391 . S
C879 H867 0.950 . S
C879 C875 1.393 . S
C879 C878 1.391 . S
H880 C888 0.950 . S
H881 C893 0.950 . S
H882 C890 0.950 . S
H883 C892 0.950 . S
H884 C894 0.950 . S
H885 C896 0.950 . S
H886 C898 0.950 . S
H887 C899 0.950 . S
C888 H880 0.950 . S
C888 C889 1.386 . S
C888 C890 1.391 1_565 S
C889 C888 1.386 . S
C889 C893 1.393 . S
C890 H882 0.950 . S
C890 C888 1.391 1_545 S
C890 C891 1.400 . S
C891 C890 1.400 . S
C891 C892 1.398 1_545 S
C891 C897 1.491 . S
C892 H883 0.950 . S
C892 C891 1.398 1_565 S
C892 C893 1.391 . S
C893 H881 0.950 . S
C893 C889 1.393 . S
C893 C892 1.391 . S
C894 H884 0.950 . S
C894 C895 1.386 . S
C894 C896 1.391 . S
C895 C894 1.386 . S
C895 C899 1.393 . S
C896 H885 0.950 . S
C896 C894 1.391 . S
C896 C897 1.400 . S
C897 C891 1.491 . S
C897 C896 1.400 . S
C897 C898 1.398 . S
C898 H886 0.950 . S
C898 C897 1.398 . S
C898 C899 1.391 . S
C899 H887 0.950 . S
C899 C895 1.393 . S
C899 C898 1.391 . S
H900 C908 0.950 . S
H901 C913 0.950 . S
H902 C910 0.950 . S
H903 C912 0.950 . S
H904 C914 0.950 . S
H905 C916 0.950 1_455 S
H906 C918 0.950 . S
H907 C919 0.950 . S
C908 H900 0.950 . S
C908 C909 1.386 . S
C908 C910 1.391 . S
C909 C908 1.386 . S
C909 C913 1.393 . S
C910 H902 0.950 . S
C910 C908 1.391 . S
C910 C911 1.400 . S
C911 C910 1.400 . S
C911 C912 1.398 . S
C911 C917 1.491 . S
C912 H903 0.950 . S
C912 C911 1.398 . S
C912 C913 1.391 . S
C913 H901 0.950 . S
C913 C909 1.393 . S
C913 C912 1.391 . S
C914 H904 0.950 . S
C914 C915 1.386 . S
C914 C916 1.391 . S
C915 C914 1.386 . S
C915 C919 1.393 . S
C916 H905 0.950 1_655 S
C916 C914 1.391 . S
C916 C917 1.400 1_655 S
C917 C911 1.491 . S
C917 C916 1.400 1_455 S
C917 C918 1.398 . S
C918 H906 0.950 . S
C918 C917 1.398 . S
C918 C919 1.391 1_455 S
C919 H907 0.950 . S
C919 C915 1.393 . S
C919 C918 1.391 1_655 S
H920 C928 0.950 . S
H921 C933 0.950 . S
H922 C930 0.950 . S
H923 C932 0.950 . S
H924 C934 0.950 . S
H925 C936 0.950 . S
H926 C938 0.950 . S
H927 C939 0.950 . S
C928 H920 0.950 . S
C928 C929 1.386 . S
C928 C930 1.391 . S
C929 C928 1.386 . S
C929 C933 1.393 . S
C930 H922 0.950 . S
C930 C928 1.391 . S
C930 C931 1.400 . S
C931 C930 1.400 . S
C931 C932 1.398 . S
C931 C937 1.491 . S
C932 H923 0.950 . S
C932 C931 1.398 . S
C932 C933 1.391 . S
C933 H921 0.950 . S
C933 C929 1.393 . S
C933 C932 1.391 . S
C934 H924 0.950 . S
C934 C935 1.386 . S
C934 C936 1.391 1_545 S
C935 C934 1.386 . S
C935 C939 1.393 . S
C936 H925 0.950 . S
C936 C934 1.391 1_565 S
C936 C937 1.400 . S
C937 C931 1.491 . S
C937 C936 1.400 . S
C937 C938 1.398 1_565 S
C938 H926 0.950 . S
C938 C937 1.398 1_545 S
C938 C939 1.391 . S
C939 H927 0.950 . S
C939 C935 1.393 . S
C939 C938 1.391 . S
H940 C948 0.950 . S
H941 C953 0.950 . S
H942 C950 0.950 . S
H943 C952 0.950 . S
H944 C954 0.950 . S
H945 C956 0.950 . S
H946 C958 0.950 . S
H947 C959 0.950 . S
C948 H940 0.950 . S
C948 C949 1.386 . S
C948 C950 1.391 . S
C949 C948 1.386 . S
C949 C953 1.393 . S
C950 H942 0.950 . S
C950 C948 1.391 . S
C950 C951 1.400 1_455 S
C951 C950 1.400 1_655 S
C951 C952 1.398 . S
C951 C957 1.491 . S
C952 H943 0.950 . S
C952 C951 1.398 . S
C952 C953 1.391 1_655 S
C953 H941 0.950 . S
C953 C949 1.393 . S
C953 C952 1.391 1_455 S
C954 H944 0.950 . S
C954 C955 1.386 . S
C954 C956 1.391 . S
C955 C954 1.386 . S
C955 C959 1.393 . S
C956 H945 0.950 . S
C956 C954 1.391 . S
C956 C957 1.400 . S
C957 C951 1.491 . S
C957 C956 1.400 . S
C957 C958 1.398 . S
C958 H946 0.950 . S
C958 C957 1.398 . S
C958 C959 1.391 . S
C959 H947 0.950 . S
C959 C955 1.393 . S
C959 C958 1.391 . S
H960 C968 0.950 . S
H961 C973 0.950 . S
H962 C970 0.950 . S
H963 C972 0.950 . S
H964 C974 0.950 . S
H965 C976 0.950 . S
H966 C978 0.950 . S
H967 C979 0.950 . S
C968 H960 0.950 . S
C968 C969 1.386 . S
C968 C970 1.391 . S
C969 C968 1.386 . S
C969 C973 1.393 . S
C970 H962 0.950 . S
C970 C968 1.391 . S
C970 C971 1.400 . S
C971 C970 1.400 . S
C971 C972 1.398 . S
C971 C977 1.491 . S
C972 H963 0.950 . S
C972 C971 1.398 . S
C972 C973 1.391 . S
C973 H961 0.950 . S
C973 C969 1.393 . S
C973 C972 1.391 . S
C974 H964 0.950 . S
C974 C975 1.386 . S
C974 C976 1.391 . S
C975 C974 1.386 . S
C975 C979 1.393 . S
C976 H965 0.950 . S
C976 C974 1.391 . S
C976 C977 1.400 . S
C977 C971 1.491 . S
C977 C976 1.400 . S
C977 C978 1.398 . S
C978 H966 0.950 . S
C978 C977 1.398 . S
C978 C979 1.391 . S
C979 H967 0.950 . S
C979 C975 1.393 . S
C979 C978 1.391 . S
H980 C988 0.950 . S
H981 C993 0.950 . S
H982 C990 0.950 . S
H983 C992 0.950 . S
H984 C994 0.950 . S
H985 C996 0.950 . S
H986 C998 0.950 . S
H987 C999 0.950 . S
C988 H980 0.950 . S
C988 C989 1.386 . S
C988 C990 1.391 . S
C989 C988 1.386 . S
C989 C993 1.393 . S
C990 H982 0.950 . S
C990 C988 1.391 . S
C990 C991 1.400 . S
C991 C990 1.400 . S
C991 C992 1.398 . S
C991 C997 1.491 . S
C992 H983 0.950 . S
C992 C991 1.398 . S
C992 C993 1.391 . S
C993 H981 0.950 . S
C993 C989 1.393 . S
C993 C992 1.391 . S
C994 H984 0.950 . S
C994 C995 1.386 . S
C994 C996 1.391 . S
C995 C994 1.386 . S
C995 C999 1.393 . S
C996 H985 0.950 . S
C996 C994 1.391 . S
C996 C997 1.400 . S
C997 C991 1.491 . S
C997 C996 1.400 . S
C997 C998 1.398 . S
C998 H986 0.950 . S
C998 C997 1.398 . S
C998 C999 1.391 . S
C999 H987 0.950 . S
C999 C995 1.393 . S
C999 C998 1.391 . S
H1000 C1008 0.950 . S
H1001 C1013 0.950 . S
H1002 C1010 0.950 . S
H1003 C1012 0.950 . S
H1004 C1014 0.950 . S
H1005 C1016 0.950 . S
H1006 C1018 0.950 . S
H1007 C1019 0.950 . S
C1008 H1000 0.950 . S
C1008 C1009 1.386 . S
C1008 C1010 1.391 . S
C1009 C1008 1.386 . S
C1009 C1013 1.393 . S
C1010 H1002 0.950 . S
C1010 C1008 1.391 . S
C1010 C1011 1.400 . S
C1011 C1010 1.400 . S
C1011 C1012 1.398 . S
C1011 C1017 1.491 . S
C1012 H1003 0.950 . S
C1012 C1011 1.398 . S
C1012 C1013 1.391 . S
C1013 H1001 0.950 . S
C1013 C1009 1.393 . S
C1013 C1012 1.391 . S
C1014 H1004 0.950 . S
C1014 C1015 1.386 . S
C1014 C1016 1.391 . S
C1015 C1014 1.386 . S
C1015 C1019 1.393 . S
C1016 H1005 0.950 . S
C1016 C1014 1.391 . S
C1016 C1017 1.400 . S
C1017 C1011 1.491 . S
C1017 C1016 1.400 . S
C1017 C1018 1.398 . S
C1018 H1006 0.950 . S
C1018 C1017 1.398 . S
C1018 C1019 1.391 . S
C1019 H1007 0.950 . S
C1019 C1015 1.393 . S
C1019 C1018 1.391 . S
H1020 C1028 0.950 . S
H1021 C1033 0.950 . S
H1022 C1030 0.950 . S
H1023 C1032 0.950 . S
H1024 C1034 0.950 . S
H1025 C1036 0.950 . S
H1026 C1038 0.950 . S
H1027 C1039 0.950 . S
C1028 H1020 0.950 . S
C1028 C1029 1.386 . S
C1028 C1030 1.391 . S
C1029 C1028 1.386 . S
C1029 C1033 1.393 . S
C1030 H1022 0.950 . S
C1030 C1028 1.391 . S
C1030 C1031 1.400 . S
C1031 C1030 1.400 . S
C1031 C1032 1.398 . S
C1031 C1037 1.491 . S
C1032 H1023 0.950 . S
C1032 C1031 1.398 . S
C1032 C1033 1.391 . S
C1033 H1021 0.950 . S
C1033 C1029 1.393 . S
C1033 C1032 1.391 . S
C1034 H1024 0.950 . S
C1034 C1035 1.386 . S
C1034 C1036 1.391 . S
C1035 C1034 1.386 . S
C1035 C1039 1.393 . S
C1036 H1025 0.950 . S
C1036 C1034 1.391 . S
C1036 C1037 1.400 . S
C1037 C1031 1.491 . S
C1037 C1036 1.400 . S
C1037 C1038 1.398 . S
C1038 H1026 0.950 . S
C1038 C1037 1.398 . S
C1038 C1039 1.391 . S
C1039 H1027 0.950 . S
C1039 C1035 1.393 . S
C1039 C1038 1.391 . S
H1040 C1048 0.950 . S
H1041 C1053 0.950 . S
H1042 C1050 0.950 . S
H1043 C1052 0.950 . S
H1044 C1054 0.950 . S
H1045 C1056 0.950 . S
H1046 C1058 0.950 . S
H1047 C1059 0.950 . S
C1048 H1040 0.950 . S
C1048 C1049 1.386 . S
C1048 C1050 1.391 . S
C1049 C1048 1.386 . S
C1049 C1053 1.393 . S
C1050 H1042 0.950 . S
C1050 C1048 1.391 . S
C1050 C1051 1.400 . S
C1051 C1050 1.400 . S
C1051 C1052 1.398 . S
C1051 C1057 1.491 . S
C1052 H1043 0.950 . S
C1052 C1051 1.398 . S
C1052 C1053 1.391 . S
C1053 H1041 0.950 . S
C1053 C1049 1.393 . S
C1053 C1052 1.391 . S
C1054 H1044 0.950 . S
C1054 C1055 1.386 . S
C1054 C1056 1.391 . S
C1055 C1054 1.386 . S
C1055 C1059 1.393 . S
C1056 H1045 0.950 . S
C1056 C1054 1.391 . S
C1056 C1057 1.400 . S
C1057 C1051 1.491 . S
C1057 C1056 1.400 . S
C1057 C1058 1.398 . S
C1058 H1046 0.950 . S
C1058 C1057 1.398 . S
C1058 C1059 1.391 . S
C1059 H1047 0.950 . S
C1059 C1055 1.393 . S
C1059 C1058 1.391 . S
H1060 C1068 0.950 . S
H1061 C1073 0.950 . S
H1062 C1070 0.950 . S
H1063 C1072 0.950 . S
H1064 C1074 0.950 . S
H1065 C1076 0.950 . S
H1066 C1078 0.950 . S
H1067 C1079 0.950 . S
C1068 H1060 0.950 . S
C1068 C1069 1.386 . S
C1068 C1070 1.391 . S
C1069 C1068 1.386 . S
C1069 C1073 1.393 . S
C1070 H1062 0.950 . S
C1070 C1068 1.391 . S
C1070 C1071 1.400 . S
C1071 C1070 1.400 . S
C1071 C1072 1.398 . S
C1071 C1077 1.491 . S
C1072 H1063 0.950 . S
C1072 C1071 1.398 . S
C1072 C1073 1.391 . S
C1073 H1061 0.950 . S
C1073 C1069 1.393 . S
C1073 C1072 1.391 . S
C1074 H1064 0.950 . S
C1074 C1075 1.386 . S
C1074 C1076 1.391 . S
C1075 C1074 1.386 . S
C1075 C1079 1.393 . S
C1076 H1065 0.950 . S
C1076 C1074 1.391 . S
C1076 C1077 1.400 . S
C1077 C1071 1.491 . S
C1077 C1076 1.400 . S
C1077 C1078 1.398 . S
C1078 H1066 0.950 . S
C1078 C1077 1.398 . S
C1078 C1079 1.391 . S
C1079 H1067 0.950 . S
C1079 C1075 1.393 . S
C1079 C1078 1.391 . S
H1080 C1088 0.950 . S
H1081 C1093 0.950 . S
H1082 C1090 0.950 . S
H1083 C1092 0.950 . S
H1084 C1094 0.950 . S
H1085 C1096 0.950 . S
H1086 C1098 0.950 . S
H1087 C1099 0.950 . S
C1088 H1080 0.950 . S
C1088 C1089 1.386 . S
C1088 C1090 1.391 . S
C1089 C1088 1.386 . S
C1089 C1093 1.393 . S
C1090 H1082 0.950 . S
C1090 C1088 1.391 . S
C1090 C1091 1.400 . S
C1091 C1090 1.400 . S
C1091 C1092 1.398 . S
C1091 C1097 1.491 . S
C1092 H1083 0.950 . S
C1092 C1091 1.398 . S
C1092 C1093 1.391 . S
C1093 H1081 0.950 . S
C1093 C1089 1.393 . S
C1093 C1092 1.391 . S
C1094 H1084 0.950 . S
C1094 C1095 1.386 . S
C1094 C1096 1.391 . S
C1095 C1094 1.386 . S
C1095 C1099 1.393 . S
C1096 H1085 0.950 . S
C1096 C1094 1.391 . S
C1096 C1097 1.400 . S
C1097 C1091 1.491 . S
C1097 C1096 1.400 . S
C1097 C1098 1.398 . S
C1098 H1086 0.950 . S
C1098 C1097 1.398 . S
C1098 C1099 1.391 . S
C1099 H1087 0.950 . S
C1099 C1095 1.393 . S
C1099 C1098 1.391 . S
H1100 C1108 0.950 . S
H1101 C1113 0.950 . S
H1102 C1110 0.950 . S
H1103 C1112 0.950 . S
H1104 C1114 0.950 . S
H1105 C1116 0.950 . S
H1106 C1118 0.950 . S
H1107 C1119 0.950 . S
C1108 H1100 0.950 . S
C1108 C1109 1.386 . S
C1108 C1110 1.391 . S
C1109 C1108 1.386 . S
C1109 C1113 1.393 . S
C1110 H1102 0.950 . S
C1110 C1108 1.391 . S
C1110 C1111 1.400 . S
C1111 C1110 1.400 . S
C1111 C1112 1.398 . S
C1111 C1117 1.491 . S
C1112 H1103 0.950 . S
C1112 C1111 1.398 . S
C1112 C1113 1.391 . S
C1113 H1101 0.950 . S
C1113 C1109 1.393 . S
C1113 C1112 1.391 . S
C1114 H1104 0.950 . S
C1114 C1115 1.386 . S
C1114 C1116 1.391 . S
C1115 C1114 1.386 . S
C1115 C1119 1.393 . S
C1116 H1105 0.950 . S
C1116 C1114 1.391 . S
C1116 C1117 1.400 . S
C1117 C1111 1.491 . S
C1117 C1116 1.400 . S
C1117 C1118 1.398 . S
C1118 H1106 0.950 . S
C1118 C1117 1.398 . S
C1118 C1119 1.391 . S
C1119 H1107 0.950 . S
C1119 C1115 1.393 . S
C1119 C1118 1.391 . S
H1120 C1128 0.950 . S
H1121 C1133 0.950 . S
H1122 C1130 0.950 . S
H1123 C1132 0.950 . S
H1124 C1134 0.950 1_554 S
H1125 C1136 0.950 . S
H1126 C1138 0.950 . S
H1127 C1139 0.950 . S
C1128 H1120 0.950 . S
C1128 C1129 1.386 . S
C1128 C1130 1.391 . S
C1129 C1128 1.386 . S
C1129 C1133 1.393 . S
C1130 H1122 0.950 . S
C1130 C1128 1.391 . S
C1130 C1131 1.400 . S
C1131 C1130 1.400 . S
C1131 C1132 1.398 . S
C1131 C1137 1.491 . S
C1132 H1123 0.950 . S
C1132 C1131 1.398 . S
C1132 C1133 1.391 . S
C1133 H1121 0.950 . S
C1133 C1129 1.393 . S
C1133 C1132 1.391 . S
C1134 H1124 0.950 1_556 S
C1134 C1135 1.386 . S
C1134 C1136 1.391 . S
C1135 C1134 1.386 . S
C1135 C1139 1.393 . S
C1136 H1125 0.950 . S
C1136 C1134 1.391 . S
C1136 C1137 1.400 . S
C1137 C1131 1.491 . S
C1137 C1136 1.400 . S
C1137 C1138 1.398 . S
C1138 H1126 0.950 . S
C1138 C1137 1.398 . S
C1138 C1139 1.391 . S
C1139 H1127 0.950 . S
C1139 C1135 1.393 . S
C1139 C1138 1.391 . S
H1140 C1148 0.950 1_556 S
H1141 C1153 0.950 . S
H1142 C1150 0.950 . S
H1143 C1152 0.950 . S
H1144 C1154 0.950 . S
H1145 C1156 0.950 . S
H1146 C1158 0.950 . S
H1147 C1159 0.950 . S
C1148 H1140 0.950 1_554 S
C1148 C1149 1.386 . S
C1148 C1150 1.391 . S
C1149 C1148 1.386 . S
C1149 C1153 1.393 . S
C1150 H1142 0.950 . S
C1150 C1148 1.391 . S
C1150 C1151 1.400 . S
C1151 C1150 1.400 . S
C1151 C1152 1.398 . S
C1151 C1157 1.491 . S
C1152 H1143 0.950 . S
C1152 C1151 1.398 . S
C1152 C1153 1.391 . S
C1153 H1141 0.950 . S
C1153 C1149 1.393 . S
C1153 C1152 1.391 . S
C1154 H1144 0.950 . S
C1154 C1155 1.386 . S
C1154 C1156 1.391 . S
C1155 C1154 1.386 . S
C1155 C1159 1.393 . S
C1156 H1145 0.950 . S
C1156 C1154 1.391 . S
C1156 C1157 1.400 . S
C1157 C1151 1.491 . S
C1157 C1156 1.400 . S
C1157 C1158 1.398 . S
C1158 H1146 0.950 . S
C1158 C1157 1.398 . S
C1158 C1159 1.391 . S
C1159 H1147 0.950 . S
C1159 C1155 1.393 . S
C1159 C1158 1.391 . S
H1160 C1168 0.950 1_554 S
H1161 C1173 0.950 . S
H1162 C1170 0.950 . S
H1163 C1172 0.950 . S
H1164 C1174 0.950 . S
H1165 C1176 0.950 . S
H1166 C1178 0.950 . S
H1167 C1179 0.950 . S
C1168 H1160 0.950 1_556 S
C1168 C1169 1.386 . S
C1168 C1170 1.391 . S
C1169 C1168 1.386 . S
C1169 C1173 1.393 . S
C1170 H1162 0.950 . S
C1170 C1168 1.391 . S
C1170 C1171 1.400 . S
C1171 C1170 1.400 . S
C1171 C1172 1.398 . S
C1171 C1177 1.491 . S
C1172 H1163 0.950 . S
C1172 C1171 1.398 . S
C1172 C1173 1.391 . S
C1173 H1161 0.950 . S
C1173 C1169 1.393 . S
C1173 C1172 1.391 . S
C1174 H1164 0.950 . S
C1174 C1175 1.386 . S
C1174 C1176 1.391 . S
C1175 C1174 1.386 . S
C1175 C1179 1.393 . S
C1176 H1165 0.950 . S
C1176 C1174 1.391 . S
C1176 C1177 1.400 . S
C1177 C1171 1.491 . S
C1177 C1176 1.400 . S
C1177 C1178 1.398 . S
C1178 H1166 0.950 . S
C1178 C1177 1.398 . S
C1178 C1179 1.391 . S
C1179 H1167 0.950 . S
C1179 C1175 1.393 . S
C1179 C1178 1.391 . S
H1180 C1188 0.950 . S
H1181 C1193 0.950 1_556 S
H1182 C1190 0.950 . S
H1183 C1192 0.950 . S
H1184 C1194 0.950 . S
H1185 C1196 0.950 . S
H1186 C1198 0.950 . S
H1187 C1199 0.950 . S
C1188 H1180 0.950 . S
C1188 C1189 1.386 . S
C1188 C1190 1.391 . S
C1189 C1188 1.386 . S
C1189 C1193 1.393 . S
C1190 H1182 0.950 . S
C1190 C1188 1.391 . S
C1190 C1191 1.400 . S
C1191 C1190 1.400 . S
C1191 C1192 1.398 . S
C1191 C1197 1.491 . S
C1192 H1183 0.950 . S
C1192 C1191 1.398 . S
C1192 C1193 1.391 . S
C1193 H1181 0.950 1_554 S
C1193 C1189 1.393 . S
C1193 C1192 1.391 . S
C1194 H1184 0.950 . S
C1194 C1195 1.386 . S
C1194 C1196 1.391 . S
C1195 C1194 1.386 . S
C1195 C1199 1.393 . S
C1196 H1185 0.950 . S
C1196 C1194 1.391 . S
C1196 C1197 1.400 . S
C1197 C1191 1.491 . S
C1197 C1196 1.400 . S
C1197 C1198 1.398 . S
C1198 H1186 0.950 . S
C1198 C1197 1.398 . S
C1198 C1199 1.391 . S
C1199 H1187 0.950 . S
C1199 C1195 1.393 . S
C1199 C1198 1.391 . S
H1200 C1208 0.950 . S
H1201 C1213 0.950 . S
H1202 C1210 0.950 . S
H1203 C1212 0.950 . S
H1204 C1214 0.950 . S
H1205 C1216 0.950 . S
H1206 C1218 0.950 . S
H1207 C1219 0.950 . S
C1208 H1200 0.950 . S
C1208 C1209 1.386 . S
C1208 C1210 1.391 . S
C1209 C1208 1.386 . S
C1209 C1213 1.393 . S
C1210 H1202 0.950 . S
C1210 C1208 1.391 . S
C1210 C1211 1.400 . S
C1211 C1210 1.400 . S
C1211 C1212 1.398 . S
C1211 C1217 1.491 . S
C1212 H1203 0.950 . S
C1212 C1211 1.398 . S
C1212 C1213 1.391 . S
C1213 H1201 0.950 . S
C1213 C1209 1.393 . S
C1213 C1212 1.391 . S
C1214 H1204 0.950 . S
C1214 C1215 1.386 . S
C1214 C1216 1.391 . S
C1215 C1214 1.386 . S
C1215 C1219 1.393 . S
C1216 H1205 0.950 . S
C1216 C1214 1.391 . S
C1216 C1217 1.400 . S
C1217 C1211 1.491 . S
C1217 C1216 1.400 . S
C1217 C1218 1.398 . S
C1218 H1206 0.950 . S
C1218 C1217 1.398 . S
C1218 C1219 1.391 . S
C1219 H1207 0.950 . S
C1219 C1215 1.393 . S
C1219 C1218 1.391 . S
H1220 C1228 0.950 . S
H1221 C1233 0.950 . S
H1222 C1230 0.950 . S
H1223 C1232 0.950 . S
H1224 C1234 0.950 . S
H1225 C1236 0.950 . S
H1226 C1238 0.950 . S
H1227 C1239 0.950 . S
C1228 H1220 0.950 . S
C1228 C1229 1.386 . S
C1228 C1230 1.391 . S
C1229 C1228 1.386 . S
C1229 C1233 1.393 . S
C1230 H1222 0.950 . S
C1230 C1228 1.391 . S
C1230 C1231 1.400 . S
C1231 C1230 1.400 . S
C1231 C1232 1.398 . S
C1231 C1237 1.491 . S
C1232 H1223 0.950 . S
C1232 C1231 1.398 . S
C1232 C1233 1.391 . S
C1233 H1221 0.950 . S
C1233 C1229 1.393 . S
C1233 C1232 1.391 . S
C1234 H1224 0.950 . S
C1234 C1235 1.386 . S
C1234 C1236 1.391 . S
C1235 C1234 1.386 . S
C1235 C1239 1.393 . S
C1236 H1225 0.950 . S
C1236 C1234 1.391 . S
C1236 C1237 1.400 . S
C1237 C1231 1.491 . S
C1237 C1236 1.400 . S
C1237 C1238 1.398 . S
C1238 H1226 0.950 . S
C1238 C1237 1.398 . S
C1238 C1239 1.391 . S
C1239 H1227 0.950 . S
C1239 C1235 1.393 . S
C1239 C1238 1.391 . S
H1240 C1248 0.950 . S
H1241 C1253 0.950 . S
H1242 C1250 0.950 . S
H1243 C1252 0.950 . S
H1244 C1254 0.950 . S
H1245 C1256 0.950 . S
H1246 C1258 0.950 . S
H1247 C1259 0.950 . S
C1248 H1240 0.950 . S
C1248 C1249 1.386 . S
C1248 C1250 1.391 . S
C1249 C1248 1.386 . S
C1249 C1253 1.393 . S
C1250 H1242 0.950 . S
C1250 C1248 1.391 . S
C1250 C1251 1.400 . S
C1251 C1250 1.400 . S
C1251 C1252 1.398 . S
C1251 C1257 1.491 . S
C1252 H1243 0.950 . S
C1252 C1251 1.398 . S
C1252 C1253 1.391 . S
C1253 H1241 0.950 . S
C1253 C1249 1.393 . S
C1253 C1252 1.391 . S
C1254 H1244 0.950 . S
C1254 C1255 1.386 . S
C1254 C1256 1.391 . S
C1255 C1254 1.386 . S
C1255 C1259 1.393 . S
C1256 H1245 0.950 . S
C1256 C1254 1.391 . S
C1256 C1257 1.400 . S
C1257 C1251 1.491 . S
C1257 C1256 1.400 . S
C1257 C1258 1.398 . S
C1258 H1246 0.950 . S
C1258 C1257 1.398 . S
C1258 C1259 1.391 . S
C1259 H1247 0.950 . S
C1259 C1255 1.393 . S
C1259 C1258 1.391 . S
H1260 C1268 0.950 . S
H1261 C1273 0.950 . S
H1262 C1270 0.950 . S
H1263 C1272 0.950 . S
H1264 C1274 0.950 . S
H1265 C1276 0.950 . S
H1266 C1278 0.950 . S
H1267 C1279 0.950 . S
C1268 H1260 0.950 . S
C1268 C1269 1.386 . S
C1268 C1270 1.391 . S
C1269 C1268 1.386 . S
C1269 C1273 1.393 . S
C1270 H1262 0.950 . S
C1270 C1268 1.391 . S
C1270 C1271 1.400 . S
C1271 C1270 1.400 . S
C1271 C1272 1.398 . S
C1271 C1277 1.491 . S
C1272 H1263 0.950 . S
C1272 C1271 1.398 . S
C1272 C1273 1.391 . S
C1273 H1261 0.950 . S
C1273 C1269 1.393 . S
C1273 C1272 1.391 . S
C1274 H1264 0.950 . S
C1274 C1275 1.386 . S
C1274 C1276 1.391 . S
C1275 C1274 1.386 . S
C1275 C1279 1.393 . S
C1276 H1265 0.950 . S
C1276 C1274 1.391 . S
C1276 C1277 1.400 . S
C1277 C1271 1.491 . S
C1277 C1276 1.400 . S
C1277 C1278 1.398 . S
C1278 H1266 0.950 . S
C1278 C1277 1.398 . S
C1278 C1279 1.391 . S
C1279 H1267 0.950 . S
C1279 C1275 1.393 . S
C1279 C1278 1.391 . S
H1280 C1288 0.950 . S
H1281 C1293 0.950 . S
H1282 C1290 0.950 . S
H1283 C1292 0.950 . S
H1284 C1294 0.950 . S
H1285 C1296 0.950 . S
H1286 C1298 0.950 . S
H1287 C1299 0.950 . S
C1288 H1280 0.950 . S
C1288 C1289 1.386 . S
C1288 C1290 1.391 . S
C1289 C1288 1.386 . S
C1289 C1293 1.393 . S
C1290 H1282 0.950 . S
C1290 C1288 1.391 . S
C1290 C1291 1.400 . S
C1291 C1290 1.400 . S
C1291 C1292 1.398 . S
C1291 C1297 1.491 . S
C1292 H1283 0.950 . S
C1292 C1291 1.398 . S
C1292 C1293 1.391 . S
C1293 H1281 0.950 . S
C1293 C1289 1.393 . S
C1293 C1292 1.391 . S
C1294 H1284 0.950 . S
C1294 C1295 1.386 . S
C1294 C1296 1.391 . S
C1295 C1294 1.386 . S
C1295 C1299 1.393 . S
C1296 H1285 0.950 . S
C1296 C1294 1.391 . S
C1296 C1297 1.400 . S
C1297 C1291 1.491 . S
C1297 C1296 1.400 . S
C1297 C1298 1.398 . S
C1298 H1286 0.950 . S
C1298 C1297 1.398 . S
C1298 C1299 1.391 . S
C1299 H1287 0.950 . S
C1299 C1295 1.393 . S
C1299 C1298 1.391 . S
H1300 C1308 0.950 . S
H1301 C1313 0.950 . S
H1302 C1310 0.950 . S
H1303 C1312 0.950 . S
H1304 C1314 0.950 . S
H1305 C1316 0.950 . S
H1306 C1318 0.950 . S
H1307 C1319 0.950 . S
C1308 H1300 0.950 . S
C1308 C1309 1.386 . S
C1308 C1310 1.391 . S
C1309 C1308 1.386 . S
C1309 C1313 1.393 . S
C1310 H1302 0.950 . S
C1310 C1308 1.391 . S
C1310 C1311 1.400 . S
C1311 C1310 1.400 . S
C1311 C1312 1.398 . S
C1311 C1317 1.491 . S
C1312 H1303 0.950 . S
C1312 C1311 1.398 . S
C1312 C1313 1.391 . S
C1313 H1301 0.950 . S
C1313 C1309 1.393 . S
C1313 C1312 1.391 . S
C1314 H1304 0.950 . S
C1314 C1315 1.386 . S
C1314 C1316 1.391 . S
C1315 C1314 1.386 . S
C1315 C1319 1.393 . S
C1316 H1305 0.950 . S
C1316 C1314 1.391 . S
C1316 C1317 1.400 . S
C1317 C1311 1.491 . S
C1317 C1316 1.400 . S
C1317 C1318 1.398 . S
C1318 H1306 0.950 . S
C1318 C1317 1.398 . S
C1318 C1319 1.391 . S
C1319 H1307 0.950 . S
C1319 C1315 1.393 . S
C1319 C1318 1.391 . S
H1320 C1328 0.950 . S
H1321 C1333 0.950 . S
H1322 C1330 0.950 . S
H1323 C1332 0.950 . S
H1324 C1334 0.950 . S
H1325 C1336 0.950 . S
H1326 C1338 0.950 . S
H1327 C1339 0.950 . S
C1328 H1320 0.950 . S
C1328 C1329 1.386 . S
C1328 C1330 1.391 . S
C1329 C1328 1.386 . S
C1329 C1333 1.393 . S
C1330 H1322 0.950 . S
C1330 C1328 1.391 . S
C1330 C1331 1.400 . S
C1331 C1330 1.400 . S
C1331 C1332 1.398 . S
C1331 C1337 1.491 . S
C1332 H1323 0.950 . S
C1332 C1331 1.398 . S
C1332 C1333 1.391 . S
C1333 H1321 0.950 . S
C1333 C1329 1.393 . S
C1333 C1332 1.391 . S
C1334 H1324 0.950 . S
C1334 C1335 1.386 . S
C1334 C1336 1.391 . S
C1335 C1334 1.386 . S
C1335 C1339 1.393 . S
C1336 H1325 0.950 . S
C1336 C1334 1.391 . S
C1336 C1337 1.400 . S
C1337 C1331 1.491 . S
C1337 C1336 1.400 . S
C1337 C1338 1.398 . S
C1338 H1326 0.950 . S
C1338 C1337 1.398 . S
C1338 C1339 1.391 . S
C1339 H1327 0.950 . S
C1339 C1335 1.393 . S
C1339 C1338 1.391 . S
H1340 C1348 0.950 . S
H1341 C1353 0.950 . S
H1342 C1350 0.950 . S
H1343 C1352 0.950 . S
H1344 C1354 0.950 . S
H1345 C1356 0.950 . S
H1346 C1358 0.950 . S
H1347 C1359 0.950 . S
C1348 H1340 0.950 . S
C1348 C1349 1.386 . S
C1348 C1350 1.391 . S
C1349 C1348 1.386 . S
C1349 C1353 1.393 . S
C1350 H1342 0.950 . S
C1350 C1348 1.391 . S
C1350 C1351 1.400 . S
C1351 C1350 1.400 . S
C1351 C1352 1.398 . S
C1351 C1357 1.491 . S
C1352 H1343 0.950 . S
C1352 C1351 1.398 . S
C1352 C1353 1.391 . S
C1353 H1341 0.950 . S
C1353 C1349 1.393 . S
C1353 C1352 1.391 . S
C1354 H1344 0.950 . S
C1354 C1355 1.386 . S
C1354 C1356 1.391 . S
C1355 C1354 1.386 . S
C1355 C1359 1.393 . S
C1356 H1345 0.950 . S
C1356 C1354 1.391 . S
C1356 C1357 1.400 . S
C1357 C1351 1.491 . S
C1357 C1356 1.400 . S
C1357 C1358 1.398 . S
C1358 H1346 0.950 . S
C1358 C1357 1.398 . S
C1358 C1359 1.391 . S
C1359 H1347 0.950 . S
C1359 C1355 1.393 . S
C1359 C1358 1.391 . S
H1360 C1368 0.950 . S
H1361 C1373 0.950 . S
H1362 C1370 0.950 . S
H1363 C1372 0.950 . S
H1364 C1374 0.950 . S
H1365 C1376 0.950 . S
H1366 C1378 0.950 . S
H1367 C1379 0.950 . S
C1368 H1360 0.950 . S
C1368 C1369 1.386 . S
C1368 C1370 1.391 . S
C1369 C1368 1.386 . S
C1369 C1373 1.393 . S
C1370 H1362 0.950 . S
C1370 C1368 1.391 . S
C1370 C1371 1.400 . S
C1371 C1370 1.400 . S
C1371 C1372 1.398 . S
C1371 C1377 1.491 . S
C1372 H1363 0.950 . S
C1372 C1371 1.398 . S
C1372 C1373 1.391 . S
C1373 H1361 0.950 . S
C1373 C1369 1.393 . S
C1373 C1372 1.391 . S
C1374 H1364 0.950 . S
C1374 C1375 1.386 . S
C1374 C1376 1.391 . S
C1375 C1374 1.386 . S
C1375 C1379 1.393 . S
C1376 H1365 0.950 . S
C1376 C1374 1.391 . S
C1376 C1377 1.400 . S
C1377 C1371 1.491 . S
C1377 C1376 1.400 . S
C1377 C1378 1.398 . S
C1378 H1366 0.950 . S
C1378 C1377 1.398 . S
C1378 C1379 1.391 . S
C1379 H1367 0.950 . S
C1379 C1375 1.393 . S
C1379 C1378 1.391 . S
H1380 C1388 0.950 . S
H1381 C1393 0.950 . S
H1382 C1390 0.950 . S
H1383 C1392 0.950 . S
H1384 C1394 0.950 . S
H1385 C1396 0.950 . S
H1386 C1398 0.950 . S
H1387 C1399 0.950 . S
C1388 H1380 0.950 . S
C1388 C1389 1.386 . S
C1388 C1390 1.391 . S
C1389 C1388 1.386 . S
C1389 C1393 1.393 . S
C1390 H1382 0.950 . S
C1390 C1388 1.391 . S
C1390 C1391 1.400 . S
C1391 C1390 1.400 . S
C1391 C1392 1.398 . S
C1391 C1397 1.491 . S
C1392 H1383 0.950 . S
C1392 C1391 1.398 . S
C1392 C1393 1.391 . S
C1393 H1381 0.950 . S
C1393 C1389 1.393 . S
C1393 C1392 1.391 . S
C1394 H1384 0.950 . S
C1394 C1395 1.386 . S
C1394 C1396 1.391 . S
C1395 C1394 1.386 . S
C1395 C1399 1.393 . S
C1396 H1385 0.950 . S
C1396 C1394 1.391 . S
C1396 C1397 1.400 . S
C1397 C1391 1.491 . S
C1397 C1396 1.400 . S
C1397 C1398 1.398 . S
C1398 H1386 0.950 . S
C1398 C1397 1.398 . S
C1398 C1399 1.391 . S
C1399 H1387 0.950 . S
C1399 C1395 1.393 . S
C1399 C1398 1.391 . S
H1400 C1408 0.950 . S
H1401 C1413 0.950 . S
H1402 C1410 0.950 . S
H1403 C1412 0.950 . S
H1404 C1414 0.950 . S
H1405 C1416 0.950 . S
H1406 C1418 0.950 . S
H1407 C1419 0.950 . S
C1408 H1400 0.950 . S
C1408 C1409 1.386 . S
C1408 C1410 1.391 . S
C1409 C1408 1.386 . S
C1409 C1413 1.393 . S
C1410 H1402 0.950 . S
C1410 C1408 1.391 . S
C1410 C1411 1.400 . S
C1411 C1410 1.400 . S
C1411 C1412 1.398 . S
C1411 C1417 1.491 . S
C1412 H1403 0.950 . S
C1412 C1411 1.398 . S
C1412 C1413 1.391 . S
C1413 H1401 0.950 . S
C1413 C1409 1.393 . S
C1413 C1412 1.391 . S
C1414 H1404 0.950 . S
C1414 C1415 1.386 . S
C1414 C1416 1.391 . S
C1415 C1414 1.386 . S
C1415 C1419 1.393 . S
C1416 H1405 0.950 . S
C1416 C1414 1.391 . S
C1416 C1417 1.400 . S
C1417 C1411 1.491 . S
C1417 C1416 1.400 . S
C1417 C1418 1.398 . S
C1418 H1406 0.950 . S
C1418 C1417 1.398 . S
C1418 C1419 1.391 . S
C1419 H1407 0.950 . S
C1419 C1415 1.393 . S
C1419 C1418 1.391 . S
H1420 C1428 0.950 . S
H1421 C1433 0.950 . S
H1422 C1430 0.950 . S
H1423 C1432 0.950 . S
H1424 C1434 0.950 . S
H1425 C1436 0.950 . S
H1426 C1438 0.950 . S
H1427 C1439 0.950 . S
C1428 H1420 0.950 . S
C1428 C1429 1.386 . S
C1428 C1430 1.391 . S
C1429 C1428 1.386 . S
C1429 C1433 1.393 . S
C1430 H1422 0.950 . S
C1430 C1428 1.391 . S
C1430 C1431 1.400 . S
C1431 C1430 1.400 . S
C1431 C1432 1.398 . S
C1431 C1437 1.491 . S
C1432 H1423 0.950 . S
C1432 C1431 1.398 . S
C1432 C1433 1.391 . S
C1433 H1421 0.950 . S
C1433 C1429 1.393 . S
C1433 C1432 1.391 . S
C1434 H1424 0.950 . S
C1434 C1435 1.386 . S
C1434 C1436 1.391 . S
C1435 C1434 1.386 . S
C1435 C1439 1.393 . S
C1436 H1425 0.950 . S
C1436 C1434 1.391 . S
C1436 C1437 1.400 . S
C1437 C1431 1.491 . S
C1437 C1436 1.400 . S
C1437 C1438 1.398 . S
C1438 H1426 0.950 . S
C1438 C1437 1.398 . S
C1438 C1439 1.391 . S
C1439 H1427 0.950 . S
C1439 C1435 1.393 . S
C1439 C1438 1.391 . S
H1440 C1448 0.950 . S
H1441 C1453 0.950 1_556 S
H1442 C1450 0.950 . S
H1443 C1452 0.950 . S
H1444 C1454 0.950 . S
H1445 C1456 0.950 . S
H1446 C1458 0.950 . S
H1447 C1459 0.950 . S
C1448 H1440 0.950 . S
C1448 C1449 1.386 1_554 S
C1448 C1450 1.391 . S
C1449 C1448 1.386 1_556 S
C1449 C1453 1.393 1_556 S
C1450 H1442 0.950 . S
C1450 C1448 1.391 . S
C1450 C1451 1.400 . S
C1451 C1450 1.400 . S
C1451 C1452 1.398 . S
C1451 C1457 1.491 . S
C1452 H1443 0.950 . S
C1452 C1451 1.398 . S
C1452 C1453 1.391 . S
C1453 H1441 0.950 1_554 S
C1453 C1449 1.393 1_554 S
C1453 C1452 1.391 . S
C1454 H1444 0.950 . S
C1454 C1455 1.386 . S
C1454 C1456 1.391 . S
C1455 C1454 1.386 . S
C1455 C1459 1.393 . S
C1456 H1445 0.950 . S
C1456 C1454 1.391 . S
C1456 C1457 1.400 . S
C1457 C1451 1.491 . S
C1457 C1456 1.400 . S
C1457 C1458 1.398 . S
C1458 H1446 0.950 . S
C1458 C1457 1.398 . S
C1458 C1459 1.391 . S
C1459 H1447 0.950 . S
C1459 C1455 1.393 . S
C1459 C1458 1.391 . S
H1460 C1468 0.950 . S
H1461 C1473 0.950 . S
H1462 C1470 0.950 . S
H1463 C1472 0.950 . S
H1464 C1474 0.949 . S
H1465 C1476 0.950 . S
H1466 C1478 0.950 . S
H1467 C1479 0.950 . S
C1468 H1460 0.950 . S
C1468 C1469 1.386 . S
C1468 C1470 1.391 . S
C1469 C1468 1.386 . S
C1469 C1473 1.393 . S
C1470 H1462 0.950 . S
C1470 C1468 1.391 . S
C1470 C1471 1.400 . S
C1471 C1470 1.400 . S
C1471 C1472 1.398 . S
C1471 C1477 1.491 . S
C1472 H1463 0.950 . S
C1472 C1471 1.398 . S
C1472 C1473 1.391 . S
C1473 H1461 0.950 . S
C1473 C1469 1.393 . S
C1473 C1472 1.391 . S
C1474 H1464 0.949 . S
C1474 C1475 1.386 1_556 S
C1474 C1476 1.391 . S
C1475 C1474 1.386 1_554 S
C1475 C1479 1.393 1_554 S
C1476 H1465 0.950 . S
C1476 C1474 1.391 . S
C1476 C1477 1.400 . S
C1477 C1471 1.491 . S
C1477 C1476 1.400 . S
C1477 C1478 1.398 . S
C1478 H1466 0.950 . S
C1478 C1477 1.398 . S
C1478 C1479 1.391 . S
C1479 H1467 0.950 . S
C1479 C1475 1.393 1_556 S
C1479 C1478 1.391 . S
H1480 C1488 0.950 . S
H1481 C1493 0.950 . S
H1482 C1490 0.950 . S
H1483 C1492 0.950 . S
H1484 C1494 0.950 . S
H1485 C1496 0.950 . S
H1486 C1498 0.950 . S
H1487 C1499 0.950 1_556 S
C1488 H1480 0.950 . S
C1488 C1489 1.386 . S
C1488 C1490 1.391 . S
C1489 C1488 1.386 . S
C1489 C1493 1.393 . S
C1490 H1482 0.950 . S
C1490 C1488 1.391 . S
C1490 C1491 1.400 . S
C1491 C1490 1.400 . S
C1491 C1492 1.398 . S
C1491 C1497 1.491 . S
C1492 H1483 0.950 . S
C1492 C1491 1.398 . S
C1492 C1493 1.391 . S
C1493 H1481 0.950 . S
C1493 C1489 1.393 . S
C1493 C1492 1.391 . S
C1494 H1484 0.950 . S
C1494 C1495 1.386 1_554 S
C1494 C1496 1.391 . S
C1495 C1494 1.386 1_556 S
C1495 C1499 1.393 1_556 S
C1496 H1485 0.950 . S
C1496 C1494 1.391 . S
C1496 C1497 1.400 . S
C1497 C1491 1.491 . S
C1497 C1496 1.400 . S
C1497 C1498 1.398 . S
C1498 H1486 0.950 . S
C1498 C1497 1.398 . S
C1498 C1499 1.391 . S
C1499 H1487 0.950 1_554 S
C1499 C1495 1.393 1_554 S
C1499 C1498 1.391 . S
H1500 C1508 0.950 . S
H1501 C1513 0.950 1_554 S
H1502 C1510 0.950 . S
H1503 C1512 0.950 . S
H1504 C1514 0.950 . S
H1505 C1516 0.950 . S
H1506 C1518 0.950 . S
H1507 C1519 0.950 . S
C1508 H1500 0.950 . S
C1508 C1509 1.386 1_556 S
C1508 C1510 1.391 . S
C1509 C1508 1.386 1_554 S
C1509 C1513 1.393 1_554 S
C1510 H1502 0.950 . S
C1510 C1508 1.391 . S
C1510 C1511 1.400 . S
C1511 C1510 1.400 . S
C1511 C1512 1.398 . S
C1511 C1517 1.491 . S
C1512 H1503 0.950 . S
C1512 C1511 1.398 . S
C1512 C1513 1.391 . S
C1513 H1501 0.950 1_556 S
C1513 C1509 1.393 1_556 S
C1513 C1512 1.391 . S
C1514 H1504 0.950 . S
C1514 C1515 1.386 . S
C1514 C1516 1.391 . S
C1515 C1514 1.386 . S
C1515 C1519 1.393 . S
C1516 H1505 0.950 . S
C1516 C1514 1.391 . S
C1516 C1517 1.400 . S
C1517 C1511 1.491 . S
C1517 C1516 1.400 . S
C1517 C1518 1.398 . S
C1518 H1506 0.950 . S
C1518 C1517 1.398 . S
C1518 C1519 1.391 . S
C1519 H1507 0.950 . S
C1519 C1515 1.393 . S
C1519 C1518 1.391 . S
H1520 C1528 0.950 . S
H1521 C1533 0.950 . S
H1522 C1530 0.950 . S
H1523 C1532 0.950 . S
H1524 C1534 0.950 1_556 S
H1525 C1536 0.950 . S
H1526 C1538 0.950 . S
H1527 C1539 0.950 . S
C1528 H1520 0.950 . S
C1528 C1529 1.386 . S
C1528 C1530 1.391 . S
C1529 C1528 1.386 . S
C1529 C1533 1.393 . S
C1530 H1522 0.950 . S
C1530 C1528 1.391 . S
C1530 C1531 1.400 . S
C1531 C1530 1.400 . S
C1531 C1532 1.398 . S
C1531 C1537 1.491 . S
C1532 H1523 0.950 . S
C1532 C1531 1.398 . S
C1532 C1533 1.391 . S
C1533 H1521 0.950 . S
C1533 C1529 1.393 . S
C1533 C1532 1.391 . S
C1534 H1524 0.950 1_554 S
C1534 C1535 1.386 1_554 S
C1534 C1536 1.391 . S
C1535 C1534 1.386 1_556 S
C1535 C1539 1.393 1_556 S
C1536 H1525 0.950 . S
C1536 C1534 1.391 . S
C1536 C1537 1.400 . S
C1537 C1531 1.491 . S
C1537 C1536 1.400 . S
C1537 C1538 1.398 . S
C1538 H1526 0.950 . S
C1538 C1537 1.398 . S
C1538 C1539 1.391 . S
C1539 H1527 0.950 . S
C1539 C1535 1.393 1_554 S
C1539 C1538 1.391 . S
H1540 C1548 0.950 . S
H1541 C1553 0.950 1_554 S
H1542 C1550 0.950 . S
H1543 C1552 0.950 . S
H1544 C1554 0.950 . S
H1545 C1556 0.950 . S
H1546 C1558 0.950 . S
H1547 C1559 0.950 . S
C1548 H1540 0.950 . S
C1548 C1549 1.386 1_556 S
C1548 C1550 1.391 . S
C1549 C1548 1.386 1_554 S
C1549 C1553 1.393 1_554 S
C1550 H1542 0.950 . S
C1550 C1548 1.391 . S
C1550 C1551 1.400 . S
C1551 C1550 1.400 . S
C1551 C1552 1.398 . S
C1551 C1557 1.491 . S
C1552 H1543 0.950 . S
C1552 C1551 1.398 . S
C1552 C1553 1.391 . S
C1553 H1541 0.950 1_556 S
C1553 C1549 1.393 1_556 S
C1553 C1552 1.391 . S
C1554 H1544 0.950 . S
C1554 C1555 1.386 . S
C1554 C1556 1.391 . S
C1555 C1554 1.386 . S
C1555 C1559 1.393 . S
C1556 H1545 0.950 . S
C1556 C1554 1.391 . S
C1556 C1557 1.400 . S
C1557 C1551 1.491 . S
C1557 C1556 1.400 . S
C1557 C1558 1.398 . S
C1558 H1546 0.950 . S
C1558 C1557 1.398 . S
C1558 C1559 1.391 . S
C1559 H1547 0.950 . S
C1559 C1555 1.393 . S
C1559 C1558 1.391 . S
H1560 C1568 0.950 1_556 S
H1561 C1573 0.950 . S
H1562 C1570 0.950 . S
H1563 C1572 0.950 . S
H1564 C1574 0.950 . S
H1565 C1576 0.950 . S
H1566 C1578 0.950 . S
H1567 C1579 0.950 . S
C1568 H1560 0.950 1_554 S
C1568 C1569 1.386 1_554 S
C1568 C1570 1.391 . S
C1569 C1568 1.386 1_556 S
C1569 C1573 1.393 1_556 S
C1570 H1562 0.950 . S
C1570 C1568 1.391 . S
C1570 C1571 1.400 . S
C1571 C1570 1.400 . S
C1571 C1572 1.398 . S
C1571 C1577 1.491 . S
C1572 H1563 0.950 . S
C1572 C1571 1.398 . S
C1572 C1573 1.391 . S
C1573 H1561 0.950 . S
C1573 C1569 1.393 1_554 S
C1573 C1572 1.391 . S
C1574 H1564 0.950 . S
C1574 C1575 1.386 . S
C1574 C1576 1.391 . S
C1575 C1574 1.386 . S
C1575 C1579 1.393 . S
C1576 H1565 0.950 . S
C1576 C1574 1.391 . S
C1576 C1577 1.400 . S
C1577 C1571 1.491 . S
C1577 C1576 1.400 . S
C1577 C1578 1.398 . S
C1578 H1566 0.950 . S
C1578 C1577 1.398 . S
C1578 C1579 1.391 . S
C1579 H1567 0.950 . S
C1579 C1575 1.393 . S
C1579 C1578 1.391 . S
H1580 C1588 0.950 . S
H1581 C1593 0.950 . S
H1582 C1590 0.950 . S
H1583 C1592 0.950 . S
H1584 C1594 0.950 1_554 S
H1585 C1596 0.950 . S
H1586 C1598 0.950 . S
H1587 C1599 0.950 . S
C1588 H1580 0.950 . S
C1588 C1589 1.386 . S
C1588 C1590 1.391 . S
C1589 C1588 1.386 . S
C1589 C1593 1.393 . S
C1590 H1582 0.950 . S
C1590 C1588 1.391 . S
C1590 C1591 1.400 . S
C1591 C1590 1.400 . S
C1591 C1592 1.398 . S
C1591 C1597 1.491 . S
C1592 H1583 0.950 . S
C1592 C1591 1.398 . S
C1592 C1593 1.391 . S
C1593 H1581 0.950 . S
C1593 C1589 1.393 . S
C1593 C1592 1.391 . S
C1594 H1584 0.950 1_556 S
C1594 C1595 1.386 1_556 S
C1594 C1596 1.391 . S
C1595 C1594 1.386 1_554 S
C1595 C1599 1.393 1_554 S
C1596 H1585 0.950 . S
C1596 C1594 1.391 . S
C1596 C1597 1.400 . S
C1597 C1591 1.491 . S
C1597 C1596 1.400 . S
C1597 C1598 1.398 . S
C1598 H1586 0.950 . S
C1598 C1597 1.398 . S
C1598 C1599 1.391 . S
C1599 H1587 0.950 . S
C1599 C1595 1.393 1_556 S
C1599 C1598 1.391 . S
C649 C449 1.727 . S
C655 C8 1.705 . S
C669 C339 1.719 . S
C675 C58 1.689 . S
C689 C88 1.685 . S
C695 C369 1.711 . S
C709 C138 1.693 . S
C715 C419 1.713 . S
C729 C168 1.688 . S
C735 C209 1.719 . S
C749 C259 1.716 . S
C755 C218 1.685 . S
C769 C248 1.705 . S
C775 C289 1.727 . S
C789 C179 1.726 . S
C795 C298 1.699 . S
C809 C129 1.721 . S
C815 C328 1.691 . S
C829 C378 1.688 . S
C835 C19 1.711 . S
C849 C49 1.721 . S
C855 C408 1.704 . S
C869 C99 1.718 . S
C875 C458 1.687 . S
C889 C488 1.684 . S
C895 C529 1.712 . S
C909 C579 1.717 . S
C915 C538 1.699 . S
C929 C609 1.726 . S
C935 C568 1.700 . S
C949 C618 1.685 . S
C955 C499 1.715 . S
C969 C18 1.211 . S
C975 C178 1.191 . S
C989 C208 1.203 . S
C995 C48 1.185 . S
C1009 C98 1.217 . S
C1015 C258 1.201 . S
C1029 C128 1.186 . S
C1035 C288 1.182 . S
C1049 C338 1.181 . S
C1055 C498 1.188 . S
C1069 C528 1.195 . S
C1075 C368 1.181 . S
C1089 C418 1.201 . S
C1095 C578 1.183 . S
C1109 C448 1.186 . S
C1115 C608 1.182 . S
C1129 C569 2.298 . S
C1135 C9 2.297 1_556 S
C1149 C59 2.305 1_554 S
C1155 C619 2.308 . S
C1169 C89 2.299 1_556 S
C1175 C489 2.298 . S
C1189 C139 2.309 1_554 S
C1195 C539 2.307 . S
C1209 C169 2.309 . S
C1215 C409 2.308 . S
C1229 C219 2.302 . S
C1235 C459 2.305 . S
C1249 C249 2.301 . S
C1255 C329 2.304 . S
C1269 C379 2.297 . S
C1275 C299 2.298 . S
C1289 C15 1.011 . S
C1295 C5 1.011 . S
C1309 C45 1.014 . S
C1315 C55 1.014 . S
C1329 C95 1.007 . S
C1335 C85 1.007 . S
C1349 C135 1.006 . S
C1355 C125 1.006 . S
C1369 C165 1.006 . S
C1375 C175 1.006 . S
C1389 C205 1.012 . S
C1395 C215 1.012 . S
C1409 C255 1.014 . S
C1415 C245 1.014 . S
C1429 C295 1.007 . S
C1435 C285 1.007 . S
C1449 C335 1.014 . S
C1455 C325 1.014 . S
C1469 C375 1.014 . S
C1475 C365 1.014 . S
C1489 C405 1.011 . S
C1495 C415 1.011 . S
C1509 C445 1.006 . S
C1515 C455 1.006 . S
C1529 C495 1.012 . S
C1535 C485 1.012 . S
C1549 C535 1.014 . S
C1555 C525 1.014 . S
C1569 C565 1.015 . S
C1575 C575 1.015 . S
C1589 C605 1.010 . S
C1595 C615 1.010 . S
