# Generated by pormake.
# Topology vby, (6)-cn, num edge types: 1
# Building blocks:
#     Node 0, Type 0, BuildingBlock: NUHQIS_clean_sbu_0, # of connection points: 6
#     Node 1, Type 0, BuildingBlock: NUHQIS_clean_sbu_0, # of connection points: 6
#     Node 2, Type 0, BuildingBlock: NUHQIS_clean_sbu_0, # of connection points: 6
#     Node 3, Type 0, BuildingBlock: NUHQIS_clean_sbu_0, # of connection points: 6
#     Node 4, Type 0, BuildingBlock: NUHQIS_clean_sbu_0, # of connection points: 6
#     Node 5, Type 0, BuildingBlock: NUHQIS_clean_sbu_0, # of connection points: 6
#     Node 6, Type 0, BuildingBlock: NUHQIS_clean_sbu_0, # of connection points: 6
#     Node 7, Type 0, BuildingBlock: NUHQIS_clean_sbu_0, # of connection points: 6
#     Edge 8, Type (0, 0), BuildingBlock: OJICUG_clean_linker_0, # of connection points: 2
#     Edge 9, Type (0, 0), BuildingBlock: OJICUG_clean_linker_0, # of connection points: 2
#     Edge 10, Type (0, 0), BuildingBlock: OJICUG_clean_linker_0, # of connection points: 2
#     Edge 11, Type (0, 0), BuildingBlock: OJICUG_clean_linker_0, # of connection points: 2
#     Edge 12, Type (0, 0), BuildingBlock: OJICUG_clean_linker_0, # of connection points: 2
#     Edge 13, Type (0, 0), BuildingBlock: OJICUG_clean_linker_0, # of connection points: 2
#     Edge 14, Type (0, 0), BuildingBlock: OJICUG_clean_linker_0, # of connection points: 2
#     Edge 15, Type (0, 0), BuildingBlock: OJICUG_clean_linker_0, # of connection points: 2
#     Edge 16, Type (0, 0), BuildingBlock: OJICUG_clean_linker_0, # of connection points: 2
#     Edge 17, Type (0, 0), BuildingBlock: OJICUG_clean_linker_0, # of connection points: 2
#     Edge 18, Type (0, 0), BuildingBlock: OJICUG_clean_linker_0, # of connection points: 2
#     Edge 19, Type (0, 0), BuildingBlock: OJICUG_clean_linker_0, # of connection points: 2
#     Edge 20, Type (0, 0), BuildingBlock: OJICUG_clean_linker_0, # of connection points: 2
#     Edge 21, Type (0, 0), BuildingBlock: OJICUG_clean_linker_0, # of connection points: 2
#     Edge 22, Type (0, 0), BuildingBlock: OJICUG_clean_linker_0, # of connection points: 2
#     Edge 23, Type (0, 0), BuildingBlock: OJICUG_clean_linker_0, # of connection points: 2
#     Edge 24, Type (0, 0), BuildingBlock: OJICUG_clean_linker_0, # of connection points: 2
#     Edge 25, Type (0, 0), BuildingBlock: OJICUG_clean_linker_0, # of connection points: 2
#     Edge 26, Type (0, 0), BuildingBlock: OJICUG_clean_linker_0, # of connection points: 2
#     Edge 27, Type (0, 0), BuildingBlock: OJICUG_clean_linker_0, # of connection points: 2
#     Edge 28, Type (0, 0), BuildingBlock: OJICUG_clean_linker_0, # of connection points: 2
#     Edge 29, Type (0, 0), BuildingBlock: OJICUG_clean_linker_0, # of connection points: 2
#     Edge 30, Type (0, 0), BuildingBlock: OJICUG_clean_linker_0, # of connection points: 2
#     Edge 31, Type (0, 0), BuildingBlock: OJICUG_clean_linker_0, # of connection points: 2
# Relax obj value: 0.200
# Max RMSD: 0.236
# Mean RMSD: 0.224
data_MOF--net-vby--node1-NUHQIS_clean_sbu_0--edge1-OJICUG_clean_linker_0
_symmetry_space_group_name_H-M    P1
_symmetry_Int_Tables_number       1
_symmetry_cell_setting            triclinic
loop_
_symmetry_equiv_pos_as_xyz
'x, y, z'
_cell_length_a     11.260305
_cell_length_b     89.202997
_cell_length_c     22.03199
_cell_angle_alpha  86.297821
_cell_angle_beta   89.318112
_cell_angle_gamma 90.062791
loop_
_atom_site_label
_atom_site_type_symbol
_atom_site_fract_x
_atom_site_fract_y
_atom_site_fract_z
_atom_type_partial_charge
Tb0 Tb 0.09599 0.40467 0.01471 0.0
Eu1 Eu 0.09172 0.36679 0.01503 0.0
C2 C 0.06989 0.38421 0.13428 0.0
C3 C 0.33557 0.38562 0.01678 0.0
C4 C 0.07092 0.44844 0.00704 0.0
C5 C 1.01535 0.47206 0.04915 0.0
C6 C 1.0317 0.45652 0.05607 0.0
C7 C 0.08864 0.45622 0.95002 0.0
C8 C 0.07174 0.47182 0.94296 0.0
C9 C 1.03781 0.48002 -0.00712 0.0
C10 C 0.11456 0.43287 0.01944 0.0
O11 O 1.048 0.39909 0.92344 0.0
O12 O 0.14368 0.37634 0.92202 0.0
O13 O 0.9041 0.37429 -0.0007 0.0
O14 O 0.90688 0.39929 0.02238 0.0
C15 C 0.09382 0.38809 0.89381 0.0
O16 O 1.04444 0.3462 0.97161 0.0
O17 O 0.12374 0.3449 0.06141 0.0
O18 O 1.02293 0.37352 0.10458 0.0
O19 O 0.13167 0.3951 0.10615 0.0
O20 O 0.27865 0.39793 -0.00123 0.0
O21 O 0.28062 0.37301 0.03384 0.0
C22 C 0.84994 0.38688 0.01058 0.0
O23 O 0.06101 0.42414 0.06099 0.0
O24 O 0.15584 0.42542 0.97475 0.0
C25 C 0.13899 0.32306 0.0042 0.0
C26 C 0.22832 0.29373 -0.00727 0.0
C27 C 0.11546 0.29779 0.97058 0.0
C28 C 0.07142 0.31228 0.97632 0.0
C29 C 0.25337 0.31924 0.02475 0.0
C30 C 0.29774 0.30472 0.01889 0.0
C31 C 0.08209 0.33744 0.01715 0.0
H32 H 0.99117 0.47792 0.08901 0.0
H33 H 1.0199 0.45095 0.10091 0.0
H34 H 0.12042 0.45038 0.91142 0.0
H35 H 0.08817 0.47749 0.89872 0.0
H36 H 0.06052 0.28972 0.9492 0.0
H37 H 0.9827 0.31494 0.96045 0.0
H38 H 0.30714 0.32732 0.04681 0.0
H39 H 0.38478 0.30195 0.03671 0.0
Tb40 Tb 1.0199 0.6206 -0.00396 0.0
Eu41 Eu 1.02494 0.6585 0.98214 0.0
C42 C 1.0382 0.63977 0.10825 0.0
C43 C 0.78112 0.6398 0.99058 0.0
C44 C 1.03233 0.5766 0.00431 0.0
C45 C 1.03865 0.55118 0.05137 0.0
C46 C 1.03236 0.56669 0.0564 0.0
C47 C 1.04495 0.57072 0.94683 0.0
C48 C 1.05256 0.55512 0.94178 0.0
C49 C 1.04559 0.54518 -0.00599 0.0
C50 C 0.99809 0.59239 0.01166 0.0
O51 O 0.07571 0.6266 0.90296 0.0
O52 O 0.9882 0.64992 0.89062 0.0
O53 O 0.21316 0.65129 0.96773 0.0
O54 O 0.20877 0.62613 0.00192 0.0
C55 C 1.03671 0.63804 0.86819 0.0
O56 O 1.04372 0.67995 0.92782 0.0
O57 O 1.02047 0.67965 0.02572 0.0
O58 O 0.08795 0.65068 0.07458 0.0
O59 O 0.97801 0.62914 0.08399 0.0
O60 O 0.83912 0.62777 0.97571 0.0
O61 O 0.83547 0.65215 0.00438 0.0
C62 C 0.26661 0.63862 0.98463 0.0
O63 O 0.05722 0.60047 0.04832 0.0
O64 O 0.95556 0.60038 0.96531 0.0
C65 C 0.96301 0.70217 0.96911 0.0
C66 C 0.8672 0.7316 0.96531 0.0
C67 C 0.93131 0.72656 0.91531 0.0
C68 C 0.97902 0.71204 0.91733 0.0
C69 C 0.895 0.70698 0.01811 0.0
C70 C 0.84782 0.72149 0.01623 0.0
C71 C 1.03145 0.68796 0.97505 0.0
H72 H 1.03495 0.54383 0.09246 0.0
H73 H 1.02144 0.5709 0.10117 0.0
H74 H 1.04391 0.57809 0.9058 0.0
H75 H 0.0579 0.55082 0.89698 0.0
H76 H 0.9466 0.73393 0.87497 0.0
H77 H 1.03211 0.70871 0.87914 0.0
H78 H 0.88205 0.69976 0.05912 0.0
H79 H 0.80059 0.72498 0.05602 0.0
Tb80 Tb 0.1068 0.65682 0.48406 0.0
Eu81 Eu 0.11143 0.61895 0.48904 0.0
C82 C 0.10006 0.63921 0.36712 0.0
C83 C 0.86457 0.63783 0.48863 0.0
C84 C 0.16806 0.69934 0.48688 0.0
C85 C 0.26863 0.72194 0.44448 0.0
C86 C 0.22523 0.70744 0.43802 0.0
C87 C 0.15845 0.70594 0.54299 0.0
C88 C 0.20201 0.72046 0.54948 0.0
C89 C 0.25532 0.72878 0.4999 0.0
C90 C 0.1031 0.68529 0.47599 0.0
O91 O 0.1428 0.64889 0.57756 0.0
O92 O 1.05366 0.62556 0.58115 0.0
O93 O 0.2955 0.62641 0.50925 0.0
O94 O 0.2932 0.65102 0.47039 0.0
C95 C 0.093 0.63729 0.608 0.0
O96 O 0.16461 0.59725 0.53185 0.0
O97 O 0.08193 0.59834 0.44259 0.0
O98 O 0.15987 0.62836 0.39526 0.0
O99 O 1.04821 0.64962 0.39718 0.0
O100 O 0.92151 0.65038 0.49779 0.0
O101 O 0.91861 0.62509 0.47895 0.0
C102 C 0.35035 0.63883 0.4902 0.0
O103 O 0.14324 0.67709 0.43337 0.0
O104 O 0.06137 0.67707 0.52259 0.0
C105 C 0.09663 0.57381 0.49491 0.0
C106 C 0.07956 0.54213 0.50662 0.0
C107 C 0.08583 0.55044 0.55862 0.0
C108 C 0.09526 0.56616 0.55281 0.0
C109 C 0.08396 0.56551 0.44336 0.0
C110 C 0.0756 0.54987 0.4491 0.0
C111 C 0.13048 0.58983 0.48589 0.0
H112 H 0.31071 0.72791 0.4056 0.0
H113 H 0.23258 0.70279 0.3939 0.0
H114 H 0.11306 0.70015 0.58129 0.0
H115 H 0.18905 0.72542 0.59267 0.0
H116 H 0.08917 0.54476 0.60352 0.0
H117 H 0.10623 0.57224 0.59337 0.0
H118 H 0.08609 0.57108 0.39815 0.0
H119 H 0.06894 0.54379 0.40827 0.0
Tb120 Tb 0.99728 0.40279 0.50561 0.0
Eu121 Eu 0.9996 0.36503 0.52556 0.0
C122 C 1.00123 0.38246 0.39401 0.0
C123 C 0.75868 0.38356 0.51195 0.0
C124 C 1.02555 0.44614 0.49676 0.0
C125 C 0.07419 0.47097 0.45112 0.0
C126 C 1.05223 0.45572 0.44544 0.0
C127 C 1.026 0.45201 0.55451 0.0
C128 C 1.04836 0.46732 0.56029 0.0
C129 C 0.07007 0.47707 0.50846 0.0
C130 C 0.97895 0.43098 0.48722 0.0
O131 O 0.0587 0.39851 0.59797 0.0
O132 O 0.97965 0.37483 0.61643 0.0
O133 O 0.18741 0.3725 0.53972 0.0
O134 O 0.18507 0.3968 0.49592 0.0
C135 C 1.02697 0.38712 0.63532 0.0
O136 O 0.93336 0.34486 0.57696 0.0
O137 O 0.06916 0.3429 0.50722 0.0
O138 O 1.03764 0.37058 0.42666 0.0
O139 O 0.95487 0.39418 0.4185 0.0
O140 O 0.81658 0.39534 0.52934 0.0
O141 O 0.8144 0.37141 0.49671 0.0
C142 C 0.24233 0.38468 0.51717 0.0
O143 O 1.0379 0.42251 0.45139 0.0
O144 O 0.93009 0.42323 0.53314 0.0
C145 C 0.95304 0.32096 0.53527 0.0
C146 C 0.87992 0.29131 0.51563 0.0
C147 C 0.89344 0.29597 0.57494 0.0
C148 C 0.92951 0.31061 0.58454 0.0
C149 C 0.93813 0.31651 0.47583 0.0
C150 C 0.90182 0.30181 0.46611 0.0
C151 C 1.00141 0.33581 0.54809 0.0
H152 H 0.08853 0.4781 0.41002 0.0
H153 H 1.05029 0.45156 0.40031 0.0
H154 H 1.00485 0.44492 0.59497 0.0
H155 H 1.04613 0.47157 0.60522 0.0
H156 H 0.87936 0.28818 0.61414 0.0
H157 H 0.94177 0.31375 0.63077 0.0
H158 H 0.95595 0.3243 0.43701 0.0
H159 H 0.8909 0.29866 0.41985 0.0
Tb160 Tb 0.60674 0.90481 0.0192 0.0
Eu161 Eu 0.60254 0.86701 0.01788 0.0
C162 C 0.57878 0.88417 0.13804 0.0
C163 C 0.84618 0.88574 0.02048 0.0
C164 C 0.58696 0.94865 0.01196 0.0
C165 C 0.51481 0.972 0.05087 0.0
C166 C 0.52745 0.95636 0.05694 0.0
C167 C 0.62885 0.9569 0.95944 0.0
C168 C 0.61633 0.97254 0.95339 0.0
C169 C 0.56227 0.98035 -0.00015 0.0
C170 C 0.62633 0.93294 0.02574 0.0
O171 O 0.55858 0.89967 0.92737 0.0
O172 O 0.65274 0.87683 0.92486 0.0
O173 O 0.41475 0.87443 0.00234 0.0
O174 O 0.41745 0.89942 0.02556 0.0
C175 C 0.60292 0.88866 0.89717 0.0
O176 O 0.56184 0.84656 0.97269 0.0
O177 O 0.62952 0.84498 0.06503 0.0
O178 O 0.53265 0.87353 0.10774 0.0
O179 O 0.64136 0.89507 0.11046 0.0
O180 O 0.78912 0.89805 0.00256 0.0
O181 O 0.79123 0.87313 0.03748 0.0
C182 C 0.36057 0.88702 0.0136 0.0
O183 O 0.56617 0.92425 0.06486 0.0
O184 O 0.6733 0.9255 0.98244 0.0
C185 C 0.64928 0.82309 0.00851 0.0
C186 C 0.72532 0.79359 0.98848 0.0
C187 C 0.73344 0.80505 0.94155 0.0
C188 C 0.69501 0.81968 0.95135 0.0
C189 C 0.64532 0.81178 0.05575 0.0
C190 C 0.68279 0.79722 0.04593 0.0
C191 C 0.59319 0.83768 0.01922 0.0
H192 H 0.47357 0.97761 0.08782 0.0
H193 H 0.49633 0.95041 0.09854 0.0
H194 H 0.6766 0.95138 0.92424 0.0
H195 H 0.65209 0.97857 0.91299 0.0
H196 H 0.76562 0.80259 0.89676 0.0
H197 H 0.69831 0.82818 0.91396 0.0
H198 H 0.6098 0.81411 0.1001 0.0
H199 H 0.67735 0.78873 0.08331 0.0
Tb200 Tb 0.51913 0.12134 0.96797 0.0
Eu201 Eu 0.52516 0.15904 0.96222 0.0
C202 C 0.53094 0.13884 0.08634 0.0
C203 C 0.28055 0.14036 0.96623 0.0
C204 C 0.53899 0.07745 0.97969 0.0
C205 C 0.50986 0.05357 0.03835 0.0
C206 C 0.497 0.0692 0.03218 0.0
C207 C 0.59906 0.06975 0.93486 0.0
C208 C 0.61199 0.05411 0.94104 0.0
C209 C 0.56434 0.04576 -0.00798 0.0
C210 C 0.49865 0.09312 0.96596 0.0
O211 O 0.47396 0.1304 0.87726 0.0
O212 O 0.5928 0.151 0.87413 0.0
O213 O 0.71238 0.15169 0.97946 0.0
O214 O 0.70855 0.12662 0.95773 0.0
C215 C 0.53903 0.14047 0.84636 0.0
O216 O 0.50077 0.18041 0.90945 0.0
O217 O 0.56571 0.18021 0.00213 0.0
O218 O 0.47925 0.1504 0.05763 0.0
O219 O 0.57433 0.12762 0.05709 0.0
O220 O 0.33807 0.12831 0.9869 0.0
O221 O 0.33537 0.15273 0.94588 0.0
C222 C 0.76617 0.13904 0.9689 0.0
O223 O 0.458 0.10087 0.00992 0.0
O224 O 0.5533 0.10154 0.92374 0.0
C225 C 0.48104 0.20315 0.95995 0.0
C226 C 0.39444 0.2325 0.9734 0.0
C227 C 0.4674 0.22939 0.92357 0.0
C228 C 0.51006 0.2149 0.917 0.0
C229 C 0.40636 0.20604 0.00932 0.0
C230 C 0.36299 0.22061 0.01586 0.0
C231 C 0.53699 0.1884 0.95323 0.0
H232 H 0.47395 0.04754 0.07872 0.0
H233 H 0.44876 0.07472 0.06722 0.0
H234 H 0.63036 0.07568 0.89328 0.0
H235 H 0.65358 0.0485 0.90419 0.0
H236 H 0.49162 0.23819 0.88947 0.0
H237 H 0.56771 0.2129 0.87861 0.0
H238 H 0.38314 0.19714 0.04317 0.0
H239 H 0.30736 0.22265 0.0549 0.0
Tb240 Tb 0.60346 0.15757 0.46151 0.0
Eu241 Eu 0.60817 0.11989 0.46851 0.0
C242 C 0.59691 0.13965 0.34578 0.0
C243 C 0.36126 0.13863 0.46678 0.0
C244 C 0.66255 0.20008 0.46325 0.0
C245 C 0.73235 0.22459 0.42224 0.0
C246 C 0.68907 0.2102 0.41344 0.0
C247 C 0.68371 0.2045 0.52229 0.0
C248 C 0.72698 0.21893 0.53115 0.0
C249 C 0.74961 0.22926 0.48124 0.0
C250 C 0.59875 0.186 0.45227 0.0
O251 O 0.64389 0.14977 0.5546 0.0
O252 O 0.54617 0.12711 0.55914 0.0
O253 O 0.79198 0.12742 0.48912 0.0
O254 O 0.78976 0.15175 0.44729 0.0
C255 C 0.58962 0.13863 0.58579 0.0
O256 O 0.65983 0.09839 0.51377 0.0
O257 O 0.58129 0.09902 0.4238 0.0
O258 O 0.6592 0.12913 0.37466 0.0
O259 O 0.54276 0.1499 0.37574 0.0
O260 O 0.41837 0.15112 0.4767 0.0
O261 O 0.41548 0.12594 0.45649 0.0
C262 C 0.84704 0.13969 0.46851 0.0
O263 O 0.64085 0.17777 0.41019 0.0
O264 O 0.55623 0.17785 0.49887 0.0
C265 C 0.58234 0.07506 0.48057 0.0
C266 C 0.54336 0.04363 0.4963 0.0
C267 C 0.57073 0.05201 0.54634 0.0
C268 C 0.59047 0.06755 0.53853 0.0
C269 C 0.55041 0.06679 0.43117 0.0
C270 C 0.53118 0.05131 0.43887 0.0
C271 C 0.62621 0.09065 0.46861 0.0
H272 H 0.74729 0.23227 0.38278 0.0
H273 H 0.67183 0.20718 0.36749 0.0
H274 H 0.66362 0.19699 0.5617 0.0
H275 H 0.74095 0.22207 0.57719 0.0
H276 H 0.57933 0.04653 0.59137 0.0
H277 H 0.61635 0.07356 0.57746 0.0
H278 H 0.54599 0.07216 0.38572 0.0
H279 H 0.51241 0.04527 0.39898 0.0
Tb280 Tb 0.49593 0.90333 0.50861 0.0
Eu281 Eu 0.49815 0.8656 0.52955 0.0
C282 C 0.50197 0.88272 0.3975 0.0
C283 C 0.25771 0.88415 0.51557 0.0
C284 C 0.51288 0.94707 0.49434 0.0
C285 C 0.5331 0.97211 0.44482 0.0
C286 C 0.52223 0.95661 0.44133 0.0
C287 C 0.52102 0.95328 0.55126 0.0
C288 C 0.53304 0.96887 0.55477 0.0
C289 C 0.53521 0.97847 0.5015 0.0
C290 C 0.47433 0.93141 0.48807 0.0
O291 O 0.55775 0.89934 0.60118 0.0
O292 O 0.48147 0.87551 0.6204 0.0
O293 O 0.68646 0.87301 0.54275 0.0
O294 O 0.68414 0.89744 0.50009 0.0
C295 C 0.52823 0.8879 0.63884 0.0
O296 O 0.42857 0.84559 0.58062 0.0
O297 O 0.56804 0.84336 0.513 0.0
O298 O 0.53743 0.87086 0.43059 0.0
O299 O 0.45525 0.89448 0.42156 0.0
O300 O 0.31579 0.89586 0.53333 0.0
O301 O 0.31349 0.87204 0.49997 0.0
C302 C 0.74132 0.88526 0.52082 0.0
O303 O 0.53543 0.92294 0.45317 0.0
O304 O 0.42796 0.92383 0.5351 0.0
C305 C 0.44836 0.82154 0.53965 0.0
C306 C 0.38087 0.79146 0.52347 0.0
C307 C 0.36079 0.79787 0.57933 0.0
C308 C 0.39435 0.81269 0.58729 0.0
C309 C 0.46559 0.81535 0.48311 0.0
C310 C 0.43175 0.80047 0.47506 0.0
C311 C 0.49717 0.83639 0.55277 0.0
H312 H 0.53651 0.9792 0.403 0.0
H313 H 0.51506 0.95213 0.39695 0.0
H314 H 0.51296 0.9462 0.59293 0.0
H315 H 0.5345 0.97347 0.59907 0.0
H316 H 0.31995 0.79138 0.61726 0.0
H317 H 0.38094 0.81714 0.63149 0.0
H318 H 0.50797 0.82184 0.44563 0.0
H319 H 0.44918 0.79587 0.43153 0.0
C320 C 0.52866 0.39977 0.0113 0.0
C321 C 0.46713 0.38598 0.01578 0.0
H322 H 0.69765 0.41092 0.00651 0.0
C323 C 0.53258 0.37258 0.01842 0.0
H324 H 0.48087 0.41032 0.00935 0.0
C325 C 0.65657 0.37294 0.0161 0.0
C326 C 0.7183 0.38671 0.01184 0.0
H327 H 0.48813 0.36178 0.02165 0.0
H328 H 0.70399 0.36237 0.01824 0.0
C329 C 0.65295 0.40013 0.00977 0.0
C330 C 0.46369 0.62534 0.98836 0.0
C331 C 0.3983 0.63876 0.98596 0.0
H332 H 0.63582 0.61515 -0.00877 0.0
C333 C 0.45998 0.65251 0.98574 0.0
H334 H 0.41902 0.61458 0.98864 0.0
C335 C 0.58393 0.65284 0.98799 0.0
C336 C 0.64948 0.63945 0.98966 0.0
H337 H 0.4125 0.66308 0.98444 0.0
H338 H 0.62833 0.66363 0.98773 0.0
C339 C 0.58799 0.62569 0.98971 0.0
C340 C 0.67149 0.6519 0.48381 0.0
C341 C 0.73303 0.63816 0.48925 0.0
H342 H 0.50242 0.66294 0.47928 0.0
C343 C 0.66758 0.62473 0.49503 0.0
H344 H 0.71927 0.66247 0.479 0.0
C345 C 0.54361 0.62502 0.49575 0.0
C346 C 0.48191 0.63875 0.48995 0.0
H347 H 0.712 0.61395 0.49948 0.0
H348 H 0.4962 0.61443 0.5003 0.0
C349 C 0.5472 0.65219 0.48374 0.0
C350 C 0.5606 0.37048 0.51497 0.0
C351 C 0.62657 0.38389 0.51221 0.0
H352 H 0.38845 0.36022 0.51953 0.0
C353 C 0.56494 0.39764 0.51059 0.0
H354 H 0.60503 0.3597 0.51646 0.0
C355 C 0.44035 0.39796 0.51148 0.0
C356 C 0.37448 0.38453 0.51529 0.0
H357 H 0.61302 0.40819 0.50818 0.0
H358 H 0.39572 0.40873 0.51004 0.0
C359 C 0.43626 0.3708 0.51707 0.0
C360 C 1.03925 0.8999 0.01477 0.0
C361 C 0.97775 0.88611 0.01927 0.0
H362 H 0.2082 0.91105 0.00981 0.0
C363 C 1.04324 0.87271 0.02166 0.0
H364 H 0.99143 0.91044 0.01301 0.0
C365 C 0.16722 0.87308 0.0191 0.0
C366 C 0.22892 0.88685 0.01486 0.0
H367 H 0.99882 0.8619 0.02487 0.0
H368 H 0.21466 0.8625 0.02109 0.0
C369 C 0.16353 0.90027 0.01303 0.0
C370 C 0.08342 0.15331 0.96105 0.0
C371 C 0.14899 0.13994 0.96692 0.0
H372 H 0.91197 0.16349 0.9575 0.0
C373 C 0.08758 0.12615 0.97334 0.0
H374 H 0.12776 0.16411 0.95617 0.0
C375 C 0.96322 0.12576 0.97352 0.0
C376 C 0.8978 0.13916 0.96823 0.0
H377 H 0.13556 0.11562 0.97768 0.0
H378 H 0.91847 0.11499 0.97839 0.0
C379 C 0.95945 0.15293 0.9621 0.0
C380 C 0.16417 0.12555 0.47355 0.0
C381 C 0.22972 0.13897 0.46734 0.0
H382 H 0.99263 0.11529 0.47927 0.0
C383 C 0.16831 0.15272 0.4615 0.0
H384 H 0.20855 0.11478 0.47833 0.0
C385 C 1.044 0.15302 0.46143 0.0
C386 C 0.9786 0.13959 0.46812 0.0
H387 H 0.2162 0.16327 0.45635 0.0
H388 H 0.99927 0.16377 0.45666 0.0
C389 C 1.04018 0.12587 0.47435 0.0
C390 C 0.93937 0.89855 0.51586 0.0
C391 C 0.87349 0.88512 0.51902 0.0
H392 H 0.11205 0.90877 0.51304 0.0
C393 C 0.93527 0.87139 0.52016 0.0
H394 H 0.89473 0.90931 0.51492 0.0
C395 C 0.05962 0.87107 0.51805 0.0
C396 C 0.12559 0.88448 0.51591 0.0
H397 H 0.88748 0.86082 0.52211 0.0
H398 H 0.10404 0.8603 0.51902 0.0
C399 C 0.06397 0.89823 0.51495 0.0
C400 C 0.11972 0.52108 0.95303 0.0
C401 C 1.03898 0.52862 0.98938 0.0
H402 H 0.18439 0.49988 0.92632 0.0
C403 C 0.95245 0.52017 0.02301 0.0
H404 H 0.18747 0.5273 0.92669 0.0
C405 C 0.94905 0.50452 0.02206 0.0
C406 C 1.03308 0.49683 0.98799 0.0
H407 H 0.88729 0.52569 0.05042 0.0
H408 H 0.88101 0.49844 0.04868 0.0
C409 C 0.1173 0.50535 0.95261 0.0
C410 C 0.15863 0.50213 0.47382 0.0
C411 C 0.08097 0.49364 0.51297 0.0
H412 H 0.21908 0.52399 0.44144 0.0
C413 C 1.00794 0.50127 0.55321 0.0
H414 H 0.21814 0.49668 0.44322 0.0
C415 C 1.00952 0.517 0.55258 0.0
C416 C 0.08321 0.52543 0.5113 0.0
H417 H 0.94605 0.49515 0.58357 0.0
H418 H 0.94992 0.52259 0.58275 0.0
C419 C 0.15928 0.5178 0.47279 0.0
C420 C 0.66227 1.00534 0.97538 0.0
C421 C 0.56181 0.99712 -0.00306 0.0
H422 H 0.74309 0.02697 0.95811 0.0
C423 C 0.46294 1.00506 0.01754 0.0
H424 H 0.741 0.99961 0.96031 0.0
C425 C 0.46441 0.02077 0.01652 0.0
C426 C 0.56486 0.02899 -0.00504 0.0
H427 H 0.38359 0.99913 0.0338 0.0
H428 H 0.38565 0.02649 0.03157 0.0
C429 C 0.66374 0.02105 0.97436 0.0
C430 C 0.4528 0.01932 0.46741 0.0
C431 C 0.53424 0.02688 0.50254 0.0
H432 H 0.3894 0.99821 0.43981 0.0
C433 C 0.61181 0.01827 0.54047 0.0
H434 H 0.38977 0.0255 0.43879 0.0
C435 C 0.61047 1.00253 0.54155 0.0
C436 C 0.53252 0.99508 0.50425 0.0
H437 H 0.67669 0.02367 0.56768 0.0
H438 H 0.67322 0.9962 0.5699 0.0
C439 C 0.45242 1.00365 0.46801 0.0
C440 C 0.3904 0.27515 0.97329 0.0
C441 C 0.27191 0.27802 0.98949 0.0
H442 H 0.52207 0.25861 0.95615 0.0
C443 C 0.19484 0.26575 0.00228 0.0
H444 H 0.45199 0.28432 0.96289 0.0
C445 C 0.23482 0.25099 -0.0019 0.0
C446 C 0.35271 0.24814 0.98073 0.0
H447 H 0.10343 0.26754 0.01579 0.0
H448 H 0.17268 0.24182 0.00726 0.0
C449 C 0.43021 0.2604 0.96885 0.0
C450 C 0.86359 0.7744 0.94717 0.0
C451 C 0.75798 0.77779 0.97798 0.0
H452 H 0.982 0.75725 0.91985 0.0
C453 C 0.68482 0.76589 0.0008 0.0
H454 H 0.92209 0.78332 0.92934 0.0
C455 C 0.7182 0.75096 -0.00519 0.0
C456 C 0.82617 0.74751 0.96619 0.0
H457 H 0.6016 0.76812 0.02365 0.0
H458 H 0.65955 0.74212 0.01314 0.0
C459 C 0.89757 0.75944 0.94156 0.0
C460 C 0.26985 0.75566 0.45744 0.0
C461 C 0.29147 0.74475 0.50511 0.0
H462 H 0.2794 0.77888 0.426 0.0
C463 C 0.34467 0.74932 0.5583 0.0
H464 H 0.22718 0.75261 0.41619 0.0
C465 C 0.37431 0.76441 0.56394 0.0
C466 C 0.35139 0.77535 0.51659 0.0
H467 H 0.36428 0.74121 0.59553 0.0
H468 H 0.4163 0.76747 0.60534 0.0
C469 C 0.29957 0.77076 0.46308 0.0
C470 C 0.89888 0.26764 0.45947 0.0
C471 C 0.84553 0.27548 0.50601 0.0
H472 H 0.9128 0.2469 0.41596 0.0
C473 C 0.76128 0.26791 0.54453 0.0
H474 H 0.96551 0.27301 0.42958 0.0
C475 C 0.73154 0.25293 0.53693 0.0
C476 C 0.78499 0.24507 0.49051 0.0
H477 H 0.71692 0.27364 0.58025 0.0
H478 H 0.66467 0.24759 0.56677 0.0
C479 C 0.86897 0.25264 0.45182 0.0
C480 C 1.03467 0.36999 0.23409 0.0
C481 C 1.05344 0.38377 0.20074 0.0
H482 H 1.00454 0.35875 0.32184 0.0
C483 C 1.05273 0.39711 0.23117 0.0
H484 H 1.03492 0.35954 0.21163 0.0
C485 C 1.03237 0.39668 0.29391 0.0
C486 C 1.01523 0.38288 0.3274 0.0
H487 H 0.06608 0.40788 0.20637 0.0
H488 H 1.03252 0.40713 0.31638 0.0
C489 C 1.01727 0.36953 0.29703 0.0
C490 C 0.0599 0.62587 0.20942 0.0
C491 C 1.05097 0.63955 0.17462 0.0
H492 H 0.0859 0.61506 0.29803 0.0
C493 C 0.05874 0.6531 0.20343 0.0
H494 H 1.05503 0.61528 0.18803 0.0
C495 C 0.07384 0.65298 0.26624 0.0
C496 C 0.08504 0.63931 0.3009 0.0
H497 H 1.05196 0.6638 0.17745 0.0
H498 H 0.07851 0.66357 0.28756 0.0
C499 C 0.07854 0.62575 0.27205 0.0
C500 C 0.05839 0.65131 0.7654 0.0
C501 C 1.051 0.63779 0.80168 0.0
H502 H 0.07975 0.66173 0.67563 0.0
C503 C 0.05904 0.62409 0.77392 0.0
H504 H 1.05335 0.66204 0.78567 0.0
C505 C 0.07235 0.62391 0.71084 0.0
C506 C 0.08065 0.63744 0.67464 0.0
H507 H 1.05345 0.6135 0.80085 0.0
H508 H 0.07723 0.61319 0.6905 0.0
C509 C 0.07436 0.65113 0.70251 0.0
C510 C 1.04911 0.40147 0.72883 0.0
C511 C 1.04758 0.38774 0.70098 0.0
H512 H 0.06328 0.41236 0.81256 0.0
C513 C 0.06489 0.37432 0.73659 0.0
H514 H 1.03588 0.41197 0.70225 0.0
C515 C 0.08271 0.37456 0.79891 0.0
C516 C 0.08137 0.38821 0.82726 0.0
H517 H 0.06522 0.36358 0.71623 0.0
H518 H 0.09485 0.36398 0.82507 0.0
C519 C 0.06442 0.40169 0.79176 0.0
C520 C 0.53976 0.87005 0.23788 0.0
C521 C 0.5598 0.88379 0.20441 0.0
H522 H 0.50694 0.85891 0.32562 0.0
C523 C 0.55803 0.89716 0.23464 0.0
H524 H 0.5407 0.85957 0.2156 0.0
C525 C 0.53565 0.89681 0.29723 0.0
C526 C 0.51749 0.88305 0.33088 0.0
H527 H 0.57224 0.9079 0.20979 0.0
H528 H 0.53516 0.90729 0.31949 0.0
C529 C 0.52039 0.86966 0.30072 0.0
C530 C 0.61059 0.12739 0.18443 0.0
C531 C 0.54592 0.13884 0.15292 0.0
H532 H 0.67826 0.11871 0.26996 0.0
C533 C 0.49881 0.15056 0.18537 0.0
H534 H 0.64846 0.11822 0.16079 0.0
C535 C 0.5161 0.15085 0.2479 0.0
C536 C 0.58112 0.13944 0.27937 0.0
H537 H 0.44872 0.15957 0.16255 0.0
H538 H 0.47842 0.16004 0.27149 0.0
C539 C 0.62816 0.1277 0.24701 0.0
C540 C 0.61469 0.15135 0.74576 0.0
C541 C 0.55122 0.14004 0.7797 0.0
H542 H 0.67666 0.15979 0.65802 0.0
C543 C 0.50102 0.12823 0.74942 0.0
H544 H 0.65455 0.1606 0.76773 0.0
C545 C 0.51412 0.12773 0.6865 0.0
C546 C 0.57745 0.13905 0.65251 0.0
H547 H 0.4519 0.11932 0.77429 0.0
H548 H 0.47415 0.11848 0.66457 0.0
C549 C 0.62748 0.15087 0.68282 0.0
C550 C 0.571 0.87509 0.73963 0.0
C551 C 0.55111 0.88851 0.7044 0.0
H552 H 0.60473 0.86469 0.8276 0.0
C553 C 0.55227 0.9022 0.73258 0.0
H554 H 0.57178 0.86438 0.71907 0.0
C555 C 0.56958 0.90237 0.79544 0.0
C556 C 0.58892 0.88888 0.83057 0.0
H557 H 0.53714 0.9127 0.70635 0.0
H558 H 0.56795 0.91301 0.81648 0.0
C559 C 0.59076 0.87528 0.80183 0.0
loop_
_geom_bond_atom_site_label_1
_geom_bond_atom_site_label_2
_geom_bond_distance
_geom_bond_site_symmetry_2
_ccdc_geom_bond_type
Tb0 C10 2.825 1_454 S
Tb0 O11 2.347 1_554 S
Tb0 O14 2.366 1_455 S
Tb0 O19 2.418 . S
Tb0 O20 2.384 . S
Tb0 O23 2.479 . S
Tb0 O24 2.471 1_554 S
Eu1 O12 2.418 . S
Eu1 O13 2.384 1_455 S
Eu1 O16 2.479 . S
Eu1 O17 2.471 1_556 S
Eu1 O18 2.347 1_556 S
Eu1 O21 2.366 . S
Eu1 C31 2.825 1_556 S
C2 O18 1.259 . S
C2 O19 1.265 . S
C3 O20 1.255 . S
C3 O21 1.265 1_554 S
C4 C6 1.380 1_556 S
C4 C7 1.374 . S
C4 C10 1.507 . S
C5 C6 1.384 . S
C5 C9 1.387 1_554 S
C5 H32 0.930 . S
C6 C4 1.380 1_554 S
C6 C5 1.384 . S
C6 H33 0.931 . S
C7 C4 1.374 . S
C7 C8 1.390 . S
C7 H34 0.930 . S
C8 C7 1.390 . S
C8 C9 1.391 . S
C8 H35 0.930 . S
C9 C5 1.387 1_556 S
C9 C8 1.391 . S
C10 Tb0 2.825 1_656 S
C10 C4 1.507 . S
C10 O23 1.238 1_656 S
C10 O24 1.247 1_655 S
O11 Tb0 2.347 1_556 S
O11 C15 1.259 . S
O12 Eu1 2.418 . S
O12 C15 1.265 . S
O13 Eu1 2.384 1_655 S
O13 C22 1.255 1_556 S
O14 Tb0 2.366 1_655 S
O14 C22 1.265 . S
C15 O11 1.259 . S
C15 O12 1.265 . S
O16 Eu1 2.479 . S
O16 C31 1.238 1_556 S
O17 Eu1 2.471 1_554 S
O17 C31 1.247 . S
O18 Eu1 2.347 1_554 S
O18 C2 1.259 . S
O19 Tb0 2.418 . S
O19 C2 1.265 . S
O20 Tb0 2.384 . S
O20 C3 1.255 . S
O21 Eu1 2.366 . S
O21 C3 1.265 1_556 S
C22 O13 1.255 1_554 S
C22 O14 1.265 . S
O23 Tb0 2.479 . S
O23 C10 1.238 1_454 S
O24 Tb0 2.471 1_556 S
O24 C10 1.247 1_455 S
C25 C28 1.380 1_554 S
C25 C29 1.374 . S
C25 C31 1.507 . S
C26 C27 1.387 1_554 S
C26 C30 1.391 . S
C27 C26 1.387 1_556 S
C27 C28 1.384 . S
C27 H36 0.930 . S
C28 C25 1.380 1_556 S
C28 C27 1.384 . S
C28 H37 0.931 . S
C29 C25 1.374 . S
C29 C30 1.390 . S
C29 H38 0.930 . S
C30 C26 1.391 . S
C30 C29 1.390 . S
C30 H39 0.930 . S
C31 Eu1 2.825 1_554 S
C31 O16 1.238 1_554 S
C31 O17 1.247 . S
C31 C25 1.507 . S
H32 C5 0.930 . S
H33 C6 0.931 . S
H34 C7 0.930 . S
H35 C8 0.930 . S
H36 C27 0.930 . S
H37 C28 0.931 . S
H38 C29 0.930 . S
H39 C30 0.930 . S
Tb40 C50 2.825 1_655 S
Tb40 O51 2.347 1_554 S
Tb40 O54 2.366 1_655 S
Tb40 O59 2.418 . S
Tb40 O60 2.384 . S
Tb40 O63 2.479 . S
Tb40 O64 2.471 1_554 S
Eu41 O52 2.418 . S
Eu41 O53 2.384 1_655 S
Eu41 O56 2.479 . S
Eu41 O57 2.471 1_556 S
Eu41 O58 2.347 1_556 S
Eu41 O61 2.366 . S
Eu41 C71 2.825 1_556 S
C42 O58 1.259 . S
C42 O59 1.265 . S
C43 O60 1.255 . S
C43 O61 1.265 1_554 S
C44 C46 1.380 . S
C44 C47 1.374 1_554 S
C44 C50 1.507 . S
C45 C46 1.384 . S
C45 C49 1.387 1_554 S
C45 H72 0.930 . S
C46 C44 1.380 . S
C46 C45 1.384 . S
C46 H73 0.931 . S
C47 C44 1.374 1_556 S
C47 C48 1.390 . S
C47 H74 0.930 . S
C48 C47 1.390 . S
C48 C49 1.391 . S
C48 H75 0.930 . S
C49 C45 1.387 1_556 S
C49 C48 1.391 . S
C50 Tb40 2.825 1_455 S
C50 C44 1.507 . S
C50 O63 1.238 1_455 S
C50 O64 1.247 1_454 S
O51 Tb40 2.347 1_556 S
O51 C55 1.259 . S
O52 Eu41 2.418 . S
O52 C55 1.265 . S
O53 Eu41 2.384 1_455 S
O53 C62 1.255 1_556 S
O54 Tb40 2.366 1_455 S
O54 C62 1.265 . S
C55 O51 1.259 . S
C55 O52 1.265 . S
O56 Eu41 2.479 . S
O56 C71 1.237 1_556 S
O57 Eu41 2.471 1_554 S
O57 C71 1.248 . S
O58 Eu41 2.347 1_554 S
O58 C42 1.259 . S
O59 Tb40 2.418 . S
O59 C42 1.265 . S
O60 Tb40 2.384 . S
O60 C43 1.255 . S
O61 Eu41 2.366 . S
O61 C43 1.265 1_556 S
C62 O53 1.255 1_554 S
C62 O54 1.265 . S
O63 Tb40 2.479 . S
O63 C50 1.238 1_655 S
O64 Tb40 2.471 1_556 S
O64 C50 1.247 1_656 S
C65 C68 1.380 1_554 S
C65 C69 1.374 . S
C65 C71 1.507 . S
C66 C67 1.387 1_554 S
C66 C70 1.391 . S
C67 C66 1.387 1_556 S
C67 C68 1.384 . S
C67 H76 0.930 . S
C68 C65 1.380 1_556 S
C68 C67 1.384 . S
C68 H77 0.931 . S
C69 C65 1.374 . S
C69 C70 1.390 . S
C69 H78 0.930 . S
C70 C66 1.391 . S
C70 C69 1.390 . S
C70 H79 0.930 . S
C71 Eu41 2.825 1_554 S
C71 O56 1.237 1_554 S
C71 O57 1.248 . S
C71 C65 1.507 . S
H72 C45 0.930 . S
H73 C46 0.931 . S
H74 C47 0.930 . S
H75 C48 0.930 . S
H76 C67 0.930 . S
H77 C68 0.931 . S
H78 C69 0.930 . S
H79 C70 0.930 . S
Tb80 C90 2.825 . S
Tb80 O91 2.347 . S
Tb80 O94 2.366 . S
Tb80 O99 2.418 . S
Tb80 O100 2.384 1_455 S
Tb80 O103 2.479 . S
Tb80 O104 2.471 . S
Eu81 O92 2.418 . S
Eu81 O93 2.384 . S
Eu81 O96 2.479 . S
Eu81 O97 2.471 . S
Eu81 O98 2.347 . S
Eu81 O101 2.366 1_455 S
Eu81 C111 2.825 1_455 S
C82 O98 1.259 . S
C82 O99 1.265 . S
C83 O100 1.255 . S
C83 O101 1.265 . S
C84 C86 1.380 . S
C84 C87 1.374 . S
C84 C90 1.507 . S
C85 C86 1.384 . S
C85 C89 1.387 . S
C85 H112 0.930 . S
C86 C84 1.380 . S
C86 C85 1.384 . S
C86 H113 0.931 . S
C87 C84 1.374 . S
C87 C88 1.390 . S
C87 H114 0.930 . S
C88 C87 1.390 . S
C88 C89 1.391 . S
C88 H115 0.930 . S
C89 C85 1.387 . S
C89 C88 1.391 . S
C90 Tb80 2.825 . S
C90 C84 1.507 . S
C90 O103 1.238 . S
C90 O104 1.247 . S
O91 Tb80 2.347 . S
O91 C95 1.259 . S
O92 Eu81 2.418 . S
O92 C95 1.265 . S
O93 Eu81 2.384 . S
O93 C102 1.255 . S
O94 Tb80 2.366 . S
O94 C102 1.265 . S
C95 O91 1.259 . S
C95 O92 1.265 . S
O96 Eu81 2.479 . S
O96 C111 1.238 1_455 S
O97 Eu81 2.471 . S
O97 C111 1.247 1_455 S
O98 Eu81 2.347 . S
O98 C82 1.259 . S
O99 Tb80 2.418 . S
O99 C82 1.265 . S
O100 Tb80 2.384 1_655 S
O100 C83 1.255 . S
O101 Eu81 2.366 1_655 S
O101 C83 1.265 . S
C102 O93 1.255 . S
C102 O94 1.265 . S
O103 Tb80 2.479 . S
O103 C90 1.238 . S
O104 Tb80 2.471 . S
O104 C90 1.247 . S
C105 C108 1.380 . S
C105 C109 1.374 . S
C105 C111 1.507 . S
C106 C107 1.387 . S
C106 C110 1.391 . S
C107 C106 1.387 . S
C107 C108 1.384 . S
C107 H116 0.930 . S
C108 C105 1.380 . S
C108 C107 1.384 . S
C108 H117 0.931 . S
C109 C105 1.374 . S
C109 C110 1.390 . S
C109 H118 0.930 . S
C110 C106 1.391 . S
C110 C109 1.390 . S
C110 H119 0.930 . S
C111 Eu81 2.825 1_655 S
C111 O96 1.238 1_655 S
C111 O97 1.247 1_655 S
C111 C105 1.507 . S
H112 C85 0.930 . S
H113 C86 0.931 . S
H114 C87 0.930 . S
H115 C88 0.930 . S
H116 C107 0.930 . S
H117 C108 0.931 . S
H118 C109 0.930 . S
H119 C110 0.930 . S
Tb120 C130 2.825 1_655 S
Tb120 O131 2.347 . S
Tb120 O134 2.366 1_655 S
Tb120 O139 2.418 . S
Tb120 O140 2.384 . S
Tb120 O143 2.479 . S
Tb120 O144 2.471 . S
Eu121 O132 2.418 . S
Eu121 O133 2.384 1_655 S
Eu121 O136 2.479 . S
Eu121 O137 2.471 . S
Eu121 O138 2.347 . S
Eu121 O141 2.366 . S
Eu121 C151 2.825 . S
C122 O138 1.259 . S
C122 O139 1.265 . S
C123 O140 1.255 . S
C123 O141 1.265 . S
C124 C126 1.380 . S
C124 C127 1.374 . S
C124 C130 1.507 . S
C125 C126 1.384 . S
C125 C129 1.387 . S
C125 H152 0.930 . S
C126 C124 1.380 . S
C126 C125 1.384 . S
C126 H153 0.931 . S
C127 C124 1.374 . S
C127 C128 1.390 . S
C127 H154 0.930 . S
C128 C127 1.390 . S
C128 C129 1.391 . S
C128 H155 0.930 . S
C129 C125 1.387 . S
C129 C128 1.391 . S
C130 Tb120 2.825 1_455 S
C130 C124 1.507 . S
C130 O143 1.238 1_455 S
C130 O144 1.247 1_455 S
O131 Tb120 2.347 . S
O131 C135 1.259 . S
O132 Eu121 2.418 . S
O132 C135 1.265 . S
O133 Eu121 2.384 1_455 S
O133 C142 1.255 . S
O134 Tb120 2.366 1_455 S
O134 C142 1.265 . S
C135 O131 1.259 . S
C135 O132 1.265 . S
O136 Eu121 2.479 . S
O136 C151 1.238 . S
O137 Eu121 2.471 . S
O137 C151 1.247 . S
O138 Eu121 2.347 . S
O138 C122 1.259 . S
O139 Tb120 2.418 . S
O139 C122 1.265 . S
O140 Tb120 2.384 . S
O140 C123 1.255 . S
O141 Eu121 2.366 . S
O141 C123 1.265 . S
C142 O133 1.255 . S
C142 O134 1.265 . S
O143 Tb120 2.479 . S
O143 C130 1.238 1_655 S
O144 Tb120 2.471 . S
O144 C130 1.247 1_655 S
C145 C148 1.380 . S
C145 C149 1.374 . S
C145 C151 1.507 . S
C146 C147 1.387 . S
C146 C150 1.391 . S
C147 C146 1.387 . S
C147 C148 1.384 . S
C147 H156 0.930 . S
C148 C145 1.380 . S
C148 C147 1.384 . S
C148 H157 0.931 . S
C149 C145 1.374 . S
C149 C150 1.390 . S
C149 H158 0.930 . S
C150 C146 1.391 . S
C150 C149 1.390 . S
C150 H159 0.930 . S
C151 Eu121 2.825 . S
C151 O136 1.238 . S
C151 O137 1.247 . S
C151 C145 1.507 . S
H152 C125 0.930 . S
H153 C126 0.931 . S
H154 C127 0.930 . S
H155 C128 0.930 . S
H156 C147 0.930 . S
H157 C148 0.931 . S
H158 C149 0.930 . S
H159 C150 0.930 . S
Tb160 C170 2.825 1_554 S
Tb160 O171 2.347 1_554 S
Tb160 O174 2.366 . S
Tb160 O179 2.418 . S
Tb160 O180 2.384 . S
Tb160 O183 2.479 . S
Tb160 O184 2.471 1_554 S
Eu161 O172 2.418 . S
Eu161 O173 2.384 . S
Eu161 O176 2.479 . S
Eu161 O177 2.471 1_556 S
Eu161 O178 2.347 1_556 S
Eu161 O181 2.366 . S
Eu161 C191 2.825 1_556 S
C162 O178 1.259 . S
C162 O179 1.265 . S
C163 O180 1.255 . S
C163 O181 1.265 1_554 S
C164 C166 1.380 1_556 S
C164 C167 1.374 . S
C164 C170 1.507 . S
C165 C166 1.384 . S
C165 C169 1.387 1_554 S
C165 H192 0.930 . S
C166 C164 1.380 1_554 S
C166 C165 1.384 . S
C166 H193 0.931 . S
C167 C164 1.374 . S
C167 C168 1.390 . S
C167 H194 0.930 . S
C168 C167 1.390 . S
C168 C169 1.391 . S
C168 H195 0.930 . S
C169 C165 1.387 1_556 S
C169 C168 1.391 . S
C170 Tb160 2.825 1_556 S
C170 C164 1.507 . S
C170 O183 1.238 1_556 S
C170 O184 1.247 . S
O171 Tb160 2.347 1_556 S
O171 C175 1.259 . S
O172 Eu161 2.418 . S
O172 C175 1.265 . S
O173 Eu161 2.384 . S
O173 C182 1.255 1_556 S
O174 Tb160 2.366 . S
O174 C182 1.265 . S
C175 O171 1.259 . S
C175 O172 1.265 . S
O176 Eu161 2.479 . S
O176 C191 1.238 1_556 S
O177 Eu161 2.471 1_554 S
O177 C191 1.247 . S
O178 Eu161 2.347 1_554 S
O178 C162 1.259 . S
O179 Tb160 2.418 . S
O179 C162 1.265 . S
O180 Tb160 2.384 . S
O180 C163 1.255 . S
O181 Eu161 2.366 . S
O181 C163 1.265 1_556 S
C182 O173 1.255 1_554 S
C182 O174 1.265 . S
O183 Tb160 2.479 . S
O183 C170 1.238 1_554 S
O184 Tb160 2.471 1_556 S
O184 C170 1.247 . S
C185 C188 1.380 1_554 S
C185 C189 1.374 . S
C185 C191 1.507 . S
C186 C187 1.387 1_554 S
C186 C190 1.391 . S
C187 C186 1.387 1_556 S
C187 C188 1.384 . S
C187 H196 0.930 . S
C188 C185 1.380 1_556 S
C188 C187 1.384 . S
C188 H197 0.931 . S
C189 C185 1.374 . S
C189 C190 1.390 . S
C189 H198 0.930 . S
C190 C186 1.391 . S
C190 C189 1.390 . S
C190 H199 0.930 . S
C191 Eu161 2.825 1_554 S
C191 O176 1.238 1_554 S
C191 O177 1.247 . S
C191 C185 1.507 . S
H192 C165 0.930 . S
H193 C166 0.931 . S
H194 C167 0.930 . S
H195 C168 0.930 . S
H196 C187 0.930 . S
H197 C188 0.931 . S
H198 C189 0.930 . S
H199 C190 0.930 . S
Tb200 C210 2.825 . S
Tb200 O211 2.347 1_554 S
Tb200 O214 2.366 . S
Tb200 O219 2.418 . S
Tb200 O220 2.384 . S
Tb200 O223 2.479 . S
Tb200 O224 2.471 1_554 S
Eu201 O212 2.418 . S
Eu201 O213 2.384 . S
Eu201 O216 2.479 . S
Eu201 O217 2.471 1_556 S
Eu201 O218 2.347 1_556 S
Eu201 O221 2.366 . S
Eu201 C231 2.825 . S
C202 O218 1.259 . S
C202 O219 1.265 . S
C203 O220 1.255 . S
C203 O221 1.265 1_554 S
C204 C206 1.380 . S
C204 C207 1.374 1_554 S
C204 C210 1.507 . S
C205 C206 1.384 . S
C205 C209 1.387 1_554 S
C205 H232 0.930 . S
C206 C204 1.380 . S
C206 C205 1.384 . S
C206 H233 0.931 . S
C207 C204 1.374 1_556 S
C207 C208 1.390 . S
C207 H234 0.930 . S
C208 C207 1.390 . S
C208 C209 1.391 . S
C208 H235 0.930 . S
C209 C205 1.387 1_556 S
C209 C208 1.391 . S
C210 Tb200 2.825 . S
C210 C204 1.507 . S
C210 O223 1.238 . S
C210 O224 1.247 1_554 S
O211 Tb200 2.347 1_556 S
O211 C215 1.259 . S
O212 Eu201 2.418 . S
O212 C215 1.265 . S
O213 Eu201 2.384 . S
O213 C222 1.255 1_556 S
O214 Tb200 2.366 . S
O214 C222 1.265 . S
C215 O211 1.259 . S
C215 O212 1.265 . S
O216 Eu201 2.479 . S
O216 C231 1.236 . S
O217 Eu201 2.471 1_554 S
O217 C231 1.248 1_554 S
O218 Eu201 2.347 1_554 S
O218 C202 1.259 . S
O219 Tb200 2.418 . S
O219 C202 1.265 . S
O220 Tb200 2.384 . S
O220 C203 1.255 . S
O221 Eu201 2.366 . S
O221 C203 1.265 1_556 S
C222 O213 1.255 1_554 S
C222 O214 1.265 . S
O223 Tb200 2.479 . S
O223 C210 1.238 . S
O224 Tb200 2.471 1_556 S
O224 C210 1.247 1_556 S
C225 C228 1.380 1_554 S
C225 C229 1.374 . S
C225 C231 1.507 1_554 S
C226 C227 1.387 1_554 S
C226 C230 1.391 . S
C227 C226 1.387 1_556 S
C227 C228 1.384 . S
C227 H236 0.930 . S
C228 C225 1.380 1_556 S
C228 C227 1.384 . S
C228 H237 0.931 . S
C229 C225 1.374 . S
C229 C230 1.390 . S
C229 H238 0.930 . S
C230 C226 1.391 . S
C230 C229 1.390 . S
C230 H239 0.930 . S
C231 Eu201 2.825 . S
C231 O216 1.236 . S
C231 O217 1.248 1_556 S
C231 C225 1.507 1_556 S
H232 C205 0.930 . S
H233 C206 0.931 . S
H234 C207 0.930 . S
H235 C208 0.930 . S
H236 C227 0.930 . S
H237 C228 0.931 . S
H238 C229 0.930 . S
H239 C230 0.930 . S
Tb240 C250 2.825 . S
Tb240 O251 2.347 . S
Tb240 O254 2.366 . S
Tb240 O259 2.418 . S
Tb240 O260 2.384 . S
Tb240 O263 2.479 . S
Tb240 O264 2.471 . S
Eu241 O252 2.418 . S
Eu241 O253 2.384 . S
Eu241 O256 2.479 . S
Eu241 O257 2.471 . S
Eu241 O258 2.347 . S
Eu241 O261 2.366 . S
Eu241 C271 2.825 . S
C242 O258 1.259 . S
C242 O259 1.265 . S
C243 O260 1.255 . S
C243 O261 1.265 . S
C244 C246 1.380 . S
C244 C247 1.374 . S
C244 C250 1.507 . S
C245 C246 1.384 . S
C245 C249 1.387 . S
C245 H272 0.930 . S
C246 C244 1.380 . S
C246 C245 1.384 . S
C246 H273 0.931 . S
C247 C244 1.374 . S
C247 C248 1.390 . S
C247 H274 0.930 . S
C248 C247 1.390 . S
C248 C249 1.391 . S
C248 H275 0.930 . S
C249 C245 1.387 . S
C249 C248 1.391 . S
C250 Tb240 2.825 . S
C250 C244 1.507 . S
C250 O263 1.238 . S
C250 O264 1.247 . S
O251 Tb240 2.347 . S
O251 C255 1.259 . S
O252 Eu241 2.418 . S
O252 C255 1.265 . S
O253 Eu241 2.384 . S
O253 C262 1.255 . S
O254 Tb240 2.366 . S
O254 C262 1.265 . S
C255 O251 1.259 . S
C255 O252 1.265 . S
O256 Eu241 2.479 . S
O256 C271 1.238 . S
O257 Eu241 2.471 . S
O257 C271 1.247 . S
O258 Eu241 2.347 . S
O258 C242 1.259 . S
O259 Tb240 2.418 . S
O259 C242 1.265 . S
O260 Tb240 2.384 . S
O260 C243 1.255 . S
O261 Eu241 2.366 . S
O261 C243 1.265 . S
C262 O253 1.255 . S
C262 O254 1.265 . S
O263 Tb240 2.479 . S
O263 C250 1.238 . S
O264 Tb240 2.471 . S
O264 C250 1.247 . S
C265 C268 1.380 . S
C265 C269 1.374 . S
C265 C271 1.507 . S
C266 C267 1.387 . S
C266 C270 1.391 . S
C267 C266 1.387 . S
C267 C268 1.384 . S
C267 H276 0.930 . S
C268 C265 1.380 . S
C268 C267 1.384 . S
C268 H277 0.931 . S
C269 C265 1.374 . S
C269 C270 1.390 . S
C269 H278 0.930 . S
C270 C266 1.391 . S
C270 C269 1.390 . S
C270 H279 0.930 . S
C271 Eu241 2.825 . S
C271 O256 1.238 . S
C271 O257 1.247 . S
C271 C265 1.507 . S
H272 C245 0.930 . S
H273 C246 0.931 . S
H274 C247 0.930 . S
H275 C248 0.930 . S
H276 C267 0.930 . S
H277 C268 0.931 . S
H278 C269 0.930 . S
H279 C270 0.930 . S
Tb280 C290 2.825 . S
Tb280 O291 2.347 . S
Tb280 O294 2.366 . S
Tb280 O299 2.418 . S
Tb280 O300 2.384 . S
Tb280 O303 2.479 . S
Tb280 O304 2.471 . S
Eu281 O292 2.418 . S
Eu281 O293 2.384 . S
Eu281 O296 2.479 . S
Eu281 O297 2.471 . S
Eu281 O298 2.347 . S
Eu281 O301 2.366 . S
Eu281 C311 2.825 . S
C282 O298 1.259 . S
C282 O299 1.265 . S
C283 O300 1.255 . S
C283 O301 1.265 . S
C284 C286 1.380 . S
C284 C287 1.374 . S
C284 C290 1.507 . S
C285 C286 1.384 . S
C285 C289 1.387 . S
C285 H312 0.930 . S
C286 C284 1.380 . S
C286 C285 1.384 . S
C286 H313 0.931 . S
C287 C284 1.374 . S
C287 C288 1.390 . S
C287 H314 0.930 . S
C288 C287 1.390 . S
C288 C289 1.391 . S
C288 H315 0.930 . S
C289 C285 1.387 . S
C289 C288 1.391 . S
C290 Tb280 2.825 . S
C290 C284 1.507 . S
C290 O303 1.238 . S
C290 O304 1.247 . S
O291 Tb280 2.347 . S
O291 C295 1.259 . S
O292 Eu281 2.418 . S
O292 C295 1.265 . S
O293 Eu281 2.384 . S
O293 C302 1.255 . S
O294 Tb280 2.366 . S
O294 C302 1.265 . S
C295 O291 1.259 . S
C295 O292 1.265 . S
O296 Eu281 2.479 . S
O296 C311 1.238 . S
O297 Eu281 2.471 . S
O297 C311 1.247 . S
O298 Eu281 2.347 . S
O298 C282 1.259 . S
O299 Tb280 2.418 . S
O299 C282 1.265 . S
O300 Tb280 2.384 . S
O300 C283 1.255 . S
O301 Eu281 2.366 . S
O301 C283 1.265 . S
C302 O293 1.255 . S
C302 O294 1.265 . S
O303 Tb280 2.479 . S
O303 C290 1.238 . S
O304 Tb280 2.471 . S
O304 C290 1.247 . S
C305 C308 1.380 . S
C305 C309 1.374 . S
C305 C311 1.507 . S
C306 C307 1.387 . S
C306 C310 1.391 . S
C307 C306 1.387 . S
C307 C308 1.384 . S
C307 H316 0.930 . S
C308 C305 1.380 . S
C308 C307 1.384 . S
C308 H317 0.931 . S
C309 C305 1.374 . S
C309 C310 1.390 . S
C309 H318 0.930 . S
C310 C306 1.391 . S
C310 C309 1.390 . S
C310 H319 0.930 . S
C311 Eu281 2.825 . S
C311 O296 1.238 . S
C311 O297 1.247 . S
C311 C305 1.507 . S
H312 C285 0.930 . S
H313 C286 0.931 . S
H314 C287 0.930 . S
H315 C288 0.930 . S
H316 C307 0.930 . S
H317 C308 0.931 . S
H318 C309 0.930 . S
H319 C310 0.930 . S
C320 C321 1.387 . S
C320 H324 0.950 . S
C320 C329 1.390 . S
C321 C320 1.387 . S
C321 C323 1.387 1_554 S
H322 C329 0.950 . S
C323 C321 1.387 1_556 S
C323 C325 1.390 . S
C323 H327 0.950 . S
H324 C320 0.950 . S
C325 C323 1.390 . S
C325 C326 1.387 1_556 S
C325 H328 0.950 . S
C326 C325 1.387 1_554 S
C326 C329 1.387 . S
H327 C323 0.950 . S
H328 C325 0.950 . S
C329 C320 1.390 . S
C329 H322 0.950 . S
C329 C326 1.387 . S
C330 C331 1.387 . S
C330 H334 0.950 . S
C330 C339 1.390 . S
C331 C330 1.387 . S
C331 C333 1.387 1_554 S
H332 C339 0.950 . S
C333 C331 1.387 1_556 S
C333 C335 1.390 . S
C333 H337 0.950 . S
H334 C330 0.950 . S
C335 C333 1.390 . S
C335 C336 1.387 1_556 S
C335 H338 0.950 . S
C336 C335 1.387 1_554 S
C336 C339 1.387 . S
H337 C333 0.950 . S
H338 C335 0.950 . S
C339 C330 1.390 . S
C339 H332 0.950 . S
C339 C336 1.387 . S
C340 C341 1.387 . S
C340 H344 0.950 . S
C340 C349 1.390 . S
C341 C340 1.387 . S
C341 C343 1.387 . S
H342 C349 0.950 . S
C343 C341 1.387 . S
C343 C345 1.390 . S
C343 H347 0.950 . S
H344 C340 0.950 . S
C345 C343 1.390 . S
C345 C346 1.387 . S
C345 H348 0.950 . S
C346 C345 1.387 . S
C346 C349 1.387 . S
H347 C343 0.950 . S
H348 C345 0.950 . S
C349 C340 1.390 . S
C349 H342 0.950 . S
C349 C346 1.387 . S
C350 C351 1.387 . S
C350 H354 0.950 . S
C350 C359 1.390 . S
C351 C350 1.387 . S
C351 C353 1.387 . S
H352 C359 0.950 . S
C353 C351 1.387 . S
C353 C355 1.390 . S
C353 H357 0.950 . S
H354 C350 0.950 . S
C355 C353 1.390 . S
C355 C356 1.387 . S
C355 H358 0.950 . S
C356 C355 1.387 . S
C356 C359 1.387 . S
H357 C353 0.950 . S
H358 C355 0.950 . S
C359 C350 1.390 . S
C359 H352 0.950 . S
C359 C356 1.387 . S
C360 C361 1.387 1_456 S
C360 H364 0.950 1_455 S
C360 C369 1.390 . S
C361 C360 1.387 1_654 S
C361 C363 1.387 1_655 S
H362 C369 0.950 . S
C363 C361 1.387 1_455 S
C363 C365 1.390 . S
C363 H367 0.950 1_455 S
H364 C360 0.950 1_655 S
C365 C363 1.390 . S
C365 C366 1.387 . S
C365 H368 0.950 . S
C366 C365 1.387 . S
C366 C369 1.387 1_554 S
H367 C363 0.950 1_655 S
H368 C365 0.950 . S
C369 C360 1.390 . S
C369 H362 0.950 . S
C369 C366 1.387 1_556 S
C370 C371 1.387 1_656 S
C370 H374 0.950 1_655 S
C370 C379 1.390 . S
C371 C370 1.387 1_454 S
C371 C373 1.387 1_455 S
H372 C379 0.950 . S
C373 C371 1.387 1_655 S
C373 C375 1.390 . S
C373 H377 0.950 1_655 S
H374 C370 0.950 1_455 S
C375 C373 1.390 . S
C375 C376 1.387 . S
C375 H378 0.950 . S
C376 C375 1.387 . S
C376 C379 1.387 1_554 S
H377 C373 0.950 1_455 S
H378 C375 0.950 . S
C379 C370 1.390 . S
C379 H372 0.950 . S
C379 C376 1.387 1_556 S
C380 C381 1.387 . S
C380 H384 0.950 . S
C380 C389 1.390 1_455 S
C381 C380 1.387 . S
C381 C383 1.387 . S
H382 C389 0.950 . S
C383 C381 1.387 . S
C383 C385 1.390 . S
C383 H387 0.950 . S
H384 C380 0.950 . S
C385 C383 1.390 . S
C385 C386 1.387 1_455 S
C385 H388 0.950 . S
C386 C385 1.387 1_655 S
C386 C389 1.387 . S
H387 C383 0.950 . S
H388 C385 0.950 . S
C389 C380 1.390 1_655 S
C389 H382 0.950 . S
C389 C386 1.387 . S
C390 C391 1.387 . S
C390 H394 0.950 . S
C390 C399 1.390 . S
C391 C390 1.387 . S
C391 C393 1.387 . S
H392 C399 0.950 1_455 S
C393 C391 1.387 . S
C393 C395 1.390 . S
C393 H397 0.950 . S
H394 C390 0.950 . S
C395 C393 1.390 . S
C395 C396 1.387 1_655 S
C395 H398 0.950 1_655 S
C396 C395 1.387 1_455 S
C396 C399 1.387 1_455 S
H397 C393 0.950 . S
H398 C395 0.950 1_455 S
C399 C390 1.390 . S
C399 H392 0.950 1_655 S
C399 C396 1.387 1_655 S
C400 C401 1.387 . S
C400 H404 0.950 . S
C400 C409 1.390 . S
C401 C400 1.387 . S
C401 C403 1.387 1_455 S
H402 C409 0.950 . S
C403 C401 1.387 1_655 S
C403 C405 1.390 . S
C403 H407 0.950 . S
H404 C400 0.950 . S
C405 C403 1.390 . S
C405 C406 1.387 . S
C405 H408 0.950 . S
C406 C405 1.387 . S
C406 C409 1.387 1_655 S
H407 C403 0.950 . S
H408 C405 0.950 . S
C409 C400 1.390 . S
C409 H402 0.950 . S
C409 C406 1.387 1_455 S
C410 C411 1.387 . S
C410 H414 0.950 . S
C410 C419 1.390 1_455 S
C411 C410 1.387 . S
C411 C413 1.387 . S
H412 C419 0.950 . S
C413 C411 1.387 . S
C413 C415 1.390 1_455 S
C413 H417 0.950 . S
H414 C410 0.950 . S
C415 C413 1.390 1_655 S
C415 C416 1.387 . S
C415 H418 0.950 . S
C416 C415 1.387 . S
C416 C419 1.387 . S
H417 C413 0.950 . S
H418 C415 0.950 . S
C419 C410 1.390 1_655 S
C419 H412 0.950 . S
C419 C416 1.387 . S
C420 C421 1.387 . S
C420 H424 0.950 . S
C420 C429 1.390 1_565 S
C421 C420 1.387 . S
C421 C423 1.387 1_556 S
H422 C429 0.950 . S
C423 C421 1.387 1_554 S
C423 C425 1.390 1_565 S
C423 H427 0.950 . S
H424 C420 0.950 . S
C425 C423 1.390 1_545 S
C425 C426 1.387 1_554 S
C425 H428 0.950 . S
C426 C425 1.387 1_556 S
C426 C429 1.387 . S
H427 C423 0.950 . S
H428 C425 0.950 . S
C429 C420 1.390 1_545 S
C429 H422 0.950 . S
C429 C426 1.387 . S
C430 C431 1.387 . S
C430 H434 0.950 . S
C430 C439 1.390 1_545 S
C431 C430 1.387 . S
C431 C433 1.387 . S
H432 C439 0.950 . S
C433 C431 1.387 . S
C433 C435 1.390 1_545 S
C433 H437 0.950 . S
H434 C430 0.950 . S
C435 C433 1.390 1_565 S
C435 C436 1.387 . S
C435 H438 0.950 . S
C436 C435 1.387 . S
C436 C439 1.387 . S
H437 C433 0.950 . S
H438 C435 0.950 . S
C439 C430 1.390 1_565 S
C439 H432 0.950 . S
C439 C436 1.387 . S
C440 C441 1.387 . S
C440 H444 0.950 . S
C440 C449 1.390 . S
C441 C440 1.387 . S
C441 C443 1.387 . S
H442 C449 0.950 . S
C443 C441 1.387 . S
C443 C445 1.390 . S
C443 H447 0.950 . S
H444 C440 0.950 . S
C445 C443 1.390 . S
C445 C446 1.387 . S
C445 H448 0.950 . S
C446 C445 1.387 . S
C446 C449 1.387 . S
H447 C443 0.950 . S
H448 C445 0.950 . S
C449 C440 1.390 . S
C449 H442 0.950 . S
C449 C446 1.387 . S
C450 C451 1.387 1_556 S
C450 H454 0.950 . S
C450 C459 1.390 . S
C451 C450 1.387 1_554 S
C451 C453 1.387 . S
H452 C459 0.950 . S
C453 C451 1.387 . S
C453 C455 1.390 . S
C453 H457 0.950 . S
H454 C450 0.950 . S
C455 C453 1.390 . S
C455 C456 1.387 . S
C455 H458 0.950 . S
C456 C455 1.387 . S
C456 C459 1.387 1_554 S
H457 C453 0.950 . S
H458 C455 0.950 . S
C459 C450 1.390 . S
C459 H452 0.950 . S
C459 C456 1.387 1_556 S
C460 C461 1.387 . S
C460 H464 0.950 . S
C460 C469 1.390 . S
C461 C460 1.387 . S
C461 C463 1.387 . S
H462 C469 0.950 . S
C463 C461 1.387 . S
C463 C465 1.390 . S
C463 H467 0.950 . S
H464 C460 0.950 . S
C465 C463 1.390 . S
C465 C466 1.387 . S
C465 H468 0.950 . S
C466 C465 1.387 . S
C466 C469 1.387 . S
H467 C463 0.950 . S
H468 C465 0.950 . S
C469 C460 1.390 . S
C469 H462 0.950 . S
C469 C466 1.387 . S
C470 C471 1.387 . S
C470 H474 0.950 . S
C470 C479 1.390 . S
C471 C470 1.387 . S
C471 C473 1.387 . S
H472 C479 0.950 . S
C473 C471 1.387 . S
C473 C475 1.390 . S
C473 H477 0.950 . S
H474 C470 0.950 . S
C475 C473 1.390 . S
C475 C476 1.387 . S
C475 H478 0.950 . S
C476 C475 1.387 . S
C476 C479 1.387 . S
H477 C473 0.950 . S
H478 C475 0.950 . S
C479 C470 1.390 . S
C479 H472 0.950 . S
C479 C476 1.387 . S
C480 C481 1.387 1_655 S
C480 H484 0.950 . S
C480 C489 1.390 . S
C481 C480 1.387 1_455 S
C481 C483 1.387 . S
H482 C489 0.950 . S
C483 C481 1.387 . S
C483 C485 1.390 . S
C483 H487 0.950 . S
H484 C480 0.950 . S
C485 C483 1.390 . S
C485 C486 1.387 1_455 S
C485 H488 0.950 . S
C486 C485 1.387 1_655 S
C486 C489 1.387 . S
H487 C483 0.950 . S
H488 C485 0.950 . S
C489 C480 1.390 . S
C489 H482 0.950 . S
C489 C486 1.387 . S
C490 C491 1.387 . S
C490 H494 0.950 . S
C490 C499 1.390 1_655 S
C491 C490 1.387 . S
C491 C493 1.387 . S
H492 C499 0.950 . S
C493 C491 1.387 . S
C493 C495 1.390 1_655 S
C493 H497 0.950 . S
H494 C490 0.950 . S
C495 C493 1.390 1_455 S
C495 C496 1.387 . S
C495 H498 0.950 . S
C496 C495 1.387 . S
C496 C499 1.387 . S
H497 C493 0.950 . S
H498 C495 0.950 . S
C499 C490 1.390 1_455 S
C499 H492 0.950 . S
C499 C496 1.387 . S
C500 C501 1.387 . S
C500 H504 0.950 . S
C500 C509 1.390 1_655 S
C501 C500 1.387 . S
C501 C503 1.387 . S
H502 C509 0.950 . S
C503 C501 1.387 . S
C503 C505 1.390 1_655 S
C503 H507 0.950 . S
H504 C500 0.950 . S
C505 C503 1.390 1_455 S
C505 C506 1.387 . S
C505 H508 0.950 . S
C506 C505 1.387 . S
C506 C509 1.387 . S
H507 C503 0.950 . S
H508 C505 0.950 . S
C509 C500 1.390 1_455 S
C509 H502 0.950 . S
C509 C506 1.387 . S
C510 C511 1.387 . S
C510 H514 0.950 . S
C510 C519 1.390 1_655 S
C511 C510 1.387 . S
C511 C513 1.387 . S
H512 C519 0.950 . S
C513 C511 1.387 . S
C513 C515 1.390 1_655 S
C513 H517 0.950 . S
H514 C510 0.950 . S
C515 C513 1.390 1_455 S
C515 C516 1.387 . S
C515 H518 0.950 . S
C516 C515 1.387 . S
C516 C519 1.387 . S
H517 C513 0.950 . S
H518 C515 0.950 . S
C519 C510 1.390 1_455 S
C519 H512 0.950 . S
C519 C516 1.387 . S
C520 C521 1.387 . S
C520 H524 0.950 . S
C520 C529 1.390 . S
C521 C520 1.387 . S
C521 C523 1.387 . S
H522 C529 0.950 . S
C523 C521 1.387 . S
C523 C525 1.390 . S
C523 H527 0.950 . S
H524 C520 0.950 . S
C525 C523 1.390 . S
C525 C526 1.387 . S
C525 H528 0.950 . S
C526 C525 1.387 . S
C526 C529 1.387 . S
H527 C523 0.950 . S
H528 C525 0.950 . S
C529 C520 1.390 . S
C529 H522 0.950 . S
C529 C526 1.387 . S
C530 C531 1.387 . S
C530 H534 0.950 . S
C530 C539 1.390 . S
C531 C530 1.387 . S
C531 C533 1.387 . S
H532 C539 0.950 . S
C533 C531 1.387 . S
C533 C535 1.390 . S
C533 H537 0.950 . S
H534 C530 0.950 . S
C535 C533 1.390 . S
C535 C536 1.387 . S
C535 H538 0.950 . S
C536 C535 1.387 . S
C536 C539 1.387 . S
H537 C533 0.950 . S
H538 C535 0.950 . S
C539 C530 1.390 . S
C539 H532 0.950 . S
C539 C536 1.387 . S
C540 C541 1.387 . S
C540 H544 0.950 . S
C540 C549 1.390 . S
C541 C540 1.387 . S
C541 C543 1.387 . S
H542 C549 0.950 . S
C543 C541 1.387 . S
C543 C545 1.390 . S
C543 H547 0.950 . S
H544 C540 0.950 . S
C545 C543 1.390 . S
C545 C546 1.387 . S
C545 H548 0.950 . S
C546 C545 1.387 . S
C546 C549 1.387 . S
H547 C543 0.950 . S
H548 C545 0.950 . S
C549 C540 1.390 . S
C549 H542 0.950 . S
C549 C546 1.387 . S
C550 C551 1.387 . S
C550 H554 0.950 . S
C550 C559 1.390 . S
C551 C550 1.387 . S
C551 C553 1.387 . S
H552 C559 0.950 . S
C553 C551 1.387 . S
C553 C555 1.390 . S
C553 H557 0.950 . S
H554 C550 0.950 . S
C555 C553 1.390 . S
C555 C556 1.387 . S
C555 H558 0.950 . S
C556 C555 1.387 . S
C556 C559 1.387 . S
H557 C553 0.950 . S
H558 C555 0.950 . S
C559 C550 1.390 . S
C559 H552 0.950 . S
C559 C556 1.387 . S
C321 C3 2.277 . S
C326 C22 2.277 . S
C331 C62 2.271 . S
C336 C43 2.271 . S
C341 C83 2.275 . S
C346 C102 2.275 . S
C351 C123 2.273 . S
C356 C142 2.273 . S
C361 C163 2.278 . S
C366 C182 2.278 . S
C371 C203 2.273 . S
C376 C222 2.273 . S
C381 C243 2.274 . S
C386 C262 2.274 . S
C391 C302 2.275 . S
C396 C283 2.275 . S
C401 C49 2.829 . S
C406 C9 2.808 . S
C411 C129 2.810 . S
C416 C106 2.810 . S
C421 C169 2.807 . S
C426 C209 2.828 . S
C431 C266 2.811 . S
C436 C289 2.811 . S
C441 C26 1.970 . S
C446 C226 1.993 . S
C451 C186 1.969 . S
C456 C66 1.991 . S
C461 C89 1.968 . S
C466 C306 1.968 . S
C471 C146 1.968 . S
C476 C249 1.968 . S
C481 C2 1.521 . S
C486 C122 1.554 . S
C491 C42 1.580 . S
C496 C82 1.557 . S
C501 C55 1.519 . S
C506 C95 1.540 . S
C511 C135 1.592 . S
C516 C15 1.564 . S
C521 C162 1.522 . S
C526 C282 1.552 . S
C531 C202 1.577 . S
C536 C242 1.554 . S
C541 C215 1.519 . S
C546 C255 1.540 . S
C551 C295 1.593 . S
C556 C175 1.566 . S
