# Generated by pormake.
# Topology unl, (4)-cn, num edge types: 1
# Building blocks:
#     Node 0, Type 0, BuildingBlock: UXUYUI_clean_sbu_0, # of connection points: 4
#     Node 1, Type 0, BuildingBlock: UXUYUI_clean_sbu_0, # of connection points: 4
#     Node 2, Type 0, BuildingBlock: UXUYUI_clean_sbu_0, # of connection points: 4
#     Node 3, Type 0, BuildingBlock: UXUYUI_clean_sbu_0, # of connection points: 4
#     Node 4, Type 0, BuildingBlock: UXUYUI_clean_sbu_0, # of connection points: 4
#     Node 5, Type 0, BuildingBlock: UXUYUI_clean_sbu_0, # of connection points: 4
#     Node 6, Type 0, BuildingBlock: UXUYUI_clean_sbu_0, # of connection points: 4
#     Node 7, Type 0, BuildingBlock: UXUYUI_clean_sbu_0, # of connection points: 4
#     Node 8, Type 0, BuildingBlock: UXUYUI_clean_sbu_0, # of connection points: 4
#     Node 9, Type 0, BuildingBlock: UXUYUI_clean_sbu_0, # of connection points: 4
#     Node 10, Type 0, BuildingBlock: UXUYUI_clean_sbu_0, # of connection points: 4
#     Node 11, Type 0, BuildingBlock: UXUYUI_clean_sbu_0, # of connection points: 4
#     Node 12, Type 0, BuildingBlock: UXUYUI_clean_sbu_0, # of connection points: 4
#     Node 13, Type 0, BuildingBlock: UXUYUI_clean_sbu_0, # of connection points: 4
#     Node 14, Type 0, BuildingBlock: UXUYUI_clean_sbu_0, # of connection points: 4
#     Node 15, Type 0, BuildingBlock: UXUYUI_clean_sbu_0, # of connection points: 4
#     Node 16, Type 0, BuildingBlock: UXUYUI_clean_sbu_0, # of connection points: 4
#     Node 17, Type 0, BuildingBlock: UXUYUI_clean_sbu_0, # of connection points: 4
#     Node 18, Type 0, BuildingBlock: UXUYUI_clean_sbu_0, # of connection points: 4
#     Node 19, Type 0, BuildingBlock: UXUYUI_clean_sbu_0, # of connection points: 4
#     Node 20, Type 0, BuildingBlock: UXUYUI_clean_sbu_0, # of connection points: 4
#     Node 21, Type 0, BuildingBlock: UXUYUI_clean_sbu_0, # of connection points: 4
#     Node 22, Type 0, BuildingBlock: UXUYUI_clean_sbu_0, # of connection points: 4
#     Node 23, Type 0, BuildingBlock: UXUYUI_clean_sbu_0, # of connection points: 4
#     Node 24, Type 0, BuildingBlock: UXUYUI_clean_sbu_0, # of connection points: 4
#     Node 25, Type 0, BuildingBlock: UXUYUI_clean_sbu_0, # of connection points: 4
#     Node 26, Type 0, BuildingBlock: UXUYUI_clean_sbu_0, # of connection points: 4
#     Node 27, Type 0, BuildingBlock: UXUYUI_clean_sbu_0, # of connection points: 4
#     Node 28, Type 0, BuildingBlock: UXUYUI_clean_sbu_0, # of connection points: 4
#     Node 29, Type 0, BuildingBlock: UXUYUI_clean_sbu_0, # of connection points: 4
#     Node 30, Type 0, BuildingBlock: UXUYUI_clean_sbu_0, # of connection points: 4
#     Node 31, Type 0, BuildingBlock: UXUYUI_clean_sbu_0, # of connection points: 4
#     Node 32, Type 0, BuildingBlock: UXUYUI_clean_sbu_0, # of connection points: 4
#     Node 33, Type 0, BuildingBlock: UXUYUI_clean_sbu_0, # of connection points: 4
#     Node 34, Type 0, BuildingBlock: UXUYUI_clean_sbu_0, # of connection points: 4
#     Node 35, Type 0, BuildingBlock: UXUYUI_clean_sbu_0, # of connection points: 4
#     Edge 36, Type (0, 0), BuildingBlock: XIVTED_clean_linker_0, # of connection points: 2
#     Edge 37, Type (0, 0), BuildingBlock: XIVTED_clean_linker_0, # of connection points: 2
#     Edge 38, Type (0, 0), BuildingBlock: XIVTED_clean_linker_0, # of connection points: 2
#     Edge 39, Type (0, 0), BuildingBlock: XIVTED_clean_linker_0, # of connection points: 2
#     Edge 40, Type (0, 0), BuildingBlock: XIVTED_clean_linker_0, # of connection points: 2
#     Edge 41, Type (0, 0), BuildingBlock: XIVTED_clean_linker_0, # of connection points: 2
#     Edge 42, Type (0, 0), BuildingBlock: XIVTED_clean_linker_0, # of connection points: 2
#     Edge 43, Type (0, 0), BuildingBlock: XIVTED_clean_linker_0, # of connection points: 2
#     Edge 44, Type (0, 0), BuildingBlock: XIVTED_clean_linker_0, # of connection points: 2
#     Edge 45, Type (0, 0), BuildingBlock: XIVTED_clean_linker_0, # of connection points: 2
#     Edge 46, Type (0, 0), BuildingBlock: XIVTED_clean_linker_0, # of connection points: 2
#     Edge 47, Type (0, 0), BuildingBlock: XIVTED_clean_linker_0, # of connection points: 2
#     Edge 48, Type (0, 0), BuildingBlock: XIVTED_clean_linker_0, # of connection points: 2
#     Edge 49, Type (0, 0), BuildingBlock: XIVTED_clean_linker_0, # of connection points: 2
#     Edge 50, Type (0, 0), BuildingBlock: XIVTED_clean_linker_0, # of connection points: 2
#     Edge 51, Type (0, 0), BuildingBlock: XIVTED_clean_linker_0, # of connection points: 2
#     Edge 52, Type (0, 0), BuildingBlock: XIVTED_clean_linker_0, # of connection points: 2
#     Edge 53, Type (0, 0), BuildingBlock: XIVTED_clean_linker_0, # of connection points: 2
#     Edge 54, Type (0, 0), BuildingBlock: XIVTED_clean_linker_0, # of connection points: 2
#     Edge 55, Type (0, 0), BuildingBlock: XIVTED_clean_linker_0, # of connection points: 2
#     Edge 56, Type (0, 0), BuildingBlock: XIVTED_clean_linker_0, # of connection points: 2
#     Edge 57, Type (0, 0), BuildingBlock: XIVTED_clean_linker_0, # of connection points: 2
#     Edge 58, Type (0, 0), BuildingBlock: XIVTED_clean_linker_0, # of connection points: 2
#     Edge 59, Type (0, 0), BuildingBlock: XIVTED_clean_linker_0, # of connection points: 2
#     Edge 60, Type (0, 0), BuildingBlock: XIVTED_clean_linker_0, # of connection points: 2
#     Edge 61, Type (0, 0), BuildingBlock: XIVTED_clean_linker_0, # of connection points: 2
#     Edge 62, Type (0, 0), BuildingBlock: XIVTED_clean_linker_0, # of connection points: 2
#     Edge 63, Type (0, 0), BuildingBlock: XIVTED_clean_linker_0, # of connection points: 2
#     Edge 64, Type (0, 0), BuildingBlock: XIVTED_clean_linker_0, # of connection points: 2
#     Edge 65, Type (0, 0), BuildingBlock: XIVTED_clean_linker_0, # of connection points: 2
#     Edge 66, Type (0, 0), BuildingBlock: XIVTED_clean_linker_0, # of connection points: 2
#     Edge 67, Type (0, 0), BuildingBlock: XIVTED_clean_linker_0, # of connection points: 2
#     Edge 68, Type (0, 0), BuildingBlock: XIVTED_clean_linker_0, # of connection points: 2
#     Edge 69, Type (0, 0), BuildingBlock: XIVTED_clean_linker_0, # of connection points: 2
#     Edge 70, Type (0, 0), BuildingBlock: XIVTED_clean_linker_0, # of connection points: 2
#     Edge 71, Type (0, 0), BuildingBlock: XIVTED_clean_linker_0, # of connection points: 2
#     Edge 72, Type (0, 0), BuildingBlock: XIVTED_clean_linker_0, # of connection points: 2
#     Edge 73, Type (0, 0), BuildingBlock: XIVTED_clean_linker_0, # of connection points: 2
#     Edge 74, Type (0, 0), BuildingBlock: XIVTED_clean_linker_0, # of connection points: 2
#     Edge 75, Type (0, 0), BuildingBlock: XIVTED_clean_linker_0, # of connection points: 2
#     Edge 76, Type (0, 0), BuildingBlock: XIVTED_clean_linker_0, # of connection points: 2
#     Edge 77, Type (0, 0), BuildingBlock: XIVTED_clean_linker_0, # of connection points: 2
#     Edge 78, Type (0, 0), BuildingBlock: XIVTED_clean_linker_0, # of connection points: 2
#     Edge 79, Type (0, 0), BuildingBlock: XIVTED_clean_linker_0, # of connection points: 2
#     Edge 80, Type (0, 0), BuildingBlock: XIVTED_clean_linker_0, # of connection points: 2
#     Edge 81, Type (0, 0), BuildingBlock: XIVTED_clean_linker_0, # of connection points: 2
#     Edge 82, Type (0, 0), BuildingBlock: XIVTED_clean_linker_0, # of connection points: 2
#     Edge 83, Type (0, 0), BuildingBlock: XIVTED_clean_linker_0, # of connection points: 2
#     Edge 84, Type (0, 0), BuildingBlock: XIVTED_clean_linker_0, # of connection points: 2
#     Edge 85, Type (0, 0), BuildingBlock: XIVTED_clean_linker_0, # of connection points: 2
#     Edge 86, Type (0, 0), BuildingBlock: XIVTED_clean_linker_0, # of connection points: 2
#     Edge 87, Type (0, 0), BuildingBlock: XIVTED_clean_linker_0, # of connection points: 2
#     Edge 88, Type (0, 0), BuildingBlock: XIVTED_clean_linker_0, # of connection points: 2
#     Edge 89, Type (0, 0), BuildingBlock: XIVTED_clean_linker_0, # of connection points: 2
#     Edge 90, Type (0, 0), BuildingBlock: XIVTED_clean_linker_0, # of connection points: 2
#     Edge 91, Type (0, 0), BuildingBlock: XIVTED_clean_linker_0, # of connection points: 2
#     Edge 92, Type (0, 0), BuildingBlock: XIVTED_clean_linker_0, # of connection points: 2
#     Edge 93, Type (0, 0), BuildingBlock: XIVTED_clean_linker_0, # of connection points: 2
#     Edge 94, Type (0, 0), BuildingBlock: XIVTED_clean_linker_0, # of connection points: 2
#     Edge 95, Type (0, 0), BuildingBlock: XIVTED_clean_linker_0, # of connection points: 2
#     Edge 96, Type (0, 0), BuildingBlock: XIVTED_clean_linker_0, # of connection points: 2
#     Edge 97, Type (0, 0), BuildingBlock: XIVTED_clean_linker_0, # of connection points: 2
#     Edge 98, Type (0, 0), BuildingBlock: XIVTED_clean_linker_0, # of connection points: 2
#     Edge 99, Type (0, 0), BuildingBlock: XIVTED_clean_linker_0, # of connection points: 2
#     Edge 100, Type (0, 0), BuildingBlock: XIVTED_clean_linker_0, # of connection points: 2
#     Edge 101, Type (0, 0), BuildingBlock: XIVTED_clean_linker_0, # of connection points: 2
#     Edge 102, Type (0, 0), BuildingBlock: XIVTED_clean_linker_0, # of connection points: 2
#     Edge 103, Type (0, 0), BuildingBlock: XIVTED_clean_linker_0, # of connection points: 2
#     Edge 104, Type (0, 0), BuildingBlock: XIVTED_clean_linker_0, # of connection points: 2
#     Edge 105, Type (0, 0), BuildingBlock: XIVTED_clean_linker_0, # of connection points: 2
#     Edge 106, Type (0, 0), BuildingBlock: XIVTED_clean_linker_0, # of connection points: 2
#     Edge 107, Type (0, 0), BuildingBlock: XIVTED_clean_linker_0, # of connection points: 2
# Relax obj value: 0.279
# Max RMSD: 0.258
# Mean RMSD: 0.258
data_MOF--net-unl--node1-UXUYUI_clean_sbu_0--edge1-XIVTED_clean_linker_0
_symmetry_space_group_name_H-M    P1
_symmetry_Int_Tables_number       1
_symmetry_cell_setting            triclinic
loop_
_symmetry_equiv_pos_as_xyz
'x, y, z'
_cell_length_a     94.638419
_cell_length_b     94.64111
_cell_length_c     56.827577
_cell_angle_alpha  89.98685
_cell_angle_beta   90.006247
_cell_angle_gamma 120.00262
loop_
_atom_site_label
_atom_site_type_symbol
_atom_site_fract_x
_atom_site_fract_y
_atom_site_fract_z
_atom_type_partial_charge
Li0 Li 0.19102 0.08595 0.11012 0.0
Li1 Li 0.21827 0.11155 0.1217 0.0
Li2 Li 0.19172 0.10862 0.13082 0.0
Li3 Li 0.20067 0.11281 0.0918 0.0
C4 C 0.19455 0.09047 0.16416 0.0
N5 N 0.18228 0.08306 0.20937 0.0
C6 C 0.20199 0.10187 0.18221 0.0
C7 C 0.18097 0.07526 0.1691 0.0
C8 C 0.19557 0.09791 0.20495 0.0
C9 C 0.17493 0.07175 0.19208 0.0
C10 C 0.21634 0.10096 0.06853 0.0
C11 C 0.23631 0.11506 0.03813 0.0
N12 N 0.22555 0.10483 0.02179 0.0
C13 C 0.2055 0.09054 0.05147 0.0
C14 C 0.23188 0.1133 0.06186 0.0
C15 C 0.21038 0.09272 0.02792 0.0
C16 C 0.16788 0.05766 0.08826 0.0
N17 N 0.18035 0.06335 0.10396 0.0
C18 C 0.17788 0.03701 0.10693 0.0
C19 C 0.18542 0.05346 0.11347 0.0
C20 C 0.165 0.03083 0.09058 0.0
C21 C 0.15994 0.04136 0.08141 0.0
H22 H 0.16438 0.06592 0.08061 0.0
H23 H 0.19551 0.05841 0.12575 0.0
C24 C 0.2456 0.13003 0.15011 0.0
N25 N 0.23982 0.11909 0.13216 0.0
C26 C 0.26174 0.13669 0.15752 0.0
C27 C 0.26562 0.12055 0.12795 0.0
C28 C 0.24934 0.11409 0.12126 0.0
C29 C 0.27202 0.1321 0.14618 0.0
H30 H 0.23775 0.13389 0.15826 0.0
H31 H 0.24435 0.10526 0.10715 0.0
C32 C 0.16391 0.09557 0.10726 0.0
N33 N 0.13413 0.09307 0.11694 0.0
C34 C 0.16168 0.10894 0.10367 0.0
C35 C 0.15095 0.08088 0.11555 0.0
C36 C 0.14655 0.10745 0.10875 0.0
C37 C 0.13599 0.07987 0.12038 0.0
C38 C 0.21883 0.14311 0.10889 0.0
C39 C 0.20965 0.15048 0.10313 0.0
C40 C 0.23565 0.15148 0.10479 0.0
C41 C 0.21743 0.16605 0.09311 0.0
C42 C 0.24299 0.16705 0.0948 0.0
N43 N 0.2338 0.17394 0.08918 0.0
C44 C 0.18673 0.13037 0.15834 0.0
C45 C 0.16657 0.10276 0.16459 0.0
C46 C 0.17857 0.1356 0.17327 0.0
N47 N 0.1805 0.11422 0.15391 0.0
C48 C 0.15802 0.10744 0.17973 0.0
C49 C 0.16388 0.12409 0.18391 0.0
H50 H 0.19797 0.13925 0.15008 0.0
H51 H 0.16189 0.08998 0.16102 0.0
C52 C 0.18536 0.11477 0.05094 0.0
N53 N 0.2001 0.12202 0.06189 0.0
C54 C 0.18334 0.12086 0.02966 0.0
C55 C 0.21189 0.14142 0.03061 0.0
C56 C 0.21338 0.13484 0.05184 0.0
C57 C 0.19665 0.13454 0.01942 0.0
H58 H 0.17506 0.10432 0.05885 0.0
H59 H 0.22514 0.14004 0.06029 0.0
O60 O 0.20054 0.09415 0.14175 0.0
O61 O 0.21165 0.09925 0.09158 0.0
O62 O 0.17869 0.09686 0.10257 0.0
O63 O 0.21144 0.12792 0.11889 0.0
H64 H 0.21249 0.1137 0.17864 0.0
H65 H 0.17505 0.06632 0.15529 0.0
H66 H 0.20112 0.10665 0.21908 0.0
H67 H 0.16438 0.06006 0.19616 0.0
H68 H 0.24826 0.12462 0.03268 0.0
H69 H 0.1934 0.08099 0.05634 0.0
H70 H 0.24034 0.12161 0.0748 0.0
H71 H 0.20209 0.08481 0.0145 0.0
H72 H 0.18213 0.02928 0.11437 0.0
H73 H 0.15034 0.03722 0.06836 0.0
H74 H 0.26627 0.1457 0.17145 0.0
H75 H 0.27312 0.11658 0.11895 0.0
H76 H 0.17154 0.12034 0.09709 0.0
H77 H 0.15249 0.07045 0.11864 0.0
H78 H 0.14468 0.11772 0.10618 0.0
H79 H 0.1259 0.06862 0.12697 0.0
H80 H 0.19665 0.14425 0.10632 0.0
H81 H 0.24297 0.14598 0.10898 0.0
H82 H 0.21046 0.17186 0.08846 0.0
H83 H 0.25598 0.17363 0.09142 0.0
H84 H 0.18373 0.14854 0.17643 0.0
H85 H 0.14672 0.09816 0.18753 0.0
H86 H 0.17133 0.11522 0.02173 0.0
H87 H 0.22252 0.15182 0.02309 0.0
Li88 Li 0.89059 0.10917 0.12713 0.0
Li89 Li 0.91382 0.10777 0.11398 0.0
Li90 Li 0.88671 0.08779 0.10088 0.0
Li91 Li 0.89508 0.08765 0.14109 0.0
C92 C 0.9065 0.12736 0.08707 0.0
N93 N 0.92258 0.15949 0.07234 0.0
C94 C 0.91509 0.13992 0.10326 0.0
C95 C 0.90609 0.13114 0.0634 0.0
C96 C 0.92314 0.15609 0.09546 0.0
C97 C 0.91429 0.14746 0.0563 0.0
C98 C 0.92159 0.11397 0.16144 0.0
C99 C 0.94308 0.10857 0.17232 0.0
N100 N 0.94688 0.11889 0.19092 0.0
C101 C 0.9257 0.12452 0.18065 0.0
C102 C 0.93034 0.10592 0.15721 0.0
C103 C 0.93853 0.12685 0.19535 0.0
C104 C 0.87967 0.12463 0.15865 0.0
N105 N 0.88168 0.12253 0.13549 0.0
C106 C 0.86817 0.13708 0.12422 0.0
C107 C 0.87623 0.12864 0.11834 0.0
C108 C 0.86554 0.13913 0.14799 0.0
C109 C 0.87161 0.13298 0.16535 0.0
H110 H 0.88393 0.11941 0.17189 0.0
H111 H 0.87774 0.12659 0.10004 0.0
C112 C 0.93903 0.11289 0.08443 0.0
N113 N 0.9357 0.11955 0.10326 0.0
C114 C 0.95453 0.12067 0.07442 0.0
C115 C 0.96294 0.14218 0.10328 0.0
C116 C 0.94722 0.1339 0.11285 0.0
C117 C 0.96673 0.13554 0.0838 0.0
H118 H 0.9295 0.10161 0.07697 0.0
H119 H 0.94418 0.139 0.12773 0.0
C120 C 0.85907 0.08313 0.1254 0.0
N121 N 0.82831 0.07842 0.11642 0.0
C122 C 0.84638 0.0745 0.14137 0.0
C123 C 0.85611 0.08934 0.10484 0.0
C124 C 0.83092 0.07224 0.13652 0.0
C125 C 0.84049 0.08685 0.10063 0.0
C126 C 0.89972 0.06783 0.10851 0.0
C127 C 0.88456 0.05546 0.11651 0.0
C128 C 0.91012 0.06372 0.09672 0.0
C129 C 0.88006 0.03918 0.11257 0.0
C130 C 0.90517 0.04729 0.0931 0.0
N131 N 0.89037 0.03546 0.10103 0.0
C132 C 0.88167 0.07867 0.05335 0.0
C133 C 0.86104 0.05981 0.07896 0.0
C134 C 0.87473 0.06799 0.03439 0.0
N135 N 0.87493 0.07426 0.07514 0.0
C136 C 0.85384 0.04869 0.06062 0.0
C137 C 0.86092 0.05261 0.03814 0.0
H138 H 0.89282 0.09018 0.05095 0.0
H139 H 0.85596 0.05658 0.09648 0.0
C140 C 0.88088 0.07112 0.18316 0.0
N141 N 0.89253 0.07379 0.16699 0.0
C142 C 0.87679 0.05929 0.20059 0.0
C143 C 0.8971 0.05354 0.18474 0.0
C144 C 0.90101 0.06569 0.16792 0.0
C145 C 0.88463 0.05003 0.20103 0.0
H146 H 0.87436 0.07777 0.18197 0.0
H147 H 0.91033 0.06813 0.15498 0.0
O148 O 0.89861 0.1114 0.09414 0.0
O149 O 0.90904 0.11164 0.14697 0.0
O150 O 0.87431 0.08557 0.13012 0.0
O151 O 0.90436 0.0839 0.1119 0.0
H152 H 0.91556 0.13727 0.12165 0.0
H153 H 0.89951 0.12154 0.05065 0.0
H154 H 0.92984 0.16593 0.10779 0.0
H155 H 0.91408 0.15055 0.03803 0.0
H156 H 0.94996 0.10243 0.16924 0.0
H157 H 0.91904 0.13084 0.18414 0.0
H158 H 0.92743 0.09778 0.1424 0.0
H159 H 0.94184 0.13498 0.21029 0.0
H160 H 0.86391 0.1418 0.11025 0.0
H161 H 0.86968 0.13411 0.18388 0.0
H162 H 0.95682 0.11529 0.05911 0.0
H163 H 0.97201 0.1536 0.11106 0.0
H164 H 0.84847 0.0696 0.15737 0.0
H165 H 0.86577 0.09608 0.09227 0.0
H166 H 0.82098 0.06559 0.14874 0.0
H167 H 0.83804 0.09163 0.08481 0.0
H168 H 0.87634 0.05838 0.12571 0.0
H169 H 0.9219 0.07314 0.09042 0.0
H170 H 0.86837 0.0295 0.11867 0.0
H171 H 0.9131 0.04394 0.08399 0.0
H172 H 0.88061 0.07133 0.01733 0.0
H173 H 0.84314 0.03695 0.0641 0.0
H174 H 0.86705 0.05684 0.21284 0.0
H175 H 0.90348 0.04671 0.18472 0.0
Li176 Li 0.90713 0.79643 0.09294 0.0
Li177 Li 0.90994 0.80709 0.13191 0.0
Li178 Li 0.88882 0.77978 0.12461 0.0
Li179 Li 0.88705 0.80357 0.10902 0.0
C180 C 0.9283 0.79178 0.1207 0.0
N181 N 0.96032 0.79878 0.11843 0.0
C182 C 0.94063 0.80734 0.11411 0.0
C183 C 0.93224 0.77976 0.12609 0.0
C184 C 0.95674 0.81065 0.11308 0.0
C185 C 0.94851 0.78354 0.12485 0.0
C186 C 0.91829 0.83457 0.10161 0.0
C187 C 0.91925 0.85997 0.11043 0.0
N188 N 0.93429 0.86827 0.1004 0.0
C189 C 0.93368 0.84335 0.09115 0.0
C190 C 0.91095 0.84293 0.11114 0.0
C191 C 0.9416 0.86038 0.09081 0.0
C192 C 0.92043 0.80841 0.04882 0.0
N193 N 0.91801 0.79672 0.06477 0.0
C194 C 0.93288 0.78783 0.04095 0.0
C195 C 0.92379 0.78632 0.0611 0.0
C196 C 0.93612 0.8002 0.02452 0.0
C197 C 0.92952 0.81041 0.02852 0.0
H198 H 0.91566 0.81648 0.05222 0.0
H199 H 0.92163 0.77708 0.07403 0.0
C200 C 0.92995 0.8106 0.16973 0.0
N201 N 0.92597 0.81966 0.15553 0.0
C202 C 0.94271 0.81814 0.18578 0.0
C203 C 0.94639 0.84426 0.17377 0.0
C204 C 0.93364 0.83619 0.15765 0.0
C205 C 0.95132 0.8352 0.18759 0.0
H206 H 0.92345 0.79746 0.16812 0.0
H207 H 0.93018 0.84321 0.14664 0.0
C208 C 0.87814 0.7699 0.07795 0.0
N209 N 0.86834 0.74298 0.04934 0.0
C210 C 0.86625 0.76616 0.06072 0.0
C211 C 0.88503 0.75993 0.08066 0.0
C212 C 0.86146 0.7525 0.04642 0.0
C213 C 0.87992 0.74638 0.06602 0.0
C214 C 0.8891 0.80167 0.16509 0.0
C215 C 0.88948 0.79147 0.18256 0.0
C216 C 0.89185 0.81716 0.17112 0.0
C217 C 0.89281 0.79703 0.20578 0.0
C218 C 0.89515 0.82228 0.19454 0.0
N219 N 0.89557 0.81219 0.21124 0.0
C220 C 0.88396 0.7523 0.1502 0.0
C221 C 0.86068 0.74893 0.12954 0.0
C222 C 0.87538 0.73616 0.158 0.0
N223 N 0.87652 0.75826 0.13618 0.0
C224 C 0.8517 0.73267 0.13668 0.0
C225 C 0.85909 0.7261 0.151 0.0
H226 H 0.8966 0.76005 0.15512 0.0
H227 H 0.85512 0.75406 0.11839 0.0
C228 C 0.87009 0.80931 0.07516 0.0
N229 N 0.87257 0.81055 0.09877 0.0
C230 C 0.85942 0.81365 0.06499 0.0
C231 C 0.85432 0.82092 0.10361 0.0
C232 C 0.86491 0.81612 0.11314 0.0
C233 C 0.85141 0.81954 0.07925 0.0
H234 H 0.87646 0.80493 0.06424 0.0
H235 H 0.86708 0.81689 0.13191 0.0
O236 O 0.91239 0.7882 0.12179 0.0
O237 O 0.91025 0.81787 0.10173 0.0
O238 O 0.88294 0.78323 0.0921 0.0
O239 O 0.88631 0.7966 0.14217 0.0
H240 H 0.9378 0.81677 0.10995 0.0
H241 H 0.92282 0.76763 0.13114 0.0
H242 H 0.9664 0.82266 0.10805 0.0
H243 H 0.95174 0.77435 0.12898 0.0
H244 H 0.91374 0.86659 0.11789 0.0
H245 H 0.93945 0.83711 0.08326 0.0
H246 H 0.89905 0.83638 0.11918 0.0
H247 H 0.95354 0.86733 0.08286 0.0
H248 H 0.93753 0.77955 0.03846 0.0
H249 H 0.93188 0.82027 0.01659 0.0
H250 H 0.94597 0.81072 0.19647 0.0
H251 H 0.95273 0.85745 0.17475 0.0
H252 H 0.86075 0.77372 0.05845 0.0
H253 H 0.8942 0.76258 0.09395 0.0
H254 H 0.85227 0.74946 0.033 0.0
H255 H 0.88515 0.73856 0.06793 0.0
H256 H 0.8874 0.77946 0.1782 0.0
H257 H 0.89162 0.82522 0.15786 0.0
H258 H 0.89325 0.7893 0.21945 0.0
H259 H 0.89742 0.83428 0.19943 0.0
H260 H 0.88153 0.73149 0.16886 0.0
H261 H 0.83913 0.72532 0.13109 0.0
H262 H 0.85766 0.81266 0.0461 0.0
H263 H 0.84833 0.82544 0.11509 0.0
Li264 Li 0.08599 0.19704 0.38452 0.0
Li265 Li 0.11002 0.22097 0.37143 0.0
Li266 Li 0.10397 0.19467 0.35697 0.0
Li267 Li 0.11261 0.20233 0.39711 0.0
C268 C 0.07819 0.19628 0.33722 0.0
N269 N 0.0524 0.17717 0.30765 0.0
C270 C 0.07467 0.20332 0.31814 0.0
C271 C 0.06859 0.17951 0.34127 0.0
C272 C 0.06158 0.19345 0.30339 0.0
C273 C 0.05561 0.17006 0.32612 0.0
C274 C 0.09526 0.22425 0.41183 0.0
C275 C 0.08947 0.23793 0.44296 0.0
N276 N 0.0811 0.24195 0.42745 0.0
C277 C 0.08658 0.22851 0.3962 0.0
C278 C 0.0967 0.22898 0.4354 0.0
C279 C 0.07952 0.23747 0.40444 0.0
C280 C 0.06295 0.18185 0.41833 0.0
N281 N 0.06467 0.1886 0.3967 0.0
C282 C 0.038 0.1854 0.39899 0.0
C283 C 0.05259 0.19041 0.38675 0.0
C284 C 0.03617 0.17888 0.42173 0.0
C285 C 0.04875 0.17691 0.43124 0.0
H286 H 0.0729 0.18082 0.42584 0.0
H287 H 0.05445 0.1962 0.36975 0.0
C288 C 0.12062 0.24715 0.33991 0.0
N289 N 0.11957 0.24332 0.36312 0.0
C290 C 0.12826 0.26346 0.33283 0.0
C291 C 0.13342 0.2715 0.37373 0.0
C292 C 0.12574 0.25507 0.37999 0.0
C293 C 0.13489 0.2759 0.34985 0.0
H294 H 0.11573 0.23752 0.3269 0.0
H295 H 0.12487 0.25171 0.39833 0.0
C296 C 0.09751 0.16917 0.38874 0.0
N297 N 0.10447 0.14438 0.39549 0.0
C298 C 0.11214 0.17081 0.38038 0.0
C299 C 0.08643 0.15494 0.40056 0.0
C300 C 0.11544 0.15813 0.38395 0.0
C301 C 0.09017 0.14254 0.40379 0.0
C302 C 0.14081 0.22456 0.3737 0.0
C303 C 0.15375 0.22805 0.35849 0.0
C304 C 0.14376 0.23351 0.39449 0.0
C305 C 0.16945 0.24048 0.3643 0.0
C306 C 0.15962 0.24585 0.39967 0.0
N307 N 0.17203 0.24906 0.38459 0.0
C308 C 0.11839 0.19261 0.31554 0.0
C309 C 0.09637 0.16709 0.32772 0.0
C310 C 0.12214 0.18516 0.29733 0.0
N311 N 0.10593 0.18349 0.33052 0.0
C312 C 0.09972 0.15911 0.30975 0.0
C313 C 0.11295 0.16814 0.29454 0.0
H314 H 0.12577 0.20563 0.31826 0.0
H315 H 0.08652 0.16011 0.33991 0.0
C316 C 0.1168 0.19725 0.44447 0.0
N317 N 0.1236 0.19928 0.42279 0.0
C318 C 0.12302 0.19272 0.46349 0.0
C319 C 0.14334 0.19286 0.43752 0.0
C320 C 0.13685 0.19756 0.41909 0.0
C321 C 0.13618 0.19005 0.45993 0.0
H322 H 0.10615 0.19853 0.44676 0.0
H323 H 0.14197 0.19918 0.40163 0.0
O324 O 0.09105 0.20587 0.35165 0.0
O325 O 0.1021 0.21528 0.40436 0.0
O326 O 0.09403 0.18146 0.38574 0.0
O327 O 0.12537 0.21246 0.36808 0.0
H328 H 0.082 0.21628 0.31476 0.0
H329 H 0.07102 0.17381 0.35597 0.0
H330 H 0.05872 0.19874 0.28855 0.0
H331 H 0.04808 0.15707 0.32906 0.0
H332 H 0.0905 0.24167 0.46116 0.0
H333 H 0.08527 0.22494 0.37791 0.0
H334 H 0.10334 0.22573 0.44773 0.0
H335 H 0.07277 0.24084 0.39254 0.0
H336 H 0.02858 0.18722 0.39124 0.0
H337 H 0.04771 0.17182 0.44866 0.0
H338 H 0.12931 0.26628 0.31423 0.0
H339 H 0.13814 0.28065 0.38746 0.0
H340 H 0.12091 0.18176 0.37129 0.0
H341 H 0.07507 0.15353 0.4072 0.0
H342 H 0.12672 0.15924 0.37759 0.0
H343 H 0.0817 0.13146 0.41291 0.0
H344 H 0.1517 0.22121 0.34236 0.0
H345 H 0.13394 0.231 0.40655 0.0
H346 H 0.17957 0.24331 0.35267 0.0
H347 H 0.16206 0.25289 0.41567 0.0
H348 H 0.13256 0.19259 0.28622 0.0
H349 H 0.09221 0.14599 0.30805 0.0
H350 H 0.11706 0.19049 0.48046 0.0
H351 H 0.15357 0.19101 0.43415 0.0
Li352 Li 0.8075 0.9141 0.36663 0.0
Li353 Li 0.79884 0.91061 0.40724 0.0
Li354 Li 0.80431 0.89087 0.38904 0.0
Li355 Li 0.77966 0.89245 0.37852 0.0
C356 C 0.83199 0.92985 0.40013 0.0
N357 N 0.85581 0.96128 0.4116 0.0
C358 C 0.82913 0.94287 0.39701 0.0
C359 C 0.84696 0.93285 0.40929 0.0
C360 C 0.84132 0.95865 0.40284 0.0
C361 C 0.85885 0.94882 0.41492 0.0
C362 C 0.78121 0.92451 0.38263 0.0
C363 C 0.75778 0.92583 0.39636 0.0
N364 N 0.76426 0.94113 0.3873 0.0
C365 C 0.78762 0.94023 0.37339 0.0
C366 C 0.76615 0.91723 0.39416 0.0
C367 C 0.77888 0.94844 0.37596 0.0
C368 C 0.81047 0.93258 0.32648 0.0
N369 N 0.81927 0.92942 0.34237 0.0
C370 C 0.84428 0.9502 0.32573 0.0
C371 C 0.83587 0.93758 0.34184 0.0
C372 C 0.8355 0.9541 0.30967 0.0
C373 C 0.8184 0.94489 0.30975 0.0
H374 H 0.79729 0.92583 0.32729 0.0
H375 H 0.84262 0.93463 0.3543 0.0
C376 C 0.81246 0.92069 0.45145 0.0
N377 N 0.80223 0.92225 0.43625 0.0
C378 C 0.81737 0.92973 0.47219 0.0
C379 C 0.80087 0.94167 0.46165 0.0
C380 C 0.79625 0.93235 0.44107 0.0
C381 C 0.81183 0.94065 0.4773 0.0
H382 H 0.81721 0.91273 0.44708 0.0
H383 H 0.78838 0.93368 0.4287 0.0
C384 C 0.80422 0.88786 0.34019 0.0
N385 N 0.82171 0.88217 0.30629 0.0
C386 C 0.79617 0.87772 0.32107 0.0
C387 C 0.82117 0.89511 0.34209 0.0
C388 C 0.80523 0.87499 0.30411 0.0
C389 C 0.82979 0.89209 0.32477 0.0
C390 C 0.78305 0.88412 0.43283 0.0
C391 C 0.79194 0.87867 0.44587 0.0
C392 C 0.77214 0.88767 0.44438 0.0
C393 C 0.78983 0.87695 0.47024 0.0
C394 C 0.7704 0.88582 0.46878 0.0
N395 N 0.7792 0.88055 0.4811 0.0
C396 C 0.82861 0.88309 0.39852 0.0
C397 C 0.80212 0.8601 0.39445 0.0
C398 C 0.83485 0.87316 0.4054 0.0
N399 N 0.81248 0.87649 0.39378 0.0
C400 C 0.80785 0.84966 0.40123 0.0
C401 C 0.82436 0.85622 0.40741 0.0
H402 H 0.83652 0.89615 0.39779 0.0
H403 H 0.78932 0.85523 0.39062 0.0
C404 C 0.75403 0.87893 0.34551 0.0
N405 N 0.75759 0.88038 0.36884 0.0
C406 C 0.73781 0.87032 0.33797 0.0
C407 C 0.72931 0.86509 0.37867 0.0
C408 C 0.74567 0.87344 0.38535 0.0
C409 C 0.72511 0.86337 0.35466 0.0
H410 H 0.76381 0.88447 0.33277 0.0
H411 H 0.74886 0.87465 0.40377 0.0
O412 O 0.82008 0.91419 0.39503 0.0
O413 O 0.78955 0.91626 0.37999 0.0
O414 O 0.79549 0.89063 0.35691 0.0
O415 O 0.78514 0.88611 0.40897 0.0
H416 H 0.81763 0.94085 0.39021 0.0
H417 H 0.84937 0.92296 0.41218 0.0
H418 H 0.83925 0.96881 0.40046 0.0
H419 H 0.87048 0.95129 0.422 0.0
H420 H 0.74614 0.92035 0.40533 0.0
H421 H 0.79923 0.94605 0.36434 0.0
H422 H 0.76108 0.90518 0.4016 0.0
H423 H 0.78371 0.96062 0.36893 0.0
H424 H 0.8575 0.95694 0.32594 0.0
H425 H 0.81124 0.94761 0.29763 0.0
H426 H 0.82569 0.92843 0.48386 0.0
H427 H 0.7965 0.95012 0.46472 0.0
H428 H 0.78304 0.87201 0.31937 0.0
H429 H 0.82761 0.90299 0.35675 0.0
H430 H 0.79915 0.86716 0.28921 0.0
H431 H 0.84291 0.89762 0.32602 0.0
H432 H 0.80051 0.87595 0.43737 0.0
H433 H 0.76531 0.8921 0.43471 0.0
H434 H 0.79668 0.87282 0.48054 0.0
H435 H 0.7621 0.88866 0.47793 0.0
H436 H 0.84759 0.87884 0.4103 0.0
H437 H 0.79936 0.83667 0.40227 0.0
H438 H 0.73532 0.86908 0.31927 0.0
H439 H 0.7201 0.8603 0.39231 0.0
Li440 Li 0.10673 0.88575 0.37151 0.0
Li441 Li 0.10418 0.90892 0.38552 0.0
Li442 Li 0.08569 0.88255 0.39904 0.0
Li443 Li 0.0833 0.88993 0.35921 0.0
C444 C 0.1111 0.89237 0.42681 0.0
N445 N 0.11262 0.88709 0.47433 0.0
C446 C 0.11128 0.90341 0.44331 0.0
C447 C 0.11185 0.87873 0.43447 0.0
C448 C 0.11202 0.90051 0.46725 0.0
C449 C 0.11257 0.87625 0.45858 0.0
C450 C 0.11759 0.9187 0.34394 0.0
C451 C 0.12335 0.94532 0.33103 0.0
N452 N 0.13934 0.94979 0.32836 0.0
C453 C 0.13404 0.9235 0.34097 0.0
C454 C 0.11214 0.92962 0.33883 0.0
C455 C 0.14486 0.9393 0.3331 0.0
C456 C 0.1177 0.87034 0.34059 0.0
N457 N 0.12097 0.8785 0.36133 0.0
C458 C 0.14337 0.87421 0.36863 0.0
C459 C 0.13361 0.88074 0.37522 0.0
C460 C 0.14006 0.86533 0.34755 0.0
C461 C 0.12716 0.86364 0.33329 0.0
H462 H 0.10752 0.86877 0.32999 0.0
H463 H 0.13585 0.88727 0.39167 0.0
C464 C 0.1085 0.93799 0.40472 0.0
N465 N 0.11667 0.93085 0.39563 0.0
C466 C 0.11691 0.95261 0.4171 0.0
C467 C 0.14212 0.95281 0.40914 0.0
C468 C 0.13317 0.93801 0.39725 0.0
C469 C 0.13386 0.95993 0.41988 0.0
H470 H 0.09537 0.93183 0.40362 0.0
H471 H 0.13927 0.93176 0.39051 0.0
C472 C 0.07651 0.85326 0.37299 0.0
N473 N 0.0636 0.81997 0.3779 0.0
C474 C 0.06036 0.84248 0.36644 0.0
C475 C 0.08613 0.84707 0.38181 0.0
C476 C 0.05405 0.8257 0.36915 0.0
C477 C 0.07937 0.83022 0.38421 0.0
C478 C 0.06396 0.89396 0.39061 0.0
C479 C 0.05266 0.87733 0.38845 0.0
C480 C 0.05839 0.90493 0.39463 0.0
C481 C 0.03602 0.87192 0.39042 0.0
C482 C 0.04164 0.89906 0.39648 0.0
N483 N 0.03089 0.88281 0.39437 0.0
C484 C 0.07095 0.88125 0.44173 0.0
C485 C 0.06873 0.8558 0.43265 0.0
C486 C 0.06231 0.875 0.46258 0.0
N487 N 0.07382 0.87162 0.42707 0.0
C488 C 0.06004 0.84902 0.45342 0.0
C489 C 0.0566 0.85863 0.46862 0.0
H490 H 0.07533 0.89386 0.43714 0.0
H491 H 0.07137 0.84839 0.42116 0.0
C492 C 0.064 0.8731 0.3207 0.0
N493 N 0.06882 0.88661 0.33412 0.0
C494 C 0.05248 0.86924 0.30295 0.0
C495 C 0.05143 0.89357 0.31269 0.0
C496 C 0.06295 0.89692 0.33038 0.0
C497 C 0.04593 0.87948 0.29881 0.0
H498 H 0.06893 0.86515 0.32408 0.0
H499 H 0.06707 0.90762 0.34132 0.0
O500 O 0.10994 0.89477 0.40331 0.0
O501 O 0.10688 0.9034 0.35198 0.0
O502 O 0.083 0.86972 0.36996 0.0
O503 O 0.08036 0.89962 0.38843 0.0
H504 H 0.11062 0.91399 0.43773 0.0
H505 H 0.11176 0.87008 0.42197 0.0
H506 H 0.11205 0.90889 0.48022 0.0
H507 H 0.11306 0.86569 0.46476 0.0
H508 H 0.11934 0.95395 0.32714 0.0
H509 H 0.13842 0.91515 0.34488 0.0
H510 H 0.09943 0.92606 0.34112 0.0
H511 H 0.15765 0.94323 0.33082 0.0
H512 H 0.15306 0.87565 0.38029 0.0
H513 H 0.12433 0.85711 0.31674 0.0
H514 H 0.11018 0.95778 0.42529 0.0
H515 H 0.15517 0.95804 0.4113 0.0
H516 H 0.05277 0.84698 0.35926 0.0
H517 H 0.09859 0.85515 0.38707 0.0
H518 H 0.04156 0.81724 0.36421 0.0
H519 H 0.08666 0.82529 0.39114 0.0
H520 H 0.05667 0.86865 0.3854 0.0
H521 H 0.06689 0.91787 0.39615 0.0
H522 H 0.02718 0.85907 0.38882 0.0
H523 H 0.03718 0.90743 0.39957 0.0
H524 H 0.05978 0.88284 0.47352 0.0
H525 H 0.05607 0.83641 0.45753 0.0
H526 H 0.04845 0.85811 0.29301 0.0
H527 H 0.04689 0.90192 0.30995 0.0
Li528 Li 0.80466 0.91445 0.88288 0.0
Li529 Li 0.79792 0.88831 0.90103 0.0
Li530 Li 0.80815 0.89522 0.86082 0.0
Li531 Li 0.78085 0.89017 0.86988 0.0
C532 C 0.83443 0.90741 0.88837 0.0
N533 N 0.86457 0.90972 0.88321 0.0
C534 C 0.83875 0.89811 0.90259 0.0
C535 C 0.84558 0.91809 0.8718 0.0
C536 C 0.85401 0.8994 0.89965 0.0
C537 C 0.86071 0.91902 0.86937 0.0
C538 C 0.77124 0.89186 0.91531 0.0
C539 C 0.74992 0.86723 0.9331 0.0
N540 N 0.74337 0.87589 0.9425 0.0
C541 C 0.76431 0.90051 0.92518 0.0
C542 C 0.76401 0.87508 0.91933 0.0
C543 C 0.75022 0.89222 0.93886 0.0
C544 C 0.80288 0.94188 0.89836 0.0
N545 N 0.81329 0.93661 0.89185 0.0
C546 C 0.8361 0.96106 0.90626 0.0
C547 C 0.82966 0.94601 0.89497 0.0
C548 C 0.82556 0.96641 0.91437 0.0
C549 C 0.80882 0.95694 0.90953 0.0
H550 H 0.78989 0.93404 0.89591 0.0
H551 H 0.83763 0.94144 0.88995 0.0
C552 C 0.79917 0.86383 0.92701 0.0
N553 N 0.79861 0.87783 0.929 0.0
C554 C 0.80108 0.8564 0.94698 0.0
C555 C 0.80137 0.87774 0.97077 0.0
C556 C 0.7995 0.88479 0.95027 0.0
C557 C 0.80242 0.86346 0.96924 0.0
H558 H 0.79875 0.85879 0.90979 0.0
H559 H 0.79908 0.89599 0.95122 0.0
C560 C 0.80354 0.92339 0.84146 0.0
N561 N 0.81558 0.95526 0.82675 0.0
C562 C 0.79403 0.93083 0.84361 0.0
C563 C 0.81921 0.93223 0.83188 0.0
C564 C 0.80032 0.94693 0.83606 0.0
C565 C 0.82507 0.9483 0.82453 0.0
C566 C 0.78327 0.86314 0.8554 0.0
C567 C 0.78113 0.86736 0.83262 0.0
C568 C 0.77929 0.84708 0.86023 0.0
C569 C 0.77509 0.85545 0.81505 0.0
C570 C 0.77327 0.83552 0.84217 0.0
N571 N 0.77132 0.83991 0.82015 0.0
C572 C 0.82492 0.87955 0.84716 0.0
C573 C 0.82267 0.89508 0.81618 0.0
C574 C 0.83277 0.87392 0.83236 0.0
N575 N 0.82019 0.89004 0.83898 0.0
C576 C 0.83055 0.88977 0.80072 0.0
C577 C 0.83558 0.87894 0.80876 0.0
H578 H 0.82226 0.87528 0.86513 0.0
H579 H 0.81807 0.90275 0.80976 0.0
C580 C 0.75272 0.88786 0.84699 0.0
N581 N 0.75859 0.87975 0.85973 0.0
C582 C 0.73633 0.88002 0.84026 0.0
C583 C 0.73242 0.85551 0.85934 0.0
C584 C 0.74881 0.86383 0.86582 0.0
C585 C 0.72597 0.86363 0.84648 0.0
H586 H 0.76072 0.90036 0.84193 0.0
H587 H 0.75371 0.85754 0.87578 0.0
O588 O 0.81944 0.90616 0.89081 0.0
O589 O 0.78503 0.89985 0.90181 0.0
O590 O 0.79771 0.9077 0.84916 0.0
O591 O 0.78931 0.87462 0.8729 0.0
H592 H 0.83043 0.88995 0.91574 0.0
H593 H 0.84254 0.92549 0.86078 0.0
H594 H 0.85745 0.89219 0.91045 0.0
H595 H 0.86937 0.92714 0.85647 0.0
H596 H 0.74418 0.85424 0.93627 0.0
H597 H 0.76975 0.9135 0.92232 0.0
H598 H 0.76911 0.86813 0.91175 0.0
H599 H 0.74472 0.89877 0.94659 0.0
H600 H 0.8491 0.96807 0.90965 0.0
H601 H 0.80029 0.96059 0.91577 0.0
H602 H 0.80218 0.84563 0.94485 0.0
H603 H 0.80221 0.88352 0.98756 0.0
H604 H 0.78212 0.92448 0.85167 0.0
H605 H 0.82686 0.92683 0.83026 0.0
H606 H 0.79311 0.95285 0.83781 0.0
H607 H 0.83718 0.95525 0.81713 0.0
H608 H 0.78411 0.87969 0.82848 0.0
H609 H 0.78079 0.84356 0.87775 0.0
H610 H 0.7734 0.85856 0.79736 0.0
H611 H 0.77015 0.82305 0.84567 0.0
H612 H 0.83647 0.8656 0.8393 0.0
H613 H 0.83215 0.89362 0.78249 0.0
H614 H 0.73186 0.88665 0.83005 0.0
H615 H 0.72482 0.84291 0.86468 0.0
Li616 Li 0.08062 0.88741 0.89192 0.0
Li617 Li 0.10454 0.90724 0.91406 0.0
Li618 Li 0.10049 0.91205 0.87294 0.0
Li619 Li 0.10755 0.89134 0.88369 0.0
C620 C 0.08366 0.92231 0.89744 0.0
N621 N 0.0785 0.94821 0.88979 0.0
C622 C 0.09177 0.9364 0.91117 0.0
C623 C 0.07284 0.92134 0.87993 0.0
C624 C 0.08901 0.94937 0.90701 0.0
C625 C 0.07043 0.93459 0.87629 0.0
C626 C 0.0948 0.87973 0.93617 0.0
C627 C 0.10914 0.88054 0.97171 0.0
N628 N 0.09484 0.87389 0.98382 0.0
C629 C 0.08025 0.87291 0.94898 0.0
C630 C 0.10937 0.88356 0.94761 0.0
C631 C 0.08052 0.87004 0.97305 0.0
C632 C 0.054 0.85553 0.8967 0.0
N633 N 0.05826 0.87152 0.89558 0.0
C634 C 0.03164 0.86524 0.90791 0.0
C635 C 0.04738 0.8765 0.90046 0.0
C636 C 0.02715 0.84875 0.91056 0.0
C637 C 0.03839 0.84385 0.9041 0.0
H638 H 0.06304 0.85199 0.89321 0.0
H639 H 0.0512 0.88932 0.89997 0.0
C640 C 0.12797 0.92877 0.94659 0.0
N641 N 0.1119 0.91774 0.9436 0.0
C642 C 0.13338 0.93776 0.96737 0.0
C643 C 0.10563 0.92354 0.98184 0.0
C644 C 0.10076 0.91491 0.9607 0.0
C645 C 0.1221 0.9354 0.98522 0.0
H646 H 0.13651 0.93101 0.9325 0.0
H647 H 0.088 0.90627 0.95763 0.0
C648 C 0.07854 0.87715 0.84888 0.0
N649 N 0.05252 0.85122 0.82672 0.0
C650 C 0.07804 0.86219 0.84681 0.0
C651 C 0.06587 0.87896 0.83957 0.0
C652 C 0.06477 0.84922 0.83555 0.0
C653 C 0.0528 0.86569 0.82848 0.0
C654 C 0.13546 0.91848 0.88049 0.0
C655 C 0.14034 0.9243 0.8576 0.0
C656 C 0.1456 0.91528 0.89469 0.0
C657 C 0.15528 0.92673 0.84924 0.0
C658 C 0.16042 0.91782 0.88566 0.0
N659 N 0.16491 0.92345 0.86331 0.0
C660 C 0.11371 0.94455 0.85937 0.0
C661 C 0.09975 0.92583 0.82853 0.0
C662 C 0.11798 0.95772 0.84434 0.0
N663 N 0.10471 0.92902 0.85131 0.0
C664 C 0.10398 0.93867 0.81274 0.0
C665 C 0.11334 0.95492 0.82053 0.0
H666 H 0.11773 0.9467 0.87749 0.0
H667 H 0.09285 0.91334 0.82251 0.0
C668 C 0.12209 0.87176 0.8896 0.0
N669 N 0.11922 0.88088 0.87396 0.0
C670 C 0.13099 0.86432 0.88284 0.0
C671 C 0.13351 0.87554 0.84381 0.0
C672 C 0.12458 0.88278 0.85136 0.0
C673 C 0.13687 0.86621 0.85969 0.0
H674 H 0.11743 0.8702 0.90732 0.0
H675 H 0.12199 0.89002 0.83927 0.0
O676 O 0.08638 0.90957 0.901 0.0
O677 O 0.09484 0.88283 0.91263 0.0
O678 O 0.09128 0.88991 0.86017 0.0
O679 O 0.12071 0.91565 0.88881 0.0
H680 H 0.10024 0.9374 0.92474 0.0
H681 H 0.06651 0.91055 0.86908 0.0
H682 H 0.09526 0.96038 0.91743 0.0
H683 H 0.06217 0.93405 0.86269 0.0
H684 H 0.12034 0.88354 0.98079 0.0
H685 H 0.06888 0.87002 0.94056 0.0
H686 H 0.12079 0.88906 0.93807 0.0
H687 H 0.06936 0.86481 0.98319 0.0
H688 H 0.02349 0.86962 0.91307 0.0
H689 H 0.0354 0.83125 0.90575 0.0
H690 H 0.14612 0.947 0.96893 0.0
H691 H 0.09654 0.92119 0.99516 0.0
H692 H 0.08772 0.86056 0.85401 0.0
H693 H 0.06607 0.89046 0.84106 0.0
H694 H 0.06418 0.83755 0.83391 0.0
H695 H 0.04286 0.86689 0.82129 0.0
H696 H 0.13261 0.92674 0.84631 0.0
H697 H 0.14195 0.91065 0.91238 0.0
H698 H 0.15918 0.93116 0.83153 0.0
H699 H 0.16833 0.91528 0.89639 0.0
H700 H 0.12494 0.96996 0.85136 0.0
H701 H 0.10036 0.93586 0.7945 0.0
H702 H 0.13304 0.85698 0.89551 0.0
H703 H 0.13792 0.87741 0.82586 0.0
Li704 Li 0.09404 0.19994 0.90857 0.0
Li705 Li 0.11392 0.19579 0.88665 0.0
Li706 Li 0.11131 0.21983 0.87978 0.0
Li707 Li 0.09023 0.19269 0.86675 0.0
C708 C 0.12136 0.21652 0.93216 0.0
N709 N 0.12661 0.22141 0.98003 0.0
C710 C 0.12647 0.20731 0.94509 0.0
C711 C 0.11901 0.22828 0.94354 0.0
C712 C 0.12904 0.20996 0.96928 0.0
C713 C 0.12169 0.23054 0.96777 0.0
C714 C 0.07821 0.16465 0.88908 0.0
C715 C 0.0657 0.1399 0.86613 0.0
N716 N 0.05164 0.13456 0.87853 0.0
C717 C 0.06366 0.1589 0.90166 0.0
C718 C 0.07928 0.15506 0.87124 0.0
C719 C 0.05036 0.14365 0.89604 0.0
C720 C 0.07206 0.20146 0.94069 0.0
N721 N 0.08281 0.19607 0.93762 0.0
C722 C 0.075 0.18186 0.97429 0.0
C723 C 0.08455 0.18657 0.95397 0.0
C724 C 0.06335 0.18676 0.97762 0.0
C725 C 0.06218 0.19696 0.96068 0.0
H726 H 0.07065 0.20867 0.92716 0.0
H727 H 0.09295 0.18217 0.9508 0.0
C728 C 0.14523 0.19952 0.89182 0.0
N729 N 0.12906 0.18838 0.89036 0.0
C730 C 0.15634 0.19468 0.89866 0.0
C731 C 0.13398 0.16693 0.90163 0.0
C732 C 0.12333 0.1723 0.89464 0.0
C733 C 0.15069 0.17825 0.90438 0.0
H734 H 0.14939 0.21229 0.88881 0.0
H735 H 0.11038 0.16377 0.89391 0.0
C736 C 0.08392 0.22135 0.87733 0.0
N737 N 0.07821 0.2462 0.8644 0.0
C738 C 0.07687 0.22088 0.85552 0.0
C739 C 0.08795 0.23438 0.89264 0.0
C740 C 0.07409 0.23358 0.8493 0.0
C741 C 0.08502 0.24685 0.88575 0.0
C742 C 0.12571 0.20556 0.84452 0.0
C743 C 0.14075 0.21999 0.84308 0.0
C744 C 0.12394 0.19118 0.83492 0.0
C745 C 0.15386 0.21974 0.83218 0.0
C746 C 0.13735 0.19142 0.8242 0.0
N747 N 0.1519 0.20558 0.82307 0.0
C748 C 0.1351 0.25294 0.8863 0.0
C749 C 0.11908 0.24743 0.85178 0.0
C750 C 0.14385 0.26953 0.88078 0.0
N751 N 0.1229 0.24234 0.87193 0.0
C752 C 0.12725 0.26395 0.84587 0.0
C753 C 0.13981 0.27517 0.86047 0.0
H754 H 0.13808 0.2485 0.90197 0.0
H755 H 0.10968 0.23865 0.84031 0.0
C756 C 0.05816 0.17496 0.85007 0.0
N757 N 0.07401 0.18128 0.84359 0.0
C758 C 0.04571 0.1671 0.83356 0.0
C759 C 0.06617 0.17268 0.80388 0.0
C760 C 0.07823 0.18026 0.82106 0.0
C761 C 0.04968 0.16606 0.81008 0.0
H762 H 0.05521 0.17632 0.86801 0.0
H763 H 0.09096 0.18558 0.81637 0.0
O764 O 0.11853 0.21396 0.90852 0.0
O765 O 0.0913 0.17965 0.89406 0.0
O766 O 0.08689 0.20912 0.88363 0.0
O767 O 0.11281 0.2055 0.85545 0.0
H768 H 0.12825 0.1981 0.93661 0.0
H769 H 0.11507 0.23551 0.93379 0.0
H770 H 0.13292 0.20287 0.97953 0.0
H771 H 0.11985 0.23955 0.97683 0.0
H772 H 0.06632 0.1324 0.85227 0.0
H773 H 0.06257 0.16617 0.91545 0.0
H774 H 0.09043 0.15937 0.86128 0.0
H775 H 0.039 0.13907 0.90556 0.0
H776 H 0.07644 0.17412 0.98695 0.0
H777 H 0.05318 0.20078 0.96222 0.0
H778 H 0.16912 0.2038 0.90035 0.0
H779 H 0.12899 0.15421 0.90627 0.0
H780 H 0.0737 0.21092 0.84342 0.0
H781 H 0.09344 0.23493 0.90956 0.0
H782 H 0.06871 0.23342 0.83244 0.0
H783 H 0.08818 0.25707 0.89736 0.0
H784 H 0.14233 0.23123 0.85045 0.0
H785 H 0.11238 0.17991 0.83592 0.0
H786 H 0.16559 0.23079 0.83102 0.0
H787 H 0.13619 0.18036 0.8168 0.0
H788 H 0.15352 0.27789 0.89237 0.0
H789 H 0.124 0.26788 0.82988 0.0
H790 H 0.03317 0.16239 0.83895 0.0
H791 H 0.06969 0.17209 0.78593 0.0
Li792 Li 0.88943 0.78233 0.6167 0.0
Li793 Li 0.89548 0.80912 0.63039 0.0
Li794 Li 0.8921 0.80388 0.58991 0.0
Li795 Li 0.91681 0.80779 0.60959 0.0
C796 C 0.86161 0.78904 0.60325 0.0
N797 N 0.83393 0.78282 0.57855 0.0
C798 C 0.85755 0.80126 0.60054 0.0
C799 C 0.85151 0.77361 0.59355 0.0
C800 C 0.84354 0.7979 0.58793 0.0
C801 C 0.83758 0.77071 0.58111 0.0
C802 C 0.90874 0.79934 0.66294 0.0
C803 C 0.92539 0.81397 0.69627 0.0
N804 N 0.9124 0.80529 0.71073 0.0
C805 C 0.89559 0.79045 0.67811 0.0
C806 C 0.92379 0.81112 0.67203 0.0
C807 C 0.89767 0.79369 0.70223 0.0
C808 C 0.88637 0.75121 0.617 0.0
N809 N 0.87902 0.75983 0.62328 0.0
C810 C 0.8564 0.73604 0.63964 0.0
C811 C 0.86442 0.7527 0.6346 0.0
C812 C 0.86364 0.72677 0.63328 0.0
C813 C 0.87886 0.73455 0.62192 0.0
H814 H 0.89808 0.75731 0.60822 0.0
H815 H 0.85901 0.75997 0.63967 0.0
C816 C 0.90195 0.83122 0.66965 0.0
N817 N 0.89038 0.81897 0.65625 0.0
C818 C 0.89741 0.83826 0.68759 0.0
C819 C 0.86915 0.81938 0.67848 0.0
C820 C 0.87423 0.81284 0.66063 0.0
C821 C 0.8808 0.83236 0.69208 0.0
H822 H 0.91471 0.83556 0.66651 0.0
H823 H 0.86522 0.80284 0.65025 0.0
C824 C 0.90988 0.79141 0.56622 0.0
N825 N 0.92613 0.79463 0.52441 0.0
C826 C 0.91804 0.80652 0.55484 0.0
C827 C 0.90994 0.77793 0.55631 0.0
C828 C 0.9262 0.8079 0.53373 0.0
C829 C 0.91823 0.77981 0.53516 0.0
C830 C 0.91364 0.83881 0.6138 0.0
C831 C 0.90265 0.84457 0.6123 0.0
C832 C 0.92878 0.84842 0.62465 0.0
C833 C 0.90696 0.85983 0.62172 0.0
C834 C 0.93265 0.86365 0.63378 0.0
N835 N 0.92175 0.86899 0.63216 0.0
C836 C 0.88911 0.82268 0.55383 0.0
C837 C 0.87418 0.79414 0.54716 0.0
C838 C 0.8831 0.82553 0.53306 0.0
N839 N 0.88431 0.80718 0.56069 0.0
C840 C 0.86766 0.79641 0.52641 0.0
C841 C 0.87202 0.81228 0.51928 0.0
H842 H 0.89752 0.83284 0.56456 0.0
H843 H 0.87099 0.78197 0.55268 0.0
C844 C 0.9445 0.80406 0.60744 0.0
N845 N 0.93904 0.81472 0.60391 0.0
C846 C 0.95985 0.80769 0.59906 0.0
C847 C 0.96382 0.83347 0.58461 0.0
C848 C 0.94836 0.82925 0.59291 0.0
C849 C 0.96958 0.82246 0.58715 0.0
H850 H 0.9366 0.7924 0.61567 0.0
H851 H 0.94342 0.83714 0.58931 0.0
O852 O 0.87546 0.79221 0.6152 0.0
O853 O 0.90688 0.79655 0.63927 0.0
O854 O 0.90203 0.78981 0.58711 0.0
O855 O 0.90965 0.8239 0.60458 0.0
H856 H 0.86518 0.81324 0.60801 0.0
H857 H 0.85454 0.76405 0.5952 0.0
H858 H 0.84031 0.80728 0.58559 0.0
H859 H 0.82972 0.75887 0.57337 0.0
H860 H 0.93694 0.82312 0.70358 0.0
H861 H 0.88386 0.7813 0.67127 0.0
H862 H 0.93407 0.81809 0.66045 0.0
H863 H 0.88758 0.78701 0.71419 0.0
H864 H 0.84479 0.73054 0.64874 0.0
H865 H 0.88479 0.72778 0.61666 0.0
H866 H 0.90677 0.84807 0.69797 0.0
H867 H 0.85621 0.81449 0.68132 0.0
H868 H 0.91817 0.8171 0.56226 0.0
H869 H 0.90367 0.76615 0.56489 0.0
H870 H 0.93261 0.81953 0.52478 0.0
H871 H 0.9184 0.76948 0.5273 0.0
H872 H 0.89087 0.83731 0.60406 0.0
H873 H 0.93731 0.84406 0.62653 0.0
H874 H 0.89853 0.8644 0.62075 0.0
H875 H 0.94428 0.87117 0.64233 0.0
H876 H 0.88671 0.83795 0.52819 0.0
H877 H 0.85929 0.7859 0.51607 0.0
H878 H 0.96385 0.79886 0.60121 0.0
H879 H 0.97076 0.84478 0.57497 0.0
Li880 Li 0.21278 0.10474 0.62888 0.0
Li881 Li 0.18613 0.08353 0.64283 0.0
Li882 Li 0.19446 0.08425 0.60185 0.0
Li883 Li 0.18794 0.10449 0.61719 0.0
C884 C 0.21684 0.08015 0.64011 0.0
N885 N 0.24343 0.08046 0.66071 0.0
C886 C 0.21705 0.07779 0.66436 0.0
C887 C 0.23008 0.08255 0.62631 0.0
C888 C 0.23062 0.07799 0.67444 0.0
C889 C 0.24344 0.08272 0.63707 0.0
C890 C 0.19584 0.12003 0.65716 0.0
C891 C 0.17957 0.13128 0.67154 0.0
N892 N 0.19296 0.14646 0.67095 0.0
C893 C 0.20946 0.13572 0.65678 0.0
C894 C 0.18078 0.11775 0.66469 0.0
C895 C 0.20775 0.14893 0.66381 0.0
C896 C 0.24639 0.12538 0.62014 0.0
N897 N 0.23505 0.11796 0.63731 0.0
C898 C 0.25576 0.12794 0.66685 0.0
C899 C 0.23935 0.11928 0.66036 0.0
C900 C 0.26783 0.13538 0.64942 0.0
C901 C 0.26293 0.13415 0.62581 0.0
H902 H 0.24263 0.12429 0.602 0.0
H903 H 0.23001 0.11336 0.67366 0.0
C904 C 0.17046 0.0529 0.66365 0.0
N905 N 0.17474 0.0687 0.66762 0.0
C906 C 0.16214 0.04108 0.68079 0.0
C907 C 0.16323 0.0621 0.70623 0.0
C908 C 0.17134 0.07352 0.68837 0.0
C909 C 0.15849 0.04564 0.70245 0.0
H910 H 0.17363 0.04952 0.64713 0.0
H911 H 0.17505 0.08621 0.69111 0.0
C912 C 0.20989 0.10943 0.57371 0.0
N913 N 0.21544 0.11064 0.5258 0.0
C914 C 0.20144 0.11409 0.55828 0.0
C915 C 0.22119 0.10542 0.56473 0.0
C916 C 0.20443 0.11463 0.53413 0.0
C917 C 0.22381 0.10608 0.54047 0.0
C918 C 0.15866 0.06773 0.61906 0.0
C919 C 0.15427 0.05242 0.60965 0.0
C920 C 0.14808 0.06931 0.63459 0.0
C921 C 0.1394 0.03891 0.61613 0.0
C922 C 0.13334 0.0555 0.64067 0.0
N923 N 0.12934 0.04071 0.63139 0.0
C924 C 0.19743 0.05998 0.57711 0.0
C925 C 0.18343 0.0712 0.55674 0.0
C926 C 0.19409 0.04878 0.559 0.0
N927 N 0.19196 0.07077 0.57571 0.0
C928 C 0.18006 0.06042 0.53807 0.0
C929 C 0.18515 0.04883 0.53932 0.0
H930 H 0.20388 0.0597 0.59263 0.0
H931 H 0.17881 0.07959 0.55646 0.0
C932 C 0.18875 0.13373 0.60394 0.0
N933 N 0.17884 0.11747 0.60769 0.0
C934 C 0.1829 0.14262 0.59186 0.0
C935 C 0.15663 0.11801 0.58875 0.0
C936 C 0.16294 0.10963 0.60095 0.0
C937 C 0.16682 0.13458 0.58333 0.0
H938 H 0.20148 0.13952 0.60884 0.0
H939 H 0.15544 0.09664 0.60369 0.0
O940 O 0.20387 0.08044 0.63 0.0
O941 O 0.19721 0.10697 0.65007 0.0
O942 O 0.20703 0.10867 0.59742 0.0
O943 O 0.17332 0.08105 0.61332 0.0
H944 H 0.20696 0.07602 0.67533 0.0
H945 H 0.23014 0.08448 0.60754 0.0
H946 H 0.231 0.07627 0.6932 0.0
H947 H 0.25383 0.08469 0.62663 0.0
H948 H 0.16797 0.12972 0.67729 0.0
H949 H 0.22119 0.1377 0.65093 0.0
H950 H 0.17013 0.10568 0.66506 0.0
H951 H 0.21816 0.16116 0.66351 0.0
H952 H 0.25896 0.1288 0.6853 0.0
H953 H 0.2718 0.13954 0.61177 0.0
H954 H 0.15896 0.02857 0.67737 0.0
H955 H 0.16064 0.06605 0.72274 0.0
H956 H 0.19255 0.11712 0.56479 0.0
H957 H 0.22767 0.10155 0.57634 0.0
H958 H 0.19793 0.11817 0.522 0.0
H959 H 0.23244 0.1029 0.53329 0.0
H960 H 0.16231 0.05094 0.59767 0.0
H961 H 0.15133 0.08106 0.64209 0.0
H962 H 0.13588 0.02698 0.60908 0.0
H963 H 0.12509 0.05653 0.6528 0.0
H964 H 0.19814 0.03995 0.56058 0.0
H965 H 0.17285 0.06059 0.52338 0.0
H966 H 0.1912 0.15533 0.58775 0.0
H967 H 0.14413 0.11141 0.58256 0.0
Li968 Li 0.89147 0.10959 0.62815 0.0
Li969 Li 0.91491 0.10684 0.63988 0.0
Li970 Li 0.91078 0.11162 0.59873 0.0
Li971 Li 0.89311 0.08553 0.61788 0.0
C972 C 0.91615 0.14006 0.63402 0.0
N973 N 0.91717 0.16781 0.65148 0.0
C974 C 0.92267 0.14594 0.65633 0.0
C975 C 0.91025 0.14836 0.62054 0.0
C976 C 0.92307 0.15999 0.66484 0.0
C977 C 0.91083 0.16234 0.6297 0.0
C978 C 0.88003 0.07907 0.65887 0.0
C979 C 0.87129 0.05275 0.67635 0.0
N980 N 0.8555 0.04916 0.67459 0.0
C981 C 0.86374 0.07515 0.65728 0.0
C982 C 0.88388 0.06782 0.66852 0.0
C983 C 0.8515 0.05996 0.66532 0.0
C984 C 0.86527 0.11579 0.62332 0.0
N985 N 0.87744 0.11745 0.6378 0.0
C986 C 0.87114 0.13238 0.66563 0.0
C987 C 0.88016 0.12505 0.65898 0.0
C988 C 0.85888 0.13135 0.65066 0.0
C989 C 0.8557 0.12262 0.62952 0.0
H990 H 0.86316 0.10937 0.60681 0.0
H991 H 0.88962 0.12577 0.67043 0.0
C992 C 0.94686 0.12421 0.65614 0.0
N993 N 0.93155 0.11278 0.66279 0.0
C994 C 0.95988 0.12929 0.6717 0.0
C995 C 0.94107 0.11112 0.70105 0.0
C996 C 0.9284 0.10621 0.68474 0.0
C997 C 0.95711 0.12284 0.69461 0.0
H998 H 0.94893 0.12936 0.63864 0.0
H999 H 0.91606 0.0973 0.68964 0.0
C1000 C 0.88422 0.0996 0.57424 0.0
N1001 N 0.88085 0.10262 0.52649 0.0
C1002 C 0.88265 0.08742 0.55876 0.0
C1003 C 0.88408 0.11332 0.56543 0.0
C1004 C 0.88094 0.08917 0.53468 0.0
C1005 C 0.88237 0.11463 0.54124 0.0
C1006 C 0.93059 0.09536 0.61543 0.0
C1007 C 0.94478 0.10569 0.60288 0.0
C1008 C 0.93107 0.08521 0.63292 0.0
C1009 C 0.95922 0.1057 0.60806 0.0
C1010 C 0.94576 0.08561 0.63762 0.0
N1011 N 0.95941 0.09576 0.62518 0.0
C1012 C 0.92947 0.1383 0.56841 0.0
C1013 C 0.9235 0.11249 0.55357 0.0
C1014 C 0.93946 0.14613 0.54911 0.0
N1015 N 0.92197 0.12181 0.57045 0.0
C1016 C 0.93339 0.11981 0.53397 0.0
C1017 C 0.94186 0.13689 0.53187 0.0
H1018 H 0.92824 0.14544 0.58221 0.0
H1019 H 0.91764 0.09941 0.55591 0.0
C1020 C 0.86495 0.057 0.60367 0.0
N1021 N 0.8804 0.0628 0.6117 0.0
C1022 C 0.85611 0.0412 0.59468 0.0
C1023 C 0.87876 0.03721 0.60424 0.0
C1024 C 0.88725 0.05317 0.61271 0.0
C1025 C 0.86322 0.03123 0.59417 0.0
H1026 H 0.85987 0.065 0.60295 0.0
H1027 H 0.89955 0.05808 0.6191 0.0
O1028 O 0.91545 0.12619 0.62551 0.0
O1029 O 0.89213 0.09368 0.65046 0.0
O1030 O 0.88625 0.09828 0.59782 0.0
O1031 O 0.91637 0.09533 0.61085 0.0
H1032 H 0.92723 0.13966 0.66708 0.0
H1033 H 0.90505 0.14392 0.60332 0.0
H1034 H 0.92802 0.16464 0.68211 0.0
H1035 H 0.90618 0.1688 0.61953 0.0
H1036 H 0.87407 0.04389 0.68374 0.0
H1037 H 0.86056 0.08368 0.6497 0.0
H1038 H 0.89643 0.07063 0.66971 0.0
H1039 H 0.83883 0.05672 0.66411 0.0
H1040 H 0.87377 0.13886 0.68221 0.0
H1041 H 0.84629 0.12158 0.61759 0.0
H1042 H 0.972 0.13811 0.6657 0.0
H1043 H 0.93827 0.106 0.71861 0.0
H1044 H 0.88301 0.07685 0.56518 0.0
H1045 H 0.88541 0.12293 0.57712 0.0
H1046 H 0.87979 0.07987 0.5225 0.0
H1047 H 0.8823 0.12521 0.53417 0.0
H1048 H 0.94473 0.11376 0.58947 0.0
H1049 H 0.92032 0.07739 0.64317 0.0
H1050 H 0.97029 0.11368 0.59853 0.0
H1051 H 0.94632 0.07793 0.65124 0.0
H1052 H 0.94565 0.15931 0.54807 0.0
H1053 H 0.93509 0.11222 0.52133 0.0
H1054 H 0.84427 0.03727 0.5869 0.0
H1055 H 0.8846 0.02988 0.60473 0.0
Li1056 Li 0.86674 0.42398 0.44278 0.0
Li1057 Li 0.88776 0.44806 0.45965 0.0
Li1058 Li 0.85848 0.43868 0.46965 0.0
Li1059 Li 0.87096 0.45018 0.43022 0.0
C1060 C 0.86676 0.41274 0.48522 0.0
N1061 N 0.85683 0.38164 0.5015 0.0
C1062 C 0.8759 0.40524 0.47999 0.0
C1063 C 0.85263 0.40447 0.49886 0.0
C1064 C 0.87064 0.38949 0.48832 0.0
C1065 C 0.84781 0.38875 0.50691 0.0
C1066 C 0.90174 0.44642 0.42157 0.0
C1067 C 0.92908 0.46772 0.4122 0.0
N1068 N 0.93435 0.45677 0.41391 0.0
C1069 C 0.90745 0.43538 0.42322 0.0
C1070 C 0.91265 0.46272 0.41595 0.0
C1071 C 0.92396 0.44084 0.41925 0.0
C1072 C 0.86677 0.40263 0.40917 0.0
N1073 N 0.85962 0.40274 0.42983 0.0
C1074 C 0.84018 0.3743 0.4258 0.0
C1075 C 0.84663 0.38892 0.43843 0.0
C1076 C 0.84712 0.37399 0.40409 0.0
C1077 C 0.86089 0.38832 0.39619 0.0
H1078 H 0.87657 0.41385 0.40209 0.0
H1079 H 0.84069 0.3894 0.45438 0.0
C1080 C 0.9168 0.47499 0.47689 0.0
N1081 N 0.90923 0.45869 0.47255 0.0
C1082 C 0.93309 0.48338 0.48405 0.0
C1083 C 0.93336 0.45797 0.48266 0.0
C1084 C 0.91698 0.45004 0.47602 0.0
C1085 C 0.94162 0.47487 0.48646 0.0
H1086 H 0.91031 0.48155 0.47432 0.0
H1087 H 0.91062 0.43706 0.47282 0.0
C1088 C 0.83849 0.41881 0.42424 0.0
N1089 N 0.81578 0.39418 0.39593 0.0
C1090 C 0.84141 0.41874 0.40014 0.0
C1091 C 0.82399 0.4064 0.43394 0.0
C1092 C 0.82979 0.40616 0.38613 0.0
C1093 C 0.81266 0.39405 0.41932 0.0
C1094 C 0.87664 0.47527 0.45612 0.0
C1095 C 0.86369 0.47741 0.46324 0.0
C1096 C 0.88939 0.48747 0.44296 0.0
C1097 C 0.86362 0.49163 0.45683 0.0
C1098 C 0.88887 0.5015 0.43687 0.0
N1099 N 0.8761 0.50327 0.44386 0.0
C1100 C 0.84893 0.4427 0.51481 0.0
C1101 C 0.82891 0.43578 0.48513 0.0
C1102 C 0.83927 0.44513 0.53104 0.0
N1103 N 0.84371 0.43837 0.49231 0.0
C1104 C 0.81886 0.43809 0.50075 0.0
C1105 C 0.82417 0.44321 0.52391 0.0
H1106 H 0.86091 0.44494 0.51984 0.0
H1107 H 0.82525 0.4327 0.46698 0.0
C1108 C 0.87803 0.46583 0.38499 0.0
N1109 N 0.86821 0.46121 0.40429 0.0
C1110 C 0.87405 0.47189 0.36515 0.0
C1111 C 0.85009 0.46836 0.38561 0.0
C1112 C 0.85456 0.46249 0.40502 0.0
C1113 C 0.85971 0.47284 0.36518 0.0
H1114 H 0.88853 0.46421 0.3846 0.0
H1115 H 0.84683 0.4584 0.42044 0.0
O1116 O 0.87171 0.42817 0.47732 0.0
O1117 O 0.88565 0.44137 0.42578 0.0
O1118 O 0.84994 0.43073 0.43837 0.0
O1119 O 0.87677 0.46127 0.4618 0.0
H1120 H 0.88677 0.41139 0.4693 0.0
H1121 H 0.84542 0.41009 0.50309 0.0
H1122 H 0.87753 0.38348 0.48426 0.0
H1123 H 0.83687 0.38219 0.51741 0.0
H1124 H 0.93766 0.48032 0.40799 0.0
H1125 H 0.89932 0.42279 0.42801 0.0
H1126 H 0.90854 0.47148 0.41475 0.0
H1127 H 0.92854 0.43244 0.42062 0.0
H1128 H 0.82938 0.36362 0.43239 0.0
H1129 H 0.86679 0.38865 0.37971 0.0
H1130 H 0.93912 0.49643 0.48687 0.0
H1131 H 0.93955 0.45102 0.48462 0.0
H1132 H 0.85266 0.42814 0.39241 0.0
H1133 H 0.82164 0.40615 0.45261 0.0
H1134 H 0.83195 0.40589 0.36749 0.0
H1135 H 0.80144 0.38431 0.42659 0.0
H1136 H 0.85375 0.4682 0.4735 0.0
H1137 H 0.89953 0.48607 0.43733 0.0
H1138 H 0.85364 0.4934 0.46214 0.0
H1139 H 0.89861 0.51098 0.42656 0.0
H1140 H 0.84397 0.44931 0.54859 0.0
H1141 H 0.80727 0.43634 0.49457 0.0
H1142 H 0.88167 0.47506 0.34961 0.0
H1143 H 0.83901 0.46905 0.3864 0.0
Li1144 Li 0.57738 0.43622 0.44124 0.0
Li1145 Li 0.55139 0.43703 0.45327 0.0
Li1146 Li 0.55508 0.41378 0.46183 0.0
Li1147 Li 0.5506 0.41865 0.42298 0.0
C1148 C 0.57306 0.43472 0.49527 0.0
N1149 N 0.58099 0.42975 0.54009 0.0
C1150 C 0.5618 0.43052 0.51358 0.0
C1151 C 0.5884 0.43654 0.49976 0.0
C1152 C 0.56602 0.42799 0.53612 0.0
C1153 C 0.59217 0.43395 0.52255 0.0
C1154 C 0.56184 0.4463 0.40011 0.0
C1155 C 0.54748 0.45207 0.37 0.0
N1156 N 0.55781 0.45187 0.35354 0.0
C1157 C 0.57236 0.44621 0.38292 0.0
C1158 C 0.54932 0.44928 0.39366 0.0
C1159 C 0.5701 0.44903 0.35946 0.0
C1160 C 0.6057 0.44207 0.41891 0.0
N1161 N 0.59994 0.44856 0.43496 0.0
C1162 C 0.62619 0.47251 0.43824 0.0
C1163 C 0.60976 0.46344 0.44478 0.0
C1164 C 0.63244 0.46608 0.42159 0.0
C1165 C 0.62198 0.4506 0.41204 0.0
H1166 H 0.5975 0.43037 0.41103 0.0
H1167 H 0.60475 0.46834 0.45736 0.0
C1168 C 0.5322 0.44457 0.48211 0.0
N1169 N 0.54316 0.45034 0.46419 0.0
C1170 C 0.52481 0.45332 0.48976 0.0
C1171 C 0.54032 0.47394 0.46057 0.0
C1172 C 0.54752 0.46483 0.45362 0.0
C1173 C 0.52864 0.46811 0.47871 0.0
H1174 H 0.52894 0.43295 0.49009 0.0
H1175 H 0.55632 0.46913 0.43944 0.0
C1176 C 0.56874 0.39981 0.43779 0.0
N1177 N 0.57231 0.37308 0.44684 0.0
C1178 C 0.55571 0.38404 0.43406 0.0
C1179 C 0.58365 0.402 0.44591 0.0
C1180 C 0.55773 0.37069 0.43882 0.0
C1181 C 0.5852 0.38832 0.45042 0.0
C1182 C 0.52028 0.40553 0.44032 0.0
C1183 C 0.51339 0.38904 0.43445 0.0
C1184 C 0.5114 0.4135 0.43647 0.0
C1185 C 0.4978 0.38084 0.42453 0.0
C1186 C 0.49583 0.40485 0.42658 0.0
N1187 N 0.48942 0.38885 0.42083 0.0
C1188 C 0.5338 0.38698 0.48961 0.0
C1189 C 0.56152 0.39465 0.49517 0.0
C1190 C 0.52883 0.37374 0.50477 0.0
N1191 N 0.54988 0.39695 0.48476 0.0
C1192 C 0.5571 0.38156 0.51051 0.0
C1193 C 0.54053 0.37076 0.51521 0.0
H1194 H 0.52477 0.38922 0.48159 0.0
H1195 H 0.57425 0.40281 0.49134 0.0
C1196 C 0.54872 0.40166 0.38181 0.0
N1197 N 0.54138 0.40896 0.39305 0.0
C1198 C 0.5426 0.39364 0.36048 0.0
C1199 C 0.52183 0.40135 0.36198 0.0
C1200 C 0.52845 0.40933 0.38325 0.0
C1201 C 0.5288 0.39317 0.35049 0.0
H1202 H 0.55925 0.40188 0.38954 0.0
H1203 H 0.52317 0.41573 0.39194 0.0
O1204 O 0.56911 0.43707 0.47305 0.0
O1205 O 0.56365 0.44323 0.42309 0.0
O1206 O 0.56694 0.41304 0.43336 0.0
O1207 O 0.5355 0.41373 0.4502 0.0
H1208 H 0.54987 0.42903 0.51036 0.0
H1209 H 0.59723 0.43975 0.48575 0.0
H1210 H 0.55739 0.42461 0.55043 0.0
H1211 H 0.60397 0.43523 0.52627 0.0
H1212 H 0.53779 0.4543 0.36472 0.0
H1213 H 0.58204 0.44383 0.38762 0.0
H1214 H 0.54093 0.44916 0.4067 0.0
H1215 H 0.57809 0.44891 0.34594 0.0
H1216 H 0.63388 0.48442 0.44597 0.0
H1217 H 0.62618 0.44535 0.39874 0.0
H1218 H 0.51611 0.44847 0.50407 0.0
H1219 H 0.54355 0.48517 0.45137 0.0
H1220 H 0.54415 0.38215 0.42759 0.0
H1221 H 0.59383 0.4141 0.44911 0.0
H1222 H 0.54772 0.35841 0.43613 0.0
H1223 H 0.59663 0.38983 0.45688 0.0
H1224 H 0.52001 0.38264 0.43748 0.0
H1225 H 0.51653 0.42626 0.44076 0.0
H1226 H 0.49236 0.3681 0.41979 0.0
H1227 H 0.48886 0.41089 0.42338 0.0
H1228 H 0.51594 0.36596 0.50833 0.0
H1229 H 0.56653 0.3797 0.51816 0.0
H1230 H 0.5483 0.38741 0.35232 0.0
H1231 H 0.51135 0.40151 0.35466 0.0
Li1232 Li 0.57633 0.13282 0.42483 0.0
Li1233 Li 0.57923 0.1408 0.4647 0.0
Li1234 Li 0.55819 0.11372 0.45513 0.0
Li1235 Li 0.55642 0.13802 0.44299 0.0
C1236 C 0.59616 0.12594 0.46103 0.0
N1237 N 0.62516 0.13329 0.4828 0.0
C1238 C 0.61097 0.13853 0.45238 0.0
C1239 C 0.59612 0.11699 0.48062 0.0
C1240 C 0.62549 0.14208 0.46365 0.0
C1241 C 0.61091 0.12093 0.49142 0.0
C1242 C 0.58305 0.1689 0.44344 0.0
C1243 C 0.58005 0.18699 0.47024 0.0
N1244 N 0.58941 0.19977 0.4558 0.0
C1245 C 0.59262 0.18221 0.42885 0.0
C1246 C 0.57668 0.17128 0.46429 0.0
C1247 C 0.59571 0.19772 0.43542 0.0
C1248 C 0.58443 0.14328 0.37832 0.0
N1249 N 0.58709 0.13507 0.39575 0.0
C1250 C 0.60598 0.13187 0.3717 0.0
C1251 C 0.59733 0.12906 0.39272 0.0
C1252 C 0.6038 0.14068 0.35345 0.0
C1253 C 0.5925 0.14603 0.35684 0.0
H1254 H 0.5761 0.1478 0.38123 0.0
H1255 H 0.59907 0.1224 0.40681 0.0
C1256 C 0.59265 0.14659 0.51034 0.0
N1257 N 0.59507 0.15293 0.48829 0.0
C1258 C 0.60486 0.15398 0.52734 0.0
C1259 C 0.62151 0.17468 0.49888 0.0
C1260 C 0.60905 0.1668 0.48238 0.0
C1261 C 0.61961 0.1681 0.52157 0.0
H1262 H 0.58146 0.13544 0.51443 0.0
H1263 H 0.61085 0.17137 0.46456 0.0
C1264 C 0.54978 0.11235 0.40198 0.0
N1265 N 0.54648 0.10013 0.35691 0.0
C1266 C 0.54249 0.1169 0.38444 0.0
C1267 C 0.55528 0.10148 0.39666 0.0
C1268 C 0.54095 0.1106 0.36175 0.0
C1269 C 0.55354 0.09548 0.37375 0.0
C1270 C 0.54101 0.12288 0.48517 0.0
C1271 C 0.5275 0.1118 0.47195 0.0
C1272 C 0.53876 0.12662 0.50815 0.0
C1273 C 0.51196 0.10467 0.48199 0.0
C1274 C 0.52302 0.11925 0.51754 0.0
N1275 N 0.51005 0.10852 0.50438 0.0
C1276 C 0.54846 0.08806 0.48762 0.0
C1277 C 0.53558 0.07996 0.45038 0.0
C1278 C 0.54012 0.07194 0.49556 0.0
N1279 N 0.54623 0.09169 0.46528 0.0
C1280 C 0.52699 0.0637 0.45756 0.0
C1281 C 0.5293 0.05948 0.48038 0.0
H1282 H 0.55671 0.09773 0.49926 0.0
H1283 H 0.53374 0.08321 0.4329 0.0
C1284 C 0.54762 0.15506 0.4141 0.0
N1285 N 0.54335 0.14743 0.4353 0.0
C1286 C 0.54008 0.16342 0.40567 0.0
C1287 C 0.52352 0.15576 0.44087 0.0
C1288 C 0.53163 0.14771 0.44886 0.0
C1289 C 0.52788 0.16386 0.41909 0.0
H1290 H 0.55708 0.15475 0.40383 0.0
H1291 H 0.52868 0.14192 0.46592 0.0
O1292 O 0.58178 0.12259 0.4506 0.0
O1293 O 0.57979 0.15363 0.43694 0.0
O1294 O 0.55176 0.11868 0.42416 0.0
O1295 O 0.55643 0.12992 0.47601 0.0
H1296 H 0.61121 0.14573 0.43742 0.0
H1297 H 0.5848 0.10719 0.48752 0.0
H1298 H 0.63702 0.15189 0.45728 0.0
H1299 H 0.61105 0.11417 0.50669 0.0
H1300 H 0.5752 0.18901 0.48632 0.0
H1301 H 0.59756 0.18054 0.41259 0.0
H1302 H 0.56919 0.16116 0.47578 0.0
H1303 H 0.6031 0.20814 0.42429 0.0
H1304 H 0.61467 0.12766 0.37022 0.0
H1305 H 0.59004 0.15249 0.3432 0.0
H1306 H 0.6029 0.14859 0.5447 0.0
H1307 H 0.63278 0.18538 0.49362 0.0
H1308 H 0.53808 0.12521 0.38828 0.0
H1309 H 0.56107 0.09794 0.41001 0.0
H1310 H 0.53538 0.11406 0.34797 0.0
H1311 H 0.55786 0.08716 0.36934 0.0
H1312 H 0.52891 0.10875 0.45413 0.0
H1313 H 0.5491 0.13513 0.51862 0.0
H1314 H 0.5014 0.0961 0.47196 0.0
H1315 H 0.5211 0.12204 0.53531 0.0
H1316 H 0.54202 0.06929 0.51344 0.0
H1317 H 0.51886 0.0545 0.44521 0.0
H1318 H 0.54364 0.16936 0.38866 0.0
H1319 H 0.5142 0.15594 0.45173 0.0
Li1320 Li 0.75776 0.53188 0.71912 0.0
Li1321 Li 0.7824 0.55421 0.70402 0.0
Li1322 Li 0.77528 0.52546 0.69337 0.0
Li1323 Li 0.78391 0.53674 0.7329 0.0
C1324 C 0.7486 0.53245 0.67566 0.0
N1325 N 0.71774 0.52134 0.65744 0.0
C1326 C 0.74042 0.54108 0.67983 0.0
C1327 C 0.74113 0.51822 0.6621 0.0
C1328 C 0.72481 0.53524 0.67052 0.0
C1329 C 0.72552 0.51281 0.65306 0.0
C1330 C 0.78086 0.56663 0.74433 0.0
C1331 C 0.80344 0.59116 0.76034 0.0
N1332 N 0.79463 0.59887 0.75816 0.0
C1333 C 0.772 0.57478 0.74237 0.0
C1334 C 0.79668 0.57488 0.75349 0.0
C1335 C 0.77919 0.59107 0.74941 0.0
C1336 C 0.73235 0.53218 0.74464 0.0
N1337 N 0.73576 0.52376 0.72844 0.0
C1338 C 0.70809 0.50199 0.72887 0.0
C1339 C 0.72405 0.50895 0.72041 0.0
C1340 C 0.70426 0.5103 0.74591 0.0
C1341 C 0.71658 0.52571 0.75352 0.0
H1342 H 0.742 0.5436 0.7514 0.0
H1343 H 0.72721 0.50237 0.70792 0.0
C1344 C 0.80871 0.58355 0.68684 0.0
N1345 N 0.79252 0.57588 0.69188 0.0
C1346 C 0.81679 0.59971 0.67915 0.0
C1347 C 0.79127 0.59967 0.68126 0.0
C1348 C 0.78367 0.58345 0.6887 0.0
C1349 C 0.80812 0.60809 0.6766 0.0
H1350 H 0.81539 0.57715 0.68882 0.0
H1351 H 0.77076 0.57702 0.69247 0.0
C1352 C 0.76317 0.50563 0.74177 0.0
N1353 N 0.76133 0.48684 0.78011 0.0
C1354 C 0.7705 0.49597 0.74093 0.0
C1355 C 0.75486 0.5057 0.76206 0.0
C1356 C 0.76943 0.48655 0.76051 0.0
C1357 C 0.75408 0.49612 0.78128 0.0
C1358 C 0.81154 0.54572 0.70729 0.0
C1359 C 0.81512 0.53403 0.69862 0.0
C1360 C 0.8234 0.55905 0.71997 0.0
C1361 C 0.83044 0.53578 0.70305 0.0
C1362 C 0.83856 0.56034 0.72407 0.0
N1363 N 0.84173 0.54877 0.7156 0.0
C1364 C 0.785 0.51902 0.65017 0.0
C1365 C 0.76869 0.49541 0.67311 0.0
C1366 C 0.78729 0.50969 0.63322 0.0
N1367 N 0.77607 0.5118 0.66978 0.0
C1368 C 0.77072 0.4856 0.65665 0.0
C1369 C 0.78033 0.49278 0.63655 0.0
H1370 H 0.79076 0.53211 0.64812 0.0
H1371 H 0.76148 0.48999 0.68875 0.0
C1372 C 0.79052 0.53901 0.78168 0.0
N1373 N 0.79437 0.53484 0.76072 0.0
C1374 C 0.79648 0.53635 0.80272 0.0
C1375 C 0.81034 0.52526 0.78024 0.0
C1376 C 0.80395 0.52791 0.75973 0.0
C1377 C 0.80652 0.52938 0.80211 0.0
H1378 H 0.78242 0.54397 0.78211 0.0
H1379 H 0.80607 0.52375 0.74317 0.0
O1380 O 0.76378 0.53782 0.68492 0.0
O1381 O 0.77415 0.55074 0.73713 0.0
O1382 O 0.76452 0.51534 0.72308 0.0
O1383 O 0.79662 0.54426 0.70298 0.0
H1384 H 0.74593 0.55199 0.69053 0.0
H1385 H 0.74727 0.51139 0.6587 0.0
H1386 H 0.71829 0.54172 0.67378 0.0
H1387 H 0.71956 0.50179 0.64261 0.0
H1388 H 0.81569 0.59768 0.76739 0.0
H1389 H 0.75985 0.56874 0.73497 0.0
H1390 H 0.80369 0.56878 0.75531 0.0
H1391 H 0.77252 0.59755 0.74778 0.0
H1392 H 0.69895 0.49009 0.72251 0.0
H1393 H 0.71427 0.53235 0.76706 0.0
H1394 H 0.8297 0.60554 0.67518 0.0
H1395 H 0.78408 0.60562 0.67973 0.0
H1396 H 0.7772 0.49598 0.72551 0.0
H1397 H 0.74929 0.51325 0.76312 0.0
H1398 H 0.77515 0.47911 0.76018 0.0
H1399 H 0.74778 0.49613 0.79715 0.0
H1400 H 0.80614 0.5236 0.68886 0.0
H1401 H 0.82097 0.56833 0.72657 0.0
H1402 H 0.83332 0.52677 0.69658 0.0
H1403 H 0.84781 0.57056 0.73395 0.0
H1404 H 0.79495 0.51575 0.61815 0.0
H1405 H 0.76497 0.47259 0.65971 0.0
H1406 H 0.79314 0.53956 0.81928 0.0
H1407 H 0.81764 0.51939 0.77907 0.0
Li1408 Li 0.46907 0.24283 0.69166 0.0
Li1409 Li 0.4621 0.24446 0.73198 0.0
Li1410 Li 0.46653 0.22259 0.71943 0.0
Li1411 Li 0.44277 0.22323 0.70699 0.0
C1412 C 0.49516 0.26182 0.72251 0.0
N1413 N 0.52052 0.29345 0.72795 0.0
C1414 C 0.49369 0.27488 0.71399 0.0
C1415 C 0.50951 0.26484 0.73383 0.0
C1416 C 0.50665 0.29078 0.71689 0.0
C1417 C 0.5222 0.28092 0.7364 0.0
C1418 C 0.4401 0.25098 0.70887 0.0
C1419 C 0.4194 0.2495 0.73519 0.0
N1420 N 0.41636 0.25875 0.71998 0.0
C1421 C 0.43679 0.2605 0.69351 0.0
C1422 C 0.43136 0.24545 0.72991 0.0
C1423 C 0.42474 0.2643 0.69944 0.0
C1424 C 0.4709 0.25864 0.64962 0.0
N1425 N 0.48007 0.25544 0.66472 0.0
C1426 C 0.50428 0.27281 0.64301 0.0
C1427 C 0.49641 0.26196 0.66153 0.0
C1428 C 0.49521 0.27683 0.62761 0.0
C1429 C 0.47825 0.26934 0.63083 0.0
H1430 H 0.45794 0.25325 0.65264 0.0
H1431 H 0.50341 0.25918 0.67379 0.0
C1432 C 0.46708 0.25377 0.77935 0.0
N1433 N 0.46561 0.25875 0.7575 0.0
C1434 C 0.47147 0.26446 0.79841 0.0
C1435 C 0.47243 0.28503 0.77214 0.0
C1436 C 0.46783 0.2739 0.75366 0.0
C1437 C 0.47459 0.28043 0.79475 0.0
H1438 H 0.46538 0.24168 0.78176 0.0
H1439 H 0.46656 0.27753 0.73611 0.0
C1440 C 0.46637 0.21491 0.67222 0.0
N1441 N 0.48456 0.20726 0.64224 0.0
C1442 C 0.45884 0.20418 0.65345 0.0
C1443 C 0.48316 0.22175 0.67574 0.0
C1444 C 0.46825 0.20046 0.63849 0.0
C1445 C 0.49214 0.21773 0.6604 0.0
C1446 C 0.43961 0.20539 0.74756 0.0
C1447 C 0.4348 0.19227 0.7321 0.0
C1448 C 0.43519 0.2024 0.77127 0.0
C1449 C 0.42564 0.17636 0.74067 0.0
C1450 C 0.42601 0.18631 0.77915 0.0
N1451 N 0.42147 0.17373 0.76382 0.0
C1452 C 0.48204 0.21457 0.75258 0.0
C1453 C 0.47205 0.19514 0.72162 0.0
C1454 C 0.48686 0.20512 0.76528 0.0
N1455 N 0.47464 0.20937 0.73137 0.0
C1456 C 0.47689 0.18536 0.73366 0.0
C1457 C 0.48407 0.19021 0.756 0.0
H1458 H 0.48369 0.22583 0.75995 0.0
H1459 H 0.46576 0.19111 0.70496 0.0
C1460 C 0.41594 0.20768 0.67652 0.0
N1461 N 0.42026 0.2108 0.69954 0.0
C1462 C 0.39949 0.19916 0.67014 0.0
C1463 C 0.3923 0.19713 0.71134 0.0
C1464 C 0.40886 0.20574 0.71689 0.0
C1465 C 0.38743 0.19381 0.68769 0.0
H1466 H 0.42531 0.21195 0.66312 0.0
H1467 H 0.4126 0.20858 0.73505 0.0
O1468 O 0.48261 0.24611 0.72011 0.0
O1469 O 0.45182 0.24714 0.70314 0.0
O1470 O 0.45723 0.21865 0.68687 0.0
O1471 O 0.44879 0.22112 0.73976 0.0
H1472 H 0.48266 0.27279 0.70524 0.0
H1473 H 0.51081 0.25485 0.74058 0.0
H1474 H 0.50567 0.301 0.71038 0.0
H1475 H 0.53338 0.28344 0.74513 0.0
H1476 H 0.41254 0.24527 0.7514 0.0
H1477 H 0.44347 0.26492 0.67718 0.0
H1478 H 0.43374 0.23811 0.74206 0.0
H1479 H 0.42205 0.27164 0.6877 0.0
H1480 H 0.51735 0.27818 0.64098 0.0
H1481 H 0.47081 0.27222 0.61957 0.0
H1482 H 0.47319 0.26054 0.81556 0.0
H1483 H 0.47465 0.29724 0.7687 0.0
H1484 H 0.44586 0.19879 0.65049 0.0
H1485 H 0.48923 0.23 0.6902 0.0
H1486 H 0.46257 0.19218 0.6239 0.0
H1487 H 0.50514 0.22292 0.66293 0.0
H1488 H 0.43811 0.1943 0.71371 0.0
H1489 H 0.43885 0.21243 0.78346 0.0
H1490 H 0.42185 0.1661 0.72891 0.0
H1491 H 0.42252 0.18382 0.79746 0.0
H1492 H 0.49248 0.20931 0.78238 0.0
H1493 H 0.47443 0.17384 0.72609 0.0
H1494 H 0.39624 0.19673 0.65172 0.0
H1495 H 0.38341 0.19345 0.72537 0.0
Li1496 Li 0.7723 0.21987 0.70768 0.0
Li1497 Li 0.77529 0.24545 0.71806 0.0
Li1498 Li 0.75271 0.22082 0.73356 0.0
Li1499 Li 0.75309 0.22865 0.69121 0.0
C1500 C 0.78649 0.22485 0.74857 0.0
N1501 N 0.8077 0.2152 0.76567 0.0
C1502 C 0.80326 0.23594 0.74947 0.0
C1503 C 0.78054 0.20887 0.75645 0.0
C1504 C 0.81377 0.23083 0.75818 0.0
C1505 C 0.79145 0.20421 0.76498 0.0
C1506 C 0.78803 0.25208 0.67465 0.0
C1507 C 0.79455 0.27346 0.64634 0.0
N1508 N 0.81061 0.28025 0.65202 0.0
C1509 C 0.80461 0.25921 0.68012 0.0
C1510 C 0.78294 0.2592 0.65757 0.0
C1511 C 0.81583 0.27348 0.66853 0.0
C1512 C 0.774 0.19211 0.69346 0.0
N1513 N 0.78308 0.20811 0.69947 0.0
C1514 C 0.80773 0.20736 0.6942 0.0
C1515 C 0.79964 0.21588 0.69945 0.0
C1516 C 0.79872 0.19075 0.68808 0.0
C1517 C 0.78159 0.18318 0.68758 0.0
H1518 H 0.76085 0.18631 0.69305 0.0
H1519 H 0.8066 0.22868 0.70378 0.0
C1520 C 0.79488 0.26878 0.75056 0.0
N1521 N 0.78998 0.26751 0.72781 0.0
C1522 C 0.8048 0.284 0.76067 0.0
C1523 C 0.80408 0.29662 0.72408 0.0
C1524 C 0.7942 0.28105 0.71457 0.0
C1525 C 0.80956 0.29818 0.74742 0.0
H1526 H 0.79071 0.25794 0.76115 0.0
H1527 H 0.78957 0.27985 0.69689 0.0
C1528 C 0.73392 0.19342 0.71107 0.0
N1529 N 0.70505 0.16632 0.72474 0.0
C1530 C 0.71898 0.19138 0.70339 0.0
C1531 C 0.73418 0.1816 0.72554 0.0
C1532 C 0.70452 0.17761 0.71052 0.0
C1533 C 0.71945 0.16801 0.73231 0.0
C1534 C 0.75308 0.25357 0.72821 0.0
C1535 C 0.75384 0.25623 0.75248 0.0
C1536 C 0.75419 0.26558 0.71277 0.0
C1537 C 0.75581 0.27097 0.76093 0.0
C1538 C 0.75614 0.28015 0.72192 0.0
N1539 N 0.75692 0.28253 0.7456 0.0
C1540 C 0.74307 0.20875 0.78047 0.0
C1541 C 0.72333 0.21036 0.75672 0.0
C1542 C 0.73249 0.20367 0.79976 0.0
N1543 N 0.73831 0.21196 0.75952 0.0
C1544 C 0.7124 0.20535 0.77547 0.0
C1545 C 0.717 0.20214 0.79744 0.0
H1546 H 0.75523 0.2106 0.78244 0.0
H1547 H 0.72003 0.21336 0.73999 0.0
C1548 C 0.73964 0.21765 0.64682 0.0
N1549 N 0.73942 0.22641 0.66559 0.0
C1550 C 0.72784 0.21297 0.62923 0.0
C1551 C 0.71628 0.22706 0.65016 0.0
C1552 C 0.72825 0.23138 0.66744 0.0
C1553 C 0.71573 0.21736 0.63108 0.0
H1554 H 0.74854 0.21367 0.64608 0.0
H1555 H 0.72812 0.23796 0.68291 0.0
O1556 O 0.77598 0.22958 0.73989 0.0
O1557 O 0.77686 0.23803 0.68559 0.0
O1558 O 0.74822 0.20699 0.70467 0.0
O1559 O 0.75165 0.23943 0.71961 0.0
H1560 H 0.80817 0.24828 0.74307 0.0
H1561 H 0.76764 0.2001 0.7558 0.0
H1562 H 0.82677 0.23926 0.75884 0.0
H1563 H 0.787 0.19185 0.77102 0.0
H1564 H 0.79078 0.27914 0.63313 0.0
H1565 H 0.80873 0.25391 0.69341 0.0
H1566 H 0.77016 0.25381 0.6531 0.0
H1567 H 0.82868 0.2792 0.67269 0.0
H1568 H 0.82091 0.21376 0.69523 0.0
H1569 H 0.77407 0.17054 0.68243 0.0
H1570 H 0.80827 0.28463 0.77897 0.0
H1571 H 0.80732 0.30727 0.71336 0.0
H1572 H 0.7185 0.20039 0.69227 0.0
H1573 H 0.74561 0.18291 0.73153 0.0
H1574 H 0.69287 0.17592 0.70482 0.0
H1575 H 0.71947 0.15881 0.74358 0.0
H1576 H 0.75311 0.24709 0.76465 0.0
H1577 H 0.75383 0.26377 0.69393 0.0
H1578 H 0.75652 0.27325 0.77966 0.0
H1579 H 0.75713 0.2896 0.71019 0.0
H1580 H 0.7366 0.20154 0.81648 0.0
H1581 H 0.70052 0.20416 0.77284 0.0
H1582 H 0.72791 0.20561 0.6147 0.0
H1583 H 0.70703 0.2305 0.6524 0.0
Li1584 Li 0.46861 0.24888 0.22101 0.0
Li1585 Li 0.46465 0.22535 0.24398 0.0
Li1586 Li 0.47245 0.22832 0.20242 0.0
Li1587 Li 0.44508 0.2219 0.21441 0.0
C1588 C 0.50015 0.2451 0.22523 0.0
N1589 N 0.53062 0.24915 0.21599 0.0
C1590 C 0.50608 0.23682 0.23868 0.0
C1591 C 0.50975 0.25552 0.20717 0.0
C1592 C 0.52152 0.23902 0.23372 0.0
C1593 C 0.52511 0.25737 0.20274 0.0
C1594 C 0.44781 0.23604 0.26634 0.0
C1595 C 0.43463 0.22279 0.30264 0.0
N1596 N 0.44332 0.23722 0.31419 0.0
C1597 C 0.45659 0.25075 0.27856 0.0
C1598 C 0.43671 0.22195 0.27844 0.0
C1599 C 0.45414 0.25109 0.30275 0.0
C1600 C 0.46441 0.27632 0.2245 0.0
N1601 N 0.47568 0.27144 0.2237 0.0
C1602 C 0.4969 0.29809 0.23427 0.0
C1603 C 0.49172 0.282 0.22796 0.0
C1604 C 0.48544 0.30334 0.23639 0.0
C1605 C 0.46906 0.29234 0.23069 0.0
H1606 H 0.45168 0.26755 0.22152 0.0
H1607 H 0.50035 0.2777 0.22778 0.0
C1608 C 0.4624 0.20251 0.27802 0.0
N1609 N 0.4683 0.21862 0.27372 0.0
C1610 C 0.46643 0.19754 0.29885 0.0
C1611 C 0.48217 0.22582 0.31067 0.0
C1612 C 0.47788 0.23024 0.28958 0.0
C1613 C 0.47671 0.20928 0.31531 0.0
H1614 H 0.45509 0.19356 0.2649 0.0
H1615 H 0.4826 0.24298 0.28549 0.0
C1616 C 0.45917 0.25006 0.17836 0.0
N1617 N 0.45874 0.27561 0.15554 0.0
C1618 C 0.44462 0.2504 0.17649 0.0
C1619 C 0.47348 0.26265 0.1685 0.0
C1620 C 0.44466 0.26344 0.1649 0.0
C1621 C 0.47302 0.27548 0.15708 0.0
C1622 C 0.44396 0.19354 0.21256 0.0
C1623 C 0.44464 0.18744 0.19045 0.0
C1624 C 0.4307 0.18426 0.2274 0.0
C1625 C 0.43196 0.17217 0.18349 0.0
C1626 C 0.41825 0.16906 0.21977 0.0
N1627 N 0.41913 0.16338 0.19815 0.0
C1628 C 0.49105 0.21449 0.18714 0.0
C1629 C 0.4851 0.22818 0.15717 0.0
C1630 C 0.49905 0.20979 0.17104 0.0
N1631 N 0.48432 0.22354 0.17998 0.0
C1632 C 0.49278 0.22353 0.14039 0.0
C1633 C 0.49978 0.21413 0.14728 0.0
H1634 H 0.48986 0.21062 0.20529 0.0
H1635 H 0.47942 0.23517 0.15193 0.0
C1636 C 0.41117 0.20912 0.221 0.0
N1637 N 0.42273 0.21023 0.20575 0.0
C1638 C 0.39469 0.20018 0.21496 0.0
C1639 C 0.40237 0.19388 0.17751 0.0
C1640 C 0.4187 0.20306 0.18421 0.0
C1641 C 0.39007 0.1923 0.19301 0.0
H1642 H 0.41475 0.21521 0.23783 0.0
H1643 H 0.4282 0.20434 0.17234 0.0
O1644 O 0.48498 0.24294 0.22959 0.0
O1645 O 0.45022 0.23538 0.24272 0.0
O1646 O 0.45945 0.23755 0.18997 0.0
O1647 O 0.45611 0.2086 0.21955 0.0
H1648 H 0.4988 0.22864 0.25263 0.0
H1649 H 0.50531 0.26196 0.19652 0.0
H1650 H 0.52624 0.23263 0.24391 0.0
H1651 H 0.53262 0.26531 0.18872 0.0
H1652 H 0.42616 0.21196 0.31225 0.0
H1653 H 0.46532 0.26176 0.26957 0.0
H1654 H 0.42992 0.21043 0.26931 0.0
H1655 H 0.46089 0.26238 0.31245 0.0
H1656 H 0.50958 0.306 0.23894 0.0
H1657 H 0.45983 0.29588 0.23192 0.0
H1658 H 0.46219 0.18469 0.30145 0.0
H1659 H 0.49002 0.23527 0.32292 0.0
H1660 H 0.43345 0.24078 0.18409 0.0
H1661 H 0.48485 0.26257 0.16984 0.0
H1662 H 0.4335 0.2639 0.1634 0.0
H1663 H 0.48401 0.28536 0.14948 0.0
H1664 H 0.45475 0.19447 0.17868 0.0
H1665 H 0.42992 0.18885 0.2445 0.0
H1666 H 0.43229 0.16732 0.16639 0.0
H1667 H 0.40786 0.16181 0.23099 0.0
H1668 H 0.50405 0.20231 0.17695 0.0
H1669 H 0.4931 0.22711 0.1222 0.0
H1670 H 0.38569 0.19963 0.22726 0.0
H1671 H 0.39943 0.18791 0.16052 0.0
Li1672 Li 0.7479 0.22079 0.21448 0.0
Li1673 Li 0.77363 0.24168 0.23196 0.0
Li1674 Li 0.76754 0.24266 0.19027 0.0
Li1675 Li 0.77363 0.22206 0.20538 0.0
C1676 C 0.75309 0.25662 0.21281 0.0
N1677 N 0.74838 0.28219 0.2004 0.0
C1678 C 0.7626 0.27197 0.22308 0.0
C1679 C 0.74109 0.25423 0.1964 0.0
C1680 C 0.76004 0.28475 0.21654 0.0
C1681 C 0.73894 0.26733 0.1903 0.0
C1682 C 0.76325 0.21664 0.25995 0.0
C1683 C 0.77863 0.2205 0.29558 0.0
N1684 N 0.76488 0.21589 0.30845 0.0
C1685 C 0.74927 0.21191 0.27353 0.0
C1686 C 0.77805 0.22093 0.27104 0.0
C1687 C 0.75035 0.21161 0.29802 0.0
C1688 C 0.71899 0.19035 0.22144 0.0
N1689 N 0.72544 0.20681 0.22108 0.0
C1690 C 0.70071 0.20416 0.23619 0.0
C1691 C 0.7166 0.2138 0.22796 0.0
C1692 C 0.69377 0.18711 0.23732 0.0
C1693 C 0.70303 0.18021 0.22924 0.0
H1694 H 0.72645 0.18514 0.21652 0.0
H1695 H 0.72217 0.22692 0.22815 0.0
C1696 C 0.79988 0.26571 0.25775 0.0
N1697 N 0.78352 0.25532 0.25845 0.0
C1698 C 0.80749 0.27739 0.27531 0.0
C1699 C 0.78133 0.26717 0.29442 0.0
C1700 C 0.7742 0.2557 0.27638 0.0
C1701 C 0.79814 0.27845 0.29367 0.0
H1702 H 0.80695 0.26534 0.2431 0.0
H1703 H 0.76114 0.24751 0.27618 0.0
C1704 C 0.74307 0.20641 0.17288 0.0
N1705 N 0.71575 0.18017 0.15362 0.0
C1706 C 0.7418 0.19106 0.17216 0.0
C1707 C 0.73052 0.20846 0.16364 0.0
C1708 C 0.72788 0.17793 0.16237 0.0
C1709 C 0.71678 0.19502 0.15405 0.0
C1710 C 0.80199 0.24748 0.19584 0.0
C1711 C 0.80561 0.25082 0.17194 0.0
C1712 C 0.81241 0.24484 0.21027 0.0
C1713 C 0.81959 0.25137 0.16283 0.0
C1714 C 0.82624 0.24544 0.20047 0.0
N1715 N 0.82951 0.24867 0.17716 0.0
C1716 C 0.7808 0.27356 0.17029 0.0
C1717 C 0.76494 0.25221 0.14347 0.0
C1718 C 0.78432 0.28524 0.1529 0.0
N1719 N 0.77112 0.25745 0.16538 0.0
C1720 C 0.76846 0.26349 0.12535 0.0
C1721 C 0.77822 0.28024 0.13008 0.0
H1722 H 0.78593 0.27732 0.1877 0.0
H1723 H 0.75751 0.23929 0.13999 0.0
C1724 C 0.78773 0.20255 0.21563 0.0
N1725 N 0.78382 0.20972 0.19805 0.0
C1726 C 0.79617 0.19433 0.21062 0.0
C1727 C 0.796 0.20067 0.16942 0.0
C1728 C 0.78759 0.2088 0.17525 0.0
C1729 C 0.80051 0.19342 0.18727 0.0
H1730 H 0.78442 0.20335 0.23357 0.0
H1731 H 0.7843 0.21463 0.16166 0.0
O1732 O 0.75557 0.244 0.21871 0.0
O1733 O 0.7625 0.21721 0.23595 0.0
O1734 O 0.75654 0.21939 0.18252 0.0
O1735 O 0.78815 0.2465 0.20498 0.0
H1736 H 0.77197 0.27406 0.23575 0.0
H1737 H 0.73362 0.24242 0.18833 0.0
H1738 H 0.76737 0.29672 0.22423 0.0
H1739 H 0.72976 0.26568 0.17751 0.0
H1740 H 0.79002 0.2239 0.3044 0.0
H1741 H 0.73772 0.20858 0.2653 0.0
H1742 H 0.78904 0.22481 0.26084 0.0
H1743 H 0.73963 0.20801 0.30875 0.0
H1744 H 0.6943 0.21015 0.24275 0.0
H1745 H 0.6982 0.16715 0.22956 0.0
H1746 H 0.8205 0.2858 0.27419 0.0
H1747 H 0.77368 0.26774 0.30812 0.0
H1748 H 0.75139 0.18926 0.17928 0.0
H1749 H 0.73135 0.22027 0.164 0.0
H1750 H 0.72669 0.16596 0.16179 0.0
H1751 H 0.70694 0.1964 0.14694 0.0
H1752 H 0.79764 0.2528 0.16048 0.0
H1753 H 0.8097 0.24207 0.22876 0.0
H1754 H 0.8225 0.25387 0.14435 0.0
H1755 H 0.83434 0.24328 0.21139 0.0
H1756 H 0.79215 0.29804 0.15706 0.0
H1757 H 0.76364 0.25922 0.10788 0.0
H1758 H 0.79919 0.1887 0.22485 0.0
H1759 H 0.79924 0.20038 0.15123 0.0
Li1760 Li 0.75621 0.53213 0.24498 0.0
Li1761 Li 0.77643 0.52896 0.22235 0.0
Li1762 Li 0.77274 0.55235 0.21608 0.0
Li1763 Li 0.75199 0.5249 0.20289 0.0
C1764 C 0.78313 0.55054 0.26808 0.0
N1765 N 0.78766 0.55757 0.31563 0.0
C1766 C 0.7879 0.54187 0.28288 0.0
C1767 C 0.78069 0.5628 0.27749 0.0
C1768 C 0.79013 0.54561 0.30686 0.0
C1769 C 0.78303 0.56616 0.30156 0.0
C1770 C 0.74225 0.49642 0.22587 0.0
C1771 C 0.73091 0.47204 0.20212 0.0
N1772 N 0.71836 0.46447 0.21762 0.0
C1773 C 0.72922 0.4884 0.24154 0.0
C1774 C 0.74312 0.48818 0.20598 0.0
C1775 C 0.71728 0.47224 0.23707 0.0
C1776 C 0.73472 0.53347 0.27824 0.0
N1777 N 0.74538 0.52807 0.27443 0.0
C1778 C 0.73914 0.51481 0.31185 0.0
C1779 C 0.74779 0.51897 0.29071 0.0
C1780 C 0.72765 0.51981 0.31607 0.0
C1781 C 0.72568 0.52948 0.29903 0.0
H1782 H 0.73281 0.54043 0.26481 0.0
H1783 H 0.75612 0.51456 0.28699 0.0
C1784 C 0.80655 0.53256 0.23596 0.0
N1785 N 0.79218 0.52216 0.2253 0.0
C1786 C 0.81677 0.5269 0.24403 0.0
C1787 C 0.79816 0.50051 0.22738 0.0
C1788 C 0.78817 0.5066 0.22003 0.0
C1789 C 0.81221 0.51043 0.24075 0.0
H1790 H 0.80947 0.54492 0.23981 0.0
H1791 H 0.77679 0.49862 0.21133 0.0
C1792 C 0.74455 0.55262 0.21397 0.0
N1793 N 0.73725 0.57637 0.20083 0.0
C1794 C 0.73702 0.55154 0.19235 0.0
C1795 C 0.74819 0.56569 0.22902 0.0
C1796 C 0.73346 0.56368 0.18601 0.0
C1797 C 0.74446 0.57761 0.22202 0.0
C1798 C 0.78739 0.53839 0.18058 0.0
C1799 C 0.80316 0.55159 0.18357 0.0
C1800 C 0.78491 0.52505 0.16698 0.0
C1801 C 0.81626 0.55117 0.17294 0.0
C1802 C 0.79832 0.52509 0.15664 0.0
N1803 N 0.81359 0.53804 0.15982 0.0
C1804 C 0.79594 0.58581 0.22159 0.0
C1805 C 0.77927 0.57933 0.18766 0.0
C1806 C 0.80413 0.60232 0.2156 0.0
N1807 N 0.78364 0.57477 0.2078 0.0
C1808 C 0.78699 0.59573 0.18114 0.0
C1809 C 0.79962 0.60751 0.19519 0.0
H1810 H 0.79955 0.58178 0.23708 0.0
H1811 H 0.76976 0.57022 0.17667 0.0
C1812 C 0.72019 0.5028 0.18654 0.0
N1813 N 0.73572 0.51341 0.17968 0.0
C1814 C 0.70789 0.49486 0.16985 0.0
C1815 C 0.72758 0.50969 0.13932 0.0
C1816 C 0.73962 0.51692 0.1566 0.0
C1817 C 0.71137 0.49844 0.14578 0.0
H1818 H 0.71729 0.5006 0.20505 0.0
H1819 H 0.752 0.52575 0.15168 0.0
O1820 O 0.78062 0.54689 0.24459 0.0
O1821 O 0.75404 0.51225 0.22995 0.0
O1822 O 0.74829 0.54093 0.2204 0.0
O1823 O 0.7745 0.53837 0.19142 0.0
H1824 H 0.78954 0.53212 0.27607 0.0
H1825 H 0.77696 0.56961 0.26635 0.0
H1826 H 0.79373 0.53893 0.31852 0.0
H1827 H 0.78113 0.57559 0.30907 0.0
H1828 H 0.73138 0.46556 0.18672 0.0
H1829 H 0.72828 0.49458 0.25693 0.0
H1830 H 0.75289 0.4943 0.19337 0.0
H1831 H 0.70712 0.46589 0.24904 0.0
H1832 H 0.7412 0.50748 0.32452 0.0
H1833 H 0.71675 0.53333 0.30123 0.0
H1834 H 0.8274 0.53505 0.25429 0.0
H1835 H 0.79439 0.48787 0.22381 0.0
H1836 H 0.73405 0.5415 0.18051 0.0
H1837 H 0.75392 0.56669 0.24586 0.0
H1838 H 0.72772 0.56304 0.16927 0.0
H1839 H 0.74731 0.58784 0.23343 0.0
H1840 H 0.80528 0.56196 0.1942 0.0
H1841 H 0.77276 0.51472 0.16457 0.0
H1842 H 0.82855 0.56126 0.17518 0.0
H1843 H 0.7966 0.51482 0.14613 0.0
H1844 H 0.81407 0.61087 0.22665 0.0
H1845 H 0.78298 0.59911 0.16535 0.0
H1846 H 0.69579 0.48611 0.17596 0.0
H1847 H 0.73096 0.51331 0.12121 0.0
Li1848 Li 0.55658 0.13858 0.97324 0.0
Li1849 Li 0.55363 0.11276 0.95956 0.0
Li1850 Li 0.57744 0.13859 0.94941 0.0
Li1851 Li 0.5509 0.13045 0.93194 0.0
C1852 C 0.58472 0.13126 0.98954 0.0
N1853 N 0.61479 0.13633 0.0039 0.0
C1854 C 0.58841 0.11874 0.98759 0.0
C1855 C 0.59627 0.14633 0.99889 0.0
C1856 C 0.6037 0.12155 0.99494 0.0
C1857 C 0.61142 0.14867 0.00601 0.0
C1858 C 0.52385 0.10649 0.96862 0.0
C1859 C 0.50158 0.07883 0.965 0.0
N1860 N 0.49798 0.07894 0.98814 0.0
C1861 C 0.51991 0.10634 0.99237 0.0
C1862 C 0.51457 0.09265 0.95479 0.0
C1863 C 0.50678 0.0923 0.0019 0.0
C1864 C 0.53881 0.15193 0.99153 0.0
N1865 N 0.55096 0.14887 0.99721 0.0
C1866 C 0.55327 0.1602 0.03555 0.0
C1867 C 0.55823 0.15279 0.01869 0.0
C1868 C 0.54075 0.16361 0.03011 0.0
C1869 C 0.53364 0.15948 0.00763 0.0
H1870 H 0.53316 0.14851 0.97436 0.0
H1871 H 0.56776 0.15004 0.0228 0.0
C1872 C 0.54326 0.07945 0.95136 0.0
N1873 N 0.54572 0.09067 0.96815 0.0
C1874 C 0.5357 0.06293 0.95713 0.0
C1875 C 0.5341 0.06993 0.99759 0.0
C1876 C 0.54169 0.08632 0.99101 0.0
C1877 C 0.53075 0.05796 0.98044 0.0
H1878 H 0.54688 0.08328 0.93342 0.0
H1879 H 0.54388 0.09556 0.00399 0.0
C1880 C 0.56743 0.16612 0.95011 0.0
N1881 N 0.56701 0.19417 0.96237 0.0
C1882 C 0.55651 0.16993 0.93918 0.0
C1883 C 0.57817 0.17662 0.96721 0.0
C1884 C 0.55649 0.18417 0.94562 0.0
C1885 C 0.57774 0.19072 0.9732 0.0
C1886 C 0.56285 0.11715 0.90485 0.0
C1887 C 0.57557 0.12771 0.89002 0.0
C1888 C 0.54849 0.10453 0.8951 0.0
C1889 C 0.57374 0.12542 0.86568 0.0
C1890 C 0.54713 0.10267 0.87068 0.0
N1891 N 0.55968 0.11306 0.8566 0.0
C1892 C 0.60621 0.13934 0.93505 0.0
C1893 C 0.60897 0.16541 0.94075 0.0
C1894 C 0.62165 0.14636 0.92475 0.0
N1895 N 0.60002 0.14889 0.94206 0.0
C1896 C 0.62453 0.17296 0.93083 0.0
C1897 C 0.6308 0.16338 0.92175 0.0
H1898 H 0.59869 0.1262 0.93599 0.0
H1899 H 0.60371 0.1727 0.94622 0.0
C1900 C 0.52357 0.12332 0.90353 0.0
N1901 N 0.54011 0.13206 0.90479 0.0
C1902 C 0.51544 0.12565 0.88477 0.0
C1903 C 0.54155 0.14566 0.8687 0.0
C1904 C 0.54918 0.14293 0.88776 0.0
C1905 C 0.52444 0.1372 0.8673 0.0
H1906 H 0.51666 0.11493 0.91746 0.0
H1907 H 0.56231 0.14993 0.8895 0.0
O1908 O 0.56999 0.12887 0.98192 0.0
O1909 O 0.5369 0.11999 0.95909 0.0
O1910 O 0.56743 0.15208 0.94435 0.0
O1911 O 0.56427 0.11935 0.92873 0.0
H1912 H 0.57963 0.10703 0.98026 0.0
H1913 H 0.59362 0.15616 0.00041 0.0
H1914 H 0.60676 0.112 0.99344 0.0
H1915 H 0.62051 0.16029 0.01317 0.0
H1916 H 0.4944 0.06799 0.95455 0.0
H1917 H 0.52701 0.11687 0.00342 0.0
H1918 H 0.51757 0.09247 0.93647 0.0
H1919 H 0.50364 0.09199 0.02027 0.0
H1920 H 0.55896 0.16293 0.05273 0.0
H1921 H 0.5242 0.16212 0.00237 0.0
H1922 H 0.53365 0.05412 0.94347 0.0
H1923 H 0.5304 0.06663 0.01572 0.0
H1924 H 0.548 0.16191 0.92609 0.0
H1925 H 0.58652 0.17376 0.97612 0.0
H1926 H 0.54806 0.18723 0.93738 0.0
H1927 H 0.5859 0.19888 0.98653 0.0
H1928 H 0.58664 0.13773 0.89712 0.0
H1929 H 0.53838 0.09645 0.90623 0.0
H1930 H 0.58347 0.13354 0.85401 0.0
H1931 H 0.53605 0.09302 0.86291 0.0
H1932 H 0.62585 0.13845 0.91779 0.0
H1933 H 0.63126 0.18613 0.92933 0.0
H1934 H 0.50223 0.11878 0.88428 0.0
H1935 H 0.54896 0.15487 0.85587 0.0
Li1936 Li 0.85637 0.41846 0.96689 0.0
Li1937 Li 0.88291 0.44006 0.95601 0.0
Li1938 Li 0.8577 0.44156 0.94576 0.0
Li1939 Li 0.86472 0.42225 0.9262 0.0
C1940 C 0.86183 0.44252 0.99928 0.0
N1941 N 0.8516 0.44452 0.04408 0.0
C1942 C 0.86869 0.4393 0.01889 0.0
C1943 C 0.84983 0.44685 0.00246 0.0
C1944 C 0.86333 0.44034 0.04139 0.0
C1945 C 0.84481 0.44777 0.02525 0.0
C1946 C 0.88672 0.41467 0.96132 0.0
C1947 C 0.91378 0.41841 0.95749 0.0
N1948 N 0.91246 0.41208 0.97939 0.0
C1949 C 0.88567 0.40826 0.98385 0.0
C1950 C 0.90091 0.41981 0.94804 0.0
C1951 C 0.8988 0.40702 0.99264 0.0
C1952 C 0.84243 0.38652 0.98186 0.0
N1953 N 0.8437 0.40091 0.98844 0.0
C1954 C 0.82713 0.38826 0.02232 0.0
C1955 C 0.83589 0.4019 0.00793 0.0
C1956 C 0.82596 0.37328 0.01627 0.0
C1957 C 0.83354 0.37252 0.99542 0.0
H1958 H 0.84831 0.38591 0.96588 0.0
H1959 H 0.83629 0.41315 0.01235 0.0
C1960 C 0.91579 0.46495 0.95023 0.0
N1961 N 0.9052 0.45321 0.96519 0.0
C1962 C 0.93233 0.47419 0.95592 0.0
C1963 C 0.92668 0.45937 0.99258 0.0
C1964 C 0.91026 0.45052 0.98623 0.0
C1965 C 0.938 0.47133 0.97726 0.0
H1966 H 0.91142 0.46712 0.93384 0.0
H1967 H 0.90163 0.4412 0.99789 0.0
C1968 C 0.82829 0.40648 0.94506 0.0
N1969 N 0.79789 0.38211 0.95946 0.0
C1970 C 0.82219 0.3905 0.93711 0.0
C1971 C 0.81891 0.4101 0.96025 0.0
C1972 C 0.80679 0.37834 0.94461 0.0
C1973 C 0.80357 0.3976 0.96734 0.0
C1974 C 0.88001 0.44879 0.90218 0.0
C1975 C 0.86932 0.45101 0.88776 0.0
C1976 C 0.89318 0.44817 0.89214 0.0
C1977 C 0.87197 0.45258 0.86348 0.0
C1978 C 0.89541 0.44977 0.86778 0.0
N1979 N 0.88485 0.45192 0.85407 0.0
C1980 C 0.85927 0.47194 0.94358 0.0
C1981 C 0.83469 0.44966 0.92915 0.0
C1982 C 0.85468 0.48299 0.93538 0.0
N1983 N 0.84942 0.45569 0.93988 0.0
C1984 C 0.8296 0.46024 0.92075 0.0
C1985 C 0.83986 0.47718 0.92322 0.0
H1986 H 0.87102 0.47635 0.9519 0.0
H1987 H 0.82732 0.43671 0.9259 0.0
C1988 C 0.87379 0.40723 0.89048 0.0
N1989 N 0.86246 0.41122 0.89724 0.0
C1990 C 0.87139 0.398 0.8702 0.0
C1991 C 0.84579 0.39732 0.86403 0.0
C1992 C 0.84883 0.40679 0.88425 0.0
C1993 C 0.85701 0.39251 0.85698 0.0
H1994 H 0.88455 0.41096 0.90102 0.0
H1995 H 0.84003 0.41017 0.89004 0.0
O1996 O 0.86709 0.44186 0.97713 0.0
O1997 O 0.87401 0.41604 0.9524 0.0
O1998 O 0.84353 0.41845 0.93851 0.0
O1999 O 0.87734 0.44675 0.92591 0.0
H2000 H 0.87786 0.43579 0.01678 0.0
H2001 H 0.84443 0.44945 0.98751 0.0
H2002 H 0.86846 0.43778 0.05672 0.0
H2003 H 0.83551 0.45107 0.02797 0.0
H2004 H 0.92487 0.42246 0.94746 0.0
H2005 H 0.87498 0.40451 0.99463 0.0
H2006 H 0.90217 0.42523 0.93088 0.0
H2007 H 0.89815 0.40212 0.01006 0.0
H2008 H 0.82156 0.38956 0.03818 0.0
H2009 H 0.83258 0.36122 0.98946 0.0
H2010 H 0.94055 0.4835 0.94379 0.0
H2011 H 0.93048 0.4566 0.00908 0.0
H2012 H 0.82937 0.38747 0.92553 0.0
H2013 H 0.82353 0.42238 0.96674 0.0
H2014 H 0.80196 0.36589 0.93871 0.0
H2015 H 0.79622 0.40019 0.97921 0.0
H2016 H 0.85899 0.45138 0.89518 0.0
H2017 H 0.90144 0.44621 0.90299 0.0
H2018 H 0.86376 0.45426 0.8521 0.0
H2019 H 0.90549 0.44922 0.85976 0.0
H2020 H 0.8629 0.49594 0.93776 0.0
H2021 H 0.81823 0.45524 0.9111 0.0
H2022 H 0.88057 0.39492 0.86523 0.0
H2023 H 0.83444 0.39326 0.85467 0.0
Li2024 Li 0.58197 0.44079 0.96631 0.0
Li2025 Li 0.55998 0.44513 0.95216 0.0
Li2026 Li 0.55933 0.41942 0.94503 0.0
Li2027 Li 0.57862 0.44433 0.92418 0.0
C2028 C 0.54631 0.41583 0.98634 0.0
N2029 N 0.52064 0.38813 0.00578 0.0
C2030 C 0.53046 0.41327 0.98498 0.0
C2031 C 0.54915 0.40438 0.99769 0.0
C2032 C 0.51763 0.39916 0.9949 0.0
C2033 C 0.536 0.39043 0.00737 0.0
C2034 C 0.58572 0.47468 0.95678 0.0
C2035 C 0.58297 0.49827 0.94935 0.0
N2036 N 0.58801 0.50353 0.9717 0.0
C2037 C 0.59097 0.48035 0.97962 0.0
C2038 C 0.58179 0.48375 0.94145 0.0
C2039 C 0.59202 0.49496 0.98684 0.0
C2040 C 0.61386 0.45399 0.98354 0.0
N2041 N 0.59795 0.44625 0.99016 0.0
C2042 C 0.6055 0.44793 0.03062 0.0
C2043 C 0.59356 0.44317 0.01316 0.0
C2044 C 0.62214 0.45566 0.02432 0.0
C2045 C 0.62614 0.45844 0.00026 0.0
H2046 H 0.61703 0.45672 0.96519 0.0
H2047 H 0.5808 0.43731 0.01796 0.0
C2048 C 0.5364 0.4546 0.94366 0.0
N2049 N 0.54712 0.45474 0.9597 0.0
C2050 C 0.52708 0.46186 0.94892 0.0
C2051 C 0.53983 0.46906 0.98727 0.0
C2052 C 0.54879 0.46152 0.98132 0.0
C2053 C 0.52881 0.46934 0.97093 0.0
H2054 H 0.53502 0.44876 0.92682 0.0
H2055 H 0.55721 0.4612 0.99387 0.0
C2056 C 0.59534 0.42536 0.94371 0.0
N2057 N 0.62154 0.42111 0.95372 0.0
C2058 C 0.6095 0.43316 0.93005 0.0
C2059 C 0.59447 0.41533 0.96237 0.0
C2060 C 0.62262 0.43086 0.93541 0.0
C2061 C 0.60786 0.41336 0.96718 0.0
C2062 C 0.55185 0.43276 0.89924 0.0
C2063 C 0.54731 0.41882 0.88564 0.0
C2064 C 0.55431 0.44707 0.88837 0.0
C2065 C 0.54535 0.41945 0.86137 0.0
C2066 C 0.55225 0.44722 0.86405 0.0
N2067 N 0.54785 0.43352 0.85116 0.0
C2068 C 0.52959 0.39069 0.93517 0.0
C2069 C 0.553 0.38769 0.93593 0.0
C2070 C 0.52044 0.37541 0.92457 0.0
N2071 N 0.5457 0.3967 0.9398 0.0
C2072 C 0.54434 0.37239 0.92538 0.0
C2073 C 0.52807 0.36645 0.91854 0.0
H2074 H 0.52423 0.39834 0.9378 0.0
H2075 H 0.56587 0.39284 0.93929 0.0
C2076 C 0.60043 0.46856 0.89249 0.0
N2077 N 0.59021 0.4523 0.89558 0.0
C2078 C 0.61024 0.47425 0.87244 0.0
C2079 C 0.5984 0.4464 0.85887 0.0
C2080 C 0.58896 0.44125 0.87926 0.0
C2081 C 0.6095 0.46309 0.85546 0.0
H2082 H 0.60139 0.47704 0.90598 0.0
H2083 H 0.58098 0.42836 0.88245 0.0
O2084 O 0.55898 0.42939 0.97636 0.0
O2085 O 0.58434 0.46026 0.94951 0.0
O2086 O 0.58241 0.42758 0.93887 0.0
O2087 O 0.55406 0.43247 0.923 0.0
H2088 H 0.52806 0.42199 0.97617 0.0
H2089 H 0.56137 0.40623 0.99893 0.0
H2090 H 0.50528 0.39697 0.9939 0.0
H2091 H 0.53799 0.38143 0.01614 0.0
H2092 H 0.57985 0.50536 0.93774 0.0
H2093 H 0.59406 0.47349 0.99173 0.0
H2094 H 0.57772 0.47953 0.92372 0.0
H2095 H 0.59598 0.49946 0.00451 0.0
H2096 H 0.60165 0.44584 0.04882 0.0
H2097 H 0.63862 0.46399 0.99418 0.0
H2098 H 0.51849 0.46145 0.93597 0.0
H2099 H 0.54171 0.47478 0.00435 0.0
H2100 H 0.61043 0.44102 0.91561 0.0
H2101 H 0.58363 0.40926 0.97317 0.0
H2102 H 0.63368 0.43687 0.92505 0.0
H2103 H 0.60739 0.40571 0.98165 0.0
H2104 H 0.54554 0.40769 0.89364 0.0
H2105 H 0.55793 0.458 0.89857 0.0
H2106 H 0.54191 0.40878 0.85063 0.0
H2107 H 0.55419 0.45823 0.85541 0.0
H2108 H 0.50798 0.37133 0.91931 0.0
H2109 H 0.55061 0.36577 0.92118 0.0
H2110 H 0.6188 0.48719 0.87082 0.0
H2111 H 0.59726 0.43736 0.84618 0.0
Li2112 Li 0.53195 0.774 0.75757 0.0
Li2113 Li 0.52406 0.77028 0.79911 0.0
Li2114 Li 0.55135 0.77643 0.787 0.0
Li2115 Li 0.52747 0.74983 0.77957 0.0
C2116 C 0.55306 0.80501 0.79021 0.0
N2117 N 0.57821 0.83472 0.80548 0.0
C2118 C 0.55274 0.81055 0.8129 0.0
C2119 C 0.5661 0.81463 0.77523 0.0
C2120 C 0.56558 0.8256 0.82029 0.0
C2121 C 0.57873 0.82959 0.7833 0.0
C2122 C 0.49641 0.75452 0.77575 0.0
C2123 C 0.4713 0.74243 0.79786 0.0
N2124 N 0.46626 0.75123 0.78504 0.0
C2125 C 0.49095 0.76339 0.7627 0.0
C2126 C 0.48649 0.74388 0.79337 0.0
C2127 C 0.47568 0.76157 0.7677 0.0
C2128 C 0.52138 0.77132 0.71029 0.0
N2129 N 0.5289 0.78185 0.72837 0.0
C2130 C 0.53055 0.80395 0.70592 0.0
C2131 C 0.53354 0.7979 0.72656 0.0
C2132 C 0.52277 0.79339 0.68685 0.0
C2133 C 0.51838 0.77689 0.68917 0.0
H2134 H 0.51748 0.75853 0.71242 0.0
H2135 H 0.53915 0.80593 0.7414 0.0
C2136 C 0.51089 0.76969 0.84434 0.0
N2137 N 0.51233 0.77503 0.82179 0.0
C2138 C 0.50317 0.77427 0.86117 0.0
C2139 C 0.4983 0.78941 0.83106 0.0
C2140 C 0.50629 0.78474 0.81493 0.0
C2141 C 0.49683 0.78431 0.85457 0.0
H2142 H 0.51602 0.76217 0.84934 0.0
H2143 H 0.50799 0.78911 0.797 0.0
C2144 C 0.54895 0.76328 0.73463 0.0
N2145 N 0.55482 0.76292 0.68706 0.0
C2146 C 0.5409 0.74869 0.72195 0.0
C2147 C 0.56003 0.77768 0.72312 0.0
C2148 C 0.54404 0.74876 0.69792 0.0
C2149 C 0.56281 0.77725 0.69905 0.0
C2150 C 0.53659 0.74764 0.82211 0.0
C2151 C 0.55098 0.74701 0.82416 0.0
C2152 C 0.52204 0.735 0.83132 0.0
C2153 C 0.55053 0.73362 0.83527 0.0
C2154 C 0.5221 0.72182 0.84227 0.0
N2155 N 0.53622 0.7214 0.84399 0.0
C2156 C 0.57843 0.79457 0.81684 0.0
C2157 C 0.58483 0.78815 0.77945 0.0
C2158 C 0.59493 0.80318 0.82292 0.0
N2159 N 0.57377 0.7875 0.79529 0.0
C2160 C 0.60142 0.7965 0.78484 0.0
C2161 C 0.60666 0.80423 0.80677 0.0
H2162 H 0.56932 0.79357 0.82926 0.0
H2163 H 0.58077 0.78218 0.76261 0.0
C2164 C 0.50421 0.71681 0.77127 0.0
N2165 N 0.5202 0.72731 0.77594 0.0
C2166 C 0.49916 0.70087 0.76411 0.0
C2167 C 0.52701 0.70667 0.76785 0.0
C2168 C 0.53152 0.7225 0.77489 0.0
C2169 C 0.51072 0.6958 0.76157 0.0
H2170 H 0.49554 0.72106 0.77177 0.0
H2171 H 0.54422 0.73124 0.77823 0.0
O2172 O 0.54076 0.79018 0.78277 0.0
O2173 O 0.51144 0.75632 0.77138 0.0
O2174 O 0.54595 0.7635 0.75815 0.0
O2175 O 0.53672 0.76051 0.81099 0.0
H2176 H 0.54278 0.80324 0.82477 0.0
H2177 H 0.56655 0.81051 0.75764 0.0
H2178 H 0.56554 0.83 0.83784 0.0
H2179 H 0.58896 0.83711 0.77196 0.0
H2180 H 0.46354 0.73433 0.81156 0.0
H2181 H 0.49848 0.77169 0.74902 0.0
H2182 H 0.49055 0.73696 0.80367 0.0
H2183 H 0.47133 0.76842 0.75783 0.0
H2184 H 0.5338 0.81665 0.70532 0.0
H2185 H 0.5125 0.76829 0.67496 0.0
H2186 H 0.50225 0.7701 0.87915 0.0
H2187 H 0.49383 0.79739 0.82539 0.0
H2188 H 0.5322 0.73745 0.73047 0.0
H2189 H 0.56628 0.7891 0.7326 0.0
H2190 H 0.53785 0.73757 0.68788 0.0
H2191 H 0.57128 0.78832 0.6899 0.0
H2192 H 0.56233 0.75667 0.81708 0.0
H2193 H 0.5108 0.73531 0.82983 0.0
H2194 H 0.56156 0.73292 0.8369 0.0
H2195 H 0.51091 0.7119 0.84936 0.0
H2196 H 0.59845 0.80875 0.84015 0.0
H2197 H 0.61007 0.79709 0.77185 0.0
H2198 H 0.48654 0.69301 0.7591 0.0
H2199 H 0.5363 0.70323 0.76631 0.0
Li2200 Li 0.22075 0.77787 0.78748 0.0
Li2201 Li 0.24569 0.77772 0.77742 0.0
Li2202 Li 0.21963 0.75886 0.75864 0.0
Li2203 Li 0.22496 0.75554 0.79988 0.0
C2204 C 0.23161 0.78561 0.73341 0.0
N2205 N 0.23045 0.78961 0.68541 0.0
C2206 C 0.24559 0.79069 0.71967 0.0
C2207 C 0.21707 0.78264 0.72274 0.0
C2208 C 0.24475 0.79264 0.69543 0.0
C2209 C 0.21672 0.78469 0.69845 0.0
C2210 C 0.25114 0.79068 0.81977 0.0
C2211 C 0.2777 0.80042 0.83704 0.0
N2212 N 0.27938 0.81548 0.83945 0.0
C2213 C 0.25309 0.80623 0.82249 0.0
C2214 C 0.26349 0.7877 0.82719 0.0
C2215 C 0.26747 0.81862 0.83247 0.0
C2216 C 0.2074 0.79079 0.81941 0.0
N2217 N 0.21172 0.79098 0.79656 0.0
C2218 C 0.20178 0.8089 0.78625 0.0
C2219 C 0.20927 0.79994 0.78009 0.0
C2220 C 0.19683 0.80866 0.80963 0.0
C2221 C 0.19985 0.79956 0.82636 0.0
H2222 H 0.20959 0.7836 0.83214 0.0
H2223 H 0.21303 0.80004 0.76212 0.0
C2224 C 0.27637 0.78317 0.76329 0.0
N2225 N 0.26835 0.79078 0.77115 0.0
C2226 C 0.29239 0.79227 0.75525 0.0
C2227 C 0.29182 0.81693 0.76434 0.0
C2228 C 0.27571 0.80733 0.77195 0.0
C2229 C 0.30028 0.80942 0.7553 0.0
H2230 H 0.27009 0.77002 0.76223 0.0
H2231 H 0.26889 0.81306 0.77767 0.0
C2232 C 0.19133 0.75313 0.79441 0.0
N2233 N 0.16413 0.75281 0.81268 0.0
C2234 C 0.18712 0.74913 0.81803 0.0
C2235 C 0.18166 0.75686 0.78004 0.0
C2236 C 0.17332 0.74904 0.82694 0.0
C2237 C 0.16798 0.75668 0.78962 0.0
C2238 C 0.23727 0.74065 0.77581 0.0
C2239 C 0.22605 0.72581 0.76545 0.0
C2240 C 0.24894 0.74122 0.79144 0.0
C2241 C 0.22663 0.71174 0.77109 0.0
C2242 C 0.2491 0.72687 0.79666 0.0
N2243 N 0.23802 0.71255 0.78646 0.0
C2244 C 0.21953 0.74766 0.71264 0.0
C2245 C 0.1935 0.73616 0.73071 0.0
C2246 C 0.21288 0.73722 0.69339 0.0
N2247 N 0.20982 0.74683 0.73085 0.0
C2248 C 0.18638 0.72535 0.71197 0.0
C2249 C 0.19618 0.7256 0.69325 0.0
H2250 H 0.23255 0.75593 0.71358 0.0
H2251 H 0.18614 0.73552 0.74566 0.0
C2252 C 0.22831 0.74303 0.84405 0.0
N2253 N 0.22018 0.7394 0.82323 0.0
C2254 C 0.22433 0.73083 0.86087 0.0
C2255 C 0.20376 0.71145 0.83438 0.0
C2256 C 0.20805 0.72403 0.8182 0.0
C2257 C 0.2119 0.71478 0.85609 0.0
H2258 H 0.23782 0.7554 0.84764 0.0
H2259 H 0.20165 0.72158 0.8016 0.0
O2260 O 0.23214 0.78348 0.75714 0.0
O2261 O 0.23721 0.77843 0.80988 0.0
O2262 O 0.20501 0.75367 0.7855 0.0
O2263 O 0.23667 0.7545 0.77096 0.0
H2264 H 0.25695 0.79302 0.72757 0.0
H2265 H 0.2061 0.77856 0.73306 0.0
H2266 H 0.25546 0.79651 0.68458 0.0
H2267 H 0.20552 0.78233 0.68994 0.0
H2268 H 0.28741 0.79832 0.84272 0.0
H2269 H 0.24367 0.80876 0.81678 0.0
H2270 H 0.2622 0.77575 0.82512 0.0
H2271 H 0.26918 0.83073 0.83459 0.0
H2272 H 0.19996 0.81598 0.77288 0.0
H2273 H 0.19609 0.7989 0.84452 0.0
H2274 H 0.29818 0.78587 0.74796 0.0
H2275 H 0.2974 0.83008 0.76493 0.0
H2276 H 0.19453 0.74631 0.82945 0.0
H2277 H 0.1848 0.76007 0.76175 0.0
H2278 H 0.16995 0.74605 0.84522 0.0
H2279 H 0.16045 0.75967 0.77875 0.0
H2280 H 0.21688 0.72511 0.7534 0.0
H2281 H 0.25768 0.75259 0.79966 0.0
H2282 H 0.21797 0.70016 0.76331 0.0
H2283 H 0.25799 0.72711 0.80885 0.0
H2284 H 0.22088 0.73757 0.67949 0.0
H2285 H 0.17345 0.7165 0.71248 0.0
H2286 H 0.23094 0.73388 0.87736 0.0
H2287 H 0.19392 0.69933 0.83015 0.0
Li2288 Li 0.24231 0.46556 0.75765 0.0
Li2289 Li 0.2459 0.47426 0.79907 0.0
Li2290 Li 0.22479 0.44686 0.78734 0.0
Li2291 Li 0.22233 0.4706 0.77768 0.0
C2292 C 0.25091 0.44482 0.79349 0.0
N2293 N 0.25328 0.41927 0.8127 0.0
C2294 C 0.25298 0.44418 0.81774 0.0
C2295 C 0.25009 0.4325 0.77899 0.0
C2296 C 0.25415 0.43115 0.82711 0.0
C2297 C 0.2513 0.41968 0.78904 0.0
C2298 C 0.25822 0.50158 0.77379 0.0
C2299 C 0.27099 0.52745 0.79403 0.0
N2300 N 0.28477 0.53231 0.78114 0.0
C2301 C 0.27247 0.50687 0.76063 0.0
C2302 C 0.25742 0.51199 0.79052 0.0
C2303 C 0.28577 0.52244 0.76464 0.0
C2304 C 0.25087 0.47582 0.71054 0.0
N2305 N 0.25388 0.46861 0.72904 0.0
C2306 C 0.27556 0.46825 0.70808 0.0
C2307 C 0.26589 0.46474 0.72817 0.0
C2308 C 0.27284 0.47581 0.68866 0.0
C2309 C 0.26009 0.47936 0.68998 0.0
H2310 H 0.2415 0.47913 0.71194 0.0
H2311 H 0.26834 0.45946 0.74339 0.0
C2312 C 0.25799 0.48692 0.84479 0.0
N2313 N 0.26212 0.48632 0.82206 0.0
C2314 C 0.27015 0.49493 0.86175 0.0
C2315 C 0.2905 0.50175 0.83145 0.0
C2316 C 0.27798 0.49335 0.81522 0.0
C2317 C 0.28662 0.50246 0.85508 0.0
H2318 H 0.24528 0.48088 0.84986 0.0
H2319 H 0.28091 0.49217 0.79721 0.0
C2320 C 0.21489 0.44848 0.73382 0.0
N2321 N 0.20936 0.44233 0.68616 0.0
C2322 C 0.20749 0.45558 0.72083 0.0
C2323 C 0.21944 0.43823 0.72255 0.0
C2324 C 0.20479 0.45231 0.69677 0.0
C2325 C 0.21657 0.4353 0.69845 0.0
C2326 C 0.2113 0.46394 0.82073 0.0
C2327 C 0.19541 0.45073 0.82243 0.0
C2328 C 0.21494 0.4791 0.82988 0.0
C2329 C 0.18338 0.45294 0.8332 0.0
C2330 C 0.20256 0.48082 0.84048 0.0
N2331 N 0.18717 0.46781 0.8419 0.0
C2332 C 0.20985 0.42149 0.82056 0.0
C2333 C 0.20964 0.41252 0.78153 0.0
C2334 C 0.20178 0.40541 0.82868 0.0
N2335 N 0.21349 0.4247 0.79733 0.0
C2336 C 0.2019 0.3963 0.78896 0.0
C2337 C 0.19782 0.39264 0.81276 0.0
H2338 H 0.21328 0.43143 0.83279 0.0
H2339 H 0.21274 0.4154 0.76322 0.0
C2340 C 0.21417 0.49447 0.7665 0.0
N2341 N 0.20769 0.47854 0.77255 0.0
C2342 C 0.20407 0.50046 0.75934 0.0
C2343 C 0.1807 0.47366 0.76559 0.0
C2344 C 0.19129 0.46815 0.77246 0.0
C2345 C 0.18709 0.48994 0.75836 0.0
H2346 H 0.22724 0.50237 0.76613 0.0
H2347 H 0.18648 0.45543 0.77675 0.0
O2348 O 0.24918 0.45717 0.7841 0.0
O2349 O 0.24512 0.48631 0.77033 0.0
O2350 O 0.21768 0.45158 0.7574 0.0
O2351 O 0.2232 0.46209 0.80998 0.0
H2352 H 0.25347 0.45352 0.82924 0.0
H2353 H 0.24826 0.4327 0.76022 0.0
H2354 H 0.25568 0.43045 0.84586 0.0
H2355 H 0.25058 0.41 0.77806 0.0
H2356 H 0.27057 0.53558 0.80703 0.0
H2357 H 0.27335 0.49902 0.74762 0.0
H2358 H 0.24648 0.50812 0.8008 0.0
H2359 H 0.29691 0.52665 0.75467 0.0
H2360 H 0.28547 0.46564 0.7082 0.0
H2361 H 0.25741 0.48504 0.67545 0.0
H2362 H 0.26673 0.49516 0.87988 0.0
H2363 H 0.30307 0.50713 0.82576 0.0
H2364 H 0.20395 0.4636 0.72915 0.0
H2365 H 0.22551 0.43293 0.73215 0.0
H2366 H 0.19911 0.45774 0.68651 0.0
H2367 H 0.22016 0.4275 0.68948 0.0
H2368 H 0.19232 0.43896 0.8152 0.0
H2369 H 0.22716 0.48944 0.82872 0.0
H2370 H 0.17101 0.44285 0.83452 0.0
H2371 H 0.20519 0.4925 0.84755 0.0
H2372 H 0.1989 0.40298 0.84721 0.0
H2373 H 0.19896 0.38671 0.77621 0.0
H2374 H 0.20965 0.51299 0.75342 0.0
H2375 H 0.1677 0.46513 0.76528 0.0
Li2376 Li 0.41903 0.85872 0.05296 0.0
Li2377 Li 0.44305 0.88408 0.04401 0.0
Li2378 Li 0.44007 0.8589 0.02928 0.0
Li2379 Li 0.44479 0.86531 0.07051 0.0
C2380 C 0.4153 0.85958 0.0044 0.0
N2381 N 0.39292 0.84101 0.97017 0.0
C2382 C 0.41363 0.86701 0.98417 0.0
C2383 C 0.40557 0.84271 0.00724 0.0
C2384 C 0.40225 0.85742 0.96706 0.0
C2385 C 0.39433 0.83353 0.98974 0.0
C2386 C 0.42386 0.88445 0.081 0.0
C2387 C 0.41351 0.89538 0.11031 0.0
N2388 N 0.40663 0.89987 0.093 0.0
C2389 C 0.41669 0.88918 0.0635 0.0
C2390 C 0.42227 0.88757 0.1046 0.0
C2391 C 0.40802 0.89696 0.06992 0.0
C2392 C 0.39201 0.8366 0.07741 0.0
N2393 N 0.39649 0.84797 0.06017 0.0
C2394 C 0.36944 0.8438 0.05812 0.0
C2395 C 0.38561 0.85161 0.05026 0.0
C2396 C 0.36452 0.83207 0.07611 0.0
C2397 C 0.37602 0.8284 0.08559 0.0
H2398 H 0.40102 0.8342 0.08521 0.0
H2399 H 0.38956 0.86078 0.03661 0.0
C2400 C 0.45566 0.91096 0.01382 0.0
N2401 N 0.45215 0.90654 0.03675 0.0
C2402 C 0.46364 0.92741 0.00749 0.0
C2403 C 0.464 0.93442 0.04849 0.0
C2404 C 0.45604 0.91784 0.05402 0.0
C2405 C 0.46807 0.9394 0.02498 0.0
H2406 H 0.4526 0.90169 0.00054 0.0
H2407 H 0.45328 0.91403 0.07217 0.0
C2408 C 0.43325 0.83296 0.05924 0.0
N2409 N 0.44273 0.80993 0.06551 0.0
C2410 C 0.44927 0.83685 0.0543 0.0
C2411 C 0.42204 0.81734 0.06731 0.0
C2412 C 0.45383 0.82505 0.05759 0.0
C2413 C 0.42708 0.80587 0.07039 0.0
C2414 C 0.47413 0.88972 0.05243 0.0
C2415 C 0.48868 0.89444 0.04033 0.0
C2416 C 0.47441 0.89789 0.07308 0.0
C2417 C 0.50327 0.90731 0.04903 0.0
C2418 C 0.48924 0.91069 0.08121 0.0
N2419 N 0.50324 0.9151 0.06912 0.0
C2420 C 0.45924 0.85832 0.99228 0.0
C2421 C 0.43522 0.83289 0.99879 0.0
C2422 C 0.46451 0.85137 0.97527 0.0
N2423 N 0.44497 0.84899 0.00387 0.0
C2424 C 0.43994 0.82547 0.9817 0.0
C2425 C 0.45491 0.83469 0.97003 0.0
H2426 H 0.4667 0.87109 0.99668 0.0
H2427 H 0.42406 0.82567 0.00853 0.0
C2428 C 0.44573 0.85977 0.11875 0.0
N2429 N 0.4543 0.86271 0.09841 0.0
C2430 C 0.45168 0.85686 0.13959 0.0
C2431 C 0.47524 0.86026 0.11812 0.0
C2432 C 0.46887 0.86315 0.09775 0.0
C2433 C 0.46656 0.85692 0.1394 0.0
H2434 H 0.43415 0.85946 0.11867 0.0
H2435 H 0.47539 0.86541 0.08131 0.0
O2436 O 0.42641 0.86892 0.02123 0.0
O2437 O 0.43232 0.8767 0.07528 0.0
O2438 O 0.42841 0.84426 0.05615 0.0
O2439 O 0.45977 0.87718 0.04394 0.0
H2440 H 0.42106 0.88007 0.98173 0.0
H2441 H 0.40664 0.83671 0.02277 0.0
H2442 H 0.40083 0.86301 0.95131 0.0
H2443 H 0.38674 0.82046 0.99171 0.0
H2444 H 0.41218 0.89786 0.12851 0.0
H2445 H 0.41777 0.8869 0.04514 0.0
H2446 H 0.42775 0.88397 0.11836 0.0
H2447 H 0.4024 0.90067 0.05656 0.0
H2448 H 0.36092 0.84695 0.05038 0.0
H2449 H 0.37284 0.81972 0.09983 0.0
H2450 H 0.46673 0.93071 0.98919 0.0
H2451 H 0.46701 0.94322 0.0625 0.0
H2452 H 0.4581 0.84882 0.0479 0.0
H2453 H 0.40957 0.81409 0.07111 0.0
H2454 H 0.46618 0.82791 0.05384 0.0
H2455 H 0.41853 0.79373 0.07663 0.0
H2456 H 0.48872 0.88823 0.02437 0.0
H2457 H 0.46334 0.89441 0.0828 0.0
H2458 H 0.51461 0.91109 0.03982 0.0
H2459 H 0.48961 0.91712 0.09715 0.0
H2460 H 0.47606 0.85891 0.96646 0.0
H2461 H 0.43228 0.81254 0.9783 0.0
H2462 H 0.44466 0.85449 0.15561 0.0
H2463 H 0.4866 0.86014 0.117 0.0
Li2464 Li 0.13862 0.58264 0.02961 0.0
Li2465 Li 0.12951 0.58027 0.07318 0.0
Li2466 Li 0.13487 0.56011 0.05401 0.0
Li2467 Li 0.11182 0.56104 0.04373 0.0
C2468 C 0.16493 0.58483 0.0641 0.0
N2469 N 0.19399 0.58593 0.07439 0.0
C2470 C 0.16771 0.58083 0.08665 0.0
C2471 C 0.17697 0.5895 0.04683 0.0
C2472 C 0.18246 0.5814 0.09148 0.0
C2473 C 0.19158 0.58998 0.05238 0.0
C2474 C 0.10932 0.58733 0.03289 0.0
C2475 C 0.08761 0.59369 0.03288 0.0
N2476 N 0.08565 0.59076 0.00934 0.0
C2477 C 0.10707 0.58436 0.00871 0.0
C2478 C 0.0995 0.59201 0.04511 0.0
C2479 C 0.09505 0.58616 0.99712 0.0
C2480 C 0.14752 0.59565 0.98312 0.0
N2481 N 0.15065 0.59863 0.00649 0.0
C2482 C 0.17043 0.62648 0.99885 0.0
C2483 C 0.16191 0.61362 0.01454 0.0
C2484 C 0.16718 0.62395 0.9746 0.0
C2485 C 0.15568 0.60821 0.96678 0.0
H2486 H 0.13839 0.58363 0.97723 0.0
H2487 H 0.16408 0.61561 0.03326 0.0
C2488 C 0.13628 0.589 0.12114 0.0
N2489 N 0.13195 0.59283 0.10033 0.0
C2490 C 0.13944 0.59906 0.14075 0.0
C2491 C 0.13266 0.6162 0.11741 0.0
C2492 C 0.13005 0.60606 0.09815 0.0
C2493 C 0.13784 0.61304 0.13901 0.0
H2494 H 0.13762 0.57834 0.12236 0.0
H2495 H 0.12683 0.60894 0.0813 0.0
C2496 C 0.13127 0.54903 0.0111 0.0
N2497 N 0.14052 0.52833 0.991 0.0
C2498 C 0.1221 0.53223 0.01513 0.0
C2499 C 0.14508 0.5553 0.99671 0.0
C2500 C 0.12701 0.52197 0.00487 0.0
C2501 C 0.14956 0.54462 0.98672 0.0
C2502 C 0.10209 0.54605 0.08473 0.0
C2503 C 0.09356 0.5298 0.0773 0.0
C2504 C 0.09511 0.55156 0.10142 0.0
C2505 C 0.07803 0.51938 0.08641 0.0
C2506 C 0.07956 0.54075 0.11015 0.0
N2507 N 0.0714 0.52503 0.10249 0.0
C2508 C 0.13656 0.5358 0.07972 0.0
C2509 C 0.15725 0.5477 0.05073 0.0
C2510 C 0.14315 0.52652 0.08824 0.0
N2511 N 0.14375 0.5463 0.0615 0.0
C2512 C 0.16436 0.53876 0.05884 0.0
C2513 C 0.15741 0.52817 0.07808 0.0
H2514 H 0.12602 0.53503 0.08827 0.0
H2515 H 0.16286 0.55618 0.03638 0.0
C2516 C 0.0846 0.53857 0.01647 0.0
N2517 N 0.0893 0.54896 0.03507 0.0
C2518 C 0.06819 0.52975 0.00989 0.0
C2519 C 0.06183 0.54271 0.04155 0.0
C2520 C 0.0783 0.55119 0.04753 0.0
C2521 C 0.05655 0.53176 0.02254 0.0
H2522 H 0.0936 0.53713 0.00671 0.0
H2523 H 0.08236 0.55964 0.06211 0.0
O2524 O 0.15047 0.58411 0.0589 0.0
O2525 O 0.12081 0.58527 0.04456 0.0
O2526 O 0.12668 0.55928 0.02103 0.0
O2527 O 0.11725 0.55648 0.07586 0.0
H2528 H 0.15847 0.57706 0.10015 0.0
H2529 H 0.17498 0.59253 0.02924 0.0
H2530 H 0.18472 0.5782 0.10879 0.0
H2531 H 0.20098 0.59349 0.03916 0.0
H2532 H 0.07988 0.59724 0.04213 0.0
H2533 H 0.11431 0.58039 0.99909 0.0
H2534 H 0.10081 0.59404 0.06391 0.0
H2535 H 0.09313 0.58382 0.97843 0.0
H2536 H 0.17936 0.6383 0.00569 0.0
H2537 H 0.1526 0.60572 0.94832 0.0
H2538 H 0.1436 0.59614 0.15679 0.0
H2539 H 0.13082 0.62652 0.11518 0.0
H2540 H 0.11137 0.52719 0.0262 0.0
H2541 H 0.15238 0.56827 0.99354 0.0
H2542 H 0.12008 0.50896 0.00795 0.0
H2543 H 0.16027 0.54931 0.97565 0.0
H2544 H 0.09883 0.52532 0.06448 0.0
H2545 H 0.10155 0.56409 0.10739 0.0
H2546 H 0.07123 0.50681 0.08068 0.0
H2547 H 0.07396 0.54488 0.12295 0.0
H2548 H 0.13755 0.51871 0.10336 0.0
H2549 H 0.17534 0.54034 0.05047 0.0
H2550 H 0.06466 0.52134 0.99525 0.0
H2551 H 0.05336 0.54489 0.05154 0.0
Li2552 Li 0.43987 0.55392 0.03723 0.0
Li2553 Li 0.44157 0.57822 0.05103 0.0
Li2554 Li 0.42013 0.55299 0.06552 0.0
Li2555 Li 0.42017 0.56175 0.02424 0.0
C2556 C 0.44603 0.55165 0.08424 0.0
N2557 N 0.45081 0.53085 0.113 0.0
C2558 C 0.45794 0.55795 0.10183 0.0
C2559 C 0.43653 0.53475 0.0813 0.0
C2560 C 0.46018 0.54724 0.11618 0.0
C2561 C 0.43914 0.52445 0.09602 0.0
C2562 C 0.45997 0.58134 0.01094 0.0
C2563 C 0.4804 0.59424 0.98071 0.0
N2564 N 0.49226 0.59755 0.99689 0.0
C2565 C 0.47236 0.58488 0.02726 0.0
C2566 C 0.46401 0.58606 0.98748 0.0
C2567 C 0.4886 0.59307 0.01982 0.0
C2568 C 0.44537 0.53233 0.00981 0.0
N2569 N 0.45156 0.54341 0.02757 0.0
C2570 C 0.47386 0.53861 0.03248 0.0
C2571 C 0.46563 0.54682 0.03871 0.0
C2572 C 0.46766 0.52692 0.01445 0.0
C2573 C 0.45331 0.52393 0.00285 0.0
H2574 H 0.43418 0.52993 0.00123 0.0
H2575 H 0.47042 0.55582 0.05258 0.0
C2576 C 0.45854 0.60041 0.08579 0.0
N2577 N 0.4561 0.59967 0.06218 0.0
C2578 C 0.46878 0.61526 0.09664 0.0
C2579 C 0.4737 0.62852 0.0587 0.0
C2580 C 0.46343 0.61328 0.04848 0.0
C2581 C 0.47653 0.62956 0.08308 0.0
H2582 H 0.45237 0.58941 0.09624 0.0
H2583 H 0.4612 0.61231 0.02972 0.0
C2584 C 0.39993 0.52847 0.0326 0.0
N2585 N 0.36765 0.50548 0.02446 0.0
C2586 C 0.38762 0.53216 0.03726 0.0
C2587 C 0.39583 0.51311 0.02376 0.0
C2588 C 0.37137 0.52037 0.03302 0.0
C2589 C 0.37943 0.50164 0.01981 0.0
C2590 C 0.41956 0.58636 0.05853 0.0
C2591 C 0.41724 0.59025 0.08139 0.0
C2592 C 0.42401 0.59795 0.04063 0.0
C2593 C 0.41957 0.60578 0.08601 0.0
C2594 C 0.42619 0.61333 0.04595 0.0
N2595 N 0.42397 0.6169 0.06835 0.0
C2596 C 0.41296 0.55199 0.11292 0.0
C2597 C 0.39524 0.52703 0.09383 0.0
C2598 C 0.40468 0.54604 0.13415 0.0
N2599 N 0.4079 0.54264 0.09319 0.0
C2600 C 0.38646 0.52065 0.11461 0.0
C2601 C 0.39097 0.53027 0.1351 0.0
H2602 H 0.42345 0.56415 0.11209 0.0
H2603 H 0.3918 0.51951 0.07829 0.0
C2604 C 0.40461 0.54897 0.98162 0.0
N2605 N 0.40605 0.55948 0.99899 0.0
C2606 C 0.39234 0.54411 0.96474 0.0
C2607 C 0.38389 0.56175 0.98308 0.0
C2608 C 0.39612 0.56602 -7e-05 0.0
C2609 C 0.38166 0.55034 0.96561 0.0
H2610 H 0.41248 0.54372 0.98165 0.0
H2611 H 0.39714 0.5739 0.01436 0.0
O2612 O 0.44377 0.56209 0.07016 0.0
O2613 O 0.44394 0.57328 0.01766 0.0
O2614 O 0.41598 0.53998 0.03577 0.0
O2615 O 0.41775 0.57137 0.05374 0.0
H2616 H 0.46541 0.571 0.10432 0.0
H2617 H 0.42725 0.52958 0.06784 0.0
H2618 H 0.46937 0.55196 0.12984 0.0
H2619 H 0.43188 0.51135 0.09392 0.0
H2620 H 0.4837 0.59796 0.9626 0.0
H2621 H 0.46953 0.58138 0.0455 0.0
H2622 H 0.45456 0.58341 0.97462 0.0
H2623 H 0.4983 0.59588 0.03227 0.0
H2624 H 0.48503 0.54145 0.0416 0.0
H2625 H 0.44811 0.51495 0.98892 0.0
H2626 H 0.47038 0.61559 0.11554 0.0
H2627 H 0.47946 0.6393 0.0477 0.0
H2628 H 0.39055 0.54399 0.04405 0.0
H2629 H 0.40522 0.51011 0.01992 0.0
H2630 H 0.36173 0.52306 0.03652 0.0
H2631 H 0.37607 0.4897 0.01298 0.0
H2632 H 0.41371 0.58142 0.09543 0.0
H2633 H 0.42606 0.5952 0.0229 0.0
H2634 H 0.41789 0.60898 0.10365 0.0
H2635 H 0.42976 0.62246 0.03231 0.0
H2636 H 0.40893 0.55377 0.14958 0.0
H2637 H 0.37596 0.50846 0.11435 0.0
H2638 H 0.39095 0.53527 0.9515 0.0
H2639 H 0.3757 0.56661 0.98443 0.0
Li2640 Li 0.14161 0.58045 0.55343 0.0
Li2641 Li 0.13347 0.55472 0.57437 0.0
Li2642 Li 0.14332 0.55913 0.53343 0.0
Li2643 Li 0.11634 0.55542 0.54297 0.0
C2644 C 0.16986 0.57173 0.55973 0.0
N2645 N 0.19911 0.57238 0.55332 0.0
C2646 C 0.17336 0.56133 0.57278 0.0
C2647 C 0.18129 0.58258 0.5436 0.0
C2648 C 0.18821 0.56183 0.56924 0.0
C2649 C 0.19599 0.58268 0.54055 0.0
C2650 C 0.11638 0.56714 0.59504 0.0
C2651 C 0.09764 0.55288 0.62672 0.0
N2652 N 0.1056 0.56641 0.64044 0.0
C2653 C 0.12433 0.58093 0.6094 0.0
C2654 C 0.10287 0.55302 0.60369 0.0
C2655 C 0.11871 0.58031 0.63232 0.0
C2656 C 0.14197 0.61047 0.55877 0.0
N2657 N 0.15112 0.60307 0.55967 0.0
C2658 C 0.17238 0.62576 0.5801 0.0
C2659 C 0.16625 0.61056 0.56943 0.0
C2660 C 0.16283 0.63327 0.58063 0.0
C2661 C 0.14774 0.62582 0.569 0.0
H2662 H 0.12974 0.60398 0.55166 0.0
H2663 H 0.17309 0.60424 0.57044 0.0
C2664 C 0.12984 0.52945 0.60447 0.0
N2665 N 0.13414 0.54545 0.60364 0.0
C2666 C 0.13191 0.52276 0.62517 0.0
C2667 C 0.14226 0.549 0.64399 0.0
C2668 C 0.14027 0.55525 0.62281 0.0
C2669 C 0.13841 0.53261 0.64529 0.0
H2670 H 0.12543 0.52205 0.58879 0.0
H2671 H 0.14408 0.56805 0.62146 0.0
C2672 C 0.13522 0.58531 0.51044 0.0
N2673 N 0.13944 0.61357 0.48976 0.0
C2674 C 0.1218 0.58742 0.50671 0.0
C2675 C 0.15076 0.59749 0.5035 0.0
C2676 C 0.12419 0.60182 0.49625 0.0
C2677 C 0.15265 0.61172 0.49313 0.0
C2678 C 0.1123 0.52475 0.54108 0.0
C2679 C 0.11312 0.51812 0.51949 0.0
C2680 C 0.09885 0.51594 0.55579 0.0
C2681 C 0.10033 0.50282 0.51284 0.0
C2682 C 0.0863 0.50069 0.54849 0.0
N2683 N 0.08729 0.4945 0.52735 0.0
C2684 C 0.1594 0.54265 0.51856 0.0
C2685 C 0.15829 0.56012 0.48964 0.0
C2686 C 0.16767 0.53786 0.50313 0.0
N2687 N 0.15498 0.55363 0.51164 0.0
C2688 C 0.16636 0.55549 0.47348 0.0
C2689 C 0.17113 0.54415 0.48011 0.0
H2690 H 0.15639 0.53754 0.53609 0.0
H2691 H 0.15443 0.56867 0.48453 0.0
C2692 C 0.08465 0.5507 0.54571 0.0
N2693 N 0.09432 0.54663 0.53323 0.0
C2694 C 0.06819 0.54396 0.53996 0.0
C2695 C 0.07202 0.52915 0.50832 0.0
C2696 C 0.08848 0.53645 0.51441 0.0
C2697 C 0.06155 0.53275 0.52129 0.0
H2698 H 0.08971 0.5592 0.56019 0.0
H2699 H 0.09655 0.53379 0.50433 0.0
O2700 O 0.15529 0.57126 0.56265 0.0
O2701 O 0.12176 0.56747 0.57259 0.0
O2702 O 0.13315 0.57138 0.52086 0.0
O2703 O 0.12466 0.53974 0.54782 0.0
H2704 H 0.16465 0.55287 0.58534 0.0
H2705 H 0.17876 0.59071 0.53339 0.0
H2706 H 0.19105 0.55379 0.57912 0.0
H2707 H 0.2049 0.59092 0.52801 0.0
H2708 H 0.08724 0.54202 0.63368 0.0
H2709 H 0.13483 0.59195 0.60304 0.0
H2710 H 0.09652 0.54229 0.59276 0.0
H2711 H 0.1248 0.59086 0.64367 0.0
H2712 H 0.18405 0.63116 0.58903 0.0
H2713 H 0.13997 0.63119 0.56945 0.0
H2714 H 0.12913 0.51019 0.625 0.0
H2715 H 0.14712 0.55707 0.65901 0.0
H2716 H 0.10968 0.5781 0.51195 0.0
H2717 H 0.16126 0.59601 0.50625 0.0
H2718 H 0.11393 0.60366 0.49333 0.0
H2719 H 0.16463 0.62129 0.48779 0.0
H2720 H 0.12344 0.52478 0.50788 0.0
H2721 H 0.0981 0.52084 0.57262 0.0
H2722 H 0.10075 0.49757 0.49613 0.0
H2723 H 0.07577 0.49377 0.55965 0.0
H2724 H 0.1713 0.5293 0.50924 0.0
H2725 H 0.16846 0.56046 0.45584 0.0
H2726 H 0.0608 0.54755 0.55006 0.0
H2727 H 0.06756 0.52053 0.4939 0.0
Li2728 Li 0.42109 0.55879 0.5573 0.0
Li2729 Li 0.44688 0.5764 0.57748 0.0
Li2730 Li 0.44271 0.58138 0.53651 0.0
Li2731 Li 0.44589 0.55815 0.54745 0.0
C2732 C 0.42959 0.59555 0.5609 0.0
N2733 N 0.42801 0.62335 0.55135 0.0
C2734 C 0.44013 0.6102 0.57228 0.0
C2735 C 0.41819 0.59502 0.54475 0.0
C2736 C 0.43915 0.62413 0.5672 0.0
C2737 C 0.41761 0.60921 0.54013 0.0
C2738 C 0.43396 0.54949 0.60098 0.0
C2739 C 0.4477 0.54817 0.63596 0.0
N2740 N 0.43466 0.5457 0.64911 0.0
C2741 C 0.42068 0.54693 0.61484 0.0
C2742 C 0.44758 0.55009 0.6116 0.0
C2743 C 0.42127 0.54503 0.63914 0.0
C2744 C 0.39094 0.52933 0.56125 0.0
N2745 N 0.39828 0.54586 0.56258 0.0
C2746 C 0.37403 0.54408 0.57821 0.0
C2747 C 0.39014 0.55332 0.57056 0.0
C2748 C 0.36621 0.52694 0.57769 0.0
C2749 C 0.37477 0.51959 0.56847 0.0
H2750 H 0.39785 0.5237 0.55548 0.0
H2751 H 0.39641 0.56645 0.57216 0.0
C2752 C 0.4721 0.5923 0.61131 0.0
N2753 N 0.45612 0.58682 0.60657 0.0
C2754 C 0.47917 0.60114 0.63183 0.0
C2755 C 0.45311 0.59828 0.64235 0.0
C2756 C 0.44651 0.58932 0.62177 0.0
C2757 C 0.46976 0.60462 0.6474 0.0
H2758 H 0.47947 0.59016 0.59893 0.0
H2759 H 0.43384 0.58484 0.61745 0.0
C2760 C 0.41641 0.54698 0.51416 0.0
N2761 N 0.38858 0.52291 0.49259 0.0
C2762 C 0.41423 0.53135 0.51119 0.0
C2763 C 0.40452 0.55041 0.50599 0.0
C2764 C 0.40005 0.51934 0.50027 0.0
C2765 C 0.39051 0.53806 0.4952 0.0
C2766 C 0.47587 0.58289 0.54209 0.0
C2767 C 0.48145 0.58953 0.51974 0.0
C2768 C 0.48429 0.57683 0.55495 0.0
C2769 C 0.49534 0.58992 0.51059 0.0
C2770 C 0.4981 0.5774 0.54515 0.0
N2771 N 0.5033 0.58388 0.52336 0.0
C2772 C 0.45914 0.61364 0.52027 0.0
C2773 C 0.44156 0.59454 0.49198 0.0
C2774 C 0.46377 0.62643 0.50437 0.0
N2775 N 0.44814 0.59811 0.51391 0.0
C2776 C 0.44604 0.60694 0.47535 0.0
C2777 C 0.45733 0.62318 0.48143 0.0
H2778 H 0.46438 0.61607 0.53774 0.0
H2779 H 0.43303 0.58203 0.48729 0.0
C2780 C 0.4544 0.53361 0.55253 0.0
N2781 N 0.4544 0.54475 0.53745 0.0
C2782 C 0.46169 0.52452 0.546 0.0
C2783 C 0.46847 0.53828 0.50834 0.0
C2784 C 0.46089 0.54697 0.51551 0.0
C2785 C 0.46906 0.527 0.52378 0.0
H2786 H 0.44895 0.53195 0.56974 0.0
H2787 H 0.46047 0.55574 0.50377 0.0
O2788 O 0.43054 0.58184 0.56532 0.0
O2789 O 0.43382 0.55181 0.57724 0.0
O2790 O 0.43013 0.55886 0.525 0.0
O2791 O 0.46214 0.58218 0.55122 0.0
H2792 H 0.44915 0.6109 0.58464 0.0
H2793 H 0.40998 0.58379 0.53574 0.0
H2794 H 0.44729 0.63557 0.57578 0.0
H2795 H 0.4089 0.60899 0.52758 0.0
H2796 H 0.4582 0.54871 0.64442 0.0
H2797 H 0.4101 0.54655 0.60699 0.0
H2798 H 0.45806 0.55229 0.60119 0.0
H2799 H 0.4111 0.5431 0.65009 0.0
H2800 H 0.36814 0.55033 0.58566 0.0
H2801 H 0.36924 0.50646 0.56752 0.0
H2802 H 0.49196 0.6055 0.63515 0.0
H2803 H 0.44539 0.60081 0.65355 0.0
H2804 H 0.42329 0.52847 0.51743 0.0
H2805 H 0.40605 0.56245 0.50811 0.0
H2806 H 0.39816 0.50716 0.49795 0.0
H2807 H 0.38116 0.54052 0.48891 0.0
H2808 H 0.47507 0.5942 0.50946 0.0
H2809 H 0.48 0.57139 0.57209 0.0
H2810 H 0.49976 0.59496 0.49328 0.0
H2811 H 0.50464 0.5726 0.55481 0.0
H2812 H 0.4723 0.63872 0.51009 0.0
H2813 H 0.44097 0.60375 0.4578 0.0
H2814 H 0.46193 0.51596 0.55843 0.0
H2815 H 0.47381 0.54035 0.49094 0.0
Li2816 Li 0.42445 0.86708 0.57574 0.0
Li2817 Li 0.44361 0.86115 0.55504 0.0
Li2818 Li 0.44248 0.88587 0.54665 0.0
Li2819 Li 0.42063 0.85909 0.53414 0.0
C2820 C 0.45201 0.88282 0.59966 0.0
N2821 N 0.45767 0.88829 0.6474 0.0
C2822 C 0.45826 0.87454 0.61247 0.0
C2823 C 0.44874 0.89394 0.61111 0.0
C2824 C 0.46103 0.87748 0.63659 0.0
C2825 C 0.45164 0.89651 0.63526 0.0
C2826 C 0.40704 0.83147 0.55764 0.0
C2827 C 0.39351 0.80622 0.53591 0.0
N2828 N 0.37943 0.80203 0.54765 0.0
C2829 C 0.39246 0.82689 0.56958 0.0
C2830 C 0.40762 0.82103 0.54076 0.0
C2831 C 0.37863 0.81196 0.56425 0.0
C2832 C 0.40184 0.86909 0.60585 0.0
N2833 N 0.4131 0.86423 0.60446 0.0
C2834 C 0.40631 0.85281 0.64308 0.0
C2835 C 0.41548 0.85622 0.62248 0.0
C2836 C 0.39423 0.85727 0.64488 0.0
C2837 C 0.3922 0.86569 0.62595 0.0
H2838 H 0.39993 0.87508 0.59101 0.0
H2839 H 0.42426 0.85216 0.62066 0.0
C2840 C 0.47383 0.86156 0.5588 0.0
N2841 N 0.45731 0.85208 0.55979 0.0
C2842 C 0.48375 0.85525 0.56567 0.0
C2843 C 0.45947 0.82955 0.57419 0.0
C2844 C 0.45005 0.83629 0.56695 0.0
C2845 C 0.47658 0.83913 0.57409 0.0
H2846 H 0.47929 0.87421 0.55362 0.0
H2847 H 0.43692 0.82916 0.56817 0.0
C2848 C 0.41672 0.88927 0.54199 0.0
N2849 N 0.41457 0.91563 0.5257 0.0
C2850 C 0.41203 0.88956 0.51875 0.0
C2851 C 0.42018 0.90231 0.557 0.0
C2852 C 0.41103 0.90302 0.51085 0.0
C2853 C 0.41908 0.91555 0.5484 0.0
C2854 C 0.45585 0.86983 0.51254 0.0
C2855 C 0.47113 0.88387 0.51014 0.0
C2856 C 0.45341 0.85492 0.504 0.0
C2857 C 0.48378 0.88273 0.49932 0.0
C2858 C 0.46638 0.85429 0.49334 0.0
N2859 N 0.48116 0.86808 0.49124 0.0
C2860 C 0.46389 0.9196 0.55434 0.0
C2861 C 0.45353 0.91246 0.51553 0.0
C2862 C 0.4722 0.93612 0.54844 0.0
N2863 N 0.45465 0.90821 0.538 0.0
C2864 C 0.46157 0.92885 0.50888 0.0
C2865 C 0.47098 0.94094 0.52549 0.0
H2866 H 0.46468 0.91587 0.57201 0.0
H2867 H 0.44622 0.9031 0.50285 0.0
C2868 C 0.38869 0.84263 0.51664 0.0
N2869 N 0.40446 0.84773 0.51088 0.0
C2870 C 0.3763 0.83448 0.50013 0.0
C2871 C 0.39667 0.83734 0.47186 0.0
C2872 C 0.40866 0.84527 0.48904 0.0
C2873 C 0.38026 0.83186 0.47735 0.0
H2874 H 0.38577 0.84505 0.53404 0.0
H2875 H 0.42132 0.84963 0.48488 0.0
O2876 O 0.4491 0.88002 0.57606 0.0
O2877 O 0.42064 0.84617 0.56227 0.0
O2878 O 0.41815 0.8764 0.54991 0.0
O2879 O 0.44335 0.87066 0.52325 0.0
H2880 H 0.46084 0.86587 0.60396 0.0
H2881 H 0.44378 0.90035 0.60152 0.0
H2882 H 0.4658 0.87112 0.64674 0.0
H2883 H 0.44905 0.90499 0.64437 0.0
H2884 H 0.39375 0.79807 0.52278 0.0
H2885 H 0.39177 0.83483 0.58265 0.0
H2886 H 0.4188 0.82442 0.53134 0.0
H2887 H 0.36724 0.80829 0.57326 0.0
H2888 H 0.40851 0.84649 0.65723 0.0
H2889 H 0.38282 0.86905 0.62618 0.0
H2890 H 0.49687 0.86307 0.56507 0.0
H2891 H 0.45331 0.81722 0.58104 0.0
H2892 H 0.40938 0.87961 0.50687 0.0
H2893 H 0.42387 0.90228 0.57501 0.0
H2894 H 0.40751 0.90346 0.49287 0.0
H2895 H 0.42184 0.92579 0.55977 0.0
H2896 H 0.47324 0.89549 0.51671 0.0
H2897 H 0.44167 0.84394 0.50579 0.0
H2898 H 0.49568 0.89348 0.49741 0.0
H2899 H 0.46469 0.84282 0.48676 0.0
H2900 H 0.47922 0.94505 0.56183 0.0
H2901 H 0.46051 0.93201 0.4909 0.0
H2902 H 0.36383 0.83069 0.50493 0.0
H2903 H 0.40019 0.83552 0.45449 0.0
Li2904 Li 0.22946 0.47649 0.29768 0.0
Li2905 Li 0.22279 0.44948 0.28365 0.0
Li2906 Li 0.24926 0.47332 0.27541 0.0
Li2907 Li 0.2245 0.46935 0.25589 0.0
C2908 C 0.25269 0.46371 0.31723 0.0
N2909 N 0.27939 0.46397 0.33732 0.0
C2910 C 0.25343 0.44935 0.31839 0.0
C2911 C 0.26546 0.47818 0.3264 0.0
C2912 C 0.26705 0.44973 0.32861 0.0
C2913 C 0.27888 0.47807 0.33644 0.0
C2914 C 0.19466 0.44761 0.29033 0.0
C2915 C 0.17002 0.42181 0.28451 0.0
N2916 N 0.16615 0.42172 0.30758 0.0
C2917 C 0.19043 0.44729 0.31397 0.0
C2918 C 0.18435 0.43481 0.27543 0.0
C2919 C 0.17597 0.43409 0.32235 0.0
C2920 C 0.21602 0.49435 0.31697 0.0
N2921 N 0.22567 0.48792 0.32204 0.0
C2922 C 0.2279 0.49633 0.36214 0.0
C2923 C 0.23166 0.48876 0.34405 0.0
C2924 C 0.21798 0.50314 0.35737 0.0
C2925 C 0.21215 0.50223 0.33439 0.0
H2926 H 0.21108 0.4931 0.29944 0.0
H2927 H 0.23908 0.48328 0.34766 0.0
C2928 C 0.20777 0.41545 0.27498 0.0
N2929 N 0.21179 0.42704 0.29182 0.0
C2930 C 0.19932 0.39895 0.28102 0.0
C2931 C 0.19961 0.40667 0.32166 0.0
C2932 C 0.20798 0.42301 0.31481 0.0
C2933 C 0.19514 0.39439 0.30464 0.0
H2934 H 0.21112 0.41902 0.25688 0.0
H2935 H 0.21139 0.43253 0.32781 0.0
C2936 C 0.24482 0.50457 0.27521 0.0
N2937 N 0.24899 0.53477 0.28686 0.0
C2938 C 0.2355 0.51032 0.26408 0.0
C2939 C 0.25635 0.51423 0.29214 0.0
C2940 C 0.23778 0.52561 0.27024 0.0
C2941 C 0.25824 0.52944 0.29783 0.0
C2942 C 0.23452 0.4532 0.23001 0.0
C2943 C 0.24887 0.46165 0.21687 0.0
C2944 C 0.21983 0.44282 0.21858 0.0
C2945 C 0.24825 0.45963 0.19247 0.0
C2946 C 0.21971 0.44117 0.19414 0.0
N2947 N 0.2338 0.44953 0.1817 0.0
C2948 C 0.27721 0.47012 0.26918 0.0
C2949 C 0.28141 0.4968 0.26398 0.0
C2950 C 0.29303 0.47516 0.26145 0.0
N2951 N 0.2717 0.4809 0.27 0.0
C2952 C 0.29724 0.50232 0.25593 0.0
C2953 C 0.30314 0.49137 0.25402 0.0
H2954 H 0.26906 0.45744 0.27347 0.0
H2955 H 0.27658 0.505 0.26419 0.0
C2956 C 0.20011 0.46778 0.22541 0.0
N2957 N 0.21634 0.47341 0.22772 0.0
C2958 C 0.19414 0.47165 0.20544 0.0
C2959 C 0.22171 0.48683 0.19047 0.0
C2960 C 0.22715 0.48275 0.2108 0.0
C2961 C 0.20501 0.48144 0.18771 0.0
H2962 H 0.19184 0.46066 0.23936 0.0
H2963 H 0.24003 0.48726 0.21332 0.0
O2964 O 0.23954 0.46363 0.30708 0.0
O2965 O 0.20898 0.46021 0.28193 0.0
O2966 O 0.24259 0.48952 0.26971 0.0
O2967 O 0.23483 0.45517 0.2539 0.0
H2968 H 0.2437 0.43806 0.31127 0.0
H2969 H 0.26507 0.4894 0.32561 0.0
H2970 H 0.26784 0.43873 0.32953 0.0
H2971 H 0.2889 0.48919 0.3435 0.0
H2972 H 0.16199 0.41176 0.27323 0.0
H2973 H 0.19831 0.45703 0.32579 0.0
H2974 H 0.18752 0.43479 0.25714 0.0
H2975 H 0.17257 0.43364 0.34063 0.0
H2976 H 0.2326 0.49679 0.37967 0.0
H2977 H 0.20423 0.50707 0.33013 0.0
H2978 H 0.19631 0.38987 0.26741 0.0
H2979 H 0.19648 0.40367 0.34003 0.0
H2980 H 0.22647 0.50299 0.25101 0.0
H2981 H 0.26365 0.50995 0.30093 0.0
H2982 H 0.23059 0.53018 0.26186 0.0
H2983 H 0.26705 0.537 0.311 0.0
H2984 H 0.26035 0.46979 0.22534 0.0
H2985 H 0.20857 0.43635 0.22841 0.0
H2986 H 0.25925 0.46614 0.18208 0.0
H2987 H 0.2084 0.43328 0.18506 0.0
H2988 H 0.29708 0.46631 0.26051 0.0
H2989 H 0.30437 0.51482 0.24995 0.0
H2990 H 0.18122 0.4675 0.20434 0.0
H2991 H 0.23052 0.49428 0.17721 0.0
Li2992 Li 0.55141 0.77339 0.28882 0.0
Li2993 Li 0.52469 0.75109 0.30112 0.0
Li2994 Li 0.533 0.7548 0.25975 0.0
Li2995 Li 0.52628 0.7736 0.27948 0.0
C2996 C 0.55527 0.74745 0.29407 0.0
N2997 N 0.58105 0.74431 0.31052 0.0
C2998 C 0.55413 0.73999 0.31578 0.0
C2999 C 0.56952 0.75326 0.2807 0.0
C3000 C 0.5673 0.73852 0.32378 0.0
C3001 C 0.58242 0.75159 0.28934 0.0
C3002 C 0.53467 0.78645 0.32179 0.0
C3003 C 0.51886 0.79689 0.3404 0.0
N3004 N 0.53252 0.81183 0.34208 0.0
C3005 C 0.54857 0.80187 0.3238 0.0
C3006 C 0.51971 0.78389 0.33027 0.0
C3007 C 0.54722 0.81455 0.33409 0.0
C3008 C 0.5842 0.79868 0.28367 0.0
N3009 N 0.57357 0.78645 0.29794 0.0
C3010 C 0.59482 0.79191 0.32535 0.0
C3011 C 0.57845 0.78324 0.31875 0.0
C3012 C 0.60626 0.80447 0.31079 0.0
C3013 C 0.60064 0.80796 0.28985 0.0
H3014 H 0.57989 0.80123 0.26748 0.0
H3015 H 0.56964 0.77366 0.32999 0.0
C3016 C 0.50808 0.7193 0.31976 0.0
N3017 N 0.51359 0.73524 0.32492 0.0
C3018 C 0.50047 0.70735 0.33703 0.0
C3019 C 0.50468 0.7285 0.36475 0.0
C3020 C 0.512 0.74002 0.34684 0.0
C3021 C 0.49887 0.71193 0.35992 0.0
H3022 H 0.5099 0.71592 0.30233 0.0
H3023 H 0.5167 0.75281 0.35051 0.0
C3024 C 0.54782 0.78125 0.2352 0.0
N3025 N 0.55211 0.78409 0.187 0.0
C3026 C 0.53678 0.78307 0.22099 0.0
C3027 C 0.56107 0.78091 0.22492 0.0
C3028 C 0.53917 0.78449 0.19666 0.0
C3029 C 0.56301 0.78235 0.20051 0.0
C3030 C 0.49692 0.73724 0.27807 0.0
C3031 C 0.49205 0.72215 0.26752 0.0
C3032 C 0.4867 0.73869 0.29444 0.0
C3033 C 0.47702 0.70871 0.27364 0.0
C3034 C 0.47178 0.72496 0.30012 0.0
N3035 N 0.46729 0.71038 0.28969 0.0
C3036 C 0.54138 0.73816 0.22594 0.0
C3037 C 0.51838 0.74069 0.2164 0.0
C3038 C 0.53904 0.72875 0.20588 0.0
N3039 N 0.53095 0.74367 0.23098 0.0
C3040 C 0.51545 0.73115 0.19628 0.0
C3041 C 0.52565 0.72472 0.19105 0.0
H3042 H 0.55128 0.74071 0.23778 0.0
H3043 H 0.51026 0.74523 0.2209 0.0
C3044 C 0.52756 0.80375 0.27348 0.0
N3045 N 0.5174 0.78733 0.27375 0.0
C3046 C 0.52198 0.81405 0.26551 0.0
C3047 C 0.49553 0.79032 0.25855 0.0
C3048 C 0.50158 0.78051 0.26687 0.0
C3049 C 0.50589 0.80732 0.25722 0.0
H3050 H 0.54021 0.80881 0.27844 0.0
H3051 H 0.49391 0.7674 0.26656 0.0
O3052 O 0.54253 0.74909 0.28601 0.0
O3053 O 0.5357 0.77392 0.31153 0.0
O3054 O 0.54544 0.77936 0.25898 0.0
O3055 O 0.51171 0.75049 0.2726 0.0
H3056 H 0.54326 0.73548 0.32643 0.0
H3057 H 0.57075 0.75934 0.26408 0.0
H3058 H 0.56659 0.73282 0.34057 0.0
H3059 H 0.59356 0.75616 0.27927 0.0
H3060 H 0.50734 0.79511 0.34693 0.0
H3061 H 0.56025 0.80407 0.31734 0.0
H3062 H 0.50885 0.77202 0.3289 0.0
H3063 H 0.55785 0.82657 0.33566 0.0
H3064 H 0.59843 0.78851 0.34148 0.0
H3065 H 0.6088 0.81778 0.27833 0.0
H3066 H 0.4964 0.69474 0.33273 0.0
H3067 H 0.50364 0.73248 0.38221 0.0
H3068 H 0.52639 0.78322 0.22863 0.0
H3069 H 0.56964 0.77936 0.23565 0.0
H3070 H 0.53069 0.78585 0.18543 0.0
H3071 H 0.57316 0.78202 0.1923 0.0
H3072 H 0.49987 0.72075 0.25501 0.0
H3073 H 0.49031 0.75026 0.30282 0.0
H3074 H 0.47312 0.69694 0.2657 0.0
H3075 H 0.46378 0.72589 0.31285 0.0
H3076 H 0.54742 0.72436 0.20236 0.0
H3077 H 0.50486 0.72824 0.1856 0.0
H3078 H 0.53037 0.82707 0.26504 0.0
H3079 H 0.48315 0.78452 0.25191 0.0
Li3080 Li 0.24893 0.77216 0.30187 0.0
Li3081 Li 0.22849 0.77899 0.28871 0.0
Li3082 Li 0.22466 0.75184 0.2829 0.0
Li3083 Li 0.24494 0.77512 0.26007 0.0
C3084 C 0.21354 0.75091 0.32499 0.0
N3085 N 0.18707 0.72548 0.34716 0.0
C3086 C 0.19866 0.75065 0.32603 0.0
C3087 C 0.21501 0.73832 0.33534 0.0
C3088 C 0.18541 0.73766 0.3373 0.0
C3089 C 0.20147 0.72554 0.34643 0.0
C3090 C 0.25577 0.80705 0.29126 0.0
C3091 C 0.25517 0.8318 0.28348 0.0
N3092 N 0.26104 0.83722 0.30548 0.0
C3093 C 0.26184 0.81288 0.31377 0.0
C3094 C 0.25247 0.8166 0.27594 0.0
C3095 C 0.26442 0.82817 0.32063 0.0
C3096 C 0.28112 0.78604 0.31698 0.0
N3097 N 0.26546 0.77695 0.3245 0.0
C3098 C 0.27443 0.77723 0.36389 0.0
C3099 C 0.26187 0.77241 0.34739 0.0
C3100 C 0.29079 0.78678 0.35667 0.0
C3101 C 0.29401 0.79093 0.33274 0.0
H3102 H 0.28356 0.7897 0.29873 0.0
H3103 H 0.24928 0.7654 0.35294 0.0
C3104 C 0.20725 0.79114 0.27992 0.0
N3105 N 0.2176 0.79068 0.29604 0.0
C3106 C 0.19894 0.79949 0.28483 0.0
C3107 C 0.21198 0.8066 0.32299 0.0
C3108 C 0.21999 0.79803 0.31736 0.0
C3109 C 0.20125 0.80735 0.30662 0.0
H3110 H 0.20534 0.78492 0.2633 0.0
H3111 H 0.22804 0.79716 0.33003 0.0
C3112 C 0.25957 0.75467 0.28009 0.0
N3113 N 0.2853 0.74978 0.29066 0.0
C3114 C 0.27405 0.76266 0.26713 0.0
C3115 C 0.25813 0.7441 0.29829 0.0
C3116 C 0.28692 0.76004 0.27277 0.0
C3117 C 0.2713 0.74182 0.30341 0.0
C3118 C 0.21782 0.76499 0.2367 0.0
C3119 C 0.21169 0.75028 0.22442 0.0
C3120 C 0.22136 0.77924 0.22455 0.0
C3121 C 0.20918 0.75007 0.20016 0.0
C3122 C 0.21872 0.77853 0.20028 0.0
N3123 N 0.21273 0.76408 0.18869 0.0
C3124 C 0.19289 0.7261 0.27674 0.0
C3125 C 0.21305 0.7182 0.27571 0.0
C3126 C 0.1812 0.71096 0.2679 0.0
N3127 N 0.20856 0.72957 0.27964 0.0
C3128 C 0.20172 0.70285 0.26696 0.0
C3129 C 0.18576 0.6994 0.26193 0.0
H3130 H 0.1898 0.73554 0.27944 0.0
H3131 H 0.22568 0.72144 0.27763 0.0
C3132 C 0.26615 0.79765 0.2262 0.0
N3133 N 0.25568 0.78161 0.23056 0.0
C3134 C 0.27485 0.80246 0.20511 0.0
C3135 C 0.26157 0.77414 0.19325 0.0
C3136 C 0.25323 0.76989 0.21465 0.0
C3137 C 0.27276 0.79061 0.18839 0.0
H3138 H 0.26808 0.80668 0.23936 0.0
H3139 H 0.245 0.75719 0.21878 0.0
O3140 O 0.22658 0.76337 0.3137 0.0
O3141 O 0.25289 0.79199 0.28435 0.0
O3142 O 0.24692 0.75727 0.27508 0.0
O3143 O 0.2206 0.76552 0.26042 0.0
H3144 H 0.1973 0.76028 0.31804 0.0
H3145 H 0.22645 0.73835 0.33467 0.0
H3146 H 0.17379 0.73725 0.33816 0.0
H3147 H 0.2024 0.71566 0.35442 0.0
H3148 H 0.25256 0.83926 0.27187 0.0
H3149 H 0.26439 0.80564 0.32591 0.0
H3150 H 0.24767 0.81222 0.25852 0.0
H3151 H 0.26905 0.83281 0.33802 0.0
H3152 H 0.27131 0.77395 0.38217 0.0
H3153 H 0.30637 0.79802 0.3262 0.0
H3154 H 0.19085 0.79985 0.27166 0.0
H3155 H 0.2139 0.81228 0.34013 0.0
H3156 H 0.27539 0.77093 0.25304 0.0
H3157 H 0.24703 0.73786 0.30852 0.0
H3158 H 0.29822 0.7662 0.26298 0.0
H3159 H 0.2704 0.73376 0.31756 0.0
H3160 H 0.20909 0.73917 0.23338 0.0
H3161 H 0.22629 0.79077 0.23369 0.0
H3162 H 0.20449 0.73878 0.19043 0.0
H3163 H 0.22149 0.78948 0.19065 0.0
H3164 H 0.16901 0.70872 0.26431 0.0
H3165 H 0.20577 0.69436 0.26228 0.0
H3166 H 0.28358 0.81525 0.20239 0.0
H3167 H 0.25945 0.76461 0.18083 0.0
H3168 H 0.13266 0.00922 0.08284 0.0
H3169 H 0.1507 0.9476 0.01046 0.0
H3170 H 0.18034 0.01395 0.07766 0.0
H3171 H 0.10544 0.94828 0.00756 0.0
H3172 H 0.16033 0.96844 0.04123 0.0
H3173 H 0.1211 0.98327 0.06189 0.0
C3174 C 0.14067 0.00469 0.0775 0.0
C3175 C 0.15752 0.01388 0.08165 0.0
C3176 C 0.14821 0.96385 0.03405 0.0
C3177 C 0.14439 0.9842 0.05761 0.0
C3178 C 0.14273 0.95201 0.01639 0.0
C3179 C 0.1273 0.94628 0.00614 0.0
C3180 C 0.13819 0.97001 0.04152 0.0
C3181 C 0.11737 0.95219 0.01496 0.0
C3182 C 0.13406 0.98987 0.06557 0.0
C3183 C 0.16728 0.00728 0.07481 0.0
N3184 N 0.12305 0.96383 0.03195 0.0
N3185 N 0.1606 0.99294 0.06282 0.0
H3186 H 0.98565 0.16828 0.07444 0.0
H3187 H 0.04854 0.15586 0.99599 0.0
H3188 H 0.98498 0.12254 0.06745 0.0
H3189 H 0.05085 0.20235 0.00412 0.0
H3190 H 0.02712 0.1443 0.02558 0.0
H3191 H 0.01121 0.18173 0.05222 0.0
C3192 C 0.991 0.16111 0.06854 0.0
C3193 C 0.98307 0.14422 0.07258 0.0
C3194 C 0.0324 0.15707 0.02109 0.0
C3195 C 0.01219 0.15949 0.04691 0.0
C3196 C 0.04477 0.16375 0.00428 0.0
C3197 C 0.05151 0.18012 0.99741 0.0
C3198 C 0.02658 0.16676 0.03106 0.0
C3199 C 0.04583 0.1896 0.00854 0.0
C3200 C 0.00555 0.16878 0.05574 0.0
C3201 C 0.9905 0.13552 0.06434 0.0
N3202 N 0.0336 0.18274 0.02467 0.0
N3203 N 0.00456 0.14323 0.05176 0.0
H3204 H 0.8232 0.87996 0.00575 0.0
H3205 H 0.82645 0.80215 0.04874 0.0
H3206 H 0.79022 0.83123 0.9807 0.0
H3207 H 0.85182 0.84848 0.08446 0.0
H3208 H 0.81129 0.8121 0.02602 0.0
H3209 H 0.83195 0.86845 0.03713 0.0
C3210 C 0.81754 0.86683 0.00709 0.0
C3211 C 0.80611 0.85656 0.9903 0.0
C3212 C 0.81998 0.82005 0.03905 0.0
C3213 C 0.81635 0.84333 0.02597 0.0
C3214 C 0.82865 0.81437 0.05197 0.0
C3215 C 0.84048 0.8246 0.06827 0.0
C3216 C 0.82338 0.83618 0.04216 0.0
C3217 C 0.84278 0.84025 0.07202 0.0
C3218 C 0.82263 0.86026 0.02498 0.0
C3219 C 0.79937 0.83964 0.99286 0.0
N3220 N 0.8345 0.84568 0.05875 0.0
N3221 N 0.80474 0.83358 0.01013 0.0
H3222 H 0.94051 0.12836 0.48521 0.0
H3223 H 0.03567 0.18863 0.46646 0.0
H3224 H 0.9721 0.16377 0.53648 0.0
H3225 H 0.00382 0.16006 0.40987 0.0
H3226 H 0.01196 0.18026 0.49168 0.0
H3227 H 0.96287 0.14029 0.45657 0.0
C3228 C 0.95208 0.13872 0.49037 0.0
C3229 C 0.95444 0.14503 0.51332 0.0
C3230 C 0.01007 0.17588 0.47371 0.0
C3231 C 0.98002 0.15868 0.48073 0.0
C3232 C 0.02362 0.1806 0.45936 0.0
C3233 C 0.02166 0.17485 0.4362 0.0
C3234 C 0.9944 0.16514 0.46496 0.0
C3235 C 0.00579 0.16471 0.42769 0.0
C3236 C 0.9648 0.14556 0.474 0.0
C3237 C 0.96962 0.15859 0.51896 0.0
N3238 N 0.99273 0.15998 0.44218 0.0
N3239 N 0.98184 0.16483 0.50288 0.0
H3240 H 0.85414 0.85821 0.40136 0.0
H3241 H 0.83978 0.79671 0.5071 0.0
H3242 H 0.80841 0.8308 0.43836 0.0
H3243 H 0.88723 0.83444 0.48397 0.0
H3244 H 0.82728 0.80407 0.47515 0.0
H3245 H 0.8654 0.84451 0.42479 0.0
C3246 C 0.8464 0.84919 0.41421 0.0
C3247 C 0.83038 0.84589 0.41816 0.0
C3248 C 0.84044 0.81058 0.4769 0.0
C3249 C 0.84317 0.83006 0.44483 0.0
C3250 C 0.84757 0.80633 0.49501 0.0
C3251 C 0.86454 0.81511 0.49827 0.0
C3252 C 0.85037 0.82361 0.46188 0.0
C3253 C 0.87408 0.82755 0.48224 0.0
C3254 C 0.85283 0.84135 0.42752 0.0
C3255 C 0.8208 0.83375 0.43462 0.0
N3256 N 0.86685 0.83151 0.46482 0.0
N3257 N 0.82741 0.82642 0.44754 0.0
H3258 H 0.16092 0.98988 0.41184 0.0
H3259 H 0.1706 0.01612 0.5466 0.0
H3260 H 0.12647 0.96074 0.46564 0.0
H3261 H 0.18702 0.05213 0.49127 0.0
H3262 H 0.15917 0.99455 0.51689 0.0
H3263 H 0.17507 0.01206 0.44074 0.0
C3264 C 0.15637 0.98821 0.42971 0.0
C3265 C 0.14246 0.97364 0.43644 0.0
C3266 C 0.16539 0.00718 0.51126 0.0
C3267 C 0.15864 0.99849 0.46936 0.0
C3268 C 0.17202 0.01947 0.52815 0.0
C3269 C 0.17973 0.03588 0.5213 0.0
C3270 C 0.16666 0.01134 0.48735 0.0
C3271 C 0.18106 0.03958 0.49719 0.0
C3272 C 0.16439 0.0008 0.44609 0.0
C3273 C 0.13703 0.97192 0.45976 0.0
N3274 N 0.17458 0.02736 0.48099 0.0
N3275 N 0.14519 0.98416 0.47543 0.0
H3276 H 0.85515 0.02161 0.04185 0.0
H3277 H 0.81975 0.99215 0.91343 0.0
H3278 H 0.85365 0.05526 0.99209 0.0
H3279 H 0.84465 0.97212 0.95279 0.0
H3280 H 0.82829 0.01385 0.9432 0.0
H3281 H 0.84681 0.00121 0.0107 0.0
C3282 C 0.85287 0.02461 0.02438 0.0
C3283 C 0.855 0.04007 0.01948 0.0
C3284 C 0.83198 0.00476 0.94508 0.0
C3285 C 0.84558 0.01687 0.98378 0.0
C3286 C 0.82711 0.99242 0.92821 0.0
C3287 C 0.83163 0.98045 0.93063 0.0
C3288 C 0.84103 0.00478 0.96468 0.0
C3289 C 0.84112 0.98126 0.95009 0.0
C3290 C 0.84827 0.01305 0.00659 0.0
C3291 C 0.85216 0.04346 0.99647 0.0
N3292 N 0.84536 0.99311 0.96647 0.0
N3293 N 0.84748 0.03188 0.9794 0.0
H3294 H 0.93389 0.80964 0.97946 0.0
H3295 H 0.02255 0.82614 0.94413 0.0
H3296 H 0.96395 0.79805 0.02343 0.0
H3297 H 0.99679 0.84565 0.90564 0.0
H3298 H 0.99854 0.81066 0.96872 0.0
H3299 H 0.95437 0.81814 0.94831 0.0
C3300 C 0.94472 0.80877 0.98254 0.0
C3301 C 0.94726 0.80331 0.00428 0.0
C3302 C 0.99805 0.81816 0.9547 0.0
C3303 C 0.97065 0.81285 0.96856 0.0
C3304 C 0.01172 0.8269 0.94047 0.0
C3305 C 0.01175 0.83734 0.92288 0.0
C3306 C 0.98428 0.81988 0.95142 0.0
C3307 C 0.9974 0.83798 0.91926 0.0
C3308 C 0.95636 0.81355 0.96469 0.0
C3309 C 0.96136 0.80207 0.00699 0.0
N3310 N 0.98429 0.8295 0.93357 0.0
N3311 N 0.97257 0.80695 0.98944 0.0
H3312 H 0.15133 0.14969 0.89849 0.0
H3313 H 0.20867 0.16699 0.01053 0.0
H3314 H 0.17475 0.19517 0.93685 0.0
H3315 H 0.1789 0.1193 0.97988 0.0
H3316 H 0.20124 0.17891 0.97805 0.0
H3317 H 0.16602 0.1399 0.92273 0.0
C3318 C 0.15969 0.1577 0.9118 0.0
C3319 C 0.1616 0.1732 0.91582 0.0
C3320 C 0.1965 0.16586 0.97826 0.0
C3321 C 0.17852 0.16209 0.94353 0.0
C3322 C 0.20083 0.15906 0.99672 0.0
C3323 C 0.19422 0.1421 0.99807 0.0
C3324 C 0.18548 0.15564 0.96103 0.0
C3325 C 0.18401 0.13241 0.97976 0.0
C3326 C 0.16811 0.15211 0.92558 0.0
C3327 C 0.1729 0.18317 0.93297 0.0
N3328 N 0.17981 0.13929 0.96212 0.0
N3329 N 0.18077 0.17736 0.94637 0.0
H3330 H 0.97442 0.80176 0.55924 0.0
H3331 H 0.06028 0.87289 0.51198 0.0
H3332 H 0.99907 0.85078 0.58688 0.0
H3333 H 0.02962 0.82827 0.47406 0.0
H3334 H 0.04112 0.86255 0.54489 0.0
H3335 H 0.9979 0.80892 0.53375 0.0
C3336 C 0.98495 0.81392 0.56035 0.0
C3337 C 0.98478 0.82576 0.57502 0.0
C3338 C 0.0387 0.85496 0.52946 0.0
C3339 C 0.01152 0.83406 0.54573 0.0
C3340 C 0.04959 0.86087 0.51061 0.0
C3341 C 0.04642 0.85157 0.49001 0.0
C3342 C 0.02455 0.83959 0.52776 0.0
C3343 C 0.0326 0.83588 0.48955 0.0
C3344 C 0.99827 0.81803 0.54566 0.0
C3345 C 0.99865 0.84137 0.57557 0.0
N3346 N 0.02208 0.83047 0.50804 0.0
N3347 N 0.01141 0.84512 0.56097 0.0
H3348 H 0.14244 0.19921 0.50639 0.0
H3349 H 0.15123 0.12249 0.54177 0.0
H3350 H 0.14132 0.16433 0.45648 0.0
H3351 H 0.17053 0.16533 0.58574 0.0
H3352 H 0.14384 0.13635 0.5123 0.0
H3353 H 0.14967 0.18589 0.53755 0.0
C3354 C 0.14378 0.1888 0.50201 0.0
C3355 C 0.1414 0.1829 0.47884 0.0
C3356 C 0.14964 0.14273 0.52842 0.0
C3357 C 0.14936 0.16757 0.51422 0.0
C3358 C 0.1537 0.13476 0.54536 0.0
C3359 C 0.1614 0.14274 0.5663 0.0
C3360 C 0.15317 0.15879 0.53242 0.0
C3361 C 0.16463 0.15878 0.56978 0.0
C3362 C 0.14793 0.18127 0.51973 0.0
C3363 C 0.14328 0.1694 0.47404 0.0
N3364 N 0.16044 0.1663 0.55301 0.0
N3365 N 0.14704 0.16214 0.49159 0.0
H3366 H 0.87802 0.0184 0.56711 0.0
H3367 H 0.79563 0.95014 0.50801 0.0
H3368 H 0.83041 0.00851 0.59012 0.0
H3369 H 0.84333 0.95692 0.49288 0.0
H3370 H 0.80766 0.97042 0.53955 0.0
H3371 H 0.8651 0.99458 0.5419 0.0
C3372 C 0.86484 0.01107 0.56728 0.0
C3373 C 0.85533 0.01559 0.58085 0.0
C3374 C 0.81544 0.96732 0.52948 0.0
C3375 C 0.84036 0.98837 0.55117 0.0
C3376 C 0.8086 0.95582 0.5114 0.0
C3377 C 0.81849 0.95185 0.49774 0.0
C3378 C 0.8323 0.97498 0.53376 0.0
C3379 C 0.83519 0.95943 0.5031 0.0
C3380 C 0.85744 0.99748 0.55262 0.0
C3381 C 0.83826 0.0057 0.57971 0.0
N3382 N 0.84156 0.9707 0.52053 0.0
N3383 N 0.83132 0.99264 0.56494 0.0
H3384 H 0.81894 0.31044 0.28388 0.0
H3385 H 0.8328 0.34155 0.41695 0.0
H3386 H 0.79422 0.27776 0.34177 0.0
H3387 H 0.84368 0.37284 0.35629 0.0
H3388 H 0.82062 0.31775 0.3907 0.0
H3389 H 0.8308 0.33325 0.31127 0.0
C3390 C 0.81614 0.30805 0.30244 0.0
C3391 C 0.80566 0.29218 0.31059 0.0
C3392 C 0.82572 0.32986 0.38324 0.0
C3393 C 0.81906 0.31833 0.34211 0.0
C3394 C 0.83262 0.34344 0.39819 0.0
C3395 C 0.83951 0.35927 0.38882 0.0
C3396 C 0.82582 0.33219 0.35882 0.0
C3397 C 0.83898 0.36095 0.36434 0.0
C3398 C 0.8228 0.32111 0.31806 0.0
C3399 C 0.8022 0.28984 0.33478 0.0
N3400 N 0.83234 0.34762 0.35025 0.0
N3401 N 0.80894 0.3028 0.34977 0.0
H3402 H 0.65413 0.45554 0.41337 0.0
H3403 H 0.71601 0.53609 0.34283 0.0
H3404 H 0.64929 0.49845 0.4094 0.0
H3405 H 0.71422 0.48972 0.33693 0.0
H3406 H 0.69525 0.52454 0.37371 0.0
H3407 H 0.68006 0.47016 0.3924 0.0
C3408 C 0.65863 0.46811 0.40829 0.0
C3409 C 0.64941 0.47571 0.41276 0.0
C3410 C 0.69959 0.51699 0.36583 0.0
C3411 C 0.67905 0.49251 0.3887 0.0
C3412 C 0.71137 0.52354 0.34811 0.0
C3413 C 0.71677 0.51382 0.33699 0.0
C3414 C 0.69318 0.50063 0.37252 0.0
C3415 C 0.71058 0.49775 0.34502 0.0
C3416 C 0.67343 0.47646 0.39635 0.0
C3417 C 0.65599 0.49213 0.40628 0.0
N3418 N 0.69903 0.49164 0.36211 0.0
N3419 N 0.67031 0.49992 0.39426 0.0
H3420 H 0.54232 0.1947 0.40147 0.0
H3421 H 0.46016 0.18246 0.34404 0.0
H3422 H 0.49511 0.15283 0.41548 0.0
H3423 H 0.50767 0.22483 0.33326 0.0
H3424 H 0.4719 0.1729 0.37419 0.0
H3425 H 0.52909 0.20755 0.38079 0.0
C3426 C 0.52912 0.1883 0.40037 0.0
C3427 C 0.51978 0.17262 0.40988 0.0
C3428 C 0.47969 0.18441 0.36545 0.0
C3429 C 0.50451 0.18714 0.38602 0.0
C3430 C 0.47301 0.18983 0.34816 0.0
C3431 C 0.48296 0.2044 0.33591 0.0
C3432 C 0.49645 0.19356 0.37041 0.0
C3433 C 0.49948 0.21359 0.34229 0.0
C3434 C 0.52156 0.19564 0.3886 0.0
C3435 C 0.50273 0.16494 0.40831 0.0
N3436 N 0.50571 0.20793 0.35888 0.0
N3437 N 0.49562 0.17218 0.39625 0.0
H3438 H 0.62491 0.44785 0.8362 0.0
H3439 H 0.68577 0.52413 0.75807 0.0
H3440 H 0.62094 0.49118 0.82915 0.0
H3441 H 0.68586 0.47859 0.76025 0.0
H3442 H 0.66073 0.51169 0.78151 0.0
H3443 H 0.64569 0.45813 0.80569 0.0
C3444 C 0.62818 0.45941 0.82798 0.0
C3445 C 0.62114 0.46867 0.8354 0.0
C3446 C 0.66612 0.50437 0.77661 0.0
C3447 C 0.64537 0.48075 0.80068 0.0
C3448 C 0.68044 0.51148 0.76331 0.0
C3449 C 0.68799 0.50243 0.75735 0.0
C3450 C 0.65938 0.48813 0.78417 0.0
C3451 C 0.68042 0.48601 0.76429 0.0
C3452 C 0.64018 0.46534 0.81062 0.0
C3453 C 0.62621 0.48374 0.82433 0.0
N3454 N 0.66665 0.47945 0.77753 0.0
N3455 N 0.63812 0.48937 0.80768 0.0
H3456 H 0.50123 0.17512 0.74301 0.0
H3457 H 0.49776 0.1408 0.87289 0.0
H3458 H 0.47564 0.18111 0.80148 0.0
H3459 H 0.53219 0.14396 0.82038 0.0
H3460 H 0.48582 0.15084 0.84416 0.0
H3461 H 0.50921 0.15932 0.7686 0.0
C3462 C 0.49717 0.17295 0.76115 0.0
C3463 C 0.48797 0.17957 0.77031 0.0
C3464 C 0.4959 0.14922 0.83882 0.0
C3465 C 0.49691 0.16158 0.79946 0.0
C3466 C 0.50264 0.14333 0.85518 0.0
C3467 C 0.51606 0.14159 0.84908 0.0
C3468 C 0.50261 0.15347 0.81615 0.0
C3469 C 0.52201 0.14534 0.82593 0.0
C3470 C 0.50176 0.16402 0.77573 0.0
C3471 C 0.48299 0.17644 0.79388 0.0
N3472 N 0.51531 0.15121 0.81031 0.0
N3473 N 0.48757 0.16773 0.80765 0.0
H3474 H 0.86416 0.36786 0.8535 0.0
H3475 H 0.80557 0.32496 0.74455 0.0
H3476 H 0.84067 0.39005 0.81552 0.0
H3477 H 0.83604 0.30818 0.77608 0.0
H3478 H 0.81975 0.35003 0.76789 0.0
H3479 H 0.85557 0.34717 0.82315 0.0
C3480 C 0.85745 0.36861 0.83858 0.0
C3481 C 0.85311 0.38078 0.83724 0.0
C3482 C 0.82347 0.34095 0.76945 0.0
C3483 C 0.84274 0.35661 0.80252 0.0
C3484 C 0.81544 0.32669 0.75604 0.0
C3485 C 0.81949 0.31438 0.75864 0.0
C3486 C 0.83555 0.34284 0.7856 0.0
C3487 C 0.83229 0.3172 0.77392 0.0
C3488 C 0.85242 0.35665 0.82127 0.0
C3489 C 0.84404 0.38075 0.81761 0.0
N3490 N 0.83973 0.33103 0.78698 0.0
N3491 N 0.83901 0.36875 0.80115 0.0
H3492 H 0.49635 0.37264 0.3418 0.0
H3493 H 0.51377 0.33265 0.22996 0.0
H3494 H 0.54395 0.39092 0.31066 0.0
H3495 H 0.46827 0.31058 0.26826 0.0
H3496 H 0.5234 0.35729 0.25379 0.0
H3497 H 0.48439 0.35334 0.30928 0.0
C3498 C 0.50425 0.37283 0.32787 0.0
C3499 C 0.5212 0.38325 0.32911 0.0
C3500 C 0.51121 0.34713 0.25671 0.0
C3501 C 0.50763 0.36102 0.29203 0.0
C3502 C 0.50572 0.33305 0.24315 0.0
C3503 C 0.49027 0.3194 0.24732 0.0
C3504 C 0.5012 0.34758 0.27459 0.0
C3505 C 0.48024 0.32077 0.26431 0.0
C3506 C 0.49743 0.36172 0.30939 0.0
C3507 C 0.53086 0.38286 0.31065 0.0
N3508 N 0.48596 0.33451 0.27751 0.0
N3509 N 0.52396 0.37179 0.293 0.0
H3510 H 0.68402 0.15999 0.26516 0.0
H3511 H 0.61526 0.16859 0.32685 0.0
H3512 H 0.66682 0.19106 0.23676 0.0
H3513 H 0.61614 0.1234 0.33051 0.0
H3514 H 0.63414 0.17708 0.29397 0.0
H3515 H 0.65939 0.14616 0.28902 0.0
C3516 C 0.67496 0.16372 0.26347 0.0
C3517 C 0.67771 0.17694 0.24907 0.0
C3518 C 0.63001 0.1652 0.30177 0.0
C3519 C 0.64968 0.16139 0.27703 0.0
C3520 C 0.61911 0.16025 0.32056 0.0
C3521 C 0.61407 0.14523 0.3318 0.0
C3522 C 0.63627 0.15528 0.29441 0.0
C3523 C 0.61995 0.13525 0.32294 0.0
C3524 C 0.66091 0.15584 0.27726 0.0
C3525 C 0.66552 0.18128 0.24808 0.0
N3526 N 0.63094 0.14057 0.30502 0.0
N3527 N 0.65219 0.17373 0.26219 0.0
H3528 H 0.87752 0.4985 0.33505 0.0
H3529 H 0.79831 0.48028 0.26128 0.0
H3530 H 0.82924 0.4575 0.34629 0.0
H3531 H 0.845 0.52403 0.2516 0.0
H3532 H 0.81094 0.46994 0.28797 0.0
H3533 H 0.86717 0.50646 0.30082 0.0
C3534 C 0.86479 0.49112 0.33019 0.0
C3535 C 0.85414 0.47749 0.3437 0.0
C3536 C 0.81851 0.48175 0.27987 0.0
C3537 C 0.84229 0.48641 0.30473 0.0
C3538 C 0.81132 0.48762 0.26429 0.0
C3539 C 0.82055 0.50315 0.25412 0.0
C3540 C 0.83506 0.49148 0.28568 0.0
C3541 C 0.83732 0.51213 0.25932 0.0
C3542 C 0.8589 0.49567 0.31073 0.0
C3543 C 0.83778 0.46832 0.33667 0.0
N3544 N 0.84401 0.50624 0.27495 0.0
N3545 N 0.83237 0.47298 0.31778 0.0
H3546 H 0.65493 0.15516 0.91845 0.0
H3547 H 0.69851 0.21565 0.81009 0.0
H3548 H 0.6404 0.18837 0.89021 0.0
H3549 H 0.71033 0.17904 0.83165 0.0
H3550 H 0.67924 0.2077 0.84257 0.0
H3551 H 0.67737 0.16567 0.88998 0.0
C3552 C 0.65651 0.16473 0.90643 0.0
C3553 C 0.64569 0.17084 0.90677 0.0
C3554 C 0.68605 0.2014 0.84028 0.0
C3555 C 0.67137 0.18295 0.87427 0.0
C3556 C 0.69699 0.20587 0.82162 0.0
C3557 C 0.70587 0.19783 0.81792 0.0
C3558 C 0.68389 0.18876 0.85545 0.0
C3559 C 0.70373 0.18556 0.83386 0.0
C3560 C 0.66934 0.17074 0.89024 0.0
C3561 C 0.64851 0.18341 0.89097 0.0
N3562 N 0.69286 0.18131 0.85185 0.0
N3563 N 0.66098 0.18894 0.87533 0.0
H3564 H 0.86061 0.50436 0.89801 0.0
H3565 H 0.78875 0.51433 0.84157 0.0
H3566 H 0.8102 0.47573 0.91927 0.0
H3567 H 0.83714 0.53509 0.81231 0.0
H3568 H 0.7976 0.5047 0.87546 0.0
H3569 H 0.85334 0.52038 0.87234 0.0
C3570 C 0.84806 0.50166 0.8977 0.0
C3571 C 0.83596 0.48857 0.91067 0.0
C3572 C 0.80633 0.51154 0.86176 0.0
C3573 C 0.82751 0.50669 0.88088 0.0
C3574 C 0.80131 0.51712 0.84251 0.0
C3575 C 0.81221 0.52537 0.82405 0.0
C3576 C 0.82236 0.51432 0.86256 0.0
C3577 C 0.82831 0.52855 0.82602 0.0
C3578 C 0.84389 0.51073 0.88284 0.0
C3579 C 0.81986 0.48553 0.90926 0.0
N3580 N 0.83287 0.52292 0.84484 0.0
N3581 N 0.81607 0.49442 0.89444 0.0
H3582 H 0.54142 0.36139 0.87947 0.0
H3583 H 0.46402 0.2776 0.84048 0.0
H3584 H 0.49662 0.34032 0.91931 0.0
H3585 H 0.50108 0.31085 0.79247 0.0
H3586 H 0.47681 0.29796 0.87205 0.0
H3587 H 0.52804 0.33999 0.85013 0.0
C3588 C 0.52881 0.35207 0.88225 0.0
C3589 C 0.52014 0.35254 0.90197 0.0
C3590 C 0.48203 0.30077 0.85454 0.0
C3591 C 0.50465 0.32813 0.86813 0.0
C3592 C 0.4748 0.2892 0.83661 0.0
C3593 C 0.48147 0.29265 0.81386 0.0
C3594 C 0.49619 0.31567 0.84969 0.0
C3595 C 0.49543 0.30781 0.80969 0.0
C3596 C 0.52113 0.33997 0.86534 0.0
C3597 C 0.50371 0.34037 0.90433 0.0
N3598 N 0.50238 0.3187 0.82746 0.0
N3599 N 0.49646 0.32858 0.88759 0.0
H3600 H 0.50026 0.63171 0.64936 0.0
H3601 H 0.48277 0.66595 0.76672 0.0
H3602 H 0.45694 0.60372 0.69139 0.0
H3603 H 0.52821 0.69019 0.72836 0.0
H3604 H 0.47398 0.64185 0.74184 0.0
H3605 H 0.5117 0.65182 0.6806 0.0
C3606 C 0.49323 0.62958 0.66533 0.0
C3607 C 0.47751 0.61596 0.66756 0.0
C3608 C 0.48598 0.65236 0.73914 0.0
C3609 C 0.49047 0.63939 0.70336 0.0
C3610 C 0.49098 0.66613 0.75328 0.0
C3611 C 0.5062 0.68018 0.74953 0.0
C3612 C 0.49622 0.6527 0.72098 0.0
C3613 C 0.51643 0.67964 0.73208 0.0
C3614 C 0.49976 0.64119 0.68316 0.0
C3615 C 0.46895 0.61417 0.68861 0.0
N3616 N 0.51117 0.66623 0.7183 0.0
N3617 N 0.47546 0.62585 0.70558 0.0
H3618 H 0.38229 0.82905 0.67083 0.0
H3619 H 0.31165 0.83749 0.72917 0.0
H3620 H 0.38025 0.87357 0.66599 0.0
H3621 H 0.32604 0.80359 0.75506 0.0
H3622 H 0.3368 0.85119 0.70643 0.0
H3623 H 0.36194 0.81965 0.70194 0.0
C3624 C 0.37784 0.83703 0.67653 0.0
C3625 C 0.38301 0.85214 0.66549 0.0
C3626 C 0.33455 0.8409 0.71735 0.0
C3627 C 0.35922 0.84111 0.70084 0.0
C3628 C 0.32021 0.83309 0.73052 0.0
C3629 C 0.31654 0.81919 0.74395 0.0
C3630 C 0.34522 0.83464 0.71727 0.0
C3631 C 0.32808 0.81398 0.74452 0.0
C3632 C 0.36611 0.83157 0.69427 0.0
C3633 C 0.3764 0.86168 0.67349 0.0
N3634 N 0.34177 0.82155 0.7311 0.0
N3635 N 0.3647 0.85592 0.69044 0.0
H3636 H 0.12198 0.50149 0.66385 0.0
H3637 H 0.18962 0.52013 0.76189 0.0
H3638 H 0.16424 0.54903 0.67563 0.0
H3639 H 0.16039 0.47279 0.72977 0.0
H3640 H 0.17517 0.53048 0.73825 0.0
H3641 H 0.13112 0.49061 0.69576 0.0
C3642 C 0.1331 0.50969 0.67316 0.0
C3643 C 0.14244 0.52621 0.66667 0.0
C3644 C 0.1718 0.51777 0.73668 0.0
C3645 C 0.15267 0.51385 0.7036 0.0
C3646 C 0.18007 0.51185 0.75008 0.0
C3647 C 0.17647 0.49562 0.74754 0.0
C3648 C 0.15972 0.50736 0.72078 0.0
C3649 C 0.16361 0.48537 0.73244 0.0
C3650 C 0.13822 0.50347 0.69147 0.0
C3651 C 0.15648 0.53628 0.67997 0.0
N3652 N 0.15582 0.49145 0.71945 0.0
N3653 N 0.16121 0.52992 0.69766 0.0
H3654 H 0.34457 0.80002 0.08766 0.0
H3655 H 0.28297 0.81784 0.16053 0.0
H3656 H 0.34679 0.84668 0.08811 0.0
H3657 H 0.28645 0.77423 0.16743 0.0
H3658 H 0.30276 0.82679 0.12834 0.0
H3659 H 0.31946 0.78853 0.11069 0.0
C3660 C 0.33965 0.80779 0.0924 0.0
C3661 C 0.3479 0.82438 0.0863 0.0
C3662 C 0.29902 0.81517 0.13674 0.0
C3663 C 0.31921 0.81135 0.11276 0.0
C3664 C 0.28779 0.81009 0.1552 0.0
C3665 C 0.28314 0.79533 0.16694 0.0
C3666 C 0.30565 0.80543 0.12995 0.0
C3667 C 0.28952 0.78563 0.15888 0.0
C3668 C 0.32531 0.80123 0.10553 0.0
C3669 C 0.34082 0.83383 0.09247 0.0
N3670 N 0.30054 0.79092 0.14105 0.0
N3671 N 0.32699 0.82723 0.10567 0.0
H3672 H 0.18991 0.54106 0.0874 0.0
H3673 H 0.1765 0.4639 0.16277 0.0
H3674 H 0.14352 0.49665 0.09392 0.0
H3675 H 0.21987 0.51141 0.16619 0.0
H3676 H 0.16576 0.47406 0.13208 0.0
H3677 H 0.20264 0.52851 0.11023 0.0
C3678 C 0.18246 0.52855 0.09325 0.0
C3679 C 0.16561 0.51992 0.08893 0.0
C3680 C 0.1777 0.4822 0.13941 0.0
C3681 C 0.18005 0.50559 0.11537 0.0
C3682 C 0.18381 0.47644 0.15702 0.0
C3683 C 0.19905 0.48685 0.16731 0.0
C3684 C 0.1869 0.4985 0.13198 0.0
C3685 C 0.20813 0.50288 0.15872 0.0
C3686 C 0.18971 0.52144 0.10645 0.0
C3687 C 0.15652 0.50381 0.09718 0.0
N3688 N 0.20185 0.50823 0.1417 0.0
N3689 N 0.16383 0.49721 0.11015 0.0
H3690 H 0.51261 0.72427 0.14738 0.0
H3691 H 0.50011 0.63639 0.11584 0.0
H3692 H 0.52896 0.69759 0.19046 0.0
H3693 H 0.47704 0.65861 0.07717 0.0
H3694 H 0.51483 0.6612 0.13917 0.0
H3695 H 0.50319 0.7026 0.11779 0.0
C3696 C 0.51433 0.71395 0.15059 0.0
C3697 C 0.52152 0.71276 0.1716 0.0
C3698 C 0.50667 0.66075 0.12547 0.0
C3699 C 0.51095 0.68806 0.13767 0.0
C3700 C 0.49825 0.64658 0.11217 0.0
C3701 C 0.48717 0.64538 0.09482 0.0
C3702 C 0.50393 0.67384 0.12154 0.0
C3703 C 0.48547 0.65905 0.09043 0.0
C3704 C 0.50902 0.70163 0.13363 0.0
C3705 C 0.5237 0.69923 0.17451 0.0
N3706 N 0.49361 0.67268 0.10394 0.0
N3707 N 0.51834 0.6874 0.15785 0.0
H3708 H 0.1695 0.63495 0.62706 0.0
H3709 H 0.19988 0.72856 0.64518 0.0
H3710 H 0.16625 0.66321 0.56997 0.0
H3711 H 0.17779 0.69296 0.70066 0.0
H3712 H 0.19087 0.70616 0.61651 0.0
H3713 H 0.17639 0.65766 0.65383 0.0
C3714 C 0.17039 0.64604 0.62018 0.0
C3715 C 0.16747 0.64734 0.59633 0.0
C3716 C 0.18785 0.70334 0.63494 0.0
C3717 C 0.17528 0.67332 0.6268 0.0
C3718 C 0.19301 0.71605 0.65124 0.0
C3719 C 0.18951 0.71256 0.67526 0.0
C3720 C 0.17955 0.68713 0.6429 0.0
C3721 C 0.18058 0.69618 0.68228 0.0
C3722 C 0.17417 0.65892 0.63546 0.0
C3723 C 0.16849 0.66184 0.58829 0.0
N3724 N 0.17609 0.68408 0.66622 0.0
N3725 N 0.17249 0.67441 0.6035 0.0
H3726 H 0.28764 0.46011 0.66831 0.0
H3727 H 0.34023 0.53243 0.57792 0.0
H3728 H 0.28366 0.50348 0.66178 0.0
H3729 H 0.35499 0.49874 0.60339 0.0
H3730 H 0.31534 0.51816 0.60144 0.0
H3731 H 0.30838 0.47059 0.63739 0.0
C3732 C 0.29103 0.47178 0.66035 0.0
C3733 C 0.28398 0.481 0.66798 0.0
C3734 C 0.32397 0.51381 0.60161 0.0
C3735 C 0.30749 0.49286 0.63224 0.0
C3736 C 0.33822 0.52198 0.58827 0.0
C3737 C 0.34991 0.51697 0.58887 0.0
C3738 C 0.3213 0.50044 0.61551 0.0
C3739 C 0.34636 0.50304 0.60216 0.0
C3740 C 0.3028 0.47769 0.64261 0.0
C3741 C 0.28859 0.49584 0.65647 0.0
N3742 N 0.33245 0.49535 0.61509 0.0
N3743 N 0.30012 0.50135 0.63931 0.0
H3744 H 0.4954 0.77693 0.65921 0.0
H3745 H 0.50448 0.85594 0.60054 0.0
H3746 H 0.53969 0.82357 0.66562 0.0
H3747 H 0.47155 0.80783 0.57317 0.0
H3748 H 0.51814 0.84455 0.62347 0.0
H3749 H 0.48682 0.78784 0.62699 0.0
C3750 C 0.50351 0.78937 0.65363 0.0
C3751 C 0.51826 0.79936 0.66547 0.0
C3752 C 0.50809 0.83654 0.61215 0.0
C3753 C 0.50818 0.81207 0.62883 0.0
C3754 C 0.5003 0.84305 0.59887 0.0
C3755 C 0.48663 0.83282 0.58505 0.0
C3756 C 0.50202 0.81964 0.61196 0.0
C3757 C 0.48172 0.81615 0.58405 0.0
C3758 C 0.49852 0.79562 0.63524 0.0
C3759 C 0.52802 0.8155 0.65752 0.0
N3760 N 0.48923 0.81004 0.59763 0.0
N3761 N 0.5227 0.82142 0.63995 0.0
H3762 H 0.33157 0.52107 0.2559 0.0
H3763 H 0.37464 0.49895 0.1528 0.0
H3764 H 0.31067 0.47333 0.22404 0.0
H3765 H 0.38416 0.54779 0.16714 0.0
H3766 H 0.35551 0.48896 0.18579 0.0
H3767 H 0.35542 0.53041 0.23044 0.0
C3768 C 0.33203 0.51249 0.24376 0.0
C3769 C 0.3189 0.49644 0.2419 0.0
C3770 C 0.36196 0.50189 0.18181 0.0
C3771 C 0.3463 0.50703 0.213 0.0
C3772 C 0.37281 0.50761 0.16288 0.0
C3773 C 0.3809 0.52424 0.15684 0.0
C3774 C 0.35928 0.51287 0.19496 0.0
C3775 C 0.37835 0.5349 0.17111 0.0
C3776 C 0.34568 0.51783 0.22931 0.0
C3777 C 0.32046 0.48578 0.22627 0.0
N3778 N 0.36768 0.52902 0.18937 0.0
N3779 N 0.33382 0.49131 0.21227 0.0
H3780 H 0.47555 0.80471 0.2578 0.0
H3781 H 0.49814 0.87036 0.15506 0.0
H3782 H 0.52374 0.83331 0.22793 0.0
H3783 H 0.4488 0.8336 0.17256 0.0
H3784 H 0.50807 0.86081 0.18758 0.0
H3785 H 0.46603 0.81917 0.23248 0.0
C3786 C 0.48417 0.81411 0.24611 0.0
C3787 C 0.50044 0.81763 0.24486 0.0
C3788 C 0.49506 0.85494 0.18443 0.0
C3789 C 0.48965 0.83432 0.21603 0.0
C3790 C 0.48938 0.86033 0.16579 0.0
C3791 C 0.47262 0.85262 0.16081 0.0
C3792 C 0.48391 0.84175 0.19825 0.0
C3793 C 0.46182 0.83996 0.17574 0.0
C3794 C 0.47874 0.82239 0.23173 0.0
C3795 C 0.51113 0.83022 0.22973 0.0
N3796 N 0.46767 0.83483 0.19365 0.0
N3797 N 0.50551 0.83798 0.21578 0.0
H3798 H 0.16892 0.69935 0.2232 0.0
H3799 H 0.13543 0.60673 0.18695 0.0
H3800 H 0.17875 0.66751 0.26586 0.0
H3801 H 0.15103 0.64633 0.13709 0.0
H3802 H 0.14481 0.6267 0.21901 0.0
H3803 H 0.15475 0.6773 0.19488 0.0
C3804 C 0.16775 0.68758 0.22691 0.0
C3805 C 0.17502 0.68524 0.24693 0.0
C3806 C 0.14599 0.63087 0.20098 0.0
C3807 C 0.15901 0.66005 0.21437 0.0
C3808 C 0.14076 0.61953 0.18261 0.0
C3809 C 0.1424 0.62473 0.15904 0.0
C3810 C 0.15258 0.64747 0.19579 0.0
C3811 C 0.14909 0.64152 0.15479 0.0
C3812 C 0.15981 0.67507 0.21061 0.0
C3813 C 0.17339 0.66981 0.25056 0.0
N3814 N 0.15387 0.65223 0.17295 0.0
N3815 N 0.16558 0.65776 0.23435 0.0
H3816 H 0.1138 0.13976 0.29959 0.0
H3817 H 0.15834 0.14943 0.17615 0.0
H3818 H 0.12365 0.17782 0.24934 0.0
H3819 H 0.14834 0.11105 0.22585 0.0
H3820 H 0.14416 0.15897 0.20178 0.0
H3821 H 0.12443 0.12778 0.27163 0.0
C3822 C 0.11797 0.14547 0.28254 0.0
C3823 C 0.1179 0.15988 0.27686 0.0
C3824 C 0.145 0.14843 0.20707 0.0
C3825 C 0.13037 0.14637 0.24491 0.0
C3826 C 0.1532 0.14304 0.19251 0.0
C3827 C 0.15468 0.12952 0.19898 0.0
C3828 C 0.13825 0.14029 0.22835 0.0
C3829 C 0.14744 0.12148 0.22012 0.0
C3830 C 0.12416 0.13868 0.26665 0.0
C3831 C 0.1237 0.16686 0.25463 0.0
N3832 N 0.13963 0.12705 0.23413 0.0
N3833 N 0.12977 0.16009 0.23954 0.0
H3834 H 0.85812 0.98529 0.32136 0.0
H3835 H 0.87579 0.01873 0.18982 0.0
H3836 H 0.83223 0.95498 0.26197 0.0
H3837 H 0.88036 0.04945 0.24874 0.0
H3838 H 0.86473 0.99512 0.21632 0.0
H3839 H 0.87132 0.00897 0.295 0.0
C3840 C 0.85536 0.98363 0.30271 0.0
C3841 C 0.8441 0.96823 0.29373 0.0
C3842 C 0.86824 0.00705 0.22343 0.0
C3843 C 0.85915 0.99509 0.26365 0.0
C3844 C 0.87464 0.0205 0.2084 0.0
C3845 C 0.87898 0.036 0.2172 0.0
C3846 C 0.86645 0.00919 0.24745 0.0
C3847 C 0.87708 0.03766 0.24133 0.0
C3848 C 0.8628 0.99711 0.28777 0.0
C3849 C 0.84079 0.9667 0.26952 0.0
N3850 N 0.87101 0.0244 0.25569 0.0
N3851 N 0.84836 0.97997 0.25526 0.0
H3852 H 0.95904 0.85965 0.21977 0.0
H3853 H 0.04368 0.86575 0.25545 0.0
H3854 H 0.97668 0.82942 0.19006 0.0
H3855 H 0.0189 0.8832 0.30048 0.0
H3856 H 0.02129 0.85631 0.22737 0.0
H3857 H 0.98304 0.87229 0.24573 0.0
C3858 C 0.96802 0.85577 0.21865 0.0
C3859 C 0.96585 0.84339 0.20297 0.0
C3860 C 0.02079 0.86226 0.24336 0.0
C3861 C 0.99323 0.8578 0.23225 0.0
C3862 C 0.03354 0.8676 0.25948 0.0
C3863 C 0.03311 0.87509 0.28058 0.0
C3864 C 0.00751 0.86451 0.24821 0.0
C3865 C 0.01983 0.87758 0.28443 0.0
C3866 C 0.98164 0.86291 0.23347 0.0
C3867 C 0.97779 0.83875 0.20217 0.0
N3868 N 0.00751 0.87222 0.26844 0.0
N3869 N 0.99096 0.84597 0.21658 0.0
H3870 H 0.89272 0.8648 0.70143 0.0
H3871 H 0.82893 0.8474 0.80537 0.0
H3872 H 0.85676 0.81663 0.72482 0.0
H3873 H 0.85895 0.89511 0.77489 0.0
H3874 H 0.84096 0.83635 0.77834 0.0
H3875 H 0.88255 0.87655 0.73073 0.0
C3876 C 0.88279 0.85671 0.71289 0.0
C3877 C 0.87551 0.83971 0.71063 0.0
C3878 C 0.84496 0.84925 0.77756 0.0
C3879 C 0.86377 0.85304 0.744 0.0
C3880 C 0.83817 0.85559 0.7931 0.0
C3881 C 0.84298 0.87222 0.79243 0.0
C3882 C 0.85672 0.85959 0.76121 0.0
C3883 C 0.85479 0.88219 0.77586 0.0
C3884 C 0.87693 0.86342 0.72948 0.0
C3885 C 0.86258 0.82979 0.72576 0.0
N3886 N 0.86129 0.87572 0.76091 0.0
N3887 N 0.85712 0.83659 0.74177 0.0
H3888 H 0.16725 0.04787 0.74872 0.0
H3889 H 0.09692 0.95772 0.7823 0.0
H3890 H 0.13154 0.01526 0.69867 0.0
H3891 H 0.14234 0.98403 0.82046 0.0
H3892 H 0.10682 0.98036 0.75436 0.0
H3893 H 0.15523 0.02633 0.77856 0.0
C3894 C 0.15674 0.03625 0.74413 0.0
C3895 C 0.15042 0.03328 0.7212 0.0
C3896 C 0.11454 0.98115 0.76895 0.0
C3897 C 0.13668 0.00863 0.75511 0.0
C3898 C 0.10896 0.96819 0.78485 0.0
C3899 C 0.11879 0.96885 0.80385 0.0
C3900 C 0.13 0.99497 0.77216 0.0
C3901 C 0.13415 0.98298 0.80642 0.0
C3902 C 0.14997 0.02394 0.76108 0.0
C3903 C 0.13688 0.01795 0.7161 0.0
N3904 N 0.13926 0.99544 0.79079 0.0
N3905 N 0.13046 0.00618 0.73292 0.0
H3906 H 0.96205 0.10517 0.72898 0.0
H3907 H 0.04931 0.17858 0.76696 0.0
H3908 H 0.98361 0.15364 0.69934 0.0
H3909 H 0.02046 0.13743 0.81226 0.0
H3910 H 0.02701 0.16756 0.73835 0.0
H3911 H 0.98483 0.11508 0.7567 0.0
C3912 C 0.97148 0.11789 0.72831 0.0
C3913 C 0.97085 0.12855 0.71166 0.0
C3914 C 0.02558 0.16091 0.75452 0.0
C3915 C 0.99713 0.13981 0.74301 0.0
C3916 C 0.03834 0.16712 0.77074 0.0
C3917 C 0.03669 0.1589 0.792 0.0
C3918 C 0.01113 0.14629 0.75946 0.0
C3919 C 0.02214 0.1442 0.79615 0.0
C3920 C 0.98453 0.12349 0.74406 0.0
C3921 C 0.98366 0.14484 0.71145 0.0
N3922 N 0.0099 0.13833 0.78 0.0
N3923 N 0.99626 0.14993 0.72681 0.0
H3924 H 0.78765 0.46884 0.64655 0.0
H3925 H 0.80843 0.45996 0.51286 0.0
H3926 H 0.78129 0.49442 0.58834 0.0
H3927 H 0.81876 0.43747 0.57142 0.0
H3928 H 0.79519 0.46979 0.53976 0.0
H3929 H 0.79582 0.45447 0.61886 0.0
C3930 C 0.78774 0.47126 0.62791 0.0
C3931 C 0.78388 0.48293 0.61976 0.0
C3932 C 0.80023 0.4626 0.54673 0.0
C3933 C 0.79342 0.46668 0.58799 0.0
C3934 C 0.80769 0.45685 0.53133 0.0
C3935 C 0.81478 0.4479 0.53988 0.0
C3936 C 0.79986 0.45942 0.57093 0.0
C3937 C 0.81366 0.44452 0.5641 0.0
C3938 C 0.79252 0.46314 0.61212 0.0
C3939 C 0.78441 0.48572 0.59543 0.0
N3940 N 0.80643 0.45035 0.57878 0.0
N3941 N 0.78918 0.47772 0.58043 0.0
H3942 H 0.48521 0.27667 0.58226 0.0
H3943 H 0.55433 0.36902 0.55684 0.0
H3944 H 0.52373 0.30605 0.63123 0.0
H3945 H 0.515 0.33975 0.50894 0.0
H3946 H 0.54478 0.34539 0.58288 0.0
H3947 H 0.49737 0.29894 0.55377 0.0
C3948 C 0.49627 0.28778 0.58698 0.0
C3949 C 0.50339 0.28953 0.60923 0.0
C3950 C 0.53829 0.34412 0.56662 0.0
C3951 C 0.51741 0.31511 0.57668 0.0
C3952 C 0.54378 0.35759 0.5517 0.0
C3953 C 0.53537 0.3564 0.53078 0.0
C3954 C 0.52429 0.32935 0.56056 0.0
C3955 C 0.52167 0.34131 0.52511 0.0
C3956 C 0.50324 0.30049 0.57068 0.0
C3957 C 0.51789 0.30411 0.61423 0.0
N3958 N 0.51654 0.32842 0.53995 0.0
N3959 N 0.52434 0.31639 0.59816 0.0
H3960 H 0.63074 0.15228 0.54956 0.0
H3961 H 0.70151 0.23329 0.60992 0.0
H3962 H 0.63982 0.20047 0.53196 0.0
H3963 H 0.69815 0.18619 0.61454 0.0
H3964 H 0.67777 0.22147 0.58363 0.0
H3965 H 0.6541 0.16444 0.57622 0.0
C3966 C 0.63756 0.16543 0.55151 0.0
C3967 C 0.63331 0.17539 0.53859 0.0
C3968 C 0.6823 0.21376 0.59033 0.0
C3969 C 0.6602 0.18942 0.56888 0.0
C3970 C 0.69579 0.22049 0.60536 0.0
C3971 C 0.70187 0.21073 0.6143 0.0
C3972 C 0.67471 0.19713 0.58446 0.0
C3973 C 0.69404 0.19422 0.60776 0.0
C3974 C 0.65098 0.17238 0.56657 0.0
C3975 C 0.64276 0.19237 0.54148 0.0
N3976 N 0.68084 0.18794 0.59334 0.0
N3977 N 0.65575 0.19886 0.55637 0.0
H3978 H 0.50947 0.15745 0.03706 0.0
H3979 H 0.52882 0.21432 0.14938 0.0
H3980 H 0.55854 0.18696 0.06361 0.0
H3981 H 0.48662 0.19957 0.10527 0.0
H3982 H 0.5393 0.20234 0.12083 0.0
H3983 H 0.50016 0.17062 0.0648 0.0
C3984 C 0.51836 0.16679 0.04855 0.0
C3985 C 0.5349 0.17119 0.0477 0.0
C3986 C 0.52781 0.20184 0.11736 0.0
C3987 C 0.52412 0.18608 0.08005 0.0
C3988 C 0.52181 0.20861 0.13364 0.0
C3989 C 0.50686 0.20794 0.12961 0.0
C3990 C 0.51863 0.19411 0.09718 0.0
C3991 C 0.49828 0.20049 0.10892 0.0
C3992 C 0.51298 0.17426 0.06449 0.0
C3993 C 0.54566 0.18304 0.0637 0.0
N3994 N 0.50422 0.19374 0.09357 0.0
N3995 N 0.54008 0.19005 0.07925 0.0
H3996 H 0.79878 0.36419 0.04411 0.0
H3997 H 0.79148 0.28064 0.08733 0.0
H3998 H 0.8331 0.34882 0.02396 0.0
H3999 H 0.77575 0.30778 0.13024 0.0
H4000 H 0.80173 0.30257 0.05793 0.0
H4001 H 0.78558 0.34071 0.07055 0.0
C4002 C 0.80361 0.35598 0.04519 0.0
C4003 C 0.8172 0.35866 0.03172 0.0
C4004 C 0.79591 0.30363 0.07371 0.0
C4005 C 0.80173 0.33147 0.06144 0.0
C4006 C 0.78997 0.29111 0.09034 0.0
C4007 C 0.78285 0.2925 0.11119 0.0
C4008 C 0.79445 0.31748 0.07782 0.0
C4009 C 0.78129 0.30636 0.11442 0.0
C4010 C 0.79596 0.34251 0.06018 0.0
C4011 C 0.82253 0.34723 0.03355 0.0
N4012 N 0.78705 0.31834 0.09789 0.0
N4013 N 0.81477 0.33415 0.04808 0.0
H4014 H 0.62058 0.44259 0.06856 0.0
H4015 H 0.71369 0.49185 0.09888 0.0
H4016 H 0.65391 0.48137 0.02231 0.0
H4017 H 0.67845 0.48781 0.15094 0.0
H4018 H 0.69206 0.4812 0.06936 0.0
H4019 H 0.64206 0.45243 0.09834 0.0
C4020 C 0.63227 0.45315 0.06451 0.0
C4021 C 0.63523 0.4611 0.0426 0.0
C4022 C 0.68919 0.4826 0.08736 0.0
C4023 C 0.66002 0.4718 0.07641 0.0
C4024 C 0.70154 0.48882 0.10427 0.0
C4025 C 0.69812 0.49097 0.1277 0.0
C4026 C 0.67321 0.47798 0.09397 0.0
C4027 C 0.68183 0.48617 0.13341 0.0
C4028 C 0.64454 0.45862 0.08153 0.0
C4029 C 0.65096 0.47447 0.03849 0.0
N4030 N 0.66998 0.47981 0.11671 0.0
N4031 N 0.66278 0.47929 0.05514 0.0
H4032 H 0.48517 0.83791 0.9681 0.0
H4033 H 0.46851 0.78539 0.85117 0.0
H4034 H 0.43809 0.81347 0.93418 0.0
H4035 H 0.50876 0.79702 0.898 0.0
H4036 H 0.45777 0.79709 0.87969 0.0
H4037 H 0.49485 0.82474 0.94061 0.0
C4038 C 0.47691 0.82983 0.95475 0.0
C4039 C 0.46084 0.82682 0.9533 0.0
C4040 C 0.46889 0.79696 0.88378 0.0
C4041 C 0.4718 0.81166 0.92189 0.0
C4042 C 0.47504 0.79035 0.86751 0.0
C4043 C 0.48953 0.79025 0.87228 0.0
C4044 C 0.47744 0.80373 0.90478 0.0
C4045 C 0.49747 0.79672 0.89375 0.0
C4046 C 0.48239 0.82222 0.9392 0.0
C4047 C 0.45055 0.81605 0.93592 0.0
N4048 N 0.49139 0.80333 0.90912 0.0
N4049 N 0.45624 0.80893 0.92076 0.0
H4050 H 0.20483 0.68326 0.84905 0.0
H4051 H 0.17449 0.65563 0.98101 0.0
H4052 H 0.20771 0.71636 0.90351 0.0
H4053 H 0.17802 0.62392 0.92964 0.0
H4054 H 0.18687 0.67802 0.9529 0.0
H4055 H 0.19506 0.66134 0.87819 0.0
C4056 C 0.20342 0.68591 0.86716 0.0
C4057 C 0.20701 0.70165 0.87384 0.0
C4058 C 0.18503 0.66619 0.9478 0.0
C4059 C 0.19587 0.67663 0.9073 0.0
C4060 C 0.17803 0.65339 0.96392 0.0
C4061 C 0.1752 0.6378 0.95776 0.0
C4062 C 0.18915 0.66345 0.9252 0.0
C4063 C 0.17975 0.63563 0.9351 0.0
C4064 C 0.19793 0.67342 0.8838 0.0
C4065 C 0.20521 0.70446 0.89761 0.0
N4066 N 0.18644 0.64829 0.91963 0.0
N4067 N 0.19965 0.69205 0.91343 0.0
H4068 H 0.37228 0.56767 0.93737 0.0
H4069 H 0.2893 0.4896 0.89665 0.0
H4070 H 0.35883 0.51863 0.95776 0.0
H4071 H 0.3139 0.53274 0.85347 0.0
H4072 H 0.31222 0.50173 0.92436 0.0
H4073 H 0.34845 0.55654 0.91106 0.0
C4074 C 0.36428 0.55458 0.93629 0.0
C4075 C 0.36753 0.54401 0.9495 0.0
C4076 C 0.31254 0.50856 0.90887 0.0
C4077 C 0.34029 0.5313 0.92002 0.0
C4078 C 0.29945 0.50172 0.8932 0.0
C4079 C 0.29978 0.5102 0.87279 0.0
C4080 C 0.32592 0.5241 0.90428 0.0
C4081 C 0.31328 0.52579 0.86896 0.0
C4082 C 0.35077 0.54826 0.9213 0.0
C4083 C 0.35683 0.52715 0.94758 0.0
N4084 N 0.32582 0.53228 0.88462 0.0
N4085 N 0.34362 0.52131 0.93321 0.0
H4086 H 0.16743 0.51355 0.47576 0.0
H4087 H 0.21784 0.532 0.35685 0.0
H4088 H 0.19311 0.56175 0.44504 0.0
H4089 H 0.20643 0.49055 0.40101 0.0
H4090 H 0.2075 0.54265 0.38758 0.0
H4091 H 0.18034 0.5044 0.44726 0.0
C4092 C 0.17591 0.5223 0.46324 0.0
C4093 C 0.17917 0.53851 0.46297 0.0
C4094 C 0.2074 0.5313 0.39061 0.0
C4095 C 0.19372 0.52789 0.42977 0.0
C4096 C 0.21322 0.5252 0.37307 0.0
C4097 C 0.21296 0.51038 0.37643 0.0
C4098 C 0.20103 0.52238 0.41147 0.0
C4099 C 0.20697 0.50209 0.39781 0.0
C4100 C 0.18322 0.51701 0.44686 0.0
C4101 C 0.18999 0.54909 0.44578 0.0
N4102 N 0.20109 0.50813 0.41444 0.0
N4103 N 0.19679 0.54357 0.4298 0.0
H4104 H 0.43932 0.62673 0.44614 0.0
H4105 H 0.51119 0.71362 0.40391 0.0
H4106 H 0.48769 0.65036 0.47642 0.0
H4107 H 0.47093 0.68208 0.35886 0.0
H4108 H 0.50051 0.6924 0.43421 0.0
H4109 H 0.44879 0.64862 0.41701 0.0
C4110 C 0.45192 0.63643 0.44668 0.0
C4111 C 0.4627 0.6366 0.46387 0.0
C4112 C 0.49398 0.69015 0.41773 0.0
C4113 C 0.47345 0.66189 0.43086 0.0
C4114 C 0.5 0.70229 0.40053 0.0
C4115 C 0.49193 0.69956 0.37887 0.0
C4116 C 0.4797 0.67525 0.41335 0.0
C4117 C 0.47758 0.68459 0.37527 0.0
C4118 C 0.45727 0.64898 0.43011 0.0
C4119 C 0.47881 0.64977 0.46388 0.0
N4120 N 0.47188 0.67298 0.39237 0.0
N4121 N 0.48367 0.66187 0.44769 0.0
H4122 H 0.35013 0.80448 0.48157 0.0
H4123 H 0.31906 0.81646 0.35698 0.0
H4124 H 0.38102 0.84172 0.43195 0.0
H4125 H 0.29358 0.77144 0.39623 0.0
H4126 H 0.34117 0.82657 0.38548 0.0
H4127 H 0.32848 0.79284 0.45184 0.0
C4128 C 0.35235 0.81017 0.46439 0.0
C4129 C 0.36737 0.82409 0.45919 0.0
C4130 C 0.33078 0.81444 0.38779 0.0
C4131 C 0.3427 0.81093 0.42524 0.0
C4132 C 0.31815 0.80858 0.37141 0.0
C4133 C 0.30439 0.79297 0.37401 0.0
C4134 C 0.32965 0.80475 0.40718 0.0
C4135 C 0.30381 0.7836 0.39359 0.0
C4136 C 0.34004 0.80349 0.44743 0.0
C4137 C 0.36968 0.8309 0.43662 0.0
N4138 N 0.31623 0.78966 0.40947 0.0
N4139 N 0.35743 0.82433 0.42054 0.0
H4140 H 0.29847 0.14404 0.11694 0.0
H4141 H 0.36386 0.1726 0.22111 0.0
H4142 H 0.28524 0.13783 0.19043 0.0
H4143 H 0.37628 0.18974 0.14951 0.0
H4144 H 0.33514 0.15723 0.20979 0.0
H4145 H 0.32728 0.15792 0.12817 0.0
C4146 C 0.30164 0.14547 0.13544 0.0
C4147 C 0.28947 0.13981 0.1528 0.0
C4148 C 0.34418 0.16435 0.19658 0.0
C4149 C 0.32236 0.15575 0.16576 0.0
C4150 C 0.36058 0.17322 0.20304 0.0
C4151 C 0.37257 0.18258 0.18628 0.0
C4152 C 0.33969 0.16472 0.17314 0.0
C4153 C 0.36755 0.18256 0.163 0.0
C4154 C 0.31807 0.15349 0.14184 0.0
C4155 C 0.29426 0.14216 0.17651 0.0
N4156 N 0.35151 0.17377 0.15713 0.0
N4157 N 0.31034 0.14994 0.1823 0.0
H4158 H 0.7959 0.17296 0.15033 0.0
H4159 H 0.87112 0.16053 0.18425 0.0
H4160 H 0.82636 0.19494 0.21125 0.0
H4161 H 0.83812 0.13583 0.12662 0.0
H4162 H 0.85512 0.17348 0.19435 0.0
H4163 H 0.81167 0.1597 0.14097 0.0
C4164 C 0.80595 0.17505 0.16169 0.0
C4165 C 0.80983 0.18508 0.18159 0.0
C4166 C 0.85139 0.16523 0.17949 0.0
C4167 C 0.82788 0.16984 0.17109 0.0
C4168 C 0.86048 0.15777 0.17378 0.0
C4169 C 0.85602 0.14713 0.15447 0.0
C4170 C 0.83774 0.16203 0.1658 0.0
C4171 C 0.84221 0.14417 0.14138 0.0
C4172 C 0.8149 0.1674 0.15642 0.0
C4173 C 0.82283 0.18715 0.19589 0.0
N4174 N 0.83359 0.15158 0.14727 0.0
N4175 N 0.83143 0.17963 0.19032 0.0
H4176 H 0.80757 0.6208 0.15082 0.0
H4177 H 0.85735 0.71312 0.19467 0.0
H4178 H 0.81131 0.63433 0.22413 0.0
H4179 H 0.84032 0.69963 0.12332 0.0
H4180 H 0.84268 0.68421 0.20565 0.0
H4181 H 0.82152 0.64962 0.1402 0.0
C4182 C 0.81118 0.62979 0.16471 0.0
C4183 C 0.80817 0.62505 0.18845 0.0
C4184 C 0.84211 0.68759 0.18762 0.0
C4185 C 0.8245 0.65815 0.17634 0.0
C4186 C 0.85053 0.70405 0.18133 0.0
C4187 C 0.85 0.70873 0.15807 0.0
C4188 C 0.83329 0.67574 0.17044 0.0
C4189 C 0.84089 0.69653 0.1415 0.0
C4190 C 0.81924 0.64626 0.1586 0.0
C4191 C 0.81355 0.63735 0.20563 0.0
N4192 N 0.83297 0.68058 0.14797 0.0
N4193 N 0.82149 0.65333 0.19924 0.0
H4194 H 0.20084 0.38016 0.34262 0.0
H4195 H 0.12698 0.29053 0.31448 0.0
H4196 H 0.16928 0.36892 0.2823 0.0
H4197 H 0.16264 0.30109 0.36909 0.0
H4198 H 0.14161 0.31931 0.30321 0.0
H4199 H 0.18608 0.35137 0.3537 0.0
C4200 C 0.19074 0.37163 0.33177 0.0
C4201 C 0.18628 0.37694 0.31151 0.0
C4202 C 0.14622 0.31532 0.31766 0.0
C4203 C 0.16938 0.34393 0.32399 0.0
C4204 C 0.13792 0.29887 0.32403 0.0
C4205 C 0.14355 0.29335 0.3428 0.0
C4206 C 0.16025 0.32636 0.33017 0.0
C4207 C 0.15767 0.3048 0.35477 0.0
C4208 C 0.18238 0.35518 0.33803 0.0
C4209 C 0.17324 0.36532 0.29792 0.0
N4210 N 0.16551 0.32074 0.34826 0.0
N4211 N 0.16522 0.34937 0.30444 0.0
H4212 H 0.61995 0.81216 0.35514 0.0
H4213 H 0.71113 0.86913 0.31582 0.0
H4214 H 0.6331 0.81798 0.28142 0.0
H4215 H 0.69893 0.83743 0.37641 0.0
H4216 H 0.68236 0.85477 0.3046 0.0
H4217 H 0.64885 0.82603 0.36527 0.0
C4218 C 0.6288 0.81621 0.34102 0.0
C4219 C 0.62389 0.81367 0.3173 0.0
C4220 C 0.68609 0.85103 0.32032 0.0
C4221 C 0.65706 0.83013 0.32901 0.0
C4222 C 0.70254 0.85912 0.32671 0.0
C4223 C 0.70765 0.85459 0.34722 0.0
C4224 C 0.6746 0.83859 0.33477 0.0
C4225 C 0.69569 0.84172 0.3608 0.0
C4226 C 0.64531 0.82423 0.3469 0.0
C4227 C 0.63615 0.81981 0.29993 0.0
N4228 N 0.67973 0.83429 0.35446 0.0
N4229 N 0.65217 0.82783 0.30614 0.0
H4230 H 0.16921 0.79738 0.29775 0.0
H4231 H 0.17302 0.87718 0.35235 0.0
H4232 H 0.21275 0.83693 0.32855 0.0
H4233 H 0.12874 0.83515 0.32787 0.0
H4234 H 0.18812 0.86326 0.34239 0.0
H4235 H 0.15455 0.81177 0.307 0.0
C4236 C 0.17572 0.80915 0.30634 0.0
C4237 C 0.19224 0.81599 0.31233 0.0
C4238 C 0.1751 0.85711 0.33917 0.0
C4239 C 0.17548 0.8325 0.32319 0.0
C4240 C 0.16646 0.86502 0.34493 0.0
C4241 C 0.14957 0.85734 0.34092 0.0
C4242 C 0.16681 0.84141 0.3293 0.0
C4243 C 0.14178 0.84167 0.33094 0.0
C4244 C 0.16731 0.81733 0.31175 0.0
C4245 C 0.19997 0.83115 0.32382 0.0
N4246 N 0.15045 0.83423 0.32551 0.0
N4247 N 0.19153 0.83892 0.32884 0.0
H4248 H 0.70787 0.83273 0.82887 0.0
H4249 H 0.62395 0.834 0.82832 0.0
H4250 H 0.70433 0.87484 0.84888 0.0
H4251 H 0.62939 0.79498 0.79878 0.0
H4252 H 0.6531 0.84872 0.8377 0.0
H4253 H 0.67883 0.8183 0.81922 0.0
C4254 C 0.70095 0.83893 0.83127 0.0
C4255 C 0.7085 0.85499 0.83974 0.0
C4256 C 0.64792 0.83695 0.82913 0.0
C4257 C 0.67527 0.83857 0.82867 0.0
C4258 C 0.63127 0.8285 0.82392 0.0
C4259 C 0.62425 0.81325 0.81274 0.0
C4260 C 0.65758 0.83005 0.82327 0.0
C4261 C 0.63433 0.80679 0.80716 0.0
C4262 C 0.6844 0.83071 0.82565 0.0
C4263 C 0.69902 0.86251 0.8422 0.0
N4264 N 0.65047 0.8152 0.81254 0.0
N4265 N 0.68287 0.85421 0.83679 0.0
H4266 H 0.17343 0.81139 0.78492 0.0
H4267 H 0.16071 0.86407 0.88408 0.0
H4268 H 0.20076 0.82633 0.84983 0.0
H4269 H 0.13457 0.85047 0.81815 0.0
H4270 H 0.17561 0.85043 0.87177 0.0
H4271 H 0.15936 0.82597 0.79655 0.0
C4272 C 0.17657 0.81785 0.80155 0.0
C4273 C 0.18832 0.81764 0.81641 0.0
C4274 C 0.16664 0.85045 0.85997 0.0
C4275 C 0.17207 0.83421 0.82999 0.0
C4276 C 0.15806 0.85816 0.86704 0.0
C4277 C 0.14633 0.85836 0.85215 0.0
C4278 C 0.16345 0.84283 0.83786 0.0
C4279 C 0.14361 0.85075 0.83009 0.0
C4280 C 0.16845 0.8261 0.80824 0.0
C4281 C 0.19165 0.82599 0.83795 0.0
N4282 N 0.15207 0.84325 0.82366 0.0
N4283 N 0.18356 0.83392 0.84409 0.0
H4284 H 0.16936 0.37663 0.8374 0.0
H4285 H 0.17268 0.29506 0.85574 0.0
H4286 H 0.20723 0.36997 0.80652 0.0
H4287 H 0.12711 0.29488 0.85141 0.0
H4288 H 0.18721 0.32405 0.84473 0.0
H4289 H 0.15519 0.34792 0.84986 0.0
C4290 C 0.1747 0.36911 0.83341 0.0
C4291 C 0.1894 0.37554 0.8209 0.0
C4292 C 0.17403 0.31764 0.84623 0.0
C4293 C 0.17348 0.34299 0.83522 0.0
C4294 C 0.16579 0.30119 0.85259 0.0
C4295 C 0.14873 0.29268 0.85437 0.0
C4296 C 0.16515 0.32563 0.84215 0.0
C4297 C 0.14028 0.30107 0.85003 0.0
C4298 C 0.16661 0.35278 0.84038 0.0
C4299 C 0.19584 0.36536 0.816 0.0
N4300 N 0.14859 0.31715 0.84426 0.0
N4301 N 0.18789 0.34957 0.82332 0.0
H4302 H 0.83151 0.7039 0.62683 0.0
H4303 H 0.83876 0.63229 0.68933 0.0
H4304 H 0.87703 0.70953 0.65216 0.0
H4305 H 0.79696 0.62386 0.64792 0.0
H4306 H 0.85247 0.66095 0.6779 0.0
H4307 H 0.81801 0.67487 0.63679 0.0
C4308 C 0.83864 0.69901 0.63453 0.0
C4309 C 0.8554 0.70911 0.63871 0.0
C4310 C 0.84032 0.65281 0.67125 0.0
C4311 C 0.84007 0.67597 0.65012 0.0
C4312 C 0.8325 0.6364 0.67766 0.0
C4313 C 0.81666 0.62556 0.66954 0.0
C4314 C 0.83223 0.65853 0.65679 0.0
C4315 C 0.80906 0.63176 0.6549 0.0
C4316 C 0.83096 0.68244 0.64008 0.0
C4317 C 0.86411 0.70213 0.64847 0.0
N4318 N 0.8169 0.64784 0.64906 0.0
N4319 N 0.85633 0.686 0.65397 0.0
H4320 H 0.28331 0.12667 0.68228 0.0
H4321 H 0.37239 0.20075 0.65203 0.0
H4322 H 0.29247 0.16381 0.63071 0.0
H4323 H 0.3625 0.16705 0.70924 0.0
H4324 H 0.34329 0.18657 0.64267 0.0
H4325 H 0.31238 0.1408 0.69164 0.0
C4326 C 0.2914 0.13787 0.67306 0.0
C4327 C 0.28541 0.14407 0.65569 0.0
C4328 C 0.34748 0.18227 0.65727 0.0
C4329 C 0.31878 0.16016 0.66606 0.0
C4330 C 0.3641 0.19029 0.66251 0.0
C4331 C 0.36987 0.18507 0.68145 0.0
C4332 C 0.33653 0.16889 0.671 0.0
C4333 C 0.35855 0.1716 0.69466 0.0
C4334 C 0.30802 0.14588 0.67831 0.0
C4335 C 0.29656 0.15847 0.64401 0.0
N4336 N 0.34243 0.16396 0.68917 0.0
N4337 N 0.31269 0.16601 0.64938 0.0
H4338 H 0.87176 0.16345 0.66132 0.0
H4339 H 0.78833 0.15826 0.69639 0.0
H4340 H 0.82587 0.11876 0.65325 0.0
H4341 H 0.82849 0.2019 0.66642 0.0
H4342 H 0.80262 0.14348 0.68688 0.0
H4343 H 0.85687 0.17784 0.67024 0.0
C4344 C 0.85854 0.15669 0.6616 0.0
C4345 C 0.84996 0.13995 0.6566 0.0
C4346 C 0.80822 0.15629 0.68241 0.0
C4347 C 0.83296 0.1562 0.66689 0.0
C4348 C 0.80005 0.16476 0.68768 0.0
C4349 C 0.80716 0.18145 0.68228 0.0
C4350 C 0.82374 0.16461 0.6721 0.0
C4351 C 0.8226 0.18918 0.67147 0.0
C4352 C 0.85008 0.16489 0.66653 0.0
C4353 C 0.83286 0.1317 0.65695 0.0
N4354 N 0.83041 0.18074 0.66692 0.0
N4355 N 0.82487 0.1399 0.66221 0.0
H4356 H 0.04661 0.52327 0.47792 0.0
H4357 H 0.95707 0.49572 0.52303 0.0
H4358 H 0.03579 0.52376 0.55174 0.0
H4359 H 0.966 0.47409 0.46218 0.0
H4360 H 0.98648 0.51031 0.53154 0.0
H4361 H 0.01741 0.50915 0.46952 0.0
C4362 C 0.03818 0.52038 0.49242 0.0
C4363 C 0.04381 0.52471 0.51565 0.0
C4364 C 0.98196 0.50234 0.51637 0.0
C4365 C 0.01036 0.50896 0.50589 0.0
C4366 C 0.96526 0.4941 0.51149 0.0
C4367 C 0.95921 0.48367 0.492 0.0
C4368 C 0.99262 0.50038 0.50133 0.0
C4369 C 0.97024 0.48192 0.47753 0.0
C4370 C 0.02151 0.5124 0.48753 0.0
C4371 C 0.03216 0.52097 0.53351 0.0
N4372 N 0.98646 0.49029 0.48239 0.0
N4373 N 0.01601 0.51337 0.52825 0.0
H4374 H 0.45864 0.49453 0.52946 0.0
H4375 H 0.54121 0.50131 0.48155 0.0
H4376 H 0.49893 0.53928 0.5028 0.0
H4377 H 0.49657 0.45546 0.49143 0.0
H4378 H 0.5267 0.51569 0.49213 0.0
H4379 H 0.47324 0.48021 0.51876 0.0
C4380 C 0.47058 0.50134 0.52139 0.0
C4381 C 0.47759 0.51809 0.51695 0.0
C4382 C 0.5201 0.50248 0.49197 0.0
C4383 C 0.49435 0.50183 0.5047 0.0
C4384 C 0.52836 0.49424 0.48584 0.0
C4385 C 0.52014 0.47711 0.4856 0.0
C4386 C 0.50352 0.49354 0.49807 0.0
C4387 C 0.50352 0.46865 0.49175 0.0
C4388 C 0.47887 0.49316 0.51519 0.0
C4389 C 0.49302 0.52631 0.50627 0.0
N4390 N 0.49579 0.47694 0.49776 0.0
N4391 N 0.50092 0.51811 0.50059 0.0
H4392 H 0.54121 0.04355 0.50699 0.0
H4393 H 0.45921 0.95683 0.49865 0.0
H4394 H 0.49765 0.03589 0.47131 0.0
H4395 H 0.5018 0.96499 0.53761 0.0
H4396 H 0.47321 0.98572 0.48811 0.0
H4397 H 0.52695 0.01486 0.51858 0.0
C4398 C 0.5286 0.03588 0.50175 0.0
C4399 C 0.52063 0.04216 0.48811 0.0
C4400 C 0.4795 0.9812 0.49899 0.0
C4401 C 0.50429 0.00921 0.50106 0.0
C4402 C 0.47155 0.96468 0.50488 0.0
C4403 C 0.47936 0.95847 0.51899 0.0
C4404 C 0.49541 0.99161 0.5072 0.0
C4405 C 0.49525 0.96928 0.5269 0.0
C4406 C 0.5205 0.01946 0.50825 0.0
C4407 C 0.50436 0.03154 0.48152 0.0
N4408 N 0.50276 0.98531 0.52085 0.0
N4409 N 0.49675 0.0156 0.48803 0.0
H4410 H 0.50634 0.03292 0.9555 0.0
H4411 H 0.49347 0.96422 0.04901 0.0
H4412 H 0.53426 0.04299 0.01958 0.0
H4413 H 0.46383 0.9547 0.98682 0.0
H4414 H 0.50874 0.99305 0.03836 0.0
H4415 H 0.49112 0.0041 0.96621 0.0
C4416 C 0.50937 0.02905 0.97174 0.0
C4417 C 0.52164 0.04038 0.98663 0.0
C4418 C 0.49888 0.98467 0.02705 0.0
C4419 C 0.50409 0.0074 0.99916 0.0
C4420 C 0.49007 0.96821 0.03321 0.0
C4421 C 0.4773 0.957 0.01882 0.0
C4422 C 0.49493 0.99001 0.00633 0.0
C4423 C 0.47369 0.96285 0.9983 0.0
C4424 C 0.50058 0.0126 0.97793 0.0
C4425 C 0.5248 0.0347 0.00768 0.0
N4426 N 0.48246 0.97894 0.99267 0.0
N4427 N 0.5161 0.0186 0.0133 0.0
H4428 H 0.96437 0.48084 0.94806 0.0
H4429 H 0.02998 0.51813 0.05186 0.0
H4430 H 0.95186 0.4829 0.02057 0.0
H4431 H 0.04307 0.52444 0.97825 0.0
H4432 H 0.00123 0.50378 0.04078 0.0
H4433 H 0.99322 0.49559 0.9588 0.0
C4434 C 0.96767 0.4845 0.9662 0.0
C4435 C 0.95562 0.48059 0.98343 0.0
C4436 C 0.01039 0.50832 0.02704 0.0
C4437 C 0.98866 0.49726 0.9959 0.0
C4438 C 0.02683 0.51659 0.03335 0.0
C4439 C 0.039 0.52259 0.01597 0.0
C4440 C 0.00603 0.50593 0.00316 0.0
C4441 C 0.03413 0.51988 0.99227 0.0
C4442 C 0.98415 0.49284 0.97234 0.0
C4443 C 0.96067 0.4854 0.00674 0.0
N4444 N 0.01803 0.51175 0.98657 0.0
N4445 N 0.97679 0.49344 0.01228 0.0
H4446 H 0.52053 0.48731 0.9419 0.0
H4447 H 0.47983 0.51286 0.04405 0.0
H4448 H 0.51516 0.46983 0.0134 0.0
H4449 H 0.4746 0.52028 0.97037 0.0
H4450 H 0.4943 0.49846 0.03335 0.0
H4451 H 0.50496 0.50064 0.9521 0.0
C4452 C 0.51598 0.48614 0.95969 0.0
C4453 C 0.51921 0.47741 0.97681 0.0
C4454 C 0.48995 0.50319 0.0195 0.0
C4455 C 0.5016 0.49293 0.98867 0.0
C4456 C 0.48178 0.51149 0.0256 0.0
C4457 C 0.47607 0.51782 0.00806 0.0
C4458 C 0.49258 0.50132 0.99567 0.0
C4459 C 0.47871 0.51549 0.98443 0.0
C4460 C 0.50716 0.49384 0.96552 0.0
C4461 C 0.51324 0.47664 -0.00031 0.0
N4462 N 0.48687 0.5075 0.97892 0.0
N4463 N 0.50479 0.48434 0.00496 0.0
loop_
_geom_bond_atom_site_label_1
_geom_bond_atom_site_label_2
_geom_bond_distance
_geom_bond_site_symmetry_2
_ccdc_geom_bond_type
Li0 N17 1.990 . S
Li0 O60 1.956 . S
Li0 O61 1.970 . S
Li0 O62 1.961 . S
Li1 N25 1.990 . S
Li1 O60 1.970 . S
Li1 O61 1.956 . S
Li1 O63 1.961 . S
Li2 N47 1.990 . S
Li2 O60 1.961 . S
Li2 O62 1.956 . S
Li2 O63 1.970 . S
Li3 N53 1.990 . S
Li3 O61 1.961 . S
Li3 O62 1.970 . S
Li3 O63 1.956 . S
C4 C6 1.348 . S
C4 C7 1.356 . S
C4 O60 1.325 . S
N5 C8 1.314 . S
N5 C9 1.279 . S
C6 C4 1.348 . S
C6 C8 1.353 . S
C6 H64 0.929 . S
C7 C4 1.356 . S
C7 C9 1.358 . S
C7 H65 0.930 . S
C8 N5 1.314 . S
C8 C6 1.353 . S
C8 H66 0.930 . S
C9 N5 1.279 . S
C9 C7 1.358 . S
C9 H67 0.930 . S
C10 C13 1.348 . S
C10 C14 1.356 . S
C10 O61 1.325 . S
C11 N12 1.279 . S
C11 C14 1.358 . S
C11 H68 0.930 . S
N12 C11 1.279 . S
N12 C15 1.314 . S
C13 C10 1.348 . S
C13 C15 1.353 . S
C13 H69 0.929 . S
C14 C10 1.356 . S
C14 C11 1.358 . S
C14 H70 0.930 . S
C15 N12 1.314 . S
C15 C13 1.353 . S
C15 H71 0.930 . S
C16 N17 1.314 . S
C16 C21 1.353 . S
C16 H22 0.930 . S
N17 Li0 1.990 . S
N17 C16 1.314 . S
N17 C19 1.279 . S
C18 C19 1.358 . S
C18 C20 1.356 . S
C18 H72 0.930 . S
C19 N17 1.279 . S
C19 C18 1.358 . S
C19 H23 0.930 . S
C20 C18 1.356 . S
C20 C21 1.348 . S
C21 C16 1.353 . S
C21 C20 1.348 . S
C21 H73 0.929 . S
H22 C16 0.930 . S
H23 C19 0.930 . S
C24 N25 1.314 . S
C24 C26 1.353 . S
C24 H30 0.930 . S
N25 Li1 1.990 . S
N25 C24 1.314 . S
N25 C28 1.279 . S
C26 C24 1.353 . S
C26 C29 1.348 . S
C26 H74 0.929 . S
C27 C28 1.358 . S
C27 C29 1.356 . S
C27 H75 0.930 . S
C28 N25 1.279 . S
C28 C27 1.358 . S
C28 H31 0.930 . S
C29 C26 1.348 . S
C29 C27 1.356 . S
H30 C24 0.930 . S
H31 C28 0.930 . S
C32 C34 1.348 . S
C32 C35 1.356 . S
C32 O62 1.325 . S
N33 C36 1.314 . S
N33 C37 1.279 . S
C34 C32 1.348 . S
C34 C36 1.353 . S
C34 H76 0.929 . S
C35 C32 1.356 . S
C35 C37 1.358 . S
C35 H77 0.930 . S
C36 N33 1.314 . S
C36 C34 1.353 . S
C36 H78 0.930 . S
C37 N33 1.279 . S
C37 C35 1.358 . S
C37 H79 0.930 . S
C38 C39 1.348 . S
C38 C40 1.356 . S
C38 O63 1.325 . S
C39 C38 1.348 . S
C39 C41 1.353 . S
C39 H80 0.929 . S
C40 C38 1.356 . S
C40 C42 1.358 . S
C40 H81 0.930 . S
C41 C39 1.353 . S
C41 N43 1.314 . S
C41 H82 0.930 . S
C42 C40 1.358 . S
C42 N43 1.279 . S
C42 H83 0.930 . S
N43 C41 1.314 . S
N43 C42 1.279 . S
C44 C46 1.353 . S
C44 N47 1.314 . S
C44 H50 0.930 . S
C45 N47 1.279 . S
C45 C48 1.358 . S
C45 H51 0.930 . S
C46 C44 1.353 . S
C46 C49 1.348 . S
C46 H84 0.929 . S
N47 Li2 1.990 . S
N47 C44 1.314 . S
N47 C45 1.279 . S
C48 C45 1.358 . S
C48 C49 1.356 . S
C48 H85 0.930 . S
C49 C46 1.348 . S
C49 C48 1.356 . S
H50 C44 0.930 . S
H51 C45 0.930 . S
C52 N53 1.314 . S
C52 C54 1.353 . S
C52 H58 0.930 . S
N53 Li3 1.990 . S
N53 C52 1.314 . S
N53 C56 1.279 . S
C54 C52 1.353 . S
C54 C57 1.348 . S
C54 H86 0.929 . S
C55 C56 1.358 . S
C55 C57 1.356 . S
C55 H87 0.930 . S
C56 N53 1.279 . S
C56 C55 1.358 . S
C56 H59 0.930 . S
C57 C54 1.348 . S
C57 C55 1.356 . S
H58 C52 0.930 . S
H59 C56 0.930 . S
O60 Li0 1.956 . S
O60 Li1 1.970 . S
O60 Li2 1.961 . S
O60 C4 1.325 . S
O61 Li0 1.970 . S
O61 Li1 1.956 . S
O61 Li3 1.961 . S
O61 C10 1.325 . S
O62 Li0 1.961 . S
O62 Li2 1.956 . S
O62 Li3 1.970 . S
O62 C32 1.325 . S
O63 Li1 1.961 . S
O63 Li2 1.970 . S
O63 Li3 1.956 . S
O63 C38 1.325 . S
H64 C6 0.929 . S
H65 C7 0.930 . S
H66 C8 0.930 . S
H67 C9 0.930 . S
H68 C11 0.930 . S
H69 C13 0.929 . S
H70 C14 0.930 . S
H71 C15 0.930 . S
H72 C18 0.930 . S
H73 C21 0.929 . S
H74 C26 0.929 . S
H75 C27 0.930 . S
H76 C34 0.929 . S
H77 C35 0.930 . S
H78 C36 0.930 . S
H79 C37 0.930 . S
H80 C39 0.929 . S
H81 C40 0.930 . S
H82 C41 0.930 . S
H83 C42 0.930 . S
H84 C46 0.929 . S
H85 C48 0.930 . S
H86 C54 0.929 . S
H87 C55 0.930 . S
Li88 N105 1.990 . S
Li88 O148 1.956 . S
Li88 O149 1.970 . S
Li88 O150 1.961 . S
Li89 N113 1.990 . S
Li89 O148 1.970 . S
Li89 O149 1.956 . S
Li89 O151 1.961 . S
Li90 N135 1.990 . S
Li90 O148 1.961 . S
Li90 O150 1.956 . S
Li90 O151 1.970 . S
Li91 N141 1.990 . S
Li91 O149 1.961 . S
Li91 O150 1.970 . S
Li91 O151 1.956 . S
C92 C94 1.348 . S
C92 C95 1.356 . S
C92 O148 1.325 . S
N93 C96 1.314 . S
N93 C97 1.279 . S
C94 C92 1.348 . S
C94 C96 1.353 . S
C94 H152 0.929 . S
C95 C92 1.356 . S
C95 C97 1.358 . S
C95 H153 0.930 . S
C96 N93 1.314 . S
C96 C94 1.353 . S
C96 H154 0.930 . S
C97 N93 1.279 . S
C97 C95 1.358 . S
C97 H155 0.930 . S
C98 C101 1.348 . S
C98 C102 1.356 . S
C98 O149 1.325 . S
C99 N100 1.279 . S
C99 C102 1.358 . S
C99 H156 0.930 . S
N100 C99 1.279 . S
N100 C103 1.314 . S
C101 C98 1.348 . S
C101 C103 1.353 . S
C101 H157 0.929 . S
C102 C98 1.356 . S
C102 C99 1.358 . S
C102 H158 0.930 . S
C103 N100 1.314 . S
C103 C101 1.353 . S
C103 H159 0.930 . S
C104 N105 1.314 . S
C104 C109 1.353 . S
C104 H110 0.930 . S
N105 Li88 1.990 . S
N105 C104 1.314 . S
N105 C107 1.279 . S
C106 C107 1.358 . S
C106 C108 1.356 . S
C106 H160 0.930 . S
C107 N105 1.279 . S
C107 C106 1.358 . S
C107 H111 0.930 . S
C108 C106 1.356 . S
C108 C109 1.348 . S
C109 C104 1.353 . S
C109 C108 1.348 . S
C109 H161 0.929 . S
H110 C104 0.930 . S
H111 C107 0.930 . S
C112 N113 1.314 . S
C112 C114 1.353 . S
C112 H118 0.930 . S
N113 Li89 1.990 . S
N113 C112 1.314 . S
N113 C116 1.279 . S
C114 C112 1.353 . S
C114 C117 1.348 . S
C114 H162 0.929 . S
C115 C116 1.358 . S
C115 C117 1.356 . S
C115 H163 0.930 . S
C116 N113 1.279 . S
C116 C115 1.358 . S
C116 H119 0.930 . S
C117 C114 1.348 . S
C117 C115 1.356 . S
H118 C112 0.930 . S
H119 C116 0.930 . S
C120 C122 1.348 . S
C120 C123 1.356 . S
C120 O150 1.325 . S
N121 C124 1.314 . S
N121 C125 1.279 . S
C122 C120 1.348 . S
C122 C124 1.353 . S
C122 H164 0.929 . S
C123 C120 1.356 . S
C123 C125 1.358 . S
C123 H165 0.930 . S
C124 N121 1.314 . S
C124 C122 1.353 . S
C124 H166 0.930 . S
C125 N121 1.279 . S
C125 C123 1.358 . S
C125 H167 0.930 . S
C126 C127 1.348 . S
C126 C128 1.356 . S
C126 O151 1.325 . S
C127 C126 1.348 . S
C127 C129 1.353 . S
C127 H168 0.929 . S
C128 C126 1.356 . S
C128 C130 1.358 . S
C128 H169 0.930 . S
C129 C127 1.353 . S
C129 N131 1.314 . S
C129 H170 0.930 . S
C130 C128 1.358 . S
C130 N131 1.279 . S
C130 H171 0.930 . S
N131 C129 1.314 . S
N131 C130 1.279 . S
C132 C134 1.353 . S
C132 N135 1.314 . S
C132 H138 0.930 . S
C133 N135 1.279 . S
C133 C136 1.358 . S
C133 H139 0.930 . S
C134 C132 1.353 . S
C134 C137 1.348 . S
C134 H172 0.929 . S
N135 Li90 1.990 . S
N135 C132 1.314 . S
N135 C133 1.279 . S
C136 C133 1.358 . S
C136 C137 1.356 . S
C136 H173 0.930 . S
C137 C134 1.348 . S
C137 C136 1.356 . S
H138 C132 0.930 . S
H139 C133 0.930 . S
C140 N141 1.314 . S
C140 C142 1.353 . S
C140 H146 0.930 . S
N141 Li91 1.990 . S
N141 C140 1.314 . S
N141 C144 1.279 . S
C142 C140 1.353 . S
C142 C145 1.348 . S
C142 H174 0.929 . S
C143 C144 1.358 . S
C143 C145 1.356 . S
C143 H175 0.930 . S
C144 N141 1.279 . S
C144 C143 1.358 . S
C144 H147 0.930 . S
C145 C142 1.348 . S
C145 C143 1.356 . S
H146 C140 0.930 . S
H147 C144 0.930 . S
O148 Li88 1.956 . S
O148 Li89 1.970 . S
O148 Li90 1.961 . S
O148 C92 1.325 . S
O149 Li88 1.970 . S
O149 Li89 1.956 . S
O149 Li91 1.961 . S
O149 C98 1.325 . S
O150 Li88 1.961 . S
O150 Li90 1.956 . S
O150 Li91 1.970 . S
O150 C120 1.325 . S
O151 Li89 1.961 . S
O151 Li90 1.970 . S
O151 Li91 1.956 . S
O151 C126 1.325 . S
H152 C94 0.929 . S
H153 C95 0.930 . S
H154 C96 0.930 . S
H155 C97 0.930 . S
H156 C99 0.930 . S
H157 C101 0.929 . S
H158 C102 0.930 . S
H159 C103 0.930 . S
H160 C106 0.930 . S
H161 C109 0.929 . S
H162 C114 0.929 . S
H163 C115 0.930 . S
H164 C122 0.929 . S
H165 C123 0.930 . S
H166 C124 0.930 . S
H167 C125 0.930 . S
H168 C127 0.929 . S
H169 C128 0.930 . S
H170 C129 0.930 . S
H171 C130 0.930 . S
H172 C134 0.929 . S
H173 C136 0.930 . S
H174 C142 0.929 . S
H175 C143 0.930 . S
Li176 N193 1.990 . S
Li176 O236 1.956 . S
Li176 O237 1.970 . S
Li176 O238 1.961 . S
Li177 N201 1.990 . S
Li177 O236 1.970 . S
Li177 O237 1.956 . S
Li177 O239 1.961 . S
Li178 N223 1.990 . S
Li178 O236 1.961 . S
Li178 O238 1.956 . S
Li178 O239 1.970 . S
Li179 N229 1.990 . S
Li179 O237 1.961 . S
Li179 O238 1.970 . S
Li179 O239 1.956 . S
C180 C182 1.348 . S
C180 C183 1.356 . S
C180 O236 1.325 . S
N181 C184 1.314 . S
N181 C185 1.279 . S
C182 C180 1.348 . S
C182 C184 1.353 . S
C182 H240 0.929 . S
C183 C180 1.356 . S
C183 C185 1.358 . S
C183 H241 0.930 . S
C184 N181 1.314 . S
C184 C182 1.353 . S
C184 H242 0.930 . S
C185 N181 1.279 . S
C185 C183 1.358 . S
C185 H243 0.930 . S
C186 C189 1.348 . S
C186 C190 1.356 . S
C186 O237 1.325 . S
C187 N188 1.279 . S
C187 C190 1.358 . S
C187 H244 0.930 . S
N188 C187 1.279 . S
N188 C191 1.314 . S
C189 C186 1.348 . S
C189 C191 1.353 . S
C189 H245 0.929 . S
C190 C186 1.356 . S
C190 C187 1.358 . S
C190 H246 0.930 . S
C191 N188 1.314 . S
C191 C189 1.353 . S
C191 H247 0.930 . S
C192 N193 1.314 . S
C192 C197 1.353 . S
C192 H198 0.930 . S
N193 Li176 1.990 . S
N193 C192 1.314 . S
N193 C195 1.279 . S
C194 C195 1.358 . S
C194 C196 1.356 . S
C194 H248 0.930 . S
C195 N193 1.279 . S
C195 C194 1.358 . S
C195 H199 0.930 . S
C196 C194 1.356 . S
C196 C197 1.348 . S
C197 C192 1.353 . S
C197 C196 1.348 . S
C197 H249 0.929 . S
H198 C192 0.930 . S
H199 C195 0.930 . S
C200 N201 1.314 . S
C200 C202 1.353 . S
C200 H206 0.930 . S
N201 Li177 1.990 . S
N201 C200 1.314 . S
N201 C204 1.279 . S
C202 C200 1.353 . S
C202 C205 1.348 . S
C202 H250 0.929 . S
C203 C204 1.358 . S
C203 C205 1.356 . S
C203 H251 0.930 . S
C204 N201 1.279 . S
C204 C203 1.358 . S
C204 H207 0.930 . S
C205 C202 1.348 . S
C205 C203 1.356 . S
H206 C200 0.930 . S
H207 C204 0.930 . S
C208 C210 1.348 . S
C208 C211 1.356 . S
C208 O238 1.325 . S
N209 C212 1.314 . S
N209 C213 1.279 . S
C210 C208 1.348 . S
C210 C212 1.353 . S
C210 H252 0.929 . S
C211 C208 1.356 . S
C211 C213 1.358 . S
C211 H253 0.930 . S
C212 N209 1.314 . S
C212 C210 1.353 . S
C212 H254 0.930 . S
C213 N209 1.279 . S
C213 C211 1.358 . S
C213 H255 0.930 . S
C214 C215 1.348 . S
C214 C216 1.356 . S
C214 O239 1.325 . S
C215 C214 1.348 . S
C215 C217 1.353 . S
C215 H256 0.929 . S
C216 C214 1.356 . S
C216 C218 1.358 . S
C216 H257 0.930 . S
C217 C215 1.353 . S
C217 N219 1.314 . S
C217 H258 0.930 . S
C218 C216 1.358 . S
C218 N219 1.279 . S
C218 H259 0.930 . S
N219 C217 1.314 . S
N219 C218 1.279 . S
C220 C222 1.353 . S
C220 N223 1.314 . S
C220 H226 0.930 . S
C221 N223 1.279 . S
C221 C224 1.358 . S
C221 H227 0.930 . S
C222 C220 1.353 . S
C222 C225 1.348 . S
C222 H260 0.929 . S
N223 Li178 1.990 . S
N223 C220 1.314 . S
N223 C221 1.279 . S
C224 C221 1.358 . S
C224 C225 1.356 . S
C224 H261 0.930 . S
C225 C222 1.348 . S
C225 C224 1.356 . S
H226 C220 0.930 . S
H227 C221 0.930 . S
C228 N229 1.314 . S
C228 C230 1.353 . S
C228 H234 0.930 . S
N229 Li179 1.990 . S
N229 C228 1.314 . S
N229 C232 1.279 . S
C230 C228 1.353 . S
C230 C233 1.348 . S
C230 H262 0.929 . S
C231 C232 1.358 . S
C231 C233 1.356 . S
C231 H263 0.930 . S
C232 N229 1.279 . S
C232 C231 1.358 . S
C232 H235 0.930 . S
C233 C230 1.348 . S
C233 C231 1.356 . S
H234 C228 0.930 . S
H235 C232 0.930 . S
O236 Li176 1.956 . S
O236 Li177 1.970 . S
O236 Li178 1.961 . S
O236 C180 1.325 . S
O237 Li176 1.970 . S
O237 Li177 1.956 . S
O237 Li179 1.961 . S
O237 C186 1.325 . S
O238 Li176 1.961 . S
O238 Li178 1.956 . S
O238 Li179 1.970 . S
O238 C208 1.325 . S
O239 Li177 1.961 . S
O239 Li178 1.970 . S
O239 Li179 1.956 . S
O239 C214 1.325 . S
H240 C182 0.929 . S
H241 C183 0.930 . S
H242 C184 0.930 . S
H243 C185 0.930 . S
H244 C187 0.930 . S
H245 C189 0.929 . S
H246 C190 0.930 . S
H247 C191 0.930 . S
H248 C194 0.930 . S
H249 C197 0.929 . S
H250 C202 0.929 . S
H251 C203 0.930 . S
H252 C210 0.929 . S
H253 C211 0.930 . S
H254 C212 0.930 . S
H255 C213 0.930 . S
H256 C215 0.929 . S
H257 C216 0.930 . S
H258 C217 0.930 . S
H259 C218 0.930 . S
H260 C222 0.929 . S
H261 C224 0.930 . S
H262 C230 0.929 . S
H263 C231 0.930 . S
Li264 N281 1.990 . S
Li264 O324 1.956 . S
Li264 O325 1.970 . S
Li264 O326 1.961 . S
Li265 N289 1.990 . S
Li265 O324 1.970 . S
Li265 O325 1.956 . S
Li265 O327 1.961 . S
Li266 N311 1.990 . S
Li266 O324 1.961 . S
Li266 O326 1.956 . S
Li266 O327 1.970 . S
Li267 N317 1.990 . S
Li267 O325 1.961 . S
Li267 O326 1.970 . S
Li267 O327 1.956 . S
C268 C270 1.348 . S
C268 C271 1.356 . S
C268 O324 1.325 . S
N269 C272 1.314 . S
N269 C273 1.279 . S
C270 C268 1.348 . S
C270 C272 1.353 . S
C270 H328 0.929 . S
C271 C268 1.356 . S
C271 C273 1.358 . S
C271 H329 0.930 . S
C272 N269 1.314 . S
C272 C270 1.353 . S
C272 H330 0.930 . S
C273 N269 1.279 . S
C273 C271 1.358 . S
C273 H331 0.930 . S
C274 C277 1.348 . S
C274 C278 1.356 . S
C274 O325 1.325 . S
C275 N276 1.279 . S
C275 C278 1.358 . S
C275 H332 0.930 . S
N276 C275 1.279 . S
N276 C279 1.314 . S
C277 C274 1.348 . S
C277 C279 1.353 . S
C277 H333 0.929 . S
C278 C274 1.356 . S
C278 C275 1.358 . S
C278 H334 0.930 . S
C279 N276 1.314 . S
C279 C277 1.353 . S
C279 H335 0.930 . S
C280 N281 1.314 . S
C280 C285 1.353 . S
C280 H286 0.930 . S
N281 Li264 1.990 . S
N281 C280 1.314 . S
N281 C283 1.279 . S
C282 C283 1.358 . S
C282 C284 1.356 . S
C282 H336 0.930 . S
C283 N281 1.279 . S
C283 C282 1.358 . S
C283 H287 0.930 . S
C284 C282 1.356 . S
C284 C285 1.348 . S
C285 C280 1.353 . S
C285 C284 1.348 . S
C285 H337 0.929 . S
H286 C280 0.930 . S
H287 C283 0.930 . S
C288 N289 1.314 . S
C288 C290 1.353 . S
C288 H294 0.930 . S
N289 Li265 1.990 . S
N289 C288 1.314 . S
N289 C292 1.279 . S
C290 C288 1.353 . S
C290 C293 1.348 . S
C290 H338 0.929 . S
C291 C292 1.358 . S
C291 C293 1.356 . S
C291 H339 0.930 . S
C292 N289 1.279 . S
C292 C291 1.358 . S
C292 H295 0.930 . S
C293 C290 1.348 . S
C293 C291 1.356 . S
H294 C288 0.930 . S
H295 C292 0.930 . S
C296 C298 1.348 . S
C296 C299 1.356 . S
C296 O326 1.325 . S
N297 C300 1.314 . S
N297 C301 1.279 . S
C298 C296 1.348 . S
C298 C300 1.353 . S
C298 H340 0.929 . S
C299 C296 1.356 . S
C299 C301 1.358 . S
C299 H341 0.930 . S
C300 N297 1.314 . S
C300 C298 1.353 . S
C300 H342 0.930 . S
C301 N297 1.279 . S
C301 C299 1.358 . S
C301 H343 0.930 . S
C302 C303 1.348 . S
C302 C304 1.356 . S
C302 O327 1.325 . S
C303 C302 1.348 . S
C303 C305 1.353 . S
C303 H344 0.929 . S
C304 C302 1.356 . S
C304 C306 1.358 . S
C304 H345 0.930 . S
C305 C303 1.353 . S
C305 N307 1.314 . S
C305 H346 0.930 . S
C306 C304 1.358 . S
C306 N307 1.279 . S
C306 H347 0.930 . S
N307 C305 1.314 . S
N307 C306 1.279 . S
C308 C310 1.353 . S
C308 N311 1.314 . S
C308 H314 0.930 . S
C309 N311 1.279 . S
C309 C312 1.358 . S
C309 H315 0.930 . S
C310 C308 1.353 . S
C310 C313 1.348 . S
C310 H348 0.929 . S
N311 Li266 1.990 . S
N311 C308 1.314 . S
N311 C309 1.279 . S
C312 C309 1.358 . S
C312 C313 1.356 . S
C312 H349 0.930 . S
C313 C310 1.348 . S
C313 C312 1.356 . S
H314 C308 0.930 . S
H315 C309 0.930 . S
C316 N317 1.314 . S
C316 C318 1.353 . S
C316 H322 0.930 . S
N317 Li267 1.990 . S
N317 C316 1.314 . S
N317 C320 1.279 . S
C318 C316 1.353 . S
C318 C321 1.348 . S
C318 H350 0.929 . S
C319 C320 1.358 . S
C319 C321 1.356 . S
C319 H351 0.930 . S
C320 N317 1.279 . S
C320 C319 1.358 . S
C320 H323 0.930 . S
C321 C318 1.348 . S
C321 C319 1.356 . S
H322 C316 0.930 . S
H323 C320 0.930 . S
O324 Li264 1.956 . S
O324 Li265 1.970 . S
O324 Li266 1.961 . S
O324 C268 1.325 . S
O325 Li264 1.970 . S
O325 Li265 1.956 . S
O325 Li267 1.961 . S
O325 C274 1.325 . S
O326 Li264 1.961 . S
O326 Li266 1.956 . S
O326 Li267 1.970 . S
O326 C296 1.325 . S
O327 Li265 1.961 . S
O327 Li266 1.970 . S
O327 Li267 1.956 . S
O327 C302 1.325 . S
H328 C270 0.929 . S
H329 C271 0.930 . S
H330 C272 0.930 . S
H331 C273 0.930 . S
H332 C275 0.930 . S
H333 C277 0.929 . S
H334 C278 0.930 . S
H335 C279 0.930 . S
H336 C282 0.930 . S
H337 C285 0.929 . S
H338 C290 0.929 . S
H339 C291 0.930 . S
H340 C298 0.929 . S
H341 C299 0.930 . S
H342 C300 0.930 . S
H343 C301 0.930 . S
H344 C303 0.929 . S
H345 C304 0.930 . S
H346 C305 0.930 . S
H347 C306 0.930 . S
H348 C310 0.929 . S
H349 C312 0.930 . S
H350 C318 0.929 . S
H351 C319 0.930 . S
Li352 N369 1.990 . S
Li352 O412 1.956 . S
Li352 O413 1.970 . S
Li352 O414 1.961 . S
Li353 N377 1.990 . S
Li353 O412 1.970 . S
Li353 O413 1.956 . S
Li353 O415 1.961 . S
Li354 N399 1.990 . S
Li354 O412 1.961 . S
Li354 O414 1.956 . S
Li354 O415 1.970 . S
Li355 N405 1.990 . S
Li355 O413 1.961 . S
Li355 O414 1.970 . S
Li355 O415 1.956 . S
C356 C358 1.348 . S
C356 C359 1.356 . S
C356 O412 1.325 . S
N357 C360 1.314 . S
N357 C361 1.279 . S
C358 C356 1.348 . S
C358 C360 1.353 . S
C358 H416 0.929 . S
C359 C356 1.356 . S
C359 C361 1.358 . S
C359 H417 0.930 . S
C360 N357 1.314 . S
C360 C358 1.353 . S
C360 H418 0.930 . S
C361 N357 1.279 . S
C361 C359 1.358 . S
C361 H419 0.930 . S
C362 C365 1.348 . S
C362 C366 1.356 . S
C362 O413 1.325 . S
C363 N364 1.279 . S
C363 C366 1.358 . S
C363 H420 0.930 . S
N364 C363 1.279 . S
N364 C367 1.314 . S
C365 C362 1.348 . S
C365 C367 1.353 . S
C365 H421 0.929 . S
C366 C362 1.356 . S
C366 C363 1.358 . S
C366 H422 0.930 . S
C367 N364 1.314 . S
C367 C365 1.353 . S
C367 H423 0.930 . S
C368 N369 1.314 . S
C368 C373 1.353 . S
C368 H374 0.930 . S
N369 Li352 1.990 . S
N369 C368 1.314 . S
N369 C371 1.279 . S
C370 C371 1.358 . S
C370 C372 1.356 . S
C370 H424 0.930 . S
C371 N369 1.279 . S
C371 C370 1.358 . S
C371 H375 0.930 . S
C372 C370 1.356 . S
C372 C373 1.348 . S
C373 C368 1.353 . S
C373 C372 1.348 . S
C373 H425 0.929 . S
H374 C368 0.930 . S
H375 C371 0.930 . S
C376 N377 1.314 . S
C376 C378 1.353 . S
C376 H382 0.930 . S
N377 Li353 1.990 . S
N377 C376 1.314 . S
N377 C380 1.279 . S
C378 C376 1.353 . S
C378 C381 1.348 . S
C378 H426 0.929 . S
C379 C380 1.358 . S
C379 C381 1.356 . S
C379 H427 0.930 . S
C380 N377 1.279 . S
C380 C379 1.358 . S
C380 H383 0.930 . S
C381 C378 1.348 . S
C381 C379 1.356 . S
H382 C376 0.930 . S
H383 C380 0.930 . S
C384 C386 1.348 . S
C384 C387 1.356 . S
C384 O414 1.325 . S
N385 C388 1.314 . S
N385 C389 1.279 . S
C386 C384 1.348 . S
C386 C388 1.353 . S
C386 H428 0.929 . S
C387 C384 1.356 . S
C387 C389 1.358 . S
C387 H429 0.930 . S
C388 N385 1.314 . S
C388 C386 1.353 . S
C388 H430 0.930 . S
C389 N385 1.279 . S
C389 C387 1.358 . S
C389 H431 0.930 . S
C390 C391 1.348 . S
C390 C392 1.356 . S
C390 O415 1.325 . S
C391 C390 1.348 . S
C391 C393 1.353 . S
C391 H432 0.929 . S
C392 C390 1.356 . S
C392 C394 1.358 . S
C392 H433 0.930 . S
C393 C391 1.353 . S
C393 N395 1.314 . S
C393 H434 0.930 . S
C394 C392 1.358 . S
C394 N395 1.279 . S
C394 H435 0.930 . S
N395 C393 1.314 . S
N395 C394 1.279 . S
C396 C398 1.353 . S
C396 N399 1.314 . S
C396 H402 0.930 . S
C397 N399 1.279 . S
C397 C400 1.358 . S
C397 H403 0.930 . S
C398 C396 1.353 . S
C398 C401 1.348 . S
C398 H436 0.929 . S
N399 Li354 1.990 . S
N399 C396 1.314 . S
N399 C397 1.279 . S
C400 C397 1.358 . S
C400 C401 1.356 . S
C400 H437 0.930 . S
C401 C398 1.348 . S
C401 C400 1.356 . S
H402 C396 0.930 . S
H403 C397 0.930 . S
C404 N405 1.314 . S
C404 C406 1.353 . S
C404 H410 0.930 . S
N405 Li355 1.990 . S
N405 C404 1.314 . S
N405 C408 1.279 . S
C406 C404 1.353 . S
C406 C409 1.348 . S
C406 H438 0.929 . S
C407 C408 1.358 . S
C407 C409 1.356 . S
C407 H439 0.930 . S
C408 N405 1.279 . S
C408 C407 1.358 . S
C408 H411 0.930 . S
C409 C406 1.348 . S
C409 C407 1.356 . S
H410 C404 0.930 . S
H411 C408 0.930 . S
O412 Li352 1.956 . S
O412 Li353 1.970 . S
O412 Li354 1.961 . S
O412 C356 1.325 . S
O413 Li352 1.970 . S
O413 Li353 1.956 . S
O413 Li355 1.961 . S
O413 C362 1.325 . S
O414 Li352 1.961 . S
O414 Li354 1.956 . S
O414 Li355 1.970 . S
O414 C384 1.325 . S
O415 Li353 1.961 . S
O415 Li354 1.970 . S
O415 Li355 1.956 . S
O415 C390 1.325 . S
H416 C358 0.929 . S
H417 C359 0.930 . S
H418 C360 0.930 . S
H419 C361 0.930 . S
H420 C363 0.930 . S
H421 C365 0.929 . S
H422 C366 0.930 . S
H423 C367 0.930 . S
H424 C370 0.930 . S
H425 C373 0.929 . S
H426 C378 0.929 . S
H427 C379 0.930 . S
H428 C386 0.929 . S
H429 C387 0.930 . S
H430 C388 0.930 . S
H431 C389 0.930 . S
H432 C391 0.929 . S
H433 C392 0.930 . S
H434 C393 0.930 . S
H435 C394 0.930 . S
H436 C398 0.929 . S
H437 C400 0.930 . S
H438 C406 0.929 . S
H439 C407 0.930 . S
Li440 N457 1.990 . S
Li440 O500 1.956 . S
Li440 O501 1.970 . S
Li440 O502 1.961 . S
Li441 N465 1.990 . S
Li441 O500 1.970 . S
Li441 O501 1.956 . S
Li441 O503 1.961 . S
Li442 N487 1.990 . S
Li442 O500 1.961 . S
Li442 O502 1.956 . S
Li442 O503 1.970 . S
Li443 N493 1.990 . S
Li443 O501 1.961 . S
Li443 O502 1.970 . S
Li443 O503 1.956 . S
C444 C446 1.348 . S
C444 C447 1.356 . S
C444 O500 1.325 . S
N445 C448 1.314 . S
N445 C449 1.279 . S
C446 C444 1.348 . S
C446 C448 1.353 . S
C446 H504 0.929 . S
C447 C444 1.356 . S
C447 C449 1.358 . S
C447 H505 0.930 . S
C448 N445 1.314 . S
C448 C446 1.353 . S
C448 H506 0.930 . S
C449 N445 1.279 . S
C449 C447 1.358 . S
C449 H507 0.930 . S
C450 C453 1.348 . S
C450 C454 1.356 . S
C450 O501 1.325 . S
C451 N452 1.279 . S
C451 C454 1.358 . S
C451 H508 0.930 . S
N452 C451 1.279 . S
N452 C455 1.314 . S
C453 C450 1.348 . S
C453 C455 1.353 . S
C453 H509 0.929 . S
C454 C450 1.356 . S
C454 C451 1.358 . S
C454 H510 0.930 . S
C455 N452 1.314 . S
C455 C453 1.353 . S
C455 H511 0.930 . S
C456 N457 1.314 . S
C456 C461 1.353 . S
C456 H462 0.930 . S
N457 Li440 1.990 . S
N457 C456 1.314 . S
N457 C459 1.279 . S
C458 C459 1.358 . S
C458 C460 1.356 . S
C458 H512 0.930 . S
C459 N457 1.279 . S
C459 C458 1.358 . S
C459 H463 0.930 . S
C460 C458 1.356 . S
C460 C461 1.348 . S
C461 C456 1.353 . S
C461 C460 1.348 . S
C461 H513 0.929 . S
H462 C456 0.930 . S
H463 C459 0.930 . S
C464 N465 1.314 . S
C464 C466 1.353 . S
C464 H470 0.930 . S
N465 Li441 1.990 . S
N465 C464 1.314 . S
N465 C468 1.279 . S
C466 C464 1.353 . S
C466 C469 1.348 . S
C466 H514 0.929 . S
C467 C468 1.358 . S
C467 C469 1.356 . S
C467 H515 0.930 . S
C468 N465 1.279 . S
C468 C467 1.358 . S
C468 H471 0.930 . S
C469 C466 1.348 . S
C469 C467 1.356 . S
H470 C464 0.930 . S
H471 C468 0.930 . S
C472 C474 1.348 . S
C472 C475 1.356 . S
C472 O502 1.325 . S
N473 C476 1.314 . S
N473 C477 1.279 . S
C474 C472 1.348 . S
C474 C476 1.353 . S
C474 H516 0.929 . S
C475 C472 1.356 . S
C475 C477 1.358 . S
C475 H517 0.930 . S
C476 N473 1.314 . S
C476 C474 1.353 . S
C476 H518 0.930 . S
C477 N473 1.279 . S
C477 C475 1.358 . S
C477 H519 0.930 . S
C478 C479 1.348 . S
C478 C480 1.356 . S
C478 O503 1.325 . S
C479 C478 1.348 . S
C479 C481 1.353 . S
C479 H520 0.929 . S
C480 C478 1.356 . S
C480 C482 1.358 . S
C480 H521 0.930 . S
C481 C479 1.353 . S
C481 N483 1.314 . S
C481 H522 0.930 . S
C482 C480 1.358 . S
C482 N483 1.279 . S
C482 H523 0.930 . S
N483 C481 1.314 . S
N483 C482 1.279 . S
C484 C486 1.353 . S
C484 N487 1.314 . S
C484 H490 0.930 . S
C485 N487 1.279 . S
C485 C488 1.358 . S
C485 H491 0.930 . S
C486 C484 1.353 . S
C486 C489 1.348 . S
C486 H524 0.929 . S
N487 Li442 1.990 . S
N487 C484 1.314 . S
N487 C485 1.279 . S
C488 C485 1.358 . S
C488 C489 1.356 . S
C488 H525 0.930 . S
C489 C486 1.348 . S
C489 C488 1.356 . S
H490 C484 0.930 . S
H491 C485 0.930 . S
C492 N493 1.314 . S
C492 C494 1.353 . S
C492 H498 0.930 . S
N493 Li443 1.990 . S
N493 C492 1.314 . S
N493 C496 1.279 . S
C494 C492 1.353 . S
C494 C497 1.348 . S
C494 H526 0.929 . S
C495 C496 1.358 . S
C495 C497 1.356 . S
C495 H527 0.930 . S
C496 N493 1.279 . S
C496 C495 1.358 . S
C496 H499 0.930 . S
C497 C494 1.348 . S
C497 C495 1.356 . S
H498 C492 0.930 . S
H499 C496 0.930 . S
O500 Li440 1.956 . S
O500 Li441 1.970 . S
O500 Li442 1.961 . S
O500 C444 1.325 . S
O501 Li440 1.970 . S
O501 Li441 1.956 . S
O501 Li443 1.961 . S
O501 C450 1.325 . S
O502 Li440 1.961 . S
O502 Li442 1.956 . S
O502 Li443 1.970 . S
O502 C472 1.325 . S
O503 Li441 1.961 . S
O503 Li442 1.970 . S
O503 Li443 1.956 . S
O503 C478 1.325 . S
H504 C446 0.929 . S
H505 C447 0.930 . S
H506 C448 0.930 . S
H507 C449 0.930 . S
H508 C451 0.930 . S
H509 C453 0.929 . S
H510 C454 0.930 . S
H511 C455 0.930 . S
H512 C458 0.930 . S
H513 C461 0.929 . S
H514 C466 0.929 . S
H515 C467 0.930 . S
H516 C474 0.929 . S
H517 C475 0.930 . S
H518 C476 0.930 . S
H519 C477 0.930 . S
H520 C479 0.929 . S
H521 C480 0.930 . S
H522 C481 0.930 . S
H523 C482 0.930 . S
H524 C486 0.929 . S
H525 C488 0.930 . S
H526 C494 0.929 . S
H527 C495 0.930 . S
Li528 N545 1.990 . S
Li528 O588 1.956 . S
Li528 O589 1.970 . S
Li528 O590 1.961 . S
Li529 N553 1.990 . S
Li529 O588 1.970 . S
Li529 O589 1.956 . S
Li529 O591 1.961 . S
Li530 N575 1.990 . S
Li530 O588 1.961 . S
Li530 O590 1.956 . S
Li530 O591 1.970 . S
Li531 N581 1.990 . S
Li531 O589 1.961 . S
Li531 O590 1.970 . S
Li531 O591 1.956 . S
C532 C534 1.348 . S
C532 C535 1.356 . S
C532 O588 1.325 . S
N533 C536 1.314 . S
N533 C537 1.279 . S
C534 C532 1.348 . S
C534 C536 1.353 . S
C534 H592 0.929 . S
C535 C532 1.356 . S
C535 C537 1.358 . S
C535 H593 0.930 . S
C536 N533 1.314 . S
C536 C534 1.353 . S
C536 H594 0.930 . S
C537 N533 1.279 . S
C537 C535 1.358 . S
C537 H595 0.930 . S
C538 C541 1.348 . S
C538 C542 1.356 . S
C538 O589 1.325 . S
C539 N540 1.279 . S
C539 C542 1.358 . S
C539 H596 0.930 . S
N540 C539 1.279 . S
N540 C543 1.314 . S
C541 C538 1.348 . S
C541 C543 1.353 . S
C541 H597 0.929 . S
C542 C538 1.356 . S
C542 C539 1.358 . S
C542 H598 0.930 . S
C543 N540 1.314 . S
C543 C541 1.353 . S
C543 H599 0.930 . S
C544 N545 1.314 . S
C544 C549 1.353 . S
C544 H550 0.930 . S
N545 Li528 1.990 . S
N545 C544 1.314 . S
N545 C547 1.279 . S
C546 C547 1.358 . S
C546 C548 1.356 . S
C546 H600 0.930 . S
C547 N545 1.279 . S
C547 C546 1.358 . S
C547 H551 0.930 . S
C548 C546 1.356 . S
C548 C549 1.348 . S
C549 C544 1.353 . S
C549 C548 1.348 . S
C549 H601 0.929 . S
H550 C544 0.930 . S
H551 C547 0.930 . S
C552 N553 1.314 . S
C552 C554 1.353 . S
C552 H558 0.930 . S
N553 Li529 1.990 . S
N553 C552 1.314 . S
N553 C556 1.279 . S
C554 C552 1.353 . S
C554 C557 1.348 . S
C554 H602 0.929 . S
C555 C556 1.358 . S
C555 C557 1.356 . S
C555 H603 0.930 . S
C556 N553 1.279 . S
C556 C555 1.358 . S
C556 H559 0.930 . S
C557 C554 1.348 . S
C557 C555 1.356 . S
H558 C552 0.930 . S
H559 C556 0.930 . S
C560 C562 1.348 . S
C560 C563 1.356 . S
C560 O590 1.325 . S
N561 C564 1.314 . S
N561 C565 1.279 . S
C562 C560 1.348 . S
C562 C564 1.353 . S
C562 H604 0.929 . S
C563 C560 1.356 . S
C563 C565 1.358 . S
C563 H605 0.930 . S
C564 N561 1.314 . S
C564 C562 1.353 . S
C564 H606 0.930 . S
C565 N561 1.279 . S
C565 C563 1.358 . S
C565 H607 0.930 . S
C566 C567 1.348 . S
C566 C568 1.356 . S
C566 O591 1.325 . S
C567 C566 1.348 . S
C567 C569 1.353 . S
C567 H608 0.929 . S
C568 C566 1.356 . S
C568 C570 1.358 . S
C568 H609 0.930 . S
C569 C567 1.353 . S
C569 N571 1.314 . S
C569 H610 0.930 . S
C570 C568 1.358 . S
C570 N571 1.279 . S
C570 H611 0.930 . S
N571 C569 1.314 . S
N571 C570 1.279 . S
C572 C574 1.353 . S
C572 N575 1.314 . S
C572 H578 0.930 . S
C573 N575 1.279 . S
C573 C576 1.358 . S
C573 H579 0.930 . S
C574 C572 1.353 . S
C574 C577 1.348 . S
C574 H612 0.929 . S
N575 Li530 1.990 . S
N575 C572 1.314 . S
N575 C573 1.279 . S
C576 C573 1.358 . S
C576 C577 1.356 . S
C576 H613 0.930 . S
C577 C574 1.348 . S
C577 C576 1.356 . S
H578 C572 0.930 . S
H579 C573 0.930 . S
C580 N581 1.314 . S
C580 C582 1.353 . S
C580 H586 0.930 . S
N581 Li531 1.990 . S
N581 C580 1.314 . S
N581 C584 1.279 . S
C582 C580 1.353 . S
C582 C585 1.348 . S
C582 H614 0.929 . S
C583 C584 1.358 . S
C583 C585 1.356 . S
C583 H615 0.930 . S
C584 N581 1.279 . S
C584 C583 1.358 . S
C584 H587 0.930 . S
C585 C582 1.348 . S
C585 C583 1.356 . S
H586 C580 0.930 . S
H587 C584 0.930 . S
O588 Li528 1.956 . S
O588 Li529 1.970 . S
O588 Li530 1.961 . S
O588 C532 1.325 . S
O589 Li528 1.970 . S
O589 Li529 1.956 . S
O589 Li531 1.961 . S
O589 C538 1.325 . S
O590 Li528 1.961 . S
O590 Li530 1.956 . S
O590 Li531 1.970 . S
O590 C560 1.325 . S
O591 Li529 1.961 . S
O591 Li530 1.970 . S
O591 Li531 1.956 . S
O591 C566 1.325 . S
H592 C534 0.929 . S
H593 C535 0.930 . S
H594 C536 0.930 . S
H595 C537 0.930 . S
H596 C539 0.930 . S
H597 C541 0.929 . S
H598 C542 0.930 . S
H599 C543 0.930 . S
H600 C546 0.930 . S
H601 C549 0.929 . S
H602 C554 0.929 . S
H603 C555 0.930 . S
H604 C562 0.929 . S
H605 C563 0.930 . S
H606 C564 0.930 . S
H607 C565 0.930 . S
H608 C567 0.929 . S
H609 C568 0.930 . S
H610 C569 0.930 . S
H611 C570 0.930 . S
H612 C574 0.929 . S
H613 C576 0.930 . S
H614 C582 0.929 . S
H615 C583 0.930 . S
Li616 N633 1.990 . S
Li616 O676 1.956 . S
Li616 O677 1.970 . S
Li616 O678 1.961 . S
Li617 N641 1.990 . S
Li617 O676 1.970 . S
Li617 O677 1.956 . S
Li617 O679 1.961 . S
Li618 N663 1.990 . S
Li618 O676 1.961 . S
Li618 O678 1.956 . S
Li618 O679 1.970 . S
Li619 N669 1.990 . S
Li619 O677 1.961 . S
Li619 O678 1.970 . S
Li619 O679 1.956 . S
C620 C622 1.348 . S
C620 C623 1.356 . S
C620 O676 1.325 . S
N621 C624 1.314 . S
N621 C625 1.279 . S
C622 C620 1.348 . S
C622 C624 1.353 . S
C622 H680 0.929 . S
C623 C620 1.356 . S
C623 C625 1.358 . S
C623 H681 0.930 . S
C624 N621 1.314 . S
C624 C622 1.353 . S
C624 H682 0.930 . S
C625 N621 1.279 . S
C625 C623 1.358 . S
C625 H683 0.930 . S
C626 C629 1.348 . S
C626 C630 1.356 . S
C626 O677 1.325 . S
C627 N628 1.279 . S
C627 C630 1.358 . S
C627 H684 0.930 . S
N628 C627 1.279 . S
N628 C631 1.314 . S
C629 C626 1.348 . S
C629 C631 1.353 . S
C629 H685 0.929 . S
C630 C626 1.356 . S
C630 C627 1.358 . S
C630 H686 0.930 . S
C631 N628 1.314 . S
C631 C629 1.353 . S
C631 H687 0.930 . S
C632 N633 1.314 . S
C632 C637 1.353 . S
C632 H638 0.930 . S
N633 Li616 1.990 . S
N633 C632 1.314 . S
N633 C635 1.279 . S
C634 C635 1.358 . S
C634 C636 1.356 . S
C634 H688 0.930 . S
C635 N633 1.279 . S
C635 C634 1.358 . S
C635 H639 0.930 . S
C636 C634 1.356 . S
C636 C637 1.348 . S
C637 C632 1.353 . S
C637 C636 1.348 . S
C637 H689 0.929 . S
H638 C632 0.930 . S
H639 C635 0.930 . S
C640 N641 1.314 . S
C640 C642 1.353 . S
C640 H646 0.930 . S
N641 Li617 1.990 . S
N641 C640 1.314 . S
N641 C644 1.279 . S
C642 C640 1.353 . S
C642 C645 1.348 . S
C642 H690 0.929 . S
C643 C644 1.358 . S
C643 C645 1.356 . S
C643 H691 0.930 . S
C644 N641 1.279 . S
C644 C643 1.358 . S
C644 H647 0.930 . S
C645 C642 1.348 . S
C645 C643 1.356 . S
H646 C640 0.930 . S
H647 C644 0.930 . S
C648 C650 1.348 . S
C648 C651 1.356 . S
C648 O678 1.325 . S
N649 C652 1.314 . S
N649 C653 1.279 . S
C650 C648 1.348 . S
C650 C652 1.353 . S
C650 H692 0.929 . S
C651 C648 1.356 . S
C651 C653 1.358 . S
C651 H693 0.930 . S
C652 N649 1.314 . S
C652 C650 1.353 . S
C652 H694 0.930 . S
C653 N649 1.279 . S
C653 C651 1.358 . S
C653 H695 0.930 . S
C654 C655 1.348 . S
C654 C656 1.356 . S
C654 O679 1.325 . S
C655 C654 1.348 . S
C655 C657 1.353 . S
C655 H696 0.929 . S
C656 C654 1.356 . S
C656 C658 1.358 . S
C656 H697 0.930 . S
C657 C655 1.353 . S
C657 N659 1.314 . S
C657 H698 0.930 . S
C658 C656 1.358 . S
C658 N659 1.279 . S
C658 H699 0.930 . S
N659 C657 1.314 . S
N659 C658 1.279 . S
C660 C662 1.353 . S
C660 N663 1.314 . S
C660 H666 0.930 . S
C661 N663 1.279 . S
C661 C664 1.358 . S
C661 H667 0.930 . S
C662 C660 1.353 . S
C662 C665 1.348 . S
C662 H700 0.929 . S
N663 Li618 1.990 . S
N663 C660 1.314 . S
N663 C661 1.279 . S
C664 C661 1.358 . S
C664 C665 1.356 . S
C664 H701 0.930 . S
C665 C662 1.348 . S
C665 C664 1.356 . S
H666 C660 0.930 . S
H667 C661 0.930 . S
C668 N669 1.314 . S
C668 C670 1.353 . S
C668 H674 0.930 . S
N669 Li619 1.990 . S
N669 C668 1.314 . S
N669 C672 1.279 . S
C670 C668 1.353 . S
C670 C673 1.348 . S
C670 H702 0.929 . S
C671 C672 1.358 . S
C671 C673 1.356 . S
C671 H703 0.930 . S
C672 N669 1.279 . S
C672 C671 1.358 . S
C672 H675 0.930 . S
C673 C670 1.348 . S
C673 C671 1.356 . S
H674 C668 0.930 . S
H675 C672 0.930 . S
O676 Li616 1.956 . S
O676 Li617 1.970 . S
O676 Li618 1.961 . S
O676 C620 1.325 . S
O677 Li616 1.970 . S
O677 Li617 1.956 . S
O677 Li619 1.961 . S
O677 C626 1.325 . S
O678 Li616 1.961 . S
O678 Li618 1.956 . S
O678 Li619 1.970 . S
O678 C648 1.325 . S
O679 Li617 1.961 . S
O679 Li618 1.970 . S
O679 Li619 1.956 . S
O679 C654 1.325 . S
H680 C622 0.929 . S
H681 C623 0.930 . S
H682 C624 0.930 . S
H683 C625 0.930 . S
H684 C627 0.930 . S
H685 C629 0.929 . S
H686 C630 0.930 . S
H687 C631 0.930 . S
H688 C634 0.930 . S
H689 C637 0.929 . S
H690 C642 0.929 . S
H691 C643 0.930 . S
H692 C650 0.929 . S
H693 C651 0.930 . S
H694 C652 0.930 . S
H695 C653 0.930 . S
H696 C655 0.929 . S
H697 C656 0.930 . S
H698 C657 0.930 . S
H699 C658 0.930 . S
H700 C662 0.929 . S
H701 C664 0.930 . S
H702 C670 0.929 . S
H703 C671 0.930 . S
Li704 N721 1.990 . S
Li704 O764 1.956 . S
Li704 O765 1.970 . S
Li704 O766 1.961 . S
Li705 N729 1.990 . S
Li705 O764 1.970 . S
Li705 O765 1.956 . S
Li705 O767 1.961 . S
Li706 N751 1.990 . S
Li706 O764 1.961 . S
Li706 O766 1.956 . S
Li706 O767 1.970 . S
Li707 N757 1.990 . S
Li707 O765 1.961 . S
Li707 O766 1.970 . S
Li707 O767 1.956 . S
C708 C710 1.348 . S
C708 C711 1.356 . S
C708 O764 1.325 . S
N709 C712 1.314 . S
N709 C713 1.279 . S
C710 C708 1.348 . S
C710 C712 1.353 . S
C710 H768 0.929 . S
C711 C708 1.356 . S
C711 C713 1.358 . S
C711 H769 0.930 . S
C712 N709 1.314 . S
C712 C710 1.353 . S
C712 H770 0.930 . S
C713 N709 1.279 . S
C713 C711 1.358 . S
C713 H771 0.930 . S
C714 C717 1.348 . S
C714 C718 1.356 . S
C714 O765 1.325 . S
C715 N716 1.279 . S
C715 C718 1.358 . S
C715 H772 0.930 . S
N716 C715 1.279 . S
N716 C719 1.314 . S
C717 C714 1.348 . S
C717 C719 1.353 . S
C717 H773 0.929 . S
C718 C714 1.356 . S
C718 C715 1.358 . S
C718 H774 0.930 . S
C719 N716 1.314 . S
C719 C717 1.353 . S
C719 H775 0.930 . S
C720 N721 1.314 . S
C720 C725 1.353 . S
C720 H726 0.930 . S
N721 Li704 1.990 . S
N721 C720 1.314 . S
N721 C723 1.279 . S
C722 C723 1.358 . S
C722 C724 1.356 . S
C722 H776 0.930 . S
C723 N721 1.279 . S
C723 C722 1.358 . S
C723 H727 0.930 . S
C724 C722 1.356 . S
C724 C725 1.348 . S
C725 C720 1.353 . S
C725 C724 1.348 . S
C725 H777 0.929 . S
H726 C720 0.930 . S
H727 C723 0.930 . S
C728 N729 1.314 . S
C728 C730 1.353 . S
C728 H734 0.930 . S
N729 Li705 1.990 . S
N729 C728 1.314 . S
N729 C732 1.279 . S
C730 C728 1.353 . S
C730 C733 1.348 . S
C730 H778 0.929 . S
C731 C732 1.358 . S
C731 C733 1.356 . S
C731 H779 0.930 . S
C732 N729 1.279 . S
C732 C731 1.358 . S
C732 H735 0.930 . S
C733 C730 1.348 . S
C733 C731 1.356 . S
H734 C728 0.930 . S
H735 C732 0.930 . S
C736 C738 1.348 . S
C736 C739 1.356 . S
C736 O766 1.325 . S
N737 C740 1.314 . S
N737 C741 1.279 . S
C738 C736 1.348 . S
C738 C740 1.353 . S
C738 H780 0.929 . S
C739 C736 1.356 . S
C739 C741 1.358 . S
C739 H781 0.930 . S
C740 N737 1.314 . S
C740 C738 1.353 . S
C740 H782 0.930 . S
C741 N737 1.279 . S
C741 C739 1.358 . S
C741 H783 0.930 . S
C742 C743 1.348 . S
C742 C744 1.356 . S
C742 O767 1.325 . S
C743 C742 1.348 . S
C743 C745 1.353 . S
C743 H784 0.929 . S
C744 C742 1.356 . S
C744 C746 1.358 . S
C744 H785 0.930 . S
C745 C743 1.353 . S
C745 N747 1.314 . S
C745 H786 0.930 . S
C746 C744 1.358 . S
C746 N747 1.279 . S
C746 H787 0.930 . S
N747 C745 1.314 . S
N747 C746 1.279 . S
C748 C750 1.353 . S
C748 N751 1.314 . S
C748 H754 0.930 . S
C749 N751 1.279 . S
C749 C752 1.358 . S
C749 H755 0.930 . S
C750 C748 1.353 . S
C750 C753 1.348 . S
C750 H788 0.929 . S
N751 Li706 1.990 . S
N751 C748 1.314 . S
N751 C749 1.279 . S
C752 C749 1.358 . S
C752 C753 1.356 . S
C752 H789 0.930 . S
C753 C750 1.348 . S
C753 C752 1.356 . S
H754 C748 0.930 . S
H755 C749 0.930 . S
C756 N757 1.314 . S
C756 C758 1.353 . S
C756 H762 0.930 . S
N757 Li707 1.990 . S
N757 C756 1.314 . S
N757 C760 1.279 . S
C758 C756 1.353 . S
C758 C761 1.348 . S
C758 H790 0.929 . S
C759 C760 1.358 . S
C759 C761 1.356 . S
C759 H791 0.930 . S
C760 N757 1.279 . S
C760 C759 1.358 . S
C760 H763 0.930 . S
C761 C758 1.348 . S
C761 C759 1.356 . S
H762 C756 0.930 . S
H763 C760 0.930 . S
O764 Li704 1.956 . S
O764 Li705 1.970 . S
O764 Li706 1.961 . S
O764 C708 1.325 . S
O765 Li704 1.970 . S
O765 Li705 1.956 . S
O765 Li707 1.961 . S
O765 C714 1.325 . S
O766 Li704 1.961 . S
O766 Li706 1.956 . S
O766 Li707 1.970 . S
O766 C736 1.325 . S
O767 Li705 1.961 . S
O767 Li706 1.970 . S
O767 Li707 1.956 . S
O767 C742 1.325 . S
H768 C710 0.929 . S
H769 C711 0.930 . S
H770 C712 0.930 . S
H771 C713 0.930 . S
H772 C715 0.930 . S
H773 C717 0.929 . S
H774 C718 0.930 . S
H775 C719 0.930 . S
H776 C722 0.930 . S
H777 C725 0.929 . S
H778 C730 0.929 . S
H779 C731 0.930 . S
H780 C738 0.929 . S
H781 C739 0.930 . S
H782 C740 0.930 . S
H783 C741 0.930 . S
H784 C743 0.929 . S
H785 C744 0.930 . S
H786 C745 0.930 . S
H787 C746 0.930 . S
H788 C750 0.929 . S
H789 C752 0.930 . S
H790 C758 0.929 . S
H791 C759 0.930 . S
Li792 N809 1.990 . S
Li792 O852 1.956 . S
Li792 O853 1.970 . S
Li792 O854 1.961 . S
Li793 N817 1.990 . S
Li793 O852 1.970 . S
Li793 O853 1.956 . S
Li793 O855 1.961 . S
Li794 N839 1.990 . S
Li794 O852 1.961 . S
Li794 O854 1.956 . S
Li794 O855 1.970 . S
Li795 N845 1.990 . S
Li795 O853 1.961 . S
Li795 O854 1.970 . S
Li795 O855 1.956 . S
C796 C798 1.348 . S
C796 C799 1.356 . S
C796 O852 1.325 . S
N797 C800 1.314 . S
N797 C801 1.279 . S
C798 C796 1.348 . S
C798 C800 1.353 . S
C798 H856 0.929 . S
C799 C796 1.356 . S
C799 C801 1.358 . S
C799 H857 0.930 . S
C800 N797 1.314 . S
C800 C798 1.353 . S
C800 H858 0.930 . S
C801 N797 1.279 . S
C801 C799 1.358 . S
C801 H859 0.930 . S
C802 C805 1.348 . S
C802 C806 1.356 . S
C802 O853 1.325 . S
C803 N804 1.279 . S
C803 C806 1.358 . S
C803 H860 0.930 . S
N804 C803 1.279 . S
N804 C807 1.314 . S
C805 C802 1.348 . S
C805 C807 1.353 . S
C805 H861 0.929 . S
C806 C802 1.356 . S
C806 C803 1.358 . S
C806 H862 0.930 . S
C807 N804 1.314 . S
C807 C805 1.353 . S
C807 H863 0.930 . S
C808 N809 1.314 . S
C808 C813 1.353 . S
C808 H814 0.930 . S
N809 Li792 1.990 . S
N809 C808 1.314 . S
N809 C811 1.279 . S
C810 C811 1.358 . S
C810 C812 1.356 . S
C810 H864 0.930 . S
C811 N809 1.279 . S
C811 C810 1.358 . S
C811 H815 0.930 . S
C812 C810 1.356 . S
C812 C813 1.348 . S
C813 C808 1.353 . S
C813 C812 1.348 . S
C813 H865 0.929 . S
H814 C808 0.930 . S
H815 C811 0.930 . S
C816 N817 1.314 . S
C816 C818 1.353 . S
C816 H822 0.930 . S
N817 Li793 1.990 . S
N817 C816 1.314 . S
N817 C820 1.279 . S
C818 C816 1.353 . S
C818 C821 1.348 . S
C818 H866 0.929 . S
C819 C820 1.358 . S
C819 C821 1.356 . S
C819 H867 0.930 . S
C820 N817 1.279 . S
C820 C819 1.358 . S
C820 H823 0.930 . S
C821 C818 1.348 . S
C821 C819 1.356 . S
H822 C816 0.930 . S
H823 C820 0.930 . S
C824 C826 1.348 . S
C824 C827 1.356 . S
C824 O854 1.325 . S
N825 C828 1.314 . S
N825 C829 1.279 . S
C826 C824 1.348 . S
C826 C828 1.353 . S
C826 H868 0.929 . S
C827 C824 1.356 . S
C827 C829 1.358 . S
C827 H869 0.930 . S
C828 N825 1.314 . S
C828 C826 1.353 . S
C828 H870 0.930 . S
C829 N825 1.279 . S
C829 C827 1.358 . S
C829 H871 0.930 . S
C830 C831 1.348 . S
C830 C832 1.356 . S
C830 O855 1.325 . S
C831 C830 1.348 . S
C831 C833 1.353 . S
C831 H872 0.929 . S
C832 C830 1.356 . S
C832 C834 1.358 . S
C832 H873 0.930 . S
C833 C831 1.353 . S
C833 N835 1.314 . S
C833 H874 0.930 . S
C834 C832 1.358 . S
C834 N835 1.279 . S
C834 H875 0.930 . S
N835 C833 1.314 . S
N835 C834 1.279 . S
C836 C838 1.353 . S
C836 N839 1.314 . S
C836 H842 0.930 . S
C837 N839 1.279 . S
C837 C840 1.358 . S
C837 H843 0.930 . S
C838 C836 1.353 . S
C838 C841 1.348 . S
C838 H876 0.929 . S
N839 Li794 1.990 . S
N839 C836 1.314 . S
N839 C837 1.279 . S
C840 C837 1.358 . S
C840 C841 1.356 . S
C840 H877 0.930 . S
C841 C838 1.348 . S
C841 C840 1.356 . S
H842 C836 0.930 . S
H843 C837 0.930 . S
C844 N845 1.314 . S
C844 C846 1.353 . S
C844 H850 0.930 . S
N845 Li795 1.990 . S
N845 C844 1.314 . S
N845 C848 1.279 . S
C846 C844 1.353 . S
C846 C849 1.348 . S
C846 H878 0.929 . S
C847 C848 1.358 . S
C847 C849 1.356 . S
C847 H879 0.930 . S
C848 N845 1.279 . S
C848 C847 1.358 . S
C848 H851 0.930 . S
C849 C846 1.348 . S
C849 C847 1.356 . S
H850 C844 0.930 . S
H851 C848 0.930 . S
O852 Li792 1.956 . S
O852 Li793 1.970 . S
O852 Li794 1.961 . S
O852 C796 1.325 . S
O853 Li792 1.970 . S
O853 Li793 1.956 . S
O853 Li795 1.961 . S
O853 C802 1.325 . S
O854 Li792 1.961 . S
O854 Li794 1.956 . S
O854 Li795 1.970 . S
O854 C824 1.325 . S
O855 Li793 1.961 . S
O855 Li794 1.970 . S
O855 Li795 1.956 . S
O855 C830 1.325 . S
H856 C798 0.929 . S
H857 C799 0.930 . S
H858 C800 0.930 . S
H859 C801 0.930 . S
H860 C803 0.930 . S
H861 C805 0.929 . S
H862 C806 0.930 . S
H863 C807 0.930 . S
H864 C810 0.930 . S
H865 C813 0.929 . S
H866 C818 0.929 . S
H867 C819 0.930 . S
H868 C826 0.929 . S
H869 C827 0.930 . S
H870 C828 0.930 . S
H871 C829 0.930 . S
H872 C831 0.929 . S
H873 C832 0.930 . S
H874 C833 0.930 . S
H875 C834 0.930 . S
H876 C838 0.929 . S
H877 C840 0.930 . S
H878 C846 0.929 . S
H879 C847 0.930 . S
Li880 N897 1.990 . S
Li880 O940 1.956 . S
Li880 O941 1.970 . S
Li880 O942 1.961 . S
Li881 N905 1.990 . S
Li881 O940 1.970 . S
Li881 O941 1.956 . S
Li881 O943 1.961 . S
Li882 N927 1.990 . S
Li882 O940 1.961 . S
Li882 O942 1.956 . S
Li882 O943 1.970 . S
Li883 N933 1.990 . S
Li883 O941 1.961 . S
Li883 O942 1.970 . S
Li883 O943 1.956 . S
C884 C886 1.348 . S
C884 C887 1.356 . S
C884 O940 1.325 . S
N885 C888 1.314 . S
N885 C889 1.279 . S
C886 C884 1.348 . S
C886 C888 1.353 . S
C886 H944 0.929 . S
C887 C884 1.356 . S
C887 C889 1.358 . S
C887 H945 0.930 . S
C888 N885 1.314 . S
C888 C886 1.353 . S
C888 H946 0.930 . S
C889 N885 1.279 . S
C889 C887 1.358 . S
C889 H947 0.930 . S
C890 C893 1.348 . S
C890 C894 1.356 . S
C890 O941 1.325 . S
C891 N892 1.279 . S
C891 C894 1.358 . S
C891 H948 0.930 . S
N892 C891 1.279 . S
N892 C895 1.314 . S
C893 C890 1.348 . S
C893 C895 1.353 . S
C893 H949 0.929 . S
C894 C890 1.356 . S
C894 C891 1.358 . S
C894 H950 0.930 . S
C895 N892 1.314 . S
C895 C893 1.353 . S
C895 H951 0.930 . S
C896 N897 1.314 . S
C896 C901 1.353 . S
C896 H902 0.930 . S
N897 Li880 1.990 . S
N897 C896 1.314 . S
N897 C899 1.279 . S
C898 C899 1.358 . S
C898 C900 1.356 . S
C898 H952 0.930 . S
C899 N897 1.279 . S
C899 C898 1.358 . S
C899 H903 0.930 . S
C900 C898 1.356 . S
C900 C901 1.348 . S
C901 C896 1.353 . S
C901 C900 1.348 . S
C901 H953 0.929 . S
H902 C896 0.930 . S
H903 C899 0.930 . S
C904 N905 1.314 . S
C904 C906 1.353 . S
C904 H910 0.930 . S
N905 Li881 1.990 . S
N905 C904 1.314 . S
N905 C908 1.279 . S
C906 C904 1.353 . S
C906 C909 1.348 . S
C906 H954 0.929 . S
C907 C908 1.358 . S
C907 C909 1.356 . S
C907 H955 0.930 . S
C908 N905 1.279 . S
C908 C907 1.358 . S
C908 H911 0.930 . S
C909 C906 1.348 . S
C909 C907 1.356 . S
H910 C904 0.930 . S
H911 C908 0.930 . S
C912 C914 1.348 . S
C912 C915 1.356 . S
C912 O942 1.325 . S
N913 C916 1.314 . S
N913 C917 1.279 . S
C914 C912 1.348 . S
C914 C916 1.353 . S
C914 H956 0.929 . S
C915 C912 1.356 . S
C915 C917 1.358 . S
C915 H957 0.930 . S
C916 N913 1.314 . S
C916 C914 1.353 . S
C916 H958 0.930 . S
C917 N913 1.279 . S
C917 C915 1.358 . S
C917 H959 0.930 . S
C918 C919 1.348 . S
C918 C920 1.356 . S
C918 O943 1.325 . S
C919 C918 1.348 . S
C919 C921 1.353 . S
C919 H960 0.929 . S
C920 C918 1.356 . S
C920 C922 1.358 . S
C920 H961 0.930 . S
C921 C919 1.353 . S
C921 N923 1.314 . S
C921 H962 0.930 . S
C922 C920 1.358 . S
C922 N923 1.279 . S
C922 H963 0.930 . S
N923 C921 1.314 . S
N923 C922 1.279 . S
C924 C926 1.353 . S
C924 N927 1.314 . S
C924 H930 0.930 . S
C925 N927 1.279 . S
C925 C928 1.358 . S
C925 H931 0.930 . S
C926 C924 1.353 . S
C926 C929 1.348 . S
C926 H964 0.929 . S
N927 Li882 1.990 . S
N927 C924 1.314 . S
N927 C925 1.279 . S
C928 C925 1.358 . S
C928 C929 1.356 . S
C928 H965 0.930 . S
C929 C926 1.348 . S
C929 C928 1.356 . S
H930 C924 0.930 . S
H931 C925 0.930 . S
C932 N933 1.314 . S
C932 C934 1.353 . S
C932 H938 0.930 . S
N933 Li883 1.990 . S
N933 C932 1.314 . S
N933 C936 1.279 . S
C934 C932 1.353 . S
C934 C937 1.348 . S
C934 H966 0.929 . S
C935 C936 1.358 . S
C935 C937 1.356 . S
C935 H967 0.930 . S
C936 N933 1.279 . S
C936 C935 1.358 . S
C936 H939 0.930 . S
C937 C934 1.348 . S
C937 C935 1.356 . S
H938 C932 0.930 . S
H939 C936 0.930 . S
O940 Li880 1.956 . S
O940 Li881 1.970 . S
O940 Li882 1.961 . S
O940 C884 1.325 . S
O941 Li880 1.970 . S
O941 Li881 1.956 . S
O941 Li883 1.961 . S
O941 C890 1.325 . S
O942 Li880 1.961 . S
O942 Li882 1.956 . S
O942 Li883 1.970 . S
O942 C912 1.325 . S
O943 Li881 1.961 . S
O943 Li882 1.970 . S
O943 Li883 1.956 . S
O943 C918 1.325 . S
H944 C886 0.929 . S
H945 C887 0.930 . S
H946 C888 0.930 . S
H947 C889 0.930 . S
H948 C891 0.930 . S
H949 C893 0.929 . S
H950 C894 0.930 . S
H951 C895 0.930 . S
H952 C898 0.930 . S
H953 C901 0.929 . S
H954 C906 0.929 . S
H955 C907 0.930 . S
H956 C914 0.929 . S
H957 C915 0.930 . S
H958 C916 0.930 . S
H959 C917 0.930 . S
H960 C919 0.929 . S
H961 C920 0.930 . S
H962 C921 0.930 . S
H963 C922 0.930 . S
H964 C926 0.929 . S
H965 C928 0.930 . S
H966 C934 0.929 . S
H967 C935 0.930 . S
Li968 N985 1.990 . S
Li968 O1028 1.956 . S
Li968 O1029 1.970 . S
Li968 O1030 1.961 . S
Li969 N993 1.990 . S
Li969 O1028 1.970 . S
Li969 O1029 1.956 . S
Li969 O1031 1.961 . S
Li970 N1015 1.990 . S
Li970 O1028 1.961 . S
Li970 O1030 1.956 . S
Li970 O1031 1.970 . S
Li971 N1021 1.990 . S
Li971 O1029 1.961 . S
Li971 O1030 1.970 . S
Li971 O1031 1.956 . S
C972 C974 1.348 . S
C972 C975 1.356 . S
C972 O1028 1.325 . S
N973 C976 1.314 . S
N973 C977 1.279 . S
C974 C972 1.348 . S
C974 C976 1.353 . S
C974 H1032 0.929 . S
C975 C972 1.356 . S
C975 C977 1.358 . S
C975 H1033 0.930 . S
C976 N973 1.314 . S
C976 C974 1.353 . S
C976 H1034 0.930 . S
C977 N973 1.279 . S
C977 C975 1.358 . S
C977 H1035 0.930 . S
C978 C981 1.348 . S
C978 C982 1.356 . S
C978 O1029 1.325 . S
C979 N980 1.279 . S
C979 C982 1.358 . S
C979 H1036 0.930 . S
N980 C979 1.279 . S
N980 C983 1.314 . S
C981 C978 1.348 . S
C981 C983 1.353 . S
C981 H1037 0.929 . S
C982 C978 1.356 . S
C982 C979 1.358 . S
C982 H1038 0.930 . S
C983 N980 1.314 . S
C983 C981 1.353 . S
C983 H1039 0.930 . S
C984 N985 1.314 . S
C984 C989 1.353 . S
C984 H990 0.930 . S
N985 Li968 1.990 . S
N985 C984 1.314 . S
N985 C987 1.279 . S
C986 C987 1.358 . S
C986 C988 1.356 . S
C986 H1040 0.930 . S
C987 N985 1.279 . S
C987 C986 1.358 . S
C987 H991 0.930 . S
C988 C986 1.356 . S
C988 C989 1.348 . S
C989 C984 1.353 . S
C989 C988 1.348 . S
C989 H1041 0.929 . S
H990 C984 0.930 . S
H991 C987 0.930 . S
C992 N993 1.314 . S
C992 C994 1.353 . S
C992 H998 0.930 . S
N993 Li969 1.990 . S
N993 C992 1.314 . S
N993 C996 1.279 . S
C994 C992 1.353 . S
C994 C997 1.348 . S
C994 H1042 0.929 . S
C995 C996 1.358 . S
C995 C997 1.356 . S
C995 H1043 0.930 . S
C996 N993 1.279 . S
C996 C995 1.358 . S
C996 H999 0.930 . S
C997 C994 1.348 . S
C997 C995 1.356 . S
H998 C992 0.930 . S
H999 C996 0.930 . S
C1000 C1002 1.348 . S
C1000 C1003 1.356 . S
C1000 O1030 1.325 . S
N1001 C1004 1.314 . S
N1001 C1005 1.279 . S
C1002 C1000 1.348 . S
C1002 C1004 1.353 . S
C1002 H1044 0.929 . S
C1003 C1000 1.356 . S
C1003 C1005 1.358 . S
C1003 H1045 0.930 . S
C1004 N1001 1.314 . S
C1004 C1002 1.353 . S
C1004 H1046 0.930 . S
C1005 N1001 1.279 . S
C1005 C1003 1.358 . S
C1005 H1047 0.930 . S
C1006 C1007 1.348 . S
C1006 C1008 1.356 . S
C1006 O1031 1.325 . S
C1007 C1006 1.348 . S
C1007 C1009 1.353 . S
C1007 H1048 0.929 . S
C1008 C1006 1.356 . S
C1008 C1010 1.358 . S
C1008 H1049 0.930 . S
C1009 C1007 1.353 . S
C1009 N1011 1.314 . S
C1009 H1050 0.930 . S
C1010 C1008 1.358 . S
C1010 N1011 1.279 . S
C1010 H1051 0.930 . S
N1011 C1009 1.314 . S
N1011 C1010 1.279 . S
C1012 C1014 1.353 . S
C1012 N1015 1.314 . S
C1012 H1018 0.930 . S
C1013 N1015 1.279 . S
C1013 C1016 1.358 . S
C1013 H1019 0.930 . S
C1014 C1012 1.353 . S
C1014 C1017 1.348 . S
C1014 H1052 0.929 . S
N1015 Li970 1.990 . S
N1015 C1012 1.314 . S
N1015 C1013 1.279 . S
C1016 C1013 1.358 . S
C1016 C1017 1.356 . S
C1016 H1053 0.930 . S
C1017 C1014 1.348 . S
C1017 C1016 1.356 . S
H1018 C1012 0.930 . S
H1019 C1013 0.930 . S
C1020 N1021 1.314 . S
C1020 C1022 1.353 . S
C1020 H1026 0.930 . S
N1021 Li971 1.990 . S
N1021 C1020 1.314 . S
N1021 C1024 1.279 . S
C1022 C1020 1.353 . S
C1022 C1025 1.348 . S
C1022 H1054 0.929 . S
C1023 C1024 1.358 . S
C1023 C1025 1.356 . S
C1023 H1055 0.930 . S
C1024 N1021 1.279 . S
C1024 C1023 1.358 . S
C1024 H1027 0.930 . S
C1025 C1022 1.348 . S
C1025 C1023 1.356 . S
H1026 C1020 0.930 . S
H1027 C1024 0.930 . S
O1028 Li968 1.956 . S
O1028 Li969 1.970 . S
O1028 Li970 1.961 . S
O1028 C972 1.325 . S
O1029 Li968 1.970 . S
O1029 Li969 1.956 . S
O1029 Li971 1.961 . S
O1029 C978 1.325 . S
O1030 Li968 1.961 . S
O1030 Li970 1.956 . S
O1030 Li971 1.970 . S
O1030 C1000 1.325 . S
O1031 Li969 1.961 . S
O1031 Li970 1.970 . S
O1031 Li971 1.956 . S
O1031 C1006 1.325 . S
H1032 C974 0.929 . S
H1033 C975 0.930 . S
H1034 C976 0.930 . S
H1035 C977 0.930 . S
H1036 C979 0.930 . S
H1037 C981 0.929 . S
H1038 C982 0.930 . S
H1039 C983 0.930 . S
H1040 C986 0.930 . S
H1041 C989 0.929 . S
H1042 C994 0.929 . S
H1043 C995 0.930 . S
H1044 C1002 0.929 . S
H1045 C1003 0.930 . S
H1046 C1004 0.930 . S
H1047 C1005 0.930 . S
H1048 C1007 0.929 . S
H1049 C1008 0.930 . S
H1050 C1009 0.930 . S
H1051 C1010 0.930 . S
H1052 C1014 0.929 . S
H1053 C1016 0.930 . S
H1054 C1022 0.929 . S
H1055 C1023 0.930 . S
Li1056 N1073 1.990 . S
Li1056 O1116 1.956 . S
Li1056 O1117 1.970 . S
Li1056 O1118 1.961 . S
Li1057 N1081 1.990 . S
Li1057 O1116 1.970 . S
Li1057 O1117 1.956 . S
Li1057 O1119 1.961 . S
Li1058 N1103 1.990 . S
Li1058 O1116 1.961 . S
Li1058 O1118 1.956 . S
Li1058 O1119 1.970 . S
Li1059 N1109 1.990 . S
Li1059 O1117 1.961 . S
Li1059 O1118 1.970 . S
Li1059 O1119 1.956 . S
C1060 C1062 1.348 . S
C1060 C1063 1.356 . S
C1060 O1116 1.325 . S
N1061 C1064 1.314 . S
N1061 C1065 1.279 . S
C1062 C1060 1.348 . S
C1062 C1064 1.353 . S
C1062 H1120 0.929 . S
C1063 C1060 1.356 . S
C1063 C1065 1.358 . S
C1063 H1121 0.930 . S
C1064 N1061 1.314 . S
C1064 C1062 1.353 . S
C1064 H1122 0.930 . S
C1065 N1061 1.279 . S
C1065 C1063 1.358 . S
C1065 H1123 0.930 . S
C1066 C1069 1.348 . S
C1066 C1070 1.356 . S
C1066 O1117 1.325 . S
C1067 N1068 1.279 . S
C1067 C1070 1.358 . S
C1067 H1124 0.930 . S
N1068 C1067 1.279 . S
N1068 C1071 1.314 . S
C1069 C1066 1.348 . S
C1069 C1071 1.353 . S
C1069 H1125 0.929 . S
C1070 C1066 1.356 . S
C1070 C1067 1.358 . S
C1070 H1126 0.930 . S
C1071 N1068 1.314 . S
C1071 C1069 1.353 . S
C1071 H1127 0.930 . S
C1072 N1073 1.314 . S
C1072 C1077 1.353 . S
C1072 H1078 0.930 . S
N1073 Li1056 1.990 . S
N1073 C1072 1.314 . S
N1073 C1075 1.279 . S
C1074 C1075 1.358 . S
C1074 C1076 1.356 . S
C1074 H1128 0.930 . S
C1075 N1073 1.279 . S
C1075 C1074 1.358 . S
C1075 H1079 0.930 . S
C1076 C1074 1.356 . S
C1076 C1077 1.348 . S
C1077 C1072 1.353 . S
C1077 C1076 1.348 . S
C1077 H1129 0.929 . S
H1078 C1072 0.930 . S
H1079 C1075 0.930 . S
C1080 N1081 1.314 . S
C1080 C1082 1.353 . S
C1080 H1086 0.930 . S
N1081 Li1057 1.990 . S
N1081 C1080 1.314 . S
N1081 C1084 1.279 . S
C1082 C1080 1.353 . S
C1082 C1085 1.348 . S
C1082 H1130 0.929 . S
C1083 C1084 1.358 . S
C1083 C1085 1.356 . S
C1083 H1131 0.930 . S
C1084 N1081 1.279 . S
C1084 C1083 1.358 . S
C1084 H1087 0.930 . S
C1085 C1082 1.348 . S
C1085 C1083 1.356 . S
H1086 C1080 0.930 . S
H1087 C1084 0.930 . S
C1088 C1090 1.348 . S
C1088 C1091 1.356 . S
C1088 O1118 1.325 . S
N1089 C1092 1.314 . S
N1089 C1093 1.279 . S
C1090 C1088 1.348 . S
C1090 C1092 1.353 . S
C1090 H1132 0.929 . S
C1091 C1088 1.356 . S
C1091 C1093 1.358 . S
C1091 H1133 0.930 . S
C1092 N1089 1.314 . S
C1092 C1090 1.353 . S
C1092 H1134 0.930 . S
C1093 N1089 1.279 . S
C1093 C1091 1.358 . S
C1093 H1135 0.930 . S
C1094 C1095 1.348 . S
C1094 C1096 1.356 . S
C1094 O1119 1.325 . S
C1095 C1094 1.348 . S
C1095 C1097 1.353 . S
C1095 H1136 0.929 . S
C1096 C1094 1.356 . S
C1096 C1098 1.358 . S
C1096 H1137 0.930 . S
C1097 C1095 1.353 . S
C1097 N1099 1.314 . S
C1097 H1138 0.930 . S
C1098 C1096 1.358 . S
C1098 N1099 1.279 . S
C1098 H1139 0.930 . S
N1099 C1097 1.314 . S
N1099 C1098 1.279 . S
C1100 C1102 1.353 . S
C1100 N1103 1.314 . S
C1100 H1106 0.930 . S
C1101 N1103 1.279 . S
C1101 C1104 1.358 . S
C1101 H1107 0.930 . S
C1102 C1100 1.353 . S
C1102 C1105 1.348 . S
C1102 H1140 0.929 . S
N1103 Li1058 1.990 . S
N1103 C1100 1.314 . S
N1103 C1101 1.279 . S
C1104 C1101 1.358 . S
C1104 C1105 1.356 . S
C1104 H1141 0.930 . S
C1105 C1102 1.348 . S
C1105 C1104 1.356 . S
H1106 C1100 0.930 . S
H1107 C1101 0.930 . S
C1108 N1109 1.314 . S
C1108 C1110 1.353 . S
C1108 H1114 0.930 . S
N1109 Li1059 1.990 . S
N1109 C1108 1.314 . S
N1109 C1112 1.279 . S
C1110 C1108 1.353 . S
C1110 C1113 1.348 . S
C1110 H1142 0.929 . S
C1111 C1112 1.358 . S
C1111 C1113 1.356 . S
C1111 H1143 0.930 . S
C1112 N1109 1.279 . S
C1112 C1111 1.358 . S
C1112 H1115 0.930 . S
C1113 C1110 1.348 . S
C1113 C1111 1.356 . S
H1114 C1108 0.930 . S
H1115 C1112 0.930 . S
O1116 Li1056 1.956 . S
O1116 Li1057 1.970 . S
O1116 Li1058 1.961 . S
O1116 C1060 1.325 . S
O1117 Li1056 1.970 . S
O1117 Li1057 1.956 . S
O1117 Li1059 1.961 . S
O1117 C1066 1.325 . S
O1118 Li1056 1.961 . S
O1118 Li1058 1.956 . S
O1118 Li1059 1.970 . S
O1118 C1088 1.325 . S
O1119 Li1057 1.961 . S
O1119 Li1058 1.970 . S
O1119 Li1059 1.956 . S
O1119 C1094 1.325 . S
H1120 C1062 0.929 . S
H1121 C1063 0.930 . S
H1122 C1064 0.930 . S
H1123 C1065 0.930 . S
H1124 C1067 0.930 . S
H1125 C1069 0.929 . S
H1126 C1070 0.930 . S
H1127 C1071 0.930 . S
H1128 C1074 0.930 . S
H1129 C1077 0.929 . S
H1130 C1082 0.929 . S
H1131 C1083 0.930 . S
H1132 C1090 0.929 . S
H1133 C1091 0.930 . S
H1134 C1092 0.930 . S
H1135 C1093 0.930 . S
H1136 C1095 0.929 . S
H1137 C1096 0.930 . S
H1138 C1097 0.930 . S
H1139 C1098 0.930 . S
H1140 C1102 0.929 . S
H1141 C1104 0.930 . S
H1142 C1110 0.929 . S
H1143 C1111 0.930 . S
Li1144 N1161 1.990 . S
Li1144 O1204 1.956 . S
Li1144 O1205 1.970 . S
Li1144 O1206 1.961 . S
Li1145 N1169 1.990 . S
Li1145 O1204 1.970 . S
Li1145 O1205 1.956 . S
Li1145 O1207 1.961 . S
Li1146 N1191 1.990 . S
Li1146 O1204 1.961 . S
Li1146 O1206 1.956 . S
Li1146 O1207 1.970 . S
Li1147 N1197 1.990 . S
Li1147 O1205 1.961 . S
Li1147 O1206 1.970 . S
Li1147 O1207 1.956 . S
C1148 C1150 1.348 . S
C1148 C1151 1.356 . S
C1148 O1204 1.325 . S
N1149 C1152 1.314 . S
N1149 C1153 1.279 . S
C1150 C1148 1.348 . S
C1150 C1152 1.353 . S
C1150 H1208 0.929 . S
C1151 C1148 1.356 . S
C1151 C1153 1.358 . S
C1151 H1209 0.930 . S
C1152 N1149 1.314 . S
C1152 C1150 1.353 . S
C1152 H1210 0.930 . S
C1153 N1149 1.279 . S
C1153 C1151 1.358 . S
C1153 H1211 0.930 . S
C1154 C1157 1.348 . S
C1154 C1158 1.356 . S
C1154 O1205 1.325 . S
C1155 N1156 1.279 . S
C1155 C1158 1.358 . S
C1155 H1212 0.930 . S
N1156 C1155 1.279 . S
N1156 C1159 1.314 . S
C1157 C1154 1.348 . S
C1157 C1159 1.353 . S
C1157 H1213 0.929 . S
C1158 C1154 1.356 . S
C1158 C1155 1.358 . S
C1158 H1214 0.930 . S
C1159 N1156 1.314 . S
C1159 C1157 1.353 . S
C1159 H1215 0.930 . S
C1160 N1161 1.314 . S
C1160 C1165 1.353 . S
C1160 H1166 0.930 . S
N1161 Li1144 1.990 . S
N1161 C1160 1.314 . S
N1161 C1163 1.279 . S
C1162 C1163 1.358 . S
C1162 C1164 1.356 . S
C1162 H1216 0.930 . S
C1163 N1161 1.279 . S
C1163 C1162 1.358 . S
C1163 H1167 0.930 . S
C1164 C1162 1.356 . S
C1164 C1165 1.348 . S
C1165 C1160 1.353 . S
C1165 C1164 1.348 . S
C1165 H1217 0.929 . S
H1166 C1160 0.930 . S
H1167 C1163 0.930 . S
C1168 N1169 1.314 . S
C1168 C1170 1.353 . S
C1168 H1174 0.930 . S
N1169 Li1145 1.990 . S
N1169 C1168 1.314 . S
N1169 C1172 1.279 . S
C1170 C1168 1.353 . S
C1170 C1173 1.348 . S
C1170 H1218 0.929 . S
C1171 C1172 1.358 . S
C1171 C1173 1.356 . S
C1171 H1219 0.930 . S
C1172 N1169 1.279 . S
C1172 C1171 1.358 . S
C1172 H1175 0.930 . S
C1173 C1170 1.348 . S
C1173 C1171 1.356 . S
H1174 C1168 0.930 . S
H1175 C1172 0.930 . S
C1176 C1178 1.348 . S
C1176 C1179 1.356 . S
C1176 O1206 1.325 . S
N1177 C1180 1.314 . S
N1177 C1181 1.279 . S
C1178 C1176 1.348 . S
C1178 C1180 1.353 . S
C1178 H1220 0.929 . S
C1179 C1176 1.356 . S
C1179 C1181 1.358 . S
C1179 H1221 0.930 . S
C1180 N1177 1.314 . S
C1180 C1178 1.353 . S
C1180 H1222 0.930 . S
C1181 N1177 1.279 . S
C1181 C1179 1.358 . S
C1181 H1223 0.930 . S
C1182 C1183 1.348 . S
C1182 C1184 1.356 . S
C1182 O1207 1.325 . S
C1183 C1182 1.348 . S
C1183 C1185 1.353 . S
C1183 H1224 0.929 . S
C1184 C1182 1.356 . S
C1184 C1186 1.358 . S
C1184 H1225 0.930 . S
C1185 C1183 1.353 . S
C1185 N1187 1.314 . S
C1185 H1226 0.930 . S
C1186 C1184 1.358 . S
C1186 N1187 1.279 . S
C1186 H1227 0.930 . S
N1187 C1185 1.314 . S
N1187 C1186 1.279 . S
C1188 C1190 1.353 . S
C1188 N1191 1.314 . S
C1188 H1194 0.930 . S
C1189 N1191 1.279 . S
C1189 C1192 1.358 . S
C1189 H1195 0.930 . S
C1190 C1188 1.353 . S
C1190 C1193 1.348 . S
C1190 H1228 0.929 . S
N1191 Li1146 1.990 . S
N1191 C1188 1.314 . S
N1191 C1189 1.279 . S
C1192 C1189 1.358 . S
C1192 C1193 1.356 . S
C1192 H1229 0.930 . S
C1193 C1190 1.348 . S
C1193 C1192 1.356 . S
H1194 C1188 0.930 . S
H1195 C1189 0.930 . S
C1196 N1197 1.314 . S
C1196 C1198 1.353 . S
C1196 H1202 0.930 . S
N1197 Li1147 1.990 . S
N1197 C1196 1.314 . S
N1197 C1200 1.279 . S
C1198 C1196 1.353 . S
C1198 C1201 1.348 . S
C1198 H1230 0.929 . S
C1199 C1200 1.358 . S
C1199 C1201 1.356 . S
C1199 H1231 0.930 . S
C1200 N1197 1.279 . S
C1200 C1199 1.358 . S
C1200 H1203 0.930 . S
C1201 C1198 1.348 . S
C1201 C1199 1.356 . S
H1202 C1196 0.930 . S
H1203 C1200 0.930 . S
O1204 Li1144 1.956 . S
O1204 Li1145 1.970 . S
O1204 Li1146 1.961 . S
O1204 C1148 1.325 . S
O1205 Li1144 1.970 . S
O1205 Li1145 1.956 . S
O1205 Li1147 1.961 . S
O1205 C1154 1.325 . S
O1206 Li1144 1.961 . S
O1206 Li1146 1.956 . S
O1206 Li1147 1.970 . S
O1206 C1176 1.325 . S
O1207 Li1145 1.961 . S
O1207 Li1146 1.970 . S
O1207 Li1147 1.956 . S
O1207 C1182 1.325 . S
H1208 C1150 0.929 . S
H1209 C1151 0.930 . S
H1210 C1152 0.930 . S
H1211 C1153 0.930 . S
H1212 C1155 0.930 . S
H1213 C1157 0.929 . S
H1214 C1158 0.930 . S
H1215 C1159 0.930 . S
H1216 C1162 0.930 . S
H1217 C1165 0.929 . S
H1218 C1170 0.929 . S
H1219 C1171 0.930 . S
H1220 C1178 0.929 . S
H1221 C1179 0.930 . S
H1222 C1180 0.930 . S
H1223 C1181 0.930 . S
H1224 C1183 0.929 . S
H1225 C1184 0.930 . S
H1226 C1185 0.930 . S
H1227 C1186 0.930 . S
H1228 C1190 0.929 . S
H1229 C1192 0.930 . S
H1230 C1198 0.929 . S
H1231 C1199 0.930 . S
Li1232 N1249 1.990 . S
Li1232 O1292 1.956 . S
Li1232 O1293 1.970 . S
Li1232 O1294 1.961 . S
Li1233 N1257 1.990 . S
Li1233 O1292 1.970 . S
Li1233 O1293 1.956 . S
Li1233 O1295 1.961 . S
Li1234 N1279 1.990 . S
Li1234 O1292 1.961 . S
Li1234 O1294 1.956 . S
Li1234 O1295 1.970 . S
Li1235 N1285 1.990 . S
Li1235 O1293 1.961 . S
Li1235 O1294 1.970 . S
Li1235 O1295 1.956 . S
C1236 C1238 1.348 . S
C1236 C1239 1.356 . S
C1236 O1292 1.325 . S
N1237 C1240 1.314 . S
N1237 C1241 1.279 . S
C1238 C1236 1.348 . S
C1238 C1240 1.353 . S
C1238 H1296 0.929 . S
C1239 C1236 1.356 . S
C1239 C1241 1.358 . S
C1239 H1297 0.930 . S
C1240 N1237 1.314 . S
C1240 C1238 1.353 . S
C1240 H1298 0.930 . S
C1241 N1237 1.279 . S
C1241 C1239 1.358 . S
C1241 H1299 0.930 . S
C1242 C1245 1.348 . S
C1242 C1246 1.356 . S
C1242 O1293 1.325 . S
C1243 N1244 1.279 . S
C1243 C1246 1.358 . S
C1243 H1300 0.930 . S
N1244 C1243 1.279 . S
N1244 C1247 1.314 . S
C1245 C1242 1.348 . S
C1245 C1247 1.353 . S
C1245 H1301 0.929 . S
C1246 C1242 1.356 . S
C1246 C1243 1.358 . S
C1246 H1302 0.930 . S
C1247 N1244 1.314 . S
C1247 C1245 1.353 . S
C1247 H1303 0.930 . S
C1248 N1249 1.314 . S
C1248 C1253 1.353 . S
C1248 H1254 0.930 . S
N1249 Li1232 1.990 . S
N1249 C1248 1.314 . S
N1249 C1251 1.279 . S
C1250 C1251 1.358 . S
C1250 C1252 1.356 . S
C1250 H1304 0.930 . S
C1251 N1249 1.279 . S
C1251 C1250 1.358 . S
C1251 H1255 0.930 . S
C1252 C1250 1.356 . S
C1252 C1253 1.348 . S
C1253 C1248 1.353 . S
C1253 C1252 1.348 . S
C1253 H1305 0.929 . S
H1254 C1248 0.930 . S
H1255 C1251 0.930 . S
C1256 N1257 1.314 . S
C1256 C1258 1.353 . S
C1256 H1262 0.930 . S
N1257 Li1233 1.990 . S
N1257 C1256 1.314 . S
N1257 C1260 1.279 . S
C1258 C1256 1.353 . S
C1258 C1261 1.348 . S
C1258 H1306 0.929 . S
C1259 C1260 1.358 . S
C1259 C1261 1.356 . S
C1259 H1307 0.930 . S
C1260 N1257 1.279 . S
C1260 C1259 1.358 . S
C1260 H1263 0.930 . S
C1261 C1258 1.348 . S
C1261 C1259 1.356 . S
H1262 C1256 0.930 . S
H1263 C1260 0.930 . S
C1264 C1266 1.348 . S
C1264 C1267 1.356 . S
C1264 O1294 1.325 . S
N1265 C1268 1.314 . S
N1265 C1269 1.279 . S
C1266 C1264 1.348 . S
C1266 C1268 1.353 . S
C1266 H1308 0.929 . S
C1267 C1264 1.356 . S
C1267 C1269 1.358 . S
C1267 H1309 0.930 . S
C1268 N1265 1.314 . S
C1268 C1266 1.353 . S
C1268 H1310 0.930 . S
C1269 N1265 1.279 . S
C1269 C1267 1.358 . S
C1269 H1311 0.930 . S
C1270 C1271 1.348 . S
C1270 C1272 1.356 . S
C1270 O1295 1.325 . S
C1271 C1270 1.348 . S
C1271 C1273 1.353 . S
C1271 H1312 0.929 . S
C1272 C1270 1.356 . S
C1272 C1274 1.358 . S
C1272 H1313 0.930 . S
C1273 C1271 1.353 . S
C1273 N1275 1.314 . S
C1273 H1314 0.930 . S
C1274 C1272 1.358 . S
C1274 N1275 1.279 . S
C1274 H1315 0.930 . S
N1275 C1273 1.314 . S
N1275 C1274 1.279 . S
C1276 C1278 1.353 . S
C1276 N1279 1.314 . S
C1276 H1282 0.930 . S
C1277 N1279 1.279 . S
C1277 C1280 1.358 . S
C1277 H1283 0.930 . S
C1278 C1276 1.353 . S
C1278 C1281 1.348 . S
C1278 H1316 0.929 . S
N1279 Li1234 1.990 . S
N1279 C1276 1.314 . S
N1279 C1277 1.279 . S
C1280 C1277 1.358 . S
C1280 C1281 1.356 . S
C1280 H1317 0.930 . S
C1281 C1278 1.348 . S
C1281 C1280 1.356 . S
H1282 C1276 0.930 . S
H1283 C1277 0.930 . S
C1284 N1285 1.314 . S
C1284 C1286 1.353 . S
C1284 H1290 0.930 . S
N1285 Li1235 1.990 . S
N1285 C1284 1.314 . S
N1285 C1288 1.279 . S
C1286 C1284 1.353 . S
C1286 C1289 1.348 . S
C1286 H1318 0.929 . S
C1287 C1288 1.358 . S
C1287 C1289 1.356 . S
C1287 H1319 0.930 . S
C1288 N1285 1.279 . S
C1288 C1287 1.358 . S
C1288 H1291 0.930 . S
C1289 C1286 1.348 . S
C1289 C1287 1.356 . S
H1290 C1284 0.930 . S
H1291 C1288 0.930 . S
O1292 Li1232 1.956 . S
O1292 Li1233 1.970 . S
O1292 Li1234 1.961 . S
O1292 C1236 1.325 . S
O1293 Li1232 1.970 . S
O1293 Li1233 1.956 . S
O1293 Li1235 1.961 . S
O1293 C1242 1.325 . S
O1294 Li1232 1.961 . S
O1294 Li1234 1.956 . S
O1294 Li1235 1.970 . S
O1294 C1264 1.325 . S
O1295 Li1233 1.961 . S
O1295 Li1234 1.970 . S
O1295 Li1235 1.956 . S
O1295 C1270 1.325 . S
H1296 C1238 0.929 . S
H1297 C1239 0.930 . S
H1298 C1240 0.930 . S
H1299 C1241 0.930 . S
H1300 C1243 0.930 . S
H1301 C1245 0.929 . S
H1302 C1246 0.930 . S
H1303 C1247 0.930 . S
H1304 C1250 0.930 . S
H1305 C1253 0.929 . S
H1306 C1258 0.929 . S
H1307 C1259 0.930 . S
H1308 C1266 0.929 . S
H1309 C1267 0.930 . S
H1310 C1268 0.930 . S
H1311 C1269 0.930 . S
H1312 C1271 0.929 . S
H1313 C1272 0.930 . S
H1314 C1273 0.930 . S
H1315 C1274 0.930 . S
H1316 C1278 0.929 . S
H1317 C1280 0.930 . S
H1318 C1286 0.929 . S
H1319 C1287 0.930 . S
Li1320 N1337 1.990 . S
Li1320 O1380 1.956 . S
Li1320 O1381 1.970 . S
Li1320 O1382 1.961 . S
Li1321 N1345 1.990 . S
Li1321 O1380 1.970 . S
Li1321 O1381 1.956 . S
Li1321 O1383 1.961 . S
Li1322 N1367 1.990 . S
Li1322 O1380 1.961 . S
Li1322 O1382 1.956 . S
Li1322 O1383 1.970 . S
Li1323 N1373 1.990 . S
Li1323 O1381 1.961 . S
Li1323 O1382 1.970 . S
Li1323 O1383 1.956 . S
C1324 C1326 1.348 . S
C1324 C1327 1.356 . S
C1324 O1380 1.325 . S
N1325 C1328 1.314 . S
N1325 C1329 1.279 . S
C1326 C1324 1.348 . S
C1326 C1328 1.353 . S
C1326 H1384 0.929 . S
C1327 C1324 1.356 . S
C1327 C1329 1.358 . S
C1327 H1385 0.930 . S
C1328 N1325 1.314 . S
C1328 C1326 1.353 . S
C1328 H1386 0.930 . S
C1329 N1325 1.279 . S
C1329 C1327 1.358 . S
C1329 H1387 0.930 . S
C1330 C1333 1.348 . S
C1330 C1334 1.356 . S
C1330 O1381 1.325 . S
C1331 N1332 1.279 . S
C1331 C1334 1.358 . S
C1331 H1388 0.930 . S
N1332 C1331 1.279 . S
N1332 C1335 1.314 . S
C1333 C1330 1.348 . S
C1333 C1335 1.353 . S
C1333 H1389 0.929 . S
C1334 C1330 1.356 . S
C1334 C1331 1.358 . S
C1334 H1390 0.930 . S
C1335 N1332 1.314 . S
C1335 C1333 1.353 . S
C1335 H1391 0.930 . S
C1336 N1337 1.314 . S
C1336 C1341 1.353 . S
C1336 H1342 0.930 . S
N1337 Li1320 1.990 . S
N1337 C1336 1.314 . S
N1337 C1339 1.279 . S
C1338 C1339 1.358 . S
C1338 C1340 1.356 . S
C1338 H1392 0.930 . S
C1339 N1337 1.279 . S
C1339 C1338 1.358 . S
C1339 H1343 0.930 . S
C1340 C1338 1.356 . S
C1340 C1341 1.348 . S
C1341 C1336 1.353 . S
C1341 C1340 1.348 . S
C1341 H1393 0.929 . S
H1342 C1336 0.930 . S
H1343 C1339 0.930 . S
C1344 N1345 1.314 . S
C1344 C1346 1.353 . S
C1344 H1350 0.930 . S
N1345 Li1321 1.990 . S
N1345 C1344 1.314 . S
N1345 C1348 1.279 . S
C1346 C1344 1.353 . S
C1346 C1349 1.348 . S
C1346 H1394 0.929 . S
C1347 C1348 1.358 . S
C1347 C1349 1.356 . S
C1347 H1395 0.930 . S
C1348 N1345 1.279 . S
C1348 C1347 1.358 . S
C1348 H1351 0.930 . S
C1349 C1346 1.348 . S
C1349 C1347 1.356 . S
H1350 C1344 0.930 . S
H1351 C1348 0.930 . S
C1352 C1354 1.348 . S
C1352 C1355 1.356 . S
C1352 O1382 1.325 . S
N1353 C1356 1.314 . S
N1353 C1357 1.279 . S
C1354 C1352 1.348 . S
C1354 C1356 1.353 . S
C1354 H1396 0.929 . S
C1355 C1352 1.356 . S
C1355 C1357 1.358 . S
C1355 H1397 0.930 . S
C1356 N1353 1.314 . S
C1356 C1354 1.353 . S
C1356 H1398 0.930 . S
C1357 N1353 1.279 . S
C1357 C1355 1.358 . S
C1357 H1399 0.930 . S
C1358 C1359 1.348 . S
C1358 C1360 1.356 . S
C1358 O1383 1.325 . S
C1359 C1358 1.348 . S
C1359 C1361 1.353 . S
C1359 H1400 0.929 . S
C1360 C1358 1.356 . S
C1360 C1362 1.358 . S
C1360 H1401 0.930 . S
C1361 C1359 1.353 . S
C1361 N1363 1.314 . S
C1361 H1402 0.930 . S
C1362 C1360 1.358 . S
C1362 N1363 1.279 . S
C1362 H1403 0.930 . S
N1363 C1361 1.314 . S
N1363 C1362 1.279 . S
C1364 C1366 1.353 . S
C1364 N1367 1.314 . S
C1364 H1370 0.930 . S
C1365 N1367 1.279 . S
C1365 C1368 1.358 . S
C1365 H1371 0.930 . S
C1366 C1364 1.353 . S
C1366 C1369 1.348 . S
C1366 H1404 0.929 . S
N1367 Li1322 1.990 . S
N1367 C1364 1.314 . S
N1367 C1365 1.279 . S
C1368 C1365 1.358 . S
C1368 C1369 1.356 . S
C1368 H1405 0.930 . S
C1369 C1366 1.348 . S
C1369 C1368 1.356 . S
H1370 C1364 0.930 . S
H1371 C1365 0.930 . S
C1372 N1373 1.314 . S
C1372 C1374 1.353 . S
C1372 H1378 0.930 . S
N1373 Li1323 1.990 . S
N1373 C1372 1.314 . S
N1373 C1376 1.279 . S
C1374 C1372 1.353 . S
C1374 C1377 1.348 . S
C1374 H1406 0.929 . S
C1375 C1376 1.358 . S
C1375 C1377 1.356 . S
C1375 H1407 0.930 . S
C1376 N1373 1.279 . S
C1376 C1375 1.358 . S
C1376 H1379 0.930 . S
C1377 C1374 1.348 . S
C1377 C1375 1.356 . S
H1378 C1372 0.930 . S
H1379 C1376 0.930 . S
O1380 Li1320 1.956 . S
O1380 Li1321 1.970 . S
O1380 Li1322 1.961 . S
O1380 C1324 1.325 . S
O1381 Li1320 1.970 . S
O1381 Li1321 1.956 . S
O1381 Li1323 1.961 . S
O1381 C1330 1.325 . S
O1382 Li1320 1.961 . S
O1382 Li1322 1.956 . S
O1382 Li1323 1.970 . S
O1382 C1352 1.325 . S
O1383 Li1321 1.961 . S
O1383 Li1322 1.970 . S
O1383 Li1323 1.956 . S
O1383 C1358 1.325 . S
H1384 C1326 0.929 . S
H1385 C1327 0.930 . S
H1386 C1328 0.930 . S
H1387 C1329 0.930 . S
H1388 C1331 0.930 . S
H1389 C1333 0.929 . S
H1390 C1334 0.930 . S
H1391 C1335 0.930 . S
H1392 C1338 0.930 . S
H1393 C1341 0.929 . S
H1394 C1346 0.929 . S
H1395 C1347 0.930 . S
H1396 C1354 0.929 . S
H1397 C1355 0.930 . S
H1398 C1356 0.930 . S
H1399 C1357 0.930 . S
H1400 C1359 0.929 . S
H1401 C1360 0.930 . S
H1402 C1361 0.930 . S
H1403 C1362 0.930 . S
H1404 C1366 0.929 . S
H1405 C1368 0.930 . S
H1406 C1374 0.929 . S
H1407 C1375 0.930 . S
Li1408 N1425 1.990 . S
Li1408 O1468 1.956 . S
Li1408 O1469 1.970 . S
Li1408 O1470 1.961 . S
Li1409 N1433 1.990 . S
Li1409 O1468 1.970 . S
Li1409 O1469 1.956 . S
Li1409 O1471 1.961 . S
Li1410 N1455 1.990 . S
Li1410 O1468 1.961 . S
Li1410 O1470 1.956 . S
Li1410 O1471 1.970 . S
Li1411 N1461 1.990 . S
Li1411 O1469 1.961 . S
Li1411 O1470 1.970 . S
Li1411 O1471 1.956 . S
C1412 C1414 1.348 . S
C1412 C1415 1.356 . S
C1412 O1468 1.325 . S
N1413 C1416 1.314 . S
N1413 C1417 1.279 . S
C1414 C1412 1.348 . S
C1414 C1416 1.353 . S
C1414 H1472 0.929 . S
C1415 C1412 1.356 . S
C1415 C1417 1.358 . S
C1415 H1473 0.930 . S
C1416 N1413 1.314 . S
C1416 C1414 1.353 . S
C1416 H1474 0.930 . S
C1417 N1413 1.279 . S
C1417 C1415 1.358 . S
C1417 H1475 0.930 . S
C1418 C1421 1.348 . S
C1418 C1422 1.356 . S
C1418 O1469 1.325 . S
C1419 N1420 1.279 . S
C1419 C1422 1.358 . S
C1419 H1476 0.930 . S
N1420 C1419 1.279 . S
N1420 C1423 1.314 . S
C1421 C1418 1.348 . S
C1421 C1423 1.353 . S
C1421 H1477 0.929 . S
C1422 C1418 1.356 . S
C1422 C1419 1.358 . S
C1422 H1478 0.930 . S
C1423 N1420 1.314 . S
C1423 C1421 1.353 . S
C1423 H1479 0.930 . S
C1424 N1425 1.314 . S
C1424 C1429 1.353 . S
C1424 H1430 0.930 . S
N1425 Li1408 1.990 . S
N1425 C1424 1.314 . S
N1425 C1427 1.279 . S
C1426 C1427 1.358 . S
C1426 C1428 1.356 . S
C1426 H1480 0.930 . S
C1427 N1425 1.279 . S
C1427 C1426 1.358 . S
C1427 H1431 0.930 . S
C1428 C1426 1.356 . S
C1428 C1429 1.348 . S
C1429 C1424 1.353 . S
C1429 C1428 1.348 . S
C1429 H1481 0.929 . S
H1430 C1424 0.930 . S
H1431 C1427 0.930 . S
C1432 N1433 1.314 . S
C1432 C1434 1.353 . S
C1432 H1438 0.930 . S
N1433 Li1409 1.990 . S
N1433 C1432 1.314 . S
N1433 C1436 1.279 . S
C1434 C1432 1.353 . S
C1434 C1437 1.348 . S
C1434 H1482 0.929 . S
C1435 C1436 1.358 . S
C1435 C1437 1.356 . S
C1435 H1483 0.930 . S
C1436 N1433 1.279 . S
C1436 C1435 1.358 . S
C1436 H1439 0.930 . S
C1437 C1434 1.348 . S
C1437 C1435 1.356 . S
H1438 C1432 0.930 . S
H1439 C1436 0.930 . S
C1440 C1442 1.348 . S
C1440 C1443 1.356 . S
C1440 O1470 1.325 . S
N1441 C1444 1.314 . S
N1441 C1445 1.279 . S
C1442 C1440 1.348 . S
C1442 C1444 1.353 . S
C1442 H1484 0.929 . S
C1443 C1440 1.356 . S
C1443 C1445 1.358 . S
C1443 H1485 0.930 . S
C1444 N1441 1.314 . S
C1444 C1442 1.353 . S
C1444 H1486 0.930 . S
C1445 N1441 1.279 . S
C1445 C1443 1.358 . S
C1445 H1487 0.930 . S
C1446 C1447 1.348 . S
C1446 C1448 1.356 . S
C1446 O1471 1.325 . S
C1447 C1446 1.348 . S
C1447 C1449 1.353 . S
C1447 H1488 0.929 . S
C1448 C1446 1.356 . S
C1448 C1450 1.358 . S
C1448 H1489 0.930 . S
C1449 C1447 1.353 . S
C1449 N1451 1.314 . S
C1449 H1490 0.930 . S
C1450 C1448 1.358 . S
C1450 N1451 1.279 . S
C1450 H1491 0.930 . S
N1451 C1449 1.314 . S
N1451 C1450 1.279 . S
C1452 C1454 1.353 . S
C1452 N1455 1.314 . S
C1452 H1458 0.930 . S
C1453 N1455 1.279 . S
C1453 C1456 1.358 . S
C1453 H1459 0.930 . S
C1454 C1452 1.353 . S
C1454 C1457 1.348 . S
C1454 H1492 0.929 . S
N1455 Li1410 1.990 . S
N1455 C1452 1.314 . S
N1455 C1453 1.279 . S
C1456 C1453 1.358 . S
C1456 C1457 1.356 . S
C1456 H1493 0.930 . S
C1457 C1454 1.348 . S
C1457 C1456 1.356 . S
H1458 C1452 0.930 . S
H1459 C1453 0.930 . S
C1460 N1461 1.314 . S
C1460 C1462 1.353 . S
C1460 H1466 0.930 . S
N1461 Li1411 1.990 . S
N1461 C1460 1.314 . S
N1461 C1464 1.279 . S
C1462 C1460 1.353 . S
C1462 C1465 1.348 . S
C1462 H1494 0.929 . S
C1463 C1464 1.358 . S
C1463 C1465 1.356 . S
C1463 H1495 0.930 . S
C1464 N1461 1.279 . S
C1464 C1463 1.358 . S
C1464 H1467 0.930 . S
C1465 C1462 1.348 . S
C1465 C1463 1.356 . S
H1466 C1460 0.930 . S
H1467 C1464 0.930 . S
O1468 Li1408 1.956 . S
O1468 Li1409 1.970 . S
O1468 Li1410 1.961 . S
O1468 C1412 1.325 . S
O1469 Li1408 1.970 . S
O1469 Li1409 1.956 . S
O1469 Li1411 1.961 . S
O1469 C1418 1.325 . S
O1470 Li1408 1.961 . S
O1470 Li1410 1.956 . S
O1470 Li1411 1.970 . S
O1470 C1440 1.325 . S
O1471 Li1409 1.961 . S
O1471 Li1410 1.970 . S
O1471 Li1411 1.956 . S
O1471 C1446 1.325 . S
H1472 C1414 0.929 . S
H1473 C1415 0.930 . S
H1474 C1416 0.930 . S
H1475 C1417 0.930 . S
H1476 C1419 0.930 . S
H1477 C1421 0.929 . S
H1478 C1422 0.930 . S
H1479 C1423 0.930 . S
H1480 C1426 0.930 . S
H1481 C1429 0.929 . S
H1482 C1434 0.929 . S
H1483 C1435 0.930 . S
H1484 C1442 0.929 . S
H1485 C1443 0.930 . S
H1486 C1444 0.930 . S
H1487 C1445 0.930 . S
H1488 C1447 0.929 . S
H1489 C1448 0.930 . S
H1490 C1449 0.930 . S
H1491 C1450 0.930 . S
H1492 C1454 0.929 . S
H1493 C1456 0.930 . S
H1494 C1462 0.929 . S
H1495 C1463 0.930 . S
Li1496 N1513 1.990 . S
Li1496 O1556 1.956 . S
Li1496 O1557 1.970 . S
Li1496 O1558 1.961 . S
Li1497 N1521 1.990 . S
Li1497 O1556 1.970 . S
Li1497 O1557 1.956 . S
Li1497 O1559 1.961 . S
Li1498 N1543 1.990 . S
Li1498 O1556 1.961 . S
Li1498 O1558 1.956 . S
Li1498 O1559 1.970 . S
Li1499 N1549 1.990 . S
Li1499 O1557 1.961 . S
Li1499 O1558 1.970 . S
Li1499 O1559 1.956 . S
C1500 C1502 1.348 . S
C1500 C1503 1.356 . S
C1500 O1556 1.325 . S
N1501 C1504 1.314 . S
N1501 C1505 1.279 . S
C1502 C1500 1.348 . S
C1502 C1504 1.353 . S
C1502 H1560 0.929 . S
C1503 C1500 1.356 . S
C1503 C1505 1.358 . S
C1503 H1561 0.930 . S
C1504 N1501 1.314 . S
C1504 C1502 1.353 . S
C1504 H1562 0.930 . S
C1505 N1501 1.279 . S
C1505 C1503 1.358 . S
C1505 H1563 0.930 . S
C1506 C1509 1.348 . S
C1506 C1510 1.356 . S
C1506 O1557 1.325 . S
C1507 N1508 1.279 . S
C1507 C1510 1.358 . S
C1507 H1564 0.930 . S
N1508 C1507 1.279 . S
N1508 C1511 1.314 . S
C1509 C1506 1.348 . S
C1509 C1511 1.353 . S
C1509 H1565 0.929 . S
C1510 C1506 1.356 . S
C1510 C1507 1.358 . S
C1510 H1566 0.930 . S
C1511 N1508 1.314 . S
C1511 C1509 1.353 . S
C1511 H1567 0.930 . S
C1512 N1513 1.314 . S
C1512 C1517 1.353 . S
C1512 H1518 0.930 . S
N1513 Li1496 1.990 . S
N1513 C1512 1.314 . S
N1513 C1515 1.279 . S
C1514 C1515 1.358 . S
C1514 C1516 1.356 . S
C1514 H1568 0.930 . S
C1515 N1513 1.279 . S
C1515 C1514 1.358 . S
C1515 H1519 0.930 . S
C1516 C1514 1.356 . S
C1516 C1517 1.348 . S
C1517 C1512 1.353 . S
C1517 C1516 1.348 . S
C1517 H1569 0.929 . S
H1518 C1512 0.930 . S
H1519 C1515 0.930 . S
C1520 N1521 1.314 . S
C1520 C1522 1.353 . S
C1520 H1526 0.930 . S
N1521 Li1497 1.990 . S
N1521 C1520 1.314 . S
N1521 C1524 1.279 . S
C1522 C1520 1.353 . S
C1522 C1525 1.348 . S
C1522 H1570 0.929 . S
C1523 C1524 1.358 . S
C1523 C1525 1.356 . S
C1523 H1571 0.930 . S
C1524 N1521 1.279 . S
C1524 C1523 1.358 . S
C1524 H1527 0.930 . S
C1525 C1522 1.348 . S
C1525 C1523 1.356 . S
H1526 C1520 0.930 . S
H1527 C1524 0.930 . S
C1528 C1530 1.348 . S
C1528 C1531 1.356 . S
C1528 O1558 1.325 . S
N1529 C1532 1.314 . S
N1529 C1533 1.279 . S
C1530 C1528 1.348 . S
C1530 C1532 1.353 . S
C1530 H1572 0.929 . S
C1531 C1528 1.356 . S
C1531 C1533 1.358 . S
C1531 H1573 0.930 . S
C1532 N1529 1.314 . S
C1532 C1530 1.353 . S
C1532 H1574 0.930 . S
C1533 N1529 1.279 . S
C1533 C1531 1.358 . S
C1533 H1575 0.930 . S
C1534 C1535 1.348 . S
C1534 C1536 1.356 . S
C1534 O1559 1.325 . S
C1535 C1534 1.348 . S
C1535 C1537 1.353 . S
C1535 H1576 0.929 . S
C1536 C1534 1.356 . S
C1536 C1538 1.358 . S
C1536 H1577 0.930 . S
C1537 C1535 1.353 . S
C1537 N1539 1.314 . S
C1537 H1578 0.930 . S
C1538 C1536 1.358 . S
C1538 N1539 1.279 . S
C1538 H1579 0.930 . S
N1539 C1537 1.314 . S
N1539 C1538 1.279 . S
C1540 C1542 1.353 . S
C1540 N1543 1.314 . S
C1540 H1546 0.930 . S
C1541 N1543 1.279 . S
C1541 C1544 1.358 . S
C1541 H1547 0.930 . S
C1542 C1540 1.353 . S
C1542 C1545 1.348 . S
C1542 H1580 0.929 . S
N1543 Li1498 1.990 . S
N1543 C1540 1.314 . S
N1543 C1541 1.279 . S
C1544 C1541 1.358 . S
C1544 C1545 1.356 . S
C1544 H1581 0.930 . S
C1545 C1542 1.348 . S
C1545 C1544 1.356 . S
H1546 C1540 0.930 . S
H1547 C1541 0.930 . S
C1548 N1549 1.314 . S
C1548 C1550 1.353 . S
C1548 H1554 0.930 . S
N1549 Li1499 1.990 . S
N1549 C1548 1.314 . S
N1549 C1552 1.279 . S
C1550 C1548 1.353 . S
C1550 C1553 1.348 . S
C1550 H1582 0.929 . S
C1551 C1552 1.358 . S
C1551 C1553 1.356 . S
C1551 H1583 0.930 . S
C1552 N1549 1.279 . S
C1552 C1551 1.358 . S
C1552 H1555 0.930 . S
C1553 C1550 1.348 . S
C1553 C1551 1.356 . S
H1554 C1548 0.930 . S
H1555 C1552 0.930 . S
O1556 Li1496 1.956 . S
O1556 Li1497 1.970 . S
O1556 Li1498 1.961 . S
O1556 C1500 1.325 . S
O1557 Li1496 1.970 . S
O1557 Li1497 1.956 . S
O1557 Li1499 1.961 . S
O1557 C1506 1.325 . S
O1558 Li1496 1.961 . S
O1558 Li1498 1.956 . S
O1558 Li1499 1.970 . S
O1558 C1528 1.325 . S
O1559 Li1497 1.961 . S
O1559 Li1498 1.970 . S
O1559 Li1499 1.956 . S
O1559 C1534 1.325 . S
H1560 C1502 0.929 . S
H1561 C1503 0.930 . S
H1562 C1504 0.930 . S
H1563 C1505 0.930 . S
H1564 C1507 0.930 . S
H1565 C1509 0.929 . S
H1566 C1510 0.930 . S
H1567 C1511 0.930 . S
H1568 C1514 0.930 . S
H1569 C1517 0.929 . S
H1570 C1522 0.929 . S
H1571 C1523 0.930 . S
H1572 C1530 0.929 . S
H1573 C1531 0.930 . S
H1574 C1532 0.930 . S
H1575 C1533 0.930 . S
H1576 C1535 0.929 . S
H1577 C1536 0.930 . S
H1578 C1537 0.930 . S
H1579 C1538 0.930 . S
H1580 C1542 0.929 . S
H1581 C1544 0.930 . S
H1582 C1550 0.929 . S
H1583 C1551 0.930 . S
Li1584 N1601 1.990 . S
Li1584 O1644 1.956 . S
Li1584 O1645 1.970 . S
Li1584 O1646 1.961 . S
Li1585 N1609 1.990 . S
Li1585 O1644 1.970 . S
Li1585 O1645 1.956 . S
Li1585 O1647 1.961 . S
Li1586 N1631 1.990 . S
Li1586 O1644 1.961 . S
Li1586 O1646 1.956 . S
Li1586 O1647 1.970 . S
Li1587 N1637 1.990 . S
Li1587 O1645 1.961 . S
Li1587 O1646 1.970 . S
Li1587 O1647 1.956 . S
C1588 C1590 1.348 . S
C1588 C1591 1.356 . S
C1588 O1644 1.325 . S
N1589 C1592 1.314 . S
N1589 C1593 1.279 . S
C1590 C1588 1.348 . S
C1590 C1592 1.353 . S
C1590 H1648 0.929 . S
C1591 C1588 1.356 . S
C1591 C1593 1.358 . S
C1591 H1649 0.930 . S
C1592 N1589 1.314 . S
C1592 C1590 1.353 . S
C1592 H1650 0.930 . S
C1593 N1589 1.279 . S
C1593 C1591 1.358 . S
C1593 H1651 0.930 . S
C1594 C1597 1.348 . S
C1594 C1598 1.356 . S
C1594 O1645 1.325 . S
C1595 N1596 1.279 . S
C1595 C1598 1.358 . S
C1595 H1652 0.930 . S
N1596 C1595 1.279 . S
N1596 C1599 1.314 . S
C1597 C1594 1.348 . S
C1597 C1599 1.353 . S
C1597 H1653 0.929 . S
C1598 C1594 1.356 . S
C1598 C1595 1.358 . S
C1598 H1654 0.930 . S
C1599 N1596 1.314 . S
C1599 C1597 1.353 . S
C1599 H1655 0.930 . S
C1600 N1601 1.314 . S
C1600 C1605 1.353 . S
C1600 H1606 0.930 . S
N1601 Li1584 1.990 . S
N1601 C1600 1.314 . S
N1601 C1603 1.279 . S
C1602 C1603 1.358 . S
C1602 C1604 1.356 . S
C1602 H1656 0.930 . S
C1603 N1601 1.279 . S
C1603 C1602 1.358 . S
C1603 H1607 0.930 . S
C1604 C1602 1.356 . S
C1604 C1605 1.348 . S
C1605 C1600 1.353 . S
C1605 C1604 1.348 . S
C1605 H1657 0.929 . S
H1606 C1600 0.930 . S
H1607 C1603 0.930 . S
C1608 N1609 1.314 . S
C1608 C1610 1.353 . S
C1608 H1614 0.930 . S
N1609 Li1585 1.990 . S
N1609 C1608 1.314 . S
N1609 C1612 1.279 . S
C1610 C1608 1.353 . S
C1610 C1613 1.348 . S
C1610 H1658 0.929 . S
C1611 C1612 1.358 . S
C1611 C1613 1.356 . S
C1611 H1659 0.930 . S
C1612 N1609 1.279 . S
C1612 C1611 1.358 . S
C1612 H1615 0.930 . S
C1613 C1610 1.348 . S
C1613 C1611 1.356 . S
H1614 C1608 0.930 . S
H1615 C1612 0.930 . S
C1616 C1618 1.348 . S
C1616 C1619 1.356 . S
C1616 O1646 1.325 . S
N1617 C1620 1.314 . S
N1617 C1621 1.279 . S
C1618 C1616 1.348 . S
C1618 C1620 1.353 . S
C1618 H1660 0.929 . S
C1619 C1616 1.356 . S
C1619 C1621 1.358 . S
C1619 H1661 0.930 . S
C1620 N1617 1.314 . S
C1620 C1618 1.353 . S
C1620 H1662 0.930 . S
C1621 N1617 1.279 . S
C1621 C1619 1.358 . S
C1621 H1663 0.930 . S
C1622 C1623 1.348 . S
C1622 C1624 1.356 . S
C1622 O1647 1.325 . S
C1623 C1622 1.348 . S
C1623 C1625 1.353 . S
C1623 H1664 0.929 . S
C1624 C1622 1.356 . S
C1624 C1626 1.358 . S
C1624 H1665 0.930 . S
C1625 C1623 1.353 . S
C1625 N1627 1.314 . S
C1625 H1666 0.930 . S
C1626 C1624 1.358 . S
C1626 N1627 1.279 . S
C1626 H1667 0.930 . S
N1627 C1625 1.314 . S
N1627 C1626 1.279 . S
C1628 C1630 1.353 . S
C1628 N1631 1.314 . S
C1628 H1634 0.930 . S
C1629 N1631 1.279 . S
C1629 C1632 1.358 . S
C1629 H1635 0.930 . S
C1630 C1628 1.353 . S
C1630 C1633 1.348 . S
C1630 H1668 0.929 . S
N1631 Li1586 1.990 . S
N1631 C1628 1.314 . S
N1631 C1629 1.279 . S
C1632 C1629 1.358 . S
C1632 C1633 1.356 . S
C1632 H1669 0.930 . S
C1633 C1630 1.348 . S
C1633 C1632 1.356 . S
H1634 C1628 0.930 . S
H1635 C1629 0.930 . S
C1636 N1637 1.314 . S
C1636 C1638 1.353 . S
C1636 H1642 0.930 . S
N1637 Li1587 1.990 . S
N1637 C1636 1.314 . S
N1637 C1640 1.279 . S
C1638 C1636 1.353 . S
C1638 C1641 1.348 . S
C1638 H1670 0.929 . S
C1639 C1640 1.358 . S
C1639 C1641 1.356 . S
C1639 H1671 0.930 . S
C1640 N1637 1.279 . S
C1640 C1639 1.358 . S
C1640 H1643 0.930 . S
C1641 C1638 1.348 . S
C1641 C1639 1.356 . S
H1642 C1636 0.930 . S
H1643 C1640 0.930 . S
O1644 Li1584 1.956 . S
O1644 Li1585 1.970 . S
O1644 Li1586 1.961 . S
O1644 C1588 1.325 . S
O1645 Li1584 1.970 . S
O1645 Li1585 1.956 . S
O1645 Li1587 1.961 . S
O1645 C1594 1.325 . S
O1646 Li1584 1.961 . S
O1646 Li1586 1.956 . S
O1646 Li1587 1.970 . S
O1646 C1616 1.325 . S
O1647 Li1585 1.961 . S
O1647 Li1586 1.970 . S
O1647 Li1587 1.956 . S
O1647 C1622 1.325 . S
H1648 C1590 0.929 . S
H1649 C1591 0.930 . S
H1650 C1592 0.930 . S
H1651 C1593 0.930 . S
H1652 C1595 0.930 . S
H1653 C1597 0.929 . S
H1654 C1598 0.930 . S
H1655 C1599 0.930 . S
H1656 C1602 0.930 . S
H1657 C1605 0.929 . S
H1658 C1610 0.929 . S
H1659 C1611 0.930 . S
H1660 C1618 0.929 . S
H1661 C1619 0.930 . S
H1662 C1620 0.930 . S
H1663 C1621 0.930 . S
H1664 C1623 0.929 . S
H1665 C1624 0.930 . S
H1666 C1625 0.930 . S
H1667 C1626 0.930 . S
H1668 C1630 0.929 . S
H1669 C1632 0.930 . S
H1670 C1638 0.929 . S
H1671 C1639 0.930 . S
Li1672 N1689 1.990 . S
Li1672 O1732 1.956 . S
Li1672 O1733 1.970 . S
Li1672 O1734 1.961 . S
Li1673 N1697 1.990 . S
Li1673 O1732 1.970 . S
Li1673 O1733 1.956 . S
Li1673 O1735 1.961 . S
Li1674 N1719 1.990 . S
Li1674 O1732 1.961 . S
Li1674 O1734 1.956 . S
Li1674 O1735 1.970 . S
Li1675 N1725 1.990 . S
Li1675 O1733 1.961 . S
Li1675 O1734 1.970 . S
Li1675 O1735 1.956 . S
C1676 C1678 1.348 . S
C1676 C1679 1.356 . S
C1676 O1732 1.325 . S
N1677 C1680 1.314 . S
N1677 C1681 1.279 . S
C1678 C1676 1.348 . S
C1678 C1680 1.353 . S
C1678 H1736 0.929 . S
C1679 C1676 1.356 . S
C1679 C1681 1.358 . S
C1679 H1737 0.930 . S
C1680 N1677 1.314 . S
C1680 C1678 1.353 . S
C1680 H1738 0.930 . S
C1681 N1677 1.279 . S
C1681 C1679 1.358 . S
C1681 H1739 0.930 . S
C1682 C1685 1.348 . S
C1682 C1686 1.356 . S
C1682 O1733 1.325 . S
C1683 N1684 1.279 . S
C1683 C1686 1.358 . S
C1683 H1740 0.930 . S
N1684 C1683 1.279 . S
N1684 C1687 1.314 . S
C1685 C1682 1.348 . S
C1685 C1687 1.353 . S
C1685 H1741 0.929 . S
C1686 C1682 1.356 . S
C1686 C1683 1.358 . S
C1686 H1742 0.930 . S
C1687 N1684 1.314 . S
C1687 C1685 1.353 . S
C1687 H1743 0.930 . S
C1688 N1689 1.314 . S
C1688 C1693 1.353 . S
C1688 H1694 0.930 . S
N1689 Li1672 1.990 . S
N1689 C1688 1.314 . S
N1689 C1691 1.279 . S
C1690 C1691 1.358 . S
C1690 C1692 1.356 . S
C1690 H1744 0.930 . S
C1691 N1689 1.279 . S
C1691 C1690 1.358 . S
C1691 H1695 0.930 . S
C1692 C1690 1.356 . S
C1692 C1693 1.348 . S
C1693 C1688 1.353 . S
C1693 C1692 1.348 . S
C1693 H1745 0.929 . S
H1694 C1688 0.930 . S
H1695 C1691 0.930 . S
C1696 N1697 1.314 . S
C1696 C1698 1.353 . S
C1696 H1702 0.930 . S
N1697 Li1673 1.990 . S
N1697 C1696 1.314 . S
N1697 C1700 1.279 . S
C1698 C1696 1.353 . S
C1698 C1701 1.348 . S
C1698 H1746 0.929 . S
C1699 C1700 1.358 . S
C1699 C1701 1.356 . S
C1699 H1747 0.930 . S
C1700 N1697 1.279 . S
C1700 C1699 1.358 . S
C1700 H1703 0.930 . S
C1701 C1698 1.348 . S
C1701 C1699 1.356 . S
H1702 C1696 0.930 . S
H1703 C1700 0.930 . S
C1704 C1706 1.348 . S
C1704 C1707 1.356 . S
C1704 O1734 1.325 . S
N1705 C1708 1.314 . S
N1705 C1709 1.279 . S
C1706 C1704 1.348 . S
C1706 C1708 1.353 . S
C1706 H1748 0.929 . S
C1707 C1704 1.356 . S
C1707 C1709 1.358 . S
C1707 H1749 0.930 . S
C1708 N1705 1.314 . S
C1708 C1706 1.353 . S
C1708 H1750 0.930 . S
C1709 N1705 1.279 . S
C1709 C1707 1.358 . S
C1709 H1751 0.930 . S
C1710 C1711 1.348 . S
C1710 C1712 1.356 . S
C1710 O1735 1.325 . S
C1711 C1710 1.348 . S
C1711 C1713 1.353 . S
C1711 H1752 0.929 . S
C1712 C1710 1.356 . S
C1712 C1714 1.358 . S
C1712 H1753 0.930 . S
C1713 C1711 1.353 . S
C1713 N1715 1.314 . S
C1713 H1754 0.930 . S
C1714 C1712 1.358 . S
C1714 N1715 1.279 . S
C1714 H1755 0.930 . S
N1715 C1713 1.314 . S
N1715 C1714 1.279 . S
C1716 C1718 1.353 . S
C1716 N1719 1.314 . S
C1716 H1722 0.930 . S
C1717 N1719 1.279 . S
C1717 C1720 1.358 . S
C1717 H1723 0.930 . S
C1718 C1716 1.353 . S
C1718 C1721 1.348 . S
C1718 H1756 0.929 . S
N1719 Li1674 1.990 . S
N1719 C1716 1.314 . S
N1719 C1717 1.279 . S
C1720 C1717 1.358 . S
C1720 C1721 1.356 . S
C1720 H1757 0.930 . S
C1721 C1718 1.348 . S
C1721 C1720 1.356 . S
H1722 C1716 0.930 . S
H1723 C1717 0.930 . S
C1724 N1725 1.314 . S
C1724 C1726 1.353 . S
C1724 H1730 0.930 . S
N1725 Li1675 1.990 . S
N1725 C1724 1.314 . S
N1725 C1728 1.279 . S
C1726 C1724 1.353 . S
C1726 C1729 1.348 . S
C1726 H1758 0.929 . S
C1727 C1728 1.358 . S
C1727 C1729 1.356 . S
C1727 H1759 0.930 . S
C1728 N1725 1.279 . S
C1728 C1727 1.358 . S
C1728 H1731 0.930 . S
C1729 C1726 1.348 . S
C1729 C1727 1.356 . S
H1730 C1724 0.930 . S
H1731 C1728 0.930 . S
O1732 Li1672 1.956 . S
O1732 Li1673 1.970 . S
O1732 Li1674 1.961 . S
O1732 C1676 1.325 . S
O1733 Li1672 1.970 . S
O1733 Li1673 1.956 . S
O1733 Li1675 1.961 . S
O1733 C1682 1.325 . S
O1734 Li1672 1.961 . S
O1734 Li1674 1.956 . S
O1734 Li1675 1.970 . S
O1734 C1704 1.325 . S
O1735 Li1673 1.961 . S
O1735 Li1674 1.970 . S
O1735 Li1675 1.956 . S
O1735 C1710 1.325 . S
H1736 C1678 0.929 . S
H1737 C1679 0.930 . S
H1738 C1680 0.930 . S
H1739 C1681 0.930 . S
H1740 C1683 0.930 . S
H1741 C1685 0.929 . S
H1742 C1686 0.930 . S
H1743 C1687 0.930 . S
H1744 C1690 0.930 . S
H1745 C1693 0.929 . S
H1746 C1698 0.929 . S
H1747 C1699 0.930 . S
H1748 C1706 0.929 . S
H1749 C1707 0.930 . S
H1750 C1708 0.930 . S
H1751 C1709 0.930 . S
H1752 C1711 0.929 . S
H1753 C1712 0.930 . S
H1754 C1713 0.930 . S
H1755 C1714 0.930 . S
H1756 C1718 0.929 . S
H1757 C1720 0.930 . S
H1758 C1726 0.929 . S
H1759 C1727 0.930 . S
Li1760 N1777 1.990 . S
Li1760 O1820 1.956 . S
Li1760 O1821 1.970 . S
Li1760 O1822 1.961 . S
Li1761 N1785 1.990 . S
Li1761 O1820 1.970 . S
Li1761 O1821 1.956 . S
Li1761 O1823 1.961 . S
Li1762 N1807 1.990 . S
Li1762 O1820 1.961 . S
Li1762 O1822 1.956 . S
Li1762 O1823 1.970 . S
Li1763 N1813 1.990 . S
Li1763 O1821 1.961 . S
Li1763 O1822 1.970 . S
Li1763 O1823 1.956 . S
C1764 C1766 1.348 . S
C1764 C1767 1.356 . S
C1764 O1820 1.325 . S
N1765 C1768 1.314 . S
N1765 C1769 1.279 . S
C1766 C1764 1.348 . S
C1766 C1768 1.353 . S
C1766 H1824 0.929 . S
C1767 C1764 1.356 . S
C1767 C1769 1.358 . S
C1767 H1825 0.930 . S
C1768 N1765 1.314 . S
C1768 C1766 1.353 . S
C1768 H1826 0.930 . S
C1769 N1765 1.279 . S
C1769 C1767 1.358 . S
C1769 H1827 0.930 . S
C1770 C1773 1.348 . S
C1770 C1774 1.356 . S
C1770 O1821 1.325 . S
C1771 N1772 1.279 . S
C1771 C1774 1.358 . S
C1771 H1828 0.930 . S
N1772 C1771 1.279 . S
N1772 C1775 1.314 . S
C1773 C1770 1.348 . S
C1773 C1775 1.353 . S
C1773 H1829 0.929 . S
C1774 C1770 1.356 . S
C1774 C1771 1.358 . S
C1774 H1830 0.930 . S
C1775 N1772 1.314 . S
C1775 C1773 1.353 . S
C1775 H1831 0.930 . S
C1776 N1777 1.314 . S
C1776 C1781 1.353 . S
C1776 H1782 0.930 . S
N1777 Li1760 1.990 . S
N1777 C1776 1.314 . S
N1777 C1779 1.279 . S
C1778 C1779 1.358 . S
C1778 C1780 1.356 . S
C1778 H1832 0.930 . S
C1779 N1777 1.279 . S
C1779 C1778 1.358 . S
C1779 H1783 0.930 . S
C1780 C1778 1.356 . S
C1780 C1781 1.348 . S
C1781 C1776 1.353 . S
C1781 C1780 1.348 . S
C1781 H1833 0.929 . S
H1782 C1776 0.930 . S
H1783 C1779 0.930 . S
C1784 N1785 1.314 . S
C1784 C1786 1.353 . S
C1784 H1790 0.930 . S
N1785 Li1761 1.990 . S
N1785 C1784 1.314 . S
N1785 C1788 1.279 . S
C1786 C1784 1.353 . S
C1786 C1789 1.348 . S
C1786 H1834 0.929 . S
C1787 C1788 1.358 . S
C1787 C1789 1.356 . S
C1787 H1835 0.930 . S
C1788 N1785 1.279 . S
C1788 C1787 1.358 . S
C1788 H1791 0.930 . S
C1789 C1786 1.348 . S
C1789 C1787 1.356 . S
H1790 C1784 0.930 . S
H1791 C1788 0.930 . S
C1792 C1794 1.348 . S
C1792 C1795 1.356 . S
C1792 O1822 1.325 . S
N1793 C1796 1.314 . S
N1793 C1797 1.279 . S
C1794 C1792 1.348 . S
C1794 C1796 1.353 . S
C1794 H1836 0.929 . S
C1795 C1792 1.356 . S
C1795 C1797 1.358 . S
C1795 H1837 0.930 . S
C1796 N1793 1.314 . S
C1796 C1794 1.353 . S
C1796 H1838 0.930 . S
C1797 N1793 1.279 . S
C1797 C1795 1.358 . S
C1797 H1839 0.930 . S
C1798 C1799 1.348 . S
C1798 C1800 1.356 . S
C1798 O1823 1.325 . S
C1799 C1798 1.348 . S
C1799 C1801 1.353 . S
C1799 H1840 0.929 . S
C1800 C1798 1.356 . S
C1800 C1802 1.358 . S
C1800 H1841 0.930 . S
C1801 C1799 1.353 . S
C1801 N1803 1.314 . S
C1801 H1842 0.930 . S
C1802 C1800 1.358 . S
C1802 N1803 1.279 . S
C1802 H1843 0.930 . S
N1803 C1801 1.314 . S
N1803 C1802 1.279 . S
C1804 C1806 1.353 . S
C1804 N1807 1.314 . S
C1804 H1810 0.930 . S
C1805 N1807 1.279 . S
C1805 C1808 1.358 . S
C1805 H1811 0.930 . S
C1806 C1804 1.353 . S
C1806 C1809 1.348 . S
C1806 H1844 0.929 . S
N1807 Li1762 1.990 . S
N1807 C1804 1.314 . S
N1807 C1805 1.279 . S
C1808 C1805 1.358 . S
C1808 C1809 1.356 . S
C1808 H1845 0.930 . S
C1809 C1806 1.348 . S
C1809 C1808 1.356 . S
H1810 C1804 0.930 . S
H1811 C1805 0.930 . S
C1812 N1813 1.314 . S
C1812 C1814 1.353 . S
C1812 H1818 0.930 . S
N1813 Li1763 1.990 . S
N1813 C1812 1.314 . S
N1813 C1816 1.279 . S
C1814 C1812 1.353 . S
C1814 C1817 1.348 . S
C1814 H1846 0.929 . S
C1815 C1816 1.358 . S
C1815 C1817 1.356 . S
C1815 H1847 0.930 . S
C1816 N1813 1.279 . S
C1816 C1815 1.358 . S
C1816 H1819 0.930 . S
C1817 C1814 1.348 . S
C1817 C1815 1.356 . S
H1818 C1812 0.930 . S
H1819 C1816 0.930 . S
O1820 Li1760 1.956 . S
O1820 Li1761 1.970 . S
O1820 Li1762 1.961 . S
O1820 C1764 1.325 . S
O1821 Li1760 1.970 . S
O1821 Li1761 1.956 . S
O1821 Li1763 1.961 . S
O1821 C1770 1.325 . S
O1822 Li1760 1.961 . S
O1822 Li1762 1.956 . S
O1822 Li1763 1.970 . S
O1822 C1792 1.325 . S
O1823 Li1761 1.961 . S
O1823 Li1762 1.970 . S
O1823 Li1763 1.956 . S
O1823 C1798 1.325 . S
H1824 C1766 0.929 . S
H1825 C1767 0.930 . S
H1826 C1768 0.930 . S
H1827 C1769 0.930 . S
H1828 C1771 0.930 . S
H1829 C1773 0.929 . S
H1830 C1774 0.930 . S
H1831 C1775 0.930 . S
H1832 C1778 0.930 . S
H1833 C1781 0.929 . S
H1834 C1786 0.929 . S
H1835 C1787 0.930 . S
H1836 C1794 0.929 . S
H1837 C1795 0.930 . S
H1838 C1796 0.930 . S
H1839 C1797 0.930 . S
H1840 C1799 0.929 . S
H1841 C1800 0.930 . S
H1842 C1801 0.930 . S
H1843 C1802 0.930 . S
H1844 C1806 0.929 . S
H1845 C1808 0.930 . S
H1846 C1814 0.929 . S
H1847 C1815 0.930 . S
Li1848 N1865 1.967 1_556 S
Li1848 O1908 1.956 . S
Li1848 O1909 1.970 . S
Li1848 O1910 1.961 . S
Li1849 N1873 1.990 . S
Li1849 O1908 1.970 . S
Li1849 O1909 1.956 . S
Li1849 O1911 1.961 . S
Li1850 N1895 1.990 . S
Li1850 O1908 1.961 . S
Li1850 O1910 1.956 . S
Li1850 O1911 1.970 . S
Li1851 N1901 1.990 . S
Li1851 O1909 1.961 . S
Li1851 O1910 1.970 . S
Li1851 O1911 1.956 . S
C1852 C1854 1.348 . S
C1852 C1855 1.356 . S
C1852 O1908 1.325 . S
N1853 C1856 1.314 . S
N1853 C1857 1.279 . S
C1854 C1852 1.348 . S
C1854 C1856 1.353 1_556 S
C1854 H1912 0.929 . S
C1855 C1852 1.356 . S
C1855 C1857 1.358 1_556 S
C1855 H1913 0.930 . S
C1856 N1853 1.314 . S
C1856 C1854 1.353 1_554 S
C1856 H1914 0.930 . S
C1857 N1853 1.279 . S
C1857 C1855 1.358 1_554 S
C1857 H1915 0.930 . S
C1858 C1861 1.348 . S
C1858 C1862 1.356 . S
C1858 O1909 1.325 . S
C1859 N1860 1.279 . S
C1859 C1862 1.358 . S
C1859 H1916 0.930 . S
N1860 C1859 1.279 . S
N1860 C1863 1.314 . S
C1861 C1858 1.348 . S
C1861 C1863 1.353 . S
C1861 H1917 0.929 . S
C1862 C1858 1.356 . S
C1862 C1859 1.358 . S
C1862 H1918 0.930 . S
C1863 N1860 1.314 . S
C1863 C1861 1.353 . S
C1863 H1919 0.930 1_556 S
C1864 N1865 1.316 . S
C1864 C1869 1.353 . S
C1864 H1870 0.930 1_554 S
N1865 Li1848 1.967 1_554 S
N1865 C1864 1.316 . S
N1865 C1867 1.304 . S
C1866 C1867 1.358 . S
C1866 C1868 1.356 . S
C1866 H1920 0.930 . S
C1867 N1865 1.304 . S
C1867 C1866 1.358 . S
C1867 H1871 0.930 . S
C1868 C1866 1.356 . S
C1868 C1869 1.348 . S
C1869 C1864 1.353 . S
C1869 C1868 1.348 . S
C1869 H1921 0.929 . S
H1870 C1864 0.930 1_556 S
H1871 C1867 0.930 . S
C1872 N1873 1.314 . S
C1872 C1874 1.353 . S
C1872 H1878 0.930 . S
N1873 Li1849 1.990 . S
N1873 C1872 1.314 . S
N1873 C1876 1.279 . S
C1874 C1872 1.353 . S
C1874 C1877 1.348 . S
C1874 H1922 0.929 . S
C1875 C1876 1.358 . S
C1875 C1877 1.356 . S
C1875 H1923 0.930 . S
C1876 N1873 1.279 . S
C1876 C1875 1.358 . S
C1876 H1879 0.930 . S
C1877 C1874 1.348 . S
C1877 C1875 1.356 . S
H1878 C1872 0.930 . S
H1879 C1876 0.930 . S
C1880 C1882 1.348 . S
C1880 C1883 1.356 . S
C1880 O1910 1.325 . S
N1881 C1884 1.314 . S
N1881 C1885 1.279 . S
C1882 C1880 1.348 . S
C1882 C1884 1.353 . S
C1882 H1924 0.929 . S
C1883 C1880 1.356 . S
C1883 C1885 1.358 . S
C1883 H1925 0.930 . S
C1884 N1881 1.314 . S
C1884 C1882 1.353 . S
C1884 H1926 0.930 . S
C1885 N1881 1.279 . S
C1885 C1883 1.358 . S
C1885 H1927 0.930 . S
C1886 C1887 1.348 . S
C1886 C1888 1.356 . S
C1886 O1911 1.325 . S
C1887 C1886 1.348 . S
C1887 C1889 1.353 . S
C1887 H1928 0.929 . S
C1888 C1886 1.356 . S
C1888 C1890 1.358 . S
C1888 H1929 0.930 . S
C1889 C1887 1.353 . S
C1889 N1891 1.314 . S
C1889 H1930 0.930 . S
C1890 C1888 1.358 . S
C1890 N1891 1.279 . S
C1890 H1931 0.930 . S
N1891 C1889 1.314 . S
N1891 C1890 1.279 . S
C1892 C1894 1.353 . S
C1892 N1895 1.314 . S
C1892 H1898 0.930 . S
C1893 N1895 1.279 . S
C1893 C1896 1.358 . S
C1893 H1899 0.930 . S
C1894 C1892 1.353 . S
C1894 C1897 1.348 . S
C1894 H1932 0.929 . S
N1895 Li1850 1.990 . S
N1895 C1892 1.314 . S
N1895 C1893 1.279 . S
C1896 C1893 1.358 . S
C1896 C1897 1.356 . S
C1896 H1933 0.930 . S
C1897 C1894 1.348 . S
C1897 C1896 1.356 . S
H1898 C1892 0.930 . S
H1899 C1893 0.930 . S
C1900 N1901 1.314 . S
C1900 C1902 1.353 . S
C1900 H1906 0.930 . S
N1901 Li1851 1.990 . S
N1901 C1900 1.314 . S
N1901 C1904 1.279 . S
C1902 C1900 1.353 . S
C1902 C1905 1.348 . S
C1902 H1934 0.929 . S
C1903 C1904 1.358 . S
C1903 C1905 1.356 . S
C1903 H1935 0.930 . S
C1904 N1901 1.279 . S
C1904 C1903 1.358 . S
C1904 H1907 0.930 . S
C1905 C1902 1.348 . S
C1905 C1903 1.356 . S
H1906 C1900 0.930 . S
H1907 C1904 0.930 . S
O1908 Li1848 1.956 . S
O1908 Li1849 1.970 . S
O1908 Li1850 1.961 . S
O1908 C1852 1.325 . S
O1909 Li1848 1.970 . S
O1909 Li1849 1.956 . S
O1909 Li1851 1.961 . S
O1909 C1858 1.325 . S
O1910 Li1848 1.961 . S
O1910 Li1850 1.956 . S
O1910 Li1851 1.970 . S
O1910 C1880 1.325 . S
O1911 Li1849 1.961 . S
O1911 Li1850 1.970 . S
O1911 Li1851 1.956 . S
O1911 C1886 1.325 . S
H1912 C1854 0.929 . S
H1913 C1855 0.930 . S
H1914 C1856 0.930 . S
H1915 C1857 0.930 . S
H1916 C1859 0.930 . S
H1917 C1861 0.929 . S
H1918 C1862 0.930 . S
H1919 C1863 0.930 1_554 S
H1920 C1866 0.930 . S
H1921 C1869 0.929 . S
H1922 C1874 0.929 . S
H1923 C1875 0.930 . S
H1924 C1882 0.929 . S
H1925 C1883 0.930 . S
H1926 C1884 0.930 . S
H1927 C1885 0.930 . S
H1928 C1887 0.929 . S
H1929 C1888 0.930 . S
H1930 C1889 0.930 . S
H1931 C1890 0.930 . S
H1932 C1894 0.929 . S
H1933 C1896 0.930 . S
H1934 C1902 0.929 . S
H1935 C1903 0.930 . S
Li1936 N1953 1.967 1_556 S
Li1936 O1996 1.956 . S
Li1936 O1997 1.970 . S
Li1936 O1998 1.961 . S
Li1937 N1961 1.990 . S
Li1937 O1996 1.970 . S
Li1937 O1997 1.956 . S
Li1937 O1999 1.961 . S
Li1938 N1983 1.990 . S
Li1938 O1996 1.961 . S
Li1938 O1998 1.956 . S
Li1938 O1999 1.970 . S
Li1939 N1989 1.990 . S
Li1939 O1997 1.961 . S
Li1939 O1998 1.970 . S
Li1939 O1999 1.956 . S
C1940 C1942 1.348 . S
C1940 C1943 1.356 . S
C1940 O1996 1.325 . S
N1941 C1944 1.314 . S
N1941 C1945 1.279 . S
C1942 C1940 1.348 . S
C1942 C1944 1.353 1_556 S
C1942 H2000 0.929 . S
C1943 C1940 1.356 . S
C1943 C1945 1.358 1_556 S
C1943 H2001 0.930 . S
C1944 N1941 1.314 . S
C1944 C1942 1.353 1_554 S
C1944 H2002 0.930 . S
C1945 N1941 1.279 . S
C1945 C1943 1.358 1_554 S
C1945 H2003 0.930 . S
C1946 C1949 1.348 . S
C1946 C1950 1.356 . S
C1946 O1997 1.325 . S
C1947 N1948 1.279 . S
C1947 C1950 1.358 . S
C1947 H2004 0.930 . S
N1948 C1947 1.279 . S
N1948 C1951 1.314 . S
C1949 C1946 1.348 . S
C1949 C1951 1.353 . S
C1949 H2005 0.929 . S
C1950 C1946 1.356 . S
C1950 C1947 1.358 . S
C1950 H2006 0.930 . S
C1951 N1948 1.314 . S
C1951 C1949 1.353 . S
C1951 H2007 0.930 1_556 S
C1952 N1953 1.316 . S
C1952 C1957 1.353 . S
C1952 H1958 0.930 1_554 S
N1953 Li1936 1.967 1_554 S
N1953 C1952 1.316 . S
N1953 C1955 1.304 . S
C1954 C1955 1.358 . S
C1954 C1956 1.356 . S
C1954 H2008 0.930 . S
C1955 N1953 1.304 . S
C1955 C1954 1.358 . S
C1955 H1959 0.930 . S
C1956 C1954 1.356 . S
C1956 C1957 1.348 . S
C1957 C1952 1.353 . S
C1957 C1956 1.348 . S
C1957 H2009 0.929 . S
H1958 C1952 0.930 1_556 S
H1959 C1955 0.930 . S
C1960 N1961 1.314 . S
C1960 C1962 1.353 . S
C1960 H1966 0.930 . S
N1961 Li1937 1.990 . S
N1961 C1960 1.314 . S
N1961 C1964 1.279 . S
C1962 C1960 1.353 . S
C1962 C1965 1.348 . S
C1962 H2010 0.929 . S
C1963 C1964 1.358 . S
C1963 C1965 1.356 . S
C1963 H2011 0.930 . S
C1964 N1961 1.279 . S
C1964 C1963 1.358 . S
C1964 H1967 0.930 . S
C1965 C1962 1.348 . S
C1965 C1963 1.356 . S
H1966 C1960 0.930 . S
H1967 C1964 0.930 . S
C1968 C1970 1.348 . S
C1968 C1971 1.356 . S
C1968 O1998 1.325 . S
N1969 C1972 1.314 . S
N1969 C1973 1.279 . S
C1970 C1968 1.348 . S
C1970 C1972 1.353 . S
C1970 H2012 0.929 . S
C1971 C1968 1.356 . S
C1971 C1973 1.358 . S
C1971 H2013 0.930 . S
C1972 N1969 1.314 . S
C1972 C1970 1.353 . S
C1972 H2014 0.930 . S
C1973 N1969 1.279 . S
C1973 C1971 1.358 . S
C1973 H2015 0.930 . S
C1974 C1975 1.348 . S
C1974 C1976 1.356 . S
C1974 O1999 1.325 . S
C1975 C1974 1.348 . S
C1975 C1977 1.353 . S
C1975 H2016 0.929 . S
C1976 C1974 1.356 . S
C1976 C1978 1.358 . S
C1976 H2017 0.930 . S
C1977 C1975 1.353 . S
C1977 N1979 1.314 . S
C1977 H2018 0.930 . S
C1978 C1976 1.358 . S
C1978 N1979 1.279 . S
C1978 H2019 0.930 . S
N1979 C1977 1.314 . S
N1979 C1978 1.279 . S
C1980 C1982 1.353 . S
C1980 N1983 1.314 . S
C1980 H1986 0.930 . S
C1981 N1983 1.279 . S
C1981 C1984 1.358 . S
C1981 H1987 0.930 . S
C1982 C1980 1.353 . S
C1982 C1985 1.348 . S
C1982 H2020 0.929 . S
N1983 Li1938 1.990 . S
N1983 C1980 1.314 . S
N1983 C1981 1.279 . S
C1984 C1981 1.358 . S
C1984 C1985 1.356 . S
C1984 H2021 0.930 . S
C1985 C1982 1.348 . S
C1985 C1984 1.356 . S
H1986 C1980 0.930 . S
H1987 C1981 0.930 . S
C1988 N1989 1.314 . S
C1988 C1990 1.353 . S
C1988 H1994 0.930 . S
N1989 Li1939 1.990 . S
N1989 C1988 1.314 . S
N1989 C1992 1.279 . S
C1990 C1988 1.353 . S
C1990 C1993 1.348 . S
C1990 H2022 0.929 . S
C1991 C1992 1.358 . S
C1991 C1993 1.356 . S
C1991 H2023 0.930 . S
C1992 N1989 1.279 . S
C1992 C1991 1.358 . S
C1992 H1995 0.930 . S
C1993 C1990 1.348 . S
C1993 C1991 1.356 . S
H1994 C1988 0.930 . S
H1995 C1992 0.930 . S
O1996 Li1936 1.956 . S
O1996 Li1937 1.970 . S
O1996 Li1938 1.961 . S
O1996 C1940 1.325 . S
O1997 Li1936 1.970 . S
O1997 Li1937 1.956 . S
O1997 Li1939 1.961 . S
O1997 C1946 1.325 . S
O1998 Li1936 1.961 . S
O1998 Li1938 1.956 . S
O1998 Li1939 1.970 . S
O1998 C1968 1.325 . S
O1999 Li1937 1.961 . S
O1999 Li1938 1.970 . S
O1999 Li1939 1.956 . S
O1999 C1974 1.325 . S
H2000 C1942 0.929 . S
H2001 C1943 0.930 . S
H2002 C1944 0.930 . S
H2003 C1945 0.930 . S
H2004 C1947 0.930 . S
H2005 C1949 0.929 . S
H2006 C1950 0.930 . S
H2007 C1951 0.930 1_554 S
H2008 C1954 0.930 . S
H2009 C1957 0.929 . S
H2010 C1962 0.929 . S
H2011 C1963 0.930 . S
H2012 C1970 0.929 . S
H2013 C1971 0.930 . S
H2014 C1972 0.930 . S
H2015 C1973 0.930 . S
H2016 C1975 0.929 . S
H2017 C1976 0.930 . S
H2018 C1977 0.930 . S
H2019 C1978 0.930 . S
H2020 C1982 0.929 . S
H2021 C1984 0.930 . S
H2022 C1990 0.929 . S
H2023 C1991 0.930 . S
Li2024 N2041 1.966 1_556 S
Li2024 O2084 1.956 . S
Li2024 O2085 1.970 . S
Li2024 O2086 1.961 . S
Li2025 N2049 1.990 . S
Li2025 O2084 1.970 . S
Li2025 O2085 1.956 . S
Li2025 O2087 1.961 . S
Li2026 N2071 1.990 . S
Li2026 O2084 1.961 . S
Li2026 O2086 1.956 . S
Li2026 O2087 1.970 . S
Li2027 N2077 1.990 . S
Li2027 O2085 1.961 . S
Li2027 O2086 1.970 . S
Li2027 O2087 1.956 . S
C2028 C2030 1.348 . S
C2028 C2031 1.356 . S
C2028 O2084 1.325 . S
N2029 C2032 1.314 . S
N2029 C2033 1.279 . S
C2030 C2028 1.348 . S
C2030 C2032 1.353 1_556 S
C2030 H2088 0.929 . S
C2031 C2028 1.356 . S
C2031 C2033 1.358 1_556 S
C2031 H2089 0.930 . S
C2032 N2029 1.314 . S
C2032 C2030 1.353 1_554 S
C2032 H2090 0.930 . S
C2033 N2029 1.279 . S
C2033 C2031 1.358 1_554 S
C2033 H2091 0.930 . S
C2034 C2037 1.348 . S
C2034 C2038 1.356 . S
C2034 O2085 1.325 . S
C2035 N2036 1.279 . S
C2035 C2038 1.358 . S
C2035 H2092 0.930 . S
N2036 C2035 1.279 . S
N2036 C2039 1.314 . S
C2037 C2034 1.348 . S
C2037 C2039 1.353 . S
C2037 H2093 0.929 . S
C2038 C2034 1.356 . S
C2038 C2035 1.358 . S
C2038 H2094 0.930 . S
C2039 N2036 1.314 . S
C2039 C2037 1.353 . S
C2039 H2095 0.930 1_556 S
C2040 N2041 1.316 . S
C2040 C2045 1.353 . S
C2040 H2046 0.930 1_554 S
N2041 Li2024 1.966 1_554 S
N2041 C2040 1.316 . S
N2041 C2043 1.304 . S
C2042 C2043 1.358 . S
C2042 C2044 1.356 . S
C2042 H2096 0.930 . S
C2043 N2041 1.304 . S
C2043 C2042 1.358 . S
C2043 H2047 0.930 . S
C2044 C2042 1.356 . S
C2044 C2045 1.348 . S
C2045 C2040 1.353 . S
C2045 C2044 1.348 . S
C2045 H2097 0.929 . S
H2046 C2040 0.930 1_556 S
H2047 C2043 0.930 . S
C2048 N2049 1.314 . S
C2048 C2050 1.353 . S
C2048 H2054 0.930 . S
N2049 Li2025 1.990 . S
N2049 C2048 1.314 . S
N2049 C2052 1.279 . S
C2050 C2048 1.353 . S
C2050 C2053 1.348 . S
C2050 H2098 0.929 . S
C2051 C2052 1.358 . S
C2051 C2053 1.356 . S
C2051 H2099 0.930 . S
C2052 N2049 1.279 . S
C2052 C2051 1.358 . S
C2052 H2055 0.930 . S
C2053 C2050 1.348 . S
C2053 C2051 1.356 . S
H2054 C2048 0.930 . S
H2055 C2052 0.930 . S
C2056 C2058 1.348 . S
C2056 C2059 1.356 . S
C2056 O2086 1.325 . S
N2057 C2060 1.314 . S
N2057 C2061 1.279 . S
C2058 C2056 1.348 . S
C2058 C2060 1.353 . S
C2058 H2100 0.929 . S
C2059 C2056 1.356 . S
C2059 C2061 1.358 . S
C2059 H2101 0.930 . S
C2060 N2057 1.314 . S
C2060 C2058 1.353 . S
C2060 H2102 0.930 . S
C2061 N2057 1.279 . S
C2061 C2059 1.358 . S
C2061 H2103 0.930 . S
C2062 C2063 1.348 . S
C2062 C2064 1.356 . S
C2062 O2087 1.325 . S
C2063 C2062 1.348 . S
C2063 C2065 1.353 . S
C2063 H2104 0.929 . S
C2064 C2062 1.356 . S
C2064 C2066 1.358 . S
C2064 H2105 0.930 . S
C2065 C2063 1.353 . S
C2065 N2067 1.314 . S
C2065 H2106 0.930 . S
C2066 C2064 1.358 . S
C2066 N2067 1.279 . S
C2066 H2107 0.930 . S
N2067 C2065 1.314 . S
N2067 C2066 1.279 . S
C2068 C2070 1.353 . S
C2068 N2071 1.314 . S
C2068 H2074 0.930 . S
C2069 N2071 1.279 . S
C2069 C2072 1.358 . S
C2069 H2075 0.930 . S
C2070 C2068 1.353 . S
C2070 C2073 1.348 . S
C2070 H2108 0.929 . S
N2071 Li2026 1.990 . S
N2071 C2068 1.314 . S
N2071 C2069 1.279 . S
C2072 C2069 1.358 . S
C2072 C2073 1.356 . S
C2072 H2109 0.930 . S
C2073 C2070 1.348 . S
C2073 C2072 1.356 . S
H2074 C2068 0.930 . S
H2075 C2069 0.930 . S
C2076 N2077 1.314 . S
C2076 C2078 1.353 . S
C2076 H2082 0.930 . S
N2077 Li2027 1.990 . S
N2077 C2076 1.314 . S
N2077 C2080 1.279 . S
C2078 C2076 1.353 . S
C2078 C2081 1.348 . S
C2078 H2110 0.929 . S
C2079 C2080 1.358 . S
C2079 C2081 1.356 . S
C2079 H2111 0.930 . S
C2080 N2077 1.279 . S
C2080 C2079 1.358 . S
C2080 H2083 0.930 . S
C2081 C2078 1.348 . S
C2081 C2079 1.356 . S
H2082 C2076 0.930 . S
H2083 C2080 0.930 . S
O2084 Li2024 1.956 . S
O2084 Li2025 1.970 . S
O2084 Li2026 1.961 . S
O2084 C2028 1.325 . S
O2085 Li2024 1.970 . S
O2085 Li2025 1.956 . S
O2085 Li2027 1.961 . S
O2085 C2034 1.325 . S
O2086 Li2024 1.961 . S
O2086 Li2026 1.956 . S
O2086 Li2027 1.970 . S
O2086 C2056 1.325 . S
O2087 Li2025 1.961 . S
O2087 Li2026 1.970 . S
O2087 Li2027 1.956 . S
O2087 C2062 1.325 . S
H2088 C2030 0.929 . S
H2089 C2031 0.930 . S
H2090 C2032 0.930 . S
H2091 C2033 0.930 . S
H2092 C2035 0.930 . S
H2093 C2037 0.929 . S
H2094 C2038 0.930 . S
H2095 C2039 0.930 1_554 S
H2096 C2042 0.930 . S
H2097 C2045 0.929 . S
H2098 C2050 0.929 . S
H2099 C2051 0.930 . S
H2100 C2058 0.929 . S
H2101 C2059 0.930 . S
H2102 C2060 0.930 . S
H2103 C2061 0.930 . S
H2104 C2063 0.929 . S
H2105 C2064 0.930 . S
H2106 C2065 0.930 . S
H2107 C2066 0.930 . S
H2108 C2070 0.929 . S
H2109 C2072 0.930 . S
H2110 C2078 0.929 . S
H2111 C2079 0.930 . S
Li2112 N2129 1.990 . S
Li2112 O2172 1.956 . S
Li2112 O2173 1.970 . S
Li2112 O2174 1.961 . S
Li2113 N2137 1.990 . S
Li2113 O2172 1.970 . S
Li2113 O2173 1.956 . S
Li2113 O2175 1.961 . S
Li2114 N2159 1.990 . S
Li2114 O2172 1.961 . S
Li2114 O2174 1.956 . S
Li2114 O2175 1.970 . S
Li2115 N2165 1.990 . S
Li2115 O2173 1.961 . S
Li2115 O2174 1.970 . S
Li2115 O2175 1.956 . S
C2116 C2118 1.348 . S
C2116 C2119 1.356 . S
C2116 O2172 1.325 . S
N2117 C2120 1.314 . S
N2117 C2121 1.279 . S
C2118 C2116 1.348 . S
C2118 C2120 1.353 . S
C2118 H2176 0.929 . S
C2119 C2116 1.356 . S
C2119 C2121 1.358 . S
C2119 H2177 0.930 . S
C2120 N2117 1.314 . S
C2120 C2118 1.353 . S
C2120 H2178 0.930 . S
C2121 N2117 1.279 . S
C2121 C2119 1.358 . S
C2121 H2179 0.930 . S
C2122 C2125 1.348 . S
C2122 C2126 1.356 . S
C2122 O2173 1.325 . S
C2123 N2124 1.279 . S
C2123 C2126 1.358 . S
C2123 H2180 0.930 . S
N2124 C2123 1.279 . S
N2124 C2127 1.314 . S
C2125 C2122 1.348 . S
C2125 C2127 1.353 . S
C2125 H2181 0.929 . S
C2126 C2122 1.356 . S
C2126 C2123 1.358 . S
C2126 H2182 0.930 . S
C2127 N2124 1.314 . S
C2127 C2125 1.353 . S
C2127 H2183 0.930 . S
C2128 N2129 1.314 . S
C2128 C2133 1.353 . S
C2128 H2134 0.930 . S
N2129 Li2112 1.990 . S
N2129 C2128 1.314 . S
N2129 C2131 1.279 . S
C2130 C2131 1.358 . S
C2130 C2132 1.356 . S
C2130 H2184 0.930 . S
C2131 N2129 1.279 . S
C2131 C2130 1.358 . S
C2131 H2135 0.930 . S
C2132 C2130 1.356 . S
C2132 C2133 1.348 . S
C2133 C2128 1.353 . S
C2133 C2132 1.348 . S
C2133 H2185 0.929 . S
H2134 C2128 0.930 . S
H2135 C2131 0.930 . S
C2136 N2137 1.314 . S
C2136 C2138 1.353 . S
C2136 H2142 0.930 . S
N2137 Li2113 1.990 . S
N2137 C2136 1.314 . S
N2137 C2140 1.279 . S
C2138 C2136 1.353 . S
C2138 C2141 1.348 . S
C2138 H2186 0.929 . S
C2139 C2140 1.358 . S
C2139 C2141 1.356 . S
C2139 H2187 0.930 . S
C2140 N2137 1.279 . S
C2140 C2139 1.358 . S
C2140 H2143 0.930 . S
C2141 C2138 1.348 . S
C2141 C2139 1.356 . S
H2142 C2136 0.930 . S
H2143 C2140 0.930 . S
C2144 C2146 1.348 . S
C2144 C2147 1.356 . S
C2144 O2174 1.325 . S
N2145 C2148 1.314 . S
N2145 C2149 1.279 . S
C2146 C2144 1.348 . S
C2146 C2148 1.353 . S
C2146 H2188 0.929 . S
C2147 C2144 1.356 . S
C2147 C2149 1.358 . S
C2147 H2189 0.930 . S
C2148 N2145 1.314 . S
C2148 C2146 1.353 . S
C2148 H2190 0.930 . S
C2149 N2145 1.279 . S
C2149 C2147 1.358 . S
C2149 H2191 0.930 . S
C2150 C2151 1.348 . S
C2150 C2152 1.356 . S
C2150 O2175 1.325 . S
C2151 C2150 1.348 . S
C2151 C2153 1.353 . S
C2151 H2192 0.929 . S
C2152 C2150 1.356 . S
C2152 C2154 1.358 . S
C2152 H2193 0.930 . S
C2153 C2151 1.353 . S
C2153 N2155 1.314 . S
C2153 H2194 0.930 . S
C2154 C2152 1.358 . S
C2154 N2155 1.279 . S
C2154 H2195 0.930 . S
N2155 C2153 1.314 . S
N2155 C2154 1.279 . S
C2156 C2158 1.353 . S
C2156 N2159 1.314 . S
C2156 H2162 0.930 . S
C2157 N2159 1.279 . S
C2157 C2160 1.358 . S
C2157 H2163 0.930 . S
C2158 C2156 1.353 . S
C2158 C2161 1.348 . S
C2158 H2196 0.929 . S
N2159 Li2114 1.990 . S
N2159 C2156 1.314 . S
N2159 C2157 1.279 . S
C2160 C2157 1.358 . S
C2160 C2161 1.356 . S
C2160 H2197 0.930 . S
C2161 C2158 1.348 . S
C2161 C2160 1.356 . S
H2162 C2156 0.930 . S
H2163 C2157 0.930 . S
C2164 N2165 1.314 . S
C2164 C2166 1.353 . S
C2164 H2170 0.930 . S
N2165 Li2115 1.990 . S
N2165 C2164 1.314 . S
N2165 C2168 1.279 . S
C2166 C2164 1.353 . S
C2166 C2169 1.348 . S
C2166 H2198 0.929 . S
C2167 C2168 1.358 . S
C2167 C2169 1.356 . S
C2167 H2199 0.930 . S
C2168 N2165 1.279 . S
C2168 C2167 1.358 . S
C2168 H2171 0.930 . S
C2169 C2166 1.348 . S
C2169 C2167 1.356 . S
H2170 C2164 0.930 . S
H2171 C2168 0.930 . S
O2172 Li2112 1.956 . S
O2172 Li2113 1.970 . S
O2172 Li2114 1.961 . S
O2172 C2116 1.325 . S
O2173 Li2112 1.970 . S
O2173 Li2113 1.956 . S
O2173 Li2115 1.961 . S
O2173 C2122 1.325 . S
O2174 Li2112 1.961 . S
O2174 Li2114 1.956 . S
O2174 Li2115 1.970 . S
O2174 C2144 1.325 . S
O2175 Li2113 1.961 . S
O2175 Li2114 1.970 . S
O2175 Li2115 1.956 . S
O2175 C2150 1.325 . S
H2176 C2118 0.929 . S
H2177 C2119 0.930 . S
H2178 C2120 0.930 . S
H2179 C2121 0.930 . S
H2180 C2123 0.930 . S
H2181 C2125 0.929 . S
H2182 C2126 0.930 . S
H2183 C2127 0.930 . S
H2184 C2130 0.930 . S
H2185 C2133 0.929 . S
H2186 C2138 0.929 . S
H2187 C2139 0.930 . S
H2188 C2146 0.929 . S
H2189 C2147 0.930 . S
H2190 C2148 0.930 . S
H2191 C2149 0.930 . S
H2192 C2151 0.929 . S
H2193 C2152 0.930 . S
H2194 C2153 0.930 . S
H2195 C2154 0.930 . S
H2196 C2158 0.929 . S
H2197 C2160 0.930 . S
H2198 C2166 0.929 . S
H2199 C2167 0.930 . S
Li2200 N2217 1.990 . S
Li2200 O2260 1.956 . S
Li2200 O2261 1.970 . S
Li2200 O2262 1.961 . S
Li2201 N2225 1.990 . S
Li2201 O2260 1.970 . S
Li2201 O2261 1.956 . S
Li2201 O2263 1.961 . S
Li2202 N2247 1.990 . S
Li2202 O2260 1.961 . S
Li2202 O2262 1.956 . S
Li2202 O2263 1.970 . S
Li2203 N2253 1.990 . S
Li2203 O2261 1.961 . S
Li2203 O2262 1.970 . S
Li2203 O2263 1.956 . S
C2204 C2206 1.348 . S
C2204 C2207 1.356 . S
C2204 O2260 1.325 . S
N2205 C2208 1.314 . S
N2205 C2209 1.279 . S
C2206 C2204 1.348 . S
C2206 C2208 1.353 . S
C2206 H2264 0.929 . S
C2207 C2204 1.356 . S
C2207 C2209 1.358 . S
C2207 H2265 0.930 . S
C2208 N2205 1.314 . S
C2208 C2206 1.353 . S
C2208 H2266 0.930 . S
C2209 N2205 1.279 . S
C2209 C2207 1.358 . S
C2209 H2267 0.930 . S
C2210 C2213 1.348 . S
C2210 C2214 1.356 . S
C2210 O2261 1.325 . S
C2211 N2212 1.279 . S
C2211 C2214 1.358 . S
C2211 H2268 0.930 . S
N2212 C2211 1.279 . S
N2212 C2215 1.314 . S
C2213 C2210 1.348 . S
C2213 C2215 1.353 . S
C2213 H2269 0.929 . S
C2214 C2210 1.356 . S
C2214 C2211 1.358 . S
C2214 H2270 0.930 . S
C2215 N2212 1.314 . S
C2215 C2213 1.353 . S
C2215 H2271 0.930 . S
C2216 N2217 1.314 . S
C2216 C2221 1.353 . S
C2216 H2222 0.930 . S
N2217 Li2200 1.990 . S
N2217 C2216 1.314 . S
N2217 C2219 1.279 . S
C2218 C2219 1.358 . S
C2218 C2220 1.356 . S
C2218 H2272 0.930 . S
C2219 N2217 1.279 . S
C2219 C2218 1.358 . S
C2219 H2223 0.930 . S
C2220 C2218 1.356 . S
C2220 C2221 1.348 . S
C2221 C2216 1.353 . S
C2221 C2220 1.348 . S
C2221 H2273 0.929 . S
H2222 C2216 0.930 . S
H2223 C2219 0.930 . S
C2224 N2225 1.314 . S
C2224 C2226 1.353 . S
C2224 H2230 0.930 . S
N2225 Li2201 1.990 . S
N2225 C2224 1.314 . S
N2225 C2228 1.279 . S
C2226 C2224 1.353 . S
C2226 C2229 1.348 . S
C2226 H2274 0.929 . S
C2227 C2228 1.358 . S
C2227 C2229 1.356 . S
C2227 H2275 0.930 . S
C2228 N2225 1.279 . S
C2228 C2227 1.358 . S
C2228 H2231 0.930 . S
C2229 C2226 1.348 . S
C2229 C2227 1.356 . S
H2230 C2224 0.930 . S
H2231 C2228 0.930 . S
C2232 C2234 1.348 . S
C2232 C2235 1.356 . S
C2232 O2262 1.325 . S
N2233 C2236 1.314 . S
N2233 C2237 1.279 . S
C2234 C2232 1.348 . S
C2234 C2236 1.353 . S
C2234 H2276 0.929 . S
C2235 C2232 1.356 . S
C2235 C2237 1.358 . S
C2235 H2277 0.930 . S
C2236 N2233 1.314 . S
C2236 C2234 1.353 . S
C2236 H2278 0.930 . S
C2237 N2233 1.279 . S
C2237 C2235 1.358 . S
C2237 H2279 0.930 . S
C2238 C2239 1.348 . S
C2238 C2240 1.356 . S
C2238 O2263 1.325 . S
C2239 C2238 1.348 . S
C2239 C2241 1.353 . S
C2239 H2280 0.929 . S
C2240 C2238 1.356 . S
C2240 C2242 1.358 . S
C2240 H2281 0.930 . S
C2241 C2239 1.353 . S
C2241 N2243 1.314 . S
C2241 H2282 0.930 . S
C2242 C2240 1.358 . S
C2242 N2243 1.279 . S
C2242 H2283 0.930 . S
N2243 C2241 1.314 . S
N2243 C2242 1.279 . S
C2244 C2246 1.353 . S
C2244 N2247 1.314 . S
C2244 H2250 0.930 . S
C2245 N2247 1.279 . S
C2245 C2248 1.358 . S
C2245 H2251 0.930 . S
C2246 C2244 1.353 . S
C2246 C2249 1.348 . S
C2246 H2284 0.929 . S
N2247 Li2202 1.990 . S
N2247 C2244 1.314 . S
N2247 C2245 1.279 . S
C2248 C2245 1.358 . S
C2248 C2249 1.356 . S
C2248 H2285 0.930 . S
C2249 C2246 1.348 . S
C2249 C2248 1.356 . S
H2250 C2244 0.930 . S
H2251 C2245 0.930 . S
C2252 N2253 1.314 . S
C2252 C2254 1.353 . S
C2252 H2258 0.930 . S
N2253 Li2203 1.990 . S
N2253 C2252 1.314 . S
N2253 C2256 1.279 . S
C2254 C2252 1.353 . S
C2254 C2257 1.348 . S
C2254 H2286 0.929 . S
C2255 C2256 1.358 . S
C2255 C2257 1.356 . S
C2255 H2287 0.930 . S
C2256 N2253 1.279 . S
C2256 C2255 1.358 . S
C2256 H2259 0.930 . S
C2257 C2254 1.348 . S
C2257 C2255 1.356 . S
H2258 C2252 0.930 . S
H2259 C2256 0.930 . S
O2260 Li2200 1.956 . S
O2260 Li2201 1.970 . S
O2260 Li2202 1.961 . S
O2260 C2204 1.325 . S
O2261 Li2200 1.970 . S
O2261 Li2201 1.956 . S
O2261 Li2203 1.961 . S
O2261 C2210 1.325 . S
O2262 Li2200 1.961 . S
O2262 Li2202 1.956 . S
O2262 Li2203 1.970 . S
O2262 C2232 1.325 . S
O2263 Li2201 1.961 . S
O2263 Li2202 1.970 . S
O2263 Li2203 1.956 . S
O2263 C2238 1.325 . S
H2264 C2206 0.929 . S
H2265 C2207 0.930 . S
H2266 C2208 0.930 . S
H2267 C2209 0.930 . S
H2268 C2211 0.930 . S
H2269 C2213 0.929 . S
H2270 C2214 0.930 . S
H2271 C2215 0.930 . S
H2272 C2218 0.930 . S
H2273 C2221 0.929 . S
H2274 C2226 0.929 . S
H2275 C2227 0.930 . S
H2276 C2234 0.929 . S
H2277 C2235 0.930 . S
H2278 C2236 0.930 . S
H2279 C2237 0.930 . S
H2280 C2239 0.929 . S
H2281 C2240 0.930 . S
H2282 C2241 0.930 . S
H2283 C2242 0.930 . S
H2284 C2246 0.929 . S
H2285 C2248 0.930 . S
H2286 C2254 0.929 . S
H2287 C2255 0.930 . S
Li2288 N2305 1.990 . S
Li2288 O2348 1.956 . S
Li2288 O2349 1.970 . S
Li2288 O2350 1.961 . S
Li2289 N2313 1.990 . S
Li2289 O2348 1.970 . S
Li2289 O2349 1.956 . S
Li2289 O2351 1.961 . S
Li2290 N2335 1.990 . S
Li2290 O2348 1.961 . S
Li2290 O2350 1.956 . S
Li2290 O2351 1.970 . S
Li2291 N2341 1.990 . S
Li2291 O2349 1.961 . S
Li2291 O2350 1.970 . S
Li2291 O2351 1.956 . S
C2292 C2294 1.348 . S
C2292 C2295 1.356 . S
C2292 O2348 1.325 . S
N2293 C2296 1.314 . S
N2293 C2297 1.279 . S
C2294 C2292 1.348 . S
C2294 C2296 1.353 . S
C2294 H2352 0.929 . S
C2295 C2292 1.356 . S
C2295 C2297 1.358 . S
C2295 H2353 0.930 . S
C2296 N2293 1.314 . S
C2296 C2294 1.353 . S
C2296 H2354 0.930 . S
C2297 N2293 1.279 . S
C2297 C2295 1.358 . S
C2297 H2355 0.930 . S
C2298 C2301 1.348 . S
C2298 C2302 1.356 . S
C2298 O2349 1.325 . S
C2299 N2300 1.279 . S
C2299 C2302 1.358 . S
C2299 H2356 0.930 . S
N2300 C2299 1.279 . S
N2300 C2303 1.314 . S
C2301 C2298 1.348 . S
C2301 C2303 1.353 . S
C2301 H2357 0.929 . S
C2302 C2298 1.356 . S
C2302 C2299 1.358 . S
C2302 H2358 0.930 . S
C2303 N2300 1.314 . S
C2303 C2301 1.353 . S
C2303 H2359 0.930 . S
C2304 N2305 1.314 . S
C2304 C2309 1.353 . S
C2304 H2310 0.930 . S
N2305 Li2288 1.990 . S
N2305 C2304 1.314 . S
N2305 C2307 1.279 . S
C2306 C2307 1.358 . S
C2306 C2308 1.356 . S
C2306 H2360 0.930 . S
C2307 N2305 1.279 . S
C2307 C2306 1.358 . S
C2307 H2311 0.930 . S
C2308 C2306 1.356 . S
C2308 C2309 1.348 . S
C2309 C2304 1.353 . S
C2309 C2308 1.348 . S
C2309 H2361 0.929 . S
H2310 C2304 0.930 . S
H2311 C2307 0.930 . S
C2312 N2313 1.314 . S
C2312 C2314 1.353 . S
C2312 H2318 0.930 . S
N2313 Li2289 1.990 . S
N2313 C2312 1.314 . S
N2313 C2316 1.279 . S
C2314 C2312 1.353 . S
C2314 C2317 1.348 . S
C2314 H2362 0.929 . S
C2315 C2316 1.358 . S
C2315 C2317 1.356 . S
C2315 H2363 0.930 . S
C2316 N2313 1.279 . S
C2316 C2315 1.358 . S
C2316 H2319 0.930 . S
C2317 C2314 1.348 . S
C2317 C2315 1.356 . S
H2318 C2312 0.930 . S
H2319 C2316 0.930 . S
C2320 C2322 1.348 . S
C2320 C2323 1.356 . S
C2320 O2350 1.325 . S
N2321 C2324 1.314 . S
N2321 C2325 1.279 . S
C2322 C2320 1.348 . S
C2322 C2324 1.353 . S
C2322 H2364 0.929 . S
C2323 C2320 1.356 . S
C2323 C2325 1.358 . S
C2323 H2365 0.930 . S
C2324 N2321 1.314 . S
C2324 C2322 1.353 . S
C2324 H2366 0.930 . S
C2325 N2321 1.279 . S
C2325 C2323 1.358 . S
C2325 H2367 0.930 . S
C2326 C2327 1.348 . S
C2326 C2328 1.356 . S
C2326 O2351 1.325 . S
C2327 C2326 1.348 . S
C2327 C2329 1.353 . S
C2327 H2368 0.929 . S
C2328 C2326 1.356 . S
C2328 C2330 1.358 . S
C2328 H2369 0.930 . S
C2329 C2327 1.353 . S
C2329 N2331 1.314 . S
C2329 H2370 0.930 . S
C2330 C2328 1.358 . S
C2330 N2331 1.279 . S
C2330 H2371 0.930 . S
N2331 C2329 1.314 . S
N2331 C2330 1.279 . S
C2332 C2334 1.353 . S
C2332 N2335 1.314 . S
C2332 H2338 0.930 . S
C2333 N2335 1.279 . S
C2333 C2336 1.358 . S
C2333 H2339 0.930 . S
C2334 C2332 1.353 . S
C2334 C2337 1.348 . S
C2334 H2372 0.929 . S
N2335 Li2290 1.990 . S
N2335 C2332 1.314 . S
N2335 C2333 1.279 . S
C2336 C2333 1.358 . S
C2336 C2337 1.356 . S
C2336 H2373 0.930 . S
C2337 C2334 1.348 . S
C2337 C2336 1.356 . S
H2338 C2332 0.930 . S
H2339 C2333 0.930 . S
C2340 N2341 1.314 . S
C2340 C2342 1.353 . S
C2340 H2346 0.930 . S
N2341 Li2291 1.990 . S
N2341 C2340 1.314 . S
N2341 C2344 1.279 . S
C2342 C2340 1.353 . S
C2342 C2345 1.348 . S
C2342 H2374 0.929 . S
C2343 C2344 1.358 . S
C2343 C2345 1.356 . S
C2343 H2375 0.930 . S
C2344 N2341 1.279 . S
C2344 C2343 1.358 . S
C2344 H2347 0.930 . S
C2345 C2342 1.348 . S
C2345 C2343 1.356 . S
H2346 C2340 0.930 . S
H2347 C2344 0.930 . S
O2348 Li2288 1.956 . S
O2348 Li2289 1.970 . S
O2348 Li2290 1.961 . S
O2348 C2292 1.325 . S
O2349 Li2288 1.970 . S
O2349 Li2289 1.956 . S
O2349 Li2291 1.961 . S
O2349 C2298 1.325 . S
O2350 Li2288 1.961 . S
O2350 Li2290 1.956 . S
O2350 Li2291 1.970 . S
O2350 C2320 1.325 . S
O2351 Li2289 1.961 . S
O2351 Li2290 1.970 . S
O2351 Li2291 1.956 . S
O2351 C2326 1.325 . S
H2352 C2294 0.929 . S
H2353 C2295 0.930 . S
H2354 C2296 0.930 . S
H2355 C2297 0.930 . S
H2356 C2299 0.930 . S
H2357 C2301 0.929 . S
H2358 C2302 0.930 . S
H2359 C2303 0.930 . S
H2360 C2306 0.930 . S
H2361 C2309 0.929 . S
H2362 C2314 0.929 . S
H2363 C2315 0.930 . S
H2364 C2322 0.929 . S
H2365 C2323 0.930 . S
H2366 C2324 0.930 . S
H2367 C2325 0.930 . S
H2368 C2327 0.929 . S
H2369 C2328 0.930 . S
H2370 C2329 0.930 . S
H2371 C2330 0.930 . S
H2372 C2334 0.929 . S
H2373 C2336 0.930 . S
H2374 C2342 0.929 . S
H2375 C2343 0.930 . S
Li2376 N2393 1.990 . S
Li2376 O2436 1.956 . S
Li2376 O2437 1.970 . S
Li2376 O2438 1.961 . S
Li2377 N2401 1.990 . S
Li2377 O2436 1.970 . S
Li2377 O2437 1.956 . S
Li2377 O2439 1.961 . S
Li2378 N2423 2.020 . S
Li2378 O2436 1.961 . S
Li2378 O2438 1.956 . S
Li2378 O2439 1.970 . S
Li2379 N2429 1.990 . S
Li2379 O2437 1.961 . S
Li2379 O2438 1.970 . S
Li2379 O2439 1.956 . S
C2380 C2382 1.348 . S
C2380 C2383 1.356 . S
C2380 O2436 1.325 . S
N2381 C2384 1.314 . S
N2381 C2385 1.279 . S
C2382 C2380 1.348 . S
C2382 C2384 1.353 1_554 S
C2382 H2440 0.929 . S
C2383 C2380 1.356 . S
C2383 C2385 1.358 1_554 S
C2383 H2441 0.930 . S
C2384 N2381 1.314 . S
C2384 C2382 1.353 1_556 S
C2384 H2442 0.930 . S
C2385 N2381 1.279 . S
C2385 C2383 1.358 1_556 S
C2385 H2443 0.930 . S
C2386 C2389 1.348 . S
C2386 C2390 1.356 . S
C2386 O2437 1.325 . S
C2387 N2388 1.279 . S
C2387 C2390 1.358 . S
C2387 H2444 0.930 . S
N2388 C2387 1.279 . S
N2388 C2391 1.314 . S
C2389 C2386 1.348 . S
C2389 C2391 1.353 . S
C2389 H2445 0.929 . S
C2390 C2386 1.356 . S
C2390 C2387 1.358 . S
C2390 H2446 0.930 . S
C2391 N2388 1.314 . S
C2391 C2389 1.353 . S
C2391 H2447 0.930 . S
C2392 N2393 1.314 . S
C2392 C2397 1.353 . S
C2392 H2398 0.930 . S
N2393 Li2376 1.990 . S
N2393 C2392 1.314 . S
N2393 C2395 1.279 . S
C2394 C2395 1.358 . S
C2394 C2396 1.356 . S
C2394 H2448 0.930 . S
C2395 N2393 1.279 . S
C2395 C2394 1.358 . S
C2395 H2399 0.930 . S
C2396 C2394 1.356 . S
C2396 C2397 1.348 . S
C2397 C2392 1.353 . S
C2397 C2396 1.348 . S
C2397 H2449 0.929 . S
H2398 C2392 0.930 . S
H2399 C2395 0.930 . S
C2400 N2401 1.314 . S
C2400 C2402 1.353 . S
C2400 H2406 0.930 . S
N2401 Li2377 1.990 . S
N2401 C2400 1.314 . S
N2401 C2404 1.279 . S
C2402 C2400 1.353 . S
C2402 C2405 1.348 . S
C2402 H2450 0.929 . S
C2403 C2404 1.358 . S
C2403 C2405 1.356 . S
C2403 H2451 0.930 . S
C2404 N2401 1.279 . S
C2404 C2403 1.358 . S
C2404 H2407 0.930 . S
C2405 C2402 1.348 . S
C2405 C2403 1.356 . S
H2406 C2400 0.930 . S
H2407 C2404 0.930 . S
C2408 C2410 1.348 . S
C2408 C2411 1.356 . S
C2408 O2438 1.325 . S
N2409 C2412 1.314 . S
N2409 C2413 1.279 . S
C2410 C2408 1.348 . S
C2410 C2412 1.353 . S
C2410 H2452 0.929 . S
C2411 C2408 1.356 . S
C2411 C2413 1.358 . S
C2411 H2453 0.930 . S
C2412 N2409 1.314 . S
C2412 C2410 1.353 . S
C2412 H2454 0.930 . S
C2413 N2409 1.279 . S
C2413 C2411 1.358 . S
C2413 H2455 0.930 . S
C2414 C2415 1.348 . S
C2414 C2416 1.356 . S
C2414 O2439 1.325 . S
C2415 C2414 1.348 . S
C2415 C2417 1.353 . S
C2415 H2456 0.929 . S
C2416 C2414 1.356 . S
C2416 C2418 1.358 . S
C2416 H2457 0.930 . S
C2417 C2415 1.353 . S
C2417 N2419 1.314 . S
C2417 H2458 0.930 . S
C2418 C2416 1.358 . S
C2418 N2419 1.279 . S
C2418 H2459 0.930 . S
N2419 C2417 1.314 . S
N2419 C2418 1.279 . S
C2420 C2422 1.353 . S
C2420 N2423 1.283 1_556 S
C2420 H2426 0.930 . S
C2421 N2423 1.276 1_556 S
C2421 C2424 1.358 . S
C2421 H2427 0.930 1_556 S
C2422 C2420 1.353 . S
C2422 C2425 1.348 . S
C2422 H2460 0.929 . S
N2423 Li2378 2.020 . S
N2423 C2420 1.283 1_554 S
N2423 C2421 1.276 1_554 S
C2424 C2421 1.358 . S
C2424 C2425 1.356 . S
C2424 H2461 0.930 . S
C2425 C2422 1.348 . S
C2425 C2424 1.356 . S
H2426 C2420 0.930 . S
H2427 C2421 0.930 1_554 S
C2428 N2429 1.314 . S
C2428 C2430 1.353 . S
C2428 H2434 0.930 . S
N2429 Li2379 1.990 . S
N2429 C2428 1.314 . S
N2429 C2432 1.279 . S
C2430 C2428 1.353 . S
C2430 C2433 1.348 . S
C2430 H2462 0.929 . S
C2431 C2432 1.358 . S
C2431 C2433 1.356 . S
C2431 H2463 0.930 . S
C2432 N2429 1.279 . S
C2432 C2431 1.358 . S
C2432 H2435 0.930 . S
C2433 C2430 1.348 . S
C2433 C2431 1.356 . S
H2434 C2428 0.930 . S
H2435 C2432 0.930 . S
O2436 Li2376 1.956 . S
O2436 Li2377 1.970 . S
O2436 Li2378 1.961 . S
O2436 C2380 1.325 . S
O2437 Li2376 1.970 . S
O2437 Li2377 1.956 . S
O2437 Li2379 1.961 . S
O2437 C2386 1.325 . S
O2438 Li2376 1.961 . S
O2438 Li2378 1.956 . S
O2438 Li2379 1.970 . S
O2438 C2408 1.325 . S
O2439 Li2377 1.961 . S
O2439 Li2378 1.970 . S
O2439 Li2379 1.956 . S
O2439 C2414 1.325 . S
H2440 C2382 0.929 . S
H2441 C2383 0.930 . S
H2442 C2384 0.930 . S
H2443 C2385 0.930 . S
H2444 C2387 0.930 . S
H2445 C2389 0.929 . S
H2446 C2390 0.930 . S
H2447 C2391 0.930 . S
H2448 C2394 0.930 . S
H2449 C2397 0.929 . S
H2450 C2402 0.929 . S
H2451 C2403 0.930 . S
H2452 C2410 0.929 . S
H2453 C2411 0.930 . S
H2454 C2412 0.930 . S
H2455 C2413 0.930 . S
H2456 C2415 0.929 . S
H2457 C2416 0.930 . S
H2458 C2417 0.930 . S
H2459 C2418 0.930 . S
H2460 C2422 0.929 . S
H2461 C2424 0.930 . S
H2462 C2430 0.929 . S
H2463 C2431 0.930 . S
Li2464 N2481 2.020 . S
Li2464 O2524 1.956 . S
Li2464 O2525 1.970 . S
Li2464 O2526 1.961 . S
Li2465 N2489 1.990 . S
Li2465 O2524 1.970 . S
Li2465 O2525 1.956 . S
Li2465 O2527 1.961 . S
Li2466 N2511 1.990 . S
Li2466 O2524 1.961 . S
Li2466 O2526 1.956 . S
Li2466 O2527 1.970 . S
Li2467 N2517 1.990 . S
Li2467 O2525 1.961 . S
Li2467 O2526 1.970 . S
Li2467 O2527 1.956 . S
C2468 C2470 1.348 . S
C2468 C2471 1.356 . S
C2468 O2524 1.325 . S
N2469 C2472 1.314 . S
N2469 C2473 1.279 . S
C2470 C2468 1.348 . S
C2470 C2472 1.353 . S
C2470 H2528 0.929 . S
C2471 C2468 1.356 . S
C2471 C2473 1.358 . S
C2471 H2529 0.930 . S
C2472 N2469 1.314 . S
C2472 C2470 1.353 . S
C2472 H2530 0.930 . S
C2473 N2469 1.279 . S
C2473 C2471 1.358 . S
C2473 H2531 0.930 . S
C2474 C2477 1.348 . S
C2474 C2478 1.356 . S
C2474 O2525 1.325 . S
C2475 N2476 1.279 . S
C2475 C2478 1.358 . S
C2475 H2532 0.930 . S
N2476 C2475 1.279 . S
N2476 C2479 1.314 . S
C2477 C2474 1.348 . S
C2477 C2479 1.353 . S
C2477 H2533 0.929 . S
C2478 C2474 1.356 . S
C2478 C2475 1.358 . S
C2478 H2534 0.930 . S
C2479 N2476 1.314 . S
C2479 C2477 1.353 . S
C2479 H2535 0.930 . S
C2480 N2481 1.283 1_556 S
C2480 C2485 1.353 . S
C2480 H2486 0.930 . S
N2481 Li2464 2.020 . S
N2481 C2480 1.283 1_554 S
N2481 C2483 1.276 1_554 S
C2482 C2483 1.358 . S
C2482 C2484 1.356 . S
C2482 H2536 0.930 . S
C2483 N2481 1.276 1_556 S
C2483 C2482 1.358 . S
C2483 H2487 0.930 1_556 S
C2484 C2482 1.356 . S
C2484 C2485 1.348 . S
C2485 C2480 1.353 . S
C2485 C2484 1.348 . S
C2485 H2537 0.929 . S
H2486 C2480 0.930 . S
H2487 C2483 0.930 1_554 S
C2488 N2489 1.314 . S
C2488 C2490 1.353 . S
C2488 H2494 0.930 . S
N2489 Li2465 1.990 . S
N2489 C2488 1.314 . S
N2489 C2492 1.279 . S
C2490 C2488 1.353 . S
C2490 C2493 1.348 . S
C2490 H2538 0.929 . S
C2491 C2492 1.358 . S
C2491 C2493 1.356 . S
C2491 H2539 0.930 . S
C2492 N2489 1.279 . S
C2492 C2491 1.358 . S
C2492 H2495 0.930 . S
C2493 C2490 1.348 . S
C2493 C2491 1.356 . S
H2494 C2488 0.930 . S
H2495 C2492 0.930 . S
C2496 C2498 1.348 . S
C2496 C2499 1.356 . S
C2496 O2526 1.325 . S
N2497 C2500 1.314 . S
N2497 C2501 1.279 . S
C2498 C2496 1.348 . S
C2498 C2500 1.353 1_554 S
C2498 H2540 0.929 . S
C2499 C2496 1.356 . S
C2499 C2501 1.358 1_554 S
C2499 H2541 0.930 . S
C2500 N2497 1.314 . S
C2500 C2498 1.353 1_556 S
C2500 H2542 0.930 . S
C2501 N2497 1.279 . S
C2501 C2499 1.358 1_556 S
C2501 H2543 0.930 . S
C2502 C2503 1.348 . S
C2502 C2504 1.356 . S
C2502 O2527 1.325 . S
C2503 C2502 1.348 . S
C2503 C2505 1.353 . S
C2503 H2544 0.929 . S
C2504 C2502 1.356 . S
C2504 C2506 1.358 . S
C2504 H2545 0.930 . S
C2505 C2503 1.353 . S
C2505 N2507 1.314 . S
C2505 H2546 0.930 . S
C2506 C2504 1.358 . S
C2506 N2507 1.279 . S
C2506 H2547 0.930 . S
N2507 C2505 1.314 . S
N2507 C2506 1.279 . S
C2508 C2510 1.353 . S
C2508 N2511 1.314 . S
C2508 H2514 0.930 . S
C2509 N2511 1.279 . S
C2509 C2512 1.358 . S
C2509 H2515 0.930 . S
C2510 C2508 1.353 . S
C2510 C2513 1.348 . S
C2510 H2548 0.929 . S
N2511 Li2466 1.990 . S
N2511 C2508 1.314 . S
N2511 C2509 1.279 . S
C2512 C2509 1.358 . S
C2512 C2513 1.356 . S
C2512 H2549 0.930 . S
C2513 C2510 1.348 . S
C2513 C2512 1.356 . S
H2514 C2508 0.930 . S
H2515 C2509 0.930 . S
C2516 N2517 1.314 . S
C2516 C2518 1.353 . S
C2516 H2522 0.930 . S
N2517 Li2467 1.990 . S
N2517 C2516 1.314 . S
N2517 C2520 1.279 . S
C2518 C2516 1.353 . S
C2518 C2521 1.348 . S
C2518 H2550 0.929 . S
C2519 C2520 1.358 . S
C2519 C2521 1.356 . S
C2519 H2551 0.930 . S
C2520 N2517 1.279 . S
C2520 C2519 1.358 . S
C2520 H2523 0.930 . S
C2521 C2518 1.348 . S
C2521 C2519 1.356 . S
H2522 C2516 0.930 . S
H2523 C2520 0.930 . S
O2524 Li2464 1.956 . S
O2524 Li2465 1.970 . S
O2524 Li2466 1.961 . S
O2524 C2468 1.325 . S
O2525 Li2464 1.970 . S
O2525 Li2465 1.956 . S
O2525 Li2467 1.961 . S
O2525 C2474 1.325 . S
O2526 Li2464 1.961 . S
O2526 Li2466 1.956 . S
O2526 Li2467 1.970 . S
O2526 C2496 1.325 . S
O2527 Li2465 1.961 . S
O2527 Li2466 1.970 . S
O2527 Li2467 1.956 . S
O2527 C2502 1.325 . S
H2528 C2470 0.929 . S
H2529 C2471 0.930 . S
H2530 C2472 0.930 . S
H2531 C2473 0.930 . S
H2532 C2475 0.930 . S
H2533 C2477 0.929 . S
H2534 C2478 0.930 . S
H2535 C2479 0.930 . S
H2536 C2482 0.930 . S
H2537 C2485 0.929 . S
H2538 C2490 0.929 . S
H2539 C2491 0.930 . S
H2540 C2498 0.929 . S
H2541 C2499 0.930 . S
H2542 C2500 0.930 . S
H2543 C2501 0.930 . S
H2544 C2503 0.929 . S
H2545 C2504 0.930 . S
H2546 C2505 0.930 . S
H2547 C2506 0.930 . S
H2548 C2510 0.929 . S
H2549 C2512 0.930 . S
H2550 C2518 0.929 . S
H2551 C2519 0.930 . S
Li2552 N2569 1.990 . S
Li2552 O2612 1.956 . S
Li2552 O2613 1.970 . S
Li2552 O2614 1.961 . S
Li2553 N2577 1.990 . S
Li2553 O2612 1.970 . S
Li2553 O2613 1.956 . S
Li2553 O2615 1.961 . S
Li2554 N2599 1.990 . S
Li2554 O2612 1.961 . S
Li2554 O2614 1.956 . S
Li2554 O2615 1.970 . S
Li2555 N2605 2.020 . S
Li2555 O2613 1.961 . S
Li2555 O2614 1.970 . S
Li2555 O2615 1.956 . S
C2556 C2558 1.348 . S
C2556 C2559 1.356 . S
C2556 O2612 1.325 . S
N2557 C2560 1.314 . S
N2557 C2561 1.279 . S
C2558 C2556 1.348 . S
C2558 C2560 1.353 . S
C2558 H2616 0.929 . S
C2559 C2556 1.356 . S
C2559 C2561 1.358 . S
C2559 H2617 0.930 . S
C2560 N2557 1.314 . S
C2560 C2558 1.353 . S
C2560 H2618 0.930 . S
C2561 N2557 1.279 . S
C2561 C2559 1.358 . S
C2561 H2619 0.930 . S
C2562 C2565 1.348 . S
C2562 C2566 1.356 . S
C2562 O2613 1.325 . S
C2563 N2564 1.279 . S
C2563 C2566 1.358 1_556 S
C2563 H2620 0.930 . S
N2564 C2563 1.279 . S
N2564 C2567 1.314 . S
C2565 C2562 1.348 . S
C2565 C2567 1.353 1_554 S
C2565 H2621 0.929 . S
C2566 C2562 1.356 . S
C2566 C2563 1.358 1_554 S
C2566 H2622 0.930 . S
C2567 N2564 1.314 . S
C2567 C2565 1.353 1_556 S
C2567 H2623 0.930 . S
C2568 N2569 1.314 . S
C2568 C2573 1.353 . S
C2568 H2574 0.930 . S
N2569 Li2552 1.990 . S
N2569 C2568 1.314 . S
N2569 C2571 1.279 . S
C2570 C2571 1.358 . S
C2570 C2572 1.356 . S
C2570 H2624 0.930 . S
C2571 N2569 1.279 . S
C2571 C2570 1.358 . S
C2571 H2575 0.930 . S
C2572 C2570 1.356 . S
C2572 C2573 1.348 . S
C2573 C2568 1.353 . S
C2573 C2572 1.348 . S
C2573 H2625 0.929 . S
H2574 C2568 0.930 . S
H2575 C2571 0.930 . S
C2576 N2577 1.314 . S
C2576 C2578 1.353 . S
C2576 H2582 0.930 . S
N2577 Li2553 1.990 . S
N2577 C2576 1.314 . S
N2577 C2580 1.279 . S
C2578 C2576 1.353 . S
C2578 C2581 1.348 . S
C2578 H2626 0.929 . S
C2579 C2580 1.358 . S
C2579 C2581 1.356 . S
C2579 H2627 0.930 . S
C2580 N2577 1.279 . S
C2580 C2579 1.358 . S
C2580 H2583 0.930 . S
C2581 C2578 1.348 . S
C2581 C2579 1.356 . S
H2582 C2576 0.930 . S
H2583 C2580 0.930 . S
C2584 C2586 1.348 . S
C2584 C2587 1.356 . S
C2584 O2614 1.325 . S
N2585 C2588 1.314 . S
N2585 C2589 1.279 . S
C2586 C2584 1.348 . S
C2586 C2588 1.353 . S
C2586 H2628 0.929 . S
C2587 C2584 1.356 . S
C2587 C2589 1.358 . S
C2587 H2629 0.930 . S
C2588 N2585 1.314 . S
C2588 C2586 1.353 . S
C2588 H2630 0.930 . S
C2589 N2585 1.279 . S
C2589 C2587 1.358 . S
C2589 H2631 0.930 . S
C2590 C2591 1.348 . S
C2590 C2592 1.356 . S
C2590 O2615 1.325 . S
C2591 C2590 1.348 . S
C2591 C2593 1.353 . S
C2591 H2632 0.929 . S
C2592 C2590 1.356 . S
C2592 C2594 1.358 . S
C2592 H2633 0.930 . S
C2593 C2591 1.353 . S
C2593 N2595 1.314 . S
C2593 H2634 0.930 . S
C2594 C2592 1.358 . S
C2594 N2595 1.279 . S
C2594 H2635 0.930 . S
N2595 C2593 1.314 . S
N2595 C2594 1.279 . S
C2596 C2598 1.353 . S
C2596 N2599 1.314 . S
C2596 H2602 0.930 . S
C2597 N2599 1.279 . S
C2597 C2600 1.358 . S
C2597 H2603 0.930 . S
C2598 C2596 1.353 . S
C2598 C2601 1.348 . S
C2598 H2636 0.929 . S
N2599 Li2554 1.990 . S
N2599 C2596 1.314 . S
N2599 C2597 1.279 . S
C2600 C2597 1.358 . S
C2600 C2601 1.356 . S
C2600 H2637 0.930 . S
C2601 C2598 1.348 . S
C2601 C2600 1.356 . S
H2602 C2596 0.930 . S
H2603 C2597 0.930 . S
C2604 N2605 1.283 1_556 S
C2604 C2606 1.353 . S
C2604 H2610 0.930 . S
N2605 Li2555 2.020 . S
N2605 C2604 1.283 1_554 S
N2605 C2608 1.276 1_554 S
C2606 C2604 1.353 . S
C2606 C2609 1.348 . S
C2606 H2638 0.929 . S
C2607 C2608 1.358 . S
C2607 C2609 1.356 . S
C2607 H2639 0.930 . S
C2608 N2605 1.276 1_556 S
C2608 C2607 1.358 . S
C2608 H2611 0.930 1_556 S
C2609 C2606 1.348 . S
C2609 C2607 1.356 . S
H2610 C2604 0.930 . S
H2611 C2608 0.930 1_554 S
O2612 Li2552 1.956 . S
O2612 Li2553 1.970 . S
O2612 Li2554 1.961 . S
O2612 C2556 1.325 . S
O2613 Li2552 1.970 . S
O2613 Li2553 1.956 . S
O2613 Li2555 1.961 . S
O2613 C2562 1.325 . S
O2614 Li2552 1.961 . S
O2614 Li2554 1.956 . S
O2614 Li2555 1.970 . S
O2614 C2584 1.325 . S
O2615 Li2553 1.961 . S
O2615 Li2554 1.970 . S
O2615 Li2555 1.956 . S
O2615 C2590 1.325 . S
H2616 C2558 0.929 . S
H2617 C2559 0.930 . S
H2618 C2560 0.930 . S
H2619 C2561 0.930 . S
H2620 C2563 0.930 . S
H2621 C2565 0.929 . S
H2622 C2566 0.930 . S
H2623 C2567 0.930 . S
H2624 C2570 0.930 . S
H2625 C2573 0.929 . S
H2626 C2578 0.929 . S
H2627 C2579 0.930 . S
H2628 C2586 0.929 . S
H2629 C2587 0.930 . S
H2630 C2588 0.930 . S
H2631 C2589 0.930 . S
H2632 C2591 0.929 . S
H2633 C2592 0.930 . S
H2634 C2593 0.930 . S
H2635 C2594 0.930 . S
H2636 C2598 0.929 . S
H2637 C2600 0.930 . S
H2638 C2606 0.929 . S
H2639 C2607 0.930 . S
Li2640 N2657 1.990 . S
Li2640 O2700 1.956 . S
Li2640 O2701 1.970 . S
Li2640 O2702 1.961 . S
Li2641 N2665 1.990 . S
Li2641 O2700 1.970 . S
Li2641 O2701 1.956 . S
Li2641 O2703 1.961 . S
Li2642 N2687 1.990 . S
Li2642 O2700 1.961 . S
Li2642 O2702 1.956 . S
Li2642 O2703 1.970 . S
Li2643 N2693 1.990 . S
Li2643 O2701 1.961 . S
Li2643 O2702 1.970 . S
Li2643 O2703 1.956 . S
C2644 C2646 1.348 . S
C2644 C2647 1.356 . S
C2644 O2700 1.325 . S
N2645 C2648 1.314 . S
N2645 C2649 1.279 . S
C2646 C2644 1.348 . S
C2646 C2648 1.353 . S
C2646 H2704 0.929 . S
C2647 C2644 1.356 . S
C2647 C2649 1.358 . S
C2647 H2705 0.930 . S
C2648 N2645 1.314 . S
C2648 C2646 1.353 . S
C2648 H2706 0.930 . S
C2649 N2645 1.279 . S
C2649 C2647 1.358 . S
C2649 H2707 0.930 . S
C2650 C2653 1.348 . S
C2650 C2654 1.356 . S
C2650 O2701 1.325 . S
C2651 N2652 1.279 . S
C2651 C2654 1.358 . S
C2651 H2708 0.930 . S
N2652 C2651 1.279 . S
N2652 C2655 1.314 . S
C2653 C2650 1.348 . S
C2653 C2655 1.353 . S
C2653 H2709 0.929 . S
C2654 C2650 1.356 . S
C2654 C2651 1.358 . S
C2654 H2710 0.930 . S
C2655 N2652 1.314 . S
C2655 C2653 1.353 . S
C2655 H2711 0.930 . S
C2656 N2657 1.314 . S
C2656 C2661 1.353 . S
C2656 H2662 0.930 . S
N2657 Li2640 1.990 . S
N2657 C2656 1.314 . S
N2657 C2659 1.279 . S
C2658 C2659 1.358 . S
C2658 C2660 1.356 . S
C2658 H2712 0.930 . S
C2659 N2657 1.279 . S
C2659 C2658 1.358 . S
C2659 H2663 0.930 . S
C2660 C2658 1.356 . S
C2660 C2661 1.348 . S
C2661 C2656 1.353 . S
C2661 C2660 1.348 . S
C2661 H2713 0.929 . S
H2662 C2656 0.930 . S
H2663 C2659 0.930 . S
C2664 N2665 1.314 . S
C2664 C2666 1.353 . S
C2664 H2670 0.930 . S
N2665 Li2641 1.990 . S
N2665 C2664 1.314 . S
N2665 C2668 1.279 . S
C2666 C2664 1.353 . S
C2666 C2669 1.348 . S
C2666 H2714 0.929 . S
C2667 C2668 1.358 . S
C2667 C2669 1.356 . S
C2667 H2715 0.930 . S
C2668 N2665 1.279 . S
C2668 C2667 1.358 . S
C2668 H2671 0.930 . S
C2669 C2666 1.348 . S
C2669 C2667 1.356 . S
H2670 C2664 0.930 . S
H2671 C2668 0.930 . S
C2672 C2674 1.348 . S
C2672 C2675 1.356 . S
C2672 O2702 1.325 . S
N2673 C2676 1.314 . S
N2673 C2677 1.279 . S
C2674 C2672 1.348 . S
C2674 C2676 1.353 . S
C2674 H2716 0.929 . S
C2675 C2672 1.356 . S
C2675 C2677 1.358 . S
C2675 H2717 0.930 . S
C2676 N2673 1.314 . S
C2676 C2674 1.353 . S
C2676 H2718 0.930 . S
C2677 N2673 1.279 . S
C2677 C2675 1.358 . S
C2677 H2719 0.930 . S
C2678 C2679 1.348 . S
C2678 C2680 1.356 . S
C2678 O2703 1.325 . S
C2679 C2678 1.348 . S
C2679 C2681 1.353 . S
C2679 H2720 0.929 . S
C2680 C2678 1.356 . S
C2680 C2682 1.358 . S
C2680 H2721 0.930 . S
C2681 C2679 1.353 . S
C2681 N2683 1.314 . S
C2681 H2722 0.930 . S
C2682 C2680 1.358 . S
C2682 N2683 1.279 . S
C2682 H2723 0.930 . S
N2683 C2681 1.314 . S
N2683 C2682 1.279 . S
C2684 C2686 1.353 . S
C2684 N2687 1.314 . S
C2684 H2690 0.930 . S
C2685 N2687 1.279 . S
C2685 C2688 1.358 . S
C2685 H2691 0.930 . S
C2686 C2684 1.353 . S
C2686 C2689 1.348 . S
C2686 H2724 0.929 . S
N2687 Li2642 1.990 . S
N2687 C2684 1.314 . S
N2687 C2685 1.279 . S
C2688 C2685 1.358 . S
C2688 C2689 1.356 . S
C2688 H2725 0.930 . S
C2689 C2686 1.348 . S
C2689 C2688 1.356 . S
H2690 C2684 0.930 . S
H2691 C2685 0.930 . S
C2692 N2693 1.314 . S
C2692 C2694 1.353 . S
C2692 H2698 0.930 . S
N2693 Li2643 1.990 . S
N2693 C2692 1.314 . S
N2693 C2696 1.279 . S
C2694 C2692 1.353 . S
C2694 C2697 1.348 . S
C2694 H2726 0.929 . S
C2695 C2696 1.358 . S
C2695 C2697 1.356 . S
C2695 H2727 0.930 . S
C2696 N2693 1.279 . S
C2696 C2695 1.358 . S
C2696 H2699 0.930 . S
C2697 C2694 1.348 . S
C2697 C2695 1.356 . S
H2698 C2692 0.930 . S
H2699 C2696 0.930 . S
O2700 Li2640 1.956 . S
O2700 Li2641 1.970 . S
O2700 Li2642 1.961 . S
O2700 C2644 1.325 . S
O2701 Li2640 1.970 . S
O2701 Li2641 1.956 . S
O2701 Li2643 1.961 . S
O2701 C2650 1.325 . S
O2702 Li2640 1.961 . S
O2702 Li2642 1.956 . S
O2702 Li2643 1.970 . S
O2702 C2672 1.325 . S
O2703 Li2641 1.961 . S
O2703 Li2642 1.970 . S
O2703 Li2643 1.956 . S
O2703 C2678 1.325 . S
H2704 C2646 0.929 . S
H2705 C2647 0.930 . S
H2706 C2648 0.930 . S
H2707 C2649 0.930 . S
H2708 C2651 0.930 . S
H2709 C2653 0.929 . S
H2710 C2654 0.930 . S
H2711 C2655 0.930 . S
H2712 C2658 0.930 . S
H2713 C2661 0.929 . S
H2714 C2666 0.929 . S
H2715 C2667 0.930 . S
H2716 C2674 0.929 . S
H2717 C2675 0.930 . S
H2718 C2676 0.930 . S
H2719 C2677 0.930 . S
H2720 C2679 0.929 . S
H2721 C2680 0.930 . S
H2722 C2681 0.930 . S
H2723 C2682 0.930 . S
H2724 C2686 0.929 . S
H2725 C2688 0.930 . S
H2726 C2694 0.929 . S
H2727 C2695 0.930 . S
Li2728 N2745 1.990 . S
Li2728 O2788 1.956 . S
Li2728 O2789 1.970 . S
Li2728 O2790 1.961 . S
Li2729 N2753 1.990 . S
Li2729 O2788 1.970 . S
Li2729 O2789 1.956 . S
Li2729 O2791 1.961 . S
Li2730 N2775 1.990 . S
Li2730 O2788 1.961 . S
Li2730 O2790 1.956 . S
Li2730 O2791 1.970 . S
Li2731 N2781 1.990 . S
Li2731 O2789 1.961 . S
Li2731 O2790 1.970 . S
Li2731 O2791 1.956 . S
C2732 C2734 1.348 . S
C2732 C2735 1.356 . S
C2732 O2788 1.325 . S
N2733 C2736 1.314 . S
N2733 C2737 1.279 . S
C2734 C2732 1.348 . S
C2734 C2736 1.353 . S
C2734 H2792 0.929 . S
C2735 C2732 1.356 . S
C2735 C2737 1.358 . S
C2735 H2793 0.930 . S
C2736 N2733 1.314 . S
C2736 C2734 1.353 . S
C2736 H2794 0.930 . S
C2737 N2733 1.279 . S
C2737 C2735 1.358 . S
C2737 H2795 0.930 . S
C2738 C2741 1.348 . S
C2738 C2742 1.356 . S
C2738 O2789 1.325 . S
C2739 N2740 1.279 . S
C2739 C2742 1.358 . S
C2739 H2796 0.930 . S
N2740 C2739 1.279 . S
N2740 C2743 1.314 . S
C2741 C2738 1.348 . S
C2741 C2743 1.353 . S
C2741 H2797 0.929 . S
C2742 C2738 1.356 . S
C2742 C2739 1.358 . S
C2742 H2798 0.930 . S
C2743 N2740 1.314 . S
C2743 C2741 1.353 . S
C2743 H2799 0.930 . S
C2744 N2745 1.314 . S
C2744 C2749 1.353 . S
C2744 H2750 0.930 . S
N2745 Li2728 1.990 . S
N2745 C2744 1.314 . S
N2745 C2747 1.279 . S
C2746 C2747 1.358 . S
C2746 C2748 1.356 . S
C2746 H2800 0.930 . S
C2747 N2745 1.279 . S
C2747 C2746 1.358 . S
C2747 H2751 0.930 . S
C2748 C2746 1.356 . S
C2748 C2749 1.348 . S
C2749 C2744 1.353 . S
C2749 C2748 1.348 . S
C2749 H2801 0.929 . S
H2750 C2744 0.930 . S
H2751 C2747 0.930 . S
C2752 N2753 1.314 . S
C2752 C2754 1.353 . S
C2752 H2758 0.930 . S
N2753 Li2729 1.990 . S
N2753 C2752 1.314 . S
N2753 C2756 1.279 . S
C2754 C2752 1.353 . S
C2754 C2757 1.348 . S
C2754 H2802 0.929 . S
C2755 C2756 1.358 . S
C2755 C2757 1.356 . S
C2755 H2803 0.930 . S
C2756 N2753 1.279 . S
C2756 C2755 1.358 . S
C2756 H2759 0.930 . S
C2757 C2754 1.348 . S
C2757 C2755 1.356 . S
H2758 C2752 0.930 . S
H2759 C2756 0.930 . S
C2760 C2762 1.348 . S
C2760 C2763 1.356 . S
C2760 O2790 1.325 . S
N2761 C2764 1.314 . S
N2761 C2765 1.279 . S
C2762 C2760 1.348 . S
C2762 C2764 1.353 . S
C2762 H2804 0.929 . S
C2763 C2760 1.356 . S
C2763 C2765 1.358 . S
C2763 H2805 0.930 . S
C2764 N2761 1.314 . S
C2764 C2762 1.353 . S
C2764 H2806 0.930 . S
C2765 N2761 1.279 . S
C2765 C2763 1.358 . S
C2765 H2807 0.930 . S
C2766 C2767 1.348 . S
C2766 C2768 1.356 . S
C2766 O2791 1.325 . S
C2767 C2766 1.348 . S
C2767 C2769 1.353 . S
C2767 H2808 0.929 . S
C2768 C2766 1.356 . S
C2768 C2770 1.358 . S
C2768 H2809 0.930 . S
C2769 C2767 1.353 . S
C2769 N2771 1.314 . S
C2769 H2810 0.930 . S
C2770 C2768 1.358 . S
C2770 N2771 1.279 . S
C2770 H2811 0.930 . S
N2771 C2769 1.314 . S
N2771 C2770 1.279 . S
C2772 C2774 1.353 . S
C2772 N2775 1.314 . S
C2772 H2778 0.930 . S
C2773 N2775 1.279 . S
C2773 C2776 1.358 . S
C2773 H2779 0.930 . S
C2774 C2772 1.353 . S
C2774 C2777 1.348 . S
C2774 H2812 0.929 . S
N2775 Li2730 1.990 . S
N2775 C2772 1.314 . S
N2775 C2773 1.279 . S
C2776 C2773 1.358 . S
C2776 C2777 1.356 . S
C2776 H2813 0.930 . S
C2777 C2774 1.348 . S
C2777 C2776 1.356 . S
H2778 C2772 0.930 . S
H2779 C2773 0.930 . S
C2780 N2781 1.314 . S
C2780 C2782 1.353 . S
C2780 H2786 0.930 . S
N2781 Li2731 1.990 . S
N2781 C2780 1.314 . S
N2781 C2784 1.279 . S
C2782 C2780 1.353 . S
C2782 C2785 1.348 . S
C2782 H2814 0.929 . S
C2783 C2784 1.358 . S
C2783 C2785 1.356 . S
C2783 H2815 0.930 . S
C2784 N2781 1.279 . S
C2784 C2783 1.358 . S
C2784 H2787 0.930 . S
C2785 C2782 1.348 . S
C2785 C2783 1.356 . S
H2786 C2780 0.930 . S
H2787 C2784 0.930 . S
O2788 Li2728 1.956 . S
O2788 Li2729 1.970 . S
O2788 Li2730 1.961 . S
O2788 C2732 1.325 . S
O2789 Li2728 1.970 . S
O2789 Li2729 1.956 . S
O2789 Li2731 1.961 . S
O2789 C2738 1.325 . S
O2790 Li2728 1.961 . S
O2790 Li2730 1.956 . S
O2790 Li2731 1.970 . S
O2790 C2760 1.325 . S
O2791 Li2729 1.961 . S
O2791 Li2730 1.970 . S
O2791 Li2731 1.956 . S
O2791 C2766 1.325 . S
H2792 C2734 0.929 . S
H2793 C2735 0.930 . S
H2794 C2736 0.930 . S
H2795 C2737 0.930 . S
H2796 C2739 0.930 . S
H2797 C2741 0.929 . S
H2798 C2742 0.930 . S
H2799 C2743 0.930 . S
H2800 C2746 0.930 . S
H2801 C2749 0.929 . S
H2802 C2754 0.929 . S
H2803 C2755 0.930 . S
H2804 C2762 0.929 . S
H2805 C2763 0.930 . S
H2806 C2764 0.930 . S
H2807 C2765 0.930 . S
H2808 C2767 0.929 . S
H2809 C2768 0.930 . S
H2810 C2769 0.930 . S
H2811 C2770 0.930 . S
H2812 C2774 0.929 . S
H2813 C2776 0.930 . S
H2814 C2782 0.929 . S
H2815 C2783 0.930 . S
Li2816 N2833 1.990 . S
Li2816 O2876 1.956 . S
Li2816 O2877 1.970 . S
Li2816 O2878 1.961 . S
Li2817 N2841 1.990 . S
Li2817 O2876 1.970 . S
Li2817 O2877 1.956 . S
Li2817 O2879 1.961 . S
Li2818 N2863 1.990 . S
Li2818 O2876 1.961 . S
Li2818 O2878 1.956 . S
Li2818 O2879 1.970 . S
Li2819 N2869 1.990 . S
Li2819 O2877 1.961 . S
Li2819 O2878 1.970 . S
Li2819 O2879 1.956 . S
C2820 C2822 1.348 . S
C2820 C2823 1.356 . S
C2820 O2876 1.325 . S
N2821 C2824 1.314 . S
N2821 C2825 1.279 . S
C2822 C2820 1.348 . S
C2822 C2824 1.353 . S
C2822 H2880 0.929 . S
C2823 C2820 1.356 . S
C2823 C2825 1.358 . S
C2823 H2881 0.930 . S
C2824 N2821 1.314 . S
C2824 C2822 1.353 . S
C2824 H2882 0.930 . S
C2825 N2821 1.279 . S
C2825 C2823 1.358 . S
C2825 H2883 0.930 . S
C2826 C2829 1.348 . S
C2826 C2830 1.356 . S
C2826 O2877 1.325 . S
C2827 N2828 1.279 . S
C2827 C2830 1.358 . S
C2827 H2884 0.930 . S
N2828 C2827 1.279 . S
N2828 C2831 1.314 . S
C2829 C2826 1.348 . S
C2829 C2831 1.353 . S
C2829 H2885 0.929 . S
C2830 C2826 1.356 . S
C2830 C2827 1.358 . S
C2830 H2886 0.930 . S
C2831 N2828 1.314 . S
C2831 C2829 1.353 . S
C2831 H2887 0.930 . S
C2832 N2833 1.314 . S
C2832 C2837 1.353 . S
C2832 H2838 0.930 . S
N2833 Li2816 1.990 . S
N2833 C2832 1.314 . S
N2833 C2835 1.279 . S
C2834 C2835 1.358 . S
C2834 C2836 1.356 . S
C2834 H2888 0.930 . S
C2835 N2833 1.279 . S
C2835 C2834 1.358 . S
C2835 H2839 0.930 . S
C2836 C2834 1.356 . S
C2836 C2837 1.348 . S
C2837 C2832 1.353 . S
C2837 C2836 1.348 . S
C2837 H2889 0.929 . S
H2838 C2832 0.930 . S
H2839 C2835 0.930 . S
C2840 N2841 1.314 . S
C2840 C2842 1.353 . S
C2840 H2846 0.930 . S
N2841 Li2817 1.990 . S
N2841 C2840 1.314 . S
N2841 C2844 1.279 . S
C2842 C2840 1.353 . S
C2842 C2845 1.348 . S
C2842 H2890 0.929 . S
C2843 C2844 1.358 . S
C2843 C2845 1.356 . S
C2843 H2891 0.930 . S
C2844 N2841 1.279 . S
C2844 C2843 1.358 . S
C2844 H2847 0.930 . S
C2845 C2842 1.348 . S
C2845 C2843 1.356 . S
H2846 C2840 0.930 . S
H2847 C2844 0.930 . S
C2848 C2850 1.348 . S
C2848 C2851 1.356 . S
C2848 O2878 1.325 . S
N2849 C2852 1.314 . S
N2849 C2853 1.279 . S
C2850 C2848 1.348 . S
C2850 C2852 1.353 . S
C2850 H2892 0.929 . S
C2851 C2848 1.356 . S
C2851 C2853 1.358 . S
C2851 H2893 0.930 . S
C2852 N2849 1.314 . S
C2852 C2850 1.353 . S
C2852 H2894 0.930 . S
C2853 N2849 1.279 . S
C2853 C2851 1.358 . S
C2853 H2895 0.930 . S
C2854 C2855 1.348 . S
C2854 C2856 1.356 . S
C2854 O2879 1.325 . S
C2855 C2854 1.348 . S
C2855 C2857 1.353 . S
C2855 H2896 0.929 . S
C2856 C2854 1.356 . S
C2856 C2858 1.358 . S
C2856 H2897 0.930 . S
C2857 C2855 1.353 . S
C2857 N2859 1.314 . S
C2857 H2898 0.930 . S
C2858 C2856 1.358 . S
C2858 N2859 1.279 . S
C2858 H2899 0.930 . S
N2859 C2857 1.314 . S
N2859 C2858 1.279 . S
C2860 C2862 1.353 . S
C2860 N2863 1.314 . S
C2860 H2866 0.930 . S
C2861 N2863 1.279 . S
C2861 C2864 1.358 . S
C2861 H2867 0.930 . S
C2862 C2860 1.353 . S
C2862 C2865 1.348 . S
C2862 H2900 0.929 . S
N2863 Li2818 1.990 . S
N2863 C2860 1.314 . S
N2863 C2861 1.279 . S
C2864 C2861 1.358 . S
C2864 C2865 1.356 . S
C2864 H2901 0.930 . S
C2865 C2862 1.348 . S
C2865 C2864 1.356 . S
H2866 C2860 0.930 . S
H2867 C2861 0.930 . S
C2868 N2869 1.314 . S
C2868 C2870 1.353 . S
C2868 H2874 0.930 . S
N2869 Li2819 1.990 . S
N2869 C2868 1.314 . S
N2869 C2872 1.279 . S
C2870 C2868 1.353 . S
C2870 C2873 1.348 . S
C2870 H2902 0.929 . S
C2871 C2872 1.358 . S
C2871 C2873 1.356 . S
C2871 H2903 0.930 . S
C2872 N2869 1.279 . S
C2872 C2871 1.358 . S
C2872 H2875 0.930 . S
C2873 C2870 1.348 . S
C2873 C2871 1.356 . S
H2874 C2868 0.930 . S
H2875 C2872 0.930 . S
O2876 Li2816 1.956 . S
O2876 Li2817 1.970 . S
O2876 Li2818 1.961 . S
O2876 C2820 1.325 . S
O2877 Li2816 1.970 . S
O2877 Li2817 1.956 . S
O2877 Li2819 1.961 . S
O2877 C2826 1.325 . S
O2878 Li2816 1.961 . S
O2878 Li2818 1.956 . S
O2878 Li2819 1.970 . S
O2878 C2848 1.325 . S
O2879 Li2817 1.961 . S
O2879 Li2818 1.970 . S
O2879 Li2819 1.956 . S
O2879 C2854 1.325 . S
H2880 C2822 0.929 . S
H2881 C2823 0.930 . S
H2882 C2824 0.930 . S
H2883 C2825 0.930 . S
H2884 C2827 0.930 . S
H2885 C2829 0.929 . S
H2886 C2830 0.930 . S
H2887 C2831 0.930 . S
H2888 C2834 0.930 . S
H2889 C2837 0.929 . S
H2890 C2842 0.929 . S
H2891 C2843 0.930 . S
H2892 C2850 0.929 . S
H2893 C2851 0.930 . S
H2894 C2852 0.930 . S
H2895 C2853 0.930 . S
H2896 C2855 0.929 . S
H2897 C2856 0.930 . S
H2898 C2857 0.930 . S
H2899 C2858 0.930 . S
H2900 C2862 0.929 . S
H2901 C2864 0.930 . S
H2902 C2870 0.929 . S
H2903 C2871 0.930 . S
Li2904 N2921 1.990 . S
Li2904 O2964 1.956 . S
Li2904 O2965 1.970 . S
Li2904 O2966 1.961 . S
Li2905 N2929 1.990 . S
Li2905 O2964 1.970 . S
Li2905 O2965 1.956 . S
Li2905 O2967 1.961 . S
Li2906 N2951 1.990 . S
Li2906 O2964 1.961 . S
Li2906 O2966 1.956 . S
Li2906 O2967 1.970 . S
Li2907 N2957 1.990 . S
Li2907 O2965 1.961 . S
Li2907 O2966 1.970 . S
Li2907 O2967 1.956 . S
C2908 C2910 1.348 . S
C2908 C2911 1.356 . S
C2908 O2964 1.325 . S
N2909 C2912 1.314 . S
N2909 C2913 1.279 . S
C2910 C2908 1.348 . S
C2910 C2912 1.353 . S
C2910 H2968 0.929 . S
C2911 C2908 1.356 . S
C2911 C2913 1.358 . S
C2911 H2969 0.930 . S
C2912 N2909 1.314 . S
C2912 C2910 1.353 . S
C2912 H2970 0.930 . S
C2913 N2909 1.279 . S
C2913 C2911 1.358 . S
C2913 H2971 0.930 . S
C2914 C2917 1.348 . S
C2914 C2918 1.356 . S
C2914 O2965 1.325 . S
C2915 N2916 1.279 . S
C2915 C2918 1.358 . S
C2915 H2972 0.930 . S
N2916 C2915 1.279 . S
N2916 C2919 1.314 . S
C2917 C2914 1.348 . S
C2917 C2919 1.353 . S
C2917 H2973 0.929 . S
C2918 C2914 1.356 . S
C2918 C2915 1.358 . S
C2918 H2974 0.930 . S
C2919 N2916 1.314 . S
C2919 C2917 1.353 . S
C2919 H2975 0.930 . S
C2920 N2921 1.314 . S
C2920 C2925 1.353 . S
C2920 H2926 0.930 . S
N2921 Li2904 1.990 . S
N2921 C2920 1.314 . S
N2921 C2923 1.279 . S
C2922 C2923 1.358 . S
C2922 C2924 1.356 . S
C2922 H2976 0.930 . S
C2923 N2921 1.279 . S
C2923 C2922 1.358 . S
C2923 H2927 0.930 . S
C2924 C2922 1.356 . S
C2924 C2925 1.348 . S
C2925 C2920 1.353 . S
C2925 C2924 1.348 . S
C2925 H2977 0.929 . S
H2926 C2920 0.930 . S
H2927 C2923 0.930 . S
C2928 N2929 1.314 . S
C2928 C2930 1.353 . S
C2928 H2934 0.930 . S
N2929 Li2905 1.990 . S
N2929 C2928 1.314 . S
N2929 C2932 1.279 . S
C2930 C2928 1.353 . S
C2930 C2933 1.348 . S
C2930 H2978 0.929 . S
C2931 C2932 1.358 . S
C2931 C2933 1.356 . S
C2931 H2979 0.930 . S
C2932 N2929 1.279 . S
C2932 C2931 1.358 . S
C2932 H2935 0.930 . S
C2933 C2930 1.348 . S
C2933 C2931 1.356 . S
H2934 C2928 0.930 . S
H2935 C2932 0.930 . S
C2936 C2938 1.348 . S
C2936 C2939 1.356 . S
C2936 O2966 1.325 . S
N2937 C2940 1.314 . S
N2937 C2941 1.279 . S
C2938 C2936 1.348 . S
C2938 C2940 1.353 . S
C2938 H2980 0.929 . S
C2939 C2936 1.356 . S
C2939 C2941 1.358 . S
C2939 H2981 0.930 . S
C2940 N2937 1.314 . S
C2940 C2938 1.353 . S
C2940 H2982 0.930 . S
C2941 N2937 1.279 . S
C2941 C2939 1.358 . S
C2941 H2983 0.930 . S
C2942 C2943 1.348 . S
C2942 C2944 1.356 . S
C2942 O2967 1.325 . S
C2943 C2942 1.348 . S
C2943 C2945 1.353 . S
C2943 H2984 0.929 . S
C2944 C2942 1.356 . S
C2944 C2946 1.358 . S
C2944 H2985 0.930 . S
C2945 C2943 1.353 . S
C2945 N2947 1.314 . S
C2945 H2986 0.930 . S
C2946 C2944 1.358 . S
C2946 N2947 1.279 . S
C2946 H2987 0.930 . S
N2947 C2945 1.314 . S
N2947 C2946 1.279 . S
C2948 C2950 1.353 . S
C2948 N2951 1.314 . S
C2948 H2954 0.930 . S
C2949 N2951 1.279 . S
C2949 C2952 1.358 . S
C2949 H2955 0.930 . S
C2950 C2948 1.353 . S
C2950 C2953 1.348 . S
C2950 H2988 0.929 . S
N2951 Li2906 1.990 . S
N2951 C2948 1.314 . S
N2951 C2949 1.279 . S
C2952 C2949 1.358 . S
C2952 C2953 1.356 . S
C2952 H2989 0.930 . S
C2953 C2950 1.348 . S
C2953 C2952 1.356 . S
H2954 C2948 0.930 . S
H2955 C2949 0.930 . S
C2956 N2957 1.314 . S
C2956 C2958 1.353 . S
C2956 H2962 0.930 . S
N2957 Li2907 1.990 . S
N2957 C2956 1.314 . S
N2957 C2960 1.279 . S
C2958 C2956 1.353 . S
C2958 C2961 1.348 . S
C2958 H2990 0.929 . S
C2959 C2960 1.358 . S
C2959 C2961 1.356 . S
C2959 H2991 0.930 . S
C2960 N2957 1.279 . S
C2960 C2959 1.358 . S
C2960 H2963 0.930 . S
C2961 C2958 1.348 . S
C2961 C2959 1.356 . S
H2962 C2956 0.930 . S
H2963 C2960 0.930 . S
O2964 Li2904 1.956 . S
O2964 Li2905 1.970 . S
O2964 Li2906 1.961 . S
O2964 C2908 1.325 . S
O2965 Li2904 1.970 . S
O2965 Li2905 1.956 . S
O2965 Li2907 1.961 . S
O2965 C2914 1.325 . S
O2966 Li2904 1.961 . S
O2966 Li2906 1.956 . S
O2966 Li2907 1.970 . S
O2966 C2936 1.325 . S
O2967 Li2905 1.961 . S
O2967 Li2906 1.970 . S
O2967 Li2907 1.956 . S
O2967 C2942 1.325 . S
H2968 C2910 0.929 . S
H2969 C2911 0.930 . S
H2970 C2912 0.930 . S
H2971 C2913 0.930 . S
H2972 C2915 0.930 . S
H2973 C2917 0.929 . S
H2974 C2918 0.930 . S
H2975 C2919 0.930 . S
H2976 C2922 0.930 . S
H2977 C2925 0.929 . S
H2978 C2930 0.929 . S
H2979 C2931 0.930 . S
H2980 C2938 0.929 . S
H2981 C2939 0.930 . S
H2982 C2940 0.930 . S
H2983 C2941 0.930 . S
H2984 C2943 0.929 . S
H2985 C2944 0.930 . S
H2986 C2945 0.930 . S
H2987 C2946 0.930 . S
H2988 C2950 0.929 . S
H2989 C2952 0.930 . S
H2990 C2958 0.929 . S
H2991 C2959 0.930 . S
Li2992 N3009 1.990 . S
Li2992 O3052 1.956 . S
Li2992 O3053 1.970 . S
Li2992 O3054 1.961 . S
Li2993 N3017 1.990 . S
Li2993 O3052 1.970 . S
Li2993 O3053 1.956 . S
Li2993 O3055 1.961 . S
Li2994 N3039 1.990 . S
Li2994 O3052 1.961 . S
Li2994 O3054 1.956 . S
Li2994 O3055 1.970 . S
Li2995 N3045 1.990 . S
Li2995 O3053 1.961 . S
Li2995 O3054 1.970 . S
Li2995 O3055 1.956 . S
C2996 C2998 1.348 . S
C2996 C2999 1.356 . S
C2996 O3052 1.325 . S
N2997 C3000 1.314 . S
N2997 C3001 1.279 . S
C2998 C2996 1.348 . S
C2998 C3000 1.353 . S
C2998 H3056 0.929 . S
C2999 C2996 1.356 . S
C2999 C3001 1.358 . S
C2999 H3057 0.930 . S
C3000 N2997 1.314 . S
C3000 C2998 1.353 . S
C3000 H3058 0.930 . S
C3001 N2997 1.279 . S
C3001 C2999 1.358 . S
C3001 H3059 0.930 . S
C3002 C3005 1.348 . S
C3002 C3006 1.356 . S
C3002 O3053 1.325 . S
C3003 N3004 1.279 . S
C3003 C3006 1.358 . S
C3003 H3060 0.930 . S
N3004 C3003 1.279 . S
N3004 C3007 1.314 . S
C3005 C3002 1.348 . S
C3005 C3007 1.353 . S
C3005 H3061 0.929 . S
C3006 C3002 1.356 . S
C3006 C3003 1.358 . S
C3006 H3062 0.930 . S
C3007 N3004 1.314 . S
C3007 C3005 1.353 . S
C3007 H3063 0.930 . S
C3008 N3009 1.314 . S
C3008 C3013 1.353 . S
C3008 H3014 0.930 . S
N3009 Li2992 1.990 . S
N3009 C3008 1.314 . S
N3009 C3011 1.279 . S
C3010 C3011 1.358 . S
C3010 C3012 1.356 . S
C3010 H3064 0.930 . S
C3011 N3009 1.279 . S
C3011 C3010 1.358 . S
C3011 H3015 0.930 . S
C3012 C3010 1.356 . S
C3012 C3013 1.348 . S
C3013 C3008 1.353 . S
C3013 C3012 1.348 . S
C3013 H3065 0.929 . S
H3014 C3008 0.930 . S
H3015 C3011 0.930 . S
C3016 N3017 1.314 . S
C3016 C3018 1.353 . S
C3016 H3022 0.930 . S
N3017 Li2993 1.990 . S
N3017 C3016 1.314 . S
N3017 C3020 1.279 . S
C3018 C3016 1.353 . S
C3018 C3021 1.348 . S
C3018 H3066 0.929 . S
C3019 C3020 1.358 . S
C3019 C3021 1.356 . S
C3019 H3067 0.930 . S
C3020 N3017 1.279 . S
C3020 C3019 1.358 . S
C3020 H3023 0.930 . S
C3021 C3018 1.348 . S
C3021 C3019 1.356 . S
H3022 C3016 0.930 . S
H3023 C3020 0.930 . S
C3024 C3026 1.348 . S
C3024 C3027 1.356 . S
C3024 O3054 1.325 . S
N3025 C3028 1.314 . S
N3025 C3029 1.279 . S
C3026 C3024 1.348 . S
C3026 C3028 1.353 . S
C3026 H3068 0.929 . S
C3027 C3024 1.356 . S
C3027 C3029 1.358 . S
C3027 H3069 0.930 . S
C3028 N3025 1.314 . S
C3028 C3026 1.353 . S
C3028 H3070 0.930 . S
C3029 N3025 1.279 . S
C3029 C3027 1.358 . S
C3029 H3071 0.930 . S
C3030 C3031 1.348 . S
C3030 C3032 1.356 . S
C3030 O3055 1.325 . S
C3031 C3030 1.348 . S
C3031 C3033 1.353 . S
C3031 H3072 0.929 . S
C3032 C3030 1.356 . S
C3032 C3034 1.358 . S
C3032 H3073 0.930 . S
C3033 C3031 1.353 . S
C3033 N3035 1.314 . S
C3033 H3074 0.930 . S
C3034 C3032 1.358 . S
C3034 N3035 1.279 . S
C3034 H3075 0.930 . S
N3035 C3033 1.314 . S
N3035 C3034 1.279 . S
C3036 C3038 1.353 . S
C3036 N3039 1.314 . S
C3036 H3042 0.930 . S
C3037 N3039 1.279 . S
C3037 C3040 1.358 . S
C3037 H3043 0.930 . S
C3038 C3036 1.353 . S
C3038 C3041 1.348 . S
C3038 H3076 0.929 . S
N3039 Li2994 1.990 . S
N3039 C3036 1.314 . S
N3039 C3037 1.279 . S
C3040 C3037 1.358 . S
C3040 C3041 1.356 . S
C3040 H3077 0.930 . S
C3041 C3038 1.348 . S
C3041 C3040 1.356 . S
H3042 C3036 0.930 . S
H3043 C3037 0.930 . S
C3044 N3045 1.314 . S
C3044 C3046 1.353 . S
C3044 H3050 0.930 . S
N3045 Li2995 1.990 . S
N3045 C3044 1.314 . S
N3045 C3048 1.279 . S
C3046 C3044 1.353 . S
C3046 C3049 1.348 . S
C3046 H3078 0.929 . S
C3047 C3048 1.358 . S
C3047 C3049 1.356 . S
C3047 H3079 0.930 . S
C3048 N3045 1.279 . S
C3048 C3047 1.358 . S
C3048 H3051 0.930 . S
C3049 C3046 1.348 . S
C3049 C3047 1.356 . S
H3050 C3044 0.930 . S
H3051 C3048 0.930 . S
O3052 Li2992 1.956 . S
O3052 Li2993 1.970 . S
O3052 Li2994 1.961 . S
O3052 C2996 1.325 . S
O3053 Li2992 1.970 . S
O3053 Li2993 1.956 . S
O3053 Li2995 1.961 . S
O3053 C3002 1.325 . S
O3054 Li2992 1.961 . S
O3054 Li2994 1.956 . S
O3054 Li2995 1.970 . S
O3054 C3024 1.325 . S
O3055 Li2993 1.961 . S
O3055 Li2994 1.970 . S
O3055 Li2995 1.956 . S
O3055 C3030 1.325 . S
H3056 C2998 0.929 . S
H3057 C2999 0.930 . S
H3058 C3000 0.930 . S
H3059 C3001 0.930 . S
H3060 C3003 0.930 . S
H3061 C3005 0.929 . S
H3062 C3006 0.930 . S
H3063 C3007 0.930 . S
H3064 C3010 0.930 . S
H3065 C3013 0.929 . S
H3066 C3018 0.929 . S
H3067 C3019 0.930 . S
H3068 C3026 0.929 . S
H3069 C3027 0.930 . S
H3070 C3028 0.930 . S
H3071 C3029 0.930 . S
H3072 C3031 0.929 . S
H3073 C3032 0.930 . S
H3074 C3033 0.930 . S
H3075 C3034 0.930 . S
H3076 C3038 0.929 . S
H3077 C3040 0.930 . S
H3078 C3046 0.929 . S
H3079 C3047 0.930 . S
Li3080 N3097 1.990 . S
Li3080 O3140 1.956 . S
Li3080 O3141 1.970 . S
Li3080 O3142 1.961 . S
Li3081 N3105 1.990 . S
Li3081 O3140 1.970 . S
Li3081 O3141 1.956 . S
Li3081 O3143 1.961 . S
Li3082 N3127 1.990 . S
Li3082 O3140 1.961 . S
Li3082 O3142 1.956 . S
Li3082 O3143 1.970 . S
Li3083 N3133 1.990 . S
Li3083 O3141 1.961 . S
Li3083 O3142 1.970 . S
Li3083 O3143 1.956 . S
C3084 C3086 1.348 . S
C3084 C3087 1.356 . S
C3084 O3140 1.325 . S
N3085 C3088 1.314 . S
N3085 C3089 1.279 . S
C3086 C3084 1.348 . S
C3086 C3088 1.353 . S
C3086 H3144 0.929 . S
C3087 C3084 1.356 . S
C3087 C3089 1.358 . S
C3087 H3145 0.930 . S
C3088 N3085 1.314 . S
C3088 C3086 1.353 . S
C3088 H3146 0.930 . S
C3089 N3085 1.279 . S
C3089 C3087 1.358 . S
C3089 H3147 0.930 . S
C3090 C3093 1.348 . S
C3090 C3094 1.356 . S
C3090 O3141 1.325 . S
C3091 N3092 1.279 . S
C3091 C3094 1.358 . S
C3091 H3148 0.930 . S
N3092 C3091 1.279 . S
N3092 C3095 1.314 . S
C3093 C3090 1.348 . S
C3093 C3095 1.353 . S
C3093 H3149 0.929 . S
C3094 C3090 1.356 . S
C3094 C3091 1.358 . S
C3094 H3150 0.930 . S
C3095 N3092 1.314 . S
C3095 C3093 1.353 . S
C3095 H3151 0.930 . S
C3096 N3097 1.314 . S
C3096 C3101 1.353 . S
C3096 H3102 0.930 . S
N3097 Li3080 1.990 . S
N3097 C3096 1.314 . S
N3097 C3099 1.279 . S
C3098 C3099 1.358 . S
C3098 C3100 1.356 . S
C3098 H3152 0.930 . S
C3099 N3097 1.279 . S
C3099 C3098 1.358 . S
C3099 H3103 0.930 . S
C3100 C3098 1.356 . S
C3100 C3101 1.348 . S
C3101 C3096 1.353 . S
C3101 C3100 1.348 . S
C3101 H3153 0.929 . S
H3102 C3096 0.930 . S
H3103 C3099 0.930 . S
C3104 N3105 1.314 . S
C3104 C3106 1.353 . S
C3104 H3110 0.930 . S
N3105 Li3081 1.990 . S
N3105 C3104 1.314 . S
N3105 C3108 1.279 . S
C3106 C3104 1.353 . S
C3106 C3109 1.348 . S
C3106 H3154 0.929 . S
C3107 C3108 1.358 . S
C3107 C3109 1.356 . S
C3107 H3155 0.930 . S
C3108 N3105 1.279 . S
C3108 C3107 1.358 . S
C3108 H3111 0.930 . S
C3109 C3106 1.348 . S
C3109 C3107 1.356 . S
H3110 C3104 0.930 . S
H3111 C3108 0.930 . S
C3112 C3114 1.348 . S
C3112 C3115 1.356 . S
C3112 O3142 1.325 . S
N3113 C3116 1.314 . S
N3113 C3117 1.279 . S
C3114 C3112 1.348 . S
C3114 C3116 1.353 . S
C3114 H3156 0.929 . S
C3115 C3112 1.356 . S
C3115 C3117 1.358 . S
C3115 H3157 0.930 . S
C3116 N3113 1.314 . S
C3116 C3114 1.353 . S
C3116 H3158 0.930 . S
C3117 N3113 1.279 . S
C3117 C3115 1.358 . S
C3117 H3159 0.930 . S
C3118 C3119 1.348 . S
C3118 C3120 1.356 . S
C3118 O3143 1.325 . S
C3119 C3118 1.348 . S
C3119 C3121 1.353 . S
C3119 H3160 0.929 . S
C3120 C3118 1.356 . S
C3120 C3122 1.358 . S
C3120 H3161 0.930 . S
C3121 C3119 1.353 . S
C3121 N3123 1.314 . S
C3121 H3162 0.930 . S
C3122 C3120 1.358 . S
C3122 N3123 1.279 . S
C3122 H3163 0.930 . S
N3123 C3121 1.314 . S
N3123 C3122 1.279 . S
C3124 C3126 1.353 . S
C3124 N3127 1.314 . S
C3124 H3130 0.930 . S
C3125 N3127 1.279 . S
C3125 C3128 1.358 . S
C3125 H3131 0.930 . S
C3126 C3124 1.353 . S
C3126 C3129 1.348 . S
C3126 H3164 0.929 . S
N3127 Li3082 1.990 . S
N3127 C3124 1.314 . S
N3127 C3125 1.279 . S
C3128 C3125 1.358 . S
C3128 C3129 1.356 . S
C3128 H3165 0.930 . S
C3129 C3126 1.348 . S
C3129 C3128 1.356 . S
H3130 C3124 0.930 . S
H3131 C3125 0.930 . S
C3132 N3133 1.314 . S
C3132 C3134 1.353 . S
C3132 H3138 0.930 . S
N3133 Li3083 1.990 . S
N3133 C3132 1.314 . S
N3133 C3136 1.279 . S
C3134 C3132 1.353 . S
C3134 C3137 1.348 . S
C3134 H3166 0.929 . S
C3135 C3136 1.358 . S
C3135 C3137 1.356 . S
C3135 H3167 0.930 . S
C3136 N3133 1.279 . S
C3136 C3135 1.358 . S
C3136 H3139 0.930 . S
C3137 C3134 1.348 . S
C3137 C3135 1.356 . S
H3138 C3132 0.930 . S
H3139 C3136 0.930 . S
O3140 Li3080 1.956 . S
O3140 Li3081 1.970 . S
O3140 Li3082 1.961 . S
O3140 C3084 1.325 . S
O3141 Li3080 1.970 . S
O3141 Li3081 1.956 . S
O3141 Li3083 1.961 . S
O3141 C3090 1.325 . S
O3142 Li3080 1.961 . S
O3142 Li3082 1.956 . S
O3142 Li3083 1.970 . S
O3142 C3112 1.325 . S
O3143 Li3081 1.961 . S
O3143 Li3082 1.970 . S
O3143 Li3083 1.956 . S
O3143 C3118 1.325 . S
H3144 C3086 0.929 . S
H3145 C3087 0.930 . S
H3146 C3088 0.930 . S
H3147 C3089 0.930 . S
H3148 C3091 0.930 . S
H3149 C3093 0.929 . S
H3150 C3094 0.930 . S
H3151 C3095 0.930 . S
H3152 C3098 0.930 . S
H3153 C3101 0.929 . S
H3154 C3106 0.929 . S
H3155 C3107 0.930 . S
H3156 C3114 0.929 . S
H3157 C3115 0.930 . S
H3158 C3116 0.930 . S
H3159 C3117 0.930 . S
H3160 C3119 0.929 . S
H3161 C3120 0.930 . S
H3162 C3121 0.930 . S
H3163 C3122 0.930 . S
H3164 C3126 0.929 . S
H3165 C3128 0.930 . S
H3166 C3134 0.929 . S
H3167 C3135 0.930 . S
H3168 C3174 0.930 . S
H3169 C3178 0.930 . S
H3170 C3183 0.929 . S
H3171 C3181 0.928 1_554 S
H3172 C3176 0.929 . S
H3173 C3182 0.929 1_565 S
C3174 H3168 0.930 . S
C3174 C3175 1.367 . S
C3174 C3182 1.378 . S
C3175 C3174 1.367 . S
C3175 C3183 1.433 . S
C3176 H3172 0.929 . S
C3176 C3178 1.378 1_545 S
C3176 C3180 1.350 1_546 S
C3177 C3180 1.463 1_545 S
C3177 C3182 1.350 . S
C3177 N3185 1.427 . S
C3178 H3169 0.930 . S
C3178 C3176 1.378 1_565 S
C3178 C3179 1.367 . S
C3179 C3178 1.367 . S
C3179 C3181 1.455 . S
C3180 C3176 1.350 1_564 S
C3180 C3177 1.463 1_565 S
C3180 N3184 1.427 . S
C3181 H3171 0.928 1_556 S
C3181 C3179 1.455 . S
C3181 N3184 1.364 1_556 S
C3182 H3173 0.929 1_545 S
C3182 C3174 1.378 . S
C3182 C3177 1.350 . S
C3183 H3170 0.929 . S
C3183 C3175 1.433 . S
C3183 N3185 1.384 . S
N3184 C3180 1.427 . S
N3184 C3181 1.364 1_554 S
N3185 C3177 1.427 . S
N3185 C3183 1.384 . S
H3186 C3192 0.930 . S
H3187 C3196 0.930 . S
H3188 C3201 0.929 . S
H3189 C3199 0.929 . S
H3190 C3194 0.929 1_554 S
H3191 C3200 0.929 . S
C3192 H3186 0.930 . S
C3192 C3193 1.367 . S
C3192 C3200 1.378 . S
C3193 C3192 1.367 . S
C3193 C3201 1.433 . S
C3194 H3190 0.929 1_556 S
C3194 C3196 1.374 . S
C3194 C3198 1.353 1_556 S
C3195 C3198 1.463 1_655 S
C3195 C3200 1.350 . S
C3195 N3203 1.427 . S
C3196 H3187 0.930 . S
C3196 C3194 1.374 . S
C3196 C3197 1.367 . S
C3197 C3196 1.367 . S
C3197 C3199 1.433 . S
C3198 C3194 1.353 1_554 S
C3198 C3195 1.463 1_455 S
C3198 N3202 1.427 . S
C3199 H3189 0.929 . S
C3199 C3197 1.433 . S
C3199 N3202 1.384 1_556 S
C3200 H3191 0.929 . S
C3200 C3192 1.378 . S
C3200 C3195 1.350 . S
C3201 H3188 0.929 . S
C3201 C3193 1.433 . S
C3201 N3203 1.384 . S
N3202 C3198 1.427 . S
N3202 C3199 1.384 1_554 S
N3203 C3195 1.427 . S
N3203 C3201 1.384 . S
H3204 C3210 0.930 . S
H3205 C3214 0.930 . S
H3206 C3219 0.929 . S
H3207 C3217 0.929 . S
H3208 C3212 0.929 . S
H3209 C3218 0.929 . S
C3210 H3204 0.930 . S
C3210 C3211 1.367 1_554 S
C3210 C3218 1.378 . S
C3211 C3210 1.367 1_556 S
C3211 C3219 1.433 . S
C3212 H3208 0.929 . S
C3212 C3214 1.378 . S
C3212 C3216 1.350 . S
C3213 C3216 1.463 . S
C3213 C3218 1.350 . S
C3213 N3221 1.427 1_554 S
C3214 H3205 0.930 . S
C3214 C3212 1.378 . S
C3214 C3215 1.367 . S
C3215 C3214 1.367 . S
C3215 C3217 1.433 . S
C3216 C3212 1.350 . S
C3216 C3213 1.463 . S
C3216 N3220 1.427 . S
C3217 H3207 0.929 . S
C3217 C3215 1.433 . S
C3217 N3220 1.384 . S
C3218 H3209 0.929 . S
C3218 C3210 1.378 . S
C3218 C3213 1.350 . S
C3219 H3206 0.929 . S
C3219 C3211 1.433 . S
C3219 N3221 1.384 . S
N3220 C3216 1.427 . S
N3220 C3217 1.384 . S
N3221 C3213 1.427 1_556 S
N3221 C3219 1.384 . S
H3222 C3228 0.930 . S
H3223 C3232 0.930 . S
H3224 C3237 0.929 . S
H3225 C3235 0.929 . S
H3226 C3230 0.929 . S
H3227 C3236 0.929 . S
C3228 H3222 0.930 . S
C3228 C3229 1.367 . S
C3228 C3236 1.378 . S
C3229 C3228 1.367 . S
C3229 C3237 1.433 . S
C3230 H3226 0.929 . S
C3230 C3232 1.378 . S
C3230 C3234 1.350 . S
C3231 C3234 1.463 1_655 S
C3231 C3236 1.350 . S
C3231 N3239 1.427 1_655 S
C3232 H3223 0.930 . S
C3232 C3230 1.378 . S
C3232 C3233 1.367 . S
C3233 C3232 1.367 . S
C3233 C3235 1.433 . S
C3234 C3230 1.350 . S
C3234 C3231 1.463 1_455 S
C3234 N3238 1.427 . S
C3235 H3225 0.929 . S
C3235 C3233 1.433 . S
C3235 N3238 1.384 . S
C3236 H3227 0.929 . S
C3236 C3228 1.378 . S
C3236 C3231 1.350 . S
C3237 H3224 0.929 . S
C3237 C3229 1.433 . S
C3237 N3239 1.384 1_655 S
N3238 C3234 1.427 . S
N3238 C3235 1.384 . S
N3239 C3231 1.427 1_455 S
N3239 C3237 1.384 1_455 S
H3240 C3246 0.930 . S
H3241 C3250 0.930 . S
H3242 C3255 0.929 . S
H3243 C3253 0.929 . S
H3244 C3248 0.929 . S
H3245 C3254 0.929 . S
C3246 H3240 0.930 . S
C3246 C3247 1.367 . S
C3246 C3254 1.378 . S
C3247 C3246 1.367 . S
C3247 C3255 1.433 . S
C3248 H3244 0.929 . S
C3248 C3250 1.378 . S
C3248 C3252 1.350 . S
C3249 C3252 1.463 . S
C3249 C3254 1.350 . S
C3249 N3257 1.427 . S
C3250 H3241 0.930 . S
C3250 C3248 1.378 . S
C3250 C3251 1.367 . S
C3251 C3250 1.367 . S
C3251 C3253 1.433 . S
C3252 C3248 1.350 . S
C3252 C3249 1.463 . S
C3252 N3256 1.427 . S
C3253 H3243 0.929 . S
C3253 C3251 1.433 . S
C3253 N3256 1.384 . S
C3254 H3245 0.929 . S
C3254 C3246 1.378 . S
C3254 C3249 1.350 . S
C3255 H3242 0.929 . S
C3255 C3247 1.433 . S
C3255 N3257 1.384 . S
N3256 C3252 1.427 . S
N3256 C3253 1.384 . S
N3257 C3249 1.427 . S
N3257 C3255 1.384 . S
H3258 C3264 0.930 . S
H3259 C3268 0.930 . S
H3260 C3273 0.929 . S
H3261 C3271 0.929 . S
H3262 C3266 0.911 1_565 S
H3263 C3272 0.929 1_545 S
C3264 H3258 0.930 . S
C3264 C3265 1.367 . S
C3264 C3272 1.378 . S
C3265 C3264 1.367 . S
C3265 C3273 1.433 . S
C3266 H3262 0.911 1_545 S
C3266 C3268 1.398 . S
C3266 C3270 1.350 . S
C3267 C3270 1.463 1_565 S
C3267 C3272 1.350 . S
C3267 N3275 1.427 . S
C3268 H3259 0.930 . S
C3268 C3266 1.398 . S
C3268 C3269 1.367 . S
C3269 C3268 1.367 . S
C3269 C3271 1.433 . S
C3270 C3266 1.350 . S
C3270 C3267 1.463 1_545 S
C3270 N3274 1.427 . S
C3271 H3261 0.929 . S
C3271 C3269 1.433 . S
C3271 N3274 1.384 . S
C3272 H3263 0.929 1_565 S
C3272 C3264 1.378 . S
C3272 C3267 1.350 . S
C3273 H3260 0.929 . S
C3273 C3265 1.433 . S
C3273 N3275 1.384 . S
N3274 C3270 1.427 . S
N3274 C3271 1.384 . S
N3275 C3267 1.427 . S
N3275 C3273 1.384 . S
H3276 C3282 0.930 . S
H3277 C3286 0.930 . S
H3278 C3291 0.929 . S
H3279 C3289 0.929 . S
H3280 C3284 0.929 . S
H3281 C3290 1.000 . S
C3282 H3276 0.930 . S
C3282 C3283 1.367 . S
C3282 C3290 1.378 . S
C3283 C3282 1.367 . S
C3283 C3291 1.433 . S
C3284 H3280 0.929 . S
C3284 C3286 1.378 . S
C3284 C3288 1.350 . S
C3285 C3288 1.463 1_545 S
C3285 C3290 1.350 1_556 S
C3285 N3293 1.427 . S
C3286 H3277 0.930 . S
C3286 C3284 1.378 . S
C3286 C3287 1.367 . S
C3287 C3286 1.367 . S
C3287 C3289 1.433 . S
C3288 C3284 1.350 . S
C3288 C3285 1.463 1_565 S
C3288 N3292 1.427 . S
C3289 H3279 0.929 . S
C3289 C3287 1.433 . S
C3289 N3292 1.384 . S
C3290 H3281 1.000 . S
C3290 C3282 1.378 . S
C3290 C3285 1.350 1_554 S
C3291 H3278 0.929 . S
C3291 C3283 1.433 . S
C3291 N3293 1.384 1_554 S
N3292 C3288 1.427 . S
N3292 C3289 1.384 . S
N3293 C3285 1.427 . S
N3293 C3291 1.384 1_556 S
H3294 C3300 0.930 . S
H3295 C3304 0.930 . S
H3296 C3309 0.929 . S
H3297 C3307 0.929 . S
H3298 C3302 0.929 . S
H3299 C3308 0.929 . S
C3300 H3294 0.930 . S
C3300 C3301 1.367 1_556 S
C3300 C3308 1.378 . S
C3301 C3300 1.367 1_554 S
C3301 C3309 1.433 . S
C3302 H3298 0.929 . S
C3302 C3304 1.378 . S
C3302 C3306 1.350 . S
C3303 C3306 1.463 1_655 S
C3303 C3308 1.350 . S
C3303 N3311 1.427 1_656 S
C3304 H3295 0.930 . S
C3304 C3302 1.378 . S
C3304 C3305 1.367 . S
C3305 C3304 1.367 . S
C3305 C3307 1.433 . S
C3306 C3302 1.350 . S
C3306 C3303 1.463 1_455 S
C3306 N3310 1.427 . S
C3307 H3297 0.929 . S
C3307 C3305 1.433 . S
C3307 N3310 1.384 . S
C3308 H3299 0.929 . S
C3308 C3300 1.378 . S
C3308 C3303 1.350 . S
C3309 H3296 0.929 . S
C3309 C3301 1.433 . S
C3309 N3311 1.384 1_655 S
N3310 C3306 1.427 . S
N3310 C3307 1.384 . S
N3311 C3303 1.427 1_454 S
N3311 C3309 1.384 1_455 S
H3312 C3318 0.930 . S
H3313 C3322 0.930 . S
H3314 C3327 0.929 . S
H3315 C3325 0.929 . S
H3316 C3320 0.929 . S
H3317 C3326 0.929 . S
C3318 H3312 0.930 . S
C3318 C3319 1.367 . S
C3318 C3326 1.378 . S
C3319 C3318 1.367 . S
C3319 C3327 1.433 . S
C3320 H3316 0.929 . S
C3320 C3322 1.378 . S
C3320 C3324 1.350 1_554 S
C3321 C3324 1.463 . S
C3321 C3326 1.350 . S
C3321 N3329 1.427 . S
C3322 H3313 0.930 . S
C3322 C3320 1.378 . S
C3322 C3323 1.367 . S
C3323 C3322 1.367 . S
C3323 C3325 1.433 1_554 S
C3324 C3320 1.350 1_556 S
C3324 C3321 1.463 . S
C3324 N3328 1.427 . S
C3325 H3315 0.929 . S
C3325 C3323 1.433 1_556 S
C3325 N3328 1.384 . S
C3326 H3317 0.929 . S
C3326 C3318 1.378 . S
C3326 C3321 1.350 . S
C3327 H3314 0.929 . S
C3327 C3319 1.433 . S
C3327 N3329 1.384 . S
N3328 C3324 1.427 . S
N3328 C3325 1.384 . S
N3329 C3321 1.427 . S
N3329 C3327 1.384 . S
H3330 C3336 0.930 . S
H3331 C3340 0.930 . S
H3332 C3345 0.929 . S
H3333 C3343 0.929 . S
H3334 C3338 0.929 . S
H3335 C3344 0.929 . S
C3336 H3330 0.930 . S
C3336 C3337 1.367 . S
C3336 C3344 1.378 . S
C3337 C3336 1.367 . S
C3337 C3345 1.433 . S
C3338 H3334 0.929 . S
C3338 C3340 1.378 . S
C3338 C3342 1.350 . S
C3339 C3342 1.463 1_655 S
C3339 C3344 1.350 . S
C3339 N3347 1.427 . S
C3340 H3331 0.930 . S
C3340 C3338 1.378 . S
C3340 C3341 1.367 . S
C3341 C3340 1.367 . S
C3341 C3343 1.433 . S
C3342 C3338 1.350 . S
C3342 C3339 1.463 1_455 S
C3342 N3346 1.427 1_455 S
C3343 H3333 0.929 . S
C3343 C3341 1.433 . S
C3343 N3346 1.384 1_455 S
C3344 H3335 0.929 . S
C3344 C3336 1.378 . S
C3344 C3339 1.350 . S
C3345 H3332 0.929 . S
C3345 C3337 1.433 . S
C3345 N3347 1.384 . S
N3346 C3342 1.427 1_655 S
N3346 C3343 1.384 1_655 S
N3347 C3339 1.427 . S
N3347 C3345 1.384 . S
H3348 C3354 0.930 . S
H3349 C3358 0.930 . S
H3350 C3363 0.929 . S
H3351 C3361 0.929 . S
H3352 C3356 0.929 . S
H3353 C3362 0.929 . S
C3354 H3348 0.930 . S
C3354 C3355 1.367 . S
C3354 C3362 1.378 . S
C3355 C3354 1.367 . S
C3355 C3363 1.433 . S
C3356 H3352 0.929 . S
C3356 C3358 1.378 . S
C3356 C3360 1.350 . S
C3357 C3360 1.463 . S
C3357 C3362 1.350 . S
C3357 N3365 1.427 . S
C3358 H3349 0.930 . S
C3358 C3356 1.378 . S
C3358 C3359 1.367 . S
C3359 C3358 1.367 . S
C3359 C3361 1.433 . S
C3360 C3356 1.350 . S
C3360 C3357 1.463 . S
C3360 N3364 1.427 . S
C3361 H3351 0.929 . S
C3361 C3359 1.433 . S
C3361 N3364 1.384 . S
C3362 H3353 0.929 . S
C3362 C3354 1.378 . S
C3362 C3357 1.350 . S
C3363 H3350 0.929 . S
C3363 C3355 1.433 . S
C3363 N3365 1.384 . S
N3364 C3360 1.427 . S
N3364 C3361 1.384 . S
N3365 C3357 1.427 . S
N3365 C3363 1.384 . S
H3366 C3372 0.930 . S
H3367 C3376 0.930 . S
H3368 C3381 0.929 . S
H3369 C3379 0.929 . S
H3370 C3374 0.929 . S
H3371 C3380 0.929 . S
C3372 H3366 0.930 . S
C3372 C3373 1.367 . S
C3372 C3380 1.378 . S
C3373 C3372 1.367 . S
C3373 C3381 1.433 . S
C3374 H3370 0.929 . S
C3374 C3376 1.378 . S
C3374 C3378 1.350 . S
C3375 C3378 1.463 1_545 S
C3375 C3380 1.350 . S
C3375 N3383 1.427 . S
C3376 H3367 0.930 . S
C3376 C3374 1.378 . S
C3376 C3377 1.367 . S
C3377 C3376 1.367 . S
C3377 C3379 1.433 . S
C3378 C3374 1.350 . S
C3378 C3375 1.463 1_565 S
C3378 N3382 1.427 . S
C3379 H3369 0.929 . S
C3379 C3377 1.433 . S
C3379 N3382 1.384 . S
C3380 H3371 0.929 . S
C3380 C3372 1.378 . S
C3380 C3375 1.350 . S
C3381 H3368 0.929 . S
C3381 C3373 1.433 . S
C3381 N3383 1.384 . S
N3382 C3378 1.427 . S
N3382 C3379 1.384 . S
N3383 C3375 1.427 . S
N3383 C3381 1.384 . S
H3384 C3390 0.930 . S
H3385 C3394 0.930 . S
H3386 C3399 0.929 . S
H3387 C3397 0.929 . S
H3388 C3392 0.929 . S
H3389 C3398 0.929 . S
C3390 H3384 0.930 . S
C3390 C3391 1.367 . S
C3390 C3398 1.378 . S
C3391 C3390 1.367 . S
C3391 C3399 1.433 . S
C3392 H3388 0.929 . S
C3392 C3394 1.378 . S
C3392 C3396 1.350 . S
C3393 C3396 1.463 . S
C3393 C3398 1.350 . S
C3393 N3401 1.427 . S
C3394 H3385 0.930 . S
C3394 C3392 1.378 . S
C3394 C3395 1.367 . S
C3395 C3394 1.367 . S
C3395 C3397 1.433 . S
C3396 C3392 1.350 . S
C3396 C3393 1.463 . S
C3396 N3400 1.427 . S
C3397 H3387 0.929 . S
C3397 C3395 1.433 . S
C3397 N3400 1.384 . S
C3398 H3389 0.929 . S
C3398 C3390 1.378 . S
C3398 C3393 1.350 . S
C3399 H3386 0.929 . S
C3399 C3391 1.433 . S
C3399 N3401 1.384 . S
N3400 C3396 1.427 . S
N3400 C3397 1.384 . S
N3401 C3393 1.427 . S
N3401 C3399 1.384 . S
H3402 C3408 0.930 . S
H3403 C3412 0.930 . S
H3404 C3417 0.929 . S
H3405 C3415 0.929 . S
H3406 C3410 0.929 . S
H3407 C3416 0.929 . S
C3408 H3402 0.930 . S
C3408 C3409 1.367 . S
C3408 C3416 1.378 . S
C3409 C3408 1.367 . S
C3409 C3417 1.433 . S
C3410 H3406 0.929 . S
C3410 C3412 1.378 . S
C3410 C3414 1.350 . S
C3411 C3414 1.463 . S
C3411 C3416 1.350 . S
C3411 N3419 1.427 . S
C3412 H3403 0.930 . S
C3412 C3410 1.378 . S
C3412 C3413 1.367 . S
C3413 C3412 1.367 . S
C3413 C3415 1.433 . S
C3414 C3410 1.350 . S
C3414 C3411 1.463 . S
C3414 N3418 1.427 . S
C3415 H3405 0.929 . S
C3415 C3413 1.433 . S
C3415 N3418 1.384 . S
C3416 H3407 0.929 . S
C3416 C3408 1.378 . S
C3416 C3411 1.350 . S
C3417 H3404 0.929 . S
C3417 C3409 1.433 . S
C3417 N3419 1.384 . S
N3418 C3414 1.427 . S
N3418 C3415 1.384 . S
N3419 C3411 1.427 . S
N3419 C3417 1.384 . S
H3420 C3426 0.930 . S
H3421 C3430 0.930 . S
H3422 C3435 0.929 . S
H3423 C3433 0.929 . S
H3424 C3428 0.929 . S
H3425 C3434 0.929 . S
C3426 H3420 0.930 . S
C3426 C3427 1.367 . S
C3426 C3434 1.378 . S
C3427 C3426 1.367 . S
C3427 C3435 1.433 . S
C3428 H3424 0.929 . S
C3428 C3430 1.378 . S
C3428 C3432 1.350 . S
C3429 C3432 1.463 . S
C3429 C3434 1.350 . S
C3429 N3437 1.427 . S
C3430 H3421 0.930 . S
C3430 C3428 1.378 . S
C3430 C3431 1.367 . S
C3431 C3430 1.367 . S
C3431 C3433 1.433 . S
C3432 C3428 1.350 . S
C3432 C3429 1.463 . S
C3432 N3436 1.427 . S
C3433 H3423 0.929 . S
C3433 C3431 1.433 . S
C3433 N3436 1.384 . S
C3434 H3425 0.929 . S
C3434 C3426 1.378 . S
C3434 C3429 1.350 . S
C3435 H3422 0.929 . S
C3435 C3427 1.433 . S
C3435 N3437 1.384 . S
N3436 C3432 1.427 . S
N3436 C3433 1.384 . S
N3437 C3429 1.427 . S
N3437 C3435 1.384 . S
H3438 C3444 0.930 . S
H3439 C3448 0.930 . S
H3440 C3453 0.929 . S
H3441 C3451 0.929 . S
H3442 C3446 0.929 . S
H3443 C3452 0.929 . S
C3444 H3438 0.930 . S
C3444 C3445 1.367 . S
C3444 C3452 1.378 . S
C3445 C3444 1.367 . S
C3445 C3453 1.433 . S
C3446 H3442 0.929 . S
C3446 C3448 1.378 . S
C3446 C3450 1.350 . S
C3447 C3450 1.463 . S
C3447 C3452 1.350 . S
C3447 N3455 1.427 . S
C3448 H3439 0.930 . S
C3448 C3446 1.378 . S
C3448 C3449 1.367 . S
C3449 C3448 1.367 . S
C3449 C3451 1.433 . S
C3450 C3446 1.350 . S
C3450 C3447 1.463 . S
C3450 N3454 1.427 . S
C3451 H3441 0.929 . S
C3451 C3449 1.433 . S
C3451 N3454 1.384 . S
C3452 H3443 0.929 . S
C3452 C3444 1.378 . S
C3452 C3447 1.350 . S
C3453 H3440 0.929 . S
C3453 C3445 1.433 . S
C3453 N3455 1.384 . S
N3454 C3450 1.427 . S
N3454 C3451 1.384 . S
N3455 C3447 1.427 . S
N3455 C3453 1.384 . S
H3456 C3462 0.930 . S
H3457 C3466 0.930 . S
H3458 C3471 0.929 . S
H3459 C3469 0.929 . S
H3460 C3464 0.929 . S
H3461 C3470 0.929 . S
C3462 H3456 0.930 . S
C3462 C3463 1.367 . S
C3462 C3470 1.378 . S
C3463 C3462 1.367 . S
C3463 C3471 1.433 . S
C3464 H3460 0.929 . S
C3464 C3466 1.378 . S
C3464 C3468 1.350 . S
C3465 C3468 1.463 . S
C3465 C3470 1.350 . S
C3465 N3473 1.427 . S
C3466 H3457 0.930 . S
C3466 C3464 1.378 . S
C3466 C3467 1.367 . S
C3467 C3466 1.367 . S
C3467 C3469 1.433 . S
C3468 C3464 1.350 . S
C3468 C3465 1.463 . S
C3468 N3472 1.427 . S
C3469 H3459 0.929 . S
C3469 C3467 1.433 . S
C3469 N3472 1.384 . S
C3470 H3461 0.929 . S
C3470 C3462 1.378 . S
C3470 C3465 1.350 . S
C3471 H3458 0.929 . S
C3471 C3463 1.433 . S
C3471 N3473 1.384 . S
N3472 C3468 1.427 . S
N3472 C3469 1.384 . S
N3473 C3465 1.427 . S
N3473 C3471 1.384 . S
H3474 C3480 0.930 . S
H3475 C3484 0.930 . S
H3476 C3489 0.929 . S
H3477 C3487 0.929 . S
H3478 C3482 0.929 . S
H3479 C3488 0.929 . S
C3480 H3474 0.930 . S
C3480 C3481 1.367 . S
C3480 C3488 1.378 . S
C3481 C3480 1.367 . S
C3481 C3489 1.433 . S
C3482 H3478 0.929 . S
C3482 C3484 1.378 . S
C3482 C3486 1.350 . S
C3483 C3486 1.463 . S
C3483 C3488 1.350 . S
C3483 N3491 1.427 . S
C3484 H3475 0.930 . S
C3484 C3482 1.378 . S
C3484 C3485 1.367 . S
C3485 C3484 1.367 . S
C3485 C3487 1.433 . S
C3486 C3482 1.350 . S
C3486 C3483 1.463 . S
C3486 N3490 1.427 . S
C3487 H3477 0.929 . S
C3487 C3485 1.433 . S
C3487 N3490 1.384 . S
C3488 H3479 0.929 . S
C3488 C3480 1.378 . S
C3488 C3483 1.350 . S
C3489 H3476 0.929 . S
C3489 C3481 1.433 . S
C3489 N3491 1.384 . S
N3490 C3486 1.427 . S
N3490 C3487 1.384 . S
N3491 C3483 1.427 . S
N3491 C3489 1.384 . S
H3492 C3498 0.930 . S
H3493 C3502 0.930 . S
H3494 C3507 0.929 . S
H3495 C3505 0.929 . S
H3496 C3500 0.929 . S
H3497 C3506 0.929 . S
C3498 H3492 0.930 . S
C3498 C3499 1.367 . S
C3498 C3506 1.378 . S
C3499 C3498 1.367 . S
C3499 C3507 1.433 . S
C3500 H3496 0.929 . S
C3500 C3502 1.378 . S
C3500 C3504 1.350 . S
C3501 C3504 1.463 . S
C3501 C3506 1.350 . S
C3501 N3509 1.427 . S
C3502 H3493 0.930 . S
C3502 C3500 1.378 . S
C3502 C3503 1.367 . S
C3503 C3502 1.367 . S
C3503 C3505 1.433 . S
C3504 C3500 1.350 . S
C3504 C3501 1.463 . S
C3504 N3508 1.427 . S
C3505 H3495 0.929 . S
C3505 C3503 1.433 . S
C3505 N3508 1.384 . S
C3506 H3497 0.929 . S
C3506 C3498 1.378 . S
C3506 C3501 1.350 . S
C3507 H3494 0.929 . S
C3507 C3499 1.433 . S
C3507 N3509 1.384 . S
N3508 C3504 1.427 . S
N3508 C3505 1.384 . S
N3509 C3501 1.427 . S
N3509 C3507 1.384 . S
H3510 C3516 0.930 . S
H3511 C3520 0.930 . S
H3512 C3525 0.929 . S
H3513 C3523 0.929 . S
H3514 C3518 0.929 . S
H3515 C3524 0.929 . S
C3516 H3510 0.930 . S
C3516 C3517 1.367 . S
C3516 C3524 1.378 . S
C3517 C3516 1.367 . S
C3517 C3525 1.433 . S
C3518 H3514 0.929 . S
C3518 C3520 1.378 . S
C3518 C3522 1.350 . S
C3519 C3522 1.463 . S
C3519 C3524 1.350 . S
C3519 N3527 1.427 . S
C3520 H3511 0.930 . S
C3520 C3518 1.378 . S
C3520 C3521 1.367 . S
C3521 C3520 1.367 . S
C3521 C3523 1.433 . S
C3522 C3518 1.350 . S
C3522 C3519 1.463 . S
C3522 N3526 1.427 . S
C3523 H3513 0.929 . S
C3523 C3521 1.433 . S
C3523 N3526 1.384 . S
C3524 H3515 0.929 . S
C3524 C3516 1.378 . S
C3524 C3519 1.350 . S
C3525 H3512 0.929 . S
C3525 C3517 1.433 . S
C3525 N3527 1.384 . S
N3526 C3522 1.427 . S
N3526 C3523 1.384 . S
N3527 C3519 1.427 . S
N3527 C3525 1.384 . S
H3528 C3534 0.930 . S
H3529 C3538 0.930 . S
H3530 C3543 0.929 . S
H3531 C3541 0.929 . S
H3532 C3536 0.929 . S
H3533 C3542 0.929 . S
C3534 H3528 0.930 . S
C3534 C3535 1.367 . S
C3534 C3542 1.378 . S
C3535 C3534 1.367 . S
C3535 C3543 1.433 . S
C3536 H3532 0.929 . S
C3536 C3538 1.378 . S
C3536 C3540 1.350 . S
C3537 C3540 1.463 . S
C3537 C3542 1.350 . S
C3537 N3545 1.427 . S
C3538 H3529 0.930 . S
C3538 C3536 1.378 . S
C3538 C3539 1.367 . S
C3539 C3538 1.367 . S
C3539 C3541 1.433 . S
C3540 C3536 1.350 . S
C3540 C3537 1.463 . S
C3540 N3544 1.427 . S
C3541 H3531 0.929 . S
C3541 C3539 1.433 . S
C3541 N3544 1.384 . S
C3542 H3533 0.929 . S
C3542 C3534 1.378 . S
C3542 C3537 1.350 . S
C3543 H3530 0.929 . S
C3543 C3535 1.433 . S
C3543 N3545 1.384 . S
N3544 C3540 1.427 . S
N3544 C3541 1.384 . S
N3545 C3537 1.427 . S
N3545 C3543 1.384 . S
H3546 C3552 0.930 . S
H3547 C3556 0.930 . S
H3548 C3561 0.929 . S
H3549 C3559 0.929 . S
H3550 C3554 0.929 . S
H3551 C3560 0.929 . S
C3552 H3546 0.930 . S
C3552 C3553 1.367 . S
C3552 C3560 1.378 . S
C3553 C3552 1.367 . S
C3553 C3561 1.433 . S
C3554 H3550 0.929 . S
C3554 C3556 1.378 . S
C3554 C3558 1.350 . S
C3555 C3558 1.463 . S
C3555 C3560 1.350 . S
C3555 N3563 1.427 . S
C3556 H3547 0.930 . S
C3556 C3554 1.378 . S
C3556 C3557 1.367 . S
C3557 C3556 1.367 . S
C3557 C3559 1.433 . S
C3558 C3554 1.350 . S
C3558 C3555 1.463 . S
C3558 N3562 1.427 . S
C3559 H3549 0.929 . S
C3559 C3557 1.433 . S
C3559 N3562 1.384 . S
C3560 H3551 0.929 . S
C3560 C3552 1.378 . S
C3560 C3555 1.350 . S
C3561 H3548 0.929 . S
C3561 C3553 1.433 . S
C3561 N3563 1.384 . S
N3562 C3558 1.427 . S
N3562 C3559 1.384 . S
N3563 C3555 1.427 . S
N3563 C3561 1.384 . S
H3564 C3570 0.930 . S
H3565 C3574 0.930 . S
H3566 C3579 0.929 . S
H3567 C3577 0.929 . S
H3568 C3572 0.929 . S
H3569 C3578 0.929 . S
C3570 H3564 0.930 . S
C3570 C3571 1.367 . S
C3570 C3578 1.378 . S
C3571 C3570 1.367 . S
C3571 C3579 1.433 . S
C3572 H3568 0.929 . S
C3572 C3574 1.378 . S
C3572 C3576 1.350 . S
C3573 C3576 1.463 . S
C3573 C3578 1.350 . S
C3573 N3581 1.427 . S
C3574 H3565 0.930 . S
C3574 C3572 1.378 . S
C3574 C3575 1.367 . S
C3575 C3574 1.367 . S
C3575 C3577 1.433 . S
C3576 C3572 1.350 . S
C3576 C3573 1.463 . S
C3576 N3580 1.427 . S
C3577 H3567 0.929 . S
C3577 C3575 1.433 . S
C3577 N3580 1.384 . S
C3578 H3569 0.929 . S
C3578 C3570 1.378 . S
C3578 C3573 1.350 . S
C3579 H3566 0.929 . S
C3579 C3571 1.433 . S
C3579 N3581 1.384 . S
N3580 C3576 1.427 . S
N3580 C3577 1.384 . S
N3581 C3573 1.427 . S
N3581 C3579 1.384 . S
H3582 C3588 0.930 . S
H3583 C3592 0.930 . S
H3584 C3597 0.929 . S
H3585 C3595 0.929 . S
H3586 C3590 0.929 . S
H3587 C3596 0.929 . S
C3588 H3582 0.930 . S
C3588 C3589 1.367 . S
C3588 C3596 1.378 . S
C3589 C3588 1.367 . S
C3589 C3597 1.433 . S
C3590 H3586 0.929 . S
C3590 C3592 1.378 . S
C3590 C3594 1.350 . S
C3591 C3594 1.463 . S
C3591 C3596 1.350 . S
C3591 N3599 1.427 . S
C3592 H3583 0.930 . S
C3592 C3590 1.378 . S
C3592 C3593 1.367 . S
C3593 C3592 1.367 . S
C3593 C3595 1.433 . S
C3594 C3590 1.350 . S
C3594 C3591 1.463 . S
C3594 N3598 1.427 . S
C3595 H3585 0.929 . S
C3595 C3593 1.433 . S
C3595 N3598 1.384 . S
C3596 H3587 0.929 . S
C3596 C3588 1.378 . S
C3596 C3591 1.350 . S
C3597 H3584 0.929 . S
C3597 C3589 1.433 . S
C3597 N3599 1.384 . S
N3598 C3594 1.427 . S
N3598 C3595 1.384 . S
N3599 C3591 1.427 . S
N3599 C3597 1.384 . S
H3600 C3606 0.930 . S
H3601 C3610 0.930 . S
H3602 C3615 0.929 . S
H3603 C3613 0.929 . S
H3604 C3608 0.929 . S
H3605 C3614 0.929 . S
C3606 H3600 0.930 . S
C3606 C3607 1.367 . S
C3606 C3614 1.378 . S
C3607 C3606 1.367 . S
C3607 C3615 1.433 . S
C3608 H3604 0.929 . S
C3608 C3610 1.378 . S
C3608 C3612 1.350 . S
C3609 C3612 1.463 . S
C3609 C3614 1.350 . S
C3609 N3617 1.427 . S
C3610 H3601 0.930 . S
C3610 C3608 1.378 . S
C3610 C3611 1.367 . S
C3611 C3610 1.367 . S
C3611 C3613 1.433 . S
C3612 C3608 1.350 . S
C3612 C3609 1.463 . S
C3612 N3616 1.427 . S
C3613 H3603 0.929 . S
C3613 C3611 1.433 . S
C3613 N3616 1.384 . S
C3614 H3605 0.929 . S
C3614 C3606 1.378 . S
C3614 C3609 1.350 . S
C3615 H3602 0.929 . S
C3615 C3607 1.433 . S
C3615 N3617 1.384 . S
N3616 C3612 1.427 . S
N3616 C3613 1.384 . S
N3617 C3609 1.427 . S
N3617 C3615 1.384 . S
H3618 C3624 0.930 . S
H3619 C3628 0.930 . S
H3620 C3633 0.929 . S
H3621 C3631 0.929 . S
H3622 C3626 0.929 . S
H3623 C3632 0.929 . S
C3624 H3618 0.930 . S
C3624 C3625 1.367 . S
C3624 C3632 1.378 . S
C3625 C3624 1.367 . S
C3625 C3633 1.433 . S
C3626 H3622 0.929 . S
C3626 C3628 1.378 . S
C3626 C3630 1.350 . S
C3627 C3630 1.463 . S
C3627 C3632 1.350 . S
C3627 N3635 1.427 . S
C3628 H3619 0.930 . S
C3628 C3626 1.378 . S
C3628 C3629 1.367 . S
C3629 C3628 1.367 . S
C3629 C3631 1.433 . S
C3630 C3626 1.350 . S
C3630 C3627 1.463 . S
C3630 N3634 1.427 . S
C3631 H3621 0.929 . S
C3631 C3629 1.433 . S
C3631 N3634 1.384 . S
C3632 H3623 0.929 . S
C3632 C3624 1.378 . S
C3632 C3627 1.350 . S
C3633 H3620 0.929 . S
C3633 C3625 1.433 . S
C3633 N3635 1.384 . S
N3634 C3630 1.427 . S
N3634 C3631 1.384 . S
N3635 C3627 1.427 . S
N3635 C3633 1.384 . S
H3636 C3642 0.930 . S
H3637 C3646 0.930 . S
H3638 C3651 0.929 . S
H3639 C3649 0.929 . S
H3640 C3644 0.929 . S
H3641 C3650 0.929 . S
C3642 H3636 0.930 . S
C3642 C3643 1.367 . S
C3642 C3650 1.378 . S
C3643 C3642 1.367 . S
C3643 C3651 1.433 . S
C3644 H3640 0.929 . S
C3644 C3646 1.378 . S
C3644 C3648 1.350 . S
C3645 C3648 1.463 . S
C3645 C3650 1.350 . S
C3645 N3653 1.427 . S
C3646 H3637 0.930 . S
C3646 C3644 1.378 . S
C3646 C3647 1.367 . S
C3647 C3646 1.367 . S
C3647 C3649 1.433 . S
C3648 C3644 1.350 . S
C3648 C3645 1.463 . S
C3648 N3652 1.427 . S
C3649 H3639 0.929 . S
C3649 C3647 1.433 . S
C3649 N3652 1.384 . S
C3650 H3641 0.929 . S
C3650 C3642 1.378 . S
C3650 C3645 1.350 . S
C3651 H3638 0.929 . S
C3651 C3643 1.433 . S
C3651 N3653 1.384 . S
N3652 C3648 1.427 . S
N3652 C3649 1.384 . S
N3653 C3645 1.427 . S
N3653 C3651 1.384 . S
H3654 C3660 0.930 . S
H3655 C3664 0.930 . S
H3656 C3669 0.929 . S
H3657 C3667 0.929 . S
H3658 C3662 0.929 . S
H3659 C3668 0.929 . S
C3660 H3654 0.930 . S
C3660 C3661 1.367 . S
C3660 C3668 1.378 . S
C3661 C3660 1.367 . S
C3661 C3669 1.433 . S
C3662 H3658 0.929 . S
C3662 C3664 1.378 . S
C3662 C3666 1.350 . S
C3663 C3666 1.463 . S
C3663 C3668 1.350 . S
C3663 N3671 1.427 . S
C3664 H3655 0.930 . S
C3664 C3662 1.378 . S
C3664 C3665 1.367 . S
C3665 C3664 1.367 . S
C3665 C3667 1.433 . S
C3666 C3662 1.350 . S
C3666 C3663 1.463 . S
C3666 N3670 1.427 . S
C3667 H3657 0.929 . S
C3667 C3665 1.433 . S
C3667 N3670 1.384 . S
C3668 H3659 0.929 . S
C3668 C3660 1.378 . S
C3668 C3663 1.350 . S
C3669 H3656 0.929 . S
C3669 C3661 1.433 . S
C3669 N3671 1.384 . S
N3670 C3666 1.427 . S
N3670 C3667 1.384 . S
N3671 C3663 1.427 . S
N3671 C3669 1.384 . S
H3672 C3678 0.930 . S
H3673 C3682 0.930 . S
H3674 C3687 0.929 . S
H3675 C3685 0.929 . S
H3676 C3680 0.929 . S
H3677 C3686 0.929 . S
C3678 H3672 0.930 . S
C3678 C3679 1.367 . S
C3678 C3686 1.378 . S
C3679 C3678 1.367 . S
C3679 C3687 1.433 . S
C3680 H3676 0.929 . S
C3680 C3682 1.378 . S
C3680 C3684 1.350 . S
C3681 C3684 1.463 . S
C3681 C3686 1.350 . S
C3681 N3689 1.427 . S
C3682 H3673 0.930 . S
C3682 C3680 1.378 . S
C3682 C3683 1.367 . S
C3683 C3682 1.367 . S
C3683 C3685 1.433 . S
C3684 C3680 1.350 . S
C3684 C3681 1.463 . S
C3684 N3688 1.427 . S
C3685 H3675 0.929 . S
C3685 C3683 1.433 . S
C3685 N3688 1.384 . S
C3686 H3677 0.929 . S
C3686 C3678 1.378 . S
C3686 C3681 1.350 . S
C3687 H3674 0.929 . S
C3687 C3679 1.433 . S
C3687 N3689 1.384 . S
N3688 C3684 1.427 . S
N3688 C3685 1.384 . S
N3689 C3681 1.427 . S
N3689 C3687 1.384 . S
H3690 C3696 0.930 . S
H3691 C3700 0.930 . S
H3692 C3705 0.929 . S
H3693 C3703 0.929 . S
H3694 C3698 0.929 . S
H3695 C3704 0.929 . S
C3696 H3690 0.930 . S
C3696 C3697 1.367 . S
C3696 C3704 1.378 . S
C3697 C3696 1.367 . S
C3697 C3705 1.433 . S
C3698 H3694 0.929 . S
C3698 C3700 1.378 . S
C3698 C3702 1.350 . S
C3699 C3702 1.463 . S
C3699 C3704 1.350 . S
C3699 N3707 1.427 . S
C3700 H3691 0.930 . S
C3700 C3698 1.378 . S
C3700 C3701 1.367 . S
C3701 C3700 1.367 . S
C3701 C3703 1.433 . S
C3702 C3698 1.350 . S
C3702 C3699 1.463 . S
C3702 N3706 1.427 . S
C3703 H3693 0.929 . S
C3703 C3701 1.433 . S
C3703 N3706 1.384 . S
C3704 H3695 0.929 . S
C3704 C3696 1.378 . S
C3704 C3699 1.350 . S
C3705 H3692 0.929 . S
C3705 C3697 1.433 . S
C3705 N3707 1.384 . S
N3706 C3702 1.427 . S
N3706 C3703 1.384 . S
N3707 C3699 1.427 . S
N3707 C3705 1.384 . S
H3708 C3714 0.930 . S
H3709 C3718 0.930 . S
H3710 C3723 0.929 . S
H3711 C3721 0.929 . S
H3712 C3716 0.929 . S
H3713 C3722 0.929 . S
C3714 H3708 0.930 . S
C3714 C3715 1.367 . S
C3714 C3722 1.378 . S
C3715 C3714 1.367 . S
C3715 C3723 1.433 . S
C3716 H3712 0.929 . S
C3716 C3718 1.378 . S
C3716 C3720 1.350 . S
C3717 C3720 1.463 . S
C3717 C3722 1.350 . S
C3717 N3725 1.427 . S
C3718 H3709 0.930 . S
C3718 C3716 1.378 . S
C3718 C3719 1.367 . S
C3719 C3718 1.367 . S
C3719 C3721 1.433 . S
C3720 C3716 1.350 . S
C3720 C3717 1.463 . S
C3720 N3724 1.427 . S
C3721 H3711 0.929 . S
C3721 C3719 1.433 . S
C3721 N3724 1.384 . S
C3722 H3713 0.929 . S
C3722 C3714 1.378 . S
C3722 C3717 1.350 . S
C3723 H3710 0.929 . S
C3723 C3715 1.433 . S
C3723 N3725 1.384 . S
N3724 C3720 1.427 . S
N3724 C3721 1.384 . S
N3725 C3717 1.427 . S
N3725 C3723 1.384 . S
H3726 C3732 0.930 . S
H3727 C3736 0.930 . S
H3728 C3741 0.929 . S
H3729 C3739 0.929 . S
H3730 C3734 0.929 . S
H3731 C3740 0.929 . S
C3732 H3726 0.930 . S
C3732 C3733 1.367 . S
C3732 C3740 1.378 . S
C3733 C3732 1.367 . S
C3733 C3741 1.433 . S
C3734 H3730 0.929 . S
C3734 C3736 1.378 . S
C3734 C3738 1.350 . S
C3735 C3738 1.463 . S
C3735 C3740 1.350 . S
C3735 N3743 1.427 . S
C3736 H3727 0.930 . S
C3736 C3734 1.378 . S
C3736 C3737 1.367 . S
C3737 C3736 1.367 . S
C3737 C3739 1.433 . S
C3738 C3734 1.350 . S
C3738 C3735 1.463 . S
C3738 N3742 1.427 . S
C3739 H3729 0.929 . S
C3739 C3737 1.433 . S
C3739 N3742 1.384 . S
C3740 H3731 0.929 . S
C3740 C3732 1.378 . S
C3740 C3735 1.350 . S
C3741 H3728 0.929 . S
C3741 C3733 1.433 . S
C3741 N3743 1.384 . S
N3742 C3738 1.427 . S
N3742 C3739 1.384 . S
N3743 C3735 1.427 . S
N3743 C3741 1.384 . S
H3744 C3750 0.930 . S
H3745 C3754 0.930 . S
H3746 C3759 0.929 . S
H3747 C3757 0.929 . S
H3748 C3752 0.929 . S
H3749 C3758 0.929 . S
C3750 H3744 0.930 . S
C3750 C3751 1.367 . S
C3750 C3758 1.378 . S
C3751 C3750 1.367 . S
C3751 C3759 1.433 . S
C3752 H3748 0.929 . S
C3752 C3754 1.378 . S
C3752 C3756 1.350 . S
C3753 C3756 1.463 . S
C3753 C3758 1.350 . S
C3753 N3761 1.427 . S
C3754 H3745 0.930 . S
C3754 C3752 1.378 . S
C3754 C3755 1.367 . S
C3755 C3754 1.367 . S
C3755 C3757 1.433 . S
C3756 C3752 1.350 . S
C3756 C3753 1.463 . S
C3756 N3760 1.427 . S
C3757 H3747 0.929 . S
C3757 C3755 1.433 . S
C3757 N3760 1.384 . S
C3758 H3749 0.929 . S
C3758 C3750 1.378 . S
C3758 C3753 1.350 . S
C3759 H3746 0.929 . S
C3759 C3751 1.433 . S
C3759 N3761 1.384 . S
N3760 C3756 1.427 . S
N3760 C3757 1.384 . S
N3761 C3753 1.427 . S
N3761 C3759 1.384 . S
H3762 C3768 0.930 . S
H3763 C3772 0.930 . S
H3764 C3777 0.929 . S
H3765 C3775 0.929 . S
H3766 C3770 0.929 . S
H3767 C3776 0.929 . S
C3768 H3762 0.930 . S
C3768 C3769 1.367 . S
C3768 C3776 1.378 . S
C3769 C3768 1.367 . S
C3769 C3777 1.433 . S
C3770 H3766 0.929 . S
C3770 C3772 1.378 . S
C3770 C3774 1.350 . S
C3771 C3774 1.463 . S
C3771 C3776 1.350 . S
C3771 N3779 1.427 . S
C3772 H3763 0.930 . S
C3772 C3770 1.378 . S
C3772 C3773 1.367 . S
C3773 C3772 1.367 . S
C3773 C3775 1.433 . S
C3774 C3770 1.350 . S
C3774 C3771 1.463 . S
C3774 N3778 1.427 . S
C3775 H3765 0.929 . S
C3775 C3773 1.433 . S
C3775 N3778 1.384 . S
C3776 H3767 0.929 . S
C3776 C3768 1.378 . S
C3776 C3771 1.350 . S
C3777 H3764 0.929 . S
C3777 C3769 1.433 . S
C3777 N3779 1.384 . S
N3778 C3774 1.427 . S
N3778 C3775 1.384 . S
N3779 C3771 1.427 . S
N3779 C3777 1.384 . S
H3780 C3786 0.930 . S
H3781 C3790 0.930 . S
H3782 C3795 0.929 . S
H3783 C3793 0.929 . S
H3784 C3788 0.929 . S
H3785 C3794 0.929 . S
C3786 H3780 0.930 . S
C3786 C3787 1.367 . S
C3786 C3794 1.378 . S
C3787 C3786 1.367 . S
C3787 C3795 1.433 . S
C3788 H3784 0.929 . S
C3788 C3790 1.378 . S
C3788 C3792 1.350 . S
C3789 C3792 1.463 . S
C3789 C3794 1.350 . S
C3789 N3797 1.427 . S
C3790 H3781 0.930 . S
C3790 C3788 1.378 . S
C3790 C3791 1.367 . S
C3791 C3790 1.367 . S
C3791 C3793 1.433 . S
C3792 C3788 1.350 . S
C3792 C3789 1.463 . S
C3792 N3796 1.427 . S
C3793 H3783 0.929 . S
C3793 C3791 1.433 . S
C3793 N3796 1.384 . S
C3794 H3785 0.929 . S
C3794 C3786 1.378 . S
C3794 C3789 1.350 . S
C3795 H3782 0.929 . S
C3795 C3787 1.433 . S
C3795 N3797 1.384 . S
N3796 C3792 1.427 . S
N3796 C3793 1.384 . S
N3797 C3789 1.427 . S
N3797 C3795 1.384 . S
H3798 C3804 0.930 . S
H3799 C3808 0.930 . S
H3800 C3813 0.929 . S
H3801 C3811 0.929 . S
H3802 C3806 0.929 . S
H3803 C3812 0.929 . S
C3804 H3798 0.930 . S
C3804 C3805 1.367 . S
C3804 C3812 1.378 . S
C3805 C3804 1.367 . S
C3805 C3813 1.433 . S
C3806 H3802 0.929 . S
C3806 C3808 1.378 . S
C3806 C3810 1.350 . S
C3807 C3810 1.463 . S
C3807 C3812 1.350 . S
C3807 N3815 1.427 . S
C3808 H3799 0.930 . S
C3808 C3806 1.378 . S
C3808 C3809 1.367 . S
C3809 C3808 1.367 . S
C3809 C3811 1.433 . S
C3810 C3806 1.350 . S
C3810 C3807 1.463 . S
C3810 N3814 1.427 . S
C3811 H3801 0.929 . S
C3811 C3809 1.433 . S
C3811 N3814 1.384 . S
C3812 H3803 0.929 . S
C3812 C3804 1.378 . S
C3812 C3807 1.350 . S
C3813 H3800 0.929 . S
C3813 C3805 1.433 . S
C3813 N3815 1.384 . S
N3814 C3810 1.427 . S
N3814 C3811 1.384 . S
N3815 C3807 1.427 . S
N3815 C3813 1.384 . S
H3816 C3822 0.930 . S
H3817 C3826 0.930 . S
H3818 C3831 0.929 . S
H3819 C3829 0.929 . S
H3820 C3824 0.929 . S
H3821 C3830 0.929 . S
C3822 H3816 0.930 . S
C3822 C3823 1.367 . S
C3822 C3830 1.378 . S
C3823 C3822 1.367 . S
C3823 C3831 1.433 . S
C3824 H3820 0.929 . S
C3824 C3826 1.378 . S
C3824 C3828 1.350 . S
C3825 C3828 1.463 . S
C3825 C3830 1.350 . S
C3825 N3833 1.427 . S
C3826 H3817 0.930 . S
C3826 C3824 1.378 . S
C3826 C3827 1.367 . S
C3827 C3826 1.367 . S
C3827 C3829 1.433 . S
C3828 C3824 1.350 . S
C3828 C3825 1.463 . S
C3828 N3832 1.427 . S
C3829 H3819 0.929 . S
C3829 C3827 1.433 . S
C3829 N3832 1.384 . S
C3830 H3821 0.929 . S
C3830 C3822 1.378 . S
C3830 C3825 1.350 . S
C3831 H3818 0.929 . S
C3831 C3823 1.433 . S
C3831 N3833 1.384 . S
N3832 C3828 1.427 . S
N3832 C3829 1.384 . S
N3833 C3825 1.427 . S
N3833 C3831 1.384 . S
H3834 C3840 0.930 . S
H3835 C3844 0.930 . S
H3836 C3849 0.929 . S
H3837 C3847 0.929 . S
H3838 C3842 0.929 . S
H3839 C3848 0.929 . S
C3840 H3834 0.930 . S
C3840 C3841 1.367 . S
C3840 C3848 1.378 . S
C3841 C3840 1.367 . S
C3841 C3849 1.433 . S
C3842 H3838 0.929 . S
C3842 C3844 1.378 . S
C3842 C3846 1.350 . S
C3843 C3846 1.463 1_565 S
C3843 C3848 1.350 . S
C3843 N3851 1.427 . S
C3844 H3835 0.930 . S
C3844 C3842 1.378 . S
C3844 C3845 1.367 . S
C3845 C3844 1.367 . S
C3845 C3847 1.433 . S
C3846 C3842 1.350 . S
C3846 C3843 1.463 1_545 S
C3846 N3850 1.427 . S
C3847 H3837 0.929 . S
C3847 C3845 1.433 . S
C3847 N3850 1.384 . S
C3848 H3839 0.929 . S
C3848 C3840 1.378 . S
C3848 C3843 1.350 . S
C3849 H3836 0.929 . S
C3849 C3841 1.433 . S
C3849 N3851 1.384 . S
N3850 C3846 1.427 . S
N3850 C3847 1.384 . S
N3851 C3843 1.427 . S
N3851 C3849 1.384 . S
H3852 C3858 0.930 . S
H3853 C3862 0.930 . S
H3854 C3867 0.929 . S
H3855 C3865 0.929 . S
H3856 C3860 0.929 . S
H3857 C3866 0.929 . S
C3858 H3852 0.930 . S
C3858 C3859 1.367 . S
C3858 C3866 1.378 . S
C3859 C3858 1.367 . S
C3859 C3867 1.433 . S
C3860 H3856 0.929 . S
C3860 C3862 1.378 . S
C3860 C3864 1.350 . S
C3861 C3864 1.463 1_655 S
C3861 C3866 1.350 . S
C3861 N3869 1.427 . S
C3862 H3853 0.930 . S
C3862 C3860 1.378 . S
C3862 C3863 1.367 . S
C3863 C3862 1.367 . S
C3863 C3865 1.433 . S
C3864 C3860 1.350 . S
C3864 C3861 1.463 1_455 S
C3864 N3868 1.427 . S
C3865 H3855 0.929 . S
C3865 C3863 1.433 . S
C3865 N3868 1.384 . S
C3866 H3857 0.929 . S
C3866 C3858 1.378 . S
C3866 C3861 1.350 . S
C3867 H3854 0.929 . S
C3867 C3859 1.433 . S
C3867 N3869 1.384 . S
N3868 C3864 1.427 . S
N3868 C3865 1.384 . S
N3869 C3861 1.427 . S
N3869 C3867 1.384 . S
H3870 C3876 0.930 . S
H3871 C3880 0.930 . S
H3872 C3885 0.929 . S
H3873 C3883 0.929 . S
H3874 C3878 0.929 . S
H3875 C3884 0.929 . S
C3876 H3870 0.930 . S
C3876 C3877 1.367 . S
C3876 C3884 1.378 . S
C3877 C3876 1.367 . S
C3877 C3885 1.433 . S
C3878 H3874 0.929 . S
C3878 C3880 1.378 . S
C3878 C3882 1.350 . S
C3879 C3882 1.463 . S
C3879 C3884 1.350 . S
C3879 N3887 1.427 . S
C3880 H3871 0.930 . S
C3880 C3878 1.378 . S
C3880 C3881 1.367 . S
C3881 C3880 1.367 . S
C3881 C3883 1.433 . S
C3882 C3878 1.350 . S
C3882 C3879 1.463 . S
C3882 N3886 1.427 . S
C3883 H3873 0.929 . S
C3883 C3881 1.433 . S
C3883 N3886 1.384 . S
C3884 H3875 0.929 . S
C3884 C3876 1.378 . S
C3884 C3879 1.350 . S
C3885 H3872 0.929 . S
C3885 C3877 1.433 . S
C3885 N3887 1.384 . S
N3886 C3882 1.427 . S
N3886 C3883 1.384 . S
N3887 C3879 1.427 . S
N3887 C3885 1.384 . S
H3888 C3894 0.930 . S
H3889 C3898 0.930 . S
H3890 C3903 0.929 . S
H3891 C3901 0.929 . S
H3892 C3896 0.929 . S
H3893 C3902 0.929 . S
C3894 H3888 0.930 . S
C3894 C3895 1.367 . S
C3894 C3902 1.378 . S
C3895 C3894 1.367 . S
C3895 C3903 1.433 . S
C3896 H3892 0.929 . S
C3896 C3898 1.378 . S
C3896 C3900 1.350 . S
C3897 C3900 1.463 1_545 S
C3897 C3902 1.350 . S
C3897 N3905 1.427 . S
C3898 H3889 0.930 . S
C3898 C3896 1.378 . S
C3898 C3899 1.367 . S
C3899 C3898 1.367 . S
C3899 C3901 1.433 . S
C3900 C3896 1.350 . S
C3900 C3897 1.463 1_565 S
C3900 N3904 1.427 . S
C3901 H3891 0.929 . S
C3901 C3899 1.433 . S
C3901 N3904 1.384 . S
C3902 H3893 0.929 . S
C3902 C3894 1.378 . S
C3902 C3897 1.350 . S
C3903 H3890 0.929 . S
C3903 C3895 1.433 . S
C3903 N3905 1.384 . S
N3904 C3900 1.427 . S
N3904 C3901 1.384 . S
N3905 C3897 1.427 . S
N3905 C3903 1.384 . S
H3906 C3912 0.930 . S
H3907 C3916 0.930 . S
H3908 C3921 0.929 . S
H3909 C3919 0.929 . S
H3910 C3914 0.929 . S
H3911 C3920 0.929 . S
C3912 H3906 0.930 . S
C3912 C3913 1.367 . S
C3912 C3920 1.378 . S
C3913 C3912 1.367 . S
C3913 C3921 1.433 . S
C3914 H3910 0.929 . S
C3914 C3916 1.378 . S
C3914 C3918 1.350 . S
C3915 C3918 1.463 1_655 S
C3915 C3920 1.350 . S
C3915 N3923 1.427 . S
C3916 H3907 0.930 . S
C3916 C3914 1.378 . S
C3916 C3917 1.367 . S
C3917 C3916 1.367 . S
C3917 C3919 1.433 . S
C3918 C3914 1.350 . S
C3918 C3915 1.463 1_455 S
C3918 N3922 1.427 . S
C3919 H3909 0.929 . S
C3919 C3917 1.433 . S
C3919 N3922 1.384 . S
C3920 H3911 0.929 . S
C3920 C3912 1.378 . S
C3920 C3915 1.350 . S
C3921 H3908 0.929 . S
C3921 C3913 1.433 . S
C3921 N3923 1.384 . S
N3922 C3918 1.427 . S
N3922 C3919 1.384 . S
N3923 C3915 1.427 . S
N3923 C3921 1.384 . S
H3924 C3930 0.930 . S
H3925 C3934 0.930 . S
H3926 C3939 0.929 . S
H3927 C3937 0.929 . S
H3928 C3932 0.929 . S
H3929 C3938 0.929 . S
C3930 H3924 0.930 . S
C3930 C3931 1.367 . S
C3930 C3938 1.378 . S
C3931 C3930 1.367 . S
C3931 C3939 1.433 . S
C3932 H3928 0.929 . S
C3932 C3934 1.378 . S
C3932 C3936 1.350 . S
C3933 C3936 1.463 . S
C3933 C3938 1.350 . S
C3933 N3941 1.427 . S
C3934 H3925 0.930 . S
C3934 C3932 1.378 . S
C3934 C3935 1.367 . S
C3935 C3934 1.367 . S
C3935 C3937 1.433 . S
C3936 C3932 1.350 . S
C3936 C3933 1.463 . S
C3936 N3940 1.427 . S
C3937 H3927 0.929 . S
C3937 C3935 1.433 . S
C3937 N3940 1.384 . S
C3938 H3929 0.929 . S
C3938 C3930 1.378 . S
C3938 C3933 1.350 . S
C3939 H3926 0.929 . S
C3939 C3931 1.433 . S
C3939 N3941 1.384 . S
N3940 C3936 1.427 . S
N3940 C3937 1.384 . S
N3941 C3933 1.427 . S
N3941 C3939 1.384 . S
H3942 C3948 0.930 . S
H3943 C3952 0.930 . S
H3944 C3957 0.929 . S
H3945 C3955 0.929 . S
H3946 C3950 0.929 . S
H3947 C3956 0.929 . S
C3948 H3942 0.930 . S
C3948 C3949 1.367 . S
C3948 C3956 1.378 . S
C3949 C3948 1.367 . S
C3949 C3957 1.433 . S
C3950 H3946 0.929 . S
C3950 C3952 1.378 . S
C3950 C3954 1.350 . S
C3951 C3954 1.463 . S
C3951 C3956 1.350 . S
C3951 N3959 1.427 . S
C3952 H3943 0.930 . S
C3952 C3950 1.378 . S
C3952 C3953 1.367 . S
C3953 C3952 1.367 . S
C3953 C3955 1.433 . S
C3954 C3950 1.350 . S
C3954 C3951 1.463 . S
C3954 N3958 1.427 . S
C3955 H3945 0.929 . S
C3955 C3953 1.433 . S
C3955 N3958 1.384 . S
C3956 H3947 0.929 . S
C3956 C3948 1.378 . S
C3956 C3951 1.350 . S
C3957 H3944 0.929 . S
C3957 C3949 1.433 . S
C3957 N3959 1.384 . S
N3958 C3954 1.427 . S
N3958 C3955 1.384 . S
N3959 C3951 1.427 . S
N3959 C3957 1.384 . S
H3960 C3966 0.930 . S
H3961 C3970 0.930 . S
H3962 C3975 0.929 . S
H3963 C3973 0.929 . S
H3964 C3968 0.929 . S
H3965 C3974 0.929 . S
C3966 H3960 0.930 . S
C3966 C3967 1.367 . S
C3966 C3974 1.378 . S
C3967 C3966 1.367 . S
C3967 C3975 1.433 . S
C3968 H3964 0.929 . S
C3968 C3970 1.378 . S
C3968 C3972 1.350 . S
C3969 C3972 1.463 . S
C3969 C3974 1.350 . S
C3969 N3977 1.427 . S
C3970 H3961 0.930 . S
C3970 C3968 1.378 . S
C3970 C3971 1.367 . S
C3971 C3970 1.367 . S
C3971 C3973 1.433 . S
C3972 C3968 1.350 . S
C3972 C3969 1.463 . S
C3972 N3976 1.427 . S
C3973 H3963 0.929 . S
C3973 C3971 1.433 . S
C3973 N3976 1.384 . S
C3974 H3965 0.929 . S
C3974 C3966 1.378 . S
C3974 C3969 1.350 . S
C3975 H3962 0.929 . S
C3975 C3967 1.433 . S
C3975 N3977 1.384 . S
N3976 C3972 1.427 . S
N3976 C3973 1.384 . S
N3977 C3969 1.427 . S
N3977 C3975 1.384 . S
H3978 C3984 0.930 . S
H3979 C3988 0.930 . S
H3980 C3993 0.929 . S
H3981 C3991 0.929 . S
H3982 C3986 0.929 . S
H3983 C3992 0.929 . S
C3984 H3978 0.930 . S
C3984 C3985 1.367 . S
C3984 C3992 1.378 . S
C3985 C3984 1.367 . S
C3985 C3993 1.433 . S
C3986 H3982 0.929 . S
C3986 C3988 1.378 . S
C3986 C3990 1.350 . S
C3987 C3990 1.463 . S
C3987 C3992 1.350 . S
C3987 N3995 1.427 . S
C3988 H3979 0.930 . S
C3988 C3986 1.378 . S
C3988 C3989 1.367 . S
C3989 C3988 1.367 . S
C3989 C3991 1.433 . S
C3990 C3986 1.350 . S
C3990 C3987 1.463 . S
C3990 N3994 1.427 . S
C3991 H3981 0.929 . S
C3991 C3989 1.433 . S
C3991 N3994 1.384 . S
C3992 H3983 0.929 . S
C3992 C3984 1.378 . S
C3992 C3987 1.350 . S
C3993 H3980 0.929 . S
C3993 C3985 1.433 . S
C3993 N3995 1.384 . S
N3994 C3990 1.427 . S
N3994 C3991 1.384 . S
N3995 C3987 1.427 . S
N3995 C3993 1.384 . S
H3996 C4002 0.930 . S
H3997 C4006 0.930 . S
H3998 C4011 0.929 . S
H3999 C4009 0.929 . S
H4000 C4004 0.929 . S
H4001 C4010 0.929 . S
C4002 H3996 0.930 . S
C4002 C4003 1.367 . S
C4002 C4010 1.378 . S
C4003 C4002 1.367 . S
C4003 C4011 1.433 . S
C4004 H4000 0.929 . S
C4004 C4006 1.378 . S
C4004 C4008 1.350 . S
C4005 C4008 1.463 . S
C4005 C4010 1.350 . S
C4005 N4013 1.427 . S
C4006 H3997 0.930 . S
C4006 C4004 1.378 . S
C4006 C4007 1.367 . S
C4007 C4006 1.367 . S
C4007 C4009 1.433 . S
C4008 C4004 1.350 . S
C4008 C4005 1.463 . S
C4008 N4012 1.427 . S
C4009 H3999 0.929 . S
C4009 C4007 1.433 . S
C4009 N4012 1.384 . S
C4010 H4001 0.929 . S
C4010 C4002 1.378 . S
C4010 C4005 1.350 . S
C4011 H3998 0.929 . S
C4011 C4003 1.433 . S
C4011 N4013 1.384 . S
N4012 C4008 1.427 . S
N4012 C4009 1.384 . S
N4013 C4005 1.427 . S
N4013 C4011 1.384 . S
H4014 C4020 0.930 . S
H4015 C4024 0.930 . S
H4016 C4029 0.929 . S
H4017 C4027 0.929 . S
H4018 C4022 0.929 . S
H4019 C4028 0.929 . S
C4020 H4014 0.930 . S
C4020 C4021 1.367 . S
C4020 C4028 1.378 . S
C4021 C4020 1.367 . S
C4021 C4029 1.433 . S
C4022 H4018 0.929 . S
C4022 C4024 1.378 . S
C4022 C4026 1.350 . S
C4023 C4026 1.463 . S
C4023 C4028 1.350 . S
C4023 N4031 1.427 . S
C4024 H4015 0.930 . S
C4024 C4022 1.378 . S
C4024 C4025 1.367 . S
C4025 C4024 1.367 . S
C4025 C4027 1.433 . S
C4026 C4022 1.350 . S
C4026 C4023 1.463 . S
C4026 N4030 1.427 . S
C4027 H4017 0.929 . S
C4027 C4025 1.433 . S
C4027 N4030 1.384 . S
C4028 H4019 0.929 . S
C4028 C4020 1.378 . S
C4028 C4023 1.350 . S
C4029 H4016 0.929 . S
C4029 C4021 1.433 . S
C4029 N4031 1.384 . S
N4030 C4026 1.427 . S
N4030 C4027 1.384 . S
N4031 C4023 1.427 . S
N4031 C4029 1.384 . S
H4032 C4038 0.930 . S
H4033 C4042 0.930 . S
H4034 C4047 0.929 . S
H4035 C4045 0.929 . S
H4036 C4040 0.929 . S
H4037 C4046 0.929 . S
C4038 H4032 0.930 . S
C4038 C4039 1.367 . S
C4038 C4046 1.378 . S
C4039 C4038 1.367 . S
C4039 C4047 1.433 . S
C4040 H4036 0.929 . S
C4040 C4042 1.378 . S
C4040 C4044 1.350 . S
C4041 C4044 1.463 . S
C4041 C4046 1.350 . S
C4041 N4049 1.427 . S
C4042 H4033 0.930 . S
C4042 C4040 1.378 . S
C4042 C4043 1.367 . S
C4043 C4042 1.367 . S
C4043 C4045 1.433 . S
C4044 C4040 1.350 . S
C4044 C4041 1.463 . S
C4044 N4048 1.427 . S
C4045 H4035 0.929 . S
C4045 C4043 1.433 . S
C4045 N4048 1.384 . S
C4046 H4037 0.929 . S
C4046 C4038 1.378 . S
C4046 C4041 1.350 . S
C4047 H4034 0.929 . S
C4047 C4039 1.433 . S
C4047 N4049 1.384 . S
N4048 C4044 1.427 . S
N4048 C4045 1.384 . S
N4049 C4041 1.427 . S
N4049 C4047 1.384 . S
H4050 C4056 0.930 . S
H4051 C4060 0.930 . S
H4052 C4065 0.929 . S
H4053 C4063 0.929 . S
H4054 C4058 0.929 . S
H4055 C4064 0.929 . S
C4056 H4050 0.930 . S
C4056 C4057 1.367 . S
C4056 C4064 1.378 . S
C4057 C4056 1.367 . S
C4057 C4065 1.433 . S
C4058 H4054 0.929 . S
C4058 C4060 1.378 . S
C4058 C4062 1.350 . S
C4059 C4062 1.463 . S
C4059 C4064 1.350 . S
C4059 N4067 1.427 . S
C4060 H4051 0.930 . S
C4060 C4058 1.378 . S
C4060 C4061 1.367 . S
C4061 C4060 1.367 . S
C4061 C4063 1.433 . S
C4062 C4058 1.350 . S
C4062 C4059 1.463 . S
C4062 N4066 1.427 . S
C4063 H4053 0.929 . S
C4063 C4061 1.433 . S
C4063 N4066 1.384 . S
C4064 H4055 0.929 . S
C4064 C4056 1.378 . S
C4064 C4059 1.350 . S
C4065 H4052 0.929 . S
C4065 C4057 1.433 . S
C4065 N4067 1.384 . S
N4066 C4062 1.427 . S
N4066 C4063 1.384 . S
N4067 C4059 1.427 . S
N4067 C4065 1.384 . S
H4068 C4074 0.930 . S
H4069 C4078 0.930 . S
H4070 C4083 0.929 . S
H4071 C4081 0.929 . S
H4072 C4076 0.929 . S
H4073 C4082 0.929 . S
C4074 H4068 0.930 . S
C4074 C4075 1.367 . S
C4074 C4082 1.378 . S
C4075 C4074 1.367 . S
C4075 C4083 1.433 . S
C4076 H4072 0.929 . S
C4076 C4078 1.378 . S
C4076 C4080 1.350 . S
C4077 C4080 1.463 . S
C4077 C4082 1.350 . S
C4077 N4085 1.427 . S
C4078 H4069 0.930 . S
C4078 C4076 1.378 . S
C4078 C4079 1.367 . S
C4079 C4078 1.367 . S
C4079 C4081 1.433 . S
C4080 C4076 1.350 . S
C4080 C4077 1.463 . S
C4080 N4084 1.427 . S
C4081 H4071 0.929 . S
C4081 C4079 1.433 . S
C4081 N4084 1.384 . S
C4082 H4073 0.929 . S
C4082 C4074 1.378 . S
C4082 C4077 1.350 . S
C4083 H4070 0.929 . S
C4083 C4075 1.433 . S
C4083 N4085 1.384 . S
N4084 C4080 1.427 . S
N4084 C4081 1.384 . S
N4085 C4077 1.427 . S
N4085 C4083 1.384 . S
H4086 C4092 0.930 . S
H4087 C4096 0.930 . S
H4088 C4101 0.929 . S
H4089 C4099 0.929 . S
H4090 C4094 0.929 . S
H4091 C4100 0.929 . S
C4092 H4086 0.930 . S
C4092 C4093 1.367 . S
C4092 C4100 1.378 . S
C4093 C4092 1.367 . S
C4093 C4101 1.433 . S
C4094 H4090 0.929 . S
C4094 C4096 1.378 . S
C4094 C4098 1.350 . S
C4095 C4098 1.463 . S
C4095 C4100 1.350 . S
C4095 N4103 1.427 . S
C4096 H4087 0.930 . S
C4096 C4094 1.378 . S
C4096 C4097 1.367 . S
C4097 C4096 1.367 . S
C4097 C4099 1.433 . S
C4098 C4094 1.350 . S
C4098 C4095 1.463 . S
C4098 N4102 1.427 . S
C4099 H4089 0.929 . S
C4099 C4097 1.433 . S
C4099 N4102 1.384 . S
C4100 H4091 0.929 . S
C4100 C4092 1.378 . S
C4100 C4095 1.350 . S
C4101 H4088 0.929 . S
C4101 C4093 1.433 . S
C4101 N4103 1.384 . S
N4102 C4098 1.427 . S
N4102 C4099 1.384 . S
N4103 C4095 1.427 . S
N4103 C4101 1.384 . S
H4104 C4110 0.930 . S
H4105 C4114 0.930 . S
H4106 C4119 0.929 . S
H4107 C4117 0.929 . S
H4108 C4112 0.929 . S
H4109 C4118 0.929 . S
C4110 H4104 0.930 . S
C4110 C4111 1.367 . S
C4110 C4118 1.378 . S
C4111 C4110 1.367 . S
C4111 C4119 1.433 . S
C4112 H4108 0.929 . S
C4112 C4114 1.378 . S
C4112 C4116 1.350 . S
C4113 C4116 1.463 . S
C4113 C4118 1.350 . S
C4113 N4121 1.427 . S
C4114 H4105 0.930 . S
C4114 C4112 1.378 . S
C4114 C4115 1.367 . S
C4115 C4114 1.367 . S
C4115 C4117 1.433 . S
C4116 C4112 1.350 . S
C4116 C4113 1.463 . S
C4116 N4120 1.427 . S
C4117 H4107 0.929 . S
C4117 C4115 1.433 . S
C4117 N4120 1.384 . S
C4118 H4109 0.929 . S
C4118 C4110 1.378 . S
C4118 C4113 1.350 . S
C4119 H4106 0.929 . S
C4119 C4111 1.433 . S
C4119 N4121 1.384 . S
N4120 C4116 1.427 . S
N4120 C4117 1.384 . S
N4121 C4113 1.427 . S
N4121 C4119 1.384 . S
H4122 C4128 0.930 . S
H4123 C4132 0.930 . S
H4124 C4137 0.929 . S
H4125 C4135 0.929 . S
H4126 C4130 0.929 . S
H4127 C4136 0.929 . S
C4128 H4122 0.930 . S
C4128 C4129 1.367 . S
C4128 C4136 1.378 . S
C4129 C4128 1.367 . S
C4129 C4137 1.433 . S
C4130 H4126 0.929 . S
C4130 C4132 1.378 . S
C4130 C4134 1.350 . S
C4131 C4134 1.463 . S
C4131 C4136 1.350 . S
C4131 N4139 1.427 . S
C4132 H4123 0.930 . S
C4132 C4130 1.378 . S
C4132 C4133 1.367 . S
C4133 C4132 1.367 . S
C4133 C4135 1.433 . S
C4134 C4130 1.350 . S
C4134 C4131 1.463 . S
C4134 N4138 1.427 . S
C4135 H4125 0.929 . S
C4135 C4133 1.433 . S
C4135 N4138 1.384 . S
C4136 H4127 0.929 . S
C4136 C4128 1.378 . S
C4136 C4131 1.350 . S
C4137 H4124 0.929 . S
C4137 C4129 1.433 . S
C4137 N4139 1.384 . S
N4138 C4134 1.427 . S
N4138 C4135 1.384 . S
N4139 C4131 1.427 . S
N4139 C4137 1.384 . S
H4140 C4146 0.930 . S
H4141 C4150 0.930 . S
H4142 C4155 0.929 . S
H4143 C4153 0.929 . S
H4144 C4148 0.929 . S
H4145 C4154 0.929 . S
C4146 H4140 0.930 . S
C4146 C4147 1.367 . S
C4146 C4154 1.378 . S
C4147 C4146 1.367 . S
C4147 C4155 1.433 . S
C4148 H4144 0.929 . S
C4148 C4150 1.378 . S
C4148 C4152 1.350 . S
C4149 C4152 1.463 . S
C4149 C4154 1.350 . S
C4149 N4157 1.427 . S
C4150 H4141 0.930 . S
C4150 C4148 1.378 . S
C4150 C4151 1.367 . S
C4151 C4150 1.367 . S
C4151 C4153 1.433 . S
C4152 C4148 1.350 . S
C4152 C4149 1.463 . S
C4152 N4156 1.427 . S
C4153 H4143 0.929 . S
C4153 C4151 1.433 . S
C4153 N4156 1.384 . S
C4154 H4145 0.929 . S
C4154 C4146 1.378 . S
C4154 C4149 1.350 . S
C4155 H4142 0.929 . S
C4155 C4147 1.433 . S
C4155 N4157 1.384 . S
N4156 C4152 1.427 . S
N4156 C4153 1.384 . S
N4157 C4149 1.427 . S
N4157 C4155 1.384 . S
H4158 C4164 0.930 . S
H4159 C4168 0.930 . S
H4160 C4173 0.929 . S
H4161 C4171 0.929 . S
H4162 C4166 0.929 . S
H4163 C4172 0.929 . S
C4164 H4158 0.930 . S
C4164 C4165 1.367 . S
C4164 C4172 1.378 . S
C4165 C4164 1.367 . S
C4165 C4173 1.433 . S
C4166 H4162 0.929 . S
C4166 C4168 1.378 . S
C4166 C4170 1.350 . S
C4167 C4170 1.463 . S
C4167 C4172 1.350 . S
C4167 N4175 1.427 . S
C4168 H4159 0.930 . S
C4168 C4166 1.378 . S
C4168 C4169 1.367 . S
C4169 C4168 1.367 . S
C4169 C4171 1.433 . S
C4170 C4166 1.350 . S
C4170 C4167 1.463 . S
C4170 N4174 1.427 . S
C4171 H4161 0.929 . S
C4171 C4169 1.433 . S
C4171 N4174 1.384 . S
C4172 H4163 0.929 . S
C4172 C4164 1.378 . S
C4172 C4167 1.350 . S
C4173 H4160 0.929 . S
C4173 C4165 1.433 . S
C4173 N4175 1.384 . S
N4174 C4170 1.427 . S
N4174 C4171 1.384 . S
N4175 C4167 1.427 . S
N4175 C4173 1.384 . S
H4176 C4182 0.930 . S
H4177 C4186 0.930 . S
H4178 C4191 0.929 . S
H4179 C4189 0.929 . S
H4180 C4184 0.929 . S
H4181 C4190 0.929 . S
C4182 H4176 0.930 . S
C4182 C4183 1.367 . S
C4182 C4190 1.378 . S
C4183 C4182 1.367 . S
C4183 C4191 1.433 . S
C4184 H4180 0.929 . S
C4184 C4186 1.378 . S
C4184 C4188 1.350 . S
C4185 C4188 1.463 . S
C4185 C4190 1.350 . S
C4185 N4193 1.427 . S
C4186 H4177 0.930 . S
C4186 C4184 1.378 . S
C4186 C4187 1.367 . S
C4187 C4186 1.367 . S
C4187 C4189 1.433 . S
C4188 C4184 1.350 . S
C4188 C4185 1.463 . S
C4188 N4192 1.427 . S
C4189 H4179 0.929 . S
C4189 C4187 1.433 . S
C4189 N4192 1.384 . S
C4190 H4181 0.929 . S
C4190 C4182 1.378 . S
C4190 C4185 1.350 . S
C4191 H4178 0.929 . S
C4191 C4183 1.433 . S
C4191 N4193 1.384 . S
N4192 C4188 1.427 . S
N4192 C4189 1.384 . S
N4193 C4185 1.427 . S
N4193 C4191 1.384 . S
H4194 C4200 0.930 . S
H4195 C4204 0.930 . S
H4196 C4209 0.929 . S
H4197 C4207 0.929 . S
H4198 C4202 0.929 . S
H4199 C4208 0.929 . S
C4200 H4194 0.930 . S
C4200 C4201 1.367 . S
C4200 C4208 1.378 . S
C4201 C4200 1.367 . S
C4201 C4209 1.433 . S
C4202 H4198 0.929 . S
C4202 C4204 1.378 . S
C4202 C4206 1.350 . S
C4203 C4206 1.463 . S
C4203 C4208 1.350 . S
C4203 N4211 1.427 . S
C4204 H4195 0.930 . S
C4204 C4202 1.378 . S
C4204 C4205 1.367 . S
C4205 C4204 1.367 . S
C4205 C4207 1.433 . S
C4206 C4202 1.350 . S
C4206 C4203 1.463 . S
C4206 N4210 1.427 . S
C4207 H4197 0.929 . S
C4207 C4205 1.433 . S
C4207 N4210 1.384 . S
C4208 H4199 0.929 . S
C4208 C4200 1.378 . S
C4208 C4203 1.350 . S
C4209 H4196 0.929 . S
C4209 C4201 1.433 . S
C4209 N4211 1.384 . S
N4210 C4206 1.427 . S
N4210 C4207 1.384 . S
N4211 C4203 1.427 . S
N4211 C4209 1.384 . S
H4212 C4218 0.930 . S
H4213 C4222 0.930 . S
H4214 C4227 0.929 . S
H4215 C4225 0.929 . S
H4216 C4220 0.929 . S
H4217 C4226 0.929 . S
C4218 H4212 0.930 . S
C4218 C4219 1.367 . S
C4218 C4226 1.378 . S
C4219 C4218 1.367 . S
C4219 C4227 1.433 . S
C4220 H4216 0.929 . S
C4220 C4222 1.378 . S
C4220 C4224 1.350 . S
C4221 C4224 1.463 . S
C4221 C4226 1.350 . S
C4221 N4229 1.427 . S
C4222 H4213 0.930 . S
C4222 C4220 1.378 . S
C4222 C4223 1.367 . S
C4223 C4222 1.367 . S
C4223 C4225 1.433 . S
C4224 C4220 1.350 . S
C4224 C4221 1.463 . S
C4224 N4228 1.427 . S
C4225 H4215 0.929 . S
C4225 C4223 1.433 . S
C4225 N4228 1.384 . S
C4226 H4217 0.929 . S
C4226 C4218 1.378 . S
C4226 C4221 1.350 . S
C4227 H4214 0.929 . S
C4227 C4219 1.433 . S
C4227 N4229 1.384 . S
N4228 C4224 1.427 . S
N4228 C4225 1.384 . S
N4229 C4221 1.427 . S
N4229 C4227 1.384 . S
H4230 C4236 0.930 . S
H4231 C4240 0.930 . S
H4232 C4245 0.929 . S
H4233 C4243 0.929 . S
H4234 C4238 0.929 . S
H4235 C4244 0.929 . S
C4236 H4230 0.930 . S
C4236 C4237 1.367 . S
C4236 C4244 1.378 . S
C4237 C4236 1.367 . S
C4237 C4245 1.433 . S
C4238 H4234 0.929 . S
C4238 C4240 1.378 . S
C4238 C4242 1.350 . S
C4239 C4242 1.463 . S
C4239 C4244 1.350 . S
C4239 N4247 1.427 . S
C4240 H4231 0.930 . S
C4240 C4238 1.378 . S
C4240 C4241 1.367 . S
C4241 C4240 1.367 . S
C4241 C4243 1.433 . S
C4242 C4238 1.350 . S
C4242 C4239 1.463 . S
C4242 N4246 1.427 . S
C4243 H4233 0.929 . S
C4243 C4241 1.433 . S
C4243 N4246 1.384 . S
C4244 H4235 0.929 . S
C4244 C4236 1.378 . S
C4244 C4239 1.350 . S
C4245 H4232 0.929 . S
C4245 C4237 1.433 . S
C4245 N4247 1.384 . S
N4246 C4242 1.427 . S
N4246 C4243 1.384 . S
N4247 C4239 1.427 . S
N4247 C4245 1.384 . S
H4248 C4254 0.930 . S
H4249 C4258 0.930 . S
H4250 C4263 0.929 . S
H4251 C4261 0.929 . S
H4252 C4256 0.929 . S
H4253 C4262 0.929 . S
C4254 H4248 0.930 . S
C4254 C4255 1.367 . S
C4254 C4262 1.378 . S
C4255 C4254 1.367 . S
C4255 C4263 1.433 . S
C4256 H4252 0.929 . S
C4256 C4258 1.378 . S
C4256 C4260 1.350 . S
C4257 C4260 1.463 . S
C4257 C4262 1.350 . S
C4257 N4265 1.427 . S
C4258 H4249 0.930 . S
C4258 C4256 1.378 . S
C4258 C4259 1.367 . S
C4259 C4258 1.367 . S
C4259 C4261 1.433 . S
C4260 C4256 1.350 . S
C4260 C4257 1.463 . S
C4260 N4264 1.427 . S
C4261 H4251 0.929 . S
C4261 C4259 1.433 . S
C4261 N4264 1.384 . S
C4262 H4253 0.929 . S
C4262 C4254 1.378 . S
C4262 C4257 1.350 . S
C4263 H4250 0.929 . S
C4263 C4255 1.433 . S
C4263 N4265 1.384 . S
N4264 C4260 1.427 . S
N4264 C4261 1.384 . S
N4265 C4257 1.427 . S
N4265 C4263 1.384 . S
H4266 C4272 0.930 . S
H4267 C4276 0.930 . S
H4268 C4281 0.929 . S
H4269 C4279 0.929 . S
H4270 C4274 0.929 . S
H4271 C4280 0.929 . S
C4272 H4266 0.930 . S
C4272 C4273 1.367 . S
C4272 C4280 1.378 . S
C4273 C4272 1.367 . S
C4273 C4281 1.433 . S
C4274 H4270 0.929 . S
C4274 C4276 1.378 . S
C4274 C4278 1.350 . S
C4275 C4278 1.463 . S
C4275 C4280 1.350 . S
C4275 N4283 1.427 . S
C4276 H4267 0.930 . S
C4276 C4274 1.378 . S
C4276 C4277 1.367 . S
C4277 C4276 1.367 . S
C4277 C4279 1.433 . S
C4278 C4274 1.350 . S
C4278 C4275 1.463 . S
C4278 N4282 1.427 . S
C4279 H4269 0.929 . S
C4279 C4277 1.433 . S
C4279 N4282 1.384 . S
C4280 H4271 0.929 . S
C4280 C4272 1.378 . S
C4280 C4275 1.350 . S
C4281 H4268 0.929 . S
C4281 C4273 1.433 . S
C4281 N4283 1.384 . S
N4282 C4278 1.427 . S
N4282 C4279 1.384 . S
N4283 C4275 1.427 . S
N4283 C4281 1.384 . S
H4284 C4290 0.930 . S
H4285 C4294 0.930 . S
H4286 C4299 0.929 . S
H4287 C4297 0.929 . S
H4288 C4292 0.929 . S
H4289 C4298 0.929 . S
C4290 H4284 0.930 . S
C4290 C4291 1.367 . S
C4290 C4298 1.378 . S
C4291 C4290 1.367 . S
C4291 C4299 1.433 . S
C4292 H4288 0.929 . S
C4292 C4294 1.378 . S
C4292 C4296 1.350 . S
C4293 C4296 1.463 . S
C4293 C4298 1.350 . S
C4293 N4301 1.427 . S
C4294 H4285 0.930 . S
C4294 C4292 1.378 . S
C4294 C4295 1.367 . S
C4295 C4294 1.367 . S
C4295 C4297 1.433 . S
C4296 C4292 1.350 . S
C4296 C4293 1.463 . S
C4296 N4300 1.427 . S
C4297 H4287 0.929 . S
C4297 C4295 1.433 . S
C4297 N4300 1.384 . S
C4298 H4289 0.929 . S
C4298 C4290 1.378 . S
C4298 C4293 1.350 . S
C4299 H4286 0.929 . S
C4299 C4291 1.433 . S
C4299 N4301 1.384 . S
N4300 C4296 1.427 . S
N4300 C4297 1.384 . S
N4301 C4293 1.427 . S
N4301 C4299 1.384 . S
H4302 C4308 0.930 . S
H4303 C4312 0.930 . S
H4304 C4317 0.929 . S
H4305 C4315 0.929 . S
H4306 C4310 0.929 . S
H4307 C4316 0.929 . S
C4308 H4302 0.930 . S
C4308 C4309 1.367 . S
C4308 C4316 1.378 . S
C4309 C4308 1.367 . S
C4309 C4317 1.433 . S
C4310 H4306 0.929 . S
C4310 C4312 1.378 . S
C4310 C4314 1.350 . S
C4311 C4314 1.463 . S
C4311 C4316 1.350 . S
C4311 N4319 1.427 . S
C4312 H4303 0.930 . S
C4312 C4310 1.378 . S
C4312 C4313 1.367 . S
C4313 C4312 1.367 . S
C4313 C4315 1.433 . S
C4314 C4310 1.350 . S
C4314 C4311 1.463 . S
C4314 N4318 1.427 . S
C4315 H4305 0.929 . S
C4315 C4313 1.433 . S
C4315 N4318 1.384 . S
C4316 H4307 0.929 . S
C4316 C4308 1.378 . S
C4316 C4311 1.350 . S
C4317 H4304 0.929 . S
C4317 C4309 1.433 . S
C4317 N4319 1.384 . S
N4318 C4314 1.427 . S
N4318 C4315 1.384 . S
N4319 C4311 1.427 . S
N4319 C4317 1.384 . S
H4320 C4326 0.930 . S
H4321 C4330 0.930 . S
H4322 C4335 0.929 . S
H4323 C4333 0.929 . S
H4324 C4328 0.929 . S
H4325 C4334 0.929 . S
C4326 H4320 0.930 . S
C4326 C4327 1.367 . S
C4326 C4334 1.378 . S
C4327 C4326 1.367 . S
C4327 C4335 1.433 . S
C4328 H4324 0.929 . S
C4328 C4330 1.378 . S
C4328 C4332 1.350 . S
C4329 C4332 1.463 . S
C4329 C4334 1.350 . S
C4329 N4337 1.427 . S
C4330 H4321 0.930 . S
C4330 C4328 1.378 . S
C4330 C4331 1.367 . S
C4331 C4330 1.367 . S
C4331 C4333 1.433 . S
C4332 C4328 1.350 . S
C4332 C4329 1.463 . S
C4332 N4336 1.427 . S
C4333 H4323 0.929 . S
C4333 C4331 1.433 . S
C4333 N4336 1.384 . S
C4334 H4325 0.929 . S
C4334 C4326 1.378 . S
C4334 C4329 1.350 . S
C4335 H4322 0.929 . S
C4335 C4327 1.433 . S
C4335 N4337 1.384 . S
N4336 C4332 1.427 . S
N4336 C4333 1.384 . S
N4337 C4329 1.427 . S
N4337 C4335 1.384 . S
H4338 C4344 0.930 . S
H4339 C4348 0.930 . S
H4340 C4353 0.929 . S
H4341 C4351 0.929 . S
H4342 C4346 0.929 . S
H4343 C4352 0.929 . S
C4344 H4338 0.930 . S
C4344 C4345 1.367 . S
C4344 C4352 1.378 . S
C4345 C4344 1.367 . S
C4345 C4353 1.433 . S
C4346 H4342 0.929 . S
C4346 C4348 1.378 . S
C4346 C4350 1.350 . S
C4347 C4350 1.463 . S
C4347 C4352 1.350 . S
C4347 N4355 1.427 . S
C4348 H4339 0.930 . S
C4348 C4346 1.378 . S
C4348 C4349 1.367 . S
C4349 C4348 1.367 . S
C4349 C4351 1.433 . S
C4350 C4346 1.350 . S
C4350 C4347 1.463 . S
C4350 N4354 1.427 . S
C4351 H4341 0.929 . S
C4351 C4349 1.433 . S
C4351 N4354 1.384 . S
C4352 H4343 0.929 . S
C4352 C4344 1.378 . S
C4352 C4347 1.350 . S
C4353 H4340 0.929 . S
C4353 C4345 1.433 . S
C4353 N4355 1.384 . S
N4354 C4350 1.427 . S
N4354 C4351 1.384 . S
N4355 C4347 1.427 . S
N4355 C4353 1.384 . S
H4356 C4362 0.930 . S
H4357 C4366 0.930 . S
H4358 C4371 0.929 . S
H4359 C4369 0.929 . S
H4360 C4364 0.929 . S
H4361 C4370 0.929 . S
C4362 H4356 0.930 . S
C4362 C4363 1.367 . S
C4362 C4370 1.378 . S
C4363 C4362 1.367 . S
C4363 C4371 1.433 . S
C4364 H4360 0.929 . S
C4364 C4366 1.378 . S
C4364 C4368 1.350 . S
C4365 C4368 1.463 1_455 S
C4365 C4370 1.350 . S
C4365 N4373 1.427 . S
C4366 H4357 0.930 . S
C4366 C4364 1.378 . S
C4366 C4367 1.367 . S
C4367 C4366 1.367 . S
C4367 C4369 1.433 . S
C4368 C4364 1.350 . S
C4368 C4365 1.463 1_655 S
C4368 N4372 1.427 . S
C4369 H4359 0.929 . S
C4369 C4367 1.433 . S
C4369 N4372 1.384 . S
C4370 H4361 0.929 . S
C4370 C4362 1.378 . S
C4370 C4365 1.350 . S
C4371 H4358 0.929 . S
C4371 C4363 1.433 . S
C4371 N4373 1.384 . S
N4372 C4368 1.427 . S
N4372 C4369 1.384 . S
N4373 C4365 1.427 . S
N4373 C4371 1.384 . S
H4374 C4380 0.930 . S
H4375 C4384 0.930 . S
H4376 C4389 0.929 . S
H4377 C4387 0.929 . S
H4378 C4382 0.929 . S
H4379 C4388 0.929 . S
C4380 H4374 0.930 . S
C4380 C4381 1.367 . S
C4380 C4388 1.378 . S
C4381 C4380 1.367 . S
C4381 C4389 1.433 . S
C4382 H4378 0.929 . S
C4382 C4384 1.378 . S
C4382 C4386 1.350 . S
C4383 C4386 1.463 . S
C4383 C4388 1.350 . S
C4383 N4391 1.427 . S
C4384 H4375 0.930 . S
C4384 C4382 1.378 . S
C4384 C4385 1.367 . S
C4385 C4384 1.367 . S
C4385 C4387 1.433 . S
C4386 C4382 1.350 . S
C4386 C4383 1.463 . S
C4386 N4390 1.427 . S
C4387 H4377 0.929 . S
C4387 C4385 1.433 . S
C4387 N4390 1.384 . S
C4388 H4379 0.929 . S
C4388 C4380 1.378 . S
C4388 C4383 1.350 . S
C4389 H4376 0.929 . S
C4389 C4381 1.433 . S
C4389 N4391 1.384 . S
N4390 C4386 1.427 . S
N4390 C4387 1.384 . S
N4391 C4383 1.427 . S
N4391 C4389 1.384 . S
H4392 C4398 0.930 . S
H4393 C4402 0.930 . S
H4394 C4407 0.929 . S
H4395 C4405 0.929 . S
H4396 C4400 0.929 . S
H4397 C4406 0.929 . S
C4398 H4392 0.930 . S
C4398 C4399 1.367 . S
C4398 C4406 1.378 . S
C4399 C4398 1.367 . S
C4399 C4407 1.433 . S
C4400 H4396 0.929 . S
C4400 C4402 1.378 . S
C4400 C4404 1.350 . S
C4401 C4404 1.463 1_545 S
C4401 C4406 1.350 . S
C4401 N4409 1.427 . S
C4402 H4393 0.930 . S
C4402 C4400 1.378 . S
C4402 C4403 1.367 . S
C4403 C4402 1.367 . S
C4403 C4405 1.433 . S
C4404 C4400 1.350 . S
C4404 C4401 1.463 1_565 S
C4404 N4408 1.427 . S
C4405 H4395 0.929 . S
C4405 C4403 1.433 . S
C4405 N4408 1.384 . S
C4406 H4397 0.929 . S
C4406 C4398 1.378 . S
C4406 C4401 1.350 . S
C4407 H4394 0.929 . S
C4407 C4399 1.433 . S
C4407 N4409 1.384 . S
N4408 C4404 1.427 . S
N4408 C4405 1.384 . S
N4409 C4401 1.427 . S
N4409 C4407 1.384 . S
H4410 C4416 0.930 . S
H4411 C4420 0.930 . S
H4412 C4425 0.931 . S
H4413 C4423 0.936 . S
H4414 C4418 0.878 1_545 S
H4415 C4424 0.906 1_565 S
C4416 H4410 0.930 . S
C4416 C4417 1.367 . S
C4416 C4424 1.378 . S
C4417 C4416 1.367 . S
C4417 C4425 1.433 . S
C4418 H4414 0.878 1_565 S
C4418 C4420 1.378 . S
C4418 C4422 1.350 . S
C4419 C4422 1.463 1_546 S
C4419 C4424 1.350 . S
C4419 N4427 1.427 1_556 S
C4420 H4411 0.930 . S
C4420 C4418 1.378 . S
C4420 C4421 1.367 . S
C4421 C4420 1.367 . S
C4421 C4423 1.433 . S
C4422 C4418 1.350 . S
C4422 C4419 1.463 1_564 S
C4422 N4426 1.427 1_554 S
C4423 H4413 0.936 . S
C4423 C4421 1.433 . S
C4423 N4426 1.384 1_554 S
C4424 H4415 0.906 1_545 S
C4424 C4416 1.378 . S
C4424 C4419 1.350 . S
C4425 H4412 0.931 . S
C4425 C4417 1.433 . S
C4425 N4427 1.384 1_556 S
N4426 C4422 1.427 1_556 S
N4426 C4423 1.384 1_556 S
N4427 C4419 1.427 1_554 S
N4427 C4425 1.384 1_554 S
H4428 C4434 0.930 . S
H4429 C4438 0.930 . S
H4430 C4443 0.929 . S
H4431 C4441 0.929 . S
H4432 C4436 0.929 . S
H4433 C4442 0.929 . S
C4434 H4428 0.930 . S
C4434 C4435 1.367 . S
C4434 C4442 1.378 . S
C4435 C4434 1.367 . S
C4435 C4443 1.433 . S
C4436 H4432 0.929 . S
C4436 C4438 1.378 . S
C4436 C4440 1.350 . S
C4437 C4440 1.463 1_656 S
C4437 C4442 1.350 . S
C4437 N4445 1.427 . S
C4438 H4429 0.930 . S
C4438 C4436 1.378 . S
C4438 C4439 1.367 . S
C4439 C4438 1.367 . S
C4439 C4441 1.433 . S
C4440 C4436 1.350 . S
C4440 C4437 1.463 1_454 S
C4440 N4444 1.427 . S
C4441 H4431 0.929 . S
C4441 C4439 1.433 . S
C4441 N4444 1.384 . S
C4442 H4433 0.929 . S
C4442 C4434 1.378 . S
C4442 C4437 1.350 . S
C4443 H4430 0.929 . S
C4443 C4435 1.433 . S
C4443 N4445 1.384 . S
N4444 C4440 1.427 . S
N4444 C4441 1.384 . S
N4445 C4437 1.427 . S
N4445 C4443 1.384 . S
H4446 C4452 0.930 . S
H4447 C4456 0.930 . S
H4448 C4461 0.929 . S
H4449 C4459 0.929 . S
H4450 C4454 0.929 . S
H4451 C4460 0.929 . S
C4452 H4446 0.930 . S
C4452 C4453 1.367 . S
C4452 C4460 1.378 . S
C4453 C4452 1.367 . S
C4453 C4461 1.433 . S
C4454 H4450 0.929 . S
C4454 C4456 1.378 . S
C4454 C4458 1.350 . S
C4455 C4458 1.463 1_556 S
C4455 C4460 1.350 . S
C4455 N4463 1.427 1_556 S
C4456 H4447 0.930 . S
C4456 C4454 1.378 . S
C4456 C4457 1.367 . S
C4457 C4456 1.367 . S
C4457 C4459 1.433 . S
C4458 C4454 1.350 . S
C4458 C4455 1.463 1_554 S
C4458 N4462 1.427 1_554 S
C4459 H4449 0.929 . S
C4459 C4457 1.433 . S
C4459 N4462 1.384 1_554 S
C4460 H4451 0.929 . S
C4460 C4452 1.378 . S
C4460 C4455 1.350 . S
C4461 H4448 0.929 . S
C4461 C4453 1.433 . S
C4461 N4463 1.384 1_556 S
N4462 C4458 1.427 1_556 S
N4462 C4459 1.384 1_556 S
N4463 C4455 1.427 1_554 S
N4463 C4461 1.384 1_554 S
C3175 C20 1.060 . S
C3179 C645 1.066 . S
C3193 C117 1.051 . S
C3197 C724 1.054 . S
C3211 C557 1.058 . S
C3215 C233 1.042 . S
C3229 C1017 1.059 . S
C3233 C284 1.042 . S
C3247 C401 1.052 . S
C3251 C841 1.068 . S
C3265 C469 1.058 . S
C3269 C929 1.058 . S
C3283 C137 1.047 . S
C3287 C548 1.045 . S
C3301 C196 1.051 . S
C3305 C636 1.032 . S
C3319 C733 1.051 . S
C3323 C57 1.057 . S
C3337 C849 1.032 . S
C3341 C489 1.049 . S
C3355 C321 1.055 . S
C3359 C937 1.033 . S
C3373 C1025 1.040 . S
C3377 C381 1.060 . S
C3391 C1701 1.055 . S
C3395 C1076 1.055 . S
C3409 C1164 1.052 . S
C3413 C1780 1.068 . S
C3427 C1289 1.048 . S
C3431 C1613 1.067 . S
C3445 C2081 1.056 . S
C3449 C1340 1.042 . S
C3463 C1457 1.061 . S
C3467 C1905 1.062 . S
C3481 C1993 1.062 . S
C3485 C1525 1.060 . S
C3499 C1201 1.055 . S
C3503 C1604 1.052 . S
C3517 C1692 1.042 . S
C3521 C1252 1.046 . S
C3535 C1113 1.059 . S
C3539 C1789 1.038 . S
C3553 C1897 1.048 . S
C3557 C1545 1.049 . S
C3571 C1985 1.042 . S
C3575 C1377 1.046 . S
C3589 C2073 1.035 . S
C3593 C1437 1.057 . S
C3607 C2757 1.061 . S
C3611 C2169 1.060 . S
C3625 C2836 1.056 . S
C3629 C2229 1.042 . S
C3643 C2669 1.068 . S
C3647 C2345 1.059 . S
C3661 C2396 1.058 . S
C3665 C3137 1.068 . S
C3679 C2513 1.061 . S
C3683 C2961 1.065 . S
C3697 C3041 1.059 . S
C3701 C2581 1.042 . S
C3715 C2660 1.038 . S
C3719 C2249 1.059 . S
C3733 C2308 1.060 . S
C3737 C2748 1.048 . S
C3751 C2132 1.047 . S
C3755 C2845 1.034 . S
C3769 C2953 1.042 . S
C3773 C2601 1.061 . S
C3787 C3049 1.041 . S
C3791 C2433 1.060 . S
C3805 C3129 1.032 . S
C3809 C2493 1.053 . S
C3823 C313 1.567 . S
C3827 C49 1.564 . S
C3841 C372 1.564 . S
C3845 C145 1.565 . S
C3859 C205 1.582 . S
C3863 C497 1.580 . S
C3877 C821 1.563 . S
C3881 C577 1.562 . S
C3895 C909 1.572 . S
C3899 C665 1.577 . S
C3913 C997 1.577 . S
C3917 C761 1.572 . S
C3931 C1369 1.565 . S
C3935 C1105 1.564 . S
C3949 C1428 1.579 . S
C3953 C1193 1.581 . S
C3967 C1261 1.575 . S
C3971 C1553 1.579 . S
C3985 C1868 1.565 . S
C3989 C1633 1.570 . S
C4003 C1956 1.579 . S
C4007 C1721 1.575 . S
C4021 C2044 1.579 . S
C4025 C1817 1.579 . S
C4039 C2425 1.565 . S
C4043 C2141 1.568 . S
C4057 C2257 1.570 . S
C4061 C2484 1.566 . S
C4075 C2609 1.574 . S
C4079 C2317 1.568 . S
C4093 C2689 1.562 . S
C4097 C2924 1.565 . S
C4111 C2777 1.579 . S
C4115 C3021 1.578 . S
C4129 C2873 1.568 . S
C4133 C3100 1.563 . S
C4147 C29 1.465 . S
C4151 C1641 1.463 . S
C4165 C1729 1.452 . S
C4169 C108 1.455 . S
C4183 C1809 1.452 . S
C4187 C225 1.455 . S
C4201 C2933 1.453 . S
C4205 C293 1.456 . S
C4219 C3012 1.453 . S
C4223 C409 1.456 . S
C4237 C3109 1.454 . S
C4241 C460 1.456 . S
C4255 C585 1.453 . S
C4259 C2161 1.456 . S
C4273 C2220 1.465 . S
C4277 C673 1.463 . S
C4291 C2337 1.456 . S
C4295 C753 1.453 . S
C4309 C812 1.461 . S
C4313 C1349 1.464 . S
C4327 C900 1.458 . S
C4331 C1465 1.461 . S
C4345 C988 1.461 . S
C4349 C1516 1.464 . S
C4363 C2697 1.452 . S
C4367 C1085 1.455 . S
C4381 C2785 1.460 . S
C4385 C1173 1.462 . S
C4399 C1281 1.462 . S
C4403 C2865 1.460 . S
C4417 C1877 1.462 . S
C4421 C2405 1.464 . S
C4435 C1965 1.460 . S
C4439 C2521 1.462 . S
C4453 C2053 1.462 . S
C4457 C2572 1.464 . S
