# Generated by pormake.
# Topology lta, (4)-cn, num edge types: 1
# Building blocks:
#     Node 0, Type 0, BuildingBlock: CEKHIL_clean_sbu_0, # of connection points: 4
#     Node 1, Type 0, BuildingBlock: CEKHIL_clean_sbu_0, # of connection points: 4
#     Node 2, Type 0, BuildingBlock: CEKHIL_clean_sbu_0, # of connection points: 4
#     Node 3, Type 0, BuildingBlock: CEKHIL_clean_sbu_0, # of connection points: 4
#     Node 4, Type 0, BuildingBlock: CEKHIL_clean_sbu_0, # of connection points: 4
#     Node 5, Type 0, BuildingBlock: CEKHIL_clean_sbu_0, # of connection points: 4
#     Node 6, Type 0, BuildingBlock: CEKHIL_clean_sbu_0, # of connection points: 4
#     Node 7, Type 0, BuildingBlock: CEKHIL_clean_sbu_0, # of connection points: 4
#     Node 8, Type 0, BuildingBlock: CEKHIL_clean_sbu_0, # of connection points: 4
#     Node 9, Type 0, BuildingBlock: CEKHIL_clean_sbu_0, # of connection points: 4
#     Node 10, Type 0, BuildingBlock: CEKHIL_clean_sbu_0, # of connection points: 4
#     Node 11, Type 0, BuildingBlock: CEKHIL_clean_sbu_0, # of connection points: 4
#     Node 12, Type 0, BuildingBlock: CEKHIL_clean_sbu_0, # of connection points: 4
#     Node 13, Type 0, BuildingBlock: CEKHIL_clean_sbu_0, # of connection points: 4
#     Node 14, Type 0, BuildingBlock: CEKHIL_clean_sbu_0, # of connection points: 4
#     Node 15, Type 0, BuildingBlock: CEKHIL_clean_sbu_0, # of connection points: 4
#     Node 16, Type 0, BuildingBlock: CEKHIL_clean_sbu_0, # of connection points: 4
#     Node 17, Type 0, BuildingBlock: CEKHIL_clean_sbu_0, # of connection points: 4
#     Node 18, Type 0, BuildingBlock: CEKHIL_clean_sbu_0, # of connection points: 4
#     Node 19, Type 0, BuildingBlock: CEKHIL_clean_sbu_0, # of connection points: 4
#     Node 20, Type 0, BuildingBlock: CEKHIL_clean_sbu_0, # of connection points: 4
#     Node 21, Type 0, BuildingBlock: CEKHIL_clean_sbu_0, # of connection points: 4
#     Node 22, Type 0, BuildingBlock: CEKHIL_clean_sbu_0, # of connection points: 4
#     Node 23, Type 0, BuildingBlock: CEKHIL_clean_sbu_0, # of connection points: 4
#     Edge 24, Type (0, 0), BuildingBlock: CIFDUS_clean_linker_0, # of connection points: 2
#     Edge 25, Type (0, 0), BuildingBlock: CIFDUS_clean_linker_0, # of connection points: 2
#     Edge 26, Type (0, 0), BuildingBlock: CIFDUS_clean_linker_0, # of connection points: 2
#     Edge 27, Type (0, 0), BuildingBlock: CIFDUS_clean_linker_0, # of connection points: 2
#     Edge 28, Type (0, 0), BuildingBlock: CIFDUS_clean_linker_0, # of connection points: 2
#     Edge 29, Type (0, 0), BuildingBlock: CIFDUS_clean_linker_0, # of connection points: 2
#     Edge 30, Type (0, 0), BuildingBlock: CIFDUS_clean_linker_0, # of connection points: 2
#     Edge 31, Type (0, 0), BuildingBlock: CIFDUS_clean_linker_0, # of connection points: 2
#     Edge 32, Type (0, 0), BuildingBlock: CIFDUS_clean_linker_0, # of connection points: 2
#     Edge 33, Type (0, 0), BuildingBlock: CIFDUS_clean_linker_0, # of connection points: 2
#     Edge 34, Type (0, 0), BuildingBlock: CIFDUS_clean_linker_0, # of connection points: 2
#     Edge 35, Type (0, 0), BuildingBlock: CIFDUS_clean_linker_0, # of connection points: 2
#     Edge 36, Type (0, 0), BuildingBlock: CIFDUS_clean_linker_0, # of connection points: 2
#     Edge 37, Type (0, 0), BuildingBlock: CIFDUS_clean_linker_0, # of connection points: 2
#     Edge 38, Type (0, 0), BuildingBlock: CIFDUS_clean_linker_0, # of connection points: 2
#     Edge 39, Type (0, 0), BuildingBlock: CIFDUS_clean_linker_0, # of connection points: 2
#     Edge 40, Type (0, 0), BuildingBlock: CIFDUS_clean_linker_0, # of connection points: 2
#     Edge 41, Type (0, 0), BuildingBlock: CIFDUS_clean_linker_0, # of connection points: 2
#     Edge 42, Type (0, 0), BuildingBlock: CIFDUS_clean_linker_0, # of connection points: 2
#     Edge 43, Type (0, 0), BuildingBlock: CIFDUS_clean_linker_0, # of connection points: 2
#     Edge 44, Type (0, 0), BuildingBlock: CIFDUS_clean_linker_0, # of connection points: 2
#     Edge 45, Type (0, 0), BuildingBlock: CIFDUS_clean_linker_0, # of connection points: 2
#     Edge 46, Type (0, 0), BuildingBlock: CIFDUS_clean_linker_0, # of connection points: 2
#     Edge 47, Type (0, 0), BuildingBlock: CIFDUS_clean_linker_0, # of connection points: 2
#     Edge 48, Type (0, 0), BuildingBlock: CIFDUS_clean_linker_0, # of connection points: 2
#     Edge 49, Type (0, 0), BuildingBlock: CIFDUS_clean_linker_0, # of connection points: 2
#     Edge 50, Type (0, 0), BuildingBlock: CIFDUS_clean_linker_0, # of connection points: 2
#     Edge 51, Type (0, 0), BuildingBlock: CIFDUS_clean_linker_0, # of connection points: 2
#     Edge 52, Type (0, 0), BuildingBlock: CIFDUS_clean_linker_0, # of connection points: 2
#     Edge 53, Type (0, 0), BuildingBlock: CIFDUS_clean_linker_0, # of connection points: 2
#     Edge 54, Type (0, 0), BuildingBlock: CIFDUS_clean_linker_0, # of connection points: 2
#     Edge 55, Type (0, 0), BuildingBlock: CIFDUS_clean_linker_0, # of connection points: 2
#     Edge 56, Type (0, 0), BuildingBlock: CIFDUS_clean_linker_0, # of connection points: 2
#     Edge 57, Type (0, 0), BuildingBlock: CIFDUS_clean_linker_0, # of connection points: 2
#     Edge 58, Type (0, 0), BuildingBlock: CIFDUS_clean_linker_0, # of connection points: 2
#     Edge 59, Type (0, 0), BuildingBlock: CIFDUS_clean_linker_0, # of connection points: 2
#     Edge 60, Type (0, 0), BuildingBlock: CIFDUS_clean_linker_0, # of connection points: 2
#     Edge 61, Type (0, 0), BuildingBlock: CIFDUS_clean_linker_0, # of connection points: 2
#     Edge 62, Type (0, 0), BuildingBlock: CIFDUS_clean_linker_0, # of connection points: 2
#     Edge 63, Type (0, 0), BuildingBlock: CIFDUS_clean_linker_0, # of connection points: 2
#     Edge 64, Type (0, 0), BuildingBlock: CIFDUS_clean_linker_0, # of connection points: 2
#     Edge 65, Type (0, 0), BuildingBlock: CIFDUS_clean_linker_0, # of connection points: 2
#     Edge 66, Type (0, 0), BuildingBlock: CIFDUS_clean_linker_0, # of connection points: 2
#     Edge 67, Type (0, 0), BuildingBlock: CIFDUS_clean_linker_0, # of connection points: 2
#     Edge 68, Type (0, 0), BuildingBlock: CIFDUS_clean_linker_0, # of connection points: 2
#     Edge 69, Type (0, 0), BuildingBlock: CIFDUS_clean_linker_0, # of connection points: 2
#     Edge 70, Type (0, 0), BuildingBlock: CIFDUS_clean_linker_0, # of connection points: 2
#     Edge 71, Type (0, 0), BuildingBlock: CIFDUS_clean_linker_0, # of connection points: 2
# Relax obj value: 0.291
# Max RMSD: 0.167
# Mean RMSD: 0.167
data_MOF--net-lta--node1-CEKHIL_clean_sbu_0--edge1-CIFDUS_clean_linker_0
_symmetry_space_group_name_H-M    P1
_symmetry_Int_Tables_number       1
_symmetry_cell_setting            triclinic
loop_
_symmetry_equiv_pos_as_xyz
'x, y, z'
_cell_length_a     49.027391
_cell_length_b     49.050516
_cell_length_c     48.993671
_cell_angle_alpha  89.979549
_cell_angle_beta   89.989903
_cell_angle_gamma 90.038497
loop_
_atom_site_label
_atom_site_type_symbol
_atom_site_fract_x
_atom_site_fract_y
_atom_site_fract_z
_atom_type_partial_charge
Co0 Co 0.13895 0.31554 0.48748 0.0
O1 O 0.17631 0.30443 0.49124 0.0
O2 O 0.14085 0.27776 0.49934 0.0
C3 C 0.14579 0.3355 0.44639 0.0
O4 O 0.09756 0.3195 0.48522 0.0
Co5 Co 0.12271 0.37647 0.48117 0.0
O6 O 0.08692 0.3614 0.46998 0.0
C7 C 0.13738 0.35411 0.53562 0.0
C8 C 0.16723 0.2805 0.49785 0.0
C9 C 0.08021 0.3372 0.47657 0.0
O10 O 0.13836 0.32948 0.52645 0.0
O11 O 0.13366 0.37512 0.52057 0.0
O12 O 0.14116 0.30948 0.44776 0.0
O13 O 0.14714 0.34813 0.46936 0.0
Co14 Co 0.68781 0.14089 0.49547 0.0
O15 O 0.70106 0.17744 0.49853 0.0
O16 O 0.72604 0.14083 0.50652 0.0
C17 C 0.66757 0.14781 0.45458 0.0
O18 O 0.68056 0.09989 0.49332 0.0
Co19 Co 0.62496 0.13127 0.49167 0.0
O20 O 0.63682 0.09431 0.48034 0.0
C21 C 0.65059 0.14355 0.54497 0.0
C22 C 0.72462 0.16731 0.50472 0.0
C23 C 0.66054 0.08483 0.48532 0.0
O24 O 0.67477 0.14132 0.53483 0.0
O25 O 0.62874 0.14286 0.53068 0.0
O26 O 0.69332 0.14179 0.45566 0.0
O27 O 0.6557 0.15115 0.47774 0.0
Co28 Co 0.86412 0.689 0.4917 0.0
O29 O 0.82789 0.70334 0.49204 0.0
O30 O 0.86421 0.72668 0.50481 0.0
C31 C 0.85944 0.6712 0.44917 0.0
O32 O 0.90491 0.6802 0.49359 0.0
Co33 Co 0.87111 0.62603 0.48508 0.0
O34 O 0.9104 0.63514 0.48604 0.0
C35 C 0.85418 0.64936 0.53814 0.0
C36 C 0.83798 0.72621 0.50041 0.0
C37 C 0.91995 0.65874 0.49142 0.0
O38 O 0.85945 0.67386 0.53006 0.0
O39 O 0.85437 0.62862 0.52226 0.0
O40 O 0.86665 0.69649 0.45207 0.0
O41 O 0.85415 0.65842 0.47141 0.0
Co42 Co 0.31862 0.86727 0.49151 0.0
O43 O 0.304 0.83122 0.48821 0.0
O44 O 0.28065 0.86654 0.50352 0.0
C45 C 0.33807 0.86731 0.44955 0.0
O46 O 0.32737 0.90765 0.49711 0.0
Co47 Co 0.38195 0.87439 0.48834 0.0
O48 O 0.37276 0.91357 0.49204 0.0
C49 C 0.3564 0.85358 0.53879 0.0
C50 C 0.28106 0.84074 0.49714 0.0
C51 C 0.34889 0.92276 0.49683 0.0
O52 O 0.3323 0.85932 0.52988 0.0
O53 O 0.37791 0.85493 0.52403 0.0
O54 O 0.31256 0.8739 0.45223 0.0
O55 O 0.35002 0.85934 0.47146 0.0
Co56 Co 0.14031 0.68749 0.51021 0.0
O57 O 0.17839 0.69618 0.50973 0.0
O58 O 0.14578 0.72464 0.49701 0.0
C59 C 0.14084 0.6692 0.55264 0.0
O60 O 0.09863 0.68508 0.50868 0.0
Co61 Co 0.12335 0.62625 0.5163 0.0
O62 O 0.08654 0.64234 0.52047 0.0
C63 C 0.14446 0.64687 0.46368 0.0
C64 C 0.17168 0.7201 0.50084 0.0
C65 C 0.08046 0.66688 0.51432 0.0
O66 O 0.14293 0.67183 0.47186 0.0
O67 O 0.14045 0.62628 0.47923 0.0
O68 O 0.13833 0.69537 0.54968 0.0
O69 O 0.14483 0.65567 0.53056 0.0
Co70 Co 0.32375 0.14338 0.51491 0.0
O71 O 0.31567 0.1816 0.51589 0.0
O72 O 0.28654 0.14982 0.50257 0.0
C73 C 0.34271 0.14226 0.55693 0.0
O74 O 0.3251 0.10167 0.51206 0.0
Co75 Co 0.38418 0.12401 0.51912 0.0
O76 O 0.36686 0.08817 0.52547 0.0
C77 C 0.36277 0.1444 0.46642 0.0
C78 C 0.29148 0.17551 0.50721 0.0
C79 C 0.34233 0.0829 0.51864 0.0
O80 O 0.33858 0.14721 0.47637 0.0
O81 O 0.3835 0.13694 0.4804 0.0
O82 O 0.31645 0.14026 0.55425 0.0
O83 O 0.35619 0.14661 0.5348 0.0
Co84 Co 0.86607 0.3196 0.52124 0.0
O85 O 0.82751 0.31305 0.51986 0.0
O86 O 0.85889 0.28279 0.50828 0.0
C87 C 0.86457 0.33842 0.56349 0.0
O88 O 0.90773 0.31881 0.52032 0.0
Co89 Co 0.88901 0.37837 0.52791 0.0
O90 O 0.92496 0.36029 0.52999 0.0
C91 C 0.86602 0.36025 0.47498 0.0
C92 C 0.8332 0.28861 0.5116 0.0
C93 C 0.92789 0.3351 0.52451 0.0
O94 O 0.86525 0.33516 0.48283 0.0
O95 O 0.87201 0.38016 0.49078 0.0
O96 O 0.86588 0.31212 0.56079 0.0
O97 O 0.86302 0.35206 0.54113 0.0
Co98 Co 0.68408 0.86639 0.51206 0.0
O99 O 0.69254 0.82844 0.50891 0.0
O100 O 0.72246 0.86159 0.50252 0.0
C101 C 0.66121 0.86128 0.55201 0.0
O102 O 0.68233 0.90802 0.51384 0.0
Co103 Co 0.62292 0.88401 0.5133 0.0
O104 O 0.6383 0.92113 0.51661 0.0
C105 C 0.64878 0.868 0.46122 0.0
C106 C 0.71736 0.83553 0.50337 0.0
C107 C 0.6637 0.9265 0.51518 0.0
O108 O 0.67271 0.86765 0.47217 0.0
O109 O 0.62668 0.87117 0.47474 0.0
O110 O 0.68753 0.86415 0.55216 0.0
O111 O 0.65011 0.86013 0.52827 0.0
Co112 Co 0.49509 0.14885 0.32122 0.0
O113 O 0.49301 0.1872 0.31314 0.0
O114 O 0.50849 0.15591 0.28456 0.0
C115 C 0.45267 0.14645 0.33911 0.0
O116 O 0.49999 0.10742 0.32193 0.0
Co117 Co 0.48869 0.12621 0.38038 0.0
O118 O 0.48486 0.0905 0.36185 0.0
C119 C 0.54038 0.1527 0.36282 0.0
C120 C 0.50282 0.18139 0.28925 0.0
C121 C 0.49362 0.0873 0.3376 0.0
O122 O 0.53262 0.15399 0.33771 0.0
O123 O 0.52522 0.14445 0.38243 0.0
O124 O 0.45599 0.14456 0.31286 0.0
O125 O 0.47437 0.15068 0.35319 0.0
Co126 Co 0.86376 0.49816 0.32682 0.0
O127 O 0.82818 0.49807 0.31076 0.0
O128 O 0.86616 0.5031 0.28717 0.0
C129 C 0.85509 0.46102 0.35328 0.0
O130 O 0.90425 0.49893 0.33769 0.0
Co131 Co 0.86668 0.50511 0.39038 0.0
O132 O 0.90606 0.49905 0.38368 0.0
C133 C 0.85513 0.55239 0.35495 0.0
C134 C 0.83962 0.50118 0.28721 0.0
C135 C 0.91772 0.49908 0.36037 0.0
O136 O 0.86168 0.53901 0.33326 0.0
O137 O 0.8524 0.54139 0.37849 0.0
O138 O 0.86348 0.45767 0.32834 0.0
O139 O 0.85106 0.48585 0.36033 0.0
Co140 Co 0.51255 0.86746 0.31844 0.0
O141 O 0.51314 0.82963 0.30771 0.0
O142 O 0.50113 0.86365 0.2807 0.0
C143 C 0.55393 0.86527 0.33888 0.0
O144 O 0.50965 0.90899 0.32132 0.0
Co145 Co 0.51702 0.88724 0.37834 0.0
O146 O 0.52252 0.92396 0.36264 0.0
C147 C 0.46426 0.86614 0.35676 0.0
C148 C 0.50548 0.83767 0.28366 0.0
C149 C 0.51536 0.92835 0.3381 0.0
O150 O 0.4738 0.86365 0.33235 0.0
O151 O 0.47853 0.8735 0.37737 0.0
O152 O 0.5523 0.86943 0.31274 0.0
O153 O 0.53112 0.86218 0.3515 0.0
Co154 Co 0.13769 0.50805 0.31827 0.0
O155 O 0.17443 0.50561 0.30506 0.0
O156 O 0.13805 0.5009 0.27898 0.0
C157 C 0.14641 0.54623 0.34303 0.0
O158 O 0.09637 0.50991 0.32513 0.0
Co159 Co 0.12688 0.5061 0.38104 0.0
O160 O 0.08908 0.51502 0.37019 0.0
C161 C 0.14102 0.45583 0.35074 0.0
C162 C 0.16455 0.50181 0.28087 0.0
C163 C 0.08029 0.51329 0.34574 0.0
O164 O 0.13766 0.46763 0.32742 0.0
O165 O 0.14054 0.46843 0.3736 0.0
O166 O 0.14007 0.54839 0.31737 0.0
O167 O 0.14808 0.52176 0.35215 0.0
Co168 Co 0.49136 0.86091 0.68629 0.0
O169 O 0.49668 0.82267 0.6932 0.0
O170 O 0.50048 0.85481 0.72456 0.0
C171 C 0.45246 0.85386 0.66219 0.0
O172 O 0.48704 0.90255 0.68706 0.0
Co173 Co 0.48813 0.88443 0.62747 0.0
O174 O 0.47429 0.91764 0.64564 0.0
C175 C 0.54142 0.86795 0.65132 0.0
C176 C 0.50115 0.82898 0.71849 0.0
C177 C 0.47883 0.92161 0.6709 0.0
O178 O 0.53109 0.86476 0.67534 0.0
O179 O 0.52735 0.87335 0.62999 0.0
O180 O 0.45146 0.85569 0.68862 0.0
O181 O 0.47635 0.85576 0.65156 0.0
Co182 Co 0.14391 0.4924 0.679 0.0
O183 O 0.18206 0.49526 0.68745 0.0
O184 O 0.14898 0.50259 0.71717 0.0
C185 C 0.14851 0.45222 0.65684 0.0
O186 O 0.10201 0.49068 0.67758 0.0
Co187 Co 0.12387 0.48954 0.61888 0.0
O188 O 0.08992 0.47595 0.63581 0.0
C189 C 0.13978 0.54269 0.64308 0.0
C190 C 0.17505 0.50132 0.7122 0.0
C191 C 0.08411 0.48173 0.66046 0.0
O192 O 0.14359 0.53192 0.66679 0.0
O193 O 0.13334 0.52911 0.62173 0.0
O194 O 0.14575 0.4525 0.6832 0.0
O195 O 0.14959 0.47568 0.64514 0.0
Co196 Co 0.51489 0.13765 0.69023 0.0
O197 O 0.51436 0.17657 0.69494 0.0
O198 O 0.50423 0.14705 0.72744 0.0
C199 C 0.55583 0.13827 0.66854 0.0
O200 O 0.51353 0.09584 0.69336 0.0
Co201 Co 0.51803 0.11063 0.63314 0.0
O202 O 0.52415 0.07635 0.65317 0.0
C203 C 0.46557 0.13323 0.65333 0.0
C204 C 0.50737 0.17237 0.7201 0.0
C205 C 0.51863 0.07476 0.67846 0.0
O206 O 0.47575 0.13863 0.67699 0.0
O207 O 0.47937 0.12367 0.63334 0.0
O208 O 0.55477 0.13789 0.69504 0.0
O209 O 0.53262 0.13887 0.6563 0.0
Co210 Co 0.86752 0.51321 0.68733 0.0
O211 O 0.83001 0.51069 0.69877 0.0
O212 O 0.86538 0.50736 0.7265 0.0
C213 C 0.85997 0.5504 0.66071 0.0
O214 O 0.90908 0.51523 0.68354 0.0
Co215 Co 0.88372 0.50939 0.62604 0.0
O216 O 0.92154 0.51405 0.6393 0.0
C217 C 0.86789 0.45983 0.65665 0.0
C218 C 0.839 0.50781 0.72348 0.0
C219 C 0.92732 0.51512 0.66461 0.0
O220 O 0.8687 0.47251 0.67971 0.0
O221 O 0.87027 0.47163 0.63348 0.0
O222 O 0.8646 0.55342 0.68665 0.0
O223 O 0.85935 0.52564 0.65217 0.0
Co224 Co 0.32167 0.48568 0.14342 0.0
O225 O 0.31292 0.48655 0.18155 0.0
O226 O 0.28386 0.49714 0.14877 0.0
C227 C 0.34212 0.44446 0.1456 0.0
O228 O 0.32367 0.4863 0.10152 0.0
Co229 Co 0.38213 0.4816 0.12417 0.0
O230 O 0.365 0.47046 0.08938 0.0
C231 C 0.35971 0.53461 0.14285 0.0
C232 C 0.28854 0.4941 0.17477 0.0
C233 C 0.34069 0.47744 0.08349 0.0
O234 O 0.3355 0.52464 0.14553 0.0
O235 O 0.38064 0.52057 0.13609 0.0
O236 O 0.31585 0.44594 0.1426 0.0
O237 O 0.35469 0.46731 0.14839 0.0
Co238 Co 0.31349 0.51732 0.86797 0.0
O239 O 0.30265 0.51767 0.83016 0.0
O240 O 0.27575 0.5057 0.86431 0.0
C241 C 0.33394 0.55874 0.86629 0.0
O242 O 0.31666 0.51517 0.90956 0.0
Co243 Co 0.37449 0.521 0.88539 0.0
O244 O 0.36001 0.52212 0.92312 0.0
C245 C 0.3523 0.46992 0.86202 0.0
C246 C 0.2787 0.50983 0.83824 0.0
C247 C 0.3349 0.51792 0.92826 0.0
O248 O 0.32751 0.47847 0.86431 0.0
O249 O 0.37323 0.4849 0.86642 0.0
O250 O 0.30777 0.55711 0.8702 0.0
O251 O 0.34633 0.536 0.86245 0.0
Co252 Co 0.4904 0.32532 0.86114 0.0
O253 O 0.49432 0.3103 0.82518 0.0
O254 O 0.49739 0.28618 0.86309 0.0
C255 C 0.4526 0.34977 0.85034 0.0
O256 O 0.48679 0.33409 0.9019 0.0
Co257 Co 0.49232 0.38843 0.86929 0.0
O258 O 0.47967 0.37918 0.90659 0.0
C259 C 0.54321 0.35736 0.85972 0.0
C260 C 0.49764 0.28668 0.8365 0.0
C261 C 0.48141 0.35523 0.9166 0.0
O262 O 0.53085 0.33429 0.86265 0.0
O263 O 0.53096 0.38038 0.85893 0.0
O264 O 0.45019 0.32436 0.85746 0.0
O265 O 0.47716 0.35875 0.84881 0.0
Co266 Co 0.68609 0.4909 0.8643 0.0
O267 O 0.691 0.49413 0.82539 0.0
O268 O 0.72257 0.50393 0.85609 0.0
C269 C 0.66685 0.44903 0.86167 0.0
O270 O 0.68945 0.4896 0.90597 0.0
Co271 Co 0.63025 0.48287 0.89229 0.0
O272 O 0.65202 0.47027 0.9238 0.0
C273 C 0.64736 0.53818 0.87409 0.0
C274 C 0.71584 0.50172 0.83051 0.0
C275 C 0.67636 0.47889 0.92607 0.0
O276 O 0.67079 0.52929 0.86602 0.0
O277 O 0.62866 0.52288 0.88403 0.0
O278 O 0.69321 0.45157 0.86168 0.0
O279 O 0.65312 0.47141 0.86232 0.0
Co280 Co 0.51034 0.68335 0.86807 0.0
O281 O 0.51464 0.69711 0.83155 0.0
O282 O 0.49812 0.7211 0.86591 0.0
C283 C 0.55226 0.66398 0.87024 0.0
O284 O 0.50366 0.67604 0.90871 0.0
Co285 Co 0.51345 0.62038 0.87823 0.0
O286 O 0.50957 0.63116 0.91698 0.0
C287 C 0.4634 0.6448 0.85515 0.0
C288 C 0.50515 0.72016 0.84028 0.0
C289 C 0.50429 0.65535 0.92493 0.0
O290 O 0.47232 0.66923 0.85923 0.0
O291 O 0.47771 0.62331 0.85879 0.0
O292 O 0.54935 0.68974 0.87566 0.0
O293 O 0.53065 0.65165 0.86204 0.0
Co294 Co 0.69196 0.51407 0.13985 0.0
O295 O 0.69716 0.51248 0.17873 0.0
O296 O 0.72889 0.50214 0.1484 0.0
C297 C 0.67178 0.5555 0.14068 0.0
O298 O 0.69458 0.51378 0.09811 0.0
Co299 Co 0.63469 0.51987 0.11306 0.0
O300 O 0.65575 0.53039 0.08028 0.0
C301 C 0.65416 0.46559 0.13219 0.0
C302 C 0.72207 0.505 0.17391 0.0
C303 C 0.68041 0.52275 0.07787 0.0
O304 O 0.6775 0.47527 0.13967 0.0
O305 O 0.63481 0.48013 0.12241 0.0
O306 O 0.69821 0.55373 0.14046 0.0
O307 O 0.65867 0.53279 0.1414 0.0
Co308 Co 0.49359 0.68075 0.14616 0.0
O309 O 0.49348 0.68867 0.18454 0.0
O310 O 0.50516 0.71823 0.15252 0.0
C311 C 0.45206 0.66069 0.14609 0.0
O312 O 0.49532 0.6797 0.10429 0.0
Co313 Co 0.49023 0.62039 0.12634 0.0
O314 O 0.48244 0.63778 0.09076 0.0
C315 C 0.5426 0.64261 0.14666 0.0
C316 C 0.50136 0.7131 0.17833 0.0
C317 C 0.48853 0.6625 0.08553 0.0
O318 O 0.53252 0.66679 0.1489 0.0
O319 O 0.52873 0.6216 0.13979 0.0
O320 O 0.45399 0.68701 0.14419 0.0
O321 O 0.47464 0.64781 0.1497 0.0
Co322 Co 0.51864 0.31999 0.13386 0.0
O323 O 0.52242 0.30806 0.17108 0.0
O324 O 0.50675 0.28233 0.13752 0.0
C325 C 0.56028 0.33974 0.13146 0.0
O326 O 0.5126 0.3251 0.09276 0.0
Co327 Co 0.52084 0.38215 0.1201 0.0
O328 O 0.5171 0.36956 0.0819 0.0
C329 C 0.47186 0.35849 0.14592 0.0
C330 C 0.51311 0.2846 0.16323 0.0
C331 C 0.51268 0.34481 0.0753 0.0
O332 O 0.48051 0.33402 0.14186 0.0
O333 O 0.48609 0.37988 0.14135 0.0
O334 O 0.5578 0.31371 0.12725 0.0
O335 O 0.53838 0.35226 0.13856 0.0
H336 H 0.18354 0.42759 0.36965 0.0
H337 H 0.10157 0.41852 0.33976 0.0
H338 H 0.09709 0.37505 0.36404 0.0
H339 H 0.11291 0.34624 0.40274 0.0
H340 H 0.1938 0.35853 0.43477 0.0
H341 H 0.20263 0.39364 0.40063 0.0
C342 C 0.16527 0.41529 0.36732 0.0
C343 C 0.14299 0.42601 0.35294 0.0
C344 C 0.16246 0.39117 0.38243 0.0
C345 C 0.11915 0.41035 0.35038 0.0
C346 C 0.11642 0.38576 0.36473 0.0
C347 C 0.13277 0.3559 0.40137 0.0
C348 C 0.15274 0.34998 0.42107 0.0
C349 C 0.13736 0.37687 0.38218 0.0
C350 C 0.17824 0.36287 0.41966 0.0
C351 C 0.18324 0.38302 0.40025 0.0
H352 H 0.63405 0.18764 0.43846 0.0
H353 H 0.665 0.109 0.41483 0.0
H354 H 0.63024 0.10577 0.37887 0.0
H355 H 0.58604 0.12205 0.36039 0.0
H356 H 0.55526 0.20043 0.38518 0.0
H357 H 0.59542 0.20768 0.41382 0.0
C358 C 0.6336 0.1702 0.42483 0.0
C359 C 0.65172 0.14852 0.42916 0.0
C360 C 0.61361 0.16855 0.40446 0.0
C361 C 0.65123 0.12597 0.41159 0.0
C362 C 0.63126 0.12407 0.39121 0.0
C363 C 0.5889 0.14121 0.37109 0.0
C364 C 0.56807 0.16088 0.37057 0.0
C365 C 0.61168 0.14479 0.3882 0.0
C366 C 0.57137 0.18532 0.38503 0.0
C367 C 0.59412 0.18927 0.40167 0.0
H368 H 0.8926 0.65792 0.40635 0.0
H369 H 0.80941 0.65546 0.43453 0.0
H370 H 0.79788 0.62209 0.39953 0.0
H371 H 0.81443 0.58561 0.36999 0.0
H372 H 0.89806 0.58523 0.34353 0.0
H373 H 0.90635 0.62815 0.36761 0.0
C374 C 0.87177 0.65089 0.40391 0.0
C375 C 0.85186 0.65883 0.42293 0.0
C376 C 0.86547 0.63091 0.38417 0.0
C377 C 0.82498 0.64943 0.42003 0.0
C378 C 0.81842 0.63027 0.40012 0.0
C379 C 0.834 0.59582 0.36823 0.0
C380 C 0.85562 0.58235 0.35524 0.0
C381 C 0.83887 0.61967 0.38325 0.0
C382 C 0.88103 0.59545 0.35323 0.0
C383 C 0.88592 0.61971 0.36752 0.0
H384 H 0.36584 0.82769 0.42426 0.0
H385 H 0.34568 0.91292 0.4188 0.0
H386 H 0.38095 0.91934 0.38378 0.0
H387 H 0.423 0.902 0.3618 0.0
H388 H 0.44289 0.81673 0.36777 0.0
H389 H 0.40175 0.8086 0.39486 0.0
C390 C 0.36865 0.84744 0.41467 0.0
C391 C 0.35348 0.86986 0.42395 0.0
C392 C 0.38893 0.85087 0.39475 0.0
C393 C 0.35711 0.89541 0.41167 0.0
C394 C 0.37739 0.89908 0.39186 0.0
C395 C 0.41751 0.88146 0.36796 0.0
C396 C 0.43559 0.85987 0.36265 0.0
C397 C 0.39417 0.87716 0.38411 0.0
C398 C 0.42888 0.83345 0.37124 0.0
C399 C 0.4056 0.82892 0.38706 0.0
H400 H 0.10143 0.58044 0.63274 0.0
H401 H 0.18807 0.56925 0.64145 0.0
H402 H 0.19645 0.61212 0.61718 0.0
H403 H 0.17892 0.64679 0.58509 0.0
H404 H 0.09227 0.65781 0.57622 0.0
H405 H 0.08382 0.6213 0.60928 0.0
C406 C 0.12206 0.58815 0.63039 0.0
C407 C 0.14414 0.572 0.63886 0.0
C408 C 0.12662 0.61247 0.61595 0.0
C409 C 0.17083 0.58168 0.6354 0.0
C410 C 0.17559 0.60597 0.6212 0.0
C411 C 0.15826 0.6419 0.59138 0.0
C412 C 0.1362 0.65478 0.57846 0.0
C413 C 0.15366 0.62072 0.61016 0.0
C414 C 0.10948 0.64819 0.5862 0.0
C415 C 0.10468 0.62719 0.6049 0.0
H416 H 0.3679 0.17894 0.58904 0.0
H417 H 0.35057 0.09325 0.58103 0.0
H418 H 0.38498 0.08268 0.6157 0.0
H419 H 0.42572 0.09763 0.64115 0.0
H420 H 0.4428 0.18332 0.6496 0.0
H421 H 0.40219 0.1944 0.62266 0.0
C422 C 0.37107 0.15808 0.5957 0.0
C423 C 0.35706 0.13682 0.58262 0.0
C424 C 0.39087 0.15226 0.61559 0.0
C425 C 0.36121 0.10984 0.59102 0.0
C426 C 0.38096 0.10382 0.61069 0.0
C427 C 0.41975 0.11872 0.63808 0.0
C428 C 0.43697 0.13969 0.64728 0.0
C429 C 0.39672 0.1248 0.62219 0.0
C430 C 0.4295 0.16694 0.64298 0.0
C431 C 0.40654 0.17322 0.62725 0.0
H432 H 0.8257 0.42869 0.64121 0.0
H433 H 0.90975 0.4253 0.66604 0.0
H434 H 0.91549 0.38183 0.64219 0.0
H435 H 0.89931 0.35171 0.6048 0.0
H436 H 0.81569 0.35722 0.57854 0.0
H437 H 0.80673 0.39242 0.61256 0.0
C438 C 0.84478 0.41757 0.64266 0.0
C439 C 0.8672 0.42992 0.65543 0.0
C440 C 0.84814 0.39325 0.62792 0.0
C441 C 0.89209 0.41582 0.65672 0.0
C442 C 0.89549 0.39123 0.64261 0.0
C443 C 0.87891 0.35983 0.60749 0.0
C444 C 0.85812 0.35204 0.58939 0.0
C445 C 0.87412 0.38069 0.62671 0.0
C446 C 0.83187 0.36295 0.59249 0.0
C447 C 0.8268 0.3832 0.61179 0.0
H448 H 0.56607 0.826 0.62736 0.0
H449 H 0.58126 0.90507 0.66205 0.0
H450 H 0.6244 0.90831 0.63684 0.0
H451 H 0.65209 0.8926 0.59725 0.0
H452 H 0.63321 0.81525 0.56013 0.0
H453 H 0.59764 0.80701 0.59394 0.0
C454 C 0.57956 0.84331 0.63036 0.0
C455 C 0.57087 0.86509 0.64668 0.0
C456 C 0.6034 0.84555 0.61472 0.0
C457 C 0.58796 0.88782 0.64999 0.0
C458 C 0.61236 0.88985 0.63518 0.0
C459 C 0.64073 0.87362 0.5973 0.0
C460 C 0.64504 0.85454 0.57636 0.0
C461 C 0.61951 0.86948 0.61632 0.0
C462 C 0.63005 0.83017 0.57613 0.0
C463 C 0.60969 0.82549 0.59539 0.0
H464 H 0.37156 0.10732 0.42705 0.0
H465 H 0.36785 0.1937 0.44208 0.0
H466 H 0.39191 0.20257 0.39914 0.0
H467 H 0.42214 0.18491 0.363 0.0
H468 H 0.42685 0.09849 0.34857 0.0
H469 H 0.39379 0.09021 0.38519 0.0
C470 C 0.37503 0.12808 0.42021 0.0
C471 C 0.36792 0.14989 0.4374 0.0
C472 C 0.38937 0.13288 0.39584 0.0
C473 C 0.37285 0.17672 0.42885 0.0
C474 C 0.38687 0.18172 0.40449 0.0
C475 C 0.4149 0.16441 0.36716 0.0
C476 C 0.42656 0.14231 0.35317 0.0
C477 C 0.39639 0.15989 0.38857 0.0
C478 C 0.4177 0.11575 0.35889 0.0
C479 C 0.39908 0.11104 0.38003 0.0
H480 H 0.82716 0.39371 0.45736 0.0
H481 H 0.89464 0.34515 0.42951 0.0
H482 H 0.8952 0.37019 0.38602 0.0
H483 H 0.88134 0.41167 0.35976 0.0
H484 H 0.81542 0.46103 0.3907 0.0
H485 H 0.80908 0.42992 0.42875 0.0
C486 C 0.84127 0.38797 0.44129 0.0
C487 C 0.86067 0.36764 0.44637 0.0
C488 C 0.84207 0.40307 0.41705 0.0
C489 C 0.87921 0.36049 0.42573 0.0
C490 C 0.87977 0.3751 0.40107 0.0
C491 C 0.86522 0.4151 0.37451 0.0
C492 C 0.84913 0.43879 0.3727 0.0
C493 C 0.86208 0.39732 0.39701 0.0
C494 C 0.82833 0.44315 0.39194 0.0
C495 C 0.82464 0.42536 0.41371 0.0
H496 H 0.59569 0.8996 0.35232 0.0
H497 H 0.56771 0.81663 0.35909 0.0
H498 H 0.60109 0.80766 0.39489 0.0
H499 H 0.63025 0.82642 0.43087 0.0
H500 H 0.657 0.90981 0.42623 0.0
H501 H 0.63294 0.9156 0.38279 0.0
C502 C 0.59784 0.87933 0.3609 0.0
C503 C 0.57944 0.85875 0.35323 0.0
C504 C 0.61667 0.87453 0.38215 0.0
C505 C 0.58186 0.83267 0.36474 0.0
C506 C 0.60079 0.82758 0.38533 0.0
C507 C 0.63194 0.84537 0.41955 0.0
C508 C 0.64551 0.86756 0.43141 0.0
C509 C 0.61726 0.84874 0.39517 0.0
C510 C 0.64708 0.89231 0.41708 0.0
C511 C 0.63292 0.89574 0.39248 0.0
H512 H 0.1831 0.61467 0.44296 0.0
H513 H 0.11334 0.66272 0.42028 0.0
H514 H 0.10985 0.63788 0.37689 0.0
H515 H 0.12139 0.59602 0.35019 0.0
H516 H 0.18975 0.54708 0.37594 0.0
H517 H 0.19939 0.57875 0.41288 0.0
C518 C 0.16786 0.62042 0.42795 0.0
C519 C 0.14858 0.64041 0.43461 0.0
C520 C 0.1654 0.60538 0.40377 0.0
C521 C 0.12866 0.64761 0.41531 0.0
C522 C 0.12641 0.63308 0.39071 0.0
C523 C 0.13881 0.59289 0.36345 0.0
C524 C 0.15466 0.56915 0.36066 0.0
C525 C 0.14383 0.61094 0.38537 0.0
C526 C 0.1771 0.56509 0.37799 0.0
C527 C 0.18264 0.58316 0.39913 0.0
H528 H 0.38679 0.81441 0.56192 0.0
H529 H 0.33892 0.88541 0.58088 0.0
H530 H 0.36207 0.88968 0.62505 0.0
H531 H 0.40303 0.8787 0.65326 0.0
H532 H 0.45175 0.80883 0.63175 0.0
H533 H 0.42114 0.79829 0.59406 0.0
C534 C 0.38062 0.83008 0.57628 0.0
C535 C 0.3613 0.84956 0.56824 0.0
C536 C 0.3947 0.83292 0.60104 0.0
C537 C 0.35354 0.86996 0.58682 0.0
C538 C 0.36713 0.87266 0.61189 0.0
C539 C 0.40622 0.86067 0.64086 0.0
C540 C 0.42958 0.84458 0.64506 0.0
C541 C 0.38881 0.85512 0.61855 0.0
C542 C 0.43387 0.82148 0.62873 0.0
C543 C 0.41645 0.8155 0.60712 0.0
H544 H 0.11355 0.41037 0.64587 0.0
H545 H 0.19489 0.44006 0.63092 0.0
H546 H 0.20118 0.40641 0.59478 0.0
H547 H 0.18022 0.37551 0.56168 0.0
H548 H 0.09795 0.34758 0.57391 0.0
H549 H 0.09531 0.37285 0.61703 0.0
C550 C 0.13292 0.40864 0.6353 0.0
C551 C 0.15381 0.42743 0.6409 0.0
C552 C 0.13604 0.38973 0.61384 0.0
C553 C 0.17865 0.42561 0.62684 0.0
C554 C 0.18219 0.4065 0.60611 0.0
C555 C 0.16223 0.37399 0.57452 0.0
C556 C 0.13947 0.35955 0.56502 0.0
C557 C 0.1606 0.38937 0.5986 0.0
C558 C 0.11591 0.35817 0.58126 0.0
C559 C 0.11428 0.37296 0.60567 0.0
H560 H 0.60031 0.10766 0.65451 0.0
H561 H 0.56454 0.18752 0.64717 0.0
H562 H 0.59635 0.1991 0.61068 0.0
H563 H 0.62703 0.18289 0.57478 0.0
H564 H 0.66251 0.10292 0.58054 0.0
H565 H 0.63895 0.09512 0.624 0.0
C566 C 0.60036 0.12791 0.6456 0.0
C567 C 0.58024 0.14677 0.65333 0.0
C568 C 0.61847 0.13425 0.62411 0.0
C569 C 0.58002 0.1728 0.64146 0.0
C570 C 0.59807 0.17937 0.6205 0.0
C571 C 0.63057 0.16431 0.58628 0.0
C572 C 0.64645 0.14356 0.57471 0.0
C573 C 0.61641 0.15979 0.61076 0.0
C574 C 0.65066 0.11933 0.58939 0.0
C575 C 0.63683 0.11472 0.61401 0.0
H576 H 0.8829 0.60097 0.65172 0.0
H577 H 0.81614 0.5486 0.62851 0.0
H578 H 0.80408 0.57931 0.59146 0.0
H579 H 0.81755 0.6158 0.56074 0.0
H580 H 0.88605 0.66701 0.58049 0.0
H581 H 0.89192 0.64289 0.62402 0.0
C582 C 0.86532 0.59684 0.63894 0.0
C583 C 0.85059 0.57246 0.64253 0.0
C584 C 0.85892 0.61434 0.61692 0.0
C585 C 0.82794 0.56711 0.62584 0.0
C586 C 0.82101 0.58465 0.60465 0.0
C587 C 0.83311 0.62233 0.57509 0.0
C588 C 0.85137 0.643 0.56748 0.0
C589 C 0.83705 0.60762 0.59928 0.0
C590 C 0.87154 0.65131 0.58609 0.0
C591 C 0.87517 0.63718 0.61077 0.0
H592 H 0.37404 0.42552 0.18538 0.0
H593 H 0.34601 0.40761 0.10411 0.0
H594 H 0.3819 0.37305 0.09903 0.0
H595 H 0.4266 0.35534 0.11475 0.0
H596 H 0.45517 0.3756 0.19533 0.0
H597 H 0.4133 0.40106 0.20428 0.0
C598 C 0.37528 0.41328 0.16697 0.0
C599 C 0.35765 0.41887 0.14514 0.0
C600 C 0.39613 0.39395 0.16417 0.0
C601 C 0.35931 0.40327 0.12123 0.0
C602 C 0.37996 0.38375 0.11829 0.0
C603 C 0.42292 0.36423 0.13469 0.0
C604 C 0.44362 0.36345 0.15454 0.0
C605 C 0.39924 0.37981 0.13919 0.0
C606 C 0.43922 0.37565 0.18003 0.0
C607 C 0.41547 0.39051 0.18497 0.0
H608 H 0.42055 0.64844 0.88948 0.0
H609 H 0.44296 0.62713 0.80723 0.0
H610 H 0.4005 0.60157 0.80185 0.0
H611 H 0.3627 0.57739 0.82397 0.0
H612 H 0.34105 0.59613 0.90698 0.0
H613 H 0.37724 0.63078 0.90884 0.0
C614 C 0.41537 0.63932 0.86998 0.0
C615 C 0.43454 0.63991 0.84859 0.0
C616 C 0.39142 0.62361 0.86753 0.0
C617 C 0.42821 0.62731 0.8237 0.0
C618 C 0.40413 0.61237 0.8208 0.0
C619 C 0.36534 0.58982 0.8421 0.0
C620 C 0.3494 0.58444 0.86529 0.0
C621 C 0.3864 0.60918 0.84306 0.0
C622 C 0.35297 0.60029 0.88882 0.0
C623 C 0.37381 0.61987 0.88992 0.0
H624 H 0.40342 0.35539 0.87685 0.0
H625 H 0.45099 0.38551 0.8092 0.0
H626 H 0.419 0.4228 0.80251 0.0
H627 H 0.38321 0.45154 0.82127 0.0
H628 H 0.33703 0.42474 0.89095 0.0
H629 H 0.36192 0.38128 0.89113 0.0
C630 C 0.40617 0.3697 0.8602 0.0
C631 C 0.4296 0.36795 0.84368 0.0
C632 C 0.388 0.39183 0.85698 0.0
C633 C 0.43322 0.38669 0.82231 0.0
C634 C 0.41495 0.40803 0.81847 0.0
C635 C 0.37784 0.43565 0.83574 0.0
C636 C 0.35834 0.44113 0.85594 0.0
C637 C 0.39304 0.41149 0.83642 0.0
C638 C 0.3517 0.4207 0.87491 0.0
C639 C 0.36628 0.39606 0.87528 0.0
H640 H 0.65059 0.40874 0.89619 0.0
H641 H 0.65012 0.43386 0.81198 0.0
H642 H 0.6144 0.40068 0.80171 0.0
H643 H 0.57659 0.37296 0.81919 0.0
H644 H 0.57558 0.34863 0.90354 0.0
H645 H 0.61899 0.3721 0.91126 0.0
C646 C 0.64343 0.40597 0.87543 0.0
C647 C 0.65284 0.42348 0.85479 0.0
C648 C 0.62241 0.38716 0.86982 0.0
C649 C 0.64319 0.42031 0.82804 0.0
C650 C 0.62264 0.40151 0.82222 0.0
C651 C 0.5867 0.37159 0.83884 0.0
C652 C 0.57313 0.35908 0.86073 0.0
C653 C 0.61112 0.38591 0.84325 0.0
C654 C 0.58598 0.35779 0.8863 0.0
C655 C 0.61056 0.37166 0.89082 0.0
H656 H 0.62869 0.57259 0.91261 0.0
H657 H 0.64816 0.56757 0.82704 0.0
H658 H 0.62291 0.60986 0.81849 0.0
H659 H 0.58838 0.64309 0.83446 0.0
H660 H 0.56966 0.64836 0.92016 0.0
H661 H 0.60183 0.6114 0.92986 0.0
C662 C 0.62816 0.58136 0.89228 0.0
C663 C 0.64007 0.5671 0.87043 0.0
C664 C 0.61347 0.60548 0.88759 0.0
C665 C 0.63931 0.57842 0.84414 0.0
C666 C 0.62462 0.6024 0.83925 0.0
C667 C 0.59223 0.63675 0.85533 0.0
C668 C 0.57696 0.64832 0.87665 0.0
C669 C 0.61063 0.61541 0.86063 0.0
C670 C 0.58157 0.63987 0.90358 0.0
C671 C 0.59974 0.61859 0.90905 0.0
H672 H 0.64625 0.58085 0.18183 0.0
H673 H 0.66196 0.58601 0.09556 0.0
H674 H 0.62496 0.61923 0.09043 0.0
H675 H 0.58267 0.63907 0.10933 0.0
H676 H 0.56631 0.63261 0.19541 0.0
H677 H 0.60939 0.60831 0.20218 0.0
C678 C 0.64222 0.5902 0.16216 0.0
C679 C 0.6567 0.5813 0.13911 0.0
C680 C 0.62064 0.60883 0.15941 0.0
C681 C 0.65117 0.59293 0.11357 0.0
C682 C 0.62988 0.6117 0.11064 0.0
C683 C 0.58927 0.6334 0.1297 0.0
C684 C 0.57169 0.63777 0.15194 0.0
C685 C 0.61368 0.61878 0.13321 0.0
C686 C 0.57986 0.62982 0.17817 0.0
C687 C 0.6043 0.61563 0.18194 0.0
H688 H 0.36897 0.57422 0.10605 0.0
H689 H 0.36484 0.55827 0.19235 0.0
H690 H 0.3906 0.60004 0.20168 0.0
H691 H 0.42211 0.63531 0.18436 0.0
H692 H 0.4264 0.65125 0.09806 0.0
H693 H 0.39251 0.61552 0.0894 0.0
C694 C 0.37266 0.58067 0.12691 0.0
C695 C 0.36495 0.56352 0.14855 0.0
C696 C 0.388 0.60435 0.13198 0.0
C697 C 0.37024 0.57153 0.1755 0.0
C698 C 0.38529 0.59518 0.18077 0.0
C699 C 0.41477 0.63155 0.16381 0.0
C700 C 0.42656 0.64562 0.14182 0.0
C701 C 0.39544 0.61093 0.15909 0.0
C702 C 0.41735 0.64063 0.11521 0.0
C703 C 0.39815 0.62011 0.11029 0.0
H704 H 0.6389 0.43076 0.09283 0.0
H705 H 0.65361 0.43619 0.1793 0.0
H706 H 0.6285 0.39352 0.18655 0.0
H707 H 0.59489 0.36021 0.16887 0.0
H708 H 0.58002 0.35529 0.0824 0.0
H709 H 0.61297 0.39199 0.07426 0.0
C710 C 0.63747 0.42194 0.11311 0.0
C711 C 0.64795 0.43642 0.13554 0.0
C712 C 0.62264 0.39778 0.11705 0.0
C713 C 0.64592 0.42514 0.16177 0.0
C714 C 0.63127 0.40096 0.1659 0.0
C715 C 0.59976 0.36655 0.14821 0.0
C716 C 0.58538 0.35517 0.12618 0.0
C717 C 0.61846 0.38786 0.14383 0.0
C718 C 0.59127 0.36364 0.09952 0.0
C719 C 0.60987 0.38475 0.09494 0.0
H720 H 0.05335 0.31124 0.5174 0.0
H721 H 0.0413 0.35084 0.43975 0.0
H722 H 0.9919 0.34974 0.44647 0.0
H723 H 0.95295 0.34368 0.47721 0.0
H724 H 0.96465 0.30799 0.5566 0.0
H725 H 0.01337 0.30118 0.54662 0.0
C726 C 0.03979 0.31887 0.50165 0.0
C727 C 0.0508 0.33103 0.47805 0.0
C728 C 0.01145 0.31924 0.50625 0.0
C729 C 0.03318 0.34139 0.45802 0.0
C730 C 0.005 0.34089 0.46193 0.0
C731 C 0.96616 0.33382 0.492 0.0
C732 C 0.95555 0.32614 0.51745 0.0
C733 C 0.99402 0.33081 0.48637 0.0
C734 C 0.97258 0.31373 0.53677 0.0
C735 C 1.00036 0.31003 0.53109 0.0
H736 H 0.69374 0.05176 0.516 0.0
H737 H 0.63396 0.05064 0.4513 0.0
H738 H 0.63154 1.00117 0.45379 0.0
H739 H 0.64217 0.95895 0.47755 0.0
H740 H 0.7016 0.95817 0.54222 0.0
H741 H 0.70859 0.00764 0.53659 0.0
C742 C 0.6807 0.04057 0.50207 0.0
C743 C 0.66378 0.05488 0.48371 0.0
C744 C 0.67901 0.0119 0.50394 0.0
C745 C 0.64689 0.04015 0.46584 0.0
C746 C 0.64544 0.01185 0.46728 0.0
C747 C 0.65683 0.96963 0.49027 0.0
C748 C 0.67099 0.95529 0.51058 0.0
C749 C 0.66065 0.99768 0.48683 0.0
C750 C 0.69036 0.96901 0.52658 0.0
C751 C 0.69426 0.99722 0.52338 0.0
H752 H 0.95949 0.69747 0.47972 0.0
H753 H 0.94502 0.62215 0.52302 0.0
H754 H 0.99251 0.62017 0.53667 0.0
H755 H 0.03847 0.63732 0.53381 0.0
H756 H 0.05592 0.71067 0.48845 0.0
H757 H 0.0071 0.71626 0.47864 0.0
C758 C 0.96686 0.6808 0.49223 0.0
C759 C 0.94887 0.65972 0.49993 0.0
C760 C 0.99471 0.67939 0.49967 0.0
C761 C 0.95857 0.63829 0.51631 0.0
C762 C 0.98572 0.63718 0.52429 0.0
C763 C 0.03174 0.65469 0.52187 0.0
C764 C 0.05095 0.67333 0.51162 0.0
C765 C 0.00403 0.65724 0.51564 0.0
C766 C 0.0416 0.69595 0.49662 0.0
C767 C 0.01368 0.69904 0.49083 0.0
H768 H 0.36796 0.04049 0.54216 0.0
H769 H 0.30051 0.05939 0.48895 0.0
H770 H 0.29456 0.01065 0.479 0.0
H771 H 0.31217 0.96279 0.4819 0.0
H772 H 0.38196 0.94657 0.53304 0.0
H773 H 0.38337 0.99402 0.54722 0.0
C774 C 0.35175 0.03405 0.52852 0.0
C775 C 0.33496 0.05363 0.51605 0.0
C776 C 0.3491 0.00635 0.52227 0.0
C777 C 0.31376 0.04476 0.49885 0.0
C778 C 0.31051 0.01689 0.49298 0.0
C779 C 0.32743 0.96975 0.49632 0.0
C780 C 0.3472 0.95135 0.50613 0.0
C781 C 0.3286 0.99752 0.50398 0.0
C782 C 0.36687 0.96049 0.52485 0.0
C783 C 0.36764 0.98759 0.53307 0.0
H784 H 0.54663 0.97186 0.3227 0.0
H785 H 0.46419 0.94695 0.34017 0.0
H786 H 0.44905 0.99442 0.33904 0.0
H787 H 0.46048 0.04328 0.33881 0.0
H788 H 0.54213 0.06869 0.31866 0.0
H789 H 0.55641 0.02096 0.31464 0.0
C790 C 0.52529 0.97694 0.32551 0.0
C791 C 0.50647 0.95619 0.3315 0.0
C792 C 0.51667 0.00434 0.32456 0.0
C793 C 0.47888 0.96276 0.33534 0.0
C794 C 0.47027 0.98986 0.33486 0.0
C795 C 0.4812 0.03827 0.33284 0.0
C796 C 0.50028 0.05926 0.3291 0.0
C797 C 0.48912 0.01086 0.33031 0.0
C798 C 0.52708 0.05273 0.32137 0.0
C799 C 0.53529 0.02547 0.31932 0.0
H800 H 0.95446 0.49704 0.31697 0.0
H801 H 0.94973 0.50851 0.40444 0.0
H802 H 0.9982 0.51608 0.40661 0.0
H803 H 0.04206 0.51888 0.385 0.0
H804 H 0.05016 0.50536 0.29836 0.0
H805 H 1.00047 0.49967 0.29466 0.0
C806 C 0.96409 0.50103 0.33648 0.0
C807 C 0.94806 0.50194 0.36048 0.0
C808 C 0.99266 0.50527 0.33785 0.0
C809 C 0.96112 0.50731 0.38555 0.0
C810 C 0.98905 0.51185 0.38691 0.0
C811 C 0.03319 0.51482 0.36513 0.0
C812 C 0.05007 0.51258 0.34202 0.0
C813 C 0.00497 0.51084 0.36331 0.0
C814 C 0.03778 0.50735 0.31656 0.0
C815 C 0.00933 0.50391 0.31447 0.0
H816 H 0.5188 0.94884 0.69785 0.0
H817 H 0.43872 0.95866 0.66298 0.0
H818 H 0.44239 0.00815 0.66752 0.0
H819 H 0.47135 0.04842 0.67389 0.0
H820 H 0.55335 0.03918 0.70371 0.0
H821 H 0.54612 0.98987 0.70912 0.0
C822 C 0.50183 0.96186 0.69219 0.0
C823 C 0.47839 0.95022 0.68033 0.0
C824 C 0.50469 0.99044 0.69363 0.0
C825 C 0.45682 0.96723 0.67234 0.0
C826 C 0.45901 0.99551 0.67476 0.0
C827 C 0.48724 0.03564 0.68249 0.0
C828 C 0.51265 0.04724 0.68887 0.0
C829 C 0.48326 0.00734 0.6843 0.0
C830 C 0.53348 0.03061 0.69921 0.0
C831 C 0.52939 1.00244 0.70201 0.0
H832 H 0.95756 0.4713 0.65428 0.0
H833 H 0.96148 0.55077 0.69128 0.0
H834 H 0.01109 0.54573 0.69746 0.0
H835 H 0.05396 0.5205 0.68687 0.0
H836 H 0.04864 0.44147 0.6487 0.0
H837 H 0.99896 0.44405 0.64915 0.0
C838 C 0.96931 0.48732 0.66407 0.0
C839 C 0.95622 0.51145 0.67206 0.0
C840 C 0.99754 0.48422 0.66742 0.0
C841 C 0.97133 0.53205 0.68494 0.0
C842 C 0.99963 0.52915 0.68838 0.0
C843 C 0.04182 0.50353 0.67952 0.0
C844 C 0.05487 0.48078 0.66778 0.0
C845 C 0.01309 0.50557 0.67905 0.0
C846 C 0.03899 0.45913 0.65784 0.0
C847 C 0.01061 0.46069 0.65789 0.0
H848 H 0.34602 0.4726 0.95621 0.0
H849 H 0.30816 0.55131 0.9641 0.0
H850 H 0.30255 0.544 0.01348 0.0
H851 H 0.31378 0.51712 0.05506 0.0
H852 H 0.35337 0.43915 0.0461 0.0
H853 H 0.35232 0.44378 0.99654 0.0
C854 C 0.33607 0.48787 0.96877 0.0
C855 C 0.32753 0.51241 0.95685 0.0
C856 C 0.33325 0.48358 0.99694 0.0
C857 C 0.31474 0.53222 0.97304 0.0
C858 C 0.31166 0.52805 1.00121 0.0
C859 C 0.32137 0.50084 0.04216 0.0
C860 C 0.33365 0.47782 0.05415 0.0
C861 C 0.32149 0.50406 0.01353 0.0
C862 C 0.34387 0.45705 0.03728 0.0
C863 C 0.34343 0.45976 0.00896 0.0
H864 H 0.50333 0.3156 0.94983 0.0
H865 H 0.4563 0.39003 0.95145 0.0
H866 H 0.46066 0.39218 1.00081 0.0
H867 H 0.48161 0.37596 0.04286 0.0
H868 H 0.5281 0.30148 0.04305 0.0
H869 H 0.5201 0.29619 0.99375 0.0
C870 C 0.49354 0.33193 0.96106 0.0
C871 C 0.47981 0.35284 0.9468 0.0
C872 C 0.4964 0.33329 0.98973 0.0
C873 C 0.46729 0.37387 0.96176 0.0
C874 C 0.46982 0.37519 0.99004 0.0
C875 C 0.48986 0.35845 0.03213 0.0
C876 C 0.50582 0.3394 0.04637 0.0
C877 C 0.48503 0.35554 0.00409 0.0
C878 C 0.51587 0.31649 0.03243 0.0
C879 C 0.51134 0.31354 0.00426 0.0
H880 H 0.69123 0.52528 0.9512 0.0
H881 H 0.68321 0.43874 0.96361 0.0
H882 H 0.69006 0.44473 0.01279 0.0
H883 H 0.69014 0.47532 0.05257 0.0
H884 H 0.69054 0.56223 0.04035 0.0
H885 H 0.69535 0.5557 0.99096 0.0
C886 C 0.69197 0.50773 0.96466 0.0
C887 C 0.68716 0.48158 0.95398 0.0
C888 C 0.69422 0.51157 0.99301 0.0
C889 C 0.68722 0.45898 0.97152 0.0
C890 C 0.69092 0.46245 0.9996 0.0
C891 C 0.69232 0.49274 0.03906 0.0
C892 C 0.69055 0.51919 0.04986 0.0
C893 C 0.69332 0.48874 0.01067 0.0
C894 C 0.69235 0.54172 0.03233 0.0
C895 C 0.69484 0.53796 0.00414 0.0
H896 H 0.52187 0.69163 0.96421 0.0
H897 H 0.46611 0.62518 0.94947 0.0
H898 H 0.4534 0.62441 0.99748 0.0
H899 H 0.46155 0.6388 0.04404 0.0
H900 H 0.51905 0.7031 0.06111 0.0
H901 H 0.52724 0.709 0.01199 0.0
C902 C 0.50666 0.67736 0.97159 0.0
C903 C 0.4951 0.65828 0.95348 0.0
C904 C 0.49988 0.67653 0.99964 0.0
C905 C 0.47549 0.6398 0.96317 0.0
C906 C 0.46818 0.63935 0.99059 0.0
C907 C 0.47568 0.65436 0.03708 0.0
C908 C 0.48993 0.67021 0.05625 0.0
C909 C 0.48081 0.65703 0.00909 0.0
C910 C 0.50779 0.6906 0.04679 0.0
C911 C 0.51264 0.69381 0.01869 0.0
H912 H 0.22216 0.28284 0.49751 0.0
H913 H 0.15535 0.22616 0.50557 0.0
H914 H 0.18776 0.18811 0.50789 0.0
H915 H 0.23559 0.17105 0.50726 0.0
H916 H 0.30141 0.2291 0.49989 0.0
H917 H 0.26886 0.26638 0.49726 0.0
C918 C 0.21458 0.26219 0.49989 0.0
C919 C 0.18636 0.25738 0.50139 0.0
C920 C 0.23322 0.24058 0.50104 0.0
C921 C 0.17699 0.23046 0.50451 0.0
C922 C 0.19552 0.20868 0.50568 0.0
C923 C 0.24269 0.19185 0.50482 0.0
C924 C 0.27089 0.19727 0.50367 0.0
C925 C 0.22374 0.21348 0.50379 0.0
C926 C 0.27985 0.22435 0.50086 0.0
C927 C 0.26125 0.24574 0.49941 0.0
H928 H 0.72434 0.22203 0.50171 0.0
H929 H 0.77868 0.15389 0.51334 0.0
H930 H 0.81776 0.18529 0.51492 0.0
H931 H 0.83621 0.23268 0.51314 0.0
H932 H 0.78023 0.29966 0.50191 0.0
H933 H 0.74211 0.26802 0.49954 0.0
C934 C 0.74469 0.21389 0.50468 0.0
C935 C 0.74855 0.18563 0.50749 0.0
C936 C 0.76682 0.23191 0.50534 0.0
C937 C 0.77512 0.17558 0.51129 0.0
C938 C 0.79746 0.19353 0.51204 0.0
C939 C 0.81569 0.24022 0.50985 0.0
C940 C 0.81106 0.2685 0.50763 0.0
C941 C 0.79356 0.22179 0.50899 0.0
C942 C 0.78435 0.27804 0.50372 0.0
C943 C 0.76249 0.25997 0.50244 0.0
H944 H 0.78464 0.72813 0.48849 0.0
H945 H 0.85073 0.77879 0.51689 0.0
H946 H 0.81971 0.81819 0.51863 0.0
H947 H 0.77285 0.83776 0.51278 0.0
H948 H 0.70822 0.78499 0.48455 0.0
H949 H 0.73981 0.74703 0.4816 0.0
C950 C 0.79245 0.74773 0.49516 0.0
C951 C 0.81998 0.75042 0.50274 0.0
C952 C 0.77472 0.77003 0.49587 0.0
C953 C 0.82958 0.7761 0.51112 0.0
C954 C 0.81186 0.79864 0.51199 0.0
C955 C 0.76591 0.81803 0.50563 0.0
C956 C 0.7382 0.8142 0.49889 0.0
C957 C 0.78428 0.79584 0.50441 0.0
C958 C 0.72937 0.78846 0.48995 0.0
C959 C 0.74741 0.76668 0.48832 0.0
H960 H 0.16916 0.77579 0.5074 0.0
H961 H 0.22289 0.71008 0.48427 0.0
H962 H 0.26101 0.74166 0.48105 0.0
H963 H 0.27971 0.78698 0.48657 0.0
H964 H 0.22796 0.8537 0.51105 0.0
H965 H 0.18851 0.82273 0.51226 0.0
C966 C 0.18914 0.76861 0.50124 0.0
C967 C 0.1932 0.74066 0.49595 0.0
C968 C 0.21138 0.78693 0.50008 0.0
C969 C 0.21926 0.73147 0.48844 0.0
C970 C 0.24111 0.74949 0.48668 0.0
C971 C 0.25983 0.79491 0.49218 0.0
C972 C 0.25684 0.82264 0.4988 0.0
C973 C 0.2375 0.77711 0.49284 0.0
C974 C 0.23087 0.83241 0.50601 0.0
C975 C 0.2083 0.81471 0.50659 0.0
H976 H 0.50263 0.17645 0.23359 0.0
H977 H 0.51099 0.2351 0.29867 0.0
H978 H 0.51509 0.27191 0.26546 0.0
H979 H 0.51553 0.28771 0.21822 0.0
H980 H 0.50477 0.23024 0.15251 0.0
H981 H 0.50212 0.19276 0.18557 0.0
C982 C 0.50558 0.19727 0.2404 0.0
C983 C 0.50667 0.20303 0.26855 0.0
C984 C 0.50724 0.21857 0.2211 0.0
C985 C 0.51008 0.23014 0.27714 0.0
C986 C 0.5124 0.25122 0.25816 0.0
C987 C 0.51262 0.26699 0.21106 0.0
C988 C 0.51044 0.26178 0.18292 0.0
C989 C 0.51084 0.24571 0.23014 0.0
C990 C 0.50643 0.23482 0.17407 0.0
C991 C 0.50502 0.21337 0.19297 0.0
H992 H 0.78508 0.49595 0.28512 0.0
H993 H 0.85516 0.50738 0.23312 0.0
H994 H 0.82516 0.50794 0.19285 0.0
H995 H 0.77828 0.50632 0.17277 0.0
H996 H 0.70938 0.49574 0.22668 0.0
H997 H 0.73977 0.4934 0.2658 0.0
C998 C 0.79399 0.49857 0.26502 0.0
C999 C 0.82239 0.50174 0.26222 0.0
C1000 C 0.77674 0.49888 0.24224 0.0
C1001 C 0.83338 0.505 0.23591 0.0
C1002 C 0.81621 0.50527 0.21289 0.0
C1003 C 0.77004 0.50319 0.19307 0.0
C1004 C 0.74154 0.5012 0.19676 0.0
C1005 C 0.78777 0.50231 0.21582 0.0
C1006 C 0.73115 0.49743 0.22322 0.0
C1007 C 0.74852 0.49613 0.24566 0.0
H1008 H 0.49758 0.76877 0.17426 0.0
H1009 H 0.51226 0.70354 0.23151 0.0
H1010 H 0.51456 0.73616 0.2689 0.0
H1011 H 0.51144 0.78284 0.28576 0.0
H1012 H 0.4953 0.84865 0.22965 0.0
H1013 H 0.49423 0.81628 0.19157 0.0
C1014 C 0.50158 0.76183 0.19489 0.0
C1015 C 0.50486 0.73378 0.20007 0.0
C1016 C 0.50228 0.78075 0.21658 0.0
C1017 C 0.50964 0.725 0.22696 0.0
C1018 C 0.5109 0.74363 0.24841 0.0
C1019 C 0.50761 0.79017 0.26522 0.0
C1020 C 0.50342 0.81814 0.26061 0.0
C1021 C 0.507 0.77149 0.24352 0.0
C1022 C 0.49848 0.8272 0.23382 0.0
C1023 C 0.49798 0.8087 0.21201 0.0
H1024 H 0.21927 0.50531 0.28199 0.0
H1025 H 0.15211 0.49448 0.22621 0.0
H1026 H 0.18431 0.49259 0.18774 0.0
H1027 H 0.23232 0.49328 0.17027 0.0
H1028 H 0.29807 0.50385 0.22796 0.0
H1029 H 0.26561 0.50691 0.26522 0.0
C1030 C 0.21149 0.50249 0.26146 0.0
C1031 C 0.18327 0.49991 0.25706 0.0
C1032 C 0.22998 0.50156 0.23968 0.0
C1033 C 0.17374 0.49639 0.23022 0.0
C1034 C 0.19217 0.4954 0.20822 0.0
C1035 C 0.23941 0.49655 0.19097 0.0
C1036 C 0.26765 0.49829 0.19627 0.0
C1037 C 0.22043 0.49794 0.2127 0.0
C1038 C 0.27654 0.5023 0.22325 0.0
C1039 C 0.25797 0.50402 0.24465 0.0
H1040 H 0.51701 0.72124 0.78644 0.0
H1041 H 0.48937 0.77278 0.85215 0.0
H1042 H 0.48735 0.81176 0.82078 0.0
H1043 H 0.49257 0.8309 0.77394 0.0
H1044 H 0.51898 0.77779 0.70889 0.0
H1045 H 0.52266 0.73992 0.74078 0.0
C1046 C 0.51053 0.74098 0.79402 0.0
C1047 C 0.50329 0.74402 0.82164 0.0
C1048 C 0.50936 0.76313 0.77593 0.0
C1049 C 0.49496 0.76981 0.83097 0.0
C1050 C 0.49388 0.79213 0.81304 0.0
C1051 C 0.49944 0.8111 0.7669 0.0
C1052 C 0.50556 0.80722 0.73905 0.0
C1053 C 0.50099 0.78904 0.78539 0.0
C1054 C 0.5141 0.78136 0.73016 0.0
C1055 C 0.51616 0.75963 0.74838 0.0
H1056 H 0.28095 0.51611 0.78343 0.0
H1057 H 0.22494 0.4976 0.84876 0.0
H1058 H 0.18732 0.49477 0.81589 0.0
H1059 H 0.17045 0.49714 0.76802 0.0
H1060 H 0.22778 0.51466 0.70348 0.0
H1061 H 0.26454 0.51858 0.73658 0.0
C1062 C 0.26054 0.5114 0.79057 0.0
C1063 C 0.25583 0.50703 0.81854 0.0
C1064 C 0.23911 0.50981 0.77163 0.0
C1065 C 0.22919 0.50096 0.82732 0.0
C1066 C 0.20764 0.49943 0.80853 0.0
C1067 C 0.19094 0.50209 0.76132 0.0
C1068 C 0.19631 0.50567 0.73329 0.0
C1069 C 0.21233 0.50386 0.78057 0.0
C1070 C 0.22305 0.51175 0.72489 0.0
C1071 C 0.24416 0.51396 0.74381 0.0
H1072 H 0.50513 0.17199 0.77636 0.0
H1073 H 0.50276 0.22551 0.70639 0.0
H1074 H 0.50013 0.26499 0.73617 0.0
H1075 H 0.49905 0.2847 0.78155 0.0
H1076 H 0.50166 0.23283 0.85259 0.0
H1077 H 0.5039 0.19243 0.82301 0.0
C1078 C 0.50382 0.19229 0.76772 0.0
C1079 C 0.50411 0.1957 0.73911 0.0
C1080 C 0.5026 0.21525 0.78513 0.0
C1081 C 0.50264 0.22219 0.72825 0.0
C1082 C 0.50117 0.24487 0.74528 0.0
C1083 C 0.50017 0.2646 0.79071 0.0
C1084 C 0.50023 0.26185 0.81929 0.0
C1085 C 0.50131 0.24167 0.77368 0.0
C1086 C 0.50168 0.23556 0.83065 0.0
C1087 C 0.50286 0.21246 0.81372 0.0
H1088 H 0.77153 0.50305 0.83385 0.0
H1089 H 0.70485 0.50798 0.77657 0.0
H1090 H 0.73702 0.51012 0.73868 0.0
H1091 H 0.78382 0.50936 0.72157 0.0
H1092 H 0.85105 0.50353 0.77807 0.0
H1093 H 0.81898 0.50274 0.81644 0.0
C1094 C 0.76409 0.50491 0.81309 0.0
C1095 C 0.7358 0.50546 0.80807 0.0
C1096 C 0.78279 0.50565 0.79123 0.0
C1097 C 0.72648 0.50754 0.78103 0.0
C1098 C 0.74488 0.50868 0.75931 0.0
C1099 C 0.79154 0.50786 0.74226 0.0
C1100 C 0.81983 0.50641 0.7469 0.0
C1101 C 0.77303 0.50746 0.76414 0.0
C1102 C 0.82938 0.50456 0.77389 0.0
C1103 C 0.81104 0.50419 0.79585 0.0
loop_
_geom_bond_atom_site_label_1
_geom_bond_atom_site_label_2
_geom_bond_distance
_geom_bond_site_symmetry_2
_ccdc_geom_bond_type
Co0 O1 2.216 . S
Co0 O2 2.091 . S
Co0 O4 2.004 . S
Co0 O10 2.021 . S
Co0 O12 2.137 . S
Co0 O13 2.244 . S
O1 Co0 2.216 . S
O1 C8 1.247 . S
O2 Co0 2.091 . S
O2 C8 1.261 . S
C3 O12 1.247 . S
C3 O13 1.272 . S
O4 Co0 2.004 . S
O4 C9 1.259 . S
Co5 O6 2.061 . S
Co5 O11 2.052 . S
Co5 O13 2.135 . S
O6 Co5 2.061 . S
O6 C9 1.235 . S
C7 O10 1.238 . S
C7 O11 1.241 . S
C8 O1 1.247 . S
C8 O2 1.261 . S
C9 O4 1.259 . S
C9 O6 1.235 . S
O10 Co0 2.021 . S
O10 C7 1.238 . S
O11 Co5 2.052 . S
O11 C7 1.241 . S
O12 Co0 2.137 . S
O12 C3 1.247 . S
O13 Co0 2.244 . S
O13 C3 1.272 . S
O13 Co5 2.135 . S
Co14 O15 2.216 . S
Co14 O16 2.091 . S
Co14 O18 2.004 . S
Co14 O24 2.021 . S
Co14 O26 2.137 . S
Co14 O27 2.244 . S
O15 Co14 2.216 . S
O15 C22 1.247 . S
O16 Co14 2.091 . S
O16 C22 1.261 . S
C17 O26 1.247 . S
C17 O27 1.272 . S
O18 Co14 2.004 . S
O18 C23 1.259 . S
Co19 O20 2.061 . S
Co19 O25 2.052 . S
Co19 O27 2.135 . S
O20 Co19 2.061 . S
O20 C23 1.235 . S
C21 O24 1.238 . S
C21 O25 1.241 . S
C22 O15 1.247 . S
C22 O16 1.261 . S
C23 O18 1.259 . S
C23 O20 1.235 . S
O24 Co14 2.021 . S
O24 C21 1.238 . S
O25 Co19 2.052 . S
O25 C21 1.241 . S
O26 Co14 2.137 . S
O26 C17 1.247 . S
O27 Co14 2.244 . S
O27 C17 1.272 . S
O27 Co19 2.135 . S
Co28 O29 2.216 . S
Co28 O30 2.091 . S
Co28 O32 2.004 . S
Co28 O38 2.021 . S
Co28 O40 2.137 . S
Co28 O41 2.244 . S
O29 Co28 2.216 . S
O29 C36 1.247 . S
O30 Co28 2.091 . S
O30 C36 1.261 . S
C31 O40 1.247 . S
C31 O41 1.272 . S
O32 Co28 2.004 . S
O32 C37 1.259 . S
Co33 O34 2.061 . S
Co33 O39 2.052 . S
Co33 O41 2.135 . S
O34 Co33 2.061 . S
O34 C37 1.235 . S
C35 O38 1.238 . S
C35 O39 1.241 . S
C36 O29 1.247 . S
C36 O30 1.261 . S
C37 O32 1.259 . S
C37 O34 1.235 . S
O38 Co28 2.021 . S
O38 C35 1.238 . S
O39 Co33 2.052 . S
O39 C35 1.241 . S
O40 Co28 2.137 . S
O40 C31 1.247 . S
O41 Co28 2.244 . S
O41 C31 1.272 . S
O41 Co33 2.135 . S
Co42 O43 2.216 . S
Co42 O44 2.091 . S
Co42 O46 2.004 . S
Co42 O52 2.021 . S
Co42 O54 2.137 . S
Co42 O55 2.244 . S
O43 Co42 2.216 . S
O43 C50 1.247 . S
O44 Co42 2.091 . S
O44 C50 1.261 . S
C45 O54 1.247 . S
C45 O55 1.272 . S
O46 Co42 2.004 . S
O46 C51 1.259 . S
Co47 O48 2.061 . S
Co47 O53 2.052 . S
Co47 O55 2.135 . S
O48 Co47 2.061 . S
O48 C51 1.235 . S
C49 O52 1.238 . S
C49 O53 1.241 . S
C50 O43 1.247 . S
C50 O44 1.261 . S
C51 O46 1.259 . S
C51 O48 1.235 . S
O52 Co42 2.021 . S
O52 C49 1.238 . S
O53 Co47 2.052 . S
O53 C49 1.241 . S
O54 Co42 2.137 . S
O54 C45 1.247 . S
O55 Co42 2.244 . S
O55 C45 1.272 . S
O55 Co47 2.135 . S
Co56 O57 2.216 . S
Co56 O58 2.091 . S
Co56 O60 2.004 . S
Co56 O66 2.021 . S
Co56 O68 2.137 . S
Co56 O69 2.244 . S
O57 Co56 2.216 . S
O57 C64 1.247 . S
O58 Co56 2.091 . S
O58 C64 1.261 . S
C59 O68 1.247 . S
C59 O69 1.272 . S
O60 Co56 2.004 . S
O60 C65 1.259 . S
Co61 O62 2.061 . S
Co61 O67 2.052 . S
Co61 O69 2.135 . S
O62 Co61 2.061 . S
O62 C65 1.235 . S
C63 O66 1.238 . S
C63 O67 1.241 . S
C64 O57 1.247 . S
C64 O58 1.261 . S
C65 O60 1.259 . S
C65 O62 1.235 . S
O66 Co56 2.021 . S
O66 C63 1.238 . S
O67 Co61 2.052 . S
O67 C63 1.241 . S
O68 Co56 2.137 . S
O68 C59 1.247 . S
O69 Co56 2.244 . S
O69 C59 1.272 . S
O69 Co61 2.135 . S
Co70 O71 2.216 . S
Co70 O72 2.091 . S
Co70 O74 2.004 . S
Co70 O80 2.021 . S
Co70 O82 2.137 . S
Co70 O83 2.244 . S
O71 Co70 2.216 . S
O71 C78 1.247 . S
O72 Co70 2.091 . S
O72 C78 1.261 . S
C73 O82 1.247 . S
C73 O83 1.272 . S
O74 Co70 2.004 . S
O74 C79 1.259 . S
Co75 O76 2.061 . S
Co75 O81 2.052 . S
Co75 O83 2.135 . S
O76 Co75 2.061 . S
O76 C79 1.235 . S
C77 O80 1.238 . S
C77 O81 1.241 . S
C78 O71 1.247 . S
C78 O72 1.261 . S
C79 O74 1.259 . S
C79 O76 1.235 . S
O80 Co70 2.021 . S
O80 C77 1.238 . S
O81 Co75 2.052 . S
O81 C77 1.241 . S
O82 Co70 2.137 . S
O82 C73 1.247 . S
O83 Co70 2.244 . S
O83 C73 1.272 . S
O83 Co75 2.135 . S
Co84 O85 2.216 . S
Co84 O86 2.091 . S
Co84 O88 2.004 . S
Co84 O94 2.021 . S
Co84 O96 2.137 . S
Co84 O97 2.244 . S
O85 Co84 2.216 . S
O85 C92 1.247 . S
O86 Co84 2.091 . S
O86 C92 1.261 . S
C87 O96 1.247 . S
C87 O97 1.272 . S
O88 Co84 2.004 . S
O88 C93 1.259 . S
Co89 O90 2.061 . S
Co89 O95 2.052 . S
Co89 O97 2.135 . S
O90 Co89 2.061 . S
O90 C93 1.235 . S
C91 O94 1.238 . S
C91 O95 1.241 . S
C92 O85 1.247 . S
C92 O86 1.261 . S
C93 O88 1.259 . S
C93 O90 1.235 . S
O94 Co84 2.021 . S
O94 C91 1.238 . S
O95 Co89 2.052 . S
O95 C91 1.241 . S
O96 Co84 2.137 . S
O96 C87 1.247 . S
O97 Co84 2.244 . S
O97 C87 1.272 . S
O97 Co89 2.135 . S
Co98 O99 2.216 . S
Co98 O100 2.091 . S
Co98 O102 2.004 . S
Co98 O108 2.021 . S
Co98 O110 2.137 . S
Co98 O111 2.244 . S
O99 Co98 2.216 . S
O99 C106 1.247 . S
O100 Co98 2.091 . S
O100 C106 1.261 . S
C101 O110 1.247 . S
C101 O111 1.272 . S
O102 Co98 2.004 . S
O102 C107 1.259 . S
Co103 O104 2.061 . S
Co103 O109 2.052 . S
Co103 O111 2.135 . S
O104 Co103 2.061 . S
O104 C107 1.235 . S
C105 O108 1.238 . S
C105 O109 1.241 . S
C106 O99 1.247 . S
C106 O100 1.261 . S
C107 O102 1.259 . S
C107 O104 1.235 . S
O108 Co98 2.021 . S
O108 C105 1.238 . S
O109 Co103 2.052 . S
O109 C105 1.241 . S
O110 Co98 2.137 . S
O110 C101 1.247 . S
O111 Co98 2.244 . S
O111 C101 1.272 . S
O111 Co103 2.135 . S
Co112 O113 2.216 . S
Co112 O114 2.091 . S
Co112 O116 2.004 . S
Co112 O122 2.021 . S
Co112 O124 2.137 . S
Co112 O125 2.244 . S
O113 Co112 2.216 . S
O113 C120 1.247 . S
O114 Co112 2.091 . S
O114 C120 1.261 . S
C115 O124 1.247 . S
C115 O125 1.272 . S
O116 Co112 2.004 . S
O116 C121 1.259 . S
Co117 O118 2.061 . S
Co117 O123 2.052 . S
Co117 O125 2.135 . S
O118 Co117 2.061 . S
O118 C121 1.235 . S
C119 O122 1.238 . S
C119 O123 1.241 . S
C120 O113 1.247 . S
C120 O114 1.261 . S
C121 O116 1.259 . S
C121 O118 1.235 . S
O122 Co112 2.021 . S
O122 C119 1.238 . S
O123 Co117 2.052 . S
O123 C119 1.241 . S
O124 Co112 2.137 . S
O124 C115 1.247 . S
O125 Co112 2.244 . S
O125 C115 1.272 . S
O125 Co117 2.135 . S
Co126 O127 2.216 . S
Co126 O128 2.091 . S
Co126 O130 2.004 . S
Co126 O136 2.021 . S
Co126 O138 2.137 . S
Co126 O139 2.244 . S
O127 Co126 2.216 . S
O127 C134 1.247 . S
O128 Co126 2.091 . S
O128 C134 1.261 . S
C129 O138 1.247 . S
C129 O139 1.272 . S
O130 Co126 2.004 . S
O130 C135 1.259 . S
Co131 O132 2.061 . S
Co131 O137 2.052 . S
Co131 O139 2.135 . S
O132 Co131 2.061 . S
O132 C135 1.235 . S
C133 O136 1.238 . S
C133 O137 1.241 . S
C134 O127 1.247 . S
C134 O128 1.261 . S
C135 O130 1.259 . S
C135 O132 1.235 . S
O136 Co126 2.021 . S
O136 C133 1.238 . S
O137 Co131 2.052 . S
O137 C133 1.241 . S
O138 Co126 2.137 . S
O138 C129 1.247 . S
O139 Co126 2.244 . S
O139 C129 1.272 . S
O139 Co131 2.135 . S
Co140 O141 2.216 . S
Co140 O142 2.091 . S
Co140 O144 2.004 . S
Co140 O150 2.021 . S
Co140 O152 2.137 . S
Co140 O153 2.244 . S
O141 Co140 2.216 . S
O141 C148 1.247 . S
O142 Co140 2.091 . S
O142 C148 1.261 . S
C143 O152 1.247 . S
C143 O153 1.272 . S
O144 Co140 2.004 . S
O144 C149 1.259 . S
Co145 O146 2.061 . S
Co145 O151 2.052 . S
Co145 O153 2.135 . S
O146 Co145 2.061 . S
O146 C149 1.235 . S
C147 O150 1.238 . S
C147 O151 1.241 . S
C148 O141 1.247 . S
C148 O142 1.261 . S
C149 O144 1.259 . S
C149 O146 1.235 . S
O150 Co140 2.021 . S
O150 C147 1.238 . S
O151 Co145 2.052 . S
O151 C147 1.241 . S
O152 Co140 2.137 . S
O152 C143 1.247 . S
O153 Co140 2.244 . S
O153 C143 1.272 . S
O153 Co145 2.135 . S
Co154 O155 2.216 . S
Co154 O156 2.091 . S
Co154 O158 2.004 . S
Co154 O164 2.021 . S
Co154 O166 2.137 . S
Co154 O167 2.244 . S
O155 Co154 2.216 . S
O155 C162 1.247 . S
O156 Co154 2.091 . S
O156 C162 1.261 . S
C157 O166 1.247 . S
C157 O167 1.272 . S
O158 Co154 2.004 . S
O158 C163 1.259 . S
Co159 O160 2.061 . S
Co159 O165 2.052 . S
Co159 O167 2.135 . S
O160 Co159 2.061 . S
O160 C163 1.235 . S
C161 O164 1.238 . S
C161 O165 1.241 . S
C162 O155 1.247 . S
C162 O156 1.261 . S
C163 O158 1.259 . S
C163 O160 1.235 . S
O164 Co154 2.021 . S
O164 C161 1.238 . S
O165 Co159 2.052 . S
O165 C161 1.241 . S
O166 Co154 2.137 . S
O166 C157 1.247 . S
O167 Co154 2.244 . S
O167 C157 1.272 . S
O167 Co159 2.135 . S
Co168 O169 2.216 . S
Co168 O170 2.091 . S
Co168 O172 2.004 . S
Co168 O178 2.021 . S
Co168 O180 2.137 . S
Co168 O181 2.244 . S
O169 Co168 2.216 . S
O169 C176 1.247 . S
O170 Co168 2.091 . S
O170 C176 1.261 . S
C171 O180 1.247 . S
C171 O181 1.272 . S
O172 Co168 2.004 . S
O172 C177 1.259 . S
Co173 O174 2.061 . S
Co173 O179 2.052 . S
Co173 O181 2.135 . S
O174 Co173 2.061 . S
O174 C177 1.235 . S
C175 O178 1.238 . S
C175 O179 1.241 . S
C176 O169 1.247 . S
C176 O170 1.261 . S
C177 O172 1.259 . S
C177 O174 1.235 . S
O178 Co168 2.021 . S
O178 C175 1.238 . S
O179 Co173 2.052 . S
O179 C175 1.241 . S
O180 Co168 2.137 . S
O180 C171 1.247 . S
O181 Co168 2.244 . S
O181 C171 1.272 . S
O181 Co173 2.135 . S
Co182 O183 2.216 . S
Co182 O184 2.091 . S
Co182 O186 2.004 . S
Co182 O192 2.021 . S
Co182 O194 2.137 . S
Co182 O195 2.244 . S
O183 Co182 2.216 . S
O183 C190 1.247 . S
O184 Co182 2.091 . S
O184 C190 1.261 . S
C185 O194 1.247 . S
C185 O195 1.272 . S
O186 Co182 2.004 . S
O186 C191 1.259 . S
Co187 O188 2.061 . S
Co187 O193 2.052 . S
Co187 O195 2.135 . S
O188 Co187 2.061 . S
O188 C191 1.235 . S
C189 O192 1.238 . S
C189 O193 1.241 . S
C190 O183 1.247 . S
C190 O184 1.261 . S
C191 O186 1.259 . S
C191 O188 1.235 . S
O192 Co182 2.021 . S
O192 C189 1.238 . S
O193 Co187 2.052 . S
O193 C189 1.241 . S
O194 Co182 2.137 . S
O194 C185 1.247 . S
O195 Co182 2.244 . S
O195 C185 1.272 . S
O195 Co187 2.135 . S
Co196 O197 2.216 . S
Co196 O198 2.091 . S
Co196 O200 2.004 . S
Co196 O206 2.021 . S
Co196 O208 2.137 . S
Co196 O209 2.244 . S
O197 Co196 2.216 . S
O197 C204 1.247 . S
O198 Co196 2.091 . S
O198 C204 1.261 . S
C199 O208 1.247 . S
C199 O209 1.272 . S
O200 Co196 2.004 . S
O200 C205 1.259 . S
Co201 O202 2.061 . S
Co201 O207 2.052 . S
Co201 O209 2.135 . S
O202 Co201 2.061 . S
O202 C205 1.235 . S
C203 O206 1.238 . S
C203 O207 1.241 . S
C204 O197 1.247 . S
C204 O198 1.261 . S
C205 O200 1.259 . S
C205 O202 1.235 . S
O206 Co196 2.021 . S
O206 C203 1.238 . S
O207 Co201 2.052 . S
O207 C203 1.241 . S
O208 Co196 2.137 . S
O208 C199 1.247 . S
O209 Co196 2.244 . S
O209 C199 1.272 . S
O209 Co201 2.135 . S
Co210 O211 2.216 . S
Co210 O212 2.091 . S
Co210 O214 2.004 . S
Co210 O220 2.021 . S
Co210 O222 2.137 . S
Co210 O223 2.244 . S
O211 Co210 2.216 . S
O211 C218 1.247 . S
O212 Co210 2.091 . S
O212 C218 1.261 . S
C213 O222 1.247 . S
C213 O223 1.272 . S
O214 Co210 2.004 . S
O214 C219 1.259 . S
Co215 O216 2.061 . S
Co215 O221 2.052 . S
Co215 O223 2.135 . S
O216 Co215 2.061 . S
O216 C219 1.235 . S
C217 O220 1.238 . S
C217 O221 1.241 . S
C218 O211 1.247 . S
C218 O212 1.261 . S
C219 O214 1.259 . S
C219 O216 1.235 . S
O220 Co210 2.021 . S
O220 C217 1.238 . S
O221 Co215 2.052 . S
O221 C217 1.241 . S
O222 Co210 2.137 . S
O222 C213 1.247 . S
O223 Co210 2.244 . S
O223 C213 1.272 . S
O223 Co215 2.135 . S
Co224 O225 2.216 . S
Co224 O226 2.091 . S
Co224 O228 2.004 . S
Co224 O234 2.021 . S
Co224 O236 2.137 . S
Co224 O237 2.244 . S
O225 Co224 2.216 . S
O225 C232 1.247 . S
O226 Co224 2.091 . S
O226 C232 1.261 . S
C227 O236 1.247 . S
C227 O237 1.272 . S
O228 Co224 2.004 . S
O228 C233 1.259 . S
Co229 O230 2.061 . S
Co229 O235 2.052 . S
Co229 O237 2.135 . S
O230 Co229 2.061 . S
O230 C233 1.235 . S
C231 O234 1.238 . S
C231 O235 1.241 . S
C232 O225 1.247 . S
C232 O226 1.261 . S
C233 O228 1.259 . S
C233 O230 1.235 . S
O234 Co224 2.021 . S
O234 C231 1.238 . S
O235 Co229 2.052 . S
O235 C231 1.241 . S
O236 Co224 2.137 . S
O236 C227 1.247 . S
O237 Co224 2.244 . S
O237 C227 1.272 . S
O237 Co229 2.135 . S
Co238 O239 2.216 . S
Co238 O240 2.091 . S
Co238 O242 2.004 . S
Co238 O248 2.021 . S
Co238 O250 2.137 . S
Co238 O251 2.244 . S
O239 Co238 2.216 . S
O239 C246 1.247 . S
O240 Co238 2.091 . S
O240 C246 1.261 . S
C241 O250 1.247 . S
C241 O251 1.272 . S
O242 Co238 2.004 . S
O242 C247 1.259 . S
Co243 O244 2.061 . S
Co243 O249 2.052 . S
Co243 O251 2.135 . S
O244 Co243 2.061 . S
O244 C247 1.235 . S
C245 O248 1.238 . S
C245 O249 1.241 . S
C246 O239 1.247 . S
C246 O240 1.261 . S
C247 O242 1.259 . S
C247 O244 1.235 . S
O248 Co238 2.021 . S
O248 C245 1.238 . S
O249 Co243 2.052 . S
O249 C245 1.241 . S
O250 Co238 2.137 . S
O250 C241 1.247 . S
O251 Co238 2.244 . S
O251 C241 1.272 . S
O251 Co243 2.135 . S
Co252 O253 2.216 . S
Co252 O254 2.091 . S
Co252 O256 2.004 . S
Co252 O262 2.021 . S
Co252 O264 2.137 . S
Co252 O265 2.244 . S
O253 Co252 2.216 . S
O253 C260 1.247 . S
O254 Co252 2.091 . S
O254 C260 1.261 . S
C255 O264 1.247 . S
C255 O265 1.272 . S
O256 Co252 2.004 . S
O256 C261 1.259 . S
Co257 O258 2.061 . S
Co257 O263 2.052 . S
Co257 O265 2.135 . S
O258 Co257 2.061 . S
O258 C261 1.235 . S
C259 O262 1.238 . S
C259 O263 1.241 . S
C260 O253 1.247 . S
C260 O254 1.261 . S
C261 O256 1.259 . S
C261 O258 1.235 . S
O262 Co252 2.021 . S
O262 C259 1.238 . S
O263 Co257 2.052 . S
O263 C259 1.241 . S
O264 Co252 2.137 . S
O264 C255 1.247 . S
O265 Co252 2.244 . S
O265 C255 1.272 . S
O265 Co257 2.135 . S
Co266 O267 2.216 . S
Co266 O268 2.091 . S
Co266 O270 2.004 . S
Co266 O276 2.021 . S
Co266 O278 2.137 . S
Co266 O279 2.244 . S
O267 Co266 2.216 . S
O267 C274 1.247 . S
O268 Co266 2.091 . S
O268 C274 1.261 . S
C269 O278 1.247 . S
C269 O279 1.272 . S
O270 Co266 2.004 . S
O270 C275 1.259 . S
Co271 O272 2.061 . S
Co271 O277 2.052 . S
Co271 O279 2.135 . S
O272 Co271 2.061 . S
O272 C275 1.235 . S
C273 O276 1.238 . S
C273 O277 1.241 . S
C274 O267 1.247 . S
C274 O268 1.261 . S
C275 O270 1.259 . S
C275 O272 1.235 . S
O276 Co266 2.021 . S
O276 C273 1.238 . S
O277 Co271 2.052 . S
O277 C273 1.241 . S
O278 Co266 2.137 . S
O278 C269 1.247 . S
O279 Co266 2.244 . S
O279 C269 1.272 . S
O279 Co271 2.135 . S
Co280 O281 2.216 . S
Co280 O282 2.091 . S
Co280 O284 2.004 . S
Co280 O290 2.021 . S
Co280 O292 2.137 . S
Co280 O293 2.244 . S
O281 Co280 2.216 . S
O281 C288 1.247 . S
O282 Co280 2.091 . S
O282 C288 1.261 . S
C283 O292 1.247 . S
C283 O293 1.272 . S
O284 Co280 2.004 . S
O284 C289 1.259 . S
Co285 O286 2.061 . S
Co285 O291 2.052 . S
Co285 O293 2.135 . S
O286 Co285 2.061 . S
O286 C289 1.235 . S
C287 O290 1.238 . S
C287 O291 1.241 . S
C288 O281 1.247 . S
C288 O282 1.261 . S
C289 O284 1.259 . S
C289 O286 1.235 . S
O290 Co280 2.021 . S
O290 C287 1.238 . S
O291 Co285 2.052 . S
O291 C287 1.241 . S
O292 Co280 2.137 . S
O292 C283 1.247 . S
O293 Co280 2.244 . S
O293 C283 1.272 . S
O293 Co285 2.135 . S
Co294 O295 2.216 . S
Co294 O296 2.091 . S
Co294 O298 2.004 . S
Co294 O304 2.021 . S
Co294 O306 2.137 . S
Co294 O307 2.244 . S
O295 Co294 2.216 . S
O295 C302 1.247 . S
O296 Co294 2.091 . S
O296 C302 1.261 . S
C297 O306 1.247 . S
C297 O307 1.272 . S
O298 Co294 2.004 . S
O298 C303 1.259 . S
Co299 O300 2.061 . S
Co299 O305 2.052 . S
Co299 O307 2.135 . S
O300 Co299 2.061 . S
O300 C303 1.235 . S
C301 O304 1.238 . S
C301 O305 1.241 . S
C302 O295 1.247 . S
C302 O296 1.261 . S
C303 O298 1.259 . S
C303 O300 1.235 . S
O304 Co294 2.021 . S
O304 C301 1.238 . S
O305 Co299 2.052 . S
O305 C301 1.241 . S
O306 Co294 2.137 . S
O306 C297 1.247 . S
O307 Co294 2.244 . S
O307 C297 1.272 . S
O307 Co299 2.135 . S
Co308 O309 2.216 . S
Co308 O310 2.091 . S
Co308 O312 2.004 . S
Co308 O318 2.021 . S
Co308 O320 2.137 . S
Co308 O321 2.244 . S
O309 Co308 2.216 . S
O309 C316 1.247 . S
O310 Co308 2.091 . S
O310 C316 1.261 . S
C311 O320 1.247 . S
C311 O321 1.272 . S
O312 Co308 2.004 . S
O312 C317 1.259 . S
Co313 O314 2.061 . S
Co313 O319 2.052 . S
Co313 O321 2.135 . S
O314 Co313 2.061 . S
O314 C317 1.235 . S
C315 O318 1.238 . S
C315 O319 1.241 . S
C316 O309 1.247 . S
C316 O310 1.261 . S
C317 O312 1.259 . S
C317 O314 1.235 . S
O318 Co308 2.021 . S
O318 C315 1.238 . S
O319 Co313 2.052 . S
O319 C315 1.241 . S
O320 Co308 2.137 . S
O320 C311 1.247 . S
O321 Co308 2.244 . S
O321 C311 1.272 . S
O321 Co313 2.135 . S
Co322 O323 2.216 . S
Co322 O324 2.091 . S
Co322 O326 2.004 . S
Co322 O332 2.021 . S
Co322 O334 2.137 . S
Co322 O335 2.244 . S
O323 Co322 2.216 . S
O323 C330 1.247 . S
O324 Co322 2.091 . S
O324 C330 1.261 . S
C325 O334 1.247 . S
C325 O335 1.272 . S
O326 Co322 2.004 . S
O326 C331 1.259 . S
Co327 O328 2.061 . S
Co327 O333 2.052 . S
Co327 O335 2.135 . S
O328 Co327 2.061 . S
O328 C331 1.235 . S
C329 O332 1.238 . S
C329 O333 1.241 . S
C330 O323 1.247 . S
C330 O324 1.261 . S
C331 O326 1.259 . S
C331 O328 1.235 . S
O332 Co322 2.021 . S
O332 C329 1.238 . S
O333 Co327 2.052 . S
O333 C329 1.241 . S
O334 Co322 2.137 . S
O334 C325 1.247 . S
O335 Co322 2.244 . S
O335 C325 1.272 . S
O335 Co327 2.135 . S
H336 C342 0.930 . S
H337 C345 0.930 . S
H338 C346 0.930 . S
H339 C347 0.930 . S
H340 C350 0.930 . S
H341 C351 0.930 . S
C342 H336 0.930 . S
C342 C343 1.355 . S
C342 C344 1.415 . S
C343 C342 1.355 . S
C343 C345 1.419 . S
C344 C342 1.415 . S
C344 C349 1.425 . S
C344 C351 1.409 . S
C345 H337 0.930 . S
C345 C343 1.419 . S
C345 C346 1.362 . S
C346 H338 0.930 . S
C346 C345 1.362 . S
C346 C349 1.409 . S
C347 H339 0.930 . S
C347 C348 1.355 . S
C347 C349 1.415 . S
C348 C347 1.355 . S
C348 C350 1.419 . S
C349 C344 1.425 . S
C349 C346 1.409 . S
C349 C347 1.415 . S
C350 H340 0.930 . S
C350 C348 1.419 . S
C350 C351 1.362 . S
C351 H341 0.930 . S
C351 C344 1.409 . S
C351 C350 1.362 . S
H352 C358 0.930 . S
H353 C361 0.930 . S
H354 C362 0.930 . S
H355 C363 0.930 . S
H356 C366 0.930 . S
H357 C367 0.930 . S
C358 H352 0.930 . S
C358 C359 1.355 . S
C358 C360 1.415 . S
C359 C358 1.355 . S
C359 C361 1.419 . S
C360 C358 1.415 . S
C360 C365 1.425 . S
C360 C367 1.409 . S
C361 H353 0.930 . S
C361 C359 1.419 . S
C361 C362 1.362 . S
C362 H354 0.930 . S
C362 C361 1.362 . S
C362 C365 1.409 . S
C363 H355 0.930 . S
C363 C364 1.355 . S
C363 C365 1.415 . S
C364 C363 1.355 . S
C364 C366 1.419 . S
C365 C360 1.425 . S
C365 C362 1.409 . S
C365 C363 1.415 . S
C366 H356 0.930 . S
C366 C364 1.419 . S
C366 C367 1.362 . S
C367 H357 0.930 . S
C367 C360 1.409 . S
C367 C366 1.362 . S
H368 C374 0.930 . S
H369 C377 0.930 . S
H370 C378 0.930 . S
H371 C379 0.930 . S
H372 C382 0.930 . S
H373 C383 0.930 . S
C374 H368 0.930 . S
C374 C375 1.355 . S
C374 C376 1.415 . S
C375 C374 1.355 . S
C375 C377 1.419 . S
C376 C374 1.415 . S
C376 C381 1.425 . S
C376 C383 1.409 . S
C377 H369 0.930 . S
C377 C375 1.419 . S
C377 C378 1.362 . S
C378 H370 0.930 . S
C378 C377 1.362 . S
C378 C381 1.409 . S
C379 H371 0.930 . S
C379 C380 1.355 . S
C379 C381 1.415 . S
C380 C379 1.355 . S
C380 C382 1.419 . S
C381 C376 1.425 . S
C381 C378 1.409 . S
C381 C379 1.415 . S
C382 H372 0.930 . S
C382 C380 1.419 . S
C382 C383 1.362 . S
C383 H373 0.930 . S
C383 C376 1.409 . S
C383 C382 1.362 . S
H384 C390 0.930 . S
H385 C393 0.930 . S
H386 C394 0.930 . S
H387 C395 0.930 . S
H388 C398 0.930 . S
H389 C399 0.930 . S
C390 H384 0.930 . S
C390 C391 1.355 . S
C390 C392 1.415 . S
C391 C390 1.355 . S
C391 C393 1.419 . S
C392 C390 1.415 . S
C392 C397 1.425 . S
C392 C399 1.409 . S
C393 H385 0.930 . S
C393 C391 1.419 . S
C393 C394 1.362 . S
C394 H386 0.930 . S
C394 C393 1.362 . S
C394 C397 1.409 . S
C395 H387 0.930 . S
C395 C396 1.355 . S
C395 C397 1.415 . S
C396 C395 1.355 . S
C396 C398 1.419 . S
C397 C392 1.425 . S
C397 C394 1.409 . S
C397 C395 1.415 . S
C398 H388 0.930 . S
C398 C396 1.419 . S
C398 C399 1.362 . S
C399 H389 0.930 . S
C399 C392 1.409 . S
C399 C398 1.362 . S
H400 C406 0.930 . S
H401 C409 0.930 . S
H402 C410 0.930 . S
H403 C411 0.930 . S
H404 C414 0.930 . S
H405 C415 0.930 . S
C406 H400 0.930 . S
C406 C407 1.355 . S
C406 C408 1.415 . S
C407 C406 1.355 . S
C407 C409 1.419 . S
C408 C406 1.415 . S
C408 C413 1.425 . S
C408 C415 1.409 . S
C409 H401 0.930 . S
C409 C407 1.419 . S
C409 C410 1.362 . S
C410 H402 0.930 . S
C410 C409 1.362 . S
C410 C413 1.409 . S
C411 H403 0.930 . S
C411 C412 1.355 . S
C411 C413 1.415 . S
C412 C411 1.355 . S
C412 C414 1.419 . S
C413 C408 1.425 . S
C413 C410 1.409 . S
C413 C411 1.415 . S
C414 H404 0.930 . S
C414 C412 1.419 . S
C414 C415 1.362 . S
C415 H405 0.930 . S
C415 C408 1.409 . S
C415 C414 1.362 . S
H416 C422 0.930 . S
H417 C425 0.930 . S
H418 C426 0.930 . S
H419 C427 0.930 . S
H420 C430 0.930 . S
H421 C431 0.930 . S
C422 H416 0.930 . S
C422 C423 1.355 . S
C422 C424 1.415 . S
C423 C422 1.355 . S
C423 C425 1.419 . S
C424 C422 1.415 . S
C424 C429 1.425 . S
C424 C431 1.409 . S
C425 H417 0.930 . S
C425 C423 1.419 . S
C425 C426 1.362 . S
C426 H418 0.930 . S
C426 C425 1.362 . S
C426 C429 1.409 . S
C427 H419 0.930 . S
C427 C428 1.355 . S
C427 C429 1.415 . S
C428 C427 1.355 . S
C428 C430 1.419 . S
C429 C424 1.425 . S
C429 C426 1.409 . S
C429 C427 1.415 . S
C430 H420 0.930 . S
C430 C428 1.419 . S
C430 C431 1.362 . S
C431 H421 0.930 . S
C431 C424 1.409 . S
C431 C430 1.362 . S
H432 C438 0.930 . S
H433 C441 0.930 . S
H434 C442 0.930 . S
H435 C443 0.930 . S
H436 C446 0.930 . S
H437 C447 0.930 . S
C438 H432 0.930 . S
C438 C439 1.355 . S
C438 C440 1.415 . S
C439 C438 1.355 . S
C439 C441 1.419 . S
C440 C438 1.415 . S
C440 C445 1.425 . S
C440 C447 1.409 . S
C441 H433 0.930 . S
C441 C439 1.419 . S
C441 C442 1.362 . S
C442 H434 0.930 . S
C442 C441 1.362 . S
C442 C445 1.409 . S
C443 H435 0.930 . S
C443 C444 1.355 . S
C443 C445 1.415 . S
C444 C443 1.355 . S
C444 C446 1.419 . S
C445 C440 1.425 . S
C445 C442 1.409 . S
C445 C443 1.415 . S
C446 H436 0.930 . S
C446 C444 1.419 . S
C446 C447 1.362 . S
C447 H437 0.930 . S
C447 C440 1.409 . S
C447 C446 1.362 . S
H448 C454 0.930 . S
H449 C457 0.930 . S
H450 C458 0.930 . S
H451 C459 0.930 . S
H452 C462 0.930 . S
H453 C463 0.930 . S
C454 H448 0.930 . S
C454 C455 1.355 . S
C454 C456 1.415 . S
C455 C454 1.355 . S
C455 C457 1.419 . S
C456 C454 1.415 . S
C456 C461 1.425 . S
C456 C463 1.409 . S
C457 H449 0.930 . S
C457 C455 1.419 . S
C457 C458 1.362 . S
C458 H450 0.930 . S
C458 C457 1.362 . S
C458 C461 1.409 . S
C459 H451 0.930 . S
C459 C460 1.355 . S
C459 C461 1.415 . S
C460 C459 1.355 . S
C460 C462 1.419 . S
C461 C456 1.425 . S
C461 C458 1.409 . S
C461 C459 1.415 . S
C462 H452 0.930 . S
C462 C460 1.419 . S
C462 C463 1.362 . S
C463 H453 0.930 . S
C463 C456 1.409 . S
C463 C462 1.362 . S
H464 C470 0.930 . S
H465 C473 0.930 . S
H466 C474 0.930 . S
H467 C475 0.930 . S
H468 C478 0.930 . S
H469 C479 0.930 . S
C470 H464 0.930 . S
C470 C471 1.355 . S
C470 C472 1.415 . S
C471 C470 1.355 . S
C471 C473 1.419 . S
C472 C470 1.415 . S
C472 C477 1.425 . S
C472 C479 1.409 . S
C473 H465 0.930 . S
C473 C471 1.419 . S
C473 C474 1.362 . S
C474 H466 0.930 . S
C474 C473 1.362 . S
C474 C477 1.409 . S
C475 H467 0.930 . S
C475 C476 1.355 . S
C475 C477 1.415 . S
C476 C475 1.355 . S
C476 C478 1.419 . S
C477 C472 1.425 . S
C477 C474 1.409 . S
C477 C475 1.415 . S
C478 H468 0.930 . S
C478 C476 1.419 . S
C478 C479 1.362 . S
C479 H469 0.930 . S
C479 C472 1.409 . S
C479 C478 1.362 . S
H480 C486 0.930 . S
H481 C489 0.930 . S
H482 C490 0.930 . S
H483 C491 0.930 . S
H484 C494 0.930 . S
H485 C495 0.930 . S
C486 H480 0.930 . S
C486 C487 1.355 . S
C486 C488 1.415 . S
C487 C486 1.355 . S
C487 C489 1.419 . S
C488 C486 1.415 . S
C488 C493 1.425 . S
C488 C495 1.409 . S
C489 H481 0.930 . S
C489 C487 1.419 . S
C489 C490 1.362 . S
C490 H482 0.930 . S
C490 C489 1.362 . S
C490 C493 1.409 . S
C491 H483 0.930 . S
C491 C492 1.355 . S
C491 C493 1.415 . S
C492 C491 1.355 . S
C492 C494 1.419 . S
C493 C488 1.425 . S
C493 C490 1.409 . S
C493 C491 1.415 . S
C494 H484 0.930 . S
C494 C492 1.419 . S
C494 C495 1.362 . S
C495 H485 0.930 . S
C495 C488 1.409 . S
C495 C494 1.362 . S
H496 C502 0.930 . S
H497 C505 0.930 . S
H498 C506 0.930 . S
H499 C507 0.930 . S
H500 C510 0.930 . S
H501 C511 0.930 . S
C502 H496 0.930 . S
C502 C503 1.355 . S
C502 C504 1.415 . S
C503 C502 1.355 . S
C503 C505 1.419 . S
C504 C502 1.415 . S
C504 C509 1.425 . S
C504 C511 1.409 . S
C505 H497 0.930 . S
C505 C503 1.419 . S
C505 C506 1.362 . S
C506 H498 0.930 . S
C506 C505 1.362 . S
C506 C509 1.409 . S
C507 H499 0.930 . S
C507 C508 1.355 . S
C507 C509 1.415 . S
C508 C507 1.355 . S
C508 C510 1.419 . S
C509 C504 1.425 . S
C509 C506 1.409 . S
C509 C507 1.415 . S
C510 H500 0.930 . S
C510 C508 1.419 . S
C510 C511 1.362 . S
C511 H501 0.930 . S
C511 C504 1.409 . S
C511 C510 1.362 . S
H512 C518 0.930 . S
H513 C521 0.930 . S
H514 C522 0.930 . S
H515 C523 0.930 . S
H516 C526 0.930 . S
H517 C527 0.930 . S
C518 H512 0.930 . S
C518 C519 1.355 . S
C518 C520 1.415 . S
C519 C518 1.355 . S
C519 C521 1.419 . S
C520 C518 1.415 . S
C520 C525 1.425 . S
C520 C527 1.409 . S
C521 H513 0.930 . S
C521 C519 1.419 . S
C521 C522 1.362 . S
C522 H514 0.930 . S
C522 C521 1.362 . S
C522 C525 1.409 . S
C523 H515 0.930 . S
C523 C524 1.355 . S
C523 C525 1.415 . S
C524 C523 1.355 . S
C524 C526 1.419 . S
C525 C520 1.425 . S
C525 C522 1.409 . S
C525 C523 1.415 . S
C526 H516 0.930 . S
C526 C524 1.419 . S
C526 C527 1.362 . S
C527 H517 0.930 . S
C527 C520 1.409 . S
C527 C526 1.362 . S
H528 C534 0.930 . S
H529 C537 0.930 . S
H530 C538 0.930 . S
H531 C539 0.930 . S
H532 C542 0.930 . S
H533 C543 0.930 . S
C534 H528 0.930 . S
C534 C535 1.355 . S
C534 C536 1.415 . S
C535 C534 1.355 . S
C535 C537 1.419 . S
C536 C534 1.415 . S
C536 C541 1.425 . S
C536 C543 1.409 . S
C537 H529 0.930 . S
C537 C535 1.419 . S
C537 C538 1.362 . S
C538 H530 0.930 . S
C538 C537 1.362 . S
C538 C541 1.409 . S
C539 H531 0.930 . S
C539 C540 1.355 . S
C539 C541 1.415 . S
C540 C539 1.355 . S
C540 C542 1.419 . S
C541 C536 1.425 . S
C541 C538 1.409 . S
C541 C539 1.415 . S
C542 H532 0.930 . S
C542 C540 1.419 . S
C542 C543 1.362 . S
C543 H533 0.930 . S
C543 C536 1.409 . S
C543 C542 1.362 . S
H544 C550 0.930 . S
H545 C553 0.930 . S
H546 C554 0.930 . S
H547 C555 0.930 . S
H548 C558 0.930 . S
H549 C559 0.930 . S
C550 H544 0.930 . S
C550 C551 1.355 . S
C550 C552 1.415 . S
C551 C550 1.355 . S
C551 C553 1.419 . S
C552 C550 1.415 . S
C552 C557 1.425 . S
C552 C559 1.409 . S
C553 H545 0.930 . S
C553 C551 1.419 . S
C553 C554 1.362 . S
C554 H546 0.930 . S
C554 C553 1.362 . S
C554 C557 1.409 . S
C555 H547 0.930 . S
C555 C556 1.355 . S
C555 C557 1.415 . S
C556 C555 1.355 . S
C556 C558 1.419 . S
C557 C552 1.425 . S
C557 C554 1.409 . S
C557 C555 1.415 . S
C558 H548 0.930 . S
C558 C556 1.419 . S
C558 C559 1.362 . S
C559 H549 0.930 . S
C559 C552 1.409 . S
C559 C558 1.362 . S
H560 C566 0.930 . S
H561 C569 0.930 . S
H562 C570 0.930 . S
H563 C571 0.930 . S
H564 C574 0.930 . S
H565 C575 0.930 . S
C566 H560 0.930 . S
C566 C567 1.355 . S
C566 C568 1.415 . S
C567 C566 1.355 . S
C567 C569 1.419 . S
C568 C566 1.415 . S
C568 C573 1.425 . S
C568 C575 1.409 . S
C569 H561 0.930 . S
C569 C567 1.419 . S
C569 C570 1.362 . S
C570 H562 0.930 . S
C570 C569 1.362 . S
C570 C573 1.409 . S
C571 H563 0.930 . S
C571 C572 1.355 . S
C571 C573 1.415 . S
C572 C571 1.355 . S
C572 C574 1.419 . S
C573 C568 1.425 . S
C573 C570 1.409 . S
C573 C571 1.415 . S
C574 H564 0.930 . S
C574 C572 1.419 . S
C574 C575 1.362 . S
C575 H565 0.930 . S
C575 C568 1.409 . S
C575 C574 1.362 . S
H576 C582 0.930 . S
H577 C585 0.930 . S
H578 C586 0.930 . S
H579 C587 0.930 . S
H580 C590 0.930 . S
H581 C591 0.930 . S
C582 H576 0.930 . S
C582 C583 1.355 . S
C582 C584 1.415 . S
C583 C582 1.355 . S
C583 C585 1.419 . S
C584 C582 1.415 . S
C584 C589 1.425 . S
C584 C591 1.409 . S
C585 H577 0.930 . S
C585 C583 1.419 . S
C585 C586 1.362 . S
C586 H578 0.930 . S
C586 C585 1.362 . S
C586 C589 1.409 . S
C587 H579 0.930 . S
C587 C588 1.355 . S
C587 C589 1.415 . S
C588 C587 1.355 . S
C588 C590 1.419 . S
C589 C584 1.425 . S
C589 C586 1.409 . S
C589 C587 1.415 . S
C590 H580 0.930 . S
C590 C588 1.419 . S
C590 C591 1.362 . S
C591 H581 0.930 . S
C591 C584 1.409 . S
C591 C590 1.362 . S
H592 C598 0.930 . S
H593 C601 0.930 . S
H594 C602 0.930 . S
H595 C603 0.930 . S
H596 C606 0.930 . S
H597 C607 0.930 . S
C598 H592 0.930 . S
C598 C599 1.355 . S
C598 C600 1.415 . S
C599 C598 1.355 . S
C599 C601 1.419 . S
C600 C598 1.415 . S
C600 C605 1.425 . S
C600 C607 1.409 . S
C601 H593 0.930 . S
C601 C599 1.419 . S
C601 C602 1.362 . S
C602 H594 0.930 . S
C602 C601 1.362 . S
C602 C605 1.409 . S
C603 H595 0.930 . S
C603 C604 1.355 . S
C603 C605 1.415 . S
C604 C603 1.355 . S
C604 C606 1.419 . S
C605 C600 1.425 . S
C605 C602 1.409 . S
C605 C603 1.415 . S
C606 H596 0.930 . S
C606 C604 1.419 . S
C606 C607 1.362 . S
C607 H597 0.930 . S
C607 C600 1.409 . S
C607 C606 1.362 . S
H608 C614 0.930 . S
H609 C617 0.930 . S
H610 C618 0.930 . S
H611 C619 0.930 . S
H612 C622 0.930 . S
H613 C623 0.930 . S
C614 H608 0.930 . S
C614 C615 1.355 . S
C614 C616 1.415 . S
C615 C614 1.355 . S
C615 C617 1.419 . S
C616 C614 1.415 . S
C616 C621 1.425 . S
C616 C623 1.409 . S
C617 H609 0.930 . S
C617 C615 1.419 . S
C617 C618 1.362 . S
C618 H610 0.930 . S
C618 C617 1.362 . S
C618 C621 1.409 . S
C619 H611 0.930 . S
C619 C620 1.355 . S
C619 C621 1.415 . S
C620 C619 1.355 . S
C620 C622 1.419 . S
C621 C616 1.425 . S
C621 C618 1.409 . S
C621 C619 1.415 . S
C622 H612 0.930 . S
C622 C620 1.419 . S
C622 C623 1.362 . S
C623 H613 0.930 . S
C623 C616 1.409 . S
C623 C622 1.362 . S
H624 C630 0.930 . S
H625 C633 0.930 . S
H626 C634 0.930 . S
H627 C635 0.930 . S
H628 C638 0.930 . S
H629 C639 0.930 . S
C630 H624 0.930 . S
C630 C631 1.355 . S
C630 C632 1.415 . S
C631 C630 1.355 . S
C631 C633 1.419 . S
C632 C630 1.415 . S
C632 C637 1.425 . S
C632 C639 1.409 . S
C633 H625 0.930 . S
C633 C631 1.419 . S
C633 C634 1.362 . S
C634 H626 0.930 . S
C634 C633 1.362 . S
C634 C637 1.409 . S
C635 H627 0.930 . S
C635 C636 1.355 . S
C635 C637 1.415 . S
C636 C635 1.355 . S
C636 C638 1.419 . S
C637 C632 1.425 . S
C637 C634 1.409 . S
C637 C635 1.415 . S
C638 H628 0.930 . S
C638 C636 1.419 . S
C638 C639 1.362 . S
C639 H629 0.930 . S
C639 C632 1.409 . S
C639 C638 1.362 . S
H640 C646 0.930 . S
H641 C649 0.930 . S
H642 C650 0.930 . S
H643 C651 0.930 . S
H644 C654 0.930 . S
H645 C655 0.930 . S
C646 H640 0.930 . S
C646 C647 1.355 . S
C646 C648 1.415 . S
C647 C646 1.355 . S
C647 C649 1.419 . S
C648 C646 1.415 . S
C648 C653 1.425 . S
C648 C655 1.409 . S
C649 H641 0.930 . S
C649 C647 1.419 . S
C649 C650 1.362 . S
C650 H642 0.930 . S
C650 C649 1.362 . S
C650 C653 1.409 . S
C651 H643 0.930 . S
C651 C652 1.355 . S
C651 C653 1.415 . S
C652 C651 1.355 . S
C652 C654 1.419 . S
C653 C648 1.425 . S
C653 C650 1.409 . S
C653 C651 1.415 . S
C654 H644 0.930 . S
C654 C652 1.419 . S
C654 C655 1.362 . S
C655 H645 0.930 . S
C655 C648 1.409 . S
C655 C654 1.362 . S
H656 C662 0.930 . S
H657 C665 0.930 . S
H658 C666 0.930 . S
H659 C667 0.930 . S
H660 C670 0.930 . S
H661 C671 0.930 . S
C662 H656 0.930 . S
C662 C663 1.355 . S
C662 C664 1.415 . S
C663 C662 1.355 . S
C663 C665 1.419 . S
C664 C662 1.415 . S
C664 C669 1.425 . S
C664 C671 1.409 . S
C665 H657 0.930 . S
C665 C663 1.419 . S
C665 C666 1.362 . S
C666 H658 0.930 . S
C666 C665 1.362 . S
C666 C669 1.409 . S
C667 H659 0.930 . S
C667 C668 1.355 . S
C667 C669 1.415 . S
C668 C667 1.355 . S
C668 C670 1.419 . S
C669 C664 1.425 . S
C669 C666 1.409 . S
C669 C667 1.415 . S
C670 H660 0.930 . S
C670 C668 1.419 . S
C670 C671 1.362 . S
C671 H661 0.930 . S
C671 C664 1.409 . S
C671 C670 1.362 . S
H672 C678 0.930 . S
H673 C681 0.930 . S
H674 C682 0.930 . S
H675 C683 0.930 . S
H676 C686 0.930 . S
H677 C687 0.930 . S
C678 H672 0.930 . S
C678 C679 1.355 . S
C678 C680 1.415 . S
C679 C678 1.355 . S
C679 C681 1.419 . S
C680 C678 1.415 . S
C680 C685 1.425 . S
C680 C687 1.409 . S
C681 H673 0.930 . S
C681 C679 1.419 . S
C681 C682 1.362 . S
C682 H674 0.930 . S
C682 C681 1.362 . S
C682 C685 1.409 . S
C683 H675 0.930 . S
C683 C684 1.355 . S
C683 C685 1.415 . S
C684 C683 1.355 . S
C684 C686 1.419 . S
C685 C680 1.425 . S
C685 C682 1.409 . S
C685 C683 1.415 . S
C686 H676 0.930 . S
C686 C684 1.419 . S
C686 C687 1.362 . S
C687 H677 0.930 . S
C687 C680 1.409 . S
C687 C686 1.362 . S
H688 C694 0.930 . S
H689 C697 0.930 . S
H690 C698 0.930 . S
H691 C699 0.930 . S
H692 C702 0.930 . S
H693 C703 0.930 . S
C694 H688 0.930 . S
C694 C695 1.355 . S
C694 C696 1.415 . S
C695 C694 1.355 . S
C695 C697 1.419 . S
C696 C694 1.415 . S
C696 C701 1.425 . S
C696 C703 1.409 . S
C697 H689 0.930 . S
C697 C695 1.419 . S
C697 C698 1.362 . S
C698 H690 0.930 . S
C698 C697 1.362 . S
C698 C701 1.409 . S
C699 H691 0.930 . S
C699 C700 1.355 . S
C699 C701 1.415 . S
C700 C699 1.355 . S
C700 C702 1.419 . S
C701 C696 1.425 . S
C701 C698 1.409 . S
C701 C699 1.415 . S
C702 H692 0.930 . S
C702 C700 1.419 . S
C702 C703 1.362 . S
C703 H693 0.930 . S
C703 C696 1.409 . S
C703 C702 1.362 . S
H704 C710 0.930 . S
H705 C713 0.930 . S
H706 C714 0.930 . S
H707 C715 0.930 . S
H708 C718 0.930 . S
H709 C719 0.930 . S
C710 H704 0.930 . S
C710 C711 1.355 . S
C710 C712 1.415 . S
C711 C710 1.355 . S
C711 C713 1.419 . S
C712 C710 1.415 . S
C712 C717 1.425 . S
C712 C719 1.409 . S
C713 H705 0.930 . S
C713 C711 1.419 . S
C713 C714 1.362 . S
C714 H706 0.930 . S
C714 C713 1.362 . S
C714 C717 1.409 . S
C715 H707 0.930 . S
C715 C716 1.355 . S
C715 C717 1.415 . S
C716 C715 1.355 . S
C716 C718 1.419 . S
C717 C712 1.425 . S
C717 C714 1.409 . S
C717 C715 1.415 . S
C718 H708 0.930 . S
C718 C716 1.419 . S
C718 C719 1.362 . S
C719 H709 0.930 . S
C719 C712 1.409 . S
C719 C718 1.362 . S
H720 C726 0.930 . S
H721 C729 0.930 . S
H722 C730 0.930 . S
H723 C731 0.930 . S
H724 C734 0.930 . S
H725 C735 0.930 . S
C726 H720 0.930 . S
C726 C727 1.355 . S
C726 C728 1.415 . S
C727 C726 1.355 . S
C727 C729 1.419 . S
C728 C726 1.415 . S
C728 C733 1.425 1_455 S
C728 C735 1.409 1_455 S
C729 H721 0.930 . S
C729 C727 1.419 . S
C729 C730 1.362 . S
C730 H722 0.930 . S
C730 C729 1.362 . S
C730 C733 1.409 1_455 S
C731 H723 0.930 . S
C731 C732 1.355 . S
C731 C733 1.415 . S
C732 C731 1.355 . S
C732 C734 1.419 . S
C733 C728 1.425 1_655 S
C733 C730 1.409 1_655 S
C733 C731 1.415 . S
C734 H724 0.930 . S
C734 C732 1.419 . S
C734 C735 1.362 . S
C735 H725 0.930 . S
C735 C728 1.409 1_655 S
C735 C734 1.362 . S
H736 C742 0.930 . S
H737 C745 0.930 . S
H738 C746 0.930 . S
H739 C747 0.930 . S
H740 C750 0.930 . S
H741 C751 0.930 . S
C742 H736 0.930 . S
C742 C743 1.355 . S
C742 C744 1.415 . S
C743 C742 1.355 . S
C743 C745 1.419 . S
C744 C742 1.415 . S
C744 C749 1.425 1_545 S
C744 C751 1.409 1_545 S
C745 H737 0.930 . S
C745 C743 1.419 . S
C745 C746 1.362 . S
C746 H738 0.930 . S
C746 C745 1.362 . S
C746 C749 1.409 1_545 S
C747 H739 0.930 . S
C747 C748 1.355 . S
C747 C749 1.415 . S
C748 C747 1.355 . S
C748 C750 1.419 . S
C749 C744 1.425 1_565 S
C749 C746 1.409 1_565 S
C749 C747 1.415 . S
C750 H740 0.930 . S
C750 C748 1.419 . S
C750 C751 1.362 . S
C751 H741 0.930 . S
C751 C744 1.409 1_565 S
C751 C750 1.362 . S
H752 C758 0.930 . S
H753 C761 0.930 . S
H754 C762 0.930 . S
H755 C763 0.930 . S
H756 C766 0.930 . S
H757 C767 0.930 . S
C758 H752 0.930 . S
C758 C759 1.355 . S
C758 C760 1.415 . S
C759 C758 1.355 . S
C759 C761 1.419 . S
C760 C758 1.415 . S
C760 C765 1.425 1_655 S
C760 C767 1.409 1_655 S
C761 H753 0.930 . S
C761 C759 1.419 . S
C761 C762 1.362 . S
C762 H754 0.930 . S
C762 C761 1.362 . S
C762 C765 1.409 1_655 S
C763 H755 0.930 . S
C763 C764 1.355 . S
C763 C765 1.415 . S
C764 C763 1.355 . S
C764 C766 1.419 . S
C765 C760 1.425 1_455 S
C765 C762 1.409 1_455 S
C765 C763 1.415 . S
C766 H756 0.930 . S
C766 C764 1.419 . S
C766 C767 1.362 . S
C767 H757 0.930 . S
C767 C760 1.409 1_455 S
C767 C766 1.362 . S
H768 C774 0.930 . S
H769 C777 0.930 . S
H770 C778 0.930 . S
H771 C779 0.930 . S
H772 C782 0.930 . S
H773 C783 0.930 . S
C774 H768 0.930 . S
C774 C775 1.355 . S
C774 C776 1.415 . S
C775 C774 1.355 . S
C775 C777 1.419 . S
C776 C774 1.415 . S
C776 C781 1.425 1_545 S
C776 C783 1.409 1_545 S
C777 H769 0.930 . S
C777 C775 1.419 . S
C777 C778 1.362 . S
C778 H770 0.930 . S
C778 C777 1.362 . S
C778 C781 1.409 1_545 S
C779 H771 0.930 . S
C779 C780 1.355 . S
C779 C781 1.415 . S
C780 C779 1.355 . S
C780 C782 1.419 . S
C781 C776 1.425 1_565 S
C781 C778 1.409 1_565 S
C781 C779 1.415 . S
C782 H772 0.930 . S
C782 C780 1.419 . S
C782 C783 1.362 . S
C783 H773 0.930 . S
C783 C776 1.409 1_565 S
C783 C782 1.362 . S
H784 C790 0.930 . S
H785 C793 0.930 . S
H786 C794 0.930 . S
H787 C795 0.930 . S
H788 C798 0.930 . S
H789 C799 0.930 . S
C790 H784 0.930 . S
C790 C791 1.355 . S
C790 C792 1.415 . S
C791 C790 1.355 . S
C791 C793 1.419 . S
C792 C790 1.415 . S
C792 C797 1.425 1_565 S
C792 C799 1.409 1_565 S
C793 H785 0.930 . S
C793 C791 1.419 . S
C793 C794 1.362 . S
C794 H786 0.930 . S
C794 C793 1.362 . S
C794 C797 1.409 1_565 S
C795 H787 0.930 . S
C795 C796 1.355 . S
C795 C797 1.415 . S
C796 C795 1.355 . S
C796 C798 1.419 . S
C797 C792 1.425 1_545 S
C797 C794 1.409 1_545 S
C797 C795 1.415 . S
C798 H788 0.930 . S
C798 C796 1.419 . S
C798 C799 1.362 . S
C799 H789 0.930 . S
C799 C792 1.409 1_545 S
C799 C798 1.362 . S
H800 C806 0.930 . S
H801 C809 0.930 . S
H802 C810 0.930 . S
H803 C811 0.930 . S
H804 C814 0.930 . S
H805 C815 0.930 . S
C806 H800 0.930 . S
C806 C807 1.355 . S
C806 C808 1.415 . S
C807 C806 1.355 . S
C807 C809 1.419 . S
C808 C806 1.415 . S
C808 C813 1.425 1_655 S
C808 C815 1.409 1_655 S
C809 H801 0.930 . S
C809 C807 1.419 . S
C809 C810 1.362 . S
C810 H802 0.930 . S
C810 C809 1.362 . S
C810 C813 1.409 1_655 S
C811 H803 0.930 . S
C811 C812 1.355 . S
C811 C813 1.415 . S
C812 C811 1.355 . S
C812 C814 1.419 . S
C813 C808 1.425 1_455 S
C813 C810 1.409 1_455 S
C813 C811 1.415 . S
C814 H804 0.930 . S
C814 C812 1.419 . S
C814 C815 1.362 . S
C815 H805 0.930 . S
C815 C808 1.409 1_455 S
C815 C814 1.362 . S
H816 C822 0.930 . S
H817 C825 0.930 . S
H818 C826 0.930 . S
H819 C827 0.930 . S
H820 C830 0.930 . S
H821 C831 0.930 . S
C822 H816 0.930 . S
C822 C823 1.355 . S
C822 C824 1.415 . S
C823 C822 1.355 . S
C823 C825 1.419 . S
C824 C822 1.415 . S
C824 C829 1.425 1_565 S
C824 C831 1.409 1_565 S
C825 H817 0.930 . S
C825 C823 1.419 . S
C825 C826 1.362 . S
C826 H818 0.930 . S
C826 C825 1.362 . S
C826 C829 1.409 1_565 S
C827 H819 0.930 . S
C827 C828 1.355 . S
C827 C829 1.415 . S
C828 C827 1.355 . S
C828 C830 1.419 . S
C829 C824 1.425 1_545 S
C829 C826 1.409 1_545 S
C829 C827 1.415 . S
C830 H820 0.930 . S
C830 C828 1.419 . S
C830 C831 1.362 . S
C831 H821 0.930 . S
C831 C824 1.409 1_545 S
C831 C830 1.362 . S
H832 C838 0.930 . S
H833 C841 0.930 . S
H834 C842 0.930 . S
H835 C843 0.930 . S
H836 C846 0.930 . S
H837 C847 0.930 . S
C838 H832 0.930 . S
C838 C839 1.355 . S
C838 C840 1.415 . S
C839 C838 1.355 . S
C839 C841 1.419 . S
C840 C838 1.415 . S
C840 C845 1.425 1_655 S
C840 C847 1.409 1_655 S
C841 H833 0.930 . S
C841 C839 1.419 . S
C841 C842 1.362 . S
C842 H834 0.930 . S
C842 C841 1.362 . S
C842 C845 1.409 1_655 S
C843 H835 0.930 . S
C843 C844 1.355 . S
C843 C845 1.415 . S
C844 C843 1.355 . S
C844 C846 1.419 . S
C845 C840 1.425 1_455 S
C845 C842 1.409 1_455 S
C845 C843 1.415 . S
C846 H836 0.930 . S
C846 C844 1.419 . S
C846 C847 1.362 . S
C847 H837 0.930 . S
C847 C840 1.409 1_455 S
C847 C846 1.362 . S
H848 C854 0.930 . S
H849 C857 0.930 . S
H850 C858 0.930 . S
H851 C859 0.930 . S
H852 C862 0.930 . S
H853 C863 0.930 . S
C854 H848 0.930 . S
C854 C855 1.355 . S
C854 C856 1.415 . S
C855 C854 1.355 . S
C855 C857 1.419 . S
C856 C854 1.415 . S
C856 C861 1.425 1_556 S
C856 C863 1.409 1_556 S
C857 H849 0.930 . S
C857 C855 1.419 . S
C857 C858 1.362 . S
C858 H850 0.930 . S
C858 C857 1.362 . S
C858 C861 1.409 1_556 S
C859 H851 0.930 . S
C859 C860 1.355 . S
C859 C861 1.415 . S
C860 C859 1.355 . S
C860 C862 1.419 . S
C861 C856 1.425 1_554 S
C861 C858 1.409 1_554 S
C861 C859 1.415 . S
C862 H852 0.930 . S
C862 C860 1.419 . S
C862 C863 1.362 . S
C863 H853 0.930 . S
C863 C856 1.409 1_554 S
C863 C862 1.362 . S
H864 C870 0.930 . S
H865 C873 0.930 . S
H866 C874 0.930 . S
H867 C875 0.930 . S
H868 C878 0.930 . S
H869 C879 0.930 . S
C870 H864 0.930 . S
C870 C871 1.355 . S
C870 C872 1.415 . S
C871 C870 1.355 . S
C871 C873 1.419 . S
C872 C870 1.415 . S
C872 C877 1.425 1_556 S
C872 C879 1.409 1_556 S
C873 H865 0.930 . S
C873 C871 1.419 . S
C873 C874 1.362 . S
C874 H866 0.930 . S
C874 C873 1.362 . S
C874 C877 1.409 1_556 S
C875 H867 0.930 . S
C875 C876 1.355 . S
C875 C877 1.415 . S
C876 C875 1.355 . S
C876 C878 1.419 . S
C877 C872 1.425 1_554 S
C877 C874 1.409 1_554 S
C877 C875 1.415 . S
C878 H868 0.930 . S
C878 C876 1.419 . S
C878 C879 1.362 . S
C879 H869 0.930 . S
C879 C872 1.409 1_554 S
C879 C878 1.362 . S
H880 C886 0.930 . S
H881 C889 0.930 . S
H882 C890 0.930 . S
H883 C891 0.930 . S
H884 C894 0.930 . S
H885 C895 0.930 . S
C886 H880 0.930 . S
C886 C887 1.355 . S
C886 C888 1.415 . S
C887 C886 1.355 . S
C887 C889 1.419 . S
C888 C886 1.415 . S
C888 C893 1.425 1_556 S
C888 C895 1.409 1_556 S
C889 H881 0.930 . S
C889 C887 1.419 . S
C889 C890 1.362 . S
C890 H882 0.930 . S
C890 C889 1.362 . S
C890 C893 1.409 1_556 S
C891 H883 0.930 . S
C891 C892 1.355 . S
C891 C893 1.415 . S
C892 C891 1.355 . S
C892 C894 1.419 . S
C893 C888 1.425 1_554 S
C893 C890 1.409 1_554 S
C893 C891 1.415 . S
C894 H884 0.930 . S
C894 C892 1.419 . S
C894 C895 1.362 . S
C895 H885 0.930 . S
C895 C888 1.409 1_554 S
C895 C894 1.362 . S
H896 C902 0.930 . S
H897 C905 0.930 . S
H898 C906 0.930 . S
H899 C907 0.930 . S
H900 C910 0.930 . S
H901 C911 0.930 . S
C902 H896 0.930 . S
C902 C903 1.355 . S
C902 C904 1.415 . S
C903 C902 1.355 . S
C903 C905 1.419 . S
C904 C902 1.415 . S
C904 C909 1.425 1_556 S
C904 C911 1.409 1_556 S
C905 H897 0.930 . S
C905 C903 1.419 . S
C905 C906 1.362 . S
C906 H898 0.930 . S
C906 C905 1.362 . S
C906 C909 1.409 1_556 S
C907 H899 0.930 . S
C907 C908 1.355 . S
C907 C909 1.415 . S
C908 C907 1.355 . S
C908 C910 1.419 . S
C909 C904 1.425 1_554 S
C909 C906 1.409 1_554 S
C909 C907 1.415 . S
C910 H900 0.930 . S
C910 C908 1.419 . S
C910 C911 1.362 . S
C911 H901 0.930 . S
C911 C904 1.409 1_554 S
C911 C910 1.362 . S
H912 C918 0.930 . S
H913 C921 0.930 . S
H914 C922 0.930 . S
H915 C923 0.930 . S
H916 C926 0.930 . S
H917 C927 0.930 . S
C918 H912 0.930 . S
C918 C919 1.355 . S
C918 C920 1.415 . S
C919 C918 1.355 . S
C919 C921 1.419 . S
C920 C918 1.415 . S
C920 C925 1.425 . S
C920 C927 1.409 . S
C921 H913 0.930 . S
C921 C919 1.419 . S
C921 C922 1.362 . S
C922 H914 0.930 . S
C922 C921 1.362 . S
C922 C925 1.409 . S
C923 H915 0.930 . S
C923 C924 1.355 . S
C923 C925 1.415 . S
C924 C923 1.355 . S
C924 C926 1.419 . S
C925 C920 1.425 . S
C925 C922 1.409 . S
C925 C923 1.415 . S
C926 H916 0.930 . S
C926 C924 1.419 . S
C926 C927 1.362 . S
C927 H917 0.930 . S
C927 C920 1.409 . S
C927 C926 1.362 . S
H928 C934 0.930 . S
H929 C937 0.930 . S
H930 C938 0.930 . S
H931 C939 0.930 . S
H932 C942 0.930 . S
H933 C943 0.930 . S
C934 H928 0.930 . S
C934 C935 1.355 . S
C934 C936 1.415 . S
C935 C934 1.355 . S
C935 C937 1.419 . S
C936 C934 1.415 . S
C936 C941 1.425 . S
C936 C943 1.409 . S
C937 H929 0.930 . S
C937 C935 1.419 . S
C937 C938 1.362 . S
C938 H930 0.930 . S
C938 C937 1.362 . S
C938 C941 1.409 . S
C939 H931 0.930 . S
C939 C940 1.355 . S
C939 C941 1.415 . S
C940 C939 1.355 . S
C940 C942 1.419 . S
C941 C936 1.425 . S
C941 C938 1.409 . S
C941 C939 1.415 . S
C942 H932 0.930 . S
C942 C940 1.419 . S
C942 C943 1.362 . S
C943 H933 0.930 . S
C943 C936 1.409 . S
C943 C942 1.362 . S
H944 C950 0.930 . S
H945 C953 0.930 . S
H946 C954 0.930 . S
H947 C955 0.930 . S
H948 C958 0.930 . S
H949 C959 0.930 . S
C950 H944 0.930 . S
C950 C951 1.355 . S
C950 C952 1.415 . S
C951 C950 1.355 . S
C951 C953 1.419 . S
C952 C950 1.415 . S
C952 C957 1.425 . S
C952 C959 1.409 . S
C953 H945 0.930 . S
C953 C951 1.419 . S
C953 C954 1.362 . S
C954 H946 0.930 . S
C954 C953 1.362 . S
C954 C957 1.409 . S
C955 H947 0.930 . S
C955 C956 1.355 . S
C955 C957 1.415 . S
C956 C955 1.355 . S
C956 C958 1.419 . S
C957 C952 1.425 . S
C957 C954 1.409 . S
C957 C955 1.415 . S
C958 H948 0.930 . S
C958 C956 1.419 . S
C958 C959 1.362 . S
C959 H949 0.930 . S
C959 C952 1.409 . S
C959 C958 1.362 . S
H960 C966 0.930 . S
H961 C969 0.930 . S
H962 C970 0.930 . S
H963 C971 0.930 . S
H964 C974 0.930 . S
H965 C975 0.930 . S
C966 H960 0.930 . S
C966 C967 1.355 . S
C966 C968 1.415 . S
C967 C966 1.355 . S
C967 C969 1.419 . S
C968 C966 1.415 . S
C968 C973 1.425 . S
C968 C975 1.409 . S
C969 H961 0.930 . S
C969 C967 1.419 . S
C969 C970 1.362 . S
C970 H962 0.930 . S
C970 C969 1.362 . S
C970 C973 1.409 . S
C971 H963 0.930 . S
C971 C972 1.355 . S
C971 C973 1.415 . S
C972 C971 1.355 . S
C972 C974 1.419 . S
C973 C968 1.425 . S
C973 C970 1.409 . S
C973 C971 1.415 . S
C974 H964 0.930 . S
C974 C972 1.419 . S
C974 C975 1.362 . S
C975 H965 0.930 . S
C975 C968 1.409 . S
C975 C974 1.362 . S
H976 C982 0.930 . S
H977 C985 0.930 . S
H978 C986 0.930 . S
H979 C987 0.930 . S
H980 C990 0.930 . S
H981 C991 0.930 . S
C982 H976 0.930 . S
C982 C983 1.355 . S
C982 C984 1.415 . S
C983 C982 1.355 . S
C983 C985 1.419 . S
C984 C982 1.415 . S
C984 C989 1.425 . S
C984 C991 1.409 . S
C985 H977 0.930 . S
C985 C983 1.419 . S
C985 C986 1.362 . S
C986 H978 0.930 . S
C986 C985 1.362 . S
C986 C989 1.409 . S
C987 H979 0.930 . S
C987 C988 1.355 . S
C987 C989 1.415 . S
C988 C987 1.355 . S
C988 C990 1.419 . S
C989 C984 1.425 . S
C989 C986 1.409 . S
C989 C987 1.415 . S
C990 H980 0.930 . S
C990 C988 1.419 . S
C990 C991 1.362 . S
C991 H981 0.930 . S
C991 C984 1.409 . S
C991 C990 1.362 . S
H992 C998 0.930 . S
H993 C1001 0.930 . S
H994 C1002 0.930 . S
H995 C1003 0.930 . S
H996 C1006 0.930 . S
H997 C1007 0.930 . S
C998 H992 0.930 . S
C998 C999 1.355 . S
C998 C1000 1.415 . S
C999 C998 1.355 . S
C999 C1001 1.419 . S
C1000 C998 1.415 . S
C1000 C1005 1.425 . S
C1000 C1007 1.409 . S
C1001 H993 0.930 . S
C1001 C999 1.419 . S
C1001 C1002 1.362 . S
C1002 H994 0.930 . S
C1002 C1001 1.362 . S
C1002 C1005 1.409 . S
C1003 H995 0.930 . S
C1003 C1004 1.355 . S
C1003 C1005 1.415 . S
C1004 C1003 1.355 . S
C1004 C1006 1.419 . S
C1005 C1000 1.425 . S
C1005 C1002 1.409 . S
C1005 C1003 1.415 . S
C1006 H996 0.930 . S
C1006 C1004 1.419 . S
C1006 C1007 1.362 . S
C1007 H997 0.930 . S
C1007 C1000 1.409 . S
C1007 C1006 1.362 . S
H1008 C1014 0.930 . S
H1009 C1017 0.930 . S
H1010 C1018 0.930 . S
H1011 C1019 0.930 . S
H1012 C1022 0.930 . S
H1013 C1023 0.930 . S
C1014 H1008 0.930 . S
C1014 C1015 1.355 . S
C1014 C1016 1.415 . S
C1015 C1014 1.355 . S
C1015 C1017 1.419 . S
C1016 C1014 1.415 . S
C1016 C1021 1.425 . S
C1016 C1023 1.409 . S
C1017 H1009 0.930 . S
C1017 C1015 1.419 . S
C1017 C1018 1.362 . S
C1018 H1010 0.930 . S
C1018 C1017 1.362 . S
C1018 C1021 1.409 . S
C1019 H1011 0.930 . S
C1019 C1020 1.355 . S
C1019 C1021 1.415 . S
C1020 C1019 1.355 . S
C1020 C1022 1.419 . S
C1021 C1016 1.425 . S
C1021 C1018 1.409 . S
C1021 C1019 1.415 . S
C1022 H1012 0.930 . S
C1022 C1020 1.419 . S
C1022 C1023 1.362 . S
C1023 H1013 0.930 . S
C1023 C1016 1.409 . S
C1023 C1022 1.362 . S
H1024 C1030 0.930 . S
H1025 C1033 0.930 . S
H1026 C1034 0.930 . S
H1027 C1035 0.930 . S
H1028 C1038 0.930 . S
H1029 C1039 0.930 . S
C1030 H1024 0.930 . S
C1030 C1031 1.355 . S
C1030 C1032 1.415 . S
C1031 C1030 1.355 . S
C1031 C1033 1.419 . S
C1032 C1030 1.415 . S
C1032 C1037 1.425 . S
C1032 C1039 1.409 . S
C1033 H1025 0.930 . S
C1033 C1031 1.419 . S
C1033 C1034 1.362 . S
C1034 H1026 0.930 . S
C1034 C1033 1.362 . S
C1034 C1037 1.409 . S
C1035 H1027 0.930 . S
C1035 C1036 1.355 . S
C1035 C1037 1.415 . S
C1036 C1035 1.355 . S
C1036 C1038 1.419 . S
C1037 C1032 1.425 . S
C1037 C1034 1.409 . S
C1037 C1035 1.415 . S
C1038 H1028 0.930 . S
C1038 C1036 1.419 . S
C1038 C1039 1.362 . S
C1039 H1029 0.930 . S
C1039 C1032 1.409 . S
C1039 C1038 1.362 . S
H1040 C1046 0.930 . S
H1041 C1049 0.930 . S
H1042 C1050 0.930 . S
H1043 C1051 0.930 . S
H1044 C1054 0.930 . S
H1045 C1055 0.930 . S
C1046 H1040 0.930 . S
C1046 C1047 1.355 . S
C1046 C1048 1.415 . S
C1047 C1046 1.355 . S
C1047 C1049 1.419 . S
C1048 C1046 1.415 . S
C1048 C1053 1.425 . S
C1048 C1055 1.409 . S
C1049 H1041 0.930 . S
C1049 C1047 1.419 . S
C1049 C1050 1.362 . S
C1050 H1042 0.930 . S
C1050 C1049 1.362 . S
C1050 C1053 1.409 . S
C1051 H1043 0.930 . S
C1051 C1052 1.355 . S
C1051 C1053 1.415 . S
C1052 C1051 1.355 . S
C1052 C1054 1.419 . S
C1053 C1048 1.425 . S
C1053 C1050 1.409 . S
C1053 C1051 1.415 . S
C1054 H1044 0.930 . S
C1054 C1052 1.419 . S
C1054 C1055 1.362 . S
C1055 H1045 0.930 . S
C1055 C1048 1.409 . S
C1055 C1054 1.362 . S
H1056 C1062 0.930 . S
H1057 C1065 0.930 . S
H1058 C1066 0.930 . S
H1059 C1067 0.930 . S
H1060 C1070 0.930 . S
H1061 C1071 0.930 . S
C1062 H1056 0.930 . S
C1062 C1063 1.355 . S
C1062 C1064 1.415 . S
C1063 C1062 1.355 . S
C1063 C1065 1.419 . S
C1064 C1062 1.415 . S
C1064 C1069 1.425 . S
C1064 C1071 1.409 . S
C1065 H1057 0.930 . S
C1065 C1063 1.419 . S
C1065 C1066 1.362 . S
C1066 H1058 0.930 . S
C1066 C1065 1.362 . S
C1066 C1069 1.409 . S
C1067 H1059 0.930 . S
C1067 C1068 1.355 . S
C1067 C1069 1.415 . S
C1068 C1067 1.355 . S
C1068 C1070 1.419 . S
C1069 C1064 1.425 . S
C1069 C1066 1.409 . S
C1069 C1067 1.415 . S
C1070 H1060 0.930 . S
C1070 C1068 1.419 . S
C1070 C1071 1.362 . S
C1071 H1061 0.930 . S
C1071 C1064 1.409 . S
C1071 C1070 1.362 . S
H1072 C1078 0.930 . S
H1073 C1081 0.930 . S
H1074 C1082 0.930 . S
H1075 C1083 0.930 . S
H1076 C1086 0.930 . S
H1077 C1087 0.930 . S
C1078 H1072 0.930 . S
C1078 C1079 1.355 . S
C1078 C1080 1.415 . S
C1079 C1078 1.355 . S
C1079 C1081 1.419 . S
C1080 C1078 1.415 . S
C1080 C1085 1.425 . S
C1080 C1087 1.409 . S
C1081 H1073 0.930 . S
C1081 C1079 1.419 . S
C1081 C1082 1.362 . S
C1082 H1074 0.930 . S
C1082 C1081 1.362 . S
C1082 C1085 1.409 . S
C1083 H1075 0.930 . S
C1083 C1084 1.355 . S
C1083 C1085 1.415 . S
C1084 C1083 1.355 . S
C1084 C1086 1.419 . S
C1085 C1080 1.425 . S
C1085 C1082 1.409 . S
C1085 C1083 1.415 . S
C1086 H1076 0.930 . S
C1086 C1084 1.419 . S
C1086 C1087 1.362 . S
C1087 H1077 0.930 . S
C1087 C1080 1.409 . S
C1087 C1086 1.362 . S
H1088 C1094 0.930 . S
H1089 C1097 0.930 . S
H1090 C1098 0.930 . S
H1091 C1099 0.930 . S
H1092 C1102 0.930 . S
H1093 C1103 0.930 . S
C1094 H1088 0.930 . S
C1094 C1095 1.355 . S
C1094 C1096 1.415 . S
C1095 C1094 1.355 . S
C1095 C1097 1.419 . S
C1096 C1094 1.415 . S
C1096 C1101 1.425 . S
C1096 C1103 1.409 . S
C1097 H1089 0.930 . S
C1097 C1095 1.419 . S
C1097 C1098 1.362 . S
C1098 H1090 0.930 . S
C1098 C1097 1.362 . S
C1098 C1101 1.409 . S
C1099 H1091 0.930 . S
C1099 C1100 1.355 . S
C1099 C1101 1.415 . S
C1100 C1099 1.355 . S
C1100 C1102 1.419 . S
C1101 C1096 1.425 . S
C1101 C1098 1.409 . S
C1101 C1099 1.415 . S
C1102 H1092 0.930 . S
C1102 C1100 1.419 . S
C1102 C1103 1.362 . S
C1103 H1093 0.930 . S
C1103 C1096 1.409 . S
C1103 C1102 1.362 . S
C343 C161 1.336 . S
C348 C3 1.474 . S
C359 C17 1.478 . S
C364 C119 1.338 . S
C375 C31 1.474 . S
C380 C133 1.336 . S
C391 C45 1.477 . S
C396 C147 1.341 . S
C407 C189 1.400 . S
C412 C59 1.457 . S
C423 C73 1.478 . S
C428 C203 1.334 . S
C439 C217 1.368 . S
C444 C87 1.462 . S
C455 C175 1.416 . S
C460 C101 1.447 . S
C471 C77 1.324 . S
C476 C115 1.480 . S
C487 C91 1.422 . S
C492 C129 1.445 . S
C503 C143 1.479 . S
C508 C105 1.324 . S
C519 C63 1.338 . S
C524 C157 1.473 . S
C535 C49 1.423 . S
C540 C171 1.446 . S
C551 C185 1.480 . S
C556 C7 1.327 . S
C567 C199 1.449 . S
C572 C21 1.408 . S
C583 C213 1.448 . S
C588 C35 1.409 . S
C599 C227 1.476 . S
C604 C329 1.344 . S
C615 C287 1.421 . S
C620 C241 1.447 . S
C631 C255 1.467 . S
C636 C245 1.353 . S
C647 C269 1.480 . S
C652 C259 1.323 . S
C663 C273 1.422 . S
C668 C283 1.447 . S
C679 C297 1.470 . S
C684 C315 1.363 . S
C695 C231 1.322 . S
C700 C311 1.480 . S
C711 C301 1.410 . S
C716 C325 1.453 . S
C727 C9 1.520 . S
C732 C93 1.493 . S
C743 C23 1.498 . S
C748 C107 1.515 . S
C759 C37 1.482 . S
C764 C65 1.532 . S
C775 C79 1.522 . S
C780 C51 1.493 . S
C791 C149 1.499 . S
C796 C121 1.516 . S
C807 C135 1.484 . S
C812 C163 1.530 . S
C823 C177 1.492 . S
C828 C205 1.521 . S
C839 C219 1.532 . S
C844 C191 1.482 . S
C855 C247 1.528 . S
C860 C233 1.486 . S
C871 C261 1.486 . S
C876 C331 1.528 . S
C887 C275 1.527 . S
C892 C303 1.487 . S
C903 C289 1.482 . S
C908 C317 1.532 . S
C919 C8 1.084 . S
C924 C78 1.088 . S
C935 C22 1.083 . S
C940 C92 1.090 . S
C951 C36 1.094 . S
C956 C106 1.102 . S
C967 C64 1.092 . S
C972 C50 1.082 . S
C983 C120 1.106 . S
C988 C330 1.083 . S
C999 C134 1.081 . S
C1004 C302 1.093 . S
C1015 C316 1.103 . S
C1020 C148 1.093 . S
C1031 C162 1.081 . S
C1036 C232 1.105 . S
C1047 C288 1.079 . S
C1052 C176 1.101 . S
C1063 C246 1.079 . S
C1068 C190 1.099 . S
C1079 C204 1.089 . S
C1084 C260 1.084 . S
C1095 C274 1.099 . S
C1100 C218 1.098 . S
