# Generated by pormake.
# Topology snk, (6)-cn, num edge types: 1
# Building blocks:
#     Node 0, Type 0, BuildingBlock: PAMTUU_clean_sbu_0, # of connection points: 6
#     Node 1, Type 0, BuildingBlock: PAMTUU_clean_sbu_0, # of connection points: 6
#     Node 2, Type 0, BuildingBlock: PAMTUU_clean_sbu_0, # of connection points: 6
#     Node 3, Type 0, BuildingBlock: PAMTUU_clean_sbu_0, # of connection points: 6
#     Node 4, Type 0, BuildingBlock: PAMTUU_clean_sbu_0, # of connection points: 6
#     Node 5, Type 0, BuildingBlock: PAMTUU_clean_sbu_0, # of connection points: 6
#     Node 6, Type 0, BuildingBlock: PAMTUU_clean_sbu_0, # of connection points: 6
#     Node 7, Type 0, BuildingBlock: PAMTUU_clean_sbu_0, # of connection points: 6
#     Edge 8, Type (0, 0), BuildingBlock: TEMPAE_clean_linker_10, # of connection points: 2
#     Edge 9, Type (0, 0), BuildingBlock: TEMPAE_clean_linker_10, # of connection points: 2
#     Edge 10, Type (0, 0), BuildingBlock: TEMPAE_clean_linker_10, # of connection points: 2
#     Edge 11, Type (0, 0), BuildingBlock: TEMPAE_clean_linker_10, # of connection points: 2
#     Edge 12, Type (0, 0), BuildingBlock: TEMPAE_clean_linker_10, # of connection points: 2
#     Edge 13, Type (0, 0), BuildingBlock: TEMPAE_clean_linker_10, # of connection points: 2
#     Edge 14, Type (0, 0), BuildingBlock: TEMPAE_clean_linker_10, # of connection points: 2
#     Edge 15, Type (0, 0), BuildingBlock: TEMPAE_clean_linker_10, # of connection points: 2
#     Edge 16, Type (0, 0), BuildingBlock: TEMPAE_clean_linker_10, # of connection points: 2
#     Edge 17, Type (0, 0), BuildingBlock: TEMPAE_clean_linker_10, # of connection points: 2
#     Edge 18, Type (0, 0), BuildingBlock: TEMPAE_clean_linker_10, # of connection points: 2
#     Edge 19, Type (0, 0), BuildingBlock: TEMPAE_clean_linker_10, # of connection points: 2
#     Edge 20, Type (0, 0), BuildingBlock: TEMPAE_clean_linker_10, # of connection points: 2
#     Edge 21, Type (0, 0), BuildingBlock: TEMPAE_clean_linker_10, # of connection points: 2
#     Edge 22, Type (0, 0), BuildingBlock: TEMPAE_clean_linker_10, # of connection points: 2
#     Edge 23, Type (0, 0), BuildingBlock: TEMPAE_clean_linker_10, # of connection points: 2
#     Edge 24, Type (0, 0), BuildingBlock: TEMPAE_clean_linker_10, # of connection points: 2
#     Edge 25, Type (0, 0), BuildingBlock: TEMPAE_clean_linker_10, # of connection points: 2
#     Edge 26, Type (0, 0), BuildingBlock: TEMPAE_clean_linker_10, # of connection points: 2
#     Edge 27, Type (0, 0), BuildingBlock: TEMPAE_clean_linker_10, # of connection points: 2
#     Edge 28, Type (0, 0), BuildingBlock: TEMPAE_clean_linker_10, # of connection points: 2
#     Edge 29, Type (0, 0), BuildingBlock: TEMPAE_clean_linker_10, # of connection points: 2
#     Edge 30, Type (0, 0), BuildingBlock: TEMPAE_clean_linker_10, # of connection points: 2
#     Edge 31, Type (0, 0), BuildingBlock: TEMPAE_clean_linker_10, # of connection points: 2
# Relax obj value: 0.079
# Max RMSD: 0.124
# Mean RMSD: 0.124
data_MOF--net-snk--node1-PAMTUU_clean_sbu_0--edge1-TEMPAE_clean_linker_10
_symmetry_space_group_name_H-M    P1
_symmetry_Int_Tables_number       1
_symmetry_cell_setting            triclinic
loop_
_symmetry_equiv_pos_as_xyz
'x, y, z'
_cell_length_a     39.34273
_cell_length_b     39.345731
_cell_length_c     25.621839
_cell_angle_alpha  90.099571
_cell_angle_beta   90.001022
_cell_angle_gamma 89.930872
loop_
_atom_site_label
_atom_site_type_symbol
_atom_site_fract_x
_atom_site_fract_y
_atom_site_fract_z
_atom_type_partial_charge
Tb0 Tb -0.00557 0.00683 0.57974 0.0
Tb1 Tb -0.00433 0.96266 0.46816 0.0
C2 C 0.94778 0.02484 0.48324 0.0
C3 C -0.00491 0.02704 0.72347 0.0
C4 C -0.00108 0.01126 0.83137 0.0
C5 C 0.96753 0.01877 0.80777 0.0
C6 C 0.96568 0.02671 0.75463 0.0
C7 C 0.02655 0.0195 0.74696 0.0
C8 C 0.02843 0.01174 0.8003 0.0
C9 C -0.00753 0.03652 0.66743 0.0
O10 O 0.97411 0.957 0.59619 0.0
O11 O 0.95311 0.94437 0.51486 0.0
O12 O 0.02242 0.93233 0.52546 0.0
O13 O 0.04038 0.97597 0.57839 0.0
O14 O 0.969 0.94084 0.40551 0.0
O15 O 0.02355 0.93676 0.41037 0.0
O16 O 0.03694 -0.00057 0.46604 0.0
O17 O 0.01648 0.04042 0.52213 0.0
O18 O 0.95009 0.0223 0.53434 0.0
O19 O 0.96867 0.00904 0.45159 0.0
C20 C 0.95346 0.94007 0.56571 0.0
O21 O 0.01979 0.03425 0.63866 0.0
O22 O 0.96569 0.0256 0.64256 0.0
C23 C 0.04279 0.94448 0.56153 0.0
C24 C -0.00068 0.94086 0.32617 0.0
C25 C 0.00268 0.95805 0.21904 0.0
C26 C -0.00027 0.92392 0.23487 0.0
C27 C -0.00192 0.91545 0.28785 0.0
C28 C 0.00236 0.97496 0.31088 0.0
C29 C 0.00403 0.98349 0.25781 0.0
C30 C -0.00329 0.93137 0.38169 0.0
C31 C 0.0365 0.03081 0.48382 0.0
H32 H 0.94437 0.01916 0.83063 0.0
H33 H 0.94113 0.03285 0.73794 0.0
H34 H 0.04978 0.0197 0.72427 0.0
H35 H 0.05298 0.00581 0.81713 0.0
H36 H -0.00193 0.9037 0.20626 0.0
H37 H -0.00446 0.88901 0.29889 0.0
H38 H 0.00336 -0.00504 0.33998 0.0
H39 H 0.00666 0.00998 0.24718 0.0
Tb40 Tb 0.22173 0.73276 0.82538 0.0
Tb41 Tb 0.26613 0.73045 0.71346 0.0
C42 C 0.19742 0.6912 0.72903 0.0
C43 C 0.20041 0.7298 0.96787 0.0
C44 C 0.2169 0.72503 0.07525 0.0
C45 C 0.18284 0.72377 0.05843 0.0
C46 C 0.17473 0.72616 1.00534 0.0
C47 C 0.23449 0.73064 0.98416 0.0
C48 C 0.24265 0.72833 0.03734 0.0
C49 C 0.1911 0.73379 0.91237 0.0
O50 O 0.2532 0.68735 0.82517 0.0
O51 O 0.29662 0.70415 0.77109 0.0
O52 O 0.28653 0.77215 0.75988 0.0
O53 O 0.2708 0.75464 0.84212 0.0
O54 O 0.29082 0.70165 0.65539 0.0
O55 O 0.28815 0.75626 0.65027 0.0
O56 O 0.22054 0.75929 0.69762 0.0
O57 O 0.20706 0.77741 0.78066 0.0
O58 O 0.18805 0.71179 0.76676 0.0
O59 O 0.229 0.68957 0.71252 0.0
C60 C 0.28472 0.68482 0.80861 0.0
O61 O 0.20301 0.76068 0.88908 0.0
O62 O 0.19371 0.70683 0.88295 0.0
C63 C 0.2889 0.77391 0.81105 0.0
C64 C 0.28735 0.72572 0.57091 0.0
C65 C 0.27053 0.72283 0.46346 0.0
C66 C 0.30465 0.72152 0.47997 0.0
C67 C 0.31292 0.72296 0.53308 0.0
C68 C 0.25322 0.72683 0.55495 0.0
C69 C 0.24489 0.72542 0.50173 0.0
C70 C 0.29683 0.72824 0.62654 0.0
C71 C 0.20488 0.78015 0.7296 0.0
H72 H 0.16233 0.72169 0.08642 0.0
H73 H 0.14828 0.72561 0.99359 0.0
H74 H 0.25473 0.73335 0.95579 0.0
H75 H 0.26915 0.72898 0.04875 0.0
H76 H 0.3251 0.72004 0.45176 0.0
H77 H 0.33941 0.72224 0.5446 0.0
H78 H 0.23307 0.72893 0.58362 0.0
H79 H 0.21834 0.7261 0.49058 0.0
Tb80 Tb 0.48442 0.97126 0.07546 0.0
Tb81 Tb 0.48121 0.01471 0.96359 0.0
C82 C 0.53065 0.95402 0.97931 0.0
C83 C 0.48307 0.94962 0.21779 0.0
C84 C 0.47808 0.9659 0.32522 0.0
C85 C 0.47906 0.93181 0.30843 0.0
C86 C 0.48155 0.9238 0.25531 0.0
C87 C 0.48181 0.9837 0.23405 0.0
C88 C 0.47938 -0.00823 0.28727 0.0
C89 C 0.48684 0.94052 0.1622 0.0
O90 O 0.50501 0.0209 0.09188 0.0
O91 O 0.52315 0.03524 1.0095 0.0
O92 O 0.45481 0.04536 1.02112 0.0
O93 O 0.43861 0.00221 0.07615 0.0
O94 O 0.50711 0.03619 0.90008 0.0
O95 O 0.45249 0.0394 0.90553 0.0
O96 O 0.43992 0.97806 0.96397 0.0
O97 O 0.46277 0.93729 1.01769 0.0
O98 O 0.52954 0.95855 0.0301 0.0
O99 O 0.50849 0.96806 0.94781 0.0
C100 C 0.52451 0.03858 0.06059 0.0
O101 O 0.45959 0.94265 0.13342 0.0
O102 O 0.51327 0.95306 0.13844 0.0
C103 C 0.43553 0.03346 0.05874 0.0
C104 C 0.47644 0.03556 0.82094 0.0
C105 C 0.47372 0.01886 0.71347 0.0
C106 C 0.47043 0.0528 0.73028 0.0
C107 C 0.4718 0.06102 0.78342 0.0
C108 C 0.47937 0.00159 0.80466 0.0
C109 C 0.47807 -0.00668 0.75141 0.0
C110 C 0.47912 0.04508 0.87652 0.0
C111 C 0.44152 0.94658 0.98084 0.0
H112 H 0.4786 0.91124 0.33644 0.0
H113 H 0.48264 0.89736 0.24354 0.0
H114 H 0.4829 0.00403 0.20562 0.0
H115 H 0.47829 0.01826 0.29867 0.0
H116 H 0.46752 0.07318 0.70227 0.0
H117 H 0.46963 0.0874 0.7952 0.0
H118 H 0.48289 0.98153 0.83308 0.0
H119 H 0.48029 0.9669 0.73998 0.0
Tb120 Tb 0.25672 0.24477 0.32817 0.0
Tb121 Tb 0.21255 0.24504 0.21621 0.0
C122 C 0.28119 0.28555 0.23095 0.0
C123 C 0.27667 0.24794 0.47127 0.0
C124 C 0.26049 0.25145 0.57887 0.0
C125 C 0.28983 0.26738 0.55925 0.0
C126 C 0.29786 0.26553 0.50605 0.0
C127 C 0.24693 0.23262 0.49046 0.0
C128 C 0.23901 0.23424 0.54372 0.0
C129 C 0.28658 0.24491 0.41573 0.0
O130 O 0.22544 0.29035 0.32567 0.0
O131 O 0.18192 0.27146 0.27359 0.0
O132 O 0.19339 0.20308 0.26294 0.0
O133 O 0.20796 0.22209 0.34491 0.0
O134 O 0.18659 0.27275 0.15853 0.0
O135 O 0.19089 0.21816 0.15351 0.0
O136 O 0.2585 0.21699 0.20041 0.0
O137 O 0.27318 0.20042 0.28371 0.0
O138 O 0.2904 0.26633 0.27036 0.0
O139 O 0.24994 0.28568 0.21261 0.0
C140 C 0.19389 0.29224 0.30919 0.0
O141 O 0.27679 0.21751 0.39134 0.0
O142 O 0.28281 0.27191 0.38685 0.0
C143 C 0.1906 0.20193 0.31406 0.0
C144 C 0.19047 0.24833 0.07407 0.0
C145 C 0.20695 0.25165 0.9666 0.0
C146 C 0.17614 0.23711 0.98334 0.0
C147 C 0.16802 0.23552 0.03644 0.0
C148 C 0.22138 0.26268 0.05786 0.0
C149 C 0.22951 0.2644 1.00462 0.0
C150 C 0.18136 0.24585 0.1298 0.0
C151 C 0.27496 0.19705 0.23266 0.0
H152 H 0.30706 0.28059 0.58525 0.0
H153 H 0.32093 0.2775 0.49215 0.0
H154 H 0.22997 0.21912 0.46442 0.0
H155 H 0.21599 0.22209 0.55739 0.0
H156 H 0.15842 0.22645 0.95543 0.0
H157 H 0.14418 0.22407 0.04819 0.0
H158 H 0.23919 0.27258 0.08633 0.0
H159 H 0.2533 0.27605 0.99325 0.0
Tb160 Tb 0.7228 0.2336 0.32359 0.0
Tb161 Tb 0.76623 0.23031 0.21161 0.0
C162 C 0.69794 0.19093 0.22882 0.0
C163 C 0.70131 0.23212 0.466 0.0
C164 C 0.71766 0.22701 0.57333 0.0
C165 C 0.68358 0.22664 0.55653 0.0
C166 C 0.67554 0.22919 0.50346 0.0
C167 C 0.7354 0.23216 0.48228 0.0
C168 C 0.74349 0.22969 0.53545 0.0
C169 C 0.69213 0.23594 0.41048 0.0
O170 O 0.75363 0.18769 0.32394 0.0
O171 O 0.79688 0.20395 0.26908 0.0
O172 O 0.78683 0.27224 0.25751 0.0
O173 O 0.77244 0.25419 0.33991 0.0
O174 O 0.79091 0.20153 0.1535 0.0
O175 O 0.78769 0.25613 0.14802 0.0
O176 O 0.7196 0.25771 0.19609 0.0
O177 O 0.7102 0.27879 0.2785 0.0
O178 O 0.68873 0.2122 0.26577 0.0
O179 O 0.72944 0.18912 0.21198 0.0
C180 C 0.78492 0.18464 0.30661 0.0
O181 O 0.70463 0.2624 0.38675 0.0
O182 O 0.6942 0.20872 0.38155 0.0
C183 C 0.79011 0.27368 0.3086 0.0
C184 C 0.7872 0.22537 0.0689 0.0
C185 C 0.77058 0.22255 0.96144 0.0
C186 C 0.80464 0.22068 0.97809 0.0
C187 C 0.81281 0.2221 0.03122 0.0
C188 C 0.75312 0.22691 0.05278 0.0
C189 C 0.74488 0.22555 0.99954 0.0
C190 C 0.79663 0.22812 0.12448 0.0
C191 C 0.70561 0.27988 0.22774 0.0
H192 H 0.66302 0.22509 0.58452 0.0
H193 H 0.64908 0.22924 0.49168 0.0
H194 H 0.7557 0.23432 0.4539 0.0
H195 H 0.77 0.22966 0.54686 0.0
H196 H 0.82511 0.21885 0.94997 0.0
H197 H 0.83927 0.22103 0.04288 0.0
H198 H 0.73295 0.22939 0.08134 0.0
H199 H 0.71838 0.22666 0.98824 0.0
Tb200 Tb 0.76541 0.74569 0.84655 0.0
Tb201 Tb 0.7215 0.74611 0.73517 0.0
C202 C 0.78921 0.78524 0.74701 0.0
C203 C 0.78724 0.7455 0.98922 0.0
C204 C 0.77093 0.74386 0.09686 0.0
C205 C 0.80211 0.75731 0.07961 0.0
C206 C 0.81014 0.75808 0.02641 0.0
C207 C 0.75604 0.73206 1.00599 0.0
C208 C 0.74801 0.73114 0.05934 0.0
C209 C 0.79626 0.74715 0.93333 0.0
O210 O 0.71748 0.77069 0.86188 0.0
O211 O 0.70839 0.79154 0.77962 0.0
O212 O 0.68836 0.72308 0.7929 0.0
O213 O 0.7298 0.70357 0.84897 0.0
O214 O 0.70249 0.77462 0.67251 0.0
O215 O 0.69374 0.72059 0.67663 0.0
O216 O 0.7521 0.70018 0.73656 0.0
O217 O 0.79557 0.71673 0.79105 0.0
O218 O 0.78441 0.78696 0.79772 0.0
O219 O 0.77182 0.76445 0.71739 0.0
C220 C 0.70297 0.79234 0.83015 0.0
O221 O 0.79163 0.71963 0.90579 0.0
O222 O 0.78613 0.77416 0.90837 0.0
C223 C 0.69854 0.70296 0.83076 0.0
C224 C 0.70056 0.74466 0.5925 0.0
C225 C 0.7166 0.74165 0.48475 0.0
C226 C 0.68387 0.73317 0.50276 0.0
C227 C 0.67596 0.73472 0.556 0.0
C228 C 0.7335 0.75244 0.57507 0.0
C229 C 0.74142 0.75101 0.52175 0.0
C230 C 0.69106 0.74787 0.6481 0.0
C231 C 0.78325 0.69677 0.75441 0.0
H232 H 0.82054 0.76692 0.10734 0.0
H233 H 0.83433 0.76857 1.01427 0.0
H234 H 0.73786 0.72243 0.97785 0.0
H235 H 0.72364 0.72096 0.07115 0.0
H236 H 0.66427 0.72524 0.47568 0.0
H237 H 0.65045 0.72846 0.56864 0.0
H238 H 0.75295 0.76014 0.60258 0.0
H239 H 0.76679 0.75804 0.50944 0.0
Tb240 Tb 0.49412 0.5114 0.09025 0.0
Tb241 Tb 0.4981 0.46765 0.9788 0.0
C242 C 0.44846 0.52995 0.99486 0.0
C243 C 0.4913 0.53072 0.23351 0.0
C244 C 0.49028 0.51435 0.34106 0.0
C245 C 0.46675 0.53758 0.32017 0.0
C246 C 0.46737 0.54577 0.267 0.0
C247 C 0.51439 0.50692 0.25409 0.0
C248 C 0.51397 0.49897 0.30733 0.0
C249 C 0.49248 0.541 0.17794 0.0
O250 O 0.45191 0.47594 0.08863 0.0
O251 O 0.47376 0.43446 0.03504 0.0
O252 O 0.54251 0.45466 0.02537 0.0
O253 O 0.52003 0.46407 0.10663 0.0
O254 O 0.47359 0.43936 0.91989 0.0
O255 O 0.52765 0.44832 0.91737 0.0
O256 O 0.51846 0.51733 0.96197 0.0
O257 O 0.53579 0.53235 0.04453 0.0
O258 O 0.46689 0.5419 0.03355 0.0
O259 O 0.45269 0.49906 0.97626 0.0
C260 C 0.45211 0.44458 0.07091 0.0
O261 O 0.52033 0.53411 0.15239 0.0
O262 O 0.4655 0.53483 0.14994 0.0
C263 C 0.54255 0.44974 0.07603 0.0
C264 C 0.49848 0.44634 0.83644 0.0
C265 C 0.49446 0.46226 0.72881 0.0
C266 C 0.4795 0.43243 0.74859 0.0
C267 C 0.4816 0.42454 0.80176 0.0
C268 C 0.51289 0.47648 0.8172 0.0
C269 C 0.51102 0.48429 0.76396 0.0
C270 C 0.50124 0.43689 0.89212 0.0
C271 C 0.53711 0.53578 0.99351 0.0
H272 H 0.44835 0.55004 0.34518 0.0
H273 H 0.44938 0.56423 0.25211 0.0
H274 H 0.53299 0.49464 0.22921 0.0
H275 H 0.53214 0.48065 0.32212 0.0
H276 H 0.46599 0.41516 0.72304 0.0
H277 H 0.47012 0.40127 0.81579 0.0
H278 H 0.52594 0.49385 0.84317 0.0
H279 H 0.52318 0.50728 0.75025 0.0
Tb280 Tb 0.98342 0.47207 0.57372 0.0
Tb281 Tb 0.97992 0.51668 0.46204 0.0
C282 C 0.03023 0.45562 0.47694 0.0
C283 C 0.98063 0.45091 0.71616 0.0
C284 C 0.97513 0.4677 0.82345 0.0
C285 C 0.97595 0.43353 0.80698 0.0
C286 C 0.9787 0.42528 0.75395 0.0
C287 C 0.97941 0.48507 0.73209 0.0
C288 C 0.97675 0.49339 0.78523 0.0
C289 C 0.98488 0.44154 0.66069 0.0
O290 O 0.00533 0.52117 0.59015 0.0
O291 O 0.02189 0.5373 0.5076 0.0
O292 O 0.95404 0.54701 0.5206 0.0
O293 O 0.93786 0.50321 0.57429 0.0
O294 O 0.00501 0.53921 0.39859 0.0
O295 O 0.95039 0.54088 0.40442 0.0
O296 O 0.93937 0.47918 0.46188 0.0
O297 O 0.96247 0.43829 0.51519 0.0
O298 O 0.02773 0.45752 0.52807 0.0
O299 O 0.00924 0.47144 0.44539 0.0
C300 C 0.02421 0.53945 0.55875 0.0
O301 O 0.95792 0.44365 0.63125 0.0
O302 O 0.01161 0.45385 0.63739 0.0
C303 C 0.93532 0.5349 0.55872 0.0
C304 C 0.97418 0.53792 0.31956 0.0
C305 C 0.97149 0.5213 0.21193 0.0
C306 C 0.96826 0.55523 0.22886 0.0
C307 C 0.96961 0.5634 0.28204 0.0
C308 C 0.97713 0.50397 0.30317 0.0
C309 C 0.97583 0.49574 0.24988 0.0
C310 C 0.97674 0.54738 0.37524 0.0
C311 C 0.9415 0.44755 0.47797 0.0
H312 H 0.97521 0.41309 0.83519 0.0
H313 H 0.97973 0.39878 0.74248 0.0
H314 H 0.98077 0.50528 0.70348 0.0
H315 H 0.97579 0.51993 0.79636 0.0
H316 H 0.96539 0.57565 0.20091 0.0
H317 H 0.96745 0.58977 0.29387 0.0
H318 H 0.98064 0.48388 0.33155 0.0
H319 H 0.97801 0.46932 0.23843 0.0
C320 C 0.08766 0.04581 0.43136 0.0
C321 C 0.0586 0.0562 0.45872 0.0
C322 C 0.10882 0.06963 0.40704 0.0
C323 C 0.10027 0.10454 0.40933 0.0
C324 C 0.07067 0.11515 0.43622 0.0
C325 C 0.05033 0.09083 0.46108 0.0
C326 C 0.14054 0.05748 0.37949 0.0
C327 C 0.06049 0.15214 0.43866 0.0
C328 C 0.17081 0.16873 0.3909 0.0
C329 C 0.16706 0.17735 0.33812 0.0
C330 C 0.1492 0.1451 0.41454 0.0
C331 C 0.1229 0.13005 0.38483 0.0
C332 C 0.11864 0.13894 0.33171 0.0
C333 C 0.141 0.16233 0.3088 0.0
C334 C 0.15481 0.1359 0.47112 0.0
C335 C 0.09049 0.12374 0.29914 0.0
H336 H 0.09418 0.01905 0.42962 0.0
H337 H 0.02763 0.0989 0.48167 0.0
H338 H 0.13992 0.06529 0.33793 0.0
H339 H 0.16327 0.06942 0.3974 0.0
H340 H 0.14351 0.02942 0.38128 0.0
H341 H 0.03598 0.156 0.45938 0.0
H342 H 0.08044 0.16702 0.459 0.0
H343 H 0.05816 0.16258 0.39862 0.0
H344 H 0.19108 0.18004 0.41366 0.0
H345 H 0.13786 0.16909 0.26809 0.0
H346 H 0.15997 0.10826 0.47456 0.0
H347 H 0.13156 0.14137 0.49414 0.0
H348 H 0.17639 0.15005 0.48875 0.0
H349 H 0.09367 0.09576 0.29675 0.0
H350 H 0.08996 0.13417 0.25888 0.0
H351 H 0.06553 0.12869 0.31786 0.0
C352 C 0.09564 0.93479 0.61343 0.0
C353 C 0.06771 0.92155 0.58619 0.0
C354 C 0.11908 0.91318 0.63788 0.0
C355 C 0.11405 0.8776 0.63571 0.0
C356 C 0.08574 0.86412 0.60864 0.0
C357 C 0.06305 0.88628 0.58381 0.0
C358 C 0.14931 0.92836 0.66572 0.0
C359 C 0.0793 0.8263 0.60619 0.0
C360 C 0.18755 0.81676 0.65502 0.0
C361 C 0.18279 0.80659 0.70693 0.0
C362 C 0.16594 0.84068 0.63185 0.0
C363 C 0.1386 0.85427 0.66107 0.0
C364 C 0.13393 0.84448 0.71373 0.0
C365 C 0.15631 0.82091 0.73623 0.0
C366 C 0.17203 0.85094 0.57584 0.0
C367 C 0.10471 0.85813 0.74577 0.0
H368 H 0.09936 0.96207 0.61523 0.0
H369 H 0.04127 0.87594 0.56333 0.0
H370 H 0.14909 0.92081 0.70741 0.0
H371 H 0.1732 0.9184 0.64845 0.0
H372 H 0.14965 0.95655 0.66346 0.0
H373 H 0.05558 0.82003 0.58472 0.0
H374 H 0.1009 0.81335 0.58664 0.0
H375 H 0.07744 0.8158 0.64625 0.0
H376 H 0.20821 0.80598 0.63237 0.0
H377 H 0.15245 0.81297 0.77628 0.0
H378 H 0.17389 0.87901 0.57286 0.0
H379 H 0.15025 0.84286 0.55131 0.0
H380 H 0.19561 0.83952 0.5596 0.0
H381 H 0.10527 0.88631 0.74634 0.0
H382 H 0.10527 0.84877 0.78665 0.0
H383 H 0.08025 0.85043 0.72772 0.0
C384 C 0.30909 0.80688 0.88802 0.0
C385 C 0.31265 0.79835 0.83511 0.0
C386 C 0.33067 0.8306 0.91162 0.0
C387 C 0.35673 0.84583 0.88176 0.0
C388 C 0.36089 0.83695 0.82857 0.0
C389 C 0.33857 0.81345 0.80569 0.0
C390 C 0.32519 0.83978 0.9683 0.0
C391 C 0.3888 0.85238 0.79585 0.0
C392 C 0.39053 0.93063 0.92863 0.0
C393 C 0.41982 0.92076 0.95582 0.0
C394 C 0.36984 0.90646 0.90409 0.0
C395 C 0.37904 0.87171 0.90611 0.0
C396 C 0.40885 0.86163 0.93286 0.0
C397 C 0.42877 0.88629 0.95784 0.0
C398 C 0.33791 0.91806 0.8766 0.0
C399 C 0.41966 0.82481 0.9351 0.0
H400 H 0.28897 0.79546 0.91096 0.0
H401 H 0.34157 0.80677 0.76489 0.0
H402 H 0.34863 0.83471 0.99105 0.0
H403 H 0.31961 0.86734 0.97186 0.0
H404 H 0.30391 0.82533 0.98613 0.0
H405 H 0.38944 0.84174 0.75567 0.0
H406 H 0.38518 0.88029 0.79325 0.0
H407 H 0.41384 0.84793 0.81455 0.0
H408 H 0.3835 0.95726 0.9271 0.0
H409 H 0.45165 0.87862 0.97826 0.0
H410 H 0.31538 0.90585 0.89462 0.0
H411 H 0.33858 0.91013 0.83506 0.0
H412 H 0.33452 0.94608 0.87835 0.0
H413 H 0.40002 0.80962 0.95553 0.0
H414 H 0.44429 0.82139 0.95565 0.0
H415 H 0.42204 0.81437 0.89501 0.0
C416 C 0.41434 0.09167 0.07971 0.0
C417 C 0.41096 0.05636 0.08449 0.0
C418 C 0.39213 0.11378 0.1058 0.0
C419 C 0.36562 0.10018 0.13669 0.0
C420 C 0.36187 0.06456 0.14132 0.0
C421 C 0.38479 0.04304 0.11544 0.0
C422 C 0.3971 0.15168 0.10047 0.0
C423 C 0.33352 0.04921 0.17324 0.0
C424 C 0.32522 0.15824 0.23759 0.0
C425 C 0.29712 0.17067 0.20996 0.0
C426 C 0.34763 0.13488 0.21444 0.0
C427 C 0.34129 0.12337 0.16295 0.0
C428 C 0.3123 0.13498 0.13563 0.0
C429 C 0.29073 0.15873 0.15931 0.0
C430 C 0.37859 0.12333 0.2444 0.0
C431 C 0.30438 0.12278 0.08103 0.0
H432 H 0.43475 0.10211 0.05629 0.0
H433 H 0.38201 0.01574 0.11915 0.0
H434 H 0.3743 0.16332 0.08234 0.0
H435 H 0.40022 0.16339 0.1396 0.0
H436 H 0.41965 0.15811 0.07633 0.0
H437 H 0.33416 0.02098 0.17285 0.0
H438 H 0.33526 0.05806 0.21428 0.0
H439 H 0.30858 0.05777 0.15788 0.0
H440 H 0.33028 0.16757 0.27666 0.0
H441 H 0.26878 0.16801 0.13804 0.0
H442 H 0.40194 0.13145 0.2236 0.0
H443 H 0.37922 0.09519 0.24669 0.0
H444 H 0.37926 0.13384 0.28466 0.0
H445 H 0.32477 0.13094 0.05391 0.0
H446 H 0.27974 0.13278 0.06642 0.0
H447 H 0.30355 0.0946 0.08 0.0
C448 C 0.89724 0.91138 0.57173 0.0
C449 C 0.93055 0.91521 0.58984 0.0
C450 C 0.87442 0.88983 0.5976 0.0
C451 C 0.8857 0.871 0.64142 0.0
C452 C 0.91977 0.87388 0.65852 0.0
C453 C 0.94167 0.89642 0.63298 0.0
C454 C 0.83805 0.88792 0.57901 0.0
C455 C 0.93302 0.85336 0.70396 0.0
C456 C 0.82084 0.83984 0.73986 0.0
C457 C 0.81502 0.80672 0.72209 0.0
C458 C 0.84367 0.86121 0.71365 0.0
C459 C 0.86173 0.84863 0.66983 0.0
C460 C 0.85671 0.81477 0.6529 0.0
C461 C 0.83297 0.79437 0.6788 0.0
C462 C 0.84787 0.89745 0.73206 0.0
C463 C 0.87633 0.80012 0.60743 0.0
H464 H 0.88869 0.92621 0.53858 0.0
H465 H 0.96762 0.89923 0.64657 0.0
H466 H 0.8315 0.86138 0.5685 0.0
H467 H 0.82066 0.89579 0.61095 0.0
H468 H 0.83332 0.9044 0.54459 0.0
H469 H 0.96075 0.85694 0.71008 0.0
H470 H 0.91954 0.86083 0.74023 0.0
H471 H 0.928 0.82593 0.69744 0.0
H472 H 0.80669 0.84939 0.77312 0.0
H473 H 0.82863 0.76856 0.66543 0.0
H474 H 0.84143 0.91521 0.69992 0.0
H475 H 0.87473 0.90223 0.74293 0.0
H476 H 0.83151 0.90341 0.76621 0.0
H477 H 0.86993 0.81411 0.5712 0.0
H478 H 0.87079 0.77272 0.60118 0.0
H479 H 0.90403 0.80316 0.61405 0.0
C480 C 0.91099 0.04098 0.4084 0.0
C481 C 0.92157 0.04687 0.45988 0.0
C482 C 0.88742 0.06244 0.38417 0.0
C483 C 0.8746 0.09083 0.4118 0.0
C484 C 0.88479 0.09669 0.46408 0.0
C485 C 0.90799 0.07437 0.48775 0.0
C486 C 0.87666 0.05502 0.3287 0.0
C487 C 0.87196 0.12703 0.49441 0.0
C488 C 0.84311 0.16426 0.32934 0.0
C489 C 0.80779 0.16014 0.33244 0.0
C490 C 0.86513 0.14218 0.35577 0.0
C491 C 0.85147 0.11501 0.38518 0.0
C492 C 0.81584 0.11049 0.388 0.0
C493 C 0.79439 0.13332 0.36193 0.0
C494 C 0.90301 0.14802 0.35244 0.0
C495 C 0.80043 0.0814 0.4182 0.0
H496 H 0.92118 0.0195 0.3869 0.0
H497 H 0.91628 0.07907 0.52746 0.0
H498 H 0.84854 0.05357 0.3262 0.0
H499 H 0.88495 0.07595 0.30273 0.0
H500 H 0.88755 0.03081 0.31378 0.0
H501 H 0.88163 0.12743 0.53515 0.0
H502 H 0.87999 0.1508 0.47469 0.0
H503 H 0.84378 0.12703 0.49542 0.0
H504 H 0.85358 0.18519 0.30708 0.0
H505 H 0.76709 0.12999 0.3643 0.0
H506 H 0.91554 0.12571 0.33416 0.0
H507 H 0.91381 0.15088 0.39221 0.0
H508 H 0.90946 0.171 0.32936 0.0
H509 H 0.80991 0.05685 0.40251 0.0
H510 H 0.77222 0.08141 0.41637 0.0
H511 H 0.8083 0.08281 0.45972 0.0
C512 C 0.68152 0.13939 0.17826 0.0
C513 C 0.672 0.1695 0.20363 0.0
C514 C 0.6572 0.11885 0.15377 0.0
C515 C 0.6227 0.12908 0.15388 0.0
C516 C 0.61303 0.1598 0.17859 0.0
C517 C 0.63781 0.17952 0.20368 0.0
C518 C 0.66833 0.08594 0.12854 0.0
C519 C 0.57654 0.17176 0.17865 0.0
C520 C 0.56507 0.08736 0.05383 0.0
C521 C 0.54889 0.06259 0.0842 0.0
C522 C 0.5887 0.10975 0.07622 0.0
C523 C 0.59658 0.10686 0.12995 0.0
C524 C 0.58018 0.08203 0.1608 0.0
C525 C 0.55638 0.06035 0.13762 0.0
C526 C 0.6054 0.13633 0.04241 0.0
C527 C 0.58823 0.07793 0.21812 0.0
H528 H 0.70795 0.13158 0.17825 0.0
H529 H 0.63047 0.20307 0.22263 0.0
H530 H 0.65522 0.06424 0.14743 0.0
H531 H 0.66104 0.08574 0.08673 0.0
H532 H 0.69621 0.08186 0.13146 0.0
H533 H 0.57354 0.19709 0.19732 0.0
H534 H 0.56683 0.1732 0.13805 0.0
H535 H 0.56042 0.15324 0.19984 0.0
H536 H 0.55921 0.08935 1.01261 0.0
H537 H 0.54411 0.04116 0.16134 0.0
H538 H 0.63322 0.13182 0.04087 0.0
H539 H 0.60146 0.16196 0.05952 0.0
H540 H 0.59532 0.13624 1.0019 0.0
H541 H 0.61556 0.07172 0.22309 0.0
H542 H 0.57289 0.05758 0.23671 0.0
H543 H 0.58343 0.10212 0.23916 0.0
C544 C 0.65735 0.80712 0.89304 0.0
C545 C 0.67843 0.8168 0.85164 0.0
C546 C 0.63323 0.8297 0.91349 0.0
C547 C 0.63101 0.86303 0.89308 0.0
C548 C 0.65272 0.8731 0.85183 0.0
C549 C 0.67586 0.84958 0.83092 0.0
C550 C 0.60978 0.81771 0.95636 0.0
C551 C 0.65166 0.90873 0.8301 0.0
C552 C 0.54908 0.91214 0.91234 0.0
C553 C 0.55654 0.93125 0.95706 0.0
C554 C 0.57308 0.88969 0.89119 0.0
C555 C 0.60559 0.88714 0.91452 0.0
C556 C 0.61348 0.90696 0.95909 0.0
C557 C 0.5886 0.92845 0.98036 0.0
C558 C 0.56343 0.86824 0.84455 0.0
C559 C 0.64818 0.90549 0.98417 0.0
H560 H 0.65917 0.78156 0.90859 0.0
H561 H 0.69241 0.85701 0.79909 0.0
H562 H 0.61337 0.83349 0.99183 0.0
H563 H 0.58292 0.8207 0.94395 0.0
H564 H 0.61421 0.79067 0.96679 0.0
H565 H 0.67127 0.9129 0.79957 0.0
H566 H 0.6263 0.91393 0.81297 0.0
H567 H 0.65565 0.92745 0.86196 0.0
H568 H 0.52412 0.91412 0.89462 0.0
H569 H 0.59439 0.94349 1.01472 0.0
H570 H 0.56609 0.84089 0.85432 0.0
H571 H 0.58083 0.87349 0.8115 0.0
H572 H 0.53691 0.873 0.83152 0.0
H573 H 0.65308 0.87956 0.99933 0.0
H574 H 0.65077 0.92388 1.01688 0.0
H575 H 0.6681 0.91098 0.95471 0.0
C576 C 0.57288 0.58812 1.00071 0.0
C577 C 0.56003 0.56135 0.97044 0.0
C578 C 0.59448 0.61256 0.9787 0.0
C579 C 0.60379 0.60974 0.92549 0.0
C580 C 0.59087 0.58278 0.89479 0.0
C581 C 0.56897 0.55905 0.91757 0.0
C582 C 0.60744 0.64131 1.01235 0.0
C583 C 0.60064 0.57866 0.8381 0.0
C584 C 0.63911 0.68559 0.85218 0.0
C585 C 0.67414 0.6793 0.85482 0.0
C586 C 0.61586 0.66353 0.87604 0.0
C587 C 0.628 0.63425 0.90217 0.0
C588 C 0.66333 0.62776 0.90478 0.0
C589 C 0.686 0.65055 0.88145 0.0
C590 C 0.57835 0.6715 0.8733 0.0
C591 C 0.67718 0.5965 0.93159 0.0
H592 H 0.56581 0.59016 0.04149 0.0
H593 H 0.55929 0.5383 0.89403 0.0
H594 H 0.63554 0.63993 1.01532 0.0
H595 H 0.60106 0.66609 0.99419 0.0
H596 H 0.59659 0.6407 0.05237 0.0
H597 H 0.58796 0.55651 0.8195 0.0
H598 H 0.59384 0.60188 0.81594 0.0
H599 H 0.62857 0.57528 0.83477 0.0
H600 H 0.6299 0.70804 0.83215 0.0
H601 H 0.71307 0.64554 0.8834 0.0
H602 H 0.56747 0.67263 0.91322 0.0
H603 H 0.56486 0.65097 0.85202 0.0
H604 H 0.57318 0.69602 0.85335 0.0
H605 H 0.669 0.59612 0.97301 0.0
H606 H 0.70537 0.59527 0.93026 0.0
H607 H 0.66681 0.57331 0.91275 0.0
C608 C 0.68181 0.33852 0.22623 0.0
C609 C 0.68257 0.30552 0.20579 0.0
C610 C 0.66016 0.36322 0.20493 0.0
C611 C 0.63804 0.3542 0.16357 0.0
C612 C 0.63844 0.32068 0.14338 0.0
C613 C 0.66116 0.29686 0.16421 0.0
C614 C 0.6611 0.39898 0.2264 0.0
C615 C 0.61449 0.30982 0.10041 0.0
C616 C 0.55891 0.40763 0.14381 0.0
C617 C 0.56739 0.42606 0.09893 0.0
C618 C 0.58167 0.38404 0.16519 0.0
C619 C 0.614 0.37959 0.14193 0.0
C620 C 0.623 0.39877 0.09731 0.0
C621 C 0.59932 0.42146 0.07582 0.0
C622 C 0.57083 0.36337 0.21193 0.0
C623 C 0.6576 0.39531 0.07233 0.0
H624 H 0.69864 0.34515 0.25817 0.0
H625 H 0.6616 0.27116 0.14885 0.0
H626 H 0.66616 0.41727 0.19441 0.0
H627 H 0.63606 0.40568 0.24344 0.0
H628 H 0.6809 0.40219 0.25693 0.0
H629 H 0.61744 0.28253 0.09014 0.0
H630 H 0.5878 0.31435 0.11264 0.0
H631 H 0.61903 0.32523 0.0649 0.0
H632 H 0.53407 0.41097 0.16143 0.0
H633 H 0.60595 0.43595 0.04134 0.0
H634 H 0.58853 0.36774 0.24494 0.0
H635 H 0.57191 0.33588 0.20227 0.0
H636 H 0.54465 0.3697 0.22499 0.0
H637 H 0.67777 0.39971 0.10185 0.0
H638 H 0.66125 0.41346 0.03964 0.0
H639 H 0.66103 0.36912 0.05713 0.0
C640 C 0.89076 0.43117 0.42544 0.0
C641 C 0.92029 0.4216 0.45226 0.0
C642 C 0.87039 0.40683 0.40066 0.0
C643 C 0.88019 0.37222 0.40198 0.0
C644 C 0.91034 0.36248 0.42811 0.0
C645 C 0.9299 0.38729 0.45342 0.0
C646 C 0.83807 0.41806 0.37389 0.0
C647 C 0.92183 0.32585 0.42952 0.0
C648 C 0.81099 0.30643 0.38531 0.0
C649 C 0.81397 0.29819 0.33221 0.0
C650 C 0.83254 0.33036 0.40849 0.0
C651 C 0.858 0.34608 0.37801 0.0
C652 C 0.86162 0.33745 0.32462 0.0
C653 C 0.83932 0.31375 0.30218 0.0
C654 C 0.82762 0.33925 0.4654 0.0
C655 C 0.8889 0.35338 0.29124 0.0
H656 H 0.88324 0.45768 0.42454 0.0
H657 H 0.95299 0.37987 0.47352 0.0
H658 H 0.83844 0.41019 0.33231 0.0
H659 H 0.81588 0.40553 0.39238 0.0
H660 H 0.83434 0.44603 0.37581 0.0
H661 H 0.94684 0.32278 0.44909 0.0
H662 H 0.9028 0.31024 0.45054 0.0
H663 H 0.92374 0.31561 0.38925 0.0
H664 H 0.79132 0.29466 0.40873 0.0
H665 H 0.84186 0.30729 0.26122 0.0
H666 H 0.82172 0.36671 0.46936 0.0
H667 H 0.8514 0.33441 0.48743 0.0
H668 H 0.80676 0.32444 0.4837 0.0
H669 H 0.8848 0.38123 0.28887 0.0
H670 H 0.88926 0.34282 0.251 0.0
H671 H 0.91422 0.34929 0.30926 0.0
C672 C 0.84056 0.67084 0.73924 0.0
C673 C 0.80551 0.67128 0.72928 0.0
C674 C 0.86211 0.64833 0.71249 0.0
C675 C 0.84819 0.62576 0.67511 0.0
C676 C 0.81278 0.62558 0.6657 0.0
C677 C 0.79188 0.64834 0.69288 0.0
C678 C 0.89981 0.64912 0.72349 0.0
C679 C 0.79703 0.60174 0.62627 0.0
C680 C 0.90542 0.59068 0.56877 0.0
C681 C 0.91223 0.55791 0.58746 0.0
C682 C 0.88466 0.61312 0.59704 0.0
C683 C 0.87064 0.60253 0.64523 0.0
C684 C 0.87746 0.56954 0.66435 0.0
C685 C 0.89808 0.54757 0.63514 0.0
C686 C 0.8777 0.64812 0.57537 0.0
C687 C 0.86306 0.55747 0.71573 0.0
H688 H 0.85131 0.68856 0.76714 0.0
H689 H 0.76481 0.64837 0.68504 0.0
H690 H 0.90878 0.62349 0.73514 0.0
H691 H 0.91381 0.65622 0.68755 0.0
H692 H 0.90645 0.66747 0.75487 0.0
H693 H 0.76894 0.60433 0.62439 0.0
H694 H 0.80764 0.60685 0.58695 0.0
H695 H 0.80335 0.57503 0.63617 0.0
H696 H 0.9163 0.59885 0.53201 0.0
H697 H 0.90349 0.52241 0.65021 0.0
H698 H 0.88621 0.66778 0.60355 0.0
H699 H 0.84997 0.65165 0.56963 0.0
H700 H 0.89074 0.65249 0.53751 0.0
H701 H 0.87114 0.57474 0.74766 0.0
H702 H 0.87131 0.53122 0.7255 0.0
H703 H 0.83488 0.55811 0.71437 0.0
C704 C 0.33934 0.31104 0.22789 0.0
C705 C 0.30689 0.3075 0.20587 0.0
C706 C 0.3638 0.33208 0.20481 0.0
C707 C 0.35562 0.34987 0.15854 0.0
C708 C 0.32318 0.34592 0.13553 0.0
C709 C 0.29915 0.32484 0.15955 0.0
C710 C 0.39817 0.33577 0.23048 0.0
C711 C 0.31364 0.3644 0.08602 0.0
C712 C 0.4038 0.43098 0.13036 0.0
C713 C 0.42742 0.42015 0.09279 0.0
C714 C 0.3803 0.40832 0.15196 0.0
C715 C 0.38042 0.37397 0.13566 0.0
C716 C 0.40413 0.36277 0.0978 0.0
C717 C 0.42739 0.38604 0.07675 0.0
C718 C 0.35537 0.42116 0.19231 0.0
C719 C 0.40495 0.32625 0.07965 0.0
H720 H 0.34559 0.29768 0.26359 0.0
H721 H 0.27425 0.32203 0.14197 0.0
H722 H 0.41864 0.32962 0.2022 0.0
H723 H 0.40196 0.3625 0.24302 0.0
H724 H 0.40101 0.31904 0.26509 0.0
H725 H 0.288 0.35717 0.07164 0.0
H726 H 0.314 0.39224 0.09302 0.0
H727 H 0.3325 0.35894 0.05492 0.0
H728 H 0.40358 0.45726 0.14307 0.0
H729 H 0.44559 0.37743 0.04784 0.0
H730 H 0.35852 0.40681 0.22923 0.0
H731 H 0.32896 0.41691 0.1786 0.0
H732 H 0.35866 0.44867 0.20074 0.0
H733 H 0.40965 0.30919 0.11332 0.0
H734 H 0.42494 0.32165 0.04982 0.0
H735 H 0.37995 0.31913 0.06287 0.0
C736 C 0.40208 0.53925 0.92989 0.0
C737 C 0.42301 0.55218 0.9696 0.0
C738 C 0.37889 0.5602 0.90376 0.0
C739 C 0.37659 0.59493 0.9176 0.0
C740 C 0.39726 0.6081 0.95806 0.0
C741 C 0.42023 0.58653 0.98367 0.0
C742 C 0.35713 0.54526 0.86091 0.0
C743 C 0.39543 0.64507 0.97377 0.0
C744 C 0.34127 0.6563 0.81739 0.0
C745 C 0.30786 0.6608 0.83519 0.0
C746 C 0.36391 0.63484 0.84382 0.0
C747 C 0.35286 0.61757 0.88914 0.0
C748 C 0.31913 0.62177 0.90711 0.0
C749 C 0.297 0.64331 0.87987 0.0
C750 C 0.39973 0.63081 0.82347 0.0
C751 C 0.3065 0.60374 0.95535 0.0
H752 H 0.40395 0.51272 0.91879 0.0
H753 H 0.43633 0.59675 1.01421 0.0
H754 H 0.32984 0.54943 0.86979 0.0
H755 H 0.36258 0.55826 0.82345 0.0
H756 H 0.36153 0.51757 0.85565 0.0
H757 H 0.41272 0.65115 1.00676 0.0
H758 H 0.40228 0.66137 0.94008 0.0
H759 H 0.36907 0.65179 0.98525 0.0
H760 H 0.34988 0.66971 0.78293 0.0
H761 H 0.27128 0.64674 0.89412 0.0
H762 H 0.40495 0.60367 0.81475 0.0
H763 H 0.4182 0.63895 0.85371 0.0
H764 H 0.40426 0.6459 0.78753 0.0
H765 H 0.30917 0.57585 0.95041 0.0
H766 H 0.27946 0.60966 0.96403 0.0
H767 H 0.32214 0.61114 0.98955 0.0
C768 C 0.13712 0.67863 0.7059 0.0
C769 C 0.17162 0.66986 0.7032 0.0
C770 C 0.11244 0.65895 0.68053 0.0
C771 C 0.12253 0.62953 0.6527 0.0
C772 C 0.15733 0.62057 0.6498 0.0
C773 C 0.18151 0.64104 0.67475 0.0
C774 C 0.07558 0.66952 0.68372 0.0
C775 C 0.16894 0.58905 0.62116 0.0
C776 C 0.05798 0.55929 0.63504 0.0
C777 C 0.04883 0.56317 0.58246 0.0
C778 C 0.08185 0.58083 0.65835 0.0
C779 C 0.0966 0.60719 0.62856 0.0
C780 C 0.08711 0.61165 0.5757 0.0
C781 C 0.06348 0.58935 0.55308 0.0
C782 C 0.09167 0.57502 0.71466 0.0
C783 C 0.10201 0.63988 0.54309 0.0
H784 H 0.12942 0.70116 0.72729 0.0
H785 H 0.20816 0.63415 0.67264 0.0
H786 H 0.06475 0.67196 0.64391 0.0
H787 H 0.0607 0.64971 0.7043 0.0
H788 H 0.07217 0.69405 0.70461 0.0
H789 H 0.19701 0.58597 0.62195 0.0
H790 H 0.15721 0.56622 0.63903 0.0
H791 H 0.16049 0.58999 0.57989 0.0
H792 H 0.04692 0.53897 0.65794 0.0
H793 H 0.05632 0.59259 0.51254 0.0
H794 H 0.08656 0.59822 0.73803 0.0
H795 H 0.11933 0.56974 0.71737 0.0
H796 H 0.07765 0.55344 0.73242 0.0
H797 H 0.09749 0.66477 0.56233 0.0
H798 H 0.091 0.64067 0.50318 0.0
H799 H 0.12992 0.63654 0.53978 0.0
C800 C 0.13561 0.31339 0.32958 0.0
C801 C 0.17092 0.31756 0.333 0.0
C802 C 0.11344 0.33643 0.35378 0.0
C803 C 0.12694 0.36456 0.38127 0.0
C804 C 0.16255 0.3692 0.38422 0.0
C805 C 0.18416 0.34544 0.36038 0.0
C806 C 0.07557 0.33044 0.35043 0.0
C807 C 0.17778 0.39925 0.41251 0.0
C808 C 0.0667 0.4385 0.40189 0.0
C809 C 0.05643 0.43346 0.4537 0.0
C810 C 0.09043 0.41681 0.37828 0.0
C811 C 0.10367 0.38909 0.40693 0.0
C812 C 0.09371 0.38409 0.45945 0.0
C813 C 0.07039 0.40657 0.48241 0.0
C814 C 0.10093 0.42326 0.32247 0.0
C815 C 0.10696 0.35447 0.4909 0.0
H816 H 0.12525 0.29171 0.30885 0.0
H817 H 0.21145 0.34885 0.36291 0.0
H818 H 0.06471 0.32823 0.39025 0.0
H819 H 0.06301 0.35239 0.33133 0.0
H820 H 0.06923 0.30704 0.32817 0.0
H821 H 0.20597 0.39956 0.41018 0.0
H822 H 0.16785 0.42327 0.39571 0.0
H823 H 0.17024 0.39877 0.45421 0.0
H824 H 0.05618 0.45946 0.3797 0.0
H825 H 0.06234 0.40248 0.52237 0.0
H826 H 0.09281 0.40173 0.29743 0.0
H827 H 0.12902 0.42496 0.3197 0.0
H828 H 0.08972 0.44704 0.30666 0.0
H829 H 0.09925 0.33024 0.47209 0.0
H830 H 0.09732 0.35465 0.53165 0.0
H831 H 0.13514 0.35487 0.49189 0.0
C832 C 0.02633 0.01741 0.91973 0.0
C833 C 0.00073 0.0033 0.88829 0.0
C834 C 0.02773 0.0108 0.97367 0.0
C835 C 0.00304 0.98941 0.99683 0.0
C836 C 0.97732 0.97486 0.96522 0.0
C837 C 0.97645 0.98202 0.91148 0.0
C838 C 0.05544 0.02698 1.00597 0.0
C839 C 0.95067 0.95169 0.98817 0.0
C840 C 0.02226 0.9467 0.12701 0.0
C841 C 0.00384 0.96693 0.16234 0.0
C842 C 0.02253 0.95393 0.07327 0.0
C843 C 0.00402 0.98218 0.05411 0.0
C844 C 0.98582 0.00303 0.08959 0.0
C845 C 0.98592 -0.00484 0.14314 0.0
C846 C 0.04235 0.93109 0.03689 0.0
C847 C 0.96577 0.03339 0.07084 0.0
H848 H 0.04496 0.0342 0.90232 0.0
H849 H 0.95684 0.97065 0.88742 0.0
H850 H 0.04401 0.04323 0.03676 0.0
H851 H 0.07057 0.00705 0.02591 0.0
H852 H 0.07286 0.04278 0.98205 0.0
H853 H 0.93247 0.94231 0.95832 0.0
H854 H 0.96305 0.92949 1.00691 0.0
H855 H 0.93623 0.96533 1.01895 0.0
H856 H 0.03664 0.92517 0.14143 0.0
H857 H 0.97126 0.01073 0.16987 0.0
H858 H 0.06126 0.94621 1.01479 0.0
H859 H 0.02492 0.9194 1.00796 0.0
H860 H 0.05588 0.91048 0.05801 0.0
H861 H 0.98251 0.05081 0.0486 0.0
H862 H 0.95399 0.04778 0.10353 0.0
H863 H 0.94536 0.02491 0.04394 0.0
C864 C 0.27966 0.7004 0.37229 0.0
C865 C 0.26194 0.72197 0.40657 0.0
C866 C 0.27262 0.70006 0.31844 0.0
C867 C 0.24717 0.72181 0.29805 0.0
C868 C 0.22893 0.74339 0.33245 0.0
C869 C 0.23651 0.74321 0.38615 0.0
C870 C 0.29255 0.67652 0.28329 0.0
C871 C 0.20163 0.76701 0.31242 0.0
C872 C 0.25024 0.74497 0.15351 0.0
C873 C 0.22532 0.72354 0.13215 0.0
C874 C 0.25766 0.74459 0.20725 0.0
C875 C 0.23982 0.72218 0.24071 0.0
C876 C 0.21486 0.70027 0.21936 0.0
C877 C 0.20792 0.70122 0.1655 0.0
C878 C 0.2844 0.76844 0.22833 0.0
C879 C 0.19538 0.67585 0.25348 0.0
H880 H 0.29899 0.6835 0.38763 0.0
H881 H 0.22294 0.76029 0.41205 0.0
H882 H 0.27499 0.6592 0.26229 0.0
H883 H 0.30633 0.69149 0.25337 0.0
H884 H 0.31129 0.66095 0.30523 0.0
H885 H 0.18939 0.78181 0.34425 0.0
H886 H 0.21271 0.78504 0.28387 0.0
H887 H 0.18176 0.75225 0.29167 0.0
H888 H 0.26352 0.76263 0.12833 0.0
H889 H 0.18896 0.68423 0.14938 0.0
H890 H 0.30462 0.75376 0.24842 0.0
H891 H 0.27291 0.78576 0.25767 0.0
H892 H 0.29629 0.78401 0.19717 0.0
H893 H 0.21328 0.65852 0.27377 0.0
H894 H 0.17697 0.66031 0.23088 0.0
H895 H 0.1813 0.69011 0.28401 0.0
C896 C 0.45026 0.02663 0.62274 0.0
C897 C 0.4732 0.0104 0.65656 0.0
C898 C 0.45019 0.0197 0.56885 0.0
C899 C 0.47365 -0.00404 0.54798 0.0
C900 C 0.49667 0.97926 0.5819 0.0
C901 C 0.49616 0.98664 0.63566 0.0
C902 C 0.42508 0.03793 0.53419 0.0
C903 C 0.52214 0.95383 0.56131 0.0
C904 C 0.45534 0.95532 0.41567 0.0
C905 C 0.47622 0.97426 0.3821 0.0
C906 C 0.45411 0.96221 0.46954 0.0
C907 C 0.47424 0.98871 0.49063 0.0
C908 C 0.49513 0.00814 0.45694 0.0
C909 C 0.49586 0.00071 0.40321 0.0
C910 C 0.43135 0.941 0.50394 0.0
C911 C 0.51703 0.03657 0.47777 0.0
H912 H 0.4321 0.04465 0.63851 0.0
H913 H 0.51429 0.97429 0.66123 0.0
H914 H 0.43885 0.0528 0.50414 0.0
H915 H 0.40897 0.01919 0.51333 0.0
H916 H 0.40831 0.05545 0.55648 0.0
H917 H 0.53801 0.9427 0.59282 0.0
H918 H 0.50878 0.93293 0.54069 0.0
H919 H 0.53912 0.96625 0.53252 0.0
H920 H 0.4397 0.93517 0.39974 0.0
H921 H 0.5124 0.01521 0.37783 0.0
H922 H 0.41289 0.95758 0.52459 0.0
H923 H 0.44676 0.92797 0.53417 0.0
H924 H 0.41705 0.92152 0.48149 0.0
H925 H 0.50101 0.05562 0.49822 0.0
H926 H 0.53148 0.04962 0.44642 0.0
H927 H 0.53534 0.02639 0.50675 0.0
C928 C 0.19014 0.26069 0.87278 0.0
C929 C 0.21542 0.25318 0.90975 0.0
C930 C 0.19737 0.2611 0.81904 0.0
C931 C 0.23077 0.25398 0.80153 0.0
C932 C 0.25655 0.24687 0.83858 0.0
C933 C 0.24858 0.24652 0.89212 0.0
C934 C 0.16915 0.2689 0.78094 0.0
C935 C 0.29249 0.23916 0.82159 0.0
C936 C 0.24187 0.22271 0.66164 0.0
C937 C 0.25267 0.25224 0.63587 0.0
C938 C 0.23488 0.22289 0.71547 0.0
C939 C 0.23855 0.25339 0.7444 0.0
C940 C 0.24935 0.28332 0.71861 0.0
C941 C 0.25637 0.28236 0.66477 0.0
C942 C 0.22365 0.19036 0.74144 0.0
C943 C 0.25333 0.31641 0.74786 0.0
H944 H 0.16459 0.26646 0.88588 0.0
H945 H 0.26824 0.24028 0.92016 0.0
H946 H 0.17612 0.29112 0.75662 0.0
H947 H 0.16542 0.24704 0.75414 0.0
H948 H 0.14466 0.27439 0.80083 0.0
H949 H 0.30981 0.23505 0.85524 0.0
H950 H 0.29278 0.21605 0.79673 0.0
H951 H 0.30255 0.26037 0.79769 0.0
H952 H 0.2394 0.19923 0.6398 0.0
H953 H 0.26436 0.30537 0.6451 0.0
H954 H 0.19828 0.19395 0.75952 0.0
H955 H 0.2416 0.18361 0.77318 0.0
H956 H 0.22224 0.16875 0.71357 0.0
H957 H 0.22873 0.32385 0.76572 0.0
H958 H 0.26209 0.33739 0.72221 0.0
H959 H 0.27189 0.31326 0.7801 0.0
C960 C 0.77939 0.20002 0.8703 0.0
C961 C 0.76211 0.22197 0.90454 0.0
C962 C 0.77249 0.19997 0.81642 0.0
C963 C 0.74767 0.22241 0.796 0.0
C964 C 0.7299 0.24441 0.83035 0.0
C965 C 0.7373 0.24391 0.88409 0.0
C966 C 0.79189 0.17597 0.78129 0.0
C967 C 0.70331 0.26878 0.81025 0.0
C968 C 0.75152 0.24583 0.65167 0.0
C969 C 0.72603 0.22514 0.63018 0.0
C970 C 0.75892 0.24508 0.70539 0.0
C971 C 0.74046 0.22307 0.73867 0.0
C972 C 0.71494 0.20188 0.71718 0.0
C973 C 0.70805 0.20317 0.66334 0.0
C974 C 0.78628 0.26814 0.72666 0.0
C975 C 0.69479 0.1779 0.75112 0.0
H976 H 0.79825 0.18262 0.88571 0.0
H977 H 0.72411 0.26128 0.90999 0.0
H978 H 0.77393 0.15916 0.7601 0.0
H979 H 0.80614 0.19063 0.75152 0.0
H980 H 0.81015 0.15988 0.80326 0.0
H981 H 0.6914 0.28387 0.84206 0.0
H982 H 0.71494 0.28654 0.78181 0.0
H983 H 0.68309 0.2546 0.78936 0.0
H984 H 0.76527 0.26321 0.62661 0.0
H985 H 0.68865 0.18673 0.64709 0.0
H986 H 0.80604 0.25288 0.74679 0.0
H987 H 0.77522 0.28574 0.75599 0.0
H988 H 0.79865 0.28341 0.69559 0.0
H989 H 0.71221 0.1601 0.77142 0.0
H990 H 0.67603 0.16287 0.72838 0.0
H991 H 0.68102 0.19247 0.78165 0.0
C992 C 0.75608 0.72962 0.40925 0.0
C993 C 0.72453 0.74136 0.42761 0.0
C994 C 0.76385 0.72955 0.35561 0.0
C995 C 0.7395 0.74143 0.31917 0.0
C996 C 0.70758 0.75319 0.33737 0.0
C997 C 0.70054 0.75309 0.39119 0.0
C998 C 0.79818 0.71681 0.33792 0.0
C999 C 0.68091 0.76616 0.29997 0.0
C1000 C 0.77007 0.77131 0.18569 0.0
C1001 C 0.76248 0.74328 0.15373 0.0
C1002 C 0.76276 0.77102 0.23942 0.0
C1003 C 0.74751 0.74198 0.26208 0.0
C1004 C 0.73971 0.71363 0.23008 0.0
C1005 C 0.74721 0.71464 0.17638 0.0
C1006 C 0.77131 0.80189 0.27195 0.0
C1007 C 0.72355 0.68212 0.25265 0.0
H1008 H 0.77467 0.72009 0.43682 0.0
H1009 H 0.67631 0.76277 0.40482 0.0
H1010 H 0.79496 0.69526 0.31037 0.0
H1011 H 0.81182 0.73721 0.31667 0.0
H1012 H 0.81426 0.70827 0.37105 0.0
H1013 H 0.65714 0.77387 0.32021 0.0
H1014 H 0.69089 0.78835 0.27818 0.0
H1015 H 0.67467 0.74622 0.27084 0.0
H1016 H 0.78142 0.79374 0.16851 0.0
H1017 H 0.74161 0.69271 0.15222 0.0
H1018 H 0.78896 0.79471 0.30386 0.0
H1019 H 0.74792 0.81209 0.29045 0.0
H1020 H 0.78323 0.82239 0.24851 0.0
H1021 H 0.7401 0.67139 0.28358 0.0
H1022 H 0.71907 0.66223 0.22261 0.0
H1023 H 0.6989 0.68871 0.27113 0.0
C1024 C 0.48874 0.50359 0.65416 0.0
C1025 C 0.49319 0.47007 0.67174 0.0
C1026 C 0.48804 0.51126 0.60057 0.0
C1027 C 0.49154 0.48479 0.56342 0.0
C1028 C 0.49576 0.4509 0.5808 0.0
C1029 C 0.49671 0.44399 0.63459 0.0
C1030 C 0.48365 0.54775 0.5837 0.0
C1031 C 0.49947 0.4219 0.54252 0.0
C1032 C 0.4601 0.50013 0.4247 0.0
C1033 C 0.49052 0.50666 0.39799 0.0
C1034 C 0.46004 0.49289 0.47843 0.0
C1035 C 0.49113 0.49253 0.50636 0.0
C1036 C 0.5219 0.49933 0.47965 0.0
C1037 C 0.52124 0.50613 0.42581 0.0
C1038 C 0.42674 0.48536 0.50527 0.0
C1039 C 0.55554 0.49961 0.50801 0.0
H1040 H 0.48548 0.5239 0.68234 0.0
H1041 H 0.50075 0.4181 0.64752 0.0
H1042 H 0.50555 0.55564 0.5593 0.0
H1043 H 0.46047 0.55031 0.55936 0.0
H1044 H 0.48155 0.56543 0.61741 0.0
H1045 H 0.50161 0.39688 0.56227 0.0
H1046 H 0.47727 0.42124 0.51582 0.0
H1047 H 0.52243 0.42577 0.51811 0.0
H1048 H 0.43631 0.50019 0.40333 0.0
H1049 H 0.5448 0.51159 0.40555 0.0
H1050 H 0.42245 0.50376 0.53746 0.0
H1051 H 0.4276 0.45964 0.5229 0.0
H1052 H 0.40479 0.48661 0.47805 0.0
H1053 H 0.55487 0.51861 0.54006 0.0
H1054 H 0.57714 0.50573 0.48173 0.0
H1055 H 0.56029 0.47444 0.52604 0.0
C1056 C 0.9521 0.45773 0.91397 0.0
C1057 C 0.97324 0.4763 0.88029 0.0
C1058 C 0.95092 0.46477 0.96782 0.0
C1059 C 0.97141 0.49102 0.98885 0.0
C1060 C -0.00744 0.5101 0.95504 0.0
C1061 C -0.00682 0.50256 0.90131 0.0
C1062 C 0.92785 0.44395 1.0023 0.0
C1063 C 0.01487 0.53824 0.97575 0.0
C1064 C 0.94812 0.52938 0.12109 0.0
C1065 C 0.97085 0.51285 0.15493 0.0
C1066 C 0.94791 0.52244 0.06718 0.0
C1067 C 0.97098 0.49833 0.04625 0.0
C1068 C -0.00621 0.48133 0.08019 0.0
C1069 C -0.00655 0.48877 0.13396 0.0
C1070 C 0.92304 0.54101 0.03255 0.0
C1071 C 0.01885 0.4555 0.05959 0.0
H1072 H 0.93622 0.43773 0.89813 0.0
H1073 H 0.00992 0.51679 0.87587 0.0
H1074 H 0.94307 0.43066 0.03247 0.0
H1075 H 0.9097 0.46085 1.023 0.0
H1076 H 0.91319 0.42473 0.97988 0.0
H1077 H 0.02946 0.55106 0.94432 0.0
H1078 H -0.00086 0.55752 0.99621 0.0
H1079 H 0.03308 0.52783 1.00469 0.0
H1080 H 0.93021 0.54766 0.13685 0.0
H1081 H 0.01143 0.47616 0.15948 0.0
H1082 H 0.90661 0.5225 1.0118 0.0
H1083 H 0.937 0.55563 1.00241 0.0
H1084 H 0.90658 0.55882 0.05485 0.0
H1085 H 0.00515 0.43478 0.03907 0.0
H1086 H 0.03459 0.44417 0.09108 0.0
H1087 H 0.03597 0.46764 0.03071 0.0
loop_
_geom_bond_atom_site_label_1
_geom_bond_atom_site_label_2
_geom_bond_distance
_geom_bond_site_symmetry_2
_ccdc_geom_bond_type
Tb0 C9 2.764 1_455 S
Tb0 O10 2.325 1_445 S
Tb0 O13 2.303 1_545 S
Tb0 O17 2.322 . S
Tb0 O18 2.349 1_455 S
Tb0 O21 2.415 . S
Tb0 O22 2.399 1_455 S
Tb1 O11 2.322 . S
Tb1 O12 2.349 1_655 S
Tb1 O14 2.415 . S
Tb1 O15 2.399 1_655 S
Tb1 O16 2.325 1_665 S
Tb1 O19 2.303 1_565 S
Tb1 C30 2.764 1_655 S
C2 O18 1.261 . S
C2 O19 1.257 . S
C3 C6 1.358 . S
C3 C7 1.332 1_545 S
C3 C9 1.504 . S
C4 C5 1.373 . S
C4 C8 1.308 1_545 S
C5 C4 1.373 . S
C5 C6 1.429 . S
C5 H32 0.932 . S
C6 C3 1.358 . S
C6 C5 1.429 . S
C6 H33 0.930 . S
C7 C3 1.332 1_565 S
C7 C8 1.394 . S
C7 H34 0.932 1_655 S
C8 C4 1.308 1_565 S
C8 C7 1.394 . S
C8 H35 0.929 . S
C9 Tb0 2.764 1_655 S
C9 C3 1.504 . S
C9 O21 1.239 1_655 S
C9 O22 1.263 . S
O10 Tb0 2.325 1_665 S
O10 C20 1.236 . S
O11 Tb1 2.322 . S
O11 C20 1.257 . S
O12 Tb1 2.349 1_455 S
O12 C23 1.261 . S
O13 Tb0 2.303 1_565 S
O13 C23 1.257 . S
O14 Tb1 2.415 . S
O14 C30 1.239 1_655 S
O15 Tb1 2.399 1_455 S
O15 C30 1.263 . S
O16 Tb1 2.325 1_445 S
O16 C31 1.236 . S
O17 Tb0 2.322 . S
O17 C31 1.257 . S
O18 Tb0 2.349 1_655 S
O18 C2 1.261 . S
O19 Tb1 2.303 1_545 S
O19 C2 1.257 . S
C20 O10 1.236 . S
C20 O11 1.257 . S
O21 Tb0 2.415 . S
O21 C9 1.239 1_455 S
O22 Tb0 2.399 1_655 S
O22 C9 1.263 . S
C23 O12 1.261 . S
C23 O13 1.257 . S
C24 C27 1.358 . S
C24 C28 1.332 1_565 S
C24 C30 1.504 . S
C25 C26 1.373 . S
C25 C29 1.308 1_565 S
C26 C25 1.373 . S
C26 C27 1.429 . S
C26 H36 0.932 . S
C27 C24 1.358 . S
C27 C26 1.429 . S
C27 H37 0.930 . S
C28 C24 1.332 1_545 S
C28 C29 1.394 . S
C28 H38 0.932 1_455 S
C29 C25 1.308 1_545 S
C29 C28 1.394 . S
C29 H39 0.929 . S
C30 Tb1 2.764 1_455 S
C30 O14 1.239 1_455 S
C30 O15 1.263 . S
C30 C24 1.504 . S
C31 O16 1.236 . S
C31 O17 1.257 . S
H32 C5 0.932 . S
H33 C6 0.930 . S
H34 C7 0.932 1_455 S
H35 C8 0.929 . S
H36 C26 0.932 . S
H37 C27 0.930 . S
H38 C28 0.932 1_655 S
H39 C29 0.929 . S
Tb40 C49 2.764 . S
Tb40 O50 2.325 . S
Tb40 O53 2.303 . S
Tb40 O57 2.322 . S
Tb40 O58 2.349 . S
Tb40 O61 2.415 . S
Tb40 O62 2.399 . S
Tb41 O51 2.322 . S
Tb41 O52 2.349 . S
Tb41 O54 2.415 . S
Tb41 O55 2.399 . S
Tb41 O56 2.325 . S
Tb41 O59 2.303 . S
Tb41 C70 2.764 . S
C42 O58 1.261 . S
C42 O59 1.257 . S
C43 C46 1.358 . S
C43 C47 1.332 . S
C43 C49 1.504 . S
C44 C45 1.373 . S
C44 C48 1.308 . S
C45 C44 1.373 . S
C45 C46 1.429 1_554 S
C45 H72 0.932 . S
C46 C43 1.358 . S
C46 C45 1.429 1_556 S
C46 H73 0.930 . S
C47 C43 1.332 . S
C47 C48 1.394 1_556 S
C47 H74 0.932 . S
C48 C44 1.308 . S
C48 C47 1.394 1_554 S
C48 H75 0.929 . S
C49 Tb40 2.764 . S
C49 C43 1.504 . S
C49 O61 1.239 . S
C49 O62 1.263 . S
O50 Tb40 2.325 . S
O50 C60 1.236 . S
O51 Tb41 2.322 . S
O51 C60 1.257 . S
O52 Tb41 2.349 . S
O52 C63 1.261 . S
O53 Tb40 2.303 . S
O53 C63 1.257 . S
O54 Tb41 2.415 . S
O54 C70 1.239 . S
O55 Tb41 2.399 . S
O55 C70 1.263 . S
O56 Tb41 2.325 . S
O56 C71 1.236 . S
O57 Tb40 2.322 . S
O57 C71 1.257 . S
O58 Tb40 2.349 . S
O58 C42 1.261 . S
O59 Tb41 2.303 . S
O59 C42 1.257 . S
C60 O50 1.236 . S
C60 O51 1.257 . S
O61 Tb40 2.415 . S
O61 C49 1.239 . S
O62 Tb40 2.399 . S
O62 C49 1.263 . S
C63 O52 1.261 . S
C63 O53 1.257 . S
C64 C67 1.358 . S
C64 C68 1.332 . S
C64 C70 1.504 . S
C65 C66 1.373 . S
C65 C69 1.308 . S
C66 C65 1.373 . S
C66 C67 1.429 . S
C66 H76 0.932 . S
C67 C64 1.358 . S
C67 C66 1.429 . S
C67 H77 0.930 . S
C68 C64 1.332 . S
C68 C69 1.394 . S
C68 H78 0.932 . S
C69 C65 1.308 . S
C69 C68 1.394 . S
C69 H79 0.929 . S
C70 Tb41 2.764 . S
C70 O54 1.239 . S
C70 O55 1.263 . S
C70 C64 1.504 . S
C71 O56 1.236 . S
C71 O57 1.257 . S
H72 C45 0.932 . S
H73 C46 0.930 . S
H74 C47 0.932 . S
H75 C48 0.929 . S
H76 C66 0.932 . S
H77 C67 0.930 . S
H78 C68 0.932 . S
H79 C69 0.929 . S
Tb80 C89 2.764 . S
Tb80 O90 2.325 1_565 S
Tb80 O93 2.303 1_565 S
Tb80 O97 2.322 1_554 S
Tb80 O98 2.349 . S
Tb80 O101 2.415 . S
Tb80 O102 2.399 . S
Tb81 O91 2.322 1_556 S
Tb81 O92 2.349 . S
Tb81 O94 2.415 . S
Tb81 O95 2.399 . S
Tb81 O96 2.325 1_545 S
Tb81 O99 2.303 1_545 S
Tb81 C110 2.764 . S
C82 O98 1.261 1_556 S
C82 O99 1.257 . S
C83 C86 1.358 . S
C83 C87 1.332 1_565 S
C83 C89 1.504 . S
C84 C85 1.373 . S
C84 C88 1.308 1_565 S
C85 C84 1.373 . S
C85 C86 1.429 . S
C85 H112 0.932 . S
C86 C83 1.358 . S
C86 C85 1.429 . S
C86 H113 0.930 . S
C87 C83 1.332 1_545 S
C87 C88 1.394 . S
C87 H114 0.932 . S
C88 C84 1.308 1_545 S
C88 C87 1.394 . S
C88 H115 0.929 . S
C89 Tb80 2.764 . S
C89 C83 1.504 . S
C89 O101 1.239 . S
C89 O102 1.263 . S
O90 Tb80 2.325 1_545 S
O90 C100 1.236 . S
O91 Tb81 2.322 1_554 S
O91 C100 1.257 . S
O92 Tb81 2.349 . S
O92 C103 1.261 1_556 S
O93 Tb80 2.303 1_545 S
O93 C103 1.257 . S
O94 Tb81 2.415 . S
O94 C110 1.239 . S
O95 Tb81 2.399 . S
O95 C110 1.263 . S
O96 Tb81 2.325 1_565 S
O96 C111 1.236 . S
O97 Tb80 2.322 1_556 S
O97 C111 1.257 . S
O98 Tb80 2.349 . S
O98 C82 1.261 1_554 S
O99 Tb81 2.303 1_565 S
O99 C82 1.257 . S
C100 O90 1.236 . S
C100 O91 1.257 . S
O101 Tb80 2.415 . S
O101 C89 1.239 . S
O102 Tb80 2.399 . S
O102 C89 1.263 . S
C103 O92 1.261 1_554 S
C103 O93 1.257 . S
C104 C107 1.358 . S
C104 C108 1.332 1_545 S
C104 C110 1.504 . S
C105 C106 1.373 . S
C105 C109 1.308 1_545 S
C106 C105 1.373 . S
C106 C107 1.429 . S
C106 H116 0.932 . S
C107 C104 1.358 . S
C107 C106 1.429 . S
C107 H117 0.930 . S
C108 C104 1.332 1_565 S
C108 C109 1.394 . S
C108 H118 0.932 . S
C109 C105 1.308 1_565 S
C109 C108 1.394 . S
C109 H119 0.929 . S
C110 Tb81 2.764 . S
C110 O94 1.239 . S
C110 O95 1.263 . S
C110 C104 1.504 . S
C111 O96 1.236 . S
C111 O97 1.257 . S
H112 C85 0.932 . S
H113 C86 0.930 . S
H114 C87 0.932 . S
H115 C88 0.929 . S
H116 C106 0.932 . S
H117 C107 0.930 . S
H118 C108 0.932 . S
H119 C109 0.929 . S
Tb120 C129 2.764 . S
Tb120 O130 2.325 . S
Tb120 O133 2.303 . S
Tb120 O137 2.322 . S
Tb120 O138 2.349 . S
Tb120 O141 2.415 . S
Tb120 O142 2.399 . S
Tb121 O131 2.322 . S
Tb121 O132 2.349 . S
Tb121 O134 2.415 . S
Tb121 O135 2.399 . S
Tb121 O136 2.325 . S
Tb121 O139 2.303 . S
Tb121 C150 2.764 . S
C122 O138 1.261 . S
C122 O139 1.257 . S
C123 C126 1.358 . S
C123 C127 1.332 . S
C123 C129 1.504 . S
C124 C125 1.373 . S
C124 C128 1.308 . S
C125 C124 1.373 . S
C125 C126 1.429 . S
C125 H152 0.932 . S
C126 C123 1.358 . S
C126 C125 1.429 . S
C126 H153 0.930 . S
C127 C123 1.332 . S
C127 C128 1.394 . S
C127 H154 0.932 . S
C128 C124 1.308 . S
C128 C127 1.394 . S
C128 H155 0.929 . S
C129 Tb120 2.764 . S
C129 C123 1.504 . S
C129 O141 1.239 . S
C129 O142 1.263 . S
O130 Tb120 2.325 . S
O130 C140 1.236 . S
O131 Tb121 2.322 . S
O131 C140 1.257 . S
O132 Tb121 2.349 . S
O132 C143 1.261 . S
O133 Tb120 2.303 . S
O133 C143 1.257 . S
O134 Tb121 2.415 . S
O134 C150 1.239 . S
O135 Tb121 2.399 . S
O135 C150 1.263 . S
O136 Tb121 2.325 . S
O136 C151 1.236 . S
O137 Tb120 2.322 . S
O137 C151 1.257 . S
O138 Tb120 2.349 . S
O138 C122 1.261 . S
O139 Tb121 2.303 . S
O139 C122 1.257 . S
C140 O130 1.236 . S
C140 O131 1.257 . S
O141 Tb120 2.415 . S
O141 C129 1.239 . S
O142 Tb120 2.399 . S
O142 C129 1.263 . S
C143 O132 1.261 . S
C143 O133 1.257 . S
C144 C147 1.358 . S
C144 C148 1.332 . S
C144 C150 1.504 . S
C145 C146 1.373 . S
C145 C149 1.308 . S
C146 C145 1.373 . S
C146 C147 1.429 1_556 S
C146 H156 0.932 . S
C147 C144 1.358 . S
C147 C146 1.429 1_554 S
C147 H157 0.930 . S
C148 C144 1.332 . S
C148 C149 1.394 1_554 S
C148 H158 0.932 . S
C149 C145 1.308 . S
C149 C148 1.394 1_556 S
C149 H159 0.929 . S
C150 Tb121 2.764 . S
C150 O134 1.239 . S
C150 O135 1.263 . S
C150 C144 1.504 . S
C151 O136 1.236 . S
C151 O137 1.257 . S
H152 C125 0.932 . S
H153 C126 0.930 . S
H154 C127 0.932 . S
H155 C128 0.929 . S
H156 C146 0.932 . S
H157 C147 0.930 . S
H158 C148 0.932 . S
H159 C149 0.929 . S
Tb160 C169 2.764 . S
Tb160 O170 2.325 . S
Tb160 O173 2.303 . S
Tb160 O177 2.322 . S
Tb160 O178 2.349 . S
Tb160 O181 2.415 . S
Tb160 O182 2.399 . S
Tb161 O171 2.322 . S
Tb161 O172 2.349 . S
Tb161 O174 2.415 . S
Tb161 O175 2.399 . S
Tb161 O176 2.325 . S
Tb161 O179 2.303 . S
Tb161 C190 2.764 . S
C162 O178 1.261 . S
C162 O179 1.257 . S
C163 C166 1.358 . S
C163 C167 1.332 . S
C163 C169 1.504 . S
C164 C165 1.373 . S
C164 C168 1.308 . S
C165 C164 1.373 . S
C165 C166 1.429 . S
C165 H192 0.932 . S
C166 C163 1.358 . S
C166 C165 1.429 . S
C166 H193 0.930 . S
C167 C163 1.332 . S
C167 C168 1.394 . S
C167 H194 0.932 . S
C168 C164 1.308 . S
C168 C167 1.394 . S
C168 H195 0.929 . S
C169 Tb160 2.764 . S
C169 C163 1.504 . S
C169 O181 1.239 . S
C169 O182 1.263 . S
O170 Tb160 2.325 . S
O170 C180 1.236 . S
O171 Tb161 2.322 . S
O171 C180 1.257 . S
O172 Tb161 2.349 . S
O172 C183 1.261 . S
O173 Tb160 2.303 . S
O173 C183 1.257 . S
O174 Tb161 2.415 . S
O174 C190 1.239 . S
O175 Tb161 2.399 . S
O175 C190 1.263 . S
O176 Tb161 2.325 . S
O176 C191 1.236 . S
O177 Tb160 2.322 . S
O177 C191 1.257 . S
O178 Tb160 2.349 . S
O178 C162 1.261 . S
O179 Tb161 2.303 . S
O179 C162 1.257 . S
C180 O170 1.236 . S
C180 O171 1.257 . S
O181 Tb160 2.415 . S
O181 C169 1.239 . S
O182 Tb160 2.399 . S
O182 C169 1.263 . S
C183 O172 1.261 . S
C183 O173 1.257 . S
C184 C187 1.358 . S
C184 C188 1.332 . S
C184 C190 1.504 . S
C185 C186 1.373 . S
C185 C189 1.308 . S
C186 C185 1.373 . S
C186 C187 1.429 1_556 S
C186 H196 0.932 . S
C187 C184 1.358 . S
C187 C186 1.429 1_554 S
C187 H197 0.930 . S
C188 C184 1.332 . S
C188 C189 1.394 1_554 S
C188 H198 0.932 . S
C189 C185 1.308 . S
C189 C188 1.394 1_556 S
C189 H199 0.929 . S
C190 Tb161 2.764 . S
C190 O174 1.239 . S
C190 O175 1.263 . S
C190 C184 1.504 . S
C191 O176 1.236 . S
C191 O177 1.257 . S
H192 C165 0.932 . S
H193 C166 0.930 . S
H194 C167 0.932 . S
H195 C168 0.929 . S
H196 C186 0.932 . S
H197 C187 0.930 . S
H198 C188 0.932 . S
H199 C189 0.929 . S
Tb200 C209 2.764 . S
Tb200 O210 2.325 . S
Tb200 O213 2.303 . S
Tb200 O217 2.322 . S
Tb200 O218 2.349 . S
Tb200 O221 2.415 . S
Tb200 O222 2.399 . S
Tb201 O211 2.322 . S
Tb201 O212 2.349 . S
Tb201 O214 2.415 . S
Tb201 O215 2.399 . S
Tb201 O216 2.325 . S
Tb201 O219 2.303 . S
Tb201 C230 2.764 . S
C202 O218 1.261 . S
C202 O219 1.257 . S
C203 C206 1.358 . S
C203 C207 1.332 . S
C203 C209 1.504 . S
C204 C205 1.373 . S
C204 C208 1.308 . S
C205 C204 1.373 . S
C205 C206 1.429 1_554 S
C205 H232 0.932 . S
C206 C203 1.358 . S
C206 C205 1.429 1_556 S
C206 H233 0.930 . S
C207 C203 1.332 . S
C207 C208 1.394 1_556 S
C207 H234 0.932 . S
C208 C204 1.308 . S
C208 C207 1.394 1_554 S
C208 H235 0.929 . S
C209 Tb200 2.764 . S
C209 C203 1.504 . S
C209 O221 1.239 . S
C209 O222 1.263 . S
O210 Tb200 2.325 . S
O210 C220 1.236 . S
O211 Tb201 2.322 . S
O211 C220 1.257 . S
O212 Tb201 2.349 . S
O212 C223 1.261 . S
O213 Tb200 2.303 . S
O213 C223 1.257 . S
O214 Tb201 2.415 . S
O214 C230 1.239 . S
O215 Tb201 2.399 . S
O215 C230 1.263 . S
O216 Tb201 2.325 . S
O216 C231 1.236 . S
O217 Tb200 2.322 . S
O217 C231 1.257 . S
O218 Tb200 2.349 . S
O218 C202 1.261 . S
O219 Tb201 2.303 . S
O219 C202 1.257 . S
C220 O210 1.236 . S
C220 O211 1.257 . S
O221 Tb200 2.415 . S
O221 C209 1.239 . S
O222 Tb200 2.399 . S
O222 C209 1.263 . S
C223 O212 1.261 . S
C223 O213 1.257 . S
C224 C227 1.358 . S
C224 C228 1.332 . S
C224 C230 1.504 . S
C225 C226 1.373 . S
C225 C229 1.308 . S
C226 C225 1.373 . S
C226 C227 1.429 . S
C226 H236 0.932 . S
C227 C224 1.358 . S
C227 C226 1.429 . S
C227 H237 0.930 . S
C228 C224 1.332 . S
C228 C229 1.394 . S
C228 H238 0.932 . S
C229 C225 1.308 . S
C229 C228 1.394 . S
C229 H239 0.929 . S
C230 Tb201 2.764 . S
C230 O214 1.239 . S
C230 O215 1.263 . S
C230 C224 1.504 . S
C231 O216 1.236 . S
C231 O217 1.257 . S
H232 C205 0.932 . S
H233 C206 0.930 . S
H234 C207 0.932 . S
H235 C208 0.929 . S
H236 C226 0.932 . S
H237 C227 0.930 . S
H238 C228 0.932 . S
H239 C229 0.929 . S
Tb240 C249 2.764 . S
Tb240 O250 2.325 . S
Tb240 O253 2.303 . S
Tb240 O257 2.322 1_554 S
Tb240 O258 2.349 . S
Tb240 O261 2.415 . S
Tb240 O262 2.399 . S
Tb241 O251 2.322 1_556 S
Tb241 O252 2.349 . S
Tb241 O254 2.415 . S
Tb241 O255 2.399 . S
Tb241 O256 2.325 . S
Tb241 O259 2.303 . S
Tb241 C270 2.764 . S
C242 O258 1.261 1_556 S
C242 O259 1.257 . S
C243 C246 1.358 . S
C243 C247 1.332 . S
C243 C249 1.504 . S
C244 C245 1.373 . S
C244 C248 1.308 . S
C245 C244 1.373 . S
C245 C246 1.429 . S
C245 H272 0.932 . S
C246 C243 1.358 . S
C246 C245 1.429 . S
C246 H273 0.930 . S
C247 C243 1.332 . S
C247 C248 1.394 . S
C247 H274 0.932 . S
C248 C244 1.308 . S
C248 C247 1.394 . S
C248 H275 0.929 . S
C249 Tb240 2.764 . S
C249 C243 1.504 . S
C249 O261 1.239 . S
C249 O262 1.263 . S
O250 Tb240 2.325 . S
O250 C260 1.236 . S
O251 Tb241 2.322 1_554 S
O251 C260 1.257 . S
O252 Tb241 2.349 . S
O252 C263 1.261 1_556 S
O253 Tb240 2.303 . S
O253 C263 1.257 . S
O254 Tb241 2.415 . S
O254 C270 1.239 . S
O255 Tb241 2.399 . S
O255 C270 1.263 . S
O256 Tb241 2.325 . S
O256 C271 1.236 . S
O257 Tb240 2.322 1_556 S
O257 C271 1.257 . S
O258 Tb240 2.349 . S
O258 C242 1.261 1_554 S
O259 Tb241 2.303 . S
O259 C242 1.257 . S
C260 O250 1.236 . S
C260 O251 1.257 . S
O261 Tb240 2.415 . S
O261 C249 1.239 . S
O262 Tb240 2.399 . S
O262 C249 1.263 . S
C263 O252 1.261 1_554 S
C263 O253 1.257 . S
C264 C267 1.358 . S
C264 C268 1.332 . S
C264 C270 1.504 . S
C265 C266 1.373 . S
C265 C269 1.308 . S
C266 C265 1.373 . S
C266 C267 1.429 . S
C266 H276 0.932 . S
C267 C264 1.358 . S
C267 C266 1.429 . S
C267 H277 0.930 . S
C268 C264 1.332 . S
C268 C269 1.394 . S
C268 H278 0.932 . S
C269 C265 1.308 . S
C269 C268 1.394 . S
C269 H279 0.929 . S
C270 Tb241 2.764 . S
C270 O254 1.239 . S
C270 O255 1.263 . S
C270 C264 1.504 . S
C271 O256 1.236 . S
C271 O257 1.257 . S
H272 C245 0.932 . S
H273 C246 0.930 . S
H274 C247 0.932 . S
H275 C248 0.929 . S
H276 C266 0.932 . S
H277 C267 0.930 . S
H278 C268 0.932 . S
H279 C269 0.929 . S
Tb280 C289 2.764 1_655 S
Tb280 O290 2.325 1_655 S
Tb280 O293 2.303 . S
Tb280 O297 2.322 . S
Tb280 O298 2.349 1_655 S
Tb280 O301 2.415 . S
Tb280 O302 2.399 1_655 S
Tb281 O291 2.322 . S
Tb281 O292 2.349 1_455 S
Tb281 O294 2.415 . S
Tb281 O295 2.399 1_455 S
Tb281 O296 2.325 1_455 S
Tb281 O299 2.303 . S
Tb281 C310 2.764 1_455 S
C282 O298 1.261 . S
C282 O299 1.257 . S
C283 C286 1.358 . S
C283 C287 1.332 . S
C283 C289 1.504 . S
C284 C285 1.373 . S
C284 C288 1.308 . S
C285 C284 1.373 . S
C285 C286 1.429 . S
C285 H312 0.932 . S
C286 C283 1.358 . S
C286 C285 1.429 . S
C286 H313 0.930 . S
C287 C283 1.332 . S
C287 C288 1.394 . S
C287 H314 0.932 1_455 S
C288 C284 1.308 . S
C288 C287 1.394 . S
C288 H315 0.929 . S
C289 Tb280 2.764 1_455 S
C289 C283 1.504 . S
C289 O301 1.239 1_455 S
C289 O302 1.263 . S
O290 Tb280 2.325 1_455 S
O290 C300 1.236 . S
O291 Tb281 2.322 . S
O291 C300 1.257 . S
O292 Tb281 2.349 1_655 S
O292 C303 1.261 . S
O293 Tb280 2.303 . S
O293 C303 1.257 . S
O294 Tb281 2.415 . S
O294 C310 1.239 1_455 S
O295 Tb281 2.399 1_655 S
O295 C310 1.263 . S
O296 Tb281 2.325 1_655 S
O296 C311 1.236 . S
O297 Tb280 2.322 . S
O297 C311 1.257 . S
O298 Tb280 2.349 1_455 S
O298 C282 1.261 . S
O299 Tb281 2.303 . S
O299 C282 1.257 . S
C300 O290 1.236 . S
C300 O291 1.257 . S
O301 Tb280 2.415 . S
O301 C289 1.239 1_655 S
O302 Tb280 2.399 1_455 S
O302 C289 1.263 . S
C303 O292 1.261 . S
C303 O293 1.257 . S
C304 C307 1.358 . S
C304 C308 1.332 . S
C304 C310 1.504 . S
C305 C306 1.373 . S
C305 C309 1.308 . S
C306 C305 1.373 . S
C306 C307 1.429 . S
C306 H316 0.932 . S
C307 C304 1.358 . S
C307 C306 1.429 . S
C307 H317 0.930 . S
C308 C304 1.332 . S
C308 C309 1.394 . S
C308 H318 0.932 1_655 S
C309 C305 1.308 . S
C309 C308 1.394 . S
C309 H319 0.929 . S
C310 Tb281 2.764 1_655 S
C310 O294 1.239 1_655 S
C310 O295 1.263 . S
C310 C304 1.504 . S
C311 O296 1.236 . S
C311 O297 1.257 . S
H312 C285 0.932 . S
H313 C286 0.930 . S
H314 C287 0.932 1_655 S
H315 C288 0.929 . S
H316 C306 0.932 . S
H317 C307 0.930 . S
H318 C308 0.932 1_455 S
H319 C309 0.929 . S
C320 C321 1.391 . S
C320 C322 1.394 . S
C320 H336 0.931 . S
C321 C320 1.391 . S
C321 C325 1.376 . S
C322 C320 1.394 . S
C322 C323 1.369 . S
C322 C326 1.531 . S
C323 C322 1.369 . S
C323 C324 1.410 . S
C323 C331 1.503 . S
C324 C323 1.410 . S
C324 C325 1.392 . S
C324 C327 1.511 . S
C325 C321 1.376 . S
C325 C324 1.392 . S
C325 H337 0.929 . S
C326 C322 1.531 . S
C326 H338 0.960 . S
C326 H339 0.962 . S
C326 H340 0.960 . S
C327 C324 1.511 . S
C327 H341 0.961 . S
C327 H342 0.961 . S
C327 H343 0.961 . S
C328 C329 1.370 . S
C328 C330 1.363 . S
C328 H344 0.931 . S
C329 C328 1.370 . S
C329 C333 1.408 . S
C330 C328 1.363 . S
C330 C331 1.370 . S
C330 C334 1.524 . S
C331 C323 1.503 . S
C331 C330 1.370 . S
C331 C332 1.403 . S
C332 C331 1.403 . S
C332 C333 1.404 . S
C332 C335 1.539 . S
C333 C329 1.408 . S
C333 C332 1.404 . S
C333 H345 0.930 . S
C334 C330 1.524 . S
C334 H346 0.956 . S
C334 H347 0.961 . S
C334 H348 0.961 . S
C335 C332 1.539 . S
C335 H349 0.958 . S
C335 H350 0.961 . S
C335 H351 0.960 . S
H336 C320 0.931 . S
H337 C325 0.929 . S
H338 C326 0.960 . S
H339 C326 0.962 . S
H340 C326 0.960 . S
H341 C327 0.961 . S
H342 C327 0.961 . S
H343 C327 0.961 . S
H344 C328 0.931 . S
H345 C333 0.930 . S
H346 C334 0.956 . S
H347 C334 0.961 . S
H348 C334 0.961 . S
H349 C335 0.958 . S
H350 C335 0.961 . S
H351 C335 0.960 . S
C352 C353 1.391 . S
C352 C354 1.394 . S
C352 H368 0.931 . S
C353 C352 1.391 . S
C353 C357 1.376 . S
C354 C352 1.394 . S
C354 C355 1.369 . S
C354 C358 1.531 . S
C355 C354 1.369 . S
C355 C356 1.410 . S
C355 C363 1.503 . S
C356 C355 1.410 . S
C356 C357 1.392 . S
C356 C359 1.511 . S
C357 C353 1.376 . S
C357 C356 1.392 . S
C357 H369 0.929 . S
C358 C354 1.531 . S
C358 H370 0.960 . S
C358 H371 0.962 . S
C358 H372 0.960 . S
C359 C356 1.511 . S
C359 H373 0.961 . S
C359 H374 0.961 . S
C359 H375 0.961 . S
C360 C361 1.370 . S
C360 C362 1.363 . S
C360 H376 0.931 . S
C361 C360 1.370 . S
C361 C365 1.408 . S
C362 C360 1.363 . S
C362 C363 1.370 . S
C362 C366 1.524 . S
C363 C355 1.503 . S
C363 C362 1.370 . S
C363 C364 1.403 . S
C364 C363 1.403 . S
C364 C365 1.404 . S
C364 C367 1.539 . S
C365 C361 1.408 . S
C365 C364 1.404 . S
C365 H377 0.930 . S
C366 C362 1.524 . S
C366 H378 0.956 . S
C366 H379 0.961 . S
C366 H380 0.961 . S
C367 C364 1.539 . S
C367 H381 0.958 . S
C367 H382 0.961 . S
C367 H383 0.960 . S
H368 C352 0.931 . S
H369 C357 0.929 . S
H370 C358 0.960 . S
H371 C358 0.962 . S
H372 C358 0.960 . S
H373 C359 0.961 . S
H374 C359 0.961 . S
H375 C359 0.961 . S
H376 C360 0.931 . S
H377 C365 0.930 . S
H378 C366 0.956 . S
H379 C366 0.961 . S
H380 C366 0.961 . S
H381 C367 0.958 . S
H382 C367 0.961 . S
H383 C367 0.960 . S
C384 C385 1.391 . S
C384 C386 1.394 . S
C384 H400 0.931 . S
C385 C384 1.391 . S
C385 C389 1.376 . S
C386 C384 1.394 . S
C386 C387 1.369 . S
C386 C390 1.531 . S
C387 C386 1.369 . S
C387 C388 1.410 . S
C387 C395 1.503 . S
C388 C387 1.410 . S
C388 C389 1.392 . S
C388 C391 1.511 . S
C389 C385 1.376 . S
C389 C388 1.392 . S
C389 H401 0.929 . S
C390 C386 1.531 . S
C390 H402 0.960 . S
C390 H403 0.962 . S
C390 H404 0.960 . S
C391 C388 1.511 . S
C391 H405 0.961 . S
C391 H406 0.961 . S
C391 H407 0.961 . S
C392 C393 1.370 . S
C392 C394 1.363 . S
C392 H408 0.931 . S
C393 C392 1.370 . S
C393 C397 1.408 . S
C394 C392 1.363 . S
C394 C395 1.370 . S
C394 C398 1.524 . S
C395 C387 1.503 . S
C395 C394 1.370 . S
C395 C396 1.403 . S
C396 C395 1.403 . S
C396 C397 1.404 . S
C396 C399 1.539 . S
C397 C393 1.408 . S
C397 C396 1.404 . S
C397 H409 0.930 . S
C398 C394 1.524 . S
C398 H410 0.956 . S
C398 H411 0.961 . S
C398 H412 0.961 . S
C399 C396 1.539 . S
C399 H413 0.958 . S
C399 H414 0.961 . S
C399 H415 0.960 . S
H400 C384 0.931 . S
H401 C389 0.929 . S
H402 C390 0.960 . S
H403 C390 0.962 . S
H404 C390 0.960 . S
H405 C391 0.961 . S
H406 C391 0.961 . S
H407 C391 0.961 . S
H408 C392 0.931 . S
H409 C397 0.930 . S
H410 C398 0.956 . S
H411 C398 0.961 . S
H412 C398 0.961 . S
H413 C399 0.958 . S
H414 C399 0.961 . S
H415 C399 0.960 . S
C416 C417 1.391 . S
C416 C418 1.394 . S
C416 H432 0.931 . S
C417 C416 1.391 . S
C417 C421 1.376 . S
C418 C416 1.394 . S
C418 C419 1.369 . S
C418 C422 1.531 . S
C419 C418 1.369 . S
C419 C420 1.410 . S
C419 C427 1.503 . S
C420 C419 1.410 . S
C420 C421 1.392 . S
C420 C423 1.511 . S
C421 C417 1.376 . S
C421 C420 1.392 . S
C421 H433 0.929 . S
C422 C418 1.531 . S
C422 H434 0.960 . S
C422 H435 0.962 . S
C422 H436 0.960 . S
C423 C420 1.511 . S
C423 H437 0.961 . S
C423 H438 0.961 . S
C423 H439 0.961 . S
C424 C425 1.370 . S
C424 C426 1.363 . S
C424 H440 0.931 . S
C425 C424 1.370 . S
C425 C429 1.408 . S
C426 C424 1.363 . S
C426 C427 1.370 . S
C426 C430 1.524 . S
C427 C419 1.503 . S
C427 C426 1.370 . S
C427 C428 1.403 . S
C428 C427 1.403 . S
C428 C429 1.404 . S
C428 C431 1.539 . S
C429 C425 1.408 . S
C429 C428 1.404 . S
C429 H441 0.930 . S
C430 C426 1.524 . S
C430 H442 0.956 . S
C430 H443 0.961 . S
C430 H444 0.961 . S
C431 C428 1.539 . S
C431 H445 0.958 . S
C431 H446 0.961 . S
C431 H447 0.960 . S
H432 C416 0.931 . S
H433 C421 0.929 . S
H434 C422 0.960 . S
H435 C422 0.962 . S
H436 C422 0.960 . S
H437 C423 0.961 . S
H438 C423 0.961 . S
H439 C423 0.961 . S
H440 C424 0.931 . S
H441 C429 0.930 . S
H442 C430 0.956 . S
H443 C430 0.961 . S
H444 C430 0.961 . S
H445 C431 0.958 . S
H446 C431 0.961 . S
H447 C431 0.960 . S
C448 C449 1.391 . S
C448 C450 1.394 . S
C448 H464 0.931 . S
C449 C448 1.391 . S
C449 C453 1.376 . S
C450 C448 1.394 . S
C450 C451 1.369 . S
C450 C454 1.531 . S
C451 C450 1.369 . S
C451 C452 1.410 . S
C451 C459 1.503 . S
C452 C451 1.410 . S
C452 C453 1.392 . S
C452 C455 1.511 . S
C453 C449 1.376 . S
C453 C452 1.392 . S
C453 H465 0.929 . S
C454 C450 1.531 . S
C454 H466 0.960 . S
C454 H467 0.962 . S
C454 H468 0.960 . S
C455 C452 1.511 . S
C455 H469 0.961 . S
C455 H470 0.961 . S
C455 H471 0.961 . S
C456 C457 1.370 . S
C456 C458 1.363 . S
C456 H472 0.931 . S
C457 C456 1.370 . S
C457 C461 1.408 . S
C458 C456 1.363 . S
C458 C459 1.370 . S
C458 C462 1.524 . S
C459 C451 1.503 . S
C459 C458 1.370 . S
C459 C460 1.403 . S
C460 C459 1.403 . S
C460 C461 1.404 . S
C460 C463 1.539 . S
C461 C457 1.408 . S
C461 C460 1.404 . S
C461 H473 0.930 . S
C462 C458 1.524 . S
C462 H474 0.956 . S
C462 H475 0.961 . S
C462 H476 0.961 . S
C463 C460 1.539 . S
C463 H477 0.958 . S
C463 H478 0.961 . S
C463 H479 0.960 . S
H464 C448 0.931 . S
H465 C453 0.929 . S
H466 C454 0.960 . S
H467 C454 0.962 . S
H468 C454 0.960 . S
H469 C455 0.961 . S
H470 C455 0.961 . S
H471 C455 0.961 . S
H472 C456 0.931 . S
H473 C461 0.930 . S
H474 C462 0.956 . S
H475 C462 0.961 . S
H476 C462 0.961 . S
H477 C463 0.958 . S
H478 C463 0.961 . S
H479 C463 0.960 . S
C480 C481 1.391 . S
C480 C482 1.394 . S
C480 H496 0.931 . S
C481 C480 1.391 . S
C481 C485 1.376 . S
C482 C480 1.394 . S
C482 C483 1.369 . S
C482 C486 1.531 . S
C483 C482 1.369 . S
C483 C484 1.410 . S
C483 C491 1.503 . S
C484 C483 1.410 . S
C484 C485 1.392 . S
C484 C487 1.511 . S
C485 C481 1.376 . S
C485 C484 1.392 . S
C485 H497 0.929 . S
C486 C482 1.531 . S
C486 H498 0.960 . S
C486 H499 0.962 . S
C486 H500 0.960 . S
C487 C484 1.511 . S
C487 H501 0.961 . S
C487 H502 0.961 . S
C487 H503 0.961 . S
C488 C489 1.370 . S
C488 C490 1.363 . S
C488 H504 0.931 . S
C489 C488 1.370 . S
C489 C493 1.408 . S
C490 C488 1.363 . S
C490 C491 1.370 . S
C490 C494 1.524 . S
C491 C483 1.503 . S
C491 C490 1.370 . S
C491 C492 1.403 . S
C492 C491 1.403 . S
C492 C493 1.404 . S
C492 C495 1.539 . S
C493 C489 1.408 . S
C493 C492 1.404 . S
C493 H505 0.930 . S
C494 C490 1.524 . S
C494 H506 0.956 . S
C494 H507 0.961 . S
C494 H508 0.961 . S
C495 C492 1.539 . S
C495 H509 0.958 . S
C495 H510 0.961 . S
C495 H511 0.960 . S
H496 C480 0.931 . S
H497 C485 0.929 . S
H498 C486 0.960 . S
H499 C486 0.962 . S
H500 C486 0.960 . S
H501 C487 0.961 . S
H502 C487 0.961 . S
H503 C487 0.961 . S
H504 C488 0.931 . S
H505 C493 0.930 . S
H506 C494 0.956 . S
H507 C494 0.961 . S
H508 C494 0.961 . S
H509 C495 0.958 . S
H510 C495 0.961 . S
H511 C495 0.960 . S
C512 C513 1.391 . S
C512 C514 1.394 . S
C512 H528 0.931 . S
C513 C512 1.391 . S
C513 C517 1.376 . S
C514 C512 1.394 . S
C514 C515 1.369 . S
C514 C518 1.531 . S
C515 C514 1.369 . S
C515 C516 1.410 . S
C515 C523 1.503 . S
C516 C515 1.410 . S
C516 C517 1.392 . S
C516 C519 1.511 . S
C517 C513 1.376 . S
C517 C516 1.392 . S
C517 H529 0.929 . S
C518 C514 1.531 . S
C518 H530 0.960 . S
C518 H531 0.962 . S
C518 H532 0.960 . S
C519 C516 1.511 . S
C519 H533 0.961 . S
C519 H534 0.961 . S
C519 H535 0.961 . S
C520 C521 1.370 . S
C520 C522 1.363 . S
C520 H536 0.931 . S
C521 C520 1.370 . S
C521 C525 1.408 . S
C522 C520 1.363 . S
C522 C523 1.370 . S
C522 C526 1.524 . S
C523 C515 1.503 . S
C523 C522 1.370 . S
C523 C524 1.403 . S
C524 C523 1.403 . S
C524 C525 1.404 . S
C524 C527 1.539 . S
C525 C521 1.408 . S
C525 C524 1.404 . S
C525 H537 0.930 . S
C526 C522 1.524 . S
C526 H538 0.956 . S
C526 H539 0.961 . S
C526 H540 0.961 . S
C527 C524 1.539 . S
C527 H541 0.958 . S
C527 H542 0.961 . S
C527 H543 0.960 . S
H528 C512 0.931 . S
H529 C517 0.929 . S
H530 C518 0.960 . S
H531 C518 0.962 . S
H532 C518 0.960 . S
H533 C519 0.961 . S
H534 C519 0.961 . S
H535 C519 0.961 . S
H536 C520 0.931 . S
H537 C525 0.930 . S
H538 C526 0.956 . S
H539 C526 0.961 . S
H540 C526 0.961 . S
H541 C527 0.958 . S
H542 C527 0.961 . S
H543 C527 0.960 . S
C544 C545 1.391 . S
C544 C546 1.394 . S
C544 H560 0.931 . S
C545 C544 1.391 . S
C545 C549 1.376 . S
C546 C544 1.394 . S
C546 C547 1.369 . S
C546 C550 1.531 . S
C547 C546 1.369 . S
C547 C548 1.410 . S
C547 C555 1.503 . S
C548 C547 1.410 . S
C548 C549 1.392 . S
C548 C551 1.511 . S
C549 C545 1.376 . S
C549 C548 1.392 . S
C549 H561 0.929 . S
C550 C546 1.531 . S
C550 H562 0.960 . S
C550 H563 0.962 . S
C550 H564 0.960 . S
C551 C548 1.511 . S
C551 H565 0.961 . S
C551 H566 0.961 . S
C551 H567 0.961 . S
C552 C553 1.370 . S
C552 C554 1.363 . S
C552 H568 0.931 . S
C553 C552 1.370 . S
C553 C557 1.408 . S
C554 C552 1.363 . S
C554 C555 1.370 . S
C554 C558 1.524 . S
C555 C547 1.503 . S
C555 C554 1.370 . S
C555 C556 1.403 . S
C556 C555 1.403 . S
C556 C557 1.404 . S
C556 C559 1.539 . S
C557 C553 1.408 . S
C557 C556 1.404 . S
C557 H569 0.930 1_556 S
C558 C554 1.524 . S
C558 H570 0.956 . S
C558 H571 0.961 . S
C558 H572 0.961 . S
C559 C556 1.539 . S
C559 H573 0.957 1_556 S
C559 H574 0.961 1_556 S
C559 H575 0.960 . S
H560 C544 0.931 . S
H561 C549 0.929 . S
H562 C550 0.960 . S
H563 C550 0.962 . S
H564 C550 0.960 . S
H565 C551 0.961 . S
H566 C551 0.961 . S
H567 C551 0.961 . S
H568 C552 0.931 . S
H569 C557 0.930 1_554 S
H570 C558 0.956 . S
H571 C558 0.961 . S
H572 C558 0.961 . S
H573 C559 0.957 1_554 S
H574 C559 0.961 1_554 S
H575 C559 0.960 . S
C576 C577 1.391 . S
C576 C578 1.394 . S
C576 H592 0.931 . S
C577 C576 1.391 . S
C577 C581 1.376 . S
C578 C576 1.394 . S
C578 C579 1.369 . S
C578 C582 1.531 . S
C579 C578 1.369 . S
C579 C580 1.410 . S
C579 C587 1.503 . S
C580 C579 1.410 . S
C580 C581 1.392 . S
C580 C583 1.511 . S
C581 C577 1.376 . S
C581 C580 1.392 . S
C581 H593 0.929 . S
C582 C578 1.531 . S
C582 H594 0.960 . S
C582 H595 0.962 . S
C582 H596 0.960 . S
C583 C580 1.511 . S
C583 H597 0.961 . S
C583 H598 0.961 . S
C583 H599 0.961 . S
C584 C585 1.370 . S
C584 C586 1.363 . S
C584 H600 0.931 . S
C585 C584 1.370 . S
C585 C589 1.408 . S
C586 C584 1.363 . S
C586 C587 1.370 . S
C586 C590 1.524 . S
C587 C579 1.503 . S
C587 C586 1.370 . S
C587 C588 1.403 . S
C588 C587 1.403 . S
C588 C589 1.404 . S
C588 C591 1.539 . S
C589 C585 1.408 . S
C589 C588 1.404 . S
C589 H601 0.930 . S
C590 C586 1.524 . S
C590 H602 0.956 . S
C590 H603 0.961 . S
C590 H604 0.961 . S
C591 C588 1.539 . S
C591 H605 0.958 . S
C591 H606 0.961 . S
C591 H607 0.960 . S
H592 C576 0.931 . S
H593 C581 0.929 . S
H594 C582 0.960 . S
H595 C582 0.962 . S
H596 C582 0.960 . S
H597 C583 0.961 . S
H598 C583 0.961 . S
H599 C583 0.961 . S
H600 C584 0.931 . S
H601 C589 0.930 . S
H602 C590 0.956 . S
H603 C590 0.961 . S
H604 C590 0.961 . S
H605 C591 0.958 . S
H606 C591 0.961 . S
H607 C591 0.960 . S
C608 C609 1.391 . S
C608 C610 1.394 . S
C608 H624 0.931 . S
C609 C608 1.391 . S
C609 C613 1.376 . S
C610 C608 1.394 . S
C610 C611 1.369 . S
C610 C614 1.531 . S
C611 C610 1.369 . S
C611 C612 1.410 . S
C611 C619 1.503 . S
C612 C611 1.410 . S
C612 C613 1.392 . S
C612 C615 1.511 . S
C613 C609 1.376 . S
C613 C612 1.392 . S
C613 H625 0.929 . S
C614 C610 1.531 . S
C614 H626 0.960 . S
C614 H627 0.962 . S
C614 H628 0.960 . S
C615 C612 1.511 . S
C615 H629 0.961 . S
C615 H630 0.961 . S
C615 H631 0.961 . S
C616 C617 1.370 . S
C616 C618 1.363 . S
C616 H632 0.931 . S
C617 C616 1.370 . S
C617 C621 1.408 . S
C618 C616 1.363 . S
C618 C619 1.370 . S
C618 C622 1.524 . S
C619 C611 1.503 . S
C619 C618 1.370 . S
C619 C620 1.403 . S
C620 C619 1.403 . S
C620 C621 1.404 . S
C620 C623 1.539 . S
C621 C617 1.408 . S
C621 C620 1.404 . S
C621 H633 0.930 1_554 S
C622 C618 1.524 . S
C622 H634 0.956 . S
C622 H635 0.961 . S
C622 H636 0.961 . S
C623 C620 1.539 . S
C623 H637 0.958 1_554 S
C623 H638 0.961 1_554 S
C623 H639 0.960 . S
H624 C608 0.931 . S
H625 C613 0.929 . S
H626 C614 0.960 . S
H627 C614 0.962 . S
H628 C614 0.960 . S
H629 C615 0.961 . S
H630 C615 0.961 . S
H631 C615 0.961 . S
H632 C616 0.931 . S
H633 C621 0.930 1_556 S
H634 C622 0.956 . S
H635 C622 0.961 . S
H636 C622 0.961 . S
H637 C623 0.958 1_556 S
H638 C623 0.961 1_556 S
H639 C623 0.960 . S
C640 C641 1.391 . S
C640 C642 1.394 . S
C640 H656 0.931 . S
C641 C640 1.391 . S
C641 C645 1.376 . S
C642 C640 1.394 . S
C642 C643 1.369 . S
C642 C646 1.531 . S
C643 C642 1.369 . S
C643 C644 1.410 . S
C643 C651 1.503 . S
C644 C643 1.410 . S
C644 C645 1.392 . S
C644 C647 1.511 . S
C645 C641 1.376 . S
C645 C644 1.392 . S
C645 H657 0.929 . S
C646 C642 1.531 . S
C646 H658 0.960 . S
C646 H659 0.962 . S
C646 H660 0.960 . S
C647 C644 1.511 . S
C647 H661 0.961 . S
C647 H662 0.961 . S
C647 H663 0.961 . S
C648 C649 1.370 . S
C648 C650 1.363 . S
C648 H664 0.931 . S
C649 C648 1.370 . S
C649 C653 1.408 . S
C650 C648 1.363 . S
C650 C651 1.370 . S
C650 C654 1.524 . S
C651 C643 1.503 . S
C651 C650 1.370 . S
C651 C652 1.403 . S
C652 C651 1.403 . S
C652 C653 1.404 . S
C652 C655 1.539 . S
C653 C649 1.408 . S
C653 C652 1.404 . S
C653 H665 0.930 . S
C654 C650 1.524 . S
C654 H666 0.956 . S
C654 H667 0.961 . S
C654 H668 0.961 . S
C655 C652 1.539 . S
C655 H669 0.958 . S
C655 H670 0.961 . S
C655 H671 0.960 . S
H656 C640 0.931 . S
H657 C645 0.929 . S
H658 C646 0.960 . S
H659 C646 0.962 . S
H660 C646 0.960 . S
H661 C647 0.961 . S
H662 C647 0.961 . S
H663 C647 0.961 . S
H664 C648 0.931 . S
H665 C653 0.930 . S
H666 C654 0.956 . S
H667 C654 0.961 . S
H668 C654 0.961 . S
H669 C655 0.958 . S
H670 C655 0.961 . S
H671 C655 0.960 . S
C672 C673 1.391 . S
C672 C674 1.394 . S
C672 H688 0.931 . S
C673 C672 1.391 . S
C673 C677 1.376 . S
C674 C672 1.394 . S
C674 C675 1.369 . S
C674 C678 1.531 . S
C675 C674 1.369 . S
C675 C676 1.410 . S
C675 C683 1.503 . S
C676 C675 1.410 . S
C676 C677 1.392 . S
C676 C679 1.511 . S
C677 C673 1.376 . S
C677 C676 1.392 . S
C677 H689 0.929 . S
C678 C674 1.531 . S
C678 H690 0.960 . S
C678 H691 0.962 . S
C678 H692 0.960 . S
C679 C676 1.511 . S
C679 H693 0.961 . S
C679 H694 0.961 . S
C679 H695 0.961 . S
C680 C681 1.370 . S
C680 C682 1.363 . S
C680 H696 0.931 . S
C681 C680 1.370 . S
C681 C685 1.408 . S
C682 C680 1.363 . S
C682 C683 1.370 . S
C682 C686 1.524 . S
C683 C675 1.503 . S
C683 C682 1.370 . S
C683 C684 1.403 . S
C684 C683 1.403 . S
C684 C685 1.404 . S
C684 C687 1.539 . S
C685 C681 1.408 . S
C685 C684 1.404 . S
C685 H697 0.930 . S
C686 C682 1.524 . S
C686 H698 0.956 . S
C686 H699 0.961 . S
C686 H700 0.961 . S
C687 C684 1.539 . S
C687 H701 0.958 . S
C687 H702 0.961 . S
C687 H703 0.960 . S
H688 C672 0.931 . S
H689 C677 0.929 . S
H690 C678 0.960 . S
H691 C678 0.962 . S
H692 C678 0.960 . S
H693 C679 0.961 . S
H694 C679 0.961 . S
H695 C679 0.961 . S
H696 C680 0.931 . S
H697 C685 0.930 . S
H698 C686 0.956 . S
H699 C686 0.961 . S
H700 C686 0.961 . S
H701 C687 0.958 . S
H702 C687 0.961 . S
H703 C687 0.960 . S
C704 C705 1.391 . S
C704 C706 1.394 . S
C704 H720 0.931 . S
C705 C704 1.391 . S
C705 C709 1.376 . S
C706 C704 1.394 . S
C706 C707 1.369 . S
C706 C710 1.531 . S
C707 C706 1.369 . S
C707 C708 1.410 . S
C707 C715 1.503 . S
C708 C707 1.410 . S
C708 C709 1.392 . S
C708 C711 1.511 . S
C709 C705 1.376 . S
C709 C708 1.392 . S
C709 H721 0.929 . S
C710 C706 1.531 . S
C710 H722 0.960 . S
C710 H723 0.962 . S
C710 H724 0.960 . S
C711 C708 1.511 . S
C711 H725 0.961 . S
C711 H726 0.961 . S
C711 H727 0.961 . S
C712 C713 1.370 . S
C712 C714 1.363 . S
C712 H728 0.931 . S
C713 C712 1.370 . S
C713 C717 1.408 . S
C714 C712 1.363 . S
C714 C715 1.370 . S
C714 C718 1.524 . S
C715 C707 1.503 . S
C715 C714 1.370 . S
C715 C716 1.403 . S
C716 C715 1.403 . S
C716 C717 1.404 . S
C716 C719 1.539 . S
C717 C713 1.408 . S
C717 C716 1.404 . S
C717 H729 0.930 . S
C718 C714 1.524 . S
C718 H730 0.956 . S
C718 H731 0.961 . S
C718 H732 0.961 . S
C719 C716 1.539 . S
C719 H733 0.958 . S
C719 H734 0.961 . S
C719 H735 0.960 . S
H720 C704 0.931 . S
H721 C709 0.929 . S
H722 C710 0.960 . S
H723 C710 0.962 . S
H724 C710 0.960 . S
H725 C711 0.961 . S
H726 C711 0.961 . S
H727 C711 0.961 . S
H728 C712 0.931 . S
H729 C717 0.930 . S
H730 C718 0.956 . S
H731 C718 0.961 . S
H732 C718 0.961 . S
H733 C719 0.958 . S
H734 C719 0.961 . S
H735 C719 0.960 . S
C736 C737 1.391 . S
C736 C738 1.394 . S
C736 H752 0.931 . S
C737 C736 1.391 . S
C737 C741 1.376 . S
C738 C736 1.394 . S
C738 C739 1.369 . S
C738 C742 1.531 . S
C739 C738 1.369 . S
C739 C740 1.410 . S
C739 C747 1.503 . S
C740 C739 1.410 . S
C740 C741 1.392 . S
C740 C743 1.511 . S
C741 C737 1.376 . S
C741 C740 1.392 . S
C741 H753 0.929 . S
C742 C738 1.531 . S
C742 H754 0.960 . S
C742 H755 0.962 . S
C742 H756 0.960 . S
C743 C740 1.511 . S
C743 H757 0.961 . S
C743 H758 0.961 . S
C743 H759 0.961 . S
C744 C745 1.370 . S
C744 C746 1.363 . S
C744 H760 0.931 . S
C745 C744 1.370 . S
C745 C749 1.408 . S
C746 C744 1.363 . S
C746 C747 1.370 . S
C746 C750 1.524 . S
C747 C739 1.503 . S
C747 C746 1.370 . S
C747 C748 1.403 . S
C748 C747 1.403 . S
C748 C749 1.404 . S
C748 C751 1.539 . S
C749 C745 1.408 . S
C749 C748 1.404 . S
C749 H761 0.930 . S
C750 C746 1.524 . S
C750 H762 0.956 . S
C750 H763 0.961 . S
C750 H764 0.961 . S
C751 C748 1.539 . S
C751 H765 0.958 . S
C751 H766 0.961 . S
C751 H767 0.960 . S
H752 C736 0.931 . S
H753 C741 0.929 . S
H754 C742 0.960 . S
H755 C742 0.962 . S
H756 C742 0.960 . S
H757 C743 0.961 . S
H758 C743 0.961 . S
H759 C743 0.961 . S
H760 C744 0.931 . S
H761 C749 0.930 . S
H762 C750 0.956 . S
H763 C750 0.961 . S
H764 C750 0.961 . S
H765 C751 0.958 . S
H766 C751 0.961 . S
H767 C751 0.960 . S
C768 C769 1.391 . S
C768 C770 1.394 . S
C768 H784 0.931 . S
C769 C768 1.391 . S
C769 C773 1.376 . S
C770 C768 1.394 . S
C770 C771 1.369 . S
C770 C774 1.531 . S
C771 C770 1.369 . S
C771 C772 1.410 . S
C771 C779 1.503 . S
C772 C771 1.410 . S
C772 C773 1.392 . S
C772 C775 1.511 . S
C773 C769 1.376 . S
C773 C772 1.392 . S
C773 H785 0.929 . S
C774 C770 1.531 . S
C774 H786 0.960 . S
C774 H787 0.962 . S
C774 H788 0.960 . S
C775 C772 1.511 . S
C775 H789 0.961 . S
C775 H790 0.961 . S
C775 H791 0.961 . S
C776 C777 1.370 . S
C776 C778 1.363 . S
C776 H792 0.931 . S
C777 C776 1.370 . S
C777 C781 1.408 . S
C778 C776 1.363 . S
C778 C779 1.370 . S
C778 C782 1.524 . S
C779 C771 1.503 . S
C779 C778 1.370 . S
C779 C780 1.403 . S
C780 C779 1.403 . S
C780 C781 1.404 . S
C780 C783 1.539 . S
C781 C777 1.408 . S
C781 C780 1.404 . S
C781 H793 0.930 . S
C782 C778 1.524 . S
C782 H794 0.956 . S
C782 H795 0.961 . S
C782 H796 0.961 . S
C783 C780 1.539 . S
C783 H797 0.958 . S
C783 H798 0.961 . S
C783 H799 0.960 . S
H784 C768 0.931 . S
H785 C773 0.929 . S
H786 C774 0.960 . S
H787 C774 0.962 . S
H788 C774 0.960 . S
H789 C775 0.961 . S
H790 C775 0.961 . S
H791 C775 0.961 . S
H792 C776 0.931 . S
H793 C781 0.930 . S
H794 C782 0.956 . S
H795 C782 0.961 . S
H796 C782 0.961 . S
H797 C783 0.958 . S
H798 C783 0.961 . S
H799 C783 0.960 . S
C800 C801 1.391 . S
C800 C802 1.394 . S
C800 H816 0.931 . S
C801 C800 1.391 . S
C801 C805 1.376 . S
C802 C800 1.394 . S
C802 C803 1.369 . S
C802 C806 1.531 . S
C803 C802 1.369 . S
C803 C804 1.410 . S
C803 C811 1.503 . S
C804 C803 1.410 . S
C804 C805 1.392 . S
C804 C807 1.511 . S
C805 C801 1.376 . S
C805 C804 1.392 . S
C805 H817 0.929 . S
C806 C802 1.531 . S
C806 H818 0.960 . S
C806 H819 0.962 . S
C806 H820 0.960 . S
C807 C804 1.511 . S
C807 H821 0.961 . S
C807 H822 0.961 . S
C807 H823 0.961 . S
C808 C809 1.370 . S
C808 C810 1.363 . S
C808 H824 0.931 . S
C809 C808 1.370 . S
C809 C813 1.408 . S
C810 C808 1.363 . S
C810 C811 1.370 . S
C810 C814 1.524 . S
C811 C803 1.503 . S
C811 C810 1.370 . S
C811 C812 1.403 . S
C812 C811 1.403 . S
C812 C813 1.404 . S
C812 C815 1.539 . S
C813 C809 1.408 . S
C813 C812 1.404 . S
C813 H825 0.930 . S
C814 C810 1.524 . S
C814 H826 0.956 . S
C814 H827 0.961 . S
C814 H828 0.961 . S
C815 C812 1.539 . S
C815 H829 0.958 . S
C815 H830 0.961 . S
C815 H831 0.960 . S
H816 C800 0.931 . S
H817 C805 0.929 . S
H818 C806 0.960 . S
H819 C806 0.962 . S
H820 C806 0.960 . S
H821 C807 0.961 . S
H822 C807 0.961 . S
H823 C807 0.961 . S
H824 C808 0.931 . S
H825 C813 0.930 . S
H826 C814 0.956 . S
H827 C814 0.961 . S
H828 C814 0.961 . S
H829 C815 0.958 . S
H830 C815 0.961 . S
H831 C815 0.960 . S
C832 C833 1.391 1_455 S
C832 C834 1.394 . S
C832 H848 0.931 . S
C833 C832 1.391 1_655 S
C833 C837 1.376 . S
C834 C832 1.394 . S
C834 C835 1.369 1_455 S
C834 C838 1.531 . S
C835 C834 1.369 1_655 S
C835 C836 1.408 1_545 S
C835 C843 1.503 1_656 S
C836 C835 1.408 1_565 S
C836 C837 1.392 1_565 S
C836 C839 1.513 . S
C837 C833 1.376 . S
C837 C836 1.392 1_545 S
C837 H849 0.929 1_545 S
C838 C834 1.531 . S
C838 H850 0.960 . S
C838 H851 0.962 . S
C838 H852 0.960 . S
C839 C836 1.513 . S
C839 H853 0.961 . S
C839 H854 0.961 1_556 S
C839 H855 0.938 1_566 S
C840 C841 1.370 . S
C840 C842 1.363 . S
C840 H856 0.931 . S
C841 C840 1.370 . S
C841 C845 1.408 1_565 S
C842 C840 1.363 . S
C842 C843 1.370 1_565 S
C842 C846 1.524 1_554 S
C843 C835 1.503 1_454 S
C843 C842 1.370 1_545 S
C843 C844 1.403 1_455 S
C844 C843 1.403 1_655 S
C844 C845 1.404 1_655 S
C844 C847 1.539 . S
C845 C841 1.408 1_545 S
C845 C844 1.404 1_455 S
C845 H857 0.930 . S
C846 C842 1.524 1_556 S
C846 H858 0.956 . S
C846 H859 0.961 . S
C846 H860 0.961 1_556 S
C847 C844 1.539 . S
C847 H861 0.958 . S
C847 H862 0.961 . S
C847 H863 0.960 . S
H848 C832 0.931 . S
H849 C837 0.929 1_565 S
H850 C838 0.960 . S
H851 C838 0.962 . S
H852 C838 0.960 . S
H853 C839 0.961 . S
H854 C839 0.961 1_554 S
H855 C839 0.938 1_544 S
H856 C840 0.931 . S
H857 C845 0.930 . S
H858 C846 0.956 . S
H859 C846 0.961 . S
H860 C846 0.961 1_554 S
H861 C847 0.958 . S
H862 C847 0.961 . S
H863 C847 0.960 . S
C864 C865 1.391 . S
C864 C866 1.394 . S
C864 H880 0.931 . S
C865 C864 1.391 . S
C865 C869 1.376 . S
C866 C864 1.394 . S
C866 C867 1.369 . S
C866 C870 1.531 . S
C867 C866 1.369 . S
C867 C868 1.410 . S
C867 C875 1.503 . S
C868 C867 1.410 . S
C868 C869 1.392 . S
C868 C871 1.511 . S
C869 C865 1.376 . S
C869 C868 1.392 . S
C869 H881 0.929 . S
C870 C866 1.531 . S
C870 H882 0.960 . S
C870 H883 0.962 . S
C870 H884 0.960 . S
C871 C868 1.511 . S
C871 H885 0.961 . S
C871 H886 0.961 . S
C871 H887 0.961 . S
C872 C873 1.370 . S
C872 C874 1.363 . S
C872 H888 0.931 . S
C873 C872 1.370 . S
C873 C877 1.408 . S
C874 C872 1.363 . S
C874 C875 1.370 . S
C874 C878 1.524 . S
C875 C867 1.503 . S
C875 C874 1.370 . S
C875 C876 1.403 . S
C876 C875 1.403 . S
C876 C877 1.404 . S
C876 C879 1.539 . S
C877 C873 1.408 . S
C877 C876 1.404 . S
C877 H889 0.930 . S
C878 C874 1.524 . S
C878 H890 0.956 . S
C878 H891 0.961 . S
C878 H892 0.961 . S
C879 C876 1.539 . S
C879 H893 0.958 . S
C879 H894 0.961 . S
C879 H895 0.960 . S
H880 C864 0.931 . S
H881 C869 0.929 . S
H882 C870 0.960 . S
H883 C870 0.962 . S
H884 C870 0.960 . S
H885 C871 0.961 . S
H886 C871 0.961 . S
H887 C871 0.961 . S
H888 C872 0.931 . S
H889 C877 0.930 . S
H890 C878 0.956 . S
H891 C878 0.961 . S
H892 C878 0.961 . S
H893 C879 0.958 . S
H894 C879 0.961 . S
H895 C879 0.960 . S
C896 C897 1.391 . S
C896 C898 1.394 . S
C896 H912 0.931 . S
C897 C896 1.391 . S
C897 C901 1.376 1_545 S
C898 C896 1.394 . S
C898 C899 1.369 . S
C898 C902 1.531 . S
C899 C898 1.369 . S
C899 C900 1.410 1_545 S
C899 C907 1.503 . S
C900 C899 1.410 1_565 S
C900 C901 1.392 . S
C900 C903 1.511 . S
C901 C897 1.376 1_565 S
C901 C900 1.392 . S
C901 H913 0.929 . S
C902 C898 1.531 . S
C902 H914 0.960 . S
C902 H915 0.962 . S
C902 H916 0.960 . S
C903 C900 1.511 . S
C903 H917 0.961 . S
C903 H918 0.961 . S
C903 H919 0.961 . S
C904 C905 1.370 . S
C904 C906 1.363 . S
C904 H920 0.931 . S
C905 C904 1.370 . S
C905 C909 1.408 1_565 S
C906 C904 1.363 . S
C906 C907 1.370 1_565 S
C906 C910 1.524 . S
C907 C899 1.503 . S
C907 C906 1.370 1_545 S
C907 C908 1.403 . S
C908 C907 1.403 . S
C908 C909 1.404 . S
C908 C911 1.539 . S
C909 C905 1.408 1_545 S
C909 C908 1.404 . S
C909 H921 0.930 . S
C910 C906 1.524 . S
C910 H922 0.956 . S
C910 H923 0.961 . S
C910 H924 0.961 . S
C911 C908 1.539 . S
C911 H925 0.958 . S
C911 H926 0.961 . S
C911 H927 0.960 . S
H912 C896 0.931 . S
H913 C901 0.929 . S
H914 C902 0.960 . S
H915 C902 0.962 . S
H916 C902 0.960 . S
H917 C903 0.961 . S
H918 C903 0.961 . S
H919 C903 0.961 . S
H920 C904 0.931 . S
H921 C909 0.930 . S
H922 C910 0.956 . S
H923 C910 0.961 . S
H924 C910 0.961 . S
H925 C911 0.958 . S
H926 C911 0.961 . S
H927 C911 0.960 . S
C928 C929 1.391 . S
C928 C930 1.394 . S
C928 H944 0.931 . S
C929 C928 1.391 . S
C929 C933 1.376 . S
C930 C928 1.394 . S
C930 C931 1.369 . S
C930 C934 1.531 . S
C931 C930 1.369 . S
C931 C932 1.410 . S
C931 C939 1.503 . S
C932 C931 1.410 . S
C932 C933 1.392 . S
C932 C935 1.511 . S
C933 C929 1.376 . S
C933 C932 1.392 . S
C933 H945 0.929 . S
C934 C930 1.531 . S
C934 H946 0.960 . S
C934 H947 0.962 . S
C934 H948 0.960 . S
C935 C932 1.511 . S
C935 H949 0.961 . S
C935 H950 0.961 . S
C935 H951 0.961 . S
C936 C937 1.370 . S
C936 C938 1.363 . S
C936 H952 0.931 . S
C937 C936 1.370 . S
C937 C941 1.408 . S
C938 C936 1.363 . S
C938 C939 1.370 . S
C938 C942 1.524 . S
C939 C931 1.503 . S
C939 C938 1.370 . S
C939 C940 1.403 . S
C940 C939 1.403 . S
C940 C941 1.404 . S
C940 C943 1.539 . S
C941 C937 1.408 . S
C941 C940 1.404 . S
C941 H953 0.930 . S
C942 C938 1.524 . S
C942 H954 0.956 . S
C942 H955 0.961 . S
C942 H956 0.961 . S
C943 C940 1.539 . S
C943 H957 0.958 . S
C943 H958 0.961 . S
C943 H959 0.960 . S
H944 C928 0.931 . S
H945 C933 0.929 . S
H946 C934 0.960 . S
H947 C934 0.962 . S
H948 C934 0.960 . S
H949 C935 0.961 . S
H950 C935 0.961 . S
H951 C935 0.961 . S
H952 C936 0.931 . S
H953 C941 0.930 . S
H954 C942 0.956 . S
H955 C942 0.961 . S
H956 C942 0.961 . S
H957 C943 0.958 . S
H958 C943 0.961 . S
H959 C943 0.960 . S
C960 C961 1.391 . S
C960 C962 1.394 . S
C960 H976 0.931 . S
C961 C960 1.391 . S
C961 C965 1.376 . S
C962 C960 1.394 . S
C962 C963 1.369 . S
C962 C966 1.531 . S
C963 C962 1.369 . S
C963 C964 1.410 . S
C963 C971 1.503 . S
C964 C963 1.410 . S
C964 C965 1.392 . S
C964 C967 1.511 . S
C965 C961 1.376 . S
C965 C964 1.392 . S
C965 H977 0.929 . S
C966 C962 1.531 . S
C966 H978 0.960 . S
C966 H979 0.962 . S
C966 H980 0.960 . S
C967 C964 1.511 . S
C967 H981 0.961 . S
C967 H982 0.961 . S
C967 H983 0.961 . S
C968 C969 1.370 . S
C968 C970 1.363 . S
C968 H984 0.931 . S
C969 C968 1.370 . S
C969 C973 1.408 . S
C970 C968 1.363 . S
C970 C971 1.370 . S
C970 C974 1.524 . S
C971 C963 1.503 . S
C971 C970 1.370 . S
C971 C972 1.403 . S
C972 C971 1.403 . S
C972 C973 1.404 . S
C972 C975 1.539 . S
C973 C969 1.408 . S
C973 C972 1.404 . S
C973 H985 0.930 . S
C974 C970 1.524 . S
C974 H986 0.956 . S
C974 H987 0.961 . S
C974 H988 0.961 . S
C975 C972 1.539 . S
C975 H989 0.958 . S
C975 H990 0.961 . S
C975 H991 0.960 . S
H976 C960 0.931 . S
H977 C965 0.929 . S
H978 C966 0.960 . S
H979 C966 0.962 . S
H980 C966 0.960 . S
H981 C967 0.961 . S
H982 C967 0.961 . S
H983 C967 0.961 . S
H984 C968 0.931 . S
H985 C973 0.930 . S
H986 C974 0.956 . S
H987 C974 0.961 . S
H988 C974 0.961 . S
H989 C975 0.958 . S
H990 C975 0.961 . S
H991 C975 0.960 . S
C992 C993 1.391 . S
C992 C994 1.394 . S
C992 H1008 0.931 . S
C993 C992 1.391 . S
C993 C997 1.376 . S
C994 C992 1.394 . S
C994 C995 1.369 . S
C994 C998 1.531 . S
C995 C994 1.369 . S
C995 C996 1.410 . S
C995 C1003 1.503 . S
C996 C995 1.410 . S
C996 C997 1.392 . S
C996 C999 1.511 . S
C997 C993 1.376 . S
C997 C996 1.392 . S
C997 H1009 0.929 . S
C998 C994 1.531 . S
C998 H1010 0.960 . S
C998 H1011 0.962 . S
C998 H1012 0.960 . S
C999 C996 1.511 . S
C999 H1013 0.961 . S
C999 H1014 0.961 . S
C999 H1015 0.961 . S
C1000 C1001 1.370 . S
C1000 C1002 1.363 . S
C1000 H1016 0.931 . S
C1001 C1000 1.370 . S
C1001 C1005 1.408 . S
C1002 C1000 1.363 . S
C1002 C1003 1.370 . S
C1002 C1006 1.524 . S
C1003 C995 1.503 . S
C1003 C1002 1.370 . S
C1003 C1004 1.403 . S
C1004 C1003 1.403 . S
C1004 C1005 1.404 . S
C1004 C1007 1.539 . S
C1005 C1001 1.408 . S
C1005 C1004 1.404 . S
C1005 H1017 0.930 . S
C1006 C1002 1.524 . S
C1006 H1018 0.956 . S
C1006 H1019 0.961 . S
C1006 H1020 0.961 . S
C1007 C1004 1.539 . S
C1007 H1021 0.958 . S
C1007 H1022 0.961 . S
C1007 H1023 0.960 . S
H1008 C992 0.931 . S
H1009 C997 0.929 . S
H1010 C998 0.960 . S
H1011 C998 0.962 . S
H1012 C998 0.960 . S
H1013 C999 0.961 . S
H1014 C999 0.961 . S
H1015 C999 0.961 . S
H1016 C1000 0.931 . S
H1017 C1005 0.930 . S
H1018 C1006 0.956 . S
H1019 C1006 0.961 . S
H1020 C1006 0.961 . S
H1021 C1007 0.958 . S
H1022 C1007 0.961 . S
H1023 C1007 0.960 . S
C1024 C1025 1.391 . S
C1024 C1026 1.394 . S
C1024 H1040 0.931 . S
C1025 C1024 1.391 . S
C1025 C1029 1.376 . S
C1026 C1024 1.394 . S
C1026 C1027 1.369 . S
C1026 C1030 1.531 . S
C1027 C1026 1.369 . S
C1027 C1028 1.410 . S
C1027 C1035 1.503 . S
C1028 C1027 1.410 . S
C1028 C1029 1.392 . S
C1028 C1031 1.511 . S
C1029 C1025 1.376 . S
C1029 C1028 1.392 . S
C1029 H1041 0.929 . S
C1030 C1026 1.531 . S
C1030 H1042 0.960 . S
C1030 H1043 0.962 . S
C1030 H1044 0.960 . S
C1031 C1028 1.511 . S
C1031 H1045 0.961 . S
C1031 H1046 0.961 . S
C1031 H1047 0.961 . S
C1032 C1033 1.370 . S
C1032 C1034 1.363 . S
C1032 H1048 0.931 . S
C1033 C1032 1.370 . S
C1033 C1037 1.408 . S
C1034 C1032 1.363 . S
C1034 C1035 1.370 . S
C1034 C1038 1.524 . S
C1035 C1027 1.503 . S
C1035 C1034 1.370 . S
C1035 C1036 1.403 . S
C1036 C1035 1.403 . S
C1036 C1037 1.404 . S
C1036 C1039 1.539 . S
C1037 C1033 1.408 . S
C1037 C1036 1.404 . S
C1037 H1049 0.930 . S
C1038 C1034 1.524 . S
C1038 H1050 0.956 . S
C1038 H1051 0.961 . S
C1038 H1052 0.961 . S
C1039 C1036 1.539 . S
C1039 H1053 0.958 . S
C1039 H1054 0.961 . S
C1039 H1055 0.960 . S
H1040 C1024 0.931 . S
H1041 C1029 0.929 . S
H1042 C1030 0.960 . S
H1043 C1030 0.962 . S
H1044 C1030 0.960 . S
H1045 C1031 0.961 . S
H1046 C1031 0.961 . S
H1047 C1031 0.961 . S
H1048 C1032 0.931 . S
H1049 C1037 0.930 . S
H1050 C1038 0.956 . S
H1051 C1038 0.961 . S
H1052 C1038 0.961 . S
H1053 C1039 0.958 . S
H1054 C1039 0.961 . S
H1055 C1039 0.960 . S
C1056 C1057 1.391 1_655 S
C1056 C1058 1.394 . S
C1056 H1072 0.931 . S
C1057 C1056 1.391 1_455 S
C1057 C1061 1.376 . S
C1058 C1056 1.394 . S
C1058 C1059 1.369 1_655 S
C1058 C1062 1.531 . S
C1059 C1058 1.369 1_455 S
C1059 C1060 1.410 . S
C1059 C1067 1.503 1_456 S
C1060 C1059 1.410 . S
C1060 C1061 1.392 . S
C1060 C1063 1.511 . S
C1061 C1057 1.376 . S
C1061 C1060 1.392 . S
C1061 H1073 0.929 . S
C1062 C1058 1.531 . S
C1062 H1074 0.960 1_556 S
C1062 H1075 0.962 . S
C1062 H1076 0.960 . S
C1063 C1060 1.511 . S
C1063 H1077 0.961 . S
C1063 H1078 0.961 1_556 S
C1063 H1079 0.961 1_556 S
C1064 C1065 1.370 . S
C1064 C1066 1.363 . S
C1064 H1080 0.931 . S
C1065 C1064 1.370 . S
C1065 C1069 1.408 . S
C1066 C1064 1.363 . S
C1066 C1067 1.370 . S
C1066 C1070 1.524 1_554 S
C1067 C1059 1.503 1_654 S
C1067 C1066 1.370 . S
C1067 C1068 1.403 1_655 S
C1068 C1067 1.403 1_455 S
C1068 C1069 1.404 1_455 S
C1068 C1071 1.539 . S
C1069 C1065 1.408 . S
C1069 C1068 1.404 1_655 S
C1069 H1081 0.930 1_655 S
C1070 C1066 1.524 1_556 S
C1070 H1082 0.956 . S
C1070 H1083 0.961 . S
C1070 H1084 0.961 1_556 S
C1071 C1068 1.539 . S
C1071 H1085 0.958 . S
C1071 H1086 0.961 . S
C1071 H1087 0.960 . S
H1072 C1056 0.931 . S
H1073 C1061 0.929 . S
H1074 C1062 0.960 1_554 S
H1075 C1062 0.962 . S
H1076 C1062 0.960 . S
H1077 C1063 0.961 . S
H1078 C1063 0.961 1_554 S
H1079 C1063 0.961 1_554 S
H1080 C1064 0.931 . S
H1081 C1069 0.930 1_455 S
H1082 C1070 0.956 . S
H1083 C1070 0.961 . S
H1084 C1070 0.961 1_554 S
H1085 C1071 0.958 . S
H1086 C1071 0.961 . S
H1087 C1071 0.960 . S
C321 C31 1.518 . S
C329 C143 1.502 . S
C353 C23 1.519 . S
C361 C71 1.520 . S
C385 C63 1.515 . S
C393 C111 1.526 . S
C417 C103 1.496 . S
C425 C151 1.517 . S
C449 C20 1.520 . S
C457 C202 1.517 . S
C481 C2 1.512 . S
C489 C180 1.519 . S
C513 C162 1.496 . S
C521 C100 1.518 . S
C545 C220 1.519 . S
C553 C82 1.510 . S
C577 C271 1.512 . S
C585 C223 1.519 . S
C609 C191 1.519 . S
C617 C263 1.504 . S
C641 C311 1.520 . S
C649 C183 1.508 . S
C673 C231 1.513 . S
C681 C303 1.520 . S
C705 C122 1.504 . S
C713 C260 1.521 . S
C737 C242 1.497 . S
C745 C60 1.522 . S
C769 C42 1.520 . S
C777 C300 1.517 . S
C801 C140 1.522 . S
C809 C282 1.503 . S
C833 C4 1.531 . S
C841 C25 1.497 . S
C865 C65 1.476 . S
C873 C44 1.521 . S
C897 C105 1.503 . S
C905 C84 1.512 . S
C929 C145 1.482 . S
C937 C124 1.519 . S
C961 C185 1.478 . S
C969 C164 1.519 . S
C993 C225 1.534 . S
C1001 C204 1.497 . S
C1025 C265 1.518 . S
C1033 C244 1.502 . S
C1057 C284 1.532 . S
C1065 C305 1.497 . S
