# Generated by pormake.
# Topology skb, (5)-cn, num edge types: 1
# Building blocks:
#     Node 0, Type 0, BuildingBlock: XOMCOT_clean_sbu_0, # of connection points: 5
#     Node 1, Type 0, BuildingBlock: XOMCOT_clean_sbu_0, # of connection points: 5
#     Node 2, Type 0, BuildingBlock: XOMCOT_clean_sbu_0, # of connection points: 5
#     Node 3, Type 0, BuildingBlock: XOMCOT_clean_sbu_0, # of connection points: 5
#     Node 4, Type 0, BuildingBlock: XOMCOT_clean_sbu_0, # of connection points: 5
#     Node 5, Type 0, BuildingBlock: XOMCOT_clean_sbu_0, # of connection points: 5
#     Node 6, Type 0, BuildingBlock: XOMCOT_clean_sbu_0, # of connection points: 5
#     Node 7, Type 0, BuildingBlock: XOMCOT_clean_sbu_0, # of connection points: 5
#     Node 8, Type 0, BuildingBlock: XOMCOT_clean_sbu_0, # of connection points: 5
#     Node 9, Type 0, BuildingBlock: XOMCOT_clean_sbu_0, # of connection points: 5
#     Node 10, Type 0, BuildingBlock: XOMCOT_clean_sbu_0, # of connection points: 5
#     Node 11, Type 0, BuildingBlock: XOMCOT_clean_sbu_0, # of connection points: 5
#     Node 12, Type 0, BuildingBlock: XOMCOT_clean_sbu_0, # of connection points: 5
#     Node 13, Type 0, BuildingBlock: XOMCOT_clean_sbu_0, # of connection points: 5
#     Node 14, Type 0, BuildingBlock: XOMCOT_clean_sbu_0, # of connection points: 5
#     Node 15, Type 0, BuildingBlock: XOMCOT_clean_sbu_0, # of connection points: 5
#     Edge 16, Type (0, 0), BuildingBlock: XUDNAN_clean_linker_2, # of connection points: 2
#     Edge 17, Type (0, 0), BuildingBlock: XUDNAN_clean_linker_2, # of connection points: 2
#     Edge 18, Type (0, 0), BuildingBlock: XUDNAN_clean_linker_2, # of connection points: 2
#     Edge 19, Type (0, 0), BuildingBlock: XUDNAN_clean_linker_2, # of connection points: 2
#     Edge 20, Type (0, 0), BuildingBlock: XUDNAN_clean_linker_2, # of connection points: 2
#     Edge 21, Type (0, 0), BuildingBlock: XUDNAN_clean_linker_2, # of connection points: 2
#     Edge 22, Type (0, 0), BuildingBlock: XUDNAN_clean_linker_2, # of connection points: 2
#     Edge 23, Type (0, 0), BuildingBlock: XUDNAN_clean_linker_2, # of connection points: 2
#     Edge 24, Type (0, 0), BuildingBlock: XUDNAN_clean_linker_2, # of connection points: 2
#     Edge 25, Type (0, 0), BuildingBlock: XUDNAN_clean_linker_2, # of connection points: 2
#     Edge 26, Type (0, 0), BuildingBlock: XUDNAN_clean_linker_2, # of connection points: 2
#     Edge 27, Type (0, 0), BuildingBlock: XUDNAN_clean_linker_2, # of connection points: 2
#     Edge 28, Type (0, 0), BuildingBlock: XUDNAN_clean_linker_2, # of connection points: 2
#     Edge 29, Type (0, 0), BuildingBlock: XUDNAN_clean_linker_2, # of connection points: 2
#     Edge 30, Type (0, 0), BuildingBlock: XUDNAN_clean_linker_2, # of connection points: 2
#     Edge 31, Type (0, 0), BuildingBlock: XUDNAN_clean_linker_2, # of connection points: 2
#     Edge 32, Type (0, 0), BuildingBlock: XUDNAN_clean_linker_2, # of connection points: 2
#     Edge 33, Type (0, 0), BuildingBlock: XUDNAN_clean_linker_2, # of connection points: 2
#     Edge 34, Type (0, 0), BuildingBlock: XUDNAN_clean_linker_2, # of connection points: 2
#     Edge 35, Type (0, 0), BuildingBlock: XUDNAN_clean_linker_2, # of connection points: 2
#     Edge 36, Type (0, 0), BuildingBlock: XUDNAN_clean_linker_2, # of connection points: 2
#     Edge 37, Type (0, 0), BuildingBlock: XUDNAN_clean_linker_2, # of connection points: 2
#     Edge 38, Type (0, 0), BuildingBlock: XUDNAN_clean_linker_2, # of connection points: 2
#     Edge 39, Type (0, 0), BuildingBlock: XUDNAN_clean_linker_2, # of connection points: 2
#     Edge 40, Type (0, 0), BuildingBlock: XUDNAN_clean_linker_2, # of connection points: 2
#     Edge 41, Type (0, 0), BuildingBlock: XUDNAN_clean_linker_2, # of connection points: 2
#     Edge 42, Type (0, 0), BuildingBlock: XUDNAN_clean_linker_2, # of connection points: 2
#     Edge 43, Type (0, 0), BuildingBlock: XUDNAN_clean_linker_2, # of connection points: 2
#     Edge 44, Type (0, 0), BuildingBlock: XUDNAN_clean_linker_2, # of connection points: 2
#     Edge 45, Type (0, 0), BuildingBlock: XUDNAN_clean_linker_2, # of connection points: 2
#     Edge 46, Type (0, 0), BuildingBlock: XUDNAN_clean_linker_2, # of connection points: 2
#     Edge 47, Type (0, 0), BuildingBlock: XUDNAN_clean_linker_2, # of connection points: 2
#     Edge 48, Type (0, 0), BuildingBlock: XUDNAN_clean_linker_2, # of connection points: 2
#     Edge 49, Type (0, 0), BuildingBlock: XUDNAN_clean_linker_2, # of connection points: 2
#     Edge 50, Type (0, 0), BuildingBlock: XUDNAN_clean_linker_2, # of connection points: 2
#     Edge 51, Type (0, 0), BuildingBlock: XUDNAN_clean_linker_2, # of connection points: 2
#     Edge 52, Type (0, 0), BuildingBlock: XUDNAN_clean_linker_2, # of connection points: 2
#     Edge 53, Type (0, 0), BuildingBlock: XUDNAN_clean_linker_2, # of connection points: 2
#     Edge 54, Type (0, 0), BuildingBlock: XUDNAN_clean_linker_2, # of connection points: 2
#     Edge 55, Type (0, 0), BuildingBlock: XUDNAN_clean_linker_2, # of connection points: 2
# Relax obj value: 0.087
# Max RMSD: 0.137
# Mean RMSD: 0.137
data_MOF--net-skb--node1-XOMCOT_clean_sbu_0--edge1-XUDNAN_clean_linker_2
_symmetry_space_group_name_H-M    P1
_symmetry_Int_Tables_number       1
_symmetry_cell_setting            triclinic
loop_
_symmetry_equiv_pos_as_xyz
'x, y, z'
_cell_length_a     49.502916
_cell_length_b     27.31045
_cell_length_c     68.73572
_cell_angle_alpha  90.091702
_cell_angle_beta   89.871532
_cell_angle_gamma 90.08066
loop_
_atom_site_label
_atom_site_type_symbol
_atom_site_fract_x
_atom_site_fract_y
_atom_site_fract_z
_atom_type_partial_charge
Co0 Co 0.20377 0.99788 0.14376 0.0
C1 C 0.20164 0.02051 0.10057 0.0
C2 C 0.23861 0.9862 0.10904 0.0
C3 C 0.23894 0.99251 0.08921 0.0
N4 N 0.21496 1.00281 0.11634 0.0
N5 N 0.21562 0.01388 0.08388 0.0
H6 H 0.18218 0.03813 0.101 0.0
H7 H 0.25471 0.96997 0.11741 0.0
C8 C 0.22119 0.10297 0.14034 0.0
O9 O 0.20698 0.10676 0.12433 0.0
N10 N 0.19372 0.99271 0.1709 0.0
C11 C 0.16973 0.97841 0.17817 0.0
C12 C 0.17186 0.97521 0.19808 0.0
C13 C 0.21022 0.99742 0.18644 0.0
N14 N 0.19741 0.98673 0.20335 0.0
C15 C 0.15218 0.99945 0.12647 0.0
C16 C 0.13106 0.07882 0.14622 0.0
C17 C 0.11426 0.05137 0.13385 0.0
C18 C 0.1253 0.01175 0.12378 0.0
C19 C 0.15843 0.06593 0.14811 0.0
N20 N 0.16868 0.0267 0.13815 0.0
H21 H 0.15983 0.96748 0.11903 0.0
H22 H 0.17091 0.08567 0.15835 0.0
H23 H 0.15208 0.96979 0.16957 0.0
H24 H 0.23145 0.00644 0.18521 0.0
O25 O 0.19316 0.93091 0.13994 0.0
O26 O 0.23409 0.95391 0.14899 0.0
O27 O 0.22157 0.06268 0.14976 0.0
C28 C 0.21736 0.91836 0.14495 0.0
H29 H 0.25516 0.98214 0.07945 0.0
H30 H 0.15572 0.96454 0.20782 0.0
H31 H 0.123 0.1091 0.15459 0.0
H32 H 0.1129 0.98882 0.1145 0.0
Co33 Co 0.82564 0.06628 0.15876 0.0
C34 C 0.82127 0.05645 0.11527 0.0
C35 C 0.84203 0.12183 0.12409 0.0
C36 C 0.84192 0.11988 0.10415 0.0
N37 N 0.82884 0.08243 0.1312 0.0
N38 N 0.82897 0.07882 0.09855 0.0
H39 H 0.8107 0.02179 0.11583 0.0
H40 H 0.85189 0.14963 0.13275 0.0
C41 C 0.81462 0.95945 0.16076 0.0
O42 O 0.83379 0.95726 0.17388 0.0
N43 N 0.82227 0.05074 0.18658 0.0
C44 C 0.84196 0.03841 0.19929 0.0
C45 C 0.83066 0.02763 0.21697 0.0
C46 C 0.79906 0.04743 0.19711 0.0
N47 N 0.80377 0.03321 0.21566 0.0
C48 C 0.8819 0.07251 0.16619 0.0
C49 C 0.89836 1.00247 0.13975 0.0
C50 C 0.91786 0.03237 0.14868 0.0
C51 C 0.90928 0.06687 0.16237 0.0
C52 C 0.87094 0.00869 0.14432 0.0
N53 N 0.86293 0.04345 0.15747 0.0
H54 H 0.87593 0.10137 0.17603 0.0
H55 H 0.85615 0.98778 0.1363 0.0
H56 H 0.86308 0.03407 0.19615 0.0
H57 H 0.77911 0.05335 0.19117 0.0
O58 O 0.83357 0.13284 0.16553 0.0
O59 O 0.79235 0.10493 0.16019 0.0
O60 O 0.80965 0.9999 0.1521 0.0
C61 C 0.80799 0.14191 0.16447 0.0
H62 H 0.85155 0.14589 0.09449 0.0
H63 H 0.84138 0.01534 0.22978 0.0
H64 H 0.90416 0.97579 0.12885 0.0
H65 H 0.92349 0.09161 0.16925 0.0
Co66 Co 0.1952 0.05552 0.88404 0.0
C67 C 0.18712 0.05778 0.92814 0.0
C68 C 0.22698 0.03947 0.91806 0.0
C69 C 0.2268 0.03661 0.93787 0.0
N70 N 0.20222 0.05209 0.91177 0.0
N71 N 0.20181 0.04752 0.9443 0.0
H72 H 0.16591 0.0673 0.92823 0.0
H73 H 0.24408 0.03199 0.90871 0.0
C74 C 0.20517 0.94889 0.8745 0.0
O75 O 0.18087 0.94523 0.86707 0.0
N76 N 0.19109 0.05765 0.85554 0.0
C77 C 0.17321 0.03413 0.84391 0.0
C78 C 0.181 0.03924 0.82474 0.0
C79 C 0.20965 0.07604 0.84296 0.0
N80 N 0.20397 0.0656 0.82418 0.0
C81 C 0.13871 0.05767 0.87991 0.0
C82 C 0.12513 0.98405 0.9056 0.0
C83 C 0.10455 0.01325 0.89762 0.0
C84 C 0.1117 0.04957 0.88432 0.0
C85 C 0.15226 0.99235 0.90018 0.0
N86 N 0.15875 0.02928 0.88756 0.0
H87 H 0.14365 0.08824 0.87059 0.0
H88 H 0.16808 0.97108 0.90693 0.0
H89 H 0.15623 0.01252 0.84875 0.0
H90 H 0.22799 0.0943 0.84738 0.0
O91 O 0.18457 0.12264 0.88633 0.0
O92 O 0.22678 0.09863 0.88204 0.0
O93 O 0.21337 0.98955 0.88155 0.0
C94 C 0.20968 0.1346 0.88426 0.0
H95 H 0.24382 0.02678 0.94693 0.0
H96 H 0.17083 0.02369 0.81224 0.0
H97 H 0.12036 0.95599 0.91618 0.0
H98 H 0.09658 0.07362 0.87817 0.0
Co99 Co 0.81297 0.03054 0.8981 0.0
C100 C 0.81992 0.02693 0.94173 0.0
C101 C 0.78702 0.072 0.93208 0.0
C102 C 0.78829 0.07471 0.95196 0.0
N103 N 0.80693 0.04269 0.92556 0.0
N104 N 0.8089 0.04655 0.95808 0.0
H105 H 0.83719 1.00268 0.94154 0.0
H106 H 0.77244 0.09026 0.92293 0.0
C107 C 0.81548 0.13386 0.88196 0.0
O108 O 0.83604 0.12181 0.87083 0.0
N109 N 0.8172 0.01909 0.87011 0.0
C110 C 0.83012 0.98171 0.86115 0.0
C111 C 0.82294 0.98058 0.84183 0.0
C112 C 0.80171 0.03917 0.85595 0.0
N113 N 0.80507 0.01669 0.83856 0.0
C114 C 0.86819 1.00126 0.8991 0.0
C115 C 0.8909 0.08838 0.91118 0.0
C116 C 0.90783 0.04832 0.90721 0.0
C117 C 0.89604 0.0044 0.90129 0.0
C118 C 0.8628 0.08395 0.90829 0.0
N119 N 0.85186 0.04109 0.90155 0.0
H120 H 0.85987 0.9658 0.896 0.0
H121 H 0.84993 0.11456 0.91188 0.0
H122 H 0.84217 0.95413 0.86812 0.0
H123 H 0.78682 0.06739 0.85859 0.0
O124 O 0.81249 0.9609 0.90257 0.0
O125 O 0.77638 0.00548 0.89594 0.0
O126 O 0.805 0.10223 0.89338 0.0
C127 C 0.78672 0.96246 0.89935 0.0
H128 H 0.77487 0.09548 0.96129 0.0
H129 H 0.82956 0.95391 0.83118 0.0
H130 H 0.89927 0.12262 0.91638 0.0
H131 H 0.90826 0.97202 0.89892 0.0
Co132 Co 0.1999 0.52526 0.64693 0.0
C133 C 0.20223 0.51732 0.60277 0.0
C134 C 0.23088 0.56807 0.61438 0.0
C135 C 0.23363 0.5675 0.59451 0.0
N136 N 0.2102 0.5386 0.61975 0.0
N137 N 0.21556 0.53573 0.58718 0.0
H138 H 0.18782 0.4878 0.60164 0.0
H139 H 0.24409 0.58752 0.6242 0.0
C140 C 0.2121 0.63297 0.64884 0.0
O141 O 0.19435 0.63879 0.63484 0.0
N142 N 0.19175 0.51136 0.67396 0.0
C143 C 0.16993 0.48805 0.68114 0.0
C144 C 0.17412 0.47913 0.70065 0.0
C145 C 0.20896 0.516 0.68909 0.0
N146 N 0.19874 0.49649 0.70564 0.0
C147 C 0.14784 0.53292 0.62998 0.0
C148 C 0.12439 0.59401 0.65719 0.0
C149 C 0.10807 0.57261 0.64278 0.0
C150 C 0.12036 0.54235 0.62899 0.0
C151 C 0.15241 0.58434 0.65738 0.0
N152 N 0.16387 0.55391 0.64379 0.0
H153 H 0.15549 0.50522 0.62049 0.0
H154 H 0.16457 0.5991 0.66905 0.0
H155 H 0.15262 0.47682 0.67265 0.0
H156 H 0.22915 0.53088 0.68772 0.0
O157 O 0.18959 0.4599 0.64022 0.0
O158 O 0.23099 0.4812 0.64888 0.0
O159 O 0.21673 0.58994 0.6555 0.0
C160 C 0.21409 0.44652 0.6439 0.0
H161 H 0.24844 0.58769 0.58611 0.0
H162 H 0.16027 0.46037 0.7103 0.0
H163 H 0.11556 0.61719 0.6683 0.0
H164 H 0.10848 0.5236 0.61804 0.0
Co165 Co 0.81483 0.54817 0.65578 0.0
C166 C 0.81933 0.54457 0.61161 0.0
C167 C 0.78398 0.51017 0.62344 0.0
C168 C 0.78292 0.50658 0.60358 0.0
N169 N 0.80693 0.53329 0.62866 0.0
N170 N 0.80512 0.5281 0.5961 0.0
H171 H 0.83808 0.56431 0.6103 0.0
H172 H 0.76879 0.49713 0.63352 0.0
C173 C 0.81125 0.4372 0.65374 0.0
O174 O 0.82525 0.43705 0.63749 0.0
N175 N 0.82066 0.56206 0.68301 0.0
C176 C 0.83362 0.60045 0.69111 0.0
C177 C 0.82685 0.60261 0.71065 0.0
C178 C 0.80641 0.54148 0.6976 0.0
N179 N 0.80982 0.56529 0.71459 0.0
C180 C 0.8668 0.57444 0.64211 0.0
C181 C 0.89693 0.50124 0.65913 0.0
C182 C 0.91019 0.5372 0.64797 0.0
C183 C 0.89459 0.57435 0.63977 0.0
C184 C 0.86848 0.50266 0.66113 0.0
N185 N 0.85369 0.53834 0.65211 0.0
H186 H 0.85592 0.60449 0.63576 0.0
H187 H 0.85858 0.47577 0.67019 0.0
H188 H 0.84572 0.62674 0.68317 0.0
H189 H 0.79206 0.51204 0.69554 0.0
O190 O 0.81419 0.6173 0.65032 0.0
O191 O 0.7782 0.57392 0.6584 0.0
O192 O 0.80721 0.47739 0.6629 0.0
C193 C 0.78853 0.6163 0.6538 0.0
H194 H 0.7666 0.49055 0.59526 0.0
H195 H 0.83321 0.63023 0.72099 0.0
H196 H 0.90831 0.47232 0.66606 0.0
H197 H 0.90387 0.6039 0.63163 0.0
Co198 Co 0.19132 0.53013 0.38634 0.0
C199 C 0.19768 0.52032 0.42969 0.0
C200 C 0.1729 0.58122 0.42129 0.0
C201 C 0.1748 0.58084 0.4412 0.0
N202 N 0.1874 0.54369 0.41398 0.0
N203 N 0.19031 0.54266 0.44651 0.0
H204 H 0.21049 0.4883 0.42887 0.0
H205 H 0.16156 0.60716 0.4127 0.0
C206 C 0.1945 0.42166 0.38298 0.0
O207 O 0.17666 0.42432 0.36895 0.0
N208 N 0.19552 0.51794 0.35813 0.0
C209 C 0.17645 0.50654 0.34478 0.0
C210 C 0.18781 0.50655 0.32647 0.0
C211 C 0.2183 0.52464 0.34739 0.0
N212 N 0.21411 0.5184 0.32807 0.0
C213 C 0.1361 0.54795 0.37653 0.0
C214 C 0.11436 0.47378 0.39898 0.0
C215 C 0.09692 0.50536 0.38903 0.0
C216 C 0.10807 0.54303 0.37778 0.0
C217 C 0.14224 0.48029 0.39748 0.0
N218 N 0.15285 0.51589 0.3858 0.0
H219 H 0.14442 0.57752 0.36797 0.0
H220 H 0.15519 0.45773 0.40633 0.0
H221 H 0.15556 0.49829 0.34779 0.0
H222 H 0.23764 0.53465 0.35348 0.0
O223 O 0.1896 0.59938 0.38109 0.0
O224 O 0.22716 0.5577 0.38705 0.0
O225 O 0.20161 0.46017 0.3922 0.0
C226 C 0.2157 0.59935 0.38302 0.0
H227 H 0.16514 0.6063 0.45109 0.0
H228 H 0.1772 0.50007 0.31296 0.0
H229 H 0.1065 0.44527 0.40837 0.0
H230 H 0.09527 0.56838 0.36997 0.0
Co231 Co 0.80609 0.52576 0.39525 0.0
C232 C 0.80781 0.53796 0.43868 0.0
C233 C 0.77252 0.49889 0.42939 0.0
C234 C 0.77236 0.50116 0.4493 0.0
N235 N 0.79503 0.52106 0.42255 0.0
N236 N 0.79465 0.52522 0.4552 0.0
H237 H 0.8267 0.55792 0.43844 0.0
H238 H 0.75702 0.48162 0.42075 0.0
C239 C 0.80038 0.63377 0.38499 0.0
O240 O 0.81245 0.62731 0.36819 0.0
N241 N 0.81629 0.52902 0.36789 0.0
C242 C 0.83994 0.51509 0.35978 0.0
C243 C 0.8377 0.5175 0.33984 0.0
C244 C 0.79956 0.53696 0.35264 0.0
N245 N 0.81231 0.53116 0.33542 0.0
C246 C 0.85466 0.4959 0.4129 0.0
C247 C 0.88793 0.56728 0.39746 0.0
C248 C 0.89959 0.52528 0.4057 0.0
C249 C 0.88248 0.49112 0.41464 0.0
C250 C 0.85972 0.57139 0.39652 0.0
N251 N 0.84357 0.53432 0.40311 0.0
H252 H 0.84192 0.46704 0.41854 0.0
H253 H 0.85128 0.60193 0.38882 0.0
H254 H 0.85738 0.50213 0.36765 0.0
H255 H 0.77858 0.54745 0.35413 0.0
O256 O 0.80679 0.45567 0.39291 0.0
O257 O 0.77089 0.50185 0.38715 0.0
O258 O 0.79785 0.59841 0.39705 0.0
C259 C 0.78173 0.45829 0.38757 0.0
H260 H 0.75692 0.48609 0.45874 0.0
H261 H 0.85327 0.50835 0.32937 0.0
H262 H 0.90031 0.59486 0.39047 0.0
H263 H 0.89048 0.45915 0.42193 0.0
Co264 Co 0.70058 0.02757 0.65293 0.0
C265 C 0.68928 0.02378 0.60979 0.0
C266 C 0.72275 0.06993 0.61756 0.0
C267 C 0.72099 0.0684 0.5977 0.0
N268 N 0.70289 0.04233 0.62529 0.0
N269 N 0.70019 0.03912 0.5927 0.0
H270 H 0.67272 0.99804 0.61097 0.0
H271 H 0.73838 0.08833 0.62573 0.0
C272 C 0.70866 0.12906 0.6691 0.0
O273 O 0.68662 0.12259 0.67948 0.0
N274 N 0.70045 0.01215 0.68098 0.0
C275 C 0.69105 0.97073 0.68946 0.0
C276 C 0.6992 0.96908 0.70855 0.0
C277 C 0.71542 0.03368 0.69519 0.0
N278 N 0.7145 0.00875 0.71218 0.0
C279 C 0.64463 0.02256 0.66153 0.0
C280 C 0.62809 0.106 0.64245 0.0
C281 C 0.60847 0.07394 0.65009 0.0
C282 C 0.61725 0.0325 0.66007 0.0
C283 C 0.65574 0.09453 0.6443 0.0
N284 N 0.66371 0.05309 0.65387 0.0
H285 H 0.65013 0.98826 0.66786 0.0
H286 H 0.67062 0.11797 0.63748 0.0
H287 H 0.68033 0.94158 0.68214 0.0
H288 H 0.72849 0.06481 0.69296 0.0
O289 O 0.69038 0.96194 0.64685 0.0
O290 O 0.73274 0.9861 0.65043 0.0
O291 O 0.71752 0.09422 0.65838 0.0
C292 C 0.71569 0.95041 0.64704 0.0
H293 H 0.73446 0.0868 0.58766 0.0
H294 H 0.69482 0.94009 0.71881 0.0
H295 H 0.62215 0.13841 0.63449 0.0
H296 H 0.60298 0.00689 0.66638 0.0
Co297 Co 0.31453 0.04493 0.64597 0.0
C298 C 0.31774 0.04813 0.6019 0.0
C299 C 0.28873 0.99698 0.61308 0.0
C300 C 0.28858 0.99398 0.59316 0.0
N301 N 0.30738 0.03006 0.61873 0.0
N302 N 0.30682 0.02602 0.58613 0.0
H303 H 0.33285 0.07642 0.60092 0.0
H304 H 0.27572 0.97674 0.62281 0.0
C305 C 0.31042 0.94551 0.6668 0.0
O306 O 0.32248 0.96253 0.6824 0.0
N307 N 0.32046 0.06006 0.6733 0.0
C308 C 0.34227 0.08188 0.68123 0.0
C309 C 0.33672 0.09286 0.70038 0.0
C310 C 0.30175 0.059 0.68771 0.0
N311 N 0.31122 0.07856 0.70445 0.0
C312 C 0.36608 0.07552 0.63259 0.0
C313 C 0.39761 0.00635 0.65081 0.0
C314 C 0.41011 0.04771 0.64258 0.0
C315 C 0.39395 0.08102 0.6326 0.0
C316 C 0.36921 1.00175 0.65024 0.0
N317 N 0.35364 0.0373 0.64182 0.0
H318 H 0.35464 0.10461 0.62611 0.0
H319 H 0.36006 0.97112 0.6575 0.0
H320 H 0.36063 0.09113 0.67356 0.0
H321 H 0.28133 0.04568 0.68578 0.0
O322 O 0.31284 0.11411 0.64102 0.0
O323 O 0.27742 0.06856 0.64848 0.0
O324 O 0.30787 0.97246 0.65167 0.0
C325 C 0.28719 0.11176 0.64445 0.0
H326 H 0.27571 0.97055 0.58445 0.0
H327 H 0.35032 0.1108 0.71043 0.0
H328 H 0.40943 0.97936 0.65855 0.0
H329 H 0.40267 0.11287 0.6256 0.0
Co330 Co 0.68812 0.05395 0.39267 0.0
C331 C 0.68439 0.03457 0.43577 0.0
C332 C 0.711 0.09437 0.42916 0.0
C333 C 0.71132 0.08689 0.44886 0.0
N334 N 0.69405 0.06181 0.42073 0.0
N335 N 0.69463 0.04948 0.45308 0.0
H336 H 0.67066 1.00398 0.43409 0.0
H337 H 0.72292 0.12168 0.42174 0.0
C338 C 0.70721 0.95004 0.38325 0.0
O339 O 0.6958 0.95121 0.36608 0.0
N340 N 0.68338 0.04788 0.36462 0.0
C341 C 0.66146 0.0593 0.35389 0.0
C342 C 0.66827 0.05688 0.33437 0.0
C343 C 0.70343 0.04123 0.35148 0.0
N344 N 0.6946 0.045 0.333 0.0
C345 C 0.6353 0.06087 0.4079 0.0
C346 C 0.6126 0.98522 0.38683 0.0
C347 C 0.59567 0.01911 0.3961 0.0
C348 C 0.60731 0.05573 0.40757 0.0
C349 C 0.64064 0.99095 0.38796 0.0
N350 N 0.65163 0.03005 0.39753 0.0
H351 H 0.64381 0.09216 0.41534 0.0
H352 H 0.653 0.96652 0.37965 0.0
H353 H 0.64201 0.06963 0.35979 0.0
H354 H 0.7241 0.03303 0.35542 0.0
O355 O 0.67843 0.12144 0.39007 0.0
O356 O 0.72026 0.09319 0.38729 0.0
O357 O 0.70503 0.98612 0.39512 0.0
C358 C 0.70364 0.13031 0.38641 0.0
H359 H 0.72291 0.10766 0.45937 0.0
H360 H 0.65486 0.06256 0.32216 0.0
H361 H 0.60423 0.95628 0.37788 0.0
H362 H 0.59489 0.08283 0.41484 0.0
Co363 Co 0.3081 0.00405 0.38533 0.0
C364 C 0.31379 0.01983 0.42862 0.0
C365 C 0.28965 0.95688 0.42182 0.0
C366 C 0.29139 0.96078 0.44158 0.0
N367 N 0.30399 0.99335 0.41342 0.0
N368 N 0.30676 0.99992 0.44599 0.0
H369 H 0.32616 0.0523 0.42702 0.0
H370 H 0.2782 0.92892 0.41441 0.0
C371 C 0.28537 0.10508 0.37734 0.0
O372 O 0.2938 0.10304 0.35928 0.0
N373 N 0.31101 0.01257 0.35719 0.0
C374 C 0.33304 0.00958 0.34561 0.0
C375 C 0.32475 0.0068 0.3264 0.0
C376 C 0.28982 0.00979 0.34484 0.0
N377 N 0.29753 0.00656 0.32605 0.0
C378 C 0.36163 1.00069 0.39901 0.0
C379 C 0.38074 0.08465 0.38132 0.0
C380 C 0.39905 0.0527 0.39027 0.0
C381 C 0.38907 0.01129 0.3998 0.0
C382 C 0.35311 0.07331 0.38134 0.0
N383 N 0.34406 0.03071 0.38948 0.0
H384 H 0.35456 0.96683 0.40536 0.0
H385 H 0.33956 0.09696 0.3736 0.0
H386 H 0.3536 0.00633 0.3507 0.0
H387 H 0.26898 0.00916 0.34961 0.0
O388 O 0.31911 0.93763 0.38144 0.0
O389 O 0.27656 0.96296 0.38071 0.0
O390 O 0.29017 0.07023 0.38928 0.0
C391 C 0.29385 0.92713 0.37876 0.0
H392 H 0.28163 0.93678 0.45196 0.0
H393 H 0.33769 1.00194 0.31383 0.0
H394 H 0.38782 0.11698 0.37375 0.0
H395 H 0.40257 0.98538 0.40666 0.0
Co396 Co 0.70519 0.54086 0.15209 0.0
C397 C 0.69608 0.52644 0.10871 0.0
C398 C 0.73264 0.56413 0.11632 0.0
C399 C 0.73203 0.55876 0.09652 0.0
N400 N 0.71026 0.54387 0.12411 0.0
N401 N 0.70912 0.53511 0.09174 0.0
H402 H 0.67719 0.50689 0.10965 0.0
H403 H 0.74865 0.58119 0.12461 0.0
C404 C 0.71704 0.64591 0.16565 0.0
O405 O 0.71008 0.63648 0.18367 0.0
N406 N 0.70203 0.53798 0.18032 0.0
C407 C 0.68037 0.52932 0.19175 0.0
C408 C 0.68863 0.52942 0.21098 0.0
C409 C 0.7231 0.54141 0.1927 0.0
N410 N 0.71555 0.53749 0.21152 0.0
C411 C 0.65089 0.5143 0.14325 0.0
C412 C 0.62585 0.59776 0.157 0.0
C413 C 0.60995 0.55837 0.15065 0.0
C414 C 0.62279 0.51679 0.14331 0.0
C415 C 0.65411 0.5944 0.15611 0.0
N416 N 0.66638 0.55261 0.14958 0.0
H417 H 0.6601 0.48051 0.13861 0.0
H418 H 0.66578 0.62449 0.16167 0.0
H419 H 0.66002 0.52319 0.18664 0.0
H420 H 0.7436 0.54766 0.18789 0.0
O421 O 0.70448 0.47005 0.15147 0.0
O422 O 0.74154 0.51479 0.15422 0.0
O423 O 0.71433 0.6136 0.15227 0.0
C424 C 0.73051 0.47152 0.15345 0.0
H425 H 0.74721 0.57154 0.08635 0.0
H426 H 0.67568 0.52469 0.22354 0.0
H427 H 0.61652 0.63033 0.16298 0.0
H428 H 0.61117 0.48527 0.13862 0.0
Co429 Co 0.31877 0.51689 0.1472 0.0
C430 C 0.32427 0.515 0.10308 0.0
C431 C 0.28974 0.47657 0.11421 0.0
C432 C 0.28953 0.47319 0.09429 0.0
N433 N 0.31149 0.50258 0.11989 0.0
N434 N 0.31117 0.49736 0.0872 0.0
H435 H 0.34223 0.53725 0.10225 0.0
H436 H 0.2748 0.46132 0.12398 0.0
C437 C 0.31076 0.41836 0.1678 0.0
O438 O 0.32202 0.43429 0.18388 0.0
N439 N 0.32491 0.53148 0.17469 0.0
C440 C 0.34783 0.54865 0.18279 0.0
C441 C 0.34333 0.55733 0.20224 0.0
C442 C 0.30651 0.53148 0.18937 0.0
N443 N 0.31735 0.54651 0.20647 0.0
C444 C 0.37227 0.5411 0.13488 0.0
C445 C 0.39881 0.46556 0.15333 0.0
C446 C 0.41392 0.50432 0.1456 0.0
C447 C 0.40043 0.54131 0.13558 0.0
C448 C 0.37059 0.46593 0.15179 0.0
N449 N 0.35746 0.50459 0.14342 0.0
H450 H 0.36245 0.57232 0.12847 0.0
H451 H 0.35969 0.43649 0.15845 0.0
H452 H 0.36658 0.55527 0.17519 0.0
H453 H 0.28563 0.5207 0.18753 0.0
O454 O 0.31878 0.58649 0.1422 0.0
O455 O 0.28248 0.543 0.14966 0.0
O456 O 0.30996 0.44542 0.15262 0.0
C457 C 0.293 0.58553 0.14561 0.0
H458 H 0.27458 0.45398 0.08569 0.0
H459 H 0.35827 0.57033 0.21249 0.0
H460 H 0.40867 0.4362 0.16115 0.0
H461 H 0.41144 0.57211 0.12956 0.0
Co462 Co 0.69843 0.54925 0.89227 0.0
C463 C 0.69414 0.53147 0.93603 0.0
C464 C 0.73393 0.5493 0.92607 0.0
C465 C 0.73492 0.54201 0.94578 0.0
N466 N 0.70831 0.54359 0.91978 0.0
N467 N 0.7099 0.5308 0.95209 0.0
H468 H 0.67316 0.52108 0.93633 0.0
H469 H 0.75111 0.55771 0.91695 0.0
C470 C 0.71439 0.4436 0.89674 0.0
O471 O 0.69816 0.44042 0.91182 0.0
N472 N 0.6908 0.55448 0.86477 0.0
C473 C 0.67337 0.58473 0.85572 0.0
C474 C 0.67956 0.58543 0.83606 0.0
C475 C 0.70709 0.53712 0.8506 0.0
N476 N 0.70069 0.55526 0.833 0.0
C477 C 0.64579 0.55023 0.90793 0.0
C478 C 0.62403 0.47267 0.88747 0.0
C479 C 0.6072 0.50055 0.89974 0.0
C480 C 0.61857 0.53952 0.91 0.0
C481 C 0.65181 0.48414 0.88613 0.0
N482 N 0.66243 0.52212 0.89666 0.0
H483 H 0.65355 0.58167 0.91564 0.0
H484 H 0.66447 0.46382 0.87616 0.0
H485 H 0.65838 0.60699 0.86301 0.0
H486 H 0.72468 0.51467 0.85327 0.0
O487 O 0.68824 0.61635 0.89591 0.0
O488 O 0.72952 0.5929 0.88813 0.0
O489 O 0.71603 0.48364 0.88721 0.0
C490 C 0.71279 0.62866 0.89182 0.0
H491 H 0.75274 0.54537 0.95477 0.0
H492 H 0.6699 0.60749 0.82502 0.0
H493 H 0.61579 0.44282 0.87895 0.0
H494 H 0.60626 0.56285 0.9192 0.0
Co495 Co 0.31572 0.53214 0.88549 0.0
C496 C 0.32486 0.52031 0.92896 0.0
C497 C 0.29219 0.56814 0.9212 0.0
C498 C 0.29303 0.56476 0.94105 0.0
N499 N 0.31201 0.5405 0.91348 0.0
N500 N 0.31342 0.5347 0.94604 0.0
H501 H 0.34153 0.49488 0.92776 0.0
H502 H 0.27754 0.58858 0.91289 0.0
C503 C 0.28895 0.62206 0.87377 0.0
O504 O 0.27177 0.59191 0.86549 0.0
N505 N 0.31792 0.52622 0.8571 0.0
C506 C 0.33405 0.55315 0.84542 0.0
C507 C 0.32603 0.54714 0.82637 0.0
C508 C 0.30006 0.50466 0.84482 0.0
N509 N 0.30448 0.51687 0.82598 0.0
C510 C 0.36996 0.5046 0.87845 0.0
C511 C 0.39465 0.57503 0.9012 0.0
C512 C 0.41055 0.53815 0.89262 0.0
C513 C 0.3979 0.50341 0.88078 0.0
C514 C 0.36662 0.57576 0.89801 0.0
N515 N 0.35465 0.54016 0.88703 0.0
H516 H 0.36037 0.47591 0.87008 0.0
H517 H 0.3544 0.60346 0.90503 0.0
H518 H 0.34964 0.57784 0.85046 0.0
H519 H 0.28288 0.48339 0.84957 0.0
O520 O 0.31512 0.46202 0.88841 0.0
O521 O 0.27874 0.50828 0.88506 0.0
O522 O 0.30968 0.60468 0.88237 0.0
C523 C 0.28902 0.46472 0.88733 0.0
H524 H 0.2795 0.58295 0.95112 0.0
H525 H 0.33488 0.56517 0.81388 0.0
H526 H 0.40374 0.60241 0.91055 0.0
H527 H 0.40933 0.47393 0.87416 0.0
H528 H 0.24445 0.02898 0.21655 0.0
H529 H 0.17673 0.93814 0.23463 0.0
H530 H 0.19531 0.93415 0.26757 0.0
H531 H 0.29487 0.96474 0.24497 0.0
H532 H 0.31352 0.01936 0.25106 0.0
H533 H 0.29481 0.01633 0.22863 0.0
H534 H 0.26875 0.09491 0.23822 0.0
H535 H 0.28737 0.09821 0.26067 0.0
H536 H 0.25097 0.09711 0.26112 0.0
H537 H 0.22038 0.9398 0.29866 0.0
H538 H 0.25127 0.95393 0.32612 0.0
H539 H 0.30416 0.03873 0.28867 0.0
C540 C 0.23356 0.00796 0.22734 0.0
C541 C 0.20881 0.98431 0.22275 0.0
C542 C 0.19531 0.95754 0.23757 0.0
C543 C 0.20584 0.95467 0.25643 0.0
C544 C 0.23008 0.97841 0.26041 0.0
C545 C 0.2439 0.0044 0.24633 0.0
C546 C 0.26972 0.02622 0.25463 0.0
C547 C 0.29471 0.00541 0.2442 0.0
C548 C 0.26916 0.08245 0.2536 0.0
C549 C 0.26811 0.00843 0.27555 0.0
C550 C 0.24497 0.98105 0.27849 0.0
C551 C 0.23856 0.96121 0.29656 0.0
C552 C 0.25617 0.96972 0.31212 0.0
C553 C 0.28005 0.99771 0.30961 0.0
C554 C 0.28616 0.01695 0.29098 0.0
H555 H 0.76159 0.08896 0.22858 0.0
H556 H 0.80433 0.95279 0.23794 0.0
H557 H 0.77816 0.9385 0.26796 0.0
H558 H 0.76059 0.12651 0.27697 0.0
H559 H 0.72716 0.15259 0.27693 0.0
H560 H 0.74633 0.1496 0.25468 0.0
H561 H 0.70756 0.10173 0.23804 0.0
H562 H 0.68807 0.10509 0.26019 0.0
H563 H 0.69486 0.04649 0.24912 0.0
H564 H 0.75287 0.94425 0.2989 0.0
H565 H 0.72606 0.96597 0.328 0.0
H566 H 0.69737 0.09677 0.29912 0.0
C567 C 0.76464 0.05545 0.23667 0.0
C568 C 0.78487 0.02176 0.23096 0.0
C569 C 0.78893 0.97891 0.24213 0.0
C570 C 0.77416 0.9705 0.25917 0.0
C571 C 0.75515 0.00518 0.26488 0.0
C572 C 0.74994 0.04648 0.25388 0.0
C573 C 0.72951 0.07919 0.26413 0.0
C574 C 0.74163 0.12997 0.26843 0.0
C575 C 0.70345 0.08336 0.25215 0.0
C576 C 0.72476 0.05047 0.28278 0.0
C577 C 0.73981 0.00788 0.28281 0.0
C578 C 0.74058 0.97698 0.29891 0.0
C579 C 0.72548 0.98972 0.31541 0.0
C580 C 0.70959 0.03272 0.31569 0.0
C581 C 0.70903 0.06326 0.29908 0.0
H582 H 0.27085 0.0218 0.7196 0.0
H583 H 0.31885 0.15199 0.73046 0.0
H584 H 0.29551 0.16381 0.76181 0.0
H585 H 0.2083 0.06722 0.74117 0.0
H586 H 0.19923 0.00893 0.75159 0.0
H587 H 0.21913 0.01125 0.72962 0.0
H588 H 0.25609 0.95846 0.74595 0.0
H589 H 0.23632 0.95595 0.76795 0.0
H590 H 0.27057 0.97835 0.76868 0.0
H591 H 0.26779 0.16102 0.79227 0.0
H592 H 0.23786 0.14305 0.82007 0.0
H593 H 0.20774 0.01423 0.79003 0.0
C594 C 0.2762 0.05308 0.72848 0.0
C595 C 0.2968 0.08588 0.72254 0.0
C596 C 0.30347 0.12597 0.73476 0.0
C597 C 0.29017 0.13321 0.75256 0.0
C598 C 0.27018 0.10005 0.75806 0.0
C599 C 0.26318 0.06074 0.74642 0.0
C600 C 0.24147 0.0298 0.7561 0.0
C601 C 0.21549 0.02929 0.74389 0.0
C602 C 0.25173 0.97755 0.75989 0.0
C603 C 0.23748 0.05782 0.775 0.0
C604 C 0.25421 0.09829 0.77576 0.0
C605 C 0.2546 0.1294 0.79184 0.0
C606 C 0.23761 0.11872 0.80764 0.0
C607 C 0.22043 0.07715 0.80737 0.0
C608 C 0.22031 0.04661 0.79067 0.0
H609 H 0.73499 0.94442 0.73847 0.0
H610 H 0.72505 0.09924 0.72679 0.0
H611 H 0.74663 0.1189 0.75838 0.0
H612 H 0.72164 0.94892 0.78975 0.0
H613 H 0.74671 0.90359 0.79571 0.0
H614 H 0.73043 0.90218 0.77231 0.0
H615 H 0.77711 0.90539 0.75523 0.0
H616 H 0.79354 0.90663 0.77858 0.0
H617 H 0.8003 0.95418 0.76107 0.0
H618 H 0.76778 0.12084 0.79241 0.0
H619 H 0.79025 0.10499 0.82404 0.0
H620 H 0.7876 0.94912 0.8124 0.0
C621 C 0.73722 0.98247 0.74258 0.0
C622 C 0.72814 0.02034 0.7302 0.0
C623 C 0.73196 0.06968 0.73599 0.0
C624 C 0.74405 0.08114 0.75396 0.0
C625 C 0.75251 0.04284 0.76591 0.0
C626 C 0.74951 0.99449 0.76031 0.0
C627 C 0.76085 0.96002 0.77548 0.0
C628 C 0.73857 0.92672 0.7838 0.0
C629 C 0.78435 0.92979 0.76709 0.0
C630 C 0.77067 0.9964 0.79056 0.0
C631 C 0.76544 0.04401 0.78493 0.0
C632 C 0.77212 0.08368 0.79685 0.0
C633 C 0.78473 0.07441 0.81482 0.0
C634 C 0.79089 0.02594 0.82059 0.0
C635 C 0.78357 0.98661 0.80826 0.0
H636 H 0.23769 0.55577 0.72124 0.0
H637 H 0.19051 0.42471 0.73236 0.0
H638 H 0.21304 0.4151 0.76405 0.0
H639 H 0.29977 0.51309 0.74327 0.0
H640 H 0.30834 0.5719 0.75349 0.0
H641 H 0.28867 0.56845 0.73151 0.0
H642 H 0.25114 0.6208 0.74757 0.0
H643 H 0.27071 0.62452 0.76958 0.0
H644 H 0.23662 0.60133 0.77036 0.0
H645 H 0.24083 0.41932 0.79467 0.0
H646 H 0.27089 0.43839 0.82223 0.0
H647 H 0.29968 0.5675 0.7917 0.0
C648 C 0.23224 0.52486 0.73028 0.0
C649 C 0.21216 0.49111 0.72423 0.0
C650 C 0.20545 0.45151 0.73668 0.0
C651 C 0.21831 0.44551 0.7547 0.0
C652 C 0.2379 0.47943 0.76022 0.0
C653 C 0.24481 0.51844 0.74842 0.0
C654 C 0.2662 0.55017 0.75802 0.0
C655 C 0.29229 0.55093 0.74585 0.0
C656 C 0.25552 0.60229 0.7616 0.0
C657 C 0.27022 0.52288 0.77703 0.0
C658 C 0.25376 0.4821 0.77797 0.0
C659 C 0.25375 0.45129 0.79412 0.0
C660 C 0.27084 0.46262 0.80979 0.0
C661 C 0.28775 0.50459 0.80936 0.0
C662 C 0.28739 0.53482 0.79258 0.0
H663 H 0.78556 0.63093 0.73881 0.0
H664 H 0.80116 0.47639 0.73019 0.0
H665 H 0.77443 0.457 0.75966 0.0
H666 H 0.78706 0.63104 0.79177 0.0
H667 H 0.75963 0.674 0.79412 0.0
H668 H 0.78121 0.67579 0.77299 0.0
H669 H 0.73931 0.66707 0.75076 0.0
H670 H 0.71761 0.6648 0.77181 0.0
H671 H 0.71668 0.61599 0.75414 0.0
H672 H 0.7469 0.45451 0.79026 0.0
H673 H 0.71852 0.46878 0.81943 0.0
H674 H 0.7176 0.62424 0.80715 0.0
C675 C 0.78364 0.59317 0.74338 0.0
C676 C 0.79566 0.55505 0.73245 0.0
C677 C 0.79217 0.50593 0.73848 0.0
C678 C 0.77706 0.49466 0.75516 0.0
C679 C 0.76517 0.53293 0.76551 0.0
C680 C 0.76811 0.5812 0.75983 0.0
C681 C 0.75223 0.61509 0.77313 0.0
C682 C 0.77116 0.6511 0.78362 0.0
C683 C 0.73014 0.64234 0.76178 0.0
C684 C 0.74005 0.57836 0.7872 0.0
C685 C 0.74802 0.53123 0.78262 0.0
C686 C 0.74033 0.49118 0.79389 0.0
C687 C 0.72424 0.49954 0.81038 0.0
C688 C 0.71563 0.54736 0.81529 0.0
C689 C 0.72346 0.58721 0.80343 0.0
H690 H 0.27325 0.4956 0.21992 0.0
H691 H 0.33218 0.60593 0.23637 0.0
H692 H 0.31273 0.60905 0.26929 0.0
H693 H 0.21726 0.54799 0.24742 0.0
H694 H 0.20358 0.48928 0.25426 0.0
H695 H 0.2221 0.4956 0.23181 0.0
H696 H 0.25452 0.42643 0.24255 0.0
H697 H 0.23621 0.4201 0.26508 0.0
H698 H 0.27206 0.43172 0.26542 0.0
H699 H 0.28768 0.59937 0.30085 0.0
H700 H 0.25706 0.58065 0.3282 0.0
H701 H 0.21357 0.4776 0.29168 0.0
C702 C 0.28188 0.52082 0.23035 0.0
C703 C 0.30454 0.55016 0.22542 0.0
C704 C 0.31525 0.58231 0.23972 0.0
C705 C 0.30423 0.58459 0.25851 0.0
C706 C 0.28228 0.55469 0.26296 0.0
C707 C 0.27104 0.52368 0.24927 0.0
C708 C 0.24738 0.49558 0.25793 0.0
C709 C 0.22102 0.50786 0.24722 0.0
C710 C 0.25288 0.44017 0.25773 0.0
C711 C 0.24716 0.51566 0.27857 0.0
C712 C 0.26756 0.54955 0.28116 0.0
C713 C 0.27161 0.57286 0.29899 0.0
C714 C 0.25421 0.56165 0.31453 0.0
C715 C 0.23285 0.5275 0.31224 0.0
C716 C 0.2295 0.50416 0.29394 0.0
H717 H 0.70582 0.50647 0.24891 0.0
H718 H 0.76471 0.58238 0.21287 0.0
H719 H 0.79515 0.58899 0.24076 0.0
H720 H 0.71781 0.58044 0.29239 0.0
H721 H 0.71343 0.52973 0.30886 0.0
H722 H 0.69581 0.53034 0.28595 0.0
H723 H 0.71651 0.44607 0.27719 0.0
H724 H 0.73422 0.44525 0.30004 0.0
H725 H 0.75268 0.43858 0.27756 0.0
H726 H 0.8205 0.58438 0.27182 0.0
H727 H 0.83801 0.57294 0.30514 0.0
H728 H 0.76238 0.50528 0.32226 0.0
C729 C 0.72498 0.52487 0.24687 0.0
C730 C 0.73284 0.543 0.22838 0.0
C731 C 0.75826 0.56675 0.22654 0.0
C732 C 0.77574 0.57119 0.24242 0.0
C733 C 0.76753 0.55237 0.26026 0.0
C734 C 0.74268 0.53015 0.2627 0.0
C735 C 0.73894 0.5134 0.28361 0.0
C736 C 0.71508 0.54008 0.29327 0.0
C737 C 0.73538 0.45751 0.28465 0.0
C738 C 0.76568 0.52932 0.2924 0.0
C739 C 0.78188 0.55149 0.27858 0.0
C740 C 0.80794 0.56749 0.28283 0.0
C741 C 0.81776 0.56066 0.30173 0.0
C742 C 0.80151 0.53853 0.31622 0.0
C743 C 0.77504 0.52299 0.3115 0.0
H744 H 0.22902 0.19217 0.12254 0.0
H745 H 0.24779 0.11133 0.17515 0.0
H746 H 0.27299 0.1827 0.1877 0.0
H747 H 0.29319 0.25387 0.11835 0.0
H748 H 0.27874 0.3103 0.10968 0.0
H749 H 0.26203 0.25296 0.10482 0.0
H750 H 0.21827 0.28598 0.12088 0.0
H751 H 0.23487 0.34342 0.12575 0.0
H752 H 0.21953 0.30956 0.14538 0.0
H753 H 0.29569 0.26344 0.19478 0.0
H754 H 0.31464 0.34703 0.19568 0.0
H755 H 0.28188 0.37486 0.1382 0.0
C756 C 0.23839 0.18942 0.13671 0.0
C757 C 0.23636 0.146 0.14785 0.0
C758 C 0.24906 0.14404 0.1663 0.0
C759 C 0.26342 0.18445 0.17358 0.0
C760 C 0.26505 0.22659 0.16222 0.0
C761 C 0.25294 0.22934 0.14416 0.0
C762 C 0.25782 0.27891 0.13486 0.0
C763 C 0.27391 0.27368 0.1158 0.0
C764 C 0.23103 0.30606 0.13153 0.0
C765 C 0.27454 0.30362 0.15051 0.0
C766 C 0.27842 0.27285 0.16619 0.0
C767 C 0.29286 0.28778 0.18255 0.0
C768 C 0.30355 0.33541 0.18292 0.0
C769 C 0.2999 0.36765 0.16699 0.0
C770 C 0.28523 0.35119 0.15057 0.0
H771 H 0.74438 0.70745 0.18997 0.0
H772 H 0.71679 0.69329 0.13039 0.0
H773 H 0.73748 0.77362 0.12252 0.0
H774 H 0.73604 0.83833 0.19504 0.0
H775 H 0.76648 0.84572 0.20909 0.0
H776 H 0.74797 0.78895 0.21012 0.0
H777 H 0.79109 0.74149 0.2 0.0
H778 H 0.80971 0.79809 0.19891 0.0
H779 H 0.80859 0.75833 0.17797 0.0
H780 H 0.76095 0.85756 0.12163 0.0
H781 H 0.78817 0.93281 0.12713 0.0
H782 H 0.80294 0.88705 0.18653 0.0
C783 C 0.74236 0.72152 0.17532 0.0
C784 C 0.72863 0.6945 0.16085 0.0
C785 C 0.72707 0.71359 0.14173 0.0
C786 C 0.73872 0.7592 0.13715 0.0
C787 C 0.75223 0.78487 0.15177 0.0
C788 C 0.75433 0.76633 0.17042 0.0
C789 C 0.77121 0.79938 0.18326 0.0
C790 C 0.75442 0.81928 0.20039 0.0
C791 C 0.79666 0.77273 0.19045 0.0
C792 C 0.77827 0.83956 0.16899 0.0
C793 C 0.76688 0.83109 0.15096 0.0
C794 C 0.77012 0.86427 0.13566 0.0
C795 C 0.78554 0.90691 0.1389 0.0
C796 C 0.79791 0.91537 0.15715 0.0
C797 C 0.7941 0.88116 0.17231 0.0
H798 H 0.19499 0.85656 0.86022 0.0
H799 H 0.25562 0.94177 0.89085 0.0
H800 H 0.28467 0.8685 0.89296 0.0
H801 H 0.20288 0.74698 0.88757 0.0
H802 H 0.19788 0.70693 0.86702 0.0
H803 H 0.18242 0.76654 0.86737 0.0
H804 H 0.20543 0.78733 0.83448 0.0
H805 H 0.22101 0.72776 0.83406 0.0
H806 H 0.2416 0.78205 0.83222 0.0
H807 H 0.30656 0.78412 0.89271 0.0
H808 H 0.31902 0.69653 0.89008 0.0
H809 H 0.24417 0.66787 0.85929 0.0
C810 C 0.21442 0.86001 0.86729 0.0
C811 C 0.22297 0.90511 0.87534 0.0
C812 C 0.24858 0.90775 0.88451 0.0
C813 C 0.26527 0.86628 0.88578 0.0
C814 C 0.25616 0.82236 0.87775 0.0
C815 C 0.23135 0.81906 0.86865 0.0
C816 C 0.22598 0.76745 0.86154 0.0
C817 C 0.20081 0.7457 0.87147 0.0
C818 C 0.22336 0.76609 0.83925 0.0
C819 C 0.25152 0.74209 0.8682 0.0
C820 C 0.26876 0.77428 0.87749 0.0
C821 C 0.29327 0.75869 0.88534 0.0
C822 C 0.3002 0.70887 0.88377 0.0
C823 C 0.28269 0.67523 0.87441 0.0
C824 C 0.25817 0.69251 0.86642 0.0
H825 H 0.71636 0.35193 0.91353 0.0
H826 H 0.75162 0.4389 0.86712 0.0
H827 H 0.78129 0.36973 0.85832 0.0
H828 H 0.77731 0.29174 0.92808 0.0
H829 H 0.76114 0.23384 0.93291 0.0
H830 H 0.74234 0.28992 0.93541 0.0
H831 H 0.70637 0.25725 0.91131 0.0
H832 H 0.72503 0.201 0.90881 0.0
H833 H 0.71678 0.23646 0.88755 0.0
H834 H 0.8081 0.29096 0.85499 0.0
H835 H 0.82855 0.20851 0.8568 0.0
H836 H 0.7755 0.1729 0.90515 0.0
C837 C 0.73023 0.35646 0.90146 0.0
C838 C 0.73157 0.40111 0.89105 0.0
C839 C 0.7501 0.40524 0.87535 0.0
C840 C 0.76711 0.36609 0.87024 0.0
C841 C 0.7654 0.32279 0.8809 0.0
C842 C 0.74733 0.31769 0.89612 0.0
C843 C 0.7495 0.26727 0.90523 0.0
C844 C 0.75809 0.27094 0.92668 0.0
C845 C 0.72283 0.23882 0.90309 0.0
C846 C 0.77167 0.24492 0.89282 0.0
C847 C 0.78063 0.27751 0.87888 0.0
C848 C 0.80117 0.26513 0.86583 0.0
C849 C 0.81272 0.21818 0.86701 0.0
C850 C 0.80371 0.18398 0.88109 0.0
C851 C 0.7829 0.19793 0.89416 0.0
H852 H 0.80547 0.86831 0.90095 0.0
H853 H 0.732 0.95346 0.89469 0.0
H854 H 0.70577 0.87685 0.8912 0.0
H855 H 0.78853 0.77564 0.86581 0.0
H856 H 0.80357 0.72635 0.87941 0.0
H857 H 0.81664 0.78768 0.88176 0.0
H858 H 0.80953 0.78416 0.91908 0.0
H859 H 0.79661 0.72272 0.91687 0.0
H860 H 0.77661 0.76926 0.92866 0.0
H861 H 0.6877 0.79215 0.88857 0.0
H862 H 0.67808 0.70395 0.88752 0.0
H863 H 0.76339 0.67221 0.89478 0.0
C864 C 0.78382 0.87088 0.89898 0.0
C865 C 0.77069 0.91688 0.89819 0.0
C866 C 0.74241 0.91866 0.89541 0.0
C867 C 0.7274 0.87537 0.89336 0.0
C868 C 0.74101 0.83071 0.89403 0.0
C869 C 0.76856 0.82807 0.8968 0.0
C870 C 0.77822 0.77529 0.89686 0.0
C871 C 0.79791 0.76569 0.87995 0.0
C872 C 0.79099 0.76209 0.91654 0.0
C873 C 0.7517 0.74855 0.89385 0.0
C874 C 0.73058 0.78145 0.89224 0.0
C875 C 0.70405 0.76608 0.88978 0.0
C876 C 0.69884 0.7158 0.88923 0.0
C877 C 0.72001 0.68117 0.89107 0.0
C878 C 0.74688 0.69782 0.89316 0.0
H879 H 0.30651 0.3697 0.88814 0.0
H880 H 0.23388 0.45848 0.88608 0.0
H881 H 0.20614 0.38321 0.88486 0.0
H882 H 0.28391 0.27687 0.85492 0.0
H883 H 0.2998 0.22727 0.86781 0.0
H884 H 0.31404 0.28794 0.86895 0.0
H885 H 0.31146 0.28592 0.90659 0.0
H886 H 0.29732 0.22516 0.90558 0.0
H887 H 0.2796 0.27317 0.9183 0.0
H888 H 0.18652 0.29948 0.88382 0.0
H889 H 0.17551 0.21187 0.8831 0.0
H890 H 0.26091 0.17594 0.88527 0.0
C891 C 0.28475 0.37334 0.88754 0.0
C892 C 0.27228 0.41995 0.88729 0.0
C893 C 0.2438 0.42317 0.88636 0.0
C894 C 0.22792 0.38066 0.88563 0.0
C895 C 0.24087 0.33534 0.88579 0.0
C896 C 0.26862 0.33131 0.88672 0.0
C897 C 0.27743 0.27809 0.88649 0.0
C898 C 0.29482 0.2669 0.86847 0.0
C899 C 0.29233 0.26481 0.90537 0.0
C900 C 0.25023 0.25273 0.88533 0.0
C901 C 0.2295 0.28664 0.88496 0.0
C902 C 0.20256 0.2726 0.88409 0.0
C903 C 0.19656 0.2226 0.88371 0.0
C904 C 0.21737 0.18694 0.88415 0.0
C905 C 0.24461 0.20231 0.88485 0.0
H906 H 0.7146 0.37687 0.14624 0.0
H907 H 0.78185 0.46401 0.16739 0.0
H908 H 0.80725 0.38833 0.17436 0.0
H909 H 0.72029 0.27801 0.1807 0.0
H910 H 0.71227 0.23073 0.16332 0.0
H911 H 0.69887 0.29153 0.16023 0.0
H912 H 0.71972 0.29602 0.12567 0.0
H913 H 0.73291 0.23504 0.12857 0.0
H914 H 0.75534 0.28478 0.12248 0.0
H915 H 0.82496 0.30469 0.1795 0.0
H916 H 0.83657 0.21737 0.17948 0.0
H917 H 0.75863 0.18235 0.15406 0.0
C918 C 0.73471 0.37996 0.1523 0.0
C919 C 0.74631 0.42629 0.15631 0.0
C920 C 0.77268 0.42893 0.16412 0.0
C921 C 0.78716 0.38616 0.16825 0.0
C922 C 0.77504 0.34111 0.16435 0.0
C923 C 0.74959 0.33757 0.15632 0.0
C924 C 0.74177 0.28443 0.15288 0.0
C925 C 0.71682 0.27036 0.16501 0.0
C926 C 0.73717 0.27449 0.13111 0.0
C927 C 0.7669 0.25866 0.16021 0.0
C928 C 0.78562 0.29228 0.16694 0.0
C929 C 0.81053 0.27802 0.17423 0.0
C930 C 0.81688 0.2282 0.17416 0.0
C931 C 0.79852 0.19296 0.16673 0.0
C932 C 0.77295 0.20836 0.15999 0.0
H933 H 0.26807 0.8755 0.14468 0.0
H934 H 0.18235 0.84263 0.14802 0.0
H935 H 0.19243 0.75454 0.14894 0.0
H936 H 0.28492 0.77552 0.11304 0.0
H937 H 0.31696 0.76285 0.12436 0.0
H938 H 0.30336 0.82397 0.12494 0.0
H939 H 0.30668 0.82479 0.16256 0.0
H940 H 0.32041 0.76374 0.16208 0.0
H941 H 0.29068 0.7767 0.17636 0.0
H942 H 0.21122 0.67008 0.14918 0.0
H943 H 0.23808 0.59391 0.14823 0.0
H944 H 0.3116 0.68004 0.14364 0.0
C945 C 0.25152 0.84968 0.1458 0.0
C946 C 0.22444 0.86592 0.14631 0.0
C947 C 0.20326 0.83105 0.14753 0.0
C948 C 0.20875 0.78087 0.14811 0.0
C949 C 0.23555 0.76589 0.14734 0.0
C950 C 0.25663 0.79908 0.14617 0.0
C951 C 0.28354 0.77274 0.14492 0.0
C952 C 0.29804 0.78447 0.12567 0.0
C953 C 0.30137 0.78524 0.16253 0.0
C954 C 0.27417 0.7198 0.14551 0.0
C955 C 0.24641 0.71676 0.14703 0.0
C956 C 0.233 0.6719 0.14797 0.0
C957 C 0.24839 0.62885 0.1474 0.0
C958 C 0.27686 0.63102 0.14576 0.0
C959 C 0.28983 0.67719 0.14476 0.0
H960 H 0.21626 0.72337 0.63148 0.0
H961 H 0.24642 0.63889 0.68022 0.0
H962 H 0.27523 0.70893 0.68994 0.0
H963 H 0.27924 0.78167 0.61954 0.0
H964 H 0.26392 0.83914 0.61298 0.0
H965 H 0.24526 0.7829 0.61017 0.0
H966 H 0.20669 0.81768 0.63163 0.0
H967 H 0.22517 0.8741 0.63441 0.0
H968 H 0.21432 0.84058 0.65561 0.0
H969 H 0.3005 0.7896 0.6945 0.0
H970 H 0.32036 0.8726 0.69329 0.0
H971 H 0.27476 0.903 0.64086 0.0
C972 C 0.22877 0.71957 0.64428 0.0
C973 C 0.22891 0.67549 0.65514 0.0
C974 C 0.24589 0.67215 0.67167 0.0
C975 C 0.26234 0.71181 0.67729 0.0
C976 C 0.26182 0.75457 0.66618 0.0
C977 C 0.2455 0.75858 0.64998 0.0
C978 C 0.24892 0.80819 0.64033 0.0
C979 C 0.26 0.80262 0.61952 0.0
C980 C 0.22218 0.83683 0.64051 0.0
C981 C 0.26963 0.83166 0.65365 0.0
C982 C 0.27675 0.80024 0.66852 0.0
C983 C 0.29511 0.81432 0.68285 0.0
C984 C 0.30631 0.86167 0.68203 0.0
C985 C 0.29936 0.89459 0.66691 0.0
C986 C 0.28084 0.87887 0.6525 0.0
H987 H 0.80682 0.34769 0.63491 0.0
H988 H 0.78327 0.42401 0.68775 0.0
H989 H 0.75626 0.3526 0.69778 0.0
H990 H 0.74359 0.29127 0.62603 0.0
H991 H 0.7573 0.23419 0.6173 0.0
H992 H 0.77645 0.2899 0.61468 0.0
H993 H 0.8166 0.25067 0.633 0.0
H994 H 0.7976 0.19469 0.63558 0.0
H995 H 0.81117 0.22474 0.65679 0.0
H996 H 0.72896 0.27571 0.70111 0.0
H997 H 0.70501 0.1968 0.69823 0.0
H998 H 0.74659 0.168 0.64375 0.0
C999 C 0.79638 0.3491 0.64876 0.0
C1000 C 0.79733 0.39178 0.66053 0.0
C1001 C 0.78299 0.39205 0.67843 0.0
C1002 C 0.76753 0.35153 0.68428 0.0
C1003 C 0.76659 0.31057 0.67219 0.0
C1004 C 0.7808 0.30875 0.65488 0.0
C1005 C 0.77559 0.26063 0.64435 0.0
C1006 C 0.76245 0.26955 0.62441 0.0
C1007 C 0.8018 0.23092 0.64232 0.0
C1008 C 0.75597 0.23607 0.65832 0.0
C1009 C 0.75109 0.26563 0.67427 0.0
C1010 C 0.73285 0.25204 0.68878 0.0
C1011 C 0.71924 0.20713 0.68697 0.0
C1012 C 0.72394 0.1759 0.67083 0.0
C1013 C 0.74276 0.19065 0.65639 0.0
H1014 H 0.19964 0.34437 0.35847 0.0
H1015 H 0.21865 0.39224 0.41705 0.0
H1016 H 0.24128 0.31276 0.42329 0.0
H1017 H 0.18823 0.2155 0.36878 0.0
H1018 H 0.20425 0.19595 0.34651 0.0
H1019 H 0.18745 0.25436 0.34761 0.0
H1020 H 0.2314 0.2975 0.33619 0.0
H1021 H 0.24831 0.23932 0.33504 0.0
H1022 H 0.26222 0.28814 0.3496 0.0
H1023 H 0.26277 0.22712 0.42246 0.0
H1024 H 0.28451 0.14814 0.41362 0.0
H1025 H 0.25317 0.16159 0.35503 0.0
C1026 C 0.20812 0.33787 0.37275 0.0
C1027 C 0.20712 0.37405 0.38737 0.0
C1028 C 0.21912 0.36473 0.40568 0.0
C1029 C 0.23189 0.3197 0.40937 0.0
C1030 C 0.23267 0.28482 0.39451 0.0
C1031 C 0.22128 0.29379 0.37651 0.0
C1032 C 0.2266 0.25251 0.36239 0.0
C1033 C 0.20005 0.22814 0.35595 0.0
C1034 C 0.24312 0.27045 0.34477 0.0
C1035 C 0.24297 0.21886 0.37514 0.0
C1036 C 0.24595 0.23745 0.39373 0.0
C1037 C 0.26053 0.21231 0.40794 0.0
C1038 C 0.27271 0.16751 0.40284 0.0
C1039 C 0.27059 0.14917 0.38364 0.0
C1040 C 0.25527 0.175 0.36979 0.0
H1041 H 0.78692 0.70537 0.35926 0.0
H1042 H 0.78631 0.6711 0.42085 0.0
H1043 H 0.76472 0.75119 0.42775 0.0
H1044 H 0.79938 0.83612 0.36337 0.0
H1045 H 0.77707 0.85067 0.34352 0.0
H1046 H 0.79445 0.79278 0.34388 0.0
H1047 H 0.74865 0.74723 0.34089 0.0
H1048 H 0.73116 0.80492 0.34054 0.0
H1049 H 0.72231 0.75933 0.35839 0.0
H1050 H 0.74223 0.83601 0.42748 0.0
H1051 H 0.71814 0.91333 0.41978 0.0
H1052 H 0.7319 0.88736 0.35829 0.0
C1053 C 0.78267 0.71493 0.37425 0.0
C1054 C 0.78858 0.68226 0.38955 0.0
C1055 C 0.78206 0.69573 0.40892 0.0
C1056 C 0.76989 0.74118 0.41297 0.0
C1057 C 0.76414 0.77243 0.39747 0.0
C1058 C 0.7702 0.75956 0.37849 0.0
C1059 C 0.76043 0.7977 0.36424 0.0
C1060 C 0.78426 0.82068 0.3531 0.0
C1061 C 0.73939 0.77599 0.3502 0.0
C1062 C 0.74774 0.83402 0.3781 0.0
C1063 C 0.75035 0.81943 0.39725 0.0
C1064 C 0.74006 0.84766 0.41253 0.0
C1065 C 0.72649 0.89151 0.40805 0.0
C1066 C 0.72298 0.90603 0.38845 0.0
C1067 C 0.73401 0.87697 0.37341 0.0
H1068 H 0.79916 0.36414 0.39122 0.0
H1069 H 0.72946 0.45085 0.37473 0.0
H1070 H 0.70325 0.37471 0.36958 0.0
H1071 H 0.78755 0.26157 0.35744 0.0
H1072 H 0.79868 0.21664 0.37484 0.0
H1073 H 0.81267 0.2776 0.37531 0.0
H1074 H 0.79865 0.28657 0.41149 0.0
H1075 H 0.78462 0.22578 0.41114 0.0
H1076 H 0.76387 0.27691 0.41834 0.0
H1077 H 0.68384 0.29044 0.36898 0.0
H1078 H 0.67186 0.20363 0.37329 0.0
H1079 H 0.75433 0.17114 0.39013 0.0
C1080 C 0.7785 0.36718 0.38622 0.0
C1081 C 0.76629 0.41335 0.3833 0.0
C1082 C 0.73916 0.41581 0.377 0.0
C1083 C 0.72419 0.3728 0.37398 0.0
C1084 C 0.73677 0.32787 0.37725 0.0
C1085 C 0.76332 0.32475 0.38319 0.0
C1086 C 0.77155 0.27215 0.38693 0.0
C1087 C 0.79394 0.25605 0.37278 0.0
C1088 C 0.78017 0.26495 0.40824 0.0
C1089 C 0.74523 0.24612 0.38263 0.0
C1090 C 0.72554 0.279 0.37689 0.0
C1091 C 0.69914 0.26433 0.37323 0.0
C1092 C 0.69254 0.21496 0.3758 0.0
C1093 C 0.71223 0.18076 0.38199 0.0
C1094 C 0.73904 0.1964 0.38509 0.0
H1095 H 0.19764 0.69373 0.38429 0.0
H1096 H 0.26951 0.60574 0.37507 0.0
H1097 H 0.29627 0.681 0.36988 0.0
H1098 H 0.21355 0.7902 0.34916 0.0
H1099 H 0.20045 0.83832 0.36447 0.0
H1100 H 0.18636 0.77754 0.36591 0.0
H1101 H 0.19605 0.77541 0.40296 0.0
H1102 H 0.21 0.8362 0.40164 0.0
H1103 H 0.22987 0.78692 0.41151 0.0
H1104 H 0.31539 0.76443 0.36711 0.0
H1105 H 0.32691 0.85186 0.36917 0.0
H1106 H 0.2429 0.88687 0.38093 0.0
C1107 C 0.21896 0.69039 0.38097 0.0
C1108 C 0.2316 0.64414 0.38 0.0
C1109 C 0.25955 0.64097 0.37594 0.0
C1110 C 0.27483 0.68341 0.37283 0.0
C1111 C 0.2618 0.72851 0.37393 0.0
C1112 C 0.23456 0.7324 0.37803 0.0
C1113 C 0.22596 0.78548 0.37972 0.0
C1114 C 0.20536 0.79864 0.36387 0.0
C1115 C 0.21482 0.79664 0.40017 0.0
C1116 C 0.25274 0.8108 0.37624 0.0
C1117 C 0.27301 0.77713 0.37266 0.0
C1118 C 0.2997 0.79119 0.36978 0.0
C1119 C 0.30602 0.84095 0.37102 0.0
C1120 C 0.28576 0.87603 0.37523 0.0
C1121 C 0.25869 0.86085 0.37749 0.0
H1122 H 0.80733 0.70986 0.65637 0.0
H1123 H 0.73394 0.62531 0.64821 0.0
H1124 H 0.70819 0.70232 0.64398 0.0
H1125 H 0.77645 0.80701 0.6843 0.0
H1126 H 0.7975 0.85421 0.67395 0.0
H1127 H 0.81004 0.79255 0.67591 0.0
H1128 H 0.82013 0.79181 0.63891 0.0
H1129 H 0.80735 0.85331 0.63679 0.0
H1130 H 0.79335 0.80505 0.62199 0.0
H1131 H 0.69113 0.78734 0.6395 0.0
H1132 H 0.68182 0.87537 0.63883 0.0
H1133 H 0.76605 0.90646 0.6516 0.0
C1134 C 0.78582 0.70756 0.65368 0.0
C1135 C 0.77254 0.66171 0.65247 0.0
C1136 C 0.74439 0.66009 0.64922 0.0
C1137 C 0.72971 0.70357 0.64669 0.0
C1138 C 0.74351 0.74814 0.64771 0.0
C1139 C 0.77084 0.75054 0.65143 0.0
C1140 C 0.78059 0.80323 0.65256 0.0
C1141 C 0.7918 0.81493 0.67289 0.0
C1142 C 0.8016 0.81397 0.63661 0.0
C1143 C 0.75441 0.8303 0.6488 0.0
C1144 C 0.73343 0.79759 0.64582 0.0
C1145 C 0.70734 0.81324 0.64194 0.0
C1146 C 0.70234 0.86356 0.64156 0.0
C1147 C 0.72321 0.89807 0.64525 0.0
C1148 C 0.74973 0.88111 0.64865 0.0
H1149 H 0.26444 0.40169 0.6456 0.0
H1150 H 0.17843 0.37144 0.64199 0.0
H1151 H 0.1875 0.28316 0.6423 0.0
H1152 H 0.28493 0.3026 0.61393 0.0
H1153 H 0.31497 0.28846 0.62757 0.0
H1154 H 0.30187 0.34995 0.62757 0.0
H1155 H 0.29967 0.34876 0.66525 0.0
H1156 H 0.31273 0.28722 0.66534 0.0
H1157 H 0.28118 0.30067 0.67735 0.0
H1158 H 0.20539 0.19752 0.64365 0.0
H1159 H 0.23185 0.12049 0.64402 0.0
H1160 H 0.30598 0.20547 0.64537 0.0
C1161 C 0.24759 0.37643 0.64488 0.0
C1162 C 0.22076 0.39366 0.64376 0.0
C1163 C 0.19922 0.35934 0.64276 0.0
C1164 C 0.2041 0.30893 0.643 0.0
C1165 C 0.23068 0.29303 0.6441 0.0
C1166 C 0.25211 0.3256 0.64488 0.0
C1167 C 0.27875 0.29843 0.6455 0.0
C1168 C 0.29615 0.31058 0.62757 0.0
C1169 C 0.29397 0.30943 0.66449 0.0
C1170 C 0.26883 0.24585 0.64493 0.0
C1171 C 0.24102 0.24348 0.64431 0.0
C1172 C 0.22723 0.19882 0.64403 0.0
C1173 C 0.24235 0.1553 0.64427 0.0
C1174 C 0.27087 0.157 0.64456 0.0
C1175 C 0.28416 0.20295 0.64495 0.0
H1176 H 0.96275 0.03564 0.172 0.0
H1177 H 0.93784 0.03033 0.11155 0.0
H1178 H 0.98534 0.04148 0.10125 0.0
H1179 H 0.01322 0.12837 0.1666 0.0
H1180 H 0.03641 0.10119 0.18362 0.0
H1181 H 1.00059 0.09154 0.18638 0.0
H1182 H 0.00756 0.99751 0.18559 0.0
H1183 H 0.04343 0.0069 0.18328 0.0
H1184 H 0.02573 0.97027 0.16556 0.0
H1185 H 0.03517 0.05568 0.09759 0.0
H1186 H 0.08481 0.06083 0.10068 0.0
H1187 H 0.07737 0.05738 0.16352 0.0
C1188 C 0.96734 0.03648 0.15659 0.0
C1189 C 0.94663 0.03201 0.14255 0.0
C1190 C 0.95343 0.03295 0.12254 0.0
C1191 C 0.98029 0.0399 0.11656 0.0
C1192 C 1.00008 0.04569 0.13079 0.0
C1193 C 0.99401 0.04326 0.15039 0.0
C1194 C 0.01913 0.04937 0.16273 0.0
C1195 C 0.01721 0.09536 0.17559 0.0
C1196 C 0.02427 1.00326 0.17501 0.0
C1197 C 0.04035 0.05549 0.14701 0.0
C1198 C 0.02885 0.05377 0.12869 0.0
C1199 C 0.04439 0.05713 0.11184 0.0
C1200 C 0.07251 0.06031 0.11374 0.0
C1201 C 0.08481 0.05993 0.13233 0.0
C1202 C 0.06844 0.05887 0.14916 0.0
H1203 H 0.06021 1.00104 0.87462 0.0
H1204 H 0.08434 0.02263 0.93454 0.0
H1205 H 0.03644 0.03655 0.94378 0.0
H1206 H 0.01092 0.09212 0.87288 0.0
H1207 H 0.98759 0.05839 0.85785 0.0
H1208 H 0.02325 0.04607 0.85627 0.0
H1209 H 0.01486 0.9544 0.86391 0.0
H1210 H 0.97909 0.96617 0.86501 0.0
H1211 H 0.99586 0.93783 0.88533 0.0
H1212 H 0.98577 0.05666 0.94549 0.0
H1213 H 0.93644 0.06771 0.94049 0.0
H1214 H 0.94609 0.03014 0.87964 0.0
C1215 C 0.05527 0.00735 0.88977 0.0
C1216 C 0.07587 0.01026 0.90393 0.0
C1217 C 0.06877 0.01934 0.92357 0.0
C1218 C 0.04167 0.02785 0.92887 0.0
C1219 C 0.02193 0.0266 0.91438 0.0
C1220 C 0.0284 0.01538 0.89531 0.0
C1221 C 1.00365 0.01658 0.8824 0.0
C1222 C 1.00654 0.05561 0.86641 0.0
C1223 C 0.99803 0.96572 0.87365 0.0
C1224 C 0.98222 0.03084 0.89709 0.0
C1225 C 0.99309 0.037 0.91544 0.0
C1226 C 0.97708 0.05147 0.9312 0.0
C1227 C 0.94917 0.05821 0.92822 0.0
C1228 C 0.93761 0.05005 0.90969 0.0
C1229 C 0.95449 0.03681 0.89395 0.0
H1230 H 0.95303 0.52715 0.67409 0.0
H1231 H 0.9345 0.54943 0.61303 0.0
H1232 H 0.98222 0.5676 0.60636 0.0
H1233 H 1.00308 0.62007 0.67876 0.0
H1234 H 0.02583 0.58547 0.69386 0.0
H1235 H 0.99012 0.5726 0.69443 0.0
H1236 H 0.99915 0.48177 0.68581 0.0
H1237 H 0.03492 0.49411 0.68568 0.0
H1238 H 0.01913 0.46713 0.66462 0.0
H1239 H 0.03013 0.59055 0.60629 0.0
H1240 H 0.07911 0.59936 0.61124 0.0
H1241 H 0.06966 0.55688 0.67168 0.0
C1242 C 0.9592 0.53477 0.65928 0.0
C1243 C 0.93987 0.53767 0.64412 0.0
C1244 C 0.94879 0.54785 0.62493 0.0
C1245 C 0.97587 0.55842 0.62098 0.0
C1246 C 0.99414 0.55781 0.6363 0.0
C1247 C 0.98655 0.54482 0.65495 0.0
C1248 C 0.01097 0.54546 0.66842 0.0
C1249 C 0.00726 0.58315 0.68484 0.0
C1250 C 0.01636 0.49406 0.67661 0.0
C1251 C 0.0332 0.56124 0.65438 0.0
C1252 C 0.0227 0.56889 0.63604 0.0
C1253 C 0.03871 0.58411 0.62052 0.0
C1254 C 0.06649 0.58934 0.62351 0.0
C1255 C 0.07823 0.57875 0.6418 0.0
C1256 C 0.06121 0.56585 0.65762 0.0
H1257 H 0.94362 0.58843 0.40655 0.0
H1258 H 0.92165 0.43575 0.39798 0.0
H1259 H 0.96934 0.41476 0.39322 0.0
H1260 H 0.99563 0.59011 0.36954 0.0
H1261 H 0.01773 0.63022 0.38299 0.0
H1262 H 0.9817 0.6338 0.38649 0.0
H1263 H 0.98795 0.62007 0.4235 0.0
H1264 H 0.02398 0.61654 0.42012 0.0
H1265 H 1.0062 0.56706 0.43185 0.0
H1266 H 0.01899 0.40919 0.38948 0.0
H1267 H 0.06828 0.42038 0.38618 0.0
H1268 H 0.05876 0.57655 0.39572 0.0
C1269 C 0.94883 0.55063 0.40365 0.0
C1270 C 0.92876 0.51369 0.40309 0.0
C1271 C 0.93656 0.46463 0.39917 0.0
C1272 C 0.96364 0.45227 0.39622 0.0
C1273 C 0.98284 0.48935 0.397 0.0
C1274 C 0.97589 0.53756 0.40051 0.0
C1275 C 1.00069 0.57024 0.40022 0.0
C1276 C 0.99882 0.60834 0.38383 0.0
C1277 C 1.00495 0.59492 0.42011 0.0
C1278 C 0.02252 0.53272 0.39604 0.0
C1279 C 0.01171 0.48629 0.39431 0.0
C1280 C 0.02775 0.44537 0.39077 0.0
C1281 C 0.05569 0.45202 0.389 0.0
C1282 C 0.06727 0.49925 0.39067 0.0
C1283 C 0.05039 0.5401 0.39415 0.0
H1284 H 0.45472 0.98714 0.63822 0.0
H1285 H 0.43139 0.13551 0.65337 0.0
H1286 H 0.47927 0.15954 0.65522 0.0
H1287 H 0.5133 0.98234 0.67013 0.0
H1288 H 0.53327 0.94695 0.65326 0.0
H1289 H 0.49701 0.94129 0.65325 0.0
H1290 H 0.4963 0.96296 0.61656 0.0
H1291 H 0.53253 0.96928 0.61654 0.0
H1292 H 0.51166 0.01923 0.60841 0.0
H1293 H 0.52986 0.16859 0.65472 0.0
H1294 H 0.57965 0.15916 0.65486 0.0
H1295 H 0.57032 0.00557 0.64005 0.0
C1296 C 0.45975 0.02448 0.64213 0.0
C1297 C 0.43925 0.05955 0.64539 0.0
C1298 C 0.4467 0.10816 0.65044 0.0
C1299 C 0.47387 0.12224 0.65157 0.0
C1300 C 0.49357 0.0873 0.64772 0.0
C1301 C 0.48693 0.03929 0.64332 0.0
C1302 C 0.51217 0.00899 0.64005 0.0
C1303 C 0.51405 0.96744 0.65507 0.0
C1304 C 0.51321 0.98894 0.61914 0.0
C1305 C 0.53388 0.04742 0.64337 0.0
C1306 C 0.52275 0.09244 0.64765 0.0
C1307 C 0.53884 0.13345 0.65141 0.0
C1308 C 0.56709 0.12792 0.6513 0.0
C1309 C 0.5789 0.08169 0.64759 0.0
C1310 C 0.56193 0.04133 0.64317 0.0
H1311 H 0.43817 0.04941 0.41837 0.0
H1312 H 0.42629 0.06475 0.3562 0.0
H1313 H 0.47552 0.05691 0.35093 0.0
H1314 H 0.50294 0.11761 0.42028 0.0
H1315 H 0.51648 0.07801 0.4388 0.0
H1316 H 0.48062 0.08876 0.43759 0.0
H1317 H 0.47249 0.99513 0.43561 0.0
H1318 H 0.50832 0.98411 0.43637 0.0
H1319 H 0.48851 0.96023 0.41653 0.0
H1320 H 0.52504 0.03775 0.35219 0.0
H1321 H 0.57295 0.02243 0.36023 0.0
H1322 H 0.55306 0.02327 0.4217 0.0
C1323 C 0.44609 0.0523 0.40371 0.0
C1324 C 0.42858 0.05801 0.38768 0.0
C1325 C 0.43948 0.06122 0.36867 0.0
C1326 C 0.46734 0.0563 0.36554 0.0
C1327 C 0.48397 0.0489 0.3816 0.0
C1328 C 0.47387 0.04815 0.40036 0.0
C1329 C 0.49609 0.03931 0.41506 0.0
C1330 C 0.49922 0.08357 0.42874 0.0
C1331 C 0.49104 0.99187 0.42656 0.0
C1332 C 0.52018 0.03422 0.40161 0.0
C1333 C 0.51269 0.03937 0.38236 0.0
C1334 C 0.53121 0.03421 0.36721 0.0
C1335 C 0.55827 0.02496 0.3719 0.0
C1336 C 0.56653 0.02144 0.39155 0.0
C1337 C 0.54718 0.02578 0.40656 0.0
H1338 H 0.57101 0.54539 0.12283 0.0
H1339 H 0.58242 0.56762 0.1847 0.0
H1340 H 0.53349 0.55427 0.19021 0.0
H1341 H 0.5052 0.60804 0.12041 0.0
H1342 H 0.49221 0.56654 0.10227 0.0
H1343 H 0.5279 0.57929 0.10333 0.0
H1344 H 0.53753 0.48636 0.1062 0.0
H1345 H 0.50187 0.47337 0.10548 0.0
H1346 H 0.52196 0.4518 0.12554 0.0
H1347 H 0.4843 0.53087 0.18921 0.0
H1348 H 0.43662 0.51195 0.18133 0.0
H1349 H 0.45632 0.51112 0.11987 0.0
C1350 C 0.56301 0.54827 0.13746 0.0
C1351 C 0.58029 0.55775 0.15337 0.0
C1352 C 0.56934 0.56101 0.17235 0.0
C1353 C 0.54168 0.55309 0.17561 0.0
C1354 C 0.52523 0.54275 0.15967 0.0
C1355 C 0.53535 0.54149 0.14092 0.0
C1356 C 0.51322 0.5305 0.12632 0.0
C1357 C 0.50941 0.57367 0.11225 0.0
C1358 C 0.519 0.48266 0.11524 0.0
C1359 C 0.48916 0.52492 0.13981 0.0
C1360 C 0.49662 0.53149 0.15902 0.0
C1361 C 0.47816 0.5262 0.17422 0.0
C1362 C 0.45124 0.51504 0.16964 0.0
C1363 C 0.44299 0.50996 0.15005 0.0
C1364 C 0.46222 0.51482 0.13497 0.0
H1365 H 0.45316 0.52755 0.86713 0.0
H1366 H 0.43347 0.53449 0.92858 0.0
H1367 H 0.48104 0.51609 0.93671 0.0
H1368 H 0.50222 0.42991 0.8696 0.0
H1369 H 0.52474 0.45665 0.85191 0.0
H1370 H 0.48899 0.46871 0.8507 0.0
H1371 H 0.49808 0.56211 0.85199 0.0
H1372 H 0.53383 0.5503 0.85281 0.0
H1373 H 0.51817 0.58696 0.87151 0.0
H1374 H 0.53014 0.49561 0.93822 0.0
H1375 H 0.57935 0.48814 0.93337 0.0
H1376 H 0.56843 0.49794 0.87094 0.0
C1377 C 0.45897 0.52536 0.88229 0.0
C1378 C 0.43968 0.53248 0.89727 0.0
C1379 C 0.44799 0.52968 0.91692 0.0
C1380 C 0.47487 0.51869 0.92165 0.0
C1381 C 0.49328 0.51102 0.90656 0.0
C1382 C 0.48587 0.51519 0.88727 0.0
C1383 C 0.51007 0.50821 0.87392 0.0
C1384 C 0.50626 0.46318 0.86075 0.0
C1385 C 0.51535 0.55466 0.86185 0.0
C1386 C 0.5323 0.49973 0.88872 0.0
C1387 C 0.52197 0.50062 0.90743 0.0
C1388 C 0.53845 0.49489 0.92365 0.0
C1389 C 0.56635 0.49038 0.92075 0.0
C1390 C 0.57766 0.49214 0.9018 0.0
C1391 C 0.56029 0.49542 0.88554 0.0
H1392 H 0.21707 0.97898 0.96991 0.0
H1393 H 0.16966 0.11117 0.96437 0.0
H1394 H 0.16431 0.11415 1.00041 0.0
H1395 H 0.18199 0.92658 1.01277 0.0
H1396 H 0.21325 0.90374 0.02259 0.0
H1397 H 0.20898 0.90854 0.99664 0.0
H1398 H 0.25235 0.96159 0.99462 0.0
H1399 H 0.25654 0.9577 0.02054 0.0
H1400 H 0.25468 0.01677 1.00896 0.0
H1401 H 0.16934 0.1064 0.03784 0.0
H1402 H 0.18294 0.08821 0.0718 0.0
H1403 H 0.22846 0.96276 0.05142 0.0
C1404 C 0.20503 0.00799 0.97625 0.0
C1405 C 0.19375 0.04488 0.96443 0.0
C1406 C 0.17814 0.08226 0.9732 0.0
C1407 C 0.1752 0.08429 0.99363 0.0
C1408 C 0.18781 0.04838 1.00493 0.0
C1409 C 0.20214 0.0106 0.9964 0.0
C1410 C 0.21575 0.97863 1.01139 0.0
C1411 C 0.2043 0.92628 1.01081 0.0
C1412 C 0.24665 0.97872 1.00871 0.0
C1413 C 0.20756 0.00486 0.02981 0.0
C1414 C 0.19115 0.04463 0.02597 0.0
C1415 C 0.18194 0.07502 0.04093 0.0
C1416 C 0.18974 0.06442 0.06018 0.0
C1417 C 0.2069 0.02421 0.06426 0.0
C1418 C 0.21563 0.99409 0.04879 0.0
H1419 H 0.81216 0.11789 0.98499 0.0
H1420 H 0.82196 0.96187 0.97668 0.0
H1421 H 0.82799 0.95149 1.0124 0.0
H1422 H 0.86153 0.13098 0.02418 0.0
H1423 H 0.84174 0.17705 0.03644 0.0
H1424 H 0.83992 0.171 1.01038 0.0
H1425 H 0.78795 0.16092 1.01287 0.0
H1426 H 0.78964 0.16615 0.03894 0.0
H1427 H 0.77405 0.11321 0.02799 0.0
H1428 H 0.82898 0.95922 0.05011 0.0
H1429 H 0.83039 0.98505 0.08481 0.0
H1430 H 0.82061 0.13612 0.06714 0.0
C1431 C 0.81596 0.08162 0.99069 0.0
C1432 C 0.8166 0.04062 0.97816 0.0
C1433 C 0.82171 0.99373 0.98606 0.0
C1434 C 0.82491 0.98757 1.00632 0.0
C1435 C 0.8233 0.02883 1.01837 0.0
C1436 C 0.81944 0.07506 1.01069 0.0
C1437 C 0.81833 0.11372 0.02644 0.0
C1438 C 0.84178 0.15034 0.02423 0.0
C1439 C 0.79086 0.14003 0.02656 0.0
C1440 C 0.82176 0.08223 0.04433 0.0
C1441 C 0.82445 0.03329 0.03953 0.0
C1442 C 0.82714 0.99752 0.05393 0.0
C1443 C 0.82767 0.0124 0.0736 0.0
C1444 C 0.82577 0.0626 0.07866 0.0
C1445 C 0.82248 0.09756 0.06373 0.0
H1446 H 0.21701 0.601 0.55778 0.0
H1447 H 0.20457 0.44737 0.57044 0.0
H1448 H 0.19931 0.43042 0.53508 0.0
H1449 H 0.1676 0.60845 0.52001 0.0
H1450 H 0.18687 0.65156 0.50578 0.0
H1451 H 0.19066 0.65006 0.53181 0.0
H1452 H 0.24224 0.63741 0.52768 0.0
H1453 H 0.23858 0.63847 0.50162 0.0
H1454 H 0.25444 0.58688 0.51324 0.0
H1455 H 0.19655 0.43134 0.49744 0.0
H1456 H 0.19113 0.45146 0.46237 0.0
H1457 H 0.20338 0.60491 0.47552 0.0
C1458 C 0.21339 0.56371 0.55309 0.0
C1459 C 0.21148 0.52537 0.56679 0.0
C1460 C 0.20607 0.47723 0.56015 0.0
C1461 C 0.20324 0.46731 0.54011 0.0
C1462 C 0.20554 0.50608 0.52694 0.0
C1463 C 0.21011 0.55344 0.53328 0.0
C1464 C 0.21037 0.58927 0.51651 0.0
C1465 C 0.18751 0.62705 0.51866 0.0
C1466 C 0.23806 0.61448 0.51466 0.0
C1467 C 0.20527 0.55488 0.49964 0.0
C1468 C 0.2029 0.50689 0.5058 0.0
C1469 C 0.1983 0.46886 0.49255 0.0
C1470 C 0.19545 0.48046 0.47267 0.0
C1471 C 0.19677 0.52968 0.46631 0.0
C1472 C 0.20212 0.56701 0.48002 0.0
H1473 H 0.78429 0.46453 0.48532 0.0
H1474 H 0.82383 0.60107 0.47035 0.0
H1475 H 0.8349 0.61433 0.50521 0.0
H1476 H 0.75292 0.50551 0.52777 0.0
H1477 H 0.75702 0.44869 0.54073 0.0
H1478 H 0.75494 0.44845 0.51462 0.0
H1479 H 0.80079 0.4029 0.51257 0.0
H1480 H 0.80302 0.40297 0.53873 0.0
H1481 H 0.83004 0.42864 0.52438 0.0
H1482 H 0.83795 0.61478 0.54276 0.0
H1483 H 0.83238 0.60271 0.57833 0.0
H1484 H 0.791 0.46551 0.56738 0.0
C1485 C 0.79533 0.49724 0.4893 0.0
C1486 C 0.80299 0.53201 0.47513 0.0
C1487 C 0.81788 0.57385 0.48096 0.0
C1488 C 0.82419 0.58165 0.50072 0.0
C1489 C 0.81575 0.54694 0.51437 0.0
C1490 C 0.80179 0.50539 0.50878 0.0
C1491 C 0.79375 0.4745 0.52606 0.0
C1492 C 0.76283 0.469 0.52737 0.0
C1493 C 0.80775 0.42428 0.52539 0.0
C1494 C 0.80463 0.5057 0.54242 0.0
C1495 C 0.81754 0.54712 0.53553 0.0
C1496 C 0.82813 0.58216 0.54824 0.0
C1497 C 0.82499 0.57495 0.56843 0.0
C1498 C 0.81114 0.53327 0.57564 0.0
C1499 C 0.80142 0.49798 0.56236 0.0
H1500 H 0.73492 0.02697 0.56278 0.0
H1501 H 0.64993 0.02261 0.57763 0.0
H1502 H 0.63865 0.01248 0.54258 0.0
H1503 H 0.72879 0.10081 0.52275 0.0
H1504 H 0.75517 0.07168 0.50883 0.0
H1505 H 0.75607 0.06987 0.53494 0.0
H1506 H 0.75832 0.97505 0.53393 0.0
H1507 H 0.75742 0.97657 0.50772 0.0
H1508 H 0.73274 0.9412 0.52097 0.0
H1509 H 0.63729 0.01345 0.50469 0.0
H1510 H 0.64594 0.02772 0.46945 0.0
H1511 H 0.73178 0.03339 0.48075 0.0
C1512 C 0.71391 0.02316 0.55874 0.0
C1513 C 0.69328 0.02581 0.57294 0.0
C1514 C 0.66606 0.0202 0.56702 0.0
C1515 C 0.65953 0.01457 0.54713 0.0
C1516 C 0.68049 0.01396 0.53341 0.0
C1517 C 0.70718 0.0177 0.53913 0.0
C1518 C 0.72607 0.02058 0.52186 0.0
C1519 C 0.74247 0.06858 0.52212 0.0
C1520 C 0.74474 0.97567 0.52108 0.0
C1521 C 0.70594 0.01979 0.50538 0.0
C1522 C 0.67973 0.01501 0.51213 0.0
C1523 C 0.65779 0.01644 0.49933 0.0
C1524 C 0.66283 0.02426 0.47933 0.0
C1525 C 0.68952 0.03135 0.47245 0.0
C1526 C 0.71121 0.02773 0.48565 0.0
H1527 H 0.31314 0.94064 0.47698 0.0
H1528 H 0.31565 0.09289 0.45948 0.0
H1529 H 0.32123 0.11735 0.49412 0.0
H1530 H 0.27196 0.95745 0.51695 0.0
H1531 H 0.28782 0.91104 0.53161 0.0
H1532 H 0.28861 0.90619 0.50554 0.0
H1533 H 0.3409 0.90114 0.50622 0.0
H1534 H 0.34028 0.90574 0.53238 0.0
H1535 H 0.35998 0.94851 0.51829 0.0
H1536 H 0.3219 0.12408 0.53188 0.0
H1537 H 0.31636 0.11241 0.56757 0.0
H1538 H 0.311 0.95577 0.55885 0.0
C1539 C 0.31512 0.97919 0.48033 0.0
C1540 C 0.31377 0.01489 0.46551 0.0
C1541 C 0.31686 0.06489 0.47057 0.0
C1542 C 0.31994 0.07902 0.49022 0.0
C1543 C 0.3201 0.04265 0.50454 0.0
C1544 C 0.31791 0.99369 0.49967 0.0
C1545 C 0.31626 0.96145 0.51748 0.0
C1546 C 0.28958 0.93236 0.51791 0.0
C1547 C 0.34082 0.9272 0.51866 0.0
C1548 C 0.31705 0.9998 0.5333 0.0
C1549 C 0.31977 0.04646 0.52573 0.0
C1550 C 0.32001 0.08761 0.53786 0.0
C1551 C 0.31694 0.08074 0.55809 0.0
C1552 C 0.31317 0.03322 0.56586 0.0
C1553 C 0.31371 0.99249 0.55325 0.0
H1554 H 0.74129 0.50013 0.06344 0.0
H1555 H 0.65926 0.54489 0.07586 0.0
H1556 H 0.64816 0.53852 0.04069 0.0
H1557 H 0.75036 0.56765 0.02253 0.0
H1558 H 0.77021 0.52325 1.00938 0.0
H1559 H 0.77005 0.52287 0.03551 0.0
H1560 H 0.75459 0.43215 0.03554 0.0
H1561 H 0.75499 0.43202 1.00931 0.0
H1562 H 0.72475 0.41463 0.02224 0.0
H1563 H 0.64877 0.53982 1.00345 0.0
H1564 H 0.66032 0.54563 0.96848 0.0
H1565 H 0.74177 0.49723 0.98123 0.0
C1566 C 0.72081 0.50728 0.05877 0.0
C1567 C 0.70107 0.52289 0.07223 0.0
C1568 C 0.67449 0.53224 0.06572 0.0
C1569 C 0.66811 0.52886 0.0458 0.0
C1570 C 0.68844 0.51512 0.03275 0.0
C1571 C 0.71415 0.50361 0.0391 0.0
C1572 C 0.73307 0.49357 0.02227 0.0
C1573 C 0.75733 0.52896 0.02244 0.0
C1574 C 0.74239 0.4399 0.02234 0.0
C1575 C 0.71446 0.50363 1.00535 0.0
C1576 C 0.68869 0.51534 1.01157 0.0
C1577 C 0.66874 0.52967 0.99844 0.0
C1578 C 0.67546 0.53275 0.97857 0.0
C1579 C 0.70199 0.52198 0.97203 0.0
C1580 C 0.72138 0.5061 0.98568 0.0
H1581 H 0.27778 0.51526 0.97467 0.0
H1582 H 0.36337 0.52575 0.9624 0.0
H1583 H 0.37316 0.51614 0.99774 0.0
H1584 H 0.27776 0.58495 1.0174 0.0
H1585 H 0.25247 0.5486 0.02959 0.0
H1586 H 0.25287 0.55193 1.00345 0.0
H1587 H 0.25575 0.45732 1.0012 0.0
H1588 H 0.25499 0.45363 0.02736 0.0
H1589 H 0.28224 0.42558 1.01396 0.0
H1590 H 0.37232 0.51253 0.03573 0.0
H1591 H 0.36137 0.50743 0.07097 0.0
H1592 H 0.27617 0.50028 0.05692 0.0
C1593 C 0.29864 0.51486 0.97938 0.0
C1594 C 0.31985 0.52129 0.96582 0.0
C1595 C 0.34687 0.52032 0.97253 0.0
C1596 C 0.35252 0.51529 0.99258 0.0
C1597 C 0.33092 0.51076 1.00565 0.0
C1598 C 0.30452 0.50975 0.99915 0.0
C1599 C 0.28467 0.50568 1.01583 0.0
C1600 C 0.26585 0.55046 1.0166 0.0
C1601 C 0.26847 0.4577 1.0145 0.0
C1602 C 0.30384 0.50514 0.03291 0.0
C1603 C 0.33047 0.50819 0.02692 0.0
C1604 C 0.35151 0.50969 0.04046 0.0
C1605 C 0.34512 0.50717 0.06047 0.0
C1606 C 0.31792 0.50298 0.06679 0.0
C1607 C 0.29719 0.50245 0.05267 0.0
loop_
_geom_bond_atom_site_label_1
_geom_bond_atom_site_label_2
_geom_bond_distance
_geom_bond_site_symmetry_2
_ccdc_geom_bond_type
Co0 N4 2.148 . S
Co0 N10 2.128 . S
Co0 N20 2.194 . S
Co0 O25 2.351 1_545 S
Co0 O26 2.155 1_545 S
Co0 O27 2.096 . S
C1 N4 1.301 . S
C1 N5 1.328 . S
C1 H6 0.930 1_545 S
C2 C3 1.333 . S
C2 N4 1.317 . S
C2 H7 0.930 . S
C3 C2 1.333 . S
C3 N5 1.350 . S
C3 H29 0.931 . S
N4 Co0 2.148 . S
N4 C1 1.301 . S
N4 C2 1.317 . S
N5 C1 1.328 . S
N5 C3 1.350 . S
H6 C1 0.930 1_565 S
H7 C2 0.930 . S
C8 O9 1.224 . S
C8 O27 1.247 . S
O9 C8 1.224 . S
N10 Co0 2.128 . S
N10 C11 1.355 . S
N10 C13 1.311 . S
C11 N10 1.355 . S
C11 C12 1.363 . S
C11 H23 0.929 1_545 S
C12 C11 1.363 . S
C12 N14 1.375 . S
C12 H30 0.931 . S
C13 N10 1.311 . S
C13 N14 1.347 . S
C13 H24 0.929 . S
N14 C12 1.375 . S
N14 C13 1.347 . S
C15 C18 1.365 . S
C15 N20 1.328 . S
C15 H21 0.929 1_545 S
C16 C17 1.362 . S
C16 C19 1.378 . S
C16 H31 0.929 . S
C17 C16 1.362 . S
C17 C18 1.366 . S
C18 C15 1.365 . S
C18 C17 1.366 . S
C18 H32 0.930 1_545 S
C19 C16 1.378 . S
C19 N20 1.315 . S
C19 H22 0.930 . S
N20 Co0 2.194 . S
N20 C15 1.328 . S
N20 C19 1.315 . S
H21 C15 0.929 1_565 S
H22 C19 0.930 . S
H23 C11 0.929 1_565 S
H24 C13 0.929 . S
O25 Co0 2.351 1_565 S
O25 C28 1.244 . S
O26 Co0 2.155 1_565 S
O26 C28 1.240 . S
O27 Co0 2.096 . S
O27 C8 1.247 . S
C28 O25 1.244 . S
C28 O26 1.240 . S
H29 C3 0.931 . S
H30 C12 0.931 . S
H31 C16 0.929 . S
H32 C18 0.930 1_565 S
Co33 N37 2.148 . S
Co33 N43 2.128 . S
Co33 N53 2.194 . S
Co33 O58 2.351 . S
Co33 O59 2.155 . S
Co33 O60 2.096 1_545 S
C34 N37 1.301 . S
C34 N38 1.328 . S
C34 H39 0.930 . S
C35 C36 1.333 . S
C35 N37 1.317 1_565 S
C35 H40 0.930 . S
C36 C35 1.333 . S
C36 N38 1.350 1_565 S
C36 H62 0.931 . S
N37 Co33 2.148 . S
N37 C34 1.301 . S
N37 C35 1.317 1_545 S
N38 C34 1.328 . S
N38 C36 1.350 1_545 S
H39 C34 0.930 . S
H40 C35 0.930 . S
C41 O42 1.224 . S
C41 O60 1.247 . S
O42 C41 1.224 . S
N43 Co33 2.128 . S
N43 C44 1.355 . S
N43 C46 1.312 1_545 S
C44 N43 1.355 . S
C44 C45 1.363 . S
C44 H56 0.929 . S
C45 C44 1.363 . S
C45 N47 1.375 . S
C45 H63 0.931 . S
C46 N43 1.312 1_565 S
C46 N47 1.348 1_565 S
C46 H57 0.928 . S
N47 C45 1.375 . S
N47 C46 1.348 1_545 S
C48 C51 1.365 . S
C48 N53 1.328 . S
C48 H54 0.929 . S
C49 C50 1.362 1_565 S
C49 C52 1.378 . S
C49 H64 0.929 . S
C50 C49 1.362 1_545 S
C50 C51 1.366 . S
C51 C48 1.365 . S
C51 C50 1.366 . S
C51 H65 0.930 . S
C52 C49 1.378 . S
C52 N53 1.315 1_565 S
C52 H55 0.930 . S
N53 Co33 2.194 . S
N53 C48 1.328 . S
N53 C52 1.315 1_545 S
H54 C48 0.929 . S
H55 C52 0.930 . S
H56 C44 0.929 . S
H57 C46 0.928 . S
O58 Co33 2.351 . S
O58 C61 1.244 . S
O59 Co33 2.155 . S
O59 C61 1.240 . S
O60 Co33 2.096 1_565 S
O60 C41 1.247 . S
C61 O58 1.244 . S
C61 O59 1.240 . S
H62 C36 0.931 . S
H63 C45 0.931 . S
H64 C49 0.929 . S
H65 C51 0.930 . S
Co66 N70 2.148 . S
Co66 N76 2.128 . S
Co66 N86 2.194 . S
Co66 O91 2.351 . S
Co66 O92 2.155 . S
Co66 O93 2.096 1_545 S
C67 N70 1.301 . S
C67 N71 1.328 . S
C67 H72 0.930 . S
C68 C69 1.333 . S
C68 N70 1.317 1_565 S
C68 H73 0.930 . S
C69 C68 1.333 . S
C69 N71 1.350 1_565 S
C69 H95 0.931 . S
N70 Co66 2.148 . S
N70 C67 1.301 . S
N70 C68 1.317 1_545 S
N71 C67 1.328 . S
N71 C69 1.350 1_545 S
H72 C67 0.930 . S
H73 C68 0.930 . S
C74 O75 1.224 . S
C74 O93 1.247 . S
O75 C74 1.224 . S
N76 Co66 2.128 . S
N76 C77 1.355 . S
N76 C79 1.312 1_545 S
C77 N76 1.355 . S
C77 C78 1.363 . S
C77 H89 0.929 . S
C78 C77 1.363 . S
C78 N80 1.375 . S
C78 H96 0.931 . S
C79 N76 1.312 1_565 S
C79 N80 1.348 1_565 S
C79 H90 0.928 . S
N80 C78 1.375 . S
N80 C79 1.348 1_545 S
C81 C84 1.365 . S
C81 N86 1.328 . S
C81 H87 0.929 . S
C82 C83 1.362 1_565 S
C82 C85 1.378 . S
C82 H97 0.929 . S
C83 C82 1.362 1_545 S
C83 C84 1.366 . S
C84 C81 1.365 . S
C84 C83 1.366 . S
C84 H98 0.930 . S
C85 C82 1.378 . S
C85 N86 1.315 1_565 S
C85 H88 0.930 . S
N86 Co66 2.194 . S
N86 C81 1.328 . S
N86 C85 1.315 1_545 S
H87 C81 0.929 . S
H88 C85 0.930 . S
H89 C77 0.929 . S
H90 C79 0.928 . S
O91 Co66 2.351 . S
O91 C94 1.244 . S
O92 Co66 2.155 . S
O92 C94 1.240 . S
O93 Co66 2.096 1_565 S
O93 C74 1.247 . S
C94 O91 1.244 . S
C94 O92 1.240 . S
H95 C69 0.931 . S
H96 C78 0.931 . S
H97 C82 0.929 . S
H98 C84 0.930 . S
Co99 N103 2.148 . S
Co99 N109 2.128 . S
Co99 N119 2.194 . S
Co99 O124 2.351 1_545 S
Co99 O125 2.155 1_545 S
Co99 O126 2.096 . S
C100 N103 1.301 . S
C100 N104 1.328 . S
C100 H105 0.930 1_545 S
C101 C102 1.333 . S
C101 N103 1.317 . S
C101 H106 0.930 . S
C102 C101 1.333 . S
C102 N104 1.350 . S
C102 H128 0.931 . S
N103 Co99 2.148 . S
N103 C100 1.301 . S
N103 C101 1.317 . S
N104 C100 1.328 . S
N104 C102 1.350 . S
H105 C100 0.930 1_565 S
H106 C101 0.930 . S
C107 O108 1.224 . S
C107 O126 1.247 . S
O108 C107 1.224 . S
N109 Co99 2.128 . S
N109 C110 1.355 . S
N109 C112 1.311 . S
C110 N109 1.355 . S
C110 C111 1.363 . S
C110 H122 0.929 1_545 S
C111 C110 1.363 . S
C111 N113 1.375 . S
C111 H129 0.931 . S
C112 N109 1.311 . S
C112 N113 1.347 . S
C112 H123 0.929 . S
N113 C111 1.375 . S
N113 C112 1.347 . S
C114 C117 1.365 . S
C114 N119 1.328 . S
C114 H120 0.929 1_545 S
C115 C116 1.362 . S
C115 C118 1.378 . S
C115 H130 0.929 . S
C116 C115 1.362 . S
C116 C117 1.366 . S
C117 C114 1.365 . S
C117 C116 1.366 . S
C117 H131 0.930 1_545 S
C118 C115 1.378 . S
C118 N119 1.315 . S
C118 H121 0.930 . S
N119 Co99 2.194 . S
N119 C114 1.328 . S
N119 C118 1.315 . S
H120 C114 0.929 1_565 S
H121 C118 0.930 . S
H122 C110 0.929 1_565 S
H123 C112 0.929 . S
O124 Co99 2.351 1_565 S
O124 C127 1.244 . S
O125 Co99 2.155 1_565 S
O125 C127 1.240 . S
O126 Co99 2.096 . S
O126 C107 1.247 . S
C127 O124 1.244 . S
C127 O125 1.240 . S
H128 C102 0.931 . S
H129 C111 0.931 . S
H130 C115 0.929 . S
H131 C117 0.930 1_565 S
Co132 N136 2.148 . S
Co132 N142 2.128 . S
Co132 N152 2.194 . S
Co132 O157 2.351 . S
Co132 O158 2.155 . S
Co132 O159 2.096 . S
C133 N136 1.301 . S
C133 N137 1.328 . S
C133 H138 0.930 . S
C134 C135 1.333 . S
C134 N136 1.317 . S
C134 H139 0.930 . S
C135 C134 1.333 . S
C135 N137 1.350 . S
C135 H161 0.931 . S
N136 Co132 2.148 . S
N136 C133 1.301 . S
N136 C134 1.317 . S
N137 C133 1.328 . S
N137 C135 1.350 . S
H138 C133 0.930 . S
H139 C134 0.930 . S
C140 O141 1.224 . S
C140 O159 1.247 . S
O141 C140 1.224 . S
N142 Co132 2.128 . S
N142 C143 1.355 . S
N142 C145 1.311 . S
C143 N142 1.355 . S
C143 C144 1.363 . S
C143 H155 0.929 . S
C144 C143 1.363 . S
C144 N146 1.375 . S
C144 H162 0.931 . S
C145 N142 1.311 . S
C145 N146 1.347 . S
C145 H156 0.929 . S
N146 C144 1.375 . S
N146 C145 1.347 . S
C147 C150 1.365 . S
C147 N152 1.328 . S
C147 H153 0.929 . S
C148 C149 1.362 . S
C148 C151 1.378 . S
C148 H163 0.929 . S
C149 C148 1.362 . S
C149 C150 1.366 . S
C150 C147 1.365 . S
C150 C149 1.366 . S
C150 H164 0.930 . S
C151 C148 1.378 . S
C151 N152 1.315 . S
C151 H154 0.930 . S
N152 Co132 2.194 . S
N152 C147 1.328 . S
N152 C151 1.315 . S
H153 C147 0.929 . S
H154 C151 0.930 . S
H155 C143 0.929 . S
H156 C145 0.929 . S
O157 Co132 2.351 . S
O157 C160 1.244 . S
O158 Co132 2.155 . S
O158 C160 1.240 . S
O159 Co132 2.096 . S
O159 C140 1.247 . S
C160 O157 1.244 . S
C160 O158 1.240 . S
H161 C135 0.931 . S
H162 C144 0.931 . S
H163 C148 0.929 . S
H164 C150 0.930 . S
Co165 N169 2.148 . S
Co165 N175 2.128 . S
Co165 N185 2.194 . S
Co165 O190 2.351 . S
Co165 O191 2.155 . S
Co165 O192 2.096 . S
C166 N169 1.301 . S
C166 N170 1.328 . S
C166 H171 0.930 . S
C167 C168 1.333 . S
C167 N169 1.317 . S
C167 H172 0.930 . S
C168 C167 1.333 . S
C168 N170 1.350 . S
C168 H194 0.931 . S
N169 Co165 2.148 . S
N169 C166 1.301 . S
N169 C167 1.317 . S
N170 C166 1.328 . S
N170 C168 1.350 . S
H171 C166 0.930 . S
H172 C167 0.930 . S
C173 O174 1.224 . S
C173 O192 1.247 . S
O174 C173 1.224 . S
N175 Co165 2.128 . S
N175 C176 1.355 . S
N175 C178 1.311 . S
C176 N175 1.355 . S
C176 C177 1.363 . S
C176 H188 0.929 . S
C177 C176 1.363 . S
C177 N179 1.375 . S
C177 H195 0.931 . S
C178 N175 1.311 . S
C178 N179 1.347 . S
C178 H189 0.929 . S
N179 C177 1.375 . S
N179 C178 1.347 . S
C180 C183 1.365 . S
C180 N185 1.328 . S
C180 H186 0.929 . S
C181 C182 1.362 . S
C181 C184 1.378 . S
C181 H196 0.929 . S
C182 C181 1.362 . S
C182 C183 1.366 . S
C183 C180 1.365 . S
C183 C182 1.366 . S
C183 H197 0.930 . S
C184 C181 1.378 . S
C184 N185 1.315 . S
C184 H187 0.930 . S
N185 Co165 2.194 . S
N185 C180 1.328 . S
N185 C184 1.315 . S
H186 C180 0.929 . S
H187 C184 0.930 . S
H188 C176 0.929 . S
H189 C178 0.929 . S
O190 Co165 2.351 . S
O190 C193 1.244 . S
O191 Co165 2.155 . S
O191 C193 1.240 . S
O192 Co165 2.096 . S
O192 C173 1.247 . S
C193 O190 1.244 . S
C193 O191 1.240 . S
H194 C168 0.931 . S
H195 C177 0.931 . S
H196 C181 0.929 . S
H197 C183 0.930 . S
Co198 N202 2.148 . S
Co198 N208 2.128 . S
Co198 N218 2.194 . S
Co198 O223 2.351 . S
Co198 O224 2.155 . S
Co198 O225 2.096 . S
C199 N202 1.301 . S
C199 N203 1.328 . S
C199 H204 0.930 . S
C200 C201 1.333 . S
C200 N202 1.317 . S
C200 H205 0.930 . S
C201 C200 1.333 . S
C201 N203 1.350 . S
C201 H227 0.931 . S
N202 Co198 2.148 . S
N202 C199 1.301 . S
N202 C200 1.317 . S
N203 C199 1.328 . S
N203 C201 1.350 . S
H204 C199 0.930 . S
H205 C200 0.930 . S
C206 O207 1.224 . S
C206 O225 1.247 . S
O207 C206 1.224 . S
N208 Co198 2.128 . S
N208 C209 1.355 . S
N208 C211 1.311 . S
C209 N208 1.355 . S
C209 C210 1.363 . S
C209 H221 0.929 . S
C210 C209 1.363 . S
C210 N212 1.375 . S
C210 H228 0.931 . S
C211 N208 1.311 . S
C211 N212 1.347 . S
C211 H222 0.929 . S
N212 C210 1.375 . S
N212 C211 1.347 . S
C213 C216 1.365 . S
C213 N218 1.328 . S
C213 H219 0.929 . S
C214 C215 1.362 . S
C214 C217 1.378 . S
C214 H229 0.929 . S
C215 C214 1.362 . S
C215 C216 1.366 . S
C216 C213 1.365 . S
C216 C215 1.366 . S
C216 H230 0.930 . S
C217 C214 1.378 . S
C217 N218 1.315 . S
C217 H220 0.930 . S
N218 Co198 2.194 . S
N218 C213 1.328 . S
N218 C217 1.315 . S
H219 C213 0.929 . S
H220 C217 0.930 . S
H221 C209 0.929 . S
H222 C211 0.929 . S
O223 Co198 2.351 . S
O223 C226 1.244 . S
O224 Co198 2.155 . S
O224 C226 1.240 . S
O225 Co198 2.096 . S
O225 C206 1.247 . S
C226 O223 1.244 . S
C226 O224 1.240 . S
H227 C201 0.931 . S
H228 C210 0.931 . S
H229 C214 0.929 . S
H230 C216 0.930 . S
Co231 N235 2.148 . S
Co231 N241 2.128 . S
Co231 N251 2.194 . S
Co231 O256 2.351 . S
Co231 O257 2.155 . S
Co231 O258 2.096 . S
C232 N235 1.301 . S
C232 N236 1.328 . S
C232 H237 0.930 . S
C233 C234 1.333 . S
C233 N235 1.317 . S
C233 H238 0.930 . S
C234 C233 1.333 . S
C234 N236 1.350 . S
C234 H260 0.931 . S
N235 Co231 2.148 . S
N235 C232 1.301 . S
N235 C233 1.317 . S
N236 C232 1.328 . S
N236 C234 1.350 . S
H237 C232 0.930 . S
H238 C233 0.930 . S
C239 O240 1.224 . S
C239 O258 1.247 . S
O240 C239 1.224 . S
N241 Co231 2.128 . S
N241 C242 1.355 . S
N241 C244 1.311 . S
C242 N241 1.355 . S
C242 C243 1.363 . S
C242 H254 0.929 . S
C243 C242 1.363 . S
C243 N245 1.375 . S
C243 H261 0.931 . S
C244 N241 1.311 . S
C244 N245 1.347 . S
C244 H255 0.929 . S
N245 C243 1.375 . S
N245 C244 1.347 . S
C246 C249 1.365 . S
C246 N251 1.328 . S
C246 H252 0.929 . S
C247 C248 1.362 . S
C247 C250 1.378 . S
C247 H262 0.929 . S
C248 C247 1.362 . S
C248 C249 1.366 . S
C249 C246 1.365 . S
C249 C248 1.366 . S
C249 H263 0.930 . S
C250 C247 1.378 . S
C250 N251 1.315 . S
C250 H253 0.930 . S
N251 Co231 2.194 . S
N251 C246 1.328 . S
N251 C250 1.315 . S
H252 C246 0.929 . S
H253 C250 0.930 . S
H254 C242 0.929 . S
H255 C244 0.929 . S
O256 Co231 2.351 . S
O256 C259 1.244 . S
O257 Co231 2.155 . S
O257 C259 1.240 . S
O258 Co231 2.096 . S
O258 C239 1.247 . S
C259 O256 1.244 . S
C259 O257 1.240 . S
H260 C234 0.931 . S
H261 C243 0.931 . S
H262 C247 0.929 . S
H263 C249 0.930 . S
Co264 N268 2.148 . S
Co264 N274 2.128 . S
Co264 N284 2.194 . S
Co264 O289 2.351 1_545 S
Co264 O290 2.155 1_545 S
Co264 O291 2.096 . S
C265 N268 1.301 . S
C265 N269 1.328 . S
C265 H270 0.930 1_545 S
C266 C267 1.333 . S
C266 N268 1.317 . S
C266 H271 0.930 . S
C267 C266 1.333 . S
C267 N269 1.350 . S
C267 H293 0.931 . S
N268 Co264 2.148 . S
N268 C265 1.301 . S
N268 C266 1.317 . S
N269 C265 1.328 . S
N269 C267 1.350 . S
H270 C265 0.930 1_565 S
H271 C266 0.930 . S
C272 O273 1.224 . S
C272 O291 1.247 . S
O273 C272 1.224 . S
N274 Co264 2.128 . S
N274 C275 1.355 . S
N274 C277 1.311 . S
C275 N274 1.355 . S
C275 C276 1.363 . S
C275 H287 0.929 1_545 S
C276 C275 1.363 . S
C276 N278 1.375 . S
C276 H294 0.931 . S
C277 N274 1.311 . S
C277 N278 1.347 . S
C277 H288 0.929 . S
N278 C276 1.375 . S
N278 C277 1.347 . S
C279 C282 1.365 . S
C279 N284 1.328 . S
C279 H285 0.929 1_545 S
C280 C281 1.362 . S
C280 C283 1.378 . S
C280 H295 0.929 . S
C281 C280 1.362 . S
C281 C282 1.366 . S
C282 C279 1.365 . S
C282 C281 1.366 . S
C282 H296 0.930 1_545 S
C283 C280 1.378 . S
C283 N284 1.315 . S
C283 H286 0.930 . S
N284 Co264 2.194 . S
N284 C279 1.328 . S
N284 C283 1.315 . S
H285 C279 0.929 1_565 S
H286 C283 0.930 . S
H287 C275 0.929 1_565 S
H288 C277 0.929 . S
O289 Co264 2.351 1_565 S
O289 C292 1.244 . S
O290 Co264 2.155 1_565 S
O290 C292 1.240 . S
O291 Co264 2.096 . S
O291 C272 1.247 . S
C292 O289 1.244 . S
C292 O290 1.240 . S
H293 C267 0.931 . S
H294 C276 0.931 . S
H295 C280 0.929 . S
H296 C282 0.930 1_565 S
Co297 N301 2.148 . S
Co297 N307 2.128 . S
Co297 N317 2.194 . S
Co297 O322 2.351 . S
Co297 O323 2.155 . S
Co297 O324 2.096 1_545 S
C298 N301 1.301 . S
C298 N302 1.328 . S
C298 H303 0.930 . S
C299 C300 1.333 . S
C299 N301 1.317 1_565 S
C299 H304 0.930 . S
C300 C299 1.333 . S
C300 N302 1.350 1_565 S
C300 H326 0.931 . S
N301 Co297 2.148 . S
N301 C298 1.301 . S
N301 C299 1.317 1_545 S
N302 C298 1.328 . S
N302 C300 1.350 1_545 S
H303 C298 0.930 . S
H304 C299 0.930 . S
C305 O306 1.224 . S
C305 O324 1.247 . S
O306 C305 1.224 . S
N307 Co297 2.128 . S
N307 C308 1.355 . S
N307 C310 1.312 1_545 S
C308 N307 1.355 . S
C308 C309 1.363 . S
C308 H320 0.929 . S
C309 C308 1.363 . S
C309 N311 1.375 . S
C309 H327 0.931 . S
C310 N307 1.312 1_565 S
C310 N311 1.348 1_565 S
C310 H321 0.928 . S
N311 C309 1.375 . S
N311 C310 1.348 1_545 S
C312 C315 1.365 . S
C312 N317 1.328 . S
C312 H318 0.929 . S
C313 C314 1.362 1_565 S
C313 C316 1.378 . S
C313 H328 0.929 . S
C314 C313 1.362 1_545 S
C314 C315 1.366 . S
C315 C312 1.365 . S
C315 C314 1.366 . S
C315 H329 0.930 . S
C316 C313 1.378 . S
C316 N317 1.315 1_565 S
C316 H319 0.930 . S
N317 Co297 2.194 . S
N317 C312 1.328 . S
N317 C316 1.315 1_545 S
H318 C312 0.929 . S
H319 C316 0.930 . S
H320 C308 0.929 . S
H321 C310 0.928 . S
O322 Co297 2.351 . S
O322 C325 1.244 . S
O323 Co297 2.155 . S
O323 C325 1.240 . S
O324 Co297 2.096 1_565 S
O324 C305 1.247 . S
C325 O322 1.244 . S
C325 O323 1.240 . S
H326 C300 0.931 . S
H327 C309 0.931 . S
H328 C313 0.929 . S
H329 C315 0.930 . S
Co330 N334 2.148 . S
Co330 N340 2.128 . S
Co330 N350 2.194 . S
Co330 O355 2.351 . S
Co330 O356 2.155 . S
Co330 O357 2.096 1_545 S
C331 N334 1.301 . S
C331 N335 1.328 . S
C331 H336 0.930 . S
C332 C333 1.333 . S
C332 N334 1.317 1_565 S
C332 H337 0.930 . S
C333 C332 1.333 . S
C333 N335 1.350 1_565 S
C333 H359 0.931 . S
N334 Co330 2.148 . S
N334 C331 1.301 . S
N334 C332 1.317 1_545 S
N335 C331 1.328 . S
N335 C333 1.350 1_545 S
H336 C331 0.930 . S
H337 C332 0.930 . S
C338 O339 1.224 . S
C338 O357 1.247 . S
O339 C338 1.224 . S
N340 Co330 2.128 . S
N340 C341 1.355 . S
N340 C343 1.312 1_545 S
C341 N340 1.355 . S
C341 C342 1.363 . S
C341 H353 0.929 . S
C342 C341 1.363 . S
C342 N344 1.375 . S
C342 H360 0.931 . S
C343 N340 1.312 1_565 S
C343 N344 1.348 1_565 S
C343 H354 0.928 . S
N344 C342 1.375 . S
N344 C343 1.348 1_545 S
C345 C348 1.365 . S
C345 N350 1.328 . S
C345 H351 0.929 . S
C346 C347 1.362 1_565 S
C346 C349 1.378 . S
C346 H361 0.929 . S
C347 C346 1.362 1_545 S
C347 C348 1.366 . S
C348 C345 1.365 . S
C348 C347 1.366 . S
C348 H362 0.930 . S
C349 C346 1.378 . S
C349 N350 1.315 1_565 S
C349 H352 0.930 . S
N350 Co330 2.194 . S
N350 C345 1.328 . S
N350 C349 1.315 1_545 S
H351 C345 0.929 . S
H352 C349 0.930 . S
H353 C341 0.929 . S
H354 C343 0.928 . S
O355 Co330 2.351 . S
O355 C358 1.244 . S
O356 Co330 2.155 . S
O356 C358 1.240 . S
O357 Co330 2.096 1_565 S
O357 C338 1.247 . S
C358 O355 1.244 . S
C358 O356 1.240 . S
H359 C333 0.931 . S
H360 C342 0.931 . S
H361 C346 0.929 . S
H362 C348 0.930 . S
Co363 N367 2.148 . S
Co363 N373 2.128 . S
Co363 N383 2.194 . S
Co363 O388 2.351 1_545 S
Co363 O389 2.155 1_545 S
Co363 O390 2.096 . S
C364 N367 1.301 . S
C364 N368 1.328 . S
C364 H369 0.930 1_545 S
C365 C366 1.333 . S
C365 N367 1.317 . S
C365 H370 0.930 . S
C366 C365 1.333 . S
C366 N368 1.350 . S
C366 H392 0.931 . S
N367 Co363 2.148 . S
N367 C364 1.301 . S
N367 C365 1.317 . S
N368 C364 1.328 . S
N368 C366 1.350 . S
H369 C364 0.930 1_565 S
H370 C365 0.930 . S
C371 O372 1.224 . S
C371 O390 1.247 . S
O372 C371 1.224 . S
N373 Co363 2.128 . S
N373 C374 1.355 . S
N373 C376 1.311 . S
C374 N373 1.355 . S
C374 C375 1.363 . S
C374 H386 0.929 1_545 S
C375 C374 1.363 . S
C375 N377 1.375 . S
C375 H393 0.931 . S
C376 N373 1.311 . S
C376 N377 1.347 . S
C376 H387 0.929 . S
N377 C375 1.375 . S
N377 C376 1.347 . S
C378 C381 1.365 . S
C378 N383 1.328 . S
C378 H384 0.929 1_545 S
C379 C380 1.362 . S
C379 C382 1.378 . S
C379 H394 0.929 . S
C380 C379 1.362 . S
C380 C381 1.366 . S
C381 C378 1.365 . S
C381 C380 1.366 . S
C381 H395 0.930 1_545 S
C382 C379 1.378 . S
C382 N383 1.315 . S
C382 H385 0.930 . S
N383 Co363 2.194 . S
N383 C378 1.328 . S
N383 C382 1.315 . S
H384 C378 0.929 1_565 S
H385 C382 0.930 . S
H386 C374 0.929 1_565 S
H387 C376 0.929 . S
O388 Co363 2.351 1_565 S
O388 C391 1.244 . S
O389 Co363 2.155 1_565 S
O389 C391 1.240 . S
O390 Co363 2.096 . S
O390 C371 1.247 . S
C391 O388 1.244 . S
C391 O389 1.240 . S
H392 C366 0.931 . S
H393 C375 0.931 . S
H394 C379 0.929 . S
H395 C381 0.930 1_565 S
Co396 N400 2.148 . S
Co396 N406 2.128 . S
Co396 N416 2.194 . S
Co396 O421 2.351 . S
Co396 O422 2.155 . S
Co396 O423 2.096 . S
C397 N400 1.301 . S
C397 N401 1.328 . S
C397 H402 0.930 . S
C398 C399 1.333 . S
C398 N400 1.317 . S
C398 H403 0.930 . S
C399 C398 1.333 . S
C399 N401 1.350 . S
C399 H425 0.931 . S
N400 Co396 2.148 . S
N400 C397 1.301 . S
N400 C398 1.317 . S
N401 C397 1.328 . S
N401 C399 1.350 . S
H402 C397 0.930 . S
H403 C398 0.930 . S
C404 O405 1.224 . S
C404 O423 1.247 . S
O405 C404 1.224 . S
N406 Co396 2.128 . S
N406 C407 1.355 . S
N406 C409 1.311 . S
C407 N406 1.355 . S
C407 C408 1.363 . S
C407 H419 0.929 . S
C408 C407 1.363 . S
C408 N410 1.375 . S
C408 H426 0.931 . S
C409 N406 1.311 . S
C409 N410 1.347 . S
C409 H420 0.929 . S
N410 C408 1.375 . S
N410 C409 1.347 . S
C411 C414 1.365 . S
C411 N416 1.328 . S
C411 H417 0.929 . S
C412 C413 1.362 . S
C412 C415 1.378 . S
C412 H427 0.929 . S
C413 C412 1.362 . S
C413 C414 1.366 . S
C414 C411 1.365 . S
C414 C413 1.366 . S
C414 H428 0.930 . S
C415 C412 1.378 . S
C415 N416 1.315 . S
C415 H418 0.930 . S
N416 Co396 2.194 . S
N416 C411 1.328 . S
N416 C415 1.315 . S
H417 C411 0.929 . S
H418 C415 0.930 . S
H419 C407 0.929 . S
H420 C409 0.929 . S
O421 Co396 2.351 . S
O421 C424 1.244 . S
O422 Co396 2.155 . S
O422 C424 1.240 . S
O423 Co396 2.096 . S
O423 C404 1.247 . S
C424 O421 1.244 . S
C424 O422 1.240 . S
H425 C399 0.931 . S
H426 C408 0.931 . S
H427 C412 0.929 . S
H428 C414 0.930 . S
Co429 N433 2.148 . S
Co429 N439 2.128 . S
Co429 N449 2.194 . S
Co429 O454 2.351 . S
Co429 O455 2.155 . S
Co429 O456 2.096 . S
C430 N433 1.301 . S
C430 N434 1.328 . S
C430 H435 0.930 . S
C431 C432 1.333 . S
C431 N433 1.317 . S
C431 H436 0.930 . S
C432 C431 1.333 . S
C432 N434 1.350 . S
C432 H458 0.931 . S
N433 Co429 2.148 . S
N433 C430 1.301 . S
N433 C431 1.317 . S
N434 C430 1.328 . S
N434 C432 1.350 . S
H435 C430 0.930 . S
H436 C431 0.930 . S
C437 O438 1.224 . S
C437 O456 1.247 . S
O438 C437 1.224 . S
N439 Co429 2.128 . S
N439 C440 1.355 . S
N439 C442 1.311 . S
C440 N439 1.355 . S
C440 C441 1.363 . S
C440 H452 0.929 . S
C441 C440 1.363 . S
C441 N443 1.375 . S
C441 H459 0.931 . S
C442 N439 1.311 . S
C442 N443 1.347 . S
C442 H453 0.929 . S
N443 C441 1.375 . S
N443 C442 1.347 . S
C444 C447 1.365 . S
C444 N449 1.328 . S
C444 H450 0.929 . S
C445 C446 1.362 . S
C445 C448 1.378 . S
C445 H460 0.929 . S
C446 C445 1.362 . S
C446 C447 1.366 . S
C447 C444 1.365 . S
C447 C446 1.366 . S
C447 H461 0.930 . S
C448 C445 1.378 . S
C448 N449 1.315 . S
C448 H451 0.930 . S
N449 Co429 2.194 . S
N449 C444 1.328 . S
N449 C448 1.315 . S
H450 C444 0.929 . S
H451 C448 0.930 . S
H452 C440 0.929 . S
H453 C442 0.929 . S
O454 Co429 2.351 . S
O454 C457 1.244 . S
O455 Co429 2.155 . S
O455 C457 1.240 . S
O456 Co429 2.096 . S
O456 C437 1.247 . S
C457 O454 1.244 . S
C457 O455 1.240 . S
H458 C432 0.931 . S
H459 C441 0.931 . S
H460 C445 0.929 . S
H461 C447 0.930 . S
Co462 N466 2.148 . S
Co462 N472 2.128 . S
Co462 N482 2.194 . S
Co462 O487 2.351 . S
Co462 O488 2.155 . S
Co462 O489 2.096 . S
C463 N466 1.301 . S
C463 N467 1.328 . S
C463 H468 0.930 . S
C464 C465 1.333 . S
C464 N466 1.317 . S
C464 H469 0.930 . S
C465 C464 1.333 . S
C465 N467 1.350 . S
C465 H491 0.931 . S
N466 Co462 2.148 . S
N466 C463 1.301 . S
N466 C464 1.317 . S
N467 C463 1.328 . S
N467 C465 1.350 . S
H468 C463 0.930 . S
H469 C464 0.930 . S
C470 O471 1.224 . S
C470 O489 1.247 . S
O471 C470 1.224 . S
N472 Co462 2.128 . S
N472 C473 1.355 . S
N472 C475 1.311 . S
C473 N472 1.355 . S
C473 C474 1.363 . S
C473 H485 0.929 . S
C474 C473 1.363 . S
C474 N476 1.375 . S
C474 H492 0.931 . S
C475 N472 1.311 . S
C475 N476 1.347 . S
C475 H486 0.929 . S
N476 C474 1.375 . S
N476 C475 1.347 . S
C477 C480 1.365 . S
C477 N482 1.328 . S
C477 H483 0.929 . S
C478 C479 1.362 . S
C478 C481 1.378 . S
C478 H493 0.929 . S
C479 C478 1.362 . S
C479 C480 1.366 . S
C480 C477 1.365 . S
C480 C479 1.366 . S
C480 H494 0.930 . S
C481 C478 1.378 . S
C481 N482 1.315 . S
C481 H484 0.930 . S
N482 Co462 2.194 . S
N482 C477 1.328 . S
N482 C481 1.315 . S
H483 C477 0.929 . S
H484 C481 0.930 . S
H485 C473 0.929 . S
H486 C475 0.929 . S
O487 Co462 2.351 . S
O487 C490 1.244 . S
O488 Co462 2.155 . S
O488 C490 1.240 . S
O489 Co462 2.096 . S
O489 C470 1.247 . S
C490 O487 1.244 . S
C490 O488 1.240 . S
H491 C465 0.931 . S
H492 C474 0.931 . S
H493 C478 0.929 . S
H494 C480 0.930 . S
Co495 N499 2.148 . S
Co495 N505 2.128 . S
Co495 N515 2.194 . S
Co495 O520 2.351 . S
Co495 O521 2.155 . S
Co495 O522 2.096 . S
C496 N499 1.301 . S
C496 N500 1.328 . S
C496 H501 0.930 . S
C497 C498 1.333 . S
C497 N499 1.317 . S
C497 H502 0.930 . S
C498 C497 1.333 . S
C498 N500 1.350 . S
C498 H524 0.931 . S
N499 Co495 2.148 . S
N499 C496 1.301 . S
N499 C497 1.317 . S
N500 C496 1.328 . S
N500 C498 1.350 . S
H501 C496 0.930 . S
H502 C497 0.930 . S
C503 O504 1.224 . S
C503 O522 1.247 . S
O504 C503 1.224 . S
N505 Co495 2.128 . S
N505 C506 1.355 . S
N505 C508 1.311 . S
C506 N505 1.355 . S
C506 C507 1.363 . S
C506 H518 0.929 . S
C507 C506 1.363 . S
C507 N509 1.375 . S
C507 H525 0.931 . S
C508 N505 1.311 . S
C508 N509 1.347 . S
C508 H519 0.929 . S
N509 C507 1.375 . S
N509 C508 1.347 . S
C510 C513 1.365 . S
C510 N515 1.328 . S
C510 H516 0.929 . S
C511 C512 1.362 . S
C511 C514 1.378 . S
C511 H526 0.929 . S
C512 C511 1.362 . S
C512 C513 1.366 . S
C513 C510 1.365 . S
C513 C512 1.366 . S
C513 H527 0.930 . S
C514 C511 1.378 . S
C514 N515 1.315 . S
C514 H517 0.930 . S
N515 Co495 2.194 . S
N515 C510 1.328 . S
N515 C514 1.315 . S
H516 C510 0.929 . S
H517 C514 0.930 . S
H518 C506 0.929 . S
H519 C508 0.929 . S
O520 Co495 2.351 . S
O520 C523 1.244 . S
O521 Co495 2.155 . S
O521 C523 1.240 . S
O522 Co495 2.096 . S
O522 C503 1.247 . S
C523 O520 1.244 . S
C523 O521 1.240 . S
H524 C498 0.931 . S
H525 C507 0.931 . S
H526 C511 0.929 . S
H527 C513 0.930 . S
H528 C540 0.930 . S
H529 C542 0.930 1_565 S
H530 C543 0.930 1_565 S
H531 C547 0.959 . S
H532 C547 0.959 . S
H533 C547 0.961 . S
H534 C548 0.960 . S
H535 C548 0.961 . S
H536 C548 0.959 . S
H537 C551 0.929 1_565 S
H538 C552 0.931 1_565 S
H539 C554 0.930 . S
C540 H528 0.930 . S
C540 C541 1.399 . S
C540 C545 1.399 . S
C541 C540 1.399 . S
C541 C542 1.376 . S
C542 H529 0.930 1_545 S
C542 C541 1.376 . S
C542 C543 1.388 . S
C543 H530 0.930 1_545 S
C543 C542 1.388 . S
C543 C544 1.390 . S
C544 C543 1.390 . S
C544 C545 1.394 . S
C544 C550 1.465 . S
C545 C540 1.399 . S
C545 C544 1.394 . S
C545 C546 1.516 . S
C546 C545 1.516 . S
C546 C547 1.502 . S
C546 C548 1.561 . S
C546 C549 1.526 . S
C547 H531 0.959 . S
C547 H532 0.959 . S
C547 H533 0.961 . S
C547 C546 1.502 . S
C548 H534 0.960 . S
C548 H535 0.961 . S
C548 H536 0.959 . S
C548 C546 1.561 . S
C549 C546 1.526 . S
C549 C550 1.396 . S
C549 C554 1.390 . S
C550 C544 1.465 . S
C550 C549 1.396 . S
C550 C551 1.399 . S
C551 H537 0.929 1_545 S
C551 C550 1.399 . S
C551 C552 1.385 . S
C552 H538 0.931 1_545 S
C552 C551 1.385 . S
C552 C553 1.389 . S
C553 C552 1.389 . S
C553 C554 1.387 . S
C554 H539 0.930 . S
C554 C549 1.390 . S
C554 C553 1.387 . S
H555 C567 0.930 . S
H556 C569 0.930 . S
H557 C570 0.930 . S
H558 C574 0.959 1_545 S
H559 C574 0.959 . S
H560 C574 0.961 . S
H561 C575 0.960 . S
H562 C575 0.961 . S
H563 C575 0.959 . S
H564 C578 0.929 . S
H565 C579 0.931 . S
H566 C581 0.930 . S
C567 H555 0.930 . S
C567 C568 1.399 . S
C567 C572 1.399 . S
C568 C567 1.399 . S
C568 C569 1.376 1_565 S
C569 H556 0.930 . S
C569 C568 1.376 1_545 S
C569 C570 1.388 . S
C570 H557 0.930 . S
C570 C569 1.388 . S
C570 C571 1.390 . S
C571 C570 1.390 . S
C571 C572 1.394 1_545 S
C571 C577 1.465 . S
C572 C567 1.399 . S
C572 C571 1.394 1_565 S
C572 C573 1.516 . S
C573 C572 1.516 . S
C573 C574 1.502 . S
C573 C575 1.561 . S
C573 C576 1.526 . S
C574 H558 0.959 1_565 S
C574 H559 0.959 . S
C574 H560 0.961 . S
C574 C573 1.502 . S
C575 H561 0.960 . S
C575 H562 0.961 . S
C575 H563 0.959 . S
C575 C573 1.561 . S
C576 C573 1.526 . S
C576 C577 1.396 1_565 S
C576 C581 1.390 . S
C577 C571 1.465 . S
C577 C576 1.396 1_545 S
C577 C578 1.399 . S
C578 H564 0.929 . S
C578 C577 1.399 . S
C578 C579 1.385 . S
C579 H565 0.931 . S
C579 C578 1.385 . S
C579 C580 1.382 1_545 S
C580 C579 1.382 1_565 S
C580 C581 1.394 . S
C581 H566 0.930 . S
C581 C576 1.390 . S
C581 C580 1.394 . S
H582 C594 0.930 . S
H583 C596 0.930 . S
H584 C597 0.930 . S
H585 C601 0.959 . S
H586 C601 0.959 . S
H587 C601 0.961 . S
H588 C602 0.960 . S
H589 C602 0.961 . S
H590 C602 0.959 . S
H591 C605 0.929 . S
H592 C606 0.931 . S
H593 C608 0.930 . S
C594 H582 0.930 . S
C594 C595 1.399 1_565 S
C594 C599 1.399 . S
C595 C594 1.399 1_545 S
C595 C596 1.376 . S
C596 H583 0.930 . S
C596 C595 1.376 . S
C596 C597 1.388 . S
C597 H584 0.930 . S
C597 C596 1.388 . S
C597 C598 1.390 . S
C598 C597 1.390 . S
C598 C599 1.394 1_545 S
C598 C604 1.465 . S
C599 C594 1.399 . S
C599 C598 1.394 1_565 S
C599 C600 1.516 . S
C600 C599 1.516 . S
C600 C601 1.502 . S
C600 C602 1.561 . S
C600 C603 1.526 . S
C601 H585 0.959 . S
C601 H586 0.959 . S
C601 H587 0.961 . S
C601 C600 1.502 . S
C602 H588 0.960 . S
C602 H589 0.961 . S
C602 H590 0.959 . S
C602 C600 1.561 . S
C603 C600 1.526 . S
C603 C604 1.396 1_565 S
C603 C608 1.390 . S
C604 C598 1.465 . S
C604 C603 1.396 1_545 S
C604 C605 1.399 . S
C605 H591 0.929 . S
C605 C604 1.399 . S
C605 C606 1.385 . S
C606 H592 0.931 . S
C606 C605 1.385 . S
C606 C607 1.389 . S
C607 C606 1.389 . S
C607 C608 1.387 1_545 S
C608 H593 0.930 . S
C608 C603 1.390 . S
C608 C607 1.387 1_565 S
H609 C621 0.931 1_565 S
H610 C623 0.930 . S
H611 C624 0.930 . S
H612 C628 0.959 1_545 S
H613 C628 0.959 . S
H614 C628 0.961 . S
H615 C629 0.960 . S
H616 C629 0.961 . S
H617 C629 0.959 . S
H618 C632 0.929 . S
H619 C633 0.931 . S
H620 C635 0.929 . S
C621 H609 0.931 1_545 S
C621 C622 1.399 . S
C621 C626 1.399 . S
C622 C621 1.399 . S
C622 C623 1.376 . S
C623 H610 0.930 . S
C623 C622 1.376 . S
C623 C624 1.388 . S
C624 H611 0.930 . S
C624 C623 1.388 . S
C624 C625 1.390 . S
C625 C624 1.390 . S
C625 C626 1.394 . S
C625 C631 1.465 . S
C626 C621 1.399 . S
C626 C625 1.394 . S
C626 C627 1.516 . S
C627 C626 1.516 . S
C627 C628 1.502 1_545 S
C627 C629 1.561 1_545 S
C627 C630 1.526 . S
C628 H612 0.959 1_565 S
C628 H613 0.959 . S
C628 H614 0.961 . S
C628 C627 1.502 1_565 S
C629 H615 0.960 . S
C629 H616 0.961 . S
C629 H617 0.959 . S
C629 C627 1.561 1_565 S
C630 C627 1.526 . S
C630 C631 1.396 . S
C630 C635 1.390 . S
C631 C625 1.465 . S
C631 C630 1.396 . S
C631 C632 1.399 . S
C632 H618 0.929 . S
C632 C631 1.399 . S
C632 C633 1.385 . S
C633 H619 0.931 . S
C633 C632 1.385 . S
C633 C634 1.389 . S
C634 C633 1.389 . S
C634 C635 1.387 . S
C635 H620 0.929 . S
C635 C630 1.390 . S
C635 C634 1.387 . S
H636 C648 0.930 . S
H637 C650 0.930 . S
H638 C651 0.930 . S
H639 C655 0.959 . S
H640 C655 0.959 . S
H641 C655 0.961 . S
H642 C656 0.960 . S
H643 C656 0.961 . S
H644 C656 0.959 . S
H645 C659 0.929 . S
H646 C660 0.931 . S
H647 C662 0.930 . S
C648 H636 0.930 . S
C648 C649 1.399 . S
C648 C653 1.399 . S
C649 C648 1.399 . S
C649 C650 1.376 . S
C650 H637 0.930 . S
C650 C649 1.376 . S
C650 C651 1.388 . S
C651 H638 0.930 . S
C651 C650 1.388 . S
C651 C652 1.390 . S
C652 C651 1.390 . S
C652 C653 1.394 . S
C652 C658 1.465 . S
C653 C648 1.399 . S
C653 C652 1.394 . S
C653 C654 1.516 . S
C654 C653 1.516 . S
C654 C655 1.502 . S
C654 C656 1.561 . S
C654 C657 1.526 . S
C655 H639 0.959 . S
C655 H640 0.959 . S
C655 H641 0.961 . S
C655 C654 1.502 . S
C656 H642 0.960 . S
C656 H643 0.961 . S
C656 H644 0.959 . S
C656 C654 1.561 . S
C657 C654 1.526 . S
C657 C658 1.396 . S
C657 C662 1.390 . S
C658 C652 1.465 . S
C658 C657 1.396 . S
C658 C659 1.399 . S
C659 H645 0.929 . S
C659 C658 1.399 . S
C659 C660 1.385 . S
C660 H646 0.931 . S
C660 C659 1.385 . S
C660 C661 1.389 . S
C661 C660 1.389 . S
C661 C662 1.387 . S
C662 H647 0.930 . S
C662 C657 1.390 . S
C662 C661 1.387 . S
H663 C675 0.930 . S
H664 C677 0.930 . S
H665 C678 0.930 . S
H666 C682 0.959 . S
H667 C682 0.959 . S
H668 C682 0.961 . S
H669 C683 0.960 . S
H670 C683 0.961 . S
H671 C683 0.959 . S
H672 C686 0.929 . S
H673 C687 0.931 . S
H674 C689 0.930 . S
C675 H663 0.930 . S
C675 C676 1.399 . S
C675 C680 1.399 . S
C676 C675 1.399 . S
C676 C677 1.376 . S
C677 H664 0.930 . S
C677 C676 1.376 . S
C677 C678 1.388 . S
C678 H665 0.930 . S
C678 C677 1.388 . S
C678 C679 1.390 . S
C679 C678 1.390 . S
C679 C680 1.394 . S
C679 C685 1.465 . S
C680 C675 1.399 . S
C680 C679 1.394 . S
C680 C681 1.516 . S
C681 C680 1.516 . S
C681 C682 1.502 . S
C681 C683 1.561 . S
C681 C684 1.526 . S
C682 H666 0.959 . S
C682 H667 0.959 . S
C682 H668 0.961 . S
C682 C681 1.502 . S
C683 H669 0.960 . S
C683 H670 0.961 . S
C683 H671 0.959 . S
C683 C681 1.561 . S
C684 C681 1.526 . S
C684 C685 1.396 . S
C684 C689 1.390 . S
C685 C679 1.465 . S
C685 C684 1.396 . S
C685 C686 1.399 . S
C686 H672 0.929 . S
C686 C685 1.399 . S
C686 C687 1.385 . S
C687 H673 0.931 . S
C687 C686 1.385 . S
C687 C688 1.389 . S
C688 C687 1.389 . S
C688 C689 1.387 . S
C689 H674 0.930 . S
C689 C684 1.390 . S
C689 C688 1.387 . S
H690 C702 0.930 . S
H691 C704 0.930 . S
H692 C705 0.930 . S
H693 C709 0.959 . S
H694 C709 0.959 . S
H695 C709 0.961 . S
H696 C710 0.960 . S
H697 C710 0.961 . S
H698 C710 0.959 . S
H699 C713 0.929 . S
H700 C714 0.931 . S
H701 C716 0.930 . S
C702 H690 0.930 . S
C702 C703 1.399 . S
C702 C707 1.399 . S
C703 C702 1.399 . S
C703 C704 1.376 . S
C704 H691 0.930 . S
C704 C703 1.376 . S
C704 C705 1.388 . S
C705 H692 0.930 . S
C705 C704 1.388 . S
C705 C706 1.390 . S
C706 C705 1.390 . S
C706 C707 1.394 . S
C706 C712 1.465 . S
C707 C702 1.399 . S
C707 C706 1.394 . S
C707 C708 1.516 . S
C708 C707 1.516 . S
C708 C709 1.502 . S
C708 C710 1.561 . S
C708 C711 1.526 . S
C709 H693 0.959 . S
C709 H694 0.959 . S
C709 H695 0.961 . S
C709 C708 1.502 . S
C710 H696 0.960 . S
C710 H697 0.961 . S
C710 H698 0.959 . S
C710 C708 1.561 . S
C711 C708 1.526 . S
C711 C712 1.396 . S
C711 C716 1.390 . S
C712 C706 1.465 . S
C712 C711 1.396 . S
C712 C713 1.399 . S
C713 H699 0.929 . S
C713 C712 1.399 . S
C713 C714 1.385 . S
C714 H700 0.931 . S
C714 C713 1.385 . S
C714 C715 1.389 . S
C715 C714 1.389 . S
C715 C716 1.387 . S
C716 H701 0.930 . S
C716 C711 1.390 . S
C716 C715 1.387 . S
H717 C729 0.930 . S
H718 C731 0.930 . S
H719 C732 0.930 . S
H720 C736 0.959 . S
H721 C736 0.959 . S
H722 C736 0.961 . S
H723 C737 0.960 . S
H724 C737 0.961 . S
H725 C737 0.959 . S
H726 C740 0.929 . S
H727 C741 0.931 . S
H728 C743 0.930 . S
C729 H717 0.930 . S
C729 C730 1.399 . S
C729 C734 1.399 . S
C730 C729 1.399 . S
C730 C731 1.376 . S
C731 H718 0.930 . S
C731 C730 1.376 . S
C731 C732 1.388 . S
C732 H719 0.930 . S
C732 C731 1.388 . S
C732 C733 1.390 . S
C733 C732 1.390 . S
C733 C734 1.394 . S
C733 C739 1.465 . S
C734 C729 1.399 . S
C734 C733 1.394 . S
C734 C735 1.516 . S
C735 C734 1.516 . S
C735 C736 1.502 . S
C735 C737 1.561 . S
C735 C738 1.526 . S
C736 H720 0.959 . S
C736 H721 0.959 . S
C736 H722 0.961 . S
C736 C735 1.502 . S
C737 H723 0.960 . S
C737 H724 0.961 . S
C737 H725 0.959 . S
C737 C735 1.561 . S
C738 C735 1.526 . S
C738 C739 1.396 . S
C738 C743 1.390 . S
C739 C733 1.465 . S
C739 C738 1.396 . S
C739 C740 1.399 . S
C740 H726 0.929 . S
C740 C739 1.399 . S
C740 C741 1.385 . S
C741 H727 0.931 . S
C741 C740 1.385 . S
C741 C742 1.389 . S
C742 C741 1.389 . S
C742 C743 1.387 . S
C743 H728 0.930 . S
C743 C738 1.390 . S
C743 C742 1.387 . S
H744 C756 0.930 . S
H745 C758 0.930 . S
H746 C759 0.930 . S
H747 C763 0.959 . S
H748 C763 0.959 . S
H749 C763 0.961 . S
H750 C764 0.960 . S
H751 C764 0.961 . S
H752 C764 0.959 . S
H753 C767 0.929 . S
H754 C768 0.931 . S
H755 C770 0.930 . S
C756 H744 0.930 . S
C756 C757 1.399 . S
C756 C761 1.399 . S
C757 C756 1.399 . S
C757 C758 1.376 . S
C758 H745 0.930 . S
C758 C757 1.376 . S
C758 C759 1.388 . S
C759 H746 0.930 . S
C759 C758 1.388 . S
C759 C760 1.390 . S
C760 C759 1.390 . S
C760 C761 1.394 . S
C760 C766 1.465 . S
C761 C756 1.399 . S
C761 C760 1.394 . S
C761 C762 1.516 . S
C762 C761 1.516 . S
C762 C763 1.502 . S
C762 C764 1.561 . S
C762 C765 1.526 . S
C763 H747 0.959 . S
C763 H748 0.959 . S
C763 H749 0.961 . S
C763 C762 1.502 . S
C764 H750 0.960 . S
C764 H751 0.961 . S
C764 H752 0.959 . S
C764 C762 1.561 . S
C765 C762 1.526 . S
C765 C766 1.396 . S
C765 C770 1.390 . S
C766 C760 1.465 . S
C766 C765 1.396 . S
C766 C767 1.399 . S
C767 H753 0.929 . S
C767 C766 1.399 . S
C767 C768 1.385 . S
C768 H754 0.931 . S
C768 C767 1.385 . S
C768 C769 1.389 . S
C769 C768 1.389 . S
C769 C770 1.387 . S
C770 H755 0.930 . S
C770 C765 1.390 . S
C770 C769 1.387 . S
H771 C783 0.930 . S
H772 C785 0.930 . S
H773 C786 0.930 . S
H774 C790 0.959 . S
H775 C790 0.959 . S
H776 C790 0.961 . S
H777 C791 0.960 . S
H778 C791 0.961 . S
H779 C791 0.959 . S
H780 C794 0.929 . S
H781 C795 0.931 . S
H782 C797 0.930 . S
C783 H771 0.930 . S
C783 C784 1.399 . S
C783 C788 1.399 . S
C784 C783 1.399 . S
C784 C785 1.376 . S
C785 H772 0.930 . S
C785 C784 1.376 . S
C785 C786 1.388 . S
C786 H773 0.930 . S
C786 C785 1.388 . S
C786 C787 1.390 . S
C787 C786 1.390 . S
C787 C788 1.394 . S
C787 C793 1.465 . S
C788 C783 1.399 . S
C788 C787 1.394 . S
C788 C789 1.516 . S
C789 C788 1.516 . S
C789 C790 1.502 . S
C789 C791 1.561 . S
C789 C792 1.526 . S
C790 H774 0.959 . S
C790 H775 0.959 . S
C790 H776 0.961 . S
C790 C789 1.502 . S
C791 H777 0.960 . S
C791 H778 0.961 . S
C791 H779 0.959 . S
C791 C789 1.561 . S
C792 C789 1.526 . S
C792 C793 1.396 . S
C792 C797 1.390 . S
C793 C787 1.465 . S
C793 C792 1.396 . S
C793 C794 1.399 . S
C794 H780 0.929 . S
C794 C793 1.399 . S
C794 C795 1.385 . S
C795 H781 0.931 . S
C795 C794 1.385 . S
C795 C796 1.389 . S
C796 C795 1.389 . S
C796 C797 1.387 . S
C797 H782 0.930 . S
C797 C792 1.390 . S
C797 C796 1.387 . S
H798 C810 0.930 . S
H799 C812 0.930 . S
H800 C813 0.930 . S
H801 C817 0.959 . S
H802 C817 0.959 . S
H803 C817 0.961 . S
H804 C818 0.960 . S
H805 C818 0.961 . S
H806 C818 0.959 . S
H807 C821 0.929 . S
H808 C822 0.931 . S
H809 C824 0.930 . S
C810 H798 0.930 . S
C810 C811 1.399 . S
C810 C815 1.399 . S
C811 C810 1.399 . S
C811 C812 1.376 . S
C812 H799 0.930 . S
C812 C811 1.376 . S
C812 C813 1.388 . S
C813 H800 0.930 . S
C813 C812 1.388 . S
C813 C814 1.390 . S
C814 C813 1.390 . S
C814 C815 1.394 . S
C814 C820 1.465 . S
C815 C810 1.399 . S
C815 C814 1.394 . S
C815 C816 1.516 . S
C816 C815 1.516 . S
C816 C817 1.502 . S
C816 C818 1.561 . S
C816 C819 1.526 . S
C817 H801 0.959 . S
C817 H802 0.959 . S
C817 H803 0.961 . S
C817 C816 1.502 . S
C818 H804 0.960 . S
C818 H805 0.961 . S
C818 H806 0.959 . S
C818 C816 1.561 . S
C819 C816 1.526 . S
C819 C820 1.396 . S
C819 C824 1.390 . S
C820 C814 1.465 . S
C820 C819 1.396 . S
C820 C821 1.399 . S
C821 H807 0.929 . S
C821 C820 1.399 . S
C821 C822 1.385 . S
C822 H808 0.931 . S
C822 C821 1.385 . S
C822 C823 1.389 . S
C823 C822 1.389 . S
C823 C824 1.387 . S
C824 H809 0.930 . S
C824 C819 1.390 . S
C824 C823 1.387 . S
H825 C837 0.930 . S
H826 C839 0.930 . S
H827 C840 0.930 . S
H828 C844 0.959 . S
H829 C844 0.959 . S
H830 C844 0.961 . S
H831 C845 0.960 . S
H832 C845 0.961 . S
H833 C845 0.959 . S
H834 C848 0.929 . S
H835 C849 0.931 . S
H836 C851 0.930 . S
C837 H825 0.930 . S
C837 C838 1.399 . S
C837 C842 1.399 . S
C838 C837 1.399 . S
C838 C839 1.376 . S
C839 H826 0.930 . S
C839 C838 1.376 . S
C839 C840 1.388 . S
C840 H827 0.930 . S
C840 C839 1.388 . S
C840 C841 1.390 . S
C841 C840 1.390 . S
C841 C842 1.394 . S
C841 C847 1.465 . S
C842 C837 1.399 . S
C842 C841 1.394 . S
C842 C843 1.516 . S
C843 C842 1.516 . S
C843 C844 1.502 . S
C843 C845 1.561 . S
C843 C846 1.526 . S
C844 H828 0.959 . S
C844 H829 0.959 . S
C844 H830 0.961 . S
C844 C843 1.502 . S
C845 H831 0.960 . S
C845 H832 0.961 . S
C845 H833 0.959 . S
C845 C843 1.561 . S
C846 C843 1.526 . S
C846 C847 1.396 . S
C846 C851 1.390 . S
C847 C841 1.465 . S
C847 C846 1.396 . S
C847 C848 1.399 . S
C848 H834 0.929 . S
C848 C847 1.399 . S
C848 C849 1.385 . S
C849 H835 0.931 . S
C849 C848 1.385 . S
C849 C850 1.389 . S
C850 C849 1.389 . S
C850 C851 1.387 . S
C851 H836 0.930 . S
C851 C846 1.390 . S
C851 C850 1.387 . S
H852 C864 0.930 . S
H853 C866 0.930 . S
H854 C867 0.930 . S
H855 C871 0.959 . S
H856 C871 0.959 . S
H857 C871 0.961 . S
H858 C872 0.960 . S
H859 C872 0.961 . S
H860 C872 0.959 . S
H861 C875 0.929 . S
H862 C876 0.931 . S
H863 C878 0.930 . S
C864 H852 0.930 . S
C864 C865 1.399 . S
C864 C869 1.399 . S
C865 C864 1.399 . S
C865 C866 1.376 . S
C866 H853 0.930 . S
C866 C865 1.376 . S
C866 C867 1.388 . S
C867 H854 0.930 . S
C867 C866 1.388 . S
C867 C868 1.390 . S
C868 C867 1.390 . S
C868 C869 1.394 . S
C868 C874 1.465 . S
C869 C864 1.399 . S
C869 C868 1.394 . S
C869 C870 1.516 . S
C870 C869 1.516 . S
C870 C871 1.502 . S
C870 C872 1.561 . S
C870 C873 1.526 . S
C871 H855 0.959 . S
C871 H856 0.959 . S
C871 H857 0.961 . S
C871 C870 1.502 . S
C872 H858 0.960 . S
C872 H859 0.961 . S
C872 H860 0.959 . S
C872 C870 1.561 . S
C873 C870 1.526 . S
C873 C874 1.396 . S
C873 C878 1.390 . S
C874 C868 1.465 . S
C874 C873 1.396 . S
C874 C875 1.399 . S
C875 H861 0.929 . S
C875 C874 1.399 . S
C875 C876 1.385 . S
C876 H862 0.931 . S
C876 C875 1.385 . S
C876 C877 1.389 . S
C877 C876 1.389 . S
C877 C878 1.387 . S
C878 H863 0.930 . S
C878 C873 1.390 . S
C878 C877 1.387 . S
H879 C891 0.930 . S
H880 C893 0.930 . S
H881 C894 0.930 . S
H882 C898 0.959 . S
H883 C898 0.959 . S
H884 C898 0.961 . S
H885 C899 0.960 . S
H886 C899 0.961 . S
H887 C899 0.959 . S
H888 C902 0.929 . S
H889 C903 0.931 . S
H890 C905 0.930 . S
C891 H879 0.930 . S
C891 C892 1.399 . S
C891 C896 1.399 . S
C892 C891 1.399 . S
C892 C893 1.376 . S
C893 H880 0.930 . S
C893 C892 1.376 . S
C893 C894 1.388 . S
C894 H881 0.930 . S
C894 C893 1.388 . S
C894 C895 1.390 . S
C895 C894 1.390 . S
C895 C896 1.394 . S
C895 C901 1.465 . S
C896 C891 1.399 . S
C896 C895 1.394 . S
C896 C897 1.516 . S
C897 C896 1.516 . S
C897 C898 1.502 . S
C897 C899 1.561 . S
C897 C900 1.526 . S
C898 H882 0.959 . S
C898 H883 0.959 . S
C898 H884 0.961 . S
C898 C897 1.502 . S
C899 H885 0.960 . S
C899 H886 0.961 . S
C899 H887 0.959 . S
C899 C897 1.561 . S
C900 C897 1.526 . S
C900 C901 1.396 . S
C900 C905 1.390 . S
C901 C895 1.465 . S
C901 C900 1.396 . S
C901 C902 1.399 . S
C902 H888 0.929 . S
C902 C901 1.399 . S
C902 C903 1.385 . S
C903 H889 0.931 . S
C903 C902 1.385 . S
C903 C904 1.389 . S
C904 C903 1.389 . S
C904 C905 1.387 . S
C905 H890 0.930 . S
C905 C900 1.390 . S
C905 C904 1.387 . S
H906 C918 0.930 . S
H907 C920 0.930 . S
H908 C921 0.930 . S
H909 C925 0.959 . S
H910 C925 0.959 . S
H911 C925 0.961 . S
H912 C926 0.960 . S
H913 C926 0.961 . S
H914 C926 0.959 . S
H915 C929 0.929 . S
H916 C930 0.931 . S
H917 C932 0.930 . S
C918 H906 0.930 . S
C918 C919 1.399 . S
C918 C923 1.399 . S
C919 C918 1.399 . S
C919 C920 1.376 . S
C920 H907 0.930 . S
C920 C919 1.376 . S
C920 C921 1.388 . S
C921 H908 0.930 . S
C921 C920 1.388 . S
C921 C922 1.390 . S
C922 C921 1.390 . S
C922 C923 1.394 . S
C922 C928 1.465 . S
C923 C918 1.399 . S
C923 C922 1.394 . S
C923 C924 1.516 . S
C924 C923 1.516 . S
C924 C925 1.502 . S
C924 C926 1.561 . S
C924 C927 1.526 . S
C925 H909 0.959 . S
C925 H910 0.959 . S
C925 H911 0.961 . S
C925 C924 1.502 . S
C926 H912 0.960 . S
C926 H913 0.961 . S
C926 H914 0.959 . S
C926 C924 1.561 . S
C927 C924 1.526 . S
C927 C928 1.396 . S
C927 C932 1.390 . S
C928 C922 1.465 . S
C928 C927 1.396 . S
C928 C929 1.399 . S
C929 H915 0.929 . S
C929 C928 1.399 . S
C929 C930 1.385 . S
C930 H916 0.931 . S
C930 C929 1.385 . S
C930 C931 1.389 . S
C931 C930 1.389 . S
C931 C932 1.387 . S
C932 H917 0.930 . S
C932 C927 1.390 . S
C932 C931 1.387 . S
H933 C945 0.930 . S
H934 C947 0.930 . S
H935 C948 0.930 . S
H936 C952 0.959 . S
H937 C952 0.959 . S
H938 C952 0.961 . S
H939 C953 0.960 . S
H940 C953 0.961 . S
H941 C953 0.959 . S
H942 C956 0.929 . S
H943 C957 0.931 . S
H944 C959 0.930 . S
C945 H933 0.930 . S
C945 C946 1.399 . S
C945 C950 1.399 . S
C946 C945 1.399 . S
C946 C947 1.376 . S
C947 H934 0.930 . S
C947 C946 1.376 . S
C947 C948 1.388 . S
C948 H935 0.930 . S
C948 C947 1.388 . S
C948 C949 1.390 . S
C949 C948 1.390 . S
C949 C950 1.394 . S
C949 C955 1.465 . S
C950 C945 1.399 . S
C950 C949 1.394 . S
C950 C951 1.516 . S
C951 C950 1.516 . S
C951 C952 1.502 . S
C951 C953 1.561 . S
C951 C954 1.526 . S
C952 H936 0.959 . S
C952 H937 0.959 . S
C952 H938 0.961 . S
C952 C951 1.502 . S
C953 H939 0.960 . S
C953 H940 0.961 . S
C953 H941 0.959 . S
C953 C951 1.561 . S
C954 C951 1.526 . S
C954 C955 1.396 . S
C954 C959 1.390 . S
C955 C949 1.465 . S
C955 C954 1.396 . S
C955 C956 1.399 . S
C956 H942 0.929 . S
C956 C955 1.399 . S
C956 C957 1.385 . S
C957 H943 0.931 . S
C957 C956 1.385 . S
C957 C958 1.389 . S
C958 C957 1.389 . S
C958 C959 1.387 . S
C959 H944 0.930 . S
C959 C954 1.390 . S
C959 C958 1.387 . S
H960 C972 0.930 . S
H961 C974 0.930 . S
H962 C975 0.930 . S
H963 C979 0.959 . S
H964 C979 0.959 . S
H965 C979 0.961 . S
H966 C980 0.960 . S
H967 C980 0.961 . S
H968 C980 0.959 . S
H969 C983 0.929 . S
H970 C984 0.931 . S
H971 C986 0.930 . S
C972 H960 0.930 . S
C972 C973 1.399 . S
C972 C977 1.399 . S
C973 C972 1.399 . S
C973 C974 1.376 . S
C974 H961 0.930 . S
C974 C973 1.376 . S
C974 C975 1.388 . S
C975 H962 0.930 . S
C975 C974 1.388 . S
C975 C976 1.390 . S
C976 C975 1.390 . S
C976 C977 1.394 . S
C976 C982 1.465 . S
C977 C972 1.399 . S
C977 C976 1.394 . S
C977 C978 1.516 . S
C978 C977 1.516 . S
C978 C979 1.502 . S
C978 C980 1.561 . S
C978 C981 1.526 . S
C979 H963 0.959 . S
C979 H964 0.959 . S
C979 H965 0.961 . S
C979 C978 1.502 . S
C980 H966 0.960 . S
C980 H967 0.961 . S
C980 H968 0.959 . S
C980 C978 1.561 . S
C981 C978 1.526 . S
C981 C982 1.396 . S
C981 C986 1.390 . S
C982 C976 1.465 . S
C982 C981 1.396 . S
C982 C983 1.399 . S
C983 H969 0.929 . S
C983 C982 1.399 . S
C983 C984 1.385 . S
C984 H970 0.931 . S
C984 C983 1.385 . S
C984 C985 1.389 . S
C985 C984 1.389 . S
C985 C986 1.387 . S
C986 H971 0.930 . S
C986 C981 1.390 . S
C986 C985 1.387 . S
H987 C999 0.930 . S
H988 C1001 0.930 . S
H989 C1002 0.930 . S
H990 C1006 0.959 . S
H991 C1006 0.959 . S
H992 C1006 0.961 . S
H993 C1007 0.960 . S
H994 C1007 0.961 . S
H995 C1007 0.959 . S
H996 C1010 0.929 . S
H997 C1011 0.931 . S
H998 C1013 0.930 . S
C999 H987 0.930 . S
C999 C1000 1.399 . S
C999 C1004 1.399 . S
C1000 C999 1.399 . S
C1000 C1001 1.376 . S
C1001 H988 0.930 . S
C1001 C1000 1.376 . S
C1001 C1002 1.388 . S
C1002 H989 0.930 . S
C1002 C1001 1.388 . S
C1002 C1003 1.390 . S
C1003 C1002 1.390 . S
C1003 C1004 1.394 . S
C1003 C1009 1.465 . S
C1004 C999 1.399 . S
C1004 C1003 1.394 . S
C1004 C1005 1.516 . S
C1005 C1004 1.516 . S
C1005 C1006 1.502 . S
C1005 C1007 1.561 . S
C1005 C1008 1.526 . S
C1006 H990 0.959 . S
C1006 H991 0.959 . S
C1006 H992 0.961 . S
C1006 C1005 1.502 . S
C1007 H993 0.960 . S
C1007 H994 0.961 . S
C1007 H995 0.959 . S
C1007 C1005 1.561 . S
C1008 C1005 1.526 . S
C1008 C1009 1.396 . S
C1008 C1013 1.390 . S
C1009 C1003 1.465 . S
C1009 C1008 1.396 . S
C1009 C1010 1.399 . S
C1010 H996 0.929 . S
C1010 C1009 1.399 . S
C1010 C1011 1.385 . S
C1011 H997 0.931 . S
C1011 C1010 1.385 . S
C1011 C1012 1.389 . S
C1012 C1011 1.389 . S
C1012 C1013 1.387 . S
C1013 H998 0.930 . S
C1013 C1008 1.390 . S
C1013 C1012 1.387 . S
H1014 C1026 0.930 . S
H1015 C1028 0.930 . S
H1016 C1029 0.930 . S
H1017 C1033 0.959 . S
H1018 C1033 0.959 . S
H1019 C1033 0.961 . S
H1020 C1034 0.960 . S
H1021 C1034 0.961 . S
H1022 C1034 0.959 . S
H1023 C1037 0.929 . S
H1024 C1038 0.931 . S
H1025 C1040 0.930 . S
C1026 H1014 0.930 . S
C1026 C1027 1.399 . S
C1026 C1031 1.399 . S
C1027 C1026 1.399 . S
C1027 C1028 1.376 . S
C1028 H1015 0.930 . S
C1028 C1027 1.376 . S
C1028 C1029 1.388 . S
C1029 H1016 0.930 . S
C1029 C1028 1.388 . S
C1029 C1030 1.390 . S
C1030 C1029 1.390 . S
C1030 C1031 1.394 . S
C1030 C1036 1.465 . S
C1031 C1026 1.399 . S
C1031 C1030 1.394 . S
C1031 C1032 1.516 . S
C1032 C1031 1.516 . S
C1032 C1033 1.502 . S
C1032 C1034 1.561 . S
C1032 C1035 1.526 . S
C1033 H1017 0.959 . S
C1033 H1018 0.959 . S
C1033 H1019 0.961 . S
C1033 C1032 1.502 . S
C1034 H1020 0.960 . S
C1034 H1021 0.961 . S
C1034 H1022 0.959 . S
C1034 C1032 1.561 . S
C1035 C1032 1.526 . S
C1035 C1036 1.396 . S
C1035 C1040 1.390 . S
C1036 C1030 1.465 . S
C1036 C1035 1.396 . S
C1036 C1037 1.399 . S
C1037 H1023 0.929 . S
C1037 C1036 1.399 . S
C1037 C1038 1.385 . S
C1038 H1024 0.931 . S
C1038 C1037 1.385 . S
C1038 C1039 1.389 . S
C1039 C1038 1.389 . S
C1039 C1040 1.387 . S
C1040 H1025 0.930 . S
C1040 C1035 1.390 . S
C1040 C1039 1.387 . S
H1041 C1053 0.930 . S
H1042 C1055 0.930 . S
H1043 C1056 0.930 . S
H1044 C1060 0.959 . S
H1045 C1060 0.959 . S
H1046 C1060 0.961 . S
H1047 C1061 0.960 . S
H1048 C1061 0.961 . S
H1049 C1061 0.959 . S
H1050 C1064 0.929 . S
H1051 C1065 0.931 . S
H1052 C1067 0.930 . S
C1053 H1041 0.930 . S
C1053 C1054 1.399 . S
C1053 C1058 1.399 . S
C1054 C1053 1.399 . S
C1054 C1055 1.376 . S
C1055 H1042 0.930 . S
C1055 C1054 1.376 . S
C1055 C1056 1.388 . S
C1056 H1043 0.930 . S
C1056 C1055 1.388 . S
C1056 C1057 1.390 . S
C1057 C1056 1.390 . S
C1057 C1058 1.394 . S
C1057 C1063 1.465 . S
C1058 C1053 1.399 . S
C1058 C1057 1.394 . S
C1058 C1059 1.516 . S
C1059 C1058 1.516 . S
C1059 C1060 1.502 . S
C1059 C1061 1.561 . S
C1059 C1062 1.526 . S
C1060 H1044 0.959 . S
C1060 H1045 0.959 . S
C1060 H1046 0.961 . S
C1060 C1059 1.502 . S
C1061 H1047 0.960 . S
C1061 H1048 0.961 . S
C1061 H1049 0.959 . S
C1061 C1059 1.561 . S
C1062 C1059 1.526 . S
C1062 C1063 1.396 . S
C1062 C1067 1.390 . S
C1063 C1057 1.465 . S
C1063 C1062 1.396 . S
C1063 C1064 1.399 . S
C1064 H1050 0.929 . S
C1064 C1063 1.399 . S
C1064 C1065 1.385 . S
C1065 H1051 0.931 . S
C1065 C1064 1.385 . S
C1065 C1066 1.389 . S
C1066 C1065 1.389 . S
C1066 C1067 1.387 . S
C1067 H1052 0.930 . S
C1067 C1062 1.390 . S
C1067 C1066 1.387 . S
H1068 C1080 0.930 . S
H1069 C1082 0.930 . S
H1070 C1083 0.930 . S
H1071 C1087 0.959 . S
H1072 C1087 0.959 . S
H1073 C1087 0.961 . S
H1074 C1088 0.960 . S
H1075 C1088 0.961 . S
H1076 C1088 0.959 . S
H1077 C1091 0.929 . S
H1078 C1092 0.931 . S
H1079 C1094 0.930 . S
C1080 H1068 0.930 . S
C1080 C1081 1.399 . S
C1080 C1085 1.399 . S
C1081 C1080 1.399 . S
C1081 C1082 1.376 . S
C1082 H1069 0.930 . S
C1082 C1081 1.376 . S
C1082 C1083 1.388 . S
C1083 H1070 0.930 . S
C1083 C1082 1.388 . S
C1083 C1084 1.390 . S
C1084 C1083 1.390 . S
C1084 C1085 1.394 . S
C1084 C1090 1.465 . S
C1085 C1080 1.399 . S
C1085 C1084 1.394 . S
C1085 C1086 1.516 . S
C1086 C1085 1.516 . S
C1086 C1087 1.502 . S
C1086 C1088 1.561 . S
C1086 C1089 1.526 . S
C1087 H1071 0.959 . S
C1087 H1072 0.959 . S
C1087 H1073 0.961 . S
C1087 C1086 1.502 . S
C1088 H1074 0.960 . S
C1088 H1075 0.961 . S
C1088 H1076 0.959 . S
C1088 C1086 1.561 . S
C1089 C1086 1.526 . S
C1089 C1090 1.396 . S
C1089 C1094 1.390 . S
C1090 C1084 1.465 . S
C1090 C1089 1.396 . S
C1090 C1091 1.399 . S
C1091 H1077 0.929 . S
C1091 C1090 1.399 . S
C1091 C1092 1.385 . S
C1092 H1078 0.931 . S
C1092 C1091 1.385 . S
C1092 C1093 1.389 . S
C1093 C1092 1.389 . S
C1093 C1094 1.387 . S
C1094 H1079 0.930 . S
C1094 C1089 1.390 . S
C1094 C1093 1.387 . S
H1095 C1107 0.930 . S
H1096 C1109 0.930 . S
H1097 C1110 0.930 . S
H1098 C1114 0.959 . S
H1099 C1114 0.959 . S
H1100 C1114 0.961 . S
H1101 C1115 0.960 . S
H1102 C1115 0.961 . S
H1103 C1115 0.959 . S
H1104 C1118 0.929 . S
H1105 C1119 0.931 . S
H1106 C1121 0.930 . S
C1107 H1095 0.930 . S
C1107 C1108 1.399 . S
C1107 C1112 1.399 . S
C1108 C1107 1.399 . S
C1108 C1109 1.376 . S
C1109 H1096 0.930 . S
C1109 C1108 1.376 . S
C1109 C1110 1.388 . S
C1110 H1097 0.930 . S
C1110 C1109 1.388 . S
C1110 C1111 1.390 . S
C1111 C1110 1.390 . S
C1111 C1112 1.394 . S
C1111 C1117 1.465 . S
C1112 C1107 1.399 . S
C1112 C1111 1.394 . S
C1112 C1113 1.516 . S
C1113 C1112 1.516 . S
C1113 C1114 1.502 . S
C1113 C1115 1.561 . S
C1113 C1116 1.526 . S
C1114 H1098 0.959 . S
C1114 H1099 0.959 . S
C1114 H1100 0.961 . S
C1114 C1113 1.502 . S
C1115 H1101 0.960 . S
C1115 H1102 0.961 . S
C1115 H1103 0.959 . S
C1115 C1113 1.561 . S
C1116 C1113 1.526 . S
C1116 C1117 1.396 . S
C1116 C1121 1.390 . S
C1117 C1111 1.465 . S
C1117 C1116 1.396 . S
C1117 C1118 1.399 . S
C1118 H1104 0.929 . S
C1118 C1117 1.399 . S
C1118 C1119 1.385 . S
C1119 H1105 0.931 . S
C1119 C1118 1.385 . S
C1119 C1120 1.389 . S
C1120 C1119 1.389 . S
C1120 C1121 1.387 . S
C1121 H1106 0.930 . S
C1121 C1116 1.390 . S
C1121 C1120 1.387 . S
H1122 C1134 0.930 . S
H1123 C1136 0.930 . S
H1124 C1137 0.930 . S
H1125 C1141 0.959 . S
H1126 C1141 0.959 . S
H1127 C1141 0.961 . S
H1128 C1142 0.960 . S
H1129 C1142 0.961 . S
H1130 C1142 0.959 . S
H1131 C1145 0.929 . S
H1132 C1146 0.931 . S
H1133 C1148 0.930 . S
C1134 H1122 0.930 . S
C1134 C1135 1.399 . S
C1134 C1139 1.399 . S
C1135 C1134 1.399 . S
C1135 C1136 1.376 . S
C1136 H1123 0.930 . S
C1136 C1135 1.376 . S
C1136 C1137 1.388 . S
C1137 H1124 0.930 . S
C1137 C1136 1.388 . S
C1137 C1138 1.390 . S
C1138 C1137 1.390 . S
C1138 C1139 1.394 . S
C1138 C1144 1.465 . S
C1139 C1134 1.399 . S
C1139 C1138 1.394 . S
C1139 C1140 1.516 . S
C1140 C1139 1.516 . S
C1140 C1141 1.502 . S
C1140 C1142 1.561 . S
C1140 C1143 1.526 . S
C1141 H1125 0.959 . S
C1141 H1126 0.959 . S
C1141 H1127 0.961 . S
C1141 C1140 1.502 . S
C1142 H1128 0.960 . S
C1142 H1129 0.961 . S
C1142 H1130 0.959 . S
C1142 C1140 1.561 . S
C1143 C1140 1.526 . S
C1143 C1144 1.396 . S
C1143 C1148 1.390 . S
C1144 C1138 1.465 . S
C1144 C1143 1.396 . S
C1144 C1145 1.399 . S
C1145 H1131 0.929 . S
C1145 C1144 1.399 . S
C1145 C1146 1.385 . S
C1146 H1132 0.931 . S
C1146 C1145 1.385 . S
C1146 C1147 1.389 . S
C1147 C1146 1.389 . S
C1147 C1148 1.387 . S
C1148 H1133 0.930 . S
C1148 C1143 1.390 . S
C1148 C1147 1.387 . S
H1149 C1161 0.930 . S
H1150 C1163 0.930 . S
H1151 C1164 0.930 . S
H1152 C1168 0.959 . S
H1153 C1168 0.959 . S
H1154 C1168 0.961 . S
H1155 C1169 0.960 . S
H1156 C1169 0.961 . S
H1157 C1169 0.959 . S
H1158 C1172 0.929 . S
H1159 C1173 0.931 . S
H1160 C1175 0.930 . S
C1161 H1149 0.930 . S
C1161 C1162 1.399 . S
C1161 C1166 1.399 . S
C1162 C1161 1.399 . S
C1162 C1163 1.376 . S
C1163 H1150 0.930 . S
C1163 C1162 1.376 . S
C1163 C1164 1.388 . S
C1164 H1151 0.930 . S
C1164 C1163 1.388 . S
C1164 C1165 1.390 . S
C1165 C1164 1.390 . S
C1165 C1166 1.394 . S
C1165 C1171 1.465 . S
C1166 C1161 1.399 . S
C1166 C1165 1.394 . S
C1166 C1167 1.516 . S
C1167 C1166 1.516 . S
C1167 C1168 1.502 . S
C1167 C1169 1.561 . S
C1167 C1170 1.526 . S
C1168 H1152 0.959 . S
C1168 H1153 0.959 . S
C1168 H1154 0.961 . S
C1168 C1167 1.502 . S
C1169 H1155 0.960 . S
C1169 H1156 0.961 . S
C1169 H1157 0.959 . S
C1169 C1167 1.561 . S
C1170 C1167 1.526 . S
C1170 C1171 1.396 . S
C1170 C1175 1.390 . S
C1171 C1165 1.465 . S
C1171 C1170 1.396 . S
C1171 C1172 1.399 . S
C1172 H1158 0.929 . S
C1172 C1171 1.399 . S
C1172 C1173 1.385 . S
C1173 H1159 0.931 . S
C1173 C1172 1.385 . S
C1173 C1174 1.389 . S
C1174 C1173 1.389 . S
C1174 C1175 1.387 . S
C1175 H1160 0.930 . S
C1175 C1170 1.390 . S
C1175 C1174 1.387 . S
H1176 C1188 0.930 . S
H1177 C1190 0.930 . S
H1178 C1191 0.930 . S
H1179 C1195 0.959 . S
H1180 C1195 0.959 1_455 S
H1181 C1195 0.961 . S
H1182 C1196 0.934 1_655 S
H1183 C1196 0.983 . S
H1184 C1196 0.965 1_565 S
H1185 C1199 0.929 1_565 S
H1186 C1200 0.931 . S
H1187 C1202 0.930 . S
C1188 H1176 0.930 . S
C1188 C1189 1.399 . S
C1188 C1193 1.399 . S
C1189 C1188 1.399 . S
C1189 C1190 1.376 1_545 S
C1190 H1177 0.930 . S
C1190 C1189 1.376 1_565 S
C1190 C1191 1.388 . S
C1191 H1178 0.930 . S
C1191 C1190 1.388 . S
C1191 C1192 1.390 1_565 S
C1192 C1191 1.390 1_545 S
C1192 C1193 1.394 . S
C1192 C1198 1.465 1_655 S
C1193 C1188 1.399 . S
C1193 C1192 1.394 . S
C1193 C1194 1.516 . S
C1194 C1193 1.516 . S
C1194 C1195 1.502 . S
C1194 C1196 1.560 1_655 S
C1194 C1197 1.526 1_655 S
C1195 H1179 0.959 . S
C1195 H1180 0.959 1_655 S
C1195 H1181 0.961 . S
C1195 C1194 1.502 . S
C1196 H1182 0.934 1_455 S
C1196 H1183 0.983 . S
C1196 H1184 0.965 1_545 S
C1196 C1194 1.560 1_455 S
C1197 C1194 1.526 1_455 S
C1197 C1198 1.396 . S
C1197 C1202 1.390 . S
C1198 C1192 1.465 1_455 S
C1198 C1197 1.396 . S
C1198 C1199 1.399 . S
C1199 H1185 0.929 1_545 S
C1199 C1198 1.399 . S
C1199 C1200 1.385 . S
C1200 H1186 0.931 . S
C1200 C1199 1.385 . S
C1200 C1201 1.389 . S
C1201 C1200 1.389 . S
C1201 C1202 1.387 . S
C1202 H1187 0.930 . S
C1202 C1197 1.390 . S
C1202 C1201 1.387 . S
H1203 C1215 0.930 . S
H1204 C1217 0.930 . S
H1205 C1218 0.930 . S
H1206 C1222 0.959 . S
H1207 C1222 0.959 1_655 S
H1208 C1222 0.961 . S
H1209 C1223 0.960 1_455 S
H1210 C1223 0.961 . S
H1211 C1223 0.959 . S
H1212 C1226 0.929 . S
H1213 C1227 0.931 . S
H1214 C1229 0.930 . S
C1215 H1203 0.930 . S
C1215 C1216 1.399 . S
C1215 C1220 1.399 . S
C1216 C1215 1.399 . S
C1216 C1217 1.376 . S
C1217 H1204 0.930 . S
C1217 C1216 1.376 . S
C1217 C1218 1.388 . S
C1218 H1205 0.930 . S
C1218 C1217 1.388 . S
C1218 C1219 1.390 . S
C1219 C1218 1.390 . S
C1219 C1220 1.394 . S
C1219 C1225 1.465 1_455 S
C1220 C1215 1.399 . S
C1220 C1219 1.394 . S
C1220 C1221 1.510 1_455 S
C1221 C1220 1.510 1_655 S
C1221 C1222 1.501 1_655 S
C1221 C1223 1.562 1_545 S
C1221 C1224 1.532 . S
C1222 H1206 0.959 . S
C1222 H1207 0.959 1_455 S
C1222 H1208 0.961 . S
C1222 C1221 1.501 1_455 S
C1223 H1209 0.960 1_655 S
C1223 H1210 0.961 . S
C1223 H1211 0.959 . S
C1223 C1221 1.562 1_565 S
C1224 C1221 1.532 . S
C1224 C1225 1.396 . S
C1224 C1229 1.390 . S
C1225 C1219 1.465 1_655 S
C1225 C1224 1.396 . S
C1225 C1226 1.399 . S
C1226 H1212 0.929 . S
C1226 C1225 1.399 . S
C1226 C1227 1.385 . S
C1227 H1213 0.931 . S
C1227 C1226 1.385 . S
C1227 C1228 1.389 . S
C1228 C1227 1.389 . S
C1228 C1229 1.387 . S
C1229 H1214 0.930 . S
C1229 C1224 1.390 . S
C1229 C1228 1.387 . S
H1230 C1242 0.930 . S
H1231 C1244 0.930 . S
H1232 C1245 0.930 . S
H1233 C1249 0.959 . S
H1234 C1249 0.959 1_455 S
H1235 C1249 0.961 . S
H1236 C1250 0.960 1_655 S
H1237 C1250 0.961 . S
H1238 C1250 0.959 . S
H1239 C1253 0.929 . S
H1240 C1254 0.931 . S
H1241 C1256 0.930 . S
C1242 H1230 0.930 . S
C1242 C1243 1.399 . S
C1242 C1247 1.399 . S
C1243 C1242 1.399 . S
C1243 C1244 1.376 . S
C1244 H1231 0.930 . S
C1244 C1243 1.376 . S
C1244 C1245 1.388 . S
C1245 H1232 0.930 . S
C1245 C1244 1.388 . S
C1245 C1246 1.390 . S
C1246 C1245 1.390 . S
C1246 C1247 1.394 . S
C1246 C1252 1.465 1_655 S
C1247 C1242 1.399 . S
C1247 C1246 1.394 . S
C1247 C1248 1.525 . S
C1248 C1247 1.525 . S
C1248 C1249 1.503 . S
C1248 C1250 1.560 1_655 S
C1248 C1251 1.517 1_655 S
C1249 H1233 0.959 . S
C1249 H1234 0.959 1_655 S
C1249 H1235 0.961 . S
C1249 C1248 1.503 . S
C1250 H1236 0.960 1_455 S
C1250 H1237 0.961 . S
C1250 H1238 0.959 . S
C1250 C1248 1.560 1_455 S
C1251 C1248 1.517 1_455 S
C1251 C1252 1.396 . S
C1251 C1256 1.390 . S
C1252 C1246 1.465 1_455 S
C1252 C1251 1.396 . S
C1252 C1253 1.399 . S
C1253 H1239 0.929 . S
C1253 C1252 1.399 . S
C1253 C1254 1.385 . S
C1254 H1240 0.931 . S
C1254 C1253 1.385 . S
C1254 C1255 1.389 . S
C1255 C1254 1.389 . S
C1255 C1256 1.387 . S
C1256 H1241 0.930 . S
C1256 C1251 1.390 . S
C1256 C1255 1.387 . S
H1257 C1269 0.930 . S
H1258 C1271 0.930 . S
H1259 C1272 0.930 . S
H1260 C1276 0.959 . S
H1261 C1276 0.959 . S
H1262 C1276 0.961 1_655 S
H1263 C1277 0.926 1_655 S
H1264 C1277 0.995 . S
H1265 C1277 0.959 . S
H1266 C1280 0.929 . S
H1267 C1281 0.931 . S
H1268 C1283 0.930 . S
C1269 H1257 0.930 . S
C1269 C1270 1.399 . S
C1269 C1274 1.399 . S
C1270 C1269 1.399 . S
C1270 C1271 1.376 . S
C1271 H1258 0.930 . S
C1271 C1270 1.376 . S
C1271 C1272 1.388 . S
C1272 H1259 0.930 . S
C1272 C1271 1.388 . S
C1272 C1273 1.390 . S
C1273 C1272 1.390 . S
C1273 C1274 1.394 . S
C1273 C1279 1.465 1_655 S
C1274 C1269 1.399 . S
C1274 C1273 1.394 . S
C1274 C1275 1.516 1_655 S
C1275 C1274 1.516 1_455 S
C1275 C1276 1.502 . S
C1275 C1277 1.563 . S
C1275 C1278 1.526 . S
C1276 H1260 0.959 . S
C1276 H1261 0.959 . S
C1276 H1262 0.961 1_455 S
C1276 C1275 1.502 . S
C1277 H1263 0.926 1_455 S
C1277 H1264 0.995 . S
C1277 H1265 0.959 . S
C1277 C1275 1.563 . S
C1278 C1275 1.526 . S
C1278 C1279 1.396 . S
C1278 C1283 1.390 . S
C1279 C1273 1.465 1_455 S
C1279 C1278 1.396 . S
C1279 C1280 1.399 . S
C1280 H1266 0.929 . S
C1280 C1279 1.399 . S
C1280 C1281 1.385 . S
C1281 H1267 0.931 . S
C1281 C1280 1.385 . S
C1281 C1282 1.389 . S
C1282 C1281 1.389 . S
C1282 C1283 1.387 . S
C1283 H1268 0.930 . S
C1283 C1278 1.390 . S
C1283 C1282 1.387 . S
H1284 C1296 0.930 1_565 S
H1285 C1298 0.930 . S
H1286 C1299 0.930 . S
H1287 C1303 0.959 . S
H1288 C1303 0.959 . S
H1289 C1303 0.961 . S
H1290 C1304 0.960 . S
H1291 C1304 0.961 . S
H1292 C1304 0.959 . S
H1293 C1307 0.929 . S
H1294 C1308 0.931 . S
H1295 C1310 0.930 . S
C1296 H1284 0.930 1_545 S
C1296 C1297 1.399 . S
C1296 C1301 1.399 . S
C1297 C1296 1.399 . S
C1297 C1298 1.376 . S
C1298 H1285 0.930 . S
C1298 C1297 1.376 . S
C1298 C1299 1.388 . S
C1299 H1286 0.930 . S
C1299 C1298 1.388 . S
C1299 C1300 1.390 . S
C1300 C1299 1.390 . S
C1300 C1301 1.394 . S
C1300 C1306 1.465 . S
C1301 C1296 1.399 . S
C1301 C1300 1.394 . S
C1301 C1302 1.516 . S
C1302 C1301 1.516 . S
C1302 C1303 1.502 1_545 S
C1302 C1304 1.561 . S
C1302 C1305 1.526 . S
C1303 H1287 0.959 . S
C1303 H1288 0.959 . S
C1303 H1289 0.961 . S
C1303 C1302 1.502 1_565 S
C1304 H1290 0.960 . S
C1304 H1291 0.961 . S
C1304 H1292 0.959 . S
C1304 C1302 1.561 . S
C1305 C1302 1.526 . S
C1305 C1306 1.396 . S
C1305 C1310 1.390 . S
C1306 C1300 1.465 . S
C1306 C1305 1.396 . S
C1306 C1307 1.399 . S
C1307 H1293 0.929 . S
C1307 C1306 1.399 . S
C1307 C1308 1.385 . S
C1308 H1294 0.931 . S
C1308 C1307 1.385 . S
C1308 C1309 1.389 . S
C1309 C1308 1.389 . S
C1309 C1310 1.387 . S
C1310 H1295 0.930 . S
C1310 C1305 1.390 . S
C1310 C1309 1.387 . S
H1311 C1323 0.930 . S
H1312 C1325 0.930 . S
H1313 C1326 0.930 . S
H1314 C1330 0.959 . S
H1315 C1330 0.959 . S
H1316 C1330 0.961 . S
H1317 C1331 0.960 . S
H1318 C1331 0.961 . S
H1319 C1331 0.959 . S
H1320 C1334 0.929 . S
H1321 C1335 0.935 . S
H1322 C1337 0.930 . S
C1323 H1311 0.930 . S
C1323 C1324 1.399 . S
C1323 C1328 1.399 . S
C1324 C1323 1.399 . S
C1324 C1325 1.376 . S
C1325 H1312 0.930 . S
C1325 C1324 1.376 . S
C1325 C1326 1.388 . S
C1326 H1313 0.930 . S
C1326 C1325 1.388 . S
C1326 C1327 1.390 . S
C1327 C1326 1.390 . S
C1327 C1328 1.394 . S
C1327 C1333 1.465 . S
C1328 C1323 1.399 . S
C1328 C1327 1.394 . S
C1328 C1329 1.516 . S
C1329 C1328 1.516 . S
C1329 C1330 1.502 . S
C1329 C1331 1.561 1_545 S
C1329 C1332 1.526 . S
C1330 H1314 0.959 . S
C1330 H1315 0.959 . S
C1330 H1316 0.961 . S
C1330 C1329 1.502 . S
C1331 H1317 0.960 . S
C1331 H1318 0.961 . S
C1331 H1319 0.959 . S
C1331 C1329 1.561 1_565 S
C1332 C1329 1.526 . S
C1332 C1333 1.396 . S
C1332 C1337 1.390 . S
C1333 C1327 1.465 . S
C1333 C1332 1.396 . S
C1333 C1334 1.399 . S
C1334 H1320 0.929 . S
C1334 C1333 1.399 . S
C1334 C1335 1.385 . S
C1335 H1321 0.935 . S
C1335 C1334 1.385 . S
C1335 C1336 1.389 . S
C1336 C1335 1.389 . S
C1336 C1337 1.387 . S
C1337 H1322 0.930 . S
C1337 C1332 1.390 . S
C1337 C1336 1.387 . S
H1338 C1350 0.930 . S
H1339 C1352 0.930 . S
H1340 C1353 0.930 . S
H1341 C1357 0.959 . S
H1342 C1357 0.959 . S
H1343 C1357 0.961 . S
H1344 C1358 0.960 . S
H1345 C1358 0.961 . S
H1346 C1358 0.959 . S
H1347 C1361 0.929 . S
H1348 C1362 0.931 . S
H1349 C1364 0.930 . S
C1350 H1338 0.930 . S
C1350 C1351 1.399 . S
C1350 C1355 1.399 . S
C1351 C1350 1.399 . S
C1351 C1352 1.376 . S
C1352 H1339 0.930 . S
C1352 C1351 1.376 . S
C1352 C1353 1.388 . S
C1353 H1340 0.930 . S
C1353 C1352 1.388 . S
C1353 C1354 1.390 . S
C1354 C1353 1.390 . S
C1354 C1355 1.394 . S
C1354 C1360 1.465 . S
C1355 C1350 1.399 . S
C1355 C1354 1.394 . S
C1355 C1356 1.516 . S
C1356 C1355 1.516 . S
C1356 C1357 1.502 . S
C1356 C1358 1.561 . S
C1356 C1359 1.526 . S
C1357 H1341 0.959 . S
C1357 H1342 0.959 . S
C1357 H1343 0.961 . S
C1357 C1356 1.502 . S
C1358 H1344 0.960 . S
C1358 H1345 0.961 . S
C1358 H1346 0.959 . S
C1358 C1356 1.561 . S
C1359 C1356 1.526 . S
C1359 C1360 1.396 . S
C1359 C1364 1.390 . S
C1360 C1354 1.465 . S
C1360 C1359 1.396 . S
C1360 C1361 1.399 . S
C1361 H1347 0.929 . S
C1361 C1360 1.399 . S
C1361 C1362 1.385 . S
C1362 H1348 0.931 . S
C1362 C1361 1.385 . S
C1362 C1363 1.389 . S
C1363 C1362 1.389 . S
C1363 C1364 1.387 . S
C1364 H1349 0.930 . S
C1364 C1359 1.390 . S
C1364 C1363 1.387 . S
H1365 C1377 0.930 . S
H1366 C1379 0.930 . S
H1367 C1380 0.930 . S
H1368 C1384 0.959 . S
H1369 C1384 0.959 . S
H1370 C1384 0.961 . S
H1371 C1385 0.960 . S
H1372 C1385 0.961 . S
H1373 C1385 0.959 . S
H1374 C1388 0.929 . S
H1375 C1389 0.931 . S
H1376 C1391 0.930 . S
C1377 H1365 0.930 . S
C1377 C1378 1.399 . S
C1377 C1382 1.399 . S
C1378 C1377 1.399 . S
C1378 C1379 1.376 . S
C1379 H1366 0.930 . S
C1379 C1378 1.376 . S
C1379 C1380 1.388 . S
C1380 H1367 0.930 . S
C1380 C1379 1.388 . S
C1380 C1381 1.390 . S
C1381 C1380 1.390 . S
C1381 C1382 1.394 . S
C1381 C1387 1.465 . S
C1382 C1377 1.399 . S
C1382 C1381 1.394 . S
C1382 C1383 1.516 . S
C1383 C1382 1.516 . S
C1383 C1384 1.502 . S
C1383 C1385 1.561 . S
C1383 C1386 1.526 . S
C1384 H1368 0.959 . S
C1384 H1369 0.959 . S
C1384 H1370 0.961 . S
C1384 C1383 1.502 . S
C1385 H1371 0.960 . S
C1385 H1372 0.961 . S
C1385 H1373 0.959 . S
C1385 C1383 1.561 . S
C1386 C1383 1.526 . S
C1386 C1387 1.396 . S
C1386 C1391 1.390 . S
C1387 C1381 1.465 . S
C1387 C1386 1.396 . S
C1387 C1388 1.399 . S
C1388 H1374 0.929 . S
C1388 C1387 1.399 . S
C1388 C1389 1.385 . S
C1389 H1375 0.931 . S
C1389 C1388 1.385 . S
C1389 C1390 1.389 . S
C1390 C1389 1.389 . S
C1390 C1391 1.387 . S
C1391 H1376 0.930 . S
C1391 C1386 1.390 . S
C1391 C1390 1.387 . S
H1392 C1404 0.930 1_565 S
H1393 C1406 0.930 . S
H1394 C1407 0.930 . S
H1395 C1411 0.957 1_554 S
H1396 C1411 0.959 1_554 S
H1397 C1411 0.961 . S
H1398 C1412 0.960 . S
H1399 C1412 0.961 1_554 S
H1400 C1412 0.961 . S
H1401 C1415 0.929 . S
H1402 C1416 0.931 . S
H1403 C1418 0.930 . S
C1404 H1392 0.930 1_545 S
C1404 C1405 1.399 . S
C1404 C1409 1.399 . S
C1405 C1404 1.399 . S
C1405 C1406 1.376 . S
C1406 H1393 0.930 . S
C1406 C1405 1.376 . S
C1406 C1407 1.388 . S
C1407 H1394 0.930 . S
C1407 C1406 1.388 . S
C1407 C1408 1.390 . S
C1408 C1407 1.390 . S
C1408 C1409 1.394 . S
C1408 C1414 1.465 1_556 S
C1409 C1404 1.399 . S
C1409 C1408 1.394 . S
C1409 C1410 1.516 1_545 S
C1410 C1409 1.516 1_565 S
C1410 C1411 1.502 . S
C1410 C1412 1.561 . S
C1410 C1413 1.526 1_566 S
C1411 H1395 0.957 1_556 S
C1411 H1396 0.959 1_556 S
C1411 H1397 0.961 . S
C1411 C1410 1.502 . S
C1412 H1398 0.960 . S
C1412 H1399 0.961 1_556 S
C1412 H1400 0.961 . S
C1412 C1410 1.561 . S
C1413 C1410 1.526 1_544 S
C1413 C1414 1.396 . S
C1413 C1418 1.390 1_545 S
C1414 C1408 1.465 1_554 S
C1414 C1413 1.396 . S
C1414 C1415 1.399 . S
C1415 H1401 0.929 . S
C1415 C1414 1.399 . S
C1415 C1416 1.385 . S
C1416 H1402 0.931 . S
C1416 C1415 1.385 . S
C1416 C1417 1.389 . S
C1417 C1416 1.389 . S
C1417 C1418 1.387 1_545 S
C1418 H1403 0.930 . S
C1418 C1413 1.390 1_565 S
C1418 C1417 1.387 1_565 S
H1419 C1431 0.930 . S
H1420 C1433 0.930 . S
H1421 C1434 0.930 . S
H1422 C1438 0.956 1_554 S
H1423 C1438 0.959 1_554 S
H1424 C1438 0.961 . S
H1425 C1439 0.960 . S
H1426 C1439 0.961 1_554 S
H1427 C1439 0.962 . S
H1428 C1442 0.929 . S
H1429 C1443 0.931 . S
H1430 C1445 0.930 . S
C1431 H1419 0.930 . S
C1431 C1432 1.399 . S
C1431 C1436 1.399 . S
C1432 C1431 1.399 . S
C1432 C1433 1.376 1_545 S
C1433 H1420 0.930 . S
C1433 C1432 1.376 1_565 S
C1433 C1434 1.388 . S
C1434 H1421 0.930 . S
C1434 C1433 1.388 . S
C1434 C1435 1.390 1_565 S
C1435 C1434 1.390 1_545 S
C1435 C1436 1.394 . S
C1435 C1441 1.465 1_556 S
C1436 C1431 1.399 . S
C1436 C1435 1.394 . S
C1436 C1437 1.516 . S
C1437 C1436 1.516 . S
C1437 C1438 1.502 . S
C1437 C1439 1.561 . S
C1437 C1440 1.526 1_556 S
C1438 H1422 0.956 1_556 S
C1438 H1423 0.959 1_556 S
C1438 H1424 0.961 . S
C1438 C1437 1.502 . S
C1439 H1425 0.960 . S
C1439 H1426 0.961 1_556 S
C1439 H1427 0.962 . S
C1439 C1437 1.561 . S
C1440 C1437 1.526 1_554 S
C1440 C1441 1.396 . S
C1440 C1445 1.390 . S
C1441 C1435 1.465 1_554 S
C1441 C1440 1.396 . S
C1441 C1442 1.399 1_545 S
C1442 H1428 0.929 . S
C1442 C1441 1.399 1_565 S
C1442 C1443 1.385 . S
C1443 H1429 0.931 . S
C1443 C1442 1.385 . S
C1443 C1444 1.389 1_565 S
C1444 C1443 1.389 1_545 S
C1444 C1445 1.387 . S
C1445 H1430 0.930 . S
C1445 C1440 1.390 . S
C1445 C1444 1.387 . S
H1446 C1458 0.930 . S
H1447 C1460 0.930 . S
H1448 C1461 0.930 . S
H1449 C1465 0.959 . S
H1450 C1465 0.959 . S
H1451 C1465 0.961 . S
H1452 C1466 0.960 . S
H1453 C1466 0.961 . S
H1454 C1466 0.959 . S
H1455 C1469 0.929 . S
H1456 C1470 0.931 . S
H1457 C1472 0.930 . S
C1458 H1446 0.930 . S
C1458 C1459 1.399 . S
C1458 C1463 1.399 . S
C1459 C1458 1.399 . S
C1459 C1460 1.376 . S
C1460 H1447 0.930 . S
C1460 C1459 1.376 . S
C1460 C1461 1.388 . S
C1461 H1448 0.930 . S
C1461 C1460 1.388 . S
C1461 C1462 1.390 . S
C1462 C1461 1.390 . S
C1462 C1463 1.394 . S
C1462 C1468 1.465 . S
C1463 C1458 1.399 . S
C1463 C1462 1.394 . S
C1463 C1464 1.516 . S
C1464 C1463 1.516 . S
C1464 C1465 1.502 . S
C1464 C1466 1.561 . S
C1464 C1467 1.526 . S
C1465 H1449 0.959 . S
C1465 H1450 0.959 . S
C1465 H1451 0.961 . S
C1465 C1464 1.502 . S
C1466 H1452 0.960 . S
C1466 H1453 0.961 . S
C1466 H1454 0.959 . S
C1466 C1464 1.561 . S
C1467 C1464 1.526 . S
C1467 C1468 1.396 . S
C1467 C1472 1.390 . S
C1468 C1462 1.465 . S
C1468 C1467 1.396 . S
C1468 C1469 1.399 . S
C1469 H1455 0.929 . S
C1469 C1468 1.399 . S
C1469 C1470 1.385 . S
C1470 H1456 0.931 . S
C1470 C1469 1.385 . S
C1470 C1471 1.389 . S
C1471 C1470 1.389 . S
C1471 C1472 1.387 . S
C1472 H1457 0.930 . S
C1472 C1467 1.390 . S
C1472 C1471 1.387 . S
H1473 C1485 0.930 . S
H1474 C1487 0.930 . S
H1475 C1488 0.930 . S
H1476 C1492 0.959 . S
H1477 C1492 0.959 . S
H1478 C1492 0.961 . S
H1479 C1493 0.960 . S
H1480 C1493 0.961 . S
H1481 C1493 0.959 . S
H1482 C1496 0.929 . S
H1483 C1497 0.931 . S
H1484 C1499 0.930 . S
C1485 H1473 0.930 . S
C1485 C1486 1.399 . S
C1485 C1490 1.399 . S
C1486 C1485 1.399 . S
C1486 C1487 1.376 . S
C1487 H1474 0.930 . S
C1487 C1486 1.376 . S
C1487 C1488 1.388 . S
C1488 H1475 0.930 . S
C1488 C1487 1.388 . S
C1488 C1489 1.390 . S
C1489 C1488 1.390 . S
C1489 C1490 1.394 . S
C1489 C1495 1.465 . S
C1490 C1485 1.399 . S
C1490 C1489 1.394 . S
C1490 C1491 1.516 . S
C1491 C1490 1.516 . S
C1491 C1492 1.502 . S
C1491 C1493 1.561 . S
C1491 C1494 1.526 . S
C1492 H1476 0.959 . S
C1492 H1477 0.959 . S
C1492 H1478 0.961 . S
C1492 C1491 1.502 . S
C1493 H1479 0.960 . S
C1493 H1480 0.961 . S
C1493 H1481 0.959 . S
C1493 C1491 1.561 . S
C1494 C1491 1.526 . S
C1494 C1495 1.396 . S
C1494 C1499 1.390 . S
C1495 C1489 1.465 . S
C1495 C1494 1.396 . S
C1495 C1496 1.399 . S
C1496 H1482 0.929 . S
C1496 C1495 1.399 . S
C1496 C1497 1.385 . S
C1497 H1483 0.931 . S
C1497 C1496 1.385 . S
C1497 C1498 1.389 . S
C1498 C1497 1.389 . S
C1498 C1499 1.387 . S
C1499 H1484 0.930 . S
C1499 C1494 1.390 . S
C1499 C1498 1.387 . S
H1500 C1512 0.930 . S
H1501 C1514 0.930 . S
H1502 C1515 0.930 . S
H1503 C1519 0.959 . S
H1504 C1519 0.959 . S
H1505 C1519 0.961 . S
H1506 C1520 0.960 . S
H1507 C1520 0.961 . S
H1508 C1520 0.959 . S
H1509 C1523 0.929 . S
H1510 C1524 0.931 . S
H1511 C1526 0.930 1_565 S
C1512 H1500 0.930 . S
C1512 C1513 1.399 1_565 S
C1512 C1517 1.399 1_565 S
C1513 C1512 1.399 1_545 S
C1513 C1514 1.376 . S
C1514 H1501 0.930 . S
C1514 C1513 1.376 . S
C1514 C1515 1.388 . S
C1515 H1502 0.930 . S
C1515 C1514 1.388 . S
C1515 C1516 1.390 . S
C1516 C1515 1.390 . S
C1516 C1517 1.394 . S
C1516 C1522 1.465 . S
C1517 C1512 1.399 1_545 S
C1517 C1516 1.394 . S
C1517 C1518 1.516 1_545 S
C1518 C1517 1.516 1_565 S
C1518 C1519 1.502 . S
C1518 C1520 1.561 . S
C1518 C1521 1.526 1_565 S
C1519 H1503 0.959 . S
C1519 H1504 0.959 . S
C1519 H1505 0.961 . S
C1519 C1518 1.502 . S
C1520 H1506 0.960 . S
C1520 H1507 0.961 . S
C1520 H1508 0.959 . S
C1520 C1518 1.561 . S
C1521 C1518 1.526 1_545 S
C1521 C1522 1.396 . S
C1521 C1526 1.390 . S
C1522 C1516 1.465 . S
C1522 C1521 1.396 . S
C1522 C1523 1.399 . S
C1523 H1509 0.929 . S
C1523 C1522 1.399 . S
C1523 C1524 1.385 . S
C1524 H1510 0.931 . S
C1524 C1523 1.385 . S
C1524 C1525 1.389 . S
C1525 C1524 1.389 . S
C1525 C1526 1.387 . S
C1526 H1511 0.930 1_545 S
C1526 C1521 1.390 . S
C1526 C1525 1.387 . S
H1527 C1539 0.930 . S
H1528 C1541 0.930 . S
H1529 C1542 0.930 . S
H1530 C1546 0.959 . S
H1531 C1546 0.959 . S
H1532 C1546 0.961 . S
H1533 C1547 0.960 . S
H1534 C1547 0.961 . S
H1535 C1547 0.959 . S
H1536 C1550 0.929 . S
H1537 C1551 0.931 . S
H1538 C1553 0.930 1_565 S
C1539 H1527 0.930 . S
C1539 C1540 1.399 1_565 S
C1539 C1544 1.399 1_565 S
C1540 C1539 1.399 1_545 S
C1540 C1541 1.376 . S
C1541 H1528 0.930 . S
C1541 C1540 1.376 . S
C1541 C1542 1.388 . S
C1542 H1529 0.930 . S
C1542 C1541 1.388 . S
C1542 C1543 1.390 . S
C1543 C1542 1.390 . S
C1543 C1544 1.394 . S
C1543 C1549 1.465 . S
C1544 C1539 1.399 1_545 S
C1544 C1543 1.394 . S
C1544 C1545 1.516 1_545 S
C1545 C1544 1.516 1_565 S
C1545 C1546 1.502 . S
C1545 C1547 1.561 . S
C1545 C1548 1.526 1_565 S
C1546 H1530 0.959 . S
C1546 H1531 0.959 . S
C1546 H1532 0.961 . S
C1546 C1545 1.502 . S
C1547 H1533 0.960 . S
C1547 H1534 0.961 . S
C1547 H1535 0.959 . S
C1547 C1545 1.561 . S
C1548 C1545 1.526 1_545 S
C1548 C1549 1.396 . S
C1548 C1553 1.390 . S
C1549 C1543 1.465 . S
C1549 C1548 1.396 . S
C1549 C1550 1.399 . S
C1550 H1536 0.929 . S
C1550 C1549 1.399 . S
C1550 C1551 1.385 . S
C1551 H1537 0.931 . S
C1551 C1550 1.385 . S
C1551 C1552 1.389 . S
C1552 C1551 1.389 . S
C1552 C1553 1.387 . S
C1553 H1538 0.930 1_545 S
C1553 C1548 1.390 . S
C1553 C1552 1.387 . S
H1554 C1566 0.930 . S
H1555 C1568 0.930 . S
H1556 C1569 0.930 . S
H1557 C1573 0.959 . S
H1558 C1573 0.959 . S
H1559 C1573 0.961 1_554 S
H1560 C1574 0.960 1_554 S
H1561 C1574 0.961 . S
H1562 C1574 0.959 . S
H1563 C1577 0.929 . S
H1564 C1578 0.931 . S
H1565 C1580 0.930 . S
C1566 H1554 0.930 . S
C1566 C1567 1.399 . S
C1566 C1571 1.399 . S
C1567 C1566 1.399 . S
C1567 C1568 1.376 . S
C1568 H1555 0.930 . S
C1568 C1567 1.376 . S
C1568 C1569 1.388 . S
C1569 H1556 0.930 . S
C1569 C1568 1.388 . S
C1569 C1570 1.390 . S
C1570 C1569 1.390 . S
C1570 C1571 1.394 . S
C1570 C1576 1.465 1_554 S
C1571 C1566 1.399 . S
C1571 C1570 1.394 . S
C1571 C1572 1.516 1_554 S
C1572 C1571 1.516 1_556 S
C1572 C1573 1.502 . S
C1572 C1574 1.561 . S
C1572 C1575 1.526 . S
C1573 H1557 0.959 . S
C1573 H1558 0.959 . S
C1573 H1559 0.961 1_556 S
C1573 C1572 1.502 . S
C1574 H1560 0.960 1_556 S
C1574 H1561 0.961 . S
C1574 H1562 0.959 . S
C1574 C1572 1.561 . S
C1575 C1572 1.526 . S
C1575 C1576 1.396 . S
C1575 C1580 1.390 . S
C1576 C1570 1.465 1_556 S
C1576 C1575 1.396 . S
C1576 C1577 1.399 . S
C1577 H1563 0.929 . S
C1577 C1576 1.399 . S
C1577 C1578 1.385 . S
C1578 H1564 0.931 . S
C1578 C1577 1.385 . S
C1578 C1579 1.389 . S
C1579 C1578 1.389 . S
C1579 C1580 1.387 . S
C1580 H1565 0.930 . S
C1580 C1575 1.390 . S
C1580 C1579 1.387 . S
H1581 C1593 0.930 . S
H1582 C1595 0.930 . S
H1583 C1596 0.930 . S
H1584 C1600 0.960 1_554 S
H1585 C1600 0.959 1_554 S
H1586 C1600 0.961 . S
H1587 C1601 0.960 . S
H1588 C1601 0.961 1_554 S
H1589 C1601 0.958 . S
H1590 C1604 0.929 . S
H1591 C1605 0.931 . S
H1592 C1607 0.930 . S
C1593 H1581 0.930 . S
C1593 C1594 1.399 . S
C1593 C1598 1.399 . S
C1594 C1593 1.399 . S
C1594 C1595 1.376 . S
C1595 H1582 0.930 . S
C1595 C1594 1.376 . S
C1595 C1596 1.388 . S
C1596 H1583 0.930 . S
C1596 C1595 1.388 . S
C1596 C1597 1.390 . S
C1597 C1596 1.390 . S
C1597 C1598 1.394 . S
C1597 C1603 1.465 1_556 S
C1598 C1593 1.399 . S
C1598 C1597 1.394 . S
C1598 C1599 1.516 . S
C1599 C1598 1.516 . S
C1599 C1600 1.502 . S
C1599 C1601 1.561 . S
C1599 C1602 1.526 1_556 S
C1600 H1584 0.960 1_556 S
C1600 H1585 0.959 1_556 S
C1600 H1586 0.961 . S
C1600 C1599 1.502 . S
C1601 H1587 0.960 . S
C1601 H1588 0.961 1_556 S
C1601 H1589 0.958 . S
C1601 C1599 1.561 . S
C1602 C1599 1.526 1_554 S
C1602 C1603 1.396 . S
C1602 C1607 1.390 . S
C1603 C1597 1.465 1_554 S
C1603 C1602 1.396 . S
C1603 C1604 1.399 . S
C1604 H1590 0.929 . S
C1604 C1603 1.399 . S
C1604 C1605 1.385 . S
C1605 H1591 0.931 . S
C1605 C1604 1.385 . S
C1605 C1606 1.389 . S
C1606 C1605 1.389 . S
C1606 C1607 1.387 . S
C1607 H1592 0.930 . S
C1607 C1602 1.390 . S
C1607 C1606 1.387 . S
C541 N14 1.633 . S
C553 N377 1.616 . S
C568 N47 1.656 1_565 S
C580 N344 1.626 1_565 S
C595 N311 1.629 . S
C607 N80 1.616 . S
C622 N278 1.661 . S
C634 N113 1.677 . S
C649 N146 1.632 . S
C661 N509 1.616 . S
C676 N179 1.656 . S
C688 N476 1.676 . S
C703 N443 1.631 . S
C715 N212 1.616 . S
C730 N410 1.657 . S
C742 N245 1.676 . S
C757 C8 0.987 . S
C769 C437 1.009 . S
C784 C404 1.012 . S
C796 C41 0.986 . S
C811 C74 1.010 . S
C823 C503 0.988 . S
C838 C470 0.986 . S
C850 C107 1.010 . S
C865 C127 1.560 . S
C877 C490 1.550 . S
C892 C523 1.561 . S
C904 C94 1.550 . S
C919 C424 1.560 . S
C931 C61 1.550 . S
C946 C28 1.567 . S
C958 C457 1.579 . S
C973 C140 0.985 . S
C985 C305 1.010 . S
C1000 C173 0.987 . S
C1012 C272 1.008 . S
C1027 C206 1.012 . S
C1039 C371 0.987 . S
C1054 C239 1.012 . S
C1066 C338 0.986 . S
C1081 C259 1.562 . S
C1093 C358 1.550 . S
C1108 C226 1.561 . S
C1120 C391 1.550 . S
C1135 C193 1.559 . S
C1147 C292 1.550 . S
C1162 C160 1.554 . S
C1174 C325 1.572 . S
C1189 C50 1.484 . S
C1201 C17 1.468 . S
C1216 C83 1.476 . S
C1228 C116 1.469 . S
C1243 C182 1.479 . S
C1255 C149 1.468 . S
C1270 C248 1.482 . S
C1282 C215 1.501 . S
C1297 C314 1.485 . S
C1309 C281 1.502 . S
C1324 C380 1.491 . S
C1336 C347 1.501 . S
C1351 C413 1.490 . S
C1363 C446 1.502 . S
C1378 C512 1.485 . S
C1390 C479 1.468 . S
C1405 N71 1.531 . S
C1417 N5 1.480 . S
C1432 N104 1.528 . S
C1444 N38 1.480 . S
C1459 N137 1.521 . S
C1471 N203 1.480 . S
C1486 N236 1.521 . S
C1498 N170 1.556 . S
C1513 N269 1.509 . S
C1525 N335 1.558 . S
C1540 N368 1.508 . S
C1552 N302 1.558 . S
C1567 N401 1.508 . S
C1579 N467 1.558 . S
C1594 N500 1.541 . S
C1606 N434 1.482 . S
