# Generated by pormake.
# Topology snk, (6)-cn, num edge types: 1
# Building blocks:
#     Node 0, Type 0, BuildingBlock: PAMTOO_clean_sbu_0, # of connection points: 6
#     Node 1, Type 0, BuildingBlock: PAMTOO_clean_sbu_0, # of connection points: 6
#     Node 2, Type 0, BuildingBlock: PAMTOO_clean_sbu_0, # of connection points: 6
#     Node 3, Type 0, BuildingBlock: PAMTOO_clean_sbu_0, # of connection points: 6
#     Node 4, Type 0, BuildingBlock: PAMTOO_clean_sbu_0, # of connection points: 6
#     Node 5, Type 0, BuildingBlock: PAMTOO_clean_sbu_0, # of connection points: 6
#     Node 6, Type 0, BuildingBlock: PAMTOO_clean_sbu_0, # of connection points: 6
#     Node 7, Type 0, BuildingBlock: PAMTOO_clean_sbu_0, # of connection points: 6
#     Edge 8, Type (0, 0), BuildingBlock: XUDNAN_clean_linker_2, # of connection points: 2
#     Edge 9, Type (0, 0), BuildingBlock: XUDNAN_clean_linker_2, # of connection points: 2
#     Edge 10, Type (0, 0), BuildingBlock: XUDNAN_clean_linker_2, # of connection points: 2
#     Edge 11, Type (0, 0), BuildingBlock: XUDNAN_clean_linker_2, # of connection points: 2
#     Edge 12, Type (0, 0), BuildingBlock: XUDNAN_clean_linker_2, # of connection points: 2
#     Edge 13, Type (0, 0), BuildingBlock: XUDNAN_clean_linker_2, # of connection points: 2
#     Edge 14, Type (0, 0), BuildingBlock: XUDNAN_clean_linker_2, # of connection points: 2
#     Edge 15, Type (0, 0), BuildingBlock: XUDNAN_clean_linker_2, # of connection points: 2
#     Edge 16, Type (0, 0), BuildingBlock: XUDNAN_clean_linker_2, # of connection points: 2
#     Edge 17, Type (0, 0), BuildingBlock: XUDNAN_clean_linker_2, # of connection points: 2
#     Edge 18, Type (0, 0), BuildingBlock: XUDNAN_clean_linker_2, # of connection points: 2
#     Edge 19, Type (0, 0), BuildingBlock: XUDNAN_clean_linker_2, # of connection points: 2
#     Edge 20, Type (0, 0), BuildingBlock: XUDNAN_clean_linker_2, # of connection points: 2
#     Edge 21, Type (0, 0), BuildingBlock: XUDNAN_clean_linker_2, # of connection points: 2
#     Edge 22, Type (0, 0), BuildingBlock: XUDNAN_clean_linker_2, # of connection points: 2
#     Edge 23, Type (0, 0), BuildingBlock: XUDNAN_clean_linker_2, # of connection points: 2
#     Edge 24, Type (0, 0), BuildingBlock: XUDNAN_clean_linker_2, # of connection points: 2
#     Edge 25, Type (0, 0), BuildingBlock: XUDNAN_clean_linker_2, # of connection points: 2
#     Edge 26, Type (0, 0), BuildingBlock: XUDNAN_clean_linker_2, # of connection points: 2
#     Edge 27, Type (0, 0), BuildingBlock: XUDNAN_clean_linker_2, # of connection points: 2
#     Edge 28, Type (0, 0), BuildingBlock: XUDNAN_clean_linker_2, # of connection points: 2
#     Edge 29, Type (0, 0), BuildingBlock: XUDNAN_clean_linker_2, # of connection points: 2
#     Edge 30, Type (0, 0), BuildingBlock: XUDNAN_clean_linker_2, # of connection points: 2
#     Edge 31, Type (0, 0), BuildingBlock: XUDNAN_clean_linker_2, # of connection points: 2
# Relax obj value: 0.068
# Max RMSD: 0.148
# Mean RMSD: 0.112
data_MOF--net-snk--node1-PAMTOO_clean_sbu_0--edge1-XUDNAN_clean_linker_2
_symmetry_space_group_name_H-M    P1
_symmetry_Int_Tables_number       1
_symmetry_cell_setting            triclinic
loop_
_symmetry_equiv_pos_as_xyz
'x, y, z'
_cell_length_a     38.003359
_cell_length_b     38.17949
_cell_length_c     25.66816
_cell_angle_alpha  89.780782
_cell_angle_beta   94.681402
_cell_angle_gamma 89.707948
loop_
_atom_site_label
_atom_site_type_symbol
_atom_site_fract_x
_atom_site_fract_y
_atom_site_fract_z
_atom_type_partial_charge
Dy0 Dy 0.03025 0.00581 0.54757 0.0
Dy1 Dy 1.00128 0.96911 0.43035 0.0
C2 C 0.06009 0.93756 0.50866 0.0
O3 O 0.05036 0.04253 0.48853 0.0
O4 O 0.04542 0.00595 0.41624 0.0
O5 O 0.06579 0.99794 0.61668 0.0
O6 O 0.03128 0.04324 0.61145 0.0
O7 O 0.97475 0.02093 0.43608 0.0
O8 O 0.97589 0.02618 0.52571 0.0
O9 O 0.96395 0.94795 0.48737 0.0
O10 O 0.99619 0.96075 0.56554 0.0
O11 O 0.96278 0.95882 0.36506 0.0
O12 O 0.01623 0.93858 0.36489 0.0
C13 C 0.05626 0.03513 0.43978 0.0
O14 O 0.06854 0.97056 0.51293 0.0
O15 O 0.03099 0.92965 0.48072 0.0
C16 C 0.04301 0.01654 0.69544 0.0
C17 C 0.02386 0.00208 0.79827 0.0
C18 C 0.0187 0.97704 0.75817 0.0
C19 C 0.0283 0.9841 0.70759 0.0
C20 C 0.04861 0.04146 0.73538 0.0
C21 C 0.03931 0.03428 0.78628 0.0
C22 C 0.05313 0.0242 0.64177 0.0
C23 C 0.96257 0.03429 0.47825 0.0
C24 C 0.96949 0.9454 0.53891 0.0
C25 C 0.9856 0.94974 0.2819 0.0
C26 C 0.9863 0.96135 0.17234 0.0
C27 C 1.00005 0.98655 0.2085 0.0
C28 C 0.99965 0.98082 0.26275 0.0
C29 C 0.97232 0.92453 0.24607 0.0
C30 C 0.9727 0.93017 0.19218 0.0
C31 C 0.9855 0.94205 0.33862 0.0
H32 H 0.0074 0.95176 0.76597 0.0
H33 H 0.02431 0.96411 0.67793 0.0
H34 H 0.06012 0.06659 0.72717 0.0
H35 H 0.04348 0.05426 0.81595 0.0
H36 H 0.01056 0.01094 0.19491 0.0
H37 H 0.01025 0.00057 0.2897 0.0
H38 H 0.96177 0.90018 0.25982 0.0
H39 H 0.96258 0.90975 0.16599 0.0
Dy40 Dy 0.23639 0.77536 0.77508 0.0
Dy41 Dy 0.20087 0.75654 0.88779 0.0
C42 C 0.17526 0.81823 0.8133 0.0
O43 O 0.27658 0.79244 0.83684 0.0
O44 O 0.24254 0.79701 0.90717 0.0
O45 O 0.2328 0.80664 0.70468 0.0
O46 O 0.276 0.7697 0.71945 0.0
O47 O 0.25053 0.72583 0.88573 0.0
O48 O 0.25008 0.71992 0.79678 0.0
O49 O 0.17515 0.72008 0.82726 0.0
O50 O 0.18469 0.75121 0.75235 0.0
O51 O 0.18611 0.71998 0.9465 0.0
O52 O 0.17427 0.77534 0.95364 0.0
C53 C 0.27171 0.80321 0.88425 0.0
O54 O 0.20896 0.82102 0.80727 0.0
O55 O 0.16434 0.79111 0.83865 0.0
C56 C 0.25548 0.77994 0.63056 0.0
C57 C 0.24954 0.76126 0.52351 0.0
C58 C 0.2194 0.77057 0.54886 0.0
C59 C 0.22231 0.77975 0.60186 0.0
C60 C 0.28551 0.77058 0.60534 0.0
C61 C 0.2826 0.76126 0.55252 0.0
C62 C 0.25971 0.79124 0.68587 0.0
C63 C 0.26049 0.70946 0.84448 0.0
C64 C 0.16839 0.7268 0.77697 0.0
C65 C 0.18601 0.74322 0.03202 0.0
C66 C 0.20714 0.74039 0.1402 0.0
C67 C 0.23207 0.73622 0.10291 0.0
C68 C 0.22162 0.73772 0.04931 0.0
C69 C 0.16116 0.74767 0.06894 0.0
C70 C 0.17158 0.74632 0.12248 0.0
C71 C 0.17423 0.74453 0.97587 0.0
H72 H 0.1935 0.7705 0.52785 0.0
H73 H 0.1986 0.78686 0.62016 0.0
H74 H 0.31141 0.77084 0.62642 0.0
H75 H 0.30642 0.75473 0.53412 0.0
H76 H 0.25973 0.73208 0.11516 0.0
H77 H 0.24129 0.73454 0.02139 0.0
H78 H 0.13356 0.75199 0.05633 0.0
H79 H 0.15163 0.74925 0.15 0.0
Dy80 Dy 0.50079 0.02197 0.93952 0.0
Dy81 Dy 0.53343 0.99349 0.05749 0.0
C82 C 0.47206 0.95374 0.99232 0.0
O83 O 0.45901 0.03571 0.99199 0.0
O84 O 0.49072 0.03225 0.07293 0.0
O85 O 0.46183 0.02198 0.87314 0.0
O86 O 0.50869 0.05389 0.87162 0.0
O87 O 0.56595 0.03458 0.02373 0.0
O88 O 0.52105 0.06746 0.98754 0.0
O89 O 0.55972 0.95998 0.99955 0.0
O90 O 0.55375 -0.00108 0.93095 0.0
O91 O 0.56315 0.00847 0.12923 0.0
O92 O 0.54537 0.9549 0.11858 0.0
C93 C 0.46238 0.04143 0.04273 0.0
O94 O 0.48449 0.96625 0.94964 0.0
O95 O 0.48293 0.96557 0.03877 0.0
C96 C 0.48597 0.02961 0.79045 0.0
C97 C 0.49543 0.00839 0.68637 0.0
C98 C 0.47412 0.98888 0.71817 0.0
C99 C 0.46946 -0.00069 0.76948 0.0
C100 C 0.50694 0.04934 0.75861 0.0
C101 C 0.5117 0.03885 0.70735 0.0
C102 C 0.48097 0.04146 0.8446 0.0
C103 C 0.55176 0.06543 1.01444 0.0
C104 C 0.56784 0.97056 0.95307 0.0
C105 C 0.54931 0.97798 0.20589 0.0
C106 C 0.53364 0.97646 0.31227 0.0
C107 C 0.55654 0.00182 0.29427 0.0
C108 C 0.56438 0.00246 0.24186 0.0
C109 C 0.52591 0.95299 0.22357 0.0
C110 C 0.51817 0.95226 0.27606 0.0
C111 C 0.55976 0.97793 0.15124 0.0
H112 H 0.4606 0.96564 0.70327 0.0
H113 H 0.45282 0.98361 0.79256 0.0
H114 H 0.51981 0.07296 0.77344 0.0
H115 H 0.52862 0.05438 0.68449 0.0
H116 H 0.5693 0.02058 0.32104 0.0
H117 H 0.58278 0.02183 0.22962 0.0
H118 H 0.51382 0.9337 0.19706 0.0
H119 H 0.50007 0.93263 0.28832 0.0
Dy120 Dy 0.23761 0.25615 0.18725 0.0
Dy121 Dy 0.28277 0.24433 0.3059 0.0
C122 C 0.2983 0.19703 0.208 0.0
O123 O 0.20109 0.22511 0.23392 0.0
O124 O 0.23993 0.20407 0.30134 0.0
O125 O 0.20597 0.23604 0.12014 0.0
O126 O 0.22454 0.28938 0.11949 0.0
O127 O 0.23272 0.27179 0.31857 0.0
O128 O 0.21702 0.29792 0.23897 0.0
O129 O 0.30795 0.2893 0.26653 0.0
O130 O 0.29213 0.27625 0.18068 0.0
O131 O 0.30513 0.26886 0.37665 0.0
O132 O 0.30814 0.21248 0.36876 0.0
C133 C 0.2089 0.20409 0.27427 0.0
O134 O 0.26702 0.20564 0.18591 0.0
O135 O 0.31252 0.2131 0.24983 0.0
C136 C 0.2206 0.25887 0.03856 0.0
C137 C 0.24001 0.24625 0.93541 0.0
C138 C 0.26091 0.23355 0.97954 0.0
C139 C 0.25134 0.23979 0.03041 0.0
C140 C 0.20009 0.27228 0.99492 0.0
C141 C 0.20969 0.26614 0.94397 0.0
C142 C 0.20926 0.26419 0.09204 0.0
C143 C 0.21406 0.29461 0.28955 0.0
C144 C 0.31217 0.29285 0.21638 0.0
C145 C 0.30437 0.23513 0.45497 0.0
C146 C 0.29027 0.22898 0.56198 0.0
C147 C 0.26694 0.24744 0.52601 0.0
C148 C 0.27385 0.25038 0.47308 0.0
C149 C 0.3276 0.21681 0.4907 0.0
C150 C 0.3207 0.21376 0.54336 0.0
C151 C 0.31353 0.2392 0.39998 0.0
H152 H 0.28476 0.21866 0.97482 0.0
H153 H 0.26777 0.22936 0.06341 0.0
H154 H 0.17627 0.2871 1.00019 0.0
H155 H 0.19274 0.27611 0.91124 0.0
H156 H 0.2431 0.25922 0.5386 0.0
H157 H 0.25541 0.2647 0.44639 0.0
H158 H 0.35145 0.20509 0.47796 0.0
H159 H 0.33963 0.19983 0.56972 0.0
Dy160 Dy 0.75365 0.24991 0.26523 0.0
Dy161 Dy 0.71019 0.25382 0.37453 0.0
C162 C 0.69306 0.3049 0.27751 0.0
O163 O 0.77997 0.29162 0.31564 0.0
O164 O 0.76453 0.27271 0.3959 0.0
O165 O 0.77271 0.27606 0.19822 0.0
O166 O 0.77921 0.21989 0.20735 0.0
O167 O 0.74329 0.20513 0.37999 0.0
O168 O 0.78627 0.21895 0.32485 0.0
O169 O 0.6724 0.23271 0.31089 0.0
O170 O 0.71446 0.20684 0.26467 0.0
O171 O 0.6785 0.22975 0.43098 0.0
O172 O 0.69417 0.28396 0.44001 0.0
C173 C 0.78418 0.29172 0.36711 0.0
O174 O 0.70443 0.28059 0.24715 0.0
O175 O 0.69906 0.3032 0.32861 0.0
C176 C 0.77216 0.24194 0.12022 0.0
C177 C 0.75581 0.23231 1.01122 0.0
C178 C 0.7354 0.25506 0.03985 0.0
C179 C 0.7434 0.25974 0.09384 0.0
C180 C 0.79253 0.21941 0.09169 0.0
C181 C 0.78449 0.21462 0.03801 0.0
C182 C 0.78227 0.24692 0.17682 0.0
C183 C 0.77463 0.20014 0.36281 0.0
C184 C 0.68147 0.2105 0.27529 0.0
C185 C 0.68928 0.25123 0.51767 0.0
C186 C 0.7063 0.2394 0.62609 0.0
C187 C 0.72583 0.22311 0.58841 0.0
C188 C 0.71748 0.22904 0.53484 0.0
C189 C 0.67012 0.26797 0.555 0.0
C190 C 0.67856 0.26221 0.6086 0.0
C191 C 0.67952 0.25722 0.46125 0.0
H192 H 0.71295 0.26887 0.02069 0.0
H193 H 0.72713 0.27727 0.11484 0.0
H194 H 0.81496 0.20559 0.11096 0.0
H195 H 0.80117 0.19733 1.01731 0.0
H196 H 0.74771 0.20581 0.60033 0.0
H197 H 0.73295 0.21616 0.50682 0.0
H198 H 0.64834 0.28531 0.54264 0.0
H199 H 0.66276 0.27497 0.6363 0.0
Dy200 Dy 0.72981 0.75263 0.67885 0.0
Dy201 Dy 0.77252 0.74232 0.7973 0.0
C202 C 0.78957 0.69448 0.70149 0.0
O203 O 0.68965 0.73356 0.73203 0.0
O204 O 0.72838 0.70358 0.78937 0.0
O205 O 0.69694 0.73112 0.6141 0.0
O206 O 0.71677 0.78393 0.6091 0.0
O207 O 0.7266 0.77762 0.80798 0.0
O208 O 0.71806 0.8004 0.72483 0.0
O209 O 0.79985 0.78559 0.75705 0.0
O210 O 0.78478 0.77153 0.67123 0.0
O211 O 0.79632 0.76492 0.86872 0.0
O212 O 0.79456 0.70855 0.86014 0.0
C213 C 0.69605 0.71019 0.76955 0.0
O214 O 0.75708 0.70081 0.68227 0.0
O215 O 0.80377 0.71206 0.74181 0.0
C216 C 0.71027 0.75151 0.53003 0.0
C217 C 0.72596 0.73787 0.42555 0.0
C218 C 0.7398 0.7164 0.46723 0.0
C219 C 0.73215 0.72319 0.51882 0.0
C220 C 0.69706 0.77342 0.48882 0.0
C221 C 0.70486 0.76677 0.43722 0.0
C222 C 0.70052 0.7583 0.58399 0.0
C223 C 0.71387 0.80191 0.7752 0.0
C224 C 0.80439 0.7888 0.70685 0.0
C225 C 0.79097 0.73107 0.94627 0.0
C226 C 0.77387 0.72406 0.05172 0.0
C227 C 0.75981 0.75182 0.02007 0.0
C228 C 0.76815 0.75523 0.96791 0.0
C229 C 0.80505 0.70349 0.97785 0.0
C230 C 0.7966 0.69997 0.02974 0.0
C231 C 0.80159 0.73467 0.89193 0.0
H232 H 0.75661 0.69425 0.45999 0.0
H233 H 0.74308 0.7061 0.54987 0.0
H234 H 0.68022 0.79549 0.49645 0.0
H235 H 0.69351 0.78372 0.40628 0.0
H236 H 0.74196 0.77066 0.03537 0.0
H237 H 0.75678 0.77681 0.94464 0.0
H238 H 0.82292 0.68468 0.96244 0.0
H239 H 0.80839 0.67855 0.05294 0.0
Dy240 Dy 0.50176 0.53475 0.06479 0.0
Dy241 Dy 0.50811 0.48725 0.95423 0.0
C242 C 0.56158 0.47736 0.05491 0.0
O243 O 0.51906 0.57252 1.00461 0.0
O244 O 0.54636 0.53185 0.9553 0.0
O245 O 0.52584 0.56557 0.12902 0.0
O246 O 0.47063 0.55187 0.12716 0.0
O247 O 0.47096 0.53126 0.93492 0.0
O248 O 0.45114 0.5428 1.0153 0.0
O249 O 0.47031 0.4576 1.00221 0.0
O250 O 0.48878 0.47965 0.0833 0.0
O251 O 0.48311 0.4618 0.88569 0.0
O252 O 0.53993 0.46583 0.89522 0.0
C253 C 0.54091 0.56449 0.96904 0.0
O254 O 0.55507 0.5102 0.06587 0.0
O255 O 0.54321 0.46087 1.01689 0.0
C256 C 0.50078 0.55959 0.21145 0.0
C257 C 0.50691 0.54982 0.32214 0.0
C258 C 0.51935 0.52407 0.28868 0.0
C259 C 0.5164 0.52895 0.23388 0.0
C260 C 0.48768 0.58474 0.24462 0.0
C261 C 0.49065 0.57997 0.29897 0.0
C262 C 0.49728 0.56628 0.15402 0.0
C263 C 0.4474 0.54435 0.96398 0.0
C264 C 0.47161 0.45628 0.05385 0.0
C265 C 0.5127 0.47059 0.80842 0.0
C266 C 0.51364 0.49473 0.70303 0.0
C267 C 0.50093 0.5162 0.74219 0.0
C268 C 0.50057 0.50436 0.79406 0.0
C269 C 0.525 0.44887 0.7696 0.0
C270 C 0.52542 0.46072 0.7176 0.0
C271 C 0.51257 0.4579 0.86344 0.0
H272 H 0.53212 0.50059 0.30488 0.0
H273 H 0.52655 0.50899 0.20913 0.0
H274 H 0.47517 0.60838 0.22841 0.0
H275 H 0.48006 0.6001 0.32297 0.0
H276 H 0.49099 0.54229 0.7328 0.0
H277 H 0.4908 0.52167 0.82304 0.0
H278 H 0.53453 0.42271 0.77958 0.0
H279 H 0.53575 0.44345 0.68909 0.0
Dy280 Dy 0.00848 0.52289 0.44409 0.0
Dy281 Dy 0.02868 0.49335 0.56455 0.0
C282 C 0.96926 0.4575 0.48899 0.0
O283 O 0.96407 0.54042 0.49008 0.0
O284 O 0.98924 0.53599 0.57495 0.0
O285 O 0.97214 0.53124 0.37617 0.0
O286 O 0.0253 0.55211 0.3784 0.0
O287 O 0.06931 0.52971 0.53898 0.0
O288 O 0.03123 0.56598 0.49401 0.0
O289 O 0.05247 0.45522 0.5122 0.0
O290 O 0.05624 0.48871 0.43833 0.0
O291 O 0.05739 0.50294 0.63884 0.0
O292 O 0.03117 0.45315 0.62456 0.0
C293 C 0.96399 0.54695 0.54047 0.0
O294 O 0.98438 0.46994 0.44855 0.0
O295 O 0.97749 0.46892 0.53669 0.0
C296 C 0.99966 0.53303 0.29709 0.0
C297 C 0.00853 0.50818 0.19568 0.0
C298 C 0.00332 0.48462 0.23665 0.0
C299 C 0.99908 0.49693 0.28698 0.0
C300 C 0.00482 0.5566 0.25655 0.0
C301 C 0.00928 0.54432 0.20631 0.0
C302 C 0.99586 0.54642 0.34989 0.0
C303 C 0.0594 0.56156 0.52606 0.0
C304 C 0.06428 0.46036 0.46611 0.0
C305 C 0.03842 0.47281 0.71284 0.0
C306 C 0.02819 0.46993 0.82053 0.0
C307 C 0.03378 0.5022 0.79599 0.0
C308 C 0.03889 0.50364 0.74271 0.0
C309 C 0.03157 0.44077 0.73691 0.0
C310 C 0.02637 0.43934 0.79012 0.0
C311 C 0.04885 0.47296 0.65864 0.0
H312 H 0.0022 0.45666 0.22979 0.0
H313 H 0.99537 0.47829 0.31797 0.0
H314 H 0.00569 0.58453 0.26387 0.0
H315 H 0.01391 0.56318 0.17602 0.0
H316 H 0.03574 0.52621 0.81835 0.0
H317 H 0.04439 0.52876 0.72547 0.0
H318 H 0.03131 0.4166 0.71489 0.0
H319 H 0.02158 0.41415 0.80766 0.0
H320 H 0.11239 0.07871 0.4705 0.0
H321 H 0.04141 0.04947 0.33704 0.0
H322 H 0.07125 0.09072 0.28136 0.0
H323 H 0.12107 0.17108 0.43649 0.0
H324 H 0.16747 0.17279 0.45746 0.0
H325 H 0.13923 0.14253 0.48809 0.0
H326 H 0.18 0.09107 0.46582 0.0
H327 H 0.20831 0.12119 0.43513 0.0
H328 H 0.18968 0.0844 0.39896 0.0
H329 H 0.10816 0.13543 0.23983 0.0
H330 H 0.15283 0.17743 0.21374 0.0
H331 H 0.20297 0.17543 0.37184 0.0
C332 C 0.10302 0.08132 0.42968 0.0
C333 C 0.07449 0.06092 0.40808 0.0
C334 C 0.06332 0.06464 0.35431 0.0
C335 C 0.07999 0.08817 0.3224 0.0
C336 C 0.10821 0.10764 0.34454 0.0
C337 C 0.11994 0.10431 0.3968 0.0
C338 C 0.15214 0.12707 0.40975 0.0
C339 C 0.14451 0.15503 0.45036 0.0
C340 C 0.18444 0.10458 0.42851 0.0
C341 C 0.15659 0.14355 0.35669 0.0
C342 C 0.13063 0.13232 0.31985 0.0
C343 C 0.12873 0.14431 0.26829 0.0
C344 C 0.15418 0.16824 0.25383 0.0
C345 C 0.18156 0.17955 0.29052 0.0
C346 C 0.18261 0.16699 0.34268 0.0
H347 H 0.12301 0.94064 0.56804 0.0
H348 H 0.02569 0.88139 0.54656 0.0
H349 H 0.04256 0.84822 0.62729 0.0
H350 H 0.17792 0.86721 0.6176 0.0
H351 H 0.20441 0.89427 0.66265 0.0
H352 H 0.18445 0.9128 0.60268 0.0
H353 H 0.15461 0.96044 0.65633 0.0
H354 H 0.17362 0.94138 0.71657 0.0
H355 H 0.12648 0.94735 0.7061 0.0
H356 H 0.06823 0.82382 0.71243 0.0
H357 H 0.106 0.80191 0.78814 0.0
H358 H 0.18782 0.87529 0.75268 0.0
C359 C 0.10558 0.92026 0.57991 0.0
C360 C 0.07312 0.91357 0.55106 0.0
C361 C 0.05088 0.88677 0.56776 0.0
C362 C 0.06001 0.86805 0.61391 0.0
C363 C 0.09164 0.87614 0.64239 0.0
C364 C 0.1145 0.90095 0.62545 0.0
C365 C 0.14745 0.90369 0.66245 0.0
C366 C 0.1805 0.8939 0.63469 0.0
C367 C 0.15071 0.9404 0.6868 0.0
C368 C 0.13954 0.87644 0.70275 0.0
C369 C 0.10693 0.86133 0.6909 0.0
C370 C 0.09389 0.83532 0.72207 0.0
C371 C 0.11548 0.82326 0.76527 0.0
C372 C 0.14994 0.83682 0.77621 0.0
C373 C 0.16158 0.8645 0.74539 0.0
H374 H 0.32692 0.83453 0.84149 0.0
H375 H 0.28097 0.81847 0.98914 0.0
H376 H 0.32952 0.85269 0.03413 0.0
H377 H 0.41839 0.82891 0.89093 0.0
H378 H 0.43204 0.86275 0.84788 0.0
H379 H 0.39456 0.83584 0.82806 0.0
H380 H 0.35556 0.89141 0.81245 0.0
H381 H 0.39292 0.91848 0.83198 0.0
H382 H 0.35288 0.92255 0.86463 0.0
H383 H 0.38284 0.88938 0.06221 0.0
H384 H 0.4344 0.92851 0.07079 0.0
H385 H 0.44407 0.92086 0.90374 0.0
C386 C 0.3271 0.83789 0.88339 0.0
C387 C 0.30026 0.82367 0.91191 0.0
C388 C 0.30126 0.82918 0.96653 0.0
C389 C 0.32879 0.84841 0.99241 0.0
C390 C 0.35487 0.86197 0.96296 0.0
C391 C 0.35408 0.85711 0.9096 0.0
C392 C 0.38431 0.87556 0.8864 0.0
C393 C 0.40877 0.84918 0.86189 0.0
C394 C 0.37059 0.90367 0.84653 0.0
C395 C 0.40223 0.89185 0.93503 0.0
C396 C 0.38508 0.88347 0.97887 0.0
C397 C 0.39652 0.89603 0.02818 0.0
C398 C 0.4259 0.91818 0.03261 0.0
C399 C 0.44333 0.92774 0.98791 0.0
C400 C 0.43146 0.91398 0.93868 0.0
H401 H 0.46537 0.08598 0.12727 0.0
H402 H 0.39295 0.03734 1.00989 0.0
H403 H 0.34317 0.06872 0.04458 0.0
H404 H 0.40541 0.08784 0.23324 0.0
H405 H 0.42004 0.13033 0.25612 0.0
H406 H 0.44998 0.10166 0.22552 0.0
H407 H 0.46117 0.15022 0.15818 0.0
H408 H 0.43131 0.17901 0.18854 0.0
H409 H 0.42421 0.16958 0.11974 0.0
H410 H 0.30205 0.10667 0.0875 0.0
H411 H 0.27096 0.15136 0.13467 0.0
H412 H 0.36906 0.17808 0.22444 0.0
C413 C 0.43891 0.08153 0.10963 0.0
C414 C 0.43288 0.05908 0.06612 0.0
C415 C 0.39809 0.05447 0.04317 0.0
C416 C 0.36964 0.07203 0.06275 0.0
C417 C 0.37642 0.09431 0.10514 0.0
C418 C 0.4101 0.09933 0.12833 0.0
C419 C 0.41006 0.12673 0.17112 0.0
C420 C 0.42208 0.11067 0.22468 0.0
C421 C 0.43305 0.15825 0.15863 0.0
C422 C 0.37114 0.13655 0.16775 0.0
C423 C 0.35236 0.11713 0.12969 0.0
C424 C 0.31636 0.12192 0.11764 0.0
C425 C 0.29896 0.14754 0.1447 0.0
C426 C 0.31749 0.16836 0.18342 0.0
C427 C 0.35407 0.16241 0.19549 0.0
H428 H 0.91867 0.89504 0.50652 0.0
H429 H 0.96567 0.94884 0.64381 0.0
H430 H 0.93022 0.91403 0.6997 0.0
H431 H 0.83034 0.88948 0.55232 0.0
H432 H 0.82155 0.84645 0.52584 0.0
H433 H 0.85095 0.87544 0.49506 0.0
H434 H 0.90003 0.82801 0.5042 0.0
H435 H 0.87081 0.79896 0.53523 0.0
H436 H 0.91317 0.80977 0.56776 0.0
H437 H 0.89108 0.8737 0.74238 0.0
H438 H 0.84758 0.83111 0.76905 0.0
H439 H 0.82306 0.80265 0.60638 0.0
C440 C 0.92133 0.89955 0.54827 0.0
C441 C 0.94562 0.92455 0.57045 0.0
C442 C 0.94805 0.92954 0.62545 0.0
C443 C 0.9278 0.90993 0.65786 0.0
C444 C 0.90469 0.88528 0.63515 0.0
C445 C 0.90098 0.88003 0.5817 0.0
C446 C 0.87363 0.85177 0.5682 0.0
C447 C 0.84225 0.86668 0.53328 0.0
C448 C 0.89042 0.82026 0.54231 0.0
C449 C 0.86279 0.84226 0.62234 0.0
C450 C 0.88128 0.86194 0.66021 0.0
C451 C 0.87631 0.85812 0.71311 0.0
C452 C 0.85151 0.83373 0.72791 0.0
C453 C 0.83172 0.81337 0.69005 0.0
C454 C 0.83769 0.81771 0.63645 0.0
H455 H 0.94158 0.07316 0.39179 0.0
H456 H 0.91554 0.05047 0.54994 0.0
H457 H 0.86343 0.08958 0.53707 0.0
H458 H 0.91753 0.16444 0.39291 0.0
H459 H 0.90046 0.16484 0.32529 0.0
H460 H 0.93526 0.13474 0.34714 0.0
H461 H 0.89713 0.08284 0.3107 0.0
H462 H 0.86213 0.11276 0.28902 0.0
H463 H 0.85349 0.07688 0.33193 0.0
H464 H 0.81302 0.12954 0.50538 0.0
H465 H 0.77101 0.17136 0.4601 0.0
H466 H 0.83205 0.16931 0.32434 0.0
C467 C 0.92491 0.07638 0.42373 0.0
C468 C 0.9324 0.05871 0.47176 0.0
C469 C 0.91026 0.06391 0.51286 0.0
C470 C 0.88056 0.0859 0.50584 0.0
C471 C 0.87375 0.10269 0.45775 0.0
C472 C 0.89554 0.09851 0.41765 0.0
C473 C 0.88301 0.1202 0.37029 0.0
C474 C 0.91071 0.14769 0.35823 0.0
C475 C 0.87336 0.09676 0.32269 0.0
C476 C 0.8506 0.13712 0.38985 0.0
C477 C 0.84548 0.12648 0.44019 0.0
C478 C 0.81685 0.13821 0.46606 0.0
C479 C 0.79307 0.16181 0.43996 0.0
C480 C 0.79839 0.17364 0.38883 0.0
C481 C 0.82745 0.16092 0.36356 0.0
H482 H 0.69135 0.15231 0.21798 0.0
H483 H 0.61117 0.22746 0.25502 0.0
H484 H 0.56906 0.20054 0.18801 0.0
H485 H 0.67137 0.15157 0.08183 0.0
H486 H 0.67963 0.10536 0.07492 0.0
H487 H 0.70252 0.12934 0.12747 0.0
H488 H 0.67952 0.08644 0.19558 0.0
H489 H 0.65733 0.06182 0.14313 0.0
H490 H 0.63278 0.0784 0.19501 0.0
H491 H 0.53678 0.16599 0.11326 0.0
H492 H 0.51561 0.1233 0.04541 0.0
H493 H 0.6184 0.07265 0.05879 0.0
C494 C 0.66481 0.16293 0.21253 0.0
C495 C 0.65445 0.19191 0.24163 0.0
C496 C 0.61948 0.20498 0.23343 0.0
C497 C 0.59555 0.19008 0.19517 0.0
C498 C 0.6071 0.16214 0.16593 0.0
C499 C 0.64079 0.14845 0.17491 0.0
C500 C 0.64706 0.11836 0.13881 0.0
C501 C 0.67691 0.12668 0.10369 0.0
C502 C 0.6546 0.08424 0.17 0.0
C503 C 0.61169 0.11725 0.10766 0.0
C504 C 0.58891 0.14272 0.12347 0.0
C505 C 0.55447 0.14603 0.10055 0.0
C506 C 0.54279 0.12193 0.06169 0.0
C507 C 0.56552 0.09491 0.04668 0.0
C508 C 0.60054 0.0932 0.06925 0.0
H509 H 0.68581 0.80743 0.87072 0.0
H510 H 0.69621 0.86347 0.72517 0.0
H511 H 0.66278 0.91309 0.75775 0.0
H512 H 0.59698 0.83492 0.88607 0.0
H513 H 0.6032 0.83888 0.95617 0.0
H514 H 0.62949 0.80814 0.92282 0.0
H515 H 0.68652 0.83682 0.96476 0.0
H516 H 0.66039 0.86774 0.99816 0.0
H517 H 0.69309 0.88318 0.95659 0.0
H518 H 0.62844 0.95598 0.80421 0.0
H519 H 0.59145 0.98947 0.85985 0.0
H520 H 0.60056 0.90613 0.97628 0.0
C521 C 0.68126 0.83025 0.84586 0.0
C522 C 0.6938 0.8316 0.79537 0.0
C523 C 0.68689 0.86176 0.76386 0.0
C524 C 0.66804 0.89017 0.78212 0.0
C525 C 0.65609 0.88801 0.83189 0.0
C526 C 0.66214 0.85884 0.86332 0.0
C527 C 0.64496 0.86297 0.91444 0.0
C528 C 0.61699 0.83454 0.92019 0.0
C529 C 0.67291 0.86266 0.96126 0.0
C530 C 0.62809 0.89897 0.90651 0.0
C531 C 0.6353 0.91286 0.85874 0.0
C532 C 0.62261 0.94545 0.84173 0.0
C533 C 0.60151 0.96428 0.87391 0.0
C534 C 0.59288 0.95056 0.92276 0.0
C535 C 0.60675 0.91749 0.93944 0.0
H536 H 0.60567 0.56047 0.93022 0.0
H537 H 0.51772 0.63139 0.94566 0.0
H538 H 0.54648 0.67583 0.89283 0.0
H539 H 0.67343 0.62728 0.94224 0.0
H540 H 0.70013 0.60614 0.89656 0.0
H541 H 0.67214 0.58035 0.93488 0.0
H542 H 0.64219 0.55364 0.84988 0.0
H543 H 0.66976 0.5797 0.81125 0.0
H544 H 0.6224 0.58229 0.79959 0.0
H545 H 0.58406 0.71119 0.83306 0.0
H546 H 0.63054 0.73737 0.78299 0.0
H547 H 0.69541 0.64459 0.81276 0.0
C548 C 0.59254 0.58545 0.92273 0.0
C549 C 0.55939 0.59249 0.94191 0.0
C550 C 0.54322 0.62556 0.93166 0.0
C551 C 0.55925 0.65083 0.90135 0.0
C552 C 0.59174 0.64282 0.88234 0.0
C553 C 0.60849 0.61114 0.89359 0.0
C554 C 0.64386 0.60933 0.87037 0.0
C555 C 0.67418 0.60557 0.91359 0.0
C556 C 0.64457 0.57947 0.8304 0.0
C557 C 0.6444 0.64482 0.84386 0.0
C558 C 0.61389 0.6636 0.85044 0.0
C559 C 0.60813 0.69676 0.82808 0.0
C560 C 0.63453 0.71131 0.79933 0.0
C561 C 0.66653 0.693 0.79396 0.0
C562 C 0.67125 0.65924 0.81633 0.0
H563 H 0.65795 0.30775 0.18063 0.0
H564 H 0.68621 0.3704 0.31839 0.0
H565 H 0.65864 0.42236 0.27359 0.0
H566 H 0.6724 0.37295 0.08443 0.0
H567 H 0.63489 0.36048 0.04108 0.0
H568 H 0.65715 0.3283 0.08362 0.0
H569 H 0.5982 0.31353 0.12285 0.0
H570 H 0.57571 0.34531 0.07994 0.0
H571 H 0.57287 0.34821 0.14954 0.0
H572 H 0.62984 0.46732 0.21323 0.0
H573 H 0.59518 0.50147 0.14571 0.0
H574 H 0.58358 0.40881 0.04803 0.0
C575 C 0.6583 0.33241 0.20141 0.0
C576 C 0.67432 0.33525 0.25283 0.0
C577 C 0.67391 0.36775 0.27904 0.0
C578 C 0.65858 0.39738 0.2538 0.0
C579 C 0.64355 0.3938 0.20273 0.0
C580 C 0.64276 0.36204 0.17712 0.0
C581 C 0.62367 0.36492 0.12314 0.0
C582 C 0.64852 0.35615 0.08056 0.0
C583 C 0.59066 0.34162 0.11863 0.0
C584 C 0.6139 0.40339 0.12228 0.0
C585 C 0.62601 0.41958 0.16835 0.0
C586 C 0.62015 0.45496 0.17703 0.0
C587 C 0.60054 0.47415 0.13817 0.0
C588 C 0.58664 0.45784 0.09138 0.0
C589 C 0.59397 0.42209 0.08315 0.0
H590 H 0.93881 0.43313 0.39544 0.0
H591 H 0.93803 0.42021 0.56364 0.0
H592 H 0.8919 0.37531 0.55002 0.0
H593 H 0.84587 0.42484 0.36623 0.0
H594 H 0.84948 0.40111 0.30632 0.0
H595 H 0.88353 0.43135 0.32896 0.0
H596 H 0.93048 0.38209 0.32629 0.0
H597 H 0.89659 0.35166 0.3036 0.0
H598 H 0.92492 0.34187 0.36164 0.0
H599 H 0.84554 0.33306 0.51893 0.0
H600 H 0.8006 0.29618 0.47239 0.0
H601 H 0.83064 0.33655 0.32381 0.0
C602 C 0.92913 0.42071 0.42944 0.0
C603 C 0.94209 0.43015 0.48064 0.0
C604 C 0.9285 0.41346 0.52405 0.0
C605 C 0.90235 0.38787 0.51675 0.0
C606 C 0.89007 0.37931 0.46583 0.0
C607 C 0.90291 0.39519 0.42289 0.0
C608 C 0.88443 0.38176 0.37238 0.0
C609 C 0.86465 0.41154 0.34168 0.0
C610 C 0.91068 0.36324 0.33902 0.0
C611 C 0.85904 0.35599 0.39377 0.0
C612 C 0.86292 0.35494 0.44776 0.0
C613 C 0.84226 0.33355 0.47666 0.0
C614 C 0.81675 0.3127 0.44971 0.0
C615 C 0.81201 0.31342 0.39431 0.0
C616 C 0.83363 0.33532 0.3661 0.0
H617 H 0.85914 0.67314 0.72488 0.0
H618 H 0.76737 0.65675 0.61527 0.0
H619 H 0.80188 0.61704 0.56435 0.0
H620 H 0.9231 0.67318 0.63091 0.0
H621 H 0.95642 0.6495 0.67099 0.0
H622 H 0.92446 0.67599 0.70114 0.0
H623 H 0.90608 0.6223 0.75444 0.0
H624 H 0.93817 0.59569 0.72467 0.0
H625 H 0.89251 0.58266 0.72072 0.0
H626 H 0.84622 0.58251 0.52142 0.0
H627 H 0.89774 0.55107 0.49211 0.0
H628 H 0.96128 0.58647 0.63002 0.0
C629 C 0.84622 0.66084 0.69056 0.0
C630 C 0.81044 0.66826 0.67426 0.0
C631 C 0.79465 0.65169 0.62884 0.0
C632 C 0.81405 0.62901 0.59944 0.0
C633 C 0.84924 0.62269 0.61599 0.0
C634 C 0.86522 0.63769 0.66072 0.0
C635 C 0.90369 0.62641 0.66908 0.0
C636 C 0.92837 0.65816 0.66795 0.0
C637 C 0.9105 0.60552 0.72027 0.0
C638 C 0.90672 0.60316 0.62173 0.0
C639 C 0.87494 0.60163 0.59163 0.0
C640 C 0.87119 0.58316 0.54487 0.0
C641 C 0.90068 0.56554 0.52842 0.0
C642 C 0.93347 0.56619 0.55883 0.0
C643 C 0.93643 0.58518 0.60626 0.0
H644 H 0.31918 0.32095 0.11838 0.0
H645 H 0.37014 0.31641 0.27598 0.0
H646 H 0.41821 0.35362 0.24842 0.0
H647 H 0.39936 0.32076 0.04901 0.0
H648 H 0.38225 0.35165 0.9999 0.0
H649 H 0.35257 0.32293 0.03069 0.0
H650 H 0.31654 0.37644 0.05844 0.0
H651 H 0.34593 0.4053 0.02751 0.0
H652 H 0.3387 0.41106 0.09549 0.0
H653 H 0.45997 0.39168 0.20535 0.0
H654 H 0.49103 0.43273 0.15166 0.0
H655 H 0.41317 0.41544 0.02092 0.0
C656 C 0.34061 0.32756 0.14701 0.0
C657 C 0.34092 0.31553 0.19946 0.0
C658 C 0.3692 0.32525 0.23575 0.0
C659 C 0.39677 0.34624 0.22035 0.0
C660 C 0.39567 0.35759 0.16852 0.0
C661 C 0.36823 0.34892 0.13241 0.0
C662 C 0.37269 0.36635 0.07988 0.0
C663 C 0.37697 0.33877 0.03735 0.0
C664 C 0.34162 0.39127 0.06444 0.0
C665 C 0.40678 0.38644 0.09233 0.0
C666 C 0.41963 0.38052 0.14362 0.0
C667 C 0.45016 0.39653 0.16519 0.0
C668 C 0.4676 0.41993 0.13419 0.0
C669 C 0.45456 0.42755 0.08194 0.0
C670 C 0.42404 0.40993 0.06042 0.0
H671 H 0.40068 0.58848 1.00757 0.0
H672 H 0.42567 0.54313 0.85998 0.0
H673 H 0.37753 0.57738 0.814 0.0
H674 H 0.30439 0.59315 0.97764 0.0
H675 H 0.30076 0.63458 1.01027 0.0
H676 H 0.33511 0.60401 0.03239 0.0
H677 H 0.3822 0.65182 0.02158 0.0
H678 H 0.34804 0.68244 0.99932 0.0
H679 H 0.38381 0.67345 0.95926 0.0
H680 H 0.32973 0.61954 0.78304 0.0
H681 H 0.28554 0.66705 0.76957 0.0
H682 H 0.29193 0.68484 0.93717 0.0
C683 C 0.39563 0.58528 0.96574 0.0
C684 C 0.41689 0.56308 0.93744 0.0
C685 C 0.40977 0.56003 0.88255 0.0
C686 C 0.38239 0.57927 0.85602 0.0
C687 C 0.36231 0.60135 0.88493 0.0
C688 C 0.36849 0.60441 0.93856 0.0
C689 C 0.34445 0.63161 0.95988 0.0
C690 C 0.3197 0.61482 0.99725 0.0
C691 C 0.36592 0.6616 0.98656 0.0
C692 C 0.32432 0.64377 0.90973 0.0
C693 C 0.33479 0.62582 0.86698 0.0
C694 C 0.32102 0.63357 0.81624 0.0
C695 C 0.29601 0.66064 0.80898 0.0
C696 C 0.28522 0.67962 0.85227 0.0
C697 C 0.29938 0.67069 0.90324 0.0
H698 H 0.16264 0.65544 0.77041 0.0
H699 H 0.11773 0.75301 0.70819 0.0
H700 H 0.0832 0.72075 0.63867 0.0
H701 H 0.17604 0.61869 0.65174 0.0
H702 H 0.16487 0.57427 0.66748 0.0
H703 H 0.1813 0.6035 0.71854 0.0
H704 H 0.12576 0.59286 0.76863 0.0
H705 H 0.10961 0.56278 0.71837 0.0
H706 H 0.08254 0.59922 0.73537 0.0
H707 H 0.05963 0.67969 0.57035 0.0
H708 H 0.04349 0.63079 0.51086 0.0
H709 H 0.10503 0.55946 0.6149 0.0
C710 C 0.14429 0.66965 0.74346 0.0
C711 C 0.14214 0.70651 0.74494 0.0
C712 C 0.11915 0.72466 0.70789 0.0
C713 C 0.09959 0.7066 0.66822 0.0
C714 C 0.10347 0.67041 0.66611 0.0
C715 C 0.12477 0.65194 0.70308 0.0
C716 C 0.12636 0.61346 0.68896 0.0
C717 C 0.16441 0.60182 0.68122 0.0
C718 C 0.11009 0.59075 0.73029 0.0
C719 C 0.10355 0.61355 0.6377 0.0
C720 C 0.09041 0.64662 0.62556 0.0
C721 C 0.06937 0.65354 0.57967 0.0
C722 C 0.06059 0.62565 0.54593 0.0
C723 C 0.073 0.59132 0.55813 0.0
C724 C 0.09523 0.58541 0.6043 0.0
H725 H 0.18659 0.36181 0.26846 0.0
H726 H 0.18064 0.27181 0.37153 0.0
H727 H 0.14106 0.30427 0.4246 0.0
H728 H 0.18842 0.4263 0.36742 0.0
H729 H 0.16071 0.45789 0.33115 0.0
H730 H 0.18658 0.4272 0.29701 0.0
H731 H 0.13015 0.40588 0.24334 0.0
H732 H 0.10411 0.43675 0.27701 0.0
H733 H 0.09318 0.39087 0.27698 0.0
H734 H 0.10715 0.346 0.47119 0.0
H735 H 0.0754 0.39511 0.50689 0.0
H736 H 0.09996 0.46023 0.37535 0.0
C737 C 0.1763 0.34887 0.30157 0.0
C738 C 0.18698 0.31431 0.31599 0.0
C739 C 0.17328 0.29836 0.35998 0.0
C740 C 0.15061 0.31652 0.39041 0.0
C741 C 0.14149 0.35073 0.37644 0.0
C742 C 0.15335 0.36685 0.33289 0.0
C743 C 0.1399 0.4045 0.32861 0.0
C744 C 0.17075 0.4305 0.33121 0.0
C745 C 0.11537 0.4098 0.27851 0.0
C746 C 0.11947 0.40688 0.37713 0.0
C747 C 0.12089 0.37536 0.40376 0.0
C748 C 0.10544 0.37079 0.45051 0.0
C749 C 0.08759 0.39907 0.47064 0.0
C750 C 0.08507 0.43173 0.44411 0.0
C751 C 0.1013 0.43562 0.39655 0.0
H752 H 0.05849 0.01605 0.89572 0.0
H753 H 0.96206 0.97175 0.82185 0.0
H754 H 0.94185 0.95854 0.90859 0.0
H755 H 0.06977 0.95317 1.00061 0.0
H756 H 0.08622 0.98437 0.04906 0.0
H757 H 0.09293 0.99155 0.98119 0.0
H758 H 0.06277 0.05235 0.98471 0.0
H759 H 0.05591 0.04532 0.0526 0.0
H760 H 0.01895 0.05558 1.00646 0.0
H761 H 0.93172 0.94982 1.00284 0.0
H762 H 0.93318 0.94402 0.09846 0.0
H763 H 0.03668 0.99237 0.11387 0.0
C764 C 0.03298 0.00386 0.89783 0.0
C765 C 0.01193 0.99487 0.85157 0.0
C766 C 0.97892 0.97852 0.85635 0.0
C767 C 0.96707 0.97111 0.90559 0.0
C768 C 0.98846 0.98006 0.95021 0.0
C769 C 0.02078 0.99597 0.94697 0.0
C770 C 0.03893 0.00184 1.00136 0.0
C771 C 0.07404 0.98152 1.00846 0.0
C772 C 0.04446 0.04111 1.01189 0.0
C773 C 0.01179 0.98665 0.03553 0.0
C774 C 0.98284 0.97444 1.005 0.0
C775 C 0.95436 0.95912 0.0271 0.0
C776 C 0.95558 0.95572 0.08168 0.0
C777 C 0.9852 0.96729 0.11427 0.0
C778 C 0.01351 0.98339 0.09047 0.0
H779 H 0.20898 0.79302 0.44251 0.0
H780 H 0.28392 0.70818 0.47645 0.0
H781 H 0.28128 0.69374 0.38255 0.0
H782 H 0.15503 0.74834 0.34046 0.0
H783 H 0.14729 0.7873 0.30122 0.0
H784 H 0.15476 0.79071 0.37123 0.0
H785 H 0.20637 0.83351 0.3604 0.0
H786 H 0.19914 0.83015 0.29039 0.0
H787 H 0.24204 0.82034 0.32247 0.0
H788 H 0.27125 0.68903 0.28466 0.0
H789 H 0.2536 0.69366 0.19014 0.0
H790 H 0.1851 0.78149 0.21965 0.0
C791 C 0.22451 0.77113 0.43031 0.0
C792 C 0.24676 0.75181 0.467 0.0
C793 C 0.26705 0.72369 0.44913 0.0
C794 C 0.2656 0.71516 0.39586 0.0
C795 C 0.24369 0.73494 0.36076 0.0
C796 C 0.22342 0.76228 0.37722 0.0
C797 C 0.20239 0.77965 0.33133 0.0
C798 C 0.1625 0.77628 0.33637 0.0
C799 C 0.21314 0.81819 0.32584 0.0
C800 C 0.21398 0.75778 0.28653 0.0
C801 C 0.23785 0.73217 0.30436 0.0
C802 C 0.25258 0.709 0.27026 0.0
C803 C 0.24257 0.712 0.21655 0.0
C804 C 0.218 0.73796 0.19727 0.0
C805 C 0.20363 0.7611 0.23305 0.0
H806 H 0.50081 0.04921 0.59778 0.0
H807 H 0.50306 0.94107 0.65117 0.0
H808 H 0.51161 0.92144 0.56171 0.0
H809 H 0.45501 0.03431 0.47158 0.0
H810 H 0.48032 0.0659 0.43828 0.0
H811 H 0.47365 0.07165 0.50641 0.0
H812 H 0.5413 0.07467 0.52851 0.0
H813 H 0.54817 0.06901 0.46043 0.0
H814 H 0.56894 0.03945 0.50865 0.0
H815 H 0.5203 0.91329 0.46631 0.0
H816 H 0.52984 0.91735 0.37257 0.0
H817 H 0.52308 0.03072 0.38068 0.0
C818 C 0.50336 0.0214 0.5909 0.0
C819 C 0.50095 0.99674 0.63193 0.0
C820 C 0.50407 0.96056 0.62059 0.0
C821 C 0.50919 0.94911 0.56982 0.0
C822 C 0.51131 0.97407 0.53047 0.0
C823 C 0.50862 0.00947 0.54039 0.0
C824 C 0.51219 0.03086 0.49109 0.0
C825 C 0.47827 0.05192 0.47596 0.0
C826 C 0.54458 0.05491 0.49757 0.0
C827 C 0.51743 0.00194 0.45198 0.0
C828 C 0.51668 0.96938 0.47552 0.0
C829 C 0.52083 0.93866 0.44745 0.0
C830 C 0.52599 0.94124 0.39403 0.0
C831 C 0.52708 0.97432 0.36888 0.0
C832 C 0.52269 0.00502 0.39861 0.0
H833 H 0.23494 0.28835 0.8461 0.0
H834 H 0.26522 0.18384 0.90064 0.0
H835 H 0.28021 0.16839 0.812 0.0
H836 H 0.19529 0.26221 0.71869 0.0
H837 H 0.21112 0.29978 0.68505 0.0
H838 H 0.2026 0.30301 0.75291 0.0
H839 H 0.26656 0.32426 0.77583 0.0
H840 H 0.27524 0.32117 0.70804 0.0
H841 H 0.30303 0.29804 0.75716 0.0
H842 H 0.29187 0.16371 0.71739 0.0
H843 H 0.30067 0.17055 0.6239 0.0
H844 H 0.26335 0.27808 0.62858 0.0
C845 C 0.2445 0.26213 0.83939 0.0
C846 C 0.24905 0.23743 0.881 0.0
C847 C 0.26202 0.20354 0.87014 0.0
C848 C 0.27039 0.19437 0.81963 0.0
C849 C 0.2657 0.21927 0.77978 0.0
C850 C 0.25312 0.2525 0.78896 0.0
C851 C 0.25104 0.27437 0.73904 0.0
C852 C 0.21273 0.28549 0.72298 0.0
C853 C 0.27542 0.30635 0.74541 0.0
C854 C 0.26439 0.24824 0.70048 0.0
C855 C 0.27261 0.21661 0.72496 0.0
C856 C 0.28566 0.18843 0.69791 0.0
C857 C 0.29078 0.19267 0.64468 0.0
C858 C 0.28305 0.22493 0.61843 0.0
C859 C 0.26932 0.25296 0.64702 0.0
H860 H 0.73553 0.28116 0.93401 0.0
H861 H 0.75697 0.17023 0.95819 0.0
H862 H 0.74644 0.1603 0.86339 0.0
H863 H 0.66509 0.27075 0.82973 0.0
H864 H 0.67803 0.30853 0.79369 0.0
H865 H 0.68656 0.30702 0.86376 0.0
H866 H 0.75291 0.3182 0.85446 0.0
H867 H 0.74461 0.31961 0.78438 0.0
H868 H 0.7769 0.28944 0.81433 0.0
H869 H 0.73525 0.16227 0.76571 0.0
H870 H 0.72245 0.17579 0.67204 0.0
H871 H 0.70762 0.28536 0.70972 0.0
C872 C 0.73758 0.25471 0.91947 0.0
C873 C 0.74738 0.22651 0.95388 0.0
C874 C 0.75012 0.19239 0.93284 0.0
C875 C 0.74398 0.18642 0.87896 0.0
C876 C 0.73494 0.21477 0.84616 0.0
C877 C 0.73154 0.24824 0.86553 0.0
C878 C 0.72195 0.27413 0.82142 0.0
C879 C 0.68575 0.2911 0.82753 0.0
C880 C 0.75082 0.30199 0.81849 0.0
C881 C 0.7206 0.24999 0.77434 0.0
C882 C 0.72824 0.21587 0.78961 0.0
C883 C 0.72921 0.1889 0.75331 0.0
C884 C 0.72215 0.19691 0.70004 0.0
C885 C 0.71412 0.23166 0.68313 0.0
C886 C 0.7133 0.25847 0.72116 0.0
H887 H 0.74047 0.78308 0.34504 0.0
H888 H 0.72552 0.67307 0.37995 0.0
H889 H 0.73538 0.65808 0.28891 0.0
H890 H 0.69682 0.78212 0.21439 0.0
H891 H 0.72737 0.81199 0.18785 0.0
H892 H 0.71923 0.81437 0.25592 0.0
H893 H 0.78616 0.80725 0.28205 0.0
H894 H 0.79451 0.80494 0.21406 0.0
H895 H 0.80957 0.77019 0.25824 0.0
H896 H 0.74645 0.65469 0.19386 0.0
H897 H 0.75928 0.66301 0.10204 0.0
H898 H 0.76761 0.77513 0.1273 0.0
C899 C 0.73907 0.75584 0.33349 0.0
C900 C 0.73234 0.72925 0.37013 0.0
C901 C 0.73116 0.69392 0.3532 0.0
C902 C 0.73649 0.68513 0.30133 0.0
C903 C 0.74308 0.71189 0.2664 0.0
C904 C 0.7445 0.74654 0.28171 0.0
C905 C 0.75257 0.77013 0.23633 0.0
C906 C 0.72218 0.79619 0.22283 0.0
C907 C 0.78779 0.78925 0.2484 0.0
C908 C 0.75523 0.74334 0.19312 0.0
C909 C 0.74965 0.70992 0.21144 0.0
C910 C 0.75101 0.68075 0.17919 0.0
C911 C 0.75853 0.68575 0.12702 0.0
C912 C 0.76473 0.71969 0.10712 0.0
C913 C 0.76273 0.74886 0.14089 0.0
H914 H 0.50181 0.45944 0.60778 0.0
H915 H 0.53059 0.5612 0.67277 0.0
H916 H 0.53287 0.58496 0.58394 0.0
H917 H 0.55848 0.46406 0.49927 0.0
H918 H 0.52731 0.44236 0.4537 0.0
H919 H 0.52807 0.43268 0.52257 0.0
H920 H 0.46174 0.44865 0.52114 0.0
H921 H 0.46078 0.45835 0.4523 0.0
H922 H 0.44673 0.49098 0.49686 0.0
H923 H 0.53161 0.59858 0.48838 0.0
H924 H 0.52636 0.60132 0.3923 0.0
H925 H 0.49887 0.4911 0.38583 0.0
C926 C 0.50891 0.48665 0.60345 0.0
C927 C 0.51564 0.5084 0.64807 0.0
C928 C 0.52452 0.54397 0.6399 0.0
C929 C 0.52621 0.55774 0.58933 0.0
C930 C 0.51917 0.53577 0.54654 0.0
C931 C 0.51076 0.50095 0.55287 0.0
C932 C 0.50406 0.48331 0.49975 0.0
C933 C 0.53109 0.45385 0.49346 0.0
C934 C 0.46606 0.46951 0.49208 0.0
C935 C 0.50968 0.51376 0.46274 0.0
C936 C 0.5185 0.54368 0.49087 0.0
C937 C 0.52463 0.57531 0.46601 0.0
C938 C 0.52134 0.57663 0.41115 0.0
C939 C 0.51182 0.54659 0.38085 0.0
C940 C 0.50636 0.51456 0.40744 0.0
H941 H 0.99433 0.51503 0.8836 0.0
H942 H 0.05895 0.42078 0.88786 0.0
H943 H 0.05887 0.41887 0.98389 0.0
H944 H 0.03738 0.55413 0.99681 0.0
H945 H 0.99767 0.57276 0.01921 0.0
H946 H 1.00087 0.56555 0.95048 0.0
H947 H 0.94398 0.52817 0.94635 0.0
H948 H 0.94052 0.53538 1.01507 0.0
H949 H 0.9415 0.49136 0.99009 0.0
H950 H 0.05474 0.42909 0.07973 0.0
H951 H 0.04572 0.45006 0.16848 0.0
H952 H 0.98308 0.53714 0.10164 0.0
C953 C 0.00839 0.49393 0.90469 0.0
C954 C 0.02645 0.46793 0.87808 0.0
C955 C 0.04436 0.44064 0.90721 0.0
C956 C 0.04468 0.43945 0.96183 0.0
C957 C 0.02691 0.46568 0.9868 0.0
C958 C 0.00897 0.49233 0.95921 0.0
C959 C 0.99277 0.5178 0.9956 0.0
C960 C 0.0081 0.55474 0.99019 0.0
C961 C 0.95229 0.51818 0.98621 0.0
C962 C 0.00474 0.50149 0.04797 0.0
C963 C 0.02435 0.47143 0.04205 0.0
C964 C 0.03907 0.45238 0.08488 0.0
C965 C 0.03362 0.46441 0.13516 0.0
C966 C 0.01352 0.49517 0.14222 0.0
C967 C 0.99883 0.51373 0.09777 0.0
loop_
_geom_bond_atom_site_label_1
_geom_bond_atom_site_label_2
_geom_bond_distance
_geom_bond_site_symmetry_2
_ccdc_geom_bond_type
Dy0 O3 2.307 . S
Dy0 O5 2.395 . S
Dy0 O6 2.379 1_455 S
Dy0 O8 2.339 1_455 S
Dy0 O10 2.298 1_445 S
Dy0 O14 2.275 1_545 S
Dy0 C22 2.738 1_455 S
Dy1 O4 2.298 1_665 S
Dy1 O7 2.275 1_565 S
Dy1 O9 2.307 . S
Dy1 O11 2.395 . S
Dy1 O12 2.379 1_655 S
Dy1 O15 2.339 1_655 S
Dy1 C31 2.738 1_655 S
C2 O14 1.254 . S
C2 O15 1.257 . S
O3 Dy0 2.307 . S
O3 C13 1.266 . S
O4 Dy1 2.298 1_445 S
O4 C13 1.236 . S
O5 Dy0 2.395 . S
O5 C22 1.255 1_455 S
O6 Dy0 2.379 1_655 S
O6 C22 1.249 . S
O7 Dy1 2.275 1_545 S
O7 C23 1.254 . S
O8 Dy0 2.339 1_655 S
O8 C23 1.257 . S
O9 Dy1 2.307 . S
O9 C24 1.266 . S
O10 Dy0 2.298 1_665 S
O10 C24 1.236 . S
O11 Dy1 2.395 . S
O11 C31 1.255 1_655 S
O12 Dy1 2.379 1_455 S
O12 C31 1.249 . S
C13 O3 1.266 . S
C13 O4 1.236 . S
O14 Dy0 2.275 1_565 S
O14 C2 1.254 . S
O15 Dy1 2.339 1_455 S
O15 C2 1.257 . S
C16 C19 1.351 1_545 S
C16 C20 1.328 . S
C16 C22 1.516 . S
C17 C18 1.304 1_545 S
C17 C21 1.323 . S
C18 C17 1.304 1_565 S
C18 C19 1.377 . S
C18 H32 0.930 1_655 S
C19 C16 1.351 1_565 S
C19 C18 1.377 . S
C19 H33 0.919 1_655 S
C20 C16 1.328 . S
C20 C21 1.433 . S
C20 H34 0.931 . S
C21 C17 1.323 . S
C21 C20 1.433 . S
C21 H35 0.933 . S
C22 Dy0 2.738 1_655 S
C22 O5 1.255 1_655 S
C22 O6 1.249 . S
C22 C16 1.516 . S
C23 O7 1.254 . S
C23 O8 1.257 . S
C24 O9 1.266 . S
C24 O10 1.236 . S
C25 C28 1.344 1_565 S
C25 C29 1.328 . S
C25 C31 1.516 . S
C26 C27 1.304 1_565 S
C26 C30 1.323 . S
C27 C26 1.304 1_545 S
C27 C28 1.371 . S
C27 H36 0.930 1_455 S
C28 C25 1.344 1_545 S
C28 C27 1.371 . S
C28 H37 0.931 1_455 S
C29 C25 1.328 . S
C29 C30 1.433 . S
C29 H38 0.931 . S
C30 C26 1.323 . S
C30 C29 1.433 . S
C30 H39 0.933 . S
C31 Dy1 2.738 1_455 S
C31 O11 1.255 1_455 S
C31 O12 1.249 . S
C31 C25 1.516 . S
H32 C18 0.930 1_455 S
H33 C19 0.919 1_455 S
H34 C20 0.931 . S
H35 C21 0.933 . S
H36 C27 0.930 1_655 S
H37 C28 0.931 1_655 S
H38 C29 0.931 . S
H39 C30 0.933 . S
Dy40 O43 2.307 . S
Dy40 O45 2.395 . S
Dy40 O46 2.379 . S
Dy40 O48 2.339 . S
Dy40 O50 2.298 . S
Dy40 O54 2.275 . S
Dy40 C62 2.738 . S
Dy41 O44 2.298 . S
Dy41 O47 2.275 . S
Dy41 O49 2.307 . S
Dy41 O51 2.395 . S
Dy41 O52 2.379 . S
Dy41 O55 2.339 . S
Dy41 C71 2.738 . S
C42 O54 1.254 . S
C42 O55 1.257 . S
O43 Dy40 2.307 . S
O43 C53 1.266 . S
O44 Dy41 2.298 . S
O44 C53 1.236 . S
O45 Dy40 2.395 . S
O45 C62 1.255 . S
O46 Dy40 2.379 . S
O46 C62 1.249 . S
O47 Dy41 2.275 . S
O47 C63 1.254 . S
O48 Dy40 2.339 . S
O48 C63 1.257 . S
O49 Dy41 2.307 . S
O49 C64 1.266 . S
O50 Dy40 2.298 . S
O50 C64 1.236 . S
O51 Dy41 2.395 . S
O51 C71 1.255 . S
O52 Dy41 2.379 . S
O52 C71 1.249 . S
C53 O43 1.266 . S
C53 O44 1.236 . S
O54 Dy40 2.275 . S
O54 C42 1.254 . S
O55 Dy41 2.339 . S
O55 C42 1.257 . S
C56 C59 1.344 . S
C56 C60 1.328 . S
C56 C62 1.516 . S
C57 C58 1.304 . S
C57 C61 1.323 . S
C58 C57 1.304 . S
C58 C59 1.371 . S
C58 H72 0.930 . S
C59 C56 1.344 . S
C59 C58 1.371 . S
C59 H73 0.931 . S
C60 C56 1.328 . S
C60 C61 1.433 . S
C60 H74 0.931 . S
C61 C57 1.323 . S
C61 C60 1.433 . S
C61 H75 0.933 . S
C62 Dy40 2.738 . S
C62 O45 1.255 . S
C62 O46 1.249 . S
C62 C56 1.516 . S
C63 O47 1.254 . S
C63 O48 1.257 . S
C64 O49 1.266 . S
C64 O50 1.236 . S
C65 C68 1.344 . S
C65 C69 1.328 . S
C65 C71 1.516 . S
C66 C67 1.304 . S
C66 C70 1.323 . S
C67 C66 1.304 . S
C67 C68 1.371 1_554 S
C67 H76 0.930 . S
C68 C65 1.344 . S
C68 C67 1.371 1_556 S
C68 H77 0.931 . S
C69 C65 1.328 . S
C69 C70 1.433 1_556 S
C69 H78 0.931 . S
C70 C66 1.323 . S
C70 C69 1.433 1_554 S
C70 H79 0.933 . S
C71 Dy41 2.738 . S
C71 O51 1.255 . S
C71 O52 1.249 . S
C71 C65 1.516 . S
H72 C58 0.930 . S
H73 C59 0.931 . S
H74 C60 0.931 . S
H75 C61 0.933 . S
H76 C67 0.930 . S
H77 C68 0.931 . S
H78 C69 0.931 . S
H79 C70 0.933 . S
Dy80 O83 2.315 . S
Dy80 O85 2.395 . S
Dy80 O86 2.379 . S
Dy80 O88 2.339 . S
Dy80 O90 2.298 1_545 S
Dy80 O94 2.275 1_545 S
Dy80 C102 2.738 . S
Dy81 O84 2.298 1_565 S
Dy81 O87 2.275 1_565 S
Dy81 O89 2.319 . S
Dy81 O91 2.395 . S
Dy81 O92 2.379 . S
Dy81 O95 2.339 . S
Dy81 C111 2.738 . S
C82 O94 1.254 . S
C82 O95 1.257 1_556 S
O83 Dy80 2.315 . S
O83 C93 1.257 1_556 S
O84 Dy81 2.298 1_545 S
O84 C93 1.236 . S
O85 Dy80 2.395 . S
O85 C102 1.255 . S
O86 Dy80 2.379 . S
O86 C102 1.249 . S
O87 Dy81 2.275 1_545 S
O87 C103 1.254 . S
O88 Dy80 2.339 . S
O88 C103 1.257 1_556 S
O89 Dy81 2.319 . S
O89 C104 1.252 1_554 S
O90 Dy80 2.298 1_565 S
O90 C104 1.236 . S
O91 Dy81 2.395 . S
O91 C111 1.255 . S
O92 Dy81 2.379 . S
O92 C111 1.249 . S
C93 O83 1.257 1_554 S
C93 O84 1.236 . S
O94 Dy80 2.275 1_565 S
O94 C82 1.254 . S
O95 Dy81 2.339 . S
O95 C82 1.257 1_554 S
C96 C99 1.344 1_545 S
C96 C100 1.328 . S
C96 C102 1.516 . S
C97 C98 1.304 1_545 S
C97 C101 1.323 . S
C98 C97 1.304 1_565 S
C98 C99 1.371 . S
C98 H112 0.930 . S
C99 C96 1.344 1_565 S
C99 C98 1.371 . S
C99 H113 0.931 . S
C100 C96 1.328 . S
C100 C101 1.433 . S
C100 H114 0.931 . S
C101 C97 1.323 . S
C101 C100 1.433 . S
C101 H115 0.933 . S
C102 Dy80 2.738 . S
C102 O85 1.255 . S
C102 O86 1.249 . S
C102 C96 1.516 . S
C103 O87 1.254 . S
C103 O88 1.257 1_554 S
C104 O89 1.252 1_556 S
C104 O90 1.236 . S
C105 C108 1.344 1_565 S
C105 C109 1.328 . S
C105 C111 1.516 . S
C106 C107 1.304 1_565 S
C106 C110 1.323 . S
C107 C106 1.304 1_545 S
C107 C108 1.371 . S
C107 H116 0.930 . S
C108 C105 1.344 1_545 S
C108 C107 1.371 . S
C108 H117 0.931 . S
C109 C105 1.328 . S
C109 C110 1.433 . S
C109 H118 0.931 . S
C110 C106 1.323 . S
C110 C109 1.433 . S
C110 H119 0.933 . S
C111 Dy81 2.738 . S
C111 O91 1.255 . S
C111 O92 1.249 . S
C111 C105 1.516 . S
H112 C98 0.930 . S
H113 C99 0.931 . S
H114 C100 0.931 . S
H115 C101 0.933 . S
H116 C107 0.930 . S
H117 C108 0.931 . S
H118 C109 0.931 . S
H119 C110 0.933 . S
Dy120 O123 2.307 . S
Dy120 O125 2.395 . S
Dy120 O126 2.379 . S
Dy120 O128 2.339 . S
Dy120 O130 2.298 . S
Dy120 O134 2.275 . S
Dy120 C142 2.738 . S
Dy121 O124 2.298 . S
Dy121 O127 2.275 . S
Dy121 O129 2.307 . S
Dy121 O131 2.395 . S
Dy121 O132 2.379 . S
Dy121 O135 2.339 . S
Dy121 C151 2.738 . S
C122 O134 1.254 . S
C122 O135 1.257 . S
O123 Dy120 2.307 . S
O123 C133 1.266 . S
O124 Dy121 2.298 . S
O124 C133 1.236 . S
O125 Dy120 2.395 . S
O125 C142 1.255 . S
O126 Dy120 2.379 . S
O126 C142 1.249 . S
O127 Dy121 2.275 . S
O127 C143 1.254 . S
O128 Dy120 2.339 . S
O128 C143 1.257 . S
O129 Dy121 2.307 . S
O129 C144 1.266 . S
O130 Dy120 2.298 . S
O130 C144 1.236 . S
O131 Dy121 2.395 . S
O131 C151 1.255 . S
O132 Dy121 2.379 . S
O132 C151 1.249 . S
C133 O123 1.266 . S
C133 O124 1.236 . S
O134 Dy120 2.275 . S
O134 C122 1.254 . S
O135 Dy121 2.339 . S
O135 C122 1.257 . S
C136 C139 1.344 . S
C136 C140 1.328 . S
C136 C142 1.516 . S
C137 C138 1.304 . S
C137 C141 1.323 . S
C138 C137 1.304 . S
C138 C139 1.371 1_556 S
C138 H152 0.930 . S
C139 C136 1.344 . S
C139 C138 1.371 1_554 S
C139 H153 0.931 . S
C140 C136 1.328 . S
C140 C141 1.433 1_554 S
C140 H154 0.931 . S
C141 C137 1.323 . S
C141 C140 1.433 1_556 S
C141 H155 0.933 . S
C142 Dy120 2.738 . S
C142 O125 1.255 . S
C142 O126 1.249 . S
C142 C136 1.516 . S
C143 O127 1.254 . S
C143 O128 1.257 . S
C144 O129 1.266 . S
C144 O130 1.236 . S
C145 C148 1.344 . S
C145 C149 1.328 . S
C145 C151 1.516 . S
C146 C147 1.304 . S
C146 C150 1.323 . S
C147 C146 1.304 . S
C147 C148 1.371 . S
C147 H156 0.930 . S
C148 C145 1.344 . S
C148 C147 1.371 . S
C148 H157 0.931 . S
C149 C145 1.328 . S
C149 C150 1.433 . S
C149 H158 0.931 . S
C150 C146 1.323 . S
C150 C149 1.433 . S
C150 H159 0.933 . S
C151 Dy121 2.738 . S
C151 O131 1.255 . S
C151 O132 1.249 . S
C151 C145 1.516 . S
H152 C138 0.930 . S
H153 C139 0.931 . S
H154 C140 0.931 . S
H155 C141 0.933 . S
H156 C147 0.930 . S
H157 C148 0.931 . S
H158 C149 0.931 . S
H159 C150 0.933 . S
Dy160 O163 2.307 . S
Dy160 O165 2.395 . S
Dy160 O166 2.379 . S
Dy160 O168 2.339 . S
Dy160 O170 2.298 . S
Dy160 O174 2.275 . S
Dy160 C182 2.738 . S
Dy161 O164 2.298 . S
Dy161 O167 2.275 . S
Dy161 O169 2.307 . S
Dy161 O171 2.395 . S
Dy161 O172 2.379 . S
Dy161 O175 2.339 . S
Dy161 C191 2.738 . S
C162 O174 1.254 . S
C162 O175 1.257 . S
O163 Dy160 2.307 . S
O163 C173 1.266 . S
O164 Dy161 2.298 . S
O164 C173 1.236 . S
O165 Dy160 2.395 . S
O165 C182 1.255 . S
O166 Dy160 2.379 . S
O166 C182 1.249 . S
O167 Dy161 2.275 . S
O167 C183 1.254 . S
O168 Dy160 2.339 . S
O168 C183 1.257 . S
O169 Dy161 2.307 . S
O169 C184 1.266 . S
O170 Dy160 2.298 . S
O170 C184 1.236 . S
O171 Dy161 2.395 . S
O171 C191 1.255 . S
O172 Dy161 2.379 . S
O172 C191 1.249 . S
C173 O163 1.266 . S
C173 O164 1.236 . S
O174 Dy160 2.275 . S
O174 C162 1.254 . S
O175 Dy161 2.339 . S
O175 C162 1.257 . S
C176 C179 1.344 . S
C176 C180 1.328 . S
C176 C182 1.516 . S
C177 C178 1.304 . S
C177 C181 1.323 . S
C178 C177 1.304 . S
C178 C179 1.371 1_556 S
C178 H192 0.930 . S
C179 C176 1.344 . S
C179 C178 1.371 1_554 S
C179 H193 0.931 . S
C180 C176 1.328 . S
C180 C181 1.433 1_554 S
C180 H194 0.931 . S
C181 C177 1.323 . S
C181 C180 1.433 1_556 S
C181 H195 0.933 . S
C182 Dy160 2.738 . S
C182 O165 1.255 . S
C182 O166 1.249 . S
C182 C176 1.516 . S
C183 O167 1.254 . S
C183 O168 1.257 . S
C184 O169 1.266 . S
C184 O170 1.236 . S
C185 C188 1.344 . S
C185 C189 1.328 . S
C185 C191 1.516 . S
C186 C187 1.304 . S
C186 C190 1.323 . S
C187 C186 1.304 . S
C187 C188 1.371 . S
C187 H196 0.930 . S
C188 C185 1.344 . S
C188 C187 1.371 . S
C188 H197 0.931 . S
C189 C185 1.328 . S
C189 C190 1.433 . S
C189 H198 0.931 . S
C190 C186 1.323 . S
C190 C189 1.433 . S
C190 H199 0.933 . S
C191 Dy161 2.738 . S
C191 O171 1.255 . S
C191 O172 1.249 . S
C191 C185 1.516 . S
H192 C178 0.930 . S
H193 C179 0.931 . S
H194 C180 0.931 . S
H195 C181 0.933 . S
H196 C187 0.930 . S
H197 C188 0.931 . S
H198 C189 0.931 . S
H199 C190 0.933 . S
Dy200 O203 2.307 . S
Dy200 O205 2.395 . S
Dy200 O206 2.379 . S
Dy200 O208 2.339 . S
Dy200 O210 2.298 . S
Dy200 O214 2.275 . S
Dy200 C222 2.738 . S
Dy201 O204 2.298 . S
Dy201 O207 2.275 . S
Dy201 O209 2.307 . S
Dy201 O211 2.395 . S
Dy201 O212 2.379 . S
Dy201 O215 2.339 . S
Dy201 C231 2.738 . S
C202 O214 1.254 . S
C202 O215 1.257 . S
O203 Dy200 2.307 . S
O203 C213 1.266 . S
O204 Dy201 2.298 . S
O204 C213 1.236 . S
O205 Dy200 2.395 . S
O205 C222 1.255 . S
O206 Dy200 2.379 . S
O206 C222 1.249 . S
O207 Dy201 2.275 . S
O207 C223 1.254 . S
O208 Dy200 2.339 . S
O208 C223 1.257 . S
O209 Dy201 2.307 . S
O209 C224 1.266 . S
O210 Dy200 2.298 . S
O210 C224 1.236 . S
O211 Dy201 2.395 . S
O211 C231 1.255 . S
O212 Dy201 2.379 . S
O212 C231 1.249 . S
C213 O203 1.266 . S
C213 O204 1.236 . S
O214 Dy200 2.275 . S
O214 C202 1.254 . S
O215 Dy201 2.339 . S
O215 C202 1.257 . S
C216 C219 1.344 . S
C216 C220 1.328 . S
C216 C222 1.516 . S
C217 C218 1.304 . S
C217 C221 1.323 . S
C218 C217 1.304 . S
C218 C219 1.371 . S
C218 H232 0.930 . S
C219 C216 1.344 . S
C219 C218 1.371 . S
C219 H233 0.931 . S
C220 C216 1.328 . S
C220 C221 1.433 . S
C220 H234 0.931 . S
C221 C217 1.323 . S
C221 C220 1.433 . S
C221 H235 0.933 . S
C222 Dy200 2.738 . S
C222 O205 1.255 . S
C222 O206 1.249 . S
C222 C216 1.516 . S
C223 O207 1.254 . S
C223 O208 1.257 . S
C224 O209 1.266 . S
C224 O210 1.236 . S
C225 C228 1.344 . S
C225 C229 1.328 . S
C225 C231 1.516 . S
C226 C227 1.304 . S
C226 C230 1.323 . S
C227 C226 1.304 . S
C227 C228 1.371 1_554 S
C227 H236 0.930 . S
C228 C225 1.344 . S
C228 C227 1.371 1_556 S
C228 H237 0.931 . S
C229 C225 1.328 . S
C229 C230 1.433 1_556 S
C229 H238 0.931 . S
C230 C226 1.323 . S
C230 C229 1.433 1_554 S
C230 H239 0.933 . S
C231 Dy201 2.738 . S
C231 O211 1.255 . S
C231 O212 1.249 . S
C231 C225 1.516 . S
H232 C218 0.930 . S
H233 C219 0.931 . S
H234 C220 0.931 . S
H235 C221 0.933 . S
H236 C227 0.930 . S
H237 C228 0.931 . S
H238 C229 0.931 . S
H239 C230 0.933 . S
Dy240 O243 2.323 . S
Dy240 O245 2.395 . S
Dy240 O246 2.379 . S
Dy240 O248 2.339 . S
Dy240 O250 2.298 . S
Dy240 O254 2.275 . S
Dy240 C262 2.738 . S
Dy241 O244 2.298 . S
Dy241 O247 2.275 . S
Dy241 O249 2.319 . S
Dy241 O251 2.395 . S
Dy241 O252 2.379 . S
Dy241 O255 2.339 . S
Dy241 C271 2.738 . S
C242 O254 1.254 . S
C242 O255 1.257 1_554 S
O243 Dy240 2.323 . S
O243 C253 1.247 1_554 S
O244 Dy241 2.298 . S
O244 C253 1.236 . S
O245 Dy240 2.395 . S
O245 C262 1.255 . S
O246 Dy240 2.379 . S
O246 C262 1.249 . S
O247 Dy241 2.275 . S
O247 C263 1.254 . S
O248 Dy240 2.339 . S
O248 C263 1.257 1_554 S
O249 Dy241 2.319 . S
O249 C264 1.252 1_556 S
O250 Dy240 2.298 . S
O250 C264 1.236 . S
O251 Dy241 2.395 . S
O251 C271 1.255 . S
O252 Dy241 2.379 . S
O252 C271 1.249 . S
C253 O243 1.247 1_556 S
C253 O244 1.236 . S
O254 Dy240 2.275 . S
O254 C242 1.254 . S
O255 Dy241 2.339 . S
O255 C242 1.257 1_556 S
C256 C259 1.344 . S
C256 C260 1.328 . S
C256 C262 1.516 . S
C257 C258 1.304 . S
C257 C261 1.323 . S
C258 C257 1.304 . S
C258 C259 1.371 . S
C258 H272 0.930 . S
C259 C256 1.344 . S
C259 C258 1.371 . S
C259 H273 0.931 . S
C260 C256 1.328 . S
C260 C261 1.433 . S
C260 H274 0.931 . S
C261 C257 1.323 . S
C261 C260 1.433 . S
C261 H275 0.933 . S
C262 Dy240 2.738 . S
C262 O245 1.255 . S
C262 O246 1.249 . S
C262 C256 1.516 . S
C263 O247 1.254 . S
C263 O248 1.257 1_556 S
C264 O249 1.252 1_554 S
C264 O250 1.236 . S
C265 C268 1.344 . S
C265 C269 1.328 . S
C265 C271 1.516 . S
C266 C267 1.304 . S
C266 C270 1.323 . S
C267 C266 1.304 . S
C267 C268 1.371 . S
C267 H276 0.930 . S
C268 C265 1.344 . S
C268 C267 1.371 . S
C268 H277 0.931 . S
C269 C265 1.328 . S
C269 C270 1.433 . S
C269 H278 0.931 . S
C270 C266 1.323 . S
C270 C269 1.433 . S
C270 H279 0.933 . S
C271 Dy241 2.738 . S
C271 O251 1.255 . S
C271 O252 1.249 . S
C271 C265 1.516 . S
H272 C258 0.930 . S
H273 C259 0.931 . S
H274 C260 0.931 . S
H275 C261 0.933 . S
H276 C267 0.930 . S
H277 C268 0.931 . S
H278 C269 0.931 . S
H279 C270 0.933 . S
Dy280 O283 2.307 . S
Dy280 O285 2.395 . S
Dy280 O286 2.379 1_655 S
Dy280 O288 2.339 1_655 S
Dy280 O290 2.298 1_655 S
Dy280 O294 2.275 . S
Dy280 C302 2.738 1_655 S
Dy281 O284 2.298 1_455 S
Dy281 O287 2.275 . S
Dy281 O289 2.307 . S
Dy281 O291 2.395 . S
Dy281 O292 2.379 1_455 S
Dy281 O295 2.339 1_455 S
Dy281 C311 2.738 1_455 S
C282 O294 1.254 . S
C282 O295 1.257 . S
O283 Dy280 2.307 . S
O283 C293 1.266 . S
O284 Dy281 2.298 1_655 S
O284 C293 1.236 . S
O285 Dy280 2.395 . S
O285 C302 1.255 1_655 S
O286 Dy280 2.379 1_455 S
O286 C302 1.249 . S
O287 Dy281 2.275 . S
O287 C303 1.254 . S
O288 Dy280 2.339 1_455 S
O288 C303 1.257 . S
O289 Dy281 2.307 . S
O289 C304 1.266 . S
O290 Dy280 2.298 1_455 S
O290 C304 1.236 . S
O291 Dy281 2.395 . S
O291 C311 1.255 1_455 S
O292 Dy281 2.379 1_655 S
O292 C311 1.249 . S
C293 O283 1.266 . S
C293 O284 1.236 . S
O294 Dy280 2.275 . S
O294 C282 1.254 . S
O295 Dy281 2.339 1_655 S
O295 C282 1.257 . S
C296 C299 1.348 . S
C296 C300 1.328 . S
C296 C302 1.516 . S
C297 C298 1.304 . S
C297 C301 1.323 . S
C298 C297 1.304 . S
C298 C299 1.374 . S
C298 H312 0.930 1_455 S
C299 C296 1.348 . S
C299 C298 1.374 . S
C299 H313 0.924 1_455 S
C300 C296 1.328 . S
C300 C301 1.433 . S
C300 H314 0.931 . S
C301 C297 1.323 . S
C301 C300 1.433 . S
C301 H315 0.933 . S
C302 Dy280 2.738 1_455 S
C302 O285 1.255 1_455 S
C302 O286 1.249 . S
C302 C296 1.516 . S
C303 O287 1.254 . S
C303 O288 1.257 . S
C304 O289 1.266 . S
C304 O290 1.236 . S
C305 C308 1.346 . S
C305 C309 1.328 . S
C305 C311 1.516 . S
C306 C307 1.304 . S
C306 C310 1.323 . S
C307 C306 1.304 . S
C307 C308 1.372 . S
C307 H316 0.930 1_655 S
C308 C305 1.346 . S
C308 C307 1.372 . S
C308 H317 0.928 1_655 S
C309 C305 1.328 . S
C309 C310 1.433 . S
C309 H318 0.931 . S
C310 C306 1.323 . S
C310 C309 1.433 . S
C310 H319 0.933 . S
C311 Dy281 2.738 1_655 S
C311 O291 1.255 1_655 S
C311 O292 1.249 . S
C311 C305 1.516 . S
H312 C298 0.930 1_655 S
H313 C299 0.924 1_655 S
H314 C300 0.931 . S
H315 C301 0.933 . S
H316 C307 0.930 1_455 S
H317 C308 0.928 1_455 S
H318 C309 0.931 . S
H319 C310 0.933 . S
H320 C332 0.930 . S
H321 C334 0.930 . S
H322 C335 0.930 . S
H323 C339 0.959 . S
H324 C339 0.959 . S
H325 C339 0.961 . S
H326 C340 0.960 . S
H327 C340 0.961 . S
H328 C340 0.959 . S
H329 C343 0.929 . S
H330 C344 0.931 . S
H331 C346 0.930 . S
C332 H320 0.930 . S
C332 C333 1.399 . S
C332 C337 1.399 . S
C333 C332 1.399 . S
C333 C334 1.376 . S
C334 H321 0.930 . S
C334 C333 1.376 . S
C334 C335 1.388 . S
C335 H322 0.930 . S
C335 C334 1.388 . S
C335 C336 1.390 . S
C336 C335 1.390 . S
C336 C337 1.394 . S
C336 C342 1.465 . S
C337 C332 1.399 . S
C337 C336 1.394 . S
C337 C338 1.516 . S
C338 C337 1.516 . S
C338 C339 1.502 . S
C338 C340 1.561 . S
C338 C341 1.526 . S
C339 H323 0.959 . S
C339 H324 0.959 . S
C339 H325 0.961 . S
C339 C338 1.502 . S
C340 H326 0.960 . S
C340 H327 0.961 . S
C340 H328 0.959 . S
C340 C338 1.561 . S
C341 C338 1.526 . S
C341 C342 1.396 . S
C341 C346 1.390 . S
C342 C336 1.465 . S
C342 C341 1.396 . S
C342 C343 1.399 . S
C343 H329 0.929 . S
C343 C342 1.399 . S
C343 C344 1.385 . S
C344 H330 0.931 . S
C344 C343 1.385 . S
C344 C345 1.389 . S
C345 C344 1.389 . S
C345 C346 1.387 . S
C346 H331 0.930 . S
C346 C341 1.390 . S
C346 C345 1.387 . S
H347 C359 0.930 . S
H348 C361 0.930 . S
H349 C362 0.930 . S
H350 C366 0.959 . S
H351 C366 0.959 . S
H352 C366 0.961 . S
H353 C367 0.960 . S
H354 C367 0.961 . S
H355 C367 0.959 . S
H356 C370 0.929 . S
H357 C371 0.931 . S
H358 C373 0.930 . S
C359 H347 0.930 . S
C359 C360 1.399 . S
C359 C364 1.399 . S
C360 C359 1.399 . S
C360 C361 1.376 . S
C361 H348 0.930 . S
C361 C360 1.376 . S
C361 C362 1.388 . S
C362 H349 0.930 . S
C362 C361 1.388 . S
C362 C363 1.390 . S
C363 C362 1.390 . S
C363 C364 1.394 . S
C363 C369 1.465 . S
C364 C359 1.399 . S
C364 C363 1.394 . S
C364 C365 1.516 . S
C365 C364 1.516 . S
C365 C366 1.502 . S
C365 C367 1.561 . S
C365 C368 1.526 . S
C366 H350 0.959 . S
C366 H351 0.959 . S
C366 H352 0.961 . S
C366 C365 1.502 . S
C367 H353 0.960 . S
C367 H354 0.961 . S
C367 H355 0.959 . S
C367 C365 1.561 . S
C368 C365 1.526 . S
C368 C369 1.396 . S
C368 C373 1.390 . S
C369 C363 1.465 . S
C369 C368 1.396 . S
C369 C370 1.399 . S
C370 H356 0.929 . S
C370 C369 1.399 . S
C370 C371 1.385 . S
C371 H357 0.931 . S
C371 C370 1.385 . S
C371 C372 1.389 . S
C372 C371 1.389 . S
C372 C373 1.387 . S
C373 H358 0.930 . S
C373 C368 1.390 . S
C373 C372 1.387 . S
H374 C386 0.930 . S
H375 C388 0.930 . S
H376 C389 0.930 . S
H377 C393 0.959 . S
H378 C393 0.959 . S
H379 C393 0.961 . S
H380 C394 0.960 . S
H381 C394 0.961 . S
H382 C394 0.959 . S
H383 C397 0.929 . S
H384 C398 0.931 1_554 S
H385 C400 0.930 . S
C386 H374 0.930 . S
C386 C387 1.399 . S
C386 C391 1.399 . S
C387 C386 1.399 . S
C387 C388 1.376 . S
C388 H375 0.930 . S
C388 C387 1.376 . S
C388 C389 1.388 . S
C389 H376 0.930 . S
C389 C388 1.388 . S
C389 C390 1.390 . S
C390 C389 1.390 . S
C390 C391 1.394 . S
C390 C396 1.465 . S
C391 C386 1.399 . S
C391 C390 1.394 . S
C391 C392 1.516 . S
C392 C391 1.516 . S
C392 C393 1.502 . S
C392 C394 1.561 . S
C392 C395 1.526 . S
C393 H377 0.959 . S
C393 H378 0.959 . S
C393 H379 0.961 . S
C393 C392 1.502 . S
C394 H380 0.960 . S
C394 H381 0.961 . S
C394 H382 0.959 . S
C394 C392 1.561 . S
C395 C392 1.526 . S
C395 C396 1.396 . S
C395 C400 1.390 . S
C396 C390 1.465 . S
C396 C395 1.396 . S
C396 C397 1.399 . S
C397 H383 0.929 . S
C397 C396 1.399 . S
C397 C398 1.385 . S
C398 H384 0.931 1_556 S
C398 C397 1.385 . S
C398 C399 1.389 . S
C399 C398 1.389 . S
C399 C400 1.387 . S
C400 H385 0.930 . S
C400 C395 1.390 . S
C400 C399 1.387 . S
H401 C413 0.930 . S
H402 C415 0.939 . S
H403 C416 0.930 . S
H404 C420 0.959 . S
H405 C420 0.959 . S
H406 C420 0.961 . S
H407 C421 0.960 . S
H408 C421 0.961 . S
H409 C421 0.959 . S
H410 C424 0.929 . S
H411 C425 0.931 . S
H412 C427 0.930 . S
C413 H401 0.930 . S
C413 C414 1.399 . S
C413 C418 1.399 . S
C414 C413 1.399 . S
C414 C415 1.376 . S
C415 H402 0.939 . S
C415 C414 1.376 . S
C415 C416 1.388 . S
C416 H403 0.930 . S
C416 C415 1.388 . S
C416 C417 1.390 . S
C417 C416 1.390 . S
C417 C418 1.394 . S
C417 C423 1.465 . S
C418 C413 1.399 . S
C418 C417 1.394 . S
C418 C419 1.516 . S
C419 C418 1.516 . S
C419 C420 1.502 . S
C419 C421 1.561 . S
C419 C422 1.526 . S
C420 H404 0.959 . S
C420 H405 0.959 . S
C420 H406 0.961 . S
C420 C419 1.502 . S
C421 H407 0.960 . S
C421 H408 0.961 . S
C421 H409 0.959 . S
C421 C419 1.561 . S
C422 C419 1.526 . S
C422 C423 1.396 . S
C422 C427 1.390 . S
C423 C417 1.465 . S
C423 C422 1.396 . S
C423 C424 1.399 . S
C424 H410 0.929 . S
C424 C423 1.399 . S
C424 C425 1.385 . S
C425 H411 0.931 . S
C425 C424 1.385 . S
C425 C426 1.389 . S
C426 C425 1.389 . S
C426 C427 1.387 . S
C427 H412 0.930 . S
C427 C422 1.390 . S
C427 C426 1.387 . S
H428 C440 0.930 . S
H429 C442 0.930 . S
H430 C443 0.930 . S
H431 C447 0.959 . S
H432 C447 0.959 . S
H433 C447 0.961 . S
H434 C448 0.960 . S
H435 C448 0.961 . S
H436 C448 0.959 . S
H437 C451 0.929 . S
H438 C452 0.931 . S
H439 C454 0.930 . S
C440 H428 0.930 . S
C440 C441 1.399 . S
C440 C445 1.399 . S
C441 C440 1.399 . S
C441 C442 1.376 . S
C442 H429 0.930 . S
C442 C441 1.376 . S
C442 C443 1.388 . S
C443 H430 0.930 . S
C443 C442 1.388 . S
C443 C444 1.390 . S
C444 C443 1.390 . S
C444 C445 1.394 . S
C444 C450 1.465 . S
C445 C440 1.399 . S
C445 C444 1.394 . S
C445 C446 1.516 . S
C446 C445 1.516 . S
C446 C447 1.502 . S
C446 C448 1.561 . S
C446 C449 1.526 . S
C447 H431 0.959 . S
C447 H432 0.959 . S
C447 H433 0.961 . S
C447 C446 1.502 . S
C448 H434 0.960 . S
C448 H435 0.961 . S
C448 H436 0.959 . S
C448 C446 1.561 . S
C449 C446 1.526 . S
C449 C450 1.396 . S
C449 C454 1.390 . S
C450 C444 1.465 . S
C450 C449 1.396 . S
C450 C451 1.399 . S
C451 H437 0.929 . S
C451 C450 1.399 . S
C451 C452 1.385 . S
C452 H438 0.931 . S
C452 C451 1.385 . S
C452 C453 1.389 . S
C453 C452 1.389 . S
C453 C454 1.387 . S
C454 H439 0.930 . S
C454 C449 1.390 . S
C454 C453 1.387 . S
H455 C467 0.930 . S
H456 C469 0.930 . S
H457 C470 0.930 . S
H458 C474 0.959 . S
H459 C474 0.959 . S
H460 C474 0.961 . S
H461 C475 0.960 . S
H462 C475 0.961 . S
H463 C475 0.959 . S
H464 C478 0.929 . S
H465 C479 0.931 . S
H466 C481 0.930 . S
C467 H455 0.930 . S
C467 C468 1.399 . S
C467 C472 1.399 . S
C468 C467 1.399 . S
C468 C469 1.376 . S
C469 H456 0.930 . S
C469 C468 1.376 . S
C469 C470 1.388 . S
C470 H457 0.930 . S
C470 C469 1.388 . S
C470 C471 1.390 . S
C471 C470 1.390 . S
C471 C472 1.394 . S
C471 C477 1.465 . S
C472 C467 1.399 . S
C472 C471 1.394 . S
C472 C473 1.516 . S
C473 C472 1.516 . S
C473 C474 1.502 . S
C473 C475 1.561 . S
C473 C476 1.526 . S
C474 H458 0.959 . S
C474 H459 0.959 . S
C474 H460 0.961 . S
C474 C473 1.502 . S
C475 H461 0.960 . S
C475 H462 0.961 . S
C475 H463 0.959 . S
C475 C473 1.561 . S
C476 C473 1.526 . S
C476 C477 1.396 . S
C476 C481 1.390 . S
C477 C471 1.465 . S
C477 C476 1.396 . S
C477 C478 1.399 . S
C478 H464 0.929 . S
C478 C477 1.399 . S
C478 C479 1.385 . S
C479 H465 0.931 . S
C479 C478 1.385 . S
C479 C480 1.389 . S
C480 C479 1.389 . S
C480 C481 1.387 . S
C481 H466 0.930 . S
C481 C476 1.390 . S
C481 C480 1.387 . S
H482 C494 0.930 . S
H483 C496 0.930 . S
H484 C497 0.930 . S
H485 C501 0.959 . S
H486 C501 0.959 . S
H487 C501 0.961 . S
H488 C502 0.960 . S
H489 C502 0.961 . S
H490 C502 0.959 . S
H491 C505 0.929 . S
H492 C506 0.931 1_556 S
H493 C508 0.930 . S
C494 H482 0.930 . S
C494 C495 1.399 . S
C494 C499 1.399 . S
C495 C494 1.399 . S
C495 C496 1.376 . S
C496 H483 0.930 . S
C496 C495 1.376 . S
C496 C497 1.388 . S
C497 H484 0.930 . S
C497 C496 1.388 . S
C497 C498 1.390 . S
C498 C497 1.390 . S
C498 C499 1.394 . S
C498 C504 1.465 . S
C499 C494 1.399 . S
C499 C498 1.394 . S
C499 C500 1.516 . S
C500 C499 1.516 . S
C500 C501 1.502 . S
C500 C502 1.561 . S
C500 C503 1.526 . S
C501 H485 0.959 . S
C501 H486 0.959 . S
C501 H487 0.961 . S
C501 C500 1.502 . S
C502 H488 0.960 . S
C502 H489 0.961 . S
C502 H490 0.959 . S
C502 C500 1.561 . S
C503 C500 1.526 . S
C503 C504 1.396 . S
C503 C508 1.390 . S
C504 C498 1.465 . S
C504 C503 1.396 . S
C504 C505 1.399 . S
C505 H491 0.929 . S
C505 C504 1.399 . S
C505 C506 1.385 . S
C506 H492 0.931 1_554 S
C506 C505 1.385 . S
C506 C507 1.389 . S
C507 C506 1.389 . S
C507 C508 1.387 . S
C508 H493 0.930 . S
C508 C503 1.390 . S
C508 C507 1.387 . S
H509 C521 0.930 . S
H510 C523 0.930 . S
H511 C524 0.930 . S
H512 C528 0.959 . S
H513 C528 0.959 . S
H514 C528 0.961 . S
H515 C529 0.960 . S
H516 C529 0.961 . S
H517 C529 0.959 . S
H518 C532 0.929 . S
H519 C533 0.931 . S
H520 C535 0.930 . S
C521 H509 0.930 . S
C521 C522 1.399 . S
C521 C526 1.399 . S
C522 C521 1.399 . S
C522 C523 1.376 . S
C523 H510 0.930 . S
C523 C522 1.376 . S
C523 C524 1.388 . S
C524 H511 0.930 . S
C524 C523 1.388 . S
C524 C525 1.390 . S
C525 C524 1.390 . S
C525 C526 1.394 . S
C525 C531 1.465 . S
C526 C521 1.399 . S
C526 C525 1.394 . S
C526 C527 1.516 . S
C527 C526 1.516 . S
C527 C528 1.502 . S
C527 C529 1.561 . S
C527 C530 1.526 . S
C528 H512 0.959 . S
C528 H513 0.959 . S
C528 H514 0.961 . S
C528 C527 1.502 . S
C529 H515 0.960 . S
C529 H516 0.961 . S
C529 H517 0.959 . S
C529 C527 1.561 . S
C530 C527 1.526 . S
C530 C531 1.396 . S
C530 C535 1.390 . S
C531 C525 1.465 . S
C531 C530 1.396 . S
C531 C532 1.399 . S
C532 H518 0.929 . S
C532 C531 1.399 . S
C532 C533 1.385 . S
C533 H519 0.931 . S
C533 C532 1.385 . S
C533 C534 1.389 . S
C534 C533 1.389 . S
C534 C535 1.387 . S
C535 H520 0.930 . S
C535 C530 1.390 . S
C535 C534 1.387 . S
H536 C548 0.930 . S
H537 C550 0.930 . S
H538 C551 0.930 . S
H539 C555 0.959 . S
H540 C555 0.959 . S
H541 C555 0.961 . S
H542 C556 0.960 . S
H543 C556 0.961 . S
H544 C556 0.959 . S
H545 C559 0.929 . S
H546 C560 0.931 . S
H547 C562 0.930 . S
C548 H536 0.930 . S
C548 C549 1.399 . S
C548 C553 1.399 . S
C549 C548 1.399 . S
C549 C550 1.376 . S
C550 H537 0.930 . S
C550 C549 1.376 . S
C550 C551 1.388 . S
C551 H538 0.930 . S
C551 C550 1.388 . S
C551 C552 1.390 . S
C552 C551 1.390 . S
C552 C553 1.394 . S
C552 C558 1.465 . S
C553 C548 1.399 . S
C553 C552 1.394 . S
C553 C554 1.516 . S
C554 C553 1.516 . S
C554 C555 1.502 . S
C554 C556 1.561 . S
C554 C557 1.526 . S
C555 H539 0.959 . S
C555 H540 0.959 . S
C555 H541 0.961 . S
C555 C554 1.502 . S
C556 H542 0.960 . S
C556 H543 0.961 . S
C556 H544 0.959 . S
C556 C554 1.561 . S
C557 C554 1.526 . S
C557 C558 1.396 . S
C557 C562 1.390 . S
C558 C552 1.465 . S
C558 C557 1.396 . S
C558 C559 1.399 . S
C559 H545 0.929 . S
C559 C558 1.399 . S
C559 C560 1.385 . S
C560 H546 0.931 . S
C560 C559 1.385 . S
C560 C561 1.389 . S
C561 C560 1.389 . S
C561 C562 1.387 . S
C562 H547 0.930 . S
C562 C557 1.390 . S
C562 C561 1.387 . S
H563 C575 0.930 . S
H564 C577 0.930 . S
H565 C578 0.930 . S
H566 C582 0.959 . S
H567 C582 0.959 . S
H568 C582 0.961 . S
H569 C583 0.960 . S
H570 C583 0.961 . S
H571 C583 0.959 . S
H572 C586 0.929 . S
H573 C587 0.931 . S
H574 C589 0.930 . S
C575 H563 0.930 . S
C575 C576 1.399 . S
C575 C580 1.399 . S
C576 C575 1.399 . S
C576 C577 1.376 . S
C577 H564 0.930 . S
C577 C576 1.376 . S
C577 C578 1.388 . S
C578 H565 0.930 . S
C578 C577 1.388 . S
C578 C579 1.390 . S
C579 C578 1.390 . S
C579 C580 1.394 . S
C579 C585 1.465 . S
C580 C575 1.399 . S
C580 C579 1.394 . S
C580 C581 1.516 . S
C581 C580 1.516 . S
C581 C582 1.502 . S
C581 C583 1.561 . S
C581 C584 1.526 . S
C582 H566 0.959 . S
C582 H567 0.959 . S
C582 H568 0.961 . S
C582 C581 1.502 . S
C583 H569 0.960 . S
C583 H570 0.961 . S
C583 H571 0.959 . S
C583 C581 1.561 . S
C584 C581 1.526 . S
C584 C585 1.396 . S
C584 C589 1.390 . S
C585 C579 1.465 . S
C585 C584 1.396 . S
C585 C586 1.399 . S
C586 H572 0.929 . S
C586 C585 1.399 . S
C586 C587 1.385 . S
C587 H573 0.931 . S
C587 C586 1.385 . S
C587 C588 1.389 . S
C588 C587 1.389 . S
C588 C589 1.387 . S
C589 H574 0.930 . S
C589 C584 1.390 . S
C589 C588 1.387 . S
H590 C602 0.930 . S
H591 C604 0.930 . S
H592 C605 0.930 . S
H593 C609 0.959 . S
H594 C609 0.959 . S
H595 C609 0.961 . S
H596 C610 0.960 . S
H597 C610 0.961 . S
H598 C610 0.959 . S
H599 C613 0.929 . S
H600 C614 0.931 . S
H601 C616 0.930 . S
C602 H590 0.930 . S
C602 C603 1.399 . S
C602 C607 1.399 . S
C603 C602 1.399 . S
C603 C604 1.376 . S
C604 H591 0.930 . S
C604 C603 1.376 . S
C604 C605 1.388 . S
C605 H592 0.930 . S
C605 C604 1.388 . S
C605 C606 1.390 . S
C606 C605 1.390 . S
C606 C607 1.394 . S
C606 C612 1.465 . S
C607 C602 1.399 . S
C607 C606 1.394 . S
C607 C608 1.516 . S
C608 C607 1.516 . S
C608 C609 1.502 . S
C608 C610 1.561 . S
C608 C611 1.526 . S
C609 H593 0.959 . S
C609 H594 0.959 . S
C609 H595 0.961 . S
C609 C608 1.502 . S
C610 H596 0.960 . S
C610 H597 0.961 . S
C610 H598 0.959 . S
C610 C608 1.561 . S
C611 C608 1.526 . S
C611 C612 1.396 . S
C611 C616 1.390 . S
C612 C606 1.465 . S
C612 C611 1.396 . S
C612 C613 1.399 . S
C613 H599 0.929 . S
C613 C612 1.399 . S
C613 C614 1.385 . S
C614 H600 0.931 . S
C614 C613 1.385 . S
C614 C615 1.389 . S
C615 C614 1.389 . S
C615 C616 1.387 . S
C616 H601 0.930 . S
C616 C611 1.390 . S
C616 C615 1.387 . S
H617 C629 0.930 . S
H618 C631 0.930 . S
H619 C632 0.930 . S
H620 C636 0.959 . S
H621 C636 0.959 . S
H622 C636 0.961 . S
H623 C637 0.960 . S
H624 C637 0.961 . S
H625 C637 0.959 . S
H626 C640 0.929 . S
H627 C641 0.931 . S
H628 C643 0.930 . S
C629 H617 0.930 . S
C629 C630 1.399 . S
C629 C634 1.399 . S
C630 C629 1.399 . S
C630 C631 1.376 . S
C631 H618 0.930 . S
C631 C630 1.376 . S
C631 C632 1.388 . S
C632 H619 0.930 . S
C632 C631 1.388 . S
C632 C633 1.390 . S
C633 C632 1.390 . S
C633 C634 1.394 . S
C633 C639 1.465 . S
C634 C629 1.399 . S
C634 C633 1.394 . S
C634 C635 1.516 . S
C635 C634 1.516 . S
C635 C636 1.502 . S
C635 C637 1.561 . S
C635 C638 1.526 . S
C636 H620 0.959 . S
C636 H621 0.959 . S
C636 H622 0.961 . S
C636 C635 1.502 . S
C637 H623 0.960 . S
C637 H624 0.961 . S
C637 H625 0.959 . S
C637 C635 1.561 . S
C638 C635 1.526 . S
C638 C639 1.396 . S
C638 C643 1.390 . S
C639 C633 1.465 . S
C639 C638 1.396 . S
C639 C640 1.399 . S
C640 H626 0.929 . S
C640 C639 1.399 . S
C640 C641 1.385 . S
C641 H627 0.931 . S
C641 C640 1.385 . S
C641 C642 1.389 . S
C642 C641 1.389 . S
C642 C643 1.387 . S
C643 H628 0.930 . S
C643 C638 1.390 . S
C643 C642 1.387 . S
H644 C656 0.930 . S
H645 C658 0.930 . S
H646 C659 0.930 . S
H647 C663 0.959 . S
H648 C663 0.959 . S
H649 C663 0.961 . S
H650 C664 0.960 . S
H651 C664 0.961 . S
H652 C664 0.959 . S
H653 C667 0.929 . S
H654 C668 0.931 . S
H655 C670 0.930 . S
C656 H644 0.930 . S
C656 C657 1.399 . S
C656 C661 1.399 . S
C657 C656 1.399 . S
C657 C658 1.376 . S
C658 H645 0.930 . S
C658 C657 1.376 . S
C658 C659 1.388 . S
C659 H646 0.930 . S
C659 C658 1.388 . S
C659 C660 1.390 . S
C660 C659 1.390 . S
C660 C661 1.394 . S
C660 C666 1.465 . S
C661 C656 1.399 . S
C661 C660 1.394 . S
C661 C662 1.516 . S
C662 C661 1.516 . S
C662 C663 1.502 . S
C662 C664 1.561 . S
C662 C665 1.526 . S
C663 H647 0.959 . S
C663 H648 0.959 . S
C663 H649 0.961 . S
C663 C662 1.502 . S
C664 H650 0.960 . S
C664 H651 0.961 . S
C664 H652 0.959 . S
C664 C662 1.561 . S
C665 C662 1.526 . S
C665 C666 1.396 . S
C665 C670 1.390 . S
C666 C660 1.465 . S
C666 C665 1.396 . S
C666 C667 1.399 . S
C667 H653 0.929 . S
C667 C666 1.399 . S
C667 C668 1.385 . S
C668 H654 0.931 . S
C668 C667 1.385 . S
C668 C669 1.389 . S
C669 C668 1.389 . S
C669 C670 1.387 . S
C670 H655 0.930 . S
C670 C665 1.390 . S
C670 C669 1.387 . S
H671 C683 0.930 . S
H672 C685 0.930 . S
H673 C686 0.930 . S
H674 C690 0.959 . S
H675 C690 0.959 . S
H676 C690 0.961 . S
H677 C691 0.960 . S
H678 C691 0.961 . S
H679 C691 0.959 . S
H680 C694 0.929 . S
H681 C695 0.931 . S
H682 C697 0.930 . S
C683 H671 0.930 . S
C683 C684 1.399 . S
C683 C688 1.399 . S
C684 C683 1.399 . S
C684 C685 1.376 . S
C685 H672 0.930 . S
C685 C684 1.376 . S
C685 C686 1.388 . S
C686 H673 0.930 . S
C686 C685 1.388 . S
C686 C687 1.390 . S
C687 C686 1.390 . S
C687 C688 1.394 . S
C687 C693 1.465 . S
C688 C683 1.399 . S
C688 C687 1.394 . S
C688 C689 1.516 . S
C689 C688 1.516 . S
C689 C690 1.502 . S
C689 C691 1.561 . S
C689 C692 1.526 . S
C690 H674 0.959 . S
C690 H675 0.959 . S
C690 H676 0.961 . S
C690 C689 1.502 . S
C691 H677 0.960 . S
C691 H678 0.961 . S
C691 H679 0.959 . S
C691 C689 1.561 . S
C692 C689 1.526 . S
C692 C693 1.396 . S
C692 C697 1.390 . S
C693 C687 1.465 . S
C693 C692 1.396 . S
C693 C694 1.399 . S
C694 H680 0.929 . S
C694 C693 1.399 . S
C694 C695 1.385 . S
C695 H681 0.931 . S
C695 C694 1.385 . S
C695 C696 1.389 . S
C696 C695 1.389 . S
C696 C697 1.387 . S
C697 H682 0.930 . S
C697 C692 1.390 . S
C697 C696 1.387 . S
H698 C710 0.930 . S
H699 C712 0.930 . S
H700 C713 0.930 . S
H701 C717 0.959 . S
H702 C717 0.959 . S
H703 C717 0.961 . S
H704 C718 0.960 . S
H705 C718 0.961 . S
H706 C718 0.959 . S
H707 C721 0.929 . S
H708 C722 0.931 . S
H709 C724 0.930 . S
C710 H698 0.930 . S
C710 C711 1.399 . S
C710 C715 1.399 . S
C711 C710 1.399 . S
C711 C712 1.376 . S
C712 H699 0.930 . S
C712 C711 1.376 . S
C712 C713 1.388 . S
C713 H700 0.930 . S
C713 C712 1.388 . S
C713 C714 1.390 . S
C714 C713 1.390 . S
C714 C715 1.394 . S
C714 C720 1.465 . S
C715 C710 1.399 . S
C715 C714 1.394 . S
C715 C716 1.516 . S
C716 C715 1.516 . S
C716 C717 1.502 . S
C716 C718 1.561 . S
C716 C719 1.526 . S
C717 H701 0.959 . S
C717 H702 0.959 . S
C717 H703 0.961 . S
C717 C716 1.502 . S
C718 H704 0.960 . S
C718 H705 0.961 . S
C718 H706 0.959 . S
C718 C716 1.561 . S
C719 C716 1.526 . S
C719 C720 1.396 . S
C719 C724 1.390 . S
C720 C714 1.465 . S
C720 C719 1.396 . S
C720 C721 1.399 . S
C721 H707 0.929 . S
C721 C720 1.399 . S
C721 C722 1.385 . S
C722 H708 0.931 . S
C722 C721 1.385 . S
C722 C723 1.389 . S
C723 C722 1.389 . S
C723 C724 1.387 . S
C724 H709 0.930 . S
C724 C719 1.390 . S
C724 C723 1.387 . S
H725 C737 0.930 . S
H726 C739 0.930 . S
H727 C740 0.930 . S
H728 C744 0.959 . S
H729 C744 0.959 . S
H730 C744 0.961 . S
H731 C745 0.960 . S
H732 C745 0.961 . S
H733 C745 0.959 . S
H734 C748 0.929 . S
H735 C749 0.931 . S
H736 C751 0.930 . S
C737 H725 0.930 . S
C737 C738 1.399 . S
C737 C742 1.399 . S
C738 C737 1.399 . S
C738 C739 1.376 . S
C739 H726 0.930 . S
C739 C738 1.376 . S
C739 C740 1.388 . S
C740 H727 0.930 . S
C740 C739 1.388 . S
C740 C741 1.390 . S
C741 C740 1.390 . S
C741 C742 1.394 . S
C741 C747 1.465 . S
C742 C737 1.399 . S
C742 C741 1.394 . S
C742 C743 1.516 . S
C743 C742 1.516 . S
C743 C744 1.502 . S
C743 C745 1.561 . S
C743 C746 1.526 . S
C744 H728 0.959 . S
C744 H729 0.959 . S
C744 H730 0.961 . S
C744 C743 1.502 . S
C745 H731 0.960 . S
C745 H732 0.961 . S
C745 H733 0.959 . S
C745 C743 1.561 . S
C746 C743 1.526 . S
C746 C747 1.396 . S
C746 C751 1.390 . S
C747 C741 1.465 . S
C747 C746 1.396 . S
C747 C748 1.399 . S
C748 H734 0.929 . S
C748 C747 1.399 . S
C748 C749 1.385 . S
C749 H735 0.931 . S
C749 C748 1.385 . S
C749 C750 1.389 . S
C750 C749 1.389 . S
C750 C751 1.387 . S
C751 H736 0.930 . S
C751 C746 1.390 . S
C751 C750 1.387 . S
H752 C764 0.930 . S
H753 C766 0.930 . S
H754 C767 0.930 . S
H755 C771 0.959 1_556 S
H756 C771 0.959 . S
H757 C771 0.961 1_556 S
H758 C772 0.960 1_556 S
H759 C772 0.961 . S
H760 C772 0.959 1_655 S
H761 C775 0.929 . S
H762 C776 0.931 . S
H763 C778 0.930 . S
C764 H752 0.930 . S
C764 C765 1.399 1_455 S
C764 C769 1.399 . S
C765 C764 1.399 1_655 S
C765 C766 1.376 1_545 S
C766 H753 0.930 . S
C766 C765 1.376 1_565 S
C766 C767 1.388 . S
C767 H754 0.930 . S
C767 C766 1.388 . S
C767 C768 1.390 . S
C768 C767 1.390 . S
C768 C769 1.394 1_665 S
C768 C774 1.465 1_556 S
C769 C764 1.399 . S
C769 C768 1.394 1_445 S
C769 C770 1.516 1_556 S
C770 C769 1.516 1_554 S
C770 C771 1.502 . S
C770 C772 1.561 . S
C770 C773 1.526 . S
C771 H755 0.959 1_554 S
C771 H756 0.959 . S
C771 H757 0.961 1_554 S
C771 C770 1.502 . S
C772 H758 0.960 1_554 S
C772 H759 0.961 . S
C772 H760 0.959 1_455 S
C772 C770 1.561 . S
C773 C770 1.526 . S
C773 C774 1.396 1_445 S
C773 C778 1.390 . S
C774 C768 1.465 1_554 S
C774 C773 1.396 1_665 S
C774 C775 1.399 . S
C775 H761 0.929 . S
C775 C774 1.399 . S
C775 C776 1.385 . S
C776 H762 0.931 . S
C776 C775 1.385 . S
C776 C777 1.389 1_655 S
C777 C776 1.389 1_455 S
C777 C778 1.387 1_565 S
C778 H763 0.930 . S
C778 C773 1.390 . S
C778 C777 1.387 1_545 S
H779 C791 0.930 . S
H780 C793 0.930 . S
H781 C794 0.930 . S
H782 C798 0.959 . S
H783 C798 0.959 . S
H784 C798 0.961 . S
H785 C799 0.960 . S
H786 C799 0.961 . S
H787 C799 0.959 . S
H788 C802 0.929 . S
H789 C803 0.931 . S
H790 C805 0.930 . S
C791 H779 0.930 . S
C791 C792 1.399 . S
C791 C796 1.399 . S
C792 C791 1.399 . S
C792 C793 1.376 . S
C793 H780 0.930 . S
C793 C792 1.376 . S
C793 C794 1.388 . S
C794 H781 0.930 . S
C794 C793 1.388 . S
C794 C795 1.390 . S
C795 C794 1.390 . S
C795 C796 1.394 . S
C795 C801 1.465 . S
C796 C791 1.399 . S
C796 C795 1.394 . S
C796 C797 1.516 . S
C797 C796 1.516 . S
C797 C798 1.502 . S
C797 C799 1.561 . S
C797 C800 1.526 . S
C798 H782 0.959 . S
C798 H783 0.959 . S
C798 H784 0.961 . S
C798 C797 1.502 . S
C799 H785 0.960 . S
C799 H786 0.961 . S
C799 H787 0.959 . S
C799 C797 1.561 . S
C800 C797 1.526 . S
C800 C801 1.396 . S
C800 C805 1.390 . S
C801 C795 1.465 . S
C801 C800 1.396 . S
C801 C802 1.399 . S
C802 H788 0.929 . S
C802 C801 1.399 . S
C802 C803 1.385 . S
C803 H789 0.931 . S
C803 C802 1.385 . S
C803 C804 1.389 . S
C804 C803 1.389 . S
C804 C805 1.387 . S
C805 H790 0.930 . S
C805 C800 1.390 . S
C805 C804 1.387 . S
H806 C818 0.930 . S
H807 C820 0.930 . S
H808 C821 0.930 . S
H809 C825 0.959 . S
H810 C825 0.959 . S
H811 C825 0.961 . S
H812 C826 0.960 . S
H813 C826 0.961 . S
H814 C826 0.959 . S
H815 C829 0.929 . S
H816 C830 0.931 . S
H817 C832 0.930 . S
C818 H806 0.930 . S
C818 C819 1.399 . S
C818 C823 1.399 . S
C819 C818 1.399 . S
C819 C820 1.376 1_545 S
C820 H807 0.930 . S
C820 C819 1.376 1_565 S
C820 C821 1.388 . S
C821 H808 0.930 . S
C821 C820 1.388 . S
C821 C822 1.390 . S
C822 C821 1.390 . S
C822 C823 1.394 1_565 S
C822 C828 1.465 . S
C823 C818 1.399 . S
C823 C822 1.394 1_545 S
C823 C824 1.516 . S
C824 C823 1.516 . S
C824 C825 1.502 . S
C824 C826 1.561 . S
C824 C827 1.526 . S
C825 H809 0.959 . S
C825 H810 0.959 . S
C825 H811 0.961 . S
C825 C824 1.502 . S
C826 H812 0.960 . S
C826 H813 0.961 . S
C826 H814 0.959 . S
C826 C824 1.561 . S
C827 C824 1.526 . S
C827 C828 1.396 1_545 S
C827 C832 1.390 . S
C828 C822 1.465 . S
C828 C827 1.396 1_565 S
C828 C829 1.399 . S
C829 H815 0.929 . S
C829 C828 1.399 . S
C829 C830 1.385 . S
C830 H816 0.931 . S
C830 C829 1.385 . S
C830 C831 1.389 . S
C831 C830 1.389 . S
C831 C832 1.387 1_565 S
C832 H817 0.930 . S
C832 C827 1.390 . S
C832 C831 1.387 1_545 S
H833 C845 0.930 . S
H834 C847 0.930 . S
H835 C848 0.930 . S
H836 C852 0.959 . S
H837 C852 0.959 . S
H838 C852 0.961 . S
H839 C853 0.960 . S
H840 C853 0.961 . S
H841 C853 0.959 . S
H842 C856 0.929 . S
H843 C857 0.931 . S
H844 C859 0.930 . S
C845 H833 0.930 . S
C845 C846 1.399 . S
C845 C850 1.399 . S
C846 C845 1.399 . S
C846 C847 1.376 . S
C847 H834 0.930 . S
C847 C846 1.376 . S
C847 C848 1.388 . S
C848 H835 0.930 . S
C848 C847 1.388 . S
C848 C849 1.390 . S
C849 C848 1.390 . S
C849 C850 1.394 . S
C849 C855 1.465 . S
C850 C845 1.399 . S
C850 C849 1.394 . S
C850 C851 1.516 . S
C851 C850 1.516 . S
C851 C852 1.502 . S
C851 C853 1.561 . S
C851 C854 1.526 . S
C852 H836 0.959 . S
C852 H837 0.959 . S
C852 H838 0.961 . S
C852 C851 1.502 . S
C853 H839 0.960 . S
C853 H840 0.961 . S
C853 H841 0.959 . S
C853 C851 1.561 . S
C854 C851 1.526 . S
C854 C855 1.396 . S
C854 C859 1.390 . S
C855 C849 1.465 . S
C855 C854 1.396 . S
C855 C856 1.399 . S
C856 H842 0.929 . S
C856 C855 1.399 . S
C856 C857 1.385 . S
C857 H843 0.931 . S
C857 C856 1.385 . S
C857 C858 1.389 . S
C858 C857 1.389 . S
C858 C859 1.387 . S
C859 H844 0.930 . S
C859 C854 1.390 . S
C859 C858 1.387 . S
H860 C872 0.930 . S
H861 C874 0.930 . S
H862 C875 0.930 . S
H863 C879 0.959 . S
H864 C879 0.959 . S
H865 C879 0.961 . S
H866 C880 0.960 . S
H867 C880 0.961 . S
H868 C880 0.959 . S
H869 C883 0.929 . S
H870 C884 0.931 . S
H871 C886 0.930 . S
C872 H860 0.930 . S
C872 C873 1.399 . S
C872 C877 1.399 . S
C873 C872 1.399 . S
C873 C874 1.376 . S
C874 H861 0.930 . S
C874 C873 1.376 . S
C874 C875 1.388 . S
C875 H862 0.930 . S
C875 C874 1.388 . S
C875 C876 1.390 . S
C876 C875 1.390 . S
C876 C877 1.394 . S
C876 C882 1.465 . S
C877 C872 1.399 . S
C877 C876 1.394 . S
C877 C878 1.516 . S
C878 C877 1.516 . S
C878 C879 1.502 . S
C878 C880 1.561 . S
C878 C881 1.526 . S
C879 H863 0.959 . S
C879 H864 0.959 . S
C879 H865 0.961 . S
C879 C878 1.502 . S
C880 H866 0.960 . S
C880 H867 0.961 . S
C880 H868 0.959 . S
C880 C878 1.561 . S
C881 C878 1.526 . S
C881 C882 1.396 . S
C881 C886 1.390 . S
C882 C876 1.465 . S
C882 C881 1.396 . S
C882 C883 1.399 . S
C883 H869 0.929 . S
C883 C882 1.399 . S
C883 C884 1.385 . S
C884 H870 0.931 . S
C884 C883 1.385 . S
C884 C885 1.389 . S
C885 C884 1.389 . S
C885 C886 1.387 . S
C886 H871 0.930 . S
C886 C881 1.390 . S
C886 C885 1.387 . S
H887 C899 0.930 . S
H888 C901 0.930 . S
H889 C902 0.930 . S
H890 C906 0.959 . S
H891 C906 0.959 . S
H892 C906 0.961 . S
H893 C907 0.960 . S
H894 C907 0.961 . S
H895 C907 0.959 . S
H896 C910 0.929 . S
H897 C911 0.931 . S
H898 C913 0.930 . S
C899 H887 0.930 . S
C899 C900 1.399 . S
C899 C904 1.399 . S
C900 C899 1.399 . S
C900 C901 1.376 . S
C901 H888 0.930 . S
C901 C900 1.376 . S
C901 C902 1.388 . S
C902 H889 0.930 . S
C902 C901 1.388 . S
C902 C903 1.390 . S
C903 C902 1.390 . S
C903 C904 1.394 . S
C903 C909 1.465 . S
C904 C899 1.399 . S
C904 C903 1.394 . S
C904 C905 1.516 . S
C905 C904 1.516 . S
C905 C906 1.502 . S
C905 C907 1.561 . S
C905 C908 1.526 . S
C906 H890 0.959 . S
C906 H891 0.959 . S
C906 H892 0.961 . S
C906 C905 1.502 . S
C907 H893 0.960 . S
C907 H894 0.961 . S
C907 H895 0.959 . S
C907 C905 1.561 . S
C908 C905 1.526 . S
C908 C909 1.396 . S
C908 C913 1.390 . S
C909 C903 1.465 . S
C909 C908 1.396 . S
C909 C910 1.399 . S
C910 H896 0.929 . S
C910 C909 1.399 . S
C910 C911 1.385 . S
C911 H897 0.931 . S
C911 C910 1.385 . S
C911 C912 1.389 . S
C912 C911 1.389 . S
C912 C913 1.387 . S
C913 H898 0.930 . S
C913 C908 1.390 . S
C913 C912 1.387 . S
H914 C926 0.930 . S
H915 C928 0.930 . S
H916 C929 0.930 . S
H917 C933 0.959 . S
H918 C933 0.959 . S
H919 C933 0.961 . S
H920 C934 0.960 . S
H921 C934 0.961 . S
H922 C934 0.959 . S
H923 C937 0.929 . S
H924 C938 0.931 . S
H925 C940 0.930 . S
C926 H914 0.930 . S
C926 C927 1.399 . S
C926 C931 1.399 . S
C927 C926 1.399 . S
C927 C928 1.376 . S
C928 H915 0.930 . S
C928 C927 1.376 . S
C928 C929 1.388 . S
C929 H916 0.930 . S
C929 C928 1.388 . S
C929 C930 1.390 . S
C930 C929 1.390 . S
C930 C931 1.394 . S
C930 C936 1.465 . S
C931 C926 1.399 . S
C931 C930 1.394 . S
C931 C932 1.516 . S
C932 C931 1.516 . S
C932 C933 1.502 . S
C932 C934 1.561 . S
C932 C935 1.526 . S
C933 H917 0.959 . S
C933 H918 0.959 . S
C933 H919 0.961 . S
C933 C932 1.502 . S
C934 H920 0.960 . S
C934 H921 0.961 . S
C934 H922 0.959 . S
C934 C932 1.561 . S
C935 C932 1.526 . S
C935 C936 1.396 . S
C935 C940 1.390 . S
C936 C930 1.465 . S
C936 C935 1.396 . S
C936 C937 1.399 . S
C937 H923 0.929 . S
C937 C936 1.399 . S
C937 C938 1.385 . S
C938 H924 0.931 . S
C938 C937 1.385 . S
C938 C939 1.389 . S
C939 C938 1.389 . S
C939 C940 1.387 . S
C940 H925 0.930 . S
C940 C935 1.390 . S
C940 C939 1.387 . S
H941 C953 0.930 . S
H942 C955 0.930 . S
H943 C956 0.930 . S
H944 C960 0.959 . S
H945 C960 0.959 1_654 S
H946 C960 0.961 1_655 S
H947 C961 0.960 . S
H948 C961 0.961 1_554 S
H949 C961 0.959 1_554 S
H950 C964 0.929 . S
H951 C965 0.931 . S
H952 C967 0.930 1_655 S
C953 H941 0.930 . S
C953 C954 1.399 . S
C953 C958 1.399 . S
C954 C953 1.399 . S
C954 C955 1.376 . S
C955 H942 0.930 . S
C955 C954 1.376 . S
C955 C956 1.388 1_655 S
C956 H943 0.930 . S
C956 C955 1.388 1_455 S
C956 C957 1.390 1_455 S
C957 C956 1.390 1_655 S
C957 C958 1.394 . S
C957 C963 1.465 1_656 S
C958 C953 1.399 . S
C958 C957 1.394 . S
C958 C959 1.516 . S
C959 C958 1.516 . S
C959 C960 1.502 1_655 S
C959 C961 1.561 . S
C959 C962 1.526 1_556 S
C960 H944 0.959 . S
C960 H945 0.959 1_456 S
C960 H946 0.961 1_455 S
C960 C959 1.502 1_455 S
C961 H947 0.960 . S
C961 H948 0.961 1_556 S
C961 H949 0.959 1_556 S
C961 C959 1.561 . S
C962 C959 1.526 1_554 S
C962 C963 1.396 1_655 S
C962 C967 1.390 1_655 S
C963 C957 1.465 1_454 S
C963 C962 1.396 1_455 S
C963 C964 1.399 . S
C964 H950 0.929 . S
C964 C963 1.399 . S
C964 C965 1.385 . S
C965 H951 0.931 . S
C965 C964 1.385 . S
C965 C966 1.389 . S
C966 C965 1.389 . S
C966 C967 1.387 . S
C967 H952 0.930 1_455 S
C967 C962 1.390 1_455 S
C967 C966 1.387 . S
C333 C13 1.677 . S
C345 C133 1.672 . S
C360 C2 1.325 . S
C372 C42 1.333 . S
C387 C53 1.309 . S
C399 C82 1.282 . S
C414 C93 1.720 . S
C426 C122 1.716 . S
C441 C24 1.683 . S
C453 C224 1.682 . S
C468 C23 1.319 . S
C480 C183 1.349 . S
C495 C184 1.321 . S
C507 C103 1.272 . S
C522 C223 1.700 . S
C534 C104 1.718 . S
C549 C253 1.673 . S
C561 C213 1.678 . S
C576 C162 1.318 . S
C588 C242 1.349 . S
C603 C282 1.285 . S
C615 C173 1.323 . S
C630 C202 1.721 . S
C642 C293 1.721 . S
C657 C144 1.674 . S
C669 C264 1.675 . S
C684 C263 1.326 . S
C696 C63 1.324 . S
C711 C64 1.320 . S
C723 C303 1.278 . S
C738 C143 1.709 . S
C750 C304 1.719 . S
C765 C17 1.394 . S
C777 C26 1.381 . S
C792 C57 1.472 . S
C804 C66 1.402 . S
C819 C97 1.369 . S
C831 C106 1.389 . S
C846 C137 1.550 . S
C858 C146 1.631 . S
C873 C177 1.471 . S
C885 C186 1.402 . S
C900 C217 1.550 . S
C912 C226 1.630 . S
C927 C266 1.345 . S
C939 C257 1.417 . S
C954 C306 1.405 . S
C966 C297 1.348 . S
