# Generated by pormake.
# Topology yfs, (5)-cn, num edge types: 1
# Building blocks:
#     Node 0, Type 0, BuildingBlock: BEQFEK_clean_sbu_0, # of connection points: 5
#     Node 1, Type 0, BuildingBlock: BEQFEK_clean_sbu_0, # of connection points: 5
#     Node 2, Type 0, BuildingBlock: BEQFEK_clean_sbu_0, # of connection points: 5
#     Node 3, Type 0, BuildingBlock: BEQFEK_clean_sbu_0, # of connection points: 5
#     Node 4, Type 0, BuildingBlock: BEQFEK_clean_sbu_0, # of connection points: 5
#     Node 5, Type 0, BuildingBlock: BEQFEK_clean_sbu_0, # of connection points: 5
#     Node 6, Type 0, BuildingBlock: BEQFEK_clean_sbu_0, # of connection points: 5
#     Node 7, Type 0, BuildingBlock: BEQFEK_clean_sbu_0, # of connection points: 5
#     Node 8, Type 0, BuildingBlock: BEQFEK_clean_sbu_0, # of connection points: 5
#     Node 9, Type 0, BuildingBlock: BEQFEK_clean_sbu_0, # of connection points: 5
#     Node 10, Type 0, BuildingBlock: BEQFEK_clean_sbu_0, # of connection points: 5
#     Node 11, Type 0, BuildingBlock: BEQFEK_clean_sbu_0, # of connection points: 5
#     Node 12, Type 0, BuildingBlock: BEQFEK_clean_sbu_0, # of connection points: 5
#     Node 13, Type 0, BuildingBlock: BEQFEK_clean_sbu_0, # of connection points: 5
#     Node 14, Type 0, BuildingBlock: BEQFEK_clean_sbu_0, # of connection points: 5
#     Node 15, Type 0, BuildingBlock: BEQFEK_clean_sbu_0, # of connection points: 5
#     Node 16, Type 0, BuildingBlock: BEQFEK_clean_sbu_0, # of connection points: 5
#     Node 17, Type 0, BuildingBlock: BEQFEK_clean_sbu_0, # of connection points: 5
#     Node 18, Type 0, BuildingBlock: BEQFEK_clean_sbu_0, # of connection points: 5
#     Node 19, Type 0, BuildingBlock: BEQFEK_clean_sbu_0, # of connection points: 5
#     Node 20, Type 0, BuildingBlock: BEQFEK_clean_sbu_0, # of connection points: 5
#     Node 21, Type 0, BuildingBlock: BEQFEK_clean_sbu_0, # of connection points: 5
#     Node 22, Type 0, BuildingBlock: BEQFEK_clean_sbu_0, # of connection points: 5
#     Node 23, Type 0, BuildingBlock: BEQFEK_clean_sbu_0, # of connection points: 5
#     Node 24, Type 0, BuildingBlock: BEQFEK_clean_sbu_0, # of connection points: 5
#     Node 25, Type 0, BuildingBlock: BEQFEK_clean_sbu_0, # of connection points: 5
#     Node 26, Type 0, BuildingBlock: BEQFEK_clean_sbu_0, # of connection points: 5
#     Node 27, Type 0, BuildingBlock: BEQFEK_clean_sbu_0, # of connection points: 5
#     Node 28, Type 0, BuildingBlock: BEQFEK_clean_sbu_0, # of connection points: 5
#     Node 29, Type 0, BuildingBlock: BEQFEK_clean_sbu_0, # of connection points: 5
#     Node 30, Type 0, BuildingBlock: BEQFEK_clean_sbu_0, # of connection points: 5
#     Node 31, Type 0, BuildingBlock: BEQFEK_clean_sbu_0, # of connection points: 5
#     Edge 32, Type (0, 0), BuildingBlock: EZIPEK_clean_linker_0, # of connection points: 2
#     Edge 33, Type (0, 0), BuildingBlock: EZIPEK_clean_linker_0, # of connection points: 2
#     Edge 34, Type (0, 0), BuildingBlock: EZIPEK_clean_linker_0, # of connection points: 2
#     Edge 35, Type (0, 0), BuildingBlock: EZIPEK_clean_linker_0, # of connection points: 2
#     Edge 36, Type (0, 0), BuildingBlock: EZIPEK_clean_linker_0, # of connection points: 2
#     Edge 37, Type (0, 0), BuildingBlock: EZIPEK_clean_linker_0, # of connection points: 2
#     Edge 38, Type (0, 0), BuildingBlock: EZIPEK_clean_linker_0, # of connection points: 2
#     Edge 39, Type (0, 0), BuildingBlock: EZIPEK_clean_linker_0, # of connection points: 2
#     Edge 40, Type (0, 0), BuildingBlock: EZIPEK_clean_linker_0, # of connection points: 2
#     Edge 41, Type (0, 0), BuildingBlock: EZIPEK_clean_linker_0, # of connection points: 2
#     Edge 42, Type (0, 0), BuildingBlock: EZIPEK_clean_linker_0, # of connection points: 2
#     Edge 43, Type (0, 0), BuildingBlock: EZIPEK_clean_linker_0, # of connection points: 2
#     Edge 44, Type (0, 0), BuildingBlock: EZIPEK_clean_linker_0, # of connection points: 2
#     Edge 45, Type (0, 0), BuildingBlock: EZIPEK_clean_linker_0, # of connection points: 2
#     Edge 46, Type (0, 0), BuildingBlock: EZIPEK_clean_linker_0, # of connection points: 2
#     Edge 47, Type (0, 0), BuildingBlock: EZIPEK_clean_linker_0, # of connection points: 2
#     Edge 48, Type (0, 0), BuildingBlock: EZIPEK_clean_linker_0, # of connection points: 2
#     Edge 49, Type (0, 0), BuildingBlock: EZIPEK_clean_linker_0, # of connection points: 2
#     Edge 50, Type (0, 0), BuildingBlock: EZIPEK_clean_linker_0, # of connection points: 2
#     Edge 51, Type (0, 0), BuildingBlock: EZIPEK_clean_linker_0, # of connection points: 2
#     Edge 52, Type (0, 0), BuildingBlock: EZIPEK_clean_linker_0, # of connection points: 2
#     Edge 53, Type (0, 0), BuildingBlock: EZIPEK_clean_linker_0, # of connection points: 2
#     Edge 54, Type (0, 0), BuildingBlock: EZIPEK_clean_linker_0, # of connection points: 2
#     Edge 55, Type (0, 0), BuildingBlock: EZIPEK_clean_linker_0, # of connection points: 2
#     Edge 56, Type (0, 0), BuildingBlock: EZIPEK_clean_linker_0, # of connection points: 2
#     Edge 57, Type (0, 0), BuildingBlock: EZIPEK_clean_linker_0, # of connection points: 2
#     Edge 58, Type (0, 0), BuildingBlock: EZIPEK_clean_linker_0, # of connection points: 2
#     Edge 59, Type (0, 0), BuildingBlock: EZIPEK_clean_linker_0, # of connection points: 2
#     Edge 60, Type (0, 0), BuildingBlock: EZIPEK_clean_linker_0, # of connection points: 2
#     Edge 61, Type (0, 0), BuildingBlock: EZIPEK_clean_linker_0, # of connection points: 2
#     Edge 62, Type (0, 0), BuildingBlock: EZIPEK_clean_linker_0, # of connection points: 2
#     Edge 63, Type (0, 0), BuildingBlock: EZIPEK_clean_linker_0, # of connection points: 2
#     Edge 64, Type (0, 0), BuildingBlock: EZIPEK_clean_linker_0, # of connection points: 2
#     Edge 65, Type (0, 0), BuildingBlock: EZIPEK_clean_linker_0, # of connection points: 2
#     Edge 66, Type (0, 0), BuildingBlock: EZIPEK_clean_linker_0, # of connection points: 2
#     Edge 67, Type (0, 0), BuildingBlock: EZIPEK_clean_linker_0, # of connection points: 2
#     Edge 68, Type (0, 0), BuildingBlock: EZIPEK_clean_linker_0, # of connection points: 2
#     Edge 69, Type (0, 0), BuildingBlock: EZIPEK_clean_linker_0, # of connection points: 2
#     Edge 70, Type (0, 0), BuildingBlock: EZIPEK_clean_linker_0, # of connection points: 2
#     Edge 71, Type (0, 0), BuildingBlock: EZIPEK_clean_linker_0, # of connection points: 2
#     Edge 72, Type (0, 0), BuildingBlock: EZIPEK_clean_linker_0, # of connection points: 2
#     Edge 73, Type (0, 0), BuildingBlock: EZIPEK_clean_linker_0, # of connection points: 2
#     Edge 74, Type (0, 0), BuildingBlock: EZIPEK_clean_linker_0, # of connection points: 2
#     Edge 75, Type (0, 0), BuildingBlock: EZIPEK_clean_linker_0, # of connection points: 2
#     Edge 76, Type (0, 0), BuildingBlock: EZIPEK_clean_linker_0, # of connection points: 2
#     Edge 77, Type (0, 0), BuildingBlock: EZIPEK_clean_linker_0, # of connection points: 2
#     Edge 78, Type (0, 0), BuildingBlock: EZIPEK_clean_linker_0, # of connection points: 2
#     Edge 79, Type (0, 0), BuildingBlock: EZIPEK_clean_linker_0, # of connection points: 2
#     Edge 80, Type (0, 0), BuildingBlock: EZIPEK_clean_linker_0, # of connection points: 2
#     Edge 81, Type (0, 0), BuildingBlock: EZIPEK_clean_linker_0, # of connection points: 2
#     Edge 82, Type (0, 0), BuildingBlock: EZIPEK_clean_linker_0, # of connection points: 2
#     Edge 83, Type (0, 0), BuildingBlock: EZIPEK_clean_linker_0, # of connection points: 2
#     Edge 84, Type (0, 0), BuildingBlock: EZIPEK_clean_linker_0, # of connection points: 2
#     Edge 85, Type (0, 0), BuildingBlock: EZIPEK_clean_linker_0, # of connection points: 2
#     Edge 86, Type (0, 0), BuildingBlock: EZIPEK_clean_linker_0, # of connection points: 2
#     Edge 87, Type (0, 0), BuildingBlock: EZIPEK_clean_linker_0, # of connection points: 2
#     Edge 88, Type (0, 0), BuildingBlock: EZIPEK_clean_linker_0, # of connection points: 2
#     Edge 89, Type (0, 0), BuildingBlock: EZIPEK_clean_linker_0, # of connection points: 2
#     Edge 90, Type (0, 0), BuildingBlock: EZIPEK_clean_linker_0, # of connection points: 2
#     Edge 91, Type (0, 0), BuildingBlock: EZIPEK_clean_linker_0, # of connection points: 2
#     Edge 92, Type (0, 0), BuildingBlock: EZIPEK_clean_linker_0, # of connection points: 2
#     Edge 93, Type (0, 0), BuildingBlock: EZIPEK_clean_linker_0, # of connection points: 2
#     Edge 94, Type (0, 0), BuildingBlock: EZIPEK_clean_linker_0, # of connection points: 2
#     Edge 95, Type (0, 0), BuildingBlock: EZIPEK_clean_linker_0, # of connection points: 2
#     Edge 96, Type (0, 0), BuildingBlock: EZIPEK_clean_linker_0, # of connection points: 2
#     Edge 97, Type (0, 0), BuildingBlock: EZIPEK_clean_linker_0, # of connection points: 2
#     Edge 98, Type (0, 0), BuildingBlock: EZIPEK_clean_linker_0, # of connection points: 2
#     Edge 99, Type (0, 0), BuildingBlock: EZIPEK_clean_linker_0, # of connection points: 2
#     Edge 100, Type (0, 0), BuildingBlock: EZIPEK_clean_linker_0, # of connection points: 2
#     Edge 101, Type (0, 0), BuildingBlock: EZIPEK_clean_linker_0, # of connection points: 2
#     Edge 102, Type (0, 0), BuildingBlock: EZIPEK_clean_linker_0, # of connection points: 2
#     Edge 103, Type (0, 0), BuildingBlock: EZIPEK_clean_linker_0, # of connection points: 2
#     Edge 104, Type (0, 0), BuildingBlock: EZIPEK_clean_linker_0, # of connection points: 2
#     Edge 105, Type (0, 0), BuildingBlock: EZIPEK_clean_linker_0, # of connection points: 2
#     Edge 106, Type (0, 0), BuildingBlock: EZIPEK_clean_linker_0, # of connection points: 2
#     Edge 107, Type (0, 0), BuildingBlock: EZIPEK_clean_linker_0, # of connection points: 2
#     Edge 108, Type (0, 0), BuildingBlock: EZIPEK_clean_linker_0, # of connection points: 2
#     Edge 109, Type (0, 0), BuildingBlock: EZIPEK_clean_linker_0, # of connection points: 2
#     Edge 110, Type (0, 0), BuildingBlock: EZIPEK_clean_linker_0, # of connection points: 2
#     Edge 111, Type (0, 0), BuildingBlock: EZIPEK_clean_linker_0, # of connection points: 2
# Relax obj value: 0.330
# Max RMSD: 0.174
# Mean RMSD: 0.174
data_MOF--net-yfs--node1-BEQFEK_clean_sbu_0--edge1-EZIPEK_clean_linker_0
_symmetry_space_group_name_H-M    P1
_symmetry_Int_Tables_number       1
_symmetry_cell_setting            triclinic
loop_
_symmetry_equiv_pos_as_xyz
'x, y, z'
_cell_length_a     38.020018
_cell_length_b     38.002442
_cell_length_c     65.288336
_cell_angle_alpha  89.939564
_cell_angle_beta   90.024237
_cell_angle_gamma 89.976103
loop_
_atom_site_label
_atom_site_type_symbol
_atom_site_fract_x
_atom_site_fract_y
_atom_site_fract_z
_atom_type_partial_charge
Co0 Co 0.43722 0.13221 0.18203 0.0
Co1 Co 0.36959 0.15365 0.20659 0.0
C2 C 0.37523 0.16932 0.16236 0.0
O3 O 0.40498 0.15402 0.16161 0.0
O4 O 0.35751 0.17048 0.17883 0.0
C5 C 0.47325 0.10524 0.14799 0.0
O6 O 0.44095 0.09963 0.14171 0.0
C7 C 0.30175 0.17931 0.22084 0.0
C8 C 0.3113 0.18183 0.25421 0.0
C9 C 0.28798 0.19173 0.23902 0.0
N10 N 0.33226 0.16299 0.225 0.0
N11 N 0.33747 0.16401 0.24502 0.0
C12 C 0.28882 0.18774 0.19976 0.0
H13 H 0.29197 0.16444 0.18971 0.0
H14 H 0.26076 0.19582 0.20005 0.0
H15 H 0.30463 0.20969 0.19336 0.0
C16 C 0.42709 0.06743 0.20627 0.0
N17 N 0.41517 0.09822 0.19879 0.0
N18 N 0.3852 0.10618 0.20776 0.0
C19 C 0.37634 0.07984 0.22057 0.0
C20 C 0.40297 0.05488 0.22048 0.0
C21 C 0.46296 0.05314 0.20189 0.0
H22 H 0.4828 0.07423 0.20406 0.0
H23 H 0.46419 0.04483 0.18562 0.0
H24 H 0.46939 0.03039 0.21188 0.0
O25 O 0.45473 0.17145 0.19874 0.0
O26 O 0.40684 0.18541 0.21643 0.0
H27 H 0.35081 0.09258 0.24878 0.0
H28 H 0.33627 0.05223 0.23738 0.0
C29 C 0.34449 0.07967 0.23402 0.0
H30 H 0.32254 0.09397 0.22654 0.0
H31 H 0.36043 0.15535 0.25221 0.0
O32 O 0.47831 0.11428 0.16648 0.0
C33 C 0.43881 0.1906 0.21171 0.0
Co34 Co 0.10296 0.1839 0.43279 0.0
Co35 Co 0.07991 0.12471 0.46378 0.0
C36 C 0.06395 0.11746 0.41968 0.0
O37 O 0.07656 0.148 0.41602 0.0
O38 O 0.06695 0.10328 0.43726 0.0
C39 C 0.13241 0.21497 0.39615 0.0
O40 O 0.12589 0.18341 0.38889 0.0
C41 C 0.05615 0.06144 0.48504 0.0
C42 C 0.04602 0.08265 0.51601 0.0
C43 C 0.04161 0.05328 0.50383 0.0
N44 N 0.06854 0.09445 0.4859 0.0
N45 N 0.06284 0.1068 0.50455 0.0
C46 C 0.05435 0.03967 0.46601 0.0
H47 H 0.03075 0.04736 0.45709 0.0
H48 H 0.07807 0.04422 0.45648 0.0
H49 H 0.05219 0.01129 0.46986 0.0
C50 C 0.17132 0.17117 0.45458 0.0
N51 N 0.13727 0.16347 0.45085 0.0
N52 N 0.12675 0.13998 0.46435 0.0
C53 C 0.15314 0.13268 0.47738 0.0
C54 C 0.1824 0.15224 0.47173 0.0
C55 C 0.19234 0.19679 0.44222 0.0
H56 H 0.18201 0.22373 0.44483 0.0
H57 H 0.18922 0.19078 0.4257 0.0
H58 H 0.22062 0.19589 0.4464 0.0
O59 O 0.06612 0.20842 0.44874 0.0
O60 O 0.04844 0.164 0.46828 0.0
H61 H 0.13099 0.12267 0.5068 0.0
H62 H 0.17435 0.10526 0.50403 0.0
C63 C 0.14919 0.10974 0.49592 0.0
H64 H 0.13775 0.08405 0.49141 0.0
H65 H 0.06801 0.13265 0.50899 0.0
O66 O 0.12417 0.22087 0.41468 0.0
C67 C 0.04554 0.19544 0.4621 0.0
Co68 Co 0.06505 0.85801 0.68617 0.0
Co69 Co 0.13478 0.84419 0.71047 0.0
C70 C 0.13131 0.82414 0.66774 0.0
O71 O 0.09913 0.83362 0.66763 0.0
O72 O 0.1511 0.83063 0.68295 0.0
C73 C 0.02617 0.888 0.65227 0.0
O74 O 0.05675 0.90024 0.64625 0.0
C75 C 0.20266 0.82383 0.72781 0.0
C76 C 0.18682 0.81634 0.76006 0.0
C77 C 0.21337 0.80929 0.74621 0.0
N78 N 0.17058 0.83798 0.73046 0.0
N79 N 0.16186 0.83448 0.74996 0.0
C80 C 0.22063 0.81946 0.70762 0.0
H81 H 0.21364 0.79357 0.70101 0.0
H82 H 0.21273 0.84071 0.69692 0.0
H83 H 0.2496 0.81993 0.70974 0.0
C84 C 0.07064 0.92542 0.70869 0.0
N85 N 0.08461 0.89497 0.70199 0.0
N86 N 0.11497 0.88977 0.71121 0.0
C87 C 0.12204 0.91747 0.72334 0.0
C88 C 0.09386 0.94064 0.72256 0.0
C89 C 0.03402 0.93714 0.7038 0.0
H90 H 0.0159 0.91427 0.70441 0.0
H91 H 0.03344 0.94767 0.68795 0.0
H92 H 0.02489 0.95788 0.71452 0.0
O93 O 0.04838 0.82098 0.70432 0.0
O94 O 0.09956 0.80824 0.71897 0.0
H95 H 0.14921 0.90657 0.75131 0.0
H96 H 0.15964 0.94855 0.74014 0.0
C97 C 0.15393 0.92053 0.73665 0.0
H98 H 0.17696 0.90842 0.72898 0.0
H99 H 0.13722 0.84106 0.75587 0.0
O100 O 0.0239 0.87214 0.66936 0.0
C101 C 0.0671 0.80194 0.716 0.0
Co102 Co 0.3887 0.81293 0.93299 0.0
Co103 Co 0.42842 0.86021 0.96501 0.0
C104 C 0.43662 0.87191 0.91991 0.0
O105 O 0.41621 0.84636 0.91563 0.0
O106 O 0.44158 0.8818 0.93831 0.0
C107 C 0.38075 0.7653 0.90238 0.0
O108 O 0.41424 0.77339 0.90196 0.0
C109 C 0.45622 0.92193 0.98541 0.0
C110 C 0.47733 0.8996 0.0142 0.0
C111 C 0.47537 0.9301 0.00269 0.0
N112 N 0.44727 0.88789 0.98641 0.0
N113 N 0.45966 0.87469 0.00374 0.0
C114 C 0.44918 0.94534 0.96745 0.0
H115 H 0.42375 0.93818 0.96022 0.0
H116 H 0.44872 0.97339 0.97218 0.0
H117 H 0.47047 0.94182 0.95601 0.0
C118 C 0.32835 0.83187 0.95978 0.0
N119 N 0.36222 0.83505 0.95403 0.0
N120 N 0.37949 0.85247 0.96823 0.0
C121 C 0.35757 0.85972 0.98386 0.0
C122 C 0.32424 0.84706 0.97908 0.0
C123 C 0.30106 0.81329 0.94733 0.0
H124 H 0.30391 0.82071 0.93097 0.0
H125 H 0.27413 0.81971 0.95271 0.0
H126 H 0.30532 0.78446 0.94849 0.0
O127 O 0.42452 0.78171 0.94528 0.0
O128 O 0.45476 0.81638 0.96619 0.0
H129 H 0.3912 0.85904 0.01004 0.0
H130 H 0.34801 0.876 0.0153 0.0
C131 C 0.36941 0.87517 0.00379 0.0
H132 H 0.3795 0.90218 1.00114 0.0
H133 H 0.45751 0.84828 0.00795 0.0
O134 O 0.36062 0.78108 0.91494 0.0
C135 C 0.45017 0.78705 0.9574 0.0
Co136 Co 0.43351 0.87534 0.32606 0.0
Co137 Co 0.36977 0.84872 0.29957 0.0
C138 C 0.36674 0.84588 0.34519 0.0
O139 O 0.39738 0.8595 0.34599 0.0
O140 O 0.35203 0.8401 0.32794 0.0
C141 C 0.4878 0.87371 0.35362 0.0
O142 O 0.4732 0.8426 0.35575 0.0
C143 C 0.30638 0.81884 0.28099 0.0
C144 C 0.32338 0.81448 0.24873 0.0
C145 C 0.29703 0.80501 0.26221 0.0
N146 N 0.33709 0.8358 0.27886 0.0
N147 N 0.34685 0.8335 0.25946 0.0
C148 C 0.28899 0.81178 0.30102 0.0
H149 H 0.28603 0.83702 0.30933 0.0
H150 H 0.26277 0.79943 0.29897 0.0
H151 H 0.30594 0.79398 0.3102 0.0
C152 C 0.42668 0.93573 0.29753 0.0
N153 N 0.41476 0.90547 0.30573 0.0
N154 N 0.38634 0.89545 0.29578 0.0
C155 C 0.37835 0.91993 0.2816 0.0
C156 C 0.40402 0.94582 0.28189 0.0
C157 C 0.46079 0.95253 0.30338 0.0
H158 H 0.48186 0.93231 0.30361 0.0
H159 H 0.45848 0.96332 0.31911 0.0
H160 H 0.46804 0.97401 0.29265 0.0
O161 O 0.45246 0.83321 0.31317 0.0
O162 O 0.40784 0.81473 0.29425 0.0
H163 H 0.35494 0.9048 0.25316 0.0
H164 H 0.33857 0.94535 0.26339 0.0
C165 C 0.34735 0.91838 0.2675 0.0
H166 H 0.32533 0.90395 0.27481 0.0
H167 H 0.37096 0.84249 0.25388 0.0
O168 O 0.47421 0.89564 0.34118 0.0
C169 C 0.43897 0.81119 0.30089 0.0
Co170 Co 0.38174 0.18594 0.56282 0.0
Co171 Co 0.41339 0.13111 0.53189 0.0
C172 C 0.42632 0.12791 0.57783 0.0
O173 O 0.40454 0.15235 0.58197 0.0
O174 O 0.43175 0.11802 0.5595 0.0
C175 C 0.35608 0.22263 0.59802 0.0
O176 O 0.36033 0.19183 0.60679 0.0
C177 C 0.43639 0.06287 0.51706 0.0
C178 C 0.45575 0.07653 0.48614 0.0
C179 C 0.45456 0.04972 0.50044 0.0
N180 N 0.42737 0.09624 0.51291 0.0
N181 N 0.43847 0.10408 0.49425 0.0
C182 C 0.43215 0.04567 0.53751 0.0
H183 H 0.45518 0.05221 0.54724 0.0
H184 H 0.40799 0.0555 0.54513 0.0
H185 H 0.43089 0.01662 0.53584 0.0
C186 C 0.31728 0.1694 0.53871 0.0
N187 N 0.35108 0.16346 0.54387 0.0
N188 N 0.36496 0.14152 0.53055 0.0
C189 C 0.34111 0.13408 0.51598 0.0
C190 C 0.3099 0.15134 0.52062 0.0
C191 C 0.29333 0.19326 0.55043 0.0
H192 H 0.29664 0.18855 0.5671 0.0
H193 H 0.26544 0.18917 0.54601 0.0
H194 H 0.30076 0.22101 0.54736 0.0
O195 O 0.42176 0.2092 0.54831 0.0
O196 O 0.43964 0.17223 0.5241 0.0
H197 H 0.32725 0.11358 0.48591 0.0
H198 H 0.35812 0.08742 0.50057 0.0
C199 C 0.34972 0.11459 0.4967 0.0
H200 H 0.37191 0.12793 0.48892 0.0
H201 H 0.43661 0.12904 0.48767 0.0
O202 O 0.35959 0.22511 0.57871 0.0
C203 C 0.44189 0.20134 0.53341 0.0
Co204 Co 0.04473 0.13335 0.81619 0.0
Co205 Co 0.10229 0.16303 0.78671 0.0
C206 C 0.10366 0.18086 0.83087 0.0
O207 O 0.07642 0.16209 0.8341 0.0
O208 O 0.11721 0.18351 0.81314 0.0
C209 C 0.99233 0.13159 0.84488 0.0
O210 O -0.00048 0.16531 0.84336 0.0
C211 C 0.16446 0.19289 0.76715 0.0
C212 C 0.14891 0.19141 0.7345 0.0
C213 C 0.17464 0.20323 0.74777 0.0
N214 N 0.13385 0.17563 0.76555 0.0
N215 N 0.12484 0.17453 0.74599 0.0
C216 C 0.18181 0.20226 0.78697 0.0
H217 H 0.16723 0.22431 0.79417 0.0
H218 H 0.18102 0.17938 0.79753 0.0
H219 H 0.20951 0.2105 0.78451 0.0
C220 C 0.06206 0.06826 0.79352 0.0
N221 N 0.06935 0.10154 0.79917 0.0
N222 N 0.0954 0.11358 0.7879 0.0
C223 C 0.1067 0.08773 0.77545 0.0
C224 C 0.08541 0.05844 0.77816 0.0
C225 C 0.03041 0.04843 0.80072 0.0
H226 H 0.00676 0.06537 0.79924 0.0
H227 H 0.03366 0.04203 0.8172 0.0
H228 H 0.02649 0.02376 0.79194 0.0
O229 O 0.01761 0.16551 0.79879 0.0
O230 O 0.0585 0.18693 0.77841 0.0
H231 H 0.12477 0.10276 0.74569 0.0
H232 H 0.14734 0.06556 0.75644 0.0
C233 C 0.1356 0.09158 0.76005 0.0
H234 H 0.1563 0.10941 0.76599 0.0
H235 H 0.10127 0.16392 0.74061 0.0
O236 O 0.00954 0.10987 0.83399 0.0
C237 C 0.02661 0.18531 0.78399 0.0
Co238 Co 0.12584 0.81517 0.0722 0.0
Co239 Co 0.09956 0.8801 0.04617 0.0
C240 C 0.09538 0.88163 0.09169 0.0
O241 O 0.10848 0.85076 0.09188 0.0
O242 O 0.09055 0.89782 0.07475 0.0
C243 C 0.15482 0.77839 0.10654 0.0
O244 O 0.16206 0.81023 0.113 0.0
C245 C 0.06965 0.94348 0.0267 0.0
C246 C 0.06308 0.92392 0.99508 0.0
C247 C 0.05479 0.95154 0.00792 0.0
N248 N 0.08602 0.91227 0.02514 0.0
N249 N 0.08239 0.90104 0.00608 0.0
C250 C 0.06338 0.96226 0.04638 0.0
H251 H 0.08769 0.96162 0.05576 0.0
H252 H 0.05528 0.98995 0.04364 0.0
H253 H 0.04206 0.94856 0.05481 0.0
C254 C 0.19035 0.82726 0.04739 0.0
N255 N 0.15752 0.83587 0.05326 0.0
N256 N 0.14639 0.86269 0.04219 0.0
C257 C 0.17165 0.87153 0.02863 0.0
C258 C 0.20032 0.84923 0.03132 0.0
C259 C 0.21127 0.79813 0.05685 0.0
H260 H 0.20998 0.80022 0.07378 0.0
H261 H 0.23913 0.79885 0.0518 0.0
H262 H 0.19943 0.77252 0.0525 0.0
O263 O 0.08432 0.79566 0.05804 0.0
O264 O 0.06534 0.8429 0.04149 0.0
H265 H 0.19276 0.9077 0.00588 0.0
H266 H 0.15339 0.92229 0.01875 0.0
C267 C 0.16732 0.89911 0.0124 0.0
H268 H 0.15159 0.88805 0.99967 0.0
H269 H 0.09038 0.87624 1.00104 0.0
O270 O 0.14401 0.77433 0.08828 0.0
C271 C 0.06207 0.81097 0.0466 0.0
Co272 Co 0.55689 0.86513 0.81681 0.0
Co273 Co 0.61279 0.83213 0.78708 0.0
C274 C 0.61839 0.8209 0.83149 0.0
O275 O 0.59 0.83794 0.83442 0.0
O276 O 0.63263 0.81946 0.81394 0.0
C277 C 0.53178 0.90104 0.85274 0.0
O278 O 0.56504 0.90922 0.85547 0.0
C279 C 0.67974 0.81026 0.76983 0.0
C280 C 0.66344 0.78484 0.74093 0.0
C281 C 0.69199 0.79032 0.75368 0.0
N282 N 0.6453 0.81623 0.76697 0.0
N283 N 0.63579 0.8014 0.7495 0.0
C284 C 0.69969 0.8199 0.78873 0.0
H285 H 0.697 0.79841 0.80015 0.0
H286 H 0.68899 0.84455 0.79538 0.0
H287 H 0.72807 0.82324 0.78524 0.0
C288 C 0.57369 0.92874 0.79208 0.0
N289 N 0.57998 0.8953 0.79783 0.0
N290 N 0.6025 0.88101 0.7851 0.0
C291 C 0.61151 0.90473 0.7708 0.0
C292 C 0.59626 0.93747 0.7756 0.0
C293 C 0.5403 0.9466 0.79859 0.0
H294 H 0.52031 0.92655 0.80272 0.0
H295 H 0.54502 0.96252 0.81255 0.0
H296 H 0.52911 0.963 0.78615 0.0
O297 O 0.5297 0.82932 0.8023 0.0
O298 O 0.57079 0.80208 0.78409 0.0
H299 H 0.61984 0.91172 0.73795 0.0
H300 H 0.65495 0.88926 0.75175 0.0
C301 C 0.62609 0.89315 0.75051 0.0
H302 H 0.61421 0.86762 0.74624 0.0
H303 H 0.60996 0.80061 0.7441 0.0
O304 O 0.5224 0.88702 0.83596 0.0
C305 C 0.53954 0.80418 0.79084 0.0
Co306 Co 0.87865 0.79877 0.57606 0.0
Co307 Co 0.91011 0.85169 0.54489 0.0
C308 C 0.92028 0.85668 0.59116 0.0
O309 O 0.89549 0.83531 0.59489 0.0
O310 O 0.92878 0.86438 0.57282 0.0
C311 C 0.84794 0.76648 0.61151 0.0
O312 O 0.83269 0.79701 0.61472 0.0
C313 C 0.93257 0.92028 0.52975 0.0
C314 C 0.95477 0.90563 0.49964 0.0
C315 C 0.95195 0.93298 0.51344 0.0
N316 N 0.92443 0.88659 0.52588 0.0
N317 N 0.93732 0.87818 0.50771 0.0
C318 C 0.92653 0.93815 0.5498 0.0
H319 H 0.94921 0.93284 0.56005 0.0
H320 H 0.9023 0.92775 0.55708 0.0
H321 H 0.92436 0.96705 0.54763 0.0
C322 C 0.81425 0.81094 0.55071 0.0
N323 N 0.84744 0.81841 0.55644 0.0
N324 N 0.86097 0.84143 0.54371 0.0
C325 C 0.83718 0.84908 0.52918 0.0
C326 C 0.80493 0.83282 0.53398 0.0
C327 C 0.79712 0.7775 0.55778 0.0
H328 H 0.81758 0.75824 0.56242 0.0
H329 H 0.78086 0.78261 0.57156 0.0
H330 H 0.7812 0.7653 0.54548 0.0
O331 O 0.92104 0.77797 0.56299 0.0
O332 O 0.93714 0.81086 0.53665 0.0
H333 H 0.83048 0.85545 0.49612 0.0
H334 H 0.85225 0.89163 0.50931 0.0
C335 C 0.84872 0.86267 0.50864 0.0
H336 H 0.87438 0.85077 0.50472 0.0
H337 H 0.93666 0.85289 0.50151 0.0
O338 O 0.86172 0.76029 0.59417 0.0
C339 C 0.94059 0.78357 0.54753 0.0
Co340 Co 0.93854 0.12355 0.3212 0.0
Co341 Co 0.88063 0.1567 0.29267 0.0
C342 C 0.87677 0.16753 0.33699 0.0
O343 O 0.9059 0.15136 0.33939 0.0
O344 O 0.86178 0.16926 0.31964 0.0
C345 C 0.96645 0.08852 0.35668 0.0
O346 O 0.93403 0.09306 0.36313 0.0
C347 C 0.81747 0.18727 0.27437 0.0
C348 C 0.8336 0.19423 0.2421 0.0
C349 C 0.80682 0.20115 0.25584 0.0
N350 N 0.84936 0.1727 0.27188 0.0
N351 N 0.85876 0.17672 0.2525 0.0
C352 C 0.79866 0.19025 0.29441 0.0
H353 H 0.8117 0.21069 0.30387 0.0
H354 H 0.80008 0.1648 0.30271 0.0
H355 H 0.7707 0.19775 0.29218 0.0
C356 C 0.92365 0.06208 0.29497 0.0
N357 N 0.91566 0.09444 0.30191 0.0
N358 N 0.8904 0.10786 0.29053 0.0
C359 C 0.88022 0.08372 0.27667 0.0
C360 C 0.90149 0.05418 0.27866 0.0
C361 C 0.95461 0.04128 0.30232 0.0
H362 H 0.97794 0.05871 0.30345 0.0
H363 H 0.94897 0.03109 0.31791 0.0
H364 H 0.96059 0.0189 0.29199 0.0
O365 O 0.96589 0.15822 0.30635 0.0
O366 O 0.92356 0.18601 0.28934 0.0
H367 H 0.8627 0.10443 0.24797 0.0
H368 H 0.84167 0.06392 0.25533 0.0
C369 C 0.85188 0.08942 0.2611 0.0
H370 H 0.83004 0.10482 0.26791 0.0
H371 H 0.88305 0.16892 0.24661 0.0
O372 O 0.97366 0.09855 0.33861 0.0
C373 C 0.95538 0.18349 0.29519 0.0
Co374 Co 0.60657 0.20893 0.06661 0.0
Co375 Co 0.57825 0.15002 0.03746 0.0
C376 C 0.56572 0.14767 0.08243 0.0
O377 O 0.5843 0.175 0.08508 0.0
O378 O 0.56079 0.13486 0.06472 0.0
C379 C 0.64143 0.23537 0.10213 0.0
O380 O 0.65455 0.20344 0.10327 0.0
C381 C 0.56371 0.07951 0.02304 0.0
C382 C 0.53655 0.0901 0.99373 0.0
C383 C 0.54487 0.06372 0.00751 0.0
N384 N 0.56618 0.11395 0.01884 0.0
N385 N 0.55048 0.12006 1.00111 0.0
C386 C 0.57497 0.063 0.04276 0.0
H387 H 0.59737 0.07781 0.04943 0.0
H388 H 0.58247 0.03509 0.04029 0.0
H389 H 0.55266 0.06363 0.05371 0.0
C390 C 0.67321 0.1917 0.04409 0.0
N391 N 0.63932 0.18573 0.04903 0.0
N392 N 0.62666 0.16128 0.03695 0.0
C393 C 0.65135 0.15158 0.02346 0.0
C394 C 0.68347 0.16761 0.02865 0.0
C395 C 0.69083 0.2253 0.0504 0.0
H396 H 0.67067 0.24583 0.0533 0.0
H397 H 0.70516 0.22136 0.06503 0.0
H398 H 0.70883 0.23518 0.03835 0.0
O399 O 0.56697 0.23145 0.05137 0.0
O400 O 0.55025 0.19026 0.02929 0.0
H401 H 0.65991 0.14305 0.99075 0.0
H402 H 0.63768 0.10756 0.00434 0.0
C403 C 0.64098 0.13649 0.00305 0.0
H404 H 0.61538 0.14777 0.99831 0.0
H405 H 0.54718 0.14504 0.99474 0.0
O406 O 0.6254 0.24478 0.08593 0.0
C407 C 0.54695 0.22063 0.03704 0.0
Co408 Co 0.55678 0.1219 0.67606 0.0
Co409 Co 0.6086 0.15832 0.70627 0.0
C410 C 0.61715 0.17115 0.66297 0.0
O411 O 0.58883 0.15401 0.65967 0.0
O412 O 0.63127 0.17158 0.68059 0.0
C413 C 0.53234 0.09143 0.63814 0.0
O414 O 0.56572 0.08943 0.63309 0.0
C415 C 0.66532 0.193 0.72856 0.0
C416 C 0.64042 0.20203 0.75871 0.0
C417 C 0.66997 0.20948 0.74719 0.0
N418 N 0.63411 0.17658 0.72884 0.0
N419 N 0.61956 0.18165 0.74701 0.0
C420 C 0.68875 0.19567 0.71024 0.0
H421 H 0.68925 0.17018 0.70198 0.0
H422 H 0.71589 0.20313 0.71475 0.0
H423 H 0.67829 0.21615 0.69976 0.0
C424 C 0.57625 0.05941 0.70167 0.0
N425 N 0.58052 0.093 0.69542 0.0
N426 N 0.60227 0.10897 0.70809 0.0
C427 C 0.61332 0.08592 0.72233 0.0
C428 C 0.59688 0.054 0.71898 0.0
C429 C 0.54993 0.03458 0.69278 0.0
H430 H 0.52337 0.04176 0.69846 0.0
H431 H 0.54975 0.03699 0.67584 0.0
H432 H 0.55579 0.00705 0.69735 0.0
O433 O 0.52475 0.15203 0.69126 0.0
O434 O 0.56394 0.18485 0.70736 0.0
H435 H 0.62134 0.10916 0.7517 0.0
H436 H 0.64816 0.07097 0.74704 0.0
C437 C 0.63684 0.09497 0.73993 0.0
H438 H 0.65849 0.11228 0.73465 0.0
H439 H 0.59453 0.17279 0.75102 0.0
O440 O 0.52414 0.09846 0.65654 0.0
C441 C 0.53257 0.179 0.70169 0.0
Co442 Co 0.62474 0.79587 0.43021 0.0
Co443 Co 0.59205 0.85788 0.45573 0.0
C444 C 0.59438 0.86295 0.41057 0.0
O445 O 0.60793 0.83221 0.41018 0.0
O446 O 0.58757 0.87772 0.42766 0.0
C447 C 0.66608 0.76487 0.39841 0.0
O448 O 0.67405 0.79802 0.39528 0.0
C449 C 0.55934 0.91993 0.47436 0.0
C450 C 0.55134 0.90145 0.50615 0.0
C451 C 0.54438 0.92892 0.49288 0.0
N452 N 0.57473 0.88839 0.47642 0.0
N453 N 0.56997 0.87753 0.49549 0.0
C454 C 0.55632 0.9395 0.45462 0.0
H455 H 0.53921 0.92439 0.44404 0.0
H456 H 0.58279 0.94178 0.44765 0.0
H457 H 0.54502 0.96615 0.45688 0.0
C458 C 0.68341 0.80726 0.46006 0.0
N459 N 0.65213 0.81575 0.45162 0.0
N460 N 0.63855 0.84251 0.46172 0.0
C461 C 0.66114 0.85245 0.4765 0.0
C462 C 0.68997 0.83021 0.47618 0.0
C463 C 0.70571 0.77712 0.45321 0.0
H464 H 0.68943 0.75292 0.4524 0.0
H465 H 0.71562 0.78257 0.43755 0.0
H466 H 0.72831 0.77288 0.46371 0.0
O467 O 0.58248 0.77389 0.44153 0.0
O468 O 0.55814 0.81939 0.45729 0.0
H469 H 0.6399 0.87238 0.50444 0.0
H470 H 0.6802 0.89298 0.49692 0.0
C471 C 0.65503 0.88219 0.4911 0.0
H472 H 0.64009 0.90358 0.4835 0.0
H473 H 0.57788 0.85295 0.50094 0.0
O474 O 0.64786 0.75771 0.41418 0.0
C475 C 0.55738 0.78761 0.45155 0.0
Co476 Co 0.94472 0.86433 0.18232 0.0
Co477 Co 0.88034 0.83574 0.20753 0.0
C478 C 0.88555 0.82412 0.1626 0.0
O479 O 0.91336 0.84272 0.16148 0.0
O480 O 0.86962 0.81938 0.1795 0.0
C481 C 0.00042 0.86953 0.15497 0.0
O482 O 0.99333 0.83575 0.15398 0.0
C483 C 0.8125 0.80804 0.22127 0.0
C484 C 0.82062 0.80536 0.25477 0.0
C485 C 0.79737 0.7966 0.23932 0.0
N486 N 0.8436 0.82289 0.22575 0.0
N487 N 0.84817 0.82144 0.24582 0.0
C488 C 0.79893 0.80228 0.20004 0.0
H489 H 0.80286 0.82646 0.19079 0.0
H490 H 0.77061 0.79519 0.20019 0.0
H491 H 0.81396 0.78058 0.19278 0.0
C492 C 0.92925 0.92681 0.20779 0.0
N493 N 0.9205 0.89502 0.20028 0.0
N494 N 0.8914 0.8842 0.20918 0.0
C495 C 0.87975 0.90952 0.22189 0.0
C496 C 0.90376 0.93705 0.22185 0.0
C497 C 0.9633 0.94489 0.20322 0.0
H498 H 0.98504 0.9254 0.20335 0.0
H499 H 0.96195 0.95641 0.18761 0.0
H500 H 0.96893 0.96611 0.21441 0.0
O501 O 0.96582 0.82479 0.19766 0.0
O502 O 0.92071 0.80751 0.21685 0.0
H503 H 0.8535 0.89312 0.24926 0.0
H504 H 0.83697 0.93337 0.23849 0.0
C505 C 0.84724 0.9068 0.23471 0.0
H506 H 0.82675 0.89158 0.22649 0.0
H507 H 0.87091 0.82987 0.25331 0.0
O508 O 0.98283 0.88889 0.16709 0.0
C509 C 0.95248 0.80446 0.21107 0.0
Co510 Co 0.87516 0.19579 0.93215 0.0
Co511 Co 0.89962 0.12694 0.955 0.0
C512 C 0.89961 0.12885 0.90983 0.0
O513 O 0.88926 0.16074 0.91096 0.0
O514 O 0.9045 0.11084 0.9261 0.0
C515 C 0.83184 0.23155 0.90302 0.0
O516 O 0.82102 0.19918 0.90001 0.0
C517 C 0.93449 0.06462 0.97222 0.0
C518 C 0.93176 0.07643 0.00531 0.0
C519 C 0.94603 0.05342 0.99123 0.0
N520 N 0.91379 0.0929 0.97485 0.0
N521 N 0.91234 0.09978 0.9947 0.0
C522 C 0.94641 0.05135 0.95187 0.0
H523 H 0.95746 0.07347 0.94283 0.0
H524 H 0.92326 0.04078 0.9436 0.0
H525 H 0.96642 0.03025 0.95342 0.0
C526 C 0.81397 0.18624 0.96016 0.0
N527 N 0.84462 0.17542 0.95191 0.0
N528 N 0.85406 0.1455 0.96056 0.0
C529 C 0.82912 0.13583 0.97408 0.0
C530 C 0.80334 0.16161 0.97462 0.0
C531 C 0.79597 0.21996 0.95472 0.0
H532 H 0.8156 0.24152 0.95387 0.0
H533 H 0.78379 0.21724 0.93936 0.0
H534 H 0.77517 0.22664 0.96599 0.0
O535 O 0.91841 0.21297 0.94537 0.0
O536 O 0.93533 0.16284 0.95973 0.0
H537 H 0.83959 0.1091 0.00227 0.0
H538 H 0.80327 0.0916 0.98836 0.0
C539 C 0.82998 0.10285 0.98666 0.0
H540 H 0.84711 0.08281 0.97946 0.0
H541 H 0.90041 0.12208 1.0009 0.0
O542 O 0.85432 0.23645 0.91714 0.0
C543 C 0.94034 0.19503 0.9557 0.0
Co544 Co 0.95754 0.6304 0.69355 0.0
Co545 Co 0.90491 0.66972 0.72267 0.0
C546 C 0.90197 0.67914 0.67719 0.0
O547 O 0.92716 0.65773 0.67407 0.0
O548 O 0.89144 0.68628 0.69515 0.0
C549 C 0.98326 0.59217 0.65892 0.0
O550 O 0.9505 0.59707 0.65316 0.0
C551 C 0.83765 0.69631 0.73681 0.0
C552 C 0.85131 0.71965 0.76677 0.0
C553 C 0.82436 0.71629 0.75266 0.0
N554 N 0.87123 0.68839 0.74113 0.0
N555 N 0.87913 0.70195 0.75921 0.0
C556 C 0.81958 0.68747 0.71714 0.0
H557 H 0.82431 0.70891 0.70592 0.0
H558 H 0.83023 0.66256 0.7108 0.0
H559 H 0.79076 0.6851 0.71952 0.0
C560 C 0.93263 0.56938 0.71873 0.0
N561 N 0.93052 0.60315 0.71243 0.0
N562 N 0.90822 0.62006 0.72434 0.0
C563 C 0.89537 0.59771 0.73845 0.0
C564 C 0.91048 0.56492 0.7355 0.0
C565 C 0.95788 0.54312 0.71015 0.0
H566 H 0.98516 0.55212 0.71318 0.0
H567 H 0.95448 0.54166 0.69329 0.0
H568 H 0.95392 0.5167 0.71704 0.0
O569 O 0.98695 0.66376 0.70933 0.0
O570 O 0.95021 0.69092 0.73016 0.0
H571 H 0.88606 0.62823 0.76537 0.0
H572 H 0.86449 0.58591 0.76557 0.0
C573 C 0.87209 0.60858 0.75581 0.0
H574 H 0.848 0.62118 0.74962 0.0
H575 H 0.90398 0.70058 0.76593 0.0
O576 O 0.99168 0.60271 0.67672 0.0
C577 C 0.9813 0.68556 0.72377 0.0
Co578 Co 0.62583 0.67217 0.92644 0.0
Co579 Co 0.59671 0.6213 0.96038 0.0
C580 C 0.57965 0.60918 0.9168 0.0
O581 O 0.59607 0.63702 0.91152 0.0
O582 O 0.5807 0.59762 0.93511 0.0
C583 C 0.62695 0.724 0.8969 0.0
O584 O 0.59335 0.72132 0.90111 0.0
C585 C 0.5662 0.56511 0.98482 0.0
C586 C 0.56065 0.59158 0.0148 0.0
C587 C 0.55154 0.56163 0.00406 0.0
N588 N 0.58321 0.59596 0.98405 0.0
N589 N 0.58032 0.6114 0.00213 0.0
C590 C 0.55943 0.54208 0.96669 0.0
H591 H 0.53795 0.55371 0.95737 0.0
H592 H 0.58344 0.54039 0.95709 0.0
H593 H 0.55136 0.51528 0.97156 0.0
C594 C 0.69221 0.65795 0.94895 0.0
N595 N 0.65789 0.65177 0.94532 0.0
N596 N 0.64534 0.63158 0.96 0.0
C597 C 0.67117 0.62436 0.97347 0.0
C598 C 0.70165 0.64118 0.96709 0.0
C599 C 0.71455 0.68165 0.93611 0.0
H600 H 0.71153 0.67448 0.91973 0.0
H601 H 0.74267 0.67992 0.94058 0.0
H602 H 0.70531 0.70918 0.9379 0.0
O603 O 0.59216 0.70192 0.94126 0.0
O604 O 0.56765 0.66349 0.96241 0.0
H605 H 0.65134 0.62176 0.00398 0.0
H606 H 0.691 0.59709 1.00038 0.0
C607 C 0.6658 0.6047 0.99311 0.0
H608 H 0.64998 0.5807 0.99024 0.0
H609 H 0.5892 0.63681 0.00527 0.0
O610 O 0.64875 0.70398 0.90604 0.0
C611 C 0.56891 0.69378 0.95439 0.0
Co612 Co 0.54476 0.36403 0.18893 0.0
Co613 Co 0.60082 0.32968 0.21809 0.0
C614 C 0.60294 0.31916 0.17255 0.0
O615 O 0.57625 0.33869 0.16981 0.0
O616 O 0.61507 0.31325 0.19036 0.0
C617 C 0.51349 0.39254 0.15313 0.0
O618 O 0.54608 0.39135 0.14654 0.0
C619 C 0.66905 0.30513 0.23261 0.0
C620 C 0.65591 0.28582 0.26361 0.0
C621 C 0.68249 0.28693 0.24918 0.0
N622 N 0.63573 0.31424 0.2369 0.0
N623 N 0.62823 0.30314 0.2556 0.0
C624 C 0.68633 0.31013 0.21225 0.0
H625 H 0.67963 0.28757 0.20221 0.0
H626 H 0.67675 0.33471 0.20494 0.0
H627 H 0.71537 0.3111 0.21397 0.0
C628 C 0.56527 0.42772 0.21245 0.0
N629 N 0.56999 0.39388 0.20702 0.0
N630 N 0.5925 0.37908 0.21974 0.0
C631 C 0.60203 0.40276 0.23403 0.0
C632 C 0.58507 0.43447 0.22998 0.0
C633 C 0.54019 0.45207 0.2019 0.0
H634 H 0.54304 0.44934 0.18506 0.0
H635 H 0.54481 0.47982 0.20646 0.0
H636 H 0.51286 0.44453 0.20592 0.0
O637 O 0.51876 0.32866 0.20526 0.0
O638 O 0.55791 0.30426 0.22576 0.0
H639 H 0.62709 0.41662 0.26286 0.0
H640 H 0.6494 0.38354 0.24773 0.0
C641 C 0.62336 0.39372 0.25258 0.0
H642 H 0.60981 0.37262 0.26125 0.0
H643 H 0.60352 0.30548 0.26241 0.0
O644 O 0.50746 0.38682 0.17199 0.0
C645 C 0.52642 0.30711 0.21954 0.0
Co646 Co 0.87594 0.29769 0.43607 0.0
Co647 Co 0.90703 0.35335 0.46604 0.0
C648 C 0.92605 0.35304 0.42169 0.0
O649 O 0.90541 0.3275 0.41801 0.0
O650 O 0.92934 0.36559 0.4396 0.0
C651 C 0.84261 0.26764 0.40073 0.0
O652 O 0.83308 0.30014 0.39662 0.0
C653 C 0.92803 0.42194 0.48096 0.0
C654 C 0.94739 0.40902 0.51201 0.0
C655 C 0.94533 0.43574 0.4977 0.0
N656 N 0.92035 0.38826 0.48506 0.0
N657 N 0.93142 0.38083 0.50378 0.0
C658 C 0.92333 0.43898 0.4605 0.0
H659 H 0.94709 0.43413 0.45105 0.0
H660 H 0.90016 0.42761 0.45256 0.0
H661 H 0.92004 0.46786 0.46223 0.0
C662 C 0.80944 0.3206 0.45605 0.0
N663 N 0.84381 0.32475 0.45174 0.0
N664 N 0.85745 0.34784 0.46437 0.0
C665 C 0.83252 0.35904 0.47733 0.0
C666 C 0.79987 0.34493 0.47146 0.0
C667 C 0.79082 0.28747 0.44984 0.0
H668 H 0.81029 0.2664 0.44677 0.0
H669 H 0.77609 0.29185 0.43539 0.0
H670 H 0.77312 0.27778 0.46208 0.0
O671 O 0.90742 0.2716 0.45445 0.0
O672 O 0.9293 0.31044 0.47596 0.0
H673 H 0.82206 0.36834 0.50985 0.0
H674 H 0.84813 0.40178 0.49689 0.0
C675 C 0.84232 0.37324 0.49804 0.0
H676 H 0.86628 0.35965 0.5035 0.0
H677 H 0.93011 0.35591 0.51044 0.0
O678 O 0.85626 0.26072 0.41799 0.0
C679 C 0.92682 0.27902 0.46971 0.0
Co680 Co 0.93038 0.35482 0.82076 0.0
Co681 Co 0.86784 0.33768 0.79153 0.0
C682 C 0.86412 0.31983 0.83592 0.0
O683 O 0.89498 0.33178 0.83882 0.0
O684 O 0.84944 0.32217 0.81849 0.0
C685 C 0.96296 0.38848 0.85513 0.0
O686 O 0.93244 0.40425 0.85731 0.0
C687 C 0.79849 0.32166 0.77511 0.0
C688 C 0.81263 0.30411 0.74393 0.0
C689 C 0.78542 0.30495 0.75793 0.0
N690 N 0.83231 0.32991 0.7716 0.0
N691 N 0.84033 0.32003 0.75275 0.0
C692 C 0.78077 0.32415 0.79549 0.0
H693 H 0.78662 0.30009 0.80451 0.0
H694 H 0.79055 0.34746 0.80398 0.0
H695 H 0.75181 0.326 0.79354 0.0
C696 C 0.92225 0.42511 0.80065 0.0
N697 N 0.91098 0.39214 0.80453 0.0
N698 N 0.88463 0.38473 0.7923 0.0
C699 C 0.87792 0.41266 0.7803 0.0
C700 C 0.89935 0.44109 0.78626 0.0
C701 C 0.95904 0.43563 0.80626 0.0
H702 H 0.97565 0.41181 0.80806 0.0
H703 H 0.95914 0.44934 0.82124 0.0
H704 H 0.97125 0.45219 0.79423 0.0
O705 O 0.95046 0.31744 0.80354 0.0
O706 O 0.90538 0.305 0.78323 0.0
H707 H 0.86509 0.42898 0.74903 0.0
H708 H 0.82966 0.40808 0.76335 0.0
C709 C 0.85841 0.4085 0.76044 0.0
H710 H 0.86579 0.38313 0.75342 0.0
H711 H 0.86563 0.32104 0.74659 0.0
O712 O 0.96842 0.36932 0.83956 0.0
C713 C 0.93654 0.29929 0.78936 0.0
Co714 Co 0.88592 0.69703 0.06323 0.0
Co715 Co 0.92918 0.64848 0.03373 0.0
C716 C 0.93564 0.64275 0.07938 0.0
O717 O 0.91268 0.66656 0.08225 0.0
O718 O 0.94449 0.63312 0.06147 0.0
C719 C 0.85305 0.72464 0.09858 0.0
O720 O 0.85739 0.69233 0.10524 0.0
C721 C 0.95562 0.58278 0.01761 0.0
C722 C 0.98071 0.59911 0.98857 0.0
C723 C 0.9755 0.57066 1.00143 0.0
N724 N 0.94933 0.61708 0.01463 0.0
N725 N 0.96408 0.62671 0.99716 0.0
C726 C 0.94489 0.56269 0.03628 0.0
H727 H 0.9659 0.56496 0.04801 0.0
H728 H 0.92021 0.57376 0.04268 0.0
H729 H 0.94126 0.53439 0.03264 0.0
C730 C 0.82743 0.67128 0.03719 0.0
N731 N 0.86115 0.67062 0.04341 0.0
N732 N 0.87966 0.65137 0.03057 0.0
C733 C 0.85854 0.64009 0.0154 0.0
C734 C 0.82468 0.65228 0.01904 0.0
C735 C 0.79917 0.6918 0.04773 0.0
H736 H 0.80145 0.68823 0.06455 0.0
H737 H 0.77266 0.68352 0.04249 0.0
H738 H 0.8028 0.72021 0.04439 0.0
O739 O 0.92036 0.72797 0.04949 0.0
O740 O 0.95055 0.69428 0.02843 0.0
H741 H 0.85046 0.61803 0.98506 0.0
H742 H 0.88215 0.59544 1.00103 0.0
C743 C 0.87151 0.62157 0.99663 0.0
H744 H 0.89317 0.63703 0.98968 0.0
H745 H 0.96386 0.65237 0.99146 0.0
O746 O 0.85733 0.73078 0.07962 0.0
C747 C 0.94399 0.72441 0.03587 0.0
Co748 Co 0.55403 0.63494 0.32268 0.0
Co749 Co 0.6036 0.66569 0.28858 0.0
C750 C 0.61729 0.67623 0.33419 0.0
O751 O 0.5909 0.6579 0.33981 0.0
O752 O 0.62489 0.67992 0.3153 0.0
C753 C 0.52408 0.60157 0.35839 0.0
O754 O 0.55615 0.6062 0.36539 0.0
C755 C 0.66708 0.69135 0.26833 0.0
C756 C 0.6462 0.70643 0.23796 0.0
C757 C 0.67574 0.70818 0.25026 0.0
N758 N 0.63368 0.68015 0.26692 0.0
N759 N 0.62153 0.68879 0.2486 0.0
C760 C 0.6887 0.69009 0.28745 0.0
H761 H 0.68364 0.66517 0.29581 0.0
H762 H 0.71714 0.69234 0.28384 0.0
H763 H 0.68121 0.71246 0.29746 0.0
C764 C 0.56782 0.56956 0.29823 0.0
N765 N 0.57309 0.60396 0.30228 0.0
N766 N 0.5929 0.61743 0.28772 0.0
C767 C 0.60002 0.59253 0.27369 0.0
C768 C 0.58441 0.5612 0.2798 0.0
C769 C 0.54658 0.54558 0.31153 0.0
H770 H 0.55449 0.54912 0.32776 0.0
H771 H 0.55002 0.51764 0.30703 0.0
H772 H 0.51839 0.55282 0.31027 0.0
O773 O 0.52807 0.67462 0.31016 0.0
O774 O 0.56083 0.69306 0.28427 0.0
H775 H 0.60424 0.61968 0.24519 0.0
H776 H 0.62151 0.5757 0.24441 0.0
C777 C 0.61897 0.59958 0.25401 0.0
H778 H 0.6455 0.61027 0.25739 0.0
H779 H 0.59561 0.68479 0.24388 0.0
O780 O 0.51794 0.6114 0.34016 0.0
C781 C 0.53338 0.69534 0.29517 0.0
Co782 Co 0.61349 0.30506 0.56695 0.0
Co783 Co 0.58175 0.366 0.54036 0.0
C784 C 0.56914 0.36343 0.58491 0.0
O785 O 0.58689 0.33519 0.58677 0.0
O786 O 0.56506 0.37844 0.56772 0.0
C787 C 0.64752 0.27308 0.60114 0.0
O788 O 0.64494 0.30558 0.60781 0.0
C789 C 0.5538 0.43242 0.52535 0.0
C790 C 0.54546 0.42038 0.49256 0.0
C791 C 0.53979 0.44558 0.50743 0.0
N792 N 0.56715 0.40051 0.52139 0.0
N793 N 0.56245 0.39358 0.50173 0.0
C794 C 0.55164 0.4486 0.54618 0.0
H795 H 0.52929 0.43669 0.55463 0.0
H796 H 0.5762 0.44322 0.55482 0.0
H797 H 0.54727 0.47743 0.54511 0.0
C798 C 0.6771 0.32567 0.54309 0.0
N799 N 0.64416 0.33167 0.54989 0.0
N800 N 0.63069 0.35828 0.53956 0.0
C801 C 0.65483 0.37067 0.52638 0.0
C802 C 0.68467 0.35007 0.52783 0.0
C803 C 0.69869 0.29446 0.5491 0.0
H804 H 0.68471 0.27008 0.54449 0.0
H805 H 0.7016 0.29386 0.566 0.0
H806 H 0.72503 0.29514 0.54178 0.0
O807 O 0.57913 0.28067 0.5495 0.0
O808 O 0.55663 0.32403 0.53132 0.0
H809 H 0.63334 0.38711 0.49771 0.0
H810 H 0.67287 0.40989 0.50474 0.0
C811 C 0.64799 0.39869 0.51074 0.0
H812 H 0.63217 0.42018 0.51758 0.0
H813 H 0.56926 0.36981 0.4948 0.0
O814 O 0.63713 0.26713 0.58299 0.0
C815 C 0.55832 0.29159 0.5356 0.0
Co816 Co 0.0546 0.36612 0.32181 0.0
Co817 Co 0.11453 0.33966 0.293 0.0
C818 C 0.11908 0.32353 0.33618 0.0
O819 O 0.08902 0.33783 0.33846 0.0
O820 O 0.13565 0.32588 0.31933 0.0
C821 C 0.02732 0.39222 0.35953 0.0
O822 O 0.06062 0.39647 0.3643 0.0
C823 C 0.17453 0.30945 0.2715 0.0
C824 C 0.1551 0.30913 0.23958 0.0
C825 C 0.18211 0.29752 0.25205 0.0
N826 N 0.14409 0.32726 0.27076 0.0
N827 N 0.13284 0.32739 0.25158 0.0
C828 C 0.19383 0.30039 0.29076 0.0
H829 H 0.17924 0.27951 0.29904 0.0
H830 H 0.19551 0.3239 0.30076 0.0
H831 H 0.22075 0.29064 0.2874 0.0
C832 C 0.06494 0.43083 0.29675 0.0
N833 N 0.07506 0.39877 0.30336 0.0
N834 N 0.10178 0.38798 0.2922 0.0
C835 C 0.11089 0.41365 0.27902 0.0
C836 C 0.0873 0.44132 0.28097 0.0
C837 C 0.03219 0.44889 0.30384 0.0
H838 H 0.01092 0.42926 0.30607 0.0
H839 H 0.03738 0.46141 0.31889 0.0
H840 H 0.02358 0.46939 0.2928 0.0
O841 O 0.02887 0.33134 0.30621 0.0
O842 O 0.07357 0.3076 0.28939 0.0
H843 H 0.13174 0.3992 0.24977 0.0
H844 H 0.15101 0.43808 0.26058 0.0
C845 C 0.14088 0.4114 0.26423 0.0
H846 H 0.16239 0.39513 0.27073 0.0
H847 H 0.10873 0.33785 0.24694 0.0
O848 O 0.01908 0.38485 0.34119 0.0
C849 C 0.04143 0.3076 0.2947 0.0
Co850 Co 0.36836 0.31025 0.06735 0.0
Co851 Co 0.39896 0.37617 0.04468 0.0
C852 C 0.41268 0.3658 0.08871 0.0
O853 O 0.39465 0.33758 0.08856 0.0
O854 O 0.41592 0.3846 0.07276 0.0
C855 C 0.33959 0.27205 0.10048 0.0
O856 O 0.33823 0.30368 0.1085 0.0
C857 C 0.42943 0.44347 0.03287 0.0
C858 C 0.43536 0.43596 0.99946 0.0
C859 C 0.44384 0.45817 0.01546 0.0
N860 N 0.41318 0.41354 0.02749 0.0
N861 N 0.41638 0.40946 0.00746 0.0
C862 C 0.43501 0.4554 0.05444 0.0
H863 H 0.45642 0.43959 0.06146 0.0
H864 H 0.41064 0.45133 0.06348 0.0
H865 H 0.44262 0.48359 0.05493 0.0
C866 C 0.30504 0.33151 0.04379 0.0
N867 N 0.3372 0.33827 0.05155 0.0
N868 N 0.34985 0.36687 0.0428 0.0
C869 C 0.32568 0.37973 0.0297 0.0
C870 C 0.29692 0.3574 0.02951 0.0
C871 C 0.28512 0.2983 0.04774 0.0
H872 H 0.29988 0.2758 0.04114 0.0
H873 H 0.28306 0.29387 0.0645 0.0
H874 H 0.25844 0.29937 0.04084 0.0
O875 O 0.40372 0.28968 0.04903 0.0
O876 O 0.42612 0.33634 0.03388 0.0
H877 H 0.34522 0.40081 0.00161 0.0
H878 H 0.30622 0.42209 0.01078 0.0
C879 C 0.33156 0.41019 0.01557 0.0
H880 H 0.34774 0.43058 0.0232 0.0
H881 H 0.40787 0.38725 0.99949 0.0
O882 O 0.34683 0.26908 0.08158 0.0
C883 C 0.42517 0.30328 0.03635 0.0
Co884 Co 0.4442 0.61887 0.82319 0.0
Co885 Co 0.38233 0.64884 0.79642 0.0
C886 C 0.38259 0.6623 0.84018 0.0
O887 O 0.41235 0.64694 0.84161 0.0
O888 O 0.36485 0.66174 0.82367 0.0
C889 C 0.47312 0.58279 0.85797 0.0
O890 O 0.44047 0.58594 0.86426 0.0
C891 C 0.32245 0.6844 0.77756 0.0
C892 C 0.33798 0.68401 0.74493 0.0
C893 C 0.31359 0.6975 0.75851 0.0
N894 N 0.35108 0.66401 0.77549 0.0
N895 N 0.36 0.6636 0.7559 0.0
C896 C 0.30632 0.69447 0.7976 0.0
H897 H 0.32383 0.71339 0.80552 0.0
H898 H 0.30341 0.67079 0.8074 0.0
H899 H 0.2802 0.70697 0.79536 0.0
C900 C 0.42926 0.55636 0.79777 0.0
N901 N 0.42056 0.58844 0.80487 0.0
N902 N 0.39338 0.60039 0.79449 0.0
C903 C 0.38273 0.57549 0.78123 0.0
C904 C 0.40564 0.54715 0.78243 0.0
C905 C 0.46202 0.53721 0.80387 0.0
H906 H 0.48461 0.5557 0.80376 0.0
H907 H 0.45895 0.52734 0.81977 0.0
H908 H 0.46756 0.51473 0.79353 0.0
O909 O 0.46957 0.65405 0.80744 0.0
O910 O 0.42406 0.67902 0.79186 0.0
H911 H 0.36133 0.591 0.75228 0.0
H912 H 0.34081 0.55302 0.76338 0.0
C913 C 0.35225 0.57922 0.76688 0.0
H914 H 0.33178 0.59641 0.77368 0.0
H915 H 0.38264 0.65149 0.75025 0.0
O916 O 0.48033 0.59456 0.84025 0.0
C917 C 0.45655 0.67822 0.79634 0.0
Co918 Co 0.12298 0.67388 0.57558 0.0
Co919 Co 0.08476 0.61889 0.54824 0.0
C920 C 0.07752 0.6126 0.59213 0.0
O921 O 0.09457 0.6414 0.59404 0.0
O922 O 0.07504 0.59725 0.57489 0.0
C923 C 0.13404 0.71883 0.60788 0.0
O924 O 0.10299 0.7057 0.61206 0.0
C925 C 0.04865 0.56187 0.52704 0.0
C926 C 0.04116 0.58521 0.49625 0.0
C927 C 0.03322 0.5563 0.50821 0.0
N928 N 0.0651 0.593 0.52643 0.0
N929 N 0.06073 0.60675 0.50798 0.0
C930 C 0.04569 0.53919 0.54569 0.0
H931 H 0.07145 0.53798 0.55365 0.0
H932 H 0.03694 0.5122 0.54168 0.0
H933 H 0.02623 0.55099 0.55631 0.0
C934 C 0.18176 0.65623 0.54723 0.0
N935 N 0.14964 0.65027 0.55527 0.0
N936 N 0.13335 0.62659 0.54405 0.0
C937 C 0.15498 0.61579 0.52901 0.0
C938 C 0.186 0.63461 0.53026 0.0
C939 C 0.20589 0.68483 0.55419 0.0
H940 H 0.19326 0.71069 0.5513 0.0
H941 H 0.2102 0.68247 0.57095 0.0
H942 H 0.23149 0.68367 0.54604 0.0
O943 O 0.08915 0.70414 0.56162 0.0
O944 O 0.05688 0.66248 0.54734 0.0
H945 H 0.13115 0.60413 0.5002 0.0
H946 H 0.16912 0.57782 0.50586 0.0
C947 C 0.1453 0.59008 0.5126 0.0
H948 H 0.12812 0.56917 0.51892 0.0
H949 H 0.07012 0.63142 0.50361 0.0
O950 O 0.15101 0.70734 0.5925 0.0
C951 C 0.06168 0.69441 0.55218 0.0
Co952 Co 0.05362 0.63343 0.1844 0.0
Co953 Co 0.11486 0.65968 0.21264 0.0
C954 C 0.11479 0.67753 0.16877 0.0
O955 O 0.08601 0.66099 0.1665 0.0
O956 O 0.13031 0.67859 0.18596 0.0
C957 C 0.02582 0.60693 0.14747 0.0
O958 O 0.05935 0.60561 0.14276 0.0
C959 C 0.17905 0.68828 0.23044 0.0
C960 C 0.16564 0.68854 0.26338 0.0
C961 C 0.19046 0.69977 0.24935 0.0
N962 N 0.14857 0.67104 0.23302 0.0
N963 N 0.14094 0.67086 0.25279 0.0
C964 C 0.19478 0.69744 0.21013 0.0
H965 H 0.1794 0.71914 0.2031 0.0
H966 H 0.19371 0.67427 0.19983 0.0
H967 H 0.22249 0.70616 0.21184 0.0
C968 C 0.06639 0.56837 0.20808 0.0
N969 N 0.0766 0.60034 0.20145 0.0
N970 N 0.10414 0.61065 0.21212 0.0
C971 C 0.11352 0.58464 0.22505 0.0
C972 C 0.08935 0.55737 0.22341 0.0
C973 C 0.03254 0.55141 0.20186 0.0
H974 H 0.01134 0.57148 0.20135 0.0
H975 H 0.03548 0.54058 0.18617 0.0
H976 H 0.02504 0.52986 0.21247 0.0
O977 O 0.0294 0.66735 0.20183 0.0
O978 O 0.07284 0.68713 0.22104 0.0
H979 H 0.13479 0.59908 0.2542 0.0
H980 H 0.15346 0.55985 0.24347 0.0
C981 C 0.14364 0.58663 0.23977 0.0
H982 H 0.16529 0.60256 0.23316 0.0
H983 H 0.11758 0.66092 0.25887 0.0
O984 O 0.01712 0.61366 0.16585 0.0
C985 C 0.04058 0.68737 0.216 0.0
Co986 Co 0.11174 0.30116 0.93305 0.0
Co987 Co 0.0766 0.35154 0.96484 0.0
C988 C 0.05957 0.35587 0.92041 0.0
O989 O 0.08122 0.33158 0.91607 0.0
O990 O 0.05488 0.36599 0.93871 0.0
C991 C 0.1431 0.27782 0.89541 0.0
O992 O 0.14996 0.31125 0.89219 0.0
C993 C 0.05674 0.41927 0.98109 0.0
C994 C 0.03209 0.40552 0.0107 0.0
C995 C 0.03845 0.43318 0.99742 0.0
N996 N 0.06099 0.38474 0.98438 0.0
N997 N 0.04663 0.37666 0.00223 0.0
C998 C 0.06683 0.43779 0.96176 0.0
H999 H 0.044 0.43785 0.95116 0.0
H1000 H 0.0891 0.424 0.95425 0.0
H1001 H 0.07404 0.46553 0.96501 0.0
C1002 C 0.17644 0.32585 0.95486 0.0
N1003 N 0.14192 0.32805 0.95033 0.0
N1004 N 0.12645 0.34875 0.96364 0.0
C1005 C 0.15022 0.36015 0.97727 0.0
C1006 C 0.18396 0.34898 0.97131 0.0
C1007 C 0.19768 0.29525 0.94727 0.0
H1008 H 0.17992 0.27342 0.94279 0.0
H1009 H 0.21248 0.30286 0.93333 0.0
H1010 H 0.21567 0.28511 0.95926 0.0
O1011 O 0.08085 0.27114 0.94987 0.0
O1012 O 0.05635 0.30629 0.97261 0.0
H1013 H 0.1589 0.3665 0.01015 0.0
H1014 H 0.1323 0.40037 0.99795 0.0
C1015 C 0.13889 0.37193 0.99824 0.0
H1016 H 0.11498 0.35729 0.00282 0.0
H1017 H 0.04525 0.3512 0.00816 0.0
O1018 O 0.13321 0.26796 0.91309 0.0
C1019 C 0.0606 0.27578 0.96514 0.0
Co1020 Co 0.43888 0.36381 0.68049 0.0
Co1021 Co 0.37554 0.33519 0.70543 0.0
C1022 C 0.38045 0.32858 0.6595 0.0
O1023 O 0.40533 0.35082 0.65868 0.0
O1024 O 0.36637 0.32023 0.67653 0.0
C1025 C 0.47757 0.40355 0.65116 0.0
O1026 O 0.44879 0.42242 0.6493 0.0
C1027 C 0.30604 0.31021 0.71775 0.0
C1028 C 0.31351 0.30433 0.75116 0.0
C1029 C 0.29008 0.29805 0.7354 0.0
N1030 N 0.3376 0.32333 0.72281 0.0
N1031 N 0.34177 0.32005 0.74283 0.0
C1032 C 0.29294 0.30639 0.69628 0.0
H1033 H 0.30759 0.28488 0.68859 0.0
H1034 H 0.29788 0.33114 0.68774 0.0
H1035 H 0.26442 0.30015 0.69599 0.0
C1036 C 0.42916 0.4244 0.70833 0.0
N1037 N 0.41871 0.39377 0.7 0.0
N1038 N 0.38969 0.38309 0.70906 0.0
C1039 C 0.37984 0.40757 0.72283 0.0
C1040 C 0.40489 0.43413 0.72316 0.0
C1041 C 0.46331 0.44203 0.70342 0.0
H1042 H 0.48397 0.42196 0.70066 0.0
H1043 H 0.46014 0.45765 0.68918 0.0
H1044 H 0.47162 0.45991 0.71596 0.0
O1045 O 0.45482 0.31976 0.69315 0.0
O1046 O 0.41277 0.30289 0.7145 0.0
H1047 H 0.35409 0.39019 0.75013 0.0
H1048 H 0.33891 0.4319 0.7407 0.0
C1049 C 0.34778 0.40524 0.73605 0.0
H1050 H 0.32625 0.39171 0.72775 0.0
H1051 H 0.36484 0.32656 0.75062 0.0
O1052 O 0.48034 0.38193 0.66587 0.0
C1053 C 0.44298 0.29883 0.70665 0.0
Co1054 Co 0.36852 0.68632 0.42961 0.0
Co1055 Co 0.40346 0.63565 0.46135 0.0
C1056 C 0.41573 0.62569 0.41705 0.0
O1057 O 0.39735 0.65276 0.41253 0.0
O1058 O 0.41704 0.61385 0.43526 0.0
C1059 C 0.36341 0.73597 0.3993 0.0
O1060 O 0.39608 0.72514 0.39767 0.0
C1061 C 0.43041 0.57404 0.48232 0.0
C1062 C 0.45289 0.59781 0.51032 0.0
C1063 C 0.4508 0.56687 0.49929 0.0
N1064 N 0.4209 0.60794 0.48309 0.0
N1065 N 0.43388 0.6219 0.50004 0.0
C1066 C 0.42451 0.5505 0.46432 0.0
H1067 H 0.44606 0.5545 0.45309 0.0
H1068 H 0.39911 0.557 0.45683 0.0
H1069 H 0.42465 0.52246 0.46912 0.0
C1070 C 0.30516 0.66773 0.45473 0.0
N1071 N 0.33929 0.66383 0.44957 0.0
N1072 N 0.35459 0.64323 0.46299 0.0
C1073 C 0.33098 0.63285 0.47699 0.0
C1074 C 0.29748 0.64524 0.47144 0.0
C1075 C 0.28483 0.69906 0.44727 0.0
H1076 H 0.30323 0.72039 0.4429 0.0
H1077 H 0.26964 0.6921 0.43335 0.0
H1078 H 0.26745 0.70978 0.45936 0.0
O1079 O 0.40382 0.71635 0.44277 0.0
O1080 O 0.4314 0.67863 0.46301 0.0
H1081 H 0.32234 0.62269 0.50957 0.0
H1082 H 0.34924 0.59054 0.49611 0.0
C1083 C 0.34234 0.61881 0.49748 0.0
H1084 H 0.36607 0.63317 0.50258 0.0
H1085 H 0.43182 0.64849 0.50385 0.0
O1086 O 0.34305 0.72043 0.41182 0.0
C1087 C 0.4288 0.70874 0.45487 0.0
C1088 C 0.26917 0.2549 0.23812 0.0
C1089 C 0.26056 0.21887 0.24129 0.0
C1090 C 0.19983 0.23437 0.24913 0.0
C1091 C 0.20844 0.27053 0.24681 0.0
N1092 N 0.25105 0.31615 0.24061 0.0
N1093 N 0.21784 0.17377 0.24895 0.0
C1094 C 0.24303 0.28108 0.24153 0.0
C1095 C 0.22601 0.20855 0.24649 0.0
N1096 N 0.30216 0.26391 0.23157 0.0
N1097 N 0.16684 0.22355 0.25432 0.0
H1098 H 0.23615 0.15357 0.24705 0.0
H1099 H 0.19259 0.16523 0.2528 0.0
H1100 H 0.14556 0.24039 0.25677 0.0
H1101 H 0.14556 0.24039 0.25677 0.0
H1102 H 0.30923 0.28901 0.22675 0.0
H1103 H 0.32254 0.24578 0.22992 0.0
H1104 H 0.27642 0.32604 0.23915 0.0
H1105 H 0.2322 0.33591 0.24228 0.0
C1106 C 0.00807 0.96427 0.5213 0.0
C1107 C 0.97359 0.9651 0.51292 0.0
C1108 C 0.98211 0.02585 0.50165 0.0
C1109 C 0.0177 0.02372 0.50816 0.0
N1110 N 0.06595 0.99107 0.52267 0.0
N1111 N 0.92785 0.99481 0.49412 0.0
C1112 C 0.03103 0.99307 0.51773 0.0
C1113 C 0.96052 0.99547 0.50292 0.0
N1114 N 0.01871 0.93607 0.53278 0.0
N1115 N 0.96893 0.05707 0.49453 0.0
H1116 H 0.91076 0.97347 0.49552 0.0
H1117 H 0.91831 0.01442 0.48447 0.0
H1118 H 0.98413 0.07974 0.49293 0.0
H1119 H 0.9424 0.06145 0.49156 0.0
H1120 H 0.04192 0.93556 0.54123 0.0
H1121 H 0.00319 0.91382 0.53512 0.0
H1122 H 0.07837 0.96806 0.52742 0.0
H1123 H 0.08329 0.01211 0.52081 0.0
C1124 C 0.29904 0.76166 0.75759 0.0
C1125 C 0.28854 0.72625 0.75425 0.0
C1126 C 0.22991 0.74568 0.7438 0.0
C1127 C 0.23953 0.78087 0.74868 0.0
N1128 N 0.28131 0.8226 0.76196 0.0
N1129 N 0.24374 0.68352 0.74652 0.0
C1130 C 0.27361 0.78896 0.75603 0.0
C1131 C 0.25394 0.71797 0.7479 0.0
N1132 N 0.33346 0.76914 0.76187 0.0
N1133 N 0.19798 0.73881 0.73497 0.0
H1134 H 0.26096 0.66251 0.74884 0.0
H1135 H 0.21779 0.67557 0.74443 0.0
H1136 H 0.17871 0.75789 0.73262 0.0
H1137 H 0.19126 0.71457 0.72867 0.0
H1138 H 0.34367 0.79452 0.76234 0.0
H1139 H 0.35271 0.7498 0.76358 0.0
H1140 H 0.30425 0.82965 0.76961 0.0
H1141 H 0.26359 0.84341 0.7604 0.0
C1142 C 0.52944 0.96646 0.99824 0.0
C1143 C 0.49491 0.96297 0.00625 0.0
C1144 C 0.49561 0.02411 0.01783 0.0
C1145 C 0.52862 0.02857 0.00799 0.0
N1146 N 0.57671 0.00571 0.98804 0.0
N1147 N 0.44369 0.98785 0.0224 0.0
C1148 C 0.54563 0.00013 0.99809 0.0
C1149 C 0.47768 0.99155 0.01586 0.0
N1150 N 0.5467 0.9375 0.9909 0.0
N1151 N 0.48163 0.0509 0.02921 0.0
H1152 H 0.43024 0.96393 0.02196 0.0
H1153 H 0.42801 0.00873 0.02718 0.0
H1154 H 0.4932 0.07567 0.03039 0.0
H1155 H 0.45979 0.04804 0.03867 0.0
H1156 H 0.57312 0.93738 0.98677 0.0
H1157 H 0.53527 0.9126 0.99021 0.0
H1158 H 0.58862 0.98729 0.97851 0.0
H1159 H 0.58991 0.02977 0.98829 0.0
C1160 C 0.25206 0.71601 0.25858 0.0
C1161 C 0.21765 0.72666 0.25307 0.0
C1162 C 0.23632 0.78831 0.25151 0.0
C1163 C 0.27003 0.77793 0.25847 0.0
N1164 N 0.30974 0.73305 0.27087 0.0
N1165 N 0.17513 0.77256 0.24653 0.0
C1166 C 0.27787 0.74207 0.26264 0.0
C1167 C 0.20922 0.76274 0.25015 0.0
N1168 N 0.26024 0.68098 0.25934 0.0
N1169 N 0.23052 0.82249 0.24584 0.0
H1170 H 0.15459 0.75459 0.24496 0.0
H1171 H 0.16656 0.79856 0.24652 0.0
H1172 H 0.24961 0.84208 0.24715 0.0
H1173 H 0.20779 0.83108 0.23849 0.0
H1174 H 0.28575 0.67141 0.26091 0.0
H1175 H 0.24168 0.66116 0.25699 0.0
H1176 H 0.31549 0.70813 0.27658 0.0
H1177 H 0.33001 0.75107 0.27323 0.0
C1178 C 0.48457 0.95584 0.49133 0.0
C1179 C 0.5206 0.95878 0.49675 0.0
C1180 C 0.51182 0.01981 0.50737 0.0
C1181 C 0.47671 0.01792 0.50002 0.0
N1182 N 0.42966 0.98587 0.48386 0.0
N1183 N 0.56987 0.99333 0.50827 0.0
C1184 C 0.46298 0.98633 0.49177 0.0
C1185 C 0.53458 0.99064 0.50446 0.0
N1186 N 0.47101 0.92377 0.48602 0.0
N1187 N 0.52323 0.04932 0.51735 0.0
H1188 H 0.58715 0.97212 0.50695 0.0
H1189 H 0.58254 0.01695 0.51151 0.0
H1190 H 0.50781 0.07179 0.51919 0.0
H1191 H 0.54707 0.05082 0.52514 0.0
H1192 H 0.44431 0.91901 0.48393 0.0
H1193 H 0.48623 0.90099 0.48513 0.0
H1194 H 0.41937 0.96499 0.47549 0.0
H1195 H 0.41271 0.00744 0.48461 0.0
C1196 C 0.19815 0.26447 0.74689 0.0
C1197 C 0.203 0.22811 0.74269 0.0
C1198 C 0.26282 0.23943 0.73082 0.0
C1199 C 0.25912 0.27487 0.73689 0.0
N1200 N 0.22519 0.32172 0.75183 0.0
N1201 N 0.23969 0.17976 0.73206 0.0
C1202 C 0.22727 0.28765 0.74522 0.0
C1203 C 0.23523 0.21517 0.73483 0.0
N1204 N 0.16549 0.27682 0.75197 0.0
N1205 N 0.29326 0.23013 0.72122 0.0
H1206 H 0.21958 0.16153 0.73442 0.0
H1207 H 0.26363 0.16792 0.72864 0.0
H1208 H 0.29839 0.20548 0.71492 0.0
H1209 H 0.29839 0.20548 0.71492 0.0
H1210 H 0.15937 0.30341 0.75328 0.0
H1211 H 0.14352 0.26057 0.75336 0.0
H1212 H 0.20417 0.33169 0.76022 0.0
H1213 H 0.2456 0.33977 0.74988 0.0
C1214 C 0.99133 0.96899 0.00764 0.0
C1215 C 0.02705 0.97786 0.00388 0.0
C1216 C 0.00977 0.0372 0.99328 0.0
C1217 C 0.97393 0.02742 0.99559 0.0
N1218 N 0.92984 0.98338 0.00221 0.0
N1219 N 0.07062 0.0182 0.99103 0.0
C1220 C 0.96448 0.99313 0.00204 0.0
C1221 C 0.03639 0.01138 0.99611 0.0
N1222 N 0.98314 0.93778 0.01696 0.0
N1223 N 0.01832 0.07136 0.98892 0.0
H1224 H 0.09094 0.00023 0.9935 0.0
H1225 H 0.07866 0.0406 0.98313 0.0
H1226 H -0.00044 0.09091 0.98635 0.0
H1227 H 0.0439 0.08107 0.98925 0.0
H1228 H 0.95811 0.9316 0.02232 0.0
H1229 H 0.00186 0.9188 0.02074 0.0
H1230 H 0.92138 0.95762 0.00448 0.0
H1231 H 0.90942 0.00063 0.99856 0.0
C1232 C 0.75511 0.78668 0.74326 0.0
C1233 C 0.7257 0.77107 0.75298 0.0
C1234 C 0.7617 0.72083 0.76383 0.0
C1235 C 0.79052 0.73537 0.753 0.0
N1236 N 0.8148 0.77998 0.73078 0.0
N1237 N 0.69907 0.72227 0.77089 0.0
C1238 C 0.78727 0.7677 0.74222 0.0
C1239 C 0.72845 0.73783 0.76283 0.0
N1240 N 0.75248 0.8201 0.73558 0.0
N1241 N 0.76641 0.69112 0.77538 0.0
H1242 H 0.67446 0.73437 0.77113 0.0
H1243 H 0.69833 0.69647 0.77621 0.0
H1244 H 0.79008 0.67725 0.77585 0.0
H1245 H 0.74775 0.68128 0.78553 0.0
H1246 H 0.77385 0.8347 0.73041 0.0
H1247 H 0.72902 0.83436 0.73558 0.0
H1248 H 0.81284 0.80096 0.72059 0.0
H1249 H 0.83945 0.76794 0.73051 0.0
C1250 C 0.74411 0.20859 0.24523 0.0
C1251 C 0.77586 0.22382 0.25229 0.0
C1252 C 0.74641 0.28053 0.25739 0.0
C1253 C 0.71497 0.26561 0.24966 0.0
N1254 N 0.68455 0.21771 0.23307 0.0
N1255 N 0.80948 0.27486 0.26215 0.0
C1256 C 0.71403 0.23029 0.24259 0.0
C1257 C 0.77769 0.26004 0.25747 0.0
N1258 N 0.74244 0.17313 0.24177 0.0
N1259 N 0.74605 0.31396 0.26514 0.0
H1260 H 0.83285 0.2605 0.2627 0.0
H1261 H 0.81334 0.30177 0.26402 0.0
H1262 H 0.72384 0.33009 0.26469 0.0
H1263 H 0.76693 0.32509 0.27314 0.0
H1264 H 0.71911 0.15961 0.23903 0.0
H1265 H 0.76427 0.15659 0.24293 0.0
H1266 H 0.68355 0.19364 0.2255 0.0
H1267 H 0.66155 0.23238 0.23139 0.0
C1268 C 0.72281 0.29432 0.74821 0.0
C1269 C 0.75439 0.28177 0.75711 0.0
C1270 C 0.72799 0.22379 0.76264 0.0
C1271 C 0.69749 0.23531 0.75225 0.0
N1272 N 0.66531 0.2804 0.73415 0.0
N1273 N 0.78648 0.23421 0.77389 0.0
C1274 C 0.69458 0.27042 0.7449 0.0
C1275 C 0.7568 0.24677 0.76472 0.0
N1276 N 0.71968 0.32922 0.74338 0.0
N1277 N 0.73008 0.19026 0.77016 0.0
H1278 H 0.80941 0.24875 0.77617 0.0
H1279 H 0.80941 0.24875 0.77617 0.0
H1280 H 0.70951 0.17219 0.76906 0.0
H1281 H 0.75233 0.18078 0.77776 0.0
H1282 H 0.69634 0.34102 0.7387 0.0
H1283 H 0.7401 0.34721 0.74546 0.0
H1284 H 0.66314 0.30405 0.72622 0.0
H1285 H 0.64343 0.26417 0.73229 0.0
C1286 C 0.7344 0.78904 0.24924 0.0
C1287 C 0.76595 0.77416 0.24163 0.0
C1288 C 0.73703 0.71698 0.23754 0.0
C1289 C 0.70645 0.73112 0.24677 0.0
N1290 N 0.67663 0.77902 0.26377 0.0
N1291 N 0.79951 0.72331 0.23118 0.0
C1292 C 0.70526 0.76675 0.25328 0.0
C1293 C 0.76789 0.73794 0.23642 0.0
N1294 N 0.73201 0.82464 0.25199 0.0
N1295 N 0.73636 0.68369 0.22961 0.0
H1296 H 0.82274 0.73777 0.23015 0.0
H1297 H 0.80343 0.69638 0.2294 0.0
H1298 H 0.71442 0.6673 0.23066 0.0
H1299 H 0.75645 0.67321 0.22067 0.0
H1300 H 0.70859 0.83763 0.25531 0.0
H1301 H 0.753 0.84174 0.24937 0.0
H1302 H 0.67597 0.80334 0.27109 0.0
H1303 H 0.65417 0.76397 0.26643 0.0
C1304 C 0.53223 0.50413 0.01836 0.0
C1305 C 0.52328 0.53698 0.00961 0.0
C1306 C 0.4612 0.52012 0.00833 0.0
C1307 C 0.47086 0.48582 0.01461 0.0
N1308 N 0.51546 0.44343 0.02401 0.0
N1309 N 0.48026 0.5762 0.99467 0.0
C1310 C 0.50633 0.47735 0.01937 0.0
C1311 C 0.48797 0.54513 0.00429 0.0
N1312 N 0.56544 0.49874 0.02579 0.0
N1313 N 0.42642 0.52883 0.00656 0.0
H1314 H 0.49884 0.59587 0.99207 0.0
H1315 H 0.45591 0.58171 0.9881 0.0
H1316 H 0.40616 0.51087 0.0092 0.0
H1317 H 0.41752 0.55441 0.00414 0.0
H1318 H 0.57272 0.47667 0.03424 0.0
H1319 H 0.58513 0.51782 0.02498 0.0
H1320 H 0.54137 0.43484 0.0253 0.0
H1321 H 0.49726 0.42302 0.02518 0.0
C1322 C 0.97347 0.52949 0.50816 0.0
C1323 C 0.00955 0.52727 0.50272 0.0
C1324 C 0.00218 0.46647 0.49141 0.0
C1325 C 0.96668 0.46796 0.4981 0.0
N1326 N 0.91618 0.50108 0.50911 0.0
N1327 N 0.05935 0.49481 0.48999 0.0
C1328 C 0.95157 0.49962 0.50536 0.0
C1329 C 0.02413 0.49622 0.49427 0.0
N1330 N 0.96073 0.5597 0.51683 0.0
N1331 N 0.01453 0.43682 0.48191 0.0
H1332 H 0.07592 0.5166 0.49116 0.0
H1333 H 0.07281 0.47192 0.48616 0.0
H1334 H -0.00046 0.41411 0.47997 0.0
H1335 H 0.03884 0.43512 0.47469 0.0
H1336 H 0.93585 0.56214 0.52327 0.0
H1337 H 0.97572 0.58254 0.51836 0.0
H1338 H 0.90256 0.52398 0.51272 0.0
H1339 H 0.8996 0.47941 0.50738 0.0
C1340 C 0.9885 0.47379 0.98981 0.0
C1341 C 0.02237 0.4684 0.99846 0.0
C1342 C 0.02611 0.53044 0.00822 0.0
C1343 C 0.99216 0.53579 0.99969 0.0
N1344 N 0.93913 0.51334 0.98433 0.0
N1345 N 0.07572 0.49106 0.01331 0.0
C1346 C 0.97287 0.50769 0.99091 0.0
C1347 C 0.04181 0.49658 0.00701 0.0
N1348 N 0.97197 0.44671 0.97988 0.0
N1349 N 0.04258 0.55745 0.01823 0.0
H1350 H 0.08767 0.46634 0.01317 0.0
H1351 H 0.09293 0.51101 0.01757 0.0
H1352 H 0.03233 0.58288 0.01898 0.0
H1353 H 0.06542 0.55456 0.02684 0.0
H1354 H 0.94917 0.44954 0.97124 0.0
H1355 H 0.98211 0.42124 0.97923 0.0
H1356 H 0.92193 0.49348 0.97992 0.0
H1357 H 0.92733 0.53813 0.98426 0.0
C1358 C 0.48191 0.47517 0.51258 0.0
C1359 C 0.51707 0.47667 0.50533 0.0
C1360 C 0.50813 0.53676 0.49317 0.0
C1361 C 0.47394 0.53622 0.5019 0.0
N1362 N 0.42941 0.50749 0.52212 0.0
N1363 N 0.56574 0.50959 0.49148 0.0
C1364 C 0.46114 0.50616 0.51229 0.0
C1365 C 0.5308 0.50766 0.49637 0.0
N1366 N 0.46806 0.44386 0.51907 0.0
N1367 N 0.51855 0.56462 0.48135 0.0
H1368 H 0.58304 0.4885 0.49333 0.0
H1369 H 0.5782 0.53278 0.48708 0.0
H1370 H 0.50315 0.58697 0.47903 0.0
H1371 H 0.54141 0.56458 0.47257 0.0
H1372 H 0.44155 0.44026 0.52246 0.0
H1373 H 0.48245 0.42051 0.51953 0.0
H1374 H 0.42031 0.48779 0.53186 0.0
H1375 H 0.41315 0.52962 0.52179 0.0
C1376 C 0.39015 0.2198 0.13951 0.0
C1377 C 0.3656 0.19351 0.1454 0.0
C1378 C 0.32251 0.21853 0.12132 0.0
C1379 C 0.34852 0.24239 0.11428 0.0
N1380 N 0.40991 0.25854 0.1127 0.0
N1381 N 0.30983 0.16476 0.14021 0.0
C1382 C 0.38325 0.24059 0.12206 0.0
C1383 C 0.33207 0.19194 0.13581 0.0
N1384 N 0.4189 0.22697 0.15142 0.0
N1385 N 0.28874 0.22174 0.11445 0.0
H1386 H 0.31628 0.14494 0.15063 0.0
H1387 H 0.28633 0.16032 0.13245 0.0
H1388 H 0.28149 0.24013 0.10333 0.0
H1389 H 0.2677 0.20765 0.12053 0.0
H1390 H 0.43538 0.24842 0.14879 0.0
H1391 H 0.42414 0.21427 0.16523 0.0
H1392 H 0.43627 0.2552 0.11668 0.0
H1393 H 0.4062 0.27352 0.09951 0.0
C1394 C 0.98604 0.07429 0.39243 0.0
C1395 C 0.99527 0.08116 0.3719 0.0
C1396 C 0.05482 0.09735 0.38316 0.0
C1397 C 0.04219 0.09968 0.40366 0.0
N1398 N 0.99367 0.09102 0.42759 0.0
N1399 N 0.04294 0.08062 0.34776 0.0
C1400 C 0.00757 0.08746 0.40839 0.0
C1401 C 0.0312 0.08719 0.36715 0.0
N1402 N 0.95725 0.05407 0.3966 0.0
N1403 N 0.08922 0.10514 0.37911 0.0
H1404 H 0.02719 0.06818 0.33688 0.0
H1405 H 0.06889 0.08343 0.34303 0.0
H1406 H 0.10774 0.10904 0.39068 0.0
H1407 H 0.09956 0.10807 0.36447 0.0
H1408 H 0.95083 0.04553 0.4113 0.0
H1409 H 0.94283 0.04193 0.38497 0.0
H1410 H 0.9672 0.0865 0.43079 0.0
H1411 H 0.00705 0.10139 0.44006 0.0
C1412 C 0.15875 0.76721 0.65499 0.0
C1413 C 0.1438 0.80102 0.6508 0.0
C1414 C 0.13254 0.78317 0.61533 0.0
C1415 C 0.14617 0.74937 0.61988 0.0
N1416 N 0.18272 0.71303 0.641 0.0
N1417 N 0.1273 0.8443 0.6256 0.0
C1418 C 0.16326 0.74298 0.63865 0.0
C1419 C 0.13446 0.81005 0.63041 0.0
N1420 N 0.16539 0.75654 0.67462 0.0
N1421 N 0.11612 0.78893 0.59701 0.0
H1422 H 0.12937 0.86453 0.63634 0.0
H1423 H 0.12282 0.85306 0.6107 0.0
H1424 H 0.11578 0.77017 0.58534 0.0
H1425 H 0.10157 0.81149 0.59378 0.0
H1426 H 0.17207 0.73077 0.67845 0.0
H1427 H 0.16129 0.77199 0.68748 0.0
H1428 H 0.19859 0.70822 0.65371 0.0
H1429 H 0.18575 0.69482 0.62916 0.0
C1430 C 0.47465 0.9134 0.87119 0.0
C1431 C 0.50822 0.89697 0.87079 0.0
C1432 C 0.49681 0.87089 0.90452 0.0
C1433 C 0.46173 0.88389 0.9039 0.0
N1434 N 0.416 0.91528 0.88611 0.0
N1435 N 0.5473 0.8528 0.88484 0.0
C1436 C 0.45027 0.90456 0.88705 0.0
C1437 C 0.51843 0.87403 0.88694 0.0
N1438 N 0.46644 0.93795 0.85664 0.0
N1439 N 0.5096 0.85489 0.92177 0.0
H1440 H 0.56307 0.8524 0.87182 0.0
H1441 H 0.55342 0.83256 0.89502 0.0
H1442 H 0.49457 0.84961 0.93472 0.0
H1443 H 0.53617 0.84912 0.92382 0.0
H1444 H 0.44381 0.95336 0.85707 0.0
H1445 H 0.48376 0.94491 0.84492 0.0
H1446 H 0.40483 0.92705 0.87326 0.0
H1447 H 0.39813 0.91064 0.89793 0.0
C1448 C 0.37207 0.83081 0.3826 0.0
C1449 C 0.35243 0.82903 0.36425 0.0
C1450 C 0.3277 0.77246 0.37461 0.0
C1451 C 0.35377 0.77028 0.3901 0.0
N1452 N 0.39561 0.79958 0.41205 0.0
N1453 N 0.29657 0.81096 0.35107 0.0
C1454 C 0.37392 0.80051 0.39536 0.0
C1455 C 0.32529 0.80378 0.3628 0.0
N1456 N 0.38765 0.86184 0.38792 0.0
N1457 N 0.30694 0.74412 0.37033 0.0
H1458 H 0.29332 0.83573 0.34441 0.0
H1459 H 0.27458 0.79467 0.35029 0.0
H1460 H 0.30767 0.72098 0.37892 0.0
H1461 H 0.29033 0.74303 0.35764 0.0
H1462 H 0.40117 0.86597 0.40156 0.0
H1463 H 0.38368 0.88472 0.37933 0.0
H1464 H 0.41411 0.81888 0.41543 0.0
H1465 H 0.39538 0.77882 0.42252 0.0
C1466 C 0.45307 0.08362 0.60221 0.0
C1467 C 0.45268 0.11791 0.59358 0.0
C1468 C 0.50664 0.13296 0.61236 0.0
C1469 C 0.50578 0.09945 0.62208 0.0
N1470 N 0.47685 0.04409 0.62812 0.0
N1471 N 0.4772 0.17654 0.59147 0.0
C1472 C 0.47858 0.07508 0.61752 0.0
C1473 C 0.47893 0.14291 0.59897 0.0
N1474 N 0.42931 0.0592 0.59555 0.0
N1475 N 0.53436 0.15525 0.61564 0.0
H1476 H 0.45962 0.18451 0.58016 0.0
H1477 H 0.49193 0.19741 0.59719 0.0
H1478 H 0.554 0.15064 0.62638 0.0
H1479 H 0.53938 0.1775 0.60681 0.0
H1480 H 0.43032 0.03266 0.59945 0.0
H1481 H 0.40944 0.06518 0.58508 0.0
H1482 H 0.4558 0.02667 0.6272 0.0
H1483 H 0.49582 0.03659 0.63882 0.0
C1484 C 0.15574 0.22366 0.87434 0.0
C1485 C 0.13514 0.25428 0.8778 0.0
C1486 C 0.09383 0.23596 0.85081 0.0
C1487 C 0.11506 0.20595 0.84694 0.0
N1488 N 0.16843 0.17329 0.85254 0.0
N1489 N 0.08666 0.29201 0.86785 0.0
C1490 C 0.14677 0.20046 0.85795 0.0
C1491 C 0.10487 0.26119 0.86554 0.0
N1492 N 0.18349 0.2165 0.88701 0.0
N1493 N 0.06257 0.24003 0.84061 0.0
H1494 H 0.09174 0.31026 0.87931 0.0
H1495 H 0.06761 0.30089 0.85763 0.0
H1496 H 0.05463 0.22395 0.82854 0.0
H1497 H 0.04333 0.25816 0.84472 0.0
H1498 H 0.1973 0.19286 0.88693 0.0
H1499 H 0.19173 0.23373 0.89849 0.0
H1500 H 0.19363 0.16974 0.85841 0.0
H1501 H 0.16199 0.15528 0.84108 0.0
C1502 C 0.02159 0.90722 0.12572 0.0
C1503 C 0.02923 0.884 0.14222 0.0
C1504 C 0.08974 0.87801 0.12983 0.0
C1505 C 0.07954 0.89455 0.11135 0.0
N1506 N 0.04544 0.94228 0.09791 0.0
N1507 N 0.07167 0.85085 0.16181 0.0
C1508 C 0.04836 0.91474 0.11115 0.0
C1509 C 0.06396 0.87105 0.14506 0.0
N1510 N 0.98835 0.92015 0.12315 0.0
N1511 N 0.12437 0.87008 0.13273 0.0
H1512 H 0.05392 0.84713 0.17381 0.0
H1513 H 0.09507 0.83695 0.16356 0.0
H1514 H 0.14336 0.87727 0.12194 0.0
H1515 H 0.13462 0.85985 0.14627 0.0
H1516 H 0.98037 0.93363 0.11005 0.0
H1517 H 0.96809 0.91562 0.13357 0.0
H1518 H 0.02416 0.95955 0.09773 0.0
H1519 H 0.06701 0.95075 0.08941 0.0
C1520 C 0.6357 0.78576 0.88478 0.0
C1521 C 0.63777 0.74915 0.88083 0.0
C1522 C 0.63293 0.75979 0.8441 0.0
C1523 C 0.63074 0.79674 0.8479 0.0
N1524 N 0.63932 0.84513 0.87113 0.0
N1525 N 0.64967 0.70238 0.85711 0.0
C1526 C 0.63531 0.80981 0.86806 0.0
C1527 C 0.64076 0.73669 0.86057 0.0
N1528 N 0.63269 0.79732 0.90451 0.0
N1529 N 0.62403 0.74612 0.82542 0.0
H1530 H 0.65487 0.68476 0.86899 0.0
H1531 H 0.65547 0.69257 0.8426 0.0
H1532 H 0.61562 0.76107 0.813 0.0
H1533 H 0.62133 0.71923 0.82277 0.0
H1534 H 0.6266 0.8232 0.90837 0.0
H1535 H 0.63483 0.78038 0.91705 0.0
H1536 H 0.64548 0.85615 0.88528 0.0
H1537 H 0.6396 0.86316 0.85906 0.0
C1538 C 0.97648 0.9084 0.62946 0.0
C1539 C -0.00144 0.88104 0.63678 0.0
C1540 C 0.96557 0.83771 0.61681 0.0
C1541 C 0.94522 0.86534 0.60797 0.0
N1542 N 0.932 0.92708 0.60492 0.0
N1543 N 0.01947 0.82128 0.63392 0.0
C1544 C 0.95099 0.9008 0.61398 0.0
C1545 C 0.99444 0.84614 0.62958 0.0
N1546 N 0.97932 0.9413 0.63773 0.0
N1547 N 0.95772 0.80317 0.61301 0.0
H1548 H 0.04171 0.82633 0.64278 0.0
H1549 H 0.02023 0.79658 0.62703 0.0
H1550 H 0.93935 0.79475 0.6023 0.0
H1551 H 0.96821 0.78246 0.62152 0.0
H1552 H 0.96194 0.96177 0.63463 0.0
H1553 H -0.00191 0.94758 0.64881 0.0
H1554 H 0.93745 0.95373 0.60674 0.0
H1555 H 0.91136 0.92207 0.59481 0.0
C1556 C 0.84561 0.18203 0.37012 0.0
C1557 C 0.86552 0.19293 0.35289 0.0
C1558 C 0.87147 0.25195 0.36748 0.0
C1559 C 0.8487 0.24231 0.38379 0.0
N1560 N 0.81049 0.19957 0.39953 0.0
N1561 N 0.89105 0.24031 0.33303 0.0
C1562 C 0.83472 0.20766 0.38481 0.0
C1563 C 0.87621 0.22856 0.35086 0.0
N1564 N 0.83755 0.14725 0.37252 0.0
N1565 N 0.89087 0.28223 0.36848 0.0
H1566 H 0.89644 0.22412 0.32057 0.0
H1567 H 0.89537 0.26689 0.32998 0.0
H1568 H 0.89006 0.29958 0.3808 0.0
H1569 H 0.91091 0.28821 0.35817 0.0
H1570 H 0.82628 0.1369 0.38574 0.0
H1571 H 0.84426 0.12825 0.36167 0.0
H1572 H 0.79682 0.17586 0.40002 0.0
H1573 H 0.80194 0.21782 0.41038 0.0
C1574 C 0.5447 0.10078 0.10701 0.0
C1575 C 0.54328 0.13589 0.09961 0.0
C1576 C 0.50131 0.15143 0.12648 0.0
C1577 C 0.49968 0.11559 0.13252 0.0
N1578 N 0.51688 0.05522 0.12757 0.0
N1579 N 0.51339 0.19216 0.09906 0.0
C1580 C 0.52053 0.08991 0.12248 0.0
C1581 C 0.51983 0.16061 0.1085 0.0
N1582 N 0.56979 0.07832 0.09971 0.0
N1583 N 0.48524 0.17695 0.13789 0.0
H1584 H 0.52492 0.19963 0.08525 0.0
H1585 H 0.49359 0.20937 0.1037 0.0
H1586 H 0.47043 0.17167 0.15093 0.0
H1587 H 0.48937 0.20375 0.13548 0.0
H1588 H 0.57437 0.05339 0.10578 0.0
H1589 H 0.58801 0.08575 0.08858 0.0
H1590 H 0.52847 0.0348 0.11937 0.0
H1591 H 0.50043 0.04675 0.13938 0.0
C1592 C 0.65611 0.25203 0.63714 0.0
C1593 C 0.65263 0.2434 0.61621 0.0
C1594 C 0.63749 0.18277 0.62656 0.0
C1595 C 0.63148 0.195 0.64685 0.0
N1596 N 0.62993 0.24465 0.67029 0.0
N1597 N 0.65012 0.19708 0.59098 0.0
C1598 C 0.63982 0.23042 0.65195 0.0
C1599 C 0.64646 0.20756 0.61085 0.0
N1600 N 0.67557 0.28048 0.64294 0.0
N1601 N 0.63602 0.1475 0.62257 0.0
H1602 H 0.66358 0.2122 0.5802 0.0
H1603 H 0.64086 0.17321 0.58535 0.0
H1604 H 0.63099 0.12883 0.63391 0.0
H1605 H 0.6425 0.13631 0.60854 0.0
H1606 H 0.68064 0.28643 0.65826 0.0
H1607 H 0.69054 0.2948 0.63244 0.0
H1608 H 0.63325 0.27126 0.67367 0.0
H1609 H 0.61472 0.23136 0.68108 0.0
C1610 C 0.52488 0.90627 0.37939 0.0
C1611 C 0.52201 0.88049 0.36377 0.0
C1612 C 0.58038 0.85776 0.37286 0.0
C1613 C 0.57883 0.87762 0.39116 0.0
N1614 N 0.56339 0.93453 0.40408 0.0
N1615 N 0.5494 0.83581 0.34293 0.0
C1616 C 0.55534 0.90642 0.39203 0.0
C1617 C 0.55088 0.85786 0.35944 0.0
N1618 N 0.49772 0.92892 0.38308 0.0
N1619 N 0.61075 0.84052 0.36803 0.0
H1620 H 0.52931 0.83717 0.33204 0.0
H1621 H 0.56744 0.81576 0.3402 0.0
H1622 H 0.6335 0.84386 0.37676 0.0
H1623 H 0.61475 0.82671 0.35448 0.0
H1624 H 0.49677 0.94536 0.39582 0.0
H1625 H 0.47522 0.92989 0.37397 0.0
H1626 H 0.5486 0.9576 0.40444 0.0
H1627 H 0.5876 0.93612 0.41157 0.0
C1628 C 0.90296 0.77843 0.13712 0.0
C1629 C 0.87653 0.80102 0.14507 0.0
C1630 C 0.83317 0.77354 0.12215 0.0
C1631 C 0.86056 0.75356 0.11312 0.0
N1632 N 0.92294 0.74506 0.10806 0.0
N1633 N 0.81747 0.8239 0.14324 0.0
C1634 C 0.8959 0.75874 0.11929 0.0
C1635 C 0.8418 0.79971 0.13703 0.0
N1636 N 0.93396 0.77351 0.1474 0.0
N1637 N 0.79907 0.76707 0.11677 0.0
H1638 H 0.82328 0.84359 0.15384 0.0
H1639 H 0.7926 0.82629 0.13671 0.0
H1640 H 0.79231 0.74895 0.10543 0.0
H1641 H 0.77759 0.77805 0.1243 0.0
H1642 H 0.95241 0.75458 0.14314 0.0
H1643 H 0.93952 0.78496 0.16153 0.0
H1644 H 0.94921 0.75129 0.11088 0.0
H1645 H 0.91906 0.7309 0.09461 0.0
C1646 C 0.90414 0.13497 0.87147 0.0
C1647 C 0.91253 0.11583 0.88946 0.0
C1648 C 0.96775 0.09615 0.87434 0.0
C1649 C 0.96259 0.12032 0.85801 0.0
N1650 N 0.92205 0.15374 0.83732 0.0
N1651 N 0.93917 0.06205 0.9009 0.0
C1652 C 0.92928 0.13673 0.85531 0.0
C1653 C 0.94022 0.09109 0.88869 0.0
N1654 N 0.87211 0.15104 0.8701 0.0
N1655 N -0.00063 0.07971 0.87699 0.0
H1656 H 0.91671 0.05599 0.90936 0.0
H1657 H 0.95772 0.04189 0.90016 0.0
H1658 H 0.02042 0.08267 0.86693 0.0
H1659 H 0.00535 0.06498 0.89001 0.0
H1660 H 0.86459 0.16808 0.85842 0.0
H1661 H 0.85238 0.14603 0.88083 0.0
H1662 H 0.89833 0.16609 0.83398 0.0
H1663 H 0.93955 0.1538 0.825 0.0
C1664 C 0.848 0.70905 0.63093 0.0
C1665 C 0.85956 0.7445 0.62916 0.0
C1666 C 0.90158 0.73503 0.65728 0.0
C1667 C 0.88816 0.70059 0.66003 0.0
N1668 N 0.84619 0.6556 0.65147 0.0
N1669 N 0.89422 0.79286 0.64258 0.0
C1670 C 0.86069 0.68776 0.64739 0.0
C1671 C 0.88528 0.758 0.64296 0.0
N1672 N 0.82517 0.69571 0.61675 0.0
N1673 N 0.93096 0.74535 0.66781 0.0
H1674 H 0.88531 0.81059 0.63163 0.0
H1675 H 0.90899 0.80499 0.65399 0.0
H1676 H 0.94352 0.72949 0.67863 0.0
H1677 H 0.94487 0.7683 0.66459 0.0
H1678 H 0.81875 0.66915 0.6157 0.0
H1679 H 0.81392 0.71105 0.60521 0.0
H1680 H 0.82363 0.64613 0.64433 0.0
H1681 H 0.85554 0.63913 0.66306 0.0
C1682 C 0.5382 0.57608 0.86706 0.0
C1683 C 0.5022 0.57513 0.87303 0.0
C1684 C 0.51824 0.58922 0.90817 0.0
C1685 C 0.55401 0.59345 0.9022 0.0
N1686 N 0.59958 0.58214 0.87748 0.0
N1687 N 0.46396 0.55883 0.90087 0.0
C1688 C 0.56455 0.58408 0.88203 0.0
C1689 C 0.49413 0.57442 0.89414 0.0
N1690 N 0.54703 0.56849 0.84729 0.0
N1691 N 0.50622 0.60179 0.9265 0.0
H1692 H 0.44776 0.54444 0.89107 0.0
H1693 H 0.45814 0.55579 0.91638 0.0
H1694 H 0.52171 0.61571 0.93684 0.0
H1695 H 0.4796 0.60186 0.93035 0.0
H1696 H 0.57177 0.57287 0.84099 0.0
H1697 H 0.5293 0.55662 0.83724 0.0
H1698 H 0.60955 0.57371 0.86349 0.0
H1699 H 0.61912 0.58678 0.88837 0.0
C1700 C 0.65242 0.2875 0.12515 0.0
C1701 C 0.63449 0.25542 0.12124 0.0
C1702 C 0.59593 0.26586 0.1508 0.0
C1703 C 0.61495 0.297 0.15529 0.0
N1704 N 0.66409 0.33533 0.14899 0.0
N1705 N 0.59325 0.2108 0.13244 0.0
C1706 C 0.64415 0.30716 0.14315 0.0
C1707 C 0.60755 0.24358 0.13474 0.0
N1708 N 0.67686 0.29939 0.11144 0.0
N1709 N 0.566 0.25802 0.16156 0.0
H1710 H 0.60008 0.19366 0.12072 0.0
H1711 H 0.57664 0.19914 0.14315 0.0
H1712 H 0.55741 0.27247 0.17418 0.0
H1713 H 0.54816 0.23867 0.15716 0.0
H1714 H 0.6882 0.32428 0.11211 0.0
H1715 H 0.68449 0.2849 0.09862 0.0
H1716 H 0.68772 0.34225 0.14204 0.0
H1717 H 0.65816 0.3505 0.16186 0.0
C1718 C 0.97914 0.33997 0.40061 0.0
C1719 C 0.95167 0.3637 0.40578 0.0
C1720 C 0.97347 0.4063 0.38042 0.0
C1721 C 0.00175 0.38322 0.37587 0.0
N1722 N 0.03345 0.32912 0.38232 0.0
N1723 N 0.92407 0.42047 0.40264 0.0
C1724 C 0.00511 0.35035 0.38618 0.0
C1725 C 0.94928 0.39724 0.39629 0.0
N1726 N 0.98015 0.3072 0.40937 0.0
N1727 N 0.96945 0.4365 0.36926 0.0
H1728 H 0.90498 0.41398 0.41347 0.0
H1729 H 0.92301 0.44668 0.39807 0.0
H1730 H 0.98739 0.44441 0.35807 0.0
H1731 H 0.94754 0.45283 0.37018 0.0
H1732 H 0.99607 0.28676 0.40425 0.0
H1733 H 0.96381 0.29945 0.42138 0.0
H1734 H 0.04039 0.30748 0.39121 0.0
H1735 H 0.0515 0.33389 0.3707 0.0
C1736 C 0.83794 0.29458 0.89023 0.0
C1737 C 0.82612 0.25953 0.88703 0.0
C1738 C 0.83075 0.26727 0.85004 0.0
C1739 C 0.84608 0.30108 0.85304 0.0
N1740 N 0.85201 0.35147 0.87515 0.0
N1741 N 0.79123 0.22389 0.86423 0.0
C1742 C 0.84585 0.31624 0.87295 0.0
C1743 C 0.81592 0.24947 0.86704 0.0
N1744 N 0.84113 0.30712 0.90972 0.0
N1745 N 0.83215 0.25075 0.83148 0.0
H1746 H 0.7768 0.21355 0.87641 0.0
H1747 H 0.7814 0.21725 0.84983 0.0
H1748 H 0.84369 0.26152 0.81849 0.0
H1749 H 0.82457 0.2246 0.82952 0.0
H1750 H 0.85419 0.33033 0.91342 0.0
H1751 H 0.83027 0.29398 0.92225 0.0
H1752 H 0.84987 0.36485 0.88898 0.0
H1753 H 0.85629 0.36806 0.86265 0.0
C1754 C 0.95773 0.59758 0.10472 0.0
C1755 C 0.95808 0.63242 0.09689 0.0
C1756 C -0.00174 0.65075 0.1241 0.0
C1757 C 0.00054 0.61536 0.13094 0.0
N1758 N 0.98551 0.55424 0.12697 0.0
N1759 N 0.98553 0.68972 0.09584 0.0
C1760 C 0.98111 0.58844 0.12102 0.0
C1761 C 0.98019 0.65836 0.10569 0.0
N1762 N 0.93458 0.57362 0.09688 0.0
N1763 N 0.01291 0.67734 0.13534 0.0
H1764 H 0.97366 0.69617 0.08192 0.0
H1765 H 0.00446 0.70794 0.10037 0.0
H1766 H 0.02648 0.67313 0.14898 0.0
H1767 H 0.00863 0.70389 0.13222 0.0
H1768 H 0.93054 0.54874 0.10312 0.0
H1769 H 0.9176 0.57956 0.0848 0.0
H1770 H 0.975 0.5329 0.11909 0.0
H1771 H 0.00151 0.54708 0.13929 0.0
C1772 C 0.66084 0.70231 0.38488 0.0
C1773 C 0.66751 0.7386 0.38119 0.0
C1774 C 0.64602 0.73264 0.34624 0.0
C1775 C 0.63755 0.69664 0.34983 0.0
N1776 N 0.64731 0.64483 0.37046 0.0
N1777 N 0.68593 0.77954 0.35502 0.0
C1778 C 0.64819 0.68063 0.36856 0.0
C1779 C 0.66664 0.75094 0.36076 0.0
N1780 N 0.66692 0.68869 0.4039 0.0
N1781 N 0.6324 0.75053 0.3299 0.0
H1782 H 0.70469 0.7908 0.36464 0.0
H1783 H 0.68727 0.78818 0.33987 0.0
H1784 H 0.61418 0.73978 0.31982 0.0
H1785 H 0.63588 0.77755 0.32793 0.0
H1786 H 0.65836 0.66392 0.40855 0.0
H1787 H 0.68059 0.7027 0.41511 0.0
H1788 H 0.65714 0.63128 0.38308 0.0
H1789 H 0.63975 0.62832 0.35849 0.0
C1790 C 0.51098 0.36271 0.60207 0.0
C1791 C 0.54626 0.37474 0.60189 0.0
C1792 C 0.53621 0.40771 0.63362 0.0
C1793 C 0.50035 0.39733 0.63314 0.0
N1794 N 0.45203 0.36925 0.61529 0.0
N1795 N 0.59194 0.41177 0.61546 0.0
C1796 C 0.48723 0.37629 0.61682 0.0
C1797 C 0.55877 0.3982 0.61709 0.0
N1798 N 0.50052 0.33719 0.58858 0.0
N1799 N 0.54872 0.42608 0.65007 0.0
H1800 H 0.60925 0.40451 0.60381 0.0
H1801 H 0.60158 0.43174 0.6248 0.0
H1802 H 0.53249 0.43492 0.66188 0.0
H1803 H 0.57529 0.43111 0.65257 0.0
H1804 H 0.47658 0.32402 0.58956 0.0
H1805 H 0.51687 0.32685 0.57725 0.0
H1806 H 0.44045 0.35779 0.60249 0.0
H1807 H 0.43353 0.37719 0.62605 0.0
C1808 C 0.14693 0.23688 0.36079 0.0
C1809 C 0.14181 0.24456 0.38174 0.0
C1810 C 0.13403 0.30713 0.37278 0.0
C1811 C 0.13106 0.29748 0.35179 0.0
N1812 N 0.12911 0.25067 0.32644 0.0
N1813 N 0.14864 0.28917 0.40759 0.0
C1814 C 0.13667 0.26184 0.34586 0.0
C1815 C 0.14056 0.28048 0.38785 0.0
N1816 N 0.16311 0.20632 0.35514 0.0
N1817 N 0.12994 0.3416 0.37824 0.0
H1818 H 0.15894 0.27088 0.41788 0.0
H1819 H 0.1497 0.31479 0.41313 0.0
H1820 H 0.12804 0.36181 0.36747 0.0
H1821 H 0.12729 0.35023 0.39327 0.0
H1822 H 0.16992 0.20072 0.34003 0.0
H1823 H 0.17428 0.1893 0.36589 0.0
H1824 H 0.12937 0.22418 0.3223 0.0
H1825 H 0.11874 0.26681 0.31505 0.0
C1826 C 0.46125 0.41258 0.13218 0.0
C1827 C 0.48496 0.38567 0.13819 0.0
C1828 C 0.46214 0.34701 0.11141 0.0
C1829 C 0.43642 0.37267 0.10629 0.0
N1830 N 0.4082 0.42811 0.11335 0.0
N1831 N 0.5014 0.32426 0.13728 0.0
C1832 C 0.435 0.40504 0.11714 0.0
C1833 C 0.48325 0.35192 0.129 0.0
N1834 N 0.46441 0.4454 0.14049 0.0
N1835 N 0.46825 0.31903 0.09871 0.0
H1836 H 0.51683 0.32654 0.1504 0.0
H1837 H 0.4981 0.29835 0.13241 0.0
H1838 H 0.45486 0.31507 0.08497 0.0
H1839 H 0.48925 0.30173 0.10069 0.0
H1840 H 0.45049 0.46723 0.13527 0.0
H1841 H 0.48267 0.45121 0.15194 0.0
H1842 H 0.40372 0.4507 0.12196 0.0
H1843 H 0.38868 0.42321 0.10248 0.0
C1844 C 0.36412 0.74919 0.86714 0.0
C1845 C 0.36792 0.73868 0.88772 0.0
C1846 C 0.36953 0.67681 0.87699 0.0
C1847 C 0.37271 0.68796 0.85633 0.0
N1848 N 0.37869 0.73615 0.83208 0.0
N1849 N 0.37373 0.69294 0.91295 0.0
C1850 C 0.37075 0.72448 0.85136 0.0
C1851 C 0.36985 0.70249 0.8929 0.0
N1852 N 0.35535 0.78323 0.86276 0.0
N1853 N 0.36626 0.64179 0.88131 0.0
H1854 H 0.37243 0.71119 0.92487 0.0
H1855 H 0.37959 0.66743 0.91768 0.0
H1856 H 0.36581 0.62261 0.86988 0.0
H1857 H 0.36105 0.63203 0.8959 0.0
H1858 H 0.34909 0.79188 0.84805 0.0
H1859 H 0.35074 0.80178 0.87424 0.0
H1860 H 0.38146 0.76269 0.82841 0.0
H1861 H 0.38616 0.71974 0.8201 0.0
C1862 C 0.01956 0.59148 0.60632 0.0
C1863 C 0.05569 0.59958 0.60957 0.0
C1864 C 0.04745 0.58938 0.64657 0.0
C1865 C 0.01085 0.58387 0.64302 0.0
N1866 N 0.96963 0.55901 0.61911 0.0
N1867 N 0.10602 0.59685 0.63193 0.0
C1868 C -0.00053 0.57794 0.62273 0.0
C1869 C 0.07033 0.59571 0.62951 0.0
N1870 N 0.00324 0.59934 0.58821 0.0
N1871 N 0.06039 0.58776 0.66604 0.0
H1872 H 0.12324 0.60016 0.61964 0.0
H1873 H 0.11888 0.59178 0.64569 0.0
H1874 H 0.04643 0.57602 0.67797 0.0
H1875 H 0.08517 0.59684 0.67025 0.0
H1876 H 0.97621 0.59639 0.58612 0.0
H1877 H 0.01539 0.61267 0.57621 0.0
H1878 H 0.96154 0.55201 0.6044 0.0
H1879 H 0.95605 0.54641 0.63092 0.0
C1880 C 0.10361 0.73178 0.14831 0.0
C1881 C 0.12572 0.70255 0.15256 0.0
C1882 C 0.16864 0.72405 0.12732 0.0
C1883 C 0.145 0.75143 0.12192 0.0
N1884 N 0.08724 0.77768 0.12454 0.0
N1885 N 0.17759 0.66851 0.14521 0.0
C1886 C 0.11166 0.75417 0.1316 0.0
C1887 C 0.15789 0.69805 0.14185 0.0
N1888 N 0.07579 0.73928 0.1609 0.0
N1889 N 0.20147 0.72339 0.11882 0.0
H1890 H 0.1705 0.64934 0.15589 0.0
H1891 H 0.19957 0.66176 0.13658 0.0
H1892 H 0.20957 0.74154 0.10778 0.0
H1893 H 0.22135 0.70637 0.12352 0.0
H1894 H 0.06135 0.76252 0.15999 0.0
H1895 H 0.0691 0.72406 0.17361 0.0
H1896 H 0.06116 0.778 0.12942 0.0
H1897 H 0.09197 0.79491 0.11244 0.0
C1898 C 0.97623 0.35966 0.88863 0.0
C1899 C 0.98638 0.38371 0.87302 0.0
C1900 C 0.04316 0.39313 0.8901 0.0
C1901 C 0.03409 0.36693 0.90462 0.0
N1902 N 0.99419 0.32221 0.91683 0.0
N1903 N 0.02974 0.42161 0.85765 0.0
C1904 C 0.00108 0.3496 0.90377 0.0
C1905 C 0.01993 0.40008 0.87343 0.0
N1906 N 0.94288 0.34614 0.88888 0.0
N1907 N 0.07367 0.4117 0.89253 0.0
H1908 H 0.01274 0.42839 0.84573 0.0
H1909 H 0.05509 0.43137 0.85574 0.0
H1910 H 0.09126 0.4068 0.90448 0.0
H1911 H 0.08048 0.43345 0.88369 0.0
H1912 H 0.93235 0.3323 0.9012 0.0
H1913 H 0.9246 0.35045 0.87728 0.0
H1914 H 0.97269 0.30547 0.91536 0.0
H1915 H 0.0113 0.31434 0.92846 0.0
C1916 C 0.33228 0.27019 0.62115 0.0
C1917 C 0.36102 0.25448 0.61079 0.0
C1918 C 0.40244 0.28883 0.63132 0.0
C1919 C 0.37369 0.30599 0.64124 0.0
N1920 N 0.31167 0.31871 0.6422 0.0
N1921 N 0.42279 0.25539 0.60217 0.0
C1922 C 0.33865 0.29838 0.6351 0.0
C1923 C 0.39579 0.26632 0.61447 0.0
N1924 N 0.29906 0.25768 0.61795 0.0
N1925 N 0.4359 0.29115 0.63898 0.0
H1926 H 0.41961 0.23759 0.59019 0.0
H1927 H 0.44785 0.26646 0.60266 0.0
H1928 H 0.4427 0.30481 0.65218 0.0
H1929 H 0.45672 0.27584 0.63368 0.0
H1930 H 0.27744 0.26523 0.62669 0.0
H1931 H 0.29354 0.23816 0.60718 0.0
H1932 H 0.28583 0.31642 0.63708 0.0
H1933 H 0.31584 0.34028 0.65177 0.0
C1934 C 0.43168 0.6033 0.38163 0.0
C1935 C 0.4418 0.61199 0.40197 0.0
C1936 C 0.50175 0.5929 0.39414 0.0
C1937 C 0.49425 0.59418 0.37299 0.0
N1938 N 0.44978 0.58935 0.34679 0.0
N1939 N 0.48961 0.62065 0.42631 0.0
C1940 C 0.45835 0.59584 0.36673 0.0
C1941 C 0.47759 0.60785 0.40803 0.0
N1942 N 0.39675 0.6011 0.37684 0.0
N1943 N 0.53158 0.57684 0.40105 0.0
H1944 H 0.47437 0.6355 0.43633 0.0
H1945 H 0.5162 0.62036 0.43025 0.0
H1946 H 0.54797 0.56259 0.39127 0.0
H1947 H 0.53693 0.57344 0.4166 0.0
H1948 H 0.38719 0.59262 0.36276 0.0
H1949 H 0.37695 0.60533 0.38762 0.0
H1950 H 0.42534 0.59496 0.34039 0.0
H1951 H 0.46725 0.57716 0.33673 0.0
C1952 C 0.46414 0.28603 0.21966 0.0
C1953 C 0.49913 0.28131 0.22635 0.0
C1954 C 0.48842 0.21838 0.23106 0.0
C1955 C 0.4568 0.22213 0.21969 0.0
N1956 N 0.41393 0.25993 0.20302 0.0
N1957 N 0.5356 0.24781 0.24936 0.0
C1958 C 0.44385 0.25614 0.21446 0.0
C1959 C 0.50878 0.24884 0.23547 0.0
N1960 N 0.45025 0.31914 0.21892 0.0
N1961 N 0.49931 0.18569 0.23708 0.0
H1962 H 0.54723 0.27069 0.25499 0.0
H1963 H 0.54294 0.22534 0.25742 0.0
H1964 H 0.48378 0.16326 0.23529 0.0
H1965 H 0.52411 0.18053 0.24314 0.0
H1966 H 0.42388 0.32427 0.21578 0.0
H1967 H 0.46434 0.341 0.22408 0.0
H1968 H 0.40609 0.28384 0.19668 0.0
H1969 H 0.39818 0.239 0.19839 0.0
C1970 C 0.98431 0.26256 0.48628 0.0
C1971 C 0.9524 0.25207 0.47689 0.0
C1972 C 0.98057 0.20109 0.46186 0.0
C1973 C 0.0137 0.21462 0.46813 0.0
N1974 N 0.04793 0.25608 0.4877 0.0
N1975 N 0.91746 0.20259 0.46682 0.0
C1976 C 0.01587 0.24456 0.48103 0.0
C1977 C 0.94969 0.21812 0.46848 0.0
N1978 N 0.98374 0.28806 0.50097 0.0
N1979 N 0.97862 0.17396 0.44817 0.0
H1980 H 0.89483 0.21478 0.47249 0.0
H1981 H 0.91393 0.17662 0.46216 0.0
H1982 H 0.00078 0.16249 0.44158 0.0
H1983 H 0.9551 0.16538 0.44169 0.0
H1984 H 0.00571 0.29618 0.50921 0.0
H1985 H 0.9601 0.29797 0.50667 0.0
H1986 H 0.05175 0.27969 0.49544 0.0
H1987 H 0.07124 0.24257 0.48466 0.0
C1988 C 0.00303 0.74011 0.74195 0.0
C1989 C 0.0104 0.70934 0.7305 0.0
C1990 C 0.06316 0.73622 0.71643 0.0
C1991 C 0.05161 0.76926 0.72416 0.0
N1992 N 0.01362 0.80271 0.74636 0.0
N1993 N 0.05743 0.67277 0.71836 0.0
C1994 C 0.02275 0.77113 0.73789 0.0
C1995 C 0.04391 0.70559 0.72151 0.0
N1996 N 0.97886 0.73879 0.75737 0.0
N1997 N 0.09034 0.73435 0.7028 0.0
H1998 H 0.04442 0.65022 0.72349 0.0
H1999 H 0.08298 0.66826 0.71322 0.0
H2000 H 0.1045 0.75626 0.69801 0.0
H2001 H 0.09699 0.71146 0.69494 0.0
H2002 H 0.97331 0.75974 0.7671 0.0
H2003 H 0.96772 0.71503 0.76207 0.0
H2004 H 0.99052 0.80682 0.75456 0.0
H2005 H 0.02887 0.82533 0.74453 0.0
C2006 C 0.52601 0.72932 0.9753 0.0
C2007 C 0.53774 0.7164 0.95611 0.0
C2008 C 0.49421 0.7517 0.93837 0.0
C2009 C 0.47954 0.76183 0.95742 0.0
N2010 N 0.47814 0.75641 0.99424 0.0
N2011 N 0.52393 0.7053 0.9205 0.0
C2012 C 0.49446 0.74952 0.97605 0.0
C2013 C 0.51906 0.72446 0.93798 0.0
N2014 N 0.54536 0.72312 0.99256 0.0
N2015 N 0.48644 0.7695 0.92075 0.0
H2016 H 0.54034 0.68333 0.91983 0.0
H2017 H 0.50845 0.70881 0.90746 0.0
H2018 H 0.47088 0.79205 0.92045 0.0
H2019 H 0.49919 0.76448 0.90691 0.0
H2020 H 0.53993 0.73474 0.00665 0.0
H2021 H 0.5685 0.70836 0.99242 0.0
H2022 H 0.48607 0.74546 0.00812 0.0
H2023 H 0.45478 0.77072 0.99518 0.0
C2024 C 0.49536 0.78725 0.28806 0.0
C2025 C 0.46047 0.78085 0.2945 0.0
C2026 C 0.47175 0.71762 0.29316 0.0
C2027 C 0.5083 0.72454 0.29167 0.0
N2028 N 0.55538 0.76804 0.29046 0.0
N2029 N 0.41579 0.73922 0.30523 0.0
C2030 C 0.52039 0.75985 0.28949 0.0
C2031 C 0.4484 0.74581 0.2973 0.0
N2032 N 0.50462 0.8196 0.28066 0.0
N2033 N 0.45938 0.68417 0.29055 0.0
H2034 H 0.39795 0.75886 0.3092 0.0
H2035 H 0.40761 0.71415 0.30961 0.0
H2036 H 0.47583 0.66314 0.28681 0.0
H2037 H 0.43266 0.67821 0.2898 0.0
H2038 H 0.52907 0.82471 0.27408 0.0
H2039 H 0.48651 0.84008 0.27901 0.0
H2040 H 0.56448 0.79386 0.29141 0.0
H2041 H 0.57536 0.74971 0.29237 0.0
C2042 C 0.49961 0.27886 0.51881 0.0
C2043 C 0.53218 0.26665 0.52675 0.0
C2044 C 0.50688 0.20913 0.53374 0.0
C2045 C 0.47298 0.22318 0.52936 0.0
N2046 N 0.43639 0.27038 0.5169 0.0
N2047 N 0.56985 0.21633 0.53006 0.0
C2048 C 0.46913 0.25769 0.52143 0.0
C2049 C 0.53679 0.23039 0.53043 0.0
N2050 N 0.49848 0.30903 0.50745 0.0
N2051 N 0.51048 0.1767 0.54263 0.0
H2052 H 0.5918 0.23148 0.52622 0.0
H2053 H 0.57487 0.18942 0.53093 0.0
H2054 H 0.48938 0.16027 0.5461 0.0
H2055 H 0.53429 0.1673 0.54835 0.0
H2056 H 0.47588 0.31845 0.50031 0.0
H2057 H 0.52123 0.32183 0.50259 0.0
H2058 H 0.43133 0.29665 0.51345 0.0
H2059 H 0.41379 0.25486 0.51763 0.0
C2060 C 0.96443 0.20486 0.78039 0.0
C2061 C 0.00016 0.2106 0.77569 0.0
C2062 C 0.98906 0.27356 0.77176 0.0
C2063 C 0.9559 0.2686 0.78134 0.0
N2064 N 0.91114 0.22913 0.79455 0.0
N2065 N 0.03974 0.24613 0.75566 0.0
C2066 C 0.94275 0.23407 0.78499 0.0
C2067 C 0.01063 0.24374 0.76783 0.0
N2068 N 0.95149 0.17135 0.78016 0.0
N2069 N 0.00018 0.3068 0.76705 0.0
H2070 H 0.05285 0.22388 0.75028 0.0
H2071 H 0.04801 0.26924 0.7486 0.0
H2072 H 0.98396 0.32882 0.76849 0.0
H2073 H 0.02568 0.31278 0.76243 0.0
H2074 H 0.92493 0.16532 0.78184 0.0
H2075 H 0.96714 0.15 0.77585 0.0
H2076 H 0.90247 0.20473 0.79977 0.0
H2077 H 0.89444 0.24959 0.79868 0.0
C2078 C -0.00056 0.74828 0.01993 0.0
C2079 C 0.96882 0.75407 0.03182 0.0
C2080 C 0.99729 0.80278 0.0495 0.0
C2081 C 0.02975 0.79256 0.04053 0.0
N2082 N 0.06227 0.75761 0.01621 0.0
N2083 N 0.93377 0.79891 0.04785 0.0
C2084 C 0.03096 0.76614 0.02522 0.0
C2085 C 0.96613 0.78523 0.04352 0.0
N2086 N -0.00257 0.72771 0.00284 0.0
N2087 N 0.99649 0.82772 0.0646 0.0
H2088 H 0.91082 0.78834 0.0416 0.0
H2089 H 0.93004 0.82305 0.05507 0.0
H2090 H 0.01879 0.84114 0.06964 0.0
H2091 H 0.97415 0.83311 0.07328 0.0
H2092 H 0.01814 0.72396 0.99266 0.0
H2093 H 0.9734 0.71817 0.99746 0.0
H2094 H 0.06562 0.73594 0.00667 0.0
H2095 H 0.08554 0.77125 0.01914 0.0
C2096 C 0.48607 0.72413 0.77435 0.0
C2097 C 0.47702 0.71075 0.79394 0.0
C2098 C 0.51197 0.75597 0.81054 0.0
C2099 C 0.51822 0.77188 0.79123 0.0
N2100 N 0.50912 0.77354 0.75475 0.0
N2101 N 0.47253 0.72049 0.8305 0.0
C2102 C 0.50472 0.75663 0.77303 0.0
C2103 C 0.48731 0.72862 0.81198 0.0
N2104 N 0.47757 0.70543 0.75719 0.0
N2105 N 0.53083 0.7657 0.82746 0.0
H2106 H 0.45309 0.70143 0.83231 0.0
H2107 H 0.47668 0.73548 0.84365 0.0
H2108 H 0.5507 0.78448 0.82707 0.0
H2109 H 0.52958 0.75215 0.84134 0.0
H2110 H 0.48623 0.71201 0.74256 0.0
H2111 H 0.46361 0.68181 0.7578 0.0
H2112 H 0.49717 0.76556 0.74118 0.0
H2113 H 0.523 0.79713 0.75345 0.0
C2114 C -0.00164 0.76885 0.5621 0.0
C2115 C 0.97376 0.76401 0.54619 0.0
C2116 C 0.01233 0.71992 0.53095 0.0
C2117 C 0.03252 0.71963 0.54933 0.0
N2118 N 0.03648 0.73781 0.58492 0.0
N2119 N 0.95611 0.73436 0.5153 0.0
C2120 C 0.02359 0.74265 0.5656 0.0
C2121 C 0.98037 0.73943 0.53042 0.0
N2122 N -0.0021 0.79854 0.57381 0.0
N2123 N 0.02418 0.70273 0.51395 0.0
H2124 H 0.933 0.74911 0.51436 0.0
H2125 H 0.95797 0.71418 0.50456 0.0
H2126 H 0.04849 0.69006 0.51351 0.0
H2127 H 0.01176 0.7043 0.49975 0.0
H2128 H 0.01749 0.80412 0.58452 0.0
H2129 H 0.98039 0.81913 0.57109 0.0
H2130 H 0.0284 0.75304 0.59734 0.0
H2131 H 0.0508 0.71563 0.58915 0.0
C2132 C 0.99015 0.22958 0.31268 0.0
C2133 C 0.97806 0.21481 0.29401 0.0
C2134 C 0.00726 0.26204 0.27484 0.0
C2135 C 0.02165 0.27445 0.2935 0.0
N2136 N 0.03535 0.26344 0.32912 0.0
N2137 N 0.97803 0.21396 0.25709 0.0
C2138 C 0.01578 0.25612 0.31207 0.0
C2139 C 0.98739 0.23019 0.27494 0.0
N2140 N 0.97584 0.21977 0.33106 0.0
N2141 N 0.01193 0.28105 0.25729 0.0
H2142 H 0.9635 0.19068 0.25679 0.0
H2143 H 0.98672 0.22207 0.24273 0.0
H2144 H 0.02708 0.30394 0.25684 0.0
H2145 H -0.00075 0.27536 0.24355 0.0
H2146 H 0.98127 0.23283 0.34473 0.0
H2147 H 0.95558 0.20152 0.33249 0.0
H2148 H 0.03443 0.2482 0.3424 0.0
H2149 H 0.05533 0.28212 0.32924 0.0
C2150 C 0.51734 0.27548 0.02399 0.0
C2151 C 0.51494 0.24073 0.03189 0.0
C2152 C 0.45082 0.244 0.03049 0.0
C2153 C 0.45337 0.28059 0.02747 0.0
N2154 N 0.48602 0.32631 0.01045 0.0
N2155 N 0.47874 0.19272 0.04464 0.0
C2156 C 0.48583 0.29515 0.02088 0.0
C2157 C 0.48152 0.22479 0.03521 0.0
N2158 N 0.5496 0.28971 0.01992 0.0
N2159 N 0.41898 0.22777 0.02854 0.0
H2160 H 0.50019 0.17819 0.04983 0.0
H2161 H 0.45477 0.18213 0.04931 0.0
H2162 H 0.39658 0.24159 0.02391 0.0
H2163 H 0.41588 0.20053 0.02895 0.0
H2164 H 0.55366 0.31607 0.01634 0.0
H2165 H 0.57284 0.27517 0.02087 0.0
H2166 H 0.5085 0.338 0.00445 0.0
H2167 H 0.46286 0.33822 0.00541 0.0
C2168 C 0.48266 0.25595 0.7248 0.0
C2169 C 0.46012 0.26436 0.70831 0.0
C2170 C 0.48418 0.21685 0.68788 0.0
C2171 C 0.50574 0.20664 0.70467 0.0
N2172 N 0.51864 0.21098 0.74084 0.0
N2173 N 0.42997 0.24484 0.6779 0.0
C2174 C 0.50289 0.2245 0.72375 0.0
C2175 C 0.45756 0.24188 0.69119 0.0
N2176 N 0.48533 0.27828 0.74109 0.0
N2177 N 0.49088 0.20547 0.66838 0.0
H2178 H 0.40956 0.26276 0.68014 0.0
H2179 H 0.42562 0.22698 0.66605 0.0
H2180 H 0.51266 0.19036 0.66438 0.0
H2181 H 0.4773 0.21502 0.65565 0.0
H2182 H 0.50417 0.27544 0.75256 0.0
H2183 H 0.46976 0.30079 0.74243 0.0
H2184 H 0.51522 0.22151 0.75543 0.0
H2185 H 0.53214 0.18709 0.74074 0.0
C2186 C 0.50808 0.7616 0.47225 0.0
C2187 C 0.52388 0.76858 0.45298 0.0
C2188 C 0.47841 0.73513 0.43559 0.0
C2189 C 0.46047 0.73088 0.45449 0.0
N2190 N 0.45546 0.74329 0.49053 0.0
N2191 N 0.51812 0.77126 0.41608 0.0
C2192 C 0.47448 0.74511 0.47281 0.0
C2193 C 0.50724 0.75821 0.43457 0.0
N2194 N 0.52566 0.76963 0.4899 0.0
N2195 N 0.46952 0.71547 0.41884 0.0
H2196 H 0.5385 0.78945 0.41456 0.0
H2197 H 0.50428 0.76702 0.40252 0.0
H2198 H 0.44997 0.69632 0.41906 0.0
H2199 H 0.48435 0.71526 0.40541 0.0
H2200 H 0.51708 0.76211 0.5044 0.0
H2201 H 0.55035 0.7816 0.48996 0.0
H2202 H 0.4627 0.75604 0.50399 0.0
H2203 H 0.43086 0.73119 0.49129 0.0
C2204 C 0.0068 0.77827 0.22694 0.0
C2205 C 0.9729 0.77363 0.21812 0.0
C2206 C 0.97983 0.70988 0.22046 0.0
C2207 C 0.01602 0.71464 0.22419 0.0
N2208 N 0.05913 0.75058 0.24127 0.0
N2209 N 0.92809 0.73421 0.20473 0.0
C2210 C 0.0283 0.74812 0.23062 0.0
C2211 C 0.95915 0.73923 0.21492 0.0
N2212 N 0.0184 0.81145 0.23139 0.0
N2213 N 0.96553 0.67708 0.2222 0.0
H2214 H 0.91275 0.75454 0.19883 0.0
H2215 H 0.91924 0.70947 0.20019 0.0
H2216 H 0.98052 0.65556 0.22704 0.0
H2217 H 0.93859 0.67227 0.22129 0.0
H2218 H 0.04402 0.81744 0.23573 0.0
H2219 H 0.00223 0.83357 0.23031 0.0
H2220 H 0.06961 0.77396 0.24683 0.0
H2221 H 0.0722 0.72847 0.24687 0.0
C2222 C 0.00585 0.19833 0.9543 0.0
C2223 C 0.97356 0.21105 0.96243 0.0
C2224 C 0.00541 0.25497 0.98251 0.0
C2225 C 0.03586 0.24704 0.97096 0.0
N2226 N 0.06956 0.20009 0.95631 0.0
N2227 N 0.9422 0.24847 0.98606 0.0
C2228 C 0.03756 0.21489 0.96024 0.0
C2229 C 0.97323 0.23823 0.97733 0.0
N2230 N 0.00607 0.17238 0.93979 0.0
N2231 N 0.00806 0.27678 0.99903 0.0
H2232 H 0.91849 0.2354 0.98343 0.0
H2233 H 0.93961 0.27068 0.99525 0.0
H2234 H 0.03244 0.28573 0.00423 0.0
H2235 H 0.98738 0.28234 0.00895 0.0
H2236 H 0.02856 0.16499 0.93178 0.0
H2237 H 0.98336 0.15999 0.93449 0.0
H2238 H 0.07271 0.17521 0.94989 0.0
H2239 H 0.09278 0.21119 0.9619 0.0
C2240 C 0.40717 0.0099 0.27224 0.0
C2241 C 0.40891 0.97406 0.26641 0.0
C2242 C 0.40897 0.99102 0.23018 0.0
C2243 C 0.40841 0.02687 0.23605 0.0
N2244 N 0.41866 0.0702 0.2624 0.0
N2245 N 0.4225 0.93122 0.24031 0.0
C2246 C 0.4112 0.03627 0.25703 0.0
C2247 C 0.41328 0.96481 0.24549 0.0
N2248 N 0.40014 0.01886 0.29208 0.0
N2249 N 0.40408 0.98187 0.21015 0.0
H2250 H 0.42708 0.91164 0.25121 0.0
H2251 H 0.42912 0.92378 0.22545 0.0
H2252 H 0.40108 0.00036 0.19846 0.0
H2253 H 0.40034 0.95598 0.20539 0.0
H2254 H 0.39475 0.04457 0.29665 0.0
H2255 H 0.39682 0.00032 0.3037 0.0
H2256 H 0.4241 0.07783 0.27739 0.0
H2257 H 0.42308 0.08998 0.25161 0.0
C2258 C 0.2615 0.12038 0.50154 0.0
C2259 C 0.27744 0.15234 0.50781 0.0
C2260 C 0.22994 0.18506 0.4911 0.0
C2261 C 0.21677 0.15325 0.48267 0.0
N2262 N 0.22705 0.09186 0.47529 0.0
N2263 N 0.28204 0.21527 0.50283 0.0
C2264 C 0.23495 0.1213 0.48635 0.0
C2265 C 0.26327 0.18484 0.5009 0.0
N2266 N 0.27073 0.08923 0.51052 0.0
N2267 N 0.21022 0.21508 0.49069 0.0
H2268 H 0.30756 0.2159 0.50866 0.0
H2269 H 0.27374 0.23904 0.49646 0.0
H2270 H 0.18487 0.21605 0.48466 0.0
H2271 H 0.21775 0.23798 0.49831 0.0
H2272 H 0.25755 0.06572 0.50758 0.0
H2273 H 0.28897 0.08758 0.52242 0.0
H2274 H 0.24163 0.06869 0.47636 0.0
H2275 H 0.20833 0.09185 0.46359 0.0
C2276 C 0.08656 0.96417 0.75825 0.0
C2277 C 0.08713 0.97041 0.73679 0.0
C2278 C 0.07631 0.03285 0.74311 0.0
C2279 C 0.08306 0.02753 0.76428 0.0
N2280 N 0.09816 0.98806 0.79191 0.0
N2281 N 0.08613 0.01167 0.70866 0.0
C2282 C 0.08898 0.99311 0.77189 0.0
C2283 C 0.08277 0.00502 0.72913 0.0
N2284 N 0.08254 0.93073 0.76559 0.0
N2285 N 0.06267 0.06409 0.73642 0.0
H2286 H 0.09112 0.99203 0.69791 0.0
H2287 H 0.0869 0.03704 0.70261 0.0
H2288 H 0.05612 0.08454 0.74636 0.0
H2289 H 0.05437 0.06821 0.7214 0.0
H2290 H 0.07885 0.92511 0.78106 0.0
H2291 H 0.07906 0.90904 0.75602 0.0
H2292 H 0.10643 0.96382 0.79763 0.0
H2293 H 0.10031 0.00861 0.8024 0.0
C2294 C 0.25419 0.8783 0.0166 0.0
C2295 C 0.23295 0.84785 0.01865 0.0
C2296 C 0.27505 0.81531 0.99756 0.0
C2297 C 0.29251 0.8472 0.99256 0.0
N2298 N 0.29264 0.91078 0.99405 0.0
N2299 N 0.21942 0.7891 0.00676 0.0
C2300 C 0.28029 0.87928 1.00111 0.0
C2301 C 0.24225 0.81676 0.0079 0.0
N2302 N 0.25005 0.90602 0.02968 0.0
N2303 N 0.29031 0.78361 0.99336 0.0
H2304 H 0.19433 0.78969 0.01318 0.0
H2305 H 0.2241 0.76718 0.99756 0.0
H2306 H 0.31542 0.78136 0.9871 0.0
H2307 H 0.27967 0.75978 0.99831 0.0
H2308 H 0.26705 0.92753 0.02982 0.0
H2309 H 0.23181 0.90582 0.04162 0.0
H2310 H 0.28218 0.93485 0.9987 0.0
H2311 H 0.31065 0.91275 0.98206 0.0
C2312 C 0.58062 0.00206 0.7675 0.0
C2313 C 0.60146 0.97191 0.76406 0.0
C2314 C 0.62461 -0.00053 0.73299 0.0
C2315 C 0.59673 0.02419 0.73361 0.0
N2316 N 0.54833 0.05013 0.75233 0.0
N2317 N 0.66113 0.96138 0.75365 0.0
C2318 C 0.57457 0.02572 0.75108 0.0
C2319 C 0.62906 0.97596 0.74969 0.0
N2320 N 0.57391 0.01243 0.78705 0.0
N2321 N 0.64672 -0.00173 0.71654 0.0
H2322 H 0.66618 0.9482 0.76738 0.0
H2323 H 0.68331 0.96611 0.74468 0.0
H2324 H 0.64434 0.01533 0.70408 0.0
H2325 H 0.66547 0.97851 0.71466 0.0
H2326 H 0.56156 0.03615 0.79062 0.0
H2327 H 0.58589 -0.00024 0.79942 0.0
H2328 H 0.53011 0.05017 0.76428 0.0
H2329 H 0.5433 0.0684 0.74075 0.0
C2330 C 0.74394 0.85836 0.49049 0.0
C2331 C 0.71922 0.83051 0.49122 0.0
C2332 C 0.7408 0.81531 0.52546 0.0
C2333 C 0.77061 0.83676 0.52214 0.0
N2334 N 0.7799 0.89647 0.51128 0.0
N2335 N 0.69283 0.78276 0.51032 0.0
C2336 C 0.76639 0.86389 0.50748 0.0
C2337 C 0.71737 0.80883 0.50893 0.0
N2338 N 0.74617 0.87947 0.47361 0.0
N2339 N 0.73035 0.80847 0.54499 0.0
H2340 H 0.67444 0.7778 0.49881 0.0
H2341 H 0.69265 0.76465 0.52234 0.0
H2342 H 0.74249 0.82094 0.55735 0.0
H2343 H 0.7069 0.79564 0.54855 0.0
H2344 H 0.76595 0.89823 0.47182 0.0
H2345 H 0.73013 0.87615 0.46078 0.0
H2346 H 0.77489 0.91822 0.50198 0.0
H2347 H 0.7924 0.9023 0.52511 0.0
C2348 C 0.89997 0.98906 0.27151 0.0
C2349 C 0.90404 0.02397 0.26425 0.0
C2350 C 0.90599 0.00216 0.22899 0.0
C2351 C 0.9052 0.96711 0.2364 0.0
N2352 N 0.91293 0.92781 0.2652 0.0
N2353 N 0.92214 0.06221 0.23658 0.0
C2354 C 0.9056 0.96066 0.25783 0.0
C2355 C 0.91039 0.03014 0.24311 0.0
N2356 N 0.88975 0.98288 0.29124 0.0
N2357 N 0.90155 0.00893 0.2086 0.0
H2358 H 0.92775 0.0828 0.2466 0.0
H2359 H 0.93005 0.06698 0.22154 0.0
H2360 H 0.89758 0.98917 0.19777 0.0
H2361 H 0.89853 0.03432 0.20279 0.0
H2362 H 0.88318 0.95789 0.2966 0.0
H2363 H 0.88464 0.00301 0.30167 0.0
H2364 H 0.91654 0.92258 0.28073 0.0
H2365 H 0.91932 0.90671 0.25569 0.0
C2366 C 0.74668 0.13736 0.98774 0.0
C2367 C 0.77348 0.16306 0.98922 0.0
C2368 C 0.74941 0.18099 0.02249 0.0
C2369 C 0.71874 0.16129 0.01826 0.0
N2370 N 0.70813 0.10144 0.00811 0.0
N2371 N 0.80216 0.20835 0.00923 0.0
C2372 C 0.72291 0.1334 0.00416 0.0
C2373 C 0.77539 0.18477 0.00694 0.0
N2374 N 0.74356 0.11684 0.97069 0.0
N2375 N 0.75736 0.18891 0.04228 0.0
H2376 H 0.82276 0.21069 0.99878 0.0
H2377 H 0.80251 0.22698 0.02094 0.0
H2378 H 0.74254 0.17851 0.0543 0.0
H2379 H 0.781 0.20047 0.04676 0.0
H2380 H 0.72251 0.09959 0.96861 0.0
H2381 H 0.76028 0.11925 0.95809 0.0
H2382 H 0.71299 0.07928 0.99913 0.0
H2383 H 0.69466 0.09656 0.02176 0.0
C2384 C 0.93221 0.52885 0.76531 0.0
C2385 C 0.90704 0.53431 0.74953 0.0
C2386 C 0.86954 0.48989 0.76554 0.0
C2387 C 0.89855 0.47817 0.77732 0.0
N2388 N 0.93739 0.50851 0.80007 0.0
N2389 N 0.85011 0.52061 0.73514 0.0
C2390 C 0.92519 0.50338 0.78072 0.0
C2391 C 0.87502 0.51518 0.74987 0.0
N2392 N 0.96223 0.54845 0.76609 0.0
N2393 N 0.83633 0.48019 0.77104 0.0
H2394 H 0.85316 0.53897 0.72338 0.0
H2395 H 0.82781 0.50483 0.73376 0.0
H2396 H 0.83165 0.46511 0.78413 0.0
H2397 H 0.81379 0.49048 0.76418 0.0
H2398 H 0.98241 0.54304 0.77646 0.0
H2399 H 0.96781 0.56847 0.75565 0.0
H2400 H 0.95457 0.52881 0.80397 0.0
H2401 H 0.92554 0.4959 0.81249 0.0
C2402 C 0.77801 0.68056 0.99715 0.0
C2403 C 0.79393 0.64963 0.00504 0.0
C2404 C 0.75433 0.61401 0.98401 0.0
C2405 C 0.73476 0.64461 0.97903 0.0
N2406 N 0.72404 0.70655 0.98492 0.0
N2407 N 0.79292 0.58635 0.00868 0.0
C2408 C 0.74547 0.67785 0.98668 0.0
C2409 C 0.78092 0.6161 0.99921 0.0
N2410 N 0.79443 0.71237 0.99892 0.0
N2411 N 0.74776 0.58306 0.9741 0.0
H2412 H 0.8117 0.58683 0.02032 0.0
H2413 H 0.7818 0.56163 0.00633 0.0
H2414 H 0.72866 0.58072 0.9627 0.0
H2415 H 0.76347 0.56077 0.97584 0.0
H2416 H 0.78514 0.73511 0.99179 0.0
H2417 H 0.81926 0.71524 0.0055 0.0
H2418 H 0.72952 0.73048 0.99203 0.0
H2419 H 0.69915 0.70552 0.97825 0.0
C2420 C 0.55201 0.51224 0.26153 0.0
C2421 C 0.58415 0.52737 0.26822 0.0
C2422 C 0.6166 0.48405 0.24788 0.0
C2423 C 0.58467 0.46649 0.2432 0.0
N2424 N 0.52298 0.45872 0.25096 0.0
N2425 N 0.64709 0.52169 0.27188 0.0
C2426 C 0.5526 0.479 0.25163 0.0
C2427 C 0.6165 0.51134 0.2627 0.0
N2428 N 0.52106 0.5301 0.26369 0.0
N2429 N 0.64684 0.47554 0.23773 0.0
H2430 H 0.64791 0.54096 0.28324 0.0
H2431 H 0.67092 0.50866 0.26969 0.0
H2432 H 0.64785 0.45633 0.22635 0.0
H2433 H 0.67004 0.48991 0.23923 0.0
H2434 H 0.49751 0.52136 0.25729 0.0
H2435 H 0.51955 0.55529 0.26993 0.0
H2436 H 0.49982 0.46557 0.2585 0.0
H2437 H 0.52274 0.43336 0.24488 0.0
C2438 C 0.76114 0.38069 0.49549 0.0
C2439 C 0.76493 0.35205 0.48188 0.0
C2440 C 0.71067 0.32691 0.49517 0.0
C2441 C 0.71318 0.3496 0.51243 0.0
N2442 N 0.74019 0.40008 0.52852 0.0
N2443 N 0.72478 0.32326 0.45927 0.0
C2444 C 0.7381 0.37733 0.51239 0.0
C2445 C 0.73463 0.33141 0.47873 0.0
N2446 N 0.77668 0.4121 0.49101 0.0
N2447 N 0.68512 0.30177 0.49411 0.0
H2448 H 0.73824 0.33378 0.44675 0.0
H2449 H 0.70099 0.31108 0.45572 0.0
H2450 H 0.66589 0.29851 0.50533 0.0
H2451 H 0.6846 0.28287 0.48254 0.0
H2452 H 0.77233 0.43492 0.49948 0.0
H2453 H 0.79063 0.41583 0.4774 0.0
H2454 H 0.76016 0.41872 0.52988 0.0
H2455 H 0.72365 0.39841 0.54124 0.0
C2456 C 0.08088 0.53452 0.25932 0.0
C2457 C 0.08467 0.52758 0.23805 0.0
C2458 C 0.0792 0.46467 0.24522 0.0
C2459 C 0.08319 0.47141 0.2665 0.0
N2460 N 0.0922 0.51354 0.29366 0.0
N2461 N 0.09156 0.48506 0.21088 0.0
C2462 C 0.08506 0.50659 0.27357 0.0
C2463 C 0.08481 0.49234 0.23098 0.0
N2464 N 0.07199 0.56745 0.26589 0.0
N2465 N 0.06889 0.43216 0.23864 0.0
H2466 H 0.09636 0.50456 0.19999 0.0
H2467 H 0.09545 0.45956 0.20547 0.0
H2468 H 0.06276 0.41174 0.24871 0.0
H2469 H 0.06271 0.42678 0.2234 0.0
H2470 H 0.066 0.57308 0.28112 0.0
H2471 H 0.06679 0.58814 0.25582 0.0
H2472 H 0.09733 0.53882 0.29906 0.0
H2473 H 0.09611 0.49383 0.30455 0.0
C2474 C 0.24246 0.38269 0.01376 0.0
C2475 C 0.26945 0.35697 0.01336 0.0
C2476 C 0.24998 0.33965 0.97904 0.0
C2477 C 0.21807 0.35766 0.98239 0.0
N2478 N 0.20166 0.41593 0.99293 0.0
N2479 N 0.30147 0.31288 0.99408 0.0
C2480 C 0.21942 0.38545 0.99677 0.0
C2481 C 0.27399 0.33584 0.99557 0.0
N2482 N 0.23829 0.40399 0.03041 0.0
N2483 N 0.2609 0.33386 0.95949 0.0
H2484 H 0.32089 0.31052 0.00528 0.0
H2485 H 0.30361 0.29487 0.9821 0.0
H2486 H 0.24716 0.34466 0.94715 0.0
H2487 H 0.28562 0.32375 0.95587 0.0
H2488 H 0.21685 0.42085 0.03208 0.0
H2489 H 0.25478 0.4028 0.04318 0.0
H2490 H 0.20411 0.43836 0.00199 0.0
H2491 H 0.18779 0.41966 0.97929 0.0
C2492 C 0.41364 0.52553 0.74642 0.0
C2493 C 0.40864 0.51784 0.7675 0.0
C2494 C 0.40974 0.45502 0.75959 0.0
C2495 C 0.4079 0.46305 0.73836 0.0
N2496 N 0.40288 0.50675 0.71163 0.0
N2497 N 0.39744 0.47498 0.79402 0.0
C2498 C 0.4085 0.49856 0.73174 0.0
C2499 C 0.40552 0.48246 0.7741 0.0
N2500 N 0.42457 0.55821 0.74044 0.0
N2501 N 0.41692 0.42149 0.76591 0.0
H2502 H 0.39391 0.49439 0.80511 0.0
H2503 H 0.39129 0.4497 0.79907 0.0
H2504 H 0.42194 0.40098 0.75571 0.0
H2505 H 0.42166 0.41495 0.78116 0.0
H2506 H 0.4316 0.56415 0.7254 0.0
H2507 H 0.43032 0.57822 0.75083 0.0
H2508 H 0.39957 0.5325 0.70647 0.0
H2509 H 0.39825 0.48778 0.70042 0.0
C2510 C 0.20951 0.65982 0.49748 0.0
C2511 C 0.21329 0.63595 0.51411 0.0
C2512 C 0.26128 0.60723 0.49574 0.0
C2513 C 0.26334 0.63666 0.48249 0.0
N2514 N 0.2202 0.66455 0.46133 0.0
N2515 N 0.24174 0.58476 0.52851 0.0
C2516 C 0.23226 0.65659 0.48039 0.0
C2517 C 0.23867 0.6087 0.51299 0.0
N2518 N 0.18385 0.68493 0.49762 0.0
N2519 N 0.27812 0.5768 0.4906 0.0
H2520 H 0.22541 0.58494 0.54135 0.0
H2521 H 0.26217 0.56651 0.52927 0.0
H2522 H 0.29176 0.57437 0.47679 0.0
H2523 H 0.27515 0.55335 0.4987 0.0
H2524 H 0.18229 0.70439 0.48636 0.0
H2525 H 0.1658 0.68761 0.50954 0.0
H2526 H 0.1958 0.67628 0.45869 0.0
H2527 H 0.23227 0.65395 0.44838 0.0
loop_
_geom_bond_atom_site_label_1
_geom_bond_atom_site_label_2
_geom_bond_distance
_geom_bond_site_symmetry_2
_ccdc_geom_bond_type
Co0 O3 1.970 . S
Co0 N17 1.989 . S
Co0 O25 1.967 . S
Co0 O32 1.920 . S
Co1 O4 1.966 . S
Co1 N10 2.022 . S
Co1 N18 1.993 . S
Co1 O26 1.941 . S
C2 O3 1.258 . S
C2 O4 1.263 . S
O3 Co0 1.970 . S
O3 C2 1.258 . S
O4 Co1 1.966 . S
O4 C2 1.263 . S
C5 O6 1.235 . S
C5 O32 1.289 . S
O6 C5 1.235 . S
C7 C9 1.400 . S
C7 N10 1.351 . S
C7 C12 1.501 . S
C8 C9 1.387 . S
C8 N11 1.341 . S
C9 C7 1.400 . S
C9 C8 1.387 . S
N10 Co1 2.022 . S
N10 C7 1.351 . S
N10 N11 1.365 . S
N11 C8 1.341 . S
N11 N10 1.365 . S
N11 H31 0.862 . S
C12 C7 1.501 . S
C12 H13 0.961 . S
C12 H14 0.961 . S
C12 H15 0.960 . S
H13 C12 0.961 . S
H14 C12 0.961 . S
H15 C12 0.960 . S
C16 N17 1.342 . S
C16 C20 1.401 . S
C16 C21 1.499 . S
N17 Co0 1.989 . S
N17 C16 1.342 . S
N17 N18 1.388 . S
N18 Co1 1.993 . S
N18 N17 1.388 . S
N18 C19 1.346 . S
C19 N18 1.346 . S
C19 C20 1.396 . S
C19 C29 1.510 . S
C20 C16 1.401 . S
C20 C19 1.396 . S
C21 C16 1.499 . S
C21 H22 0.959 . S
C21 H23 0.960 . S
C21 H24 0.961 . S
H22 C21 0.959 . S
H23 C21 0.960 . S
H24 C21 0.961 . S
O25 Co0 1.967 . S
O25 C33 1.258 . S
O26 Co1 1.941 . S
O26 C33 1.266 . S
H27 C29 0.959 . S
H28 C29 0.961 . S
C29 C19 1.510 . S
C29 H27 0.959 . S
C29 H28 0.961 . S
C29 H30 0.960 . S
H30 C29 0.960 . S
H31 N11 0.862 . S
O32 Co0 1.920 . S
O32 C5 1.289 . S
C33 O25 1.258 . S
C33 O26 1.266 . S
Co34 O37 1.970 . S
Co34 N51 1.989 . S
Co34 O59 1.967 . S
Co34 O66 1.920 . S
Co35 O38 1.966 . S
Co35 N44 2.022 . S
Co35 N52 1.993 . S
Co35 O60 1.941 . S
C36 O37 1.258 . S
C36 O38 1.263 . S
O37 Co34 1.970 . S
O37 C36 1.258 . S
O38 Co35 1.966 . S
O38 C36 1.263 . S
C39 O40 1.235 . S
C39 O66 1.289 . S
O40 C39 1.235 . S
C41 C43 1.400 . S
C41 N44 1.351 . S
C41 C46 1.501 . S
C42 C43 1.387 . S
C42 N45 1.341 . S
C43 C41 1.400 . S
C43 C42 1.387 . S
N44 Co35 2.022 . S
N44 C41 1.351 . S
N44 N45 1.365 . S
N45 C42 1.341 . S
N45 N44 1.365 . S
N45 H65 0.862 . S
C46 C41 1.501 . S
C46 H47 0.961 . S
C46 H48 0.961 . S
C46 H49 0.960 . S
H47 C46 0.961 . S
H48 C46 0.961 . S
H49 C46 0.960 . S
C50 N51 1.342 . S
C50 C54 1.401 . S
C50 C55 1.499 . S
N51 Co34 1.989 . S
N51 C50 1.342 . S
N51 N52 1.388 . S
N52 Co35 1.993 . S
N52 N51 1.388 . S
N52 C53 1.346 . S
C53 N52 1.346 . S
C53 C54 1.396 . S
C53 C63 1.510 . S
C54 C50 1.401 . S
C54 C53 1.396 . S
C55 C50 1.499 . S
C55 H56 0.959 . S
C55 H57 0.960 . S
C55 H58 0.961 . S
H56 C55 0.959 . S
H57 C55 0.960 . S
H58 C55 0.961 . S
O59 Co34 1.967 . S
O59 C67 1.258 . S
O60 Co35 1.941 . S
O60 C67 1.266 . S
H61 C63 0.959 . S
H62 C63 0.961 . S
C63 C53 1.510 . S
C63 H61 0.959 . S
C63 H62 0.961 . S
C63 H64 0.960 . S
H64 C63 0.960 . S
H65 N45 0.862 . S
O66 Co34 1.920 . S
O66 C39 1.289 . S
C67 O59 1.258 . S
C67 O60 1.266 . S
Co68 O71 1.970 . S
Co68 N85 1.989 . S
Co68 O93 1.967 . S
Co68 O100 1.920 . S
Co69 O72 1.966 . S
Co69 N78 2.022 . S
Co69 N86 1.993 . S
Co69 O94 1.941 . S
C70 O71 1.258 . S
C70 O72 1.263 . S
O71 Co68 1.970 . S
O71 C70 1.258 . S
O72 Co69 1.966 . S
O72 C70 1.263 . S
C73 O74 1.235 . S
C73 O100 1.289 . S
O74 C73 1.235 . S
C75 C77 1.400 . S
C75 N78 1.351 . S
C75 C80 1.501 . S
C76 C77 1.387 . S
C76 N79 1.341 . S
C77 C75 1.400 . S
C77 C76 1.387 . S
N78 Co69 2.022 . S
N78 C75 1.351 . S
N78 N79 1.365 . S
N79 C76 1.341 . S
N79 N78 1.365 . S
N79 H99 0.862 . S
C80 C75 1.501 . S
C80 H81 0.961 . S
C80 H82 0.961 . S
C80 H83 0.960 . S
H81 C80 0.961 . S
H82 C80 0.961 . S
H83 C80 0.960 . S
C84 N85 1.342 . S
C84 C88 1.401 . S
C84 C89 1.499 . S
N85 Co68 1.989 . S
N85 C84 1.342 . S
N85 N86 1.388 . S
N86 Co69 1.993 . S
N86 N85 1.388 . S
N86 C87 1.346 . S
C87 N86 1.346 . S
C87 C88 1.396 . S
C87 C97 1.510 . S
C88 C84 1.401 . S
C88 C87 1.396 . S
C89 C84 1.499 . S
C89 H90 0.959 . S
C89 H91 0.960 . S
C89 H92 0.961 . S
H90 C89 0.959 . S
H91 C89 0.960 . S
H92 C89 0.961 . S
O93 Co68 1.967 . S
O93 C101 1.258 . S
O94 Co69 1.941 . S
O94 C101 1.266 . S
H95 C97 0.959 . S
H96 C97 0.961 . S
C97 C87 1.510 . S
C97 H95 0.959 . S
C97 H96 0.961 . S
C97 H98 0.960 . S
H98 C97 0.960 . S
H99 N79 0.862 . S
O100 Co68 1.920 . S
O100 C73 1.289 . S
C101 O93 1.258 . S
C101 O94 1.266 . S
Co102 O105 1.970 . S
Co102 N119 1.989 . S
Co102 O127 1.967 . S
Co102 O134 1.920 . S
Co103 O106 1.966 . S
Co103 N112 2.022 . S
Co103 N120 1.993 . S
Co103 O128 1.941 . S
C104 O105 1.258 . S
C104 O106 1.263 . S
O105 Co102 1.970 . S
O105 C104 1.258 . S
O106 Co103 1.966 . S
O106 C104 1.263 . S
C107 O108 1.235 . S
C107 O134 1.289 . S
O108 C107 1.235 . S
C109 C111 1.400 . S
C109 N112 1.351 . S
C109 C114 1.501 . S
C110 C111 1.387 1_554 S
C110 N113 1.341 1_554 S
C111 C109 1.400 . S
C111 C110 1.387 1_556 S
N112 Co103 2.022 . S
N112 C109 1.351 . S
N112 N113 1.365 . S
N113 C110 1.341 1_556 S
N113 N112 1.365 . S
N113 H133 0.882 . S
C114 C109 1.501 . S
C114 H115 0.961 . S
C114 H116 0.961 . S
C114 H117 0.960 . S
H115 C114 0.961 . S
H116 C114 0.961 . S
H117 C114 0.960 . S
C118 N119 1.342 . S
C118 C122 1.401 . S
C118 C123 1.499 . S
N119 Co102 1.989 . S
N119 C118 1.342 . S
N119 N120 1.388 . S
N120 Co103 1.993 . S
N120 N119 1.388 . S
N120 C121 1.346 . S
C121 N120 1.346 . S
C121 C122 1.396 . S
C121 C131 1.510 . S
C122 C118 1.401 . S
C122 C121 1.396 . S
C123 C118 1.499 . S
C123 H124 0.959 . S
C123 H125 0.960 . S
C123 H126 0.961 . S
H124 C123 0.959 . S
H125 C123 0.960 . S
H126 C123 0.961 . S
O127 Co102 1.967 . S
O127 C135 1.258 . S
O128 Co103 1.941 . S
O128 C135 1.266 . S
H129 C131 0.959 . S
H130 C131 0.961 . S
C131 C121 1.510 . S
C131 H129 0.959 . S
C131 H130 0.961 . S
C131 H132 0.960 . S
H132 C131 0.960 . S
H133 N113 0.882 . S
O134 Co102 1.920 . S
O134 C107 1.289 . S
C135 O127 1.258 . S
C135 O128 1.266 . S
Co136 O139 1.970 . S
Co136 N153 1.989 . S
Co136 O161 1.967 . S
Co136 O168 1.920 . S
Co137 O140 1.966 . S
Co137 N146 2.022 . S
Co137 N154 1.993 . S
Co137 O162 1.941 . S
C138 O139 1.258 . S
C138 O140 1.263 . S
O139 Co136 1.970 . S
O139 C138 1.258 . S
O140 Co137 1.966 . S
O140 C138 1.263 . S
C141 O142 1.235 . S
C141 O168 1.289 . S
O142 C141 1.235 . S
C143 C145 1.400 . S
C143 N146 1.351 . S
C143 C148 1.501 . S
C144 C145 1.387 . S
C144 N147 1.341 . S
C145 C143 1.400 . S
C145 C144 1.387 . S
N146 Co137 2.022 . S
N146 C143 1.351 . S
N146 N147 1.365 . S
N147 C144 1.341 . S
N147 N146 1.365 . S
N147 H167 0.862 . S
C148 C143 1.501 . S
C148 H149 0.961 . S
C148 H150 0.961 . S
C148 H151 0.960 . S
H149 C148 0.961 . S
H150 C148 0.961 . S
H151 C148 0.960 . S
C152 N153 1.342 . S
C152 C156 1.401 . S
C152 C157 1.499 . S
N153 Co136 1.989 . S
N153 C152 1.342 . S
N153 N154 1.388 . S
N154 Co137 1.993 . S
N154 N153 1.388 . S
N154 C155 1.346 . S
C155 N154 1.346 . S
C155 C156 1.396 . S
C155 C165 1.510 . S
C156 C152 1.401 . S
C156 C155 1.396 . S
C157 C152 1.499 . S
C157 H158 0.959 . S
C157 H159 0.960 . S
C157 H160 0.961 . S
H158 C157 0.959 . S
H159 C157 0.960 . S
H160 C157 0.961 . S
O161 Co136 1.967 . S
O161 C169 1.258 . S
O162 Co137 1.941 . S
O162 C169 1.266 . S
H163 C165 0.959 . S
H164 C165 0.961 . S
C165 C155 1.510 . S
C165 H163 0.959 . S
C165 H164 0.961 . S
C165 H166 0.960 . S
H166 C165 0.960 . S
H167 N147 0.862 . S
O168 Co136 1.920 . S
O168 C141 1.289 . S
C169 O161 1.258 . S
C169 O162 1.266 . S
Co170 O173 1.970 . S
Co170 N187 1.989 . S
Co170 O195 1.967 . S
Co170 O202 1.920 . S
Co171 O174 1.966 . S
Co171 N180 2.022 . S
Co171 N188 1.993 . S
Co171 O196 1.941 . S
C172 O173 1.258 . S
C172 O174 1.263 . S
O173 Co170 1.970 . S
O173 C172 1.258 . S
O174 Co171 1.966 . S
O174 C172 1.263 . S
C175 O176 1.235 . S
C175 O202 1.289 . S
O176 C175 1.235 . S
C177 C179 1.400 . S
C177 N180 1.351 . S
C177 C182 1.501 . S
C178 C179 1.387 . S
C178 N181 1.341 . S
C179 C177 1.400 . S
C179 C178 1.387 . S
N180 Co171 2.022 . S
N180 C177 1.351 . S
N180 N181 1.365 . S
N181 C178 1.341 . S
N181 N180 1.365 . S
N181 H201 0.862 . S
C182 C177 1.501 . S
C182 H183 0.961 . S
C182 H184 0.961 . S
C182 H185 0.960 . S
H183 C182 0.961 . S
H184 C182 0.961 . S
H185 C182 0.960 . S
C186 N187 1.342 . S
C186 C190 1.401 . S
C186 C191 1.499 . S
N187 Co170 1.989 . S
N187 C186 1.342 . S
N187 N188 1.388 . S
N188 Co171 1.993 . S
N188 N187 1.388 . S
N188 C189 1.346 . S
C189 N188 1.346 . S
C189 C190 1.396 . S
C189 C199 1.510 . S
C190 C186 1.401 . S
C190 C189 1.396 . S
C191 C186 1.499 . S
C191 H192 0.959 . S
C191 H193 0.960 . S
C191 H194 0.961 . S
H192 C191 0.959 . S
H193 C191 0.960 . S
H194 C191 0.961 . S
O195 Co170 1.967 . S
O195 C203 1.258 . S
O196 Co171 1.941 . S
O196 C203 1.266 . S
H197 C199 0.959 . S
H198 C199 0.961 . S
C199 C189 1.510 . S
C199 H197 0.959 . S
C199 H198 0.961 . S
C199 H200 0.960 . S
H200 C199 0.960 . S
H201 N181 0.862 . S
O202 Co170 1.920 . S
O202 C175 1.289 . S
C203 O195 1.258 . S
C203 O196 1.266 . S
Co204 O207 1.970 . S
Co204 N221 1.989 . S
Co204 O229 1.967 . S
Co204 O236 1.920 . S
Co205 O208 1.966 . S
Co205 N214 2.022 . S
Co205 N222 1.993 . S
Co205 O230 1.941 . S
C206 O207 1.258 . S
C206 O208 1.263 . S
O207 Co204 1.970 . S
O207 C206 1.258 . S
O208 Co205 1.966 . S
O208 C206 1.263 . S
C209 O210 1.235 . S
C209 O236 1.289 . S
O210 C209 1.235 . S
C211 C213 1.400 . S
C211 N214 1.351 . S
C211 C216 1.501 . S
C212 C213 1.387 . S
C212 N215 1.341 . S
C213 C211 1.400 . S
C213 C212 1.387 . S
N214 Co205 2.022 . S
N214 C211 1.351 . S
N214 N215 1.365 . S
N215 C212 1.341 . S
N215 N214 1.365 . S
N215 H235 0.862 . S
C216 C211 1.501 . S
C216 H217 0.961 . S
C216 H218 0.961 . S
C216 H219 0.960 . S
H217 C216 0.961 . S
H218 C216 0.961 . S
H219 C216 0.960 . S
C220 N221 1.342 . S
C220 C224 1.401 . S
C220 C225 1.499 . S
N221 Co204 1.989 . S
N221 C220 1.342 . S
N221 N222 1.388 . S
N222 Co205 1.993 . S
N222 N221 1.388 . S
N222 C223 1.346 . S
C223 N222 1.346 . S
C223 C224 1.396 . S
C223 C233 1.510 . S
C224 C220 1.401 . S
C224 C223 1.396 . S
C225 C220 1.499 . S
C225 H226 0.959 . S
C225 H227 0.960 . S
C225 H228 0.961 . S
H226 C225 0.959 . S
H227 C225 0.960 . S
H228 C225 0.961 . S
O229 Co204 1.967 . S
O229 C237 1.258 . S
O230 Co205 1.941 . S
O230 C237 1.266 . S
H231 C233 0.959 . S
H232 C233 0.961 . S
C233 C223 1.510 . S
C233 H231 0.959 . S
C233 H232 0.961 . S
C233 H234 0.960 . S
H234 C233 0.960 . S
H235 N215 0.862 . S
O236 Co204 1.920 . S
O236 C209 1.289 . S
C237 O229 1.258 . S
C237 O230 1.266 . S
Co238 O241 1.970 . S
Co238 N255 1.989 . S
Co238 O263 1.967 . S
Co238 O270 1.920 . S
Co239 O242 1.966 . S
Co239 N248 2.022 . S
Co239 N256 1.993 . S
Co239 O264 1.941 . S
C240 O241 1.258 . S
C240 O242 1.263 . S
O241 Co238 1.970 . S
O241 C240 1.258 . S
O242 Co239 1.966 . S
O242 C240 1.263 . S
C243 O244 1.235 . S
C243 O270 1.289 . S
O244 C243 1.235 . S
C245 C247 1.400 . S
C245 N248 1.351 . S
C245 C250 1.501 . S
C246 C247 1.387 1_556 S
C246 N249 1.341 1_556 S
C247 C245 1.400 . S
C247 C246 1.387 1_554 S
N248 Co239 2.022 . S
N248 C245 1.351 . S
N248 N249 1.365 . S
N249 C246 1.341 1_554 S
N249 N248 1.365 . S
N249 H269 0.882 . S
C250 C245 1.501 . S
C250 H251 0.961 . S
C250 H252 0.961 . S
C250 H253 0.960 . S
H251 C250 0.961 . S
H252 C250 0.961 . S
H253 C250 0.960 . S
C254 N255 1.342 . S
C254 C258 1.401 . S
C254 C259 1.499 . S
N255 Co238 1.989 . S
N255 C254 1.342 . S
N255 N256 1.388 . S
N256 Co239 1.993 . S
N256 N255 1.388 . S
N256 C257 1.346 . S
C257 N256 1.346 . S
C257 C258 1.396 . S
C257 C267 1.510 . S
C258 C254 1.401 . S
C258 C257 1.396 . S
C259 C254 1.499 . S
C259 H260 0.959 . S
C259 H261 0.960 . S
C259 H262 0.961 . S
H260 C259 0.959 . S
H261 C259 0.960 . S
H262 C259 0.961 . S
O263 Co238 1.967 . S
O263 C271 1.258 . S
O264 Co239 1.941 . S
O264 C271 1.266 . S
H265 C267 0.959 . S
H266 C267 0.961 . S
C267 C257 1.510 . S
C267 H265 0.959 . S
C267 H266 0.961 . S
C267 H268 0.960 . S
H268 C267 0.960 . S
H269 N249 0.882 . S
O270 Co238 1.920 . S
O270 C243 1.289 . S
C271 O263 1.258 . S
C271 O264 1.266 . S
Co272 O275 1.970 . S
Co272 N289 1.989 . S
Co272 O297 1.967 . S
Co272 O304 1.920 . S
Co273 O276 1.966 . S
Co273 N282 2.022 . S
Co273 N290 1.993 . S
Co273 O298 1.941 . S
C274 O275 1.258 . S
C274 O276 1.263 . S
O275 Co272 1.970 . S
O275 C274 1.258 . S
O276 Co273 1.966 . S
O276 C274 1.263 . S
C277 O278 1.235 . S
C277 O304 1.289 . S
O278 C277 1.235 . S
C279 C281 1.400 . S
C279 N282 1.351 . S
C279 C284 1.501 . S
C280 C281 1.387 . S
C280 N283 1.341 . S
C281 C279 1.400 . S
C281 C280 1.387 . S
N282 Co273 2.022 . S
N282 C279 1.351 . S
N282 N283 1.365 . S
N283 C280 1.341 . S
N283 N282 1.365 . S
N283 H303 0.862 . S
C284 C279 1.501 . S
C284 H285 0.961 . S
C284 H286 0.961 . S
C284 H287 0.960 . S
H285 C284 0.961 . S
H286 C284 0.961 . S
H287 C284 0.960 . S
C288 N289 1.342 . S
C288 C292 1.401 . S
C288 C293 1.499 . S
N289 Co272 1.989 . S
N289 C288 1.342 . S
N289 N290 1.388 . S
N290 Co273 1.993 . S
N290 N289 1.388 . S
N290 C291 1.346 . S
C291 N290 1.346 . S
C291 C292 1.396 . S
C291 C301 1.510 . S
C292 C288 1.401 . S
C292 C291 1.396 . S
C293 C288 1.499 . S
C293 H294 0.959 . S
C293 H295 0.960 . S
C293 H296 0.961 . S
H294 C293 0.959 . S
H295 C293 0.960 . S
H296 C293 0.961 . S
O297 Co272 1.967 . S
O297 C305 1.258 . S
O298 Co273 1.941 . S
O298 C305 1.266 . S
H299 C301 0.959 . S
H300 C301 0.961 . S
C301 C291 1.510 . S
C301 H299 0.959 . S
C301 H300 0.961 . S
C301 H302 0.960 . S
H302 C301 0.960 . S
H303 N283 0.862 . S
O304 Co272 1.920 . S
O304 C277 1.289 . S
C305 O297 1.258 . S
C305 O298 1.266 . S
Co306 O309 1.970 . S
Co306 N323 1.989 . S
Co306 O331 1.967 . S
Co306 O338 1.920 . S
Co307 O310 1.966 . S
Co307 N316 2.022 . S
Co307 N324 1.993 . S
Co307 O332 1.941 . S
C308 O309 1.258 . S
C308 O310 1.263 . S
O309 Co306 1.970 . S
O309 C308 1.258 . S
O310 Co307 1.966 . S
O310 C308 1.263 . S
C311 O312 1.235 . S
C311 O338 1.289 . S
O312 C311 1.235 . S
C313 C315 1.400 . S
C313 N316 1.351 . S
C313 C318 1.501 . S
C314 C315 1.387 . S
C314 N317 1.341 . S
C315 C313 1.400 . S
C315 C314 1.387 . S
N316 Co307 2.022 . S
N316 C313 1.351 . S
N316 N317 1.365 . S
N317 C314 1.341 . S
N317 N316 1.365 . S
N317 H337 0.862 . S
C318 C313 1.501 . S
C318 H319 0.961 . S
C318 H320 0.961 . S
C318 H321 0.960 . S
H319 C318 0.961 . S
H320 C318 0.961 . S
H321 C318 0.960 . S
C322 N323 1.342 . S
C322 C326 1.401 . S
C322 C327 1.499 . S
N323 Co306 1.989 . S
N323 C322 1.342 . S
N323 N324 1.388 . S
N324 Co307 1.993 . S
N324 N323 1.388 . S
N324 C325 1.346 . S
C325 N324 1.346 . S
C325 C326 1.396 . S
C325 C335 1.510 . S
C326 C322 1.401 . S
C326 C325 1.396 . S
C327 C322 1.499 . S
C327 H328 0.959 . S
C327 H329 0.960 . S
C327 H330 0.961 . S
H328 C327 0.959 . S
H329 C327 0.960 . S
H330 C327 0.961 . S
O331 Co306 1.967 . S
O331 C339 1.258 . S
O332 Co307 1.941 . S
O332 C339 1.266 . S
H333 C335 0.959 . S
H334 C335 0.961 . S
C335 C325 1.510 . S
C335 H333 0.959 . S
C335 H334 0.961 . S
C335 H336 0.960 . S
H336 C335 0.960 . S
H337 N317 0.862 . S
O338 Co306 1.920 . S
O338 C311 1.289 . S
C339 O331 1.258 . S
C339 O332 1.266 . S
Co340 O343 1.970 . S
Co340 N357 1.989 . S
Co340 O365 1.967 . S
Co340 O372 1.920 . S
Co341 O344 1.966 . S
Co341 N350 2.022 . S
Co341 N358 1.993 . S
Co341 O366 1.941 . S
C342 O343 1.258 . S
C342 O344 1.263 . S
O343 Co340 1.970 . S
O343 C342 1.258 . S
O344 Co341 1.966 . S
O344 C342 1.263 . S
C345 O346 1.235 . S
C345 O372 1.289 . S
O346 C345 1.235 . S
C347 C349 1.400 . S
C347 N350 1.351 . S
C347 C352 1.501 . S
C348 C349 1.387 . S
C348 N351 1.341 . S
C349 C347 1.400 . S
C349 C348 1.387 . S
N350 Co341 2.022 . S
N350 C347 1.351 . S
N350 N351 1.365 . S
N351 C348 1.341 . S
N351 N350 1.365 . S
N351 H371 0.862 . S
C352 C347 1.501 . S
C352 H353 0.961 . S
C352 H354 0.961 . S
C352 H355 0.960 . S
H353 C352 0.961 . S
H354 C352 0.961 . S
H355 C352 0.960 . S
C356 N357 1.342 . S
C356 C360 1.401 . S
C356 C361 1.499 . S
N357 Co340 1.989 . S
N357 C356 1.342 . S
N357 N358 1.388 . S
N358 Co341 1.993 . S
N358 N357 1.388 . S
N358 C359 1.346 . S
C359 N358 1.346 . S
C359 C360 1.396 . S
C359 C369 1.510 . S
C360 C356 1.401 . S
C360 C359 1.396 . S
C361 C356 1.499 . S
C361 H362 0.959 . S
C361 H363 0.960 . S
C361 H364 0.961 . S
H362 C361 0.959 . S
H363 C361 0.960 . S
H364 C361 0.961 . S
O365 Co340 1.967 . S
O365 C373 1.258 . S
O366 Co341 1.941 . S
O366 C373 1.266 . S
H367 C369 0.959 . S
H368 C369 0.961 . S
C369 C359 1.510 . S
C369 H367 0.959 . S
C369 H368 0.961 . S
C369 H370 0.960 . S
H370 C369 0.960 . S
H371 N351 0.862 . S
O372 Co340 1.920 . S
O372 C345 1.289 . S
C373 O365 1.258 . S
C373 O366 1.266 . S
Co374 O377 1.970 . S
Co374 N391 1.989 . S
Co374 O399 1.967 . S
Co374 O406 1.920 . S
Co375 O378 1.966 . S
Co375 N384 2.022 . S
Co375 N392 1.993 . S
Co375 O400 1.941 . S
C376 O377 1.258 . S
C376 O378 1.263 . S
O377 Co374 1.970 . S
O377 C376 1.258 . S
O378 Co375 1.966 . S
O378 C376 1.263 . S
C379 O380 1.235 . S
C379 O406 1.289 . S
O380 C379 1.235 . S
C381 C383 1.400 . S
C381 N384 1.351 . S
C381 C386 1.501 . S
C382 C383 1.387 1_556 S
C382 N385 1.341 1_556 S
C383 C381 1.400 . S
C383 C382 1.387 1_554 S
N384 Co375 2.022 . S
N384 C381 1.351 . S
N384 N385 1.365 . S
N385 C382 1.341 1_554 S
N385 N384 1.365 . S
N385 H405 0.882 . S
C386 C381 1.501 . S
C386 H387 0.961 . S
C386 H388 0.961 . S
C386 H389 0.960 . S
H387 C386 0.961 . S
H388 C386 0.961 . S
H389 C386 0.960 . S
C390 N391 1.342 . S
C390 C394 1.401 . S
C390 C395 1.499 . S
N391 Co374 1.989 . S
N391 C390 1.342 . S
N391 N392 1.388 . S
N392 Co375 1.993 . S
N392 N391 1.388 . S
N392 C393 1.346 . S
C393 N392 1.346 . S
C393 C394 1.396 . S
C393 C403 1.510 . S
C394 C390 1.401 . S
C394 C393 1.396 . S
C395 C390 1.499 . S
C395 H396 0.959 . S
C395 H397 0.960 . S
C395 H398 0.961 . S
H396 C395 0.959 . S
H397 C395 0.960 . S
H398 C395 0.961 . S
O399 Co374 1.967 . S
O399 C407 1.258 . S
O400 Co375 1.941 . S
O400 C407 1.266 . S
H401 C403 0.959 . S
H402 C403 0.961 . S
C403 C393 1.510 . S
C403 H401 0.959 . S
C403 H402 0.961 . S
C403 H404 0.960 . S
H404 C403 0.960 . S
H405 N385 0.882 . S
O406 Co374 1.920 . S
O406 C379 1.289 . S
C407 O399 1.258 . S
C407 O400 1.266 . S
Co408 O411 1.970 . S
Co408 N425 1.989 . S
Co408 O433 1.967 . S
Co408 O440 1.920 . S
Co409 O412 1.966 . S
Co409 N418 2.022 . S
Co409 N426 1.993 . S
Co409 O434 1.941 . S
C410 O411 1.258 . S
C410 O412 1.263 . S
O411 Co408 1.970 . S
O411 C410 1.258 . S
O412 Co409 1.966 . S
O412 C410 1.263 . S
C413 O414 1.235 . S
C413 O440 1.289 . S
O414 C413 1.235 . S
C415 C417 1.400 . S
C415 N418 1.351 . S
C415 C420 1.501 . S
C416 C417 1.387 . S
C416 N419 1.341 . S
C417 C415 1.400 . S
C417 C416 1.387 . S
N418 Co409 2.022 . S
N418 C415 1.351 . S
N418 N419 1.365 . S
N419 C416 1.341 . S
N419 N418 1.365 . S
N419 H439 0.862 . S
C420 C415 1.501 . S
C420 H421 0.961 . S
C420 H422 0.961 . S
C420 H423 0.960 . S
H421 C420 0.961 . S
H422 C420 0.961 . S
H423 C420 0.960 . S
C424 N425 1.342 . S
C424 C428 1.401 . S
C424 C429 1.499 . S
N425 Co408 1.989 . S
N425 C424 1.342 . S
N425 N426 1.388 . S
N426 Co409 1.993 . S
N426 N425 1.388 . S
N426 C427 1.346 . S
C427 N426 1.346 . S
C427 C428 1.396 . S
C427 C437 1.510 . S
C428 C424 1.401 . S
C428 C427 1.396 . S
C429 C424 1.499 . S
C429 H430 0.959 . S
C429 H431 0.960 . S
C429 H432 0.961 . S
H430 C429 0.959 . S
H431 C429 0.960 . S
H432 C429 0.961 . S
O433 Co408 1.967 . S
O433 C441 1.258 . S
O434 Co409 1.941 . S
O434 C441 1.266 . S
H435 C437 0.959 . S
H436 C437 0.961 . S
C437 C427 1.510 . S
C437 H435 0.959 . S
C437 H436 0.961 . S
C437 H438 0.960 . S
H438 C437 0.960 . S
H439 N419 0.862 . S
O440 Co408 1.920 . S
O440 C413 1.289 . S
C441 O433 1.258 . S
C441 O434 1.266 . S
Co442 O445 1.970 . S
Co442 N459 1.989 . S
Co442 O467 1.967 . S
Co442 O474 1.920 . S
Co443 O446 1.966 . S
Co443 N452 2.022 . S
Co443 N460 1.993 . S
Co443 O468 1.941 . S
C444 O445 1.258 . S
C444 O446 1.263 . S
O445 Co442 1.970 . S
O445 C444 1.258 . S
O446 Co443 1.966 . S
O446 C444 1.263 . S
C447 O448 1.235 . S
C447 O474 1.289 . S
O448 C447 1.235 . S
C449 C451 1.400 . S
C449 N452 1.351 . S
C449 C454 1.501 . S
C450 C451 1.387 . S
C450 N453 1.341 . S
C451 C449 1.400 . S
C451 C450 1.387 . S
N452 Co443 2.022 . S
N452 C449 1.351 . S
N452 N453 1.365 . S
N453 C450 1.341 . S
N453 N452 1.365 . S
N453 H473 0.862 . S
C454 C449 1.501 . S
C454 H455 0.961 . S
C454 H456 0.961 . S
C454 H457 0.960 . S
H455 C454 0.961 . S
H456 C454 0.961 . S
H457 C454 0.960 . S
C458 N459 1.342 . S
C458 C462 1.401 . S
C458 C463 1.499 . S
N459 Co442 1.989 . S
N459 C458 1.342 . S
N459 N460 1.388 . S
N460 Co443 1.993 . S
N460 N459 1.388 . S
N460 C461 1.346 . S
C461 N460 1.346 . S
C461 C462 1.396 . S
C461 C471 1.510 . S
C462 C458 1.401 . S
C462 C461 1.396 . S
C463 C458 1.499 . S
C463 H464 0.959 . S
C463 H465 0.960 . S
C463 H466 0.961 . S
H464 C463 0.959 . S
H465 C463 0.960 . S
H466 C463 0.961 . S
O467 Co442 1.967 . S
O467 C475 1.258 . S
O468 Co443 1.941 . S
O468 C475 1.266 . S
H469 C471 0.959 . S
H470 C471 0.961 . S
C471 C461 1.510 . S
C471 H469 0.959 . S
C471 H470 0.961 . S
C471 H472 0.960 . S
H472 C471 0.960 . S
H473 N453 0.862 . S
O474 Co442 1.920 . S
O474 C447 1.289 . S
C475 O467 1.258 . S
C475 O468 1.266 . S
Co476 O479 1.970 . S
Co476 N493 1.989 . S
Co476 O501 1.967 . S
Co476 O508 1.920 . S
Co477 O480 1.966 . S
Co477 N486 2.022 . S
Co477 N494 1.993 . S
Co477 O502 1.941 . S
C478 O479 1.258 . S
C478 O480 1.263 . S
O479 Co476 1.970 . S
O479 C478 1.258 . S
O480 Co477 1.966 . S
O480 C478 1.263 . S
C481 O482 1.235 . S
C481 O508 1.289 . S
O482 C481 1.235 . S
C483 C485 1.400 . S
C483 N486 1.351 . S
C483 C488 1.501 . S
C484 C485 1.387 . S
C484 N487 1.341 . S
C485 C483 1.400 . S
C485 C484 1.387 . S
N486 Co477 2.022 . S
N486 C483 1.351 . S
N486 N487 1.365 . S
N487 C484 1.341 . S
N487 N486 1.365 . S
N487 H507 0.862 . S
C488 C483 1.501 . S
C488 H489 0.961 . S
C488 H490 0.961 . S
C488 H491 0.960 . S
H489 C488 0.961 . S
H490 C488 0.961 . S
H491 C488 0.960 . S
C492 N493 1.342 . S
C492 C496 1.401 . S
C492 C497 1.499 . S
N493 Co476 1.989 . S
N493 C492 1.342 . S
N493 N494 1.388 . S
N494 Co477 1.993 . S
N494 N493 1.388 . S
N494 C495 1.346 . S
C495 N494 1.346 . S
C495 C496 1.396 . S
C495 C505 1.510 . S
C496 C492 1.401 . S
C496 C495 1.396 . S
C497 C492 1.499 . S
C497 H498 0.959 . S
C497 H499 0.960 . S
C497 H500 0.961 . S
H498 C497 0.959 . S
H499 C497 0.960 . S
H500 C497 0.961 . S
O501 Co476 1.967 . S
O501 C509 1.258 . S
O502 Co477 1.941 . S
O502 C509 1.266 . S
H503 C505 0.959 . S
H504 C505 0.961 . S
C505 C495 1.510 . S
C505 H503 0.959 . S
C505 H504 0.961 . S
C505 H506 0.960 . S
H506 C505 0.960 . S
H507 N487 0.862 . S
O508 Co476 1.920 . S
O508 C481 1.289 . S
C509 O501 1.258 . S
C509 O502 1.266 . S
Co510 O513 1.970 . S
Co510 N527 1.989 . S
Co510 O535 1.967 . S
Co510 O542 1.920 . S
Co511 O514 1.966 . S
Co511 N520 2.022 . S
Co511 N528 1.993 . S
Co511 O536 1.941 . S
C512 O513 1.258 . S
C512 O514 1.263 . S
O513 Co510 1.970 . S
O513 C512 1.258 . S
O514 Co511 1.966 . S
O514 C512 1.263 . S
C515 O516 1.235 . S
C515 O542 1.289 . S
O516 C515 1.235 . S
C517 C519 1.400 . S
C517 N520 1.351 . S
C517 C522 1.501 . S
C518 C519 1.387 1_554 S
C518 N521 1.341 1_554 S
C519 C517 1.400 . S
C519 C518 1.387 1_556 S
N520 Co511 2.022 . S
N520 C517 1.351 . S
N520 N521 1.365 . S
N521 C518 1.341 1_556 S
N521 N520 1.365 . S
N521 H541 0.882 . S
C522 C517 1.501 . S
C522 H523 0.961 . S
C522 H524 0.961 . S
C522 H525 0.960 . S
H523 C522 0.961 . S
H524 C522 0.961 . S
H525 C522 0.960 . S
C526 N527 1.342 . S
C526 C530 1.401 . S
C526 C531 1.499 . S
N527 Co510 1.989 . S
N527 C526 1.342 . S
N527 N528 1.388 . S
N528 Co511 1.993 . S
N528 N527 1.388 . S
N528 C529 1.346 . S
C529 N528 1.346 . S
C529 C530 1.396 . S
C529 C539 1.510 . S
C530 C526 1.401 . S
C530 C529 1.396 . S
C531 C526 1.499 . S
C531 H532 0.959 . S
C531 H533 0.960 . S
C531 H534 0.961 . S
H532 C531 0.959 . S
H533 C531 0.960 . S
H534 C531 0.961 . S
O535 Co510 1.967 . S
O535 C543 1.258 . S
O536 Co511 1.941 . S
O536 C543 1.266 . S
H537 C539 0.959 . S
H538 C539 0.961 . S
C539 C529 1.510 . S
C539 H537 0.959 . S
C539 H538 0.961 . S
C539 H540 0.960 . S
H540 C539 0.960 . S
H541 N521 0.882 . S
O542 Co510 1.920 . S
O542 C515 1.289 . S
C543 O535 1.258 . S
C543 O536 1.266 . S
Co544 O547 1.970 . S
Co544 N561 1.989 . S
Co544 O569 1.967 . S
Co544 O576 1.920 . S
Co545 O548 1.966 . S
Co545 N554 2.022 . S
Co545 N562 1.993 . S
Co545 O570 1.941 . S
C546 O547 1.258 . S
C546 O548 1.263 . S
O547 Co544 1.970 . S
O547 C546 1.258 . S
O548 Co545 1.966 . S
O548 C546 1.263 . S
C549 O550 1.235 . S
C549 O576 1.289 . S
O550 C549 1.235 . S
C551 C553 1.400 . S
C551 N554 1.351 . S
C551 C556 1.501 . S
C552 C553 1.387 . S
C552 N555 1.341 . S
C553 C551 1.400 . S
C553 C552 1.387 . S
N554 Co545 2.022 . S
N554 C551 1.351 . S
N554 N555 1.365 . S
N555 C552 1.341 . S
N555 N554 1.365 . S
N555 H575 0.862 . S
C556 C551 1.501 . S
C556 H557 0.961 . S
C556 H558 0.961 . S
C556 H559 0.960 . S
H557 C556 0.961 . S
H558 C556 0.961 . S
H559 C556 0.960 . S
C560 N561 1.342 . S
C560 C564 1.401 . S
C560 C565 1.499 . S
N561 Co544 1.989 . S
N561 C560 1.342 . S
N561 N562 1.388 . S
N562 Co545 1.993 . S
N562 N561 1.388 . S
N562 C563 1.346 . S
C563 N562 1.346 . S
C563 C564 1.396 . S
C563 C573 1.510 . S
C564 C560 1.401 . S
C564 C563 1.396 . S
C565 C560 1.499 . S
C565 H566 0.959 . S
C565 H567 0.960 . S
C565 H568 0.961 . S
H566 C565 0.959 . S
H567 C565 0.960 . S
H568 C565 0.961 . S
O569 Co544 1.967 . S
O569 C577 1.258 . S
O570 Co545 1.941 . S
O570 C577 1.266 . S
H571 C573 0.959 . S
H572 C573 0.961 . S
C573 C563 1.510 . S
C573 H571 0.959 . S
C573 H572 0.961 . S
C573 H574 0.960 . S
H574 C573 0.960 . S
H575 N555 0.862 . S
O576 Co544 1.920 . S
O576 C549 1.289 . S
C577 O569 1.258 . S
C577 O570 1.266 . S
Co578 O581 1.970 . S
Co578 N595 1.989 . S
Co578 O603 1.967 . S
Co578 O610 1.920 . S
Co579 O582 1.966 . S
Co579 N588 2.022 . S
Co579 N596 1.993 . S
Co579 O604 1.941 . S
C580 O581 1.258 . S
C580 O582 1.263 . S
O581 Co578 1.970 . S
O581 C580 1.258 . S
O582 Co579 1.966 . S
O582 C580 1.263 . S
C583 O584 1.235 . S
C583 O610 1.289 . S
O584 C583 1.235 . S
C585 C587 1.400 . S
C585 N588 1.351 . S
C585 C590 1.501 . S
C586 C587 1.387 1_554 S
C586 N589 1.341 1_554 S
C587 C585 1.400 . S
C587 C586 1.387 1_556 S
N588 Co579 2.022 . S
N588 C585 1.351 . S
N588 N589 1.365 . S
N589 C586 1.341 1_556 S
N589 N588 1.365 . S
N589 H609 0.882 . S
C590 C585 1.501 . S
C590 H591 0.961 . S
C590 H592 0.961 . S
C590 H593 0.960 . S
H591 C590 0.961 . S
H592 C590 0.961 . S
H593 C590 0.960 . S
C594 N595 1.342 . S
C594 C598 1.401 . S
C594 C599 1.499 . S
N595 Co578 1.989 . S
N595 C594 1.342 . S
N595 N596 1.388 . S
N596 Co579 1.993 . S
N596 N595 1.388 . S
N596 C597 1.346 . S
C597 N596 1.346 . S
C597 C598 1.396 . S
C597 C607 1.510 . S
C598 C594 1.401 . S
C598 C597 1.396 . S
C599 C594 1.499 . S
C599 H600 0.959 . S
C599 H601 0.960 . S
C599 H602 0.961 . S
H600 C599 0.959 . S
H601 C599 0.960 . S
H602 C599 0.961 . S
O603 Co578 1.967 . S
O603 C611 1.258 . S
O604 Co579 1.941 . S
O604 C611 1.266 . S
H605 C607 0.959 . S
H606 C607 0.961 . S
C607 C597 1.510 . S
C607 H605 0.959 . S
C607 H606 0.961 . S
C607 H608 0.960 . S
H608 C607 0.960 . S
H609 N589 0.882 . S
O610 Co578 1.920 . S
O610 C583 1.289 . S
C611 O603 1.258 . S
C611 O604 1.266 . S
Co612 O615 1.970 . S
Co612 N629 1.989 . S
Co612 O637 1.967 . S
Co612 O644 1.920 . S
Co613 O616 1.966 . S
Co613 N622 2.022 . S
Co613 N630 1.993 . S
Co613 O638 1.941 . S
C614 O615 1.258 . S
C614 O616 1.263 . S
O615 Co612 1.970 . S
O615 C614 1.258 . S
O616 Co613 1.966 . S
O616 C614 1.263 . S
C617 O618 1.235 . S
C617 O644 1.289 . S
O618 C617 1.235 . S
C619 C621 1.400 . S
C619 N622 1.351 . S
C619 C624 1.501 . S
C620 C621 1.387 . S
C620 N623 1.341 . S
C621 C619 1.400 . S
C621 C620 1.387 . S
N622 Co613 2.022 . S
N622 C619 1.351 . S
N622 N623 1.365 . S
N623 C620 1.341 . S
N623 N622 1.365 . S
N623 H643 0.862 . S
C624 C619 1.501 . S
C624 H625 0.961 . S
C624 H626 0.961 . S
C624 H627 0.960 . S
H625 C624 0.961 . S
H626 C624 0.961 . S
H627 C624 0.960 . S
C628 N629 1.342 . S
C628 C632 1.401 . S
C628 C633 1.499 . S
N629 Co612 1.989 . S
N629 C628 1.342 . S
N629 N630 1.388 . S
N630 Co613 1.993 . S
N630 N629 1.388 . S
N630 C631 1.346 . S
C631 N630 1.346 . S
C631 C632 1.396 . S
C631 C641 1.510 . S
C632 C628 1.401 . S
C632 C631 1.396 . S
C633 C628 1.499 . S
C633 H634 0.959 . S
C633 H635 0.960 . S
C633 H636 0.961 . S
H634 C633 0.959 . S
H635 C633 0.960 . S
H636 C633 0.961 . S
O637 Co612 1.967 . S
O637 C645 1.258 . S
O638 Co613 1.941 . S
O638 C645 1.266 . S
H639 C641 0.959 . S
H640 C641 0.961 . S
C641 C631 1.510 . S
C641 H639 0.959 . S
C641 H640 0.961 . S
C641 H642 0.960 . S
H642 C641 0.960 . S
H643 N623 0.862 . S
O644 Co612 1.920 . S
O644 C617 1.289 . S
C645 O637 1.258 . S
C645 O638 1.266 . S
Co646 O649 1.970 . S
Co646 N663 1.989 . S
Co646 O671 1.967 . S
Co646 O678 1.920 . S
Co647 O650 1.966 . S
Co647 N656 2.022 . S
Co647 N664 1.993 . S
Co647 O672 1.941 . S
C648 O649 1.258 . S
C648 O650 1.263 . S
O649 Co646 1.970 . S
O649 C648 1.258 . S
O650 Co647 1.966 . S
O650 C648 1.263 . S
C651 O652 1.235 . S
C651 O678 1.289 . S
O652 C651 1.235 . S
C653 C655 1.400 . S
C653 N656 1.351 . S
C653 C658 1.501 . S
C654 C655 1.387 . S
C654 N657 1.341 . S
C655 C653 1.400 . S
C655 C654 1.387 . S
N656 Co647 2.022 . S
N656 C653 1.351 . S
N656 N657 1.365 . S
N657 C654 1.341 . S
N657 N656 1.365 . S
N657 H677 0.862 . S
C658 C653 1.501 . S
C658 H659 0.961 . S
C658 H660 0.961 . S
C658 H661 0.960 . S
H659 C658 0.961 . S
H660 C658 0.961 . S
H661 C658 0.960 . S
C662 N663 1.342 . S
C662 C666 1.401 . S
C662 C667 1.499 . S
N663 Co646 1.989 . S
N663 C662 1.342 . S
N663 N664 1.388 . S
N664 Co647 1.993 . S
N664 N663 1.388 . S
N664 C665 1.346 . S
C665 N664 1.346 . S
C665 C666 1.396 . S
C665 C675 1.510 . S
C666 C662 1.401 . S
C666 C665 1.396 . S
C667 C662 1.499 . S
C667 H668 0.959 . S
C667 H669 0.960 . S
C667 H670 0.961 . S
H668 C667 0.959 . S
H669 C667 0.960 . S
H670 C667 0.961 . S
O671 Co646 1.967 . S
O671 C679 1.258 . S
O672 Co647 1.941 . S
O672 C679 1.266 . S
H673 C675 0.959 . S
H674 C675 0.961 . S
C675 C665 1.510 . S
C675 H673 0.959 . S
C675 H674 0.961 . S
C675 H676 0.960 . S
H676 C675 0.960 . S
H677 N657 0.862 . S
O678 Co646 1.920 . S
O678 C651 1.289 . S
C679 O671 1.258 . S
C679 O672 1.266 . S
Co680 O683 1.970 . S
Co680 N697 1.989 . S
Co680 O705 1.967 . S
Co680 O712 1.920 . S
Co681 O684 1.966 . S
Co681 N690 2.022 . S
Co681 N698 1.993 . S
Co681 O706 1.941 . S
C682 O683 1.258 . S
C682 O684 1.263 . S
O683 Co680 1.970 . S
O683 C682 1.258 . S
O684 Co681 1.966 . S
O684 C682 1.263 . S
C685 O686 1.235 . S
C685 O712 1.289 . S
O686 C685 1.235 . S
C687 C689 1.400 . S
C687 N690 1.351 . S
C687 C692 1.501 . S
C688 C689 1.387 . S
C688 N691 1.341 . S
C689 C687 1.400 . S
C689 C688 1.387 . S
N690 Co681 2.022 . S
N690 C687 1.351 . S
N690 N691 1.365 . S
N691 C688 1.341 . S
N691 N690 1.365 . S
N691 H711 0.862 . S
C692 C687 1.501 . S
C692 H693 0.961 . S
C692 H694 0.961 . S
C692 H695 0.960 . S
H693 C692 0.961 . S
H694 C692 0.961 . S
H695 C692 0.960 . S
C696 N697 1.342 . S
C696 C700 1.401 . S
C696 C701 1.499 . S
N697 Co680 1.989 . S
N697 C696 1.342 . S
N697 N698 1.388 . S
N698 Co681 1.993 . S
N698 N697 1.388 . S
N698 C699 1.346 . S
C699 N698 1.346 . S
C699 C700 1.396 . S
C699 C709 1.510 . S
C700 C696 1.401 . S
C700 C699 1.396 . S
C701 C696 1.499 . S
C701 H702 0.959 . S
C701 H703 0.960 . S
C701 H704 0.961 . S
H702 C701 0.959 . S
H703 C701 0.960 . S
H704 C701 0.961 . S
O705 Co680 1.967 . S
O705 C713 1.258 . S
O706 Co681 1.941 . S
O706 C713 1.266 . S
H707 C709 0.959 . S
H708 C709 0.961 . S
C709 C699 1.510 . S
C709 H707 0.959 . S
C709 H708 0.961 . S
C709 H710 0.960 . S
H710 C709 0.960 . S
H711 N691 0.862 . S
O712 Co680 1.920 . S
O712 C685 1.289 . S
C713 O705 1.258 . S
C713 O706 1.266 . S
Co714 O717 1.970 . S
Co714 N731 1.989 . S
Co714 O739 1.967 . S
Co714 O746 1.920 . S
Co715 O718 1.966 . S
Co715 N724 2.022 . S
Co715 N732 1.993 . S
Co715 O740 1.941 . S
C716 O717 1.258 . S
C716 O718 1.263 . S
O717 Co714 1.970 . S
O717 C716 1.258 . S
O718 Co715 1.966 . S
O718 C716 1.263 . S
C719 O720 1.235 . S
C719 O746 1.289 . S
O720 C719 1.235 . S
C721 C723 1.400 . S
C721 N724 1.351 . S
C721 C726 1.501 . S
C722 C723 1.387 1_556 S
C722 N725 1.341 1_556 S
C723 C721 1.400 . S
C723 C722 1.387 1_554 S
N724 Co715 2.022 . S
N724 C721 1.351 . S
N724 N725 1.365 . S
N725 C722 1.341 1_554 S
N725 N724 1.365 . S
N725 H745 0.882 . S
C726 C721 1.501 . S
C726 H727 0.961 . S
C726 H728 0.961 . S
C726 H729 0.960 . S
H727 C726 0.961 . S
H728 C726 0.961 . S
H729 C726 0.960 . S
C730 N731 1.342 . S
C730 C734 1.401 . S
C730 C735 1.499 . S
N731 Co714 1.989 . S
N731 C730 1.342 . S
N731 N732 1.388 . S
N732 Co715 1.993 . S
N732 N731 1.388 . S
N732 C733 1.346 . S
C733 N732 1.346 . S
C733 C734 1.396 . S
C733 C743 1.510 . S
C734 C730 1.401 . S
C734 C733 1.396 . S
C735 C730 1.499 . S
C735 H736 0.959 . S
C735 H737 0.960 . S
C735 H738 0.961 . S
H736 C735 0.959 . S
H737 C735 0.960 . S
H738 C735 0.961 . S
O739 Co714 1.967 . S
O739 C747 1.258 . S
O740 Co715 1.941 . S
O740 C747 1.266 . S
H741 C743 0.959 . S
H742 C743 0.961 . S
C743 C733 1.510 . S
C743 H741 0.959 . S
C743 H742 0.961 . S
C743 H744 0.960 . S
H744 C743 0.960 . S
H745 N725 0.882 . S
O746 Co714 1.920 . S
O746 C719 1.289 . S
C747 O739 1.258 . S
C747 O740 1.266 . S
Co748 O751 1.970 . S
Co748 N765 1.989 . S
Co748 O773 1.967 . S
Co748 O780 1.920 . S
Co749 O752 1.966 . S
Co749 N758 2.022 . S
Co749 N766 1.993 . S
Co749 O774 1.941 . S
C750 O751 1.258 . S
C750 O752 1.263 . S
O751 Co748 1.970 . S
O751 C750 1.258 . S
O752 Co749 1.966 . S
O752 C750 1.263 . S
C753 O754 1.235 . S
C753 O780 1.289 . S
O754 C753 1.235 . S
C755 C757 1.400 . S
C755 N758 1.351 . S
C755 C760 1.501 . S
C756 C757 1.387 . S
C756 N759 1.341 . S
C757 C755 1.400 . S
C757 C756 1.387 . S
N758 Co749 2.022 . S
N758 C755 1.351 . S
N758 N759 1.365 . S
N759 C756 1.341 . S
N759 N758 1.365 . S
N759 H779 0.862 . S
C760 C755 1.501 . S
C760 H761 0.961 . S
C760 H762 0.961 . S
C760 H763 0.960 . S
H761 C760 0.961 . S
H762 C760 0.961 . S
H763 C760 0.960 . S
C764 N765 1.342 . S
C764 C768 1.401 . S
C764 C769 1.499 . S
N765 Co748 1.989 . S
N765 C764 1.342 . S
N765 N766 1.388 . S
N766 Co749 1.993 . S
N766 N765 1.388 . S
N766 C767 1.346 . S
C767 N766 1.346 . S
C767 C768 1.396 . S
C767 C777 1.510 . S
C768 C764 1.401 . S
C768 C767 1.396 . S
C769 C764 1.499 . S
C769 H770 0.959 . S
C769 H771 0.960 . S
C769 H772 0.961 . S
H770 C769 0.959 . S
H771 C769 0.960 . S
H772 C769 0.961 . S
O773 Co748 1.967 . S
O773 C781 1.258 . S
O774 Co749 1.941 . S
O774 C781 1.266 . S
H775 C777 0.959 . S
H776 C777 0.961 . S
C777 C767 1.510 . S
C777 H775 0.959 . S
C777 H776 0.961 . S
C777 H778 0.960 . S
H778 C777 0.960 . S
H779 N759 0.862 . S
O780 Co748 1.920 . S
O780 C753 1.289 . S
C781 O773 1.258 . S
C781 O774 1.266 . S
Co782 O785 1.970 . S
Co782 N799 1.989 . S
Co782 O807 1.967 . S
Co782 O814 1.920 . S
Co783 O786 1.966 . S
Co783 N792 2.022 . S
Co783 N800 1.993 . S
Co783 O808 1.941 . S
C784 O785 1.258 . S
C784 O786 1.263 . S
O785 Co782 1.970 . S
O785 C784 1.258 . S
O786 Co783 1.966 . S
O786 C784 1.263 . S
C787 O788 1.235 . S
C787 O814 1.289 . S
O788 C787 1.235 . S
C789 C791 1.400 . S
C789 N792 1.351 . S
C789 C794 1.501 . S
C790 C791 1.387 . S
C790 N793 1.341 . S
C791 C789 1.400 . S
C791 C790 1.387 . S
N792 Co783 2.022 . S
N792 C789 1.351 . S
N792 N793 1.365 . S
N793 C790 1.341 . S
N793 N792 1.365 . S
N793 H813 0.862 . S
C794 C789 1.501 . S
C794 H795 0.961 . S
C794 H796 0.961 . S
C794 H797 0.960 . S
H795 C794 0.961 . S
H796 C794 0.961 . S
H797 C794 0.960 . S
C798 N799 1.342 . S
C798 C802 1.401 . S
C798 C803 1.499 . S
N799 Co782 1.989 . S
N799 C798 1.342 . S
N799 N800 1.388 . S
N800 Co783 1.993 . S
N800 N799 1.388 . S
N800 C801 1.346 . S
C801 N800 1.346 . S
C801 C802 1.396 . S
C801 C811 1.510 . S
C802 C798 1.401 . S
C802 C801 1.396 . S
C803 C798 1.499 . S
C803 H804 0.959 . S
C803 H805 0.960 . S
C803 H806 0.961 . S
H804 C803 0.959 . S
H805 C803 0.960 . S
H806 C803 0.961 . S
O807 Co782 1.967 . S
O807 C815 1.258 . S
O808 Co783 1.941 . S
O808 C815 1.266 . S
H809 C811 0.959 . S
H810 C811 0.961 . S
C811 C801 1.510 . S
C811 H809 0.959 . S
C811 H810 0.961 . S
C811 H812 0.960 . S
H812 C811 0.960 . S
H813 N793 0.862 . S
O814 Co782 1.920 . S
O814 C787 1.289 . S
C815 O807 1.258 . S
C815 O808 1.266 . S
Co816 O819 1.970 . S
Co816 N833 1.989 . S
Co816 O841 1.967 . S
Co816 O848 1.920 . S
Co817 O820 1.966 . S
Co817 N826 2.022 . S
Co817 N834 1.993 . S
Co817 O842 1.941 . S
C818 O819 1.258 . S
C818 O820 1.263 . S
O819 Co816 1.970 . S
O819 C818 1.258 . S
O820 Co817 1.966 . S
O820 C818 1.263 . S
C821 O822 1.235 . S
C821 O848 1.289 . S
O822 C821 1.235 . S
C823 C825 1.400 . S
C823 N826 1.351 . S
C823 C828 1.501 . S
C824 C825 1.387 . S
C824 N827 1.341 . S
C825 C823 1.400 . S
C825 C824 1.387 . S
N826 Co817 2.022 . S
N826 C823 1.351 . S
N826 N827 1.365 . S
N827 C824 1.341 . S
N827 N826 1.365 . S
N827 H847 0.862 . S
C828 C823 1.501 . S
C828 H829 0.961 . S
C828 H830 0.961 . S
C828 H831 0.960 . S
H829 C828 0.961 . S
H830 C828 0.961 . S
H831 C828 0.960 . S
C832 N833 1.342 . S
C832 C836 1.401 . S
C832 C837 1.499 . S
N833 Co816 1.989 . S
N833 C832 1.342 . S
N833 N834 1.388 . S
N834 Co817 1.993 . S
N834 N833 1.388 . S
N834 C835 1.346 . S
C835 N834 1.346 . S
C835 C836 1.396 . S
C835 C845 1.510 . S
C836 C832 1.401 . S
C836 C835 1.396 . S
C837 C832 1.499 . S
C837 H838 0.959 . S
C837 H839 0.960 . S
C837 H840 0.961 . S
H838 C837 0.959 . S
H839 C837 0.960 . S
H840 C837 0.961 . S
O841 Co816 1.967 . S
O841 C849 1.258 . S
O842 Co817 1.941 . S
O842 C849 1.266 . S
H843 C845 0.959 . S
H844 C845 0.961 . S
C845 C835 1.510 . S
C845 H843 0.959 . S
C845 H844 0.961 . S
C845 H846 0.960 . S
H846 C845 0.960 . S
H847 N827 0.862 . S
O848 Co816 1.920 . S
O848 C821 1.289 . S
C849 O841 1.258 . S
C849 O842 1.266 . S
Co850 O853 1.970 . S
Co850 N867 1.989 . S
Co850 O875 1.967 . S
Co850 O882 1.920 . S
Co851 O854 1.966 . S
Co851 N860 2.022 . S
Co851 N868 1.993 . S
Co851 O876 1.941 . S
C852 O853 1.258 . S
C852 O854 1.263 . S
O853 Co850 1.970 . S
O853 C852 1.258 . S
O854 Co851 1.966 . S
O854 C852 1.263 . S
C855 O856 1.235 . S
C855 O882 1.289 . S
O856 C855 1.235 . S
C857 C859 1.400 . S
C857 N860 1.351 . S
C857 C862 1.501 . S
C858 C859 1.387 1_556 S
C858 N861 1.341 1_556 S
C859 C857 1.400 . S
C859 C858 1.387 1_554 S
N860 Co851 2.022 . S
N860 C857 1.351 . S
N860 N861 1.365 . S
N861 C858 1.341 1_554 S
N861 N860 1.365 . S
N861 H881 0.882 . S
C862 C857 1.501 . S
C862 H863 0.961 . S
C862 H864 0.961 . S
C862 H865 0.960 . S
H863 C862 0.961 . S
H864 C862 0.961 . S
H865 C862 0.960 . S
C866 N867 1.342 . S
C866 C870 1.401 . S
C866 C871 1.499 . S
N867 Co850 1.989 . S
N867 C866 1.342 . S
N867 N868 1.388 . S
N868 Co851 1.993 . S
N868 N867 1.388 . S
N868 C869 1.346 . S
C869 N868 1.346 . S
C869 C870 1.396 . S
C869 C879 1.510 . S
C870 C866 1.401 . S
C870 C869 1.396 . S
C871 C866 1.499 . S
C871 H872 0.959 . S
C871 H873 0.960 . S
C871 H874 0.961 . S
H872 C871 0.959 . S
H873 C871 0.960 . S
H874 C871 0.961 . S
O875 Co850 1.967 . S
O875 C883 1.258 . S
O876 Co851 1.941 . S
O876 C883 1.266 . S
H877 C879 0.959 . S
H878 C879 0.961 . S
C879 C869 1.510 . S
C879 H877 0.959 . S
C879 H878 0.961 . S
C879 H880 0.960 . S
H880 C879 0.960 . S
H881 N861 0.882 . S
O882 Co850 1.920 . S
O882 C855 1.289 . S
C883 O875 1.258 . S
C883 O876 1.266 . S
Co884 O887 1.970 . S
Co884 N901 1.989 . S
Co884 O909 1.967 . S
Co884 O916 1.920 . S
Co885 O888 1.966 . S
Co885 N894 2.022 . S
Co885 N902 1.993 . S
Co885 O910 1.941 . S
C886 O887 1.258 . S
C886 O888 1.263 . S
O887 Co884 1.970 . S
O887 C886 1.258 . S
O888 Co885 1.966 . S
O888 C886 1.263 . S
C889 O890 1.235 . S
C889 O916 1.289 . S
O890 C889 1.235 . S
C891 C893 1.400 . S
C891 N894 1.351 . S
C891 C896 1.501 . S
C892 C893 1.387 . S
C892 N895 1.341 . S
C893 C891 1.400 . S
C893 C892 1.387 . S
N894 Co885 2.022 . S
N894 C891 1.351 . S
N894 N895 1.365 . S
N895 C892 1.341 . S
N895 N894 1.365 . S
N895 H915 0.862 . S
C896 C891 1.501 . S
C896 H897 0.961 . S
C896 H898 0.961 . S
C896 H899 0.960 . S
H897 C896 0.961 . S
H898 C896 0.961 . S
H899 C896 0.960 . S
C900 N901 1.342 . S
C900 C904 1.401 . S
C900 C905 1.499 . S
N901 Co884 1.989 . S
N901 C900 1.342 . S
N901 N902 1.388 . S
N902 Co885 1.993 . S
N902 N901 1.388 . S
N902 C903 1.346 . S
C903 N902 1.346 . S
C903 C904 1.396 . S
C903 C913 1.510 . S
C904 C900 1.401 . S
C904 C903 1.396 . S
C905 C900 1.499 . S
C905 H906 0.959 . S
C905 H907 0.960 . S
C905 H908 0.961 . S
H906 C905 0.959 . S
H907 C905 0.960 . S
H908 C905 0.961 . S
O909 Co884 1.967 . S
O909 C917 1.258 . S
O910 Co885 1.941 . S
O910 C917 1.266 . S
H911 C913 0.959 . S
H912 C913 0.961 . S
C913 C903 1.510 . S
C913 H911 0.959 . S
C913 H912 0.961 . S
C913 H914 0.960 . S
H914 C913 0.960 . S
H915 N895 0.862 . S
O916 Co884 1.920 . S
O916 C889 1.289 . S
C917 O909 1.258 . S
C917 O910 1.266 . S
Co918 O921 1.970 . S
Co918 N935 1.989 . S
Co918 O943 1.967 . S
Co918 O950 1.920 . S
Co919 O922 1.966 . S
Co919 N928 2.022 . S
Co919 N936 1.993 . S
Co919 O944 1.941 . S
C920 O921 1.258 . S
C920 O922 1.263 . S
O921 Co918 1.970 . S
O921 C920 1.258 . S
O922 Co919 1.966 . S
O922 C920 1.263 . S
C923 O924 1.235 . S
C923 O950 1.289 . S
O924 C923 1.235 . S
C925 C927 1.400 . S
C925 N928 1.351 . S
C925 C930 1.501 . S
C926 C927 1.387 . S
C926 N929 1.341 . S
C927 C925 1.400 . S
C927 C926 1.387 . S
N928 Co919 2.022 . S
N928 C925 1.351 . S
N928 N929 1.365 . S
N929 C926 1.341 . S
N929 N928 1.365 . S
N929 H949 0.862 . S
C930 C925 1.501 . S
C930 H931 0.961 . S
C930 H932 0.961 . S
C930 H933 0.960 . S
H931 C930 0.961 . S
H932 C930 0.961 . S
H933 C930 0.960 . S
C934 N935 1.342 . S
C934 C938 1.401 . S
C934 C939 1.499 . S
N935 Co918 1.989 . S
N935 C934 1.342 . S
N935 N936 1.388 . S
N936 Co919 1.993 . S
N936 N935 1.388 . S
N936 C937 1.346 . S
C937 N936 1.346 . S
C937 C938 1.396 . S
C937 C947 1.510 . S
C938 C934 1.401 . S
C938 C937 1.396 . S
C939 C934 1.499 . S
C939 H940 0.959 . S
C939 H941 0.960 . S
C939 H942 0.961 . S
H940 C939 0.959 . S
H941 C939 0.960 . S
H942 C939 0.961 . S
O943 Co918 1.967 . S
O943 C951 1.258 . S
O944 Co919 1.941 . S
O944 C951 1.266 . S
H945 C947 0.959 . S
H946 C947 0.961 . S
C947 C937 1.510 . S
C947 H945 0.959 . S
C947 H946 0.961 . S
C947 H948 0.960 . S
H948 C947 0.960 . S
H949 N929 0.862 . S
O950 Co918 1.920 . S
O950 C923 1.289 . S
C951 O943 1.258 . S
C951 O944 1.266 . S
Co952 O955 1.970 . S
Co952 N969 1.989 . S
Co952 O977 1.967 . S
Co952 O984 1.920 . S
Co953 O956 1.966 . S
Co953 N962 2.022 . S
Co953 N970 1.993 . S
Co953 O978 1.941 . S
C954 O955 1.258 . S
C954 O956 1.263 . S
O955 Co952 1.970 . S
O955 C954 1.258 . S
O956 Co953 1.966 . S
O956 C954 1.263 . S
C957 O958 1.235 . S
C957 O984 1.289 . S
O958 C957 1.235 . S
C959 C961 1.400 . S
C959 N962 1.351 . S
C959 C964 1.501 . S
C960 C961 1.387 . S
C960 N963 1.341 . S
C961 C959 1.400 . S
C961 C960 1.387 . S
N962 Co953 2.022 . S
N962 C959 1.351 . S
N962 N963 1.365 . S
N963 C960 1.341 . S
N963 N962 1.365 . S
N963 H983 0.862 . S
C964 C959 1.501 . S
C964 H965 0.961 . S
C964 H966 0.961 . S
C964 H967 0.960 . S
H965 C964 0.961 . S
H966 C964 0.961 . S
H967 C964 0.960 . S
C968 N969 1.342 . S
C968 C972 1.401 . S
C968 C973 1.499 . S
N969 Co952 1.989 . S
N969 C968 1.342 . S
N969 N970 1.388 . S
N970 Co953 1.993 . S
N970 N969 1.388 . S
N970 C971 1.346 . S
C971 N970 1.346 . S
C971 C972 1.396 . S
C971 C981 1.510 . S
C972 C968 1.401 . S
C972 C971 1.396 . S
C973 C968 1.499 . S
C973 H974 0.959 . S
C973 H975 0.960 . S
C973 H976 0.961 . S
H974 C973 0.959 . S
H975 C973 0.960 . S
H976 C973 0.961 . S
O977 Co952 1.967 . S
O977 C985 1.258 . S
O978 Co953 1.941 . S
O978 C985 1.266 . S
H979 C981 0.959 . S
H980 C981 0.961 . S
C981 C971 1.510 . S
C981 H979 0.959 . S
C981 H980 0.961 . S
C981 H982 0.960 . S
H982 C981 0.960 . S
H983 N963 0.862 . S
O984 Co952 1.920 . S
O984 C957 1.289 . S
C985 O977 1.258 . S
C985 O978 1.266 . S
Co986 O989 1.970 . S
Co986 N1003 1.989 . S
Co986 O1011 1.967 . S
Co986 O1018 1.920 . S
Co987 O990 1.966 . S
Co987 N996 2.022 . S
Co987 N1004 1.993 . S
Co987 O1012 1.941 . S
C988 O989 1.258 . S
C988 O990 1.263 . S
O989 Co986 1.970 . S
O989 C988 1.258 . S
O990 Co987 1.966 . S
O990 C988 1.263 . S
C991 O992 1.235 . S
C991 O1018 1.289 . S
O992 C991 1.235 . S
C993 C995 1.400 . S
C993 N996 1.351 . S
C993 C998 1.501 . S
C994 C995 1.387 1_554 S
C994 N997 1.341 1_554 S
C995 C993 1.400 . S
C995 C994 1.387 1_556 S
N996 Co987 2.022 . S
N996 C993 1.351 . S
N996 N997 1.365 . S
N997 C994 1.341 1_556 S
N997 N996 1.365 . S
N997 H1017 0.882 . S
C998 C993 1.501 . S
C998 H999 0.961 . S
C998 H1000 0.961 . S
C998 H1001 0.960 . S
H999 C998 0.961 . S
H1000 C998 0.961 . S
H1001 C998 0.960 . S
C1002 N1003 1.342 . S
C1002 C1006 1.401 . S
C1002 C1007 1.499 . S
N1003 Co986 1.989 . S
N1003 C1002 1.342 . S
N1003 N1004 1.388 . S
N1004 Co987 1.993 . S
N1004 N1003 1.388 . S
N1004 C1005 1.346 . S
C1005 N1004 1.346 . S
C1005 C1006 1.396 . S
C1005 C1015 1.510 . S
C1006 C1002 1.401 . S
C1006 C1005 1.396 . S
C1007 C1002 1.499 . S
C1007 H1008 0.959 . S
C1007 H1009 0.960 . S
C1007 H1010 0.961 . S
H1008 C1007 0.959 . S
H1009 C1007 0.960 . S
H1010 C1007 0.961 . S
O1011 Co986 1.967 . S
O1011 C1019 1.258 . S
O1012 Co987 1.941 . S
O1012 C1019 1.266 . S
H1013 C1015 0.959 . S
H1014 C1015 0.961 . S
C1015 C1005 1.510 . S
C1015 H1013 0.959 . S
C1015 H1014 0.961 . S
C1015 H1016 0.960 . S
H1016 C1015 0.960 . S
H1017 N997 0.882 . S
O1018 Co986 1.920 . S
O1018 C991 1.289 . S
C1019 O1011 1.258 . S
C1019 O1012 1.266 . S
Co1020 O1023 1.970 . S
Co1020 N1037 1.989 . S
Co1020 O1045 1.967 . S
Co1020 O1052 1.920 . S
Co1021 O1024 1.966 . S
Co1021 N1030 2.022 . S
Co1021 N1038 1.993 . S
Co1021 O1046 1.941 . S
C1022 O1023 1.258 . S
C1022 O1024 1.263 . S
O1023 Co1020 1.970 . S
O1023 C1022 1.258 . S
O1024 Co1021 1.966 . S
O1024 C1022 1.263 . S
C1025 O1026 1.235 . S
C1025 O1052 1.289 . S
O1026 C1025 1.235 . S
C1027 C1029 1.400 . S
C1027 N1030 1.351 . S
C1027 C1032 1.501 . S
C1028 C1029 1.387 . S
C1028 N1031 1.341 . S
C1029 C1027 1.400 . S
C1029 C1028 1.387 . S
N1030 Co1021 2.022 . S
N1030 C1027 1.351 . S
N1030 N1031 1.365 . S
N1031 C1028 1.341 . S
N1031 N1030 1.365 . S
N1031 H1051 0.862 . S
C1032 C1027 1.501 . S
C1032 H1033 0.961 . S
C1032 H1034 0.961 . S
C1032 H1035 0.960 . S
H1033 C1032 0.961 . S
H1034 C1032 0.961 . S
H1035 C1032 0.960 . S
C1036 N1037 1.342 . S
C1036 C1040 1.401 . S
C1036 C1041 1.499 . S
N1037 Co1020 1.989 . S
N1037 C1036 1.342 . S
N1037 N1038 1.388 . S
N1038 Co1021 1.993 . S
N1038 N1037 1.388 . S
N1038 C1039 1.346 . S
C1039 N1038 1.346 . S
C1039 C1040 1.396 . S
C1039 C1049 1.510 . S
C1040 C1036 1.401 . S
C1040 C1039 1.396 . S
C1041 C1036 1.499 . S
C1041 H1042 0.959 . S
C1041 H1043 0.960 . S
C1041 H1044 0.961 . S
H1042 C1041 0.959 . S
H1043 C1041 0.960 . S
H1044 C1041 0.961 . S
O1045 Co1020 1.967 . S
O1045 C1053 1.258 . S
O1046 Co1021 1.941 . S
O1046 C1053 1.266 . S
H1047 C1049 0.959 . S
H1048 C1049 0.961 . S
C1049 C1039 1.510 . S
C1049 H1047 0.959 . S
C1049 H1048 0.961 . S
C1049 H1050 0.960 . S
H1050 C1049 0.960 . S
H1051 N1031 0.862 . S
O1052 Co1020 1.920 . S
O1052 C1025 1.289 . S
C1053 O1045 1.258 . S
C1053 O1046 1.266 . S
Co1054 O1057 1.970 . S
Co1054 N1071 1.989 . S
Co1054 O1079 1.967 . S
Co1054 O1086 1.920 . S
Co1055 O1058 1.966 . S
Co1055 N1064 2.022 . S
Co1055 N1072 1.993 . S
Co1055 O1080 1.941 . S
C1056 O1057 1.258 . S
C1056 O1058 1.263 . S
O1057 Co1054 1.970 . S
O1057 C1056 1.258 . S
O1058 Co1055 1.966 . S
O1058 C1056 1.263 . S
C1059 O1060 1.235 . S
C1059 O1086 1.289 . S
O1060 C1059 1.235 . S
C1061 C1063 1.400 . S
C1061 N1064 1.351 . S
C1061 C1066 1.501 . S
C1062 C1063 1.387 . S
C1062 N1065 1.341 . S
C1063 C1061 1.400 . S
C1063 C1062 1.387 . S
N1064 Co1055 2.022 . S
N1064 C1061 1.351 . S
N1064 N1065 1.365 . S
N1065 C1062 1.341 . S
N1065 N1064 1.365 . S
N1065 H1085 0.862 . S
C1066 C1061 1.501 . S
C1066 H1067 0.961 . S
C1066 H1068 0.961 . S
C1066 H1069 0.960 . S
H1067 C1066 0.961 . S
H1068 C1066 0.961 . S
H1069 C1066 0.960 . S
C1070 N1071 1.342 . S
C1070 C1074 1.401 . S
C1070 C1075 1.499 . S
N1071 Co1054 1.989 . S
N1071 C1070 1.342 . S
N1071 N1072 1.388 . S
N1072 Co1055 1.993 . S
N1072 N1071 1.388 . S
N1072 C1073 1.346 . S
C1073 N1072 1.346 . S
C1073 C1074 1.396 . S
C1073 C1083 1.510 . S
C1074 C1070 1.401 . S
C1074 C1073 1.396 . S
C1075 C1070 1.499 . S
C1075 H1076 0.959 . S
C1075 H1077 0.960 . S
C1075 H1078 0.961 . S
H1076 C1075 0.959 . S
H1077 C1075 0.960 . S
H1078 C1075 0.961 . S
O1079 Co1054 1.967 . S
O1079 C1087 1.258 . S
O1080 Co1055 1.941 . S
O1080 C1087 1.266 . S
H1081 C1083 0.959 . S
H1082 C1083 0.961 . S
C1083 C1073 1.510 . S
C1083 H1081 0.959 . S
C1083 H1082 0.961 . S
C1083 H1084 0.960 . S
H1084 C1083 0.960 . S
H1085 N1065 0.862 . S
O1086 Co1054 1.920 . S
O1086 C1059 1.289 . S
C1087 O1079 1.258 . S
C1087 O1080 1.266 . S
C1088 C1089 1.363 . S
C1088 C1094 1.379 . S
C1088 N1096 1.356 . S
C1089 C1088 1.363 . S
C1089 C1095 1.363 . S
C1090 C1091 1.363 . S
C1090 C1095 1.379 . S
C1090 N1097 1.356 . S
C1091 C1090 1.363 . S
C1091 C1094 1.363 . S
N1092 C1094 1.356 . S
N1092 H1104 0.984 . S
N1092 H1105 0.985 . S
N1093 C1095 1.356 . S
N1093 H1098 0.984 . S
N1093 H1099 0.985 . S
C1094 C1088 1.379 . S
C1094 C1091 1.363 . S
C1094 N1092 1.356 . S
C1095 C1089 1.363 . S
C1095 C1090 1.379 . S
C1095 N1093 1.356 . S
N1096 C1088 1.356 . S
N1096 H1102 0.984 . S
N1096 H1103 0.984 . S
N1097 C1090 1.356 . S
N1097 H1100 0.984 . S
N1097 H1101 0.985 . S
H1098 N1093 0.984 . S
H1099 N1093 0.985 . S
H1100 N1097 0.984 . S
H1101 N1097 0.985 . S
H1102 N1096 0.984 . S
H1103 N1096 0.984 . S
H1104 N1092 0.984 . S
H1105 N1092 0.985 . S
C1106 C1107 1.363 . S
C1106 C1112 1.379 1_655 S
C1106 N1114 1.356 . S
C1107 C1106 1.363 . S
C1107 C1113 1.363 1_565 S
C1108 C1109 1.363 . S
C1108 C1113 1.379 1_455 S
C1108 N1115 1.356 . S
C1109 C1108 1.363 . S
C1109 C1112 1.363 1_545 S
N1110 C1112 1.356 . S
N1110 H1122 0.984 . S
N1110 H1123 0.985 1_565 S
N1111 C1113 1.356 . S
N1111 H1116 0.984 1_545 S
N1111 H1117 0.985 . S
C1112 C1106 1.379 1_455 S
C1112 C1109 1.363 1_565 S
C1112 N1110 1.356 . S
C1113 C1107 1.363 1_545 S
C1113 C1108 1.379 1_655 S
C1113 N1111 1.356 . S
N1114 C1106 1.356 . S
N1114 H1120 0.984 . S
N1114 H1121 0.984 . S
N1115 C1108 1.356 . S
N1115 H1118 0.984 . S
N1115 H1119 0.985 . S
H1116 N1111 0.984 1_565 S
H1117 N1111 0.985 . S
H1118 N1115 0.984 . S
H1119 N1115 0.985 . S
H1120 N1114 0.984 . S
H1121 N1114 0.984 . S
H1122 N1110 0.984 . S
H1123 N1110 0.985 1_545 S
C1124 C1125 1.363 . S
C1124 C1130 1.379 . S
C1124 N1132 1.356 . S
C1125 C1124 1.363 . S
C1125 C1131 1.363 . S
C1126 C1127 1.363 . S
C1126 C1131 1.379 . S
C1126 N1133 1.356 . S
C1127 C1126 1.363 . S
C1127 C1130 1.363 . S
N1128 C1130 1.356 . S
N1128 H1140 0.984 . S
N1128 H1141 0.985 . S
N1129 C1131 1.356 . S
N1129 H1134 0.984 . S
N1129 H1135 0.985 . S
C1130 C1124 1.379 . S
C1130 C1127 1.363 . S
C1130 N1128 1.356 . S
C1131 C1125 1.363 . S
C1131 C1126 1.379 . S
C1131 N1129 1.356 . S
N1132 C1124 1.356 . S
N1132 H1138 0.984 . S
N1132 H1139 0.984 . S
N1133 C1126 1.356 . S
N1133 H1136 0.984 . S
N1133 H1137 0.985 . S
H1134 N1129 0.984 . S
H1135 N1129 0.985 . S
H1136 N1133 0.984 . S
H1137 N1133 0.985 . S
H1138 N1132 0.984 . S
H1139 N1132 0.984 . S
H1140 N1128 0.984 . S
H1141 N1128 0.985 . S
C1142 C1143 1.363 . S
C1142 C1148 1.379 1_565 S
C1142 N1150 1.356 . S
C1143 C1142 1.363 . S
C1143 C1149 1.363 1_556 S
C1144 C1145 1.363 . S
C1144 C1149 1.379 1_545 S
C1144 N1151 1.356 . S
C1145 C1144 1.363 . S
C1145 C1148 1.363 1_554 S
N1146 C1148 1.356 . S
N1146 H1158 0.984 . S
N1146 H1159 0.985 . S
N1147 C1149 1.356 . S
N1147 H1152 0.984 . S
N1147 H1153 0.985 . S
C1148 C1142 1.379 1_545 S
C1148 C1145 1.363 1_556 S
C1148 N1146 1.356 . S
C1149 C1143 1.363 1_554 S
C1149 C1144 1.379 1_565 S
C1149 N1147 1.356 . S
N1150 C1142 1.356 . S
N1150 H1156 0.984 . S
N1150 H1157 0.984 . S
N1151 C1144 1.356 . S
N1151 H1154 0.984 . S
N1151 H1155 0.985 . S
H1152 N1147 0.984 . S
H1153 N1147 0.985 . S
H1154 N1151 0.984 . S
H1155 N1151 0.985 . S
H1156 N1150 0.984 . S
H1157 N1150 0.984 . S
H1158 N1146 0.984 . S
H1159 N1146 0.985 . S
C1160 C1161 1.363 . S
C1160 C1166 1.379 . S
C1160 N1168 1.356 . S
C1161 C1160 1.363 . S
C1161 C1167 1.363 . S
C1162 C1163 1.363 . S
C1162 C1167 1.379 . S
C1162 N1169 1.356 . S
C1163 C1162 1.363 . S
C1163 C1166 1.363 . S
N1164 C1166 1.356 . S
N1164 H1176 0.984 . S
N1164 H1177 0.985 . S
N1165 C1167 1.356 . S
N1165 H1170 0.984 . S
N1165 H1171 0.985 . S
C1166 C1160 1.379 . S
C1166 C1163 1.363 . S
C1166 N1164 1.356 . S
C1167 C1161 1.363 . S
C1167 C1162 1.379 . S
C1167 N1165 1.356 . S
N1168 C1160 1.356 . S
N1168 H1174 0.984 . S
N1168 H1175 0.984 . S
N1169 C1162 1.356 . S
N1169 H1172 0.984 . S
N1169 H1173 0.985 . S
H1170 N1165 0.984 . S
H1171 N1165 0.985 . S
H1172 N1169 0.984 . S
H1173 N1169 0.985 . S
H1174 N1168 0.984 . S
H1175 N1168 0.984 . S
H1176 N1164 0.984 . S
H1177 N1164 0.985 . S
C1178 C1179 1.363 . S
C1178 C1184 1.379 . S
C1178 N1186 1.356 . S
C1179 C1178 1.363 . S
C1179 C1185 1.363 1_565 S
C1180 C1181 1.363 . S
C1180 C1185 1.379 . S
C1180 N1187 1.356 . S
C1181 C1180 1.363 . S
C1181 C1184 1.363 1_545 S
N1182 C1184 1.356 . S
N1182 H1194 0.984 . S
N1182 H1195 0.985 . S
N1183 C1185 1.356 . S
N1183 H1188 0.984 . S
N1183 H1189 0.985 . S
C1184 C1178 1.379 . S
C1184 C1181 1.363 1_565 S
C1184 N1182 1.356 . S
C1185 C1179 1.363 1_545 S
C1185 C1180 1.379 . S
C1185 N1183 1.356 . S
N1186 C1178 1.356 . S
N1186 H1192 0.984 . S
N1186 H1193 0.984 . S
N1187 C1180 1.356 . S
N1187 H1190 0.984 . S
N1187 H1191 0.985 . S
H1188 N1183 0.984 . S
H1189 N1183 0.985 . S
H1190 N1187 0.984 . S
H1191 N1187 0.985 . S
H1192 N1186 0.984 . S
H1193 N1186 0.984 . S
H1194 N1182 0.984 . S
H1195 N1182 0.985 . S
C1196 C1197 1.363 . S
C1196 C1202 1.379 . S
C1196 N1204 1.356 . S
C1197 C1196 1.363 . S
C1197 C1203 1.363 . S
C1198 C1199 1.363 . S
C1198 C1203 1.379 . S
C1198 N1205 1.356 . S
C1199 C1198 1.363 . S
C1199 C1202 1.363 . S
N1200 C1202 1.356 . S
N1200 H1212 0.984 . S
N1200 H1213 0.985 . S
N1201 C1203 1.356 . S
N1201 H1206 0.984 . S
N1201 H1207 0.985 . S
C1202 C1196 1.379 . S
C1202 C1199 1.363 . S
C1202 N1200 1.356 . S
C1203 C1197 1.363 . S
C1203 C1198 1.379 . S
C1203 N1201 1.356 . S
N1204 C1196 1.356 . S
N1204 H1210 0.984 . S
N1204 H1211 0.984 . S
N1205 C1198 1.356 . S
N1205 H1208 0.984 . S
N1205 H1209 0.985 . S
H1206 N1201 0.984 . S
H1207 N1201 0.985 . S
H1208 N1205 0.984 . S
H1209 N1205 0.985 . S
H1210 N1204 0.984 . S
H1211 N1204 0.984 . S
H1212 N1200 0.984 . S
H1213 N1200 0.985 . S
C1214 C1215 1.363 . S
C1214 C1220 1.379 1_454 S
C1214 N1222 1.356 . S
C1215 C1214 1.363 . S
C1215 C1221 1.363 1_565 S
C1216 C1217 1.363 . S
C1216 C1221 1.379 1_656 S
C1216 N1223 1.356 . S
C1217 C1216 1.363 . S
C1217 C1220 1.363 1_545 S
N1218 C1220 1.356 . S
N1218 H1230 0.984 . S
N1218 H1231 0.985 . S
N1219 C1221 1.356 . S
N1219 H1224 0.984 . S
N1219 H1225 0.985 . S
C1220 C1214 1.379 1_656 S
C1220 C1217 1.363 1_565 S
C1220 N1218 1.356 . S
C1221 C1215 1.363 1_545 S
C1221 C1216 1.379 1_454 S
C1221 N1219 1.356 . S
N1222 C1214 1.356 . S
N1222 H1228 0.984 . S
N1222 H1229 0.984 . S
N1223 C1216 1.356 . S
N1223 H1226 0.984 . S
N1223 H1227 0.985 . S
H1224 N1219 0.984 . S
H1225 N1219 0.985 . S
H1226 N1223 0.984 . S
H1227 N1223 0.985 . S
H1228 N1222 0.984 . S
H1229 N1222 0.984 . S
H1230 N1218 0.984 . S
H1231 N1218 0.985 . S
C1232 C1233 1.363 . S
C1232 C1238 1.379 . S
C1232 N1240 1.356 . S
C1233 C1232 1.363 . S
C1233 C1239 1.363 . S
C1234 C1235 1.363 . S
C1234 C1239 1.379 . S
C1234 N1241 1.356 . S
C1235 C1234 1.363 . S
C1235 C1238 1.363 . S
N1236 C1238 1.356 . S
N1236 H1248 0.984 . S
N1236 H1249 0.985 . S
N1237 C1239 1.356 . S
N1237 H1242 0.984 . S
N1237 H1243 0.985 . S
C1238 C1232 1.379 . S
C1238 C1235 1.363 . S
C1238 N1236 1.356 . S
C1239 C1233 1.363 . S
C1239 C1234 1.379 . S
C1239 N1237 1.356 . S
N1240 C1232 1.356 . S
N1240 H1246 0.984 . S
N1240 H1247 0.984 . S
N1241 C1234 1.356 . S
N1241 H1244 0.984 . S
N1241 H1245 0.985 . S
H1242 N1237 0.984 . S
H1243 N1237 0.985 . S
H1244 N1241 0.984 . S
H1245 N1241 0.985 . S
H1246 N1240 0.984 . S
H1247 N1240 0.984 . S
H1248 N1236 0.984 . S
H1249 N1236 0.985 . S
C1250 C1251 1.363 . S
C1250 C1256 1.379 . S
C1250 N1258 1.356 . S
C1251 C1250 1.363 . S
C1251 C1257 1.363 . S
C1252 C1253 1.363 . S
C1252 C1257 1.379 . S
C1252 N1259 1.356 . S
C1253 C1252 1.363 . S
C1253 C1256 1.363 . S
N1254 C1256 1.356 . S
N1254 H1266 0.984 . S
N1254 H1267 0.985 . S
N1255 C1257 1.356 . S
N1255 H1260 0.984 . S
N1255 H1261 0.985 . S
C1256 C1250 1.379 . S
C1256 C1253 1.363 . S
C1256 N1254 1.356 . S
C1257 C1251 1.363 . S
C1257 C1252 1.379 . S
C1257 N1255 1.356 . S
N1258 C1250 1.356 . S
N1258 H1264 0.984 . S
N1258 H1265 0.984 . S
N1259 C1252 1.356 . S
N1259 H1262 0.984 . S
N1259 H1263 0.985 . S
H1260 N1255 0.984 . S
H1261 N1255 0.985 . S
H1262 N1259 0.984 . S
H1263 N1259 0.985 . S
H1264 N1258 0.984 . S
H1265 N1258 0.984 . S
H1266 N1254 0.984 . S
H1267 N1254 0.985 . S
C1268 C1269 1.363 . S
C1268 C1274 1.379 . S
C1268 N1276 1.356 . S
C1269 C1268 1.363 . S
C1269 C1275 1.363 . S
C1270 C1271 1.363 . S
C1270 C1275 1.379 . S
C1270 N1277 1.356 . S
C1271 C1270 1.363 . S
C1271 C1274 1.363 . S
N1272 C1274 1.356 . S
N1272 H1284 0.984 . S
N1272 H1285 0.985 . S
N1273 C1275 1.356 . S
N1273 H1278 0.984 . S
N1273 H1279 0.985 . S
C1274 C1268 1.379 . S
C1274 C1271 1.363 . S
C1274 N1272 1.356 . S
C1275 C1269 1.363 . S
C1275 C1270 1.379 . S
C1275 N1273 1.356 . S
N1276 C1268 1.356 . S
N1276 H1282 0.984 . S
N1276 H1283 0.984 . S
N1277 C1270 1.356 . S
N1277 H1280 0.984 . S
N1277 H1281 0.985 . S
H1278 N1273 0.984 . S
H1279 N1273 0.985 . S
H1280 N1277 0.984 . S
H1281 N1277 0.985 . S
H1282 N1276 0.984 . S
H1283 N1276 0.984 . S
H1284 N1272 0.984 . S
H1285 N1272 0.985 . S
C1286 C1287 1.363 . S
C1286 C1292 1.379 . S
C1286 N1294 1.356 . S
C1287 C1286 1.363 . S
C1287 C1293 1.363 . S
C1288 C1289 1.363 . S
C1288 C1293 1.379 . S
C1288 N1295 1.356 . S
C1289 C1288 1.363 . S
C1289 C1292 1.363 . S
N1290 C1292 1.356 . S
N1290 H1302 0.984 . S
N1290 H1303 0.985 . S
N1291 C1293 1.356 . S
N1291 H1296 0.984 . S
N1291 H1297 0.985 . S
C1292 C1286 1.379 . S
C1292 C1289 1.363 . S
C1292 N1290 1.356 . S
C1293 C1287 1.363 . S
C1293 C1288 1.379 . S
C1293 N1291 1.356 . S
N1294 C1286 1.356 . S
N1294 H1300 0.984 . S
N1294 H1301 0.984 . S
N1295 C1288 1.356 . S
N1295 H1298 0.984 . S
N1295 H1299 0.985 . S
H1296 N1291 0.984 . S
H1297 N1291 0.985 . S
H1298 N1295 0.984 . S
H1299 N1295 0.985 . S
H1300 N1294 0.984 . S
H1301 N1294 0.984 . S
H1302 N1290 0.984 . S
H1303 N1290 0.985 . S
C1304 C1305 1.363 . S
C1304 C1310 1.379 . S
C1304 N1312 1.356 . S
C1305 C1304 1.363 . S
C1305 C1311 1.363 1_556 S
C1306 C1307 1.363 . S
C1306 C1311 1.379 . S
C1306 N1313 1.356 . S
C1307 C1306 1.363 . S
C1307 C1310 1.363 1_554 S
N1308 C1310 1.356 . S
N1308 H1320 0.984 . S
N1308 H1321 0.985 . S
N1309 C1311 1.356 . S
N1309 H1314 0.984 . S
N1309 H1315 0.985 . S
C1310 C1304 1.379 . S
C1310 C1307 1.363 1_556 S
C1310 N1308 1.356 . S
C1311 C1305 1.363 1_554 S
C1311 C1306 1.379 . S
C1311 N1309 1.356 . S
N1312 C1304 1.356 . S
N1312 H1318 0.984 . S
N1312 H1319 0.984 . S
N1313 C1306 1.356 . S
N1313 H1316 0.984 . S
N1313 H1317 0.985 . S
H1314 N1309 0.984 . S
H1315 N1309 0.985 . S
H1316 N1313 0.984 . S
H1317 N1313 0.985 . S
H1318 N1312 0.984 . S
H1319 N1312 0.984 . S
H1320 N1308 0.984 . S
H1321 N1308 0.985 . S
C1322 C1323 1.363 . S
C1322 C1328 1.379 1_455 S
C1322 N1330 1.356 . S
C1323 C1322 1.363 . S
C1323 C1329 1.363 . S
C1324 C1325 1.363 . S
C1324 C1329 1.379 1_655 S
C1324 N1331 1.356 . S
C1325 C1324 1.363 . S
C1325 C1328 1.363 . S
N1326 C1328 1.356 . S
N1326 H1338 0.984 . S
N1326 H1339 0.985 . S
N1327 C1329 1.356 . S
N1327 H1332 0.984 . S
N1327 H1333 0.985 . S
C1328 C1322 1.379 1_655 S
C1328 C1325 1.363 . S
C1328 N1326 1.356 . S
C1329 C1323 1.363 . S
C1329 C1324 1.379 1_455 S
C1329 N1327 1.356 . S
N1330 C1322 1.356 . S
N1330 H1336 0.984 . S
N1330 H1337 0.984 . S
N1331 C1324 1.356 . S
N1331 H1334 0.984 . S
N1331 H1335 0.985 . S
H1332 N1327 0.984 . S
H1333 N1327 0.985 . S
H1334 N1331 0.984 . S
H1335 N1331 0.985 . S
H1336 N1330 0.984 . S
H1337 N1330 0.984 . S
H1338 N1326 0.984 . S
H1339 N1326 0.985 . S
C1340 C1341 1.363 1_554 S
C1340 C1346 1.379 1_455 S
C1340 N1348 1.356 . S
C1341 C1340 1.363 1_556 S
C1341 C1347 1.363 . S
C1342 C1343 1.363 1_556 S
C1342 C1347 1.379 1_655 S
C1342 N1349 1.356 . S
C1343 C1342 1.363 1_554 S
C1343 C1346 1.363 . S
N1344 C1346 1.356 . S
N1344 H1356 0.984 . S
N1344 H1357 0.985 . S
N1345 C1347 1.356 . S
N1345 H1350 0.984 . S
N1345 H1351 0.985 . S
C1346 C1340 1.379 1_655 S
C1346 C1343 1.363 . S
C1346 N1344 1.356 . S
C1347 C1341 1.363 . S
C1347 C1342 1.379 1_455 S
C1347 N1345 1.356 . S
N1348 C1340 1.356 . S
N1348 H1354 0.984 . S
N1348 H1355 0.984 1_554 S
N1349 C1342 1.356 . S
N1349 H1352 0.984 1_556 S
N1349 H1353 0.985 . S
H1350 N1345 0.984 . S
H1351 N1345 0.985 . S
H1352 N1349 0.984 1_554 S
H1353 N1349 0.985 . S
H1354 N1348 0.984 . S
H1355 N1348 0.984 1_556 S
H1356 N1344 0.984 . S
H1357 N1344 0.985 . S
C1358 C1359 1.363 . S
C1358 C1364 1.379 . S
C1358 N1366 1.356 . S
C1359 C1358 1.363 . S
C1359 C1365 1.363 . S
C1360 C1361 1.363 . S
C1360 C1365 1.379 . S
C1360 N1367 1.356 . S
C1361 C1360 1.363 . S
C1361 C1364 1.363 . S
N1362 C1364 1.356 . S
N1362 H1374 0.984 . S
N1362 H1375 0.985 . S
N1363 C1365 1.356 . S
N1363 H1368 0.984 . S
N1363 H1369 0.985 . S
C1364 C1358 1.379 . S
C1364 C1361 1.363 . S
C1364 N1362 1.356 . S
C1365 C1359 1.363 . S
C1365 C1360 1.379 . S
C1365 N1363 1.356 . S
N1366 C1358 1.356 . S
N1366 H1372 0.984 . S
N1366 H1373 0.984 . S
N1367 C1360 1.356 . S
N1367 H1370 0.984 . S
N1367 H1371 0.985 . S
H1368 N1363 0.984 . S
H1369 N1363 0.985 . S
H1370 N1367 0.984 . S
H1371 N1367 0.985 . S
H1372 N1366 0.984 . S
H1373 N1366 0.984 . S
H1374 N1362 0.984 . S
H1375 N1362 0.985 . S
C1376 C1377 1.363 . S
C1376 C1382 1.379 . S
C1376 N1384 1.356 . S
C1377 C1376 1.363 . S
C1377 C1383 1.363 . S
C1378 C1379 1.363 . S
C1378 C1383 1.379 . S
C1378 N1385 1.356 . S
C1379 C1378 1.363 . S
C1379 C1382 1.363 . S
N1380 C1382 1.356 . S
N1380 H1392 0.984 . S
N1380 H1393 0.985 . S
N1381 C1383 1.356 . S
N1381 H1386 0.984 . S
N1381 H1387 0.985 . S
C1382 C1376 1.379 . S
C1382 C1379 1.363 . S
C1382 N1380 1.356 . S
C1383 C1377 1.363 . S
C1383 C1378 1.379 . S
C1383 N1381 1.356 . S
N1384 C1376 1.356 . S
N1384 H1390 0.984 . S
N1384 H1391 0.984 . S
N1385 C1378 1.356 . S
N1385 H1388 0.984 . S
N1385 H1389 0.985 . S
H1386 N1381 0.984 . S
H1387 N1381 0.985 . S
H1388 N1385 0.984 . S
H1389 N1385 0.985 . S
H1390 N1384 0.984 . S
H1391 N1384 0.984 . S
H1392 N1380 0.984 . S
H1393 N1380 0.985 . S
C1394 C1395 1.363 . S
C1394 C1400 1.379 1_655 S
C1394 N1402 1.356 . S
C1395 C1394 1.363 . S
C1395 C1401 1.363 1_655 S
C1396 C1397 1.363 . S
C1396 C1401 1.379 . S
C1396 N1403 1.356 . S
C1397 C1396 1.363 . S
C1397 C1400 1.363 . S
N1398 C1400 1.356 . S
N1398 H1410 0.984 . S
N1398 H1411 0.985 . S
N1399 C1401 1.356 . S
N1399 H1404 0.984 1_455 S
N1399 H1405 0.985 . S
C1400 C1394 1.379 1_455 S
C1400 C1397 1.363 . S
C1400 N1398 1.356 . S
C1401 C1395 1.363 1_455 S
C1401 C1396 1.379 . S
C1401 N1399 1.356 . S
N1402 C1394 1.356 . S
N1402 H1408 0.984 . S
N1402 H1409 0.984 . S
N1403 C1396 1.356 . S
N1403 H1406 0.984 . S
N1403 H1407 0.985 . S
H1404 N1399 0.984 1_655 S
H1405 N1399 0.985 . S
H1406 N1403 0.984 . S
H1407 N1403 0.985 . S
H1408 N1402 0.984 . S
H1409 N1402 0.984 . S
H1410 N1398 0.984 . S
H1411 N1398 0.985 . S
C1412 C1413 1.363 . S
C1412 C1418 1.379 . S
C1412 N1420 1.356 . S
C1413 C1412 1.363 . S
C1413 C1419 1.363 . S
C1414 C1415 1.363 . S
C1414 C1419 1.379 . S
C1414 N1421 1.356 . S
C1415 C1414 1.363 . S
C1415 C1418 1.363 . S
N1416 C1418 1.356 . S
N1416 H1428 0.984 . S
N1416 H1429 0.985 . S
N1417 C1419 1.356 . S
N1417 H1422 0.984 . S
N1417 H1423 0.985 . S
C1418 C1412 1.379 . S
C1418 C1415 1.363 . S
C1418 N1416 1.356 . S
C1419 C1413 1.363 . S
C1419 C1414 1.379 . S
C1419 N1417 1.356 . S
N1420 C1412 1.356 . S
N1420 H1426 0.984 . S
N1420 H1427 0.984 . S
N1421 C1414 1.356 . S
N1421 H1424 0.984 . S
N1421 H1425 0.985 . S
H1422 N1417 0.984 . S
H1423 N1417 0.985 . S
H1424 N1421 0.984 . S
H1425 N1421 0.985 . S
H1426 N1420 0.984 . S
H1427 N1420 0.984 . S
H1428 N1416 0.984 . S
H1429 N1416 0.985 . S
C1430 C1431 1.363 . S
C1430 C1436 1.379 . S
C1430 N1438 1.356 . S
C1431 C1430 1.363 . S
C1431 C1437 1.363 . S
C1432 C1433 1.363 . S
C1432 C1437 1.379 . S
C1432 N1439 1.356 . S
C1433 C1432 1.363 . S
C1433 C1436 1.363 . S
N1434 C1436 1.356 . S
N1434 H1446 0.984 . S
N1434 H1447 0.985 . S
N1435 C1437 1.356 . S
N1435 H1440 0.984 . S
N1435 H1441 0.985 . S
C1436 C1430 1.379 . S
C1436 C1433 1.363 . S
C1436 N1434 1.356 . S
C1437 C1431 1.363 . S
C1437 C1432 1.379 . S
C1437 N1435 1.356 . S
N1438 C1430 1.356 . S
N1438 H1444 0.984 . S
N1438 H1445 0.984 . S
N1439 C1432 1.356 . S
N1439 H1442 0.984 . S
N1439 H1443 0.985 . S
H1440 N1435 0.984 . S
H1441 N1435 0.985 . S
H1442 N1439 0.984 . S
H1443 N1439 0.985 . S
H1444 N1438 0.984 . S
H1445 N1438 0.984 . S
H1446 N1434 0.984 . S
H1447 N1434 0.985 . S
C1448 C1449 1.363 . S
C1448 C1454 1.379 . S
C1448 N1456 1.356 . S
C1449 C1448 1.363 . S
C1449 C1455 1.363 . S
C1450 C1451 1.363 . S
C1450 C1455 1.379 . S
C1450 N1457 1.356 . S
C1451 C1450 1.363 . S
C1451 C1454 1.363 . S
N1452 C1454 1.356 . S
N1452 H1464 0.984 . S
N1452 H1465 0.985 . S
N1453 C1455 1.356 . S
N1453 H1458 0.984 . S
N1453 H1459 0.985 . S
C1454 C1448 1.379 . S
C1454 C1451 1.363 . S
C1454 N1452 1.356 . S
C1455 C1449 1.363 . S
C1455 C1450 1.379 . S
C1455 N1453 1.356 . S
N1456 C1448 1.356 . S
N1456 H1462 0.984 . S
N1456 H1463 0.984 . S
N1457 C1450 1.356 . S
N1457 H1460 0.984 . S
N1457 H1461 0.985 . S
H1458 N1453 0.984 . S
H1459 N1453 0.985 . S
H1460 N1457 0.984 . S
H1461 N1457 0.985 . S
H1462 N1456 0.984 . S
H1463 N1456 0.984 . S
H1464 N1452 0.984 . S
H1465 N1452 0.985 . S
C1466 C1467 1.363 . S
C1466 C1472 1.379 . S
C1466 N1474 1.356 . S
C1467 C1466 1.363 . S
C1467 C1473 1.363 . S
C1468 C1469 1.363 . S
C1468 C1473 1.379 . S
C1468 N1475 1.356 . S
C1469 C1468 1.363 . S
C1469 C1472 1.363 . S
N1470 C1472 1.356 . S
N1470 H1482 0.984 . S
N1470 H1483 0.985 . S
N1471 C1473 1.356 . S
N1471 H1476 0.984 . S
N1471 H1477 0.985 . S
C1472 C1466 1.379 . S
C1472 C1469 1.363 . S
C1472 N1470 1.356 . S
C1473 C1467 1.363 . S
C1473 C1468 1.379 . S
C1473 N1471 1.356 . S
N1474 C1466 1.356 . S
N1474 H1480 0.984 . S
N1474 H1481 0.984 . S
N1475 C1468 1.356 . S
N1475 H1478 0.984 . S
N1475 H1479 0.985 . S
H1476 N1471 0.984 . S
H1477 N1471 0.985 . S
H1478 N1475 0.984 . S
H1479 N1475 0.985 . S
H1480 N1474 0.984 . S
H1481 N1474 0.984 . S
H1482 N1470 0.984 . S
H1483 N1470 0.985 . S
C1484 C1485 1.363 . S
C1484 C1490 1.379 . S
C1484 N1492 1.356 . S
C1485 C1484 1.363 . S
C1485 C1491 1.363 . S
C1486 C1487 1.363 . S
C1486 C1491 1.379 . S
C1486 N1493 1.356 . S
C1487 C1486 1.363 . S
C1487 C1490 1.363 . S
N1488 C1490 1.356 . S
N1488 H1500 0.984 . S
N1488 H1501 0.985 . S
N1489 C1491 1.356 . S
N1489 H1494 0.984 . S
N1489 H1495 0.985 . S
C1490 C1484 1.379 . S
C1490 C1487 1.363 . S
C1490 N1488 1.356 . S
C1491 C1485 1.363 . S
C1491 C1486 1.379 . S
C1491 N1489 1.356 . S
N1492 C1484 1.356 . S
N1492 H1498 0.984 . S
N1492 H1499 0.984 . S
N1493 C1486 1.356 . S
N1493 H1496 0.984 . S
N1493 H1497 0.985 . S
H1494 N1489 0.984 . S
H1495 N1489 0.985 . S
H1496 N1493 0.984 . S
H1497 N1493 0.985 . S
H1498 N1492 0.984 . S
H1499 N1492 0.984 . S
H1500 N1488 0.984 . S
H1501 N1488 0.985 . S
C1502 C1503 1.363 . S
C1502 C1508 1.379 1_655 S
C1502 N1510 1.356 . S
C1503 C1502 1.363 . S
C1503 C1509 1.363 1_655 S
C1504 C1505 1.363 . S
C1504 C1509 1.379 . S
C1504 N1511 1.356 . S
C1505 C1504 1.363 . S
C1505 C1508 1.363 . S
N1506 C1508 1.356 . S
N1506 H1518 0.984 . S
N1506 H1519 0.985 . S
N1507 C1509 1.356 . S
N1507 H1512 0.984 1_455 S
N1507 H1513 0.985 . S
C1508 C1502 1.379 1_455 S
C1508 C1505 1.363 . S
C1508 N1506 1.356 . S
C1509 C1503 1.363 1_455 S
C1509 C1504 1.379 . S
C1509 N1507 1.356 . S
N1510 C1502 1.356 . S
N1510 H1516 0.984 . S
N1510 H1517 0.984 . S
N1511 C1504 1.356 . S
N1511 H1514 0.984 . S
N1511 H1515 0.985 . S
H1512 N1507 0.984 1_655 S
H1513 N1507 0.985 . S
H1514 N1511 0.984 . S
H1515 N1511 0.985 . S
H1516 N1510 0.984 . S
H1517 N1510 0.984 . S
H1518 N1506 0.984 . S
H1519 N1506 0.985 . S
C1520 C1521 1.363 . S
C1520 C1526 1.379 . S
C1520 N1528 1.356 . S
C1521 C1520 1.363 . S
C1521 C1527 1.363 . S
C1522 C1523 1.363 . S
C1522 C1527 1.379 . S
C1522 N1529 1.356 . S
C1523 C1522 1.363 . S
C1523 C1526 1.363 . S
N1524 C1526 1.356 . S
N1524 H1536 0.984 . S
N1524 H1537 0.985 . S
N1525 C1527 1.356 . S
N1525 H1530 0.984 . S
N1525 H1531 0.985 . S
C1526 C1520 1.379 . S
C1526 C1523 1.363 . S
C1526 N1524 1.356 . S
C1527 C1521 1.363 . S
C1527 C1522 1.379 . S
C1527 N1525 1.356 . S
N1528 C1520 1.356 . S
N1528 H1534 0.984 . S
N1528 H1535 0.984 . S
N1529 C1522 1.356 . S
N1529 H1532 0.984 . S
N1529 H1533 0.985 . S
H1530 N1525 0.984 . S
H1531 N1525 0.985 . S
H1532 N1529 0.984 . S
H1533 N1529 0.985 . S
H1534 N1528 0.984 . S
H1535 N1528 0.984 . S
H1536 N1524 0.984 . S
H1537 N1524 0.985 . S
C1538 C1539 1.363 1_655 S
C1538 C1544 1.379 . S
C1538 N1546 1.356 . S
C1539 C1538 1.363 1_455 S
C1539 C1545 1.363 . S
C1540 C1541 1.363 . S
C1540 C1545 1.379 1_655 S
C1540 N1547 1.356 . S
C1541 C1540 1.363 . S
C1541 C1544 1.363 . S
N1542 C1544 1.356 . S
N1542 H1554 0.984 . S
N1542 H1555 0.985 . S
N1543 C1545 1.356 . S
N1543 H1548 0.984 . S
N1543 H1549 0.985 . S
C1544 C1538 1.379 . S
C1544 C1541 1.363 . S
C1544 N1542 1.356 . S
C1545 C1539 1.363 . S
C1545 C1540 1.379 1_455 S
C1545 N1543 1.356 . S
N1546 C1538 1.356 . S
N1546 H1552 0.984 . S
N1546 H1553 0.984 1_655 S
N1547 C1540 1.356 . S
N1547 H1550 0.984 . S
N1547 H1551 0.985 . S
H1548 N1543 0.984 . S
H1549 N1543 0.985 . S
H1550 N1547 0.984 . S
H1551 N1547 0.985 . S
H1552 N1546 0.984 . S
H1553 N1546 0.984 1_455 S
H1554 N1542 0.984 . S
H1555 N1542 0.985 . S
C1556 C1557 1.363 . S
C1556 C1562 1.379 . S
C1556 N1564 1.356 . S
C1557 C1556 1.363 . S
C1557 C1563 1.363 . S
C1558 C1559 1.363 . S
C1558 C1563 1.379 . S
C1558 N1565 1.356 . S
C1559 C1558 1.363 . S
C1559 C1562 1.363 . S
N1560 C1562 1.356 . S
N1560 H1572 0.984 . S
N1560 H1573 0.985 . S
N1561 C1563 1.356 . S
N1561 H1566 0.984 . S
N1561 H1567 0.985 . S
C1562 C1556 1.379 . S
C1562 C1559 1.363 . S
C1562 N1560 1.356 . S
C1563 C1557 1.363 . S
C1563 C1558 1.379 . S
C1563 N1561 1.356 . S
N1564 C1556 1.356 . S
N1564 H1570 0.984 . S
N1564 H1571 0.984 . S
N1565 C1558 1.356 . S
N1565 H1568 0.984 . S
N1565 H1569 0.985 . S
H1566 N1561 0.984 . S
H1567 N1561 0.985 . S
H1568 N1565 0.984 . S
H1569 N1565 0.985 . S
H1570 N1564 0.984 . S
H1571 N1564 0.984 . S
H1572 N1560 0.984 . S
H1573 N1560 0.985 . S
C1574 C1575 1.363 . S
C1574 C1580 1.379 . S
C1574 N1582 1.356 . S
C1575 C1574 1.363 . S
C1575 C1581 1.363 . S
C1576 C1577 1.363 . S
C1576 C1581 1.379 . S
C1576 N1583 1.356 . S
C1577 C1576 1.363 . S
C1577 C1580 1.363 . S
N1578 C1580 1.356 . S
N1578 H1590 0.984 . S
N1578 H1591 0.985 . S
N1579 C1581 1.356 . S
N1579 H1584 0.984 . S
N1579 H1585 0.985 . S
C1580 C1574 1.379 . S
C1580 C1577 1.363 . S
C1580 N1578 1.356 . S
C1581 C1575 1.363 . S
C1581 C1576 1.379 . S
C1581 N1579 1.356 . S
N1582 C1574 1.356 . S
N1582 H1588 0.984 . S
N1582 H1589 0.984 . S
N1583 C1576 1.356 . S
N1583 H1586 0.984 . S
N1583 H1587 0.985 . S
H1584 N1579 0.984 . S
H1585 N1579 0.985 . S
H1586 N1583 0.984 . S
H1587 N1583 0.985 . S
H1588 N1582 0.984 . S
H1589 N1582 0.984 . S
H1590 N1578 0.984 . S
H1591 N1578 0.985 . S
C1592 C1593 1.363 . S
C1592 C1598 1.379 . S
C1592 N1600 1.356 . S
C1593 C1592 1.363 . S
C1593 C1599 1.363 . S
C1594 C1595 1.363 . S
C1594 C1599 1.379 . S
C1594 N1601 1.356 . S
C1595 C1594 1.363 . S
C1595 C1598 1.363 . S
N1596 C1598 1.356 . S
N1596 H1608 0.984 . S
N1596 H1609 0.985 . S
N1597 C1599 1.356 . S
N1597 H1602 0.984 . S
N1597 H1603 0.985 . S
C1598 C1592 1.379 . S
C1598 C1595 1.363 . S
C1598 N1596 1.356 . S
C1599 C1593 1.363 . S
C1599 C1594 1.379 . S
C1599 N1597 1.356 . S
N1600 C1592 1.356 . S
N1600 H1606 0.984 . S
N1600 H1607 0.984 . S
N1601 C1594 1.356 . S
N1601 H1604 0.984 . S
N1601 H1605 0.985 . S
H1602 N1597 0.984 . S
H1603 N1597 0.985 . S
H1604 N1601 0.984 . S
H1605 N1601 0.985 . S
H1606 N1600 0.984 . S
H1607 N1600 0.984 . S
H1608 N1596 0.984 . S
H1609 N1596 0.985 . S
C1610 C1611 1.363 . S
C1610 C1616 1.379 . S
C1610 N1618 1.356 . S
C1611 C1610 1.363 . S
C1611 C1617 1.363 . S
C1612 C1613 1.363 . S
C1612 C1617 1.379 . S
C1612 N1619 1.356 . S
C1613 C1612 1.363 . S
C1613 C1616 1.363 . S
N1614 C1616 1.356 . S
N1614 H1626 0.984 . S
N1614 H1627 0.985 . S
N1615 C1617 1.356 . S
N1615 H1620 0.984 . S
N1615 H1621 0.985 . S
C1616 C1610 1.379 . S
C1616 C1613 1.363 . S
C1616 N1614 1.356 . S
C1617 C1611 1.363 . S
C1617 C1612 1.379 . S
C1617 N1615 1.356 . S
N1618 C1610 1.356 . S
N1618 H1624 0.984 . S
N1618 H1625 0.984 . S
N1619 C1612 1.356 . S
N1619 H1622 0.984 . S
N1619 H1623 0.985 . S
H1620 N1615 0.984 . S
H1621 N1615 0.985 . S
H1622 N1619 0.984 . S
H1623 N1619 0.985 . S
H1624 N1618 0.984 . S
H1625 N1618 0.984 . S
H1626 N1614 0.984 . S
H1627 N1614 0.985 . S
C1628 C1629 1.363 . S
C1628 C1634 1.379 . S
C1628 N1636 1.356 . S
C1629 C1628 1.363 . S
C1629 C1635 1.363 . S
C1630 C1631 1.363 . S
C1630 C1635 1.379 . S
C1630 N1637 1.356 . S
C1631 C1630 1.363 . S
C1631 C1634 1.363 . S
N1632 C1634 1.356 . S
N1632 H1644 0.984 . S
N1632 H1645 0.985 . S
N1633 C1635 1.356 . S
N1633 H1638 0.984 . S
N1633 H1639 0.985 . S
C1634 C1628 1.379 . S
C1634 C1631 1.363 . S
C1634 N1632 1.356 . S
C1635 C1629 1.363 . S
C1635 C1630 1.379 . S
C1635 N1633 1.356 . S
N1636 C1628 1.356 . S
N1636 H1642 0.984 . S
N1636 H1643 0.984 . S
N1637 C1630 1.356 . S
N1637 H1640 0.984 . S
N1637 H1641 0.985 . S
H1638 N1633 0.984 . S
H1639 N1633 0.985 . S
H1640 N1637 0.984 . S
H1641 N1637 0.985 . S
H1642 N1636 0.984 . S
H1643 N1636 0.984 . S
H1644 N1632 0.984 . S
H1645 N1632 0.985 . S
C1646 C1647 1.363 . S
C1646 C1652 1.379 . S
C1646 N1654 1.356 . S
C1647 C1646 1.363 . S
C1647 C1653 1.363 . S
C1648 C1649 1.363 . S
C1648 C1653 1.379 1_455 S
C1648 N1655 1.356 . S
C1649 C1648 1.363 . S
C1649 C1652 1.363 1_455 S
N1650 C1652 1.356 1_455 S
N1650 H1662 0.984 1_455 S
N1650 H1663 0.985 . S
N1651 C1653 1.356 . S
N1651 H1656 0.984 . S
N1651 H1657 0.985 . S
C1652 C1646 1.379 . S
C1652 C1649 1.363 1_655 S
C1652 N1650 1.356 1_655 S
C1653 C1647 1.363 . S
C1653 C1648 1.379 1_655 S
C1653 N1651 1.356 . S
N1654 C1646 1.356 . S
N1654 H1660 0.984 . S
N1654 H1661 0.984 . S
N1655 C1648 1.356 . S
N1655 H1658 0.984 . S
N1655 H1659 0.985 . S
H1656 N1651 0.984 . S
H1657 N1651 0.985 . S
H1658 N1655 0.984 . S
H1659 N1655 0.985 . S
H1660 N1654 0.984 . S
H1661 N1654 0.984 . S
H1662 N1650 0.984 1_655 S
H1663 N1650 0.985 . S
C1664 C1665 1.363 . S
C1664 C1670 1.379 . S
C1664 N1672 1.356 . S
C1665 C1664 1.363 . S
C1665 C1671 1.363 . S
C1666 C1667 1.363 . S
C1666 C1671 1.379 . S
C1666 N1673 1.356 . S
C1667 C1666 1.363 . S
C1667 C1670 1.363 . S
N1668 C1670 1.356 . S
N1668 H1680 0.984 . S
N1668 H1681 0.985 . S
N1669 C1671 1.356 . S
N1669 H1674 0.984 . S
N1669 H1675 0.985 . S
C1670 C1664 1.379 . S
C1670 C1667 1.363 . S
C1670 N1668 1.356 . S
C1671 C1665 1.363 . S
C1671 C1666 1.379 . S
C1671 N1669 1.356 . S
N1672 C1664 1.356 . S
N1672 H1678 0.984 . S
N1672 H1679 0.984 . S
N1673 C1666 1.356 . S
N1673 H1676 0.984 . S
N1673 H1677 0.985 . S
H1674 N1669 0.984 . S
H1675 N1669 0.985 . S
H1676 N1673 0.984 . S
H1677 N1673 0.985 . S
H1678 N1672 0.984 . S
H1679 N1672 0.984 . S
H1680 N1668 0.984 . S
H1681 N1668 0.985 . S
C1682 C1683 1.363 . S
C1682 C1688 1.379 . S
C1682 N1690 1.356 . S
C1683 C1682 1.363 . S
C1683 C1689 1.363 . S
C1684 C1685 1.363 . S
C1684 C1689 1.379 . S
C1684 N1691 1.356 . S
C1685 C1684 1.363 . S
C1685 C1688 1.363 . S
N1686 C1688 1.356 . S
N1686 H1698 0.984 . S
N1686 H1699 0.985 . S
N1687 C1689 1.356 . S
N1687 H1692 0.984 . S
N1687 H1693 0.985 . S
C1688 C1682 1.379 . S
C1688 C1685 1.363 . S
C1688 N1686 1.356 . S
C1689 C1683 1.363 . S
C1689 C1684 1.379 . S
C1689 N1687 1.356 . S
N1690 C1682 1.356 . S
N1690 H1696 0.984 . S
N1690 H1697 0.984 . S
N1691 C1684 1.356 . S
N1691 H1694 0.984 . S
N1691 H1695 0.985 . S
H1692 N1687 0.984 . S
H1693 N1687 0.985 . S
H1694 N1691 0.984 . S
H1695 N1691 0.985 . S
H1696 N1690 0.984 . S
H1697 N1690 0.984 . S
H1698 N1686 0.984 . S
H1699 N1686 0.985 . S
C1700 C1701 1.363 . S
C1700 C1706 1.379 . S
C1700 N1708 1.356 . S
C1701 C1700 1.363 . S
C1701 C1707 1.363 . S
C1702 C1703 1.363 . S
C1702 C1707 1.379 . S
C1702 N1709 1.356 . S
C1703 C1702 1.363 . S
C1703 C1706 1.363 . S
N1704 C1706 1.356 . S
N1704 H1716 0.984 . S
N1704 H1717 0.985 . S
N1705 C1707 1.356 . S
N1705 H1710 0.984 . S
N1705 H1711 0.985 . S
C1706 C1700 1.379 . S
C1706 C1703 1.363 . S
C1706 N1704 1.356 . S
C1707 C1701 1.363 . S
C1707 C1702 1.379 . S
C1707 N1705 1.356 . S
N1708 C1700 1.356 . S
N1708 H1714 0.984 . S
N1708 H1715 0.984 . S
N1709 C1702 1.356 . S
N1709 H1712 0.984 . S
N1709 H1713 0.985 . S
H1710 N1705 0.984 . S
H1711 N1705 0.985 . S
H1712 N1709 0.984 . S
H1713 N1709 0.985 . S
H1714 N1708 0.984 . S
H1715 N1708 0.984 . S
H1716 N1704 0.984 . S
H1717 N1704 0.985 . S
C1718 C1719 1.363 . S
C1718 C1724 1.379 1_655 S
C1718 N1726 1.356 . S
C1719 C1718 1.363 . S
C1719 C1725 1.363 . S
C1720 C1721 1.363 1_655 S
C1720 C1725 1.379 . S
C1720 N1727 1.356 . S
C1721 C1720 1.363 1_455 S
C1721 C1724 1.363 . S
N1722 C1724 1.356 . S
N1722 H1734 0.984 . S
N1722 H1735 0.985 . S
N1723 C1725 1.356 . S
N1723 H1728 0.984 . S
N1723 H1729 0.985 . S
C1724 C1718 1.379 1_455 S
C1724 C1721 1.363 . S
C1724 N1722 1.356 . S
C1725 C1719 1.363 . S
C1725 C1720 1.379 . S
C1725 N1723 1.356 . S
N1726 C1718 1.356 . S
N1726 H1732 0.984 . S
N1726 H1733 0.984 . S
N1727 C1720 1.356 . S
N1727 H1730 0.984 1_655 S
N1727 H1731 0.985 . S
H1728 N1723 0.984 . S
H1729 N1723 0.985 . S
H1730 N1727 0.984 1_455 S
H1731 N1727 0.985 . S
H1732 N1726 0.984 . S
H1733 N1726 0.984 . S
H1734 N1722 0.984 . S
H1735 N1722 0.985 . S
C1736 C1737 1.363 . S
C1736 C1742 1.379 . S
C1736 N1744 1.356 . S
C1737 C1736 1.363 . S
C1737 C1743 1.363 . S
C1738 C1739 1.363 . S
C1738 C1743 1.379 . S
C1738 N1745 1.356 . S
C1739 C1738 1.363 . S
C1739 C1742 1.363 . S
N1740 C1742 1.356 . S
N1740 H1752 0.984 . S
N1740 H1753 0.985 . S
N1741 C1743 1.356 . S
N1741 H1746 0.984 . S
N1741 H1747 0.985 . S
C1742 C1736 1.379 . S
C1742 C1739 1.363 . S
C1742 N1740 1.356 . S
C1743 C1737 1.363 . S
C1743 C1738 1.379 . S
C1743 N1741 1.356 . S
N1744 C1736 1.356 . S
N1744 H1750 0.984 . S
N1744 H1751 0.984 . S
N1745 C1738 1.356 . S
N1745 H1748 0.984 . S
N1745 H1749 0.985 . S
H1746 N1741 0.984 . S
H1747 N1741 0.985 . S
H1748 N1745 0.984 . S
H1749 N1745 0.985 . S
H1750 N1744 0.984 . S
H1751 N1744 0.984 . S
H1752 N1740 0.984 . S
H1753 N1740 0.985 . S
C1754 C1755 1.363 . S
C1754 C1760 1.379 . S
C1754 N1762 1.356 . S
C1755 C1754 1.363 . S
C1755 C1761 1.363 . S
C1756 C1757 1.363 1_655 S
C1756 C1761 1.379 . S
C1756 N1763 1.356 1_655 S
C1757 C1756 1.363 1_455 S
C1757 C1760 1.363 1_455 S
N1758 C1760 1.356 1_455 S
N1758 H1770 0.984 . S
N1758 H1771 0.985 . S
N1759 C1761 1.356 . S
N1759 H1764 0.984 . S
N1759 H1765 0.985 . S
C1760 C1754 1.379 . S
C1760 C1757 1.363 1_655 S
C1760 N1758 1.356 1_655 S
C1761 C1755 1.363 . S
C1761 C1756 1.379 . S
C1761 N1759 1.356 . S
N1762 C1754 1.356 . S
N1762 H1768 0.984 . S
N1762 H1769 0.984 . S
N1763 C1756 1.356 1_455 S
N1763 H1766 0.984 . S
N1763 H1767 0.985 . S
H1764 N1759 0.984 . S
H1765 N1759 0.985 . S
H1766 N1763 0.984 . S
H1767 N1763 0.985 . S
H1768 N1762 0.984 . S
H1769 N1762 0.984 . S
H1770 N1758 0.984 . S
H1771 N1758 0.985 . S
C1772 C1773 1.363 . S
C1772 C1778 1.379 . S
C1772 N1780 1.356 . S
C1773 C1772 1.363 . S
C1773 C1779 1.363 . S
C1774 C1775 1.363 . S
C1774 C1779 1.379 . S
C1774 N1781 1.356 . S
C1775 C1774 1.363 . S
C1775 C1778 1.363 . S
N1776 C1778 1.356 . S
N1776 H1788 0.984 . S
N1776 H1789 0.985 . S
N1777 C1779 1.356 . S
N1777 H1782 0.984 . S
N1777 H1783 0.985 . S
C1778 C1772 1.379 . S
C1778 C1775 1.363 . S
C1778 N1776 1.356 . S
C1779 C1773 1.363 . S
C1779 C1774 1.379 . S
C1779 N1777 1.356 . S
N1780 C1772 1.356 . S
N1780 H1786 0.984 . S
N1780 H1787 0.984 . S
N1781 C1774 1.356 . S
N1781 H1784 0.984 . S
N1781 H1785 0.985 . S
H1782 N1777 0.984 . S
H1783 N1777 0.985 . S
H1784 N1781 0.984 . S
H1785 N1781 0.985 . S
H1786 N1780 0.984 . S
H1787 N1780 0.984 . S
H1788 N1776 0.984 . S
H1789 N1776 0.985 . S
C1790 C1791 1.363 . S
C1790 C1796 1.379 . S
C1790 N1798 1.356 . S
C1791 C1790 1.363 . S
C1791 C1797 1.363 . S
C1792 C1793 1.363 . S
C1792 C1797 1.379 . S
C1792 N1799 1.356 . S
C1793 C1792 1.363 . S
C1793 C1796 1.363 . S
N1794 C1796 1.356 . S
N1794 H1806 0.984 . S
N1794 H1807 0.985 . S
N1795 C1797 1.356 . S
N1795 H1800 0.984 . S
N1795 H1801 0.985 . S
C1796 C1790 1.379 . S
C1796 C1793 1.363 . S
C1796 N1794 1.356 . S
C1797 C1791 1.363 . S
C1797 C1792 1.379 . S
C1797 N1795 1.356 . S
N1798 C1790 1.356 . S
N1798 H1804 0.984 . S
N1798 H1805 0.984 . S
N1799 C1792 1.356 . S
N1799 H1802 0.984 . S
N1799 H1803 0.985 . S
H1800 N1795 0.984 . S
H1801 N1795 0.985 . S
H1802 N1799 0.984 . S
H1803 N1799 0.985 . S
H1804 N1798 0.984 . S
H1805 N1798 0.984 . S
H1806 N1794 0.984 . S
H1807 N1794 0.985 . S
C1808 C1809 1.363 . S
C1808 C1814 1.379 . S
C1808 N1816 1.356 . S
C1809 C1808 1.363 . S
C1809 C1815 1.363 . S
C1810 C1811 1.363 . S
C1810 C1815 1.379 . S
C1810 N1817 1.356 . S
C1811 C1810 1.363 . S
C1811 C1814 1.363 . S
N1812 C1814 1.356 . S
N1812 H1824 0.984 . S
N1812 H1825 0.985 . S
N1813 C1815 1.356 . S
N1813 H1818 0.984 . S
N1813 H1819 0.985 . S
C1814 C1808 1.379 . S
C1814 C1811 1.363 . S
C1814 N1812 1.356 . S
C1815 C1809 1.363 . S
C1815 C1810 1.379 . S
C1815 N1813 1.356 . S
N1816 C1808 1.356 . S
N1816 H1822 0.984 . S
N1816 H1823 0.984 . S
N1817 C1810 1.356 . S
N1817 H1820 0.984 . S
N1817 H1821 0.985 . S
H1818 N1813 0.984 . S
H1819 N1813 0.985 . S
H1820 N1817 0.984 . S
H1821 N1817 0.985 . S
H1822 N1816 0.984 . S
H1823 N1816 0.984 . S
H1824 N1812 0.984 . S
H1825 N1812 0.985 . S
C1826 C1827 1.363 . S
C1826 C1832 1.379 . S
C1826 N1834 1.356 . S
C1827 C1826 1.363 . S
C1827 C1833 1.363 . S
C1828 C1829 1.363 . S
C1828 C1833 1.379 . S
C1828 N1835 1.356 . S
C1829 C1828 1.363 . S
C1829 C1832 1.363 . S
N1830 C1832 1.356 . S
N1830 H1842 0.984 . S
N1830 H1843 0.985 . S
N1831 C1833 1.356 . S
N1831 H1836 0.984 . S
N1831 H1837 0.985 . S
C1832 C1826 1.379 . S
C1832 C1829 1.363 . S
C1832 N1830 1.356 . S
C1833 C1827 1.363 . S
C1833 C1828 1.379 . S
C1833 N1831 1.356 . S
N1834 C1826 1.356 . S
N1834 H1840 0.984 . S
N1834 H1841 0.984 . S
N1835 C1828 1.356 . S
N1835 H1838 0.984 . S
N1835 H1839 0.985 . S
H1836 N1831 0.984 . S
H1837 N1831 0.985 . S
H1838 N1835 0.984 . S
H1839 N1835 0.985 . S
H1840 N1834 0.984 . S
H1841 N1834 0.984 . S
H1842 N1830 0.984 . S
H1843 N1830 0.985 . S
C1844 C1845 1.363 . S
C1844 C1850 1.379 . S
C1844 N1852 1.356 . S
C1845 C1844 1.363 . S
C1845 C1851 1.363 . S
C1846 C1847 1.363 . S
C1846 C1851 1.379 . S
C1846 N1853 1.356 . S
C1847 C1846 1.363 . S
C1847 C1850 1.363 . S
N1848 C1850 1.356 . S
N1848 H1860 0.984 . S
N1848 H1861 0.985 . S
N1849 C1851 1.356 . S
N1849 H1854 0.984 . S
N1849 H1855 0.985 . S
C1850 C1844 1.379 . S
C1850 C1847 1.363 . S
C1850 N1848 1.356 . S
C1851 C1845 1.363 . S
C1851 C1846 1.379 . S
C1851 N1849 1.356 . S
N1852 C1844 1.356 . S
N1852 H1858 0.984 . S
N1852 H1859 0.984 . S
N1853 C1846 1.356 . S
N1853 H1856 0.984 . S
N1853 H1857 0.985 . S
H1854 N1849 0.984 . S
H1855 N1849 0.985 . S
H1856 N1853 0.984 . S
H1857 N1853 0.985 . S
H1858 N1852 0.984 . S
H1859 N1852 0.984 . S
H1860 N1848 0.984 . S
H1861 N1848 0.985 . S
C1862 C1863 1.363 . S
C1862 C1868 1.379 1_455 S
C1862 N1870 1.356 . S
C1863 C1862 1.363 . S
C1863 C1869 1.363 . S
C1864 C1865 1.363 1_455 S
C1864 C1869 1.379 . S
C1864 N1871 1.356 . S
C1865 C1864 1.363 1_655 S
C1865 C1868 1.363 . S
N1866 C1868 1.356 . S
N1866 H1878 0.984 . S
N1866 H1879 0.985 . S
N1867 C1869 1.356 . S
N1867 H1872 0.984 . S
N1867 H1873 0.985 . S
C1868 C1862 1.379 1_655 S
C1868 C1865 1.363 . S
C1868 N1866 1.356 . S
C1869 C1863 1.363 . S
C1869 C1864 1.379 . S
C1869 N1867 1.356 . S
N1870 C1862 1.356 . S
N1870 H1876 0.984 . S
N1870 H1877 0.984 . S
N1871 C1864 1.356 . S
N1871 H1874 0.984 1_455 S
N1871 H1875 0.985 . S
H1872 N1867 0.984 . S
H1873 N1867 0.985 . S
H1874 N1871 0.984 1_655 S
H1875 N1871 0.985 . S
H1876 N1870 0.984 . S
H1877 N1870 0.984 . S
H1878 N1866 0.984 . S
H1879 N1866 0.985 . S
C1880 C1881 1.363 . S
C1880 C1886 1.379 . S
C1880 N1888 1.356 . S
C1881 C1880 1.363 . S
C1881 C1887 1.363 . S
C1882 C1883 1.363 . S
C1882 C1887 1.379 . S
C1882 N1889 1.356 . S
C1883 C1882 1.363 . S
C1883 C1886 1.363 . S
N1884 C1886 1.356 . S
N1884 H1896 0.984 . S
N1884 H1897 0.985 . S
N1885 C1887 1.356 . S
N1885 H1890 0.984 . S
N1885 H1891 0.985 . S
C1886 C1880 1.379 . S
C1886 C1883 1.363 . S
C1886 N1884 1.356 . S
C1887 C1881 1.363 . S
C1887 C1882 1.379 . S
C1887 N1885 1.356 . S
N1888 C1880 1.356 . S
N1888 H1894 0.984 . S
N1888 H1895 0.984 . S
N1889 C1882 1.356 . S
N1889 H1892 0.984 . S
N1889 H1893 0.985 . S
H1890 N1885 0.984 . S
H1891 N1885 0.985 . S
H1892 N1889 0.984 . S
H1893 N1889 0.985 . S
H1894 N1888 0.984 . S
H1895 N1888 0.984 . S
H1896 N1884 0.984 . S
H1897 N1884 0.985 . S
C1898 C1899 1.363 . S
C1898 C1904 1.379 1_655 S
C1898 N1906 1.356 . S
C1899 C1898 1.363 . S
C1899 C1905 1.363 1_655 S
C1900 C1901 1.363 . S
C1900 C1905 1.379 . S
C1900 N1907 1.356 . S
C1901 C1900 1.363 . S
C1901 C1904 1.363 . S
N1902 C1904 1.356 . S
N1902 H1914 0.984 . S
N1902 H1915 0.985 . S
N1903 C1905 1.356 . S
N1903 H1908 0.984 1_455 S
N1903 H1909 0.985 . S
C1904 C1898 1.379 1_455 S
C1904 C1901 1.363 . S
C1904 N1902 1.356 . S
C1905 C1899 1.363 1_455 S
C1905 C1900 1.379 . S
C1905 N1903 1.356 . S
N1906 C1898 1.356 . S
N1906 H1912 0.984 . S
N1906 H1913 0.984 . S
N1907 C1900 1.356 . S
N1907 H1910 0.984 . S
N1907 H1911 0.985 . S
H1908 N1903 0.984 1_655 S
H1909 N1903 0.985 . S
H1910 N1907 0.984 . S
H1911 N1907 0.985 . S
H1912 N1906 0.984 . S
H1913 N1906 0.984 . S
H1914 N1902 0.984 . S
H1915 N1902 0.985 . S
C1916 C1917 1.363 . S
C1916 C1922 1.379 . S
C1916 N1924 1.356 . S
C1917 C1916 1.363 . S
C1917 C1923 1.363 . S
C1918 C1919 1.363 . S
C1918 C1923 1.379 . S
C1918 N1925 1.356 . S
C1919 C1918 1.363 . S
C1919 C1922 1.363 . S
N1920 C1922 1.356 . S
N1920 H1932 0.984 . S
N1920 H1933 0.985 . S
N1921 C1923 1.356 . S
N1921 H1926 0.984 . S
N1921 H1927 0.985 . S
C1922 C1916 1.379 . S
C1922 C1919 1.363 . S
C1922 N1920 1.356 . S
C1923 C1917 1.363 . S
C1923 C1918 1.379 . S
C1923 N1921 1.356 . S
N1924 C1916 1.356 . S
N1924 H1930 0.984 . S
N1924 H1931 0.984 . S
N1925 C1918 1.356 . S
N1925 H1928 0.984 . S
N1925 H1929 0.985 . S
H1926 N1921 0.984 . S
H1927 N1921 0.985 . S
H1928 N1925 0.984 . S
H1929 N1925 0.985 . S
H1930 N1924 0.984 . S
H1931 N1924 0.984 . S
H1932 N1920 0.984 . S
H1933 N1920 0.985 . S
C1934 C1935 1.363 . S
C1934 C1940 1.379 . S
C1934 N1942 1.356 . S
C1935 C1934 1.363 . S
C1935 C1941 1.363 . S
C1936 C1937 1.363 . S
C1936 C1941 1.379 . S
C1936 N1943 1.356 . S
C1937 C1936 1.363 . S
C1937 C1940 1.363 . S
N1938 C1940 1.356 . S
N1938 H1950 0.984 . S
N1938 H1951 0.985 . S
N1939 C1941 1.356 . S
N1939 H1944 0.984 . S
N1939 H1945 0.985 . S
C1940 C1934 1.379 . S
C1940 C1937 1.363 . S
C1940 N1938 1.356 . S
C1941 C1935 1.363 . S
C1941 C1936 1.379 . S
C1941 N1939 1.356 . S
N1942 C1934 1.356 . S
N1942 H1948 0.984 . S
N1942 H1949 0.984 . S
N1943 C1936 1.356 . S
N1943 H1946 0.984 . S
N1943 H1947 0.985 . S
H1944 N1939 0.984 . S
H1945 N1939 0.985 . S
H1946 N1943 0.984 . S
H1947 N1943 0.985 . S
H1948 N1942 0.984 . S
H1949 N1942 0.984 . S
H1950 N1938 0.984 . S
H1951 N1938 0.985 . S
C1952 C1953 1.363 . S
C1952 C1958 1.379 . S
C1952 N1960 1.356 . S
C1953 C1952 1.363 . S
C1953 C1959 1.363 . S
C1954 C1955 1.363 . S
C1954 C1959 1.379 . S
C1954 N1961 1.356 . S
C1955 C1954 1.363 . S
C1955 C1958 1.363 . S
N1956 C1958 1.356 . S
N1956 H1968 0.984 . S
N1956 H1969 0.985 . S
N1957 C1959 1.356 . S
N1957 H1962 0.984 . S
N1957 H1963 0.985 . S
C1958 C1952 1.379 . S
C1958 C1955 1.363 . S
C1958 N1956 1.356 . S
C1959 C1953 1.363 . S
C1959 C1954 1.379 . S
C1959 N1957 1.356 . S
N1960 C1952 1.356 . S
N1960 H1966 0.984 . S
N1960 H1967 0.984 . S
N1961 C1954 1.356 . S
N1961 H1964 0.984 . S
N1961 H1965 0.985 . S
H1962 N1957 0.984 . S
H1963 N1957 0.985 . S
H1964 N1961 0.984 . S
H1965 N1961 0.985 . S
H1966 N1960 0.984 . S
H1967 N1960 0.984 . S
H1968 N1956 0.984 . S
H1969 N1956 0.985 . S
C1970 C1971 1.363 . S
C1970 C1976 1.379 1_655 S
C1970 N1978 1.356 . S
C1971 C1970 1.363 . S
C1971 C1977 1.363 . S
C1972 C1973 1.363 . S
C1972 C1977 1.379 1_455 S
C1972 N1979 1.356 . S
C1973 C1972 1.363 . S
C1973 C1976 1.363 . S
N1974 C1976 1.356 . S
N1974 H1986 0.984 . S
N1974 H1987 0.985 . S
N1975 C1977 1.356 . S
N1975 H1980 0.984 . S
N1975 H1981 0.985 . S
C1976 C1970 1.379 1_455 S
C1976 C1973 1.363 . S
C1976 N1974 1.356 . S
C1977 C1971 1.363 . S
C1977 C1972 1.379 1_655 S
C1977 N1975 1.356 . S
N1978 C1970 1.356 . S
N1978 H1984 0.984 . S
N1978 H1985 0.984 . S
N1979 C1972 1.356 . S
N1979 H1982 0.984 . S
N1979 H1983 0.985 . S
H1980 N1975 0.984 . S
H1981 N1975 0.985 . S
H1982 N1979 0.984 . S
H1983 N1979 0.985 . S
H1984 N1978 0.984 . S
H1985 N1978 0.984 . S
H1986 N1974 0.984 . S
H1987 N1974 0.985 . S
C1988 C1989 1.363 . S
C1988 C1994 1.379 . S
C1988 N1996 1.356 . S
C1989 C1988 1.363 . S
C1989 C1995 1.363 1_655 S
C1990 C1991 1.363 . S
C1990 C1995 1.379 . S
C1990 N1997 1.356 . S
C1991 C1990 1.363 . S
C1991 C1994 1.363 1_455 S
N1992 C1994 1.358 . S
N1992 H2004 0.997 . S
N1992 H2005 0.970 1_655 S
N1993 C1995 1.358 . S
N1993 H1998 0.971 1_455 S
N1993 H1999 0.997 . S
C1994 C1988 1.379 . S
C1994 C1991 1.363 1_655 S
C1994 N1992 1.358 . S
C1995 C1989 1.363 1_455 S
C1995 C1990 1.379 . S
C1995 N1993 1.358 . S
N1996 C1988 1.356 . S
N1996 H2002 0.984 . S
N1996 H2003 0.984 . S
N1997 C1990 1.356 . S
N1997 H2000 0.984 . S
N1997 H2001 0.985 . S
H1998 N1993 0.971 1_655 S
H1999 N1993 0.997 . S
H2000 N1997 0.984 . S
H2001 N1997 0.985 . S
H2002 N1996 0.984 . S
H2003 N1996 0.984 . S
H2004 N1992 0.997 . S
H2005 N1992 0.970 1_455 S
C2006 C2007 1.363 . S
C2006 C2012 1.379 . S
C2006 N2014 1.356 . S
C2007 C2006 1.363 . S
C2007 C2013 1.363 . S
C2008 C2009 1.363 . S
C2008 C2013 1.379 . S
C2008 N2015 1.356 . S
C2009 C2008 1.363 . S
C2009 C2012 1.363 . S
N2010 C2012 1.356 . S
N2010 H2022 0.984 . S
N2010 H2023 0.985 . S
N2011 C2013 1.356 . S
N2011 H2016 0.984 . S
N2011 H2017 0.985 . S
C2012 C2006 1.379 . S
C2012 C2009 1.363 . S
C2012 N2010 1.356 . S
C2013 C2007 1.363 . S
C2013 C2008 1.379 . S
C2013 N2011 1.356 . S
N2014 C2006 1.356 . S
N2014 H2020 0.984 . S
N2014 H2021 0.984 . S
N2015 C2008 1.356 . S
N2015 H2018 0.984 . S
N2015 H2019 0.985 . S
H2016 N2011 0.984 . S
H2017 N2011 0.985 . S
H2018 N2015 0.984 . S
H2019 N2015 0.985 . S
H2020 N2014 0.984 . S
H2021 N2014 0.984 . S
H2022 N2010 0.984 . S
H2023 N2010 0.985 . S
C2024 C2025 1.363 . S
C2024 C2030 1.379 . S
C2024 N2032 1.356 . S
C2025 C2024 1.363 . S
C2025 C2031 1.363 . S
C2026 C2027 1.363 . S
C2026 C2031 1.379 . S
C2026 N2033 1.356 . S
C2027 C2026 1.363 . S
C2027 C2030 1.363 . S
N2028 C2030 1.356 . S
N2028 H2040 0.984 . S
N2028 H2041 0.985 . S
N2029 C2031 1.356 . S
N2029 H2034 0.984 . S
N2029 H2035 0.985 . S
C2030 C2024 1.379 . S
C2030 C2027 1.363 . S
C2030 N2028 1.356 . S
C2031 C2025 1.363 . S
C2031 C2026 1.379 . S
C2031 N2029 1.356 . S
N2032 C2024 1.356 . S
N2032 H2038 0.984 . S
N2032 H2039 0.984 . S
N2033 C2026 1.356 . S
N2033 H2036 0.984 . S
N2033 H2037 0.985 . S
H2034 N2029 0.984 . S
H2035 N2029 0.985 . S
H2036 N2033 0.984 . S
H2037 N2033 0.985 . S
H2038 N2032 0.984 . S
H2039 N2032 0.984 . S
H2040 N2028 0.984 . S
H2041 N2028 0.985 . S
C2042 C2043 1.363 . S
C2042 C2048 1.379 . S
C2042 N2050 1.356 . S
C2043 C2042 1.363 . S
C2043 C2049 1.363 . S
C2044 C2045 1.363 . S
C2044 C2049 1.379 . S
C2044 N2051 1.356 . S
C2045 C2044 1.363 . S
C2045 C2048 1.363 . S
N2046 C2048 1.356 . S
N2046 H2058 0.984 . S
N2046 H2059 0.985 . S
N2047 C2049 1.356 . S
N2047 H2052 0.984 . S
N2047 H2053 0.985 . S
C2048 C2042 1.379 . S
C2048 C2045 1.363 . S
C2048 N2046 1.356 . S
C2049 C2043 1.363 . S
C2049 C2044 1.379 . S
C2049 N2047 1.356 . S
N2050 C2042 1.356 . S
N2050 H2056 0.984 . S
N2050 H2057 0.984 . S
N2051 C2044 1.356 . S
N2051 H2054 0.984 . S
N2051 H2055 0.985 . S
H2052 N2047 0.984 . S
H2053 N2047 0.985 . S
H2054 N2051 0.984 . S
H2055 N2051 0.985 . S
H2056 N2050 0.984 . S
H2057 N2050 0.984 . S
H2058 N2046 0.984 . S
H2059 N2046 0.985 . S
C2060 C2061 1.363 1_655 S
C2060 C2066 1.379 . S
C2060 N2068 1.358 . S
C2061 C2060 1.363 1_455 S
C2061 C2067 1.363 . S
C2062 C2063 1.363 1_455 S
C2062 C2067 1.379 . S
C2062 N2069 1.358 . S
C2063 C2062 1.363 1_655 S
C2063 C2066 1.363 . S
N2064 C2066 1.356 . S
N2064 H2076 0.984 . S
N2064 H2077 0.985 . S
N2065 C2067 1.356 . S
N2065 H2070 0.984 . S
N2065 H2071 0.985 . S
C2066 C2060 1.379 . S
C2066 C2063 1.363 . S
C2066 N2064 1.356 . S
C2067 C2061 1.363 . S
C2067 C2062 1.379 . S
C2067 N2065 1.356 . S
N2068 C2060 1.358 . S
N2068 H2074 0.997 . S
N2068 H2075 0.970 1_655 S
N2069 C2062 1.358 . S
N2069 H2072 0.971 1_455 S
N2069 H2073 0.997 . S
H2070 N2065 0.984 . S
H2071 N2065 0.985 . S
H2072 N2069 0.971 1_655 S
H2073 N2069 0.997 . S
H2074 N2068 0.997 . S
H2075 N2068 0.970 1_455 S
H2076 N2064 0.984 . S
H2077 N2064 0.985 . S
C2078 C2079 1.363 . S
C2078 C2084 1.379 1_655 S
C2078 N2086 1.356 . S
C2079 C2078 1.363 . S
C2079 C2085 1.363 . S
C2080 C2081 1.363 . S
C2080 C2085 1.379 1_455 S
C2080 N2087 1.356 . S
C2081 C2080 1.363 . S
C2081 C2084 1.363 . S
N2082 C2084 1.356 . S
N2082 H2094 0.984 . S
N2082 H2095 0.985 . S
N2083 C2085 1.356 . S
N2083 H2088 0.984 . S
N2083 H2089 0.985 . S
C2084 C2078 1.379 1_455 S
C2084 C2081 1.363 . S
C2084 N2082 1.356 . S
C2085 C2079 1.363 . S
C2085 C2080 1.379 1_655 S
C2085 N2083 1.356 . S
N2086 C2078 1.356 . S
N2086 H2092 0.984 . S
N2086 H2093 0.984 . S
N2087 C2080 1.356 . S
N2087 H2090 0.984 . S
N2087 H2091 0.985 . S
H2088 N2083 0.984 . S
H2089 N2083 0.985 . S
H2090 N2087 0.984 . S
H2091 N2087 0.985 . S
H2092 N2086 0.984 . S
H2093 N2086 0.984 . S
H2094 N2082 0.984 . S
H2095 N2082 0.985 . S
C2096 C2097 1.363 . S
C2096 C2102 1.379 . S
C2096 N2104 1.356 . S
C2097 C2096 1.363 . S
C2097 C2103 1.363 . S
C2098 C2099 1.363 . S
C2098 C2103 1.379 . S
C2098 N2105 1.356 . S
C2099 C2098 1.363 . S
C2099 C2102 1.363 . S
N2100 C2102 1.356 . S
N2100 H2112 0.984 . S
N2100 H2113 0.985 . S
N2101 C2103 1.356 . S
N2101 H2106 0.984 . S
N2101 H2107 0.985 . S
C2102 C2096 1.379 . S
C2102 C2099 1.363 . S
C2102 N2100 1.356 . S
C2103 C2097 1.363 . S
C2103 C2098 1.379 . S
C2103 N2101 1.356 . S
N2104 C2096 1.356 . S
N2104 H2110 0.984 . S
N2104 H2111 0.984 . S
N2105 C2098 1.356 . S
N2105 H2108 0.984 . S
N2105 H2109 0.985 . S
H2106 N2101 0.984 . S
H2107 N2101 0.985 . S
H2108 N2105 0.984 . S
H2109 N2105 0.985 . S
H2110 N2104 0.984 . S
H2111 N2104 0.984 . S
H2112 N2100 0.984 . S
H2113 N2100 0.985 . S
C2114 C2115 1.363 . S
C2114 C2120 1.379 1_655 S
C2114 N2122 1.356 . S
C2115 C2114 1.363 . S
C2115 C2121 1.363 . S
C2116 C2117 1.363 . S
C2116 C2121 1.379 1_455 S
C2116 N2123 1.356 . S
C2117 C2116 1.363 . S
C2117 C2120 1.363 . S
N2118 C2120 1.356 . S
N2118 H2130 0.984 . S
N2118 H2131 0.985 . S
N2119 C2121 1.356 . S
N2119 H2124 0.984 . S
N2119 H2125 0.985 . S
C2120 C2114 1.379 1_455 S
C2120 C2117 1.363 . S
C2120 N2118 1.356 . S
C2121 C2115 1.363 . S
C2121 C2116 1.379 1_655 S
C2121 N2119 1.356 . S
N2122 C2114 1.356 . S
N2122 H2128 0.984 . S
N2122 H2129 0.984 . S
N2123 C2116 1.356 . S
N2123 H2126 0.984 . S
N2123 H2127 0.985 . S
H2124 N2119 0.984 . S
H2125 N2119 0.985 . S
H2126 N2123 0.984 . S
H2127 N2123 0.985 . S
H2128 N2122 0.984 . S
H2129 N2122 0.984 . S
H2130 N2118 0.984 . S
H2131 N2118 0.985 . S
C2132 C2133 1.363 . S
C2132 C2138 1.379 . S
C2132 N2140 1.356 . S
C2133 C2132 1.363 . S
C2133 C2139 1.363 1_655 S
C2134 C2135 1.363 . S
C2134 C2139 1.379 . S
C2134 N2141 1.356 . S
C2135 C2134 1.363 . S
C2135 C2138 1.363 1_455 S
N2136 C2138 1.358 . S
N2136 H2148 0.997 . S
N2136 H2149 0.971 1_655 S
N2137 C2139 1.358 . S
N2137 H2142 0.970 1_455 S
N2137 H2143 0.997 . S
C2138 C2132 1.379 . S
C2138 C2135 1.363 1_655 S
C2138 N2136 1.358 . S
C2139 C2133 1.363 1_455 S
C2139 C2134 1.379 . S
C2139 N2137 1.358 . S
N2140 C2132 1.356 . S
N2140 H2146 0.984 . S
N2140 H2147 0.984 . S
N2141 C2134 1.356 . S
N2141 H2144 0.984 . S
N2141 H2145 0.985 . S
H2142 N2137 0.970 1_655 S
H2143 N2137 0.997 . S
H2144 N2141 0.984 . S
H2145 N2141 0.985 . S
H2146 N2140 0.984 . S
H2147 N2140 0.984 . S
H2148 N2136 0.997 . S
H2149 N2136 0.971 1_455 S
C2150 C2151 1.363 . S
C2150 C2156 1.379 . S
C2150 N2158 1.356 . S
C2151 C2150 1.363 . S
C2151 C2157 1.363 . S
C2152 C2153 1.363 . S
C2152 C2157 1.379 . S
C2152 N2159 1.356 . S
C2153 C2152 1.363 . S
C2153 C2156 1.363 . S
N2154 C2156 1.356 . S
N2154 H2166 0.984 . S
N2154 H2167 0.985 . S
N2155 C2157 1.356 . S
N2155 H2160 0.984 . S
N2155 H2161 0.985 . S
C2156 C2150 1.379 . S
C2156 C2153 1.363 . S
C2156 N2154 1.356 . S
C2157 C2151 1.363 . S
C2157 C2152 1.379 . S
C2157 N2155 1.356 . S
N2158 C2150 1.356 . S
N2158 H2164 0.984 . S
N2158 H2165 0.984 . S
N2159 C2152 1.356 . S
N2159 H2162 0.984 . S
N2159 H2163 0.985 . S
H2160 N2155 0.984 . S
H2161 N2155 0.985 . S
H2162 N2159 0.984 . S
H2163 N2159 0.985 . S
H2164 N2158 0.984 . S
H2165 N2158 0.984 . S
H2166 N2154 0.984 . S
H2167 N2154 0.985 . S
C2168 C2169 1.363 . S
C2168 C2174 1.379 . S
C2168 N2176 1.356 . S
C2169 C2168 1.363 . S
C2169 C2175 1.363 . S
C2170 C2171 1.363 . S
C2170 C2175 1.379 . S
C2170 N2177 1.356 . S
C2171 C2170 1.363 . S
C2171 C2174 1.363 . S
N2172 C2174 1.356 . S
N2172 H2184 0.984 . S
N2172 H2185 0.985 . S
N2173 C2175 1.356 . S
N2173 H2178 0.984 . S
N2173 H2179 0.985 . S
C2174 C2168 1.379 . S
C2174 C2171 1.363 . S
C2174 N2172 1.356 . S
C2175 C2169 1.363 . S
C2175 C2170 1.379 . S
C2175 N2173 1.356 . S
N2176 C2168 1.356 . S
N2176 H2182 0.984 . S
N2176 H2183 0.984 . S
N2177 C2170 1.356 . S
N2177 H2180 0.984 . S
N2177 H2181 0.985 . S
H2178 N2173 0.984 . S
H2179 N2173 0.985 . S
H2180 N2177 0.984 . S
H2181 N2177 0.985 . S
H2182 N2176 0.984 . S
H2183 N2176 0.984 . S
H2184 N2172 0.984 . S
H2185 N2172 0.985 . S
C2186 C2187 1.363 . S
C2186 C2192 1.379 . S
C2186 N2194 1.356 . S
C2187 C2186 1.363 . S
C2187 C2193 1.363 . S
C2188 C2189 1.363 . S
C2188 C2193 1.379 . S
C2188 N2195 1.356 . S
C2189 C2188 1.363 . S
C2189 C2192 1.363 . S
N2190 C2192 1.356 . S
N2190 H2202 0.984 . S
N2190 H2203 0.985 . S
N2191 C2193 1.356 . S
N2191 H2196 0.984 . S
N2191 H2197 0.985 . S
C2192 C2186 1.379 . S
C2192 C2189 1.363 . S
C2192 N2190 1.356 . S
C2193 C2187 1.363 . S
C2193 C2188 1.379 . S
C2193 N2191 1.356 . S
N2194 C2186 1.356 . S
N2194 H2200 0.984 . S
N2194 H2201 0.984 . S
N2195 C2188 1.356 . S
N2195 H2198 0.984 . S
N2195 H2199 0.985 . S
H2196 N2191 0.984 . S
H2197 N2191 0.985 . S
H2198 N2195 0.984 . S
H2199 N2195 0.985 . S
H2200 N2194 0.984 . S
H2201 N2194 0.984 . S
H2202 N2190 0.984 . S
H2203 N2190 0.985 . S
C2204 C2205 1.363 1_455 S
C2204 C2210 1.379 . S
C2204 N2212 1.358 . S
C2205 C2204 1.363 1_655 S
C2205 C2211 1.363 . S
C2206 C2207 1.363 1_655 S
C2206 C2211 1.379 . S
C2206 N2213 1.358 . S
C2207 C2206 1.363 1_455 S
C2207 C2210 1.363 . S
N2208 C2210 1.356 . S
N2208 H2220 0.984 . S
N2208 H2221 0.985 . S
N2209 C2211 1.356 . S
N2209 H2214 0.984 . S
N2209 H2215 0.985 . S
C2210 C2204 1.379 . S
C2210 C2207 1.363 . S
C2210 N2208 1.356 . S
C2211 C2205 1.363 . S
C2211 C2206 1.379 . S
C2211 N2209 1.356 . S
N2212 C2204 1.358 . S
N2212 H2218 0.997 . S
N2212 H2219 0.970 1_455 S
N2213 C2206 1.358 . S
N2213 H2216 0.971 1_655 S
N2213 H2217 0.997 . S
H2214 N2209 0.984 . S
H2215 N2209 0.985 . S
H2216 N2213 0.971 1_455 S
H2217 N2213 0.997 . S
H2218 N2212 0.997 . S
H2219 N2212 0.970 1_655 S
H2220 N2208 0.984 . S
H2221 N2208 0.985 . S
C2222 C2223 1.363 . S
C2222 C2228 1.379 1_655 S
C2222 N2230 1.356 . S
C2223 C2222 1.363 . S
C2223 C2229 1.363 . S
C2224 C2225 1.363 . S
C2224 C2229 1.379 1_455 S
C2224 N2231 1.356 . S
C2225 C2224 1.363 . S
C2225 C2228 1.363 . S
N2226 C2228 1.356 . S
N2226 H2238 0.984 . S
N2226 H2239 0.985 . S
N2227 C2229 1.356 . S
N2227 H2232 0.984 . S
N2227 H2233 0.985 . S
C2228 C2222 1.379 1_455 S
C2228 C2225 1.363 . S
C2228 N2226 1.356 . S
C2229 C2223 1.363 . S
C2229 C2224 1.379 1_655 S
C2229 N2227 1.356 . S
N2230 C2222 1.356 . S
N2230 H2236 0.984 . S
N2230 H2237 0.984 . S
N2231 C2224 1.356 . S
N2231 H2234 0.984 . S
N2231 H2235 0.985 . S
H2232 N2227 0.984 . S
H2233 N2227 0.985 . S
H2234 N2231 0.984 . S
H2235 N2231 0.985 . S
H2236 N2230 0.984 . S
H2237 N2230 0.984 . S
H2238 N2226 0.984 . S
H2239 N2226 0.985 . S
C2240 C2241 1.363 1_545 S
C2240 C2246 1.379 . S
C2240 N2248 1.356 . S
C2241 C2240 1.363 1_565 S
C2241 C2247 1.363 . S
C2242 C2243 1.363 1_565 S
C2242 C2247 1.379 . S
C2242 N2249 1.356 . S
C2243 C2242 1.363 1_545 S
C2243 C2246 1.363 . S
N2244 C2246 1.356 . S
N2244 H2256 0.984 . S
N2244 H2257 0.985 . S
N2245 C2247 1.356 . S
N2245 H2250 0.984 . S
N2245 H2251 0.985 . S
C2246 C2240 1.379 . S
C2246 C2243 1.363 . S
C2246 N2244 1.356 . S
C2247 C2241 1.363 . S
C2247 C2242 1.379 . S
C2247 N2245 1.356 . S
N2248 C2240 1.356 . S
N2248 H2254 0.984 . S
N2248 H2255 0.984 1_545 S
N2249 C2242 1.356 . S
N2249 H2252 0.984 1_565 S
N2249 H2253 0.985 . S
H2250 N2245 0.984 . S
H2251 N2245 0.985 . S
H2252 N2249 0.984 1_545 S
H2253 N2249 0.985 . S
H2254 N2248 0.984 . S
H2255 N2248 0.984 1_565 S
H2256 N2244 0.984 . S
H2257 N2244 0.985 . S
C2258 C2259 1.363 . S
C2258 C2264 1.379 . S
C2258 N2266 1.356 . S
C2259 C2258 1.363 . S
C2259 C2265 1.363 . S
C2260 C2261 1.363 . S
C2260 C2265 1.379 . S
C2260 N2267 1.356 . S
C2261 C2260 1.363 . S
C2261 C2264 1.363 . S
N2262 C2264 1.356 . S
N2262 H2274 0.984 . S
N2262 H2275 0.985 . S
N2263 C2265 1.356 . S
N2263 H2268 0.984 . S
N2263 H2269 0.985 . S
C2264 C2258 1.379 . S
C2264 C2261 1.363 . S
C2264 N2262 1.356 . S
C2265 C2259 1.363 . S
C2265 C2260 1.379 . S
C2265 N2263 1.356 . S
N2266 C2258 1.356 . S
N2266 H2272 0.984 . S
N2266 H2273 0.984 . S
N2267 C2260 1.356 . S
N2267 H2270 0.984 . S
N2267 H2271 0.985 . S
H2268 N2263 0.984 . S
H2269 N2263 0.985 . S
H2270 N2267 0.984 . S
H2271 N2267 0.985 . S
H2272 N2266 0.984 . S
H2273 N2266 0.984 . S
H2274 N2262 0.984 . S
H2275 N2262 0.985 . S
C2276 C2277 1.363 . S
C2276 C2282 1.379 . S
C2276 N2284 1.356 . S
C2277 C2276 1.363 . S
C2277 C2283 1.363 1_565 S
C2278 C2279 1.363 . S
C2278 C2283 1.379 . S
C2278 N2285 1.356 . S
C2279 C2278 1.363 . S
C2279 C2282 1.363 1_545 S
N2280 C2282 1.356 1_545 S
N2280 H2292 0.984 1_545 S
N2280 H2293 0.985 . S
N2281 C2283 1.356 1_565 S
N2281 H2286 0.984 . S
N2281 H2287 0.985 1_565 S
C2282 C2276 1.379 . S
C2282 C2279 1.363 1_565 S
C2282 N2280 1.356 1_565 S
C2283 C2277 1.363 1_545 S
C2283 C2278 1.379 . S
C2283 N2281 1.356 1_545 S
N2284 C2276 1.356 . S
N2284 H2290 0.984 . S
N2284 H2291 0.984 . S
N2285 C2278 1.356 . S
N2285 H2288 0.984 . S
N2285 H2289 0.985 . S
H2286 N2281 0.984 . S
H2287 N2281 0.985 1_545 S
H2288 N2285 0.984 . S
H2289 N2285 0.985 . S
H2290 N2284 0.984 . S
H2291 N2284 0.984 . S
H2292 N2280 0.984 1_565 S
H2293 N2280 0.985 . S
C2294 C2295 1.372 . S
C2294 C2300 1.370 1_554 S
C2294 N2302 1.359 . S
C2295 C2294 1.372 . S
C2295 C2301 1.363 . S
C2296 C2297 1.372 . S
C2296 C2301 1.370 1_556 S
C2296 N2303 1.359 . S
C2297 C2296 1.372 . S
C2297 C2300 1.363 . S
N2298 C2300 1.356 . S
N2298 H2310 0.984 . S
N2298 H2311 0.985 . S
N2299 C2301 1.356 . S
N2299 H2304 0.984 . S
N2299 H2305 0.985 . S
C2300 C2294 1.370 1_556 S
C2300 C2297 1.363 . S
C2300 N2298 1.356 . S
C2301 C2295 1.363 . S
C2301 C2296 1.370 1_554 S
C2301 N2299 1.356 . S
N2302 C2294 1.359 . S
N2302 H2308 0.984 1_554 S
N2302 H2309 0.984 . S
N2303 C2296 1.359 . S
N2303 H2306 0.984 . S
N2303 H2307 0.985 1_556 S
H2304 N2299 0.984 . S
H2305 N2299 0.985 . S
H2306 N2303 0.984 . S
H2307 N2303 0.985 1_554 S
H2308 N2302 0.984 1_556 S
H2309 N2302 0.984 . S
H2310 N2298 0.984 . S
H2311 N2298 0.985 . S
C2312 C2313 1.363 1_545 S
C2312 C2318 1.379 . S
C2312 N2320 1.356 1_545 S
C2313 C2312 1.363 1_565 S
C2313 C2319 1.363 . S
C2314 C2315 1.363 1_565 S
C2314 C2319 1.379 . S
C2314 N2321 1.356 1_565 S
C2315 C2314 1.363 1_545 S
C2315 C2318 1.363 . S
N2316 C2318 1.356 . S
N2316 H2328 0.984 . S
N2316 H2329 0.985 . S
N2317 C2319 1.356 . S
N2317 H2322 0.984 . S
N2317 H2323 0.985 . S
C2318 C2312 1.379 . S
C2318 C2315 1.363 . S
C2318 N2316 1.356 . S
C2319 C2313 1.363 . S
C2319 C2314 1.379 . S
C2319 N2317 1.356 . S
N2320 C2312 1.356 1_565 S
N2320 H2326 0.984 1_565 S
N2320 H2327 0.984 . S
N2321 C2314 1.356 1_545 S
N2321 H2324 0.984 . S
N2321 H2325 0.985 1_545 S
H2322 N2317 0.984 . S
H2323 N2317 0.985 . S
H2324 N2321 0.984 . S
H2325 N2321 0.985 1_565 S
H2326 N2320 0.984 1_545 S
H2327 N2320 0.984 . S
H2328 N2316 0.984 . S
H2329 N2316 0.985 . S
C2330 C2331 1.363 . S
C2330 C2336 1.379 . S
C2330 N2338 1.356 . S
C2331 C2330 1.363 . S
C2331 C2337 1.363 . S
C2332 C2333 1.363 . S
C2332 C2337 1.379 . S
C2332 N2339 1.356 . S
C2333 C2332 1.363 . S
C2333 C2336 1.363 . S
N2334 C2336 1.356 . S
N2334 H2346 0.984 . S
N2334 H2347 0.985 . S
N2335 C2337 1.356 . S
N2335 H2340 0.984 . S
N2335 H2341 0.985 . S
C2336 C2330 1.379 . S
C2336 C2333 1.363 . S
C2336 N2334 1.356 . S
C2337 C2331 1.363 . S
C2337 C2332 1.379 . S
C2337 N2335 1.356 . S
N2338 C2330 1.356 . S
N2338 H2344 0.984 . S
N2338 H2345 0.984 . S
N2339 C2332 1.356 . S
N2339 H2342 0.984 . S
N2339 H2343 0.985 . S
H2340 N2335 0.984 . S
H2341 N2335 0.985 . S
H2342 N2339 0.984 . S
H2343 N2339 0.985 . S
H2344 N2338 0.984 . S
H2345 N2338 0.984 . S
H2346 N2334 0.984 . S
H2347 N2334 0.985 . S
C2348 C2349 1.363 1_565 S
C2348 C2354 1.379 . S
C2348 N2356 1.354 1_565 S
C2349 C2348 1.363 1_545 S
C2349 C2355 1.363 . S
C2350 C2351 1.363 1_545 S
C2350 C2355 1.379 . S
C2350 N2357 1.354 1_545 S
C2351 C2350 1.363 1_565 S
C2351 C2354 1.363 . S
N2352 C2354 1.356 . S
N2352 H2364 0.984 . S
N2352 H2365 0.985 . S
N2353 C2355 1.356 . S
N2353 H2358 0.984 . S
N2353 H2359 0.985 . S
C2354 C2348 1.379 . S
C2354 C2351 1.363 . S
C2354 N2352 1.356 . S
C2355 C2349 1.363 . S
C2355 C2350 1.379 . S
C2355 N2353 1.356 . S
N2356 C2348 1.354 1_545 S
N2356 H2362 0.971 1_545 S
N2356 H2363 1.001 . S
N2357 C2350 1.354 1_565 S
N2357 H2360 1.001 . S
N2357 H2361 0.971 1_565 S
H2358 N2353 0.984 . S
H2359 N2353 0.985 . S
H2360 N2357 1.001 . S
H2361 N2357 0.971 1_545 S
H2362 N2356 0.971 1_565 S
H2363 N2356 1.001 . S
H2364 N2352 0.984 . S
H2365 N2352 0.985 . S
C2366 C2367 1.363 . S
C2366 C2372 1.370 1_556 S
C2366 N2374 1.356 . S
C2367 C2366 1.363 . S
C2367 C2373 1.372 . S
C2368 C2369 1.363 . S
C2368 C2373 1.370 1_554 S
C2368 N2375 1.356 . S
C2369 C2368 1.363 . S
C2369 C2372 1.372 . S
N2370 C2372 1.359 . S
N2370 H2382 0.984 1_554 S
N2370 H2383 0.985 . S
N2371 C2373 1.359 . S
N2371 H2376 0.984 . S
N2371 H2377 0.985 1_556 S
C2372 C2366 1.370 1_554 S
C2372 C2369 1.372 . S
C2372 N2370 1.359 . S
C2373 C2367 1.372 . S
C2373 C2368 1.370 1_556 S
C2373 N2371 1.359 . S
N2374 C2366 1.356 . S
N2374 H2380 0.984 . S
N2374 H2381 0.984 . S
N2375 C2368 1.356 . S
N2375 H2378 0.984 . S
N2375 H2379 0.985 . S
H2376 N2371 0.984 . S
H2377 N2371 0.985 1_554 S
H2378 N2375 0.984 . S
H2379 N2375 0.985 . S
H2380 N2374 0.984 . S
H2381 N2374 0.984 . S
H2382 N2370 0.984 1_556 S
H2383 N2370 0.985 . S
C2384 C2385 1.363 . S
C2384 C2390 1.379 . S
C2384 N2392 1.356 . S
C2385 C2384 1.363 . S
C2385 C2391 1.363 . S
C2386 C2387 1.363 . S
C2386 C2391 1.379 . S
C2386 N2393 1.356 . S
C2387 C2386 1.363 . S
C2387 C2390 1.363 . S
N2388 C2390 1.356 . S
N2388 H2400 0.984 . S
N2388 H2401 0.985 . S
N2389 C2391 1.356 . S
N2389 H2394 0.984 . S
N2389 H2395 0.985 . S
C2390 C2384 1.379 . S
C2390 C2387 1.363 . S
C2390 N2388 1.356 . S
C2391 C2385 1.363 . S
C2391 C2386 1.379 . S
C2391 N2389 1.356 . S
N2392 C2384 1.356 . S
N2392 H2398 0.984 . S
N2392 H2399 0.984 . S
N2393 C2386 1.356 . S
N2393 H2396 0.984 . S
N2393 H2397 0.985 . S
H2394 N2389 0.984 . S
H2395 N2389 0.985 . S
H2396 N2393 0.984 . S
H2397 N2393 0.985 . S
H2398 N2392 0.984 . S
H2399 N2392 0.984 . S
H2400 N2388 0.984 . S
H2401 N2388 0.985 . S
C2402 C2403 1.363 . S
C2402 C2408 1.370 1_554 S
C2402 N2410 1.356 . S
C2403 C2402 1.363 . S
C2403 C2409 1.372 . S
C2404 C2405 1.363 . S
C2404 C2409 1.370 1_556 S
C2404 N2411 1.356 . S
C2405 C2404 1.363 . S
C2405 C2408 1.372 . S
N2406 C2408 1.359 . S
N2406 H2418 0.984 1_556 S
N2406 H2419 0.985 . S
N2407 C2409 1.359 . S
N2407 H2412 0.984 . S
N2407 H2413 0.985 1_554 S
C2408 C2402 1.370 1_556 S
C2408 C2405 1.372 . S
C2408 N2406 1.359 . S
C2409 C2403 1.372 . S
C2409 C2404 1.370 1_554 S
C2409 N2407 1.359 . S
N2410 C2402 1.356 . S
N2410 H2416 0.984 . S
N2410 H2417 0.984 . S
N2411 C2404 1.356 . S
N2411 H2414 0.984 . S
N2411 H2415 0.985 . S
H2412 N2407 0.984 . S
H2413 N2407 0.985 1_556 S
H2414 N2411 0.984 . S
H2415 N2411 0.985 . S
H2416 N2410 0.984 . S
H2417 N2410 0.984 . S
H2418 N2406 0.984 1_554 S
H2419 N2406 0.985 . S
C2420 C2421 1.363 . S
C2420 C2426 1.379 . S
C2420 N2428 1.356 . S
C2421 C2420 1.363 . S
C2421 C2427 1.363 . S
C2422 C2423 1.363 . S
C2422 C2427 1.379 . S
C2422 N2429 1.356 . S
C2423 C2422 1.363 . S
C2423 C2426 1.363 . S
N2424 C2426 1.356 . S
N2424 H2436 0.984 . S
N2424 H2437 0.985 . S
N2425 C2427 1.356 . S
N2425 H2430 0.984 . S
N2425 H2431 0.985 . S
C2426 C2420 1.379 . S
C2426 C2423 1.363 . S
C2426 N2424 1.356 . S
C2427 C2421 1.363 . S
C2427 C2422 1.379 . S
C2427 N2425 1.356 . S
N2428 C2420 1.356 . S
N2428 H2434 0.984 . S
N2428 H2435 0.984 . S
N2429 C2422 1.356 . S
N2429 H2432 0.984 . S
N2429 H2433 0.985 . S
H2430 N2425 0.984 . S
H2431 N2425 0.985 . S
H2432 N2429 0.984 . S
H2433 N2429 0.985 . S
H2434 N2428 0.984 . S
H2435 N2428 0.984 . S
H2436 N2424 0.984 . S
H2437 N2424 0.985 . S
C2438 C2439 1.363 . S
C2438 C2444 1.379 . S
C2438 N2446 1.356 . S
C2439 C2438 1.363 . S
C2439 C2445 1.363 . S
C2440 C2441 1.363 . S
C2440 C2445 1.379 . S
C2440 N2447 1.356 . S
C2441 C2440 1.363 . S
C2441 C2444 1.363 . S
N2442 C2444 1.356 . S
N2442 H2454 0.984 . S
N2442 H2455 0.985 . S
N2443 C2445 1.356 . S
N2443 H2448 0.984 . S
N2443 H2449 0.985 . S
C2444 C2438 1.379 . S
C2444 C2441 1.363 . S
C2444 N2442 1.356 . S
C2445 C2439 1.363 . S
C2445 C2440 1.379 . S
C2445 N2443 1.356 . S
N2446 C2438 1.356 . S
N2446 H2452 0.984 . S
N2446 H2453 0.984 . S
N2447 C2440 1.356 . S
N2447 H2450 0.984 . S
N2447 H2451 0.985 . S
H2448 N2443 0.984 . S
H2449 N2443 0.985 . S
H2450 N2447 0.984 . S
H2451 N2447 0.985 . S
H2452 N2446 0.984 . S
H2453 N2446 0.984 . S
H2454 N2442 0.984 . S
H2455 N2442 0.985 . S
C2456 C2457 1.363 . S
C2456 C2462 1.379 . S
C2456 N2464 1.356 . S
C2457 C2456 1.363 . S
C2457 C2463 1.363 . S
C2458 C2459 1.363 . S
C2458 C2463 1.379 . S
C2458 N2465 1.356 . S
C2459 C2458 1.363 . S
C2459 C2462 1.363 . S
N2460 C2462 1.356 . S
N2460 H2472 0.984 . S
N2460 H2473 0.985 . S
N2461 C2463 1.356 . S
N2461 H2466 0.984 . S
N2461 H2467 0.985 . S
C2462 C2456 1.379 . S
C2462 C2459 1.363 . S
C2462 N2460 1.356 . S
C2463 C2457 1.363 . S
C2463 C2458 1.379 . S
C2463 N2461 1.356 . S
N2464 C2456 1.356 . S
N2464 H2470 0.984 . S
N2464 H2471 0.984 . S
N2465 C2458 1.356 . S
N2465 H2468 0.984 . S
N2465 H2469 0.985 . S
H2466 N2461 0.984 . S
H2467 N2461 0.985 . S
H2468 N2465 0.984 . S
H2469 N2465 0.985 . S
H2470 N2464 0.984 . S
H2471 N2464 0.984 . S
H2472 N2460 0.984 . S
H2473 N2460 0.985 . S
C2474 C2475 1.363 . S
C2474 C2480 1.370 1_554 S
C2474 N2482 1.356 . S
C2475 C2474 1.363 . S
C2475 C2481 1.372 . S
C2476 C2477 1.363 . S
C2476 C2481 1.370 1_556 S
C2476 N2483 1.356 . S
C2477 C2476 1.363 . S
C2477 C2480 1.372 . S
N2478 C2480 1.359 . S
N2478 H2490 0.984 1_556 S
N2478 H2491 0.985 . S
N2479 C2481 1.359 . S
N2479 H2484 0.984 . S
N2479 H2485 0.985 1_554 S
C2480 C2474 1.370 1_556 S
C2480 C2477 1.372 . S
C2480 N2478 1.359 . S
C2481 C2475 1.372 . S
C2481 C2476 1.370 1_554 S
C2481 N2479 1.359 . S
N2482 C2474 1.356 . S
N2482 H2488 0.984 . S
N2482 H2489 0.984 . S
N2483 C2476 1.356 . S
N2483 H2486 0.984 . S
N2483 H2487 0.985 . S
H2484 N2479 0.984 . S
H2485 N2479 0.985 1_556 S
H2486 N2483 0.984 . S
H2487 N2483 0.985 . S
H2488 N2482 0.984 . S
H2489 N2482 0.984 . S
H2490 N2478 0.984 1_554 S
H2491 N2478 0.985 . S
C2492 C2493 1.363 . S
C2492 C2498 1.379 . S
C2492 N2500 1.356 . S
C2493 C2492 1.363 . S
C2493 C2499 1.363 . S
C2494 C2495 1.363 . S
C2494 C2499 1.379 . S
C2494 N2501 1.356 . S
C2495 C2494 1.363 . S
C2495 C2498 1.363 . S
N2496 C2498 1.356 . S
N2496 H2508 0.984 . S
N2496 H2509 0.985 . S
N2497 C2499 1.356 . S
N2497 H2502 0.984 . S
N2497 H2503 0.985 . S
C2498 C2492 1.379 . S
C2498 C2495 1.363 . S
C2498 N2496 1.356 . S
C2499 C2493 1.363 . S
C2499 C2494 1.379 . S
C2499 N2497 1.356 . S
N2500 C2492 1.356 . S
N2500 H2506 0.984 . S
N2500 H2507 0.984 . S
N2501 C2494 1.356 . S
N2501 H2504 0.984 . S
N2501 H2505 0.985 . S
H2502 N2497 0.984 . S
H2503 N2497 0.985 . S
H2504 N2501 0.984 . S
H2505 N2501 0.985 . S
H2506 N2500 0.984 . S
H2507 N2500 0.984 . S
H2508 N2496 0.984 . S
H2509 N2496 0.985 . S
C2510 C2511 1.363 . S
C2510 C2516 1.379 . S
C2510 N2518 1.356 . S
C2511 C2510 1.363 . S
C2511 C2517 1.363 . S
C2512 C2513 1.363 . S
C2512 C2517 1.379 . S
C2512 N2519 1.356 . S
C2513 C2512 1.363 . S
C2513 C2516 1.363 . S
N2514 C2516 1.356 . S
N2514 H2526 0.984 . S
N2514 H2527 0.985 . S
N2515 C2517 1.356 . S
N2515 H2520 0.984 . S
N2515 H2521 0.985 . S
C2516 C2510 1.379 . S
C2516 C2513 1.363 . S
C2516 N2514 1.356 . S
C2517 C2511 1.363 . S
C2517 C2512 1.379 . S
C2517 N2515 1.356 . S
N2518 C2510 1.356 . S
N2518 H2524 0.984 . S
N2518 H2525 0.984 . S
N2519 C2512 1.356 . S
N2519 H2522 0.984 . S
N2519 H2523 0.985 . S
H2520 N2515 0.984 . S
H2521 N2515 0.985 . S
H2522 N2519 0.984 . S
H2523 N2519 0.985 . S
H2524 N2518 0.984 . S
H2525 N2518 0.984 . S
H2526 N2514 0.984 . S
H2527 N2514 0.985 . S
C1089 C9 1.389 . S
C1091 C825 1.389 . S
C1107 C315 1.389 . S
C1109 C43 1.389 . S
C1125 C893 1.389 . S
C1127 C77 1.389 . S
C1143 C111 1.389 . S
C1145 C383 1.389 . S
C1161 C961 1.389 . S
C1163 C145 1.389 . S
C1179 C451 1.389 . S
C1181 C179 1.389 . S
C1197 C213 1.389 . S
C1199 C1029 1.389 . S
C1215 C247 1.389 . S
C1217 C519 1.389 . S
C1233 C281 1.389 . S
C1235 C553 1.389 . S
C1251 C349 1.389 . S
C1253 C621 1.389 . S
C1269 C689 1.389 . S
C1271 C417 1.389 . S
C1287 C485 1.389 . S
C1289 C757 1.389 . S
C1305 C587 1.389 . S
C1307 C859 1.389 . S
C1323 C927 1.389 . S
C1325 C655 1.389 . S
C1341 C995 1.389 . S
C1343 C723 1.389 . S
C1359 C791 1.389 . S
C1361 C1063 1.389 . S
C1377 C2 1.271 . S
C1379 C855 1.189 . S
C1395 C345 1.189 . S
C1397 C36 1.270 . S
C1413 C70 1.271 . S
C1415 C923 1.189 . S
C1431 C277 1.189 . S
C1433 C104 1.270 . S
C1449 C138 1.271 . S
C1451 C1059 1.189 . S
C1467 C172 1.270 . S
C1469 C413 1.189 . S
C1485 C991 1.189 . S
C1487 C206 1.271 . S
C1503 C481 1.189 . S
C1505 C240 1.270 . S
C1521 C583 1.189 . S
C1523 C274 1.271 . S
C1539 C73 1.189 . S
C1541 C308 1.270 . S
C1557 C342 1.271 . S
C1559 C651 1.189 . S
C1575 C376 1.270 . S
C1577 C5 1.189 . S
C1593 C787 1.189 . S
C1595 C410 1.271 . S
C1611 C141 1.189 . S
C1613 C444 1.270 . S
C1629 C478 1.271 . S
C1631 C719 1.189 . S
C1647 C512 1.270 . S
C1649 C209 1.189 . S
C1665 C311 1.189 . S
C1667 C546 1.271 . S
C1683 C889 1.189 . S
C1685 C580 1.271 . S
C1701 C379 1.189 . S
C1703 C614 1.271 . S
C1719 C648 1.271 . S
C1721 C821 1.189 . S
C1737 C515 1.189 . S
C1739 C682 1.271 . S
C1755 C716 1.271 . S
C1757 C957 1.189 . S
C1773 C447 1.189 . S
C1775 C750 1.271 . S
C1791 C784 1.271 . S
C1793 C1025 1.189 . S
C1809 C39 1.189 . S
C1811 C818 1.271 . S
C1827 C617 1.189 . S
C1829 C852 1.271 . S
C1845 C107 1.189 . S
C1847 C886 1.271 . S
C1863 C920 1.271 . S
C1865 C549 1.189 . S
C1881 C954 1.271 . S
C1883 C243 1.189 . S
C1899 C685 1.189 . S
C1901 C988 1.271 . S
C1917 C175 1.189 . S
C1919 C1022 1.271 . S
C1935 C1056 1.271 . S
C1937 C753 1.189 . S
C1953 C645 1.200 . S
C1955 C33 1.200 . S
C1971 C679 1.200 . S
C1973 C67 1.200 . S
C1989 C577 1.200 . S
C1991 C101 1.200 . S
C2007 C611 1.200 . S
C2009 C135 1.200 . S
C2025 C169 1.200 . S
C2027 C781 1.200 . S
C2043 C815 1.200 . S
C2045 C203 1.200 . S
C2061 C237 1.200 . S
C2063 C713 1.200 . S
C2079 C747 1.200 . S
C2081 C271 1.200 . S
C2097 C917 1.200 . S
C2099 C305 1.200 . S
C2115 C339 1.200 . S
C2117 C951 1.200 . S
C2133 C373 1.200 . S
C2135 C849 1.200 . S
C2151 C407 1.200 . S
C2153 C883 1.200 . S
C2169 C1053 1.200 . S
C2171 C441 1.200 . S
C2187 C475 1.200 . S
C2189 C1087 1.200 . S
C2205 C509 1.200 . S
C2207 C985 1.200 . S
C2223 C543 1.200 . S
C2225 C1019 1.200 . S
C2241 C156 2.038 . S
C2243 C20 2.038 . S
C2259 C190 2.038 . S
C2261 C54 2.038 . S
C2277 C88 2.038 . S
C2279 C224 2.038 . S
C2295 C258 2.038 . S
C2297 C122 2.038 . S
C2313 C292 2.038 . S
C2315 C428 2.038 . S
C2331 C462 2.038 . S
C2333 C326 2.038 . S
C2349 C360 2.038 . S
C2351 C496 2.038 . S
C2367 C530 2.038 . S
C2369 C394 2.038 . S
C2385 C564 2.038 . S
C2387 C700 2.038 . S
C2403 C734 2.038 . S
C2405 C598 2.038 . S
C2421 C768 2.038 . S
C2423 C632 2.038 . S
C2439 C666 2.038 . S
C2441 C802 2.038 . S
C2457 C972 2.038 . S
C2459 C836 2.038 . S
C2475 C870 2.038 . S
C2477 C1006 2.038 . S
C2493 C904 2.038 . S
C2495 C1040 2.038 . S
C2511 C938 2.038 . S
C2513 C1074 2.038 . S
