# Generated by pormake.
# Topology rkf, (6)-cn, num edge types: 1
# Building blocks:
#     Node 0, Type 0, BuildingBlock: NUHQIS_clean_sbu_0, # of connection points: 6
#     Node 1, Type 0, BuildingBlock: NUHQIS_clean_sbu_0, # of connection points: 6
#     Node 2, Type 0, BuildingBlock: NUHQIS_clean_sbu_0, # of connection points: 6
#     Node 3, Type 0, BuildingBlock: NUHQIS_clean_sbu_0, # of connection points: 6
#     Node 4, Type 0, BuildingBlock: NUHQIS_clean_sbu_0, # of connection points: 6
#     Node 5, Type 0, BuildingBlock: NUHQIS_clean_sbu_0, # of connection points: 6
#     Edge 6, Type (0, 0), BuildingBlock: ZUJKAS_clean_linker_0, # of connection points: 2
#     Edge 7, Type (0, 0), BuildingBlock: ZUJKAS_clean_linker_0, # of connection points: 2
#     Edge 8, Type (0, 0), BuildingBlock: ZUJKAS_clean_linker_0, # of connection points: 2
#     Edge 9, Type (0, 0), BuildingBlock: ZUJKAS_clean_linker_0, # of connection points: 2
#     Edge 10, Type (0, 0), BuildingBlock: ZUJKAS_clean_linker_0, # of connection points: 2
#     Edge 11, Type (0, 0), BuildingBlock: ZUJKAS_clean_linker_0, # of connection points: 2
#     Edge 12, Type (0, 0), BuildingBlock: ZUJKAS_clean_linker_0, # of connection points: 2
#     Edge 13, Type (0, 0), BuildingBlock: ZUJKAS_clean_linker_0, # of connection points: 2
#     Edge 14, Type (0, 0), BuildingBlock: ZUJKAS_clean_linker_0, # of connection points: 2
#     Edge 15, Type (0, 0), BuildingBlock: ZUJKAS_clean_linker_0, # of connection points: 2
#     Edge 16, Type (0, 0), BuildingBlock: ZUJKAS_clean_linker_0, # of connection points: 2
#     Edge 17, Type (0, 0), BuildingBlock: ZUJKAS_clean_linker_0, # of connection points: 2
#     Edge 18, Type (0, 0), BuildingBlock: ZUJKAS_clean_linker_0, # of connection points: 2
#     Edge 19, Type (0, 0), BuildingBlock: ZUJKAS_clean_linker_0, # of connection points: 2
#     Edge 20, Type (0, 0), BuildingBlock: ZUJKAS_clean_linker_0, # of connection points: 2
#     Edge 21, Type (0, 0), BuildingBlock: ZUJKAS_clean_linker_0, # of connection points: 2
#     Edge 22, Type (0, 0), BuildingBlock: ZUJKAS_clean_linker_0, # of connection points: 2
#     Edge 23, Type (0, 0), BuildingBlock: ZUJKAS_clean_linker_0, # of connection points: 2
# Relax obj value: 0.535
# Max RMSD: 0.255
# Mean RMSD: 0.255
data_MOF--net-rkf--node1-NUHQIS_clean_sbu_0--edge1-ZUJKAS_clean_linker_0
_symmetry_space_group_name_H-M    P1
_symmetry_Int_Tables_number       1
_symmetry_cell_setting            triclinic
loop_
_symmetry_equiv_pos_as_xyz
'x, y, z'
_cell_length_a     31.38133
_cell_length_b     31.52171
_cell_length_c     58.178418
_cell_angle_alpha  89.497554
_cell_angle_beta   90.192089
_cell_angle_gamma 120.43947
loop_
_atom_site_label
_atom_site_type_symbol
_atom_site_fract_x
_atom_site_fract_y
_atom_site_fract_z
_atom_type_partial_charge
Tb0 Tb 0.30568 0.14516 0.12222 0.0
Eu1 Eu 0.39072 0.25799 0.10932 0.0
C2 C 0.2783 0.21843 1.09577 0.0
C3 C 0.33941 0.17438 1.06899 0.0
C4 C 0.23298 0.02011 0.14961 0.0
C5 C 0.19191 0.93476 0.16197 0.0
C6 C 0.20235 0.97005 0.14488 0.0
C7 C 0.25375 0.03475 0.17154 0.0
C8 C 0.2432 -0.00057 0.18871 0.0
C9 C 0.21192 0.94903 0.18413 0.0
C10 C 0.24379 0.05609 0.13118 0.0
O11 O 0.37487 0.15587 0.13697 0.0
O12 O 0.42836 0.21415 0.11182 0.0
O13 O 0.37992 0.2555 0.1486 0.0
O14 O 0.30484 0.18491 0.15303 0.0
C15 C 0.41819 0.17918 0.12677 0.0
O16 O 0.45891 0.31106 1.09173 0.0
O17 O 0.42633 0.33609 0.11701 0.0
O18 O 0.32172 0.25716 1.0994 0.0
O19 O 0.26661 0.17357 0.10208 0.0
O20 O 0.32215 0.14093 1.08564 0.0
O21 O 0.36331 0.22191 1.0739 0.0
C22 C 0.34078 0.2266 0.16136 0.0
O23 O 0.23658 0.09244 0.13568 0.0
O24 O 0.28517 0.07085 0.12026 0.0
C25 C 0.46482 0.38783 1.08472 0.0
C26 C 0.46819 0.45278 1.05021 0.0
C27 C 0.50309 0.43732 1.0505 0.0
C28 C 0.50146 0.40522 1.06765 0.0
C29 C 0.43191 0.40574 1.08528 0.0
C30 C 0.43374 0.43803 1.06824 0.0
C31 C 0.45941 0.34898 0.10084 0.0
H32 H 0.16827 0.89628 0.1578 0.0
H33 H 0.18652 0.95822 0.12793 0.0
H34 H 0.27782 0.07337 0.17537 0.0
H35 H 0.2587 0.01166 0.20567 0.0
H36 H 0.5298 0.44762 1.03674 0.0
H37 H 0.52748 0.39225 1.06698 0.0
H38 H 0.40351 0.39349 1.09836 0.0
H39 H 0.40685 0.44991 1.06867 0.0
Tb40 Tb 0.29367 0.32405 0.45449 0.0
Eu41 Eu 0.24082 0.39013 0.44151 0.0
C42 C 0.19133 0.27821 0.43417 0.0
C43 C 0.29062 0.355 0.40093 0.0
C44 C 0.31935 0.22241 0.4726 0.0
C45 C 0.35203 0.16941 0.48214 0.0
C46 C 0.35646 0.21046 0.47071 0.0
C47 C 0.27673 0.19201 0.48548 0.0
C48 C 0.2722 0.15069 0.497 0.0
C49 C 0.3102 0.13935 0.49569 0.0
C50 C 0.3263 0.26628 0.46041 0.0
O51 O 0.35583 0.39892 0.45153 0.0
O52 O 0.31735 0.44455 0.45405 0.0
O53 O 0.22008 0.36447 0.47913 0.0
O54 O 0.26958 0.33241 0.48904 0.0
C55 C 0.35741 0.44116 0.4539 0.0
O56 O 0.24106 0.45439 0.42684 0.0
O57 O 0.17754 0.39957 0.44623 0.0
O58 O 0.19607 0.31736 0.42408 0.0
O59 O 0.21367 0.28489 0.45389 0.0
O60 O 0.30186 0.33208 0.41683 0.0
O61 O 0.26916 0.38065 0.4064 0.0
C62 C 0.23728 0.34595 0.49469 0.0
O63 O 0.29282 0.25964 0.44528 0.0
O64 O 0.34107 0.30628 0.47234 0.0
C65 C 0.16219 0.43978 0.41551 0.0
C66 C 0.10158 0.44147 0.38011 0.0
C67 C 0.14542 0.48466 0.38611 0.0
C68 C 0.17542 0.48379 0.40372 0.0
C69 C 0.11743 0.39705 0.4101 0.0
C70 C 0.08735 0.398 0.39267 0.0
C71 C 0.1955 0.43882 0.43314 0.0
H72 H 0.38237 0.16242 0.48104 0.0
H73 H 0.3894 0.23343 0.46063 0.0
H74 H 0.24742 0.2005 0.4868 0.0
H75 H 0.23933 0.128 0.50713 0.0
H76 H 0.15759 0.51858 0.3766 0.0
H77 H 0.2096 0.51724 0.40775 0.0
H78 H 0.10596 0.36259 0.419 0.0
H79 H 0.0534 0.3643 0.38868 0.0
Tb80 Tb 0.07872 0.2835 0.78699 0.0
Eu81 Eu 0.9681 0.26063 0.77481 0.0
C82 C -0.00989 0.17687 0.78573 0.0
C83 C 0.04807 0.28009 0.73423 0.0
C84 C 0.2028 0.32987 0.81201 0.0
C85 C 0.28194 0.35494 0.8298 0.0
C86 C 0.24503 0.32578 0.81408 0.0
C87 C 0.19756 0.36317 0.82585 0.0
C88 C 0.23459 0.39262 0.84141 0.0
C89 C 0.27721 0.3889 0.84349 0.0
C90 C 0.16535 0.301 0.79476 0.0
O91 O 0.0764 0.34849 0.79798 0.0
O92 O 0.02155 0.34163 0.77067 0.0
O93 O 0.96838 0.25467 0.81459 0.0
O94 O 0.04471 0.26274 0.82125 0.0
C95 C 0.05595 0.36833 0.78555 0.0
O96 O 0.91339 0.28338 0.7783 0.0
O97 O 0.89708 0.22006 0.75742 0.0
O98 O 0.95784 0.19054 0.78914 0.0
O99 O 0.03222 0.20751 0.77555 0.0
O100 O 0.08236 0.30162 0.75011 0.0
O101 O 0.00094 0.25446 0.74033 0.0
C102 C 0.00109 0.25339 0.82878 0.0
O103 O 0.12575 0.26178 0.80221 0.0
O104 O 0.15465 0.32666 0.78072 0.0
C105 C 0.87279 0.27401 0.74272 0.0
C106 C 0.87059 0.30761 0.698 0.0
C107 C 0.90193 0.34072 0.71474 0.0
C108 C 0.90338 0.32399 0.73687 0.0
C109 C 0.83702 0.24252 0.72701 0.0
C110 C 0.83596 0.25908 0.70481 0.0
C111 C 0.88456 0.25259 0.76263 0.0
H112 H 0.31444 0.35139 0.83106 0.0
H113 H 0.24956 0.30026 0.80346 0.0
H114 H 0.16501 0.36663 0.82447 0.0
H115 H 0.22958 0.41781 0.85203 0.0
H116 H 0.92832 0.37856 0.7102 0.0
H117 H 0.93122 0.34935 0.74869 0.0
H118 H 0.81303 0.2039 0.73118 0.0
H119 H 0.81139 0.23228 0.69245 0.0
Tb120 Tb 0.91281 0.09106 0.12097 0.0
Eu121 Eu 0.82521 0.98005 0.10969 0.0
C122 C 0.93721 0.01708 1.09445 0.0
C123 C 0.87632 0.06121 1.06803 0.0
C124 C 0.97701 0.21741 0.14518 0.0
C125 C 0.02358 0.29911 0.16132 0.0
C126 C 0.02104 0.26264 0.14697 0.0
C127 C 0.93524 0.20904 0.15767 0.0
C128 C 0.93765 0.24557 0.17194 0.0
C129 C 0.98195 0.29086 0.17401 0.0
C130 C 0.97423 0.1804 0.12926 0.0
O131 O 0.84448 0.08177 0.13593 0.0
O132 O 0.79203 0.02813 0.10959 0.0
O133 O 0.83735 0.98435 0.14897 0.0
O134 O 0.91641 0.04922 0.15069 0.0
C135 C 0.80217 0.06176 0.12496 0.0
O136 O 0.74936 0.92939 1.09914 0.0
O137 O 0.79353 0.90071 0.1135 0.0
O138 O 0.8921 0.9799 1.09688 0.0
O139 O 0.95181 0.0616 0.10213 0.0
O140 O 0.89679 0.09487 1.08421 0.0
O141 O 0.84998 0.01384 1.07348 0.0
C142 C 0.87903 0.01037 0.16046 0.0
O143 O 0.97704 0.14382 0.13815 0.0
O144 O 0.93903 0.16547 0.11414 0.0
C145 C 0.73613 0.85341 1.0846 0.0
C146 C 0.71499 0.78823 1.04775 0.0
C147 C 0.70591 0.82744 1.04579 0.0
C148 C 0.71637 0.85971 1.06401 0.0
C149 C 0.74219 0.8124 1.0871 0.0
C150 C 0.73195 0.78022 1.0688 0.0
C151 C 0.75246 0.89022 0.10309 0.0
H152 H 0.0581 0.33376 0.16253 0.0
H153 H 0.0534 0.26979 0.1372 0.0
H154 H 0.90082 0.17433 0.15635 0.0
H155 H 0.90525 0.23791 0.1818 0.0
H156 H 0.69349 0.83501 1.02969 0.0
H157 H 0.71072 0.89062 1.06158 0.0
H158 H 0.75658 0.80623 0.10294 0.0
H159 H 0.73894 0.75008 1.07083 0.0
Tb160 Tb 0.95683 0.94019 0.45331 0.0
Eu161 Eu 0.94685 0.83382 0.44737 0.0
C162 C 0.04718 0.92968 0.43778 0.0
C163 C 0.93626 0.89545 0.40292 0.0
C164 C 0.9719 0.05867 0.47595 0.0
C165 C 0.96485 0.07896 0.51529 0.0
C166 C 0.96369 0.04565 0.49932 0.0
C167 C 0.98539 0.10661 0.46905 0.0
C168 C 0.98709 0.14018 0.4851 0.0
C169 C 0.97474 0.1258 0.50814 0.0
C170 C 0.95985 0.0212 0.45837 0.0
O171 O 0.8788 0.88313 0.44858 0.0
O172 O 0.8835 0.82428 0.46852 0.0
O173 O 0.98411 0.86118 0.48269 0.0
O174 O 0.96568 0.92204 0.48905 0.0
C175 C 0.85699 0.84223 0.4607 0.0
O176 O 0.90037 0.75628 0.43879 0.0
O177 O 0.97602 0.78417 0.44993 0.0
O178 O 0.01642 0.88636 0.42962 0.0
O179 O 0.03201 0.95223 0.45161 0.0
O180 O 0.9553 0.9349 0.41587 0.0
O181 O 0.92495 0.852 0.41189 0.0
C182 C 0.98287 0.8938 0.49651 0.0
O183 O -0.00387 0.01756 0.44979 0.0
O184 O 0.92117 0.97824 0.46256 0.0
C185 C 0.94735 0.72766 0.41983 0.0
C186 C 0.98535 0.70701 0.38041 0.0
C187 C -0.00808 0.69181 0.40229 0.0
C188 C 0.97301 0.70209 0.42187 0.0
C189 C 0.93825 0.7402 0.3979 0.0
C190 C 0.95687 0.72984 0.37841 0.0
C191 C 0.93702 0.74783 0.44037 0.0
H192 H 0.95568 0.06734 0.53306 0.0
H193 H 0.95356 0.00889 0.505 0.0
H194 H -0.00817 0.11719 0.45106 0.0
H195 H -0.00533 0.17607 0.47923 0.0
H196 H 0.01348 0.67396 0.40435 0.0
H197 H 0.98071 0.69244 0.43867 0.0
H198 H 0.91922 0.76064 0.39584 0.0
H199 H 0.95188 0.74301 0.36194 0.0
Tb200 Tb 0.14051 0.95231 0.78893 0.0
Eu201 Eu 0.25358 0.98377 0.77591 0.0
C202 C 0.22338 0.06106 0.78712 0.0
C203 C 0.17057 0.95898 0.73594 0.0
C204 C 0.01365 0.90014 0.8137 0.0
C205 C 0.98665 0.87565 0.85309 0.0
C206 C 0.02405 0.9042 0.83731 0.0
C207 C 0.96578 0.86676 0.80608 0.0
C208 C 0.92855 0.83782 0.82179 0.0
C209 C 0.93843 0.84206 0.84551 0.0
C210 C 0.05208 0.92885 0.79656 0.0
O211 O 0.14844 0.8901 0.79979 0.0
O212 O 0.20569 0.90167 0.77279 0.0
O213 O 0.25333 0.98769 0.81578 0.0
O214 O 0.17503 0.97433 0.82302 0.0
C215 C 0.17146 0.87304 0.78753 0.0
O216 O 0.31275 0.96653 0.77659 0.0
O217 O 0.32411 0.033 0.75944 0.0
O218 O 0.25786 0.05045 0.7908 0.0
O219 O 0.18255 0.02855 0.7768 0.0
O220 O 0.13711 0.93579 0.75207 0.0
O221 O 0.2177 0.98657 0.74163 0.0
C222 C 0.21971 0.98624 0.83023 0.0
O223 O 0.09017 0.97029 0.8031 0.0
O224 O 0.06494 0.90343 0.78382 0.0
C225 C 0.35719 0.99014 0.74162 0.0
C226 C 0.38047 0.97924 0.69622 0.0
C227 C 0.41586 0.01712 0.71013 0.0
C228 C 0.40423 0.02255 0.73268 0.0
C229 C 0.32317 0.95006 0.72842 0.0
C230 C 0.33483 0.94449 0.70593 0.0
C231 C 0.34082 0.00296 0.7627 0.0
H232 H -0.0046 0.88056 0.87124 0.0
H233 H 0.06087 0.92957 0.84358 0.0
H234 H 0.95725 0.8628 0.78788 0.0
H235 H 0.89212 0.81188 0.81532 0.0
H236 H 0.4514 0.04427 0.70309 0.0
H237 H 0.43079 0.05386 0.74258 0.0
H238 H 0.28636 0.92499 0.73492 0.0
H239 H 0.30655 0.91537 0.69557 0.0
H240 H 0.03499 0.04795 1.09798 0.0
H241 H 0.09115 0.06927 1.06553 0.0
H242 H 0.96719 0.00507 1.01892 0.0
H243 H 0.91071 0.98009 1.05174 0.0
H244 H 0.02712 0.11115 1.01844 0.0
H245 H 0.14815 0.03449 1.00849 0.0
H246 H 0.08275 -0.00341 1.01503 0.0
H247 H 0.12731 0.02586 1.03776 0.0
C248 C 0.01977 0.03553 1.08098 0.0
C249 C 0.96886 0.01275 1.07727 0.0
C250 C 0.05175 0.04748 1.06235 0.0
C251 C 0.03332 0.03876 1.03971 0.0
C252 C 0.98215 0.01139 1.03618 0.0
H253 H 0.18013 0.18615 1.09851 0.0
H254 H 0.12505 0.16496 1.06558 0.0
C255 C 0.95002 -0.00254 1.05497 0.0
C256 C 0.06665 0.07183 1.02155 0.0
H257 H 0.19105 0.12447 1.01997 0.0
C258 C 0.06292 0.11381 1.01732 0.0
C259 C 0.11274 0.07518 1.01827 0.0
C260 C 0.11779 0.03026 1.01984 0.0
C261 C 0.10555 0.16055 1.01787 0.0
C262 C 0.1514 0.16375 1.02192 0.0
C263 C 0.15539 0.12191 1.01815 0.0
C264 C 0.18385 0.19654 1.04017 0.0
C265 C 0.10042 0.20542 1.01898 0.0
C266 C 0.2351 0.22434 1.03695 0.0
C267 C 0.26655 0.23823 1.05598 0.0
C268 C 0.24696 0.22251 1.07821 0.0
C269 C 0.19589 0.19904 1.08156 0.0
C270 C 0.16455 0.18715 1.06268 0.0
H271 H 0.07078 0.20163 1.00718 0.0
H272 H 0.08983 0.20921 1.03671 0.0
H273 H 0.13574 0.23926 1.01446 0.0
H274 H 0.2507 0.23107 1.01981 0.0
H275 H 0.30601 0.25597 1.05303 0.0
H276 H 0.12603 0.01256 0.45503 0.0
H277 H 0.20329 0.06501 0.43551 0.0
H278 H 0.16282 0.95668 0.38215 0.0
H279 H 0.08521 0.90337 0.40207 0.0
H280 H 0.16248 0.03051 0.36466 0.0
H281 H 0.33678 0.11958 0.40922 0.0
H282 H 0.29219 0.05525 0.41459 0.0
H283 H 0.29345 0.10293 0.43223 0.0
C284 C 0.13428 -0.00086 0.43958 0.0
C285 C 0.09873 0.95503 0.42954 0.0
C286 C 0.17919 0.02887 0.42848 0.0
C287 C 0.18878 0.01553 0.40685 0.0
C288 C 0.1563 0.96806 0.39865 0.0
H289 H 0.19524 0.27483 0.38688 0.0
H290 H 0.21838 0.2226 0.3657 0.0
C291 C 0.11151 0.93795 0.40994 0.0
C292 C 0.21978 0.05578 0.39043 0.0
H293 H 0.29445 0.17484 0.4051 0.0
C294 C 0.19311 0.06238 0.37264 0.0
C295 C 0.26284 0.09771 0.39851 0.0
C296 C 0.29814 0.09312 0.4145 0.0
C297 C 0.19637 0.10813 0.36976 0.0
C298 C 0.22907 0.1471 0.38403 0.0
C299 C 0.26705 0.14379 0.39528 0.0
C300 C 0.21169 0.17742 0.39523 0.0
C301 C 0.15886 0.11186 0.35498 0.0
C302 C 0.19697 0.16714 0.41837 0.0
C303 C 0.18453 0.19704 0.43051 0.0
C304 C 0.18649 0.23785 0.41972 0.0
C305 C 0.19495 0.24442 0.39582 0.0
C306 C 0.20844 0.21484 0.38368 0.0
H307 H 0.14001 0.08033 0.34303 0.0
H308 H 0.13049 0.11247 0.3661 0.0
H309 H 0.17709 0.14652 0.34477 0.0
H310 H 0.19729 0.13714 0.42742 0.0
H311 H 0.17716 0.19046 0.44878 0.0
H312 H 0.17477 0.11108 0.77987 0.0
H313 H 0.14596 0.14315 0.81024 0.0
H314 H 0.23336 0.118 0.85988 0.0
H315 H 0.26746 0.09217 0.82898 0.0
H316 H 0.1205 0.04729 0.85734 0.0
H317 H 0.1715 0.2409 0.86652 0.0
H318 H 0.18407 0.22898 0.83796 0.0
H319 H 0.21669 0.22203 0.86189 0.0
C320 C 0.19024 0.11538 0.79695 0.0
C321 C 0.22165 0.09732 0.80227 0.0
C322 C 0.17387 0.13373 0.81436 0.0
C323 C 0.18667 0.13169 0.83739 0.0
C324 C 0.22307 0.11984 0.84226 0.0
H325 H 0.94328 0.14591 0.82712 0.0
H326 H 0.9724 0.11511 0.85841 0.0
C327 C 0.24185 0.10437 0.82455 0.0
C328 C 0.15046 0.12574 0.85501 0.0
H329 H 0.08301 0.18178 0.85676 0.0
C330 C 0.11243 0.07683 0.85869 0.0
C331 C 0.1403 0.16396 0.85816 0.0
C332 C 0.18061 0.21703 0.8562 0.0
C333 C 0.063 0.06509 0.8578 0.0
C334 C 0.05302 0.10349 0.85438 0.0
C335 C 0.09086 0.15215 0.85842 0.0
C336 C 0.0174 0.09851 0.83651 0.0
C337 C 0.02273 0.01213 0.8558 0.0
C338 C 0.03048 0.09625 0.81362 0.0
C339 C 0.01693 0.11719 0.79596 0.0
C340 C 0.98798 0.13814 0.80088 0.0
C341 C 0.96691 0.13128 0.82296 0.0
C342 C 0.98284 0.11298 0.84091 0.0
H343 H 0.03074 0.98833 0.86702 0.0
H344 H 0.98619 0.00722 0.86048 0.0
H345 H 0.02097 7e-05 0.83777 0.0
H346 H 0.05697 0.08485 0.80984 0.0
H347 H 0.03299 0.12129 0.77905 0.0
H348 H 0.54172 0.5279 1.02451 0.0
H349 H 0.53233 0.55739 0.98671 0.0
H350 H 0.37422 0.46143 0.99141 0.0
H351 H 0.38321 0.43266 1.02874 0.0
H352 H 0.50067 0.50211 0.95086 0.0
H353 H 0.37707 0.57558 0.96103 0.0
H354 H 0.40929 0.56872 0.98527 0.0
H355 H 0.34968 0.51855 0.97656 0.0
C356 C 0.50493 0.51419 1.01765 0.0
C357 C 0.4632 0.478 1.02963 0.0
C358 C 0.4996 0.53124 0.99614 0.0
C359 C 0.4525 0.51238 0.98634 0.0
C360 C 0.41082 0.47808 0.99886 0.0
H361 H 0.32231 0.35823 0.8738 0.0
H362 H 0.37932 0.40536 0.90446 0.0
C363 C 0.41606 0.46134 1.02028 0.0
C364 C 0.44638 0.52061 0.96172 0.0
H365 H 0.36004 0.52181 0.92659 0.0
C366 C 0.47112 0.50824 0.94542 0.0
C367 C 0.40921 0.53034 0.95426 0.0
C368 C 0.38537 0.54963 0.97029 0.0
C369 C 0.45488 0.49858 0.92258 0.0
C370 C 0.41205 0.49992 0.9162 0.0
C371 C 0.39189 0.51909 0.93162 0.0
C372 C 0.38294 0.47406 0.89556 0.0
C373 C 0.48209 0.4843 0.90592 0.0
C374 C 0.36504 0.49657 0.88056 0.0
C375 C 0.33164 0.46929 0.86318 0.0
C376 C 0.31565 0.41908 0.86054 0.0
C377 C 0.33465 0.39703 0.87516 0.0
C378 C 0.3676 0.42413 0.8926 0.0
H379 H 0.5224 0.50495 0.90953 0.0
H380 H 0.46915 0.44456 0.90808 0.0
H381 H 0.47599 0.49139 0.88782 0.0
H382 H 0.37593 0.53487 0.88267 0.0
H383 H 0.31777 0.48724 0.85201 0.0
H384 H 0.06375 0.37075 0.34759 0.0
H385 H 0.02347 0.37019 0.3119 0.0
H386 H 0.03606 0.50898 0.32911 0.0
H387 H 0.07696 0.5098 0.36542 0.0
H388 H 0.93743 0.3753 0.30217 0.0
H389 H 0.10889 0.53633 0.26703 0.0
H390 H 0.11156 0.50576 0.29288 0.0
H391 H 0.0818 0.54162 0.2933 0.0
C392 C 0.05704 0.40069 0.34415 0.0
C393 C 0.0734 0.44023 0.35938 0.0
C394 C 0.03404 0.40039 0.32368 0.0
C395 C 0.02682 0.43956 0.31785 0.0
C396 C 0.04167 0.47861 0.33323 0.0
H397 H 0.91669 0.32325 0.18137 0.0
H398 H 0.91914 0.37627 0.21268 0.0
C399 C 0.06504 0.47903 0.35389 0.0
C400 C 0.00755 0.43965 0.29465 0.0
H401 H 0.0546 0.47787 0.24084 0.0
C402 C 0.96197 0.39873 0.28863 0.0
C403 C 0.03941 0.47097 0.27717 0.0
C404 C 0.08821 0.51624 0.28273 0.0
C405 C 0.95112 0.38357 0.26571 0.0
C406 C 0.98642 0.41117 0.24848 0.0
C407 C 0.02807 0.45649 0.25418 0.0
C408 C 0.98802 0.38768 0.22683 0.0
C409 C 0.90515 0.33498 0.26065 0.0
C410 C 0.02712 0.37871 0.22374 0.0
C411 C 0.02609 0.34916 0.20588 0.0
C412 C 0.98576 0.32767 0.19078 0.0
C413 C 0.94785 0.33882 0.19304 0.0
C414 C 0.94919 0.36903 0.21086 0.0
H415 H 0.8834 0.31672 0.27641 0.0
H416 H 0.88111 0.34098 0.24866 0.0
H417 H 0.91516 0.30963 0.25234 0.0
H418 H 0.05733 0.39241 0.23593 0.0
H419 H 0.0556 0.34093 0.20471 0.0
H420 H 0.80512 0.2795 0.66183 0.0
H421 H 0.82482 0.26899 0.62242 0.0
H422 H 0.98018 0.35099 0.63827 0.0
H423 H 0.96132 0.36017 0.67765 0.0
H424 H 0.92767 0.34165 0.58401 0.0
H425 H 0.90225 0.18074 0.63615 0.0
H426 H 0.86442 0.20749 0.64177 0.0
H427 H 0.92894 0.24089 0.64873 0.0
C428 C 0.84355 0.29696 0.65671 0.0
C429 C 0.88148 0.31922 0.67313 0.0
C430 C 0.85472 0.2914 0.6341 0.0
C431 C 0.90388 0.30865 0.62769 0.0
C432 C 0.94204 0.33753 0.64298 0.0
H433 H 0.03685 0.22265 0.51935 0.0
H434 H 0.02011 0.27154 0.54675 0.0
C435 C 0.93098 0.34276 0.6656 0.0
C436 C 0.91428 0.28488 0.60861 0.0
H437 H 0.92319 0.18374 0.5976 0.0
C438 C 0.9266 0.30706 0.5868 0.0
C439 C 0.91299 0.23996 0.61257 0.0
C440 C 0.90151 0.21561 0.63603 0.0
C441 C 0.9372 0.28476 0.56857 0.0
C442 C 0.93598 0.23978 0.57261 0.0
C443 C 0.92372 0.218 0.59451 0.0
C444 C 0.94554 0.21307 0.55446 0.0
C445 C 0.94848 0.30881 0.54514 0.0
C446 C 0.90963 0.16398 0.55008 0.0
C447 C 0.91959 0.13596 0.53509 0.0
C448 C 0.96553 0.15656 0.524 0.0
C449 C 0.00118 0.2061 0.5278 0.0
C450 C -0.00856 0.23409 0.54319 0.0
H451 H 0.93568 0.33574 0.54351 0.0
H452 H 0.98904 0.32881 0.54231 0.0
H453 H 0.93086 0.28088 0.53142 0.0
H454 H 0.87404 0.14702 0.55863 0.0
H455 H 0.89123 0.09807 0.53211 0.0
H456 H 0.78429 0.76631 1.03407 0.0
H457 H 0.79489 0.74372 0.99552 0.0
H458 H 0.65508 0.72739 0.97522 0.0
H459 H 0.64426 0.75046 1.01398 0.0
H460 H 0.74312 0.66987 0.96097 0.0
H461 H 0.76002 0.85121 0.94066 0.0
H462 H 0.75751 0.8304 0.96983 0.0
H463 H 0.70244 0.80413 0.95263 0.0
C464 C 0.75478 0.756 1.02173 0.0
C465 C 0.71389 0.76109 1.02689 0.0
C466 C 0.76092 0.74309 0.99966 0.0
C467 C 0.72628 0.73498 0.98245 0.0
C468 C 0.6826 0.73437 0.98823 0.0
H469 H 0.84179 0.81906 0.8435 0.0
H470 H 0.77812 0.77796 0.87284 0.0
C471 C 0.67655 0.74765 1.01031 0.0
C472 C 0.74098 0.73695 0.9582 0.0
H473 H 0.78708 0.81748 0.9131 0.0
C474 C 0.75172 0.70151 0.95021 0.0
C475 C 0.75217 0.77835 0.94425 0.0
C476 C 0.74282 0.81845 0.9522 0.0
C477 C 0.77564 0.70766 0.92904 0.0
C478 C 0.78995 0.75081 0.9159 0.0
C479 C 0.77609 0.78441 0.9232 0.0
C480 C 0.8246 0.76564 0.89624 0.0
C481 C 0.78649 0.66857 0.92129 0.0
C482 C 0.87168 0.77159 0.89944 0.0
C483 C 0.90804 0.79455 0.88257 0.0
C484 C 0.89831 0.8128 0.86231 0.0
C485 C 0.8505 0.80503 0.85876 0.0
C486 C 0.81401 0.78161 0.87555 0.0
H487 H 0.75797 0.63169 0.92777 0.0
H488 H 0.78818 0.66738 0.90226 0.0
H489 H 0.82261 0.67653 0.92845 0.0
H490 H 0.88123 0.7608 0.91548 0.0
H491 H 0.94419 0.79918 0.88569 0.0
H492 H 0.08157 0.72892 0.37915 0.0
H493 H 0.13404 0.75152 0.34507 0.0
H494 H 0.00721 0.71031 0.30189 0.0
H495 H 0.95402 0.68525 0.33578 0.0
H496 H 0.08051 0.69682 0.28072 0.0
H497 H 0.15765 0.8829 0.3193 0.0
H498 H 0.16374 0.83821 0.33609 0.0
H499 H 0.10348 0.82971 0.33075 0.0
C500 C 0.06439 0.72253 0.36238 0.0
C501 C 0.01376 0.70645 0.36018 0.0
C502 C 0.09459 0.73595 0.34292 0.0
C503 C 0.07469 0.73407 0.32108 0.0
C504 C 0.02338 0.71259 0.31865 0.0
H505 H 0.12107 0.86913 0.19298 0.0
H506 H 0.09695 0.81157 0.22516 0.0
C507 C -0.00691 0.69866 0.33805 0.0
C508 C 0.10705 0.76167 0.30145 0.0
H509 H 0.1807 0.87916 0.28176 0.0
C510 C 0.10322 0.73662 0.28102 0.0
C511 C 0.13653 0.81368 0.30191 0.0
C512 C 0.14051 0.84292 0.32308 0.0
C513 C 0.12655 0.76241 0.26076 0.0
C514 C 0.1537 0.81444 0.26097 0.0
C515 C 0.15996 0.83924 0.2817 0.0
C516 C 0.17048 0.84435 0.23962 0.0
C517 C 0.12083 0.73381 0.23919 0.0
C518 C 0.21982 0.88226 0.23714 0.0
C519 C 0.23375 0.91552 0.21874 0.0
C520 C 0.19845 0.91159 0.20262 0.0
C521 C 0.14936 0.87271 0.20484 0.0
C522 C 0.13552 0.83954 0.22319 0.0
H523 H 0.11482 0.69669 0.24333 0.0
H524 H 0.08805 0.72881 0.22954 0.0
H525 H 0.15379 0.7535 0.22791 0.0
H526 H 0.24724 0.8869 0.24979 0.0
H527 H 0.27196 0.94472 0.21734 0.0
H528 H 0.41368 0.05947 0.66865 0.0
H529 H 0.40698 0.06121 0.62716 0.0
H530 H 0.35503 0.90569 0.62455 0.0
H531 H 0.35993 0.9034 0.66666 0.0
H532 H 0.4415 0.03876 0.58947 0.0
H533 H 0.23885 0.90707 0.59712 0.0
H534 H 0.2755 0.93484 0.62252 0.0
H535 H 0.28104 0.88862 0.60715 0.0
C536 C 0.40214 0.02581 0.65928 0.0
C537 C 0.38695 0.9812 0.67094 0.0
C538 C 0.39817 0.02681 0.63547 0.0
C539 C 0.3793 0.98335 0.62273 0.0
C540 C 0.36819 0.93939 0.63408 0.0
H541 H 0.34012 0.07406 0.48401 0.0
H542 H 0.35401 0.02102 0.5103 0.0
C543 C 0.37139 0.93819 0.65809 0.0
C544 C 0.36655 0.98471 0.59825 0.0
H545 H 0.2661 0.9588 0.56526 0.0
C546 C 0.40334 0.02011 0.58378 0.0
C547 C 0.31673 0.95988 0.59076 0.0
C548 C 0.27557 0.92055 0.60515 0.0
C549 C 0.39111 0.0354 0.56334 0.0
C550 C 0.3408 0.01414 0.55714 0.0
C551 C 0.30456 0.97509 0.57026 0.0
C552 C 0.32483 0.03833 0.5401 0.0
C553 C 0.43157 0.0774 0.54971 0.0
C554 C 0.30171 0.06364 0.54798 0.0
C555 C 0.29401 0.09408 0.53313 0.0
C556 C 0.3092 0.09968 0.51007 0.0
C557 C 0.32896 0.0713 0.50182 0.0
C558 C 0.3368 0.04089 0.51675 0.0
H559 H 0.46843 0.09221 0.55787 0.0
H560 H 0.43327 0.06459 0.53222 0.0
H561 H 0.42352 0.10775 0.54786 0.0
H562 H 0.29224 0.0621 0.56599 0.0
H563 H 0.27913 0.11563 0.54014 0.0
H564 H 0.50323 0.209 0.10293 0.0
H565 H 0.56699 0.18843 0.10987 0.0
H566 H 0.48692 0.10152 0.1691 0.0
H567 H 0.42136 0.12084 0.16174 0.0
H568 H 0.62832 0.20676 0.14493 0.0
H569 H 0.50914 0.00439 0.13459 0.0
H570 H 0.48805 0.04644 0.12737 0.0
H571 H 0.49051 0.03059 0.15691 0.0
C572 C 0.49886 0.18543 0.11747 0.0
C573 C 0.4569 0.16642 0.13174 0.0
C574 C 0.53563 0.1738 0.12146 0.0
C575 C 0.53178 0.14303 0.13987 0.0
C576 C 0.49035 0.12453 0.15448 0.0
H577 H 0.79766 0.11498 0.16141 0.0
H578 H 0.73259 0.13454 0.16925 0.0
C579 C 0.45299 0.13579 0.15033 0.0
C580 C 0.57131 0.1305 0.14314 0.0
H581 H 0.59347 0.03505 0.14139 0.0
C582 C 0.6207 0.16915 0.14439 0.0
C583 C 0.56142 0.08144 0.14234 0.0
C584 C 0.50951 0.03827 0.14004 0.0
C585 C 0.66039 0.16038 0.14375 0.0
C586 C 0.6505 0.11137 0.1425 0.0
C587 C 0.60108 0.0726 0.14239 0.0
C588 C 0.69027 0.0995 0.1386 0.0
C589 C 0.71244 0.20385 0.14304 0.0
C590 C 0.6878 0.07249 0.1191 0.0
C591 C 0.72427 0.06069 0.11482 0.0
C592 C 0.76452 0.07579 0.12987 0.0
C593 C 0.76733 0.10309 0.1494 0.0
C594 C 0.73025 0.11448 0.15384 0.0
H595 H 0.71322 0.23875 0.13899 0.0
H596 H 0.72999 0.20789 0.16008 0.0
H597 H 0.73499 0.19841 0.13002 0.0
H598 H 0.65761 0.06068 0.10701 0.0
H599 H 0.7209 0.03982 1.09954 0.0
H600 H 0.44897 0.45013 0.45277 0.0
H601 H 0.52965 0.52538 0.45438 0.0
H602 H 0.45881 0.61157 0.46014 0.0
H603 H 0.37768 0.53638 0.45873 0.0
H604 H 0.56798 0.60704 0.42416 0.0
H605 H 0.55792 0.66045 0.51395 0.0
H606 H 0.51664 0.59947 0.50315 0.0
H607 H 0.50719 0.64944 0.49559 0.0
C608 C 0.45032 0.48496 0.45454 0.0
C609 C 0.40656 0.48696 0.45571 0.0
C610 C 0.49661 0.52804 0.45539 0.0
C611 C 0.50036 0.57412 0.45759 0.0
C612 C 0.45687 0.57639 0.45881 0.0
H613 H 0.78673 0.84763 0.43436 0.0
H614 H 0.69759 0.78756 0.43338 0.0
C615 C 0.41046 0.53328 0.45791 0.0
C616 C 0.54992 0.61959 0.45812 0.0
H617 H 0.62939 0.71423 0.49268 0.0
C618 C 0.58129 0.63074 0.43906 0.0
C619 C 0.5673 0.65033 0.47763 0.0
C620 C 0.5358 0.63934 0.49885 0.0
C621 C 0.6298 0.67123 0.43911 0.0
C622 C 0.64732 0.70179 0.45867 0.0
C623 C 0.6157 0.69111 0.4776 0.0
C624 C 0.69987 0.74167 0.46069 0.0
C625 C 0.66263 0.6798 0.41861 0.0
C626 C 0.73031 0.73693 0.47694 0.0
C627 C 0.78094 0.77104 0.47756 0.0
C628 C 0.80235 0.81099 0.46203 0.0
C629 C 0.7714 0.8173 0.44655 0.0
C630 C 0.72055 0.78281 0.44586 0.0
H631 H 0.64627 0.64814 0.40665 0.0
H632 H 0.66834 0.71287 0.40902 0.0
H633 H 0.6994 0.68656 0.42423 0.0
H634 H 0.7152 0.70566 0.48861 0.0
H635 H 0.8036 0.76522 0.4898 0.0
H636 H 0.11469 0.43394 0.81888 0.0
H637 H 0.13402 0.5193 0.82364 0.0
H638 H 0.05067 0.50707 0.76248 0.0
H639 H 0.03025 0.42215 0.75797 0.0
H640 H 0.18243 0.60031 0.79722 0.0
H641 H -0.0103 0.55783 0.80679 0.0
H642 H 0.00626 0.51075 0.80794 0.0
H643 H -0.00229 0.53295 0.78066 0.0
C644 C 0.10043 0.44947 0.80649 0.0
C645 C 0.07048 0.42091 0.78819 0.0
C646 C 0.11145 0.49826 0.80924 0.0
C647 C 0.09272 0.51939 0.79377 0.0
C648 C 0.06421 0.49132 0.77511 0.0
H649 H 0.20249 0.82362 0.76042 0.0
H650 H 0.18388 0.73894 0.76427 0.0
C651 C 0.0529 0.44268 0.77245 0.0
C652 C 0.1038 0.57106 0.79655 0.0
H653 H 0.0495 0.64168 0.79699 0.0
C654 C 0.15332 0.60927 0.79745 0.0
C655 C 0.06594 0.58304 0.79738 0.0
C656 C 0.01196 0.5439 0.7984 0.0
C657 C 0.16599 0.65896 0.79803 0.0
C658 C 0.12818 0.67101 0.79708 0.0
C659 C 0.07863 0.63273 0.79732 0.0
C660 C 0.13921 0.72289 0.79493 0.0
C661 C 0.21989 0.69797 0.79976 0.0
C662 C 0.11866 0.74194 0.8103 0.0
C663 C 0.1286 0.79051 0.8079 0.0
C664 C 0.15931 0.82103 0.79006 0.0
C665 C 0.17915 0.80152 0.77454 0.0
C666 C 0.16889 0.75304 0.77683 0.0
H667 H 0.24164 0.6833 0.8082 0.0
H668 H 0.23515 0.71044 0.78221 0.0
H669 H 0.22504 0.73028 0.80958 0.0
H670 H 0.0952 0.71933 0.82427 0.0
H671 H 0.11261 0.80424 0.82012 0.0
H672 H 0.27054 0.17284 0.19491 0.0
H673 H 0.264 0.19629 0.23423 0.0
H674 H 0.39392 0.3383 0.22321 0.0
H675 H 0.40144 0.31443 0.18414 0.0
H676 H 0.24733 0.26016 0.25365 0.0
H677 H 0.43419 0.30916 0.28279 0.0
H678 H 0.43657 0.34515 0.2583 0.0
H679 H 0.40962 0.27952 0.25567 0.0
C680 C 0.29811 0.20904 0.2008 0.0
C681 C 0.33689 0.2413 0.18592 0.0
C682 C 0.29421 0.22263 0.22354 0.0
C683 C 0.32891 0.26909 0.23256 0.0
C684 C 0.3672 0.30166 0.21753 0.0
H685 H 0.33333 0.30375 0.38368 0.0
H686 H 0.341 0.28415 0.34399 0.0
C687 C 0.37131 0.28796 0.19483 0.0
C688 C 0.32437 0.28338 0.25725 0.0
H689 H 0.38907 0.33202 0.30745 0.0
C690 C 0.27856 0.27584 0.2653 0.0
C691 C 0.36426 0.30322 0.27324 0.0
C692 C 0.41375 0.30927 0.26718 0.0
C693 C 0.27184 0.28782 0.28807 0.0
C694 C 0.31224 0.30948 0.30373 0.0
C695 C 0.35784 0.31635 0.2958 0.0
C696 C 0.30772 0.3231 0.32855 0.0
C697 C 0.22063 0.27532 0.29529 0.0
C698 C 0.2871 0.35267 0.33405 0.0
C699 C 0.28247 0.36409 0.35717 0.0
C700 C 0.29875 0.34686 0.37581 0.0
C701 C 0.32042 0.31832 0.37018 0.0
C702 C 0.32484 0.30683 0.34717 0.0
H703 H 0.19179 0.24627 0.28429 0.0
H704 H 0.21311 0.26251 0.31346 0.0
H705 H 0.2173 0.3086 0.29357 0.0
H706 H 0.27461 0.36731 0.32042 0.0
H707 H 0.26555 0.38604 0.36042 0.0
H708 H 0.18646 0.38575 0.51589 0.0
H709 H 0.15493 0.37402 0.55528 0.0
H710 H 0.2083 0.27443 0.56891 0.0
H711 H 0.24216 0.28822 0.52992 0.0
H712 H 0.08961 0.30759 0.57993 0.0
H713 H 0.26096 0.34889 0.62508 0.0
H714 H 0.25994 0.35814 0.59456 0.0
H715 H 0.2417 0.29795 0.60612 0.0
C716 C 0.19215 0.36173 0.52729 0.0
C717 C 0.21794 0.33868 0.51935 0.0
C718 C 0.17368 0.35477 0.55008 0.0
C719 C 0.17971 0.32411 0.56605 0.0
C720 C 0.20433 0.29997 0.55786 0.0
H721 H 0.1379 0.34763 0.71516 0.0
H722 H 0.16622 0.35745 0.67543 0.0
C723 C 0.22356 0.30759 0.53518 0.0
C724 C 0.15953 0.31696 0.59075 0.0
H725 H 0.18781 0.31241 0.64769 0.0
C726 C 0.11156 0.30903 0.59465 0.0
C727 C 0.1873 0.31932 0.61065 0.0
C728 C 0.24047 0.33207 0.60895 0.0
C729 C 0.0911 0.30328 0.6171 0.0
C730 C 0.11797 0.3033 0.63692 0.0
C731 C 0.16604 0.31154 0.633 0.0
C732 C 0.09844 0.29715 0.66174 0.0
C733 C 0.04118 0.29884 0.61917 0.0
C734 C 0.05024 0.25991 0.66842 0.0
C735 C 0.0333 0.25489 0.69149 0.0
C736 C 0.06424 0.28599 0.70908 0.0
C737 C 0.1125 0.32266 0.70245 0.0
C738 C 0.12903 0.32824 0.67941 0.0
H739 H 0.03245 0.31438 0.60386 0.0
H740 H 0.01268 0.25934 0.62046 0.0
H741 H 0.03892 0.3178 0.63469 0.0
H742 H 0.02561 0.23369 0.65593 0.0
H743 H -0.00381 0.22574 0.69563 0.0
H744 H 0.91378 0.22565 0.85313 0.0
H745 H 0.89236 0.19411 0.89278 0.0
H746 H 0.03471 0.20622 0.90033 0.0
H747 H 0.05713 0.24045 0.86163 0.0
H748 H 0.87712 0.11763 0.91542 0.0
H749 H 0.03906 0.26822 0.95861 0.0
H750 H 0.0264 0.27207 0.9287 0.0
H751 H 0.05817 0.24028 0.93749 0.0
C752 C 0.94101 0.22261 0.86336 0.0
C753 C 0.98768 0.23656 0.85377 0.0
C754 C 0.9285 0.20399 0.88621 0.0
C755 C 0.96199 0.1983 0.90047 0.0
C756 C 0.00824 0.2115 0.89066 0.0
H757 H 0.91392 0.15548 1.05093 0.0
H758 H 0.93184 0.18552 1.01134 0.0
C759 C 0.02099 0.23081 0.86806 0.0
C760 C 0.94841 0.17775 0.92512 0.0
H761 H -0.00816 0.19507 0.98075 0.0
C762 C 0.90233 0.13501 0.92964 0.0
C763 C 0.98019 0.19986 0.94436 0.0
C764 C 0.02842 0.24789 0.94211 0.0
C765 C 0.88774 0.11403 0.95208 0.0
C766 C 0.92047 0.13492 0.97112 0.0
C767 C 0.96632 0.17792 0.9666 0.0
C768 C 0.90757 0.11467 0.99585 0.0
C769 C 0.83634 0.07042 0.9551 0.0
C770 C 0.88769 0.06422 1.0014 0.0
C771 C 0.87628 0.0465 1.02442 0.0
C772 C 0.88535 0.07862 1.04299 0.0
C773 C 0.90592 0.12904 1.03743 0.0
C774 C 0.91657 0.14655 1.01449 0.0
H775 H 0.81119 0.06895 0.94124 0.0
H776 H 0.83786 0.03607 0.95425 0.0
H777 H 0.82023 0.07143 0.9719 0.0
H778 H 0.88165 0.03826 0.98797 0.0
H779 H 0.86125 0.00762 1.02769 0.0
H780 H 0.80591 0.94873 0.19158 0.0
H781 H 0.8149 0.92822 0.23145 0.0
H782 H 0.97327 0.01606 0.22488 0.0
H783 H 0.96419 0.03876 0.18567 0.0
H784 H 0.84759 0.88157 0.25357 0.0
H785 H 0.9676 0.07167 0.28322 0.0
H786 H 0.9394 0.05865 0.25523 0.0
H787 H -0.00371 0.05862 0.25998 0.0
C788 C 0.84274 0.96412 0.19864 0.0
C789 C 0.88419 -0.00384 0.18506 0.0
C790 C 0.84798 0.95216 0.22168 0.0
C791 C 0.89491 0.97131 0.23217 0.0
C792 C 0.93633 0.00197 0.21822 0.0
H793 H 0.92437 0.96828 0.38334 0.0
H794 H 0.91264 0.98272 0.34326 0.0
C795 C 0.93108 0.01469 0.19539 0.0
C796 C 0.90039 0.95875 0.25725 0.0
H797 H 0.96197 0.00862 0.30794 0.0
C798 C 0.87251 0.90969 0.26539 0.0
C799 C 0.93205 -0.00534 0.27349 0.0
C800 C 0.96007 0.04884 0.26762 0.0
C801 C 0.87553 0.89583 0.28849 0.0
C802 C 0.90896 0.93141 0.30441 0.0
C803 C 0.93659 0.98046 0.29625 0.0
C804 C 0.91435 0.91984 0.32969 0.0
C805 C 0.84107 0.84313 0.29565 0.0
C806 C 0.91925 0.87921 0.33661 0.0
C807 C 0.92487 0.87003 0.36013 0.0
C808 C 0.92726 0.9019 0.37765 0.0
C809 C 0.92292 0.94262 0.37066 0.0
C810 C 0.91633 0.95116 0.34738 0.0
H811 H 0.80789 0.82522 0.28444 0.0
H812 H 0.86053 0.82213 0.29407 0.0
H813 H 0.82857 0.84053 0.3137 0.0
H814 H 0.91979 0.85482 0.32381 0.0
H815 H 0.92874 0.83868 0.36448 0.0
H816 H 0.00775 0.83432 0.52221 0.0
H817 H 0.03855 0.84519 0.56185 0.0
H818 H 0.03623 0.98036 0.56621 0.0
H819 H 0.0035 0.96847 0.52717 0.0
H820 H 0.11604 0.90467 0.58414 0.0
H821 H 0.96972 0.92598 0.62489 0.0
H822 H 0.96587 0.90804 0.59531 0.0
H823 H 0.00103 0.97208 0.60316 0.0
C824 C 0.01325 0.86617 0.53164 0.0
C825 C 0.0021 0.9 0.52113 0.0
C826 C 0.03122 0.87256 0.55453 0.0
C827 C 0.03907 0.91315 0.56795 0.0
C828 C 0.0291 0.94757 0.55717 0.0
H829 H 0.07588 0.90368 0.71881 0.0
H830 H 0.0466 0.89322 0.67919 0.0
C831 C 0.01055 0.94087 0.53444 0.0
C832 C 0.05849 0.91993 0.59274 0.0
H833 H 0.04103 0.94819 0.64775 0.0
C834 C 0.09922 0.91403 0.59794 0.0
C835 C 0.03693 0.93132 0.6115 0.0
C836 C -0.00932 0.93418 0.60852 0.0
C837 C 0.11882 0.91966 0.62057 0.0
C838 C 0.09884 0.93345 0.63906 0.0
C839 C 0.05766 0.93861 0.63394 0.0
C840 C 0.11832 0.94049 0.66381 0.0
C841 C 0.15982 0.90878 0.62446 0.0
C842 C 0.16898 0.97102 0.66935 0.0
C843 C 0.1862 0.97698 0.6924 0.0
C844 C 0.15343 0.95298 0.71094 0.0
C845 C 0.10282 0.92293 0.70535 0.0
C846 C 0.08573 0.91695 0.6824 0.0
H847 H 0.15862 0.8826 0.61147 0.0
H848 H 0.19588 0.9435 0.62283 0.0
H849 H 0.15756 0.89272 0.64178 0.0
H850 H 0.19548 0.99092 0.65583 0.0
H851 H 0.2253 0.00071 0.69567 0.0
H852 H 0.16039 0.98932 0.86454 0.0
H853 H 0.18206 0.02116 0.9036 0.0
H854 H 0.3322 0.05702 0.89201 0.0
H855 H 0.31038 0.02423 0.8529 0.0
H856 H 0.23953 0.10728 0.92184 0.0
H857 H 0.31268 0.99017 0.95245 0.0
H858 H 0.34491 0.02575 0.92754 0.0
H859 H 0.28049 0.97935 0.92548 0.0
C860 C 0.198 0.00318 0.87026 0.0
C861 C 0.23319 0.00296 0.85516 0.0
C862 C 0.21057 0.02194 0.89285 0.0
C863 C 0.25888 0.0412 0.9016 0.0
C864 C 0.29424 0.04135 0.88649 0.0
H865 H 0.29233 0.07902 1.05267 0.0
H866 H 0.27339 0.04947 1.01316 0.0
C867 C 0.28167 0.02252 0.86382 0.0
C868 C 0.27192 0.06168 0.92613 0.0
H869 H 0.326 0.05579 0.97681 0.0
C870 C 0.25849 0.09581 0.93374 0.0
C871 C 0.29601 0.0469 0.94241 0.0
C872 C 0.30892 0.00818 0.93669 0.0
C873 C 0.26871 0.11547 0.9564 0.0
C874 C 0.2943 0.10192 0.97241 0.0
C875 C 0.30711 0.06732 0.96489 0.0
C876 C 0.30642 0.12142 0.9971 0.0
C877 C 0.25034 0.14953 0.96312 0.0
C878 C 0.33207 0.17231 1.00217 0.0
C879 C 0.34318 0.18961 1.02514 0.0
C880 C 0.32939 0.1568 1.04408 0.0
C881 C 0.30406 0.106 1.03892 0.0
C882 C 0.29307 0.08879 1.01603 0.0
H883 H 0.21937 0.14462 0.95197 0.0
H884 H 0.23764 0.1434 0.98126 0.0
H885 H 0.28086 0.1882 0.96119 0.0
H886 H 0.3442 0.19903 0.98831 0.0
H887 H 0.36258 0.22891 1.02804 0.0
loop_
_geom_bond_atom_site_label_1
_geom_bond_atom_site_label_2
_geom_bond_distance
_geom_bond_site_symmetry_2
_ccdc_geom_bond_type
Tb0 C10 2.825 . S
Tb0 O11 2.347 . S
Tb0 O14 2.366 . S
Tb0 O19 2.418 . S
Tb0 O20 2.384 1_554 S
Tb0 O23 2.479 . S
Tb0 O24 2.471 . S
Eu1 O12 2.418 . S
Eu1 O13 2.384 1_556 S
Eu1 O16 2.479 . S
Eu1 O17 2.471 . S
Eu1 O18 2.347 1_556 S
Eu1 O21 2.366 . S
Eu1 C31 2.825 . S
C2 O18 1.259 . S
C2 O19 1.265 . S
C3 O20 1.255 . S
C3 O21 1.265 . S
C4 C6 1.380 . S
C4 C7 1.374 . S
C4 C10 1.507 . S
C5 C6 1.384 . S
C5 C9 1.387 . S
C5 H32 0.930 . S
C6 C4 1.380 . S
C6 C5 1.384 . S
C6 H33 0.931 . S
C7 C4 1.374 . S
C7 C8 1.390 . S
C7 H34 0.930 . S
C8 C7 1.390 . S
C8 C9 1.391 . S
C8 H35 0.930 . S
C9 C5 1.387 . S
C9 C8 1.391 . S
C10 Tb0 2.825 . S
C10 C4 1.507 . S
C10 O23 1.238 . S
C10 O24 1.247 . S
O11 Tb0 2.347 . S
O11 C15 1.259 . S
O12 Eu1 2.418 . S
O12 C15 1.263 1_556 S
O13 Eu1 2.384 1_554 S
O13 C22 1.255 . S
O14 Tb0 2.366 . S
O14 C22 1.265 . S
C15 O11 1.259 . S
C15 O12 1.263 1_554 S
O16 Eu1 2.479 . S
O16 C31 1.238 . S
O17 Eu1 2.471 . S
O17 C31 1.247 . S
O18 Eu1 2.347 1_554 S
O18 C2 1.259 . S
O19 Tb0 2.418 . S
O19 C2 1.265 . S
O20 Tb0 2.384 1_556 S
O20 C3 1.255 . S
O21 Eu1 2.366 . S
O21 C3 1.265 . S
C22 O13 1.255 . S
C22 O14 1.265 . S
O23 Tb0 2.479 . S
O23 C10 1.238 . S
O24 Tb0 2.471 . S
O24 C10 1.247 . S
C25 C28 1.380 . S
C25 C29 1.374 . S
C25 C31 1.507 . S
C26 C27 1.387 . S
C26 C30 1.391 . S
C27 C26 1.387 . S
C27 C28 1.384 . S
C27 H36 0.930 . S
C28 C25 1.380 . S
C28 C27 1.384 . S
C28 H37 0.931 . S
C29 C25 1.374 . S
C29 C30 1.390 . S
C29 H38 0.930 . S
C30 C26 1.391 . S
C30 C29 1.390 . S
C30 H39 0.930 . S
C31 Eu1 2.825 . S
C31 O16 1.238 . S
C31 O17 1.247 . S
C31 C25 1.507 . S
H32 C5 0.930 . S
H33 C6 0.931 . S
H34 C7 0.930 . S
H35 C8 0.930 . S
H36 C27 0.930 . S
H37 C28 0.931 . S
H38 C29 0.930 . S
H39 C30 0.930 . S
Tb40 C50 2.825 . S
Tb40 O51 2.347 . S
Tb40 O54 2.366 . S
Tb40 O59 2.418 . S
Tb40 O60 2.384 . S
Tb40 O63 2.479 . S
Tb40 O64 2.471 . S
Eu41 O52 2.418 . S
Eu41 O53 2.384 . S
Eu41 O56 2.479 . S
Eu41 O57 2.471 . S
Eu41 O58 2.347 . S
Eu41 O61 2.366 . S
Eu41 C71 2.825 . S
C42 O58 1.259 . S
C42 O59 1.265 . S
C43 O60 1.255 . S
C43 O61 1.265 . S
C44 C46 1.380 . S
C44 C47 1.374 . S
C44 C50 1.507 . S
C45 C46 1.384 . S
C45 C49 1.387 . S
C45 H72 0.930 . S
C46 C44 1.380 . S
C46 C45 1.384 . S
C46 H73 0.931 . S
C47 C44 1.374 . S
C47 C48 1.390 . S
C47 H74 0.930 . S
C48 C47 1.390 . S
C48 C49 1.391 . S
C48 H75 0.930 . S
C49 C45 1.387 . S
C49 C48 1.391 . S
C50 Tb40 2.825 . S
C50 C44 1.507 . S
C50 O63 1.238 . S
C50 O64 1.247 . S
O51 Tb40 2.347 . S
O51 C55 1.259 . S
O52 Eu41 2.418 . S
O52 C55 1.265 . S
O53 Eu41 2.384 . S
O53 C62 1.255 . S
O54 Tb40 2.366 . S
O54 C62 1.265 . S
C55 O51 1.259 . S
C55 O52 1.265 . S
O56 Eu41 2.479 . S
O56 C71 1.238 . S
O57 Eu41 2.471 . S
O57 C71 1.247 . S
O58 Eu41 2.347 . S
O58 C42 1.259 . S
O59 Tb40 2.418 . S
O59 C42 1.265 . S
O60 Tb40 2.384 . S
O60 C43 1.255 . S
O61 Eu41 2.366 . S
O61 C43 1.265 . S
C62 O53 1.255 . S
C62 O54 1.265 . S
O63 Tb40 2.479 . S
O63 C50 1.238 . S
O64 Tb40 2.471 . S
O64 C50 1.247 . S
C65 C68 1.380 . S
C65 C69 1.374 . S
C65 C71 1.507 . S
C66 C67 1.387 . S
C66 C70 1.391 . S
C67 C66 1.387 . S
C67 C68 1.384 . S
C67 H76 0.930 . S
C68 C65 1.380 . S
C68 C67 1.384 . S
C68 H77 0.931 . S
C69 C65 1.374 . S
C69 C70 1.390 . S
C69 H78 0.930 . S
C70 C66 1.391 . S
C70 C69 1.390 . S
C70 H79 0.930 . S
C71 Eu41 2.825 . S
C71 O56 1.238 . S
C71 O57 1.247 . S
C71 C65 1.507 . S
H72 C45 0.930 . S
H73 C46 0.931 . S
H74 C47 0.930 . S
H75 C48 0.930 . S
H76 C67 0.930 . S
H77 C68 0.931 . S
H78 C69 0.930 . S
H79 C70 0.930 . S
Tb80 C90 2.825 . S
Tb80 O91 2.347 . S
Tb80 O94 2.366 . S
Tb80 O99 2.418 . S
Tb80 O100 2.384 . S
Tb80 O103 2.479 . S
Tb80 O104 2.471 . S
Eu81 O92 2.418 . S
Eu81 O93 2.384 . S
Eu81 O96 2.479 . S
Eu81 O97 2.471 . S
Eu81 O98 2.347 . S
Eu81 O101 2.366 1_655 S
Eu81 C111 2.825 . S
C82 O98 1.259 1_455 S
C82 O99 1.265 . S
C83 O100 1.255 . S
C83 O101 1.265 . S
C84 C86 1.380 . S
C84 C87 1.374 . S
C84 C90 1.507 . S
C85 C86 1.384 . S
C85 C89 1.387 . S
C85 H112 0.930 . S
C86 C84 1.380 . S
C86 C85 1.384 . S
C86 H113 0.931 . S
C87 C84 1.374 . S
C87 C88 1.390 . S
C87 H114 0.930 . S
C88 C87 1.390 . S
C88 C89 1.391 . S
C88 H115 0.930 . S
C89 C85 1.387 . S
C89 C88 1.391 . S
C90 Tb80 2.825 . S
C90 C84 1.507 . S
C90 O103 1.238 . S
C90 O104 1.247 . S
O91 Tb80 2.347 . S
O91 C95 1.259 1_455 S
O92 Eu81 2.418 . S
O92 C95 1.265 . S
O93 Eu81 2.384 . S
O93 C102 1.255 . S
O94 Tb80 2.366 . S
O94 C102 1.265 1_455 S
C95 O91 1.259 1_655 S
C95 O92 1.265 . S
O96 Eu81 2.479 . S
O96 C111 1.238 . S
O97 Eu81 2.471 . S
O97 C111 1.247 . S
O98 Eu81 2.347 . S
O98 C82 1.259 1_655 S
O99 Tb80 2.418 . S
O99 C82 1.265 . S
O100 Tb80 2.384 . S
O100 C83 1.255 . S
O101 Eu81 2.366 1_455 S
O101 C83 1.265 . S
C102 O93 1.255 . S
C102 O94 1.265 1_655 S
O103 Tb80 2.479 . S
O103 C90 1.238 . S
O104 Tb80 2.471 . S
O104 C90 1.247 . S
C105 C108 1.380 . S
C105 C109 1.374 . S
C105 C111 1.507 . S
C106 C107 1.387 . S
C106 C110 1.391 . S
C107 C106 1.387 . S
C107 C108 1.384 . S
C107 H116 0.930 . S
C108 C105 1.380 . S
C108 C107 1.384 . S
C108 H117 0.931 . S
C109 C105 1.374 . S
C109 C110 1.390 . S
C109 H118 0.930 . S
C110 C106 1.391 . S
C110 C109 1.390 . S
C110 H119 0.930 . S
C111 Eu81 2.825 . S
C111 O96 1.238 . S
C111 O97 1.247 . S
C111 C105 1.507 . S
H112 C85 0.930 . S
H113 C86 0.931 . S
H114 C87 0.930 . S
H115 C88 0.930 . S
H116 C107 0.930 . S
H117 C108 0.931 . S
H118 C109 0.930 . S
H119 C110 0.930 . S
Tb120 C130 2.825 . S
Tb120 O131 2.347 . S
Tb120 O134 2.366 . S
Tb120 O139 2.418 . S
Tb120 O140 2.384 1_554 S
Tb120 O143 2.479 . S
Tb120 O144 2.471 . S
Eu121 O132 2.418 . S
Eu121 O133 2.384 1_556 S
Eu121 O136 2.479 . S
Eu121 O137 2.471 . S
Eu121 O138 2.347 1_566 S
Eu121 O141 2.366 1_565 S
Eu121 C151 2.825 . S
C122 O138 1.259 . S
C122 O139 1.265 . S
C123 O140 1.255 . S
C123 O141 1.265 . S
C124 C126 1.380 . S
C124 C127 1.374 . S
C124 C130 1.507 . S
C125 C126 1.384 . S
C125 C129 1.387 . S
C125 H152 0.930 . S
C126 C124 1.380 . S
C126 C125 1.384 . S
C126 H153 0.931 . S
C127 C124 1.374 . S
C127 C128 1.390 . S
C127 H154 0.930 . S
C128 C127 1.390 . S
C128 C129 1.391 . S
C128 H155 0.930 . S
C129 C125 1.387 . S
C129 C128 1.391 . S
C130 Tb120 2.825 . S
C130 C124 1.507 . S
C130 O143 1.238 . S
C130 O144 1.247 . S
O131 Tb120 2.347 . S
O131 C135 1.259 1_545 S
O132 Eu121 2.418 . S
O132 C135 1.263 1_556 S
O133 Eu121 2.384 1_554 S
O133 C142 1.255 . S
O134 Tb120 2.366 . S
O134 C142 1.265 1_545 S
C135 O131 1.259 1_565 S
C135 O132 1.263 1_554 S
O136 Eu121 2.479 . S
O136 C151 1.238 . S
O137 Eu121 2.471 . S
O137 C151 1.247 . S
O138 Eu121 2.347 1_544 S
O138 C122 1.259 . S
O139 Tb120 2.418 . S
O139 C122 1.265 . S
O140 Tb120 2.384 1_556 S
O140 C123 1.255 . S
O141 Eu121 2.366 1_545 S
O141 C123 1.265 . S
C142 O133 1.255 . S
C142 O134 1.265 1_565 S
O143 Tb120 2.479 . S
O143 C130 1.238 . S
O144 Tb120 2.471 . S
O144 C130 1.247 . S
C145 C148 1.380 . S
C145 C149 1.374 . S
C145 C151 1.507 . S
C146 C147 1.387 . S
C146 C150 1.391 . S
C147 C146 1.387 . S
C147 C148 1.384 . S
C147 H156 0.930 . S
C148 C145 1.380 . S
C148 C147 1.384 . S
C148 H157 0.931 . S
C149 C145 1.374 . S
C149 C150 1.390 . S
C149 H158 0.930 . S
C150 C146 1.391 . S
C150 C149 1.390 . S
C150 H159 0.930 . S
C151 Eu121 2.825 . S
C151 O136 1.238 . S
C151 O137 1.247 . S
C151 C145 1.507 . S
H152 C125 0.930 . S
H153 C126 0.931 . S
H154 C127 0.930 . S
H155 C128 0.930 . S
H156 C147 0.930 . S
H157 C148 0.931 . S
H158 C149 0.930 . S
H159 C150 0.930 . S
Tb160 C170 2.825 . S
Tb160 O171 2.347 . S
Tb160 O174 2.366 . S
Tb160 O179 2.418 1_655 S
Tb160 O180 2.384 . S
Tb160 O183 2.479 . S
Tb160 O184 2.471 . S
Eu161 O172 2.418 . S
Eu161 O173 2.384 . S
Eu161 O176 2.479 . S
Eu161 O177 2.471 1_655 S
Eu161 O178 2.347 1_655 S
Eu161 O181 2.366 . S
Eu161 C191 2.825 1_655 S
C162 O178 1.259 . S
C162 O179 1.265 . S
C163 O180 1.255 . S
C163 O181 1.265 . S
C164 C166 1.380 . S
C164 C167 1.374 . S
C164 C170 1.507 . S
C165 C166 1.384 . S
C165 C169 1.387 . S
C165 H192 0.930 . S
C166 C164 1.380 . S
C166 C165 1.384 . S
C166 H193 0.931 . S
C167 C164 1.374 . S
C167 C168 1.390 . S
C167 H194 0.930 . S
C168 C167 1.390 . S
C168 C169 1.391 . S
C168 H195 0.930 . S
C169 C165 1.387 . S
C169 C168 1.391 . S
C170 Tb160 2.825 . S
C170 C164 1.507 . S
C170 O183 1.238 . S
C170 O184 1.247 . S
O171 Tb160 2.347 . S
O171 C175 1.259 . S
O172 Eu161 2.418 . S
O172 C175 1.265 . S
O173 Eu161 2.384 . S
O173 C182 1.255 . S
O174 Tb160 2.366 . S
O174 C182 1.265 . S
C175 O171 1.259 . S
C175 O172 1.265 . S
O176 Eu161 2.479 . S
O176 C191 1.238 1_655 S
O177 Eu161 2.471 1_455 S
O177 C191 1.247 . S
O178 Eu161 2.347 1_455 S
O178 C162 1.259 . S
O179 Tb160 2.418 1_455 S
O179 C162 1.265 . S
O180 Tb160 2.384 . S
O180 C163 1.255 . S
O181 Eu161 2.366 . S
O181 C163 1.265 . S
C182 O173 1.255 . S
C182 O174 1.265 . S
O183 Tb160 2.479 . S
O183 C170 1.238 . S
O184 Tb160 2.471 . S
O184 C170 1.247 . S
C185 C188 1.380 . S
C185 C189 1.374 . S
C185 C191 1.507 . S
C186 C187 1.387 . S
C186 C190 1.391 . S
C187 C186 1.387 . S
C187 C188 1.384 . S
C187 H196 0.930 . S
C188 C185 1.380 . S
C188 C187 1.384 . S
C188 H197 0.931 . S
C189 C185 1.374 . S
C189 C190 1.390 . S
C189 H198 0.930 . S
C190 C186 1.391 . S
C190 C189 1.390 . S
C190 H199 0.930 . S
C191 Eu161 2.825 1_455 S
C191 O176 1.238 1_455 S
C191 O177 1.247 . S
C191 C185 1.507 . S
H192 C165 0.930 . S
H193 C166 0.931 . S
H194 C167 0.930 . S
H195 C168 0.930 . S
H196 C187 0.930 . S
H197 C188 0.931 . S
H198 C189 0.930 . S
H199 C190 0.930 . S
Tb200 C210 2.825 . S
Tb200 O211 2.347 . S
Tb200 O214 2.366 . S
Tb200 O219 2.418 1_565 S
Tb200 O220 2.384 . S
Tb200 O223 2.479 . S
Tb200 O224 2.471 . S
Eu201 O212 2.418 1_545 S
Eu201 O213 2.384 . S
Eu201 O216 2.479 . S
Eu201 O217 2.471 . S
Eu201 O218 2.347 . S
Eu201 O221 2.366 1_545 S
Eu201 C231 2.825 . S
C202 O218 1.259 . S
C202 O219 1.265 . S
C203 O220 1.255 . S
C203 O221 1.265 . S
C204 C206 1.380 . S
C204 C207 1.374 . S
C204 C210 1.507 . S
C205 C206 1.384 . S
C205 C209 1.387 . S
C205 H232 0.930 . S
C206 C204 1.380 . S
C206 C205 1.384 . S
C206 H233 0.931 . S
C207 C204 1.374 . S
C207 C208 1.390 . S
C207 H234 0.930 . S
C208 C207 1.390 . S
C208 C209 1.391 . S
C208 H235 0.930 . S
C209 C205 1.387 . S
C209 C208 1.391 . S
C210 Tb200 2.825 . S
C210 C204 1.507 . S
C210 O223 1.238 . S
C210 O224 1.247 . S
O211 Tb200 2.347 . S
O211 C215 1.259 . S
O212 Eu201 2.418 1_565 S
O212 C215 1.265 . S
O213 Eu201 2.384 . S
O213 C222 1.255 . S
O214 Tb200 2.366 . S
O214 C222 1.265 1_565 S
C215 O211 1.259 . S
C215 O212 1.265 . S
O216 Eu201 2.479 . S
O216 C231 1.238 . S
O217 Eu201 2.471 . S
O217 C231 1.247 . S
O218 Eu201 2.347 . S
O218 C202 1.259 . S
O219 Tb200 2.418 1_545 S
O219 C202 1.265 . S
O220 Tb200 2.384 . S
O220 C203 1.255 . S
O221 Eu201 2.366 1_565 S
O221 C203 1.265 . S
C222 O213 1.255 . S
C222 O214 1.265 1_545 S
O223 Tb200 2.479 . S
O223 C210 1.238 . S
O224 Tb200 2.471 . S
O224 C210 1.247 . S
C225 C228 1.380 . S
C225 C229 1.374 . S
C225 C231 1.507 . S
C226 C227 1.387 . S
C226 C230 1.391 . S
C227 C226 1.387 . S
C227 C228 1.384 . S
C227 H236 0.930 . S
C228 C225 1.380 . S
C228 C227 1.384 . S
C228 H237 0.931 . S
C229 C225 1.374 . S
C229 C230 1.390 . S
C229 H238 0.930 . S
C230 C226 1.391 . S
C230 C229 1.390 . S
C230 H239 0.930 . S
C231 Eu201 2.825 . S
C231 O216 1.238 . S
C231 O217 1.247 . S
C231 C225 1.507 . S
H232 C205 0.930 . S
H233 C206 0.931 . S
H234 C207 0.930 . S
H235 C208 0.930 . S
H236 C227 0.930 . S
H237 C228 0.931 . S
H238 C229 0.930 . S
H239 C230 0.930 . S
H240 C248 0.929 . S
H241 C250 0.930 1_465 S
H242 C252 0.930 . S
H243 C255 0.929 . S
H244 C258 0.930 . S
H245 C260 0.960 . S
H246 C260 0.960 . S
H247 C260 0.960 . S
C248 H240 0.929 . S
C248 C249 1.377 . S
C248 C250 1.384 1_565 S
C249 C248 1.377 . S
C249 C255 1.390 1_565 S
C250 H241 0.930 1_645 S
C250 C248 1.384 1_545 S
C250 C251 1.372 1_655 S
C251 C250 1.372 1_455 S
C251 C252 1.400 1_455 S
C251 C256 1.490 . S
C252 H242 0.930 . S
C252 C251 1.400 1_655 S
C252 C255 1.386 . S
H253 C269 0.941 . S
H254 C270 0.921 1_556 S
C255 H243 0.929 . S
C255 C249 1.390 1_545 S
C255 C252 1.386 . S
C256 C251 1.490 . S
C256 C258 1.395 1_554 S
C256 C259 1.403 . S
H257 C263 0.930 . S
C258 H244 0.930 . S
C258 C256 1.395 1_556 S
C258 C261 1.403 . S
C259 C256 1.403 . S
C259 C260 1.524 . S
C259 C263 1.400 . S
C260 H245 0.960 . S
C260 H246 0.960 . S
C260 H247 0.960 . S
C260 C259 1.524 . S
C261 C258 1.403 . S
C261 C262 1.392 1_556 S
C261 C265 1.495 . S
C262 C261 1.392 1_554 S
C262 C263 1.385 . S
C262 C264 1.478 . S
C263 H257 0.930 . S
C263 C259 1.400 . S
C263 C262 1.385 . S
C264 C262 1.478 . S
C264 C266 1.381 . S
C264 C270 1.383 . S
C265 C261 1.495 . S
C265 H271 0.959 . S
C265 H272 0.961 . S
C265 H273 0.960 . S
C266 C264 1.381 . S
C266 C267 1.394 . S
C266 H274 0.930 . S
C267 C266 1.394 . S
C267 C268 1.383 . S
C267 H275 0.929 . S
C268 C267 1.383 . S
C268 C269 1.377 . S
C269 H253 0.941 . S
C269 C268 1.377 . S
C269 C270 1.379 . S
C270 H254 0.921 1_554 S
C270 C264 1.383 . S
C270 C269 1.379 . S
H271 C265 0.959 . S
H272 C265 0.961 . S
H273 C265 0.960 . S
H274 C266 0.930 . S
H275 C267 0.929 . S
H276 C284 0.929 . S
H277 C286 0.934 . S
H278 C288 0.930 1_545 S
H279 C291 0.929 . S
H280 C294 0.930 . S
H281 C296 0.960 . S
H282 C296 0.960 . S
H283 C296 0.960 . S
C284 H276 0.929 . S
C284 C285 1.377 . S
C284 C286 1.368 1_565 S
C285 C284 1.377 . S
C285 C291 1.390 . S
C286 H277 0.934 . S
C286 C284 1.368 1_545 S
C286 C287 1.384 . S
C287 C286 1.384 . S
C287 C288 1.400 1_545 S
C287 C292 1.490 . S
C288 H278 0.930 1_565 S
C288 C287 1.400 1_565 S
C288 C291 1.386 . S
H289 C305 0.930 . S
H290 C306 0.931 . S
C291 H279 0.929 . S
C291 C285 1.390 . S
C291 C288 1.386 . S
C292 C287 1.490 . S
C292 C294 1.395 . S
C292 C295 1.403 . S
H293 C299 0.930 . S
C294 H280 0.930 . S
C294 C292 1.395 . S
C294 C297 1.403 . S
C295 C292 1.403 . S
C295 C296 1.524 . S
C295 C299 1.400 . S
C296 H281 0.960 . S
C296 H282 0.960 . S
C296 H283 0.960 . S
C296 C295 1.524 . S
C297 C294 1.403 . S
C297 C298 1.392 . S
C297 C301 1.495 . S
C298 C297 1.392 . S
C298 C299 1.385 . S
C298 C300 1.478 . S
C299 H293 0.930 . S
C299 C295 1.400 . S
C299 C298 1.385 . S
C300 C298 1.478 . S
C300 C302 1.381 . S
C300 C306 1.383 . S
C301 C297 1.495 . S
C301 H307 0.959 . S
C301 H308 0.961 . S
C301 H309 0.960 . S
C302 C300 1.381 . S
C302 C303 1.394 . S
C302 H310 0.930 . S
C303 C302 1.394 . S
C303 C304 1.383 . S
C303 H311 0.929 . S
C304 C303 1.383 . S
C304 C305 1.377 . S
C305 H289 0.930 . S
C305 C304 1.377 . S
C305 C306 1.379 . S
C306 H290 0.931 . S
C306 C300 1.383 . S
C306 C305 1.379 . S
H307 C301 0.959 . S
H308 C301 0.961 . S
H309 C301 0.960 . S
H310 C302 0.930 . S
H311 C303 0.929 . S
H312 C320 0.929 . S
H313 C322 0.930 . S
H314 C324 0.930 . S
H315 C327 0.929 . S
H316 C330 0.930 . S
H317 C332 0.960 . S
H318 C332 0.960 . S
H319 C332 0.960 . S
C320 H312 0.929 . S
C320 C321 1.377 . S
C320 C322 1.384 . S
C321 C320 1.377 . S
C321 C327 1.390 . S
C322 H313 0.930 . S
C322 C320 1.384 . S
C322 C323 1.372 . S
C323 C322 1.372 . S
C323 C324 1.400 . S
C323 C328 1.490 . S
C324 H314 0.930 . S
C324 C323 1.400 . S
C324 C327 1.386 . S
H325 C341 0.930 . S
H326 C342 0.931 . S
C327 H315 0.929 . S
C327 C321 1.390 . S
C327 C324 1.386 . S
C328 C323 1.490 . S
C328 C330 1.395 . S
C328 C331 1.403 . S
H329 C335 0.930 . S
C330 H316 0.930 . S
C330 C328 1.395 . S
C330 C333 1.403 . S
C331 C328 1.403 . S
C331 C332 1.524 . S
C331 C335 1.400 . S
C332 H317 0.960 . S
C332 H318 0.960 . S
C332 H319 0.960 . S
C332 C331 1.524 . S
C333 C330 1.403 . S
C333 C334 1.392 . S
C333 C337 1.495 . S
C334 C333 1.392 . S
C334 C335 1.385 . S
C334 C336 1.478 . S
C335 H329 0.930 . S
C335 C331 1.400 . S
C335 C334 1.385 . S
C336 C334 1.478 . S
C336 C338 1.381 . S
C336 C342 1.383 . S
C337 C333 1.495 . S
C337 H343 0.959 . S
C337 H344 0.961 1_455 S
C337 H345 0.952 1_455 S
C338 C336 1.381 . S
C338 C339 1.394 1_455 S
C338 H346 0.930 . S
C339 C338 1.394 1_655 S
C339 C340 1.383 . S
C339 H347 0.929 . S
C340 C339 1.383 . S
C340 C341 1.377 1_655 S
C341 H325 0.930 . S
C341 C340 1.377 1_455 S
C341 C342 1.379 . S
C342 H326 0.931 . S
C342 C336 1.383 . S
C342 C341 1.379 . S
H343 C337 0.959 . S
H344 C337 0.961 1_655 S
H345 C337 0.952 1_655 S
H346 C338 0.930 . S
H347 C339 0.929 . S
H348 C356 0.929 . S
H349 C358 0.930 . S
H350 C360 0.930 . S
H351 C363 0.929 . S
H352 C366 0.930 . S
H353 C368 0.960 . S
H354 C368 0.960 . S
H355 C368 0.960 . S
C356 H348 0.929 . S
C356 C357 1.377 . S
C356 C358 1.384 . S
C357 C356 1.377 . S
C357 C363 1.390 . S
C358 H349 0.930 . S
C358 C356 1.384 . S
C358 C359 1.372 . S
C359 C358 1.372 . S
C359 C360 1.400 . S
C359 C364 1.490 . S
C360 H350 0.930 . S
C360 C359 1.400 . S
C360 C363 1.386 . S
H361 C377 0.930 . S
H362 C378 0.931 . S
C363 H351 0.929 . S
C363 C357 1.390 . S
C363 C360 1.386 . S
C364 C359 1.490 . S
C364 C366 1.395 . S
C364 C367 1.403 . S
H365 C371 0.930 . S
C366 H352 0.930 . S
C366 C364 1.395 . S
C366 C369 1.403 . S
C367 C364 1.403 . S
C367 C368 1.524 . S
C367 C371 1.400 . S
C368 H353 0.960 . S
C368 H354 0.960 . S
C368 H355 0.960 . S
C368 C367 1.524 . S
C369 C366 1.403 . S
C369 C370 1.392 . S
C369 C373 1.495 . S
C370 C369 1.392 . S
C370 C371 1.385 . S
C370 C372 1.478 . S
C371 H365 0.930 . S
C371 C367 1.400 . S
C371 C370 1.385 . S
C372 C370 1.478 . S
C372 C374 1.381 . S
C372 C378 1.383 . S
C373 C369 1.495 . S
C373 H379 0.959 . S
C373 H380 0.961 . S
C373 H381 0.960 . S
C374 C372 1.381 . S
C374 C375 1.394 . S
C374 H382 0.930 . S
C375 C374 1.394 . S
C375 C376 1.383 . S
C375 H383 0.929 . S
C376 C375 1.383 . S
C376 C377 1.377 . S
C377 H361 0.930 . S
C377 C376 1.377 . S
C377 C378 1.379 . S
C378 H362 0.931 . S
C378 C372 1.383 . S
C378 C377 1.379 . S
H379 C373 0.959 . S
H380 C373 0.961 . S
H381 C373 0.960 . S
H382 C374 0.930 . S
H383 C375 0.929 . S
H384 C392 0.929 . S
H385 C394 0.930 . S
H386 C396 0.930 . S
H387 C399 0.929 . S
H388 C402 0.930 . S
H389 C404 0.960 . S
H390 C404 0.960 . S
H391 C404 0.960 . S
C392 H384 0.929 . S
C392 C393 1.377 . S
C392 C394 1.384 . S
C393 C392 1.377 . S
C393 C399 1.390 . S
C394 H385 0.930 . S
C394 C392 1.384 . S
C394 C395 1.372 . S
C395 C394 1.372 . S
C395 C396 1.400 . S
C395 C400 1.490 . S
C396 H386 0.930 . S
C396 C395 1.400 . S
C396 C399 1.386 . S
H397 C413 0.930 . S
H398 C414 0.931 . S
C399 H387 0.929 . S
C399 C393 1.390 . S
C399 C396 1.386 . S
C400 C395 1.490 . S
C400 C402 1.395 . S
C400 C403 1.403 . S
H401 C407 0.930 . S
C402 H388 0.930 . S
C402 C400 1.395 . S
C402 C405 1.403 1_455 S
C403 C400 1.403 . S
C403 C404 1.524 . S
C403 C407 1.400 . S
C404 H389 0.960 . S
C404 H390 0.960 . S
C404 H391 0.960 . S
C404 C403 1.524 . S
C405 C402 1.403 1_655 S
C405 C406 1.392 . S
C405 C409 1.495 . S
C406 C405 1.392 . S
C406 C407 1.385 1_655 S
C406 C408 1.478 . S
C407 H401 0.930 . S
C407 C403 1.400 . S
C407 C406 1.385 1_455 S
C408 C406 1.478 . S
C408 C410 1.381 . S
C408 C414 1.383 . S
C409 C405 1.495 . S
C409 H415 0.959 . S
C409 H416 0.961 . S
C409 H417 0.960 . S
C410 C408 1.381 . S
C410 C411 1.394 . S
C410 H418 0.930 . S
C411 C410 1.394 . S
C411 C412 1.383 . S
C411 H419 0.929 . S
C412 C411 1.383 . S
C412 C413 1.377 . S
C413 H397 0.930 . S
C413 C412 1.377 . S
C413 C414 1.379 . S
C414 H398 0.931 . S
C414 C408 1.383 . S
C414 C413 1.379 . S
H415 C409 0.959 . S
H416 C409 0.961 . S
H417 C409 0.960 . S
H418 C410 0.930 . S
H419 C411 0.929 . S
H420 C428 0.929 . S
H421 C430 0.930 . S
H422 C432 0.930 . S
H423 C435 0.929 . S
H424 C438 0.930 . S
H425 C440 0.960 . S
H426 C440 0.960 . S
H427 C440 0.960 . S
C428 H420 0.929 . S
C428 C429 1.377 . S
C428 C430 1.384 . S
C429 C428 1.377 . S
C429 C435 1.390 . S
C430 H421 0.930 . S
C430 C428 1.384 . S
C430 C431 1.372 . S
C431 C430 1.372 . S
C431 C432 1.400 . S
C431 C436 1.490 . S
C432 H422 0.930 . S
C432 C431 1.400 . S
C432 C435 1.386 . S
H433 C449 0.930 . S
H434 C450 0.931 . S
C435 H423 0.929 . S
C435 C429 1.390 . S
C435 C432 1.386 . S
C436 C431 1.490 . S
C436 C438 1.395 . S
C436 C439 1.403 . S
H437 C443 0.930 . S
C438 H424 0.930 . S
C438 C436 1.395 . S
C438 C441 1.403 1_545 S
C439 C436 1.403 . S
C439 C440 1.524 . S
C439 C443 1.400 . S
C440 H425 0.960 . S
C440 H426 0.960 . S
C440 H427 0.960 . S
C440 C439 1.524 . S
C441 C438 1.403 1_565 S
C441 C442 1.392 . S
C441 C445 1.495 . S
C442 C441 1.392 . S
C442 C443 1.385 1_565 S
C442 C444 1.478 . S
C443 H437 0.930 . S
C443 C439 1.400 . S
C443 C442 1.385 1_545 S
C444 C442 1.478 . S
C444 C446 1.381 . S
C444 C450 1.383 . S
C445 C441 1.495 . S
C445 H451 0.959 . S
C445 H452 0.961 . S
C445 H453 0.960 . S
C446 C444 1.381 . S
C446 C447 1.394 . S
C446 H454 0.930 . S
C447 C446 1.394 . S
C447 C448 1.383 . S
C447 H455 0.929 . S
C448 C447 1.383 . S
C448 C449 1.377 . S
C449 H433 0.930 . S
C449 C448 1.377 . S
C449 C450 1.379 . S
C450 H434 0.931 . S
C450 C444 1.383 . S
C450 C449 1.379 . S
H451 C445 0.959 . S
H452 C445 0.961 . S
H453 C445 0.960 . S
H454 C446 0.930 . S
H455 C447 0.929 . S
H456 C464 0.929 . S
H457 C466 0.930 . S
H458 C468 0.930 . S
H459 C471 0.929 . S
H460 C474 0.930 . S
H461 C476 0.960 . S
H462 C476 0.960 . S
H463 C476 0.960 . S
C464 H456 0.929 . S
C464 C465 1.377 . S
C464 C466 1.384 . S
C465 C464 1.377 . S
C465 C471 1.390 . S
C466 H457 0.930 . S
C466 C464 1.384 . S
C466 C467 1.372 . S
C467 C466 1.372 . S
C467 C468 1.400 . S
C467 C472 1.490 . S
C468 H458 0.930 . S
C468 C467 1.400 . S
C468 C471 1.386 . S
H469 C485 0.930 . S
H470 C486 0.931 1_655 S
C471 H459 0.929 . S
C471 C465 1.390 . S
C471 C468 1.386 . S
C472 C467 1.490 . S
C472 C474 1.395 . S
C472 C475 1.403 . S
H473 C479 0.930 . S
C474 H460 0.930 . S
C474 C472 1.395 . S
C474 C477 1.403 . S
C475 C472 1.403 . S
C475 C476 1.524 . S
C475 C479 1.400 . S
C476 H461 0.960 . S
C476 H462 0.960 . S
C476 H463 0.960 . S
C476 C475 1.524 . S
C477 C474 1.403 . S
C477 C478 1.392 . S
C477 C481 1.495 1_655 S
C478 C477 1.392 . S
C478 C479 1.385 . S
C478 C480 1.478 1_655 S
C479 H473 0.930 . S
C479 C475 1.400 . S
C479 C478 1.385 . S
C480 C478 1.478 1_455 S
C480 C482 1.381 . S
C480 C486 1.383 . S
C481 C477 1.495 1_455 S
C481 H487 0.959 . S
C481 H488 0.961 . S
C481 H489 0.960 . S
C482 C480 1.381 . S
C482 C483 1.394 . S
C482 H490 0.930 . S
C483 C482 1.394 . S
C483 C484 1.383 . S
C483 H491 0.929 . S
C484 C483 1.383 . S
C484 C485 1.377 . S
C485 H469 0.930 . S
C485 C484 1.377 . S
C485 C486 1.379 . S
C486 H470 0.931 1_455 S
C486 C480 1.383 . S
C486 C485 1.379 . S
H487 C481 0.959 . S
H488 C481 0.961 . S
H489 C481 0.960 . S
H490 C482 0.930 . S
H491 C483 0.929 . S
H492 C500 0.929 . S
H493 C502 0.930 . S
H494 C504 0.930 . S
H495 C507 0.929 . S
H496 C510 0.930 . S
H497 C512 0.960 1_545 S
H498 C512 0.960 . S
H499 C512 0.960 . S
C500 H492 0.929 . S
C500 C501 1.377 . S
C500 C502 1.384 . S
C501 C500 1.377 . S
C501 C507 1.390 . S
C502 H493 0.930 . S
C502 C500 1.384 . S
C502 C503 1.372 . S
C503 C502 1.372 . S
C503 C504 1.400 . S
C503 C508 1.490 . S
C504 H494 0.930 . S
C504 C503 1.400 . S
C504 C507 1.386 . S
H505 C521 0.930 . S
H506 C522 0.931 . S
C507 H495 0.929 . S
C507 C501 1.390 . S
C507 C504 1.386 . S
C508 C503 1.490 . S
C508 C510 1.395 . S
C508 C511 1.403 . S
H509 C515 0.930 1_545 S
C510 H496 0.930 . S
C510 C508 1.395 . S
C510 C513 1.403 . S
C511 C508 1.403 . S
C511 C512 1.524 . S
C511 C515 1.400 . S
C512 H497 0.960 1_565 S
C512 H498 0.960 . S
C512 H499 0.960 . S
C512 C511 1.524 . S
C513 C510 1.403 . S
C513 C514 1.392 . S
C513 C517 1.495 . S
C514 C513 1.392 . S
C514 C515 1.385 . S
C514 C516 1.478 1_565 S
C515 H509 0.930 1_565 S
C515 C511 1.400 . S
C515 C514 1.385 . S
C516 C514 1.478 1_545 S
C516 C518 1.381 . S
C516 C522 1.383 . S
C517 C513 1.495 . S
C517 H523 0.959 . S
C517 H524 0.961 . S
C517 H525 0.960 . S
C518 C516 1.381 . S
C518 C519 1.394 . S
C518 H526 0.930 . S
C519 C518 1.394 . S
C519 C520 1.383 . S
C519 H527 0.929 . S
C520 C519 1.383 . S
C520 C521 1.377 . S
C521 H505 0.930 . S
C521 C520 1.377 . S
C521 C522 1.379 . S
C522 H506 0.931 . S
C522 C516 1.383 . S
C522 C521 1.379 . S
H523 C517 0.959 . S
H524 C517 0.961 . S
H525 C517 0.960 . S
H526 C518 0.930 . S
H527 C519 0.929 . S
H528 C536 0.929 . S
H529 C538 0.930 . S
H530 C540 0.930 . S
H531 C543 0.929 . S
H532 C546 0.930 . S
H533 C548 0.960 . S
H534 C548 0.960 . S
H535 C548 0.960 . S
C536 H528 0.929 . S
C536 C537 1.377 . S
C536 C538 1.384 . S
C537 C536 1.377 . S
C537 C543 1.390 . S
C538 H529 0.930 . S
C538 C536 1.384 . S
C538 C539 1.372 . S
C539 C538 1.372 . S
C539 C540 1.400 . S
C539 C544 1.490 . S
C540 H530 0.930 . S
C540 C539 1.400 . S
C540 C543 1.386 . S
H541 C557 0.930 . S
H542 C558 0.931 . S
C543 H531 0.929 . S
C543 C537 1.390 . S
C543 C540 1.386 . S
C544 C539 1.490 . S
C544 C546 1.395 . S
C544 C547 1.403 . S
H545 C551 0.930 . S
C546 H532 0.930 . S
C546 C544 1.395 . S
C546 C549 1.403 . S
C547 C544 1.403 . S
C547 C548 1.524 . S
C547 C551 1.400 . S
C548 H533 0.960 . S
C548 H534 0.960 . S
C548 H535 0.960 . S
C548 C547 1.524 . S
C549 C546 1.403 . S
C549 C550 1.392 . S
C549 C553 1.495 . S
C550 C549 1.392 . S
C550 C551 1.385 . S
C550 C552 1.478 . S
C551 H545 0.930 . S
C551 C547 1.400 . S
C551 C550 1.385 . S
C552 C550 1.478 . S
C552 C554 1.381 . S
C552 C558 1.383 . S
C553 C549 1.495 . S
C553 H559 0.959 . S
C553 H560 0.961 . S
C553 H561 0.960 . S
C554 C552 1.381 . S
C554 C555 1.394 . S
C554 H562 0.930 . S
C555 C554 1.394 . S
C555 C556 1.383 . S
C555 H563 0.929 . S
C556 C555 1.383 . S
C556 C557 1.377 . S
C557 H541 0.930 . S
C557 C556 1.377 . S
C557 C558 1.379 . S
C558 H542 0.931 . S
C558 C552 1.383 . S
C558 C557 1.379 . S
H559 C553 0.959 . S
H560 C553 0.961 . S
H561 C553 0.960 . S
H562 C554 0.930 . S
H563 C555 0.929 . S
H564 C572 0.929 . S
H565 C574 0.930 . S
H566 C576 0.930 . S
H567 C579 0.929 . S
H568 C582 0.930 . S
H569 C584 0.960 . S
H570 C584 0.928 1_556 S
H571 C584 0.960 . S
C572 H564 0.929 . S
C572 C573 1.377 1_556 S
C572 C574 1.384 . S
C573 C572 1.377 1_554 S
C573 C579 1.390 . S
C574 H565 0.930 . S
C574 C572 1.384 . S
C574 C575 1.372 1_556 S
C575 C574 1.372 1_554 S
C575 C576 1.400 . S
C575 C580 1.490 . S
C576 H566 0.930 . S
C576 C575 1.400 . S
C576 C579 1.386 . S
H577 C593 0.940 . S
H578 C594 0.931 . S
C579 H567 0.929 . S
C579 C573 1.390 . S
C579 C576 1.386 . S
C580 C575 1.490 . S
C580 C582 1.395 . S
C580 C583 1.403 . S
H581 C587 0.930 . S
C582 H568 0.930 . S
C582 C580 1.395 . S
C582 C585 1.403 . S
C583 C580 1.403 . S
C583 C584 1.524 . S
C583 C587 1.400 . S
C584 H569 0.960 . S
C584 H570 0.928 1_554 S
C584 H571 0.960 . S
C584 C583 1.524 . S
C585 C582 1.403 . S
C585 C586 1.392 . S
C585 C589 1.495 . S
C586 C585 1.392 . S
C586 C587 1.385 . S
C586 C588 1.478 . S
C587 H581 0.930 . S
C587 C583 1.400 . S
C587 C586 1.385 . S
C588 C586 1.478 . S
C588 C590 1.381 1_554 S
C588 C594 1.383 . S
C589 C585 1.495 . S
C589 H595 0.959 . S
C589 H596 0.961 . S
C589 H597 0.960 . S
C590 C588 1.381 1_556 S
C590 C591 1.394 . S
C590 H598 0.930 . S
C591 C590 1.394 . S
C591 C592 1.383 1_556 S
C591 H599 0.929 . S
C592 C591 1.383 1_554 S
C592 C593 1.377 . S
C593 H577 0.940 . S
C593 C592 1.377 . S
C593 C594 1.379 . S
C594 H578 0.931 . S
C594 C588 1.383 . S
C594 C593 1.379 . S
H595 C589 0.959 . S
H596 C589 0.961 . S
H597 C589 0.960 . S
H598 C590 0.930 . S
H599 C591 0.929 . S
H600 C608 0.929 . S
H601 C610 0.930 . S
H602 C612 0.930 . S
H603 C615 0.929 . S
H604 C618 0.930 . S
H605 C620 0.960 . S
H606 C620 0.960 . S
H607 C620 0.960 . S
C608 H600 0.929 . S
C608 C609 1.377 . S
C608 C610 1.384 . S
C609 C608 1.377 . S
C609 C615 1.390 . S
C610 H601 0.930 . S
C610 C608 1.384 . S
C610 C611 1.372 . S
C611 C610 1.372 . S
C611 C612 1.400 . S
C611 C616 1.490 . S
C612 H602 0.930 . S
C612 C611 1.400 . S
C612 C615 1.386 . S
H613 C629 0.930 . S
H614 C630 0.931 . S
C615 H603 0.929 . S
C615 C609 1.390 . S
C615 C612 1.386 . S
C616 C611 1.490 . S
C616 C618 1.395 . S
C616 C619 1.403 . S
H617 C623 0.930 . S
C618 H604 0.930 . S
C618 C616 1.395 . S
C618 C621 1.403 . S
C619 C616 1.403 . S
C619 C620 1.524 . S
C619 C623 1.400 . S
C620 H605 0.960 . S
C620 H606 0.960 . S
C620 H607 0.960 . S
C620 C619 1.524 . S
C621 C618 1.403 . S
C621 C622 1.392 . S
C621 C625 1.495 . S
C622 C621 1.392 . S
C622 C623 1.385 . S
C622 C624 1.478 . S
C623 H617 0.930 . S
C623 C619 1.400 . S
C623 C622 1.385 . S
C624 C622 1.478 . S
C624 C626 1.381 . S
C624 C630 1.383 . S
C625 C621 1.495 . S
C625 H631 0.959 . S
C625 H632 0.961 . S
C625 H633 0.960 . S
C626 C624 1.381 . S
C626 C627 1.394 . S
C626 H634 0.930 . S
C627 C626 1.394 . S
C627 C628 1.383 . S
C627 H635 0.929 . S
C628 C627 1.383 . S
C628 C629 1.377 . S
C629 H613 0.930 . S
C629 C628 1.377 . S
C629 C630 1.379 . S
C630 H614 0.931 . S
C630 C624 1.383 . S
C630 C629 1.379 . S
H631 C625 0.959 . S
H632 C625 0.961 . S
H633 C625 0.960 . S
H634 C626 0.930 . S
H635 C627 0.929 . S
H636 C644 0.929 . S
H637 C646 0.930 . S
H638 C648 0.930 . S
H639 C651 0.929 . S
H640 C654 0.930 . S
H641 C656 0.960 . S
H642 C656 0.960 . S
H643 C656 0.960 . S
C644 H636 0.929 . S
C644 C645 1.377 . S
C644 C646 1.384 . S
C645 C644 1.377 . S
C645 C651 1.390 . S
C646 H637 0.930 . S
C646 C644 1.384 . S
C646 C647 1.372 . S
C647 C646 1.372 . S
C647 C648 1.400 . S
C647 C652 1.490 . S
C648 H638 0.930 . S
C648 C647 1.400 . S
C648 C651 1.386 . S
H649 C665 0.930 . S
H650 C666 0.931 . S
C651 H639 0.929 . S
C651 C645 1.390 . S
C651 C648 1.386 . S
C652 C647 1.490 . S
C652 C654 1.395 . S
C652 C655 1.403 . S
H653 C659 0.930 . S
C654 H640 0.930 . S
C654 C652 1.395 . S
C654 C657 1.403 . S
C655 C652 1.403 . S
C655 C656 1.524 . S
C655 C659 1.400 . S
C656 H641 0.960 . S
C656 H642 0.960 . S
C656 H643 0.960 . S
C656 C655 1.524 . S
C657 C654 1.403 . S
C657 C658 1.392 . S
C657 C661 1.495 . S
C658 C657 1.392 . S
C658 C659 1.385 . S
C658 C660 1.478 . S
C659 H653 0.930 . S
C659 C655 1.400 . S
C659 C658 1.385 . S
C660 C658 1.478 . S
C660 C662 1.381 . S
C660 C666 1.383 . S
C661 C657 1.495 . S
C661 H667 0.959 . S
C661 H668 0.961 . S
C661 H669 0.960 . S
C662 C660 1.381 . S
C662 C663 1.394 . S
C662 H670 0.930 . S
C663 C662 1.394 . S
C663 C664 1.383 . S
C663 H671 0.929 . S
C664 C663 1.383 . S
C664 C665 1.377 . S
C665 H649 0.930 . S
C665 C664 1.377 . S
C665 C666 1.379 . S
C666 H650 0.931 . S
C666 C660 1.383 . S
C666 C665 1.379 . S
H667 C661 0.959 . S
H668 C661 0.961 . S
H669 C661 0.960 . S
H670 C662 0.930 . S
H671 C663 0.929 . S
H672 C680 0.929 . S
H673 C682 0.930 . S
H674 C684 0.930 . S
H675 C687 0.929 . S
H676 C690 0.930 . S
H677 C692 0.960 . S
H678 C692 0.960 . S
H679 C692 0.960 . S
C680 H672 0.929 . S
C680 C681 1.377 . S
C680 C682 1.384 . S
C681 C680 1.377 . S
C681 C687 1.390 . S
C682 H673 0.930 . S
C682 C680 1.384 . S
C682 C683 1.372 . S
C683 C682 1.372 . S
C683 C684 1.400 . S
C683 C688 1.490 . S
C684 H674 0.930 . S
C684 C683 1.400 . S
C684 C687 1.386 . S
H685 C701 0.930 . S
H686 C702 0.931 . S
C687 H675 0.929 . S
C687 C681 1.390 . S
C687 C684 1.386 . S
C688 C683 1.490 . S
C688 C690 1.395 . S
C688 C691 1.403 . S
H689 C695 0.930 . S
C690 H676 0.930 . S
C690 C688 1.395 . S
C690 C693 1.403 . S
C691 C688 1.403 . S
C691 C692 1.524 . S
C691 C695 1.400 . S
C692 H677 0.960 . S
C692 H678 0.960 . S
C692 H679 0.960 . S
C692 C691 1.524 . S
C693 C690 1.403 . S
C693 C694 1.392 . S
C693 C697 1.495 . S
C694 C693 1.392 . S
C694 C695 1.385 . S
C694 C696 1.478 . S
C695 H689 0.930 . S
C695 C691 1.400 . S
C695 C694 1.385 . S
C696 C694 1.478 . S
C696 C698 1.381 . S
C696 C702 1.383 . S
C697 C693 1.495 . S
C697 H703 0.959 . S
C697 H704 0.961 . S
C697 H705 0.960 . S
C698 C696 1.381 . S
C698 C699 1.394 . S
C698 H706 0.930 . S
C699 C698 1.394 . S
C699 C700 1.383 . S
C699 H707 0.929 . S
C700 C699 1.383 . S
C700 C701 1.377 . S
C701 H685 0.930 . S
C701 C700 1.377 . S
C701 C702 1.379 . S
C702 H686 0.931 . S
C702 C696 1.383 . S
C702 C701 1.379 . S
H703 C697 0.959 . S
H704 C697 0.961 . S
H705 C697 0.960 . S
H706 C698 0.930 . S
H707 C699 0.929 . S
H708 C716 0.929 . S
H709 C718 0.930 . S
H710 C720 0.930 . S
H711 C723 0.929 . S
H712 C726 0.930 . S
H713 C728 0.960 . S
H714 C728 0.960 . S
H715 C728 0.960 . S
C716 H708 0.929 . S
C716 C717 1.377 . S
C716 C718 1.384 . S
C717 C716 1.377 . S
C717 C723 1.390 . S
C718 H709 0.930 . S
C718 C716 1.384 . S
C718 C719 1.372 . S
C719 C718 1.372 . S
C719 C720 1.400 . S
C719 C724 1.490 . S
C720 H710 0.930 . S
C720 C719 1.400 . S
C720 C723 1.386 . S
H721 C737 0.930 . S
H722 C738 0.931 . S
C723 H711 0.929 . S
C723 C717 1.390 . S
C723 C720 1.386 . S
C724 C719 1.490 . S
C724 C726 1.395 . S
C724 C727 1.403 . S
H725 C731 0.930 . S
C726 H712 0.930 . S
C726 C724 1.395 . S
C726 C729 1.403 . S
C727 C724 1.403 . S
C727 C728 1.524 . S
C727 C731 1.400 . S
C728 H713 0.960 . S
C728 H714 0.960 . S
C728 H715 0.960 . S
C728 C727 1.524 . S
C729 C726 1.403 . S
C729 C730 1.392 . S
C729 C733 1.495 . S
C730 C729 1.392 . S
C730 C731 1.385 . S
C730 C732 1.478 . S
C731 H725 0.930 . S
C731 C727 1.400 . S
C731 C730 1.385 . S
C732 C730 1.478 . S
C732 C734 1.381 . S
C732 C738 1.383 . S
C733 C729 1.495 . S
C733 H739 0.959 . S
C733 H740 0.961 . S
C733 H741 0.960 . S
C734 C732 1.381 . S
C734 C735 1.394 . S
C734 H742 0.930 . S
C735 C734 1.394 . S
C735 C736 1.383 . S
C735 H743 0.929 . S
C736 C735 1.383 . S
C736 C737 1.377 . S
C737 H721 0.930 . S
C737 C736 1.377 . S
C737 C738 1.379 . S
C738 H722 0.931 . S
C738 C732 1.383 . S
C738 C737 1.379 . S
H739 C733 0.959 . S
H740 C733 0.961 . S
H741 C733 0.960 . S
H742 C734 0.930 . S
H743 C735 0.929 . S
H744 C752 0.929 . S
H745 C754 0.930 . S
H746 C756 0.930 . S
H747 C759 0.929 1_455 S
H748 C762 0.930 . S
H749 C764 0.960 . S
H750 C764 0.960 . S
H751 C764 0.960 . S
C752 H744 0.929 . S
C752 C753 1.377 . S
C752 C754 1.384 . S
C753 C752 1.377 . S
C753 C759 1.390 . S
C754 H745 0.930 . S
C754 C752 1.384 . S
C754 C755 1.372 . S
C755 C754 1.372 . S
C755 C756 1.400 . S
C755 C760 1.490 . S
C756 H746 0.930 . S
C756 C755 1.400 . S
C756 C759 1.386 . S
H757 C773 0.930 . S
H758 C774 0.931 . S
C759 H747 0.929 1_655 S
C759 C753 1.390 . S
C759 C756 1.386 . S
C760 C755 1.490 . S
C760 C762 1.395 . S
C760 C763 1.403 . S
H761 C767 0.930 . S
C762 H748 0.930 . S
C762 C760 1.395 . S
C762 C765 1.403 . S
C763 C760 1.403 . S
C763 C764 1.524 . S
C763 C767 1.400 . S
C764 H749 0.960 . S
C764 H750 0.960 . S
C764 H751 0.960 . S
C764 C763 1.524 . S
C765 C762 1.403 . S
C765 C766 1.392 . S
C765 C769 1.495 . S
C766 C765 1.392 . S
C766 C767 1.385 . S
C766 C768 1.478 . S
C767 H761 0.930 . S
C767 C763 1.400 . S
C767 C766 1.385 . S
C768 C766 1.478 . S
C768 C770 1.381 . S
C768 C774 1.383 . S
C769 C765 1.495 . S
C769 H775 0.959 . S
C769 H776 0.961 . S
C769 H777 0.960 . S
C770 C768 1.381 . S
C770 C771 1.394 . S
C770 H778 0.930 . S
C771 C770 1.394 . S
C771 C772 1.383 . S
C771 H779 0.929 . S
C772 C771 1.383 . S
C772 C773 1.377 . S
C773 H757 0.930 . S
C773 C772 1.377 . S
C773 C774 1.379 . S
C774 H758 0.931 . S
C774 C768 1.383 . S
C774 C773 1.379 . S
H775 C769 0.959 . S
H776 C769 0.961 . S
H777 C769 0.960 . S
H778 C770 0.930 . S
H779 C771 0.929 . S
H780 C788 0.929 . S
H781 C790 0.930 . S
H782 C792 0.930 . S
H783 C795 0.929 . S
H784 C798 0.930 . S
H785 C800 0.960 . S
H786 C800 0.960 . S
H787 C800 0.960 . S
C788 H780 0.929 . S
C788 C789 1.377 . S
C788 C790 1.384 . S
C789 C788 1.377 . S
C789 C795 1.390 . S
C790 H781 0.930 . S
C790 C788 1.384 . S
C790 C791 1.372 . S
C791 C790 1.372 . S
C791 C792 1.400 . S
C791 C796 1.490 . S
C792 H782 0.930 . S
C792 C791 1.400 . S
C792 C795 1.386 . S
H793 C809 0.930 . S
H794 C810 0.931 . S
C795 H783 0.929 . S
C795 C789 1.390 . S
C795 C792 1.386 . S
C796 C791 1.490 . S
C796 C798 1.395 . S
C796 C799 1.403 . S
H797 C803 0.930 . S
C798 H784 0.930 . S
C798 C796 1.395 . S
C798 C801 1.403 . S
C799 C796 1.403 . S
C799 C800 1.524 . S
C799 C803 1.400 . S
C800 H785 0.960 . S
C800 H786 0.960 . S
C800 H787 0.960 . S
C800 C799 1.524 . S
C801 C798 1.403 . S
C801 C802 1.392 . S
C801 C805 1.495 . S
C802 C801 1.392 . S
C802 C803 1.385 . S
C802 C804 1.478 . S
C803 H797 0.930 . S
C803 C799 1.400 . S
C803 C802 1.385 . S
C804 C802 1.478 . S
C804 C806 1.381 . S
C804 C810 1.383 . S
C805 C801 1.495 . S
C805 H811 0.959 . S
C805 H812 0.961 . S
C805 H813 0.960 . S
C806 C804 1.381 . S
C806 C807 1.394 . S
C806 H814 0.930 . S
C807 C806 1.394 . S
C807 C808 1.383 . S
C807 H815 0.929 . S
C808 C807 1.383 . S
C808 C809 1.377 . S
C809 H793 0.930 . S
C809 C808 1.377 . S
C809 C810 1.379 . S
C810 H794 0.931 . S
C810 C804 1.383 . S
C810 C809 1.379 . S
H811 C805 0.959 . S
H812 C805 0.961 . S
H813 C805 0.960 . S
H814 C806 0.930 . S
H815 C807 0.929 . S
H816 C824 0.929 . S
H817 C826 0.930 . S
H818 C828 0.930 1_655 S
H819 C831 0.929 . S
H820 C834 0.930 . S
H821 C836 0.960 . S
H822 C836 0.960 . S
H823 C836 0.960 1_655 S
C824 H816 0.929 . S
C824 C825 1.377 . S
C824 C826 1.384 . S
C825 C824 1.377 . S
C825 C831 1.390 1_455 S
C826 H817 0.930 . S
C826 C824 1.384 . S
C826 C827 1.372 . S
C827 C826 1.372 . S
C827 C828 1.400 . S
C827 C832 1.490 . S
C828 H818 0.930 1_455 S
C828 C827 1.400 . S
C828 C831 1.386 1_455 S
H829 C845 0.930 . S
H830 C846 0.931 . S
C831 H819 0.929 . S
C831 C825 1.390 1_655 S
C831 C828 1.386 1_655 S
C832 C827 1.490 . S
C832 C834 1.395 . S
C832 C835 1.403 . S
H833 C839 0.930 . S
C834 H820 0.930 . S
C834 C832 1.395 . S
C834 C837 1.403 . S
C835 C832 1.403 . S
C835 C836 1.524 . S
C835 C839 1.400 . S
C836 H821 0.960 . S
C836 H822 0.960 . S
C836 H823 0.960 1_455 S
C836 C835 1.524 . S
C837 C834 1.403 . S
C837 C838 1.392 . S
C837 C841 1.495 . S
C838 C837 1.392 . S
C838 C839 1.385 . S
C838 C840 1.478 . S
C839 H833 0.930 . S
C839 C835 1.400 . S
C839 C838 1.385 . S
C840 C838 1.478 . S
C840 C842 1.381 . S
C840 C846 1.383 . S
C841 C837 1.495 . S
C841 H847 0.959 1_565 S
C841 H848 0.945 1_565 S
C841 H849 0.960 . S
C842 C840 1.381 . S
C842 C843 1.394 . S
C842 H850 0.930 . S
C843 C842 1.394 . S
C843 C844 1.383 . S
C843 H851 0.929 . S
C844 C843 1.383 . S
C844 C845 1.377 . S
C845 H829 0.930 . S
C845 C844 1.377 . S
C845 C846 1.379 . S
C846 H830 0.931 . S
C846 C840 1.383 . S
C846 C845 1.379 . S
H847 C841 0.959 1_545 S
H848 C841 0.945 1_545 S
H849 C841 0.960 . S
H850 C842 0.930 . S
H851 C843 0.929 . S
H852 C860 0.929 . S
H853 C862 0.930 . S
H854 C864 0.924 1_565 S
H855 C867 0.929 1_565 S
H856 C870 0.930 . S
H857 C872 0.960 . S
H858 C872 0.960 . S
H859 C872 0.960 . S
C860 H852 0.929 . S
C860 C861 1.377 . S
C860 C862 1.384 . S
C861 C860 1.377 . S
C861 C867 1.390 . S
C862 H853 0.930 . S
C862 C860 1.384 . S
C862 C863 1.372 . S
C863 C862 1.372 . S
C863 C864 1.400 . S
C863 C868 1.490 . S
C864 H854 0.924 1_545 S
C864 C863 1.400 . S
C864 C867 1.386 . S
H865 C881 0.930 . S
H866 C882 0.931 . S
C867 H855 0.929 1_545 S
C867 C861 1.390 . S
C867 C864 1.386 . S
C868 C863 1.490 . S
C868 C870 1.395 . S
C868 C871 1.403 . S
H869 C875 0.930 . S
C870 H856 0.930 . S
C870 C868 1.395 . S
C870 C873 1.403 . S
C871 C868 1.403 . S
C871 C872 1.524 . S
C871 C875 1.400 . S
C872 H857 0.960 . S
C872 H858 0.960 . S
C872 H859 0.960 . S
C872 C871 1.524 . S
C873 C870 1.403 . S
C873 C874 1.392 . S
C873 C877 1.495 . S
C874 C873 1.392 . S
C874 C875 1.385 . S
C874 C876 1.478 . S
C875 H869 0.930 . S
C875 C871 1.400 . S
C875 C874 1.385 . S
C876 C874 1.478 . S
C876 C878 1.381 . S
C876 C882 1.383 . S
C877 C873 1.495 . S
C877 H883 0.959 . S
C877 H884 0.961 . S
C877 H885 0.960 . S
C878 C876 1.381 . S
C878 C879 1.394 . S
C878 H886 0.930 . S
C879 C878 1.394 . S
C879 C880 1.383 . S
C879 H887 0.929 . S
C880 C879 1.383 . S
C880 C881 1.377 . S
C881 H865 0.930 . S
C881 C880 1.377 . S
C881 C882 1.379 . S
C882 H866 0.931 . S
C882 C876 1.383 . S
C882 C881 1.379 . S
H883 C877 0.959 . S
H884 C877 0.961 . S
H885 C877 0.960 . S
H886 C878 0.930 . S
H887 C879 0.929 . S
C249 C122 0.963 1_565 S
C268 C2 0.956 . S
C285 C162 0.953 . S
C304 C42 0.915 . S
C321 C202 0.971 . S
C340 C82 1.031 1_655 S
C357 C26 0.605 . S
C376 C89 0.523 . S
C393 C66 0.600 . S
C412 C129 0.699 . S
C429 C106 0.586 . S
C448 C169 0.681 . S
C465 C146 0.600 . S
C484 C209 0.698 . S
C501 C186 0.587 . S
C520 C9 0.593 . S
C537 C226 0.584 . S
C556 C49 0.625 . S
C573 C15 1.449 . S
C592 C135 1.435 1_545 S
C609 C55 1.456 . S
C628 C175 1.464 . S
C645 C95 1.457 1_455 S
C664 C215 1.469 . S
C681 C22 3.890 . S
C700 C43 3.907 . S
C717 C62 3.892 . S
C736 C83 3.905 . S
C753 C102 3.892 . S
C772 C123 3.905 . S
C789 C142 3.891 . S
C808 C163 3.904 . S
C825 C182 3.891 1_455 S
C844 C203 3.904 . S
C861 C222 3.893 . S
C880 C3 3.906 . S
