# Generated by pormake.
# Topology uof, (4)-cn, num edge types: 1
# Building blocks:
#     Node 0, Type 0, BuildingBlock: UXUYUI_clean_sbu_0, # of connection points: 4
#     Node 1, Type 0, BuildingBlock: UXUYUI_clean_sbu_0, # of connection points: 4
#     Node 2, Type 0, BuildingBlock: UXUYUI_clean_sbu_0, # of connection points: 4
#     Node 3, Type 0, BuildingBlock: UXUYUI_clean_sbu_0, # of connection points: 4
#     Node 4, Type 0, BuildingBlock: UXUYUI_clean_sbu_0, # of connection points: 4
#     Node 5, Type 0, BuildingBlock: UXUYUI_clean_sbu_0, # of connection points: 4
#     Node 6, Type 0, BuildingBlock: UXUYUI_clean_sbu_0, # of connection points: 4
#     Node 7, Type 0, BuildingBlock: UXUYUI_clean_sbu_0, # of connection points: 4
#     Node 8, Type 0, BuildingBlock: UXUYUI_clean_sbu_0, # of connection points: 4
#     Node 9, Type 0, BuildingBlock: UXUYUI_clean_sbu_0, # of connection points: 4
#     Node 10, Type 0, BuildingBlock: UXUYUI_clean_sbu_0, # of connection points: 4
#     Node 11, Type 0, BuildingBlock: UXUYUI_clean_sbu_0, # of connection points: 4
#     Edge 12, Type (0, 0), BuildingBlock: CIFDUS_clean_linker_0, # of connection points: 2
#     Edge 13, Type (0, 0), BuildingBlock: CIFDUS_clean_linker_0, # of connection points: 2
#     Edge 14, Type (0, 0), BuildingBlock: CIFDUS_clean_linker_0, # of connection points: 2
#     Edge 15, Type (0, 0), BuildingBlock: CIFDUS_clean_linker_0, # of connection points: 2
#     Edge 16, Type (0, 0), BuildingBlock: CIFDUS_clean_linker_0, # of connection points: 2
#     Edge 17, Type (0, 0), BuildingBlock: CIFDUS_clean_linker_0, # of connection points: 2
#     Edge 18, Type (0, 0), BuildingBlock: CIFDUS_clean_linker_0, # of connection points: 2
#     Edge 19, Type (0, 0), BuildingBlock: CIFDUS_clean_linker_0, # of connection points: 2
#     Edge 20, Type (0, 0), BuildingBlock: CIFDUS_clean_linker_0, # of connection points: 2
#     Edge 21, Type (0, 0), BuildingBlock: CIFDUS_clean_linker_0, # of connection points: 2
#     Edge 22, Type (0, 0), BuildingBlock: CIFDUS_clean_linker_0, # of connection points: 2
#     Edge 23, Type (0, 0), BuildingBlock: CIFDUS_clean_linker_0, # of connection points: 2
#     Edge 24, Type (0, 0), BuildingBlock: CIFDUS_clean_linker_0, # of connection points: 2
#     Edge 25, Type (0, 0), BuildingBlock: CIFDUS_clean_linker_0, # of connection points: 2
#     Edge 26, Type (0, 0), BuildingBlock: CIFDUS_clean_linker_0, # of connection points: 2
#     Edge 27, Type (0, 0), BuildingBlock: CIFDUS_clean_linker_0, # of connection points: 2
#     Edge 28, Type (0, 0), BuildingBlock: CIFDUS_clean_linker_0, # of connection points: 2
#     Edge 29, Type (0, 0), BuildingBlock: CIFDUS_clean_linker_0, # of connection points: 2
#     Edge 30, Type (0, 0), BuildingBlock: CIFDUS_clean_linker_0, # of connection points: 2
#     Edge 31, Type (0, 0), BuildingBlock: CIFDUS_clean_linker_0, # of connection points: 2
#     Edge 32, Type (0, 0), BuildingBlock: CIFDUS_clean_linker_0, # of connection points: 2
#     Edge 33, Type (0, 0), BuildingBlock: CIFDUS_clean_linker_0, # of connection points: 2
#     Edge 34, Type (0, 0), BuildingBlock: CIFDUS_clean_linker_0, # of connection points: 2
#     Edge 35, Type (0, 0), BuildingBlock: CIFDUS_clean_linker_0, # of connection points: 2
# Relax obj value: 0.353
# Max RMSD: 0.222
# Mean RMSD: 0.221
data_MOF--net-uof--node1-UXUYUI_clean_sbu_0--edge1-CIFDUS_clean_linker_0
_symmetry_space_group_name_H-M    P1
_symmetry_Int_Tables_number       1
_symmetry_cell_setting            triclinic
loop_
_symmetry_equiv_pos_as_xyz
'x, y, z'
_cell_length_a     42.680089
_cell_length_b     42.694973
_cell_length_c     82.665031
_cell_angle_alpha  89.986684
_cell_angle_beta   89.994857
_cell_angle_gamma 119.98271
loop_
_atom_site_label
_atom_site_type_symbol
_atom_site_fract_x
_atom_site_fract_y
_atom_site_fract_z
_atom_type_partial_charge
Li0 Li 0.19804 0.32364 0.21617 0.0
Li1 Li 0.22638 0.31605 0.24162 0.0
Li2 Li 0.26435 0.35245 0.21834 0.0
Li3 Li 0.22621 0.28731 0.21619 0.0
C4 C 0.23433 0.39461 0.22774 0.0
N5 N 0.24054 0.45978 0.21869 0.0
C6 C 0.23365 0.41786 0.23944 0.0
C7 C 0.23818 0.40449 0.21142 0.0
C8 C 0.23682 0.4507 0.23463 0.0
C9 C 0.24128 0.43756 0.20709 0.0
C10 C 0.16243 0.2432 0.2279 0.0
C11 C 0.14719 0.18265 0.23546 0.0
N12 N 0.12084 0.16921 0.22398 0.0
C13 C 0.13509 0.2288 0.21623 0.0
C14 C 0.16846 0.21998 0.23766 0.0
C15 C 0.11438 0.19131 0.21442 0.0
C16 C 0.14966 0.31403 0.19125 0.0
N17 N 0.15655 0.32335 0.20712 0.0
C18 C 0.09808 0.31747 0.21028 0.0
C19 C 0.13189 0.3259 0.2166 0.0
C20 C 0.08949 0.30603 0.19409 0.0
C21 C 0.11631 0.30539 0.18445 0.0
H22 H 0.16919 0.31102 0.18412 0.0
H23 H 0.13773 0.33266 0.22927 0.0
C24 C 0.25957 0.33011 0.27186 0.0
N25 N 0.22699 0.31066 0.26444 0.0
C26 C 0.26496 0.32061 0.28735 0.0
C27 C 0.20226 0.2733 0.28782 0.0
C28 C 0.19819 0.28347 0.27222 0.0
C29 C 0.2364 0.29103 0.29536 0.0
H30 H 0.28218 0.3511 0.26522 0.0
H31 H 0.17265 0.26826 0.26597 0.0
C32 C 0.25298 0.32584 0.18683 0.0
N33 N 0.29499 0.33008 0.16055 0.0
C34 C 0.2794 0.31581 0.18838 0.0
C35 C 0.24791 0.33799 0.17188 0.0
C36 C 0.30035 0.31815 0.17497 0.0
C37 C 0.26942 0.33996 0.15875 0.0
C38 C 0.29004 0.30412 0.23629 0.0
C39 C 0.32395 0.31767 0.22898 0.0
C40 C 0.28077 0.28016 0.24932 0.0
C41 C 0.34793 0.30702 0.2348 0.0
C42 C 0.30551 0.27017 0.25479 0.0
N43 N 0.3383 0.2837 0.24748 0.0
C44 C 0.3341 0.40173 0.22776 0.0
C45 C 0.32643 0.40424 0.19951 0.0
C46 C 0.37157 0.42327 0.22622 0.0
N47 N 0.31251 0.39156 0.21446 0.0
C48 C 0.36387 0.42578 0.19739 0.0
C49 C 0.38708 0.43462 0.2108 0.0
H50 H 0.32237 0.39099 0.23949 0.0
H51 H 0.30883 0.39634 0.18911 0.0
C52 C 0.20262 0.23312 0.19268 0.0
N53 N 0.22147 0.24445 0.20678 0.0
C54 C 0.19896 0.20259 0.18479 0.0
C55 C 0.2337 0.19575 0.20619 0.0
C56 C 0.23636 0.22611 0.21373 0.0
C57 C 0.21518 0.18398 0.19146 0.0
H58 H 0.19077 0.24808 0.18751 0.0
H59 H 0.25036 0.23488 0.22507 0.0
O60 O 0.23126 0.36241 0.23232 0.0
O61 O 0.18369 0.27984 0.22952 0.0
O62 O 0.23217 0.32398 0.1998 0.0
O63 O 0.26649 0.31496 0.231 0.0
H64 H 0.2307 0.41058 0.25213 0.0
H65 H 0.23881 0.38695 0.20216 0.0
H66 H 0.23633 0.46896 0.24356 0.0
H67 H 0.24428 0.44556 0.19451 0.0
H68 H 0.15175 0.16437 0.24284 0.0
H69 H 0.13012 0.24638 0.20855 0.0
H70 H 0.18972 0.23068 0.24664 0.0
H71 H 0.09326 0.17979 0.20538 0.0
H72 H 0.07843 0.31869 0.21815 0.0
H73 H 0.11088 0.29609 0.17204 0.0
H74 H 0.29189 0.33485 0.29248 0.0
H75 H 0.17924 0.25087 0.29362 0.0
H76 H 0.28363 0.30624 0.19978 0.0
H77 H 0.22777 0.34612 0.17047 0.0
H78 H 0.32088 0.31046 0.17602 0.0
H79 H 0.26585 0.34941 0.14713 0.0
H80 H 0.33181 0.33627 0.21891 0.0
H81 H 0.25453 0.26883 0.25499 0.0
H82 H 0.37422 0.31733 0.22924 0.0
H83 H 0.29859 0.25158 0.26482 0.0
H84 H 0.38829 0.42909 0.23689 0.0
H85 H 0.37459 0.43454 0.18532 0.0
H86 H 0.18456 0.19427 0.17339 0.0
H87 H 0.24608 0.18165 0.2118 0.0
Li88 Li 0.87261 0.20966 0.54431 0.0
Li89 Li 0.91 0.23724 0.5705 0.0
Li90 Li 0.90635 0.27467 0.54923 0.0
Li91 Li 0.93818 0.24332 0.54402 0.0
C92 C 0.84995 0.25656 0.56862 0.0
N93 N 0.82107 0.29714 0.58066 0.0
C94 C 0.85086 0.26318 0.58523 0.0
C95 C 0.83371 0.27004 0.55818 0.0
C96 C 0.83628 0.28388 0.59107 0.0
C97 C 0.81947 0.29067 0.56449 0.0
C98 C 0.92578 0.18061 0.55455 0.0
C99 C 0.97573 0.17244 0.56225 0.0
N100 N 0.96682 0.1477 0.55022 0.0
C101 C 0.91702 0.155 0.5423 0.0
C102 C 0.95529 0.18936 0.56465 0.0
C103 C 0.93813 0.13869 0.54029 0.0
C104 C 0.84261 0.16179 0.51871 0.0
N105 N 0.83437 0.16747 0.53392 0.0
C106 C 0.77932 0.11028 0.53338 0.0
C107 C 0.80329 0.14264 0.54133 0.0
C108 C 0.78749 0.10357 0.51769 0.0
C109 C 0.81948 0.13017 0.51034 0.0
H110 H 0.86802 0.18126 0.51327 0.0
H111 H 0.79763 0.14742 0.55355 0.0
C112 C 0.93373 0.26784 0.60064 0.0
N113 N 0.91861 0.23537 0.59299 0.0
C114 C 0.94806 0.27176 0.61615 0.0
C115 C 0.92953 0.20823 0.61601 0.0
C116 C 0.9156 0.20556 0.60041 0.0
C117 C 0.94686 0.24193 0.62396 0.0
H118 H 0.93603 0.29112 0.59436 0.0
H119 H 0.90392 0.18015 0.59395 0.0
C120 C 0.89255 0.25643 0.51578 0.0
N121 N 0.86707 0.27274 0.48818 0.0
C122 C 0.91581 0.2736 0.50275 0.0
C123 C 0.85622 0.24703 0.51467 0.0
C124 C 0.90245 0.28179 0.48894 0.0
C125 C 0.84388 0.25564 0.50064 0.0
C126 C 0.97941 0.31294 0.55684 0.0
C127 C 0.98765 0.32419 0.54074 0.0
C128 C 1.00088 0.33591 0.56924 0.0
C129 C 0.01703 0.35834 0.53733 0.0
C130 C 0.03003 0.36988 0.56533 0.0
N131 N 0.03741 0.38032 0.54959 0.0
C132 C 0.9215 0.3408 0.56183 0.0
C133 C 0.92027 0.34126 0.53319 0.0
C134 C 0.93938 0.37848 0.56227 0.0
N135 N 0.91347 0.32298 0.54744 0.0
C136 C 0.93832 0.37913 0.53308 0.0
C137 C 0.94956 0.39823 0.54775 0.0
H138 H 0.91699 0.32591 0.57298 0.0
H139 H 0.91463 0.32697 0.52187 0.0
C140 C 0.97223 0.22938 0.5186 0.0
N141 N 0.97781 0.24428 0.53358 0.0
C142 C 1.00035 0.22848 0.51047 0.0
C143 C 0.0394 0.25863 0.53332 0.0
C144 C 0.01044 0.2587 0.54105 0.0
C145 C 0.0345 0.24326 0.51784 0.0
H146 H 0.94575 0.21779 0.5131 0.0
H147 H 0.01388 0.27004 0.55305 0.0
O148 O 0.86446 0.23658 0.56274 0.0
O149 O 0.90616 0.19773 0.55638 0.0
O150 O 0.90525 0.24802 0.52932 0.0
O151 O 0.9498 0.28019 0.56051 0.0
H152 H 0.86254 0.2523 0.59354 0.0
H153 H 0.83256 0.26518 0.54533 0.0
H154 H 0.83699 0.28933 0.60388 0.0
H155 H 0.80718 0.30158 0.55651 0.0
H156 H 0.99881 0.17916 0.5699 0.0
H157 H 0.89434 0.14798 0.53434 0.0
H158 H 0.96276 0.20952 0.57404 0.0
H159 H 0.93178 0.11894 0.53081 0.0
H160 H 0.75495 0.09056 0.53951 0.0
H161 H 0.82748 0.12597 0.49847 0.0
H162 H 0.96156 0.29839 0.62158 0.0
H163 H 0.92756 0.18438 0.62162 0.0
H164 H 0.94393 0.28068 0.50335 0.0
H165 H 0.83764 0.23275 0.52442 0.0
H166 H 0.92019 0.29528 0.47881 0.0
H167 H 0.81583 0.24855 0.49962 0.0
H168 H 0.97127 0.30696 0.53098 0.0
H169 H 0.99499 0.32774 0.58176 0.0
H170 H 0.02351 0.36744 0.52493 0.0
H171 H 0.04673 0.388 0.57481 0.0
H172 H 0.94697 0.39201 0.57387 0.0
H173 H 0.94577 0.39321 0.52159 0.0
H174 H 0.99525 0.21585 0.49867 0.0
H175 H 0.06537 0.27071 0.53935 0.0
Li176 Li 0.67442 0.90393 0.90535 0.0
Li177 Li 0.66408 0.87074 0.88063 0.0
Li178 Li 0.70149 0.93546 0.87921 0.0
Li179 Li 0.63447 0.90647 0.88431 0.0
C180 C 0.72959 0.88391 0.89053 0.0
N181 N 0.76457 0.84453 0.88737 0.0
C182 C 0.72805 0.86113 0.90302 0.0
C183 C 0.74947 0.8872 0.87656 0.0
C184 C 0.7458 0.84133 0.90116 0.0
C185 C 0.76679 0.8669 0.87515 0.0
C186 C 0.60989 0.82959 0.90325 0.0
C187 C 0.55859 0.76905 0.90337 0.0
N188 N 0.57483 0.75966 0.91504 0.0
C189 C 0.62585 0.81947 0.91539 0.0
C190 C 0.57577 0.80433 0.89733 0.0
C191 C 0.60777 0.78394 0.92115 0.0
C192 C 0.6557 0.90288 0.93827 0.0
N193 N 0.68351 0.91079 0.92798 0.0
C194 C 0.72674 0.94219 0.94885 0.0
C195 C 0.7185 0.9293 0.933 0.0
C196 C 0.69867 0.93577 0.95962 0.0
C197 C 0.66271 0.91501 0.95427 0.0
H198 H 0.6282 0.8889 0.9338 0.0
H199 H 0.74005 0.9358 0.92442 0.0
C200 C 0.67827 0.83751 0.85486 0.0
N201 N 0.66486 0.83021 0.87019 0.0
C202 C 0.68899 0.81529 0.84718 0.0
C203 C 0.67031 0.77691 0.87077 0.0
C204 C 0.65999 0.80007 0.87808 0.0
C205 C 0.68618 0.78514 0.85531 0.0
H206 H 0.68325 0.86215 0.84896 0.0
H207 H 0.6505 0.79518 0.89041 0.0
C208 C 0.685 0.97179 0.90755 0.0
N209 N 0.70479 0.01933 0.93323 0.0
C210 C 0.65852 0.97196 0.91743 0.0
C211 C 0.72153 0.996 0.91062 0.0
C212 C 0.66908 0.99616 0.93038 0.0
C213 C 0.73099 0.01978 0.92369 0.0
C214 C 0.636 0.88809 0.85253 0.0
C215 C 0.64074 0.90615 0.83784 0.0
C216 C 0.60588 0.85378 0.85473 0.0
C217 C 0.61505 0.88957 0.8256 0.0
C218 C 0.58082 0.83807 0.8422 0.0
N219 N 0.58587 0.85615 0.82802 0.0
C220 C 0.77502 0.98376 0.87305 0.0
C221 C 0.73316 0.99279 0.85773 0.0
C222 C 0.80399 0.01216 0.865 0.0
N223 N 0.74058 0.97465 0.86918 0.0
C224 C 0.76126 0.02134 0.84937 0.0
C225 C 0.79721 0.03115 0.85291 0.0
H226 H 0.77991 0.96875 0.88228 0.0
H227 H 0.70536 0.98488 0.85506 0.0
C228 C 0.57129 0.90801 0.89338 0.0
N229 N 0.59652 0.91723 0.88155 0.0
C230 C 0.54959 0.924 0.8939 0.0
C231 C 0.57871 0.95693 0.86951 0.0
C232 C 0.60011 0.94062 0.86955 0.0
C233 C 0.55392 0.94964 0.88211 0.0
H234 H 0.56973 0.89012 0.90302 0.0
H235 H 0.62126 0.94848 0.86062 0.0
O236 O 0.71164 0.90282 0.89195 0.0
O237 O 0.62685 0.86437 0.89762 0.0
O238 O 0.67527 0.94735 0.8952 0.0
O239 O 0.66082 0.9041 0.86466 0.0
H240 H 0.71326 0.85869 0.91401 0.0
H241 H 0.75092 0.90474 0.86678 0.0
H242 H 0.74463 0.82338 0.91069 0.0
H243 H 0.78186 0.86879 0.86432 0.0
H244 H 0.53227 0.74918 0.89883 0.0
H245 H 0.65193 0.83875 0.9203 0.0
H246 H 0.56255 0.81192 0.88823 0.0
H247 H 0.61993 0.77568 0.93047 0.0
H248 H 0.7548 0.9578 0.95253 0.0
H249 H 0.64029 0.90982 0.96211 0.0
H250 H 0.70084 0.82255 0.83521 0.0
H251 H 0.66801 0.75415 0.87756 0.0
H252 H 0.63014 0.95324 0.91527 0.0
H253 H 0.74235 0.99603 0.90315 0.0
H254 H 0.6489 0.99639 0.93822 0.0
H255 H 0.75916 0.03846 0.92631 0.0
H256 H 0.66398 0.93273 0.83594 0.0
H257 H 0.60209 0.83937 0.86594 0.0
H258 H 0.61831 0.90326 0.81418 0.0
H259 H 0.55739 0.81148 0.84374 0.0
H260 H 0.83132 0.01871 0.86798 0.0
H261 H 0.75495 0.03568 0.84031 0.0
H262 H 0.53066 0.91748 0.90379 0.0
H263 H 0.58328 0.97687 0.86032 0.0
Li264 Li 0.79069 0.6688 0.21177 0.0
Li265 Li 0.76116 0.67375 0.23752 0.0
Li266 Li 0.72434 0.63021 0.21575 0.0
Li267 Li 0.75218 0.69502 0.21154 0.0
C268 C 0.76747 0.60097 0.22529 0.0
N269 N 0.77475 0.54205 0.21741 0.0
C270 C 0.77907 0.58527 0.23693 0.0
C271 C 0.75955 0.58671 0.20964 0.0
C272 C 0.78259 0.55549 0.23271 0.0
C273 C 0.7634 0.5569 0.20589 0.0
C274 C 0.8131 0.74905 0.22191 0.0
C275 C 0.81269 0.80432 0.22746 0.0
N276 N 0.84084 0.82228 0.21706 0.0
C277 C 0.84218 0.7681 0.21136 0.0
C278 C 0.79837 0.76733 0.23012 0.0
C279 C 0.85578 0.8051 0.20905 0.0
C280 C 0.83984 0.69298 0.18683 0.0
N281 N 0.83421 0.67633 0.20143 0.0
C282 C 0.89405 0.68451 0.20094 0.0
C283 C 0.86015 0.67115 0.20844 0.0
C284 C 0.90115 0.70378 0.18632 0.0
C285 C 0.87323 0.70709 0.17909 0.0
H286 H 0.81906 0.69734 0.18167 0.0
H287 H 0.85524 0.65835 0.22018 0.0
C288 C 0.73273 0.65378 0.26843 0.0
N289 N 0.76074 0.68086 0.26022 0.0
C290 C 0.72379 0.65993 0.28389 0.0
C291 C 0.77398 0.72117 0.28254 0.0
C292 C 0.78212 0.71374 0.26711 0.0
C293 C 0.74362 0.69444 0.29091 0.0
H294 H 0.71585 0.6281 0.26252 0.0
H295 H 0.80398 0.73494 0.26024 0.0
C296 C 0.73107 0.65213 0.1827 0.0
N297 N 0.69069 0.63922 0.15483 0.0
C298 C 0.70069 0.65645 0.18266 0.0
C299 C 0.741 0.64139 0.16856 0.0
C300 C 0.68061 0.64977 0.16845 0.0
C301 C 0.7202 0.63493 0.15459 0.0
C302 C 0.68797 0.6693 0.23237 0.0
C303 C 0.65437 0.64996 0.2247 0.0
C304 C 0.69208 0.69231 0.24524 0.0
C305 C 0.62547 0.65385 0.23007 0.0
C306 C 0.66253 0.6955 0.25024 0.0
N307 N 0.63011 0.67635 0.24262 0.0
C308 C 0.66266 0.57416 0.22861 0.0
C309 C 0.65963 0.57395 0.20001 0.0
C310 C 0.62527 0.55153 0.22967 0.0
N311 N 0.67878 0.58628 0.21399 0.0
C312 C 0.62196 0.55162 0.20051 0.0
C313 C 0.60408 0.54166 0.21554 0.0
H314 H 0.67845 0.58468 0.23954 0.0
H315 H 0.67292 0.58358 0.18849 0.0
C316 C 0.76747 0.74518 0.18726 0.0
N317 N 0.74717 0.73164 0.20085 0.0
C318 C 0.76644 0.77254 0.17853 0.0
C319 C 0.72332 0.77132 0.19787 0.0
C320 C 0.72528 0.74404 0.20626 0.0
C321 C 0.74418 0.78599 0.18384 0.0
H322 H 0.78477 0.73488 0.18332 0.0
H323 H 0.70958 0.73312 0.21711 0.0
O324 O 0.76423 0.63032 0.22926 0.0
O325 O 0.79871 0.7126 0.22399 0.0
O326 O 0.75152 0.65902 0.19638 0.0
O327 O 0.7164 0.66512 0.22756 0.0
H328 H 0.78535 0.59605 0.2491 0.0
H329 H 0.7505 0.5984 0.20045 0.0
H330 H 0.79157 0.54308 0.2416 0.0
H331 H 0.75737 0.54558 0.19383 0.0
H332 H 0.8013 0.81871 0.2336 0.0
H333 H 0.85407 0.75449 0.20499 0.0
H334 H 0.7756 0.75294 0.23819 0.0
H335 H 0.87818 0.82014 0.20086 0.0
H336 H 0.9151 0.68177 0.20694 0.0
H337 H 0.8777 0.72182 0.16786 0.0
H338 H 0.70064 0.63826 0.28999 0.0
H339 H 0.78994 0.74822 0.28739 0.0
H340 H 0.69264 0.66478 0.19347 0.0
H341 H 0.76451 0.63802 0.16838 0.0
H342 H 0.65701 0.65296 0.16827 0.0
H343 H 0.72753 0.62653 0.14356 0.0
H344 H 0.65048 0.63204 0.21472 0.0
H345 H 0.71783 0.7078 0.25125 0.0
H346 H 0.59933 0.63893 0.22427 0.0
H347 H 0.66539 0.71323 0.26018 0.0
H348 H 0.61293 0.54368 0.24152 0.0
H349 H 0.60693 0.54463 0.18928 0.0
H350 H 0.78341 0.7835 0.16793 0.0
H351 H 0.70556 0.78072 0.20229 0.0
Li352 Li 0.13349 0.80075 0.55032 0.0
Li353 Li 0.0998 0.7711 0.5743 0.0
Li354 Li 0.10426 0.73559 0.55009 0.0
Li355 Li 0.07063 0.77067 0.54799 0.0
C356 C 0.17894 0.78945 0.56703 0.0
N357 N 0.25309 0.83202 0.56968 0.0
C358 C 0.19396 0.82142 0.57602 0.0
C359 C 0.20151 0.77888 0.55952 0.0
C360 C 0.23156 0.84267 0.57716 0.0
C361 C 0.23898 0.80083 0.56098 0.0
C362 C 0.07934 0.82238 0.57129 0.0
C363 C 0.0238 0.80672 0.58534 0.0
N364 N 0.03728 0.84208 0.5893 0.0
C365 C 0.09265 0.85857 0.57555 0.0
C366 C 0.04466 0.79626 0.57628 0.0
C367 C 0.07096 0.86798 0.58463 0.0
C368 C 0.16859 0.87379 0.54203 0.0
N369 N 0.17403 0.84501 0.54174 0.0
C370 C 0.22809 0.87918 0.52608 0.0
C371 C 0.20332 0.84724 0.53406 0.0
C372 C 0.22269 0.90912 0.52601 0.0
C373 C 0.19259 0.90609 0.53432 0.0
H374 H 0.14457 0.87119 0.54761 0.0
H375 H 0.20672 0.82384 0.53349 0.0
C376 C 0.08036 0.73137 0.60277 0.0
N377 N 0.09129 0.76521 0.59712 0.0
C378 C 0.06641 0.72151 0.61839 0.0
C379 C 0.0769 0.78207 0.62244 0.0
C380 C 0.09121 0.79093 0.60681 0.0
C381 C 0.06348 0.7467 0.62824 0.0
H382 H 0.08061 0.71142 0.59479 0.0
H383 H 0.10073 0.81788 0.60222 0.0
C384 C 0.12147 0.78483 0.51914 0.0
N385 N 0.15895 0.82321 0.49208 0.0
C386 C 0.11553 0.81179 0.51282 0.0
C387 C 0.14613 0.77708 0.51162 0.0
C388 C 0.13488 0.83101 0.49917 0.0
C389 C 0.16486 0.79684 0.49795 0.0
C390 C 0.0273 0.70017 0.56309 0.0
C391 C 0.01424 0.67533 0.55035 0.0
C392 C 0.00565 0.69394 0.57677 0.0
C393 C 0.9798 0.64485 0.55145 0.0
C394 C 0.97132 0.66316 0.57741 0.0
N395 N 0.95921 0.63944 0.56485 0.0
C396 C 0.09045 0.66727 0.5586 0.0
C397 C 0.09081 0.67525 0.53021 0.0
C398 C 0.07422 0.62987 0.55674 0.0
N399 N 0.0974 0.68892 0.54548 0.0
C400 C 0.07462 0.63789 0.52778 0.0
C401 C 0.06492 0.61451 0.5412 0.0
H402 H 0.09488 0.67882 0.57061 0.0
H403 H 0.0955 0.69296 0.52002 0.0
C404 C 0.02073 0.79432 0.53903 0.0
N405 N 0.03026 0.76853 0.53722 0.0
C406 C 0.99052 0.79107 0.53105 0.0
C407 C 0.98231 0.73655 0.51831 0.0
C408 C 0.01236 0.74057 0.52676 0.0
C409 C 0.97069 0.76175 0.52057 0.0
H410 H 0.03652 0.81763 0.54655 0.0
H411 H 0.0218 0.72169 0.52477 0.0
O412 O 0.14227 0.76845 0.56569 0.0
O413 O 0.10076 0.81276 0.56275 0.0
O414 O 0.10342 0.76633 0.5327 0.0
O415 O 0.0614 0.72983 0.56238 0.0
H416 H 0.17672 0.82984 0.58192 0.0
H417 H 0.19017 0.75413 0.55255 0.0
H418 H 0.24362 0.86762 0.58398 0.0
H419 H 0.25684 0.79313 0.55517 0.0
H420 H 0.99689 0.78673 0.58921 0.0
H421 H 0.1196 0.87918 0.57204 0.0
H422 H 0.03375 0.76833 0.57302 0.0
H423 H 0.08097 0.89586 0.58801 0.0
H424 H 0.25088 0.88022 0.51982 0.0
H425 H 0.18665 0.92796 0.53429 0.0
H426 H 0.05625 0.69394 0.6224 0.0
H427 H 0.07562 0.80239 0.6298 0.0
H428 H 0.09655 0.81812 0.51855 0.0
H429 H 0.15111 0.75638 0.51643 0.0
H430 H 0.13084 0.85219 0.49423 0.0
H431 H 0.18424 0.79134 0.49206 0.0
H432 H 0.03042 0.67951 0.53967 0.0
H433 H 0.01513 0.71261 0.58683 0.0
H434 H 0.96945 0.62547 0.54165 0.0
H435 H 0.95433 0.6581 0.58792 0.0
H436 H 0.06678 0.61308 0.56746 0.0
H437 H 0.06829 0.62733 0.51558 0.0
H438 H 0.98269 0.81124 0.53321 0.0
H439 H 0.96868 0.7142 0.50994 0.0
Li440 Li 0.32137 0.09505 0.90531 0.0
Li441 Li 0.33272 0.13413 0.8807 0.0
Li442 Li 0.29905 0.06976 0.87858 0.0
Li443 Li 0.36347 0.09853 0.88358 0.0
C444 C 0.25056 0.08554 0.88828 0.0
N445 N 0.17808 0.05242 0.88028 0.0
C446 C 0.23898 0.09942 0.87579 0.0
C447 C 0.22526 0.05493 0.89676 0.0
C448 C 0.20221 0.08228 0.87193 0.0
C449 C 0.18875 0.03853 0.89251 0.0
C450 C 0.40094 0.16925 0.89526 0.0
C451 C 0.44776 0.20931 0.87684 0.0
N452 N 0.46656 0.23094 0.88949 0.0
C453 C 0.42073 0.19184 0.90807 0.0
C454 C 0.41454 0.178 0.8795 0.0
C455 C 0.45385 0.22292 0.90491 0.0
C456 C 0.33406 0.07658 0.93583 0.0
N457 N 0.31253 0.08649 0.92787 0.0
C458 C 0.27168 0.06812 0.95025 0.0
C459 C 0.28238 0.08359 0.93488 0.0
C460 C 0.29216 0.05547 0.95839 0.0
C461 C 0.32434 0.06091 0.95116 0.0
H462 H 0.35743 0.07849 0.92978 0.0
H463 H 0.26557 0.09137 0.92818 0.0
C464 C 0.34186 0.18618 0.85687 0.0
N465 N 0.33259 0.17623 0.87255 0.0
C466 C 0.3341 0.21111 0.84956 0.0
C467 C 0.30881 0.21635 0.87486 0.0
C468 C 0.31707 0.19131 0.88168 0.0
C469 C 0.3164 0.22585 0.85843 0.0
H470 H 0.35372 0.17348 0.84981 0.0
H471 H 0.30913 0.18226 0.89401 0.0
C472 C 0.3122 0.02157 0.89968 0.0
N473 N 0.28867 0.9522 0.91085 0.0
C474 C 0.32708 0.00134 0.8935 0.0
C475 C 0.2852 0.0063 0.91151 0.0
C476 C 0.31484 0.96638 0.8993 0.0
C477 C 0.27373 0.97128 0.91701 0.0
C478 C 0.34393 0.08626 0.85133 0.0
C479 C 0.33602 0.05048 0.85304 0.0
C480 C 0.35766 0.10416 0.83663 0.0
C481 C 0.34206 0.03321 0.84007 0.0
C482 C 0.36335 0.08597 0.82393 0.0
N483 N 0.35551 0.05117 0.8259 0.0
C484 C 0.24975 0.04124 0.85292 0.0
C485 C 0.2415 0.99754 0.8727 0.0
C486 C 0.22092 0.01515 0.84385 0.0
N487 N 0.25941 0.03204 0.86706 0.0
C488 C 0.213 0.97056 0.86392 0.0
C489 C 0.20253 0.97929 0.84933 0.0
H490 H 0.26444 0.06894 0.84874 0.0
H491 H 0.24901 0.99075 0.88399 0.0
C492 C 0.40986 0.07541 0.89402 0.0
N493 N 0.40443 0.09181 0.88111 0.0
C494 C 0.43232 0.06049 0.89272 0.0
C495 C 0.44641 0.08297 0.86534 0.0
C496 C 0.42307 0.09696 0.86709 0.0
C497 C 0.45029 0.06315 0.87807 0.0
H498 H 0.39459 0.07155 0.90501 0.0
H499 H 0.41864 0.11041 0.85701 0.0
O500 O 0.28656 0.10132 0.89193 0.0
O501 O 0.36851 0.13873 0.89822 0.0
O502 O 0.32444 0.05626 0.89438 0.0
O503 O 0.33863 0.10396 0.86393 0.0
H504 H 0.2582 0.12285 0.86898 0.0
H505 H 0.23377 0.04363 0.90635 0.0
H506 H 0.1929 0.0926 0.86223 0.0
H507 H 0.16892 0.01468 0.89889 0.0
H508 H 0.4586 0.21641 0.86472 0.0
H509 H 0.41057 0.1854 0.92034 0.0
H510 H 0.39975 0.16089 0.86942 0.0
H511 H 0.46945 0.24066 0.91472 0.0
H512 H 0.24698 0.06498 0.95545 0.0
H513 H 0.34074 0.05118 0.95682 0.0
H514 H 0.34095 0.21795 0.83695 0.0
H515 H 0.29478 0.22655 0.88215 0.0
H516 H 0.34784 0.01238 0.8843 0.0
H517 H 0.27268 0.02097 0.91622 0.0
H518 H 0.32617 0.95051 0.89462 0.0
H519 H 0.25283 0.9592 0.92614 0.0
H520 H 0.32523 0.0361 0.86422 0.0
H521 H 0.3641 0.13189 0.83505 0.0
H522 H 0.33605 0.00552 0.84127 0.0
H523 H 0.37405 0.09956 0.81252 0.0
H524 H 0.21348 0.02271 0.8326 0.0
H525 H 0.199 0.94317 0.86859 0.0
H526 H 0.43371 0.0452 0.90286 0.0
H527 H 0.46035 0.08673 0.85395 0.0
Li528 Li 0.70536 0.7645 0.45574 0.0
Li529 Li 0.64151 0.73146 0.45297 0.0
Li530 Li 0.67925 0.76719 0.43027 0.0
Li531 Li 0.67392 0.79739 0.45532 0.0
C532 C 0.67407 0.69238 0.44462 0.0
N533 N 0.66406 0.62517 0.45273 0.0
C534 C 0.67537 0.68362 0.46081 0.0
C535 C 0.66774 0.66696 0.43255 0.0
C536 C 0.67025 0.64952 0.46466 0.0
C537 C 0.66273 0.63313 0.4369 0.0
C538 C 0.64673 0.75941 0.48364 0.0
C539 C 0.59166 0.75733 0.49213 0.0
N540 N 0.60045 0.75599 0.50783 0.0
C541 C 0.65525 0.75809 0.49985 0.0
C542 C 0.6147 0.7591 0.47972 0.0
C543 C 0.63149 0.75633 0.51191 0.0
C544 C 0.76069 0.78679 0.47831 0.0
N545 N 0.74632 0.76569 0.46501 0.0
C546 C 0.79325 0.75085 0.46468 0.0
C547 C 0.76186 0.74791 0.45808 0.0
C548 C 0.80893 0.77287 0.47826 0.0
C549 C 0.79244 0.79105 0.48511 0.0
H550 H 0.74779 0.80082 0.48341 0.0
H551 H 0.75029 0.73203 0.44727 0.0
C552 C 0.58311 0.66406 0.44428 0.0
N553 N 0.60082 0.68452 0.45738 0.0
C554 C 0.56 0.62677 0.44588 0.0
C555 C 0.57238 0.63251 0.47457 0.0
C556 C 0.59545 0.66962 0.4724 0.0
C557 C 0.55507 0.61038 0.46114 0.0
H558 H 0.58874 0.67637 0.4324 0.0
H559 H 0.61096 0.68587 0.48254 0.0
C560 C 0.75417 0.8251 0.44231 0.0
N561 N 0.82871 0.85768 0.44264 0.0
C562 C 0.77465 0.8552 0.45213 0.0
C563 C 0.77162 0.81174 0.43256 0.0
C564 C 0.81231 0.87125 0.45216 0.0
C565 C 0.80932 0.82855 0.43292 0.0
C566 C 0.62586 0.78751 0.42996 0.0
C567 C 0.65314 0.818 0.42211 0.0
C568 C 0.58987 0.77905 0.4284 0.0
C569 C 0.64389 0.83949 0.41281 0.0
C570 C 0.58173 0.80125 0.419 0.0
N571 N 0.60868 0.83076 0.41146 0.0
C572 C 0.66641 0.73422 0.40002 0.0
C573 C 0.71345 0.79542 0.39977 0.0
C574 C 0.67539 0.72907 0.38439 0.0
N575 N 0.68604 0.76668 0.40751 0.0
C576 C 0.72336 0.79149 0.3841 0.0
C577 C 0.70494 0.75763 0.37638 0.0
H578 H 0.64504 0.71175 0.40657 0.0
H579 H 0.72887 0.82087 0.40606 0.0
C580 C 0.69976 0.84928 0.47875 0.0
N581 N 0.67791 0.83988 0.46555 0.0
C582 C 0.708 0.88022 0.4876 0.0
C583 C 0.67102 0.89187 0.46924 0.0
C584 C 0.66319 0.86026 0.46074 0.0
C585 C 0.69382 0.90223 0.48289 0.0
H586 H 0.7115 0.83296 0.48223 0.0
H587 H 0.64575 0.85237 0.45026 0.0
O588 O 0.67763 0.72512 0.44059 0.0
O589 O 0.67009 0.76148 0.47178 0.0
O590 O 0.71722 0.80834 0.44247 0.0
O591 O 0.634 0.76584 0.43913 0.0
H592 H 0.67981 0.70276 0.47035 0.0
H593 H 0.66649 0.6732 0.41997 0.0
H594 H 0.67101 0.64234 0.47715 0.0
H595 H 0.65769 0.61316 0.42769 0.0
H596 H 0.56678 0.75704 0.48928 0.0
H597 H 0.68003 0.75846 0.50306 0.0
H598 H 0.60761 0.76021 0.46728 0.0
H599 H 0.63774 0.75527 0.52451 0.0
H600 H 0.8056 0.73675 0.45904 0.0
H601 H 0.80386 0.80812 0.49566 0.0
H602 H 0.54697 0.61079 0.43522 0.0
H603 H 0.56988 0.62099 0.4865 0.0
H604 H 0.76163 0.86598 0.45971 0.0
H605 H 0.75616 0.78814 0.42505 0.0
H606 H 0.82848 0.89445 0.45976 0.0
H607 H 0.82315 0.81829 0.42555 0.0
H608 H 0.68116 0.82526 0.42325 0.0
H609 H 0.56845 0.75555 0.43441 0.0
H610 H 0.66473 0.86318 0.40669 0.0
H611 H 0.55398 0.79502 0.4177 0.0
H612 H 0.66063 0.7024 0.37903 0.0
H613 H 0.74595 0.81439 0.37831 0.0
H614 H 0.72624 0.88735 0.4978 0.0
H615 H 0.65935 0.90796 0.46522 0.0
Li616 Li 0.94551 0.70123 0.78774 0.0
Li617 Li 0.9099 0.63745 0.78535 0.0
Li618 Li 0.91224 0.67484 0.76269 0.0
Li619 Li 0.88104 0.67372 0.78866 0.0
C620 C 0.97742 0.66033 0.77393 0.0
N621 N 0.02615 0.63617 0.77795 0.0
C622 C 0.99436 0.66416 0.78887 0.0
C623 C 0.98541 0.64434 0.76103 0.0
C624 C 0.01892 0.6518 0.79065 0.0
C625 C 0.01007 0.63224 0.76331 0.0
C626 C 0.89228 0.64574 0.81663 0.0
C627 C 0.83835 0.5929 0.82617 0.0
N628 N 0.85025 0.60199 0.84166 0.0
C629 C 0.90394 0.65458 0.83263 0.0
C630 C 0.85919 0.61467 0.81335 0.0
C631 C 0.88232 0.63211 0.84512 0.0
C632 C 0.98528 0.75773 0.80923 0.0
N633 N 0.98828 0.74056 0.796 0.0
C634 C 0.05174 0.78179 0.79439 0.0
C635 C 0.02051 0.75201 0.78845 0.0
C636 C 0.04939 0.80014 0.80798 0.0
C637 C 0.01571 0.788 0.81541 0.0
H638 H 0.95913 0.74808 0.81483 0.0
H639 H 0.02187 0.7383 0.77771 0.0
C640 C 0.90585 0.57175 0.7769 0.0
N641 N 0.91238 0.59457 0.78954 0.0
C642 C 0.91736 0.54632 0.7775 0.0
C643 C 0.94075 0.56734 0.80436 0.0
C644 C 0.92846 0.59211 0.80332 0.0
C645 C 0.93618 0.54475 0.79115 0.0
H646 H 0.89407 0.57508 0.7659 0.0
H647 H 0.93443 0.6113 0.813 0.0
C648 C 0.93673 0.75219 0.77447 0.0
N649 N 0.98295 0.82614 0.77372 0.0
C650 C 0.92914 0.77502 0.7837 0.0
C651 C 0.96767 0.76702 0.76475 0.0
C652 C 0.95288 0.81233 0.78318 0.0
C653 C 0.99074 0.80445 0.76456 0.0
C654 C 0.83766 0.62649 0.7641 0.0
C655 C 0.8366 0.655 0.75628 0.0
C656 C 0.80775 0.59161 0.76323 0.0
C657 C 0.80557 0.64807 0.74771 0.0
C658 C 0.77721 0.5858 0.75456 0.0
N659 N 0.77676 0.61391 0.74705 0.0
C660 C 0.92125 0.65561 0.7313 0.0
C661 C 0.92095 0.71088 0.73265 0.0
C662 C 0.93356 0.66272 0.71532 0.0
N663 N 0.91653 0.68021 0.73976 0.0
C664 C 0.93339 0.71916 0.71672 0.0
C665 C 0.94115 0.69553 0.70802 0.0
H666 H 0.91723 0.6313 0.73725 0.0
H667 H 0.91684 0.72994 0.73961 0.0
C668 C 0.86097 0.70679 0.8114 0.0
N669 N 0.84561 0.68208 0.79934 0.0
C670 C 0.84158 0.7207 0.81919 0.0
C671 C 0.78959 0.68171 0.80285 0.0
C672 C 0.81025 0.66864 0.79522 0.0
C673 C 0.80569 0.70894 0.81467 0.0
H674 H 0.88904 0.71695 0.8145 0.0
H675 H 0.79833 0.64879 0.7857 0.0
O676 O 0.95238 0.67122 0.77209 0.0
O677 O 0.91328 0.66774 0.80437 0.0
O678 O 0.91436 0.71549 0.77515 0.0
O679 O 0.86763 0.63232 0.77258 0.0
H680 H 0.98803 0.67583 0.79909 0.0
H681 H 0.9726 0.64108 0.74939 0.0
H682 H 0.03198 0.65433 0.80217 0.0
H683 H 0.01635 0.61966 0.75344 0.0
H684 H 0.81271 0.56878 0.82381 0.0
H685 H 0.92946 0.67859 0.83536 0.0
H686 H 0.8496 0.60733 0.80108 0.0
H687 H 0.89103 0.63862 0.85756 0.0
H688 H 0.07731 0.79074 0.7883 0.0
H689 H 0.01307 0.80151 0.82598 0.0
H690 H 0.9136 0.52966 0.76698 0.0
H691 H 0.95492 0.56683 0.81513 0.0
H692 H 0.90521 0.76414 0.79118 0.0
H693 H 0.97422 0.74972 0.75768 0.0
H694 H 0.9474 0.8303 0.79031 0.0
H695 H 0.01495 0.81624 0.75721 0.0
H696 H 0.85926 0.68222 0.75686 0.0
H697 H 0.80816 0.56927 0.76923 0.0
H698 H 0.80436 0.66988 0.74163 0.0
H699 H 0.75385 0.55894 0.75381 0.0
H700 H 0.93828 0.64328 0.70897 0.0
H701 H 0.93889 0.74481 0.71166 0.0
H702 H 0.8549 0.74131 0.82837 0.0
H703 H 0.76197 0.67194 0.79902 0.0
Li704 Li 0.24289 0.93813 0.1208 0.0
Li705 Li 0.27334 0.9034 0.11754 0.0
Li706 Li 0.23659 0.90784 0.09513 0.0
Li707 Li 0.20673 0.8731 0.12071 0.0
C708 C 0.30719 0.97873 0.10021 0.0
N709 N 0.36175 0.04522 0.08951 0.0
C710 C 0.34114 0.99526 0.10768 0.0
C711 C 0.30104 0.99625 0.08733 0.0
C712 C 0.36834 0.02881 0.10209 0.0
C713 C 0.32894 0.02977 0.08208 0.0
C714 C 0.26484 0.91907 0.14997 0.0
C715 C 0.2764 0.91568 0.17829 0.0
N716 N 0.30593 0.94936 0.17742 0.0
C717 C 0.29522 0.95368 0.14938 0.0
C718 C 0.25524 0.89991 0.16454 0.0
C719 C 0.31567 0.96852 0.16337 0.0
C720 C 0.22243 0.97186 0.14372 0.0
N721 N 0.24546 0.97918 0.13108 0.0
C722 C 0.26919 0.04259 0.1344 0.0
C723 C 0.26859 0.0137 0.1263 0.0
C724 C 0.24545 0.03575 0.14736 0.0
C725 C 0.22172 0.99991 0.152 0.0
H726 H 0.2045 0.94411 0.14729 0.0
H727 H 0.28652 0.01906 0.11624 0.0
C728 C 0.34016 0.91681 0.10713 0.0
N729 N 0.31929 0.90648 0.12067 0.0
C730 C 0.37741 0.93064 0.10825 0.0
C731 C 0.37064 0.91947 0.13704 0.0
C732 C 0.3334 0.90611 0.13538 0.0
C733 C 0.3933 0.93342 0.12344 0.0
H734 H 0.32827 0.91705 0.0956 0.0
H735 H 0.31633 0.8976 0.14599 0.0
C736 C 0.18064 0.92742 0.10972 0.0
N737 N 0.14812 0.96892 0.11379 0.0
C738 C 0.15035 0.91531 0.11973 0.0
C739 C 0.19412 0.96044 0.10164 0.0
C740 C 0.13435 0.93672 0.12165 0.0
C741 C 0.17739 0.9811 0.1039 0.0
C742 C 0.23398 0.83089 0.10807 0.0
C743 C 0.22699 0.80475 0.09628 0.0
C744 C 0.23922 0.82435 0.12414 0.0
C745 C 0.22534 0.7724 0.10077 0.0
C746 C 0.23736 0.79168 0.12814 0.0
N747 N 0.23051 0.76659 0.11648 0.0
C748 C 0.26686 0.9187 0.06449 0.0
C749 C 0.21426 0.92413 0.06535 0.0
C750 C 0.27572 0.93469 0.0492 0.0
N751 N 0.23729 0.91493 0.07242 0.0
C752 C 0.2222 0.94044 0.05007 0.0
C753 C 0.25411 0.94724 0.04208 0.0
H754 H 0.28502 0.91175 0.07056 0.0
H755 H 0.19123 0.92134 0.07203 0.0
C756 C 0.15613 0.84522 0.14522 0.0
N757 N 0.16381 0.83545 0.13076 0.0
C758 C 0.12328 0.82295 0.15297 0.0
C759 C 0.10722 0.77977 0.13124 0.0
C760 C 0.14045 0.80319 0.12377 0.0
C761 C 0.09794 0.79005 0.14586 0.0
H762 H 0.17497 0.87119 0.15042 0.0
H763 H 0.14699 0.7962 0.11217 0.0
O764 O 0.28035 0.94547 0.10531 0.0
O765 O 0.24433 0.90392 0.13644 0.0
O766 O 0.19729 0.9073 0.10803 0.0
O767 O 0.23544 0.86256 0.10382 0.0
H768 H 0.34659 0.98244 0.11771 0.0
H769 H 0.27496 0.98436 0.0815 0.0
H770 H 0.39472 0.04179 0.10775 0.0
H771 H 0.32449 0.04353 0.07213 0.0
H772 H 0.26934 0.90112 0.18964 0.0
H773 H 0.30289 0.96892 0.13824 0.0
H774 H 0.23177 0.87307 0.1652 0.0
H775 H 0.33928 0.99527 0.16307 0.0
H776 H 0.28765 0.06997 0.13043 0.0
H777 H 0.20323 0.99374 0.16204 0.0
H778 H 0.39384 0.94054 0.09743 0.0
H779 H 0.38182 0.92101 0.14897 0.0
H780 H 0.13939 0.88973 0.12599 0.0
H781 H 0.21767 0.97035 0.09395 0.0
H782 H 0.11101 0.92776 0.12943 0.0
H783 H 0.18778 0.00687 0.09785 0.0
H784 H 0.22284 0.80941 0.08379 0.0
H785 H 0.24467 0.84419 0.13345 0.0
H786 H 0.21993 0.75191 0.09178 0.0
H787 H 0.24136 0.78626 0.14053 0.0
H788 H 0.30019 0.93873 0.04337 0.0
H789 H 0.20486 0.94982 0.04512 0.0
H790 H 0.11745 0.83178 0.16429 0.0
H791 H 0.08836 0.75472 0.1253 0.0
Li792 Li 0.36659 0.27109 0.45314 0.0
Li793 Li 0.30171 0.23517 0.45836 0.0
Li794 Li 0.33814 0.20617 0.45643 0.0
Li795 Li 0.32478 0.23064 0.4321 0.0
C796 C 0.36098 0.26548 0.48452 0.0
N797 N 0.40152 0.31593 0.50787 0.0
C798 C 0.34612 0.28299 0.49324 0.0
C799 C 0.39638 0.27349 0.48774 0.0
C800 C 0.36707 0.30843 0.50499 0.0
C801 C 0.41646 0.29913 0.49956 0.0
C802 C 0.32436 0.2931 0.42995 0.0
C803 C 0.28938 0.30473 0.41041 0.0
N804 N 0.32049 0.33153 0.40383 0.0
C805 C 0.35599 0.32074 0.42296 0.0
C806 C 0.29076 0.28506 0.42362 0.0
C807 C 0.35346 0.33988 0.40979 0.0
C808 C 0.44022 0.33242 0.45218 0.0
N809 N 0.40516 0.31953 0.45654 0.0
C810 C 0.41702 0.37918 0.46272 0.0
C811 C 0.39348 0.34199 0.46195 0.0
C812 C 0.4532 0.39373 0.45784 0.0
C813 C 0.4649 0.36969 0.4528 0.0
H814 H 0.44868 0.31401 0.44768 0.0
H815 H 0.36524 0.33108 0.46495 0.0
C816 C 0.24671 0.21127 0.48176 0.0
N817 N 0.26372 0.23575 0.46975 0.0
C818 C 0.21798 0.21062 0.49008 0.0
C819 C 0.22637 0.26177 0.47412 0.0
C820 C 0.25469 0.26119 0.46603 0.0
C821 C 0.20728 0.23593 0.48617 0.0
H822 H 0.25531 0.19208 0.48478 0.0
H823 H 0.26965 0.28121 0.45688 0.0
C824 C 0.38841 0.21642 0.43671 0.0
N825 N 0.41751 0.17177 0.43337 0.0
C826 C 0.37457 0.18895 0.42512 0.0
C827 C 0.4171 0.22133 0.44657 0.0
C828 C 0.38966 0.16663 0.42362 0.0
C829 C 0.43143 0.19843 0.44471 0.0
C830 C 0.25431 0.16957 0.44937 0.0
C831 C 0.2422 0.14048 0.46011 0.0
C832 C 0.22938 0.17802 0.44263 0.0
C833 C 0.20539 0.12025 0.46384 0.0
C834 C 0.19282 0.15722 0.4467 0.0
N835 N 0.18167 0.12898 0.45713 0.0
C836 C 0.35319 0.16924 0.48095 0.0
C837 C 0.32229 0.13286 0.45834 0.0
C838 C 0.34592 0.13863 0.48996 0.0
N839 N 0.34024 0.16577 0.46565 0.0
C840 C 0.31392 0.10139 0.46701 0.0
C841 C 0.32438 0.1039 0.48333 0.0
H842 H 0.36707 0.19556 0.48659 0.0
H843 H 0.31165 0.13071 0.44626 0.0
C844 C 0.34411 0.25341 0.4001 0.0
N845 N 0.31604 0.22923 0.40933 0.0
C846 C 0.33779 0.26239 0.38466 0.0
C847 C 0.27431 0.21879 0.3879 0.0
C848 C 0.28187 0.21069 0.4033 0.0
C849 C 0.30225 0.24613 0.37866 0.0
H850 H 0.371 0.26787 0.40523 0.0
H851 H 0.26006 0.19135 0.41078 0.0
O852 O 0.34119 0.24102 0.47274 0.0
O853 O 0.32625 0.27351 0.44268 0.0
O854 O 0.3733 0.23781 0.43867 0.0
O855 O 0.29036 0.19004 0.4457 0.0
H856 H 0.31884 0.27726 0.49089 0.0
H857 H 0.4084 0.26042 0.48101 0.0
H858 H 0.35598 0.3223 0.51178 0.0
H859 H 0.44396 0.30575 0.5021 0.0
H860 H 0.26356 0.2986 0.40534 0.0
H861 H 0.38229 0.32698 0.42741 0.0
H862 H 0.26597 0.26359 0.42872 0.0
H863 H 0.37773 0.36119 0.40423 0.0
H864 H 0.40638 0.39641 0.46634 0.0
H865 H 0.49259 0.37959 0.44906 0.0
H866 H 0.20399 0.19019 0.49926 0.0
H867 H 0.2197 0.28241 0.47105 0.0
H868 H 0.3522 0.18473 0.41747 0.0
H869 H 0.428 0.24245 0.45563 0.0
H870 H 0.37915 0.14514 0.41474 0.0
H871 H 0.45355 0.20179 0.45229 0.0
H872 H 0.26096 0.13385 0.46574 0.0
H873 H 0.23822 0.20093 0.43465 0.0
H874 H 0.19573 0.09776 0.47217 0.0
H875 H 0.17335 0.16367 0.44165 0.0
H876 H 0.35546 0.14213 0.50233 0.0
H877 H 0.29706 0.07539 0.46134 0.0
H878 H 0.36025 0.28311 0.37783 0.0
H879 H 0.24652 0.20553 0.38377 0.0
Li880 Li 0.0648 0.29734 0.78856 0.0
Li881 Li 0.09261 0.36249 0.78458 0.0
Li882 Li 0.09047 0.32278 0.76241 0.0
Li883 Li 0.1304 0.33454 0.78608 0.0
C884 C 0.02742 0.32145 0.76176 0.0
N885 N 0.98443 0.31891 0.73619 0.0
C886 C 0.03041 0.35335 0.75561 0.0
C887 C 0.00248 0.28825 0.7549 0.0
C888 C 0.00841 0.35149 0.7427 0.0
C889 C 0.98106 0.28755 0.74196 0.0
C890 C 0.09789 0.35525 0.81591 0.0
C891 C 0.12598 0.40868 0.83258 0.0
N892 N 0.09509 0.39543 0.84146 0.0
C893 C 0.06649 0.34203 0.82524 0.0
C894 C 0.12795 0.38873 0.81963 0.0
C895 C 0.06559 0.3628 0.83809 0.0
C896 C 0.03662 0.24223 0.81186 0.0
N897 N 0.02766 0.25858 0.8001 0.0
C898 C 0.96485 0.22031 0.80546 0.0
C899 C 0.99271 0.24866 0.79692 0.0
C900 C 0.97317 0.20227 0.81744 0.0
C901 C 0.00961 0.21365 0.82068 0.0
H902 H 0.06478 0.25139 0.81434 0.0
H903 H 0.98648 0.26301 0.7879 0.0
C904 C 0.10324 0.43559 0.78541 0.0
N905 N 0.08237 0.40023 0.78964 0.0
C906 C 0.08985 0.45948 0.78722 0.0
C907 C 0.03449 0.41025 0.79805 0.0
C908 C 0.04884 0.3875 0.79605 0.0
C909 C 0.05461 0.44659 0.79326 0.0
H910 H 0.12953 0.44486 0.78002 0.0
H911 H 0.03253 0.3591 0.79898 0.0
C912 C 0.08499 0.25205 0.77829 0.0
N913 N 0.05775 0.17994 0.78589 0.0
C914 C 0.10511 0.24147 0.78787 0.0
C915 C 0.05106 0.22587 0.77254 0.0
C916 C 0.09088 0.20491 0.79157 0.0
C917 C 0.03773 0.18959 0.77654 0.0
C918 C 0.16793 0.38737 0.7655 0.0
C919 C 0.17914 0.37754 0.75146 0.0
C920 C 0.19356 0.41405 0.77564 0.0
C921 C 0.21603 0.39449 0.74785 0.0
C922 C 0.23019 0.4303 0.77162 0.0
N923 N 0.24057 0.42026 0.75793 0.0
C924 C 0.0852 0.34327 0.73064 0.0
C925 C 0.06616 0.28105 0.73343 0.0
C926 C 0.06995 0.33729 0.71521 0.0
N927 N 0.08179 0.31507 0.73963 0.0
C928 C 0.05051 0.27383 0.71804 0.0
C929 C 0.05105 0.30195 0.70897 0.0
H930 H 0.09756 0.37001 0.73592 0.0
H931 H 0.06379 0.2591 0.7408 0.0
C932 C 0.17589 0.33343 0.81054 0.0
N933 N 0.173 0.33507 0.79421 0.0
C934 C 0.19965 0.32334 0.81726 0.0
C935 C 0.21871 0.31889 0.79029 0.0
C936 C 0.19438 0.32882 0.78407 0.0
C937 C 0.22063 0.31463 0.8071 0.0
H938 H 0.15782 0.33731 0.81837 0.0
H939 H 0.19076 0.32896 0.77114 0.0
O940 O 0.04939 0.32273 0.77413 0.0
O941 O 0.09909 0.33568 0.80308 0.0
O942 O 0.09826 0.28782 0.77471 0.0
O943 O 0.13203 0.37088 0.76933 0.0
H944 H 0.04991 0.37936 0.76052 0.0
H945 H 1.00007 0.26331 0.75932 0.0
H946 H 0.01059 0.37598 0.73778 0.0
H947 H 0.96189 0.26207 0.73647 0.0
H948 H 0.14898 0.43473 0.83557 0.0
H949 H 0.04296 0.31617 0.82248 0.0
H950 H 0.15246 0.39925 0.81253 0.0
H951 H 0.04141 0.35301 0.84537 0.0
H952 H 0.93712 0.21293 0.80286 0.0
H953 H 0.01713 0.20037 0.82979 0.0
H954 H 0.1062 0.48724 0.78325 0.0
H955 H 0.0075 0.39923 0.80299 0.0
H956 H 0.13132 0.2612 0.7925 0.0
H957 H 0.03478 0.23353 0.76537 0.0
H958 H 0.10614 0.19639 0.799 0.0
H959 H 0.01138 0.16913 0.77229 0.0
H960 H 0.15961 0.35687 0.74351 0.0
H961 H 0.18523 0.42202 0.78651 0.0
H962 H 0.22515 0.38708 0.73706 0.0
H963 H 0.25037 0.4509 0.77938 0.0
H964 H 0.07163 0.3599 0.70853 0.0
H965 H 0.03617 0.24617 0.71375 0.0
H966 H 0.1996 0.31997 0.83024 0.0
H967 H 0.23459 0.31293 0.78194 0.0
Li968 Li 0.72989 0.09497 0.11685 0.0
Li969 Li 0.76278 0.06308 0.12128 0.0
Li970 Li 0.7968 0.12838 0.11901 0.0
Li971 Li 0.76909 0.09076 0.09499 0.0
C972 C 0.75827 0.12056 0.14729 0.0
N973 N 0.75604 0.16584 0.17055 0.0
C974 C 0.76047 0.11385 0.16367 0.0
C975 C 0.75497 0.1503 0.14272 0.0
C976 C 0.75928 0.13706 0.17526 0.0
C977 C 0.75387 0.17287 0.15467 0.0
C978 C 0.70581 0.01548 0.1058 0.0
C979 C 0.69854 0.9578 0.09797 0.0
N980 N 0.66879 0.94089 0.1076 0.0
C981 C 0.67506 0.99754 0.11554 0.0
C982 C 0.71758 0.9955 0.09687 0.0
C983 C 0.65674 0.95981 0.11631 0.0
C984 C 0.66565 0.09102 0.1067 0.0
N985 N 0.68307 0.0891 0.12008 0.0
C986 C 0.62787 0.0621 0.1352 0.0
C987 C 0.66521 0.07566 0.13428 0.0
C988 C 0.60873 0.06211 0.12134 0.0
C989 C 0.62837 0.07779 0.10708 0.0
H990 H 0.68033 0.10072 0.09544 0.0
H991 H 0.67948 0.07332 0.1446 0.0
C992 C 0.78039 0.0091 0.12854 0.0
N993 N 0.75925 0.02327 0.13265 0.0
C994 C 0.7771 0.97918 0.13679 0.0
C995 C 0.73094 0.97962 0.15364 0.0
C996 C 0.73504 0.00948 0.14499 0.0
C997 C 0.75204 0.96404 0.14948 0.0
H998 H 0.79987 0.02106 0.1189 0.0
H999 H 0.71873 0.02156 0.14799 0.0
C1000 C 0.78482 0.16704 0.09477 0.0
N1001 N 0.8236 0.23376 0.08 0.0
C1002 C 0.8147 0.1748 0.08513 0.0
C1003 C 0.77454 0.19314 0.09688 0.0
C1004 C 0.83399 0.20869 0.07776 0.0
C1005 C 0.79453 0.22674 0.08932 0.0
C1006 C 0.83498 0.09556 0.09936 0.0
C1007 C 0.86685 0.12882 0.09768 0.0
C1008 C 0.83134 0.06529 0.09114 0.0
C1009 C 0.89446 0.13127 0.08773 0.0
C1010 C 0.85958 0.06884 0.08132 0.0
N1011 N 0.89029 0.10149 0.07983 0.0
C1012 C 0.85232 0.15531 0.1405 0.0
C1013 C 0.85664 0.20341 0.12456 0.0
C1014 C 0.88465 0.17857 0.14837 0.0
N1015 N 0.83912 0.1678 0.12873 0.0
C1016 C 0.88943 0.22775 0.1321 0.0
C1017 C 0.90402 0.21532 0.14411 0.0
H1018 H 0.83802 0.12682 0.14348 0.0
H1019 H 0.84575 0.21292 0.11522 0.0
C1020 C 0.73373 0.05986 0.0664 0.0
N1021 N 0.76784 0.08127 0.07212 0.0
C1022 C 0.72803 0.04603 0.05073 0.0
C1023 C 0.79266 0.0783 0.04655 0.0
C1024 C 0.79712 0.09161 0.06237 0.0
C1025 C 0.75773 0.05439 0.04068 0.0
H1026 H 0.71077 0.05258 0.07421 0.0
H1027 H 0.82404 0.10924 0.06693 0.0
O1028 O 0.75978 0.09823 0.13585 0.0
O1029 O 0.72473 0.05244 0.10523 0.0
O1030 O 0.76567 0.13412 0.10216 0.0
O1031 O 0.80784 0.09253 0.10924 0.0
H1032 H 0.76314 0.09097 0.16738 0.0
H1033 H 0.75324 0.15591 0.13012 0.0
H1034 H 0.76097 0.13221 0.18799 0.0
H1035 H 0.75131 0.19598 0.15131 0.0
H1036 H 0.70745 0.942 0.09119 0.0
H1037 H 0.66565 0.01258 0.12256 0.0
H1038 H 0.74132 0.00897 0.08927 0.0
H1039 H 0.63302 0.94557 0.12387 0.0
H1040 H 0.61397 0.05061 0.14649 0.0
H1041 H 0.61482 0.0779 0.09602 0.0
H1042 H 0.7943 0.96829 0.13343 0.0
H1043 H 0.71121 0.96856 0.16331 0.0
H1044 H 0.82308 0.155 0.08347 0.0
H1045 H 0.75137 0.18749 0.10428 0.0
H1046 H 0.85728 0.2151 0.07031 0.0
H1047 H 0.78694 0.24723 0.09086 0.0
H1048 H 0.87028 0.15256 0.10392 0.0
H1049 H 0.80675 0.03944 0.09208 0.0
H1050 H 0.9192 0.15687 0.08629 0.0
H1051 H 0.85701 0.04568 0.07482 0.0
H1052 H 0.89499 0.16751 0.15732 0.0
H1053 H 0.90332 0.2559 0.1285 0.0
H1054 H 0.70057 0.02856 0.04659 0.0
H1055 H 0.81637 0.08561 0.03923 0.0
H1056 H 0.92348 0.21816 0.17578 0.0
H1057 H 0.96594 0.26683 0.12928 0.0
H1058 H 0.02655 0.3015 0.14088 0.0
H1059 H 0.06836 0.31448 0.16378 0.0
H1060 H 0.02572 0.26346 0.20993 0.0
H1061 H 0.96458 0.23367 0.19896 0.0
C1062 C 0.94596 0.23642 0.16817 0.0
C1063 C 0.94006 0.23957 0.15162 0.0
C1064 C 0.98088 0.25588 0.17487 0.0
C1065 C 0.9695 0.26397 0.14206 0.0
C1066 C 0.00428 0.28363 0.14867 0.0
C1067 C 0.0457 0.29694 0.17147 0.0
C1068 C 0.05192 0.2913 0.1877 0.0
C1069 C 0.01043 0.27926 0.16499 0.0
C1070 C 0.02198 0.26885 0.19749 0.0
C1071 C 0.9869 0.25145 0.19118 0.0
H1072 H 0.75487 0.03551 0.53058 0.0
H1073 H 0.76873 0.09242 0.48564 0.0
H1074 H 0.73851 0.03509 0.47103 0.0
H1075 H 0.71288 0.96898 0.47065 0.0
H1076 H 0.69875 0.91222 0.51565 0.0
H1077 H 0.72384 0.96906 0.53053 0.0
C1078 C 0.75059 0.03539 0.51765 0.0
C1079 C 0.76447 0.0684 0.50925 0.0
C1080 C 0.73336 0.00224 0.50926 0.0
C1081 C 0.75894 0.06753 0.49242 0.0
C1082 C 0.74154 0.0347 0.48403 0.0
C1083 C 0.71458 0.96894 0.48374 0.0
C1084 C 0.7043 0.93631 0.49196 0.0
C1085 C 0.72936 0.00189 0.49226 0.0
C1086 C 0.70704 0.93695 0.50895 0.0
C1087 C 0.72133 0.96948 0.5175 0.0
H1088 H 0.75216 0.81283 0.84135 0.0
H1089 H 0.65769 0.71144 0.85362 0.0
H1090 H 0.68554 0.67849 0.84174 0.0
H1091 H 0.73744 0.67879 0.82782 0.0
H1092 H 0.83187 0.78112 0.81645 0.0
H1093 H 0.80326 0.81329 0.82783 0.0
C1094 C 0.73744 0.78349 0.84128 0.0
C1095 C 0.70269 0.76464 0.84819 0.0
C1096 C 0.7537 0.76487 0.83457 0.0
C1097 C 0.68446 0.72662 0.84837 0.0
C1098 C 0.70034 0.70779 0.84153 0.0
C1099 C 0.75155 0.7081 0.82778 0.0
C1100 C 0.78683 0.72751 0.82135 0.0
C1101 C 0.73501 0.72663 0.83457 0.0
C1102 C 0.80491 0.76553 0.82149 0.0
C1103 C 0.78853 0.78398 0.82795 0.0
H1104 H 0.94541 0.6779 0.17639 0.0
H1105 H 0.93987 0.7756 0.18091 0.0
H1106 H 1.00009 0.81074 0.16907 0.0
H1107 H 0.05386 0.81386 0.15699 0.0
H1108 H 0.05974 0.71664 0.15112 0.0
H1109 H 0.99992 0.68111 0.16368 0.0
C1110 C 0.95762 0.70689 0.17483 0.0
C1111 C 0.9383 0.72419 0.17951 0.0
C1112 C 0.99219 0.72696 0.16767 0.0
C1113 C 0.95418 0.76172 0.17731 0.0
C1114 C 0.9886 0.78182 0.17056 0.0
C1115 C 0.0422 0.78492 0.15858 0.0
C1116 C 0.0614 0.76799 0.15325 0.0
C1117 C 0.00778 0.76475 0.16563 0.0
C1118 C 0.0455 0.73033 0.15507 0.0
C1119 C 0.01136 0.71004 0.16232 0.0
H1120 H 0.31121 0.0354 0.47574 0.0
H1121 H 0.30231 0.09782 0.51477 0.0
H1122 H 0.27346 0.0442 0.53166 0.0
H1123 H 0.24703 0.97892 0.53504 0.0
H1124 H 0.25209 0.91496 0.49583 0.0
H1125 H 0.2862 0.96962 0.47952 0.0
C1126 C 0.30302 0.03733 0.48794 0.0
C1127 C 0.30935 0.07101 0.49388 0.0
C1128 C 0.28556 0.00595 0.49763 0.0
C1129 C 0.29874 0.07274 0.50985 0.0
C1130 C 0.28179 0.04188 0.51954 0.0
C1131 C 0.25557 0.97686 0.52292 0.0
C1132 C 0.24672 0.94272 0.51669 0.0
C1133 C 0.27457 0.00828 0.5135 0.0
C1134 C 0.25874 0.94082 0.50105 0.0
C1135 C 0.27801 0.97209 0.49164 0.0
H1136 H 0.28645 0.21698 0.82843 0.0
H1137 H 0.31678 0.28611 0.87041 0.0
H1138 H 0.29157 0.32071 0.85802 0.0
H1139 H 0.25892 0.33008 0.83559 0.0
H1140 H 0.22752 0.25949 0.79403 0.0
H1141 H 0.25621 0.22779 0.80569 0.0
C1142 C 0.28821 0.24003 0.83478 0.0
C1143 C 0.30357 0.2488 0.85038 0.0
C1144 C 0.27354 0.25978 0.8276 0.0
C1145 C 0.3048 0.27838 0.85849 0.0
C1146 C 0.29049 0.29831 0.85137 0.0
C1147 C 0.25834 0.30779 0.82906 0.0
C1148 C 0.24107 0.29751 0.81385 0.0
C1149 C 0.27437 0.28899 0.836 0.0
C1150 C 0.24111 0.26871 0.80556 0.0
C1151 C 0.25723 0.25019 0.81231 0.0
H1152 H 0.55222 0.49023 0.19564 0.0
H1153 H 0.56518 0.55572 0.23768 0.0
H1154 H 0.49997 0.52919 0.23972 0.0
H1155 H 0.43894 0.48759 0.22967 0.0
H1156 H 0.42534 0.42283 0.18737 0.0
H1157 H 0.49088 0.44983 0.18503 0.0
C1158 C 0.54084 0.49887 0.2052 0.0
C1159 C 0.56387 0.52453 0.21665 0.0
C1160 C 0.50305 0.48397 0.20616 0.0
C1161 C 0.54835 0.53523 0.22897 0.0
C1162 C 0.51094 0.52038 0.23005 0.0
C1163 C 0.45028 0.47931 0.21995 0.0
C1164 C 0.42712 0.4532 0.20873 0.0
C1165 C 0.48801 0.49466 0.21876 0.0
C1166 C 0.44243 0.44323 0.19607 0.0
C1167 C 0.47997 0.45842 0.1948 0.0
H1168 H 0.06963 0.56187 0.55797 0.0
H1169 H 0.00848 0.57695 0.52025 0.0
H1170 H 0.96803 0.5117 0.5186 0.0
H1171 H 0.94791 0.45022 0.52887 0.0
H1172 H 0.0088 0.43579 0.56693 0.0
H1173 H 0.05056 0.50073 0.56773 0.0
C1174 C 0.04743 0.55095 0.5494 0.0
C1175 C 0.0423 0.5745 0.53925 0.0
C1176 C 0.02373 0.51339 0.54874 0.0
C1177 C 0.01361 0.55962 0.52804 0.0
C1178 C 0.99014 0.52223 0.5272 0.0
C1179 C 0.97042 0.46128 0.53727 0.0
C1180 C 0.97473 0.43808 0.548 0.0
C1181 C 0.99466 0.49885 0.53762 0.0
C1182 C 0.00413 0.45298 0.55882 0.0
C1183 C 0.02832 0.49016 0.5592 0.0
H1184 H 0.48876 0.04905 0.9007 0.0
H1185 H 0.45727 0.03133 0.85037 0.0
H1186 H 0.487 0.9957 0.84708 0.0
H1187 H 0.51996 0.96717 0.8587 0.0
H1188 H 0.54739 0.98156 0.90942 0.0
H1189 H 0.51991 0.01947 0.91242 0.0
C1190 C 0.4879 0.03714 0.88902 0.0
C1191 C 0.47061 0.04323 0.87583 0.0
C1192 C 0.50389 0.01543 0.88731 0.0
C1193 C 0.47086 0.02803 0.86073 0.0
C1194 C 0.48752 0.00714 0.85885 0.0
C1195 C 0.51988 0.97863 0.8704 0.0
C1196 C 0.53548 0.97127 0.88384 0.0
C1197 C 0.50384 1.00036 0.87208 0.0
C1198 C 0.53502 0.98621 0.89894 0.0
C1199 C 0.51959 0.00818 0.90064 0.0
H1200 H 0.55592 0.5595 0.44151 0.0
H1201 H 0.50694 0.57121 0.48505 0.0
H1202 H 0.47323 0.50559 0.48847 0.0
H1203 H 0.45687 0.4449 0.47889 0.0
H1204 H 0.50377 0.43303 0.43466 0.0
H1205 H 0.53954 0.49862 0.43193 0.0
C1206 C 0.53754 0.54769 0.45164 0.0
C1207 C 0.53378 0.57032 0.46293 0.0
C1208 C 0.51815 0.50988 0.45353 0.0
C1209 C 0.51049 0.55451 0.47621 0.0
C1210 C 0.49114 0.51696 0.47816 0.0
C1211 C 0.47476 0.45657 0.46859 0.0
C1212 C 0.47741 0.43379 0.45699 0.0
C1213 C 0.49468 0.49438 0.46687 0.0
C1214 C 0.50143 0.44966 0.44393 0.0
C1215 C 0.52166 0.48727 0.44225 0.0
H1216 H 0.00464 0.56311 0.80021 0.0
H1217 H 0.9055 0.47425 0.78166 0.0
H1218 H 0.93351 0.43641 0.78059 0.0
H1219 H 0.9862 0.42874 0.78461 0.0
H1220 H 0.08564 0.51734 0.80307 0.0
H1221 H 0.05761 0.55525 0.80435 0.0
C1222 C 0.98905 0.53531 0.79613 0.0
C1223 C 0.95291 0.52141 0.79113 0.0
C1224 C 0.00547 0.51379 0.79541 0.0
C1225 C 0.93334 0.4856 0.78552 0.0
C1226 C 0.94934 0.46395 0.78493 0.0
C1227 C 0.00168 0.45622 0.78909 0.0
C1228 C 0.03794 0.47005 0.79387 0.0
C1229 C 0.98538 0.47778 0.78981 0.0
C1230 C 0.05779 0.50605 0.79924 0.0
C1231 C 0.0417 0.52767 0.80006 0.0
H1232 H 0.44087 0.99853 0.11055 0.0
H1233 H 0.43547 0.91329 0.14051 0.0
H1234 H 0.50152 0.94626 0.14309 0.0
H1235 H 0.56086 0.99831 0.13594 0.0
H1236 H 0.56565 0.08415 0.1065 0.0
H1237 H 0.4998 0.0517 0.10445 0.0
C1238 C 0.45419 0.98704 0.11754 0.0
C1239 C 0.43335 0.95328 0.12516 0.0
C1240 C 0.49205 0.00623 0.11904 0.0
C1241 C 0.45092 0.93918 0.13452 0.0
C1242 C 0.48866 0.958 0.13596 0.0
C1243 C 0.54754 0.01028 0.12931 0.0
C1244 C 0.56839 0.04368 0.12133 0.0
C1245 C 0.50953 0.9915 0.12822 0.0
C1246 C 0.55046 0.05833 0.11257 0.0
C1247 C 0.51275 0.03983 0.11143 0.0
H1248 H 0.18785 0.04382 0.15408 0.0
H1249 H 0.30356 0.0952 0.15981 0.0
H1250 H 0.30424 0.14565 0.17412 0.0
H1251 H 0.27195 0.17501 0.18489 0.0
H1252 H 0.15652 0.12495 0.17859 0.0
H1253 H 0.15554 0.07395 0.1645 0.0
C1254 C 0.2131 0.06603 0.15857 0.0
C1255 C 0.24559 0.06596 0.15602 0.0
C1256 C 0.21329 0.09503 0.1666 0.0
C1257 C 0.2783 0.09496 0.16162 0.0
C1258 C 0.27867 0.12367 0.16981 0.0
C1259 C 0.24658 0.15276 0.18051 0.0
C1260 C 0.21432 0.15336 0.18282 0.0
C1261 C 0.24635 0.12395 0.17236 0.0
C1262 C 0.18166 0.1249 0.17686 0.0
C1263 C 0.1811 0.09579 0.16888 0.0
H1264 H 0.08457 0.2293 0.53102 0.0
H1265 H 0.05237 0.25549 0.4858 0.0
H1266 H 0.10226 0.25429 0.47199 0.0
H1267 H 0.15522 0.24645 0.47281 0.0
H1268 H 0.18969 0.22392 0.5183 0.0
H1269 H 0.13855 0.22303 0.53197 0.0
C1270 C 0.0887 0.23517 0.51818 0.0
C1271 C 0.0648 0.24251 0.50947 0.0
C1272 C 0.11774 0.23501 0.51036 0.0
C1273 C 0.07009 0.24929 0.49276 0.0
C1274 C 0.09874 0.24885 0.48487 0.0
C1275 C 0.15183 0.24178 0.48575 0.0
C1276 C 0.17629 0.23536 0.49452 0.0
C1277 C 0.12277 0.24187 0.49357 0.0
C1278 C 0.17101 0.22853 0.51122 0.0
C1279 C 0.14192 0.22824 0.51907 0.0
H1280 H 0.91079 0.14776 0.80525 0.0
H1281 H 0.96997 0.18848 0.84987 0.0
H1282 H 0.92095 0.13861 0.86477 0.0
H1283 H 0.86059 0.0845 0.86515 0.0
H1284 H 0.80145 0.04423 0.82048 0.0
H1285 H 0.85087 0.09355 0.80559 0.0
C1286 C 0.91282 0.14588 0.81826 0.0
C1287 C 0.94385 0.17178 0.82646 0.0
C1288 C 0.88449 0.11745 0.82673 0.0
C1289 C 0.94647 0.16864 0.84326 0.0
C1290 C 0.91839 0.14029 0.8518 0.0
C1291 C 0.8587 0.08635 0.85214 0.0
C1292 C 0.82742 0.06086 0.84393 0.0
C1293 C 0.88723 0.11464 0.84365 0.0
C1294 C 0.82507 0.06384 0.8271 0.0
C1295 C 0.85337 0.09187 0.81857 0.0
H1296 H 0.74742 0.90358 0.13668 0.0
H1297 H 0.74809 0.95352 0.18214 0.0
H1298 H 0.74448 0.90208 0.19681 0.0
H1299 H 0.74403 0.84444 0.19666 0.0
H1300 H 0.74285 0.7943 0.15114 0.0
H1301 H 0.74456 0.84481 0.13651 0.0
C1302 C 0.7469 0.9032 0.1498 0.0
C1303 C 0.74823 0.93227 0.15834 0.0
C1304 C 0.74504 0.87375 0.15812 0.0
C1305 C 0.74686 0.93126 0.17532 0.0
C1306 C 0.745 0.90201 0.1837 0.0
C1307 C 0.7436 0.8443 0.18354 0.0
C1308 C 0.74346 0.81576 0.175 0.0
C1309 C 0.74437 0.87326 0.17522 0.0
C1310 C 0.7435 0.81624 0.15799 0.0
C1311 C 0.74428 0.84498 0.14962 0.0
H1312 H 0.82079 0.71938 0.48797 0.0
H1313 H 0.87143 0.83533 0.48432 0.0
H1314 H 0.92685 0.84212 0.49643 0.0
H1315 H 0.96029 0.81498 0.50817 0.0
H1316 H 0.90778 0.69901 0.51387 0.0
H1317 H 0.85396 0.69223 0.50039 0.0
C1318 C 0.84413 0.74605 0.48977 0.0
C1319 C 0.84237 0.77683 0.48531 0.0
C1320 C 0.87548 0.74969 0.49698 0.0
C1321 C 0.87238 0.81135 0.4878 0.0
C1322 C 0.90397 0.81519 0.49465 0.0
C1323 C 0.93696 0.78821 0.50668 0.0
C1324 C 0.93819 0.75759 0.51207 0.0
C1325 C 0.9057 0.78454 0.49938 0.0
C1326 C 0.90791 0.72307 0.50963 0.0
C1327 C 0.87695 0.71914 0.50204 0.0
H1328 H 0.19577 0.91595 0.83977 0.0
H1329 H 0.14245 0.97902 0.83805 0.0
H1330 H 0.09018 0.92906 0.82459 0.0
H1331 H 0.05868 0.86627 0.81462 0.0
H1332 H 0.11291 0.80398 0.81589 0.0
H1333 H 0.16609 0.85489 0.82822 0.0
C1334 C 0.17269 0.91867 0.83636 0.0
C1335 C 0.17254 0.9507 0.83995 0.0
C1336 C 0.14304 0.89004 0.82865 0.0
C1337 C 0.14295 0.95445 0.83532 0.0
C1338 C 0.11311 0.92592 0.82773 0.0
C1339 C 0.08224 0.86403 0.8176 0.0
C1340 C 0.08203 0.83158 0.81454 0.0
C1341 C 0.11268 0.89342 0.82455 0.0
C1342 C 0.11272 0.82888 0.81816 0.0
C1343 C 0.14297 0.85785 0.82523 0.0
H1344 H 0.2551 0.20715 0.35445 0.0
H1345 H 0.3303 0.31641 0.36938 0.0
H1346 H 0.31561 0.33992 0.34545 0.0
H1347 H 0.2811 0.32969 0.3204 0.0
H1348 H 0.20739 0.22036 0.30489 0.0
H1349 H 0.22079 0.19692 0.32918 0.0
C1350 C 0.26819 0.2361 0.35248 0.0
C1351 C 0.294 0.2599 0.36365 0.0
C1352 C 0.2595 0.24954 0.33869 0.0
C1353 C 0.31086 0.29738 0.36084 0.0
C1354 C 0.30224 0.31091 0.34722 0.0
C1355 C 0.26809 0.30071 0.32223 0.0
C1356 C 0.24309 0.27699 0.31076 0.0
C1357 C 0.27661 0.28726 0.33605 0.0
C1358 C 0.22615 0.23948 0.31359 0.0
C1359 C 0.23412 0.22593 0.32743 0.0
H1360 H 0.95085 0.2847 0.64937 0.0
H1361 H 0.98608 0.21058 0.63404 0.0
H1362 H 0.02084 0.22204 0.65894 0.0
H1363 H 0.04366 0.25531 0.68458 0.0
H1364 H 0.00921 0.33031 0.69945 0.0
H1365 H 0.9729 0.31723 0.67499 0.0
C1366 C 0.96626 0.27115 0.65139 0.0
C1367 C 0.96574 0.24681 0.63975 0.0
C1368 C 0.98691 0.27847 0.66558 0.0
C1369 C 0.9854 0.22902 0.64283 0.0
C1370 C 0.00566 0.23585 0.65702 0.0
C1371 C 0.02808 0.26866 0.6825 0.0
C1372 C 0.0296 0.2941 0.69378 0.0
C1373 C 0.00693 0.26082 0.66841 0.0
C1374 C 0.0093 0.31126 0.69083 0.0
C1375 C 0.9882 0.30353 0.6769 0.0
H1376 H 0.71025 0.98462 0.03255 0.0
H1377 H 0.79275 0.08563 0.01228 0.0
H1378 H 0.78276 0.05746 0.9856 0.0
H1379 H 0.74909 0.00462 0.96786 0.0
H1380 H 0.66598 0.90404 0.98818 0.0
H1381 H 0.67723 0.93181 0.01497 0.0
C1382 C 0.72584 1.00063 0.02228 0.0
C1383 C 0.75207 0.0373 0.02443 0.0
C1384 C 0.71975 0.98435 0.00697 0.0
C1385 C 0.77258 0.05733 0.01102 0.0
C1386 C 0.76675 0.04127 0.99574 0.0
C1387 C 0.73379 0.98865 0.97819 0.0
C1388 C 0.70678 0.95225 0.97603 0.0
C1389 C 0.74031 0.00484 0.99356 0.0
C1390 C 0.68671 0.93214 0.98949 0.0
C1391 C 0.6932 0.94798 0.00482 0.0
H1392 H 0.78443 0.73735 0.31603 0.0
H1393 H 0.67394 0.67189 0.29995 0.0
H1394 H 0.6524 0.68615 0.3246 0.0
H1395 H 0.66463 0.71728 0.35074 0.0
H1396 H 0.77497 0.78308 0.36685 0.0
H1397 H 0.79673 0.76967 0.34197 0.0
C1398 C 0.75565 0.72638 0.31785 0.0
C1399 C 0.73093 0.70316 0.30617 0.0
C1400 C 0.74333 0.73511 0.33201 0.0
C1401 C 0.69367 0.68907 0.30886 0.0
C1402 C 0.68126 0.69751 0.32291 0.0
C1403 C 0.69344 0.72862 0.34884 0.0
C1404 C 0.71804 0.75123 0.36069 0.0
C1405 C 0.70582 0.72042 0.33458 0.0
C1406 C 0.75535 0.76607 0.35787 0.0
C1407 C 0.76786 0.75814 0.34369 0.0
H1408 H 0.01012 0.75801 0.63936 0.0
H1409 H 0.074 0.70925 0.65234 0.0
H1410 H 0.04121 0.68841 0.67796 0.0
H1411 H 0.99499 0.68472 0.69673 0.0
H1412 H 0.92932 0.73141 0.68332 0.0
H1413 H 0.96249 0.75273 0.65788 0.0
C1414 C 0.01706 0.74313 0.64789 0.0
C1415 C 0.04462 0.73541 0.64406 0.0
C1416 C 0.99773 0.7308 0.66248 0.0
C1417 C 0.05287 0.71548 0.65505 0.0
C1418 C 0.03414 0.70358 0.66968 0.0
C1419 C 0.98743 0.699 0.68815 0.0
C1420 C 0.95957 0.70635 0.69199 0.0
C1421 C 0.00644 0.71097 0.67349 0.0
C1422 C 0.95084 0.72566 0.68081 0.0
C1423 C 0.96974 0.73779 0.66622 0.0
H1424 H 0.21355 0.9469 0.01631 0.0
H1425 H 0.32283 1.00003 0.03471 0.0
H1426 H 0.34393 0.03867 0.01087 0.0
H1427 H 0.33162 0.05776 0.98482 0.0
H1428 H 0.22258 0.00464 0.96618 0.0
H1429 H 0.20109 0.96675 0.99032 0.0
C1430 C 0.24195 0.96704 0.01515 0.0
C1431 C 0.26656 0.9701 0.02724 0.0
C1432 C 0.25396 0.98961 0.00144 0.0
C1433 C 0.30333 0.99633 0.02544 0.0
C1434 C 0.31543 0.01877 0.01187 0.0
C1435 C 0.30316 0.03782 0.98599 0.0
C1436 C 0.27884 0.03423 0.97366 0.0
C1437 C 0.29103 0.01561 0.99978 0.0
C1438 C 0.24193 0.00854 0.97556 0.0
C1439 C 0.22961 0.98654 0.9893 0.0
loop_
_geom_bond_atom_site_label_1
_geom_bond_atom_site_label_2
_geom_bond_distance
_geom_bond_site_symmetry_2
_ccdc_geom_bond_type
Li0 N17 1.990 . S
Li0 O60 1.956 . S
Li0 O61 1.970 . S
Li0 O62 1.961 . S
Li1 N25 1.990 . S
Li1 O60 1.970 . S
Li1 O61 1.956 . S
Li1 O63 1.961 . S
Li2 N47 1.990 . S
Li2 O60 1.961 . S
Li2 O62 1.956 . S
Li2 O63 1.970 . S
Li3 N53 1.990 . S
Li3 O61 1.961 . S
Li3 O62 1.970 . S
Li3 O63 1.956 . S
C4 C6 1.348 . S
C4 C7 1.356 . S
C4 O60 1.325 . S
N5 C8 1.314 . S
N5 C9 1.279 . S
C6 C4 1.348 . S
C6 C8 1.353 . S
C6 H64 0.929 . S
C7 C4 1.356 . S
C7 C9 1.358 . S
C7 H65 0.930 . S
C8 N5 1.314 . S
C8 C6 1.353 . S
C8 H66 0.930 . S
C9 N5 1.279 . S
C9 C7 1.358 . S
C9 H67 0.930 . S
C10 C13 1.348 . S
C10 C14 1.356 . S
C10 O61 1.325 . S
C11 N12 1.279 . S
C11 C14 1.358 . S
C11 H68 0.930 . S
N12 C11 1.279 . S
N12 C15 1.314 . S
C13 C10 1.348 . S
C13 C15 1.353 . S
C13 H69 0.929 . S
C14 C10 1.356 . S
C14 C11 1.358 . S
C14 H70 0.930 . S
C15 N12 1.314 . S
C15 C13 1.353 . S
C15 H71 0.930 . S
C16 N17 1.314 . S
C16 C21 1.353 . S
C16 H22 0.930 . S
N17 Li0 1.990 . S
N17 C16 1.314 . S
N17 C19 1.279 . S
C18 C19 1.358 . S
C18 C20 1.356 . S
C18 H72 0.930 . S
C19 N17 1.279 . S
C19 C18 1.358 . S
C19 H23 0.930 . S
C20 C18 1.356 . S
C20 C21 1.348 . S
C21 C16 1.353 . S
C21 C20 1.348 . S
C21 H73 0.929 . S
H22 C16 0.930 . S
H23 C19 0.930 . S
C24 N25 1.314 . S
C24 C26 1.353 . S
C24 H30 0.930 . S
N25 Li1 1.990 . S
N25 C24 1.314 . S
N25 C28 1.279 . S
C26 C24 1.353 . S
C26 C29 1.348 . S
C26 H74 0.929 . S
C27 C28 1.358 . S
C27 C29 1.356 . S
C27 H75 0.930 . S
C28 N25 1.279 . S
C28 C27 1.358 . S
C28 H31 0.930 . S
C29 C26 1.348 . S
C29 C27 1.356 . S
H30 C24 0.930 . S
H31 C28 0.930 . S
C32 C34 1.348 . S
C32 C35 1.356 . S
C32 O62 1.325 . S
N33 C36 1.314 . S
N33 C37 1.279 . S
C34 C32 1.348 . S
C34 C36 1.353 . S
C34 H76 0.929 . S
C35 C32 1.356 . S
C35 C37 1.358 . S
C35 H77 0.930 . S
C36 N33 1.314 . S
C36 C34 1.353 . S
C36 H78 0.930 . S
C37 N33 1.279 . S
C37 C35 1.358 . S
C37 H79 0.930 . S
C38 C39 1.348 . S
C38 C40 1.356 . S
C38 O63 1.325 . S
C39 C38 1.348 . S
C39 C41 1.353 . S
C39 H80 0.929 . S
C40 C38 1.356 . S
C40 C42 1.358 . S
C40 H81 0.930 . S
C41 C39 1.353 . S
C41 N43 1.314 . S
C41 H82 0.930 . S
C42 C40 1.358 . S
C42 N43 1.279 . S
C42 H83 0.930 . S
N43 C41 1.314 . S
N43 C42 1.279 . S
C44 C46 1.353 . S
C44 N47 1.314 . S
C44 H50 0.930 . S
C45 N47 1.279 . S
C45 C48 1.358 . S
C45 H51 0.930 . S
C46 C44 1.353 . S
C46 C49 1.348 . S
C46 H84 0.929 . S
N47 Li2 1.990 . S
N47 C44 1.314 . S
N47 C45 1.279 . S
C48 C45 1.358 . S
C48 C49 1.356 . S
C48 H85 0.930 . S
C49 C46 1.348 . S
C49 C48 1.356 . S
H50 C44 0.930 . S
H51 C45 0.930 . S
C52 N53 1.314 . S
C52 C54 1.353 . S
C52 H58 0.930 . S
N53 Li3 1.990 . S
N53 C52 1.314 . S
N53 C56 1.279 . S
C54 C52 1.353 . S
C54 C57 1.348 . S
C54 H86 0.929 . S
C55 C56 1.358 . S
C55 C57 1.356 . S
C55 H87 0.930 . S
C56 N53 1.279 . S
C56 C55 1.358 . S
C56 H59 0.930 . S
C57 C54 1.348 . S
C57 C55 1.356 . S
H58 C52 0.930 . S
H59 C56 0.930 . S
O60 Li0 1.956 . S
O60 Li1 1.970 . S
O60 Li2 1.961 . S
O60 C4 1.325 . S
O61 Li0 1.970 . S
O61 Li1 1.956 . S
O61 Li3 1.961 . S
O61 C10 1.325 . S
O62 Li0 1.961 . S
O62 Li2 1.956 . S
O62 Li3 1.970 . S
O62 C32 1.325 . S
O63 Li1 1.961 . S
O63 Li2 1.970 . S
O63 Li3 1.956 . S
O63 C38 1.325 . S
H64 C6 0.929 . S
H65 C7 0.930 . S
H66 C8 0.930 . S
H67 C9 0.930 . S
H68 C11 0.930 . S
H69 C13 0.929 . S
H70 C14 0.930 . S
H71 C15 0.930 . S
H72 C18 0.930 . S
H73 C21 0.929 . S
H74 C26 0.929 . S
H75 C27 0.930 . S
H76 C34 0.929 . S
H77 C35 0.930 . S
H78 C36 0.930 . S
H79 C37 0.930 . S
H80 C39 0.929 . S
H81 C40 0.930 . S
H82 C41 0.930 . S
H83 C42 0.930 . S
H84 C46 0.929 . S
H85 C48 0.930 . S
H86 C54 0.929 . S
H87 C55 0.930 . S
Li88 N105 1.990 . S
Li88 O148 1.956 . S
Li88 O149 1.970 . S
Li88 O150 1.961 . S
Li89 N113 1.990 . S
Li89 O148 1.970 . S
Li89 O149 1.956 . S
Li89 O151 1.961 . S
Li90 N135 1.990 . S
Li90 O148 1.961 . S
Li90 O150 1.956 . S
Li90 O151 1.970 . S
Li91 N141 1.990 1_655 S
Li91 O149 1.961 . S
Li91 O150 1.970 . S
Li91 O151 1.956 . S
C92 C94 1.348 . S
C92 C95 1.356 . S
C92 O148 1.325 . S
N93 C96 1.314 . S
N93 C97 1.279 . S
C94 C92 1.348 . S
C94 C96 1.353 . S
C94 H152 0.929 . S
C95 C92 1.356 . S
C95 C97 1.358 . S
C95 H153 0.930 . S
C96 N93 1.314 . S
C96 C94 1.353 . S
C96 H154 0.930 . S
C97 N93 1.279 . S
C97 C95 1.358 . S
C97 H155 0.930 . S
C98 C101 1.348 . S
C98 C102 1.356 . S
C98 O149 1.325 . S
C99 N100 1.279 . S
C99 C102 1.358 . S
C99 H156 0.930 1_655 S
N100 C99 1.279 . S
N100 C103 1.314 . S
C101 C98 1.348 . S
C101 C103 1.353 . S
C101 H157 0.929 . S
C102 C98 1.356 . S
C102 C99 1.358 . S
C102 H158 0.935 . S
C103 N100 1.314 . S
C103 C101 1.353 . S
C103 H159 0.930 . S
C104 N105 1.314 . S
C104 C109 1.353 . S
C104 H110 0.930 . S
N105 Li88 1.990 . S
N105 C104 1.314 . S
N105 C107 1.279 . S
C106 C107 1.358 . S
C106 C108 1.356 . S
C106 H160 0.930 . S
C107 N105 1.279 . S
C107 C106 1.358 . S
C107 H111 0.930 . S
C108 C106 1.356 . S
C108 C109 1.348 . S
C109 C104 1.353 . S
C109 C108 1.348 . S
C109 H161 0.929 . S
H110 C104 0.930 . S
H111 C107 0.930 . S
C112 N113 1.314 . S
C112 C114 1.353 . S
C112 H118 0.930 . S
N113 Li89 1.990 . S
N113 C112 1.314 . S
N113 C116 1.279 . S
C114 C112 1.353 . S
C114 C117 1.348 . S
C114 H162 0.929 . S
C115 C116 1.358 . S
C115 C117 1.356 . S
C115 H163 0.930 . S
C116 N113 1.279 . S
C116 C115 1.358 . S
C116 H119 0.930 . S
C117 C114 1.348 . S
C117 C115 1.356 . S
H118 C112 0.930 . S
H119 C116 0.930 . S
C120 C122 1.348 . S
C120 C123 1.356 . S
C120 O150 1.325 . S
N121 C124 1.314 . S
N121 C125 1.279 . S
C122 C120 1.348 . S
C122 C124 1.353 . S
C122 H164 0.929 . S
C123 C120 1.356 . S
C123 C125 1.358 . S
C123 H165 0.930 . S
C124 N121 1.314 . S
C124 C122 1.353 . S
C124 H166 0.930 . S
C125 N121 1.279 . S
C125 C123 1.358 . S
C125 H167 0.930 . S
C126 C127 1.348 . S
C126 C128 1.356 . S
C126 O151 1.325 1_455 S
C127 C126 1.348 . S
C127 C129 1.353 . S
C127 H168 0.929 . S
C128 C126 1.356 . S
C128 C130 1.358 . S
C128 H169 0.930 . S
C129 C127 1.353 . S
C129 N131 1.314 . S
C129 H170 0.930 . S
C130 C128 1.358 . S
C130 N131 1.279 . S
C130 H171 0.930 . S
N131 C129 1.314 . S
N131 C130 1.279 . S
C132 C134 1.353 . S
C132 N135 1.314 . S
C132 H138 0.930 . S
C133 N135 1.279 . S
C133 C136 1.358 . S
C133 H139 0.930 . S
C134 C132 1.353 . S
C134 C137 1.348 . S
C134 H172 0.929 . S
N135 Li90 1.990 . S
N135 C132 1.314 . S
N135 C133 1.279 . S
C136 C133 1.358 . S
C136 C137 1.356 . S
C136 H173 0.930 . S
C137 C134 1.348 . S
C137 C136 1.356 . S
H138 C132 0.930 . S
H139 C133 0.930 . S
C140 N141 1.314 . S
C140 C142 1.353 . S
C140 H146 0.930 . S
N141 Li91 1.990 1_455 S
N141 C140 1.314 . S
N141 C144 1.279 . S
C142 C140 1.353 . S
C142 C145 1.348 . S
C142 H174 0.929 . S
C143 C144 1.358 . S
C143 C145 1.356 . S
C143 H175 0.930 . S
C144 N141 1.279 . S
C144 C143 1.358 . S
C144 H147 0.930 . S
C145 C142 1.348 . S
C145 C143 1.356 . S
H146 C140 0.930 . S
H147 C144 0.930 . S
O148 Li88 1.956 . S
O148 Li89 1.970 . S
O148 Li90 1.961 . S
O148 C92 1.325 . S
O149 Li88 1.970 . S
O149 Li89 1.956 . S
O149 Li91 1.961 . S
O149 C98 1.325 . S
O150 Li88 1.961 . S
O150 Li90 1.956 . S
O150 Li91 1.970 . S
O150 C120 1.325 . S
O151 Li89 1.961 . S
O151 Li90 1.970 . S
O151 Li91 1.956 . S
O151 C126 1.325 1_655 S
H152 C94 0.929 . S
H153 C95 0.930 . S
H154 C96 0.930 . S
H155 C97 0.930 . S
H156 C99 0.930 1_455 S
H157 C101 0.929 . S
H158 C102 0.935 . S
H159 C103 0.930 . S
H160 C106 0.930 . S
H161 C109 0.929 . S
H162 C114 0.929 . S
H163 C115 0.930 . S
H164 C122 0.929 . S
H165 C123 0.930 . S
H166 C124 0.930 . S
H167 C125 0.930 . S
H168 C127 0.929 . S
H169 C128 0.930 . S
H170 C129 0.930 . S
H171 C130 0.930 . S
H172 C134 0.929 . S
H173 C136 0.930 . S
H174 C142 0.929 . S
H175 C143 0.930 . S
Li176 N193 1.990 . S
Li176 O236 1.956 . S
Li176 O237 1.970 . S
Li176 O238 1.961 . S
Li177 N201 1.990 . S
Li177 O236 1.970 . S
Li177 O237 1.956 . S
Li177 O239 1.961 . S
Li178 N223 1.990 1_565 S
Li178 O236 1.961 . S
Li178 O238 1.956 . S
Li178 O239 1.970 . S
Li179 N229 1.990 . S
Li179 O237 1.961 . S
Li179 O238 1.970 . S
Li179 O239 1.956 . S
C180 C182 1.348 . S
C180 C183 1.356 . S
C180 O236 1.325 . S
N181 C184 1.314 . S
N181 C185 1.279 . S
C182 C180 1.348 . S
C182 C184 1.353 . S
C182 H240 0.929 . S
C183 C180 1.356 . S
C183 C185 1.358 . S
C183 H241 0.943 . S
C184 N181 1.314 . S
C184 C182 1.353 . S
C184 H242 0.930 . S
C185 N181 1.279 . S
C185 C183 1.358 . S
C185 H243 0.930 1_565 S
C186 C189 1.348 . S
C186 C190 1.356 . S
C186 O237 1.325 . S
C187 N188 1.279 . S
C187 C190 1.358 . S
C187 H244 0.930 . S
N188 C187 1.279 . S
N188 C191 1.314 . S
C189 C186 1.348 . S
C189 C191 1.353 . S
C189 H245 0.929 . S
C190 C186 1.356 . S
C190 C187 1.358 . S
C190 H246 0.930 . S
C191 N188 1.314 . S
C191 C189 1.353 . S
C191 H247 0.930 . S
C192 N193 1.314 . S
C192 C197 1.353 . S
C192 H198 0.930 . S
N193 Li176 1.990 . S
N193 C192 1.314 . S
N193 C195 1.279 . S
C194 C195 1.358 . S
C194 C196 1.356 . S
C194 H248 0.930 . S
C195 N193 1.279 . S
C195 C194 1.358 . S
C195 H199 0.930 . S
C196 C194 1.356 . S
C196 C197 1.348 . S
C197 C192 1.353 . S
C197 C196 1.348 . S
C197 H249 0.929 . S
H198 C192 0.930 . S
H199 C195 0.930 . S
C200 N201 1.314 . S
C200 C202 1.353 . S
C200 H206 0.930 . S
N201 Li177 1.990 . S
N201 C200 1.314 . S
N201 C204 1.279 . S
C202 C200 1.353 . S
C202 C205 1.348 . S
C202 H250 0.929 . S
C203 C204 1.358 . S
C203 C205 1.356 . S
C203 H251 0.930 . S
C204 N201 1.279 . S
C204 C203 1.358 . S
C204 H207 0.930 . S
C205 C202 1.348 . S
C205 C203 1.356 . S
H206 C200 0.930 . S
H207 C204 0.930 . S
C208 C210 1.348 . S
C208 C211 1.356 . S
C208 O238 1.325 1_545 S
N209 C212 1.314 . S
N209 C213 1.279 . S
C210 C208 1.348 . S
C210 C212 1.353 . S
C210 H252 0.929 . S
C211 C208 1.356 . S
C211 C213 1.358 . S
C211 H253 0.930 . S
C212 N209 1.314 . S
C212 C210 1.353 . S
C212 H254 0.930 . S
C213 N209 1.279 . S
C213 C211 1.358 . S
C213 H255 0.930 . S
C214 C215 1.348 . S
C214 C216 1.356 . S
C214 O239 1.325 . S
C215 C214 1.348 . S
C215 C217 1.353 . S
C215 H256 0.929 . S
C216 C214 1.356 . S
C216 C218 1.358 . S
C216 H257 0.930 . S
C217 C215 1.353 . S
C217 N219 1.314 . S
C217 H258 0.930 . S
C218 C216 1.358 . S
C218 N219 1.279 . S
C218 H259 0.930 . S
N219 C217 1.314 . S
N219 C218 1.279 . S
C220 C222 1.353 . S
C220 N223 1.314 . S
C220 H226 0.930 . S
C221 N223 1.279 . S
C221 C224 1.358 . S
C221 H227 0.930 . S
C222 C220 1.353 . S
C222 C225 1.348 . S
C222 H260 0.929 . S
N223 Li178 1.990 1_545 S
N223 C220 1.314 . S
N223 C221 1.279 . S
C224 C221 1.358 . S
C224 C225 1.356 . S
C224 H261 0.930 . S
C225 C222 1.348 . S
C225 C224 1.356 . S
H226 C220 0.930 . S
H227 C221 0.930 . S
C228 N229 1.314 . S
C228 C230 1.353 . S
C228 H234 0.930 . S
N229 Li179 1.990 . S
N229 C228 1.314 . S
N229 C232 1.279 . S
C230 C228 1.353 . S
C230 C233 1.348 . S
C230 H262 0.929 . S
C231 C232 1.358 . S
C231 C233 1.356 . S
C231 H263 0.930 . S
C232 N229 1.279 . S
C232 C231 1.358 . S
C232 H235 0.930 . S
C233 C230 1.348 . S
C233 C231 1.356 . S
H234 C228 0.930 . S
H235 C232 0.930 . S
O236 Li176 1.956 . S
O236 Li177 1.970 . S
O236 Li178 1.961 . S
O236 C180 1.325 . S
O237 Li176 1.970 . S
O237 Li177 1.956 . S
O237 Li179 1.961 . S
O237 C186 1.325 . S
O238 Li176 1.961 . S
O238 Li178 1.956 . S
O238 Li179 1.970 . S
O238 C208 1.325 1_565 S
O239 Li177 1.961 . S
O239 Li178 1.970 . S
O239 Li179 1.956 . S
O239 C214 1.325 . S
H240 C182 0.929 . S
H241 C183 0.943 . S
H242 C184 0.930 . S
H243 C185 0.930 1_545 S
H244 C187 0.930 . S
H245 C189 0.929 . S
H246 C190 0.930 . S
H247 C191 0.930 . S
H248 C194 0.930 . S
H249 C197 0.929 . S
H250 C202 0.929 . S
H251 C203 0.930 . S
H252 C210 0.929 . S
H253 C211 0.930 . S
H254 C212 0.930 . S
H255 C213 0.930 . S
H256 C215 0.929 . S
H257 C216 0.930 . S
H258 C217 0.930 . S
H259 C218 0.930 . S
H260 C222 0.929 . S
H261 C224 0.930 . S
H262 C230 0.929 . S
H263 C231 0.930 . S
Li264 N281 1.990 . S
Li264 O324 1.956 . S
Li264 O325 1.970 . S
Li264 O326 1.961 . S
Li265 N289 1.990 . S
Li265 O324 1.970 . S
Li265 O325 1.956 . S
Li265 O327 1.961 . S
Li266 N311 1.990 . S
Li266 O324 1.961 . S
Li266 O326 1.956 . S
Li266 O327 1.970 . S
Li267 N317 1.990 . S
Li267 O325 1.961 . S
Li267 O326 1.970 . S
Li267 O327 1.956 . S
C268 C270 1.348 . S
C268 C271 1.356 . S
C268 O324 1.325 . S
N269 C272 1.314 . S
N269 C273 1.279 . S
C270 C268 1.348 . S
C270 C272 1.353 . S
C270 H328 0.929 . S
C271 C268 1.356 . S
C271 C273 1.358 . S
C271 H329 0.930 . S
C272 N269 1.314 . S
C272 C270 1.353 . S
C272 H330 0.930 . S
C273 N269 1.279 . S
C273 C271 1.358 . S
C273 H331 0.930 . S
C274 C277 1.348 . S
C274 C278 1.356 . S
C274 O325 1.325 . S
C275 N276 1.279 . S
C275 C278 1.358 . S
C275 H332 0.930 . S
N276 C275 1.279 . S
N276 C279 1.314 . S
C277 C274 1.348 . S
C277 C279 1.353 . S
C277 H333 0.929 . S
C278 C274 1.356 . S
C278 C275 1.358 . S
C278 H334 0.930 . S
C279 N276 1.314 . S
C279 C277 1.353 . S
C279 H335 0.930 . S
C280 N281 1.314 . S
C280 C285 1.353 . S
C280 H286 0.930 . S
N281 Li264 1.990 . S
N281 C280 1.314 . S
N281 C283 1.279 . S
C282 C283 1.358 . S
C282 C284 1.356 . S
C282 H336 0.930 . S
C283 N281 1.279 . S
C283 C282 1.358 . S
C283 H287 0.930 . S
C284 C282 1.356 . S
C284 C285 1.348 . S
C285 C280 1.353 . S
C285 C284 1.348 . S
C285 H337 0.929 . S
H286 C280 0.930 . S
H287 C283 0.930 . S
C288 N289 1.314 . S
C288 C290 1.353 . S
C288 H294 0.930 . S
N289 Li265 1.990 . S
N289 C288 1.314 . S
N289 C292 1.279 . S
C290 C288 1.353 . S
C290 C293 1.348 . S
C290 H338 0.929 . S
C291 C292 1.358 . S
C291 C293 1.356 . S
C291 H339 0.930 . S
C292 N289 1.279 . S
C292 C291 1.358 . S
C292 H295 0.930 . S
C293 C290 1.348 . S
C293 C291 1.356 . S
H294 C288 0.930 . S
H295 C292 0.930 . S
C296 C298 1.348 . S
C296 C299 1.356 . S
C296 O326 1.325 . S
N297 C300 1.314 . S
N297 C301 1.279 . S
C298 C296 1.348 . S
C298 C300 1.353 . S
C298 H340 0.929 . S
C299 C296 1.356 . S
C299 C301 1.358 . S
C299 H341 0.930 . S
C300 N297 1.314 . S
C300 C298 1.353 . S
C300 H342 0.930 . S
C301 N297 1.279 . S
C301 C299 1.358 . S
C301 H343 0.930 . S
C302 C303 1.348 . S
C302 C304 1.356 . S
C302 O327 1.325 . S
C303 C302 1.348 . S
C303 C305 1.353 . S
C303 H344 0.929 . S
C304 C302 1.356 . S
C304 C306 1.358 . S
C304 H345 0.930 . S
C305 C303 1.353 . S
C305 N307 1.314 . S
C305 H346 0.930 . S
C306 C304 1.358 . S
C306 N307 1.279 . S
C306 H347 0.930 . S
N307 C305 1.314 . S
N307 C306 1.279 . S
C308 C310 1.353 . S
C308 N311 1.314 . S
C308 H314 0.930 . S
C309 N311 1.279 . S
C309 C312 1.358 . S
C309 H315 0.930 . S
C310 C308 1.353 . S
C310 C313 1.348 . S
C310 H348 0.929 . S
N311 Li266 1.990 . S
N311 C308 1.314 . S
N311 C309 1.279 . S
C312 C309 1.358 . S
C312 C313 1.356 . S
C312 H349 0.930 . S
C313 C310 1.348 . S
C313 C312 1.356 . S
H314 C308 0.930 . S
H315 C309 0.930 . S
C316 N317 1.314 . S
C316 C318 1.353 . S
C316 H322 0.930 . S
N317 Li267 1.990 . S
N317 C316 1.314 . S
N317 C320 1.279 . S
C318 C316 1.353 . S
C318 C321 1.348 . S
C318 H350 0.929 . S
C319 C320 1.358 . S
C319 C321 1.356 . S
C319 H351 0.930 . S
C320 N317 1.279 . S
C320 C319 1.358 . S
C320 H323 0.930 . S
C321 C318 1.348 . S
C321 C319 1.356 . S
H322 C316 0.930 . S
H323 C320 0.930 . S
O324 Li264 1.956 . S
O324 Li265 1.970 . S
O324 Li266 1.961 . S
O324 C268 1.325 . S
O325 Li264 1.970 . S
O325 Li265 1.956 . S
O325 Li267 1.961 . S
O325 C274 1.325 . S
O326 Li264 1.961 . S
O326 Li266 1.956 . S
O326 Li267 1.970 . S
O326 C296 1.325 . S
O327 Li265 1.961 . S
O327 Li266 1.970 . S
O327 Li267 1.956 . S
O327 C302 1.325 . S
H328 C270 0.929 . S
H329 C271 0.930 . S
H330 C272 0.930 . S
H331 C273 0.930 . S
H332 C275 0.930 . S
H333 C277 0.929 . S
H334 C278 0.930 . S
H335 C279 0.930 . S
H336 C282 0.930 . S
H337 C285 0.929 . S
H338 C290 0.929 . S
H339 C291 0.930 . S
H340 C298 0.929 . S
H341 C299 0.930 . S
H342 C300 0.930 . S
H343 C301 0.930 . S
H344 C303 0.929 . S
H345 C304 0.930 . S
H346 C305 0.930 . S
H347 C306 0.930 . S
H348 C310 0.929 . S
H349 C312 0.930 . S
H350 C318 0.929 . S
H351 C319 0.930 . S
Li352 N369 1.990 . S
Li352 O412 1.956 . S
Li352 O413 1.970 . S
Li352 O414 1.961 . S
Li353 N377 1.990 . S
Li353 O412 1.970 . S
Li353 O413 1.956 . S
Li353 O415 1.961 . S
Li354 N399 1.990 . S
Li354 O412 1.961 . S
Li354 O414 1.956 . S
Li354 O415 1.970 . S
Li355 N405 1.990 1_455 S
Li355 O413 1.961 . S
Li355 O414 1.970 . S
Li355 O415 1.956 . S
C356 C358 1.348 . S
C356 C359 1.356 . S
C356 O412 1.325 . S
N357 C360 1.314 . S
N357 C361 1.279 . S
C358 C356 1.348 . S
C358 C360 1.353 . S
C358 H416 0.929 . S
C359 C356 1.356 . S
C359 C361 1.358 . S
C359 H417 0.930 . S
C360 N357 1.314 . S
C360 C358 1.353 . S
C360 H418 0.930 . S
C361 N357 1.279 . S
C361 C359 1.358 . S
C361 H419 0.930 . S
C362 C365 1.348 . S
C362 C366 1.356 . S
C362 O413 1.325 . S
C363 N364 1.279 . S
C363 C366 1.358 . S
C363 H420 0.930 1_455 S
N364 C363 1.279 . S
N364 C367 1.314 . S
C365 C362 1.348 . S
C365 C367 1.353 . S
C365 H421 0.929 . S
C366 C362 1.356 . S
C366 C363 1.358 . S
C366 H422 0.935 . S
C367 N364 1.314 . S
C367 C365 1.353 . S
C367 H423 0.930 . S
C368 N369 1.314 . S
C368 C373 1.353 . S
C368 H374 0.930 . S
N369 Li352 1.990 . S
N369 C368 1.314 . S
N369 C371 1.279 . S
C370 C371 1.358 . S
C370 C372 1.356 . S
C370 H424 0.930 . S
C371 N369 1.279 . S
C371 C370 1.358 . S
C371 H375 0.930 . S
C372 C370 1.356 . S
C372 C373 1.348 . S
C373 C368 1.353 . S
C373 C372 1.348 . S
C373 H425 0.929 . S
H374 C368 0.930 . S
H375 C371 0.930 . S
C376 N377 1.314 . S
C376 C378 1.353 . S
C376 H382 0.930 . S
N377 Li353 1.990 . S
N377 C376 1.314 . S
N377 C380 1.279 . S
C378 C376 1.353 . S
C378 C381 1.348 . S
C378 H426 0.929 . S
C379 C380 1.358 . S
C379 C381 1.356 . S
C379 H427 0.930 . S
C380 N377 1.279 . S
C380 C379 1.358 . S
C380 H383 0.930 . S
C381 C378 1.348 . S
C381 C379 1.356 . S
H382 C376 0.930 . S
H383 C380 0.930 . S
C384 C386 1.348 . S
C384 C387 1.356 . S
C384 O414 1.325 . S
N385 C388 1.314 . S
N385 C389 1.279 . S
C386 C384 1.348 . S
C386 C388 1.353 . S
C386 H428 0.929 . S
C387 C384 1.356 . S
C387 C389 1.358 . S
C387 H429 0.930 . S
C388 N385 1.314 . S
C388 C386 1.353 . S
C388 H430 0.930 . S
C389 N385 1.279 . S
C389 C387 1.358 . S
C389 H431 0.930 . S
C390 C391 1.348 . S
C390 C392 1.356 . S
C390 O415 1.325 1_655 S
C391 C390 1.348 . S
C391 C393 1.353 . S
C391 H432 0.929 . S
C392 C390 1.356 . S
C392 C394 1.358 . S
C392 H433 0.930 . S
C393 C391 1.353 . S
C393 N395 1.314 . S
C393 H434 0.930 . S
C394 C392 1.358 . S
C394 N395 1.279 . S
C394 H435 0.930 . S
N395 C393 1.314 . S
N395 C394 1.279 . S
C396 C398 1.353 . S
C396 N399 1.314 . S
C396 H402 0.930 . S
C397 N399 1.279 . S
C397 C400 1.358 . S
C397 H403 0.930 . S
C398 C396 1.353 . S
C398 C401 1.348 . S
C398 H436 0.929 . S
N399 Li354 1.990 . S
N399 C396 1.314 . S
N399 C397 1.279 . S
C400 C397 1.358 . S
C400 C401 1.356 . S
C400 H437 0.930 . S
C401 C398 1.348 . S
C401 C400 1.356 . S
H402 C396 0.930 . S
H403 C397 0.930 . S
C404 N405 1.314 . S
C404 C406 1.353 . S
C404 H410 0.930 . S
N405 Li355 1.990 1_655 S
N405 C404 1.314 . S
N405 C408 1.279 . S
C406 C404 1.353 . S
C406 C409 1.348 . S
C406 H438 0.929 . S
C407 C408 1.358 . S
C407 C409 1.356 . S
C407 H439 0.930 . S
C408 N405 1.279 . S
C408 C407 1.358 . S
C408 H411 0.930 . S
C409 C406 1.348 . S
C409 C407 1.356 . S
H410 C404 0.930 . S
H411 C408 0.930 . S
O412 Li352 1.956 . S
O412 Li353 1.970 . S
O412 Li354 1.961 . S
O412 C356 1.325 . S
O413 Li352 1.970 . S
O413 Li353 1.956 . S
O413 Li355 1.961 . S
O413 C362 1.325 . S
O414 Li352 1.961 . S
O414 Li354 1.956 . S
O414 Li355 1.970 . S
O414 C384 1.325 . S
O415 Li353 1.961 . S
O415 Li354 1.970 . S
O415 Li355 1.956 . S
O415 C390 1.325 1_455 S
H416 C358 0.929 . S
H417 C359 0.930 . S
H418 C360 0.930 . S
H419 C361 0.930 . S
H420 C363 0.930 1_655 S
H421 C365 0.929 . S
H422 C366 0.935 . S
H423 C367 0.930 . S
H424 C370 0.930 . S
H425 C373 0.929 . S
H426 C378 0.929 . S
H427 C379 0.930 . S
H428 C386 0.929 . S
H429 C387 0.930 . S
H430 C388 0.930 . S
H431 C389 0.930 . S
H432 C391 0.929 . S
H433 C392 0.930 . S
H434 C393 0.930 . S
H435 C394 0.930 . S
H436 C398 0.929 . S
H437 C400 0.930 . S
H438 C406 0.929 . S
H439 C407 0.930 . S
Li440 N457 1.990 . S
Li440 O500 1.956 . S
Li440 O501 1.970 . S
Li440 O502 1.961 . S
Li441 N465 1.990 . S
Li441 O500 1.970 . S
Li441 O501 1.956 . S
Li441 O503 1.961 . S
Li442 N487 1.990 1_545 S
Li442 O500 1.961 . S
Li442 O502 1.956 . S
Li442 O503 1.970 . S
Li443 N493 1.990 . S
Li443 O501 1.961 . S
Li443 O502 1.970 . S
Li443 O503 1.956 . S
C444 C446 1.348 . S
C444 C447 1.356 . S
C444 O500 1.325 . S
N445 C448 1.314 . S
N445 C449 1.279 . S
C446 C444 1.348 . S
C446 C448 1.353 . S
C446 H504 0.929 . S
C447 C444 1.356 . S
C447 C449 1.358 . S
C447 H505 0.943 . S
C448 N445 1.314 . S
C448 C446 1.353 . S
C448 H506 0.930 . S
C449 N445 1.279 . S
C449 C447 1.358 . S
C449 H507 0.930 1_545 S
C450 C453 1.348 . S
C450 C454 1.356 . S
C450 O501 1.325 . S
C451 N452 1.279 . S
C451 C454 1.358 . S
C451 H508 0.930 . S
N452 C451 1.279 . S
N452 C455 1.314 . S
C453 C450 1.348 . S
C453 C455 1.353 . S
C453 H509 0.929 . S
C454 C450 1.356 . S
C454 C451 1.358 . S
C454 H510 0.930 . S
C455 N452 1.314 . S
C455 C453 1.353 . S
C455 H511 0.930 . S
C456 N457 1.314 . S
C456 C461 1.353 . S
C456 H462 0.930 . S
N457 Li440 1.990 . S
N457 C456 1.314 . S
N457 C459 1.279 . S
C458 C459 1.358 . S
C458 C460 1.356 . S
C458 H512 0.930 . S
C459 N457 1.279 . S
C459 C458 1.358 . S
C459 H463 0.930 . S
C460 C458 1.356 . S
C460 C461 1.348 . S
C461 C456 1.353 . S
C461 C460 1.348 . S
C461 H513 0.929 . S
H462 C456 0.930 . S
H463 C459 0.930 . S
C464 N465 1.314 . S
C464 C466 1.353 . S
C464 H470 0.930 . S
N465 Li441 1.990 . S
N465 C464 1.314 . S
N465 C468 1.279 . S
C466 C464 1.353 . S
C466 C469 1.348 . S
C466 H514 0.929 . S
C467 C468 1.358 . S
C467 C469 1.356 . S
C467 H515 0.930 . S
C468 N465 1.279 . S
C468 C467 1.358 . S
C468 H471 0.930 . S
C469 C466 1.348 . S
C469 C467 1.356 . S
H470 C464 0.930 . S
H471 C468 0.930 . S
C472 C474 1.348 . S
C472 C475 1.356 . S
C472 O502 1.325 1_565 S
N473 C476 1.314 . S
N473 C477 1.279 . S
C474 C472 1.348 . S
C474 C476 1.353 . S
C474 H516 0.929 . S
C475 C472 1.356 . S
C475 C477 1.358 . S
C475 H517 0.930 . S
C476 N473 1.314 . S
C476 C474 1.353 . S
C476 H518 0.930 . S
C477 N473 1.279 . S
C477 C475 1.358 . S
C477 H519 0.930 . S
C478 C479 1.348 . S
C478 C480 1.356 . S
C478 O503 1.325 . S
C479 C478 1.348 . S
C479 C481 1.353 . S
C479 H520 0.929 . S
C480 C478 1.356 . S
C480 C482 1.358 . S
C480 H521 0.930 . S
C481 C479 1.353 . S
C481 N483 1.314 . S
C481 H522 0.930 . S
C482 C480 1.358 . S
C482 N483 1.279 . S
C482 H523 0.930 . S
N483 C481 1.314 . S
N483 C482 1.279 . S
C484 C486 1.353 . S
C484 N487 1.314 . S
C484 H490 0.930 . S
C485 N487 1.279 . S
C485 C488 1.358 . S
C485 H491 0.930 . S
C486 C484 1.353 . S
C486 C489 1.348 . S
C486 H524 0.929 . S
N487 Li442 1.990 1_565 S
N487 C484 1.314 . S
N487 C485 1.279 . S
C488 C485 1.358 . S
C488 C489 1.356 . S
C488 H525 0.930 . S
C489 C486 1.348 . S
C489 C488 1.356 . S
H490 C484 0.930 . S
H491 C485 0.930 . S
C492 N493 1.314 . S
C492 C494 1.353 . S
C492 H498 0.930 . S
N493 Li443 1.990 . S
N493 C492 1.314 . S
N493 C496 1.279 . S
C494 C492 1.353 . S
C494 C497 1.348 . S
C494 H526 0.929 . S
C495 C496 1.358 . S
C495 C497 1.356 . S
C495 H527 0.930 . S
C496 N493 1.279 . S
C496 C495 1.358 . S
C496 H499 0.930 . S
C497 C494 1.348 . S
C497 C495 1.356 . S
H498 C492 0.930 . S
H499 C496 0.930 . S
O500 Li440 1.956 . S
O500 Li441 1.970 . S
O500 Li442 1.961 . S
O500 C444 1.325 . S
O501 Li440 1.970 . S
O501 Li441 1.956 . S
O501 Li443 1.961 . S
O501 C450 1.325 . S
O502 Li440 1.961 . S
O502 Li442 1.956 . S
O502 Li443 1.970 . S
O502 C472 1.325 1_545 S
O503 Li441 1.961 . S
O503 Li442 1.970 . S
O503 Li443 1.956 . S
O503 C478 1.325 . S
H504 C446 0.929 . S
H505 C447 0.943 . S
H506 C448 0.930 . S
H507 C449 0.930 1_565 S
H508 C451 0.930 . S
H509 C453 0.929 . S
H510 C454 0.930 . S
H511 C455 0.930 . S
H512 C458 0.930 . S
H513 C461 0.929 . S
H514 C466 0.929 . S
H515 C467 0.930 . S
H516 C474 0.929 . S
H517 C475 0.930 . S
H518 C476 0.930 . S
H519 C477 0.930 . S
H520 C479 0.929 . S
H521 C480 0.930 . S
H522 C481 0.930 . S
H523 C482 0.930 . S
H524 C486 0.929 . S
H525 C488 0.930 . S
H526 C494 0.929 . S
H527 C495 0.930 . S
Li528 N545 1.990 . S
Li528 O588 1.956 . S
Li528 O589 1.970 . S
Li528 O590 1.961 . S
Li529 N553 1.990 . S
Li529 O588 1.970 . S
Li529 O589 1.956 . S
Li529 O591 1.961 . S
Li530 N575 1.990 . S
Li530 O588 1.961 . S
Li530 O590 1.956 . S
Li530 O591 1.970 . S
Li531 N581 1.990 . S
Li531 O589 1.961 . S
Li531 O590 1.970 . S
Li531 O591 1.956 . S
C532 C534 1.348 . S
C532 C535 1.356 . S
C532 O588 1.325 . S
N533 C536 1.314 . S
N533 C537 1.279 . S
C534 C532 1.348 . S
C534 C536 1.353 . S
C534 H592 0.929 . S
C535 C532 1.356 . S
C535 C537 1.358 . S
C535 H593 0.930 . S
C536 N533 1.314 . S
C536 C534 1.353 . S
C536 H594 0.930 . S
C537 N533 1.279 . S
C537 C535 1.358 . S
C537 H595 0.930 . S
C538 C541 1.348 . S
C538 C542 1.356 . S
C538 O589 1.325 . S
C539 N540 1.279 . S
C539 C542 1.358 . S
C539 H596 0.930 . S
N540 C539 1.279 . S
N540 C543 1.314 . S
C541 C538 1.348 . S
C541 C543 1.353 . S
C541 H597 0.929 . S
C542 C538 1.356 . S
C542 C539 1.358 . S
C542 H598 0.930 . S
C543 N540 1.314 . S
C543 C541 1.353 . S
C543 H599 0.930 . S
C544 N545 1.314 . S
C544 C549 1.353 . S
C544 H550 0.930 . S
N545 Li528 1.990 . S
N545 C544 1.314 . S
N545 C547 1.279 . S
C546 C547 1.358 . S
C546 C548 1.356 . S
C546 H600 0.930 . S
C547 N545 1.279 . S
C547 C546 1.358 . S
C547 H551 0.930 . S
C548 C546 1.356 . S
C548 C549 1.348 . S
C549 C544 1.353 . S
C549 C548 1.348 . S
C549 H601 0.929 . S
H550 C544 0.930 . S
H551 C547 0.930 . S
C552 N553 1.314 . S
C552 C554 1.353 . S
C552 H558 0.930 . S
N553 Li529 1.990 . S
N553 C552 1.314 . S
N553 C556 1.279 . S
C554 C552 1.353 . S
C554 C557 1.348 . S
C554 H602 0.929 . S
C555 C556 1.358 . S
C555 C557 1.356 . S
C555 H603 0.930 . S
C556 N553 1.279 . S
C556 C555 1.358 . S
C556 H559 0.930 . S
C557 C554 1.348 . S
C557 C555 1.356 . S
H558 C552 0.930 . S
H559 C556 0.930 . S
C560 C562 1.348 . S
C560 C563 1.356 . S
C560 O590 1.325 . S
N561 C564 1.314 . S
N561 C565 1.279 . S
C562 C560 1.348 . S
C562 C564 1.353 . S
C562 H604 0.929 . S
C563 C560 1.356 . S
C563 C565 1.358 . S
C563 H605 0.930 . S
C564 N561 1.314 . S
C564 C562 1.353 . S
C564 H606 0.930 . S
C565 N561 1.279 . S
C565 C563 1.358 . S
C565 H607 0.930 . S
C566 C567 1.348 . S
C566 C568 1.356 . S
C566 O591 1.325 . S
C567 C566 1.348 . S
C567 C569 1.353 . S
C567 H608 0.929 . S
C568 C566 1.356 . S
C568 C570 1.358 . S
C568 H609 0.930 . S
C569 C567 1.353 . S
C569 N571 1.314 . S
C569 H610 0.930 . S
C570 C568 1.358 . S
C570 N571 1.279 . S
C570 H611 0.930 . S
N571 C569 1.314 . S
N571 C570 1.279 . S
C572 C574 1.353 . S
C572 N575 1.314 . S
C572 H578 0.930 . S
C573 N575 1.279 . S
C573 C576 1.358 . S
C573 H579 0.930 . S
C574 C572 1.353 . S
C574 C577 1.348 . S
C574 H612 0.929 . S
N575 Li530 1.990 . S
N575 C572 1.314 . S
N575 C573 1.279 . S
C576 C573 1.358 . S
C576 C577 1.356 . S
C576 H613 0.930 . S
C577 C574 1.348 . S
C577 C576 1.356 . S
H578 C572 0.930 . S
H579 C573 0.930 . S
C580 N581 1.314 . S
C580 C582 1.353 . S
C580 H586 0.930 . S
N581 Li531 1.990 . S
N581 C580 1.314 . S
N581 C584 1.279 . S
C582 C580 1.353 . S
C582 C585 1.348 . S
C582 H614 0.929 . S
C583 C584 1.358 . S
C583 C585 1.356 . S
C583 H615 0.930 . S
C584 N581 1.279 . S
C584 C583 1.358 . S
C584 H587 0.930 . S
C585 C582 1.348 . S
C585 C583 1.356 . S
H586 C580 0.930 . S
H587 C584 0.930 . S
O588 Li528 1.956 . S
O588 Li529 1.970 . S
O588 Li530 1.961 . S
O588 C532 1.325 . S
O589 Li528 1.970 . S
O589 Li529 1.956 . S
O589 Li531 1.961 . S
O589 C538 1.325 . S
O590 Li528 1.961 . S
O590 Li530 1.956 . S
O590 Li531 1.970 . S
O590 C560 1.325 . S
O591 Li529 1.961 . S
O591 Li530 1.970 . S
O591 Li531 1.956 . S
O591 C566 1.325 . S
H592 C534 0.929 . S
H593 C535 0.930 . S
H594 C536 0.930 . S
H595 C537 0.930 . S
H596 C539 0.930 . S
H597 C541 0.929 . S
H598 C542 0.930 . S
H599 C543 0.930 . S
H600 C546 0.930 . S
H601 C549 0.929 . S
H602 C554 0.929 . S
H603 C555 0.930 . S
H604 C562 0.929 . S
H605 C563 0.930 . S
H606 C564 0.930 . S
H607 C565 0.930 . S
H608 C567 0.929 . S
H609 C568 0.930 . S
H610 C569 0.930 . S
H611 C570 0.930 . S
H612 C574 0.929 . S
H613 C576 0.930 . S
H614 C582 0.929 . S
H615 C583 0.930 . S
Li616 N633 1.990 1_655 S
Li616 O676 1.956 . S
Li616 O677 1.970 . S
Li616 O678 1.961 . S
Li617 N641 1.990 . S
Li617 O676 1.970 . S
Li617 O677 1.956 . S
Li617 O679 1.961 . S
Li618 N663 1.990 . S
Li618 O676 1.961 . S
Li618 O678 1.956 . S
Li618 O679 1.970 . S
Li619 N669 1.990 . S
Li619 O677 1.961 . S
Li619 O678 1.970 . S
Li619 O679 1.956 . S
C620 C622 1.348 . S
C620 C623 1.356 . S
C620 O676 1.325 1_455 S
N621 C624 1.314 . S
N621 C625 1.279 . S
C622 C620 1.348 . S
C622 C624 1.353 . S
C622 H680 0.929 . S
C623 C620 1.356 . S
C623 C625 1.358 . S
C623 H681 0.930 . S
C624 N621 1.314 . S
C624 C622 1.353 . S
C624 H682 0.930 . S
C625 N621 1.279 . S
C625 C623 1.358 . S
C625 H683 0.930 . S
C626 C629 1.348 . S
C626 C630 1.356 . S
C626 O677 1.325 . S
C627 N628 1.279 . S
C627 C630 1.358 . S
C627 H684 0.930 . S
N628 C627 1.279 . S
N628 C631 1.314 . S
C629 C626 1.348 . S
C629 C631 1.353 . S
C629 H685 0.929 . S
C630 C626 1.356 . S
C630 C627 1.358 . S
C630 H686 0.930 . S
C631 N628 1.314 . S
C631 C629 1.353 . S
C631 H687 0.930 . S
C632 N633 1.314 . S
C632 C637 1.353 . S
C632 H638 0.930 . S
N633 Li616 1.990 1_455 S
N633 C632 1.314 . S
N633 C635 1.279 . S
C634 C635 1.358 . S
C634 C636 1.356 . S
C634 H688 0.930 . S
C635 N633 1.279 . S
C635 C634 1.358 . S
C635 H639 0.930 . S
C636 C634 1.356 . S
C636 C637 1.348 . S
C637 C632 1.353 . S
C637 C636 1.348 . S
C637 H689 0.929 . S
H638 C632 0.930 . S
H639 C635 0.930 . S
C640 N641 1.314 . S
C640 C642 1.353 . S
C640 H646 0.930 . S
N641 Li617 1.990 . S
N641 C640 1.314 . S
N641 C644 1.279 . S
C642 C640 1.353 . S
C642 C645 1.348 . S
C642 H690 0.929 . S
C643 C644 1.358 . S
C643 C645 1.356 . S
C643 H691 0.930 . S
C644 N641 1.279 . S
C644 C643 1.358 . S
C644 H647 0.930 . S
C645 C642 1.348 . S
C645 C643 1.356 . S
H646 C640 0.930 . S
H647 C644 0.930 . S
C648 C650 1.348 . S
C648 C651 1.356 . S
C648 O678 1.325 . S
N649 C652 1.314 . S
N649 C653 1.279 . S
C650 C648 1.348 . S
C650 C652 1.353 . S
C650 H692 0.929 . S
C651 C648 1.356 . S
C651 C653 1.358 . S
C651 H693 0.943 . S
C652 N649 1.314 . S
C652 C650 1.353 . S
C652 H694 0.930 . S
C653 N649 1.279 . S
C653 C651 1.358 . S
C653 H695 0.930 1_655 S
C654 C655 1.348 . S
C654 C656 1.356 . S
C654 O679 1.325 . S
C655 C654 1.348 . S
C655 C657 1.353 . S
C655 H696 0.929 . S
C656 C654 1.356 . S
C656 C658 1.358 . S
C656 H697 0.930 . S
C657 C655 1.353 . S
C657 N659 1.314 . S
C657 H698 0.930 . S
C658 C656 1.358 . S
C658 N659 1.279 . S
C658 H699 0.930 . S
N659 C657 1.314 . S
N659 C658 1.279 . S
C660 C662 1.353 . S
C660 N663 1.314 . S
C660 H666 0.930 . S
C661 N663 1.279 . S
C661 C664 1.358 . S
C661 H667 0.930 . S
C662 C660 1.353 . S
C662 C665 1.348 . S
C662 H700 0.929 . S
N663 Li618 1.990 . S
N663 C660 1.314 . S
N663 C661 1.279 . S
C664 C661 1.358 . S
C664 C665 1.356 . S
C664 H701 0.930 . S
C665 C662 1.348 . S
C665 C664 1.356 . S
H666 C660 0.930 . S
H667 C661 0.930 . S
C668 N669 1.314 . S
C668 C670 1.353 . S
C668 H674 0.930 . S
N669 Li619 1.990 . S
N669 C668 1.314 . S
N669 C672 1.279 . S
C670 C668 1.353 . S
C670 C673 1.348 . S
C670 H702 0.929 . S
C671 C672 1.358 . S
C671 C673 1.356 . S
C671 H703 0.930 . S
C672 N669 1.279 . S
C672 C671 1.358 . S
C672 H675 0.930 . S
C673 C670 1.348 . S
C673 C671 1.356 . S
H674 C668 0.930 . S
H675 C672 0.930 . S
O676 Li616 1.956 . S
O676 Li617 1.970 . S
O676 Li618 1.961 . S
O676 C620 1.325 1_655 S
O677 Li616 1.970 . S
O677 Li617 1.956 . S
O677 Li619 1.961 . S
O677 C626 1.325 . S
O678 Li616 1.961 . S
O678 Li618 1.956 . S
O678 Li619 1.970 . S
O678 C648 1.325 . S
O679 Li617 1.961 . S
O679 Li618 1.970 . S
O679 Li619 1.956 . S
O679 C654 1.325 . S
H680 C622 0.929 . S
H681 C623 0.930 . S
H682 C624 0.930 . S
H683 C625 0.930 . S
H684 C627 0.930 . S
H685 C629 0.929 . S
H686 C630 0.930 . S
H687 C631 0.930 . S
H688 C634 0.930 . S
H689 C637 0.929 . S
H690 C642 0.929 . S
H691 C643 0.930 . S
H692 C650 0.929 . S
H693 C651 0.943 . S
H694 C652 0.930 . S
H695 C653 0.930 1_455 S
H696 C655 0.929 . S
H697 C656 0.930 . S
H698 C657 0.930 . S
H699 C658 0.930 . S
H700 C662 0.929 . S
H701 C664 0.930 . S
H702 C670 0.929 . S
H703 C671 0.930 . S
Li704 N721 1.990 1_565 S
Li704 O764 1.956 . S
Li704 O765 1.970 . S
Li704 O766 1.961 . S
Li705 N729 1.990 . S
Li705 O764 1.970 . S
Li705 O765 1.956 . S
Li705 O767 1.961 . S
Li706 N751 1.990 . S
Li706 O764 1.961 . S
Li706 O766 1.956 . S
Li706 O767 1.970 . S
Li707 N757 1.990 . S
Li707 O765 1.961 . S
Li707 O766 1.970 . S
Li707 O767 1.956 . S
C708 C710 1.348 . S
C708 C711 1.356 . S
C708 O764 1.325 1_545 S
N709 C712 1.314 . S
N709 C713 1.279 . S
C710 C708 1.348 . S
C710 C712 1.353 . S
C710 H768 0.929 . S
C711 C708 1.356 . S
C711 C713 1.358 . S
C711 H769 0.930 . S
C712 N709 1.314 . S
C712 C710 1.353 . S
C712 H770 0.930 . S
C713 N709 1.279 . S
C713 C711 1.358 . S
C713 H771 0.930 . S
C714 C717 1.348 . S
C714 C718 1.356 . S
C714 O765 1.325 . S
C715 N716 1.279 . S
C715 C718 1.358 . S
C715 H772 0.930 . S
N716 C715 1.279 . S
N716 C719 1.314 . S
C717 C714 1.348 . S
C717 C719 1.353 . S
C717 H773 0.929 . S
C718 C714 1.356 . S
C718 C715 1.358 . S
C718 H774 0.930 . S
C719 N716 1.314 . S
C719 C717 1.353 . S
C719 H775 0.930 . S
C720 N721 1.314 . S
C720 C725 1.353 . S
C720 H726 0.930 . S
N721 Li704 1.990 1_545 S
N721 C720 1.314 . S
N721 C723 1.279 . S
C722 C723 1.358 . S
C722 C724 1.356 . S
C722 H776 0.930 . S
C723 N721 1.279 . S
C723 C722 1.358 . S
C723 H727 0.930 . S
C724 C722 1.356 . S
C724 C725 1.348 . S
C725 C720 1.353 . S
C725 C724 1.348 . S
C725 H777 0.929 . S
H726 C720 0.930 . S
H727 C723 0.930 . S
C728 N729 1.314 . S
C728 C730 1.353 . S
C728 H734 0.930 . S
N729 Li705 1.990 . S
N729 C728 1.314 . S
N729 C732 1.279 . S
C730 C728 1.353 . S
C730 C733 1.348 . S
C730 H778 0.929 . S
C731 C732 1.358 . S
C731 C733 1.356 . S
C731 H779 0.930 . S
C732 N729 1.279 . S
C732 C731 1.358 . S
C732 H735 0.930 . S
C733 C730 1.348 . S
C733 C731 1.356 . S
H734 C728 0.930 . S
H735 C732 0.930 . S
C736 C738 1.348 . S
C736 C739 1.356 . S
C736 O766 1.325 . S
N737 C740 1.314 . S
N737 C741 1.279 . S
C738 C736 1.348 . S
C738 C740 1.353 . S
C738 H780 0.929 . S
C739 C736 1.356 . S
C739 C741 1.358 . S
C739 H781 0.935 . S
C740 N737 1.314 . S
C740 C738 1.353 . S
C740 H782 0.930 . S
C741 N737 1.279 . S
C741 C739 1.358 . S
C741 H783 0.930 1_565 S
C742 C743 1.348 . S
C742 C744 1.356 . S
C742 O767 1.325 . S
C743 C742 1.348 . S
C743 C745 1.353 . S
C743 H784 0.929 . S
C744 C742 1.356 . S
C744 C746 1.358 . S
C744 H785 0.930 . S
C745 C743 1.353 . S
C745 N747 1.314 . S
C745 H786 0.930 . S
C746 C744 1.358 . S
C746 N747 1.279 . S
C746 H787 0.930 . S
N747 C745 1.314 . S
N747 C746 1.279 . S
C748 C750 1.353 . S
C748 N751 1.314 . S
C748 H754 0.930 . S
C749 N751 1.279 . S
C749 C752 1.358 . S
C749 H755 0.930 . S
C750 C748 1.353 . S
C750 C753 1.348 . S
C750 H788 0.929 . S
N751 Li706 1.990 . S
N751 C748 1.314 . S
N751 C749 1.279 . S
C752 C749 1.358 . S
C752 C753 1.356 . S
C752 H789 0.930 . S
C753 C750 1.348 . S
C753 C752 1.356 . S
H754 C748 0.930 . S
H755 C749 0.930 . S
C756 N757 1.314 . S
C756 C758 1.353 . S
C756 H762 0.930 . S
N757 Li707 1.990 . S
N757 C756 1.314 . S
N757 C760 1.279 . S
C758 C756 1.353 . S
C758 C761 1.348 . S
C758 H790 0.929 . S
C759 C760 1.358 . S
C759 C761 1.356 . S
C759 H791 0.930 . S
C760 N757 1.279 . S
C760 C759 1.358 . S
C760 H763 0.930 . S
C761 C758 1.348 . S
C761 C759 1.356 . S
H762 C756 0.930 . S
H763 C760 0.930 . S
O764 Li704 1.956 . S
O764 Li705 1.970 . S
O764 Li706 1.961 . S
O764 C708 1.325 1_565 S
O765 Li704 1.970 . S
O765 Li705 1.956 . S
O765 Li707 1.961 . S
O765 C714 1.325 . S
O766 Li704 1.961 . S
O766 Li706 1.956 . S
O766 Li707 1.970 . S
O766 C736 1.325 . S
O767 Li705 1.961 . S
O767 Li706 1.970 . S
O767 Li707 1.956 . S
O767 C742 1.325 . S
H768 C710 0.929 . S
H769 C711 0.930 . S
H770 C712 0.930 . S
H771 C713 0.930 . S
H772 C715 0.930 . S
H773 C717 0.929 . S
H774 C718 0.930 . S
H775 C719 0.930 . S
H776 C722 0.930 . S
H777 C725 0.929 . S
H778 C730 0.929 . S
H779 C731 0.930 . S
H780 C738 0.929 . S
H781 C739 0.935 . S
H782 C740 0.930 . S
H783 C741 0.930 1_545 S
H784 C743 0.929 . S
H785 C744 0.930 . S
H786 C745 0.930 . S
H787 C746 0.930 . S
H788 C750 0.929 . S
H789 C752 0.930 . S
H790 C758 0.929 . S
H791 C759 0.930 . S
Li792 N809 1.990 . S
Li792 O852 1.956 . S
Li792 O853 1.970 . S
Li792 O854 1.961 . S
Li793 N817 1.990 . S
Li793 O852 1.970 . S
Li793 O853 1.956 . S
Li793 O855 1.961 . S
Li794 N839 1.990 . S
Li794 O852 1.961 . S
Li794 O854 1.956 . S
Li794 O855 1.970 . S
Li795 N845 1.990 . S
Li795 O853 1.961 . S
Li795 O854 1.970 . S
Li795 O855 1.956 . S
C796 C798 1.348 . S
C796 C799 1.356 . S
C796 O852 1.325 . S
N797 C800 1.314 . S
N797 C801 1.279 . S
C798 C796 1.348 . S
C798 C800 1.353 . S
C798 H856 0.929 . S
C799 C796 1.356 . S
C799 C801 1.358 . S
C799 H857 0.930 . S
C800 N797 1.314 . S
C800 C798 1.353 . S
C800 H858 0.930 . S
C801 N797 1.279 . S
C801 C799 1.358 . S
C801 H859 0.930 . S
C802 C805 1.348 . S
C802 C806 1.356 . S
C802 O853 1.325 . S
C803 N804 1.279 . S
C803 C806 1.358 . S
C803 H860 0.930 . S
N804 C803 1.279 . S
N804 C807 1.314 . S
C805 C802 1.348 . S
C805 C807 1.353 . S
C805 H861 0.929 . S
C806 C802 1.356 . S
C806 C803 1.358 . S
C806 H862 0.930 . S
C807 N804 1.314 . S
C807 C805 1.353 . S
C807 H863 0.930 . S
C808 N809 1.314 . S
C808 C813 1.353 . S
C808 H814 0.930 . S
N809 Li792 1.990 . S
N809 C808 1.314 . S
N809 C811 1.279 . S
C810 C811 1.358 . S
C810 C812 1.356 . S
C810 H864 0.930 . S
C811 N809 1.279 . S
C811 C810 1.358 . S
C811 H815 0.930 . S
C812 C810 1.356 . S
C812 C813 1.348 . S
C813 C808 1.353 . S
C813 C812 1.348 . S
C813 H865 0.929 . S
H814 C808 0.930 . S
H815 C811 0.930 . S
C816 N817 1.314 . S
C816 C818 1.353 . S
C816 H822 0.930 . S
N817 Li793 1.990 . S
N817 C816 1.314 . S
N817 C820 1.279 . S
C818 C816 1.353 . S
C818 C821 1.348 . S
C818 H866 0.929 . S
C819 C820 1.358 . S
C819 C821 1.356 . S
C819 H867 0.930 . S
C820 N817 1.279 . S
C820 C819 1.358 . S
C820 H823 0.930 . S
C821 C818 1.348 . S
C821 C819 1.356 . S
H822 C816 0.930 . S
H823 C820 0.930 . S
C824 C826 1.348 . S
C824 C827 1.356 . S
C824 O854 1.325 . S
N825 C828 1.314 . S
N825 C829 1.279 . S
C826 C824 1.348 . S
C826 C828 1.353 . S
C826 H868 0.929 . S
C827 C824 1.356 . S
C827 C829 1.358 . S
C827 H869 0.930 . S
C828 N825 1.314 . S
C828 C826 1.353 . S
C828 H870 0.930 . S
C829 N825 1.279 . S
C829 C827 1.358 . S
C829 H871 0.930 . S
C830 C831 1.348 . S
C830 C832 1.356 . S
C830 O855 1.325 . S
C831 C830 1.348 . S
C831 C833 1.353 . S
C831 H872 0.929 . S
C832 C830 1.356 . S
C832 C834 1.358 . S
C832 H873 0.930 . S
C833 C831 1.353 . S
C833 N835 1.314 . S
C833 H874 0.930 . S
C834 C832 1.358 . S
C834 N835 1.279 . S
C834 H875 0.930 . S
N835 C833 1.314 . S
N835 C834 1.279 . S
C836 C838 1.353 . S
C836 N839 1.314 . S
C836 H842 0.930 . S
C837 N839 1.279 . S
C837 C840 1.358 . S
C837 H843 0.930 . S
C838 C836 1.353 . S
C838 C841 1.348 . S
C838 H876 0.929 . S
N839 Li794 1.990 . S
N839 C836 1.314 . S
N839 C837 1.279 . S
C840 C837 1.358 . S
C840 C841 1.356 . S
C840 H877 0.930 . S
C841 C838 1.348 . S
C841 C840 1.356 . S
H842 C836 0.930 . S
H843 C837 0.930 . S
C844 N845 1.314 . S
C844 C846 1.353 . S
C844 H850 0.930 . S
N845 Li795 1.990 . S
N845 C844 1.314 . S
N845 C848 1.279 . S
C846 C844 1.353 . S
C846 C849 1.348 . S
C846 H878 0.929 . S
C847 C848 1.358 . S
C847 C849 1.356 . S
C847 H879 0.930 . S
C848 N845 1.279 . S
C848 C847 1.358 . S
C848 H851 0.930 . S
C849 C846 1.348 . S
C849 C847 1.356 . S
H850 C844 0.930 . S
H851 C848 0.930 . S
O852 Li792 1.956 . S
O852 Li793 1.970 . S
O852 Li794 1.961 . S
O852 C796 1.325 . S
O853 Li792 1.970 . S
O853 Li793 1.956 . S
O853 Li795 1.961 . S
O853 C802 1.325 . S
O854 Li792 1.961 . S
O854 Li794 1.956 . S
O854 Li795 1.970 . S
O854 C824 1.325 . S
O855 Li793 1.961 . S
O855 Li794 1.970 . S
O855 Li795 1.956 . S
O855 C830 1.325 . S
H856 C798 0.929 . S
H857 C799 0.930 . S
H858 C800 0.930 . S
H859 C801 0.930 . S
H860 C803 0.930 . S
H861 C805 0.929 . S
H862 C806 0.930 . S
H863 C807 0.930 . S
H864 C810 0.930 . S
H865 C813 0.929 . S
H866 C818 0.929 . S
H867 C819 0.930 . S
H868 C826 0.929 . S
H869 C827 0.930 . S
H870 C828 0.930 . S
H871 C829 0.930 . S
H872 C831 0.929 . S
H873 C832 0.930 . S
H874 C833 0.930 . S
H875 C834 0.930 . S
H876 C838 0.929 . S
H877 C840 0.930 . S
H878 C846 0.929 . S
H879 C847 0.930 . S
Li880 N897 1.990 1_455 S
Li880 O940 1.956 . S
Li880 O941 1.970 . S
Li880 O942 1.961 . S
Li881 N905 1.990 . S
Li881 O940 1.970 . S
Li881 O941 1.956 . S
Li881 O943 1.961 . S
Li882 N927 1.990 . S
Li882 O940 1.961 . S
Li882 O942 1.956 . S
Li882 O943 1.970 . S
Li883 N933 1.990 . S
Li883 O941 1.961 . S
Li883 O942 1.970 . S
Li883 O943 1.956 . S
C884 C886 1.348 . S
C884 C887 1.356 . S
C884 O940 1.325 1_655 S
N885 C888 1.314 . S
N885 C889 1.279 . S
C886 C884 1.348 . S
C886 C888 1.353 . S
C886 H944 0.929 . S
C887 C884 1.356 . S
C887 C889 1.358 . S
C887 H945 0.930 . S
C888 N885 1.314 . S
C888 C886 1.353 . S
C888 H946 0.930 . S
C889 N885 1.279 . S
C889 C887 1.358 . S
C889 H947 0.930 . S
C890 C893 1.348 . S
C890 C894 1.356 . S
C890 O941 1.325 . S
C891 N892 1.279 . S
C891 C894 1.358 . S
C891 H948 0.930 . S
N892 C891 1.279 . S
N892 C895 1.314 . S
C893 C890 1.348 . S
C893 C895 1.353 . S
C893 H949 0.929 . S
C894 C890 1.356 . S
C894 C891 1.358 . S
C894 H950 0.930 . S
C895 N892 1.314 . S
C895 C893 1.353 . S
C895 H951 0.930 . S
C896 N897 1.314 . S
C896 C901 1.353 . S
C896 H902 0.930 . S
N897 Li880 1.990 1_655 S
N897 C896 1.314 . S
N897 C899 1.279 . S
C898 C899 1.358 . S
C898 C900 1.356 . S
C898 H952 0.930 . S
C899 N897 1.279 . S
C899 C898 1.358 . S
C899 H903 0.930 . S
C900 C898 1.356 . S
C900 C901 1.348 . S
C901 C896 1.353 . S
C901 C900 1.348 . S
C901 H953 0.929 . S
H902 C896 0.930 . S
H903 C899 0.930 . S
C904 N905 1.314 . S
C904 C906 1.353 . S
C904 H910 0.930 . S
N905 Li881 1.990 . S
N905 C904 1.314 . S
N905 C908 1.279 . S
C906 C904 1.353 . S
C906 C909 1.348 . S
C906 H954 0.929 . S
C907 C908 1.358 . S
C907 C909 1.356 . S
C907 H955 0.930 . S
C908 N905 1.279 . S
C908 C907 1.358 . S
C908 H911 0.930 . S
C909 C906 1.348 . S
C909 C907 1.356 . S
H910 C904 0.930 . S
H911 C908 0.930 . S
C912 C914 1.348 . S
C912 C915 1.356 . S
C912 O942 1.325 . S
N913 C916 1.314 . S
N913 C917 1.279 . S
C914 C912 1.348 . S
C914 C916 1.353 . S
C914 H956 0.929 . S
C915 C912 1.356 . S
C915 C917 1.358 . S
C915 H957 0.943 . S
C916 N913 1.314 . S
C916 C914 1.353 . S
C916 H958 0.930 . S
C917 N913 1.279 . S
C917 C915 1.358 . S
C917 H959 0.930 1_455 S
C918 C919 1.348 . S
C918 C920 1.356 . S
C918 O943 1.325 . S
C919 C918 1.348 . S
C919 C921 1.353 . S
C919 H960 0.929 . S
C920 C918 1.356 . S
C920 C922 1.358 . S
C920 H961 0.930 . S
C921 C919 1.353 . S
C921 N923 1.314 . S
C921 H962 0.930 . S
C922 C920 1.358 . S
C922 N923 1.279 . S
C922 H963 0.930 . S
N923 C921 1.314 . S
N923 C922 1.279 . S
C924 C926 1.353 . S
C924 N927 1.314 . S
C924 H930 0.930 . S
C925 N927 1.279 . S
C925 C928 1.358 . S
C925 H931 0.930 . S
C926 C924 1.353 . S
C926 C929 1.348 . S
C926 H964 0.929 . S
N927 Li882 1.990 . S
N927 C924 1.314 . S
N927 C925 1.279 . S
C928 C925 1.358 . S
C928 C929 1.356 . S
C928 H965 0.930 . S
C929 C926 1.348 . S
C929 C928 1.356 . S
H930 C924 0.930 . S
H931 C925 0.930 . S
C932 N933 1.314 . S
C932 C934 1.353 . S
C932 H938 0.930 . S
N933 Li883 1.990 . S
N933 C932 1.314 . S
N933 C936 1.279 . S
C934 C932 1.353 . S
C934 C937 1.348 . S
C934 H966 0.929 . S
C935 C936 1.358 . S
C935 C937 1.356 . S
C935 H967 0.930 . S
C936 N933 1.279 . S
C936 C935 1.358 . S
C936 H939 0.930 . S
C937 C934 1.348 . S
C937 C935 1.356 . S
H938 C932 0.930 . S
H939 C936 0.930 . S
O940 Li880 1.956 . S
O940 Li881 1.970 . S
O940 Li882 1.961 . S
O940 C884 1.325 1_455 S
O941 Li880 1.970 . S
O941 Li881 1.956 . S
O941 Li883 1.961 . S
O941 C890 1.325 . S
O942 Li880 1.961 . S
O942 Li882 1.956 . S
O942 Li883 1.970 . S
O942 C912 1.325 . S
O943 Li881 1.961 . S
O943 Li882 1.970 . S
O943 Li883 1.956 . S
O943 C918 1.325 . S
H944 C886 0.929 . S
H945 C887 0.930 . S
H946 C888 0.930 . S
H947 C889 0.930 . S
H948 C891 0.930 . S
H949 C893 0.929 . S
H950 C894 0.930 . S
H951 C895 0.930 . S
H952 C898 0.930 . S
H953 C901 0.929 . S
H954 C906 0.929 . S
H955 C907 0.930 . S
H956 C914 0.929 . S
H957 C915 0.943 . S
H958 C916 0.930 . S
H959 C917 0.930 1_655 S
H960 C919 0.929 . S
H961 C920 0.930 . S
H962 C921 0.930 . S
H963 C922 0.930 . S
H964 C926 0.929 . S
H965 C928 0.930 . S
H966 C934 0.929 . S
H967 C935 0.930 . S
Li968 N985 1.990 . S
Li968 O1028 1.956 . S
Li968 O1029 1.970 . S
Li968 O1030 1.961 . S
Li969 N993 1.990 1_545 S
Li969 O1028 1.970 . S
Li969 O1029 1.956 . S
Li969 O1031 1.961 . S
Li970 N1015 1.990 . S
Li970 O1028 1.961 . S
Li970 O1030 1.956 . S
Li970 O1031 1.970 . S
Li971 N1021 1.990 . S
Li971 O1029 1.961 . S
Li971 O1030 1.970 . S
Li971 O1031 1.956 . S
C972 C974 1.348 . S
C972 C975 1.356 . S
C972 O1028 1.325 . S
N973 C976 1.314 . S
N973 C977 1.279 . S
C974 C972 1.348 . S
C974 C976 1.353 . S
C974 H1032 0.929 . S
C975 C972 1.356 . S
C975 C977 1.358 . S
C975 H1033 0.930 . S
C976 N973 1.314 . S
C976 C974 1.353 . S
C976 H1034 0.930 . S
C977 N973 1.279 . S
C977 C975 1.358 . S
C977 H1035 0.930 . S
C978 C981 1.348 . S
C978 C982 1.356 . S
C978 O1029 1.325 1_565 S
C979 N980 1.279 . S
C979 C982 1.358 . S
C979 H1036 0.930 . S
N980 C979 1.279 . S
N980 C983 1.314 . S
C981 C978 1.348 . S
C981 C983 1.353 . S
C981 H1037 0.929 . S
C982 C978 1.356 . S
C982 C979 1.358 . S
C982 H1038 0.930 . S
C983 N980 1.314 . S
C983 C981 1.353 . S
C983 H1039 0.930 . S
C984 N985 1.314 . S
C984 C989 1.353 . S
C984 H990 0.930 . S
N985 Li968 1.990 . S
N985 C984 1.314 . S
N985 C987 1.279 . S
C986 C987 1.358 . S
C986 C988 1.356 . S
C986 H1040 0.930 . S
C987 N985 1.279 . S
C987 C986 1.358 . S
C987 H991 0.930 . S
C988 C986 1.356 . S
C988 C989 1.348 . S
C989 C984 1.353 . S
C989 C988 1.348 . S
C989 H1041 0.929 . S
H990 C984 0.930 . S
H991 C987 0.930 . S
C992 N993 1.314 . S
C992 C994 1.353 . S
C992 H998 0.930 . S
N993 Li969 1.990 1_565 S
N993 C992 1.314 . S
N993 C996 1.279 . S
C994 C992 1.353 . S
C994 C997 1.348 . S
C994 H1042 0.929 . S
C995 C996 1.358 . S
C995 C997 1.356 . S
C995 H1043 0.930 . S
C996 N993 1.279 . S
C996 C995 1.358 . S
C996 H999 0.930 . S
C997 C994 1.348 . S
C997 C995 1.356 . S
H998 C992 0.930 . S
H999 C996 0.930 . S
C1000 C1002 1.348 . S
C1000 C1003 1.356 . S
C1000 O1030 1.325 . S
N1001 C1004 1.314 . S
N1001 C1005 1.279 . S
C1002 C1000 1.348 . S
C1002 C1004 1.353 . S
C1002 H1044 0.929 . S
C1003 C1000 1.356 . S
C1003 C1005 1.358 . S
C1003 H1045 0.930 . S
C1004 N1001 1.314 . S
C1004 C1002 1.353 . S
C1004 H1046 0.930 . S
C1005 N1001 1.279 . S
C1005 C1003 1.358 . S
C1005 H1047 0.930 . S
C1006 C1007 1.348 . S
C1006 C1008 1.356 . S
C1006 O1031 1.325 . S
C1007 C1006 1.348 . S
C1007 C1009 1.353 . S
C1007 H1048 0.929 . S
C1008 C1006 1.356 . S
C1008 C1010 1.358 . S
C1008 H1049 0.935 . S
C1009 C1007 1.353 . S
C1009 N1011 1.314 . S
C1009 H1050 0.930 . S
C1010 C1008 1.358 . S
C1010 N1011 1.279 . S
C1010 H1051 0.930 1_545 S
N1011 C1009 1.314 . S
N1011 C1010 1.279 . S
C1012 C1014 1.353 . S
C1012 N1015 1.314 . S
C1012 H1018 0.930 . S
C1013 N1015 1.279 . S
C1013 C1016 1.358 . S
C1013 H1019 0.930 . S
C1014 C1012 1.353 . S
C1014 C1017 1.348 . S
C1014 H1052 0.929 . S
N1015 Li970 1.990 . S
N1015 C1012 1.314 . S
N1015 C1013 1.279 . S
C1016 C1013 1.358 . S
C1016 C1017 1.356 . S
C1016 H1053 0.930 . S
C1017 C1014 1.348 . S
C1017 C1016 1.356 . S
H1018 C1012 0.930 . S
H1019 C1013 0.930 . S
C1020 N1021 1.314 . S
C1020 C1022 1.353 . S
C1020 H1026 0.930 . S
N1021 Li971 1.990 . S
N1021 C1020 1.314 . S
N1021 C1024 1.279 . S
C1022 C1020 1.353 . S
C1022 C1025 1.348 . S
C1022 H1054 0.929 . S
C1023 C1024 1.358 . S
C1023 C1025 1.356 . S
C1023 H1055 0.930 . S
C1024 N1021 1.279 . S
C1024 C1023 1.358 . S
C1024 H1027 0.930 . S
C1025 C1022 1.348 . S
C1025 C1023 1.356 . S
H1026 C1020 0.930 . S
H1027 C1024 0.930 . S
O1028 Li968 1.956 . S
O1028 Li969 1.970 . S
O1028 Li970 1.961 . S
O1028 C972 1.325 . S
O1029 Li968 1.970 . S
O1029 Li969 1.956 . S
O1029 Li971 1.961 . S
O1029 C978 1.325 1_545 S
O1030 Li968 1.961 . S
O1030 Li970 1.956 . S
O1030 Li971 1.970 . S
O1030 C1000 1.325 . S
O1031 Li969 1.961 . S
O1031 Li970 1.970 . S
O1031 Li971 1.956 . S
O1031 C1006 1.325 . S
H1032 C974 0.929 . S
H1033 C975 0.930 . S
H1034 C976 0.930 . S
H1035 C977 0.930 . S
H1036 C979 0.930 . S
H1037 C981 0.929 . S
H1038 C982 0.930 . S
H1039 C983 0.930 . S
H1040 C986 0.930 . S
H1041 C989 0.929 . S
H1042 C994 0.929 . S
H1043 C995 0.930 . S
H1044 C1002 0.929 . S
H1045 C1003 0.930 . S
H1046 C1004 0.930 . S
H1047 C1005 0.930 . S
H1048 C1007 0.929 . S
H1049 C1008 0.935 . S
H1050 C1009 0.930 . S
H1051 C1010 0.930 1_565 S
H1052 C1014 0.929 . S
H1053 C1016 0.930 . S
H1054 C1022 0.929 . S
H1055 C1023 0.930 . S
H1056 C1062 0.930 . S
H1057 C1065 0.930 . S
H1058 C1066 0.930 1_455 S
H1059 C1067 0.930 . S
H1060 C1070 0.930 . S
H1061 C1071 0.930 1_655 S
C1062 H1056 0.930 . S
C1062 C1063 1.355 . S
C1062 C1064 1.415 . S
C1063 C1062 1.355 . S
C1063 C1065 1.419 . S
C1064 C1062 1.415 . S
C1064 C1069 1.425 1_655 S
C1064 C1071 1.409 1_655 S
C1065 H1057 0.930 . S
C1065 C1063 1.419 . S
C1065 C1066 1.362 . S
C1066 H1058 0.930 1_655 S
C1066 C1065 1.362 . S
C1066 C1069 1.409 1_655 S
C1067 H1059 0.930 . S
C1067 C1068 1.355 . S
C1067 C1069 1.415 . S
C1068 C1067 1.355 . S
C1068 C1070 1.419 . S
C1069 C1064 1.425 1_455 S
C1069 C1066 1.409 1_455 S
C1069 C1067 1.415 . S
C1070 H1060 0.930 . S
C1070 C1068 1.419 . S
C1070 C1071 1.362 . S
C1071 H1061 0.930 1_455 S
C1071 C1064 1.409 1_455 S
C1071 C1070 1.362 . S
H1072 C1078 0.930 . S
H1073 C1081 0.930 . S
H1074 C1082 0.930 . S
H1075 C1083 0.930 . S
H1076 C1086 0.930 . S
H1077 C1087 0.930 . S
C1078 H1072 0.930 . S
C1078 C1079 1.355 . S
C1078 C1080 1.412 1_545 S
C1079 C1078 1.355 . S
C1079 C1081 1.419 . S
C1080 C1078 1.412 1_565 S
C1080 C1085 1.424 1_565 S
C1080 C1087 1.412 . S
C1081 H1073 0.930 . S
C1081 C1079 1.419 . S
C1081 C1082 1.362 . S
C1082 H1074 0.930 . S
C1082 C1081 1.362 . S
C1082 C1085 1.412 . S
C1083 H1075 0.930 . S
C1083 C1084 1.355 . S
C1083 C1085 1.412 1_565 S
C1084 C1083 1.355 . S
C1084 C1086 1.419 . S
C1085 C1080 1.424 1_545 S
C1085 C1082 1.412 . S
C1085 C1083 1.412 1_545 S
C1086 H1076 0.930 . S
C1086 C1084 1.419 . S
C1086 C1087 1.362 . S
C1087 H1077 0.930 . S
C1087 C1080 1.412 . S
C1087 C1086 1.362 . S
H1088 C1094 0.930 . S
H1089 C1097 0.930 . S
H1090 C1098 0.930 . S
H1091 C1099 0.930 . S
H1092 C1102 0.930 . S
H1093 C1103 0.930 . S
C1094 H1088 0.930 . S
C1094 C1095 1.355 . S
C1094 C1096 1.415 . S
C1095 C1094 1.355 . S
C1095 C1097 1.419 . S
C1096 C1094 1.415 . S
C1096 C1101 1.425 . S
C1096 C1103 1.409 . S
C1097 H1089 0.930 . S
C1097 C1095 1.419 . S
C1097 C1098 1.362 . S
C1098 H1090 0.930 . S
C1098 C1097 1.362 . S
C1098 C1101 1.409 . S
C1099 H1091 0.930 . S
C1099 C1100 1.355 . S
C1099 C1101 1.415 . S
C1100 C1099 1.355 . S
C1100 C1102 1.419 . S
C1101 C1096 1.425 . S
C1101 C1098 1.409 . S
C1101 C1099 1.415 . S
C1102 H1092 0.930 . S
C1102 C1100 1.419 . S
C1102 C1103 1.362 . S
C1103 H1093 0.930 . S
C1103 C1096 1.409 . S
C1103 C1102 1.362 . S
H1104 C1110 0.930 . S
H1105 C1113 0.930 . S
H1106 C1114 0.930 . S
H1107 C1115 0.930 . S
H1108 C1118 0.930 . S
H1109 C1119 0.930 . S
C1110 H1104 0.930 . S
C1110 C1111 1.355 . S
C1110 C1112 1.415 . S
C1111 C1110 1.355 . S
C1111 C1113 1.419 . S
C1112 C1110 1.415 . S
C1112 C1117 1.425 1_655 S
C1112 C1119 1.409 1_655 S
C1113 H1105 0.930 . S
C1113 C1111 1.419 . S
C1113 C1114 1.362 . S
C1114 H1106 0.930 . S
C1114 C1113 1.362 . S
C1114 C1117 1.409 1_655 S
C1115 H1107 0.930 . S
C1115 C1116 1.355 . S
C1115 C1117 1.415 . S
C1116 C1115 1.355 . S
C1116 C1118 1.419 . S
C1117 C1112 1.425 1_455 S
C1117 C1114 1.409 1_455 S
C1117 C1115 1.415 . S
C1118 H1108 0.930 . S
C1118 C1116 1.419 . S
C1118 C1119 1.362 . S
C1119 H1109 0.930 . S
C1119 C1112 1.409 1_455 S
C1119 C1118 1.362 . S
H1120 C1126 0.930 . S
H1121 C1129 0.930 . S
H1122 C1130 0.930 . S
H1123 C1131 0.930 . S
H1124 C1134 0.930 . S
H1125 C1135 0.930 . S
C1126 H1120 0.930 . S
C1126 C1127 1.355 . S
C1126 C1128 1.415 . S
C1127 C1126 1.355 . S
C1127 C1129 1.419 . S
C1128 C1126 1.415 . S
C1128 C1133 1.425 1_545 S
C1128 C1135 1.409 1_545 S
C1129 H1121 0.930 . S
C1129 C1127 1.419 . S
C1129 C1130 1.362 . S
C1130 H1122 0.930 . S
C1130 C1129 1.362 . S
C1130 C1133 1.409 1_545 S
C1131 H1123 0.930 . S
C1131 C1132 1.355 . S
C1131 C1133 1.415 . S
C1132 C1131 1.355 . S
C1132 C1134 1.419 . S
C1133 C1128 1.425 1_565 S
C1133 C1130 1.409 1_565 S
C1133 C1131 1.415 . S
C1134 H1124 0.930 . S
C1134 C1132 1.419 . S
C1134 C1135 1.362 . S
C1135 H1125 0.930 . S
C1135 C1128 1.409 1_565 S
C1135 C1134 1.362 . S
H1136 C1142 0.930 . S
H1137 C1145 0.930 . S
H1138 C1146 0.930 . S
H1139 C1147 0.930 . S
H1140 C1150 0.930 . S
H1141 C1151 0.930 . S
C1142 H1136 0.930 . S
C1142 C1143 1.355 . S
C1142 C1144 1.415 . S
C1143 C1142 1.355 . S
C1143 C1145 1.419 . S
C1144 C1142 1.415 . S
C1144 C1149 1.425 . S
C1144 C1151 1.409 . S
C1145 H1137 0.930 . S
C1145 C1143 1.419 . S
C1145 C1146 1.362 . S
C1146 H1138 0.930 . S
C1146 C1145 1.362 . S
C1146 C1149 1.409 . S
C1147 H1139 0.930 . S
C1147 C1148 1.355 . S
C1147 C1149 1.415 . S
C1148 C1147 1.355 . S
C1148 C1150 1.419 . S
C1149 C1144 1.425 . S
C1149 C1146 1.409 . S
C1149 C1147 1.415 . S
C1150 H1140 0.930 . S
C1150 C1148 1.419 . S
C1150 C1151 1.362 . S
C1151 H1141 0.930 . S
C1151 C1144 1.409 . S
C1151 C1150 1.362 . S
H1152 C1158 0.930 . S
H1153 C1161 0.930 . S
H1154 C1162 0.930 . S
H1155 C1163 0.930 . S
H1156 C1166 0.930 . S
H1157 C1167 0.930 . S
C1158 H1152 0.930 . S
C1158 C1159 1.355 . S
C1158 C1160 1.415 . S
C1159 C1158 1.355 . S
C1159 C1161 1.419 . S
C1160 C1158 1.415 . S
C1160 C1165 1.425 . S
C1160 C1167 1.409 . S
C1161 H1153 0.930 . S
C1161 C1159 1.419 . S
C1161 C1162 1.362 . S
C1162 H1154 0.930 . S
C1162 C1161 1.362 . S
C1162 C1165 1.409 . S
C1163 H1155 0.930 . S
C1163 C1164 1.355 . S
C1163 C1165 1.415 . S
C1164 C1163 1.355 . S
C1164 C1166 1.419 . S
C1165 C1160 1.425 . S
C1165 C1162 1.409 . S
C1165 C1163 1.415 . S
C1166 H1156 0.930 . S
C1166 C1164 1.419 . S
C1166 C1167 1.362 . S
C1167 H1157 0.930 . S
C1167 C1160 1.409 . S
C1167 C1166 1.362 . S
H1168 C1174 0.930 . S
H1169 C1177 0.930 . S
H1170 C1178 0.930 . S
H1171 C1179 0.930 . S
H1172 C1182 0.930 . S
H1173 C1183 0.930 . S
C1174 H1168 0.930 . S
C1174 C1175 1.355 . S
C1174 C1176 1.415 . S
C1175 C1174 1.355 . S
C1175 C1177 1.419 . S
C1176 C1174 1.415 . S
C1176 C1181 1.425 1_455 S
C1176 C1183 1.409 . S
C1177 H1169 0.930 . S
C1177 C1175 1.419 . S
C1177 C1178 1.362 1_455 S
C1178 H1170 0.930 . S
C1178 C1177 1.362 1_655 S
C1178 C1181 1.409 . S
C1179 H1171 0.930 . S
C1179 C1180 1.355 . S
C1179 C1181 1.415 . S
C1180 C1179 1.355 . S
C1180 C1182 1.419 . S
C1181 C1176 1.425 1_655 S
C1181 C1178 1.409 . S
C1181 C1179 1.415 . S
C1182 H1172 0.930 . S
C1182 C1180 1.419 . S
C1182 C1183 1.362 1_655 S
C1183 H1173 0.930 . S
C1183 C1176 1.409 . S
C1183 C1182 1.362 1_455 S
H1184 C1190 0.930 . S
H1185 C1193 0.930 . S
H1186 C1194 0.930 . S
H1187 C1195 0.930 . S
H1188 C1198 0.930 . S
H1189 C1199 0.930 . S
C1190 H1184 0.930 . S
C1190 C1191 1.355 . S
C1190 C1192 1.415 . S
C1191 C1190 1.355 . S
C1191 C1193 1.419 . S
C1192 C1190 1.415 . S
C1192 C1197 1.425 1_545 S
C1192 C1199 1.409 . S
C1193 H1185 0.930 . S
C1193 C1191 1.419 . S
C1193 C1194 1.362 1_545 S
C1194 H1186 0.930 . S
C1194 C1193 1.362 1_565 S
C1194 C1197 1.409 . S
C1195 H1187 0.930 . S
C1195 C1196 1.355 . S
C1195 C1197 1.415 . S
C1196 C1195 1.355 . S
C1196 C1198 1.419 . S
C1197 C1192 1.425 1_565 S
C1197 C1194 1.409 . S
C1197 C1195 1.415 . S
C1198 H1188 0.930 . S
C1198 C1196 1.419 . S
C1198 C1199 1.362 1_565 S
C1199 H1189 0.930 . S
C1199 C1192 1.409 . S
C1199 C1198 1.362 1_545 S
H1200 C1206 0.930 . S
H1201 C1209 0.930 . S
H1202 C1210 0.930 . S
H1203 C1211 0.930 . S
H1204 C1214 0.930 . S
H1205 C1215 0.930 . S
C1206 H1200 0.930 . S
C1206 C1207 1.355 . S
C1206 C1208 1.415 . S
C1207 C1206 1.355 . S
C1207 C1209 1.419 . S
C1208 C1206 1.415 . S
C1208 C1213 1.425 . S
C1208 C1215 1.409 . S
C1209 H1201 0.930 . S
C1209 C1207 1.419 . S
C1209 C1210 1.362 . S
C1210 H1202 0.930 . S
C1210 C1209 1.362 . S
C1210 C1213 1.409 . S
C1211 H1203 0.930 . S
C1211 C1212 1.355 . S
C1211 C1213 1.415 . S
C1212 C1211 1.355 . S
C1212 C1214 1.419 . S
C1213 C1208 1.425 . S
C1213 C1210 1.409 . S
C1213 C1211 1.415 . S
C1214 H1204 0.930 . S
C1214 C1212 1.419 . S
C1214 C1215 1.362 . S
C1215 H1205 0.930 . S
C1215 C1208 1.409 . S
C1215 C1214 1.362 . S
H1216 C1222 0.930 . S
H1217 C1225 0.930 . S
H1218 C1226 0.930 . S
H1219 C1227 0.930 . S
H1220 C1230 0.930 . S
H1221 C1231 0.930 . S
C1222 H1216 0.930 . S
C1222 C1223 1.355 . S
C1222 C1224 1.415 1_655 S
C1223 C1222 1.355 . S
C1223 C1225 1.419 . S
C1224 C1222 1.415 1_455 S
C1224 C1229 1.425 1_455 S
C1224 C1231 1.409 . S
C1225 H1217 0.930 . S
C1225 C1223 1.419 . S
C1225 C1226 1.362 . S
C1226 H1218 0.930 . S
C1226 C1225 1.362 . S
C1226 C1229 1.409 . S
C1227 H1219 0.930 . S
C1227 C1228 1.355 . S
C1227 C1229 1.415 1_455 S
C1228 C1227 1.355 . S
C1228 C1230 1.419 . S
C1229 C1224 1.425 1_655 S
C1229 C1226 1.409 . S
C1229 C1227 1.415 1_655 S
C1230 H1220 0.930 . S
C1230 C1228 1.419 . S
C1230 C1231 1.362 . S
C1231 H1221 0.930 . S
C1231 C1224 1.409 . S
C1231 C1230 1.362 . S
H1232 C1238 0.930 . S
H1233 C1241 0.930 . S
H1234 C1242 0.930 . S
H1235 C1243 0.930 . S
H1236 C1246 0.930 . S
H1237 C1247 0.930 . S
C1238 H1232 0.930 . S
C1238 C1239 1.355 . S
C1238 C1240 1.415 1_565 S
C1239 C1238 1.355 . S
C1239 C1241 1.419 . S
C1240 C1238 1.415 1_545 S
C1240 C1245 1.425 1_545 S
C1240 C1247 1.409 . S
C1241 H1233 0.930 . S
C1241 C1239 1.419 . S
C1241 C1242 1.362 . S
C1242 H1234 0.930 . S
C1242 C1241 1.362 . S
C1242 C1245 1.409 . S
C1243 H1235 0.930 . S
C1243 C1244 1.355 . S
C1243 C1245 1.415 1_545 S
C1244 C1243 1.355 . S
C1244 C1246 1.419 . S
C1245 C1240 1.425 1_565 S
C1245 C1242 1.409 . S
C1245 C1243 1.415 1_565 S
C1246 H1236 0.930 . S
C1246 C1244 1.419 . S
C1246 C1247 1.362 . S
C1247 H1237 0.930 . S
C1247 C1240 1.409 . S
C1247 C1246 1.362 . S
H1248 C1254 0.930 . S
H1249 C1257 0.930 . S
H1250 C1258 0.930 . S
H1251 C1259 0.930 . S
H1252 C1262 0.930 . S
H1253 C1263 0.930 . S
C1254 H1248 0.930 . S
C1254 C1255 1.355 . S
C1254 C1256 1.415 . S
C1255 C1254 1.355 . S
C1255 C1257 1.419 . S
C1256 C1254 1.415 . S
C1256 C1261 1.425 . S
C1256 C1263 1.409 . S
C1257 H1249 0.930 . S
C1257 C1255 1.419 . S
C1257 C1258 1.362 . S
C1258 H1250 0.930 . S
C1258 C1257 1.362 . S
C1258 C1261 1.409 . S
C1259 H1251 0.930 . S
C1259 C1260 1.355 . S
C1259 C1261 1.415 . S
C1260 C1259 1.355 . S
C1260 C1262 1.419 . S
C1261 C1256 1.425 . S
C1261 C1258 1.409 . S
C1261 C1259 1.415 . S
C1262 H1252 0.930 . S
C1262 C1260 1.419 . S
C1262 C1263 1.362 . S
C1263 H1253 0.930 . S
C1263 C1256 1.409 . S
C1263 C1262 1.362 . S
H1264 C1270 0.930 . S
H1265 C1273 0.930 . S
H1266 C1274 0.930 . S
H1267 C1275 0.930 . S
H1268 C1278 0.930 . S
H1269 C1279 0.930 . S
C1270 H1264 0.930 . S
C1270 C1271 1.355 . S
C1270 C1272 1.415 . S
C1271 C1270 1.355 . S
C1271 C1273 1.419 . S
C1272 C1270 1.415 . S
C1272 C1277 1.425 . S
C1272 C1279 1.409 . S
C1273 H1265 0.930 . S
C1273 C1271 1.419 . S
C1273 C1274 1.362 . S
C1274 H1266 0.930 . S
C1274 C1273 1.362 . S
C1274 C1277 1.409 . S
C1275 H1267 0.930 . S
C1275 C1276 1.355 . S
C1275 C1277 1.415 . S
C1276 C1275 1.355 . S
C1276 C1278 1.419 . S
C1277 C1272 1.425 . S
C1277 C1274 1.409 . S
C1277 C1275 1.415 . S
C1278 H1268 0.930 . S
C1278 C1276 1.419 . S
C1278 C1279 1.362 . S
C1279 H1269 0.930 . S
C1279 C1272 1.409 . S
C1279 C1278 1.362 . S
H1280 C1286 0.930 . S
H1281 C1289 0.930 . S
H1282 C1290 0.930 . S
H1283 C1291 0.930 . S
H1284 C1294 0.930 . S
H1285 C1295 0.930 . S
C1286 H1280 0.930 . S
C1286 C1287 1.355 . S
C1286 C1288 1.415 . S
C1287 C1286 1.355 . S
C1287 C1289 1.419 . S
C1288 C1286 1.415 . S
C1288 C1293 1.425 . S
C1288 C1295 1.409 . S
C1289 H1281 0.930 . S
C1289 C1287 1.419 . S
C1289 C1290 1.362 . S
C1290 H1282 0.930 . S
C1290 C1289 1.362 . S
C1290 C1293 1.409 . S
C1291 H1283 0.930 . S
C1291 C1292 1.355 . S
C1291 C1293 1.415 . S
C1292 C1291 1.355 . S
C1292 C1294 1.419 . S
C1293 C1288 1.425 . S
C1293 C1290 1.409 . S
C1293 C1291 1.415 . S
C1294 H1284 0.930 . S
C1294 C1292 1.419 . S
C1294 C1295 1.362 . S
C1295 H1285 0.930 . S
C1295 C1288 1.409 . S
C1295 C1294 1.362 . S
H1296 C1302 0.930 . S
H1297 C1305 0.930 . S
H1298 C1306 0.930 . S
H1299 C1307 0.930 . S
H1300 C1310 0.930 . S
H1301 C1311 0.930 . S
C1302 H1296 0.930 . S
C1302 C1303 1.355 . S
C1302 C1304 1.415 . S
C1303 C1302 1.355 . S
C1303 C1305 1.419 . S
C1304 C1302 1.415 . S
C1304 C1309 1.425 . S
C1304 C1311 1.409 . S
C1305 H1297 0.930 . S
C1305 C1303 1.419 . S
C1305 C1306 1.362 . S
C1306 H1298 0.930 . S
C1306 C1305 1.362 . S
C1306 C1309 1.409 . S
C1307 H1299 0.930 . S
C1307 C1308 1.355 . S
C1307 C1309 1.415 . S
C1308 C1307 1.355 . S
C1308 C1310 1.419 . S
C1309 C1304 1.425 . S
C1309 C1306 1.409 . S
C1309 C1307 1.415 . S
C1310 H1300 0.930 . S
C1310 C1308 1.419 . S
C1310 C1311 1.362 . S
C1311 H1301 0.930 . S
C1311 C1304 1.409 . S
C1311 C1310 1.362 . S
H1312 C1318 0.930 . S
H1313 C1321 0.930 . S
H1314 C1322 0.930 . S
H1315 C1323 0.930 . S
H1316 C1326 0.930 . S
H1317 C1327 0.930 . S
C1318 H1312 0.930 . S
C1318 C1319 1.355 . S
C1318 C1320 1.415 . S
C1319 C1318 1.355 . S
C1319 C1321 1.419 . S
C1320 C1318 1.415 . S
C1320 C1325 1.425 . S
C1320 C1327 1.409 . S
C1321 H1313 0.930 . S
C1321 C1319 1.419 . S
C1321 C1322 1.362 . S
C1322 H1314 0.930 . S
C1322 C1321 1.362 . S
C1322 C1325 1.409 . S
C1323 H1315 0.930 . S
C1323 C1324 1.355 . S
C1323 C1325 1.415 . S
C1324 C1323 1.355 . S
C1324 C1326 1.419 . S
C1325 C1320 1.425 . S
C1325 C1322 1.409 . S
C1325 C1323 1.415 . S
C1326 H1316 0.930 . S
C1326 C1324 1.419 . S
C1326 C1327 1.362 . S
C1327 H1317 0.930 . S
C1327 C1320 1.409 . S
C1327 C1326 1.362 . S
H1328 C1334 0.930 . S
H1329 C1337 0.930 . S
H1330 C1338 0.930 . S
H1331 C1339 0.930 . S
H1332 C1342 0.930 . S
H1333 C1343 0.930 . S
C1334 H1328 0.930 . S
C1334 C1335 1.355 . S
C1334 C1336 1.415 . S
C1335 C1334 1.355 . S
C1335 C1337 1.419 . S
C1336 C1334 1.415 . S
C1336 C1341 1.425 . S
C1336 C1343 1.409 . S
C1337 H1329 0.930 . S
C1337 C1335 1.419 . S
C1337 C1338 1.362 . S
C1338 H1330 0.930 . S
C1338 C1337 1.362 . S
C1338 C1341 1.409 . S
C1339 H1331 0.930 . S
C1339 C1340 1.355 . S
C1339 C1341 1.415 . S
C1340 C1339 1.355 . S
C1340 C1342 1.419 . S
C1341 C1336 1.425 . S
C1341 C1338 1.409 . S
C1341 C1339 1.415 . S
C1342 H1332 0.930 . S
C1342 C1340 1.419 . S
C1342 C1343 1.362 . S
C1343 H1333 0.930 . S
C1343 C1336 1.409 . S
C1343 C1342 1.362 . S
H1344 C1350 0.930 . S
H1345 C1353 0.930 . S
H1346 C1354 0.930 . S
H1347 C1355 0.930 . S
H1348 C1358 0.930 . S
H1349 C1359 0.930 . S
C1350 H1344 0.930 . S
C1350 C1351 1.355 . S
C1350 C1352 1.415 . S
C1351 C1350 1.355 . S
C1351 C1353 1.419 . S
C1352 C1350 1.415 . S
C1352 C1357 1.425 . S
C1352 C1359 1.409 . S
C1353 H1345 0.930 . S
C1353 C1351 1.419 . S
C1353 C1354 1.362 . S
C1354 H1346 0.930 . S
C1354 C1353 1.362 . S
C1354 C1357 1.409 . S
C1355 H1347 0.930 . S
C1355 C1356 1.355 . S
C1355 C1357 1.415 . S
C1356 C1355 1.355 . S
C1356 C1358 1.419 . S
C1357 C1352 1.425 . S
C1357 C1354 1.409 . S
C1357 C1355 1.415 . S
C1358 H1348 0.930 . S
C1358 C1356 1.419 . S
C1358 C1359 1.362 . S
C1359 H1349 0.930 . S
C1359 C1352 1.409 . S
C1359 C1358 1.362 . S
H1360 C1366 0.930 . S
H1361 C1369 0.930 . S
H1362 C1370 0.930 . S
H1363 C1371 0.930 . S
H1364 C1374 0.930 . S
H1365 C1375 0.930 . S
C1366 H1360 0.930 . S
C1366 C1367 1.355 . S
C1366 C1368 1.415 . S
C1367 C1366 1.355 . S
C1367 C1369 1.419 1_655 S
C1368 C1366 1.415 . S
C1368 C1373 1.425 1_655 S
C1368 C1375 1.409 . S
C1369 H1361 0.930 . S
C1369 C1367 1.419 1_455 S
C1369 C1370 1.362 . S
C1370 H1362 0.930 . S
C1370 C1369 1.362 . S
C1370 C1373 1.409 . S
C1371 H1363 0.930 . S
C1371 C1372 1.355 . S
C1371 C1373 1.415 . S
C1372 C1371 1.355 . S
C1372 C1374 1.419 1_455 S
C1373 C1368 1.425 1_455 S
C1373 C1370 1.409 . S
C1373 C1371 1.415 . S
C1374 H1364 0.930 . S
C1374 C1372 1.419 1_655 S
C1374 C1375 1.362 . S
C1375 H1365 0.930 . S
C1375 C1368 1.409 . S
C1375 C1374 1.362 . S
H1376 C1382 0.930 . S
H1377 C1385 0.930 . S
H1378 C1386 0.930 1_556 S
H1379 C1387 0.930 . S
H1380 C1390 0.930 . S
H1381 C1391 0.930 1_554 S
C1382 H1376 0.930 . S
C1382 C1383 1.355 . S
C1382 C1384 1.415 1_545 S
C1383 C1382 1.355 . S
C1383 C1385 1.419 . S
C1384 C1382 1.415 1_565 S
C1384 C1389 1.425 1_564 S
C1384 C1391 1.409 1_554 S
C1385 H1377 0.930 . S
C1385 C1383 1.419 . S
C1385 C1386 1.362 . S
C1386 H1378 0.930 1_554 S
C1386 C1385 1.362 . S
C1386 C1389 1.409 1_554 S
C1387 H1379 0.930 . S
C1387 C1388 1.355 . S
C1387 C1389 1.415 1_565 S
C1388 C1387 1.355 . S
C1388 C1390 1.419 . S
C1389 C1384 1.425 1_546 S
C1389 C1386 1.409 1_556 S
C1389 C1387 1.415 1_545 S
C1390 H1380 0.930 . S
C1390 C1388 1.419 . S
C1390 C1391 1.362 . S
C1391 H1381 0.930 1_556 S
C1391 C1384 1.409 1_556 S
C1391 C1390 1.362 . S
H1392 C1398 0.930 . S
H1393 C1401 0.930 . S
H1394 C1402 0.930 . S
H1395 C1403 0.930 . S
H1396 C1406 0.930 . S
H1397 C1407 0.930 . S
C1398 H1392 0.930 . S
C1398 C1399 1.355 . S
C1398 C1400 1.415 . S
C1399 C1398 1.355 . S
C1399 C1401 1.419 . S
C1400 C1398 1.415 . S
C1400 C1405 1.425 . S
C1400 C1407 1.409 . S
C1401 H1393 0.930 . S
C1401 C1399 1.419 . S
C1401 C1402 1.362 . S
C1402 H1394 0.930 . S
C1402 C1401 1.362 . S
C1402 C1405 1.409 . S
C1403 H1395 0.930 . S
C1403 C1404 1.355 . S
C1403 C1405 1.415 . S
C1404 C1403 1.355 . S
C1404 C1406 1.419 . S
C1405 C1400 1.425 . S
C1405 C1402 1.409 . S
C1405 C1403 1.415 . S
C1406 H1396 0.930 . S
C1406 C1404 1.419 . S
C1406 C1407 1.362 . S
C1407 H1397 0.930 . S
C1407 C1400 1.409 . S
C1407 C1406 1.362 . S
H1408 C1414 0.930 1_655 S
H1409 C1417 0.930 . S
H1410 C1418 0.930 . S
H1411 C1419 0.930 1_455 S
H1412 C1422 0.930 . S
H1413 C1423 0.930 . S
C1414 H1408 0.930 1_455 S
C1414 C1415 1.355 . S
C1414 C1416 1.415 1_455 S
C1415 C1414 1.355 . S
C1415 C1417 1.419 . S
C1416 C1414 1.415 1_655 S
C1416 C1421 1.425 1_655 S
C1416 C1423 1.409 . S
C1417 H1409 0.930 . S
C1417 C1415 1.419 . S
C1417 C1418 1.362 . S
C1418 H1410 0.930 . S
C1418 C1417 1.362 . S
C1418 C1421 1.409 . S
C1419 H1411 0.930 1_655 S
C1419 C1420 1.355 . S
C1419 C1421 1.415 1_655 S
C1420 C1419 1.355 . S
C1420 C1422 1.419 . S
C1421 C1416 1.425 1_455 S
C1421 C1418 1.409 . S
C1421 C1419 1.415 1_455 S
C1422 H1412 0.930 . S
C1422 C1420 1.419 . S
C1422 C1423 1.362 . S
C1423 H1413 0.930 . S
C1423 C1416 1.409 . S
C1423 C1422 1.362 . S
H1424 C1430 0.930 . S
H1425 C1433 0.930 . S
H1426 C1434 0.930 . S
H1427 C1435 0.930 . S
H1428 C1438 0.930 . S
H1429 C1439 0.930 . S
C1430 H1424 0.930 . S
C1430 C1431 1.355 . S
C1430 C1432 1.415 1_554 S
C1431 C1430 1.355 . S
C1431 C1433 1.419 1_565 S
C1432 C1430 1.415 1_556 S
C1432 C1437 1.425 1_566 S
C1432 C1439 1.409 . S
C1433 H1425 0.930 . S
C1433 C1431 1.419 1_545 S
C1433 C1434 1.362 . S
C1434 H1426 0.930 . S
C1434 C1433 1.362 . S
C1434 C1437 1.409 . S
C1435 H1427 0.930 . S
C1435 C1436 1.355 . S
C1435 C1437 1.415 1_556 S
C1436 C1435 1.355 . S
C1436 C1438 1.419 1_545 S
C1437 C1432 1.425 1_544 S
C1437 C1434 1.409 . S
C1437 C1435 1.415 1_554 S
C1438 H1428 0.930 . S
C1438 C1436 1.419 1_565 S
C1438 C1439 1.362 . S
C1439 H1429 0.930 . S
C1439 C1432 1.409 . S
C1439 C1438 1.362 . S
C1063 C1017 1.780 . S
C1068 C20 1.740 . S
C1079 C108 1.758 . S
C1084 C585 1.762 . S
C1095 C205 1.775 . S
C1100 C673 1.744 . S
C1111 C284 1.740 . S
C1116 C761 1.780 . S
C1127 C841 1.737 . S
C1132 C372 1.783 . S
C1143 C469 1.781 . S
C1148 C937 1.738 . S
C1159 C313 1.727 . S
C1164 C49 1.722 . S
C1175 C401 1.752 . S
C1180 C137 1.732 . S
C1191 C497 1.734 . S
C1196 C233 1.723 . S
C1207 C557 1.797 . S
C1212 C812 1.775 . S
C1223 C645 1.808 . S
C1228 C909 1.818 . S
C1239 C733 1.814 . S
C1244 C988 1.818 . S
C1255 C724 0.268 . S
C1260 C57 0.201 . S
C1271 C145 0.339 . S
C1276 C821 0.351 . S
C1287 C900 0.341 . S
C1292 C225 0.351 . S
C1303 C997 0.341 . S
C1308 C321 0.302 . S
C1319 C548 0.190 . S
C1324 C409 0.256 . S
C1335 C489 0.236 . S
C1340 C636 0.299 . S
C1351 C849 1.741 . S
C1356 C29 1.748 . S
C1367 C117 1.717 . S
C1372 C929 1.717 . S
C1383 C1025 1.748 . S
C1388 C196 1.740 . S
C1399 C293 1.721 . S
C1404 C577 1.726 . S
C1415 C381 1.765 . S
C1420 C665 1.768 . S
C1431 C753 1.719 . S
C1436 C460 1.723 . S
