# Generated by pormake.
# Topology uko, (4)-cn, num edge types: 1
# Building blocks:
#     Node 0, Type 0, BuildingBlock: CEKHIL_clean_sbu_0, # of connection points: 4
#     Node 1, Type 0, BuildingBlock: CEKHIL_clean_sbu_0, # of connection points: 4
#     Node 2, Type 0, BuildingBlock: CEKHIL_clean_sbu_0, # of connection points: 4
#     Node 3, Type 0, BuildingBlock: CEKHIL_clean_sbu_0, # of connection points: 4
#     Node 4, Type 0, BuildingBlock: CEKHIL_clean_sbu_0, # of connection points: 4
#     Node 5, Type 0, BuildingBlock: CEKHIL_clean_sbu_0, # of connection points: 4
#     Node 6, Type 0, BuildingBlock: CEKHIL_clean_sbu_0, # of connection points: 4
#     Node 7, Type 0, BuildingBlock: CEKHIL_clean_sbu_0, # of connection points: 4
#     Node 8, Type 0, BuildingBlock: CEKHIL_clean_sbu_0, # of connection points: 4
#     Node 9, Type 0, BuildingBlock: CEKHIL_clean_sbu_0, # of connection points: 4
#     Node 10, Type 0, BuildingBlock: CEKHIL_clean_sbu_0, # of connection points: 4
#     Node 11, Type 0, BuildingBlock: CEKHIL_clean_sbu_0, # of connection points: 4
#     Node 12, Type 0, BuildingBlock: CEKHIL_clean_sbu_0, # of connection points: 4
#     Node 13, Type 0, BuildingBlock: CEKHIL_clean_sbu_0, # of connection points: 4
#     Node 14, Type 0, BuildingBlock: CEKHIL_clean_sbu_0, # of connection points: 4
#     Node 15, Type 0, BuildingBlock: CEKHIL_clean_sbu_0, # of connection points: 4
#     Node 16, Type 0, BuildingBlock: CEKHIL_clean_sbu_0, # of connection points: 4
#     Node 17, Type 0, BuildingBlock: CEKHIL_clean_sbu_0, # of connection points: 4
#     Node 18, Type 0, BuildingBlock: CEKHIL_clean_sbu_0, # of connection points: 4
#     Node 19, Type 0, BuildingBlock: CEKHIL_clean_sbu_0, # of connection points: 4
#     Node 20, Type 0, BuildingBlock: CEKHIL_clean_sbu_0, # of connection points: 4
#     Node 21, Type 0, BuildingBlock: CEKHIL_clean_sbu_0, # of connection points: 4
#     Node 22, Type 0, BuildingBlock: CEKHIL_clean_sbu_0, # of connection points: 4
#     Node 23, Type 0, BuildingBlock: CEKHIL_clean_sbu_0, # of connection points: 4
#     Node 24, Type 0, BuildingBlock: CEKHIL_clean_sbu_0, # of connection points: 4
#     Node 25, Type 0, BuildingBlock: CEKHIL_clean_sbu_0, # of connection points: 4
#     Node 26, Type 0, BuildingBlock: CEKHIL_clean_sbu_0, # of connection points: 4
#     Node 27, Type 0, BuildingBlock: CEKHIL_clean_sbu_0, # of connection points: 4
#     Node 28, Type 0, BuildingBlock: CEKHIL_clean_sbu_0, # of connection points: 4
#     Node 29, Type 0, BuildingBlock: CEKHIL_clean_sbu_0, # of connection points: 4
#     Node 30, Type 0, BuildingBlock: CEKHIL_clean_sbu_0, # of connection points: 4
#     Node 31, Type 0, BuildingBlock: CEKHIL_clean_sbu_0, # of connection points: 4
#     Node 32, Type 0, BuildingBlock: CEKHIL_clean_sbu_0, # of connection points: 4
#     Node 33, Type 0, BuildingBlock: CEKHIL_clean_sbu_0, # of connection points: 4
#     Node 34, Type 0, BuildingBlock: CEKHIL_clean_sbu_0, # of connection points: 4
#     Node 35, Type 0, BuildingBlock: CEKHIL_clean_sbu_0, # of connection points: 4
#     Node 36, Type 0, BuildingBlock: CEKHIL_clean_sbu_0, # of connection points: 4
#     Node 37, Type 0, BuildingBlock: CEKHIL_clean_sbu_0, # of connection points: 4
#     Node 38, Type 0, BuildingBlock: CEKHIL_clean_sbu_0, # of connection points: 4
#     Node 39, Type 0, BuildingBlock: CEKHIL_clean_sbu_0, # of connection points: 4
#     Node 40, Type 0, BuildingBlock: CEKHIL_clean_sbu_0, # of connection points: 4
#     Node 41, Type 0, BuildingBlock: CEKHIL_clean_sbu_0, # of connection points: 4
#     Node 42, Type 0, BuildingBlock: CEKHIL_clean_sbu_0, # of connection points: 4
#     Node 43, Type 0, BuildingBlock: CEKHIL_clean_sbu_0, # of connection points: 4
#     Node 44, Type 0, BuildingBlock: CEKHIL_clean_sbu_0, # of connection points: 4
#     Node 45, Type 0, BuildingBlock: CEKHIL_clean_sbu_0, # of connection points: 4
#     Node 46, Type 0, BuildingBlock: CEKHIL_clean_sbu_0, # of connection points: 4
#     Node 47, Type 0, BuildingBlock: CEKHIL_clean_sbu_0, # of connection points: 4
#     Edge 48, Type (0, 0), BuildingBlock: AJUNOK_clean_linker_0, # of connection points: 2
#     Edge 49, Type (0, 0), BuildingBlock: AJUNOK_clean_linker_0, # of connection points: 2
#     Edge 50, Type (0, 0), BuildingBlock: AJUNOK_clean_linker_0, # of connection points: 2
#     Edge 51, Type (0, 0), BuildingBlock: AJUNOK_clean_linker_0, # of connection points: 2
#     Edge 52, Type (0, 0), BuildingBlock: AJUNOK_clean_linker_0, # of connection points: 2
#     Edge 53, Type (0, 0), BuildingBlock: AJUNOK_clean_linker_0, # of connection points: 2
#     Edge 54, Type (0, 0), BuildingBlock: AJUNOK_clean_linker_0, # of connection points: 2
#     Edge 55, Type (0, 0), BuildingBlock: AJUNOK_clean_linker_0, # of connection points: 2
#     Edge 56, Type (0, 0), BuildingBlock: AJUNOK_clean_linker_0, # of connection points: 2
#     Edge 57, Type (0, 0), BuildingBlock: AJUNOK_clean_linker_0, # of connection points: 2
#     Edge 58, Type (0, 0), BuildingBlock: AJUNOK_clean_linker_0, # of connection points: 2
#     Edge 59, Type (0, 0), BuildingBlock: AJUNOK_clean_linker_0, # of connection points: 2
#     Edge 60, Type (0, 0), BuildingBlock: AJUNOK_clean_linker_0, # of connection points: 2
#     Edge 61, Type (0, 0), BuildingBlock: AJUNOK_clean_linker_0, # of connection points: 2
#     Edge 62, Type (0, 0), BuildingBlock: AJUNOK_clean_linker_0, # of connection points: 2
#     Edge 63, Type (0, 0), BuildingBlock: AJUNOK_clean_linker_0, # of connection points: 2
#     Edge 64, Type (0, 0), BuildingBlock: AJUNOK_clean_linker_0, # of connection points: 2
#     Edge 65, Type (0, 0), BuildingBlock: AJUNOK_clean_linker_0, # of connection points: 2
#     Edge 66, Type (0, 0), BuildingBlock: AJUNOK_clean_linker_0, # of connection points: 2
#     Edge 67, Type (0, 0), BuildingBlock: AJUNOK_clean_linker_0, # of connection points: 2
#     Edge 68, Type (0, 0), BuildingBlock: AJUNOK_clean_linker_0, # of connection points: 2
#     Edge 69, Type (0, 0), BuildingBlock: AJUNOK_clean_linker_0, # of connection points: 2
#     Edge 70, Type (0, 0), BuildingBlock: AJUNOK_clean_linker_0, # of connection points: 2
#     Edge 71, Type (0, 0), BuildingBlock: AJUNOK_clean_linker_0, # of connection points: 2
#     Edge 72, Type (0, 0), BuildingBlock: AJUNOK_clean_linker_0, # of connection points: 2
#     Edge 73, Type (0, 0), BuildingBlock: AJUNOK_clean_linker_0, # of connection points: 2
#     Edge 74, Type (0, 0), BuildingBlock: AJUNOK_clean_linker_0, # of connection points: 2
#     Edge 75, Type (0, 0), BuildingBlock: AJUNOK_clean_linker_0, # of connection points: 2
#     Edge 76, Type (0, 0), BuildingBlock: AJUNOK_clean_linker_0, # of connection points: 2
#     Edge 77, Type (0, 0), BuildingBlock: AJUNOK_clean_linker_0, # of connection points: 2
#     Edge 78, Type (0, 0), BuildingBlock: AJUNOK_clean_linker_0, # of connection points: 2
#     Edge 79, Type (0, 0), BuildingBlock: AJUNOK_clean_linker_0, # of connection points: 2
#     Edge 80, Type (0, 0), BuildingBlock: AJUNOK_clean_linker_0, # of connection points: 2
#     Edge 81, Type (0, 0), BuildingBlock: AJUNOK_clean_linker_0, # of connection points: 2
#     Edge 82, Type (0, 0), BuildingBlock: AJUNOK_clean_linker_0, # of connection points: 2
#     Edge 83, Type (0, 0), BuildingBlock: AJUNOK_clean_linker_0, # of connection points: 2
#     Edge 84, Type (0, 0), BuildingBlock: AJUNOK_clean_linker_0, # of connection points: 2
#     Edge 85, Type (0, 0), BuildingBlock: AJUNOK_clean_linker_0, # of connection points: 2
#     Edge 86, Type (0, 0), BuildingBlock: AJUNOK_clean_linker_0, # of connection points: 2
#     Edge 87, Type (0, 0), BuildingBlock: AJUNOK_clean_linker_0, # of connection points: 2
#     Edge 88, Type (0, 0), BuildingBlock: AJUNOK_clean_linker_0, # of connection points: 2
#     Edge 89, Type (0, 0), BuildingBlock: AJUNOK_clean_linker_0, # of connection points: 2
#     Edge 90, Type (0, 0), BuildingBlock: AJUNOK_clean_linker_0, # of connection points: 2
#     Edge 91, Type (0, 0), BuildingBlock: AJUNOK_clean_linker_0, # of connection points: 2
#     Edge 92, Type (0, 0), BuildingBlock: AJUNOK_clean_linker_0, # of connection points: 2
#     Edge 93, Type (0, 0), BuildingBlock: AJUNOK_clean_linker_0, # of connection points: 2
#     Edge 94, Type (0, 0), BuildingBlock: AJUNOK_clean_linker_0, # of connection points: 2
#     Edge 95, Type (0, 0), BuildingBlock: AJUNOK_clean_linker_0, # of connection points: 2
#     Edge 96, Type (0, 0), BuildingBlock: AJUNOK_clean_linker_0, # of connection points: 2
#     Edge 97, Type (0, 0), BuildingBlock: AJUNOK_clean_linker_0, # of connection points: 2
#     Edge 98, Type (0, 0), BuildingBlock: AJUNOK_clean_linker_0, # of connection points: 2
#     Edge 99, Type (0, 0), BuildingBlock: AJUNOK_clean_linker_0, # of connection points: 2
#     Edge 100, Type (0, 0), BuildingBlock: AJUNOK_clean_linker_0, # of connection points: 2
#     Edge 101, Type (0, 0), BuildingBlock: AJUNOK_clean_linker_0, # of connection points: 2
#     Edge 102, Type (0, 0), BuildingBlock: AJUNOK_clean_linker_0, # of connection points: 2
#     Edge 103, Type (0, 0), BuildingBlock: AJUNOK_clean_linker_0, # of connection points: 2
#     Edge 104, Type (0, 0), BuildingBlock: AJUNOK_clean_linker_0, # of connection points: 2
#     Edge 105, Type (0, 0), BuildingBlock: AJUNOK_clean_linker_0, # of connection points: 2
#     Edge 106, Type (0, 0), BuildingBlock: AJUNOK_clean_linker_0, # of connection points: 2
#     Edge 107, Type (0, 0), BuildingBlock: AJUNOK_clean_linker_0, # of connection points: 2
#     Edge 108, Type (0, 0), BuildingBlock: AJUNOK_clean_linker_0, # of connection points: 2
#     Edge 109, Type (0, 0), BuildingBlock: AJUNOK_clean_linker_0, # of connection points: 2
#     Edge 110, Type (0, 0), BuildingBlock: AJUNOK_clean_linker_0, # of connection points: 2
#     Edge 111, Type (0, 0), BuildingBlock: AJUNOK_clean_linker_0, # of connection points: 2
#     Edge 112, Type (0, 0), BuildingBlock: AJUNOK_clean_linker_0, # of connection points: 2
#     Edge 113, Type (0, 0), BuildingBlock: AJUNOK_clean_linker_0, # of connection points: 2
#     Edge 114, Type (0, 0), BuildingBlock: AJUNOK_clean_linker_0, # of connection points: 2
#     Edge 115, Type (0, 0), BuildingBlock: AJUNOK_clean_linker_0, # of connection points: 2
#     Edge 116, Type (0, 0), BuildingBlock: AJUNOK_clean_linker_0, # of connection points: 2
#     Edge 117, Type (0, 0), BuildingBlock: AJUNOK_clean_linker_0, # of connection points: 2
#     Edge 118, Type (0, 0), BuildingBlock: AJUNOK_clean_linker_0, # of connection points: 2
#     Edge 119, Type (0, 0), BuildingBlock: AJUNOK_clean_linker_0, # of connection points: 2
#     Edge 120, Type (0, 0), BuildingBlock: AJUNOK_clean_linker_0, # of connection points: 2
#     Edge 121, Type (0, 0), BuildingBlock: AJUNOK_clean_linker_0, # of connection points: 2
#     Edge 122, Type (0, 0), BuildingBlock: AJUNOK_clean_linker_0, # of connection points: 2
#     Edge 123, Type (0, 0), BuildingBlock: AJUNOK_clean_linker_0, # of connection points: 2
#     Edge 124, Type (0, 0), BuildingBlock: AJUNOK_clean_linker_0, # of connection points: 2
#     Edge 125, Type (0, 0), BuildingBlock: AJUNOK_clean_linker_0, # of connection points: 2
#     Edge 126, Type (0, 0), BuildingBlock: AJUNOK_clean_linker_0, # of connection points: 2
#     Edge 127, Type (0, 0), BuildingBlock: AJUNOK_clean_linker_0, # of connection points: 2
#     Edge 128, Type (0, 0), BuildingBlock: AJUNOK_clean_linker_0, # of connection points: 2
#     Edge 129, Type (0, 0), BuildingBlock: AJUNOK_clean_linker_0, # of connection points: 2
#     Edge 130, Type (0, 0), BuildingBlock: AJUNOK_clean_linker_0, # of connection points: 2
#     Edge 131, Type (0, 0), BuildingBlock: AJUNOK_clean_linker_0, # of connection points: 2
#     Edge 132, Type (0, 0), BuildingBlock: AJUNOK_clean_linker_0, # of connection points: 2
#     Edge 133, Type (0, 0), BuildingBlock: AJUNOK_clean_linker_0, # of connection points: 2
#     Edge 134, Type (0, 0), BuildingBlock: AJUNOK_clean_linker_0, # of connection points: 2
#     Edge 135, Type (0, 0), BuildingBlock: AJUNOK_clean_linker_0, # of connection points: 2
#     Edge 136, Type (0, 0), BuildingBlock: AJUNOK_clean_linker_0, # of connection points: 2
#     Edge 137, Type (0, 0), BuildingBlock: AJUNOK_clean_linker_0, # of connection points: 2
#     Edge 138, Type (0, 0), BuildingBlock: AJUNOK_clean_linker_0, # of connection points: 2
#     Edge 139, Type (0, 0), BuildingBlock: AJUNOK_clean_linker_0, # of connection points: 2
#     Edge 140, Type (0, 0), BuildingBlock: AJUNOK_clean_linker_0, # of connection points: 2
#     Edge 141, Type (0, 0), BuildingBlock: AJUNOK_clean_linker_0, # of connection points: 2
#     Edge 142, Type (0, 0), BuildingBlock: AJUNOK_clean_linker_0, # of connection points: 2
#     Edge 143, Type (0, 0), BuildingBlock: AJUNOK_clean_linker_0, # of connection points: 2
# Relax obj value: 0.294
# Max RMSD: 0.162
# Mean RMSD: 0.162
data_MOF--net-uko--node1-CEKHIL_clean_sbu_0--edge1-AJUNOK_clean_linker_0
_symmetry_space_group_name_H-M    P1
_symmetry_Int_Tables_number       1
_symmetry_cell_setting            triclinic
loop_
_symmetry_equiv_pos_as_xyz
'x, y, z'
_cell_length_a     40.979469
_cell_length_b     40.993356
_cell_length_c     40.986754
_cell_angle_alpha  90.008712
_cell_angle_beta   90.010052
_cell_angle_gamma 90.015762
loop_
_atom_site_label
_atom_site_type_symbol
_atom_site_fract_x
_atom_site_fract_y
_atom_site_fract_z
_atom_type_partial_charge
Co0 Co 0.03587 0.36654 0.26373 0.0
O1 O 0.0499 0.32252 0.25571 0.0
O2 O -0.00157 0.33863 0.25918 0.0
C3 C 0.0696 0.3911 0.22808 0.0
O4 O 0.01182 0.40972 0.26918 0.0
Co5 Co 0.08308 0.41665 0.29426 0.0
O6 O 0.04845 0.44815 0.28322 0.0
C7 C 0.06062 0.36121 0.33284 0.0
C8 C 0.01913 0.31496 0.255 0.0
C9 C 0.01992 0.43958 0.27438 0.0
O10 O 0.03741 0.35711 0.31211 0.0
O11 O 0.08319 0.38235 0.32884 0.0
O12 O 0.04251 0.37788 0.21814 0.0
O13 O 0.07688 0.38605 0.25839 0.0
Co14 Co 0.9652 0.12643 0.26033 0.0
O15 O 0.94979 0.16978 0.25197 0.0
O16 O 0.00171 0.15602 0.25789 0.0
C17 C 0.93421 0.10108 0.22266 0.0
O18 O 0.99034 0.08402 0.26681 0.0
Co19 Co 0.91763 0.07508 0.28819 0.0
O20 O 0.95404 0.04483 0.27963 0.0
C21 C 0.93799 0.12967 0.32901 0.0
C22 C 0.98012 0.1788 0.25302 0.0
C23 C 0.98277 0.05406 0.2722 0.0
O24 O 0.96109 0.13548 0.30861 0.0
O25 O 0.91608 0.10803 0.3241 0.0
O26 O 0.96139 0.11521 0.21442 0.0
O27 O 0.92515 0.10564 0.25258 0.0
Co28 Co 0.03477 0.62844 0.23848 0.0
O29 O 0.04823 0.67215 0.24896 0.0
O30 O -0.00293 0.65629 0.24166 0.0
C31 C 0.06608 0.60235 0.27519 0.0
O32 O 0.01116 0.58543 0.22995 0.0
Co33 Co 0.08406 0.57914 0.20945 0.0
O34 O 0.04868 0.54751 0.21686 0.0
C35 C 0.06343 0.63504 0.17071 0.0
C36 C 0.01748 0.67975 0.24797 0.0
C37 C 0.01963 0.55578 0.2241 0.0
O38 O 0.03961 0.63972 0.19063 0.0
O39 O 0.0856 0.61367 0.17538 0.0
O40 O 0.03853 0.6154 0.28403 0.0
O41 O 0.07527 0.60858 0.24566 0.0
Co42 Co 0.9627 0.86749 0.23834 0.0
O43 O 0.94718 0.82459 0.24933 0.0
O44 O -0.00098 0.83798 0.24212 0.0
C45 C 0.93228 0.89538 0.27447 0.0
O46 O 0.98849 0.9091 0.22946 0.0
Co47 Co 0.91643 0.91848 0.2079 0.0
O48 O 0.95305 0.94867 0.21571 0.0
C49 C 0.93345 0.86008 0.17118 0.0
C50 C 0.97754 0.81552 0.24854 0.0
C51 C 0.98156 0.9391 0.22348 0.0
O52 O 0.95772 0.8558 0.19065 0.0
O53 O 0.91232 0.88261 0.17526 0.0
O54 O 0.9592 0.88127 0.28362 0.0
O55 O 0.92304 0.88931 0.24489 0.0
Co56 Co 0.25781 0.031 0.36243 0.0
O57 O 0.25047 0.04767 0.3194 0.0
O58 O 0.25326 0.99525 0.33221 0.0
C59 C 0.22207 0.0634 0.38852 0.0
O60 O 0.26272 0.00496 0.40445 0.0
Co61 Co 0.28892 0.07626 0.41395 0.0
O62 O 0.27687 0.04053 0.44386 0.0
C63 C 0.32755 0.0547 0.35835 0.0
C64 C 0.24979 0.01752 0.30982 0.0
C65 C 0.2677 0.01233 0.43454 0.0
O66 O 0.30624 0.03223 0.35352 0.0
O67 O 0.32407 0.07677 0.3801 0.0
O68 O 0.21229 0.03715 0.37366 0.0
O69 O 0.25241 0.07104 0.38391 0.0
Co70 Co 0.73046 0.44987 0.3652 0.0
O71 O 0.7377 0.43439 0.32152 0.0
O72 O 0.72993 0.48605 0.33523 0.0
C73 C 0.77068 0.42108 0.38919 0.0
O74 O 0.72446 0.47541 0.40733 0.0
Co75 Co 0.70785 0.40194 0.41895 0.0
O76 O 0.71333 0.44006 0.44785 0.0
C77 C 0.66339 0.41893 0.36589 0.0
C78 C 0.73521 0.46462 0.31243 0.0
C79 C 0.71915 0.46878 0.43749 0.0
O80 O 0.68204 0.4432 0.35891 0.0
O81 O 0.67101 0.39758 0.38731 0.0
O82 O 0.77708 0.44835 0.37433 0.0
O83 O 0.74103 0.41068 0.3862 0.0
Co84 Co 0.26608 0.96448 0.12187 0.0
O85 O 0.25486 0.9504 0.16514 0.0
O86 O 0.26333 0.00168 0.15033 0.0
C87 C 0.22864 0.93419 0.0955 0.0
O88 O 0.27549 0.98887 0.07958 0.0
Co89 Co 0.29472 0.91623 0.07209 0.0
O90 O 0.28849 0.95226 0.04088 0.0
C91 C 0.33315 0.93456 0.12903 0.0
C92 C 0.2562 0.98098 0.1733 0.0
C93 C 0.28159 0.98119 0.04979 0.0
O94 O 0.31368 0.95876 0.13346 0.0
O95 O 0.32858 0.91299 0.10699 0.0
O96 O 0.22066 0.96195 0.10856 0.0
O97 O 0.25807 0.92426 0.10138 0.0
Co98 Co 0.72783 0.52486 0.12581 0.0
O99 O 0.73668 0.5371 0.1702 0.0
O100 O 0.73077 0.48637 0.15262 0.0
C101 C 0.76496 0.55776 0.10225 0.0
O102 O 0.72109 0.50253 0.08193 0.0
Co103 Co 0.69921 0.57518 0.07757 0.0
O104 O 0.70886 0.54119 0.04492 0.0
C105 C 0.6595 0.55203 0.13185 0.0
C106 C 0.73597 0.50614 0.17689 0.0
C107 C 0.71632 0.51199 0.05242 0.0
O108 O 0.67962 0.52823 0.13549 0.0
O109 O 0.66405 0.57507 0.11136 0.0
O110 O 0.77358 0.52978 0.11445 0.0
O111 O 0.735 0.56623 0.10763 0.0
Co112 Co 0.36374 0.26207 0.03588 0.0
O113 O 0.31978 0.25659 0.05102 0.0
O114 O 0.33463 0.25913 -0.00093 0.0
C115 C 0.38714 0.22502 0.06895 0.0
O116 O 0.40671 0.26533 0.01106 0.0
Co117 Co 0.41602 0.28983 0.08278 0.0
O118 O 0.44612 0.27817 0.04717 0.0
C119 C 0.36312 0.33166 0.06023 0.0
C120 C 0.31133 0.25654 0.0205 0.0
C121 C 0.43681 0.26978 0.01874 0.0
O122 O 0.35699 0.31083 0.0376 0.0
O123 O 0.38419 0.32667 0.08266 0.0
O124 O 0.37277 0.21591 0.04216 0.0
O125 O 0.38376 0.2555 0.07644 0.0
Co126 Co 0.36907 0.73405 0.45725 0.0
O127 O 0.32542 0.74345 0.44308 0.0
O128 O 0.34075 0.73815 0.4946 0.0
C129 C 0.39497 0.77003 0.42494 0.0
O130 O 0.41214 0.72685 0.48112 0.0
Co131 Co 0.41796 0.70332 0.40871 0.0
O132 O 0.4498 0.71388 0.44327 0.0
C133 C 0.36214 0.66532 0.43116 0.0
C134 C 0.31738 0.74324 0.4737 0.0
C135 C 0.44185 0.72196 0.4722 0.0
O136 O 0.35844 0.686 0.45446 0.0
O137 O 0.38329 0.66899 0.40854 0.0
O138 O 0.38162 0.77945 0.45212 0.0
O139 O 0.38896 0.74016 0.41655 0.0
Co140 Co 0.63104 0.76492 0.45478 0.0
O141 O 0.67535 0.75781 0.44105 0.0
O142 O 0.65919 0.76236 0.49238 0.0
C143 C 0.60721 0.72766 0.42221 0.0
O144 O 0.58757 0.7699 0.4785 0.0
Co145 Co 0.58057 0.79301 0.40634 0.0
O146 O 0.5492 0.78274 0.44134 0.0
C147 C 0.63395 0.8341 0.429 0.0
C148 C 0.68303 0.75846 0.47178 0.0
C149 C 0.55771 0.77473 0.47011 0.0
O150 O 0.63918 0.81345 0.45203 0.0
O151 O 0.61315 0.82924 0.4063 0.0
O152 O 0.6209 0.7189 0.44946 0.0
O153 O 0.61164 0.7578 0.41388 0.0
Co154 Co 0.13161 0.73004 0.53553 0.0
O155 O 0.17608 0.73839 0.54803 0.0
O156 O 0.15815 0.7356 0.49715 0.0
C157 C 0.10799 0.76486 0.57067 0.0
O158 O 0.08745 0.72465 0.51306 0.0
Co159 Co 0.08351 0.69822 0.5839 0.0
O160 O 0.05052 0.71035 0.5511 0.0
C161 C 0.13815 0.66031 0.55857 0.0
C162 C 0.18253 0.7398 0.51704 0.0
C163 C 0.05789 0.71964 0.5224 0.0
O164 O 0.14175 0.68174 0.53592 0.0
O165 O 0.11756 0.6635 0.58175 0.0
O166 O 0.1201 0.77531 0.54327 0.0
O167 O 0.11358 0.7345 0.57737 0.0
Co168 Co 0.95507 0.62735 0.73439 0.0
O169 O 0.94414 0.67145 0.74599 0.0
O170 O 0.99425 0.6529 0.7377 0.0
C171 C 0.92291 0.60208 0.77095 0.0
O172 O 0.97619 0.58357 0.72456 0.0
Co173 Co 0.90274 0.58174 0.70468 0.0
O174 O 0.93647 0.54803 0.71128 0.0
C175 C 0.9268 0.63702 0.66674 0.0
C176 C 0.97528 0.6773 0.74481 0.0
C177 C 0.96604 0.5546 0.71823 0.0
O178 O 0.95072 0.63972 0.68687 0.0
O179 O 0.90342 0.61679 0.67082 0.0
O180 O 0.95123 0.61347 0.77957 0.0
O181 O 0.9136 0.6095 0.74169 0.0
Co182 Co 0.04089 0.86149 0.7401 0.0
O183 O 0.0536 0.8178 0.75105 0.0
O184 O 0.00279 0.83413 0.74237 0.0
C185 C 0.07158 0.88749 0.7774 0.0
O186 O 0.01833 0.90464 0.7305 0.0
Co187 Co 0.09242 0.90922 0.71184 0.0
O188 O 0.057 0.94137 0.71718 0.0
C189 C 0.07037 0.85396 0.67268 0.0
C190 C 0.02285 0.81044 0.74901 0.0
C191 C 0.02757 0.93383 0.72377 0.0
O192 O 0.04633 0.85008 0.69246 0.0
O193 O 0.09313 0.87475 0.67743 0.0
O194 O 0.04367 0.87483 0.78563 0.0
O195 O 0.08144 0.88078 0.74819 0.0
Co196 Co 0.95249 0.36364 0.75707 0.0
O197 O 0.9389 0.31953 0.74935 0.0
O198 O 0.99013 0.33567 0.75563 0.0
C199 C 0.92133 0.38757 0.71894 0.0
O200 O 0.97585 0.40703 0.76299 0.0
Co201 Co 0.90249 0.41355 0.78385 0.0
O202 O 0.93726 0.44495 0.77265 0.0
C203 C 0.92433 0.35998 0.8252 0.0
C204 C 0.96959 0.3119 0.75099 0.0
C205 C 0.96653 0.4368 0.76612 0.0
O206 O 0.94823 0.35544 0.80542 0.0
O207 O 0.90165 0.3807 0.8199 0.0
O208 O 0.94881 0.3739 0.71097 0.0
O209 O 0.91196 0.38292 0.74875 0.0
Co210 Co 0.03528 0.12711 0.76 0.0
O211 O 0.0464 0.17219 0.75432 0.0
O212 O 0.99614 0.15306 0.76011 0.0
C213 C 0.0672 0.10761 0.72022 0.0
O214 O 0.01427 0.0823 0.76396 0.0
Co215 Co 0.08805 0.07848 0.78318 0.0
O216 O 0.05429 0.04574 0.77299 0.0
C217 C 0.06494 0.12936 0.82724 0.0
C218 C 0.0153 0.178 0.75582 0.0
C219 C 0.02467 0.05289 0.76691 0.0
O220 O 0.03992 0.13289 0.80864 0.0
O221 O 0.08865 0.1104 0.8201 0.0
O222 O 0.03874 0.11978 0.71339 0.0
O223 O 0.07682 0.11071 0.75013 0.0
Co224 Co 0.73044 0.96159 0.63186 0.0
O225 O 0.7355 0.94837 0.6767 0.0
O226 O 0.73036 -0.00061 0.65972 0.0
C227 C 0.77003 0.93031 0.61017 0.0
O228 O 0.72716 0.98494 0.58812 0.0
Co229 Co 0.70729 0.91161 0.57989 0.0
O230 O 0.71996 0.94661 0.54939 0.0
C231 C 0.66152 0.93419 0.6296 0.0
C232 C 0.73384 0.97919 0.68393 0.0
C233 C 0.72569 0.97587 0.55814 0.0
O234 O 0.68156 0.95724 0.63696 0.0
O235 O 0.66829 0.9117 0.6091 0.0
O236 O 0.77719 0.95776 0.62435 0.0
O237 O 0.73997 0.92103 0.61305 0.0
Co238 Co 0.26504 0.53056 0.62694 0.0
O239 O 0.25668 0.54705 0.67002 0.0
O240 O 0.2598 0.49474 0.65687 0.0
C241 C 0.22991 0.56306 0.60001 0.0
O242 O 0.2708 0.50425 0.58521 0.0
Co243 Co 0.29673 0.57502 0.57506 0.0
O244 O 0.28494 0.53916 0.54528 0.0
C245 C 0.33467 0.5544 0.63159 0.0
C246 C 0.25565 0.51679 0.67932 0.0
C247 C 0.27584 0.5111 0.55503 0.0
O248 O 0.31332 0.53203 0.63684 0.0
O249 O 0.33134 0.57595 0.60932 0.0
O250 O 0.21969 0.53686 0.61467 0.0
O251 O 0.26018 0.57054 0.60516 0.0
Co252 Co 0.72087 0.03738 0.87158 0.0
O253 O 0.72901 0.05182 0.82773 0.0
O254 O 0.72447 0.0002 0.84284 0.0
C255 C 0.7574 0.06988 0.89657 0.0
O256 O 0.71505 0.01321 0.91472 0.0
Co257 Co 0.69124 0.08517 0.92174 0.0
O258 O 0.70188 0.05029 0.95306 0.0
C259 C 0.65178 0.06297 0.86698 0.0
C260 C 0.72898 0.02125 0.81949 0.0
C261 C 0.7102 0.02158 0.9446 0.0
O262 O 0.67252 0.03992 0.86229 0.0
O263 O 0.65607 0.08554 0.88804 0.0
O264 O 0.76659 0.04279 0.88286 0.0
O265 O 0.72731 0.0781 0.89155 0.0
Co266 Co 0.25892 0.45878 0.86663 0.0
O267 O 0.25067 0.44609 0.82224 0.0
O268 O 0.25645 0.49698 0.83942 0.0
C269 C 0.22157 0.42633 0.89041 0.0
O270 O 0.26522 0.48158 0.91042 0.0
Co271 Co 0.28701 0.40894 0.91567 0.0
O272 O 0.27872 0.44371 0.94784 0.0
C273 C 0.32776 0.43206 0.86221 0.0
C274 C 0.25172 0.47698 0.81525 0.0
C275 C 0.27098 0.47274 0.93997 0.0
O276 O 0.30729 0.45536 0.85743 0.0
O277 O 0.32284 0.40912 0.8827 0.0
O278 O 0.21293 0.45399 0.8775 0.0
O279 O 0.2515 0.41765 0.88531 0.0
Co280 Co 0.63025 0.73544 0.94793 0.0
O281 O 0.67517 0.74279 0.93641 0.0
O282 O 0.65667 0.73648 0.98678 0.0
C283 C 0.60783 0.774 0.91589 0.0
O284 O 0.5859 0.72965 0.96957 0.0
Co285 Co 0.58137 0.71013 0.89579 0.0
O286 O 0.54896 0.71896 0.93026 0.0
C287 C 0.63209 0.66657 0.92048 0.0
C288 C 0.68142 0.741 0.96743 0.0
C289 C 0.55643 0.72526 0.95976 0.0
O290 O 0.63798 0.68695 0.94363 0.0
O291 O 0.61217 0.67244 0.89723 0.0
O292 O 0.62051 0.78179 0.94392 0.0
O293 O 0.61255 0.74418 0.90673 0.0
Co294 Co 0.63086 0.25476 0.53184 0.0
O295 O 0.67527 0.2474 0.54488 0.0
O296 O 0.65816 0.25192 0.49379 0.0
C297 C 0.6074 0.21771 0.56486 0.0
O298 O 0.58722 0.2601 0.50884 0.0
Co299 Co 0.58122 0.2828 0.58154 0.0
O300 O 0.5495 0.2723 0.54688 0.0
C301 C 0.63422 0.32395 0.55749 0.0
C302 C 0.68229 0.2478 0.51398 0.0
C303 C 0.55755 0.26469 0.51785 0.0
O304 O 0.63912 0.30329 0.53439 0.0
O305 O 0.61375 0.31906 0.5805 0.0
O306 O 0.62052 0.20873 0.53741 0.0
O307 O 0.61215 0.24785 0.57292 0.0
Co308 Co 0.36731 0.23109 0.53544 0.0
O309 O 0.32295 0.23933 0.54827 0.0
O310 O 0.34004 0.23368 0.4973 0.0
C311 C 0.39103 0.26856 0.56782 0.0
O312 O 0.41086 0.22466 0.51249 0.0
Co313 Co 0.41655 0.20319 0.58519 0.0
O314 O 0.44839 0.21002 0.5498 0.0
C315 C 0.36355 0.16202 0.5618 0.0
C316 C 0.31597 0.23865 0.51736 0.0
C317 C 0.4403 0.21792 0.52088 0.0
O318 O 0.3584 0.18273 0.5388 0.0
O319 O 0.38401 0.16698 0.58478 0.0
O320 O 0.37813 0.27705 0.54012 0.0
O321 O 0.38608 0.23862 0.57657 0.0
Co322 Co 0.87002 0.25859 0.45772 0.0
O323 O 0.82657 0.25016 0.44237 0.0
O324 O 0.84065 0.25585 0.49425 0.0
C325 C 0.89554 0.22121 0.42659 0.0
O326 O 0.91226 0.26497 0.48305 0.0
Co327 Co 0.92176 0.28677 0.41079 0.0
O328 O 0.95192 0.27686 0.447 0.0
C329 C 0.86654 0.32709 0.43053 0.0
C330 C 0.81778 0.25084 0.47279 0.0
C331 C 0.94239 0.26948 0.47563 0.0
O332 O 0.86102 0.30685 0.45384 0.0
O333 O 0.88826 0.32217 0.4087 0.0
O334 O 0.8813 0.21275 0.45363 0.0
O335 O 0.89098 0.25119 0.4177 0.0
Co336 Co 0.5285 0.86775 0.75381 0.0
O337 O 0.54259 0.82374 0.74552 0.0
O338 O 0.49126 0.83925 0.75223 0.0
C339 C 0.55962 0.89229 0.71582 0.0
O340 O 0.50408 0.91057 0.76031 0.0
Co341 Co 0.57706 0.91963 0.77996 0.0
O342 O 0.5408 0.94997 0.77113 0.0
C343 C 0.55781 0.86494 0.82142 0.0
C344 C 0.51193 0.81576 0.74711 0.0
C345 C 0.51188 0.94063 0.76466 0.0
O346 O 0.5337 0.85912 0.80213 0.0
O347 O 0.57957 0.88645 0.81546 0.0
O348 O 0.5322 0.87857 0.70757 0.0
O349 O 0.56858 0.88786 0.74572 0.0
Co350 Co 0.46165 0.62635 0.75953 0.0
O351 O 0.44475 0.6692 0.75095 0.0
O352 O 0.49718 0.65687 0.75533 0.0
C353 C 0.43047 0.59908 0.7236 0.0
O354 O 0.48835 0.58487 0.7657 0.0
Co355 Co 0.41694 0.57379 0.79003 0.0
O356 O 0.45329 0.54458 0.77852 0.0
C357 C 0.43589 0.63038 0.82852 0.0
C358 C 0.47488 0.67899 0.75074 0.0
C359 C 0.4815 0.55458 0.77017 0.0
O360 O 0.45871 0.6361 0.80776 0.0
O361 O 0.41464 0.60792 0.82461 0.0
O362 O 0.45664 0.61424 0.714 0.0
O363 O 0.42216 0.60401 0.75367 0.0
Co364 Co 0.52939 0.12824 0.73119 0.0
O365 O 0.54472 0.17151 0.74016 0.0
O366 O 0.49306 0.15814 0.73159 0.0
C367 C 0.55805 0.10303 0.7707 0.0
O368 O 0.50422 0.08601 0.72362 0.0
Co369 Co 0.57808 0.07606 0.70668 0.0
O370 O 0.5409 0.04635 0.71361 0.0
C371 C 0.56009 0.12996 0.6638 0.0
C372 C 0.51454 0.18073 0.73772 0.0
C373 C 0.51185 0.05593 0.71908 0.0
O374 O 0.53631 0.13679 0.68311 0.0
O375 O 0.58137 0.10806 0.67011 0.0
O376 O 0.53058 0.11739 0.77735 0.0
O377 O 0.56873 0.10721 0.74127 0.0
Co378 Co 0.45824 0.36835 0.7331 0.0
O379 O 0.4446 0.3244 0.74224 0.0
O380 O 0.4958 0.34043 0.73549 0.0
C381 C 0.42679 0.39332 0.77061 0.0
O382 O 0.48212 0.41121 0.72567 0.0
Co383 Co 0.40959 0.41815 0.70484 0.0
O384 O 0.4457 0.4495 0.71093 0.0
C385 C 0.42969 0.36236 0.66554 0.0
C386 C 0.47535 0.31679 0.7409 0.0
C387 C 0.47449 0.4408 0.71876 0.0
O388 O 0.45396 0.35858 0.68503 0.0
O389 O 0.40727 0.38344 0.67058 0.0
O390 O 0.45444 0.38015 0.77885 0.0
O391 O 0.41762 0.38809 0.74083 0.0
Co392 Co 0.7563 0.52934 0.86243 0.0
O393 O 0.74877 0.54251 0.81808 0.0
O394 O 0.75361 0.49139 0.83487 0.0
C395 C 0.71899 0.56237 0.88545 0.0
O396 O 0.7617 0.50608 0.90605 0.0
Co397 Co 0.78352 0.57857 0.91296 0.0
O398 O 0.7739 0.54349 0.94438 0.0
C399 C 0.82513 0.55582 0.85971 0.0
C400 C 0.74921 0.51166 0.81087 0.0
C401 C 0.76649 0.51456 0.93587 0.0
O402 O 0.80479 0.53258 0.85404 0.0
O403 O 0.81987 0.57837 0.88058 0.0
O404 O 0.71022 0.53468 0.87266 0.0
O405 O 0.74921 0.57036 0.88116 0.0
Co406 Co 0.23547 0.96625 0.86289 0.0
O407 O 0.2391 0.95032 0.81904 0.0
O408 O 0.23591 0.00247 0.83285 0.0
C409 C 0.2744 0.93445 0.88481 0.0
O410 O 0.23376 0.99183 0.90554 0.0
Co411 Co 0.21177 0.91945 0.91747 0.0
O412 O 0.22389 0.95608 0.94615 0.0
C413 C 0.16731 0.93902 0.86544 0.0
C414 C 0.23791 0.9806 0.80991 0.0
C415 C 0.23104 0.98455 0.93595 0.0
O416 O 0.18651 0.96292 0.85873 0.0
O417 O 0.17428 0.91708 0.88645 0.0
O418 O 0.28224 0.96118 0.86962 0.0
O419 O 0.24394 0.9264 0.88326 0.0
Co420 Co 0.75813 0.45811 0.62237 0.0
O421 O 0.75028 0.44176 0.66561 0.0
O422 O 0.75354 0.49401 0.65226 0.0
C423 C 0.72258 0.42563 0.59604 0.0
O424 O 0.76347 0.48436 0.58052 0.0
Co425 Co 0.78887 0.41341 0.57 0.0
O426 O 0.77769 0.4496 0.54047 0.0
C427 C 0.82768 0.43396 0.62585 0.0
C428 C 0.74963 0.47206 0.67484 0.0
C429 C 0.76873 0.47765 0.55034 0.0
O430 O 0.80648 0.45633 0.63167 0.0
O431 O 0.82389 0.41235 0.60373 0.0
O432 O 0.71256 0.4519 0.61075 0.0
O433 O 0.7529 0.41814 0.60073 0.0
Co434 Co 0.22865 0.03653 0.6215 0.0
O435 O 0.23668 0.04995 0.66577 0.0
O436 O 0.2271 -0.00079 0.64985 0.0
C437 C 0.26923 0.06524 0.59829 0.0
O438 O 0.22174 0.01276 0.57844 0.0
Co439 Co 0.20698 0.0867 0.56939 0.0
O440 O 0.21179 0.04965 0.53901 0.0
C441 C 0.16451 0.07137 0.62454 0.0
C442 C 0.23313 0.01943 0.67354 0.0
C443 C 0.21699 0.02051 0.54844 0.0
O444 O 0.18063 0.04474 0.62862 0.0
O445 O 0.17325 0.09309 0.60398 0.0
O446 O 0.27529 0.03727 0.612 0.0
O447 O 0.23986 0.07607 0.6019 0.0
Co448 Co 0.86863 0.76944 0.53636 0.0
O449 O 0.82381 0.76188 0.54827 0.0
O450 O 0.84203 0.7671 0.49768 0.0
C451 C 0.89115 0.73179 0.56926 0.0
O452 O 0.91295 0.77467 0.51415 0.0
Co453 Co 0.918 0.79658 0.58641 0.0
O454 O 0.95044 0.78458 0.55304 0.0
C455 C 0.86464 0.83782 0.56376 0.0
C456 C 0.81747 0.76244 0.51721 0.0
C457 C 0.94271 0.77747 0.52382 0.0
O458 O 0.86014 0.81794 0.53986 0.0
O459 O 0.88511 0.83245 0.58665 0.0
O460 O 0.87858 0.72337 0.54137 0.0
O461 O 0.88659 0.76186 0.57778 0.0
Co462 Co 0.85968 0.23578 0.96025 0.0
O463 O 0.81566 0.24584 0.94785 0.0
O464 O 0.83335 0.24109 -0.00126 0.0
C465 C 0.88438 0.27086 0.92613 0.0
O466 O 0.90346 0.22822 0.98259 0.0
Co467 Co 0.90675 0.20398 0.91078 0.0
O468 O 0.93995 0.21415 0.94404 0.0
C469 C 0.85124 0.16678 0.93537 0.0
C470 C 0.80924 0.24665 0.97887 0.0
C471 C 0.93283 0.22263 0.97305 0.0
O472 O 0.84808 0.18782 0.95845 0.0
O473 O 0.87187 0.17006 0.91222 0.0
O474 O 0.87263 0.28095 0.95381 0.0
O475 O 0.87785 0.24088 0.91864 0.0
Co476 Co 0.12508 0.25986 0.9584 0.0
O477 O 0.16992 0.25258 0.94675 0.0
O478 O 0.15152 0.25907 -0.00284 0.0
C479 C 0.10286 0.22131 0.92641 0.0
O480 O 0.08071 0.26544 0.98013 0.0
Co481 Co 0.07657 0.28582 0.90689 0.0
O482 O 0.0439 0.27826 0.9414 0.0
C483 C 0.12964 0.32735 0.92927 0.0
C484 C 0.17621 0.25458 0.97775 0.0
C485 C 0.0513 0.27086 0.97064 0.0
O486 O 0.13291 0.30836 0.95402 0.0
O487 O 0.11002 0.32119 0.90584 0.0
O488 O 0.11557 0.21345 0.9544 0.0
O489 O 0.10741 0.25116 0.91721 0.0
Co490 Co 0.62399 0.23777 0.03862 0.0
O491 O 0.66691 0.24982 0.05306 0.0
O492 O 0.65201 0.24339 0.00148 0.0
C493 C 0.59587 0.2722 0.07082 0.0
O494 O 0.58195 0.22785 0.01405 0.0
Co495 Co 0.57591 0.20434 0.08574 0.0
O496 O 0.54416 0.21148 0.05029 0.0
C497 C 0.63428 0.16955 0.06483 0.0
C498 C 0.67499 0.24983 0.02242 0.0
C499 C 0.55249 0.22027 0.02168 0.0
O500 O 0.63756 0.19044 0.04167 0.0
O501 O 0.61237 0.17205 0.08685 0.0
O502 O 0.60873 0.28242 0.04367 0.0
O503 O 0.60333 0.24267 0.07916 0.0
Co504 Co 0.45757 0.12062 0.23085 0.0
O505 O 0.44189 0.16315 0.24227 0.0
O506 O 0.49391 0.15008 0.23557 0.0
C507 C 0.42655 0.09268 0.2664 0.0
O508 O 0.48301 0.07895 0.22148 0.0
Co509 Co 0.4109 0.07116 0.19894 0.0
O510 O 0.44735 0.04044 0.20535 0.0
C511 C 0.42978 0.12949 0.16317 0.0
C512 C 0.47219 0.17233 0.24203 0.0
C513 C 0.47587 0.04936 0.21386 0.0
O514 O 0.45352 0.1331 0.18335 0.0
O515 O 0.40809 0.10734 0.16642 0.0
O516 O 0.45366 0.10622 0.27581 0.0
O517 O 0.4176 0.09921 0.23681 0.0
Co518 Co 0.52652 0.36062 0.2407 0.0
O519 O 0.54067 0.31634 0.24613 0.0
O520 O 0.48911 0.3323 0.24275 0.0
C521 C 0.5591 0.38277 0.27859 0.0
O522 O 0.50265 0.4042 0.23761 0.0
Co523 Co 0.57476 0.41197 0.2141 0.0
O524 O 0.53927 0.44282 0.22397 0.0
C525 C 0.5527 0.35934 0.1718 0.0
C526 C 0.50996 0.30859 0.24602 0.0
C527 C 0.51078 0.43412 0.23274 0.0
O528 O 0.52903 0.35432 0.1918 0.0
O529 O 0.57548 0.37984 0.1775 0.0
O530 O 0.53202 0.36869 0.28711 0.0
O531 O 0.56736 0.37974 0.24825 0.0
Co532 Co 0.46207 0.86167 0.25631 0.0
O533 O 0.44735 0.81769 0.249 0.0
O534 O 0.49907 0.83325 0.25173 0.0
C535 C 0.42845 0.88655 0.22073 0.0
O536 O 0.48685 0.90453 0.26102 0.0
Co537 Co 0.41584 0.91303 0.28659 0.0
O538 O 0.45068 0.94371 0.27409 0.0
C539 C 0.43915 0.85894 0.32655 0.0
C540 C 0.47804 0.80978 0.24813 0.0
C541 C 0.47908 0.9346 0.26542 0.0
O542 O 0.46093 0.85277 0.30482 0.0
O543 O 0.41702 0.88056 0.3228 0.0
O544 O 0.45513 0.87264 0.21065 0.0
O545 O 0.42134 0.88184 0.25113 0.0
Co546 Co 0.53358 0.62251 0.26164 0.0
O547 O 0.54802 0.66533 0.24951 0.0
O548 O 0.49653 0.65126 0.25788 0.0
C549 C 0.56416 0.5948 0.22542 0.0
O550 O 0.50928 0.58036 0.27207 0.0
Co551 Co 0.58231 0.57393 0.29221 0.0
O552 O 0.54612 0.5426 0.28733 0.0
C553 C 0.56335 0.63209 0.32845 0.0
C554 C 0.51758 0.67392 0.25066 0.0
C555 C 0.51717 0.55097 0.27977 0.0
O556 O 0.53893 0.63535 0.30899 0.0
O557 O 0.5853 0.61033 0.32444 0.0
O558 O 0.5366 0.60779 0.21656 0.0
O559 O 0.57368 0.60181 0.2547 0.0
Co560 Co 0.23632 0.46027 0.13045 0.0
O561 O 0.2459 0.4461 0.17398 0.0
O562 O 0.23909 0.49756 0.15909 0.0
C563 C 0.2734 0.42914 0.10472 0.0
O564 O 0.22858 0.48403 0.08744 0.0
Co565 Co 0.20741 0.4107 0.08124 0.0
O566 O 0.21682 0.44581 0.0497 0.0
C567 C 0.16834 0.43202 0.13672 0.0
C568 C 0.2447 0.47661 0.1823 0.0
C569 C 0.22389 0.47499 0.05774 0.0
O570 O 0.18831 0.45588 0.14074 0.0
O571 O 0.1728 0.40956 0.11556 0.0
O572 O 0.282 0.45654 0.11818 0.0
O573 O 0.24374 0.41993 0.11047 0.0
Co574 Co 0.76531 0.04042 0.12939 0.0
O575 O 0.75985 0.05613 0.17322 0.0
O576 O 0.76126 0.00407 0.15888 0.0
C577 C 0.72923 0.07401 0.10531 0.0
O578 O 0.76807 0.015 0.08671 0.0
Co579 Co 0.79489 0.08541 0.07684 0.0
O580 O 0.7805 0.05063 0.04682 0.0
C581 C 0.83559 0.06275 0.13055 0.0
C582 C 0.75891 0.02572 0.18198 0.0
C583 C 0.77141 0.02252 0.05641 0.0
O584 O 0.81404 0.04079 0.13655 0.0
O585 O 0.83152 0.08496 0.10906 0.0
O586 O 0.71949 0.04765 0.12002 0.0
O587 O 0.75987 0.08099 0.10879 0.0
Co588 Co 0.23242 0.53353 0.36982 0.0
O589 O 0.2403 0.54779 0.32575 0.0
O590 O 0.23621 0.49629 0.34158 0.0
C591 C 0.26891 0.56653 0.3943 0.0
O592 O 0.22689 0.50898 0.41261 0.0
Co593 Co 0.2033 0.58029 0.42104 0.0
O594 O 0.21174 0.54428 0.45178 0.0
C595 C 0.16339 0.55893 0.36615 0.0
C596 C 0.2407 0.51705 0.31803 0.0
C597 C 0.22047 0.51596 0.44248 0.0
O598 O 0.184 0.53584 0.36103 0.0
O599 O 0.16792 0.58112 0.38758 0.0
O600 O 0.2782 0.53937 0.38079 0.0
O601 O 0.23864 0.57431 0.38976 0.0
Co602 Co 0.76499 0.96472 0.36862 0.0
O603 O 0.75701 0.95293 0.32398 0.0
O604 O 0.76377 0.00343 0.34196 0.0
C605 C 0.72639 0.93272 0.39106 0.0
O606 O 0.77135 0.98638 0.41289 0.0
Co607 Co 0.79087 0.91269 0.41683 0.0
O608 O 0.78328 0.94719 0.44951 0.0
C609 C 0.83293 0.9361 0.36433 0.0
C610 C 0.7587 0.98387 0.31747 0.0
C611 C 0.77655 0.97663 0.44225 0.0
O612 O 0.81335 0.96026 0.36022 0.0
O613 O 0.82704 0.91277 0.38416 0.0
O614 O 0.71876 0.96095 0.3788 0.0
O615 O 0.75619 0.92349 0.38624 0.0
Co616 Co 0.12863 0.23072 0.4597 0.0
O617 O 0.1721 0.24001 0.44482 0.0
O618 O 0.15766 0.23376 0.4965 0.0
C619 C 0.10242 0.26765 0.42866 0.0
O620 O 0.08624 0.22341 0.48463 0.0
Co621 Co 0.07776 0.20176 0.41219 0.0
O622 O 0.04722 0.21008 0.44835 0.0
C623 C 0.13281 0.16185 0.4329 0.0
C624 C 0.18067 0.23914 0.4753 0.0
C625 C 0.05634 0.2177 0.47705 0.0
O626 O 0.13871 0.1826 0.45567 0.0
O627 O 0.11099 0.16628 0.41109 0.0
O628 O 0.11648 0.27639 0.45573 0.0
O629 O 0.10776 0.23789 0.41954 0.0
Co630 Co 0.13053 0.76435 0.04112 0.0
O631 O 0.17603 0.75804 0.0504 0.0
O632 O 0.1548 0.76235 0.0009 0.0
C633 C 0.11047 0.72662 0.07536 0.0
O634 O 0.08468 0.76852 0.02225 0.0
Co635 Co 0.08535 0.79164 0.0952 0.0
O636 O 0.05077 0.77808 0.06448 0.0
C637 C 0.13554 0.83341 0.06675 0.0
C638 C 0.1806 0.75877 0.01906 0.0
C639 C 0.05595 0.77083 0.03471 0.0
O640 O 0.1379 0.81301 0.04306 0.0
O641 O 0.11745 0.82829 0.09164 0.0
O642 O 0.12184 0.7182 0.04699 0.0
O643 O 0.11545 0.75673 0.08358 0.0
Co644 Co 0.86199 0.72917 0.04445 0.0
O645 O 0.81667 0.73836 0.05286 0.0
O646 O 0.8385 0.73195 0.00388 0.0
C647 C 0.88388 0.76618 0.07856 0.0
O648 O 0.90756 0.72211 0.02576 0.0
Co649 Co 0.90622 0.70053 0.09847 0.0
O650 O 0.94151 0.71098 0.06749 0.0
C651 C 0.85543 0.65967 0.06997 0.0
C652 C 0.81265 0.7374 0.02141 0.0
C653 C 0.93629 0.71799 0.0377 0.0
O654 O 0.85166 0.68094 0.0472 0.0
O655 O 0.87443 0.66393 0.09431 0.0
O656 O 0.87333 0.77491 0.04994 0.0
O657 O 0.87727 0.73647 0.08703 0.0
Co658 Co 0.3649 0.76471 0.95033 0.0
O659 O 0.3202 0.75789 0.93795 0.0
O660 O 0.33765 0.76467 0.98865 0.0
C661 C 0.38719 0.72527 0.91946 0.0
O662 O 0.40909 0.77003 0.97247 0.0
Co663 Co 0.41449 0.78862 0.89821 0.0
O664 O 0.44629 0.77797 0.93273 0.0
C665 C 0.36382 0.83292 0.92147 0.0
C666 C 0.3133 0.76009 0.96878 0.0
C667 C 0.4387 0.77249 0.96237 0.0
O668 O 0.35805 0.81322 0.9452 0.0
O669 O 0.3837 0.82636 0.89836 0.0
O670 O 0.37388 0.7182 0.94736 0.0
O671 O 0.38303 0.75497 0.90961 0.0
C672 C 0.02248 0.22262 0.25209 0.0
C673 C 0.98941 0.21362 0.2508 0.0
C674 C 0.03184 0.25547 0.25245 0.0
C675 C 0.00848 0.28062 0.25174 0.0
H676 H 0.04137 0.20419 0.25343 0.0
H677 H 0.05761 0.26109 0.25416 0.0
S678 S 0.91866 0.27016 0.24641 0.0
N679 N 0.93319 0.23264 0.2473 0.0
N680 N 0.95083 0.29431 0.24815 0.0
C681 C 0.97534 0.27201 0.24953 0.0
C682 C 0.9658 0.23854 0.24902 0.0
C683 C 0.02977 0.7393 0.24923 0.0
C684 C 0.00668 0.71401 0.25153 0.0
C685 C 0.02017 0.77206 0.2494 0.0
C686 C 0.98711 0.78086 0.25209 0.0
H687 H 0.05545 0.73383 0.24621 0.0
H688 H 0.03883 0.79056 0.24656 0.0
S689 S 0.91728 0.72391 0.26195 0.0
N690 N 0.94948 0.69994 0.25878 0.0
N691 N 0.93139 0.76155 0.25945 0.0
C692 C 0.96387 0.75584 0.25592 0.0
C693 C 0.97366 0.72241 0.2555 0.0
C694 C 0.24893 0.96747 0.23218 0.0
C695 C 0.2516 0.99126 0.20757 0.0
C696 C 0.24732 0.97621 0.26514 0.0
C697 C 0.248 0.0091 0.27477 0.0
H698 H 0.24906 0.94175 0.2261 0.0
H699 H 0.24627 0.95695 0.2832 0.0
S700 S 0.25256 0.08098 0.21969 0.0
N701 N 0.25329 0.04922 0.19497 0.0
N702 N 0.24986 0.06575 0.25686 0.0
C703 C 0.24933 0.03324 0.25033 0.0
C704 C 0.25127 0.02429 0.21675 0.0
C705 C 0.73966 0.51733 0.23662 0.0
C706 C 0.73853 0.49449 0.211 0.0
C707 C 0.73893 0.5074 0.26928 0.0
C708 C 0.7375 0.4742 0.27768 0.0
H709 H 0.74016 0.54326 0.23151 0.0
H710 H 0.73911 0.52601 0.28805 0.0
S711 S 0.73666 0.40439 0.21987 0.0
N712 N 0.73759 0.437 0.19628 0.0
N713 N 0.73667 0.41826 0.25768 0.0
C714 C 0.73758 0.45098 0.25235 0.0
C715 C 0.73802 0.46113 0.21902 0.0
C716 C 0.26842 0.24725 0.97829 0.0
C717 C 0.27668 0.25496 0.01065 0.0
C718 C 0.23582 0.24654 0.96811 0.0
C719 C 0.21021 0.25366 0.98987 0.0
H720 H 0.28728 0.24177 0.96059 0.0
H721 H 0.23073 0.24065 0.94285 0.0
S722 S 0.219 0.27672 0.07704 0.0
N723 N 0.25672 0.27062 0.06434 0.0
N724 N 0.19546 0.26939 0.0452 0.0
C725 C 0.21814 0.2614 0.02236 0.0
C726 C 0.25137 0.26203 0.03275 0.0
C727 C 0.27492 0.74445 0.51742 0.0
C728 C 0.28285 0.74591 0.48409 0.0
C729 C 0.24238 0.74361 0.52781 0.0
C730 C 0.21645 0.74392 0.50527 0.0
H731 H 0.29396 0.74315 0.53571 0.0
H732 H 0.23763 0.74169 0.55373 0.0
S733 S 0.22399 0.74996 0.41523 0.0
N734 N 0.26198 0.74962 0.42856 0.0
N735 N 0.20089 0.74766 0.44812 0.0
C736 C 0.22398 0.74655 0.47191 0.0
C737 C 0.25715 0.74765 0.46131 0.0
C738 C 0.75732 0.76139 0.52699 0.0
C739 C 0.78359 0.75931 0.50498 0.0
C740 C 0.72493 0.76032 0.51609 0.0
C741 C 0.71749 0.75702 0.48274 0.0
H742 H 0.76171 0.76457 0.55286 0.0
H743 H 0.70562 0.76271 0.53397 0.0
S744 S 0.77742 0.74829 0.41529 0.0
N745 N 0.80002 0.75218 0.4484 0.0
N746 N 0.73921 0.75008 0.42788 0.0
C747 C 0.74354 0.75398 0.46053 0.0
C748 C 0.77656 0.75518 0.47165 0.0
C749 C 0.97785 0.76944 0.75043 0.0
C750 C 0.01145 0.77628 0.75141 0.0
C751 C 0.9664 0.73729 0.74947 0.0
C752 C 0.98812 0.71073 0.74913 0.0
H753 H 0.96016 0.78906 0.7497 0.0
H754 H 0.9403 0.73336 0.74793 0.0
S755 S 0.07847 0.7153 0.75346 0.0
N756 N 0.06637 0.75369 0.75376 0.0
N757 N 0.0448 0.69329 0.75159 0.0
C758 C 0.02176 0.71714 0.75116 0.0
C759 C 0.03344 0.7499 0.75242 0.0
C760 C 0.02478 0.23799 0.75468 0.0
C761 C 0.00277 0.21169 0.7533 0.0
C762 C 0.01386 0.27026 0.7532 0.0
C763 C 0.98049 0.27753 0.75005 0.0
H764 H 0.05071 0.23372 0.7575 0.0
H765 H 0.03176 0.28962 0.755 0.0
S766 S 0.91288 0.21741 0.74403 0.0
N767 N 0.94609 0.19495 0.74776 0.0
N768 N 0.92548 0.25565 0.74458 0.0
C769 C 0.95821 0.25144 0.7479 0.0
C770 C 0.96936 0.21851 0.74969 0.0
C771 C 0.72938 0.97792 0.77644 0.0
C772 C 0.73225 0.01105 0.78492 0.0
C773 C 0.73054 0.96782 0.74378 0.0
C774 C 0.7345 0.99047 0.71827 0.0
H775 H 0.72568 0.95958 0.79511 0.0
H776 H 0.72765 0.94209 0.73851 0.0
S777 S 0.74517 0.07993 0.72739 0.0
N778 N 0.74072 0.06641 0.76505 0.0
N779 N 0.74278 0.0474 0.70379 0.0
C780 C 0.73811 0.0236 0.7264 0.0
C781 C 0.73704 0.03389 0.75967 0.0
C782 C 0.24772 0.46527 0.75563 0.0
C783 C 0.24993 0.48833 0.78099 0.0
C784 C 0.24878 0.47481 0.72287 0.0
C785 C 0.25193 0.50781 0.7141 0.0
H786 H 0.24589 0.43947 0.76103 0.0
H787 H 0.24765 0.45603 0.7043 0.0
S788 S 0.25724 0.57807 0.77111 0.0
N789 N 0.25433 0.54584 0.79506 0.0
N790 N 0.25614 0.56381 0.73347 0.0
C791 C 0.25317 0.53127 0.73917 0.0
C792 C 0.25224 0.52153 0.7726 0.0
C793 C 0.72066 0.74471 0.01393 0.0
C794 C 0.71524 0.74231 0.98014 0.0
C795 C 0.75227 0.74394 0.0269 0.0
C796 C 0.77978 0.74056 0.00662 0.0
H797 H 0.70029 0.74683 0.03065 0.0
H798 H 0.75504 0.74541 0.05314 0.0
S799 S 0.77896 0.73412 0.91623 0.0
N800 N 0.74014 0.73715 0.92647 0.0
N801 N 0.79952 0.73563 0.95083 0.0
C802 C 0.77478 0.7388 0.97268 0.0
C803 C 0.74254 0.7397 0.95945 0.0
C804 C 0.742 0.24802 0.52563 0.0
C805 C 0.71652 0.24594 0.50271 0.0
C806 C 0.77466 0.24895 0.51573 0.0
C807 C 0.78316 0.24766 0.48252 0.0
H808 H 0.73675 0.24979 0.55147 0.0
H809 H 0.79331 0.25125 0.53431 0.0
S810 S 0.72569 0.23993 0.41282 0.0
N811 N 0.70201 0.24107 0.44536 0.0
N812 N 0.7634 0.24266 0.42669 0.0
C813 C 0.75796 0.24459 0.45935 0.0
C814 C 0.72465 0.24377 0.46946 0.0
C815 C 0.22355 0.23974 0.51856 0.0
C816 C 0.21527 0.24192 0.48534 0.0
C817 C 0.25618 0.23961 0.52867 0.0
C818 C 0.28184 0.24149 0.50595 0.0
H819 H 0.20474 0.23746 0.53698 0.0
H820 H 0.26124 0.23716 0.55449 0.0
S821 S 0.27333 0.25002 0.41619 0.0
N822 N 0.23547 0.24786 0.42977 0.0
N823 N 0.29679 0.24747 0.44882 0.0
C824 C 0.27395 0.24471 0.47271 0.0
C825 C 0.24068 0.24498 0.4624 0.0
C826 C 0.52518 0.75637 0.74439 0.0
C827 C 0.5015 0.78121 0.74535 0.0
C828 C 0.51629 0.7234 0.7454 0.0
C829 C 0.48336 0.71393 0.74726 0.0
H830 H 0.55092 0.76235 0.7436 0.0
H831 H 0.53549 0.70524 0.74523 0.0
S832 S 0.41171 0.76944 0.7486 0.0
N833 N 0.44354 0.79405 0.74689 0.0
N834 N 0.42681 0.73213 0.74874 0.0
C835 C 0.45934 0.7385 0.74725 0.0
C836 C 0.46841 0.77211 0.74632 0.0
C837 C 0.46277 0.25722 0.74236 0.0
C838 C 0.48612 0.28241 0.7428 0.0
C839 C 0.47217 0.22441 0.74116 0.0
C840 C 0.50528 0.21549 0.74064 0.0
H841 H 0.43694 0.26283 0.74206 0.0
H842 H 0.45327 0.20595 0.74024 0.0
S843 S 0.57611 0.27207 0.74318 0.0
N844 N 0.54387 0.29615 0.74389 0.0
N845 N 0.56158 0.23455 0.74182 0.0
C846 C 0.52893 0.2404 0.742 0.0
C847 C 0.51934 0.27383 0.74305 0.0
C848 C 0.74663 0.52382 0.75132 0.0
C849 C 0.74666 0.50059 0.77659 0.0
C850 C 0.74671 0.51432 0.71854 0.0
C851 C 0.74672 0.4812 0.70966 0.0
H852 H 0.7473 0.54967 0.7568 0.0
H853 H 0.74739 0.5332 0.70006 0.0
S854 S 0.74453 0.41062 0.76647 0.0
N855 N 0.74503 0.44291 0.79052 0.0
N856 N 0.74512 0.425 0.72887 0.0
C857 C 0.74567 0.45764 0.73466 0.0
C858 C 0.74567 0.46735 0.76812 0.0
C859 C 0.24049 0.03166 0.73281 0.0
C860 C 0.23507 0.00858 0.70795 0.0
C861 C 0.2416 0.02237 0.76568 0.0
C862 C 0.23752 0.98962 0.77496 0.0
H863 H 0.24369 0.05722 0.72695 0.0
H864 H 0.24568 0.04107 0.78391 0.0
S865 S 0.22219 0.91964 0.71942 0.0
N866 N 0.22532 0.95146 0.69496 0.0
N867 N 0.22748 0.934 0.75665 0.0
C868 C 0.23222 0.96622 0.75036 0.0
C869 C 0.23096 0.9757 0.71689 0.0
C870 C 0.71711 0.25109 0.97863 0.0
C871 C 0.70931 0.25353 0.01193 0.0
C872 C 0.74956 0.25017 0.96816 0.0
C873 C 0.7755 0.25141 0.9906 0.0
H874 H 0.69805 0.24882 0.96045 0.0
H875 H 0.75422 0.24723 0.94231 0.0
S876 S 0.7683 0.26123 0.08031 0.0
N877 N 0.73025 0.25988 0.06719 0.0
N878 N 0.79132 0.25778 0.04745 0.0
C879 C 0.76813 0.25539 0.02386 0.0
C880 C 0.73501 0.25658 0.03453 0.0
C881 C 0.52319 0.24927 0.24496 0.0
C882 C 0.49965 0.27409 0.24785 0.0
C883 C 0.51416 0.21637 0.24406 0.0
C884 C 0.48126 0.20699 0.24633 0.0
H885 H 0.54882 0.25524 0.24237 0.0
H886 H 0.53313 0.19826 0.24081 0.0
S887 S 0.41034 0.26244 0.25704 0.0
N888 N 0.44217 0.28701 0.25486 0.0
N889 N 0.42513 0.22516 0.25365 0.0
C890 C 0.45755 0.2315 0.25059 0.0
C891 C 0.46675 0.26506 0.2512 0.0
C892 C 0.46539 0.75026 0.25032 0.0
C893 C 0.48836 0.77531 0.24549 0.0
C894 C 0.47489 0.71745 0.25092 0.0
C895 C 0.5077 0.70842 0.24655 0.0
H896 H 0.43996 0.756 0.25469 0.0
H897 H 0.45643 0.69913 0.25568 0.0
S898 S 0.57696 0.7646 0.23015 0.0
N899 N 0.54504 0.7888 0.23421 0.0
N900 N 0.56294 0.7272 0.23513 0.0
C901 C 0.53073 0.73318 0.24038 0.0
C902 C 0.52106 0.7666 0.23993 0.0
C903 C 0.24184 0.52931 0.25833 0.0
C904 C 0.24448 0.50638 0.28375 0.0
C905 C 0.24289 0.51961 0.22556 0.0
C906 C 0.24691 0.48665 0.21695 0.0
H907 H 0.23796 0.55489 0.2637 0.0
H908 H 0.23979 0.53806 0.20691 0.0
S909 S 0.25756 0.41729 0.27436 0.0
N910 N 0.25301 0.44946 0.29812 0.0
N911 N 0.2554 0.43123 0.23666 0.0
C912 C 0.25083 0.46361 0.24216 0.0
C913 C 0.24948 0.47347 0.27552 0.0
C914 C 0.75488 0.98294 0.22511 0.0
C915 C 0.75691 0.01613 0.21675 0.0
C916 C 0.75474 0.97293 0.25774 0.0
C917 C 0.75676 0.99568 0.28339 0.0
H918 H 0.75379 0.96439 0.20631 0.0
H919 H 0.75365 0.94702 0.26279 0.0
S920 S 0.76152 0.08569 0.27472 0.0
N921 N 0.76015 0.07195 0.23689 0.0
N922 N 0.75998 0.05305 0.29824 0.0
C923 C 0.75822 0.02902 0.27545 0.0
C924 C 0.75827 0.03926 0.24215 0.0
C925 C 0.24102 0.7565 0.02637 0.0
C926 C 0.21396 0.75746 0.00522 0.0
C927 C 0.27298 0.75708 0.01434 0.0
C928 C 0.27921 0.75844 0.98065 0.0
H929 H 0.2376 0.75581 0.05257 0.0
H930 H 0.29292 0.75663 0.03168 0.0
S931 S 0.21697 0.76098 0.91477 0.0
N932 N 0.19554 0.75953 0.94883 0.0
N933 N 0.2556 0.76047 0.92616 0.0
C934 C 0.2524 0.75898 0.95914 0.0
C935 C 0.2198 0.75853 0.97143 0.0
C936 C 0.09297 0.32498 0.41106 0.0
C937 C 0.08583 0.29164 0.40741 0.0
C938 C 0.0825 0.34785 0.38798 0.0
C939 C 0.064 0.33837 0.36065 0.0
H940 H 0.10844 0.33332 0.43081 0.0
H941 H 0.09033 0.37295 0.39077 0.0
S942 S 0.03355 0.2548 0.3433 0.0
N943 N 0.05553 0.2508 0.37684 0.0
N944 N 0.03529 0.29388 0.33367 0.0
C945 C 0.0541 0.30554 0.35837 0.0
C946 C 0.06523 0.28212 0.38167 0.0
C947 C 0.92818 0.20773 0.37682 0.0
C948 C 0.91189 0.19715 0.40514 0.0
C949 C 0.93918 0.18536 0.35338 0.0
C950 C 0.93384 0.15168 0.35726 0.0
H951 H 0.93122 0.23353 0.37199 0.0
H952 H 0.9499 0.19471 0.33108 0.0
S953 S 0.89748 0.11103 0.42938 0.0
N954 N 0.89506 0.15037 0.4377 0.0
N955 N 0.915 0.10853 0.3932 0.0
C956 C 0.91983 0.14065 0.3865 0.0
C957 C 0.90908 0.16335 0.4106 0.0
C958 C 0.07814 0.7138 0.12565 0.0
C959 C 0.09378 0.70301 0.09703 0.0
C960 C 0.0654 0.69149 0.1483 0.0
C961 C 0.06827 0.65769 0.1432 0.0
H962 H 0.07675 0.7396 0.13121 0.0
H963 H 0.0553 0.70075 0.17092 0.0
S964 S 0.10283 0.61689 0.07031 0.0
N965 N 0.10805 0.6562 0.0633 0.0
N966 N 0.08457 0.61452 0.10612 0.0
C967 C 0.08183 0.64668 0.11376 0.0
C968 C 0.09448 0.66928 0.09059 0.0
C969 C 0.91041 0.846 0.1167 0.0
C970 C 0.92714 0.83609 0.14497 0.0
C971 C 0.89788 0.82313 0.09462 0.0
C972 C 0.90093 0.78944 0.10034 0.0
H973 H 0.90591 0.87166 0.1122 0.0
H974 H 0.88435 0.83201 0.07372 0.0
S975 S 0.94548 0.75079 0.16909 0.0
N976 N 0.94864 0.79033 0.17602 0.0
N977 N 0.92435 0.74731 0.13496 0.0
C978 C 0.91906 0.77918 0.12763 0.0
C979 C 0.93242 0.80253 0.1498 0.0
C980 C 0.38401 0.07388 0.34594 0.0
C981 C 0.35562 0.05749 0.33576 0.0
C982 C 0.40808 0.0831 0.32352 0.0
C983 C 0.40433 0.07685 0.28997 0.0
H984 H 0.38701 0.08093 0.37125 0.0
H985 H 0.42875 0.097 0.33237 0.0
S986 S 0.33673 0.03097 0.25118 0.0
N987 N 0.32695 0.03222 0.29023 0.0
N988 N 0.37197 0.05018 0.24808 0.0
C989 C 0.37727 0.05849 0.27974 0.0
C990 C 0.35297 0.04861 0.30265 0.0
C991 C 0.58975 0.37586 0.33014 0.0
C992 C 0.58208 0.39524 0.30304 0.0
C993 C 0.61499 0.38469 0.35136 0.0
C994 C 0.63326 0.41346 0.34644 0.0
H995 H 0.57734 0.35283 0.33401 0.0
H996 H 0.621 0.36801 0.37094 0.0
S997 S 0.61722 0.47571 0.28258 0.0
N998 N 0.59096 0.44624 0.27464 0.0
N999 N 0.63807 0.46367 0.31488 0.0
C1000 C 0.6238 0.43434 0.32078 0.0
C1001 C 0.59833 0.42497 0.29893 0.0
C1002 C 0.38892 0.91389 0.14184 0.0
C1003 C 0.36 0.92896 0.15246 0.0
C1004 C 0.41186 0.90197 0.1642 0.0
C1005 C 0.40637 0.904 0.19804 0.0
H1006 H 0.39327 0.91015 0.11603 0.0
H1007 H 0.43324 0.88963 0.15479 0.0
S1008 S 0.33555 0.94348 0.23838 0.0
N1009 N 0.32821 0.94748 0.19898 0.0
N1010 N 0.37095 0.92449 0.24106 0.0
C1011 C 0.37839 0.92063 0.20899 0.0
C1012 C 0.3553 0.93328 0.18617 0.0
C1013 C 0.57997 0.58121 0.16816 0.0
C1014 C 0.58564 0.57783 0.20187 0.0
C1015 C 0.60308 0.57069 0.14525 0.0
C1016 C 0.63227 0.55567 0.15519 0.0
H1017 H 0.55848 0.59385 0.15938 0.0
H1018 H 0.59874 0.57565 0.11964 0.0
S1019 S 0.65727 0.53813 0.24034 0.0
N1020 N 0.62149 0.55622 0.24389 0.0
N1021 N 0.66446 0.53575 0.20081 0.0
C1022 C 0.63704 0.54988 0.18866 0.0
C1023 C 0.61384 0.56116 0.21202 0.0
C1024 C 0.28578 0.37982 0.07113 0.0
C1025 C 0.2969 0.40801 0.08728 0.0
C1026 C 0.30776 0.35643 0.05936 0.0
C1027 C 0.34158 0.36026 0.0638 0.0
H1028 H 0.25988 0.37497 0.06892 0.0
H1029 H 0.29806 0.33412 0.04901 0.0
S1030 S 0.38344 0.43223 0.09906 0.0
N1031 N 0.34419 0.44058 0.10271 0.0
N1032 N 0.38536 0.39612 0.08132 0.0
C1033 C 0.35309 0.3895 0.07741 0.0
C1034 C 0.33077 0.41355 0.08895 0.0
C1035 C 0.34888 0.60904 0.41213 0.0
C1036 C 0.33904 0.6377 0.42822 0.0
C1037 C 0.32617 0.58514 0.40311 0.0
C1038 C 0.29265 0.58931 0.40922 0.0
H1039 H 0.3742 0.6056 0.40533 0.0
H1040 H 0.33485 0.56411 0.38967 0.0
S1041 S 0.25457 0.65846 0.45352 0.0
N1042 N 0.2938 0.66756 0.45245 0.0
N1043 N 0.25105 0.62291 0.43494 0.0
C1044 C 0.28268 0.61692 0.42699 0.0
C1045 C 0.30591 0.64104 0.43667 0.0
C1046 C 0.71198 0.88243 0.42234 0.0
C1047 C 0.70182 0.91085 0.40598 0.0
C1048 C 0.68938 0.85878 0.43235 0.0
C1049 C 0.65587 0.86253 0.42587 0.0
H1050 H 0.73769 0.87775 0.42631 0.0
H1051 H 0.69848 0.83646 0.44321 0.0
S1052 S 0.61617 0.93449 0.38817 0.0
N1053 N 0.65552 0.94312 0.38738 0.0
N1054 N 0.61323 0.89824 0.40548 0.0
C1055 C 0.64519 0.89176 0.41158 0.0
C1056 C 0.66812 0.91608 0.40185 0.0
C1057 C 0.15077 0.60326 0.57507 0.0
C1058 C 0.1612 0.63264 0.56077 0.0
C1059 C 0.17325 0.57978 0.58553 0.0
C1060 C 0.20706 0.58509 0.58272 0.0
H1061 H 0.12508 0.59912 0.57978 0.0
H1062 H 0.16399 0.55824 0.59772 0.0
S1063 S 0.24683 0.65603 0.54294 0.0
N1064 N 0.20741 0.66411 0.54086 0.0
N1065 N 0.24976 0.62019 0.56107 0.0
C1066 C 0.21775 0.61318 0.56613 0.0
C1067 C 0.19477 0.63691 0.55499 0.0
C1068 C 0.90664 0.65117 0.61111 0.0
C1069 C 0.92415 0.66023 0.63921 0.0
C1070 C 0.89789 0.67428 0.58754 0.0
C1071 C 0.90569 0.70745 0.59155 0.0
H1072 H 0.89849 0.62623 0.60791 0.0
H1073 H 0.88331 0.6663 0.56699 0.0
S1074 S 0.95496 0.74317 0.65861 0.0
N1075 N 0.95208 0.70409 0.66793 0.0
N1076 N 0.93497 0.74766 0.62392 0.0
C1077 C 0.92501 0.71652 0.61842 0.0
C1078 C 0.93446 0.69285 0.64217 0.0
C1079 C 0.08985 0.84283 0.61625 0.0
C1080 C 0.07372 0.83182 0.64444 0.0
C1081 C 0.09905 0.82112 0.59158 0.0
C1082 C 0.0931 0.78746 0.59449 0.0
H1083 H 0.09648 0.8683 0.61376 0.0
H1084 H 0.11247 0.83067 0.57091 0.0
S1085 S 0.04845 0.74663 0.66186 0.0
N1086 N 0.04943 0.78548 0.6725 0.0
N1087 N 0.06735 0.7445 0.62635 0.0
C1088 C 0.0753 0.77633 0.62165 0.0
C1089 C 0.06541 0.79858 0.64656 0.0
C1090 C 0.90523 0.3491 0.88196 0.0
C1091 C 0.92063 0.3379 0.85344 0.0
C1092 C 0.89551 0.32732 0.90644 0.0
C1093 C 0.90008 0.29349 0.90286 0.0
H1094 H 0.89955 0.37475 0.88483 0.0
H1095 H 0.88267 0.33698 0.92743 0.0
S1096 S 0.94181 0.25202 0.83411 0.0
N1097 N 0.94247 0.29106 0.82426 0.0
N1098 N 0.92349 0.2501 0.8699 0.0
C1099 C 0.91709 0.28216 0.87534 0.0
C1100 C 0.92757 0.3044 0.85071 0.0
C1101 C 0.09035 0.14198 0.88123 0.0
C1102 C 0.06859 0.15079 0.85613 0.0
C1103 C 0.0997 0.16446 0.90523 0.0
C1104 C 0.08817 0.19673 0.90458 0.0
H1105 H 0.10135 0.11795 0.88155 0.0
H1106 H 0.1176 0.15702 0.92322 0.0
S1107 S 0.02748 0.231 0.84695 0.0
N1108 N 0.03293 0.19311 0.83447 0.0
N1109 N 0.05124 0.23544 0.87916 0.0
C1110 C 0.06483 0.20528 0.88102 0.0
C1111 C 0.05478 0.18224 0.85693 0.0
C1112 C 0.6075 0.9277 0.70363 0.0
C1113 C 0.58124 0.90881 0.69213 0.0
C1114 C 0.63203 0.93859 0.68248 0.0
C1115 C 0.63142 0.93051 0.64914 0.0
H1116 H 0.61002 0.93284 0.72943 0.0
H1117 H 0.6528 0.95128 0.69284 0.0
S1118 S 0.56509 0.88667 0.60584 0.0
N1119 N 0.55367 0.88654 0.64448 0.0
N1120 N 0.60022 0.9064 0.60481 0.0
C1121 C 0.60392 0.91402 0.63687 0.0
C1122 C 0.57867 0.90334 0.65835 0.0
C1123 C 0.4134 0.58669 0.66666 0.0
C1124 C 0.40931 0.58141 0.70031 0.0
C1125 C 0.39029 0.57552 0.64416 0.0
C1126 C 0.36248 0.55818 0.65437 0.0
H1127 H 0.43354 0.60127 0.65769 0.0
H1128 H 0.39342 0.58199 0.61871 0.0
S1129 S 0.34394 0.53227 0.7392 0.0
N1130 N 0.3779 0.55373 0.74237 0.0
N1131 N 0.33463 0.53224 0.7 0.0
C1132 C 0.35981 0.54992 0.68761 0.0
C1133 C 0.38317 0.56172 0.71063 0.0
C1134 C 0.62872 0.05913 0.81087 0.0
C1135 C 0.62412 0.06639 0.8441 0.0
C1136 C 0.60624 0.0696 0.7873 0.0
C1137 C 0.57818 0.08725 0.7962 0.0
H1138 H 0.65093 0.04734 0.8027 0.0
H1139 H 0.61167 0.06506 0.76183 0.0
S1140 S 0.55226 0.10738 0.88067 0.0
N1141 N 0.58769 0.08875 0.88514 0.0
N1142 N 0.54503 0.10781 0.84104 0.0
C1143 C 0.57191 0.0921 0.82963 0.0
C1144 C 0.59503 0.08185 0.85354 0.0
C1145 C 0.35278 0.4354 0.80685 0.0
C1146 C 0.3563 0.42908 0.8404 0.0
C1147 C 0.37657 0.42521 0.78444 0.0
C1148 C 0.4049 0.40882 0.79487 0.0
H1149 H 0.3305 0.44624 0.79758 0.0
H1150 H 0.37205 0.42899 0.75867 0.0
S1151 S 0.42803 0.39165 0.88081 0.0
N1152 N 0.39178 0.40901 0.88338 0.0
N1153 N 0.43689 0.39057 0.84153 0.0
C1154 C 0.40994 0.40497 0.82864 0.0
C1155 C 0.3855 0.41489 0.85135 0.0
C1156 C 0.68549 0.63816 0.92604 0.0
C1157 C 0.65213 0.63674 0.91812 0.0
C1158 C 0.70676 0.61302 0.9169 0.0
C1159 C 0.69534 0.58541 0.89997 0.0
H1160 H 0.69566 0.65979 0.93734 0.0
H1161 H 0.73256 0.61595 0.92189 0.0
S1162 S 0.60911 0.56765 0.87859 0.0
N1163 N 0.60796 0.60399 0.89594 0.0
N1164 N 0.64777 0.55636 0.87936 0.0
C1165 C 0.66157 0.58245 0.89448 0.0
C1166 C 0.64001 0.60827 0.90336 0.0
C1167 C 0.64455 0.38022 0.57808 0.0
C1168 C 0.65538 0.35313 0.55999 0.0
C1169 C 0.66616 0.40488 0.58759 0.0
C1170 C 0.69953 0.40308 0.57989 0.0
H1171 H 0.61948 0.38161 0.58636 0.0
H1172 H 0.65693 0.42438 0.60287 0.0
S1173 S 0.73922 0.34034 0.52808 0.0
N1174 N 0.70084 0.32835 0.53085 0.0
N1175 N 0.74157 0.37452 0.54927 0.0
C1176 C 0.7102 0.37762 0.55953 0.0
C1177 C 0.68805 0.35269 0.54938 0.0
C1178 C 0.28588 0.11291 0.56449 0.0
C1179 C 0.29489 0.08567 0.58332 0.0
C1180 C 0.30898 0.13623 0.55502 0.0
C1181 C 0.34184 0.13336 0.56449 0.0
H1182 H 0.26053 0.11709 0.55827 0.0
H1183 H 0.30053 0.15778 0.54224 0.0
S1184 S 0.3789 0.06394 0.60917 0.0
N1185 N 0.33966 0.05495 0.60735 0.0
N1186 N 0.38301 0.09916 0.59006 0.0
C1187 C 0.35162 0.10496 0.58107 0.0
C1188 C 0.32815 0.08097 0.59033 0.0
C1189 C 0.78749 0.37393 0.4239 0.0
C1190 C 0.79635 0.40097 0.40472 0.0
C1191 C 0.81092 0.35143 0.43458 0.0
C1192 C 0.844 0.35493 0.42603 0.0
H1193 H 0.7621 0.36933 0.42964 0.0
H1194 H 0.80266 0.33004 0.44776 0.0
S1195 S 0.88054 0.42404 0.38045 0.0
N1196 N 0.84107 0.43208 0.38102 0.0
N1197 N 0.88496 0.38943 0.40057 0.0
C1198 C 0.85349 0.38307 0.40887 0.0
C1199 C 0.82969 0.40621 0.39837 0.0
C1200 C 0.55929 0.80916 0.84539 0.0
C1201 C 0.56373 0.84294 0.84932 0.0
C1202 C 0.57258 0.78698 0.8678 0.0
C1203 C 0.59032 0.79784 0.89515 0.0
H1204 H 0.54748 0.79967 0.8237 0.0
H1205 H 0.56993 0.76114 0.86295 0.0
S1206 S 0.60422 0.88412 0.91896 0.0
N1207 N 0.58394 0.88636 0.88422 0.0
N1208 N 0.6083 0.84482 0.92676 0.0
C1209 C 0.59261 0.83164 0.90068 0.0
C1210 C 0.57947 0.85416 0.87763 0.0
C1211 C 0.43406 0.6873 0.84943 0.0
C1212 C 0.43058 0.6537 0.85542 0.0
C1213 C 0.42113 0.71041 0.87105 0.0
C1214 C 0.40467 0.70072 0.89959 0.0
H1215 H 0.44473 0.69582 0.82678 0.0
H1216 H 0.42291 0.73598 0.86462 0.0
S1217 S 0.39441 0.61567 0.92905 0.0
N1218 N 0.4132 0.6119 0.89362 0.0
N1219 N 0.38945 0.65524 0.93468 0.0
C1220 C 0.40357 0.66725 0.90718 0.0
C1221 C 0.41639 0.64375 0.88496 0.0
C1222 C 0.56111 0.18488 0.63785 0.0
C1223 C 0.56581 0.151 0.63512 0.0
C1224 C 0.57342 0.20628 0.61418 0.0
C1225 C 0.59042 0.19453 0.58675 0.0
H1226 H 0.54979 0.19511 0.65944 0.0
H1227 H 0.57067 0.23227 0.61811 0.0
S1228 S 0.60403 0.1075 0.56564 0.0
N1229 N 0.58511 0.10643 0.60119 0.0
N1230 N 0.60757 0.14651 0.55626 0.0
C1231 C 0.5928 0.16055 0.58242 0.0
C1232 C 0.5807 0.13882 0.60676 0.0
C1233 C 0.40566 0.34855 0.61128 0.0
C1234 C 0.42557 0.33955 0.63777 0.0
C1235 C 0.39621 0.32572 0.58768 0.0
C1236 C 0.40576 0.29287 0.59001 0.0
H1237 H 0.3963 0.37319 0.60936 0.0
H1238 H 0.37986 0.33358 0.56845 0.0
S1239 S 0.46136 0.2575 0.65205 0.0
N1240 N 0.45742 0.2961 0.66288 0.0
N1241 N 0.43898 0.25311 0.61883 0.0
C1242 C 0.42723 0.28389 0.61519 0.0
C1243 C 0.43737 0.30728 0.63895 0.0
C1244 C 0.87289 0.5691 0.78247 0.0
C1245 C 0.90135 0.58452 0.79399 0.0
C1246 C 0.84949 0.55673 0.80417 0.0
C1247 C 0.85358 0.55987 0.83808 0.0
H1248 H 0.86793 0.5678 0.75654 0.0
H1249 H 0.82701 0.54692 0.79428 0.0
S1250 S 0.92586 0.59351 0.88076 0.0
N1251 N 0.93412 0.59831 0.84163 0.0
N1252 N 0.88966 0.57587 0.88224 0.0
C1253 C 0.88294 0.57298 0.84989 0.0
C1254 C 0.90699 0.58509 0.82787 0.0
C1255 C 0.14167 0.93769 0.81052 0.0
C1256 C 0.13869 0.93324 0.84441 0.0
C1257 C 0.11889 0.92407 0.78897 0.0
C1258 C 0.09208 0.90603 0.80059 0.0
H1259 H 0.16301 0.94962 0.80042 0.0
H1260 H 0.12312 0.92655 0.76299 0.0
S1261 S 0.07053 0.89227 0.88747 0.0
N1262 N 0.10512 0.9129 0.88879 0.0
N1263 N 0.06175 0.888 0.84838 0.0
C1264 C 0.08732 0.90394 0.83452 0.0
C1265 C 0.1108 0.91737 0.85642 0.0
C1266 C 0.87218 0.42088 0.70508 0.0
C1267 C 0.90083 0.40496 0.69485 0.0
C1268 C 0.84979 0.4332 0.68235 0.0
C1269 C 0.85518 0.42966 0.64865 0.0
H1270 H 0.86622 0.42256 0.73077 0.0
H1271 H 0.82706 0.44336 0.69127 0.0
S1272 S 0.9288 0.39502 0.60923 0.0
N1273 N 0.93533 0.39034 0.6487 0.0
N1274 N 0.89291 0.41304 0.60613 0.0
C1275 C 0.88485 0.41617 0.63815 0.0
C1276 C 0.9078 0.40393 0.66123 0.0
C1277 C 0.10782 0.0682 0.69788 0.0
C1278 C 0.08946 0.09684 0.69433 0.0
C1279 C 0.13079 0.05907 0.67419 0.0
C1280 C 0.13659 0.0787 0.6465 0.0
H1281 H 0.10465 0.05296 0.71924 0.0
H1282 H 0.14491 0.03713 0.67831 0.0
S1283 S 0.09421 0.15653 0.62668 0.0
N1284 N 0.0778 0.14459 0.66144 0.0
N1285 N 0.12107 0.12812 0.61707 0.0
C1286 C 0.1176 0.10717 0.64256 0.0
C1287 C 0.09401 0.11608 0.66647 0.0
C1288 C 0.78517 0.88238 0.57551 0.0
C1289 C 0.79483 0.91023 0.59316 0.0
C1290 C 0.80829 0.86043 0.56306 0.0
C1291 C 0.84186 0.86537 0.56823 0.0
H1292 H 0.75954 0.8767 0.57243 0.0
H1293 H 0.79968 0.83828 0.55146 0.0
S1294 S 0.88012 0.93704 0.60798 0.0
N1295 N 0.84052 0.94366 0.61125 0.0
N1296 N 0.88381 0.90197 0.58849 0.0
C1297 C 0.85191 0.8943 0.58361 0.0
C1298 C 0.82843 0.91686 0.59591 0.0
C1299 C 0.8147 0.08733 0.90675 0.0
C1300 C 0.78118 0.09192 0.91251 0.0
C1301 C 0.83763 0.11067 0.91651 0.0
C1302 C 0.82803 0.13922 0.93294 0.0
H1303 H 0.82323 0.06651 0.89291 0.0
H1304 H 0.86293 0.10705 0.90974 0.0
S1305 S 0.74377 0.16021 0.95868 0.0
N1306 N 0.73987 0.12525 0.93904 0.0
N1307 N 0.78311 0.16895 0.95792 0.0
C1308 C 0.79493 0.14273 0.94143 0.0
C1309 C 0.77145 0.11914 0.93101 0.0
C1310 C 0.14228 0.38176 0.90511 0.0
C1311 C 0.15158 0.35585 0.92563 0.0
C1312 C 0.16472 0.40565 0.8955 0.0
C1313 C 0.19749 0.40416 0.9055 0.0
H1314 H 0.11776 0.38287 0.89526 0.0
H1315 H 0.15672 0.4243 0.87858 0.0
S1316 S 0.23332 0.34412 0.96299 0.0
N1317 N 0.19501 0.33239 0.95871 0.0
N1318 N 0.23735 0.37694 0.93997 0.0
C1319 C 0.20667 0.37969 0.9277 0.0
C1320 C 0.18364 0.35566 0.93802 0.0
C1321 C 0.6489 0.11346 0.08293 0.0
C1322 C 0.65844 0.14298 0.06834 0.0
C1323 C 0.67203 0.09045 0.09295 0.0
C1324 C 0.70568 0.09633 0.08938 0.0
H1325 H 0.62336 0.10864 0.08783 0.0
H1326 H 0.66339 0.06862 0.10508 0.0
S1327 S 0.74331 0.16839 0.04948 0.0
N1328 N 0.70369 0.17561 0.04805 0.0
N1329 N 0.74729 0.13255 0.06742 0.0
C1330 C 0.71553 0.12483 0.07297 0.0
C1331 C 0.69186 0.14811 0.06229 0.0
C1332 C 0.39947 0.16761 0.0849 0.0
C1333 C 0.40305 0.20122 0.09098 0.0
C1334 C 0.41 0.14434 0.1076 0.0
C1335 C 0.42511 0.15376 0.13691 0.0
H1336 H 0.38704 0.15912 0.06318 0.0
H1337 H 0.40522 0.11881 0.10267 0.0
S1338 S 0.443 0.23854 0.16318 0.0
N1339 N 0.42477 0.24266 0.12751 0.0
N1340 N 0.44509 0.19889 0.16987 0.0
C1341 C 0.43079 0.18717 0.14233 0.0
C1342 C 0.4196 0.21093 0.11944 0.0
C1343 C 0.57372 0.3497 0.11551 0.0
C1344 C 0.55629 0.33816 0.14275 0.0
C1345 C 0.58441 0.32839 0.09102 0.0
C1346 C 0.5787 0.29464 0.09325 0.0
H1347 H 0.58053 0.3752 0.11386 0.0
H1348 H 0.59906 0.33824 0.07135 0.0
S1349 S 0.53038 0.2526 0.15713 0.0
N1350 N 0.5305 0.29126 0.16844 0.0
N1351 N 0.55127 0.25115 0.12274 0.0
C1352 C 0.55928 0.28309 0.11904 0.0
C1353 C 0.54785 0.3049 0.1437 0.0
C1354 C 0.43869 0.80318 0.35053 0.0
C1355 C 0.43614 0.8371 0.355 0.0
C1356 C 0.42693 0.78144 0.3742 0.0
C1357 C 0.41259 0.79292 0.40323 0.0
H1358 H 0.44748 0.79336 0.3276 0.0
H1359 H 0.4276 0.75556 0.36892 0.0
S1360 S 0.40651 0.87954 0.42911 0.0
N1361 N 0.42264 0.88112 0.39223 0.0
N1362 N 0.40116 0.84043 0.43707 0.0
C1363 C 0.41293 0.82674 0.40926 0.0
C1364 C 0.42453 0.84881 0.385 0.0
C1365 C 0.59706 0.67018 0.40533 0.0
C1366 C 0.5911 0.70363 0.40056 0.0
C1367 C 0.58619 0.64691 0.38282 0.0
C1368 C 0.56836 0.65608 0.35498 0.0
H1369 H 0.61167 0.66192 0.42576 0.0
H1370 H 0.59286 0.62162 0.38666 0.0
S1371 S 0.5424 0.74014 0.33346 0.0
N1372 N 0.56356 0.74451 0.36748 0.0
N1373 N 0.54258 0.70066 0.32544 0.0
C1374 C 0.56013 0.6892 0.35113 0.0
C1375 C 0.5717 0.71302 0.37383 0.0
C1376 C 0.11184 0.41307 0.14901 0.0
C1377 C 0.14077 0.42812 0.15963 0.0
C1378 C 0.08795 0.40305 0.1713 0.0
C1379 C 0.09248 0.407 0.20511 0.0
H1380 H 0.10817 0.40788 0.12335 0.0
H1381 H 0.0666 0.39055 0.16198 0.0
S1382 S 0.16286 0.44745 0.24529 0.0
N1383 N 0.17153 0.44881 0.20599 0.0
N1384 N 0.12697 0.42937 0.24795 0.0
C1385 C 0.12048 0.42365 0.21594 0.0
C1386 C 0.14455 0.43438 0.19317 0.0
C1387 C 0.8602 0.0595 0.18606 0.0
C1388 C 0.8641 0.06549 0.15247 0.0
C1389 C 0.88392 0.0695 0.2086 0.0
C1390 C 0.91256 0.08542 0.19831 0.0
H1391 H 0.83768 0.04914 0.19527 0.0
H1392 H 0.87905 0.06606 0.23435 0.0
S1393 S 0.93696 0.1011 0.11243 0.0
N1394 N 0.9004 0.08439 0.10964 0.0
N1395 N 0.94541 0.10249 0.1518 0.0
C1396 C 0.91804 0.08877 0.16454 0.0
C1397 C 0.89366 0.07903 0.14167 0.0
C1398 C 0.08421 0.59149 0.33216 0.0
C1399 C 0.08748 0.58524 0.29861 0.0
C1400 C 0.10778 0.58068 0.35442 0.0
C1401 C 0.13512 0.56271 0.344 0.0
H1402 H 0.06446 0.60659 0.34113 0.0
H1403 H 0.10536 0.58784 0.37975 0.0
S1404 S 0.15181 0.5351 0.25937 0.0
N1405 N 0.11787 0.55655 0.25652 0.0
N1406 N 0.16188 0.53571 0.29836 0.0
C1407 C 0.13702 0.55372 0.31092 0.0
C1408 C 0.11328 0.56519 0.28819 0.0
C1409 C 0.88843 0.91379 0.35324 0.0
C1410 C 0.86183 0.93288 0.34291 0.0
C1411 C 0.91261 0.90384 0.33127 0.0
C1412 C 0.91069 0.91203 0.29803 0.0
H1413 H 0.88977 0.90513 0.37818 0.0
H1414 H 0.9317 0.8878 0.34005 0.0
S1415 S 0.8491 0.96609 0.25958 0.0
N1416 N 0.83746 0.96327 0.29804 0.0
N1417 N 0.88262 0.94392 0.25663 0.0
C1418 C 0.88574 0.93325 0.28786 0.0
C1419 C 0.86138 0.94389 0.31037 0.0
C1420 C 0.18857 0.13763 0.43239 0.0
C1421 C 0.15466 0.13354 0.42893 0.0
C1422 C 0.21039 0.11394 0.42078 0.0
C1423 C 0.19898 0.08528 0.40566 0.0
H1424 H 0.19838 0.16024 0.44198 0.0
H1425 H 0.23632 0.11887 0.42229 0.0
S1426 S 0.1122 0.06064 0.39643 0.0
N1427 N 0.11062 0.09714 0.41336 0.0
N1428 N 0.15137 0.05236 0.392 0.0
C1429 C 0.16507 0.07973 0.40477 0.0
C1430 C 0.14296 0.10397 0.41627 0.0
C1431 C 0.1714 0.91409 0.0934 0.0
C1432 C 0.20367 0.91206 0.08193 0.0
C1433 C 0.14868 0.88952 0.08649 0.0
C1434 C 0.15719 0.86238 0.06726 0.0
H1435 H 0.16417 0.93364 0.10965 0.0
H1436 H 0.12472 0.89106 0.09755 0.0
S1437 S 0.23702 0.84894 0.02641 0.0
N1438 N 0.24194 0.88313 0.04716 0.0
N1439 N 0.19907 0.83727 0.03334 0.0
C1440 C 0.18854 0.8617 0.05312 0.0
C1441 C 0.21186 0.88645 0.06072 0.0
C1442 C 0.80034 0.63458 0.06492 0.0
C1443 C 0.83395 0.63079 0.07065 0.0
C1444 C 0.77816 0.60997 0.07355 0.0
C1445 C 0.78893 0.5806 0.08774 0.0
H1446 H 0.79086 0.65757 0.05595 0.0
H1447 H 0.75233 0.61465 0.07049 0.0
S1448 S 0.87519 0.55668 0.10191 0.0
N1449 N 0.87737 0.59421 0.08744 0.0
N1450 N 0.83596 0.54751 0.10276 0.0
C1451 C 0.82277 0.57543 0.09069 0.0
C1452 C 0.84523 0.60069 0.08243 0.0
C1453 C 0.28874 0.88597 0.91863 0.0
C1454 C 0.29899 0.91242 0.89931 0.0
C1455 C 0.31065 0.86155 0.92814 0.0
C1456 C 0.34351 0.86251 0.91826 0.0
H1457 H 0.2633 0.88331 0.92531 0.0
H1458 H 0.30123 0.8407 0.9414 0.0
S1459 S 0.38376 0.92909 0.87204 0.0
N1460 N 0.3451 0.94024 0.87422 0.0
N1461 N 0.38615 0.89397 0.89161 0.0
C1462 C 0.35459 0.89003 0.90106 0.0
C1463 C 0.33237 0.91512 0.89173 0.0
C1464 C 0.99392 0.52494 0.26798 0.0
C1465 C -0.00181 0.52892 0.23417 0.0
C1466 C 0.99488 0.49374 0.28195 0.0
C1467 C -0.00111 0.46594 0.26228 0.0
H1468 H 0.99571 0.54585 0.28408 0.0
H1469 H -0.00275 0.49176 0.30821 0.0
S1470 S -0.00072 0.4635 0.17205 0.0
N1471 N -0.00184 0.50275 0.18114 0.0
N1472 N -0.00188 0.44398 0.20728 0.0
C1473 C 0.99596 0.4695 0.22834 0.0
C1474 C 0.99599 0.50124 0.21418 0.0
C1475 C 0.00723 0.99258 0.21402 0.0
C1476 C 0.00413 0.96489 0.23402 0.0
C1477 C 0.00817 0.0239 0.22775 0.0
C1478 C 0.00495 0.02801 0.26165 0.0
H1479 H 0.00375 0.9904 0.1879 0.0
H1480 H 0.00532 0.04464 0.21159 0.0
S1481 S 0.00802 0.96309 0.32418 0.0
N1482 N 0.00803 0.94333 0.28905 0.0
N1483 N 0.0079 0.00229 0.3148 0.0
C1484 C 0.00867 0.00056 0.2817 0.0
C1485 C 0.00874 0.96873 0.26776 0.0
C1486 C 0.25909 0.98973 0.5196 0.0
C1487 C 0.22575 -0.00282 0.52274 0.0
C1488 C 0.27334 0.98722 0.48861 0.0
C1489 C 0.25435 0.99141 0.46035 0.0
H1490 H 0.2751 0.99156 0.54058 0.0
H1491 H 0.29973 0.98744 0.48688 0.0
S1492 S 0.16441 -0.00191 0.45662 0.0
N1493 N 0.17307 -0.00067 0.49596 0.0
N1494 N 0.19962 0.99286 0.4377 0.0
C1495 C 0.22024 0.99105 0.46362 0.0
C1496 C 0.20587 0.99461 0.49505 0.0
C1497 C 0.77479 0.5036 0.49679 0.0
C1498 C 0.75568 0.49922 0.52494 0.0
C1499 C 0.76071 0.5008 0.46574 0.0
C1500 C 0.72747 0.49296 0.46253 0.0
H1501 H 0.80117 0.50351 0.49866 0.0
H1502 H 0.77684 0.49889 0.44487 0.0
S1503 S 0.66581 0.49197 0.52835 0.0
N1504 N 0.7009 0.49764 0.54737 0.0
N1505 N 0.67465 0.4907 0.48904 0.0
C1506 C 0.7074 0.49578 0.49007 0.0
C1507 C 0.7216 0.49959 0.52154 0.0
C1508 C 0.2781 0.00667 0.96435 0.0
C1509 C 0.24397 0.00674 0.96084 0.0
C1510 C 0.29222 0.00465 0.99544 0.0
C1511 C 0.27249 0.00383 0.02349 0.0
H1512 H 0.29351 0.00198 0.94336 0.0
H1513 H 0.31792 -0.00132 -0.00279 0.0
S1514 S 0.18322 0.01685 0.0267 0.0
N1515 N 0.19187 0.01538 0.98736 0.0
N1516 N 0.21849 0.01345 0.04592 0.0
C1517 C 0.23932 0.01173 0.02017 0.0
C1518 C 0.2249 0.01281 0.98855 0.0
C1519 C 0.70788 0.48929 -0.00259 0.0
C1520 C 0.7277 0.49156 0.0253 0.0
C1521 C 0.72178 0.48948 0.96616 0.0
C1522 C 0.75569 0.49301 0.96231 0.0
H1523 H 0.68169 0.49221 -0.00043 0.0
H1524 H 0.70571 0.49255 0.94538 0.0
S1525 S 0.81793 0.48979 0.02756 0.0
N1526 N 0.7827 0.48848 0.04709 0.0
N1527 N 0.80876 0.49073 0.98831 0.0
C1528 C 0.77567 0.48924 0.98981 0.0
C1529 C 0.76156 0.488 0.02153 0.0
C1530 C 0.46659 0.22332 -0.00304 0.0
C1531 C 0.4626 0.25737 -0.00269 0.0
C1532 C 0.49787 0.20961 -0.00127 0.0
C1533 C 0.52566 0.22971 -0.00019 0.0
H1534 H 0.44581 0.20754 0.00132 0.0
H1535 H 0.50001 0.18383 0.00417 0.0
S1536 S 0.52763 0.31926 0.98853 0.0
N1537 N 0.48841 0.31001 0.98979 0.0
N1538 N 0.54733 0.28422 0.99131 0.0
C1539 C 0.52188 0.263 0.99263 0.0
C1540 C 0.49007 0.27697 0.99178 0.0
C1541 C 0.52805 0.72919 0.49464 0.0
C1542 C 0.53126 0.76317 0.49133 0.0
C1543 C 0.49707 0.71466 0.49486 0.0
C1544 C 0.46874 0.73389 0.49272 0.0
H1545 H 0.54915 0.71356 0.49146 0.0
H1546 H 0.49544 0.68845 0.49184 0.0
S1547 S 0.46479 0.82405 0.49508 0.0
N1548 N 0.50421 0.81567 0.49397 0.0
N1549 N 0.44593 0.78845 0.49614 0.0
C1550 C 0.47188 0.76781 0.4964 0.0
C1551 C 0.50335 0.78256 0.4952 0.0
C1552 C 0.02869 0.7668 0.50027 0.0
C1553 C 0.03072 0.73266 0.50296 0.0
C1554 C -0.00171 0.7825 0.50115 0.0
C1555 C 0.96928 0.76436 0.50362 0.0
H1556 H 0.05047 0.78159 0.50288 0.0
H1557 H -0.00226 0.80873 0.50439 0.0
S1558 S 0.96177 0.67442 0.50112 0.0
N1559 N 0.00151 0.68127 0.501 0.0
N1560 N 0.94431 0.71073 0.5008 0.0
C1561 C 0.97103 0.73035 0.49985 0.0
C1562 C 0.00193 0.7144 0.5 0.0
C1563 C 0.99195 0.49052 0.7741 0.0
C1564 C 0.98738 0.46317 0.75398 0.0
C1565 C 0.99203 0.52201 0.76079 0.0
C1566 C 0.98644 0.52666 0.72726 0.0
H1567 H 0.99065 0.48793 0.80038 0.0
H1568 H 0.9909 0.54256 0.7774 0.0
S1569 S 0.9828 0.46265 0.66383 0.0
N1570 N 0.98577 0.44239 0.69854 0.0
N1571 N 0.98398 0.5017 0.67371 0.0
C1572 C 0.98766 0.49948 0.70659 0.0
C1573 C 0.98868 0.46748 0.72002 0.0
C1574 C -2e-05 -0.00085 0.77688 0.0
C1575 C 0.00432 0.02574 0.75572 0.0
C1576 C 0.00024 0.96717 0.76479 0.0
C1577 C 0.00602 0.96129 0.73149 0.0
H1578 H 0.00118 0.00277 0.80304 0.0
H1579 H 0.00163 0.94729 0.78218 0.0
S1580 S 0.00926 0.02289 0.66569 0.0
N1581 N 0.00599 0.04443 0.69959 0.0
N1582 N 0.0083 0.98422 0.67703 0.0
C1583 C 0.00444 0.98765 0.70978 0.0
C1584 C 0.00315 0.02013 0.72198 0.0
C1585 C 0.73318 0.00286 0.47355 0.0
C1586 C 0.76684 -0.00258 0.46972 0.0
C1587 C 0.71903 0.00223 0.50468 0.0
C1588 C 0.73842 -0.00271 0.53251 0.0
H1589 H 0.71714 0.00188 0.45253 0.0
H1590 H 0.69269 0.00076 0.50653 0.0
S1591 S 0.82853 0.99313 0.53544 0.0
N1592 N 0.81972 0.99497 0.49614 0.0
N1593 N 0.79326 0.9956 0.55478 0.0
C1594 C 0.77246 -0.00113 0.52915 0.0
C1595 C 0.78677 -0.00151 0.4975 0.0
C1596 C 0.26492 0.48748 0.47032 0.0
C1597 C 0.23123 0.49363 0.46832 0.0
C1598 C 0.28037 0.48595 0.50079 0.0
C1599 C 0.26225 0.48977 0.52966 0.0
H1600 H 0.28009 0.48957 0.44875 0.0
H1601 H 0.30678 0.48714 0.50156 0.0
S1602 S 0.17233 0.49331 0.53665 0.0
N1603 N 0.17949 0.49422 0.49699 0.0
N1604 N 0.20837 0.48957 0.55429 0.0
C1605 C 0.22809 0.4881 0.52767 0.0
C1606 C 0.21246 0.49067 0.49675 0.0
C1607 C 0.75683 -0.00362 0.97196 0.0
C1608 C 0.72282 0.00089 0.97103 0.0
C1609 C 0.77361 -0.00267 0.00177 0.0
C1610 C 0.75663 0.00165 0.03125 0.0
H1611 H 0.77098 -0.00217 0.94966 0.0
H1612 H 0.79997 -0.0006 0.00133 0.0
S1613 S 0.66697 0.00313 0.04189 0.0
N1614 N 0.67241 0.00167 0.00198 0.0
N1615 N 0.70384 0.00168 0.05812 0.0
C1616 C 0.72245 -0.00085 0.0308 0.0
C1617 C 0.70544 -0.00083 0.00047 0.0
C1618 C 0.22753 0.49832 0.97184 0.0
C1619 C 0.26123 0.494 0.96708 0.0
C1620 C 0.21446 0.49881 0.00346 0.0
C1621 C 0.23492 0.49589 0.03084 0.0
H1622 H 0.21085 0.49574 0.95147 0.0
H1623 H 0.18827 0.49649 0.00628 0.0
S1624 S 0.32519 0.4952 0.03072 0.0
N1625 N 0.31499 0.49472 0.99172 0.0
N1626 N 0.29053 0.49737 0.05116 0.0
C1627 C 0.26875 0.49857 0.02617 0.0
C1628 C 0.282 0.49709 0.99408 0.0
C1629 C 0.49291 0.78146 0.98632 0.0
C1630 C 0.46553 0.76108 0.98305 0.0
C1631 C 0.52449 0.76835 0.98571 0.0
C1632 C 0.52919 0.73473 0.9809 0.0
H1633 H 0.49012 0.80768 0.98442 0.0
H1634 H 0.54492 0.78502 0.98348 0.0
S1635 S 0.46543 0.67089 0.98051 0.0
N1636 N 0.44505 0.70554 0.98329 0.0
N1637 N 0.50446 0.68102 0.98041 0.0
C1638 C 0.50216 0.71395 0.98344 0.0
C1639 C 0.4701 0.72722 0.98505 0.0
C1640 C 0.47199 0.26044 0.49377 0.0
C1641 C 0.46725 0.22691 0.49916 0.0
C1642 C 0.50359 0.2735 0.49324 0.0
C1643 C 0.53088 0.25312 0.49706 0.0
H1644 H 0.4516 0.27717 0.4957 0.0
H1645 H 0.5064 0.29974 0.49485 0.0
S1646 S 0.53086 0.16296 0.50013 0.0
N1647 N 0.49185 0.17313 0.49998 0.0
N1648 N 0.55132 0.19756 0.49721 0.0
C1649 C 0.52631 0.21925 0.49518 0.0
C1650 C 0.49423 0.20604 0.49673 0.0
C1651 C 0.99605 0.27698 0.5016 0.0
C1652 C 0.9679 0.25774 0.49786 0.0
C1653 C 0.02697 0.26242 0.50281 0.0
C1654 C 0.03024 0.22849 0.49904 0.0
H1655 H 0.99458 0.3032 0.49857 0.0
H1656 H 0.04817 0.27809 0.50058 0.0
S1657 S 0.96365 0.16763 0.49975 0.0
N1658 N 0.94482 0.20325 0.50019 0.0
N1659 N 0.00309 0.17598 0.5005 0.0
C1660 C 0.00222 0.20908 0.50195 0.0
C1661 C 0.97077 0.22385 0.50179 0.0
C1662 C 0.4848 0.02522 0.76197 0.0
C1663 C 0.48879 0.03016 0.72826 0.0
C1664 C 0.48567 0.99359 0.77496 0.0
C1665 C 0.48931 0.96644 0.75434 0.0
H1666 H 0.48727 0.04559 0.77867 0.0
H1667 H 0.48868 0.9908 0.80108 0.0
S1668 S 0.48737 0.96674 0.66414 0.0
N1669 N 0.487 0.00571 0.67445 0.0
N1670 N 0.48677 0.94614 0.69878 0.0
C1671 C 0.48538 0.97104 0.72064 0.0
C1672 C 0.48551 0.00319 0.70748 0.0
C1673 C 0.50767 0.50105 0.77539 0.0
C1674 C 0.50302 0.52938 0.75663 0.0
C1675 C 0.50499 0.47014 0.76101 0.0
C1676 C 0.49705 0.46716 0.72777 0.0
H1677 H 0.50783 0.50265 0.80179 0.0
H1678 H 0.50357 0.44907 0.77693 0.0
S1679 S 0.49481 0.53366 0.66687 0.0
N1680 N 0.50068 0.55234 0.7021 0.0
N1681 N 0.49387 0.49425 0.67529 0.0
C1682 C 0.49918 0.49497 0.70801 0.0
C1683 C 0.50295 0.52631 0.72251 0.0
C1684 C 0.01934 0.2271 0.9955 0.0
C1685 C 0.02393 0.26084 0.9914 0.0
C1686 C 0.98781 0.21383 0.99574 0.0
C1687 C 0.96032 0.23412 0.99292 0.0
H1688 H 0.03984 0.21058 0.99303 0.0
H1689 H 0.98514 0.18763 0.99344 0.0
S1690 S 0.9599 0.32438 0.99223 0.0
N1691 N -0.00104 0.31443 0.99195 0.0
N1692 N 0.93964 0.28959 0.99425 0.0
C1693 C 0.96476 0.26798 0.99553 0.0
C1694 C -0.00322 0.28143 0.99425 0.0
C1695 C 0.50426 0.01955 0.25699 0.0
C1696 C 0.49813 0.02292 0.2234 0.0
C1697 C 0.50472 0.98854 0.27141 0.0
C1698 C 0.50017 0.96041 0.25233 0.0
H1699 H 0.50284 0.04063 0.27289 0.0
H1700 H 0.5036 0.98691 0.29777 0.0
S1701 S 0.4958 0.95658 0.16228 0.0
N1702 N 0.4964 0.99598 0.17075 0.0
N1703 N 0.49905 0.93763 0.19769 0.0
C1704 C 0.50159 0.96351 0.21826 0.0
C1705 C 0.50011 0.99502 0.20369 0.0
C1706 C 0.48522 0.48793 0.2258 0.0
C1707 C 0.49028 0.46046 0.24569 0.0
C1708 C 0.48698 0.51947 0.23894 0.0
C1709 C 0.49476 0.52405 0.27204 0.0
H1710 H 0.48499 0.48525 0.19949 0.0
H1711 H 0.48789 0.53991 0.22218 0.0
S1712 S 0.49966 0.46004 0.33544 0.0
N1713 N 0.49413 0.4398 0.30102 0.0
N1714 N 0.49911 0.49909 0.32549 0.0
C1715 C 0.49354 0.49694 0.29287 0.0
C1716 C 0.49077 0.46492 0.27964 0.0
C1717 C -0.00026 0.77677 0.01392 0.0
C1718 C 0.02783 0.7574 0.0171 0.0
C1719 C 0.9686 0.76258 0.01436 0.0
C1720 C 0.96488 0.72881 0.01908 0.0
H1721 H 0.00167 0.80311 0.01518 0.0
H1722 H 0.94756 0.77854 0.01592 0.0
S1723 S 0.03082 0.66729 0.022 0.0
N1724 N 0.05007 0.70255 0.01874 0.0
N1725 N 0.99148 0.67606 0.02142 0.0
C1726 C 0.99271 0.70899 0.01783 0.0
C1727 C 0.02434 0.72333 0.01634 0.0
loop_
_geom_bond_atom_site_label_1
_geom_bond_atom_site_label_2
_geom_bond_distance
_geom_bond_site_symmetry_2
_ccdc_geom_bond_type
Co0 O1 2.216 . S
Co0 O2 2.091 . S
Co0 O4 2.004 . S
Co0 O10 2.021 . S
Co0 O12 2.137 . S
Co0 O13 2.244 . S
O1 Co0 2.216 . S
O1 C8 1.247 . S
O2 Co0 2.091 . S
O2 C8 1.261 . S
C3 O12 1.247 . S
C3 O13 1.272 . S
O4 Co0 2.004 . S
O4 C9 1.259 . S
Co5 O6 2.061 . S
Co5 O11 2.052 . S
Co5 O13 2.135 . S
O6 Co5 2.061 . S
O6 C9 1.235 . S
C7 O10 1.238 . S
C7 O11 1.241 . S
C8 O1 1.247 . S
C8 O2 1.261 . S
C9 O4 1.259 . S
C9 O6 1.235 . S
O10 Co0 2.021 . S
O10 C7 1.238 . S
O11 Co5 2.052 . S
O11 C7 1.241 . S
O12 Co0 2.137 . S
O12 C3 1.247 . S
O13 Co0 2.244 . S
O13 C3 1.272 . S
O13 Co5 2.135 . S
Co14 O15 2.216 . S
Co14 O16 2.091 . S
Co14 O18 2.004 . S
Co14 O24 2.021 . S
Co14 O26 2.137 . S
Co14 O27 2.244 . S
O15 Co14 2.216 . S
O15 C22 1.247 . S
O16 Co14 2.091 . S
O16 C22 1.261 . S
C17 O26 1.247 . S
C17 O27 1.272 . S
O18 Co14 2.004 . S
O18 C23 1.259 . S
Co19 O20 2.061 . S
Co19 O25 2.052 . S
Co19 O27 2.135 . S
O20 Co19 2.061 . S
O20 C23 1.235 . S
C21 O24 1.238 . S
C21 O25 1.241 . S
C22 O15 1.247 . S
C22 O16 1.261 . S
C23 O18 1.259 . S
C23 O20 1.235 . S
O24 Co14 2.021 . S
O24 C21 1.238 . S
O25 Co19 2.052 . S
O25 C21 1.241 . S
O26 Co14 2.137 . S
O26 C17 1.247 . S
O27 Co14 2.244 . S
O27 C17 1.272 . S
O27 Co19 2.135 . S
Co28 O29 2.216 . S
Co28 O30 2.091 . S
Co28 O32 2.004 . S
Co28 O38 2.021 . S
Co28 O40 2.137 . S
Co28 O41 2.244 . S
O29 Co28 2.216 . S
O29 C36 1.247 . S
O30 Co28 2.091 . S
O30 C36 1.261 . S
C31 O40 1.247 . S
C31 O41 1.272 . S
O32 Co28 2.004 . S
O32 C37 1.259 . S
Co33 O34 2.061 . S
Co33 O39 2.052 . S
Co33 O41 2.135 . S
O34 Co33 2.061 . S
O34 C37 1.235 . S
C35 O38 1.238 . S
C35 O39 1.241 . S
C36 O29 1.247 . S
C36 O30 1.261 . S
C37 O32 1.259 . S
C37 O34 1.235 . S
O38 Co28 2.021 . S
O38 C35 1.238 . S
O39 Co33 2.052 . S
O39 C35 1.241 . S
O40 Co28 2.137 . S
O40 C31 1.247 . S
O41 Co28 2.244 . S
O41 C31 1.272 . S
O41 Co33 2.135 . S
Co42 O43 2.216 . S
Co42 O44 2.091 . S
Co42 O46 2.004 . S
Co42 O52 2.021 . S
Co42 O54 2.137 . S
Co42 O55 2.244 . S
O43 Co42 2.216 . S
O43 C50 1.247 . S
O44 Co42 2.091 . S
O44 C50 1.261 . S
C45 O54 1.247 . S
C45 O55 1.272 . S
O46 Co42 2.004 . S
O46 C51 1.259 . S
Co47 O48 2.061 . S
Co47 O53 2.052 . S
Co47 O55 2.135 . S
O48 Co47 2.061 . S
O48 C51 1.235 . S
C49 O52 1.238 . S
C49 O53 1.241 . S
C50 O43 1.247 . S
C50 O44 1.261 . S
C51 O46 1.259 . S
C51 O48 1.235 . S
O52 Co42 2.021 . S
O52 C49 1.238 . S
O53 Co47 2.052 . S
O53 C49 1.241 . S
O54 Co42 2.137 . S
O54 C45 1.247 . S
O55 Co42 2.244 . S
O55 C45 1.272 . S
O55 Co47 2.135 . S
Co56 O57 2.216 . S
Co56 O58 2.091 . S
Co56 O60 2.004 . S
Co56 O66 2.021 . S
Co56 O68 2.137 . S
Co56 O69 2.244 . S
O57 Co56 2.216 . S
O57 C64 1.247 . S
O58 Co56 2.091 . S
O58 C64 1.261 . S
C59 O68 1.247 . S
C59 O69 1.272 . S
O60 Co56 2.004 . S
O60 C65 1.259 . S
Co61 O62 2.061 . S
Co61 O67 2.052 . S
Co61 O69 2.135 . S
O62 Co61 2.061 . S
O62 C65 1.235 . S
C63 O66 1.238 . S
C63 O67 1.241 . S
C64 O57 1.247 . S
C64 O58 1.261 . S
C65 O60 1.259 . S
C65 O62 1.235 . S
O66 Co56 2.021 . S
O66 C63 1.238 . S
O67 Co61 2.052 . S
O67 C63 1.241 . S
O68 Co56 2.137 . S
O68 C59 1.247 . S
O69 Co56 2.244 . S
O69 C59 1.272 . S
O69 Co61 2.135 . S
Co70 O71 2.216 . S
Co70 O72 2.091 . S
Co70 O74 2.004 . S
Co70 O80 2.021 . S
Co70 O82 2.137 . S
Co70 O83 2.244 . S
O71 Co70 2.216 . S
O71 C78 1.247 . S
O72 Co70 2.091 . S
O72 C78 1.261 . S
C73 O82 1.247 . S
C73 O83 1.272 . S
O74 Co70 2.004 . S
O74 C79 1.259 . S
Co75 O76 2.061 . S
Co75 O81 2.052 . S
Co75 O83 2.135 . S
O76 Co75 2.061 . S
O76 C79 1.235 . S
C77 O80 1.238 . S
C77 O81 1.241 . S
C78 O71 1.247 . S
C78 O72 1.261 . S
C79 O74 1.259 . S
C79 O76 1.235 . S
O80 Co70 2.021 . S
O80 C77 1.238 . S
O81 Co75 2.052 . S
O81 C77 1.241 . S
O82 Co70 2.137 . S
O82 C73 1.247 . S
O83 Co70 2.244 . S
O83 C73 1.272 . S
O83 Co75 2.135 . S
Co84 O85 2.216 . S
Co84 O86 2.091 . S
Co84 O88 2.004 . S
Co84 O94 2.021 . S
Co84 O96 2.137 . S
Co84 O97 2.244 . S
O85 Co84 2.216 . S
O85 C92 1.247 . S
O86 Co84 2.091 . S
O86 C92 1.261 . S
C87 O96 1.247 . S
C87 O97 1.272 . S
O88 Co84 2.004 . S
O88 C93 1.259 . S
Co89 O90 2.061 . S
Co89 O95 2.052 . S
Co89 O97 2.135 . S
O90 Co89 2.061 . S
O90 C93 1.235 . S
C91 O94 1.238 . S
C91 O95 1.241 . S
C92 O85 1.247 . S
C92 O86 1.261 . S
C93 O88 1.259 . S
C93 O90 1.235 . S
O94 Co84 2.021 . S
O94 C91 1.238 . S
O95 Co89 2.052 . S
O95 C91 1.241 . S
O96 Co84 2.137 . S
O96 C87 1.247 . S
O97 Co84 2.244 . S
O97 C87 1.272 . S
O97 Co89 2.135 . S
Co98 O99 2.216 . S
Co98 O100 2.091 . S
Co98 O102 2.004 . S
Co98 O108 2.021 . S
Co98 O110 2.137 . S
Co98 O111 2.244 . S
O99 Co98 2.216 . S
O99 C106 1.247 . S
O100 Co98 2.091 . S
O100 C106 1.261 . S
C101 O110 1.247 . S
C101 O111 1.272 . S
O102 Co98 2.004 . S
O102 C107 1.259 . S
Co103 O104 2.061 . S
Co103 O109 2.052 . S
Co103 O111 2.135 . S
O104 Co103 2.061 . S
O104 C107 1.235 . S
C105 O108 1.238 . S
C105 O109 1.241 . S
C106 O99 1.247 . S
C106 O100 1.261 . S
C107 O102 1.259 . S
C107 O104 1.235 . S
O108 Co98 2.021 . S
O108 C105 1.238 . S
O109 Co103 2.052 . S
O109 C105 1.241 . S
O110 Co98 2.137 . S
O110 C101 1.247 . S
O111 Co98 2.244 . S
O111 C101 1.272 . S
O111 Co103 2.135 . S
Co112 O113 2.216 . S
Co112 O114 2.091 . S
Co112 O116 2.004 . S
Co112 O122 2.021 . S
Co112 O124 2.137 . S
Co112 O125 2.244 . S
O113 Co112 2.216 . S
O113 C120 1.247 . S
O114 Co112 2.091 . S
O114 C120 1.261 . S
C115 O124 1.247 . S
C115 O125 1.272 . S
O116 Co112 2.004 . S
O116 C121 1.259 . S
Co117 O118 2.061 . S
Co117 O123 2.052 . S
Co117 O125 2.135 . S
O118 Co117 2.061 . S
O118 C121 1.235 . S
C119 O122 1.238 . S
C119 O123 1.241 . S
C120 O113 1.247 . S
C120 O114 1.261 . S
C121 O116 1.259 . S
C121 O118 1.235 . S
O122 Co112 2.021 . S
O122 C119 1.238 . S
O123 Co117 2.052 . S
O123 C119 1.241 . S
O124 Co112 2.137 . S
O124 C115 1.247 . S
O125 Co112 2.244 . S
O125 C115 1.272 . S
O125 Co117 2.135 . S
Co126 O127 2.216 . S
Co126 O128 2.091 . S
Co126 O130 2.004 . S
Co126 O136 2.021 . S
Co126 O138 2.137 . S
Co126 O139 2.244 . S
O127 Co126 2.216 . S
O127 C134 1.247 . S
O128 Co126 2.091 . S
O128 C134 1.261 . S
C129 O138 1.247 . S
C129 O139 1.272 . S
O130 Co126 2.004 . S
O130 C135 1.259 . S
Co131 O132 2.061 . S
Co131 O137 2.052 . S
Co131 O139 2.135 . S
O132 Co131 2.061 . S
O132 C135 1.235 . S
C133 O136 1.238 . S
C133 O137 1.241 . S
C134 O127 1.247 . S
C134 O128 1.261 . S
C135 O130 1.259 . S
C135 O132 1.235 . S
O136 Co126 2.021 . S
O136 C133 1.238 . S
O137 Co131 2.052 . S
O137 C133 1.241 . S
O138 Co126 2.137 . S
O138 C129 1.247 . S
O139 Co126 2.244 . S
O139 C129 1.272 . S
O139 Co131 2.135 . S
Co140 O141 2.216 . S
Co140 O142 2.091 . S
Co140 O144 2.004 . S
Co140 O150 2.021 . S
Co140 O152 2.137 . S
Co140 O153 2.244 . S
O141 Co140 2.216 . S
O141 C148 1.247 . S
O142 Co140 2.091 . S
O142 C148 1.261 . S
C143 O152 1.247 . S
C143 O153 1.272 . S
O144 Co140 2.004 . S
O144 C149 1.259 . S
Co145 O146 2.061 . S
Co145 O151 2.052 . S
Co145 O153 2.135 . S
O146 Co145 2.061 . S
O146 C149 1.235 . S
C147 O150 1.238 . S
C147 O151 1.241 . S
C148 O141 1.247 . S
C148 O142 1.261 . S
C149 O144 1.259 . S
C149 O146 1.235 . S
O150 Co140 2.021 . S
O150 C147 1.238 . S
O151 Co145 2.052 . S
O151 C147 1.241 . S
O152 Co140 2.137 . S
O152 C143 1.247 . S
O153 Co140 2.244 . S
O153 C143 1.272 . S
O153 Co145 2.135 . S
Co154 O155 2.216 . S
Co154 O156 2.091 . S
Co154 O158 2.004 . S
Co154 O164 2.021 . S
Co154 O166 2.137 . S
Co154 O167 2.244 . S
O155 Co154 2.216 . S
O155 C162 1.247 . S
O156 Co154 2.091 . S
O156 C162 1.261 . S
C157 O166 1.247 . S
C157 O167 1.272 . S
O158 Co154 2.004 . S
O158 C163 1.259 . S
Co159 O160 2.061 . S
Co159 O165 2.052 . S
Co159 O167 2.135 . S
O160 Co159 2.061 . S
O160 C163 1.235 . S
C161 O164 1.238 . S
C161 O165 1.241 . S
C162 O155 1.247 . S
C162 O156 1.261 . S
C163 O158 1.259 . S
C163 O160 1.235 . S
O164 Co154 2.021 . S
O164 C161 1.238 . S
O165 Co159 2.052 . S
O165 C161 1.241 . S
O166 Co154 2.137 . S
O166 C157 1.247 . S
O167 Co154 2.244 . S
O167 C157 1.272 . S
O167 Co159 2.135 . S
Co168 O169 2.216 . S
Co168 O170 2.091 . S
Co168 O172 2.004 . S
Co168 O178 2.021 . S
Co168 O180 2.137 . S
Co168 O181 2.244 . S
O169 Co168 2.216 . S
O169 C176 1.247 . S
O170 Co168 2.091 . S
O170 C176 1.261 . S
C171 O180 1.247 . S
C171 O181 1.272 . S
O172 Co168 2.004 . S
O172 C177 1.259 . S
Co173 O174 2.061 . S
Co173 O179 2.052 . S
Co173 O181 2.135 . S
O174 Co173 2.061 . S
O174 C177 1.235 . S
C175 O178 1.238 . S
C175 O179 1.241 . S
C176 O169 1.247 . S
C176 O170 1.261 . S
C177 O172 1.259 . S
C177 O174 1.235 . S
O178 Co168 2.021 . S
O178 C175 1.238 . S
O179 Co173 2.052 . S
O179 C175 1.241 . S
O180 Co168 2.137 . S
O180 C171 1.247 . S
O181 Co168 2.244 . S
O181 C171 1.272 . S
O181 Co173 2.135 . S
Co182 O183 2.216 . S
Co182 O184 2.091 . S
Co182 O186 2.004 . S
Co182 O192 2.021 . S
Co182 O194 2.137 . S
Co182 O195 2.244 . S
O183 Co182 2.216 . S
O183 C190 1.247 . S
O184 Co182 2.091 . S
O184 C190 1.261 . S
C185 O194 1.247 . S
C185 O195 1.272 . S
O186 Co182 2.004 . S
O186 C191 1.259 . S
Co187 O188 2.061 . S
Co187 O193 2.052 . S
Co187 O195 2.135 . S
O188 Co187 2.061 . S
O188 C191 1.235 . S
C189 O192 1.238 . S
C189 O193 1.241 . S
C190 O183 1.247 . S
C190 O184 1.261 . S
C191 O186 1.259 . S
C191 O188 1.235 . S
O192 Co182 2.021 . S
O192 C189 1.238 . S
O193 Co187 2.052 . S
O193 C189 1.241 . S
O194 Co182 2.137 . S
O194 C185 1.247 . S
O195 Co182 2.244 . S
O195 C185 1.272 . S
O195 Co187 2.135 . S
Co196 O197 2.216 . S
Co196 O198 2.091 . S
Co196 O200 2.004 . S
Co196 O206 2.021 . S
Co196 O208 2.137 . S
Co196 O209 2.244 . S
O197 Co196 2.216 . S
O197 C204 1.247 . S
O198 Co196 2.091 . S
O198 C204 1.261 . S
C199 O208 1.247 . S
C199 O209 1.272 . S
O200 Co196 2.004 . S
O200 C205 1.259 . S
Co201 O202 2.061 . S
Co201 O207 2.052 . S
Co201 O209 2.135 . S
O202 Co201 2.061 . S
O202 C205 1.235 . S
C203 O206 1.238 . S
C203 O207 1.241 . S
C204 O197 1.247 . S
C204 O198 1.261 . S
C205 O200 1.259 . S
C205 O202 1.235 . S
O206 Co196 2.021 . S
O206 C203 1.238 . S
O207 Co201 2.052 . S
O207 C203 1.241 . S
O208 Co196 2.137 . S
O208 C199 1.247 . S
O209 Co196 2.244 . S
O209 C199 1.272 . S
O209 Co201 2.135 . S
Co210 O211 2.216 . S
Co210 O212 2.091 . S
Co210 O214 2.004 . S
Co210 O220 2.021 . S
Co210 O222 2.137 . S
Co210 O223 2.244 . S
O211 Co210 2.216 . S
O211 C218 1.247 . S
O212 Co210 2.091 . S
O212 C218 1.261 . S
C213 O222 1.247 . S
C213 O223 1.272 . S
O214 Co210 2.004 . S
O214 C219 1.259 . S
Co215 O216 2.061 . S
Co215 O221 2.052 . S
Co215 O223 2.135 . S
O216 Co215 2.061 . S
O216 C219 1.235 . S
C217 O220 1.238 . S
C217 O221 1.241 . S
C218 O211 1.247 . S
C218 O212 1.261 . S
C219 O214 1.259 . S
C219 O216 1.235 . S
O220 Co210 2.021 . S
O220 C217 1.238 . S
O221 Co215 2.052 . S
O221 C217 1.241 . S
O222 Co210 2.137 . S
O222 C213 1.247 . S
O223 Co210 2.244 . S
O223 C213 1.272 . S
O223 Co215 2.135 . S
Co224 O225 2.216 . S
Co224 O226 2.091 . S
Co224 O228 2.004 . S
Co224 O234 2.021 . S
Co224 O236 2.137 . S
Co224 O237 2.244 . S
O225 Co224 2.216 . S
O225 C232 1.247 . S
O226 Co224 2.091 . S
O226 C232 1.261 . S
C227 O236 1.247 . S
C227 O237 1.272 . S
O228 Co224 2.004 . S
O228 C233 1.259 . S
Co229 O230 2.061 . S
Co229 O235 2.052 . S
Co229 O237 2.135 . S
O230 Co229 2.061 . S
O230 C233 1.235 . S
C231 O234 1.238 . S
C231 O235 1.241 . S
C232 O225 1.247 . S
C232 O226 1.261 . S
C233 O228 1.259 . S
C233 O230 1.235 . S
O234 Co224 2.021 . S
O234 C231 1.238 . S
O235 Co229 2.052 . S
O235 C231 1.241 . S
O236 Co224 2.137 . S
O236 C227 1.247 . S
O237 Co224 2.244 . S
O237 C227 1.272 . S
O237 Co229 2.135 . S
Co238 O239 2.216 . S
Co238 O240 2.091 . S
Co238 O242 2.004 . S
Co238 O248 2.021 . S
Co238 O250 2.137 . S
Co238 O251 2.244 . S
O239 Co238 2.216 . S
O239 C246 1.247 . S
O240 Co238 2.091 . S
O240 C246 1.261 . S
C241 O250 1.247 . S
C241 O251 1.272 . S
O242 Co238 2.004 . S
O242 C247 1.259 . S
Co243 O244 2.061 . S
Co243 O249 2.052 . S
Co243 O251 2.135 . S
O244 Co243 2.061 . S
O244 C247 1.235 . S
C245 O248 1.238 . S
C245 O249 1.241 . S
C246 O239 1.247 . S
C246 O240 1.261 . S
C247 O242 1.259 . S
C247 O244 1.235 . S
O248 Co238 2.021 . S
O248 C245 1.238 . S
O249 Co243 2.052 . S
O249 C245 1.241 . S
O250 Co238 2.137 . S
O250 C241 1.247 . S
O251 Co238 2.244 . S
O251 C241 1.272 . S
O251 Co243 2.135 . S
Co252 O253 2.216 . S
Co252 O254 2.091 . S
Co252 O256 2.004 . S
Co252 O262 2.021 . S
Co252 O264 2.137 . S
Co252 O265 2.244 . S
O253 Co252 2.216 . S
O253 C260 1.247 . S
O254 Co252 2.091 . S
O254 C260 1.261 . S
C255 O264 1.247 . S
C255 O265 1.272 . S
O256 Co252 2.004 . S
O256 C261 1.259 . S
Co257 O258 2.061 . S
Co257 O263 2.052 . S
Co257 O265 2.135 . S
O258 Co257 2.061 . S
O258 C261 1.235 . S
C259 O262 1.238 . S
C259 O263 1.241 . S
C260 O253 1.247 . S
C260 O254 1.261 . S
C261 O256 1.259 . S
C261 O258 1.235 . S
O262 Co252 2.021 . S
O262 C259 1.238 . S
O263 Co257 2.052 . S
O263 C259 1.241 . S
O264 Co252 2.137 . S
O264 C255 1.247 . S
O265 Co252 2.244 . S
O265 C255 1.272 . S
O265 Co257 2.135 . S
Co266 O267 2.216 . S
Co266 O268 2.091 . S
Co266 O270 2.004 . S
Co266 O276 2.021 . S
Co266 O278 2.137 . S
Co266 O279 2.244 . S
O267 Co266 2.216 . S
O267 C274 1.247 . S
O268 Co266 2.091 . S
O268 C274 1.261 . S
C269 O278 1.247 . S
C269 O279 1.272 . S
O270 Co266 2.004 . S
O270 C275 1.259 . S
Co271 O272 2.061 . S
Co271 O277 2.052 . S
Co271 O279 2.135 . S
O272 Co271 2.061 . S
O272 C275 1.235 . S
C273 O276 1.238 . S
C273 O277 1.241 . S
C274 O267 1.247 . S
C274 O268 1.261 . S
C275 O270 1.259 . S
C275 O272 1.235 . S
O276 Co266 2.021 . S
O276 C273 1.238 . S
O277 Co271 2.052 . S
O277 C273 1.241 . S
O278 Co266 2.137 . S
O278 C269 1.247 . S
O279 Co266 2.244 . S
O279 C269 1.272 . S
O279 Co271 2.135 . S
Co280 O281 2.216 . S
Co280 O282 2.091 . S
Co280 O284 2.004 . S
Co280 O290 2.021 . S
Co280 O292 2.137 . S
Co280 O293 2.244 . S
O281 Co280 2.216 . S
O281 C288 1.247 . S
O282 Co280 2.091 . S
O282 C288 1.261 . S
C283 O292 1.247 . S
C283 O293 1.272 . S
O284 Co280 2.004 . S
O284 C289 1.259 . S
Co285 O286 2.061 . S
Co285 O291 2.052 . S
Co285 O293 2.135 . S
O286 Co285 2.061 . S
O286 C289 1.235 . S
C287 O290 1.238 . S
C287 O291 1.241 . S
C288 O281 1.247 . S
C288 O282 1.261 . S
C289 O284 1.259 . S
C289 O286 1.235 . S
O290 Co280 2.021 . S
O290 C287 1.238 . S
O291 Co285 2.052 . S
O291 C287 1.241 . S
O292 Co280 2.137 . S
O292 C283 1.247 . S
O293 Co280 2.244 . S
O293 C283 1.272 . S
O293 Co285 2.135 . S
Co294 O295 2.216 . S
Co294 O296 2.091 . S
Co294 O298 2.004 . S
Co294 O304 2.021 . S
Co294 O306 2.137 . S
Co294 O307 2.244 . S
O295 Co294 2.216 . S
O295 C302 1.247 . S
O296 Co294 2.091 . S
O296 C302 1.261 . S
C297 O306 1.247 . S
C297 O307 1.272 . S
O298 Co294 2.004 . S
O298 C303 1.259 . S
Co299 O300 2.061 . S
Co299 O305 2.052 . S
Co299 O307 2.135 . S
O300 Co299 2.061 . S
O300 C303 1.235 . S
C301 O304 1.238 . S
C301 O305 1.241 . S
C302 O295 1.247 . S
C302 O296 1.261 . S
C303 O298 1.259 . S
C303 O300 1.235 . S
O304 Co294 2.021 . S
O304 C301 1.238 . S
O305 Co299 2.052 . S
O305 C301 1.241 . S
O306 Co294 2.137 . S
O306 C297 1.247 . S
O307 Co294 2.244 . S
O307 C297 1.272 . S
O307 Co299 2.135 . S
Co308 O309 2.216 . S
Co308 O310 2.091 . S
Co308 O312 2.004 . S
Co308 O318 2.021 . S
Co308 O320 2.137 . S
Co308 O321 2.244 . S
O309 Co308 2.216 . S
O309 C316 1.247 . S
O310 Co308 2.091 . S
O310 C316 1.261 . S
C311 O320 1.247 . S
C311 O321 1.272 . S
O312 Co308 2.004 . S
O312 C317 1.259 . S
Co313 O314 2.061 . S
Co313 O319 2.052 . S
Co313 O321 2.135 . S
O314 Co313 2.061 . S
O314 C317 1.235 . S
C315 O318 1.238 . S
C315 O319 1.241 . S
C316 O309 1.247 . S
C316 O310 1.261 . S
C317 O312 1.259 . S
C317 O314 1.235 . S
O318 Co308 2.021 . S
O318 C315 1.238 . S
O319 Co313 2.052 . S
O319 C315 1.241 . S
O320 Co308 2.137 . S
O320 C311 1.247 . S
O321 Co308 2.244 . S
O321 C311 1.272 . S
O321 Co313 2.135 . S
Co322 O323 2.216 . S
Co322 O324 2.091 . S
Co322 O326 2.004 . S
Co322 O332 2.021 . S
Co322 O334 2.137 . S
Co322 O335 2.244 . S
O323 Co322 2.216 . S
O323 C330 1.247 . S
O324 Co322 2.091 . S
O324 C330 1.261 . S
C325 O334 1.247 . S
C325 O335 1.272 . S
O326 Co322 2.004 . S
O326 C331 1.259 . S
Co327 O328 2.061 . S
Co327 O333 2.052 . S
Co327 O335 2.135 . S
O328 Co327 2.061 . S
O328 C331 1.235 . S
C329 O332 1.238 . S
C329 O333 1.241 . S
C330 O323 1.247 . S
C330 O324 1.261 . S
C331 O326 1.259 . S
C331 O328 1.235 . S
O332 Co322 2.021 . S
O332 C329 1.238 . S
O333 Co327 2.052 . S
O333 C329 1.241 . S
O334 Co322 2.137 . S
O334 C325 1.247 . S
O335 Co322 2.244 . S
O335 C325 1.272 . S
O335 Co327 2.135 . S
Co336 O337 2.216 . S
Co336 O338 2.091 . S
Co336 O340 2.004 . S
Co336 O346 2.021 . S
Co336 O348 2.137 . S
Co336 O349 2.244 . S
O337 Co336 2.216 . S
O337 C344 1.247 . S
O338 Co336 2.091 . S
O338 C344 1.261 . S
C339 O348 1.247 . S
C339 O349 1.272 . S
O340 Co336 2.004 . S
O340 C345 1.259 . S
Co341 O342 2.061 . S
Co341 O347 2.052 . S
Co341 O349 2.135 . S
O342 Co341 2.061 . S
O342 C345 1.235 . S
C343 O346 1.238 . S
C343 O347 1.241 . S
C344 O337 1.247 . S
C344 O338 1.261 . S
C345 O340 1.259 . S
C345 O342 1.235 . S
O346 Co336 2.021 . S
O346 C343 1.238 . S
O347 Co341 2.052 . S
O347 C343 1.241 . S
O348 Co336 2.137 . S
O348 C339 1.247 . S
O349 Co336 2.244 . S
O349 C339 1.272 . S
O349 Co341 2.135 . S
Co350 O351 2.216 . S
Co350 O352 2.091 . S
Co350 O354 2.004 . S
Co350 O360 2.021 . S
Co350 O362 2.137 . S
Co350 O363 2.244 . S
O351 Co350 2.216 . S
O351 C358 1.247 . S
O352 Co350 2.091 . S
O352 C358 1.261 . S
C353 O362 1.247 . S
C353 O363 1.272 . S
O354 Co350 2.004 . S
O354 C359 1.259 . S
Co355 O356 2.061 . S
Co355 O361 2.052 . S
Co355 O363 2.135 . S
O356 Co355 2.061 . S
O356 C359 1.235 . S
C357 O360 1.238 . S
C357 O361 1.241 . S
C358 O351 1.247 . S
C358 O352 1.261 . S
C359 O354 1.259 . S
C359 O356 1.235 . S
O360 Co350 2.021 . S
O360 C357 1.238 . S
O361 Co355 2.052 . S
O361 C357 1.241 . S
O362 Co350 2.137 . S
O362 C353 1.247 . S
O363 Co350 2.244 . S
O363 C353 1.272 . S
O363 Co355 2.135 . S
Co364 O365 2.216 . S
Co364 O366 2.091 . S
Co364 O368 2.004 . S
Co364 O374 2.021 . S
Co364 O376 2.137 . S
Co364 O377 2.244 . S
O365 Co364 2.216 . S
O365 C372 1.247 . S
O366 Co364 2.091 . S
O366 C372 1.261 . S
C367 O376 1.247 . S
C367 O377 1.272 . S
O368 Co364 2.004 . S
O368 C373 1.259 . S
Co369 O370 2.061 . S
Co369 O375 2.052 . S
Co369 O377 2.135 . S
O370 Co369 2.061 . S
O370 C373 1.235 . S
C371 O374 1.238 . S
C371 O375 1.241 . S
C372 O365 1.247 . S
C372 O366 1.261 . S
C373 O368 1.259 . S
C373 O370 1.235 . S
O374 Co364 2.021 . S
O374 C371 1.238 . S
O375 Co369 2.052 . S
O375 C371 1.241 . S
O376 Co364 2.137 . S
O376 C367 1.247 . S
O377 Co364 2.244 . S
O377 C367 1.272 . S
O377 Co369 2.135 . S
Co378 O379 2.216 . S
Co378 O380 2.091 . S
Co378 O382 2.004 . S
Co378 O388 2.021 . S
Co378 O390 2.137 . S
Co378 O391 2.244 . S
O379 Co378 2.216 . S
O379 C386 1.247 . S
O380 Co378 2.091 . S
O380 C386 1.261 . S
C381 O390 1.247 . S
C381 O391 1.272 . S
O382 Co378 2.004 . S
O382 C387 1.259 . S
Co383 O384 2.061 . S
Co383 O389 2.052 . S
Co383 O391 2.135 . S
O384 Co383 2.061 . S
O384 C387 1.235 . S
C385 O388 1.238 . S
C385 O389 1.241 . S
C386 O379 1.247 . S
C386 O380 1.261 . S
C387 O382 1.259 . S
C387 O384 1.235 . S
O388 Co378 2.021 . S
O388 C385 1.238 . S
O389 Co383 2.052 . S
O389 C385 1.241 . S
O390 Co378 2.137 . S
O390 C381 1.247 . S
O391 Co378 2.244 . S
O391 C381 1.272 . S
O391 Co383 2.135 . S
Co392 O393 2.216 . S
Co392 O394 2.091 . S
Co392 O396 2.004 . S
Co392 O402 2.021 . S
Co392 O404 2.137 . S
Co392 O405 2.244 . S
O393 Co392 2.216 . S
O393 C400 1.247 . S
O394 Co392 2.091 . S
O394 C400 1.261 . S
C395 O404 1.247 . S
C395 O405 1.272 . S
O396 Co392 2.004 . S
O396 C401 1.259 . S
Co397 O398 2.061 . S
Co397 O403 2.052 . S
Co397 O405 2.135 . S
O398 Co397 2.061 . S
O398 C401 1.235 . S
C399 O402 1.238 . S
C399 O403 1.241 . S
C400 O393 1.247 . S
C400 O394 1.261 . S
C401 O396 1.259 . S
C401 O398 1.235 . S
O402 Co392 2.021 . S
O402 C399 1.238 . S
O403 Co397 2.052 . S
O403 C399 1.241 . S
O404 Co392 2.137 . S
O404 C395 1.247 . S
O405 Co392 2.244 . S
O405 C395 1.272 . S
O405 Co397 2.135 . S
Co406 O407 2.216 . S
Co406 O408 2.091 . S
Co406 O410 2.004 . S
Co406 O416 2.021 . S
Co406 O418 2.137 . S
Co406 O419 2.244 . S
O407 Co406 2.216 . S
O407 C414 1.247 . S
O408 Co406 2.091 . S
O408 C414 1.261 . S
C409 O418 1.247 . S
C409 O419 1.272 . S
O410 Co406 2.004 . S
O410 C415 1.259 . S
Co411 O412 2.061 . S
Co411 O417 2.052 . S
Co411 O419 2.135 . S
O412 Co411 2.061 . S
O412 C415 1.235 . S
C413 O416 1.238 . S
C413 O417 1.241 . S
C414 O407 1.247 . S
C414 O408 1.261 . S
C415 O410 1.259 . S
C415 O412 1.235 . S
O416 Co406 2.021 . S
O416 C413 1.238 . S
O417 Co411 2.052 . S
O417 C413 1.241 . S
O418 Co406 2.137 . S
O418 C409 1.247 . S
O419 Co406 2.244 . S
O419 C409 1.272 . S
O419 Co411 2.135 . S
Co420 O421 2.216 . S
Co420 O422 2.091 . S
Co420 O424 2.004 . S
Co420 O430 2.021 . S
Co420 O432 2.137 . S
Co420 O433 2.244 . S
O421 Co420 2.216 . S
O421 C428 1.247 . S
O422 Co420 2.091 . S
O422 C428 1.261 . S
C423 O432 1.247 . S
C423 O433 1.272 . S
O424 Co420 2.004 . S
O424 C429 1.259 . S
Co425 O426 2.061 . S
Co425 O431 2.052 . S
Co425 O433 2.135 . S
O426 Co425 2.061 . S
O426 C429 1.235 . S
C427 O430 1.238 . S
C427 O431 1.241 . S
C428 O421 1.247 . S
C428 O422 1.261 . S
C429 O424 1.259 . S
C429 O426 1.235 . S
O430 Co420 2.021 . S
O430 C427 1.238 . S
O431 Co425 2.052 . S
O431 C427 1.241 . S
O432 Co420 2.137 . S
O432 C423 1.247 . S
O433 Co420 2.244 . S
O433 C423 1.272 . S
O433 Co425 2.135 . S
Co434 O435 2.216 . S
Co434 O436 2.091 . S
Co434 O438 2.004 . S
Co434 O444 2.021 . S
Co434 O446 2.137 . S
Co434 O447 2.244 . S
O435 Co434 2.216 . S
O435 C442 1.247 . S
O436 Co434 2.091 . S
O436 C442 1.261 . S
C437 O446 1.247 . S
C437 O447 1.272 . S
O438 Co434 2.004 . S
O438 C443 1.259 . S
Co439 O440 2.061 . S
Co439 O445 2.052 . S
Co439 O447 2.135 . S
O440 Co439 2.061 . S
O440 C443 1.235 . S
C441 O444 1.238 . S
C441 O445 1.241 . S
C442 O435 1.247 . S
C442 O436 1.261 . S
C443 O438 1.259 . S
C443 O440 1.235 . S
O444 Co434 2.021 . S
O444 C441 1.238 . S
O445 Co439 2.052 . S
O445 C441 1.241 . S
O446 Co434 2.137 . S
O446 C437 1.247 . S
O447 Co434 2.244 . S
O447 C437 1.272 . S
O447 Co439 2.135 . S
Co448 O449 2.216 . S
Co448 O450 2.091 . S
Co448 O452 2.004 . S
Co448 O458 2.021 . S
Co448 O460 2.137 . S
Co448 O461 2.244 . S
O449 Co448 2.216 . S
O449 C456 1.247 . S
O450 Co448 2.091 . S
O450 C456 1.261 . S
C451 O460 1.247 . S
C451 O461 1.272 . S
O452 Co448 2.004 . S
O452 C457 1.259 . S
Co453 O454 2.061 . S
Co453 O459 2.052 . S
Co453 O461 2.135 . S
O454 Co453 2.061 . S
O454 C457 1.235 . S
C455 O458 1.238 . S
C455 O459 1.241 . S
C456 O449 1.247 . S
C456 O450 1.261 . S
C457 O452 1.259 . S
C457 O454 1.235 . S
O458 Co448 2.021 . S
O458 C455 1.238 . S
O459 Co453 2.052 . S
O459 C455 1.241 . S
O460 Co448 2.137 . S
O460 C451 1.247 . S
O461 Co448 2.244 . S
O461 C451 1.272 . S
O461 Co453 2.135 . S
Co462 O463 2.216 . S
Co462 O464 2.091 . S
Co462 O466 2.004 . S
Co462 O472 2.021 . S
Co462 O474 2.137 . S
Co462 O475 2.244 . S
O463 Co462 2.216 . S
O463 C470 1.247 . S
O464 Co462 2.091 . S
O464 C470 1.261 . S
C465 O474 1.247 . S
C465 O475 1.272 . S
O466 Co462 2.004 . S
O466 C471 1.259 . S
Co467 O468 2.061 . S
Co467 O473 2.052 . S
Co467 O475 2.135 . S
O468 Co467 2.061 . S
O468 C471 1.235 . S
C469 O472 1.238 . S
C469 O473 1.241 . S
C470 O463 1.247 . S
C470 O464 1.261 . S
C471 O466 1.259 . S
C471 O468 1.235 . S
O472 Co462 2.021 . S
O472 C469 1.238 . S
O473 Co467 2.052 . S
O473 C469 1.241 . S
O474 Co462 2.137 . S
O474 C465 1.247 . S
O475 Co462 2.244 . S
O475 C465 1.272 . S
O475 Co467 2.135 . S
Co476 O477 2.216 . S
Co476 O478 2.091 . S
Co476 O480 2.004 . S
Co476 O486 2.021 . S
Co476 O488 2.137 . S
Co476 O489 2.244 . S
O477 Co476 2.216 . S
O477 C484 1.247 . S
O478 Co476 2.091 . S
O478 C484 1.261 . S
C479 O488 1.247 . S
C479 O489 1.272 . S
O480 Co476 2.004 . S
O480 C485 1.259 . S
Co481 O482 2.061 . S
Co481 O487 2.052 . S
Co481 O489 2.135 . S
O482 Co481 2.061 . S
O482 C485 1.235 . S
C483 O486 1.238 . S
C483 O487 1.241 . S
C484 O477 1.247 . S
C484 O478 1.261 . S
C485 O480 1.259 . S
C485 O482 1.235 . S
O486 Co476 2.021 . S
O486 C483 1.238 . S
O487 Co481 2.052 . S
O487 C483 1.241 . S
O488 Co476 2.137 . S
O488 C479 1.247 . S
O489 Co476 2.244 . S
O489 C479 1.272 . S
O489 Co481 2.135 . S
Co490 O491 2.216 . S
Co490 O492 2.091 . S
Co490 O494 2.004 . S
Co490 O500 2.021 . S
Co490 O502 2.137 . S
Co490 O503 2.244 . S
O491 Co490 2.216 . S
O491 C498 1.247 . S
O492 Co490 2.091 . S
O492 C498 1.261 . S
C493 O502 1.247 . S
C493 O503 1.272 . S
O494 Co490 2.004 . S
O494 C499 1.259 . S
Co495 O496 2.061 . S
Co495 O501 2.052 . S
Co495 O503 2.135 . S
O496 Co495 2.061 . S
O496 C499 1.235 . S
C497 O500 1.238 . S
C497 O501 1.241 . S
C498 O491 1.247 . S
C498 O492 1.261 . S
C499 O494 1.259 . S
C499 O496 1.235 . S
O500 Co490 2.021 . S
O500 C497 1.238 . S
O501 Co495 2.052 . S
O501 C497 1.241 . S
O502 Co490 2.137 . S
O502 C493 1.247 . S
O503 Co490 2.244 . S
O503 C493 1.272 . S
O503 Co495 2.135 . S
Co504 O505 2.216 . S
Co504 O506 2.091 . S
Co504 O508 2.004 . S
Co504 O514 2.021 . S
Co504 O516 2.137 . S
Co504 O517 2.244 . S
O505 Co504 2.216 . S
O505 C512 1.247 . S
O506 Co504 2.091 . S
O506 C512 1.261 . S
C507 O516 1.247 . S
C507 O517 1.272 . S
O508 Co504 2.004 . S
O508 C513 1.259 . S
Co509 O510 2.061 . S
Co509 O515 2.052 . S
Co509 O517 2.135 . S
O510 Co509 2.061 . S
O510 C513 1.235 . S
C511 O514 1.238 . S
C511 O515 1.241 . S
C512 O505 1.247 . S
C512 O506 1.261 . S
C513 O508 1.259 . S
C513 O510 1.235 . S
O514 Co504 2.021 . S
O514 C511 1.238 . S
O515 Co509 2.052 . S
O515 C511 1.241 . S
O516 Co504 2.137 . S
O516 C507 1.247 . S
O517 Co504 2.244 . S
O517 C507 1.272 . S
O517 Co509 2.135 . S
Co518 O519 2.216 . S
Co518 O520 2.091 . S
Co518 O522 2.004 . S
Co518 O528 2.021 . S
Co518 O530 2.137 . S
Co518 O531 2.244 . S
O519 Co518 2.216 . S
O519 C526 1.247 . S
O520 Co518 2.091 . S
O520 C526 1.261 . S
C521 O530 1.247 . S
C521 O531 1.272 . S
O522 Co518 2.004 . S
O522 C527 1.259 . S
Co523 O524 2.061 . S
Co523 O529 2.052 . S
Co523 O531 2.135 . S
O524 Co523 2.061 . S
O524 C527 1.235 . S
C525 O528 1.238 . S
C525 O529 1.241 . S
C526 O519 1.247 . S
C526 O520 1.261 . S
C527 O522 1.259 . S
C527 O524 1.235 . S
O528 Co518 2.021 . S
O528 C525 1.238 . S
O529 Co523 2.052 . S
O529 C525 1.241 . S
O530 Co518 2.137 . S
O530 C521 1.247 . S
O531 Co518 2.244 . S
O531 C521 1.272 . S
O531 Co523 2.135 . S
Co532 O533 2.216 . S
Co532 O534 2.091 . S
Co532 O536 2.004 . S
Co532 O542 2.021 . S
Co532 O544 2.137 . S
Co532 O545 2.244 . S
O533 Co532 2.216 . S
O533 C540 1.247 . S
O534 Co532 2.091 . S
O534 C540 1.261 . S
C535 O544 1.247 . S
C535 O545 1.272 . S
O536 Co532 2.004 . S
O536 C541 1.259 . S
Co537 O538 2.061 . S
Co537 O543 2.052 . S
Co537 O545 2.135 . S
O538 Co537 2.061 . S
O538 C541 1.235 . S
C539 O542 1.238 . S
C539 O543 1.241 . S
C540 O533 1.247 . S
C540 O534 1.261 . S
C541 O536 1.259 . S
C541 O538 1.235 . S
O542 Co532 2.021 . S
O542 C539 1.238 . S
O543 Co537 2.052 . S
O543 C539 1.241 . S
O544 Co532 2.137 . S
O544 C535 1.247 . S
O545 Co532 2.244 . S
O545 C535 1.272 . S
O545 Co537 2.135 . S
Co546 O547 2.216 . S
Co546 O548 2.091 . S
Co546 O550 2.004 . S
Co546 O556 2.021 . S
Co546 O558 2.137 . S
Co546 O559 2.244 . S
O547 Co546 2.216 . S
O547 C554 1.247 . S
O548 Co546 2.091 . S
O548 C554 1.261 . S
C549 O558 1.247 . S
C549 O559 1.272 . S
O550 Co546 2.004 . S
O550 C555 1.259 . S
Co551 O552 2.061 . S
Co551 O557 2.052 . S
Co551 O559 2.135 . S
O552 Co551 2.061 . S
O552 C555 1.235 . S
C553 O556 1.238 . S
C553 O557 1.241 . S
C554 O547 1.247 . S
C554 O548 1.261 . S
C555 O550 1.259 . S
C555 O552 1.235 . S
O556 Co546 2.021 . S
O556 C553 1.238 . S
O557 Co551 2.052 . S
O557 C553 1.241 . S
O558 Co546 2.137 . S
O558 C549 1.247 . S
O559 Co546 2.244 . S
O559 C549 1.272 . S
O559 Co551 2.135 . S
Co560 O561 2.216 . S
Co560 O562 2.091 . S
Co560 O564 2.004 . S
Co560 O570 2.021 . S
Co560 O572 2.137 . S
Co560 O573 2.244 . S
O561 Co560 2.216 . S
O561 C568 1.247 . S
O562 Co560 2.091 . S
O562 C568 1.261 . S
C563 O572 1.247 . S
C563 O573 1.272 . S
O564 Co560 2.004 . S
O564 C569 1.259 . S
Co565 O566 2.061 . S
Co565 O571 2.052 . S
Co565 O573 2.135 . S
O566 Co565 2.061 . S
O566 C569 1.235 . S
C567 O570 1.238 . S
C567 O571 1.241 . S
C568 O561 1.247 . S
C568 O562 1.261 . S
C569 O564 1.259 . S
C569 O566 1.235 . S
O570 Co560 2.021 . S
O570 C567 1.238 . S
O571 Co565 2.052 . S
O571 C567 1.241 . S
O572 Co560 2.137 . S
O572 C563 1.247 . S
O573 Co560 2.244 . S
O573 C563 1.272 . S
O573 Co565 2.135 . S
Co574 O575 2.216 . S
Co574 O576 2.091 . S
Co574 O578 2.004 . S
Co574 O584 2.021 . S
Co574 O586 2.137 . S
Co574 O587 2.244 . S
O575 Co574 2.216 . S
O575 C582 1.247 . S
O576 Co574 2.091 . S
O576 C582 1.261 . S
C577 O586 1.247 . S
C577 O587 1.272 . S
O578 Co574 2.004 . S
O578 C583 1.259 . S
Co579 O580 2.061 . S
Co579 O585 2.052 . S
Co579 O587 2.135 . S
O580 Co579 2.061 . S
O580 C583 1.235 . S
C581 O584 1.238 . S
C581 O585 1.241 . S
C582 O575 1.247 . S
C582 O576 1.261 . S
C583 O578 1.259 . S
C583 O580 1.235 . S
O584 Co574 2.021 . S
O584 C581 1.238 . S
O585 Co579 2.052 . S
O585 C581 1.241 . S
O586 Co574 2.137 . S
O586 C577 1.247 . S
O587 Co574 2.244 . S
O587 C577 1.272 . S
O587 Co579 2.135 . S
Co588 O589 2.216 . S
Co588 O590 2.091 . S
Co588 O592 2.004 . S
Co588 O598 2.021 . S
Co588 O600 2.137 . S
Co588 O601 2.244 . S
O589 Co588 2.216 . S
O589 C596 1.247 . S
O590 Co588 2.091 . S
O590 C596 1.261 . S
C591 O600 1.247 . S
C591 O601 1.272 . S
O592 Co588 2.004 . S
O592 C597 1.259 . S
Co593 O594 2.061 . S
Co593 O599 2.052 . S
Co593 O601 2.135 . S
O594 Co593 2.061 . S
O594 C597 1.235 . S
C595 O598 1.238 . S
C595 O599 1.241 . S
C596 O589 1.247 . S
C596 O590 1.261 . S
C597 O592 1.259 . S
C597 O594 1.235 . S
O598 Co588 2.021 . S
O598 C595 1.238 . S
O599 Co593 2.052 . S
O599 C595 1.241 . S
O600 Co588 2.137 . S
O600 C591 1.247 . S
O601 Co588 2.244 . S
O601 C591 1.272 . S
O601 Co593 2.135 . S
Co602 O603 2.216 . S
Co602 O604 2.091 . S
Co602 O606 2.004 . S
Co602 O612 2.021 . S
Co602 O614 2.137 . S
Co602 O615 2.244 . S
O603 Co602 2.216 . S
O603 C610 1.247 . S
O604 Co602 2.091 . S
O604 C610 1.261 . S
C605 O614 1.247 . S
C605 O615 1.272 . S
O606 Co602 2.004 . S
O606 C611 1.259 . S
Co607 O608 2.061 . S
Co607 O613 2.052 . S
Co607 O615 2.135 . S
O608 Co607 2.061 . S
O608 C611 1.235 . S
C609 O612 1.238 . S
C609 O613 1.241 . S
C610 O603 1.247 . S
C610 O604 1.261 . S
C611 O606 1.259 . S
C611 O608 1.235 . S
O612 Co602 2.021 . S
O612 C609 1.238 . S
O613 Co607 2.052 . S
O613 C609 1.241 . S
O614 Co602 2.137 . S
O614 C605 1.247 . S
O615 Co602 2.244 . S
O615 C605 1.272 . S
O615 Co607 2.135 . S
Co616 O617 2.216 . S
Co616 O618 2.091 . S
Co616 O620 2.004 . S
Co616 O626 2.021 . S
Co616 O628 2.137 . S
Co616 O629 2.244 . S
O617 Co616 2.216 . S
O617 C624 1.247 . S
O618 Co616 2.091 . S
O618 C624 1.261 . S
C619 O628 1.247 . S
C619 O629 1.272 . S
O620 Co616 2.004 . S
O620 C625 1.259 . S
Co621 O622 2.061 . S
Co621 O627 2.052 . S
Co621 O629 2.135 . S
O622 Co621 2.061 . S
O622 C625 1.235 . S
C623 O626 1.238 . S
C623 O627 1.241 . S
C624 O617 1.247 . S
C624 O618 1.261 . S
C625 O620 1.259 . S
C625 O622 1.235 . S
O626 Co616 2.021 . S
O626 C623 1.238 . S
O627 Co621 2.052 . S
O627 C623 1.241 . S
O628 Co616 2.137 . S
O628 C619 1.247 . S
O629 Co616 2.244 . S
O629 C619 1.272 . S
O629 Co621 2.135 . S
Co630 O631 2.216 . S
Co630 O632 2.091 . S
Co630 O634 2.004 . S
Co630 O640 2.021 . S
Co630 O642 2.137 . S
Co630 O643 2.244 . S
O631 Co630 2.216 . S
O631 C638 1.247 . S
O632 Co630 2.091 . S
O632 C638 1.261 . S
C633 O642 1.247 . S
C633 O643 1.272 . S
O634 Co630 2.004 . S
O634 C639 1.259 . S
Co635 O636 2.061 . S
Co635 O641 2.052 . S
Co635 O643 2.135 . S
O636 Co635 2.061 . S
O636 C639 1.235 . S
C637 O640 1.238 . S
C637 O641 1.241 . S
C638 O631 1.247 . S
C638 O632 1.261 . S
C639 O634 1.259 . S
C639 O636 1.235 . S
O640 Co630 2.021 . S
O640 C637 1.238 . S
O641 Co635 2.052 . S
O641 C637 1.241 . S
O642 Co630 2.137 . S
O642 C633 1.247 . S
O643 Co630 2.244 . S
O643 C633 1.272 . S
O643 Co635 2.135 . S
Co644 O645 2.216 . S
Co644 O646 2.091 . S
Co644 O648 2.004 . S
Co644 O654 2.021 . S
Co644 O656 2.137 . S
Co644 O657 2.244 . S
O645 Co644 2.216 . S
O645 C652 1.247 . S
O646 Co644 2.091 . S
O646 C652 1.261 . S
C647 O656 1.247 . S
C647 O657 1.272 . S
O648 Co644 2.004 . S
O648 C653 1.259 . S
Co649 O650 2.061 . S
Co649 O655 2.052 . S
Co649 O657 2.135 . S
O650 Co649 2.061 . S
O650 C653 1.235 . S
C651 O654 1.238 . S
C651 O655 1.241 . S
C652 O645 1.247 . S
C652 O646 1.261 . S
C653 O648 1.259 . S
C653 O650 1.235 . S
O654 Co644 2.021 . S
O654 C651 1.238 . S
O655 Co649 2.052 . S
O655 C651 1.241 . S
O656 Co644 2.137 . S
O656 C647 1.247 . S
O657 Co644 2.244 . S
O657 C647 1.272 . S
O657 Co649 2.135 . S
Co658 O659 2.216 . S
Co658 O660 2.091 . S
Co658 O662 2.004 . S
Co658 O668 2.021 . S
Co658 O670 2.137 . S
Co658 O671 2.244 . S
O659 Co658 2.216 . S
O659 C666 1.247 . S
O660 Co658 2.091 . S
O660 C666 1.261 . S
C661 O670 1.247 . S
C661 O671 1.272 . S
O662 Co658 2.004 . S
O662 C667 1.259 . S
Co663 O664 2.061 . S
Co663 O669 2.052 . S
Co663 O671 2.135 . S
O664 Co663 2.061 . S
O664 C667 1.235 . S
C665 O668 1.238 . S
C665 O669 1.241 . S
C666 O659 1.247 . S
C666 O660 1.261 . S
C667 O662 1.259 . S
C667 O664 1.235 . S
O668 Co658 2.021 . S
O668 C665 1.238 . S
O669 Co663 2.052 . S
O669 C665 1.241 . S
O670 Co658 2.137 . S
O670 C661 1.247 . S
O671 Co658 2.244 . S
O671 C661 1.272 . S
O671 Co663 2.135 . S
C672 C673 1.369 1_455 S
C672 C674 1.419 . S
C672 H676 0.930 . S
C673 C672 1.369 1_655 S
C673 C682 1.429 . S
C674 C672 1.419 . S
C674 C675 1.363 . S
C674 H677 0.929 . S
C675 C674 1.363 . S
C675 C681 1.428 1_455 S
H676 C672 0.930 . S
H677 C674 0.929 . S
S678 N679 1.613 . S
S678 N680 1.610 . S
N679 S678 1.613 . S
N679 C682 1.350 . S
N680 S678 1.610 . S
N680 C681 1.351 . S
C681 C675 1.428 1_655 S
C681 N680 1.351 . S
C681 C682 1.434 . S
C682 C673 1.429 . S
C682 N679 1.350 . S
C682 C681 1.434 . S
C683 C684 1.369 . S
C683 C685 1.419 . S
C683 H687 0.930 . S
C684 C683 1.369 . S
C684 C693 1.429 1_455 S
C685 C683 1.419 . S
C685 C686 1.363 1_455 S
C685 H688 0.929 . S
C686 C685 1.363 1_655 S
C686 C692 1.428 . S
H687 C683 0.930 . S
H688 C685 0.929 . S
S689 N690 1.613 . S
S689 N691 1.610 . S
N690 S689 1.613 . S
N690 C693 1.350 . S
N691 S689 1.610 . S
N691 C692 1.351 . S
C692 C686 1.428 . S
C692 N691 1.351 . S
C692 C693 1.434 . S
C693 C684 1.429 1_655 S
C693 N690 1.350 . S
C693 C692 1.434 . S
C694 C695 1.369 . S
C694 C696 1.419 . S
C694 H698 0.930 . S
C695 C694 1.369 . S
C695 C704 1.429 1_565 S
C696 C694 1.419 . S
C696 C697 1.363 1_565 S
C696 H699 0.929 . S
C697 C696 1.363 1_545 S
C697 C703 1.428 . S
H698 C694 0.930 . S
H699 C696 0.929 . S
S700 N701 1.613 . S
S700 N702 1.610 . S
N701 S700 1.613 . S
N701 C704 1.350 . S
N702 S700 1.610 . S
N702 C703 1.351 . S
C703 C697 1.428 . S
C703 N702 1.351 . S
C703 C704 1.434 . S
C704 C695 1.429 1_545 S
C704 N701 1.350 . S
C704 C703 1.434 . S
C705 C706 1.369 . S
C705 C707 1.419 . S
C705 H709 0.930 . S
C706 C705 1.369 . S
C706 C715 1.429 . S
C707 C705 1.419 . S
C707 C708 1.363 . S
C707 H710 0.929 . S
C708 C707 1.363 . S
C708 C714 1.428 . S
H709 C705 0.930 . S
H710 C707 0.929 . S
S711 N712 1.613 . S
S711 N713 1.610 . S
N712 S711 1.613 . S
N712 C715 1.350 . S
N713 S711 1.610 . S
N713 C714 1.351 . S
C714 C708 1.428 . S
C714 N713 1.351 . S
C714 C715 1.434 . S
C715 C706 1.429 . S
C715 N712 1.350 . S
C715 C714 1.434 . S
C716 C717 1.369 1_556 S
C716 C718 1.419 . S
C716 H720 0.930 . S
C717 C716 1.369 1_554 S
C717 C726 1.429 . S
C718 C716 1.419 . S
C718 C719 1.363 . S
C718 H721 0.929 . S
C719 C718 1.363 . S
C719 C725 1.428 1_556 S
H720 C716 0.930 . S
H721 C718 0.929 . S
S722 N723 1.613 . S
S722 N724 1.610 . S
N723 S722 1.613 . S
N723 C726 1.350 . S
N724 S722 1.610 . S
N724 C725 1.351 . S
C725 C719 1.428 1_554 S
C725 N724 1.351 . S
C725 C726 1.434 . S
C726 C717 1.429 . S
C726 N723 1.350 . S
C726 C725 1.434 . S
C727 C728 1.369 . S
C727 C729 1.419 . S
C727 H731 0.930 . S
C728 C727 1.369 . S
C728 C737 1.429 . S
C729 C727 1.419 . S
C729 C730 1.363 . S
C729 H732 0.929 . S
C730 C729 1.363 . S
C730 C736 1.428 . S
H731 C727 0.930 . S
H732 C729 0.929 . S
S733 N734 1.613 . S
S733 N735 1.610 . S
N734 S733 1.613 . S
N734 C737 1.350 . S
N735 S733 1.610 . S
N735 C736 1.351 . S
C736 C730 1.428 . S
C736 N735 1.351 . S
C736 C737 1.434 . S
C737 C728 1.429 . S
C737 N734 1.350 . S
C737 C736 1.434 . S
C738 C739 1.369 . S
C738 C740 1.419 . S
C738 H742 0.930 . S
C739 C738 1.369 . S
C739 C748 1.429 . S
C740 C738 1.419 . S
C740 C741 1.363 . S
C740 H743 0.929 . S
C741 C740 1.363 . S
C741 C747 1.428 . S
H742 C738 0.930 . S
H743 C740 0.929 . S
S744 N745 1.613 . S
S744 N746 1.610 . S
N745 S744 1.613 . S
N745 C748 1.350 . S
N746 S744 1.610 . S
N746 C747 1.351 . S
C747 C741 1.428 . S
C747 N746 1.351 . S
C747 C748 1.434 . S
C748 C739 1.429 . S
C748 N745 1.350 . S
C748 C747 1.434 . S
C749 C750 1.369 1_655 S
C749 C751 1.419 . S
C749 H753 0.930 . S
C750 C749 1.369 1_455 S
C750 C759 1.429 . S
C751 C749 1.419 . S
C751 C752 1.363 . S
C751 H754 0.929 . S
C752 C751 1.363 . S
C752 C758 1.428 1_655 S
H753 C749 0.930 . S
H754 C751 0.929 . S
S755 N756 1.613 . S
S755 N757 1.610 . S
N756 S755 1.613 . S
N756 C759 1.350 . S
N757 S755 1.610 . S
N757 C758 1.351 . S
C758 C752 1.428 1_455 S
C758 N757 1.351 . S
C758 C759 1.434 . S
C759 C750 1.429 . S
C759 N756 1.350 . S
C759 C758 1.434 . S
C760 C761 1.369 . S
C760 C762 1.419 . S
C760 H764 0.930 . S
C761 C760 1.369 . S
C761 C770 1.429 1_455 S
C762 C760 1.419 . S
C762 C763 1.363 1_455 S
C762 H765 0.929 . S
C763 C762 1.363 1_655 S
C763 C769 1.428 . S
H764 C760 0.930 . S
H765 C762 0.929 . S
S766 N767 1.613 . S
S766 N768 1.610 . S
N767 S766 1.613 . S
N767 C770 1.350 . S
N768 S766 1.610 . S
N768 C769 1.351 . S
C769 C763 1.428 . S
C769 N768 1.351 . S
C769 C770 1.434 . S
C770 C761 1.429 1_655 S
C770 N767 1.350 . S
C770 C769 1.434 . S
C771 C772 1.369 1_565 S
C771 C773 1.419 . S
C771 H775 0.930 . S
C772 C771 1.369 1_545 S
C772 C781 1.429 . S
C773 C771 1.419 . S
C773 C774 1.363 . S
C773 H776 0.929 . S
C774 C773 1.363 . S
C774 C780 1.428 1_565 S
H775 C771 0.930 . S
H776 C773 0.929 . S
S777 N778 1.613 . S
S777 N779 1.610 . S
N778 S777 1.613 . S
N778 C781 1.350 . S
N779 S777 1.610 . S
N779 C780 1.351 . S
C780 C774 1.428 1_545 S
C780 N779 1.351 . S
C780 C781 1.434 . S
C781 C772 1.429 . S
C781 N778 1.350 . S
C781 C780 1.434 . S
C782 C783 1.369 . S
C782 C784 1.419 . S
C782 H786 0.930 . S
C783 C782 1.369 . S
C783 C792 1.429 . S
C784 C782 1.419 . S
C784 C785 1.363 . S
C784 H787 0.929 . S
C785 C784 1.363 . S
C785 C791 1.428 . S
H786 C782 0.930 . S
H787 C784 0.929 . S
S788 N789 1.613 . S
S788 N790 1.610 . S
N789 S788 1.613 . S
N789 C792 1.350 . S
N790 S788 1.610 . S
N790 C791 1.351 . S
C791 C785 1.428 . S
C791 N790 1.351 . S
C791 C792 1.434 . S
C792 C783 1.429 . S
C792 N789 1.350 . S
C792 C791 1.434 . S
C793 C794 1.369 1_554 S
C793 C795 1.419 . S
C793 H797 0.930 . S
C794 C793 1.369 1_556 S
C794 C803 1.429 . S
C795 C793 1.419 . S
C795 C796 1.363 . S
C795 H798 0.929 . S
C796 C795 1.363 . S
C796 C802 1.428 1_554 S
H797 C793 0.930 . S
H798 C795 0.929 . S
S799 N800 1.613 . S
S799 N801 1.610 . S
N800 S799 1.613 . S
N800 C803 1.350 . S
N801 S799 1.610 . S
N801 C802 1.351 . S
C802 C796 1.428 1_556 S
C802 N801 1.351 . S
C802 C803 1.434 . S
C803 C794 1.429 . S
C803 N800 1.350 . S
C803 C802 1.434 . S
C804 C805 1.369 . S
C804 C806 1.419 . S
C804 H808 0.930 . S
C805 C804 1.369 . S
C805 C814 1.429 . S
C806 C804 1.419 . S
C806 C807 1.363 . S
C806 H809 0.929 . S
C807 C806 1.363 . S
C807 C813 1.428 . S
H808 C804 0.930 . S
H809 C806 0.929 . S
S810 N811 1.613 . S
S810 N812 1.610 . S
N811 S810 1.613 . S
N811 C814 1.350 . S
N812 S810 1.610 . S
N812 C813 1.351 . S
C813 C807 1.428 . S
C813 N812 1.351 . S
C813 C814 1.434 . S
C814 C805 1.429 . S
C814 N811 1.350 . S
C814 C813 1.434 . S
C815 C816 1.369 . S
C815 C817 1.419 . S
C815 H819 0.930 . S
C816 C815 1.369 . S
C816 C825 1.429 . S
C817 C815 1.419 . S
C817 C818 1.363 . S
C817 H820 0.929 . S
C818 C817 1.363 . S
C818 C824 1.428 . S
H819 C815 0.930 . S
H820 C817 0.929 . S
S821 N822 1.613 . S
S821 N823 1.610 . S
N822 S821 1.613 . S
N822 C825 1.350 . S
N823 S821 1.610 . S
N823 C824 1.351 . S
C824 C818 1.428 . S
C824 N823 1.351 . S
C824 C825 1.434 . S
C825 C816 1.429 . S
C825 N822 1.350 . S
C825 C824 1.434 . S
C826 C827 1.369 . S
C826 C828 1.419 . S
C826 H830 0.930 . S
C827 C826 1.369 . S
C827 C836 1.429 . S
C828 C826 1.419 . S
C828 C829 1.363 . S
C828 H831 0.929 . S
C829 C828 1.363 . S
C829 C835 1.428 . S
H830 C826 0.930 . S
H831 C828 0.929 . S
S832 N833 1.613 . S
S832 N834 1.610 . S
N833 S832 1.613 . S
N833 C836 1.350 . S
N834 S832 1.610 . S
N834 C835 1.351 . S
C835 C829 1.428 . S
C835 N834 1.351 . S
C835 C836 1.434 . S
C836 C827 1.429 . S
C836 N833 1.350 . S
C836 C835 1.434 . S
C837 C838 1.369 . S
C837 C839 1.419 . S
C837 H841 0.930 . S
C838 C837 1.369 . S
C838 C847 1.429 . S
C839 C837 1.419 . S
C839 C840 1.363 . S
C839 H842 0.929 . S
C840 C839 1.363 . S
C840 C846 1.428 . S
H841 C837 0.930 . S
H842 C839 0.929 . S
S843 N844 1.613 . S
S843 N845 1.610 . S
N844 S843 1.613 . S
N844 C847 1.350 . S
N845 S843 1.610 . S
N845 C846 1.351 . S
C846 C840 1.428 . S
C846 N845 1.351 . S
C846 C847 1.434 . S
C847 C838 1.429 . S
C847 N844 1.350 . S
C847 C846 1.434 . S
C848 C849 1.369 . S
C848 C850 1.419 . S
C848 H852 0.930 . S
C849 C848 1.369 . S
C849 C858 1.429 . S
C850 C848 1.419 . S
C850 C851 1.363 . S
C850 H853 0.929 . S
C851 C850 1.363 . S
C851 C857 1.428 . S
H852 C848 0.930 . S
H853 C850 0.929 . S
S854 N855 1.613 . S
S854 N856 1.610 . S
N855 S854 1.613 . S
N855 C858 1.350 . S
N856 S854 1.610 . S
N856 C857 1.351 . S
C857 C851 1.428 . S
C857 N856 1.351 . S
C857 C858 1.434 . S
C858 C849 1.429 . S
C858 N855 1.350 . S
C858 C857 1.434 . S
C859 C860 1.369 . S
C859 C861 1.419 . S
C859 H863 0.930 . S
C860 C859 1.369 . S
C860 C869 1.429 1_545 S
C861 C859 1.419 . S
C861 C862 1.363 1_545 S
C861 H864 0.929 . S
C862 C861 1.363 1_565 S
C862 C868 1.428 . S
H863 C859 0.930 . S
H864 C861 0.929 . S
S865 N866 1.613 . S
S865 N867 1.610 . S
N866 S865 1.613 . S
N866 C869 1.350 . S
N867 S865 1.610 . S
N867 C868 1.351 . S
C868 C862 1.428 . S
C868 N867 1.351 . S
C868 C869 1.434 . S
C869 C860 1.429 1_565 S
C869 N866 1.350 . S
C869 C868 1.434 . S
C870 C871 1.369 1_556 S
C870 C872 1.419 . S
C870 H874 0.930 . S
C871 C870 1.369 1_554 S
C871 C880 1.429 . S
C872 C870 1.419 . S
C872 C873 1.363 . S
C872 H875 0.929 . S
C873 C872 1.363 . S
C873 C879 1.428 1_556 S
H874 C870 0.930 . S
H875 C872 0.929 . S
S876 N877 1.613 . S
S876 N878 1.610 . S
N877 S876 1.613 . S
N877 C880 1.350 . S
N878 S876 1.610 . S
N878 C879 1.351 . S
C879 C873 1.428 1_554 S
C879 N878 1.351 . S
C879 C880 1.434 . S
C880 C871 1.429 . S
C880 N877 1.350 . S
C880 C879 1.434 . S
C881 C882 1.369 . S
C881 C883 1.419 . S
C881 H885 0.930 . S
C882 C881 1.369 . S
C882 C891 1.429 . S
C883 C881 1.419 . S
C883 C884 1.363 . S
C883 H886 0.929 . S
C884 C883 1.363 . S
C884 C890 1.428 . S
H885 C881 0.930 . S
H886 C883 0.929 . S
S887 N888 1.613 . S
S887 N889 1.610 . S
N888 S887 1.613 . S
N888 C891 1.350 . S
N889 S887 1.610 . S
N889 C890 1.351 . S
C890 C884 1.428 . S
C890 N889 1.351 . S
C890 C891 1.434 . S
C891 C882 1.429 . S
C891 N888 1.350 . S
C891 C890 1.434 . S
C892 C893 1.369 . S
C892 C894 1.419 . S
C892 H896 0.930 . S
C893 C892 1.369 . S
C893 C902 1.429 . S
C894 C892 1.419 . S
C894 C895 1.363 . S
C894 H897 0.929 . S
C895 C894 1.363 . S
C895 C901 1.428 . S
H896 C892 0.930 . S
H897 C894 0.929 . S
S898 N899 1.613 . S
S898 N900 1.610 . S
N899 S898 1.613 . S
N899 C902 1.350 . S
N900 S898 1.610 . S
N900 C901 1.351 . S
C901 C895 1.428 . S
C901 N900 1.351 . S
C901 C902 1.434 . S
C902 C893 1.429 . S
C902 N899 1.350 . S
C902 C901 1.434 . S
C903 C904 1.369 . S
C903 C905 1.419 . S
C903 H907 0.930 . S
C904 C903 1.369 . S
C904 C913 1.429 . S
C905 C903 1.419 . S
C905 C906 1.363 . S
C905 H908 0.929 . S
C906 C905 1.363 . S
C906 C912 1.428 . S
H907 C903 0.930 . S
H908 C905 0.929 . S
S909 N910 1.613 . S
S909 N911 1.610 . S
N910 S909 1.613 . S
N910 C913 1.350 . S
N911 S909 1.610 . S
N911 C912 1.351 . S
C912 C906 1.428 . S
C912 N911 1.351 . S
C912 C913 1.434 . S
C913 C904 1.429 . S
C913 N910 1.350 . S
C913 C912 1.434 . S
C914 C915 1.369 1_565 S
C914 C916 1.419 . S
C914 H918 0.930 . S
C915 C914 1.369 1_545 S
C915 C924 1.429 . S
C916 C914 1.419 . S
C916 C917 1.363 . S
C916 H919 0.929 . S
C917 C916 1.363 . S
C917 C923 1.428 1_565 S
H918 C914 0.930 . S
H919 C916 0.929 . S
S920 N921 1.613 . S
S920 N922 1.610 . S
N921 S920 1.613 . S
N921 C924 1.350 . S
N922 S920 1.610 . S
N922 C923 1.351 . S
C923 C917 1.428 1_545 S
C923 N922 1.351 . S
C923 C924 1.434 . S
C924 C915 1.429 . S
C924 N921 1.350 . S
C924 C923 1.434 . S
C925 C926 1.369 . S
C925 C927 1.419 . S
C925 H929 0.930 . S
C926 C925 1.369 . S
C926 C935 1.429 1_554 S
C927 C925 1.419 . S
C927 C928 1.363 1_554 S
C927 H930 0.929 . S
C928 C927 1.363 1_556 S
C928 C934 1.428 . S
H929 C925 0.930 . S
H930 C927 0.929 . S
S931 N932 1.613 . S
S931 N933 1.610 . S
N932 S931 1.613 . S
N932 C935 1.350 . S
N933 S931 1.610 . S
N933 C934 1.351 . S
C934 C928 1.428 . S
C934 N933 1.351 . S
C934 C935 1.434 . S
C935 C926 1.429 1_556 S
C935 N932 1.350 . S
C935 C934 1.434 . S
C936 C937 1.369 . S
C936 C938 1.419 . S
C936 H940 0.930 . S
C937 C936 1.369 . S
C937 C946 1.429 . S
C938 C936 1.419 . S
C938 C939 1.363 . S
C938 H941 0.929 . S
C939 C938 1.363 . S
C939 C945 1.428 . S
H940 C936 0.930 . S
H941 C938 0.929 . S
S942 N943 1.613 . S
S942 N944 1.610 . S
N943 S942 1.613 . S
N943 C946 1.350 . S
N944 S942 1.610 . S
N944 C945 1.351 . S
C945 C939 1.428 . S
C945 N944 1.351 . S
C945 C946 1.434 . S
C946 C937 1.429 . S
C946 N943 1.350 . S
C946 C945 1.434 . S
C947 C948 1.369 . S
C947 C949 1.419 . S
C947 H951 0.930 . S
C948 C947 1.369 . S
C948 C957 1.429 . S
C949 C947 1.419 . S
C949 C950 1.363 . S
C949 H952 0.929 . S
C950 C949 1.363 . S
C950 C956 1.428 . S
H951 C947 0.930 . S
H952 C949 0.929 . S
S953 N954 1.613 . S
S953 N955 1.610 . S
N954 S953 1.613 . S
N954 C957 1.350 . S
N955 S953 1.610 . S
N955 C956 1.351 . S
C956 C950 1.428 . S
C956 N955 1.351 . S
C956 C957 1.434 . S
C957 C948 1.429 . S
C957 N954 1.350 . S
C957 C956 1.434 . S
C958 C959 1.369 . S
C958 C960 1.419 . S
C958 H962 0.930 . S
C959 C958 1.369 . S
C959 C968 1.429 . S
C960 C958 1.419 . S
C960 C961 1.363 . S
C960 H963 0.929 . S
C961 C960 1.363 . S
C961 C967 1.428 . S
H962 C958 0.930 . S
H963 C960 0.929 . S
S964 N965 1.613 . S
S964 N966 1.610 . S
N965 S964 1.613 . S
N965 C968 1.350 . S
N966 S964 1.610 . S
N966 C967 1.351 . S
C967 C961 1.428 . S
C967 N966 1.351 . S
C967 C968 1.434 . S
C968 C959 1.429 . S
C968 N965 1.350 . S
C968 C967 1.434 . S
C969 C970 1.369 . S
C969 C971 1.419 . S
C969 H973 0.930 . S
C970 C969 1.369 . S
C970 C979 1.429 . S
C971 C969 1.419 . S
C971 C972 1.363 . S
C971 H974 0.929 . S
C972 C971 1.363 . S
C972 C978 1.428 . S
H973 C969 0.930 . S
H974 C971 0.929 . S
S975 N976 1.613 . S
S975 N977 1.610 . S
N976 S975 1.613 . S
N976 C979 1.350 . S
N977 S975 1.610 . S
N977 C978 1.351 . S
C978 C972 1.428 . S
C978 N977 1.351 . S
C978 C979 1.434 . S
C979 C970 1.429 . S
C979 N976 1.350 . S
C979 C978 1.434 . S
C980 C981 1.369 . S
C980 C982 1.419 . S
C980 H984 0.930 . S
C981 C980 1.369 . S
C981 C990 1.429 . S
C982 C980 1.419 . S
C982 C983 1.363 . S
C982 H985 0.929 . S
C983 C982 1.363 . S
C983 C989 1.428 . S
H984 C980 0.930 . S
H985 C982 0.929 . S
S986 N987 1.613 . S
S986 N988 1.610 . S
N987 S986 1.613 . S
N987 C990 1.350 . S
N988 S986 1.610 . S
N988 C989 1.351 . S
C989 C983 1.428 . S
C989 N988 1.351 . S
C989 C990 1.434 . S
C990 C981 1.429 . S
C990 N987 1.350 . S
C990 C989 1.434 . S
C991 C992 1.369 . S
C991 C993 1.419 . S
C991 H995 0.930 . S
C992 C991 1.369 . S
C992 C1001 1.429 . S
C993 C991 1.419 . S
C993 C994 1.363 . S
C993 H996 0.929 . S
C994 C993 1.363 . S
C994 C1000 1.428 . S
H995 C991 0.930 . S
H996 C993 0.929 . S
S997 N998 1.613 . S
S997 N999 1.610 . S
N998 S997 1.613 . S
N998 C1001 1.350 . S
N999 S997 1.610 . S
N999 C1000 1.351 . S
C1000 C994 1.428 . S
C1000 N999 1.351 . S
C1000 C1001 1.434 . S
C1001 C992 1.429 . S
C1001 N998 1.350 . S
C1001 C1000 1.434 . S
C1002 C1003 1.369 . S
C1002 C1004 1.419 . S
C1002 H1006 0.930 . S
C1003 C1002 1.369 . S
C1003 C1012 1.429 . S
C1004 C1002 1.419 . S
C1004 C1005 1.363 . S
C1004 H1007 0.929 . S
C1005 C1004 1.363 . S
C1005 C1011 1.428 . S
H1006 C1002 0.930 . S
H1007 C1004 0.929 . S
S1008 N1009 1.613 . S
S1008 N1010 1.610 . S
N1009 S1008 1.613 . S
N1009 C1012 1.350 . S
N1010 S1008 1.610 . S
N1010 C1011 1.351 . S
C1011 C1005 1.428 . S
C1011 N1010 1.351 . S
C1011 C1012 1.434 . S
C1012 C1003 1.429 . S
C1012 N1009 1.350 . S
C1012 C1011 1.434 . S
C1013 C1014 1.369 . S
C1013 C1015 1.419 . S
C1013 H1017 0.930 . S
C1014 C1013 1.369 . S
C1014 C1023 1.429 . S
C1015 C1013 1.419 . S
C1015 C1016 1.363 . S
C1015 H1018 0.929 . S
C1016 C1015 1.363 . S
C1016 C1022 1.428 . S
H1017 C1013 0.930 . S
H1018 C1015 0.929 . S
S1019 N1020 1.613 . S
S1019 N1021 1.610 . S
N1020 S1019 1.613 . S
N1020 C1023 1.350 . S
N1021 S1019 1.610 . S
N1021 C1022 1.351 . S
C1022 C1016 1.428 . S
C1022 N1021 1.351 . S
C1022 C1023 1.434 . S
C1023 C1014 1.429 . S
C1023 N1020 1.350 . S
C1023 C1022 1.434 . S
C1024 C1025 1.369 . S
C1024 C1026 1.419 . S
C1024 H1028 0.930 . S
C1025 C1024 1.369 . S
C1025 C1034 1.429 . S
C1026 C1024 1.419 . S
C1026 C1027 1.363 . S
C1026 H1029 0.929 . S
C1027 C1026 1.363 . S
C1027 C1033 1.428 . S
H1028 C1024 0.930 . S
H1029 C1026 0.929 . S
S1030 N1031 1.613 . S
S1030 N1032 1.610 . S
N1031 S1030 1.613 . S
N1031 C1034 1.350 . S
N1032 S1030 1.610 . S
N1032 C1033 1.351 . S
C1033 C1027 1.428 . S
C1033 N1032 1.351 . S
C1033 C1034 1.434 . S
C1034 C1025 1.429 . S
C1034 N1031 1.350 . S
C1034 C1033 1.434 . S
C1035 C1036 1.369 . S
C1035 C1037 1.419 . S
C1035 H1039 0.930 . S
C1036 C1035 1.369 . S
C1036 C1045 1.429 . S
C1037 C1035 1.419 . S
C1037 C1038 1.363 . S
C1037 H1040 0.929 . S
C1038 C1037 1.363 . S
C1038 C1044 1.428 . S
H1039 C1035 0.930 . S
H1040 C1037 0.929 . S
S1041 N1042 1.613 . S
S1041 N1043 1.610 . S
N1042 S1041 1.613 . S
N1042 C1045 1.350 . S
N1043 S1041 1.610 . S
N1043 C1044 1.351 . S
C1044 C1038 1.428 . S
C1044 N1043 1.351 . S
C1044 C1045 1.434 . S
C1045 C1036 1.429 . S
C1045 N1042 1.350 . S
C1045 C1044 1.434 . S
C1046 C1047 1.369 . S
C1046 C1048 1.419 . S
C1046 H1050 0.930 . S
C1047 C1046 1.369 . S
C1047 C1056 1.429 . S
C1048 C1046 1.419 . S
C1048 C1049 1.363 . S
C1048 H1051 0.929 . S
C1049 C1048 1.363 . S
C1049 C1055 1.428 . S
H1050 C1046 0.930 . S
H1051 C1048 0.929 . S
S1052 N1053 1.613 . S
S1052 N1054 1.610 . S
N1053 S1052 1.613 . S
N1053 C1056 1.350 . S
N1054 S1052 1.610 . S
N1054 C1055 1.351 . S
C1055 C1049 1.428 . S
C1055 N1054 1.351 . S
C1055 C1056 1.434 . S
C1056 C1047 1.429 . S
C1056 N1053 1.350 . S
C1056 C1055 1.434 . S
C1057 C1058 1.369 . S
C1057 C1059 1.419 . S
C1057 H1061 0.930 . S
C1058 C1057 1.369 . S
C1058 C1067 1.429 . S
C1059 C1057 1.419 . S
C1059 C1060 1.363 . S
C1059 H1062 0.929 . S
C1060 C1059 1.363 . S
C1060 C1066 1.428 . S
H1061 C1057 0.930 . S
H1062 C1059 0.929 . S
S1063 N1064 1.613 . S
S1063 N1065 1.610 . S
N1064 S1063 1.613 . S
N1064 C1067 1.350 . S
N1065 S1063 1.610 . S
N1065 C1066 1.351 . S
C1066 C1060 1.428 . S
C1066 N1065 1.351 . S
C1066 C1067 1.434 . S
C1067 C1058 1.429 . S
C1067 N1064 1.350 . S
C1067 C1066 1.434 . S
C1068 C1069 1.369 . S
C1068 C1070 1.419 . S
C1068 H1072 0.930 . S
C1069 C1068 1.369 . S
C1069 C1078 1.429 . S
C1070 C1068 1.419 . S
C1070 C1071 1.363 . S
C1070 H1073 0.929 . S
C1071 C1070 1.363 . S
C1071 C1077 1.428 . S
H1072 C1068 0.930 . S
H1073 C1070 0.929 . S
S1074 N1075 1.613 . S
S1074 N1076 1.610 . S
N1075 S1074 1.613 . S
N1075 C1078 1.350 . S
N1076 S1074 1.610 . S
N1076 C1077 1.351 . S
C1077 C1071 1.428 . S
C1077 N1076 1.351 . S
C1077 C1078 1.434 . S
C1078 C1069 1.429 . S
C1078 N1075 1.350 . S
C1078 C1077 1.434 . S
C1079 C1080 1.369 . S
C1079 C1081 1.419 . S
C1079 H1083 0.930 . S
C1080 C1079 1.369 . S
C1080 C1089 1.429 . S
C1081 C1079 1.419 . S
C1081 C1082 1.363 . S
C1081 H1084 0.929 . S
C1082 C1081 1.363 . S
C1082 C1088 1.428 . S
H1083 C1079 0.930 . S
H1084 C1081 0.929 . S
S1085 N1086 1.613 . S
S1085 N1087 1.610 . S
N1086 S1085 1.613 . S
N1086 C1089 1.350 . S
N1087 S1085 1.610 . S
N1087 C1088 1.351 . S
C1088 C1082 1.428 . S
C1088 N1087 1.351 . S
C1088 C1089 1.434 . S
C1089 C1080 1.429 . S
C1089 N1086 1.350 . S
C1089 C1088 1.434 . S
C1090 C1091 1.369 . S
C1090 C1092 1.419 . S
C1090 H1094 0.930 . S
C1091 C1090 1.369 . S
C1091 C1100 1.429 . S
C1092 C1090 1.419 . S
C1092 C1093 1.363 . S
C1092 H1095 0.929 . S
C1093 C1092 1.363 . S
C1093 C1099 1.428 . S
H1094 C1090 0.930 . S
H1095 C1092 0.929 . S
S1096 N1097 1.613 . S
S1096 N1098 1.610 . S
N1097 S1096 1.613 . S
N1097 C1100 1.350 . S
N1098 S1096 1.610 . S
N1098 C1099 1.351 . S
C1099 C1093 1.428 . S
C1099 N1098 1.351 . S
C1099 C1100 1.434 . S
C1100 C1091 1.429 . S
C1100 N1097 1.350 . S
C1100 C1099 1.434 . S
C1101 C1102 1.369 . S
C1101 C1103 1.419 . S
C1101 H1105 0.930 . S
C1102 C1101 1.369 . S
C1102 C1111 1.429 . S
C1103 C1101 1.419 . S
C1103 C1104 1.363 . S
C1103 H1106 0.929 . S
C1104 C1103 1.363 . S
C1104 C1110 1.428 . S
H1105 C1101 0.930 . S
H1106 C1103 0.929 . S
S1107 N1108 1.613 . S
S1107 N1109 1.610 . S
N1108 S1107 1.613 . S
N1108 C1111 1.350 . S
N1109 S1107 1.610 . S
N1109 C1110 1.351 . S
C1110 C1104 1.428 . S
C1110 N1109 1.351 . S
C1110 C1111 1.434 . S
C1111 C1102 1.429 . S
C1111 N1108 1.350 . S
C1111 C1110 1.434 . S
C1112 C1113 1.369 . S
C1112 C1114 1.419 . S
C1112 H1116 0.930 . S
C1113 C1112 1.369 . S
C1113 C1122 1.429 . S
C1114 C1112 1.419 . S
C1114 C1115 1.363 . S
C1114 H1117 0.929 . S
C1115 C1114 1.363 . S
C1115 C1121 1.428 . S
H1116 C1112 0.930 . S
H1117 C1114 0.929 . S
S1118 N1119 1.613 . S
S1118 N1120 1.610 . S
N1119 S1118 1.613 . S
N1119 C1122 1.350 . S
N1120 S1118 1.610 . S
N1120 C1121 1.351 . S
C1121 C1115 1.428 . S
C1121 N1120 1.351 . S
C1121 C1122 1.434 . S
C1122 C1113 1.429 . S
C1122 N1119 1.350 . S
C1122 C1121 1.434 . S
C1123 C1124 1.369 . S
C1123 C1125 1.419 . S
C1123 H1127 0.930 . S
C1124 C1123 1.369 . S
C1124 C1133 1.429 . S
C1125 C1123 1.419 . S
C1125 C1126 1.363 . S
C1125 H1128 0.929 . S
C1126 C1125 1.363 . S
C1126 C1132 1.428 . S
H1127 C1123 0.930 . S
H1128 C1125 0.929 . S
S1129 N1130 1.613 . S
S1129 N1131 1.610 . S
N1130 S1129 1.613 . S
N1130 C1133 1.350 . S
N1131 S1129 1.610 . S
N1131 C1132 1.351 . S
C1132 C1126 1.428 . S
C1132 N1131 1.351 . S
C1132 C1133 1.434 . S
C1133 C1124 1.429 . S
C1133 N1130 1.350 . S
C1133 C1132 1.434 . S
C1134 C1135 1.369 . S
C1134 C1136 1.419 . S
C1134 H1138 0.930 . S
C1135 C1134 1.369 . S
C1135 C1144 1.429 . S
C1136 C1134 1.419 . S
C1136 C1137 1.363 . S
C1136 H1139 0.929 . S
C1137 C1136 1.363 . S
C1137 C1143 1.428 . S
H1138 C1134 0.930 . S
H1139 C1136 0.929 . S
S1140 N1141 1.613 . S
S1140 N1142 1.610 . S
N1141 S1140 1.613 . S
N1141 C1144 1.350 . S
N1142 S1140 1.610 . S
N1142 C1143 1.351 . S
C1143 C1137 1.428 . S
C1143 N1142 1.351 . S
C1143 C1144 1.434 . S
C1144 C1135 1.429 . S
C1144 N1141 1.350 . S
C1144 C1143 1.434 . S
C1145 C1146 1.369 . S
C1145 C1147 1.419 . S
C1145 H1149 0.930 . S
C1146 C1145 1.369 . S
C1146 C1155 1.429 . S
C1147 C1145 1.419 . S
C1147 C1148 1.363 . S
C1147 H1150 0.929 . S
C1148 C1147 1.363 . S
C1148 C1154 1.428 . S
H1149 C1145 0.930 . S
H1150 C1147 0.929 . S
S1151 N1152 1.613 . S
S1151 N1153 1.610 . S
N1152 S1151 1.613 . S
N1152 C1155 1.350 . S
N1153 S1151 1.610 . S
N1153 C1154 1.351 . S
C1154 C1148 1.428 . S
C1154 N1153 1.351 . S
C1154 C1155 1.434 . S
C1155 C1146 1.429 . S
C1155 N1152 1.350 . S
C1155 C1154 1.434 . S
C1156 C1157 1.369 . S
C1156 C1158 1.419 . S
C1156 H1160 0.930 . S
C1157 C1156 1.369 . S
C1157 C1166 1.429 . S
C1158 C1156 1.419 . S
C1158 C1159 1.363 . S
C1158 H1161 0.929 . S
C1159 C1158 1.363 . S
C1159 C1165 1.428 . S
H1160 C1156 0.930 . S
H1161 C1158 0.929 . S
S1162 N1163 1.613 . S
S1162 N1164 1.610 . S
N1163 S1162 1.613 . S
N1163 C1166 1.350 . S
N1164 S1162 1.610 . S
N1164 C1165 1.351 . S
C1165 C1159 1.428 . S
C1165 N1164 1.351 . S
C1165 C1166 1.434 . S
C1166 C1157 1.429 . S
C1166 N1163 1.350 . S
C1166 C1165 1.434 . S
C1167 C1168 1.369 . S
C1167 C1169 1.419 . S
C1167 H1171 0.930 . S
C1168 C1167 1.369 . S
C1168 C1177 1.429 . S
C1169 C1167 1.419 . S
C1169 C1170 1.363 . S
C1169 H1172 0.929 . S
C1170 C1169 1.363 . S
C1170 C1176 1.428 . S
H1171 C1167 0.930 . S
H1172 C1169 0.929 . S
S1173 N1174 1.613 . S
S1173 N1175 1.610 . S
N1174 S1173 1.613 . S
N1174 C1177 1.350 . S
N1175 S1173 1.610 . S
N1175 C1176 1.351 . S
C1176 C1170 1.428 . S
C1176 N1175 1.351 . S
C1176 C1177 1.434 . S
C1177 C1168 1.429 . S
C1177 N1174 1.350 . S
C1177 C1176 1.434 . S
C1178 C1179 1.369 . S
C1178 C1180 1.419 . S
C1178 H1182 0.930 . S
C1179 C1178 1.369 . S
C1179 C1188 1.429 . S
C1180 C1178 1.419 . S
C1180 C1181 1.363 . S
C1180 H1183 0.929 . S
C1181 C1180 1.363 . S
C1181 C1187 1.428 . S
H1182 C1178 0.930 . S
H1183 C1180 0.929 . S
S1184 N1185 1.613 . S
S1184 N1186 1.610 . S
N1185 S1184 1.613 . S
N1185 C1188 1.350 . S
N1186 S1184 1.610 . S
N1186 C1187 1.351 . S
C1187 C1181 1.428 . S
C1187 N1186 1.351 . S
C1187 C1188 1.434 . S
C1188 C1179 1.429 . S
C1188 N1185 1.350 . S
C1188 C1187 1.434 . S
C1189 C1190 1.369 . S
C1189 C1191 1.419 . S
C1189 H1193 0.930 . S
C1190 C1189 1.369 . S
C1190 C1199 1.429 . S
C1191 C1189 1.419 . S
C1191 C1192 1.363 . S
C1191 H1194 0.929 . S
C1192 C1191 1.363 . S
C1192 C1198 1.428 . S
H1193 C1189 0.930 . S
H1194 C1191 0.929 . S
S1195 N1196 1.613 . S
S1195 N1197 1.610 . S
N1196 S1195 1.613 . S
N1196 C1199 1.350 . S
N1197 S1195 1.610 . S
N1197 C1198 1.351 . S
C1198 C1192 1.428 . S
C1198 N1197 1.351 . S
C1198 C1199 1.434 . S
C1199 C1190 1.429 . S
C1199 N1196 1.350 . S
C1199 C1198 1.434 . S
C1200 C1201 1.369 . S
C1200 C1202 1.419 . S
C1200 H1204 0.930 . S
C1201 C1200 1.369 . S
C1201 C1210 1.429 . S
C1202 C1200 1.419 . S
C1202 C1203 1.363 . S
C1202 H1205 0.929 . S
C1203 C1202 1.363 . S
C1203 C1209 1.428 . S
H1204 C1200 0.930 . S
H1205 C1202 0.929 . S
S1206 N1207 1.613 . S
S1206 N1208 1.610 . S
N1207 S1206 1.613 . S
N1207 C1210 1.350 . S
N1208 S1206 1.610 . S
N1208 C1209 1.351 . S
C1209 C1203 1.428 . S
C1209 N1208 1.351 . S
C1209 C1210 1.434 . S
C1210 C1201 1.429 . S
C1210 N1207 1.350 . S
C1210 C1209 1.434 . S
C1211 C1212 1.369 . S
C1211 C1213 1.419 . S
C1211 H1215 0.930 . S
C1212 C1211 1.369 . S
C1212 C1221 1.429 . S
C1213 C1211 1.419 . S
C1213 C1214 1.363 . S
C1213 H1216 0.929 . S
C1214 C1213 1.363 . S
C1214 C1220 1.428 . S
H1215 C1211 0.930 . S
H1216 C1213 0.929 . S
S1217 N1218 1.613 . S
S1217 N1219 1.610 . S
N1218 S1217 1.613 . S
N1218 C1221 1.350 . S
N1219 S1217 1.610 . S
N1219 C1220 1.351 . S
C1220 C1214 1.428 . S
C1220 N1219 1.351 . S
C1220 C1221 1.434 . S
C1221 C1212 1.429 . S
C1221 N1218 1.350 . S
C1221 C1220 1.434 . S
C1222 C1223 1.369 . S
C1222 C1224 1.419 . S
C1222 H1226 0.930 . S
C1223 C1222 1.369 . S
C1223 C1232 1.429 . S
C1224 C1222 1.419 . S
C1224 C1225 1.363 . S
C1224 H1227 0.929 . S
C1225 C1224 1.363 . S
C1225 C1231 1.428 . S
H1226 C1222 0.930 . S
H1227 C1224 0.929 . S
S1228 N1229 1.613 . S
S1228 N1230 1.610 . S
N1229 S1228 1.613 . S
N1229 C1232 1.350 . S
N1230 S1228 1.610 . S
N1230 C1231 1.351 . S
C1231 C1225 1.428 . S
C1231 N1230 1.351 . S
C1231 C1232 1.434 . S
C1232 C1223 1.429 . S
C1232 N1229 1.350 . S
C1232 C1231 1.434 . S
C1233 C1234 1.369 . S
C1233 C1235 1.419 . S
C1233 H1237 0.930 . S
C1234 C1233 1.369 . S
C1234 C1243 1.429 . S
C1235 C1233 1.419 . S
C1235 C1236 1.363 . S
C1235 H1238 0.929 . S
C1236 C1235 1.363 . S
C1236 C1242 1.428 . S
H1237 C1233 0.930 . S
H1238 C1235 0.929 . S
S1239 N1240 1.613 . S
S1239 N1241 1.610 . S
N1240 S1239 1.613 . S
N1240 C1243 1.350 . S
N1241 S1239 1.610 . S
N1241 C1242 1.351 . S
C1242 C1236 1.428 . S
C1242 N1241 1.351 . S
C1242 C1243 1.434 . S
C1243 C1234 1.429 . S
C1243 N1240 1.350 . S
C1243 C1242 1.434 . S
C1244 C1245 1.369 . S
C1244 C1246 1.419 . S
C1244 H1248 0.930 . S
C1245 C1244 1.369 . S
C1245 C1254 1.429 . S
C1246 C1244 1.419 . S
C1246 C1247 1.363 . S
C1246 H1249 0.929 . S
C1247 C1246 1.363 . S
C1247 C1253 1.428 . S
H1248 C1244 0.930 . S
H1249 C1246 0.929 . S
S1250 N1251 1.613 . S
S1250 N1252 1.610 . S
N1251 S1250 1.613 . S
N1251 C1254 1.350 . S
N1252 S1250 1.610 . S
N1252 C1253 1.351 . S
C1253 C1247 1.428 . S
C1253 N1252 1.351 . S
C1253 C1254 1.434 . S
C1254 C1245 1.429 . S
C1254 N1251 1.350 . S
C1254 C1253 1.434 . S
C1255 C1256 1.369 . S
C1255 C1257 1.419 . S
C1255 H1259 0.930 . S
C1256 C1255 1.369 . S
C1256 C1265 1.429 . S
C1257 C1255 1.419 . S
C1257 C1258 1.363 . S
C1257 H1260 0.929 . S
C1258 C1257 1.363 . S
C1258 C1264 1.428 . S
H1259 C1255 0.930 . S
H1260 C1257 0.929 . S
S1261 N1262 1.613 . S
S1261 N1263 1.610 . S
N1262 S1261 1.613 . S
N1262 C1265 1.350 . S
N1263 S1261 1.610 . S
N1263 C1264 1.351 . S
C1264 C1258 1.428 . S
C1264 N1263 1.351 . S
C1264 C1265 1.434 . S
C1265 C1256 1.429 . S
C1265 N1262 1.350 . S
C1265 C1264 1.434 . S
C1266 C1267 1.369 . S
C1266 C1268 1.419 . S
C1266 H1270 0.930 . S
C1267 C1266 1.369 . S
C1267 C1276 1.429 . S
C1268 C1266 1.419 . S
C1268 C1269 1.363 . S
C1268 H1271 0.929 . S
C1269 C1268 1.363 . S
C1269 C1275 1.428 . S
H1270 C1266 0.930 . S
H1271 C1268 0.929 . S
S1272 N1273 1.613 . S
S1272 N1274 1.610 . S
N1273 S1272 1.613 . S
N1273 C1276 1.350 . S
N1274 S1272 1.610 . S
N1274 C1275 1.351 . S
C1275 C1269 1.428 . S
C1275 N1274 1.351 . S
C1275 C1276 1.434 . S
C1276 C1267 1.429 . S
C1276 N1273 1.350 . S
C1276 C1275 1.434 . S
C1277 C1278 1.369 . S
C1277 C1279 1.419 . S
C1277 H1281 0.930 . S
C1278 C1277 1.369 . S
C1278 C1287 1.429 . S
C1279 C1277 1.419 . S
C1279 C1280 1.363 . S
C1279 H1282 0.929 . S
C1280 C1279 1.363 . S
C1280 C1286 1.428 . S
H1281 C1277 0.930 . S
H1282 C1279 0.929 . S
S1283 N1284 1.613 . S
S1283 N1285 1.610 . S
N1284 S1283 1.613 . S
N1284 C1287 1.350 . S
N1285 S1283 1.610 . S
N1285 C1286 1.351 . S
C1286 C1280 1.428 . S
C1286 N1285 1.351 . S
C1286 C1287 1.434 . S
C1287 C1278 1.429 . S
C1287 N1284 1.350 . S
C1287 C1286 1.434 . S
C1288 C1289 1.369 . S
C1288 C1290 1.419 . S
C1288 H1292 0.930 . S
C1289 C1288 1.369 . S
C1289 C1298 1.429 . S
C1290 C1288 1.419 . S
C1290 C1291 1.363 . S
C1290 H1293 0.929 . S
C1291 C1290 1.363 . S
C1291 C1297 1.428 . S
H1292 C1288 0.930 . S
H1293 C1290 0.929 . S
S1294 N1295 1.613 . S
S1294 N1296 1.610 . S
N1295 S1294 1.613 . S
N1295 C1298 1.350 . S
N1296 S1294 1.610 . S
N1296 C1297 1.351 . S
C1297 C1291 1.428 . S
C1297 N1296 1.351 . S
C1297 C1298 1.434 . S
C1298 C1289 1.429 . S
C1298 N1295 1.350 . S
C1298 C1297 1.434 . S
C1299 C1300 1.369 . S
C1299 C1301 1.419 . S
C1299 H1303 0.930 . S
C1300 C1299 1.369 . S
C1300 C1309 1.429 . S
C1301 C1299 1.419 . S
C1301 C1302 1.363 . S
C1301 H1304 0.929 . S
C1302 C1301 1.363 . S
C1302 C1308 1.428 . S
H1303 C1299 0.930 . S
H1304 C1301 0.929 . S
S1305 N1306 1.613 . S
S1305 N1307 1.610 . S
N1306 S1305 1.613 . S
N1306 C1309 1.350 . S
N1307 S1305 1.610 . S
N1307 C1308 1.351 . S
C1308 C1302 1.428 . S
C1308 N1307 1.351 . S
C1308 C1309 1.434 . S
C1309 C1300 1.429 . S
C1309 N1306 1.350 . S
C1309 C1308 1.434 . S
C1310 C1311 1.369 . S
C1310 C1312 1.419 . S
C1310 H1314 0.930 . S
C1311 C1310 1.369 . S
C1311 C1320 1.429 . S
C1312 C1310 1.419 . S
C1312 C1313 1.363 . S
C1312 H1315 0.929 . S
C1313 C1312 1.363 . S
C1313 C1319 1.428 . S
H1314 C1310 0.930 . S
H1315 C1312 0.929 . S
S1316 N1317 1.613 . S
S1316 N1318 1.610 . S
N1317 S1316 1.613 . S
N1317 C1320 1.350 . S
N1318 S1316 1.610 . S
N1318 C1319 1.351 . S
C1319 C1313 1.428 . S
C1319 N1318 1.351 . S
C1319 C1320 1.434 . S
C1320 C1311 1.429 . S
C1320 N1317 1.350 . S
C1320 C1319 1.434 . S
C1321 C1322 1.369 . S
C1321 C1323 1.419 . S
C1321 H1325 0.930 . S
C1322 C1321 1.369 . S
C1322 C1331 1.429 . S
C1323 C1321 1.419 . S
C1323 C1324 1.363 . S
C1323 H1326 0.929 . S
C1324 C1323 1.363 . S
C1324 C1330 1.428 . S
H1325 C1321 0.930 . S
H1326 C1323 0.929 . S
S1327 N1328 1.613 . S
S1327 N1329 1.610 . S
N1328 S1327 1.613 . S
N1328 C1331 1.350 . S
N1329 S1327 1.610 . S
N1329 C1330 1.351 . S
C1330 C1324 1.428 . S
C1330 N1329 1.351 . S
C1330 C1331 1.434 . S
C1331 C1322 1.429 . S
C1331 N1328 1.350 . S
C1331 C1330 1.434 . S
C1332 C1333 1.369 . S
C1332 C1334 1.419 . S
C1332 H1336 0.930 . S
C1333 C1332 1.369 . S
C1333 C1342 1.429 . S
C1334 C1332 1.419 . S
C1334 C1335 1.363 . S
C1334 H1337 0.929 . S
C1335 C1334 1.363 . S
C1335 C1341 1.428 . S
H1336 C1332 0.930 . S
H1337 C1334 0.929 . S
S1338 N1339 1.613 . S
S1338 N1340 1.610 . S
N1339 S1338 1.613 . S
N1339 C1342 1.350 . S
N1340 S1338 1.610 . S
N1340 C1341 1.351 . S
C1341 C1335 1.428 . S
C1341 N1340 1.351 . S
C1341 C1342 1.434 . S
C1342 C1333 1.429 . S
C1342 N1339 1.350 . S
C1342 C1341 1.434 . S
C1343 C1344 1.369 . S
C1343 C1345 1.419 . S
C1343 H1347 0.930 . S
C1344 C1343 1.369 . S
C1344 C1353 1.429 . S
C1345 C1343 1.419 . S
C1345 C1346 1.363 . S
C1345 H1348 0.929 . S
C1346 C1345 1.363 . S
C1346 C1352 1.428 . S
H1347 C1343 0.930 . S
H1348 C1345 0.929 . S
S1349 N1350 1.613 . S
S1349 N1351 1.610 . S
N1350 S1349 1.613 . S
N1350 C1353 1.350 . S
N1351 S1349 1.610 . S
N1351 C1352 1.351 . S
C1352 C1346 1.428 . S
C1352 N1351 1.351 . S
C1352 C1353 1.434 . S
C1353 C1344 1.429 . S
C1353 N1350 1.350 . S
C1353 C1352 1.434 . S
C1354 C1355 1.369 . S
C1354 C1356 1.419 . S
C1354 H1358 0.930 . S
C1355 C1354 1.369 . S
C1355 C1364 1.429 . S
C1356 C1354 1.419 . S
C1356 C1357 1.363 . S
C1356 H1359 0.929 . S
C1357 C1356 1.363 . S
C1357 C1363 1.428 . S
H1358 C1354 0.930 . S
H1359 C1356 0.929 . S
S1360 N1361 1.613 . S
S1360 N1362 1.610 . S
N1361 S1360 1.613 . S
N1361 C1364 1.350 . S
N1362 S1360 1.610 . S
N1362 C1363 1.351 . S
C1363 C1357 1.428 . S
C1363 N1362 1.351 . S
C1363 C1364 1.434 . S
C1364 C1355 1.429 . S
C1364 N1361 1.350 . S
C1364 C1363 1.434 . S
C1365 C1366 1.369 . S
C1365 C1367 1.419 . S
C1365 H1369 0.930 . S
C1366 C1365 1.369 . S
C1366 C1375 1.429 . S
C1367 C1365 1.419 . S
C1367 C1368 1.363 . S
C1367 H1370 0.929 . S
C1368 C1367 1.363 . S
C1368 C1374 1.428 . S
H1369 C1365 0.930 . S
H1370 C1367 0.929 . S
S1371 N1372 1.613 . S
S1371 N1373 1.610 . S
N1372 S1371 1.613 . S
N1372 C1375 1.350 . S
N1373 S1371 1.610 . S
N1373 C1374 1.351 . S
C1374 C1368 1.428 . S
C1374 N1373 1.351 . S
C1374 C1375 1.434 . S
C1375 C1366 1.429 . S
C1375 N1372 1.350 . S
C1375 C1374 1.434 . S
C1376 C1377 1.369 . S
C1376 C1378 1.419 . S
C1376 H1380 0.930 . S
C1377 C1376 1.369 . S
C1377 C1386 1.429 . S
C1378 C1376 1.419 . S
C1378 C1379 1.363 . S
C1378 H1381 0.929 . S
C1379 C1378 1.363 . S
C1379 C1385 1.428 . S
H1380 C1376 0.930 . S
H1381 C1378 0.929 . S
S1382 N1383 1.613 . S
S1382 N1384 1.610 . S
N1383 S1382 1.613 . S
N1383 C1386 1.350 . S
N1384 S1382 1.610 . S
N1384 C1385 1.351 . S
C1385 C1379 1.428 . S
C1385 N1384 1.351 . S
C1385 C1386 1.434 . S
C1386 C1377 1.429 . S
C1386 N1383 1.350 . S
C1386 C1385 1.434 . S
C1387 C1388 1.369 . S
C1387 C1389 1.419 . S
C1387 H1391 0.930 . S
C1388 C1387 1.369 . S
C1388 C1397 1.429 . S
C1389 C1387 1.419 . S
C1389 C1390 1.363 . S
C1389 H1392 0.929 . S
C1390 C1389 1.363 . S
C1390 C1396 1.428 . S
H1391 C1387 0.930 . S
H1392 C1389 0.929 . S
S1393 N1394 1.613 . S
S1393 N1395 1.610 . S
N1394 S1393 1.613 . S
N1394 C1397 1.350 . S
N1395 S1393 1.610 . S
N1395 C1396 1.351 . S
C1396 C1390 1.428 . S
C1396 N1395 1.351 . S
C1396 C1397 1.434 . S
C1397 C1388 1.429 . S
C1397 N1394 1.350 . S
C1397 C1396 1.434 . S
C1398 C1399 1.369 . S
C1398 C1400 1.419 . S
C1398 H1402 0.930 . S
C1399 C1398 1.369 . S
C1399 C1408 1.429 . S
C1400 C1398 1.419 . S
C1400 C1401 1.363 . S
C1400 H1403 0.929 . S
C1401 C1400 1.363 . S
C1401 C1407 1.428 . S
H1402 C1398 0.930 . S
H1403 C1400 0.929 . S
S1404 N1405 1.613 . S
S1404 N1406 1.610 . S
N1405 S1404 1.613 . S
N1405 C1408 1.350 . S
N1406 S1404 1.610 . S
N1406 C1407 1.351 . S
C1407 C1401 1.428 . S
C1407 N1406 1.351 . S
C1407 C1408 1.434 . S
C1408 C1399 1.429 . S
C1408 N1405 1.350 . S
C1408 C1407 1.434 . S
C1409 C1410 1.369 . S
C1409 C1411 1.419 . S
C1409 H1413 0.930 . S
C1410 C1409 1.369 . S
C1410 C1419 1.429 . S
C1411 C1409 1.419 . S
C1411 C1412 1.363 . S
C1411 H1414 0.929 . S
C1412 C1411 1.363 . S
C1412 C1418 1.428 . S
H1413 C1409 0.930 . S
H1414 C1411 0.929 . S
S1415 N1416 1.613 . S
S1415 N1417 1.610 . S
N1416 S1415 1.613 . S
N1416 C1419 1.350 . S
N1417 S1415 1.610 . S
N1417 C1418 1.351 . S
C1418 C1412 1.428 . S
C1418 N1417 1.351 . S
C1418 C1419 1.434 . S
C1419 C1410 1.429 . S
C1419 N1416 1.350 . S
C1419 C1418 1.434 . S
C1420 C1421 1.369 . S
C1420 C1422 1.419 . S
C1420 H1424 0.930 . S
C1421 C1420 1.369 . S
C1421 C1430 1.429 . S
C1422 C1420 1.419 . S
C1422 C1423 1.363 . S
C1422 H1425 0.929 . S
C1423 C1422 1.363 . S
C1423 C1429 1.428 . S
H1424 C1420 0.930 . S
H1425 C1422 0.929 . S
S1426 N1427 1.613 . S
S1426 N1428 1.610 . S
N1427 S1426 1.613 . S
N1427 C1430 1.350 . S
N1428 S1426 1.610 . S
N1428 C1429 1.351 . S
C1429 C1423 1.428 . S
C1429 N1428 1.351 . S
C1429 C1430 1.434 . S
C1430 C1421 1.429 . S
C1430 N1427 1.350 . S
C1430 C1429 1.434 . S
C1431 C1432 1.369 . S
C1431 C1433 1.419 . S
C1431 H1435 0.930 . S
C1432 C1431 1.369 . S
C1432 C1441 1.429 . S
C1433 C1431 1.419 . S
C1433 C1434 1.363 . S
C1433 H1436 0.929 . S
C1434 C1433 1.363 . S
C1434 C1440 1.428 . S
H1435 C1431 0.930 . S
H1436 C1433 0.929 . S
S1437 N1438 1.613 . S
S1437 N1439 1.610 . S
N1438 S1437 1.613 . S
N1438 C1441 1.350 . S
N1439 S1437 1.610 . S
N1439 C1440 1.351 . S
C1440 C1434 1.428 . S
C1440 N1439 1.351 . S
C1440 C1441 1.434 . S
C1441 C1432 1.429 . S
C1441 N1438 1.350 . S
C1441 C1440 1.434 . S
C1442 C1443 1.369 . S
C1442 C1444 1.419 . S
C1442 H1446 0.930 . S
C1443 C1442 1.369 . S
C1443 C1452 1.429 . S
C1444 C1442 1.419 . S
C1444 C1445 1.363 . S
C1444 H1447 0.929 . S
C1445 C1444 1.363 . S
C1445 C1451 1.428 . S
H1446 C1442 0.930 . S
H1447 C1444 0.929 . S
S1448 N1449 1.613 . S
S1448 N1450 1.610 . S
N1449 S1448 1.613 . S
N1449 C1452 1.350 . S
N1450 S1448 1.610 . S
N1450 C1451 1.351 . S
C1451 C1445 1.428 . S
C1451 N1450 1.351 . S
C1451 C1452 1.434 . S
C1452 C1443 1.429 . S
C1452 N1449 1.350 . S
C1452 C1451 1.434 . S
C1453 C1454 1.369 . S
C1453 C1455 1.419 . S
C1453 H1457 0.930 . S
C1454 C1453 1.369 . S
C1454 C1463 1.429 . S
C1455 C1453 1.419 . S
C1455 C1456 1.363 . S
C1455 H1458 0.929 . S
C1456 C1455 1.363 . S
C1456 C1462 1.428 . S
H1457 C1453 0.930 . S
H1458 C1455 0.929 . S
S1459 N1460 1.613 . S
S1459 N1461 1.610 . S
N1460 S1459 1.613 . S
N1460 C1463 1.350 . S
N1461 S1459 1.610 . S
N1461 C1462 1.351 . S
C1462 C1456 1.428 . S
C1462 N1461 1.351 . S
C1462 C1463 1.434 . S
C1463 C1454 1.429 . S
C1463 N1460 1.350 . S
C1463 C1462 1.434 . S
C1464 C1465 1.369 . S
C1464 C1466 1.419 . S
C1464 H1468 0.930 1_455 S
C1465 C1464 1.369 . S
C1465 C1474 1.429 . S
C1466 C1464 1.419 . S
C1466 C1467 1.363 . S
C1466 H1469 0.929 1_455 S
C1467 C1466 1.363 . S
C1467 C1473 1.428 . S
H1468 C1464 0.930 1_655 S
H1469 C1466 0.929 1_655 S
S1470 N1471 1.613 . S
S1470 N1472 1.610 . S
N1471 S1470 1.613 . S
N1471 C1474 1.350 . S
N1472 S1470 1.610 . S
N1472 C1473 1.351 . S
C1473 C1467 1.428 . S
C1473 N1472 1.351 . S
C1473 C1474 1.434 . S
C1474 C1465 1.429 . S
C1474 N1471 1.350 . S
C1474 C1473 1.434 . S
C1475 C1476 1.369 . S
C1475 C1477 1.419 1_565 S
C1475 H1479 0.930 . S
C1476 C1475 1.369 . S
C1476 C1485 1.429 . S
C1477 C1475 1.419 1_545 S
C1477 C1478 1.363 . S
C1477 H1480 0.929 . S
C1478 C1477 1.363 . S
C1478 C1484 1.428 . S
H1479 C1475 0.930 . S
H1480 C1477 0.929 . S
S1481 N1482 1.613 1_545 S
S1481 N1483 1.610 . S
N1482 S1481 1.613 1_565 S
N1482 C1485 1.350 1_455 S
N1483 S1481 1.610 . S
N1483 C1484 1.351 1_455 S
C1484 C1478 1.428 . S
C1484 N1483 1.351 1_655 S
C1484 C1485 1.434 1_545 S
C1485 C1476 1.429 . S
C1485 N1482 1.350 1_655 S
C1485 C1484 1.434 1_565 S
C1486 C1487 1.369 . S
C1486 C1488 1.419 . S
C1486 H1490 0.930 . S
C1487 C1486 1.369 . S
C1487 C1496 1.429 . S
C1488 C1486 1.419 . S
C1488 C1489 1.363 . S
C1488 H1491 0.929 . S
C1489 C1488 1.363 . S
C1489 C1495 1.428 . S
H1490 C1486 0.930 . S
H1491 C1488 0.929 . S
S1492 N1493 1.613 . S
S1492 N1494 1.610 . S
N1493 S1492 1.613 . S
N1493 C1496 1.350 1_565 S
N1494 S1492 1.610 . S
N1494 C1495 1.351 1_565 S
C1495 C1489 1.428 . S
C1495 N1494 1.351 1_545 S
C1495 C1496 1.434 . S
C1496 C1487 1.429 . S
C1496 N1493 1.350 1_545 S
C1496 C1495 1.434 . S
C1497 C1498 1.369 . S
C1497 C1499 1.419 . S
C1497 H1501 0.930 . S
C1498 C1497 1.369 . S
C1498 C1507 1.429 . S
C1499 C1497 1.419 . S
C1499 C1500 1.363 . S
C1499 H1502 0.929 . S
C1500 C1499 1.363 . S
C1500 C1506 1.428 . S
H1501 C1497 0.930 . S
H1502 C1499 0.929 . S
S1503 N1504 1.613 . S
S1503 N1505 1.610 . S
N1504 S1503 1.613 . S
N1504 C1507 1.350 . S
N1505 S1503 1.610 . S
N1505 C1506 1.351 . S
C1506 C1500 1.428 . S
C1506 N1505 1.351 . S
C1506 C1507 1.434 . S
C1507 C1498 1.429 . S
C1507 N1504 1.350 . S
C1507 C1506 1.434 . S
C1508 C1509 1.369 . S
C1508 C1510 1.419 1_556 S
C1508 H1512 0.930 . S
C1509 C1508 1.369 . S
C1509 C1518 1.429 . S
C1510 C1508 1.419 1_554 S
C1510 C1511 1.363 . S
C1510 H1513 0.929 . S
C1511 C1510 1.363 . S
C1511 C1517 1.428 . S
H1512 C1508 0.930 . S
H1513 C1510 0.929 . S
S1514 N1515 1.613 . S
S1514 N1516 1.610 . S
N1515 S1514 1.613 . S
N1515 C1518 1.350 . S
N1516 S1514 1.610 . S
N1516 C1517 1.351 1_556 S
C1517 C1511 1.428 . S
C1517 N1516 1.351 1_554 S
C1517 C1518 1.434 1_554 S
C1518 C1509 1.429 . S
C1518 N1515 1.350 . S
C1518 C1517 1.434 1_556 S
C1519 C1520 1.369 . S
C1519 C1521 1.419 1_554 S
C1519 H1523 0.930 . S
C1520 C1519 1.369 . S
C1520 C1529 1.429 . S
C1521 C1519 1.419 1_556 S
C1521 C1522 1.363 . S
C1521 H1524 0.929 . S
C1522 C1521 1.363 . S
C1522 C1528 1.428 . S
H1523 C1519 0.930 . S
H1524 C1521 0.929 . S
S1525 N1526 1.613 1_556 S
S1525 N1527 1.610 . S
N1526 S1525 1.613 1_554 S
N1526 C1529 1.350 . S
N1527 S1525 1.610 . S
N1527 C1528 1.351 . S
C1528 C1522 1.428 . S
C1528 N1527 1.351 . S
C1528 C1529 1.434 1_556 S
C1529 C1520 1.429 . S
C1529 N1526 1.350 . S
C1529 C1528 1.434 1_554 S
C1530 C1531 1.369 . S
C1530 C1532 1.419 . S
C1530 H1534 0.930 . S
C1531 C1530 1.369 . S
C1531 C1540 1.429 . S
C1532 C1530 1.419 . S
C1532 C1533 1.363 . S
C1532 H1535 0.929 . S
C1533 C1532 1.363 . S
C1533 C1539 1.428 . S
H1534 C1530 0.930 . S
H1535 C1532 0.929 . S
S1536 N1537 1.613 . S
S1536 N1538 1.610 . S
N1537 S1536 1.613 . S
N1537 C1540 1.350 . S
N1538 S1536 1.610 . S
N1538 C1539 1.351 . S
C1539 C1533 1.428 . S
C1539 N1538 1.351 . S
C1539 C1540 1.434 . S
C1540 C1531 1.429 . S
C1540 N1537 1.350 . S
C1540 C1539 1.434 . S
C1541 C1542 1.369 . S
C1541 C1543 1.419 . S
C1541 H1545 0.930 . S
C1542 C1541 1.369 . S
C1542 C1551 1.429 . S
C1543 C1541 1.419 . S
C1543 C1544 1.363 . S
C1543 H1546 0.929 . S
C1544 C1543 1.363 . S
C1544 C1550 1.428 . S
H1545 C1541 0.930 . S
H1546 C1543 0.929 . S
S1547 N1548 1.613 . S
S1547 N1549 1.610 . S
N1548 S1547 1.613 . S
N1548 C1551 1.350 . S
N1549 S1547 1.610 . S
N1549 C1550 1.351 . S
C1550 C1544 1.428 . S
C1550 N1549 1.351 . S
C1550 C1551 1.434 . S
C1551 C1542 1.429 . S
C1551 N1548 1.350 . S
C1551 C1550 1.434 . S
C1552 C1553 1.369 . S
C1552 C1554 1.419 1_455 S
C1552 H1556 0.930 . S
C1553 C1552 1.369 . S
C1553 C1562 1.429 . S
C1554 C1552 1.419 1_655 S
C1554 C1555 1.363 . S
C1554 H1557 0.929 . S
C1555 C1554 1.363 . S
C1555 C1561 1.428 . S
H1556 C1552 0.930 . S
H1557 C1554 0.929 . S
S1558 N1559 1.613 . S
S1558 N1560 1.610 1_455 S
N1559 S1558 1.613 . S
N1559 C1562 1.350 . S
N1560 S1558 1.610 1_655 S
N1560 C1561 1.351 . S
C1561 C1555 1.428 . S
C1561 N1560 1.351 . S
C1561 C1562 1.434 1_655 S
C1562 C1553 1.429 . S
C1562 N1559 1.350 . S
C1562 C1561 1.434 1_455 S
C1563 C1564 1.369 . S
C1563 C1565 1.419 . S
C1563 H1567 0.930 1_655 S
C1564 C1563 1.369 . S
C1564 C1573 1.429 . S
C1565 C1563 1.419 . S
C1565 C1566 1.363 . S
C1565 H1568 0.929 1_655 S
C1566 C1565 1.363 . S
C1566 C1572 1.428 . S
H1567 C1563 0.930 1_455 S
H1568 C1565 0.929 1_455 S
S1569 N1570 1.613 . S
S1569 N1571 1.610 . S
N1570 S1569 1.613 . S
N1570 C1573 1.350 . S
N1571 S1569 1.610 . S
N1571 C1572 1.351 . S
C1572 C1566 1.428 . S
C1572 N1571 1.351 . S
C1572 C1573 1.434 . S
C1573 C1564 1.429 . S
C1573 N1570 1.350 . S
C1573 C1572 1.434 . S
C1574 C1575 1.369 . S
C1574 C1576 1.419 1_545 S
C1574 H1578 0.930 . S
C1575 C1574 1.369 . S
C1575 C1584 1.429 . S
C1576 C1574 1.419 1_565 S
C1576 C1577 1.363 . S
C1576 H1579 0.929 . S
C1577 C1576 1.363 . S
C1577 C1583 1.428 . S
H1578 C1574 0.930 . S
H1579 C1576 0.929 . S
S1580 N1581 1.613 1_565 S
S1580 N1582 1.610 . S
N1581 S1580 1.613 1_545 S
N1581 C1584 1.350 1_655 S
N1582 S1580 1.610 . S
N1582 C1583 1.351 1_655 S
C1583 C1577 1.428 . S
C1583 N1582 1.351 1_455 S
C1583 C1584 1.434 1_565 S
C1584 C1575 1.429 . S
C1584 N1581 1.350 1_455 S
C1584 C1583 1.434 1_545 S
C1585 C1586 1.369 . S
C1585 C1587 1.419 . S
C1585 H1589 0.930 . S
C1586 C1585 1.369 . S
C1586 C1595 1.429 . S
C1587 C1585 1.419 . S
C1587 C1588 1.363 . S
C1587 H1590 0.929 . S
C1588 C1587 1.363 . S
C1588 C1594 1.428 . S
H1589 C1585 0.930 . S
H1590 C1587 0.929 . S
S1591 N1592 1.613 . S
S1591 N1593 1.610 . S
N1592 S1591 1.613 . S
N1592 C1595 1.350 . S
N1593 S1591 1.610 . S
N1593 C1594 1.351 . S
C1594 C1588 1.428 . S
C1594 N1593 1.351 . S
C1594 C1595 1.434 . S
C1595 C1586 1.429 . S
C1595 N1592 1.350 . S
C1595 C1594 1.434 . S
C1596 C1597 1.369 . S
C1596 C1598 1.419 . S
C1596 H1600 0.930 . S
C1597 C1596 1.369 . S
C1597 C1606 1.429 . S
C1598 C1596 1.419 . S
C1598 C1599 1.363 . S
C1598 H1601 0.929 . S
C1599 C1598 1.363 . S
C1599 C1605 1.428 . S
H1600 C1596 0.930 . S
H1601 C1598 0.929 . S
S1602 N1603 1.613 . S
S1602 N1604 1.610 . S
N1603 S1602 1.613 . S
N1603 C1606 1.350 . S
N1604 S1602 1.610 . S
N1604 C1605 1.351 . S
C1605 C1599 1.428 . S
C1605 N1604 1.351 . S
C1605 C1606 1.434 . S
C1606 C1597 1.429 . S
C1606 N1603 1.350 . S
C1606 C1605 1.434 . S
C1607 C1608 1.369 . S
C1607 C1609 1.419 1_556 S
C1607 H1611 0.930 1_545 S
C1608 C1607 1.369 . S
C1608 C1617 1.429 . S
C1609 C1607 1.419 1_554 S
C1609 C1610 1.363 . S
C1609 H1612 0.929 1_545 S
C1610 C1609 1.363 . S
C1610 C1616 1.428 . S
H1611 C1607 0.930 1_565 S
H1612 C1609 0.929 1_565 S
S1613 N1614 1.613 . S
S1613 N1615 1.610 1_556 S
N1614 S1613 1.613 . S
N1614 C1617 1.350 . S
N1615 S1613 1.610 1_554 S
N1615 C1616 1.351 . S
C1616 C1610 1.428 . S
C1616 N1615 1.351 . S
C1616 C1617 1.434 1_554 S
C1617 C1608 1.429 . S
C1617 N1614 1.350 . S
C1617 C1616 1.434 1_556 S
C1618 C1619 1.369 . S
C1618 C1620 1.419 1_556 S
C1618 H1622 0.930 . S
C1619 C1618 1.369 . S
C1619 C1628 1.429 . S
C1620 C1618 1.419 1_554 S
C1620 C1621 1.363 . S
C1620 H1623 0.929 . S
C1621 C1620 1.363 . S
C1621 C1627 1.428 . S
H1622 C1618 0.930 . S
H1623 C1620 0.929 . S
S1624 N1625 1.613 . S
S1624 N1626 1.610 1_556 S
N1625 S1624 1.613 . S
N1625 C1628 1.350 . S
N1626 S1624 1.610 1_554 S
N1626 C1627 1.351 . S
C1627 C1621 1.428 . S
C1627 N1626 1.351 . S
C1627 C1628 1.434 1_554 S
C1628 C1619 1.429 . S
C1628 N1625 1.350 . S
C1628 C1627 1.434 1_556 S
C1629 C1630 1.369 . S
C1629 C1631 1.419 . S
C1629 H1633 0.930 . S
C1630 C1629 1.369 . S
C1630 C1639 1.429 . S
C1631 C1629 1.419 . S
C1631 C1632 1.363 . S
C1631 H1634 0.929 . S
C1632 C1631 1.363 . S
C1632 C1638 1.428 . S
H1633 C1629 0.930 . S
H1634 C1631 0.929 . S
S1635 N1636 1.613 . S
S1635 N1637 1.610 . S
N1636 S1635 1.613 . S
N1636 C1639 1.350 1_554 S
N1637 S1635 1.610 . S
N1637 C1638 1.351 1_554 S
C1638 C1632 1.428 . S
C1638 N1637 1.351 1_556 S
C1638 C1639 1.434 . S
C1639 C1630 1.429 . S
C1639 N1636 1.350 1_556 S
C1639 C1638 1.434 . S
C1640 C1641 1.369 . S
C1640 C1642 1.419 . S
C1640 H1644 0.930 . S
C1641 C1640 1.369 . S
C1641 C1650 1.429 . S
C1642 C1640 1.419 . S
C1642 C1643 1.363 . S
C1642 H1645 0.929 . S
C1643 C1642 1.363 . S
C1643 C1649 1.428 . S
H1644 C1640 0.930 . S
H1645 C1642 0.929 . S
S1646 N1647 1.613 . S
S1646 N1648 1.610 . S
N1647 S1646 1.613 . S
N1647 C1650 1.350 . S
N1648 S1646 1.610 . S
N1648 C1649 1.351 . S
C1649 C1643 1.428 . S
C1649 N1648 1.351 . S
C1649 C1650 1.434 . S
C1650 C1641 1.429 . S
C1650 N1647 1.350 . S
C1650 C1649 1.434 . S
C1651 C1652 1.369 . S
C1651 C1653 1.419 1_655 S
C1651 H1655 0.930 . S
C1652 C1651 1.369 . S
C1652 C1661 1.429 . S
C1653 C1651 1.419 1_455 S
C1653 C1654 1.363 . S
C1653 H1656 0.929 . S
C1654 C1653 1.363 . S
C1654 C1660 1.428 . S
H1655 C1651 0.930 . S
H1656 C1653 0.929 . S
S1657 N1658 1.613 1_455 S
S1657 N1659 1.610 . S
N1658 S1657 1.613 1_655 S
N1658 C1661 1.350 . S
N1659 S1657 1.610 . S
N1659 C1660 1.351 . S
C1660 C1654 1.428 . S
C1660 N1659 1.351 . S
C1660 C1661 1.434 1_455 S
C1661 C1652 1.429 . S
C1661 N1658 1.350 . S
C1661 C1660 1.434 1_655 S
C1662 C1663 1.369 . S
C1662 C1664 1.419 1_545 S
C1662 H1666 0.930 . S
C1663 C1662 1.369 . S
C1663 C1672 1.429 . S
C1664 C1662 1.419 1_565 S
C1664 C1665 1.363 . S
C1664 H1667 0.929 . S
C1665 C1664 1.363 . S
C1665 C1671 1.441 . S
H1666 C1662 0.930 . S
H1667 C1664 0.929 . S
S1668 N1669 1.613 . S
S1668 N1670 1.610 . S
N1669 S1668 1.613 . S
N1669 C1672 1.350 . S
N1670 S1668 1.610 . S
N1670 C1671 1.349 1_545 S
C1671 C1665 1.441 . S
C1671 N1670 1.349 1_565 S
C1671 C1672 1.421 1_565 S
C1672 C1663 1.429 . S
C1672 N1669 1.350 . S
C1672 C1671 1.421 1_545 S
C1673 C1674 1.369 . S
C1673 C1675 1.419 . S
C1673 H1677 0.930 . S
C1674 C1673 1.369 . S
C1674 C1683 1.429 . S
C1675 C1673 1.419 . S
C1675 C1676 1.363 . S
C1675 H1678 0.929 . S
C1676 C1675 1.363 . S
C1676 C1682 1.428 . S
H1677 C1673 0.930 . S
H1678 C1675 0.929 . S
S1679 N1680 1.613 . S
S1679 N1681 1.610 . S
N1680 S1679 1.613 . S
N1680 C1683 1.350 . S
N1681 S1679 1.610 . S
N1681 C1682 1.351 . S
C1682 C1676 1.428 . S
C1682 N1681 1.351 . S
C1682 C1683 1.434 . S
C1683 C1674 1.429 . S
C1683 N1680 1.350 . S
C1683 C1682 1.434 . S
C1684 C1685 1.369 . S
C1684 C1686 1.419 1_455 S
C1684 H1688 0.930 . S
C1685 C1684 1.369 . S
C1685 C1694 1.429 . S
C1686 C1684 1.419 1_655 S
C1686 C1687 1.363 . S
C1686 H1689 0.929 . S
C1687 C1686 1.363 . S
C1687 C1693 1.428 . S
H1688 C1684 0.930 . S
H1689 C1686 0.929 . S
S1690 N1691 1.613 . S
S1690 N1692 1.610 1_455 S
N1691 S1690 1.613 . S
N1691 C1694 1.350 1_554 S
N1692 S1690 1.610 1_655 S
N1692 C1693 1.351 1_554 S
C1693 C1687 1.428 . S
C1693 N1692 1.351 1_556 S
C1693 C1694 1.434 1_655 S
C1694 C1685 1.429 . S
C1694 N1691 1.350 1_556 S
C1694 C1693 1.434 1_455 S
C1695 C1696 1.369 . S
C1695 C1697 1.419 1_545 S
C1695 H1699 0.930 . S
C1696 C1695 1.369 . S
C1696 C1705 1.429 . S
C1697 C1695 1.419 1_565 S
C1697 C1698 1.363 . S
C1697 H1700 0.929 . S
C1698 C1697 1.363 . S
C1698 C1704 1.428 . S
H1699 C1695 0.930 . S
H1700 C1697 0.929 . S
S1701 N1702 1.613 . S
S1701 N1703 1.610 1_545 S
N1702 S1701 1.613 . S
N1702 C1705 1.350 . S
N1703 S1701 1.610 1_565 S
N1703 C1704 1.351 . S
C1704 C1698 1.428 . S
C1704 N1703 1.351 . S
C1704 C1705 1.434 1_565 S
C1705 C1696 1.429 . S
C1705 N1702 1.350 . S
C1705 C1704 1.434 1_545 S
C1706 C1707 1.369 . S
C1706 C1708 1.419 . S
C1706 H1710 0.930 . S
C1707 C1706 1.369 . S
C1707 C1716 1.429 . S
C1708 C1706 1.419 . S
C1708 C1709 1.363 . S
C1708 H1711 0.929 . S
C1709 C1708 1.363 . S
C1709 C1715 1.428 . S
H1710 C1706 0.930 . S
H1711 C1708 0.929 . S
S1712 N1713 1.613 . S
S1712 N1714 1.610 . S
N1713 S1712 1.613 . S
N1713 C1716 1.350 . S
N1714 S1712 1.610 . S
N1714 C1715 1.351 . S
C1715 C1709 1.428 . S
C1715 N1714 1.351 . S
C1715 C1716 1.434 . S
C1716 C1707 1.429 . S
C1716 N1713 1.350 . S
C1716 C1715 1.434 . S
C1717 C1718 1.369 . S
C1717 C1719 1.419 1_455 S
C1717 H1721 0.930 1_554 S
C1718 C1717 1.369 . S
C1718 C1727 1.429 . S
C1719 C1717 1.419 1_655 S
C1719 C1720 1.363 . S
C1719 H1722 0.929 1_554 S
C1720 C1719 1.363 . S
C1720 C1726 1.428 . S
H1721 C1717 0.930 1_556 S
H1722 C1719 0.929 1_556 S
S1723 N1724 1.613 1_655 S
S1723 N1725 1.610 . S
N1724 S1723 1.613 1_455 S
N1724 C1727 1.350 . S
N1725 S1723 1.610 . S
N1725 C1726 1.351 . S
C1726 C1720 1.428 . S
C1726 N1725 1.351 . S
C1726 C1727 1.434 1_655 S
C1727 C1718 1.429 . S
C1727 N1724 1.350 . S
C1727 C1726 1.434 1_455 S
C673 C22 1.726 . S
C675 C8 1.729 . S
C684 C36 1.729 . S
C686 C50 1.727 . S
C695 C92 1.727 . S
C697 C64 1.727 . S
C706 C106 1.732 . S
C708 C78 1.729 . S
C717 C120 1.726 . S
C719 C484 1.729 . S
C728 C134 1.729 . S
C730 C162 1.731 . S
C739 C456 1.731 . S
C741 C148 1.727 . S
C750 C190 1.726 . S
C752 C176 1.727 . S
C761 C218 1.732 . S
C763 C204 1.729 . S
C772 C260 1.726 . S
C774 C232 1.729 . S
C783 C274 1.731 . S
C785 C246 1.727 . S
C794 C288 1.726 . S
C796 C652 1.729 . S
C805 C302 1.730 . S
C807 C330 1.727 . S
C816 C624 1.727 . S
C818 C316 1.731 . S
C827 C344 1.726 . S
C829 C358 1.727 . S
C838 C386 1.726 . S
C840 C372 1.727 . S
C849 C400 1.730 . S
C851 C428 1.727 . S
C860 C442 1.726 . S
C862 C414 1.727 . S
C871 C498 1.731 . S
C873 C470 1.731 . S
C882 C526 1.732 . S
C884 C512 1.730 . S
C893 C540 1.731 . S
C895 C554 1.731 . S
C904 C596 1.732 . S
C906 C568 1.729 . S
C915 C582 1.726 . S
C917 C610 1.729 . S
C926 C638 1.732 . S
C928 C666 1.728 . S
C937 C619 1.428 . S
C939 C7 1.384 . S
C948 C325 1.431 . S
C950 C21 1.385 . S
C959 C633 1.429 . S
C961 C35 1.387 . S
C970 C49 1.387 . S
C972 C647 1.425 . S
C981 C63 1.393 . S
C983 C507 1.424 . S
C992 C521 1.425 . S
C994 C77 1.391 . S
C1003 C91 1.392 . S
C1005 C535 1.423 . S
C1014 C549 1.424 . S
C1016 C105 1.388 . S
C1025 C563 1.431 . S
C1027 C119 1.383 . S
C1036 C133 1.393 . S
C1038 C591 1.424 . S
C1047 C605 1.431 . S
C1049 C147 1.383 . S
C1058 C161 1.391 . S
C1060 C241 1.423 . S
C1069 C175 1.390 . S
C1071 C451 1.423 . S
C1080 C189 1.384 . S
C1082 C157 1.426 . S
C1091 C203 1.393 . S
C1093 C465 1.422 . S
C1102 C217 1.394 . S
C1104 C479 1.422 . S
C1113 C339 1.431 . S
C1115 C231 1.383 . S
C1124 C353 1.425 . S
C1126 C245 1.387 . S
C1135 C259 1.383 . S
C1137 C367 1.430 . S
C1146 C273 1.385 . S
C1148 C381 1.430 . S
C1157 C287 1.386 . S
C1159 C395 1.429 . S
C1168 C301 1.384 . S
C1170 C423 1.427 . S
C1179 C437 1.428 . S
C1181 C315 1.389 . S
C1190 C73 1.430 . S
C1192 C329 1.383 . S
C1201 C343 1.389 . S
C1203 C283 1.427 . S
C1212 C357 1.388 . S
C1214 C661 1.427 . S
C1223 C371 1.384 . S
C1225 C297 1.430 . S
C1234 C385 1.393 . S
C1236 C311 1.422 . S
C1245 C171 1.426 . S
C1247 C399 1.390 . S
C1256 C413 1.388 . S
C1258 C185 1.427 . S
C1267 C199 1.428 . S
C1269 C427 1.387 . S
C1278 C213 1.428 . S
C1280 C441 1.385 . S
C1289 C227 1.429 . S
C1291 C455 1.387 . S
C1300 C255 1.422 . S
C1302 C469 1.391 . S
C1311 C483 1.392 . S
C1313 C269 1.425 . S
C1322 C497 1.393 . S
C1324 C577 1.422 . S
C1333 C115 1.421 . S
C1335 C511 1.391 . S
C1344 C525 1.394 . S
C1346 C493 1.423 . S
C1355 C539 1.393 . S
C1357 C129 1.425 . S
C1366 C143 1.422 . S
C1368 C553 1.390 . S
C1377 C567 1.391 . S
C1379 C3 1.423 . S
C1388 C581 1.389 . S
C1390 C17 1.428 . S
C1399 C31 1.425 . S
C1401 C595 1.392 . S
C1410 C609 1.387 . S
C1412 C45 1.425 . S
C1421 C623 1.391 . S
C1423 C59 1.426 . S
C1432 C87 1.423 . S
C1434 C637 1.393 . S
C1443 C651 1.382 . S
C1445 C101 1.429 . S
C1454 C409 1.430 . S
C1456 C665 1.386 . S
C1465 C37 1.107 . S
C1467 C9 1.112 . S
C1476 C51 1.121 . S
C1478 C23 1.115 . S
C1487 C443 1.117 . S
C1489 C65 1.119 . S
C1498 C429 1.115 . S
C1500 C79 1.109 . S
C1509 C415 1.110 . S
C1511 C93 1.116 . S
C1520 C107 1.121 . S
C1522 C401 1.116 . S
C1531 C121 1.109 . S
C1533 C499 1.116 . S
C1542 C149 1.120 . S
C1544 C135 1.118 . S
C1553 C163 1.116 . S
C1555 C457 1.119 . S
C1564 C205 1.114 . S
C1566 C177 1.108 . S
C1575 C219 1.120 . S
C1577 C191 1.117 . S
C1586 C611 1.106 . S
C1588 C233 1.111 . S
C1597 C597 1.107 . S
C1599 C247 1.110 . S
C1608 C261 1.107 . S
C1610 C583 1.110 . S
C1619 C275 1.106 . S
C1621 C569 1.112 . S
C1630 C667 1.121 . S
C1632 C289 1.116 . S
C1641 C317 1.106 . S
C1643 C303 1.112 . S
C1652 C331 1.119 . S
C1654 C625 1.118 . S
C1663 C373 1.112 . S
C1665 C345 1.118 . S
C1674 C359 1.121 . S
C1676 C387 1.116 . S
C1685 C485 1.120 . S
C1687 C471 1.118 . S
C1696 C513 1.111 . S
C1698 C541 1.118 . S
C1707 C527 1.119 . S
C1709 C555 1.118 . S
C1718 C639 1.110 . S
C1720 C653 1.108 . S
