# Generated by pormake.
# Topology wge, (5)-cn, num edge types: 1
# Building blocks:
#     Node 0, Type 0, BuildingBlock: BEQFEK_clean_sbu_0, # of connection points: 5
#     Node 1, Type 0, BuildingBlock: BEQFEK_clean_sbu_0, # of connection points: 5
#     Node 2, Type 0, BuildingBlock: BEQFEK_clean_sbu_0, # of connection points: 5
#     Node 3, Type 0, BuildingBlock: BEQFEK_clean_sbu_0, # of connection points: 5
#     Node 4, Type 0, BuildingBlock: BEQFEK_clean_sbu_0, # of connection points: 5
#     Node 5, Type 0, BuildingBlock: BEQFEK_clean_sbu_0, # of connection points: 5
#     Node 6, Type 0, BuildingBlock: BEQFEK_clean_sbu_0, # of connection points: 5
#     Node 7, Type 0, BuildingBlock: BEQFEK_clean_sbu_0, # of connection points: 5
#     Node 8, Type 0, BuildingBlock: BEQFEK_clean_sbu_0, # of connection points: 5
#     Node 9, Type 0, BuildingBlock: BEQFEK_clean_sbu_0, # of connection points: 5
#     Node 10, Type 0, BuildingBlock: BEQFEK_clean_sbu_0, # of connection points: 5
#     Node 11, Type 0, BuildingBlock: BEQFEK_clean_sbu_0, # of connection points: 5
#     Node 12, Type 0, BuildingBlock: BEQFEK_clean_sbu_0, # of connection points: 5
#     Node 13, Type 0, BuildingBlock: BEQFEK_clean_sbu_0, # of connection points: 5
#     Node 14, Type 0, BuildingBlock: BEQFEK_clean_sbu_0, # of connection points: 5
#     Node 15, Type 0, BuildingBlock: BEQFEK_clean_sbu_0, # of connection points: 5
#     Node 16, Type 0, BuildingBlock: BEQFEK_clean_sbu_0, # of connection points: 5
#     Node 17, Type 0, BuildingBlock: BEQFEK_clean_sbu_0, # of connection points: 5
#     Node 18, Type 0, BuildingBlock: BEQFEK_clean_sbu_0, # of connection points: 5
#     Node 19, Type 0, BuildingBlock: BEQFEK_clean_sbu_0, # of connection points: 5
#     Node 20, Type 0, BuildingBlock: BEQFEK_clean_sbu_0, # of connection points: 5
#     Node 21, Type 0, BuildingBlock: BEQFEK_clean_sbu_0, # of connection points: 5
#     Node 22, Type 0, BuildingBlock: BEQFEK_clean_sbu_0, # of connection points: 5
#     Node 23, Type 0, BuildingBlock: BEQFEK_clean_sbu_0, # of connection points: 5
#     Node 24, Type 0, BuildingBlock: BEQFEK_clean_sbu_0, # of connection points: 5
#     Node 25, Type 0, BuildingBlock: BEQFEK_clean_sbu_0, # of connection points: 5
#     Node 26, Type 0, BuildingBlock: BEQFEK_clean_sbu_0, # of connection points: 5
#     Node 27, Type 0, BuildingBlock: BEQFEK_clean_sbu_0, # of connection points: 5
#     Node 28, Type 0, BuildingBlock: BEQFEK_clean_sbu_0, # of connection points: 5
#     Node 29, Type 0, BuildingBlock: BEQFEK_clean_sbu_0, # of connection points: 5
#     Node 30, Type 0, BuildingBlock: BEQFEK_clean_sbu_0, # of connection points: 5
#     Node 31, Type 0, BuildingBlock: BEQFEK_clean_sbu_0, # of connection points: 5
#     Edge 32, Type (0, 0), BuildingBlock: KIFKEQ_clean_linker_1, # of connection points: 2
#     Edge 33, Type (0, 0), BuildingBlock: KIFKEQ_clean_linker_1, # of connection points: 2
#     Edge 34, Type (0, 0), BuildingBlock: KIFKEQ_clean_linker_1, # of connection points: 2
#     Edge 35, Type (0, 0), BuildingBlock: KIFKEQ_clean_linker_1, # of connection points: 2
#     Edge 36, Type (0, 0), BuildingBlock: KIFKEQ_clean_linker_1, # of connection points: 2
#     Edge 37, Type (0, 0), BuildingBlock: KIFKEQ_clean_linker_1, # of connection points: 2
#     Edge 38, Type (0, 0), BuildingBlock: KIFKEQ_clean_linker_1, # of connection points: 2
#     Edge 39, Type (0, 0), BuildingBlock: KIFKEQ_clean_linker_1, # of connection points: 2
#     Edge 40, Type (0, 0), BuildingBlock: KIFKEQ_clean_linker_1, # of connection points: 2
#     Edge 41, Type (0, 0), BuildingBlock: KIFKEQ_clean_linker_1, # of connection points: 2
#     Edge 42, Type (0, 0), BuildingBlock: KIFKEQ_clean_linker_1, # of connection points: 2
#     Edge 43, Type (0, 0), BuildingBlock: KIFKEQ_clean_linker_1, # of connection points: 2
#     Edge 44, Type (0, 0), BuildingBlock: KIFKEQ_clean_linker_1, # of connection points: 2
#     Edge 45, Type (0, 0), BuildingBlock: KIFKEQ_clean_linker_1, # of connection points: 2
#     Edge 46, Type (0, 0), BuildingBlock: KIFKEQ_clean_linker_1, # of connection points: 2
#     Edge 47, Type (0, 0), BuildingBlock: KIFKEQ_clean_linker_1, # of connection points: 2
#     Edge 48, Type (0, 0), BuildingBlock: KIFKEQ_clean_linker_1, # of connection points: 2
#     Edge 49, Type (0, 0), BuildingBlock: KIFKEQ_clean_linker_1, # of connection points: 2
#     Edge 50, Type (0, 0), BuildingBlock: KIFKEQ_clean_linker_1, # of connection points: 2
#     Edge 51, Type (0, 0), BuildingBlock: KIFKEQ_clean_linker_1, # of connection points: 2
#     Edge 52, Type (0, 0), BuildingBlock: KIFKEQ_clean_linker_1, # of connection points: 2
#     Edge 53, Type (0, 0), BuildingBlock: KIFKEQ_clean_linker_1, # of connection points: 2
#     Edge 54, Type (0, 0), BuildingBlock: KIFKEQ_clean_linker_1, # of connection points: 2
#     Edge 55, Type (0, 0), BuildingBlock: KIFKEQ_clean_linker_1, # of connection points: 2
#     Edge 56, Type (0, 0), BuildingBlock: KIFKEQ_clean_linker_1, # of connection points: 2
#     Edge 57, Type (0, 0), BuildingBlock: KIFKEQ_clean_linker_1, # of connection points: 2
#     Edge 58, Type (0, 0), BuildingBlock: KIFKEQ_clean_linker_1, # of connection points: 2
#     Edge 59, Type (0, 0), BuildingBlock: KIFKEQ_clean_linker_1, # of connection points: 2
#     Edge 60, Type (0, 0), BuildingBlock: KIFKEQ_clean_linker_1, # of connection points: 2
#     Edge 61, Type (0, 0), BuildingBlock: KIFKEQ_clean_linker_1, # of connection points: 2
#     Edge 62, Type (0, 0), BuildingBlock: KIFKEQ_clean_linker_1, # of connection points: 2
#     Edge 63, Type (0, 0), BuildingBlock: KIFKEQ_clean_linker_1, # of connection points: 2
#     Edge 64, Type (0, 0), BuildingBlock: KIFKEQ_clean_linker_1, # of connection points: 2
#     Edge 65, Type (0, 0), BuildingBlock: KIFKEQ_clean_linker_1, # of connection points: 2
#     Edge 66, Type (0, 0), BuildingBlock: KIFKEQ_clean_linker_1, # of connection points: 2
#     Edge 67, Type (0, 0), BuildingBlock: KIFKEQ_clean_linker_1, # of connection points: 2
#     Edge 68, Type (0, 0), BuildingBlock: KIFKEQ_clean_linker_1, # of connection points: 2
#     Edge 69, Type (0, 0), BuildingBlock: KIFKEQ_clean_linker_1, # of connection points: 2
#     Edge 70, Type (0, 0), BuildingBlock: KIFKEQ_clean_linker_1, # of connection points: 2
#     Edge 71, Type (0, 0), BuildingBlock: KIFKEQ_clean_linker_1, # of connection points: 2
#     Edge 72, Type (0, 0), BuildingBlock: KIFKEQ_clean_linker_1, # of connection points: 2
#     Edge 73, Type (0, 0), BuildingBlock: KIFKEQ_clean_linker_1, # of connection points: 2
#     Edge 74, Type (0, 0), BuildingBlock: KIFKEQ_clean_linker_1, # of connection points: 2
#     Edge 75, Type (0, 0), BuildingBlock: KIFKEQ_clean_linker_1, # of connection points: 2
#     Edge 76, Type (0, 0), BuildingBlock: KIFKEQ_clean_linker_1, # of connection points: 2
#     Edge 77, Type (0, 0), BuildingBlock: KIFKEQ_clean_linker_1, # of connection points: 2
#     Edge 78, Type (0, 0), BuildingBlock: KIFKEQ_clean_linker_1, # of connection points: 2
#     Edge 79, Type (0, 0), BuildingBlock: KIFKEQ_clean_linker_1, # of connection points: 2
#     Edge 80, Type (0, 0), BuildingBlock: KIFKEQ_clean_linker_1, # of connection points: 2
#     Edge 81, Type (0, 0), BuildingBlock: KIFKEQ_clean_linker_1, # of connection points: 2
#     Edge 82, Type (0, 0), BuildingBlock: KIFKEQ_clean_linker_1, # of connection points: 2
#     Edge 83, Type (0, 0), BuildingBlock: KIFKEQ_clean_linker_1, # of connection points: 2
#     Edge 84, Type (0, 0), BuildingBlock: KIFKEQ_clean_linker_1, # of connection points: 2
#     Edge 85, Type (0, 0), BuildingBlock: KIFKEQ_clean_linker_1, # of connection points: 2
#     Edge 86, Type (0, 0), BuildingBlock: KIFKEQ_clean_linker_1, # of connection points: 2
#     Edge 87, Type (0, 0), BuildingBlock: KIFKEQ_clean_linker_1, # of connection points: 2
#     Edge 88, Type (0, 0), BuildingBlock: KIFKEQ_clean_linker_1, # of connection points: 2
#     Edge 89, Type (0, 0), BuildingBlock: KIFKEQ_clean_linker_1, # of connection points: 2
#     Edge 90, Type (0, 0), BuildingBlock: KIFKEQ_clean_linker_1, # of connection points: 2
#     Edge 91, Type (0, 0), BuildingBlock: KIFKEQ_clean_linker_1, # of connection points: 2
#     Edge 92, Type (0, 0), BuildingBlock: KIFKEQ_clean_linker_1, # of connection points: 2
#     Edge 93, Type (0, 0), BuildingBlock: KIFKEQ_clean_linker_1, # of connection points: 2
#     Edge 94, Type (0, 0), BuildingBlock: KIFKEQ_clean_linker_1, # of connection points: 2
#     Edge 95, Type (0, 0), BuildingBlock: KIFKEQ_clean_linker_1, # of connection points: 2
#     Edge 96, Type (0, 0), BuildingBlock: KIFKEQ_clean_linker_1, # of connection points: 2
#     Edge 97, Type (0, 0), BuildingBlock: KIFKEQ_clean_linker_1, # of connection points: 2
#     Edge 98, Type (0, 0), BuildingBlock: KIFKEQ_clean_linker_1, # of connection points: 2
#     Edge 99, Type (0, 0), BuildingBlock: KIFKEQ_clean_linker_1, # of connection points: 2
#     Edge 100, Type (0, 0), BuildingBlock: KIFKEQ_clean_linker_1, # of connection points: 2
#     Edge 101, Type (0, 0), BuildingBlock: KIFKEQ_clean_linker_1, # of connection points: 2
#     Edge 102, Type (0, 0), BuildingBlock: KIFKEQ_clean_linker_1, # of connection points: 2
#     Edge 103, Type (0, 0), BuildingBlock: KIFKEQ_clean_linker_1, # of connection points: 2
#     Edge 104, Type (0, 0), BuildingBlock: KIFKEQ_clean_linker_1, # of connection points: 2
#     Edge 105, Type (0, 0), BuildingBlock: KIFKEQ_clean_linker_1, # of connection points: 2
#     Edge 106, Type (0, 0), BuildingBlock: KIFKEQ_clean_linker_1, # of connection points: 2
#     Edge 107, Type (0, 0), BuildingBlock: KIFKEQ_clean_linker_1, # of connection points: 2
#     Edge 108, Type (0, 0), BuildingBlock: KIFKEQ_clean_linker_1, # of connection points: 2
#     Edge 109, Type (0, 0), BuildingBlock: KIFKEQ_clean_linker_1, # of connection points: 2
#     Edge 110, Type (0, 0), BuildingBlock: KIFKEQ_clean_linker_1, # of connection points: 2
#     Edge 111, Type (0, 0), BuildingBlock: KIFKEQ_clean_linker_1, # of connection points: 2
# Relax obj value: 0.337
# Max RMSD: 0.184
# Mean RMSD: 0.184
data_MOF--net-wge--node1-BEQFEK_clean_sbu_0--edge1-KIFKEQ_clean_linker_1
_symmetry_space_group_name_H-M    P1
_symmetry_Int_Tables_number       1
_symmetry_cell_setting            triclinic
loop_
_symmetry_equiv_pos_as_xyz
'x, y, z'
_cell_length_a     65.803252
_cell_length_b     65.823224
_cell_length_c     42.757214
_cell_angle_alpha  90.004961
_cell_angle_beta   90.007074
_cell_angle_gamma 90.009265
loop_
_atom_site_label
_atom_site_type_symbol
_atom_site_fract_x
_atom_site_fract_y
_atom_site_fract_z
_atom_type_partial_charge
Co0 Co 0.22705 0.14236 0.99711 0.0
Co1 Co 0.26112 0.14318 0.04708 0.0
C2 C 0.24242 0.18158 0.01861 0.0
O3 O 0.22951 0.17199 0.00222 0.0
O4 O 0.25517 0.17208 0.03553 0.0
C5 C 0.19762 0.14915 0.94869 0.0
O6 O 0.20724 0.16639 0.94412 0.0
C7 C 0.26657 0.15334 0.1113 0.0
C8 C 0.29517 0.13843 0.1253 0.0
C9 C 0.27857 0.14899 0.13696 0.0
N10 N 0.27524 0.14524 0.08577 0.0
N11 N 0.2926 0.13669 0.09406 0.0
C12 C 0.24657 0.16429 0.11124 0.0
H13 H 0.23398 0.15311 0.11011 0.0
H14 H 0.24473 0.17369 0.13259 0.0
H15 H 0.24534 0.17427 0.09058 0.0
C16 C 0.20632 0.11793 0.04661 0.0
N17 N 0.22205 0.12902 0.03565 0.0
N18 N 0.23738 0.12746 0.05512 0.0
C19 C 0.23238 0.11426 0.07804 0.0
C20 C 0.21236 0.10817 0.07391 0.0
C21 C 0.18649 0.11552 0.02996 0.0
H22 H 0.18881 0.1058 0.00906 0.0
H23 H 0.18102 0.13057 0.02185 0.0
H24 H 0.17487 0.10835 0.04519 0.0
O25 O 0.2523 0.13114 0.97668 0.0
O26 O 0.2767 0.12996 0.01288 0.0
H27 H 0.26265 0.10744 0.09387 0.0
H28 H 0.24333 0.09079 0.10914 0.0
C29 C 0.24679 0.10668 0.10248 0.0
H30 H 0.24529 0.11609 0.12375 0.0
H31 H 0.30207 0.12873 0.07881 0.0
O32 O 0.20387 0.13695 0.96957 0.0
C33 C 0.27043 0.12669 0.98504 0.0
Co34 Co 0.12521 0.97615 0.24763 0.0
Co35 Co 0.12344 0.01173 0.29504 0.0
C36 C 0.08558 0.99189 0.26656 0.0
O37 O 0.09546 0.9783 0.25195 0.0
O38 O 0.09479 1.00541 0.28246 0.0
C39 C 0.11984 0.94646 0.19945 0.0
O40 O 0.10273 0.9561 0.19391 0.0
C41 C 0.11174 0.01858 0.35829 0.0
C42 C 0.12882 0.04577 0.37296 0.0
C43 C 0.11681 0.03005 0.38424 0.0
N44 N 0.12082 0.02663 0.33304 0.0
N45 N 0.13061 0.04323 0.34173 0.0
C46 C 0.0993 0.99948 0.35763 0.0
H47 H 0.10921 0.9863 0.35243 0.0
H48 H 0.09131 0.99691 0.38013 0.0
H49 H 0.08772 1.00051 0.33894 0.0
C50 C 0.14821 0.95666 0.29975 0.0
N51 N 0.13781 0.97222 0.28683 0.0
N52 N 0.13895 0.98809 0.30527 0.0
C53 C 0.15109 0.98353 0.32973 0.0
C54 C 0.15696 0.96327 0.32764 0.0
C55 C 0.14924 0.93583 0.28586 0.0
H56 H 0.16187 0.93529 0.26867 0.0
H57 H 0.13487 0.93229 0.27343 0.0
H58 H 0.15198 0.92419 0.30416 0.0
O59 O 0.13674 1.001 0.22638 0.0
O60 O 0.13687 0.02666 0.26033 0.0
H61 H 0.16009 0.01411 0.34069 0.0
H62 H 0.175 0.99464 0.35971 0.0
C63 C 0.15948 0.99896 0.35198 0.0
H64 H 0.1497 0.99985 0.37292 0.0
H65 H 0.13967 0.05195 0.32687 0.0
O66 O 0.13146 0.95265 0.22114 0.0
C67 C 0.1408 0.01949 0.23321 0.0
Co68 Co 0.28834 0.8761 0.5021 0.0
Co69 Co 0.25333 0.87399 0.5505 0.0
C70 C 0.27314 0.83623 0.5229 0.0
O71 O 0.28564 0.84633 0.50644 0.0
O72 O 0.26016 0.84518 0.54012 0.0
C73 C 0.31822 0.86969 0.45442 0.0
O74 O 0.30825 0.85275 0.44906 0.0
C75 C 0.24416 0.8628 0.61332 0.0
C76 C 0.21614 0.87965 0.62469 0.0
C77 C 0.23117 0.86751 0.63782 0.0
N78 N 0.23731 0.87191 0.58729 0.0
N79 N 0.22025 0.88156 0.59392 0.0
C80 C 0.26447 0.85252 0.6153 0.0
H81 H 0.27379 0.85569 0.59431 0.0
H82 H 0.2729 0.85761 0.63636 0.0
H83 H 0.26217 0.83586 0.61691 0.0
C84 C 0.30799 0.89974 0.55316 0.0
N85 N 0.29238 0.88895 0.54123 0.0
N86 N 0.27693 0.8897 0.56067 0.0
C87 C 0.28199 0.90176 0.58509 0.0
C88 C 0.30193 0.90823 0.58139 0.0
C89 C 0.32782 0.90289 0.53677 0.0
H90 H 0.32522 0.91223 0.51553 0.0
H91 H 0.33399 0.888 0.52914 0.0
H92 H 0.33904 0.91071 0.55195 0.0
O93 O 0.26397 0.88787 0.4806 0.0
O94 O 0.2385 0.88683 0.51479 0.0
H95 H 0.25207 0.90796 0.60288 0.0
H96 H 0.272 0.9223 0.6215 0.0
C97 C 0.26797 0.90737 0.6113 0.0
H98 H 0.26925 0.89592 0.63019 0.0
H99 H 0.21222 0.89053 0.57805 0.0
O100 O 0.31212 0.88164 0.47576 0.0
C101 C 0.24544 0.89136 0.48776 0.0
Co102 Co 0.39265 0.04042 0.7486 0.0
Co103 Co 0.39442 1.00609 0.79833 0.0
C104 C 0.43229 0.02482 0.76886 0.0
O105 O 0.42245 0.0377 0.75274 0.0
O106 O 0.42304 0.01206 0.78607 0.0
C107 C 0.39922 0.0703 0.70082 0.0
O108 O 0.41665 0.06101 0.69637 0.0
C109 C 0.40566 1.00014 0.86212 0.0
C110 C 0.38963 0.97228 0.8767 0.0
C111 C 0.40104 0.98843 0.888 0.0
N112 N 0.39688 0.99178 0.83685 0.0
N113 N 0.38769 0.97482 0.84549 0.0
C114 C 0.41741 0.01967 0.86163 0.0
H115 H 0.4068 0.03267 0.85936 0.0
H116 H 0.42658 0.02157 0.88322 0.0
H117 H 0.42782 0.02002 0.84139 0.0
C118 C 0.36881 0.06086 0.79884 0.0
N119 N 0.37987 0.04523 0.78748 0.0
N120 N 0.37912 0.03002 0.80732 0.0
C121 C 0.36691 0.03523 0.83139 0.0
C122 C 0.3604 0.05506 0.82725 0.0
C123 C 0.3661 0.08075 0.7825 0.0
H124 H 0.35558 0.07864 0.76248 0.0
H125 H 0.38092 0.08601 0.77312 0.0
H126 H 0.35974 0.09243 0.79845 0.0
O127 O 0.38069 0.01554 0.72873 0.0
O128 O 0.38086 0.99063 0.76403 0.0
H129 H 0.359 1.0051 0.84658 0.0
H130 H 0.34365 0.02512 0.86328 0.0
C131 C 0.35922 0.02084 0.85575 0.0
H132 H 0.36916 0.02157 0.87653 0.0
H133 H 0.37907 0.96571 0.83055 0.0
O134 O 0.38699 0.06371 0.7214 0.0
C135 C 0.37664 0.99724 0.73665 0.0
Co136 Co 0.22905 0.87526 0.99831 0.0
Co137 Co 0.26438 0.87412 0.9502 0.0
C138 C 0.24484 0.83593 0.97832 0.0
O139 O 0.2313 0.84563 0.99331 0.0
O140 O 0.25823 0.84532 0.96242 0.0
C141 C 0.19982 0.8692 0.04696 0.0
O142 O 0.20992 0.85235 0.05233 0.0
C143 C 0.2704 0.86184 0.88715 0.0
C144 C 0.29589 0.88041 0.8699 0.0
C145 C 0.28056 0.86738 0.86012 0.0
N146 N 0.27876 0.87162 0.91154 0.0
N147 N 0.29443 0.88227 0.9013 0.0
C148 C 0.25214 0.8483 0.88975 0.0
H149 H 0.23917 0.85695 0.89959 0.0
H150 H 0.24781 0.84155 0.86695 0.0
H151 H 0.25561 0.83564 0.90594 0.0
C152 C 0.20918 0.89895 0.94762 0.0
N153 N 0.22482 0.8882 0.95957 0.0
N154 N 0.24057 0.88977 0.94091 0.0
C155 C 0.23583 0.90261 0.91736 0.0
C156 C 0.21564 0.90847 0.92038 0.0
C157 C 0.18901 0.90126 0.96333 0.0
H158 H 0.19083 0.91115 0.98416 0.0
H159 H 0.18358 0.8862 0.97149 0.0
H160 H 0.1776 0.90817 0.94748 0.0
O161 O 0.25396 0.88676 0.01923 0.0
O162 O 0.27955 0.88737 0.9851 0.0
H163 H 0.266 0.91144 0.90417 0.0
H164 H 0.24618 0.92524 0.88421 0.0
C165 C 0.25068 0.91022 0.8936 0.0
H166 H 0.2513 0.89951 0.87378 0.0
H167 H 0.30302 0.89207 0.91521 0.0
O168 O 0.20559 0.88099 0.02521 0.0
C169 C 0.2724 0.89103 0.01236 0.0
Co170 Co 0.39217 0.97606 0.25307 0.0
Co171 Co 0.39373 0.01088 0.20436 0.0
C172 C 0.43175 0.99135 0.2328 0.0
O173 O 0.42194 0.9784 0.24882 0.0
O174 O 0.42246 1.00434 0.21603 0.0
C175 C 0.39789 0.94689 0.30191 0.0
O176 O 0.41482 0.95685 0.30739 0.0
C177 C 0.4044 0.01672 0.14039 0.0
C178 C 0.38983 0.04552 0.12659 0.0
C179 C 0.4003 0.02889 0.11483 0.0
N180 N 0.39625 0.02531 0.16595 0.0
N181 N 0.38791 0.0428 0.15778 0.0
C182 C 0.41513 0.9966 0.14027 0.0
H183 H 0.42512 0.99519 0.1609 0.0
H184 H 0.40383 0.98413 0.14128 0.0
H185 H 0.42454 0.99474 0.11892 0.0
C186 C 0.3684 0.95608 0.20216 0.0
N187 N 0.37927 0.97166 0.21409 0.0
N188 N 0.37775 0.98737 0.19536 0.0
C189 C 0.36477 0.98273 0.17193 0.0
C190 C 0.35884 0.96258 0.17494 0.0
C191 C 0.36604 0.93591 0.21783 0.0
H192 H 0.35601 0.9377 0.2385 0.0
H193 H 0.38105 0.9305 0.22622 0.0
H194 H 0.35923 0.9245 0.20185 0.0
O195 O 0.38062 1.00105 0.27368 0.0
O196 O 0.38081 0.02636 0.23908 0.0
H197 H 0.35831 0.01328 0.15709 0.0
H198 H 0.34136 0.99437 0.14141 0.0
C199 C 0.35732 0.99756 0.14801 0.0
H200 H 0.36662 0.99618 0.12661 0.0
H201 H 0.37994 0.05225 0.17305 0.0
O202 O 0.38622 0.95272 0.28005 0.0
C203 C 0.37675 0.0195 0.26637 0.0
Co204 Co 0.29167 0.14311 0.50181 0.0
Co205 Co 0.25673 0.14419 0.45322 0.0
C206 C 0.27587 0.18245 0.48126 0.0
O207 O 0.28891 0.1728 0.49731 0.0
O208 O 0.26295 0.17302 0.46455 0.0
C209 C 0.32139 0.14968 0.54972 0.0
O210 O 0.31154 0.16671 0.55486 0.0
C211 C 0.25031 0.15461 0.38933 0.0
C212 C 0.22208 0.13884 0.37577 0.0
C213 C 0.2383 0.14988 0.36384 0.0
N214 N 0.24204 0.14626 0.41501 0.0
N215 N 0.22487 0.13723 0.40698 0.0
C216 C 0.27004 0.16604 0.38911 0.0
H217 H 0.27067 0.17677 0.40894 0.0
H218 H 0.28287 0.15525 0.39163 0.0
H219 H 0.27197 0.17481 0.36715 0.0
C220 C 0.31166 0.11905 0.45138 0.0
N221 N 0.29609 0.13008 0.46298 0.0
N222 N 0.2804 0.12845 0.44421 0.0
C223 C 0.28506 0.1153 0.42104 0.0
C224 C 0.30518 0.1093 0.42432 0.0
C225 C 0.33173 0.11661 0.46733 0.0
H226 H 0.3297 0.10686 0.48828 0.0
H227 H 0.33731 0.13165 0.47533 0.0
H228 H 0.34312 0.10946 0.45169 0.0
O229 O 0.26692 0.13131 0.52269 0.0
O230 O 0.24156 0.1312 0.48817 0.0
H231 H 0.25459 0.10809 0.40671 0.0
H232 H 0.27382 0.09195 0.38992 0.0
C233 C 0.27024 0.10769 0.39721 0.0
H234 H 0.27106 0.11737 0.37615 0.0
H235 H 0.21577 0.12894 0.42234 0.0
O236 O 0.31522 0.13765 0.52855 0.0
C237 C 0.2485 0.12725 0.51543 0.0
Co238 Co 0.1261 0.04013 0.75018 0.0
Co239 Co 0.12486 1.00558 0.7008 0.0
C240 C 0.08668 0.02456 0.7295 0.0
O241 O 0.09644 0.0374 0.74578 0.0
O242 O 0.096 0.01177 0.7124 0.0
C243 C 0.11936 0.0703 0.7976 0.0
O244 O 0.10184 0.06114 0.80192 0.0
C245 C 0.11474 1.00019 0.63643 0.0
C246 C 0.12937 0.97146 0.62246 0.0
C247 C 0.11902 0.98818 0.61075 0.0
N248 N 0.12268 0.99142 0.66203 0.0
N249 N 0.13106 0.97399 0.65373 0.0
C250 C 0.104 0.02031 0.63645 0.0
H251 H 0.11532 0.03278 0.63699 0.0
H252 H 0.09438 0.02207 0.6153 0.0
H253 H 0.09428 0.02182 0.65736 0.0
C254 C 0.14996 0.06052 0.70004 0.0
N255 N 0.13898 0.04485 0.71139 0.0
N256 N 0.14065 0.02929 0.69237 0.0
C257 C 0.15382 0.03414 0.66932 0.0
C258 C 0.15975 0.05425 0.67292 0.0
C259 C 0.15234 0.0805 0.71628 0.0
H260 H 0.16227 0.07842 0.73701 0.0
H261 H 0.1373 0.08589 0.72461 0.0
H262 H 0.15928 0.09206 0.70071 0.0
O263 O 0.13796 0.01522 0.77038 0.0
O264 O 0.13794 0.99007 0.73548 0.0
H265 H 0.16057 1.00372 0.6541 0.0
H266 H 0.17753 0.02283 0.63901 0.0
C267 C 0.16154 0.01951 0.64529 0.0
H268 H 0.15238 0.02097 0.62375 0.0
H269 H 0.13889 0.96442 0.669 0.0
O270 O 0.13167 0.06351 0.77727 0.0
C271 C 0.14199 0.99685 0.76283 0.0
Co272 Co 0.78885 0.8756 0.99807 0.0
Co273 Co 0.75423 0.87484 0.94868 0.0
C274 C 0.77304 0.83641 0.97713 0.0
O275 O 0.786 0.84601 0.99343 0.0
O276 O 0.7603 0.8459 0.96014 0.0
C277 C 0.81818 0.86903 0.04667 0.0
O278 O 0.8083 0.852 0.05168 0.0
C279 C 0.74919 0.86428 0.88454 0.0
C280 C 0.72235 0.88143 0.86859 0.0
C281 C 0.73848 0.86971 0.85798 0.0
N282 N 0.74032 0.87288 0.90955 0.0
N283 N 0.72392 0.8827 0.90005 0.0
C284 C 0.76841 0.85207 0.88599 0.0
H285 H 0.78134 0.86208 0.89223 0.0
H286 H 0.77164 0.84437 0.86346 0.0
H287 H 0.7671 0.84026 0.90424 0.0
C288 C 0.8095 0.8993 0.94801 0.0
N289 N 0.79369 0.88855 0.95942 0.0
N290 N 0.77809 0.89052 0.94055 0.0
C291 C 0.78306 0.9037 0.91756 0.0
C292 C 0.80329 0.90928 0.92102 0.0
C293 C 0.82959 0.90125 0.96407 0.0
H294 H 0.82781 0.91127 0.98477 0.0
H295 H 0.83467 0.88612 0.97244 0.0
H296 H 0.84125 0.9079 0.94837 0.0
O297 O 0.76394 0.88746 0.01823 0.0
O298 O 0.73869 0.88784 0.98347 0.0
H299 H 0.75278 0.91188 0.90368 0.0
H300 H 0.77241 0.92752 0.88683 0.0
C301 C 0.76838 0.91186 0.89397 0.0
H302 H 0.76877 0.90228 0.8728 0.0
H303 H 0.7147 0.89146 0.91461 0.0
O304 O 0.81217 0.88104 0.02536 0.0
C305 C 0.74557 0.89166 0.01085 0.0
Co306 Co 0.89311 0.04026 0.74983 0.0
Co307 Co 0.89482 1.00518 0.70159 0.0
C308 C 0.93267 0.02483 0.73054 0.0
O309 O 0.92287 0.0383 0.74554 0.0
O310 O 0.92339 0.0115 0.71438 0.0
C311 C 0.89847 0.07575 0.78963 0.0
O312 O 0.91809 0.07416 0.78452 0.0
C313 C 0.90698 0.99875 0.63845 0.0
C314 C 0.8905 0.9713 0.62327 0.0
C315 C 0.90244 0.98719 0.61237 0.0
N316 N 0.89768 0.99058 0.6634 0.0
N317 N 0.88824 0.97384 0.65443 0.0
C318 C 0.91922 0.01797 0.63955 0.0
H319 H 0.90916 0.03098 0.64521 0.0
H320 H 0.92716 0.0209 0.61713 0.0
H321 H 0.93085 0.01684 0.65815 0.0
C322 C 0.86941 0.06003 0.69894 0.0
N323 N 0.88035 0.04452 0.71087 0.0
N324 N 0.87912 0.02884 0.69201 0.0
C325 C 0.86636 0.03349 0.66831 0.0
C326 C 0.86016 0.05356 0.67148 0.0
C327 C 0.86668 0.08008 0.71487 0.0
H328 H 0.857 0.07794 0.73586 0.0
H329 H 0.88165 0.08587 0.72281 0.0
H330 H 0.85936 0.09136 0.69922 0.0
O331 O 0.88167 0.01516 0.77027 0.0
O332 O 0.88137 0.98981 0.73582 0.0
H333 H 0.85898 1.00315 0.65375 0.0
H334 H 0.84415 0.02267 0.63487 0.0
C335 C 0.85941 0.01872 0.64394 0.0
H336 H 0.87008 0.01907 0.62402 0.0
H337 H 0.87917 0.96496 0.66905 0.0
O338 O 0.88629 0.06312 0.77726 0.0
C339 C 0.8775 0.99676 0.76308 0.0
Co340 Co 0.72715 0.14152 0.50152 0.0
Co341 Co 0.76168 0.14303 0.45229 0.0
C342 C 0.74244 0.18106 0.48101 0.0
O343 O 0.72959 0.17123 0.49717 0.0
O344 O 0.75533 0.17181 0.46401 0.0
C345 C 0.69803 0.14777 0.55025 0.0
O346 O 0.70802 0.16473 0.55533 0.0
C347 C 0.76696 0.1534 0.3881 0.0
C348 C 0.79612 0.13961 0.37414 0.0
C349 C 0.77918 0.14965 0.36249 0.0
N350 N 0.77583 0.14549 0.41362 0.0
N351 N 0.7935 0.1376 0.40534 0.0
C352 C 0.74658 0.16364 0.38807 0.0
H353 H 0.73438 0.15203 0.38751 0.0
H354 H 0.74487 0.1737 0.3674 0.0
H355 H 0.74451 0.1728 0.40946 0.0
C356 C 0.70692 0.11747 0.4513 0.0
N357 N 0.72251 0.12856 0.46272 0.0
N358 N 0.73809 0.12705 0.44372 0.0
C359 C 0.73336 0.11388 0.42061 0.0
C360 C 0.71329 0.10778 0.42414 0.0
C361 C 0.68695 0.11495 0.4675 0.0
H362 H 0.68911 0.10517 0.48837 0.0
H363 H 0.68138 0.12996 0.47565 0.0
H364 H 0.67548 0.10781 0.45198 0.0
O365 O 0.75218 0.12988 0.52176 0.0
O366 O 0.77733 0.13007 0.48686 0.0
H367 H 0.76387 0.10767 0.40519 0.0
H368 H 0.74504 0.09029 0.39043 0.0
C369 C 0.74807 0.10636 0.39653 0.0
H370 H 0.74634 0.1154 0.37491 0.0
H371 H 0.80323 0.12993 0.42058 0.0
O372 O 0.70388 0.13583 0.52875 0.0
C373 C 0.77059 0.12598 0.51421 0.0
Co374 Co 0.62558 0.97598 0.25085 0.0
Co375 Co 0.62353 0.01149 0.20324 0.0
C376 C 0.58584 0.99146 0.23191 0.0
O377 O 0.59578 0.97795 0.24659 0.0
O378 O 0.59499 1.00497 0.21594 0.0
C379 C 0.62033 0.94628 0.29907 0.0
O380 O 0.60322 0.9559 0.30463 0.0
C381 C 0.61077 0.01846 0.14055 0.0
C382 C 0.62783 0.04544 0.12497 0.0
C383 C 0.61536 0.02988 0.11434 0.0
N384 N 0.62052 0.02639 0.16529 0.0
N385 N 0.6303 0.04288 0.15609 0.0
C386 C 0.59803 0.99958 0.14201 0.0
H387 H 0.6075 0.98654 0.14957 0.0
H388 H 0.59072 0.9961 0.11928 0.0
H389 H 0.58581 1.00166 0.15951 0.0
C390 C 0.64902 0.9567 0.19921 0.0
N391 N 0.63821 0.97213 0.21168 0.0
N392 N 0.63928 0.98795 0.19308 0.0
C393 C 0.65182 0.98348 0.16902 0.0
C394 C 0.65803 0.96338 0.17167 0.0
C395 C 0.65183 0.93651 0.21463 0.0
H396 H 0.66188 0.9384 0.23527 0.0
H397 H 0.63695 0.93077 0.22305 0.0
H398 H 0.6588 0.92529 0.19849 0.0
O399 O 0.63704 1.00089 0.27195 0.0
O400 O 0.63694 0.02652 0.23792 0.0
H401 H 0.65952 0.01386 0.15521 0.0
H402 H 0.67364 0.99436 0.13502 0.0
C403 C 0.65862 0.99845 0.14487 0.0
H404 H 0.64759 0.99862 0.12543 0.0
H405 H 0.63978 0.0515 0.17048 0.0
O406 O 0.63191 0.95246 0.27732 0.0
C407 C 0.641 0.0194 0.26503 0.0
Co408 Co 0.79005 0.14246 0.99907 0.0
Co409 Co 0.75509 0.14472 0.04741 0.0
C410 C 0.77501 0.18224 0.01784 0.0
O411 O 0.78836 0.17227 0.00284 0.0
O412 O 0.76166 0.17313 0.03421 0.0
C413 C 0.82665 0.14667 0.96127 0.0
O414 O 0.8271 0.16591 0.96942 0.0
C415 C 0.74845 0.15759 0.11015 0.0
C416 C 0.72158 0.14041 0.12593 0.0
C417 C 0.73717 0.15287 0.13646 0.0
N418 N 0.74042 0.14786 0.08547 0.0
N419 N 0.724 0.13802 0.09478 0.0
C420 C 0.76727 0.1704 0.1085 0.0
H421 H 0.76531 0.18227 0.09041 0.0
H422 H 0.78042 0.16084 0.10168 0.0
H423 H 0.77049 0.17814 0.13099 0.0
C424 C 0.80983 0.11902 0.05024 0.0
N425 N 0.79434 0.12994 0.03821 0.0
N426 N 0.77871 0.129 0.05724 0.0
C427 C 0.78341 0.1165 0.08124 0.0
C428 C 0.80342 0.11012 0.078 0.0
C429 C 0.8298 0.116 0.0342 0.0
H430 H 0.82743 0.10665 0.01291 0.0
H431 H 0.83593 0.13093 0.02671 0.0
H432 H 0.84093 0.10824 0.04961 0.0
O433 O 0.76485 0.13107 0.97895 0.0
O434 O 0.73955 0.13116 0.01346 0.0
H435 H 0.75318 0.10901 0.09613 0.0
H436 H 0.77289 0.09498 0.11598 0.0
C437 C 0.76873 0.10993 0.10597 0.0
H438 H 0.76886 0.12111 0.12521 0.0
H439 H 0.71534 0.12854 0.08045 0.0
O440 O 0.8126 0.1352 0.97139 0.0
C441 C 0.74644 0.12706 0.98625 0.0
Co442 Co 0.62602 0.03925 0.75014 0.0
Co443 Co 0.62384 1.0045 0.79904 0.0
C444 C 0.58626 0.02395 0.76948 0.0
O445 O 0.59627 0.03717 0.75434 0.0
O446 O 0.59531 0.01071 0.78609 0.0
C447 C 0.61992 0.06926 0.70253 0.0
O448 O 0.60243 0.0601 0.69803 0.0
C449 C 0.61149 0.99845 0.86224 0.0
C450 C 0.6278 0.97102 0.87791 0.0
C451 C 0.61585 0.98699 0.8885 0.0
N452 N 0.62088 0.99012 0.83747 0.0
N453 N 0.63023 0.9734 0.84675 0.0
C454 C 0.5993 0.01768 0.86078 0.0
H455 H 0.58765 0.01642 0.84222 0.0
H456 H 0.60938 0.03062 0.85482 0.0
H457 H 0.59138 0.02083 0.88314 0.0
C458 C 0.64943 0.0593 0.80101 0.0
N459 N 0.63855 0.04371 0.78918 0.0
N460 N 0.63958 0.02819 0.80837 0.0
C461 C 0.65218 0.03301 0.8322 0.0
C462 C 0.65846 0.05303 0.82874 0.0
C463 C 0.65234 0.07921 0.78478 0.0
H464 H 0.66228 0.0769 0.76412 0.0
H465 H 0.63746 0.08493 0.77629 0.0
H466 H 0.65947 0.09063 0.80039 0.0
O467 O 0.63776 0.01417 0.72995 0.0
O468 O 0.63725 0.98903 0.76486 0.0
H469 H 0.65944 1.00278 0.8474 0.0
H470 H 0.67419 0.02243 0.8661 0.0
C471 C 0.65897 0.01842 0.85692 0.0
H472 H 0.6482 0.01895 0.87669 0.0
H473 H 0.63933 0.96441 0.83234 0.0
O474 O 0.63207 0.06258 0.72318 0.0
C475 C 0.64158 0.99576 0.73761 0.0
Co476 Co 0.7287 0.87451 0.50054 0.0
Co477 Co 0.76414 0.87372 0.54801 0.0
C478 C 0.74476 0.83522 0.52141 0.0
O479 O 0.73128 0.84486 0.50617 0.0
O480 O 0.75821 0.84466 0.53715 0.0
C481 C 0.69954 0.86827 0.45187 0.0
O482 O 0.7101 0.85177 0.44597 0.0
C483 C 0.77379 0.86321 0.61085 0.0
C484 C 0.80158 0.88065 0.62147 0.0
C485 C 0.78677 0.86846 0.63509 0.0
N486 N 0.78041 0.87209 0.58451 0.0
N487 N 0.79735 0.88208 0.59069 0.0
C488 C 0.75361 0.85272 0.61334 0.0
H489 H 0.74443 0.85492 0.59192 0.0
H490 H 0.74497 0.85848 0.63379 0.0
H491 H 0.75612 0.83618 0.6165 0.0
C492 C 0.70887 0.89797 0.55198 0.0
N493 N 0.72469 0.88775 0.53946 0.0
N494 N 0.74025 0.88875 0.55861 0.0
C495 C 0.73512 0.90042 0.58338 0.0
C496 C 0.71492 0.90637 0.58042 0.0
C497 C 0.68822 0.89893 0.53739 0.0
H498 H 0.68465 0.88428 0.52582 0.0
H499 H 0.67636 0.90231 0.55508 0.0
H500 H 0.68811 0.91104 0.51933 0.0
O501 O 0.75314 0.88584 0.47803 0.0
O502 O 0.77829 0.88729 0.51279 0.0
H503 H 0.74543 0.92307 0.61622 0.0
H504 H 0.74978 0.89725 0.62782 0.0
C505 C 0.74983 0.90778 0.6076 0.0
H506 H 0.76536 0.90862 0.59773 0.0
H507 H 0.80515 0.891 0.5745 0.0
O508 O 0.70496 0.87988 0.47405 0.0
C509 C 0.77139 0.89052 0.48534 0.0
Co510 Co 0.89171 0.97689 0.24641 0.0
Co511 Co 0.89383 0.01117 0.29621 0.0
C512 C 0.93152 0.992 0.26665 0.0
O513 O 0.92156 0.97921 0.25054 0.0
O514 O 0.9224 1.00487 0.28383 0.0
C515 C 0.8976 0.94714 0.19816 0.0
O516 O 0.91508 0.95629 0.19344 0.0
C517 C 0.90522 0.0168 0.36008 0.0
C518 C 0.88998 0.04506 0.37477 0.0
C519 C 0.90104 0.02865 0.38598 0.0
N520 N 0.89655 0.02535 0.33486 0.0
N521 N 0.88782 0.04253 0.34358 0.0
C522 C 0.91649 0.99698 0.35955 0.0
H523 H 0.90553 0.98423 0.3579 0.0
H524 H 0.92587 0.99502 0.38089 0.0
H525 H 0.9266 0.99621 0.33898 0.0
C526 C 0.86768 0.95665 0.29666 0.0
N527 N 0.87885 0.9722 0.28527 0.0
N528 N 0.87823 0.98742 0.30511 0.0
C529 C 0.86598 0.9823 0.3292 0.0
C530 C 0.85932 0.96252 0.32508 0.0
C531 C 0.86488 0.93674 0.28041 0.0
H532 H 0.85431 0.93885 0.26045 0.0
H533 H 0.87966 0.93143 0.27095 0.0
H534 H 0.85852 0.9251 0.29644 0.0
O535 O 0.8801 1.00197 0.2266 0.0
O536 O 0.88045 0.02686 0.2619 0.0
H537 H 0.85857 0.01251 0.34465 0.0
H538 H 0.84287 0.99266 0.36111 0.0
C539 C 0.85852 0.99673 0.35366 0.0
H540 H 0.86841 0.99576 0.37446 0.0
H541 H 0.8794 0.05186 0.3287 0.0
O542 O 0.88564 0.95373 0.21911 0.0
C543 C 0.87623 0.0203 0.23449 0.0
Co544 Co 0.73048 0.64183 0.49995 0.0
Co545 Co 0.76357 0.64287 0.55151 0.0
C546 C 0.74466 0.68113 0.52184 0.0
O547 O 0.7321 0.67147 0.50487 0.0
O548 O 0.75722 0.6717 0.53926 0.0
C549 C 0.69467 0.64615 0.46017 0.0
O550 O 0.69349 0.6652 0.46914 0.0
C551 C 0.76678 0.65336 0.61603 0.0
C552 C 0.79429 0.63769 0.6329 0.0
C553 C 0.77742 0.64855 0.64292 0.0
N554 N 0.77642 0.64521 0.59135 0.0
N555 N 0.79318 0.63626 0.60141 0.0
C556 C 0.74701 0.66462 0.61391 0.0
H557 H 0.73448 0.65377 0.60932 0.0
H558 H 0.74375 0.6731 0.63577 0.0
H559 H 0.74746 0.6756 0.59438 0.0
C560 C 0.7089 0.61735 0.54853 0.0
N561 N 0.7248 0.62844 0.53816 0.0
N562 N 0.73987 0.62678 0.5581 0.0
C563 C 0.73453 0.61351 0.58074 0.0
C564 C 0.71455 0.60749 0.57593 0.0
C565 C 0.68922 0.6152 0.53136 0.0
H566 H 0.69178 0.60614 0.50983 0.0
H567 H 0.68367 0.63042 0.52419 0.0
H568 H 0.67755 0.6075 0.54588 0.0
O569 O 0.75649 0.63126 0.48132 0.0
O570 O 0.78033 0.62985 0.51829 0.0
H571 H 0.76456 0.60653 0.59734 0.0
H572 H 0.74499 0.58994 0.61203 0.0
C573 C 0.74861 0.60582 0.60554 0.0
H574 H 0.74692 0.6152 0.62679 0.0
H575 H 0.80309 0.62805 0.58715 0.0
O576 O 0.70887 0.6349 0.47037 0.0
C577 C 0.77452 0.62686 0.49013 0.0
Co578 Co 0.62519 0.47779 0.75108 0.0
Co579 Co 0.62382 0.51368 0.79784 0.0
C580 C 0.58562 0.49378 0.7713 0.0
O581 O 0.59547 0.48039 0.75617 0.0
O582 O 0.59486 0.50732 0.78712 0.0
C583 C 0.61921 0.44834 0.70284 0.0
O584 O 0.60264 0.45877 0.69686 0.0
C585 C 0.61315 0.52355 0.86062 0.0
C586 C 0.63038 0.5515 0.87101 0.0
C587 C 0.61827 0.53667 0.88475 0.0
N588 N 0.62201 0.53012 0.83422 0.0
N589 N 0.63189 0.54714 0.84027 0.0
C590 C 0.6028 0.50332 0.86333 0.0
H591 H 0.60518 0.49401 0.84209 0.0
H592 H 0.60853 0.49487 0.88398 0.0
H593 H 0.58622 0.50571 0.86626 0.0
C594 C 0.64842 0.45853 0.80299 0.0
N595 N 0.63816 0.47419 0.79015 0.0
N596 N 0.63911 0.48995 0.80891 0.0
C597 C 0.65077 0.48506 0.83383 0.0
C598 C 0.65679 0.46486 0.83128 0.0
C599 C 0.64944 0.43777 0.78882 0.0
H600 H 0.66161 0.43751 0.77086 0.0
H601 H 0.63483 0.43409 0.7772 0.0
H602 H 0.65276 0.42606 0.80676 0.0
O603 O 0.63681 0.50198 0.72859 0.0
O604 O 0.63696 0.52786 0.76202 0.0
H605 H 0.67331 0.49574 0.86656 0.0
H606 H 0.64744 0.49996 0.87804 0.0
C607 C 0.658 0.49997 0.85785 0.0
H608 H 0.65871 0.51545 0.84775 0.0
H609 H 0.64077 0.55494 0.82403 0.0
O610 O 0.63078 0.45391 0.72499 0.0
C611 C 0.64087 0.5205 0.73504 0.0
Co612 Co 0.79039 0.3759 0.99907 0.0
Co613 Co 0.75624 0.37394 0.04894 0.0
C614 C 0.77537 0.33618 0.01941 0.0
O615 O 0.78799 0.34613 0.00299 0.0
O616 O 0.76264 0.3453 0.03685 0.0
C617 C 0.81984 0.36989 0.95051 0.0
O618 O 0.81039 0.35258 0.94571 0.0
C619 C 0.75145 0.36342 0.11317 0.0
C620 C 0.72217 0.37679 0.12752 0.0
C621 C 0.73929 0.36694 0.13893 0.0
N622 N 0.74236 0.37128 0.08779 0.0
N623 N 0.72462 0.37892 0.09631 0.0
C624 C 0.77195 0.35342 0.11291 0.0
H625 H 0.784 0.36515 0.11393 0.0
H626 H 0.77373 0.3431 0.13326 0.0
H627 H 0.77417 0.34461 0.0912 0.0
C628 C 0.81086 0.39973 0.04927 0.0
N629 N 0.79527 0.38858 0.03801 0.0
N630 N 0.7798 0.38996 0.05726 0.0
C631 C 0.78459 0.4031 0.08038 0.0
C632 C 0.8046 0.40931 0.07658 0.0
C633 C 0.8307 0.40248 0.03276 0.0
H634 H 0.82835 0.41247 0.01218 0.0
H635 H 0.83626 0.38757 0.02417 0.0
H636 H 0.84226 0.40951 0.04826 0.0
O637 O 0.76523 0.38777 0.97951 0.0
O638 O 0.74032 0.38699 0.01481 0.0
H639 H 0.75413 0.40909 0.09623 0.0
H640 H 0.77292 0.42664 0.11064 0.0
C641 C 0.76998 0.41053 0.10465 0.0
H642 H 0.77191 0.40155 0.12628 0.0
H643 H 0.71472 0.38648 0.08122 0.0
O644 O 0.81352 0.38186 0.97166 0.0
C645 C 0.74686 0.39146 0.9875 0.0
Co646 Co 0.89236 0.5419 0.24784 0.0
Co647 Co 0.89503 0.50657 0.29572 0.0
C648 C 0.93233 0.52639 0.26608 0.0
O649 O 0.92225 0.53993 0.25168 0.0
O650 O 0.92335 0.51288 0.28223 0.0
C651 C 0.89752 0.57149 0.19955 0.0
O652 O 0.91464 0.56186 0.1941 0.0
C653 C 0.90874 0.49883 0.35774 0.0
C654 C 0.89061 0.47266 0.37377 0.0
C655 C 0.90388 0.48764 0.3841 0.0
N656 N 0.89833 0.49137 0.33329 0.0
N657 N 0.88793 0.47532 0.34273 0.0
C658 C 0.9224 0.51702 0.35582 0.0
H659 H 0.91351 0.53052 0.34846 0.0
H660 H 0.9302 0.52013 0.3783 0.0
H661 H 0.93428 0.51427 0.33798 0.0
C662 C 0.86926 0.56128 0.29979 0.0
N663 N 0.87997 0.54582 0.28721 0.0
N664 N 0.87985 0.53035 0.30661 0.0
C665 C 0.86845 0.53528 0.33176 0.0
C666 C 0.86175 0.55515 0.32865 0.0
C667 C 0.86631 0.58145 0.28436 0.0
H668 H 0.88092 0.58673 0.27426 0.0
H669 H 0.86049 0.59295 0.30111 0.0
H670 H 0.85527 0.57974 0.26492 0.0
O671 O 0.88082 0.51705 0.227 0.0
O672 O 0.88108 0.49164 0.26139 0.0
H673 H 0.84691 0.52528 0.36656 0.0
H674 H 0.873 0.52025 0.37539 0.0
C675 C 0.86169 0.5206 0.35634 0.0
H676 H 0.86015 0.50518 0.34625 0.0
H677 H 0.87786 0.46719 0.32863 0.0
O678 O 0.88591 0.56536 0.2213 0.0
C679 C 0.87687 0.49861 0.23425 0.0
Co680 Co 0.72648 0.37472 0.50081 0.0
Co681 Co 0.76209 0.37282 0.45341 0.0
C682 C 0.74228 0.33506 0.48203 0.0
O683 O 0.72869 0.34493 0.49668 0.0
O684 O 0.75575 0.34428 0.46609 0.0
C685 C 0.69719 0.36945 0.54946 0.0
O686 O 0.70734 0.3527 0.55539 0.0
C687 C 0.76994 0.35971 0.39119 0.0
C688 C 0.79618 0.37789 0.37559 0.0
C689 C 0.7812 0.36471 0.36498 0.0
N690 N 0.77736 0.36993 0.41585 0.0
N691 N 0.79345 0.38036 0.40666 0.0
C692 C 0.75164 0.34615 0.39275 0.0
H693 H 0.73827 0.35497 0.40082 0.0
H694 H 0.74829 0.33884 0.36997 0.0
H695 H 0.75445 0.33389 0.40995 0.0
C696 C 0.70706 0.39781 0.44888 0.0
N697 N 0.72259 0.38721 0.4615 0.0
N698 N 0.73839 0.38825 0.44285 0.0
C699 C 0.73378 0.40053 0.41854 0.0
C700 C 0.71364 0.40662 0.42113 0.0
C701 C 0.68687 0.40061 0.46432 0.0
H702 H 0.68876 0.41066 0.48495 0.0
H703 H 0.68116 0.38572 0.47277 0.0
H704 H 0.67563 0.40754 0.44818 0.0
O705 O 0.75123 0.38644 0.52209 0.0
O706 O 0.77687 0.38641 0.48809 0.0
H707 H 0.76398 0.40883 0.40465 0.0
H708 H 0.74418 0.42186 0.38341 0.0
C709 C 0.74866 0.40722 0.39418 0.0
H710 H 0.74928 0.39575 0.3754 0.0
H711 H 0.80158 0.39031 0.42098 0.0
O712 O 0.70288 0.38088 0.52721 0.0
C713 C 0.76971 0.3905 0.51515 0.0
Co714 Co 0.89194 0.47814 0.7501 0.0
Co715 Co 0.89363 0.51219 0.70012 0.0
C716 C 0.9316 0.49339 0.72959 0.0
O717 O 0.92172 0.48075 0.74609 0.0
O718 O 0.92238 0.50601 0.7121 0.0
C719 C 0.89821 0.44872 0.79867 0.0
O720 O 0.91552 0.45818 0.80338 0.0
C721 C 0.90387 0.51687 0.6358 0.0
C722 C 0.89106 0.54644 0.62166 0.0
C723 C 0.90061 0.52919 0.61015 0.0
N724 N 0.89617 0.52603 0.66124 0.0
N725 N 0.88884 0.54391 0.65284 0.0
C726 C 0.91359 0.49625 0.63593 0.0
H727 H 0.90175 0.48438 0.63343 0.0
H728 H 0.92448 0.49471 0.61624 0.0
H729 H 0.92164 0.49346 0.65818 0.0
C730 C 0.8681 0.45745 0.70011 0.0
N731 N 0.87921 0.47311 0.71123 0.0
N732 N 0.8777 0.48853 0.69192 0.0
C733 C 0.8645 0.48364 0.66893 0.0
C734 C 0.85839 0.46361 0.67285 0.0
C735 C 0.86549 0.43764 0.71674 0.0
H736 H 0.85554 0.43999 0.73737 0.0
H737 H 0.88045 0.43217 0.72527 0.0
H738 H 0.85847 0.42602 0.70136 0.0
O739 O 0.87991 0.50324 0.76962 0.0
O740 O 0.88053 0.5281 0.73423 0.0
H741 H 0.85861 0.51406 0.65273 0.0
H742 H 0.84068 0.49536 0.63928 0.0
C743 C 0.8569 0.49817 0.64465 0.0
H744 H 0.86554 0.49596 0.62275 0.0
H745 H 0.8815 0.55392 0.66802 0.0
O746 O 0.88617 0.45502 0.7776 0.0
C747 C 0.8761 0.52157 0.76158 0.0
Co748 Co 0.78946 0.64302 0.99797 0.0
Co749 Co 0.75335 0.644 0.9517 0.0
C750 C 0.77293 0.68239 0.97786 0.0
O751 O 0.78652 0.67271 0.99281 0.0
O752 O 0.75939 0.673 0.96227 0.0
C753 C 0.81879 0.64934 0.04614 0.0
O754 O 0.80793 0.6656 0.05234 0.0
C755 C 0.74264 0.6546 0.88935 0.0
C756 C 0.71478 0.63703 0.87964 0.0
C757 C 0.72928 0.64939 0.8656 0.0
N758 N 0.73651 0.64557 0.91584 0.0
N759 N 0.71954 0.6355 0.91023 0.0
C760 C 0.76272 0.66519 0.88614 0.0
H761 H 0.77231 0.66287 0.9071 0.0
H762 H 0.77101 0.6596 0.86523 0.0
H763 H 0.7601 0.68174 0.88335 0.0
C764 C 0.80869 0.61987 0.94592 0.0
N765 N 0.793 0.63004 0.95888 0.0
N766 N 0.77719 0.62899 0.94024 0.0
C767 C 0.78207 0.61737 0.91527 0.0
C768 C 0.80232 0.61146 0.91768 0.0
C769 C 0.8295 0.61896 0.95995 0.0
H770 H 0.83315 0.63361 0.97147 0.0
H771 H 0.84118 0.61566 0.94195 0.0
H772 H 0.82986 0.60684 0.97798 0.0
O773 O 0.76553 0.63113 0.02085 0.0
O774 O 0.73957 0.63074 0.98759 0.0
H775 H 0.77144 0.59487 0.88244 0.0
H776 H 0.76694 0.62075 0.87125 0.0
C777 C 0.76712 0.61011 0.89133 0.0
H778 H 0.75169 0.60923 0.90157 0.0
H779 H 0.71206 0.62647 0.92664 0.0
O780 O 0.81352 0.63778 0.02381 0.0
C781 C 0.74704 0.62688 0.01449 0.0
Co782 Co 0.62627 0.53843 0.25014 0.0
Co783 Co 0.62464 0.50449 0.19973 0.0
C784 C 0.58671 0.52383 0.22945 0.0
O785 O 0.59657 0.53643 0.24606 0.0
O786 O 0.59592 0.51114 0.21199 0.0
C787 C 0.62155 0.57393 0.29039 0.0
O788 O 0.60201 0.57352 0.28412 0.0
C789 C 0.61404 0.50067 0.13523 0.0
C790 C 0.6296 0.47297 0.11896 0.0
C791 C 0.61883 0.48979 0.10854 0.0
N792 N 0.62213 0.49121 0.16014 0.0
N793 N 0.63102 0.47434 0.15043 0.0
C794 C 0.60283 0.52048 0.13693 0.0
H795 H 0.61375 0.53304 0.14098 0.0
H796 H 0.59424 0.52349 0.11509 0.0
H797 H 0.59197 0.52031 0.15663 0.0
C798 C 0.65022 0.55924 0.20058 0.0
N799 N 0.63915 0.54351 0.21153 0.0
N800 N 0.6408 0.52812 0.1922 0.0
C801 C 0.65403 0.53312 0.16931 0.0
C802 C 0.66005 0.55316 0.17339 0.0
C803 C 0.65253 0.5791 0.21717 0.0
H804 H 0.66218 0.57686 0.23817 0.0
H805 H 0.63743 0.58454 0.22513 0.0
H806 H 0.65973 0.59072 0.20197 0.0
O807 O 0.63755 0.51292 0.26905 0.0
O808 O 0.63756 0.48807 0.23372 0.0
H809 H 0.66086 0.50286 0.15361 0.0
H810 H 0.67756 0.52215 0.13837 0.0
C811 C 0.66165 0.51869 0.14494 0.0
H812 H 0.65229 0.52016 0.12362 0.0
H813 H 0.63919 0.46453 0.16489 0.0
O814 O 0.63327 0.56063 0.27866 0.0
C815 C 0.64149 0.49459 0.26126 0.0
Co816 Co 0.29008 0.3761 0.5008 0.0
Co817 Co 0.25513 0.37424 0.45216 0.0
C818 C 0.27469 0.33645 0.48089 0.0
O819 O 0.28794 0.34637 0.49616 0.0
O820 O 0.2614 0.3456 0.46452 0.0
C821 C 0.32029 0.36986 0.5482 0.0
O822 O 0.31113 0.35238 0.5528 0.0
C823 C 0.24841 0.36205 0.38909 0.0
C824 C 0.22165 0.3795 0.37358 0.0
C825 C 0.23716 0.36701 0.36285 0.0
N826 N 0.24044 0.37164 0.41395 0.0
N827 N 0.22408 0.38166 0.40478 0.0
C828 C 0.26715 0.34912 0.39053 0.0
H829 H 0.26495 0.33692 0.40803 0.0
H830 H 0.28029 0.35846 0.39806 0.0
H831 H 0.27052 0.34178 0.36777 0.0
C832 C 0.30995 0.39985 0.45017 0.0
N833 N 0.2944 0.38887 0.4619 0.0
N834 N 0.27884 0.38996 0.44276 0.0
C835 C 0.28362 0.40266 0.41904 0.0
C836 C 0.30364 0.40898 0.42255 0.0
C837 C 0.32987 0.40273 0.46639 0.0
H838 H 0.32753 0.41249 0.48725 0.0
H839 H 0.33569 0.38782 0.47457 0.0
H840 H 0.34124 0.41004 0.45089 0.0
O841 O 0.26513 0.38776 0.52146 0.0
O842 O 0.23988 0.3875 0.48674 0.0
H843 H 0.25347 0.41048 0.40421 0.0
H844 H 0.27331 0.42445 0.38456 0.0
C845 C 0.26901 0.40949 0.39438 0.0
H846 H 0.26906 0.39841 0.375 0.0
H847 H 0.21548 0.39107 0.41927 0.0
O848 O 0.31354 0.382 0.5276 0.0
C849 C 0.24671 0.39167 0.51399 0.0
Co850 Co 0.39319 0.54041 0.25089 0.0
Co851 Co 0.39466 0.50501 0.2031 0.0
C852 C 0.43267 0.52448 0.23143 0.0
O853 O 0.42293 0.53803 0.24634 0.0
O854 O 0.42332 0.51112 0.21545 0.0
C855 C 0.3992 0.57036 0.29865 0.0
O856 O 0.41632 0.5607 0.30401 0.0
C857 C 0.40732 0.49736 0.14062 0.0
C858 C 0.38888 0.47131 0.125 0.0
C859 C 0.40207 0.48627 0.11437 0.0
N860 N 0.39723 0.48988 0.16535 0.0
N861 N 0.38663 0.4739 0.15615 0.0
C862 C 0.42099 0.51557 0.14219 0.0
H863 H 0.41229 0.52895 0.15053 0.0
H864 H 0.42818 0.51899 0.11934 0.0
H865 H 0.43335 0.51262 0.15917 0.0
C866 C 0.36967 0.56005 0.19971 0.0
N867 N 0.38045 0.5445 0.21184 0.0
N868 N 0.37926 0.52879 0.193 0.0
C869 C 0.36671 0.53351 0.16906 0.0
C870 C 0.36057 0.55361 0.17212 0.0
C871 C 0.36693 0.58012 0.21554 0.0
H872 H 0.35709 0.57804 0.23637 0.0
H873 H 0.38187 0.58586 0.22371 0.0
H874 H 0.35977 0.59143 0.19977 0.0
O875 O 0.38137 0.51571 0.27206 0.0
O876 O 0.38116 0.49021 0.23782 0.0
H877 H 0.35819 0.50343 0.15496 0.0
H878 H 0.34519 0.52337 0.134 0.0
C879 C 0.35984 0.51877 0.14461 0.0
H880 H 0.37125 0.51816 0.12574 0.0
H881 H 0.37673 0.46577 0.17051 0.0
O882 O 0.38735 0.56405 0.27733 0.0
C883 C 0.37718 0.49729 0.26497 0.0
Co884 Co 0.22887 0.64266 0.00085 0.0
Co885 Co 0.26359 0.64345 0.95184 0.0
C886 C 0.24475 0.68189 0.9799 0.0
O887 O 0.23177 0.67232 0.99618 0.0
O888 O 0.25754 0.67237 0.96306 0.0
C889 C 0.19862 0.64962 0.04812 0.0
O890 O 0.2079 0.66705 0.05259 0.0
C891 C 0.26936 0.65354 0.88765 0.0
C892 C 0.29766 0.63807 0.87368 0.0
C893 C 0.28122 0.64887 0.86197 0.0
N894 N 0.27792 0.64539 0.91325 0.0
N895 N 0.29513 0.63653 0.90496 0.0
C896 C 0.24949 0.66473 0.88764 0.0
H897 H 0.24866 0.67522 0.90776 0.0
H898 H 0.23678 0.65376 0.88973 0.0
H899 H 0.24751 0.6737 0.86588 0.0
C900 C 0.20846 0.61873 0.95068 0.0
N901 N 0.22418 0.62962 0.96213 0.0
N902 N 0.23981 0.62775 0.9433 0.0
C903 C 0.23496 0.61454 0.9203 0.0
C904 C 0.21477 0.60879 0.9237 0.0
C905 C 0.18838 0.61661 0.9667 0.0
H906 H 0.19026 0.60671 0.98751 0.0
H907 H 0.1831 0.63171 0.97489 0.0
H908 H 0.17681 0.60975 0.95104 0.0
O909 O 0.25366 0.63072 0.02143 0.0
O910 O 0.27891 0.63046 0.9867 0.0
H911 H 0.26538 0.60729 0.90572 0.0
H912 H 0.24611 0.59075 0.88998 0.0
C913 C 0.24966 0.60664 0.89652 0.0
H914 H 0.2486 0.61592 0.87508 0.0
H915 H 0.30446 0.62841 0.92023 0.0
O916 O 0.20536 0.6373 0.02777 0.0
C917 C 0.27204 0.62656 0.01403 0.0
Co918 Co 0.12513 0.47775 0.75127 0.0
Co919 Co 0.12381 0.51312 0.70351 0.0
C920 C 0.08567 0.49375 0.73176 0.0
O921 O 0.09542 0.48017 0.74659 0.0
O922 O 0.09502 0.50716 0.71584 0.0
C923 C 0.11908 0.44797 0.7992 0.0
O924 O 0.10191 0.45758 0.80433 0.0
C925 C 0.11305 0.51939 0.63967 0.0
C926 C 0.12881 0.54752 0.62572 0.0
C927 C 0.1177 0.53129 0.61403 0.0
N928 N 0.12147 0.52775 0.66523 0.0
N929 N 0.13052 0.54486 0.65695 0.0
C930 C 0.10168 0.49963 0.6396 0.0
H931 H 0.11258 0.48682 0.64095 0.0
H932 H 0.0924 0.49796 0.61809 0.0
H933 H 0.09151 0.49869 0.66011 0.0
C934 C 0.14843 0.45796 0.69975 0.0
N935 N 0.13788 0.47355 0.71229 0.0
N936 N 0.13925 0.48938 0.69379 0.0
C937 C 0.15173 0.48477 0.66977 0.0
C938 C 0.15753 0.46451 0.6721 0.0
C939 C 0.14932 0.43717 0.71382 0.0
H940 H 0.13484 0.43368 0.72597 0.0
H941 H 0.1522 0.42547 0.69566 0.0
H942 H 0.1618 0.43667 0.73126 0.0
O943 O 0.13691 0.50256 0.77232 0.0
O944 O 0.1373 0.52809 0.73812 0.0
H945 H 0.17618 0.49596 0.64095 0.0
H946 H 0.15116 0.50085 0.62629 0.0
C947 C 0.16046 0.50018 0.64778 0.0
H948 H 0.16065 0.5154 0.65886 0.0
H949 H 0.13891 0.55399 0.67216 0.0
O950 O 0.131 0.45425 0.77795 0.0
C951 C 0.14118 0.52098 0.7653 0.0
Co952 Co 0.29092 0.64316 0.49861 0.0
Co953 Co 0.25587 0.64387 0.54687 0.0
C954 C 0.27497 0.68229 0.51897 0.0
O955 O 0.28864 0.6728 0.50394 0.0
O956 O 0.26163 0.6727 0.5347 0.0
C957 C 0.32033 0.64928 0.45008 0.0
O958 O 0.31049 0.6663 0.44483 0.0
C959 C 0.24925 0.65521 0.61023 0.0
C960 C 0.22234 0.63776 0.62514 0.0
C961 C 0.23795 0.64998 0.63625 0.0
N962 N 0.2412 0.64605 0.58506 0.0
N963 N 0.22476 0.63602 0.59388 0.0
C964 C 0.26819 0.66788 0.60941 0.0
H965 H 0.26674 0.67975 0.59121 0.0
H966 H 0.28142 0.65823 0.60336 0.0
H967 H 0.27101 0.67556 0.63209 0.0
C968 C 0.31117 0.61975 0.54986 0.0
N969 N 0.29538 0.6301 0.53745 0.0
N970 N 0.27973 0.62869 0.55629 0.0
C971 C 0.28461 0.6164 0.58039 0.0
C972 C 0.3049 0.61075 0.57776 0.0
C973 C 0.33189 0.61901 0.53553 0.0
H974 H 0.33238 0.60654 0.51807 0.0
H975 H 0.3352 0.63351 0.52332 0.0
H976 H 0.34371 0.61621 0.55353 0.0
O977 O 0.26588 0.63188 0.4773 0.0
O978 O 0.241 0.6302 0.51261 0.0
H979 H 0.25424 0.60686 0.59158 0.0
H980 H 0.27402 0.59218 0.61022 0.0
C981 C 0.26943 0.60766 0.60272 0.0
H982 H 0.26846 0.61733 0.62377 0.0
H983 H 0.21608 0.62688 0.57908 0.0
O984 O 0.3143 0.63744 0.47161 0.0
C985 C 0.24769 0.62712 0.48498 0.0
Co986 Co 0.12621 0.54129 0.24701 0.0
Co987 Co 0.12389 0.50727 0.29727 0.0
C988 C 0.08631 0.52635 0.26748 0.0
O989 O 0.09638 0.53892 0.25113 0.0
O990 O 0.09532 0.51359 0.285 0.0
C991 C 0.11991 0.57082 0.1987 0.0
O992 O 0.10259 0.56136 0.19406 0.0
C993 C 0.11273 0.50168 0.36129 0.0
C994 C 0.12848 0.47371 0.376 0.0
C995 C 0.1173 0.49002 0.38726 0.0
N996 N 0.12134 0.49314 0.33602 0.0
N997 N 0.13035 0.47612 0.34475 0.0
C998 C 0.10116 0.52132 0.36069 0.0
H999 H 0.11188 0.53421 0.35825 0.0
H1000 H 0.09206 0.52338 0.3823 0.0
H1001 H 0.09071 0.52167 0.34047 0.0
C1002 C 0.15025 0.56171 0.29704 0.0
N1003 N 0.13902 0.54614 0.28585 0.0
N1004 N 0.13953 0.53104 0.30592 0.0
C1005 C 0.15178 0.53626 0.32996 0.0
C1006 C 0.15854 0.55598 0.32556 0.0
C1007 C 0.15317 0.58149 0.28048 0.0
H1008 H 0.16356 0.57915 0.26038 0.0
H1009 H 0.13839 0.58692 0.27119 0.0
H1010 H 0.15977 0.59315 0.29625 0.0
O1011 O 0.13792 0.5162 0.22741 0.0
O1012 O 0.13718 0.49147 0.26299 0.0
H1013 H 0.15926 0.50613 0.34569 0.0
H1014 H 0.17484 0.52607 0.36211 0.0
C1015 C 0.15923 0.52194 0.35459 0.0
H1016 H 0.14928 0.52296 0.37532 0.0
H1017 H 0.13882 0.46686 0.32983 0.0
O1018 O 0.13204 0.56444 0.2196 0.0
C1019 C 0.14162 0.49788 0.23557 0.0
Co1020 Co 0.22709 0.37501 0.99952 0.0
Co1021 Co 0.2625 0.37368 0.04724 0.0
C1022 C 0.24305 0.33558 0.01895 0.0
O1023 O 0.22944 0.34534 0.00422 0.0
O1024 O 0.25652 0.3449 0.03481 0.0
C1025 C 0.1976 0.36911 0.95118 0.0
O1026 O 0.20747 0.35212 0.94582 0.0
C1027 C 0.26846 0.36289 0.11113 0.0
C1028 C 0.29662 0.37848 0.12543 0.0
C1029 C 0.28026 0.36746 0.13692 0.0
N1030 N 0.27699 0.37126 0.08568 0.0
N1031 N 0.29411 0.38021 0.09417 0.0
C1032 C 0.2486 0.35168 0.111 0.0
H1033 H 0.24758 0.34163 0.09035 0.0
H1034 H 0.23587 0.36267 0.10981 0.0
H1035 H 0.24685 0.34229 0.13239 0.0
C1036 C 0.20732 0.39828 0.05105 0.0
N1037 N 0.22292 0.38777 0.03847 0.0
N1038 N 0.23878 0.38917 0.05691 0.0
C1039 C 0.2342 0.40165 0.08093 0.0
C1040 C 0.21391 0.40741 0.07867 0.0
C1041 C 0.18651 0.39914 0.03705 0.0
H1042 H 0.18304 0.38468 0.02484 0.0
H1043 H 0.17483 0.40197 0.05525 0.0
H1044 H 0.18595 0.41164 0.01965 0.0
O1045 O 0.25195 0.38668 0.9785 0.0
O1046 O 0.27754 0.38712 0.01261 0.0
H1047 H 0.24544 0.4262 0.10947 0.0
H1048 H 0.25034 0.40126 0.12436 0.0
C1049 C 0.24964 0.41045 0.10279 0.0
H1050 H 0.26486 0.41058 0.09166 0.0
H1051 H 0.30337 0.38855 0.07909 0.0
O1052 O 0.20361 0.3809 0.97277 0.0
C1053 C 0.27039 0.39093 0.98543 0.0
Co1054 Co 0.39216 0.47769 0.74885 0.0
Co1055 Co 0.39332 0.51198 0.79848 0.0
C1056 C 0.43157 0.4929 0.77025 0.0
O1057 O 0.42188 0.48016 0.75366 0.0
O1058 O 0.42216 0.50565 0.78727 0.0
C1059 C 0.39861 0.44857 0.70004 0.0
O1060 O 0.41564 0.45848 0.69511 0.0
C1061 C 0.40304 0.51673 0.86298 0.0
C1062 C 0.38982 0.54614 0.87697 0.0
C1063 C 0.39938 0.52894 0.88862 0.0
N1064 N 0.39554 0.52588 0.83739 0.0
N1065 N 0.38797 0.54368 0.8457 0.0
C1066 C 0.41288 0.49616 0.86302 0.0
H1067 H 0.40106 0.48421 0.86458 0.0
H1068 H 0.42331 0.49451 0.88327 0.0
H1069 H 0.4215 0.49361 0.84123 0.0
C1070 C 0.36792 0.4572 0.79867 0.0
N1071 N 0.37898 0.47287 0.78744 0.0
N1072 N 0.37723 0.48841 0.80646 0.0
C1073 C 0.36391 0.48359 0.82932 0.0
C1074 C 0.35799 0.46349 0.82567 0.0
C1075 C 0.3657 0.4372 0.78245 0.0
H1076 H 0.35589 0.43922 0.76158 0.0
H1077 H 0.3808 0.43185 0.77433 0.0
H1078 H 0.35871 0.42564 0.79798 0.0
O1079 O 0.38056 0.5028 0.72866 0.0
O1080 O 0.38072 0.5278 0.76383 0.0
H1081 H 0.35781 0.51408 0.84502 0.0
H1082 H 0.33982 0.4954 0.85834 0.0
C1083 C 0.35608 0.49822 0.85327 0.0
H1084 H 0.36453 0.49615 0.87537 0.0
H1085 H 0.38067 0.55365 0.83041 0.0
O1086 O 0.38661 0.45448 0.72141 0.0
C1087 C 0.37671 0.52119 0.73637 0.0
H1088 H 0.15116 0.05991 0.23759 0.0
H1089 H 0.15215 0.00904 0.1737 0.0
H1090 H 0.16739 0.08113 0.19794 0.0
H1091 H 0.16802 0.03031 0.13407 0.0
H1092 H 0.21801 0.06784 0.08534 0.0
H1093 H 0.20023 0.04662 0.12351 0.0
H1094 H 0.16151 0.09733 0.14733 0.0
H1095 H 0.17976 0.11858 0.10949 0.0
C1096 C 0.15473 0.05325 0.21509 0.0
C1097 C 0.15036 0.03269 0.209 0.0
C1098 C 0.16393 0.06547 0.19224 0.0
C1099 C 0.16906 0.05746 0.16274 0.0
C1100 C 0.16455 0.03695 0.15662 0.0
C1101 C 0.15533 0.02476 0.17938 0.0
C1102 C 0.20564 0.07435 0.09871 0.0
C1103 C 0.20028 0.0948 0.0947 0.0
C1104 C 0.19535 0.0622 0.12044 0.0
C1105 C 0.17945 0.07026 0.13869 0.0
C1106 C 0.17384 0.09069 0.13405 0.0
C1107 C 0.18412 0.10281 0.1122 0.0
H1108 H 0.15367 0.96368 0.39115 0.0
H1109 H 0.18825 0.93665 0.31625 0.0
H1110 H 0.17474 0.94619 0.42945 0.0
H1111 H 0.20868 0.91811 0.35446 0.0
H1112 H 0.25609 0.90668 0.43053 0.0
H1113 H 0.23453 0.92328 0.39213 0.0
H1114 H 0.18246 0.91427 0.45212 0.0
H1115 H 0.20424 0.89821 0.49112 0.0
C1116 C 0.16576 0.95392 0.38287 0.0
C1117 C 0.16935 0.95164 0.35065 0.0
C1118 C 0.1777 0.94363 0.40485 0.0
C1119 C 0.1935 0.93064 0.39523 0.0
C1120 C 0.19686 0.92815 0.36288 0.0
C1121 C 0.18497 0.93857 0.34088 0.0
C1122 C 0.24004 0.90819 0.4356 0.0
C1123 C 0.23197 0.9011 0.46408 0.0
C1124 C 0.22759 0.91761 0.41337 0.0
C1125 C 0.20666 0.92014 0.41881 0.0
C1126 C 0.19854 0.9129 0.4472 0.0
C1127 C 0.21103 0.90356 0.46957 0.0
H1128 H 0.3355 0.8979 0.61496 0.0
H1129 H 0.29506 0.94786 0.59591 0.0
H1130 H 0.35433 0.91905 0.65234 0.0
H1131 H 0.31351 0.96898 0.63347 0.0
H1132 H 0.36695 0.95668 0.74241 0.0
H1133 H 0.34961 0.93508 0.70425 0.0
H1134 H 0.34636 0.98559 0.64001 0.0
H1135 H 0.36339 1.00716 0.67799 0.0
C1136 C 0.33073 0.91345 0.61879 0.0
C1137 C 0.31386 0.9213 0.60279 0.0
C1138 C 0.34136 0.92551 0.64032 0.0
C1139 C 0.3354 0.94571 0.64601 0.0
C1140 C 0.31865 0.95357 0.62948 0.0
C1141 C 0.30799 0.94148 0.60813 0.0
C1142 C 0.36257 0.96317 0.72013 0.0
C1143 C 0.36654 0.98372 0.71342 0.0
C1144 C 0.35273 0.95075 0.69817 0.0
C1145 C 0.34651 0.95861 0.66908 0.0
C1146 C 0.35066 0.97909 0.66233 0.0
C1147 C 0.36056 0.99145 0.68413 0.0
H1148 H 0.37003 0.06591 0.8864 0.0
H1149 H 0.32251 0.07072 0.8176 0.0
H1150 H 0.34935 0.08453 0.92391 0.0
H1151 H 0.30085 0.08797 0.8556 0.0
H1152 H 0.27059 0.13197 0.92174 0.0
H1153 H 0.29295 0.11634 0.88339 0.0
H1154 H 0.32283 0.08299 0.95757 0.0
H1155 H 0.3014 0.09993 0.99585 0.0
C1156 C 0.35502 0.07096 0.87948 0.0
C1157 C 0.34785 0.0671 0.84919 0.0
C1158 C 0.34297 0.08143 0.90109 0.0
C1159 C 0.32314 0.08779 0.89325 0.0
C1160 C 0.31609 0.08382 0.86264 0.0
C1161 C 0.3284 0.07379 0.84077 0.0
C1162 C 0.28207 0.12139 0.92978 0.0
C1163 C 0.28428 0.11724 0.96182 0.0
C1164 C 0.29484 0.11221 0.90771 0.0
C1165 C 0.30986 0.09817 0.91698 0.0
C1166 C 0.3119 0.094 0.94922 0.0
C1167 C 0.29948 0.10362 0.97133 0.0
H1168 H 0.18352 0.89747 0.88416 0.0
H1169 H 0.22108 0.94874 0.90829 0.0
H1170 H 0.16492 0.91846 0.8464 0.0
H1171 H 0.20294 0.96972 0.8702 0.0
H1172 H 0.15295 0.95661 0.75708 0.0
H1173 H 0.17001 0.93526 0.79581 0.0
H1174 H 0.1702 0.98535 0.86104 0.0
H1175 H 0.15352 1.0067 0.82242 0.0
C1176 C 0.1877 0.91328 0.88138 0.0
C1177 C 0.20372 0.92153 0.89892 0.0
C1178 C 0.17721 0.92526 0.85959 0.0
C1179 C 0.18246 0.9458 0.85509 0.0
C1180 C 0.19833 0.95405 0.8732 0.0
C1181 C 0.20883 0.94205 0.89487 0.0
C1182 C 0.1566 0.96306 0.77969 0.0
C1183 C 0.15188 0.98345 0.78646 0.0
C1184 C 0.16628 0.95077 0.802 0.0
C1185 C 0.17157 0.95858 0.83158 0.0
C1186 C 0.16666 0.97889 0.83839 0.0
C1187 C 0.15695 0.99113 0.8162 0.0
H1188 H 0.26165 0.90193 0.07187 0.0
H1189 H 0.31278 0.90196 0.00846 0.0
H1190 H 0.28246 0.91797 0.11181 0.0
H1191 H 0.3336 0.91838 0.04854 0.0
H1192 H 0.37015 0.93066 0.13852 0.0
H1193 H 0.34961 0.91258 0.09955 0.0
H1194 H 0.29813 0.95043 0.12278 0.0
H1195 H 0.31863 0.96803 0.16206 0.0
C1196 C 0.27734 0.90537 0.06635 0.0
C1197 C 0.28547 0.90064 0.03676 0.0
C1198 C 0.28927 0.91471 0.08931 0.0
C1199 C 0.30972 0.91958 0.08346 0.0
C1200 C 0.31797 0.91466 0.05401 0.0
C1201 C 0.30598 0.90535 0.03092 0.0
C1202 C 0.35437 0.93488 0.1354 0.0
C1203 C 0.34593 0.95073 0.15312 0.0
C1204 C 0.34266 0.9247 0.1129 0.0
C1205 C 0.3222 0.93008 0.10783 0.0
C1206 C 0.31374 0.94572 0.12617 0.0
C1207 C 0.32548 0.95592 0.14854 0.0
H1208 H 0.33751 0.11958 0.38808 0.0
H1209 H 0.29925 0.06899 0.41292 0.0
H1210 H 0.35568 0.09815 0.35039 0.0
H1211 H 0.31692 0.04759 0.37487 0.0
H1212 H 0.36525 0.00967 0.32602 0.0
H1213 H 0.34919 0.03128 0.36498 0.0
H1214 H 0.35004 0.08149 0.30001 0.0
H1215 H 0.36646 0.05991 0.26099 0.0
C1216 C 0.3331 0.10382 0.38549 0.0
C1217 C 0.31698 0.0959 0.40318 0.0
C1218 C 0.34333 0.09159 0.36374 0.0
C1219 C 0.33772 0.07113 0.35939 0.0
C1220 C 0.3218 0.06319 0.37772 0.0
C1221 C 0.31157 0.07544 0.39937 0.0
C1222 C 0.36208 0.02533 0.31994 0.0
C1223 C 0.36716 0.03298 0.2902 0.0
C1224 C 0.35274 0.03771 0.34232 0.0
C1225 C 0.34822 0.05814 0.33569 0.0
C1226 C 0.35348 0.0659 0.30608 0.0
C1227 C 0.3628 0.05347 0.2836 0.0
H1228 H 0.20009 0.04872 0.6613 0.0
H1229 H 0.14908 0.08664 0.63718 0.0
H1230 H 0.22126 0.0668 0.6234 0.0
H1231 H 0.17028 0.1052 0.59965 0.0
H1232 H 0.20821 0.11654 0.5101 0.0
H1233 H 0.18687 0.09977 0.54909 0.0
H1234 H 0.23719 0.0994 0.61394 0.0
H1235 H 0.25856 0.11581 0.57501 0.0
C1236 C 0.19349 0.06104 0.64794 0.0
C1237 C 0.173 0.06626 0.6519 0.0
C1238 C 0.20561 0.07151 0.62639 0.0
C1239 C 0.19748 0.08744 0.60831 0.0
C1240 C 0.17698 0.09285 0.61281 0.0
C1241 C 0.16489 0.08239 0.63447 0.0
C1242 C 0.21472 0.11292 0.53269 0.0
C1243 C 0.23517 0.1175 0.53927 0.0
C1244 C 0.20244 0.1034 0.55514 0.0
C1245 C 0.2103 0.09817 0.58469 0.0
C1246 C 0.23068 0.10293 0.59132 0.0
C1247 C 0.24293 0.11247 0.56896 0.0
H1248 H 0.86646 1.0069 0.8228 0.0
H1249 H 0.86611 0.95665 0.75775 0.0
H1250 H 0.84978 0.9858 0.86177 0.0
H1251 H 0.84904 0.93558 0.79678 0.0
H1252 H 0.79858 0.94974 0.90955 0.0
H1253 H 0.81695 0.97055 0.8715 0.0
H1254 H 0.85413 0.91878 0.84719 0.0
H1255 H 0.83527 0.89796 0.88486 0.0
C1256 C 0.86283 0.99135 0.81673 0.0
C1257 C 0.86764 0.98354 0.78697 0.0
C1258 C 0.85312 0.97926 0.83911 0.0
C1259 C 0.84795 0.95898 0.83246 0.0
C1260 C 0.85298 0.95106 0.80286 0.0
C1261 C 0.86267 0.96319 0.78038 0.0
C1262 C 0.81071 0.9429 0.89603 0.0
C1263 C 0.81548 0.92229 0.89988 0.0
C1264 C 0.82134 0.95481 0.8744 0.0
C1265 C 0.83702 0.94635 0.85612 0.0
C1266 C 0.84199 0.92574 0.8605 0.0
C1267 C 0.83136 0.91386 0.88224 0.0
H1268 H 0.81107 0.1159 0.50864 0.0
H1269 H 0.76078 0.11395 0.57358 0.0
H1270 H 0.83267 0.09916 0.54736 0.0
H1271 H 0.78239 0.09756 0.61219 0.0
H1272 H 0.87049 0.0862 0.63592 0.0
H1273 H 0.84916 0.10451 0.59825 0.0
H1274 H 0.79877 0.06506 0.62095 0.0
H1275 H 0.82008 0.04719 0.65892 0.0
C1276 C 0.80462 0.11201 0.53117 0.0
C1277 C 0.78411 0.11625 0.53783 0.0
C1278 C 0.81706 0.10251 0.55346 0.0
C1279 C 0.80928 0.09693 0.58292 0.0
C1280 C 0.78883 0.10135 0.58963 0.0
C1281 C 0.77645 0.11088 0.56745 0.0
C1282 C 0.85479 0.08164 0.63291 0.0
C1283 C 0.84689 0.06529 0.6501 0.0
C1284 C 0.84263 0.09197 0.61119 0.0
C1285 C 0.82224 0.08623 0.6064 0.0
C1286 C 0.81432 0.07004 0.62418 0.0
C1287 C 0.82652 0.0597 0.64577 0.0
H1288 H 0.68074 0.1183 0.38855 0.0
H1289 H 0.71919 0.06755 0.4119 0.0
H1290 H 0.66241 0.09717 0.35065 0.0
H1291 H 0.70134 0.04646 0.37363 0.0
H1292 H 0.65276 0.00896 0.32435 0.0
H1293 H 0.669 0.03018 0.36366 0.0
H1294 H 0.66791 0.08102 0.29986 0.0
H1295 H 0.65132 0.05983 0.2605 0.0
C1296 C 0.68515 0.10256 0.3856 0.0
C1297 C 0.70138 0.09452 0.40293 0.0
C1298 C 0.67482 0.09051 0.36372 0.0
C1299 C 0.68044 0.07011 0.35888 0.0
C1300 C 0.69646 0.06202 0.37686 0.0
C1301 C 0.7068 0.07411 0.39863 0.0
C1302 C 0.65591 0.02467 0.31861 0.0
C1303 C 0.65072 0.03261 0.2891 0.0
C1304 C 0.66536 0.03684 0.34119 0.0
C1305 C 0.66986 0.05733 0.33499 0.0
C1306 C 0.66448 0.06537 0.30561 0.0
C1307 C 0.65507 0.05316 0.28293 0.0
H1308 H 0.75589 0.90317 0.07023 0.0
H1309 H 0.70513 0.90225 0.00609 0.0
H1310 H 0.73475 0.91943 0.10951 0.0
H1311 H 0.68396 0.91887 0.04555 0.0
H1312 H 0.64705 0.93123 0.13546 0.0
H1313 H 0.66783 0.9132 0.09673 0.0
H1314 H 0.71876 0.95199 0.11926 0.0
H1315 H 0.69801 0.96958 0.15825 0.0
C1316 C 0.74021 0.90644 0.06441 0.0
C1317 C 0.73228 0.90139 0.03481 0.0
C1318 C 0.72809 0.91591 0.08698 0.0
C1319 C 0.70765 0.92058 0.08073 0.0
C1320 C 0.69959 0.91533 0.05129 0.0
C1321 C 0.71177 0.9059 0.02857 0.0
C1322 C 0.66276 0.9357 0.13218 0.0
C1323 C 0.67098 0.95178 0.14965 0.0
C1324 C 0.6746 0.92554 0.10985 0.0
C1325 C 0.69498 0.93117 0.10472 0.0
C1326 C 0.70321 0.94709 0.12274 0.0
C1327 C 0.69134 0.95727 0.14493 0.0
H1328 H 0.79674 0.07021 0.09111 0.0
H1329 H 0.8363 0.12036 0.11318 0.0
H1330 H 0.81465 0.0489 0.12903 0.0
H1331 H 0.85463 0.09902 0.15085 0.0
H1332 H 0.86375 0.01067 0.17531 0.0
H1333 H 0.84721 0.03239 0.13705 0.0
H1334 H 0.84943 0.08257 0.20202 0.0
H1335 H 0.86632 0.06082 0.24045 0.0
C1336 C 0.80937 0.07658 0.10405 0.0
C1337 C 0.81513 0.09688 0.09946 0.0
C1338 C 0.81973 0.06439 0.12563 0.0
C1339 C 0.83609 0.07224 0.14312 0.0
C1340 C 0.84196 0.09255 0.13812 0.0
C1341 C 0.83162 0.10472 0.1164 0.0
C1342 C 0.86079 0.02634 0.18156 0.0
C1343 C 0.86637 0.03393 0.21114 0.0
C1344 C 0.85117 0.03879 0.15958 0.0
C1345 C 0.84687 0.05923 0.16643 0.0
C1346 C 0.85267 0.06694 0.19584 0.0
C1347 C 0.86226 0.05444 0.21796 0.0
H1348 H 0.69845 0.04691 0.8422 0.0
H1349 H 0.64769 0.08585 0.86353 0.0
H1350 H 0.71938 0.0652 0.88022 0.0
H1351 H 0.66864 0.10457 0.90126 0.0
H1352 H 0.70601 0.11675 0.99135 0.0
H1353 H 0.68477 0.09959 0.95256 0.0
H1354 H 0.73549 0.09795 0.88853 0.0
H1355 H 0.75672 0.11477 0.9272 0.0
C1356 C 0.69185 0.05949 0.855 0.0
C1357 C 0.6715 0.06496 0.85019 0.0
C1358 C 0.70383 0.07006 0.87662 0.0
C1359 C 0.69569 0.08635 0.89392 0.0
C1360 C 0.67533 0.09195 0.88867 0.0
C1361 C 0.66338 0.0814 0.86693 0.0
C1362 C 0.71262 0.11277 0.96898 0.0
C1363 C 0.73314 0.11712 0.96255 0.0
C1364 C 0.7004 0.10303 0.94665 0.0
C1365 C 0.70842 0.09732 0.91741 0.0
C1366 C 0.72887 0.10185 0.91093 0.0
C1367 C 0.74103 0.11163 0.93314 0.0
H1368 H 0.64751 0.95448 0.74109 0.0
H1369 H 0.65809 1.00621 0.68108 0.0
H1370 H 0.66373 0.93242 0.70268 0.0
H1371 H 0.67493 0.98437 0.6433 0.0
H1372 H 0.68923 0.93819 0.56794 0.0
H1373 H 0.67024 0.95885 0.60529 0.0
H1374 H 0.6956 0.92381 0.68139 0.0
H1375 H 0.71343 0.90248 0.64386 0.0
C1376 C 0.65338 0.96118 0.71979 0.0
C1377 C 0.65145 0.98216 0.71427 0.0
C1378 C 0.66281 0.94853 0.69776 0.0
C1379 C 0.67073 0.95652 0.66971 0.0
C1380 C 0.66874 0.97751 0.66425 0.0
C1381 C 0.65917 0.99012 0.68613 0.0
C1382 C 0.69043 0.93472 0.59262 0.0
C1383 C 0.70286 0.91872 0.60293 0.0
C1384 C 0.67977 0.94674 0.61414 0.0
C1385 C 0.6814 0.94317 0.64657 0.0
C1386 C 0.6937 0.92696 0.65672 0.0
C1387 C 0.70419 0.91486 0.63518 0.0
H1388 H 0.77019 0.88575 0.42187 0.0
H1389 H 0.8024 0.91734 0.49503 0.0
H1390 H 0.79194 0.90154 0.38277 0.0
H1391 H 0.82318 0.93442 0.45613 0.0
H1392 H 0.86955 0.95138 0.38382 0.0
H1393 H 0.8492 0.93274 0.42172 0.0
H1394 H 0.79986 0.92986 0.35479 0.0
H1395 H 0.82119 0.94713 0.31632 0.0
C1396 C 0.78183 0.89628 0.42954 0.0
C1397 C 0.78464 0.90023 0.46154 0.0
C1398 C 0.79426 0.90553 0.40705 0.0
C1399 C 0.80953 0.91944 0.41588 0.0
C1400 C 0.81208 0.92348 0.44807 0.0
C1401 C 0.80001 0.9138 0.47055 0.0
C1402 C 0.85442 0.94646 0.37727 0.0
C1403 C 0.84692 0.95049 0.34724 0.0
C1404 C 0.84256 0.93598 0.39912 0.0
C1405 C 0.82259 0.92979 0.39182 0.0
C1406 C 0.8152 0.9339 0.36143 0.0
C1407 C 0.82733 0.94394 0.33931 0.0
H1408 H 0.65231 0.50958 0.67576 0.0
H1409 H 0.65144 0.56088 0.73883 0.0
H1410 H 0.66863 0.53044 0.63602 0.0
H1411 H 0.6681 0.58168 0.69909 0.0
H1412 H 0.68165 0.61843 0.61044 0.0
H1413 H 0.66276 0.5976 0.64808 0.0
H1414 H 0.70118 0.54633 0.62594 0.0
H1415 H 0.71961 0.56715 0.58797 0.0
C1416 C 0.65559 0.52531 0.68123 0.0
C1417 C 0.65056 0.53348 0.71066 0.0
C1418 C 0.66508 0.53726 0.65841 0.0
C1419 C 0.66976 0.55776 0.66429 0.0
C1420 C 0.66451 0.56603 0.69358 0.0
C1421 C 0.65507 0.55404 0.71648 0.0
C1422 C 0.6858 0.60262 0.61347 0.0
C1423 C 0.70206 0.59435 0.5965 0.0
C1424 C 0.67516 0.59074 0.6352 0.0
C1425 C 0.6805 0.57028 0.64026 0.0
C1426 C 0.6965 0.56195 0.62253 0.0
C1427 C 0.70716 0.57386 0.60091 0.0
H1428 H 0.65324 0.46376 0.89485 0.0
H1429 H 0.68864 0.43927 0.81878 0.0
H1430 H 0.6747 0.44595 0.93232 0.0
H1431 H 0.70938 0.42034 0.85603 0.0
H1432 H 0.75701 0.40813 0.93102 0.0
H1433 H 0.73504 0.42515 0.89369 0.0
H1434 H 0.68335 0.41397 0.95363 0.0
H1435 H 0.70557 0.39754 0.99165 0.0
C1436 C 0.66559 0.45448 0.88613 0.0
C1437 C 0.66931 0.45302 0.85385 0.0
C1438 C 0.67775 0.444 0.90763 0.0
C1439 C 0.69388 0.43163 0.89739 0.0
C1440 C 0.69733 0.42993 0.86495 0.0
C1441 C 0.68526 0.44056 0.84349 0.0
C1442 C 0.74095 0.40924 0.9363 0.0
C1443 C 0.73311 0.40144 0.96447 0.0
C1444 C 0.72826 0.41892 0.91468 0.0
C1445 C 0.7073 0.42096 0.9204 0.0
C1446 C 0.69943 0.413 0.94851 0.0
C1447 C 0.71217 0.40345 0.9703 0.0
H1448 H 0.8666 0.4582 0.23942 0.0
H1449 H 0.86492 0.50873 0.17493 0.0
H1450 H 0.85 0.43676 0.20038 0.0
H1451 H 0.84869 0.48726 0.13595 0.0
H1452 H 0.79852 0.44953 0.08845 0.0
H1453 H 0.81634 0.47085 0.12645 0.0
H1454 H 0.85559 0.42042 0.14965 0.0
H1455 H 0.83729 0.39906 0.11201 0.0
C1456 C 0.86279 0.46474 0.21692 0.0
C1457 C 0.86707 0.48526 0.21047 0.0
C1458 C 0.85338 0.45239 0.19444 0.0
C1459 C 0.84795 0.46027 0.16497 0.0
C1460 C 0.85238 0.48074 0.1585 0.0
C1461 C 0.86181 0.49304 0.18089 0.0
C1462 C 0.81098 0.44309 0.10171 0.0
C1463 C 0.81651 0.42269 0.09756 0.0
C1464 C 0.8213 0.45529 0.12331 0.0
C1465 C 0.83739 0.44735 0.14128 0.0
C1466 C 0.84311 0.42696 0.13658 0.0
C1467 C 0.8328 0.41479 0.11486 0.0
H1468 H 0.80502 0.59931 0.50037 0.0
H1469 H 0.77557 0.63358 0.42735 0.0
H1470 H 0.82598 0.58224 0.46145 0.0
H1471 H 0.79742 0.61784 0.38853 0.0
H1472 H 0.82431 0.57221 0.32075 0.0
H1473 H 0.80366 0.58953 0.3599 0.0
H1474 H 0.85237 0.58274 0.42722 0.0
H1475 H 0.87207 0.56409 0.38844 0.0
C1476 C 0.80334 0.60348 0.47599 0.0
C1477 C 0.78859 0.61772 0.46693 0.0
C1478 C 0.81547 0.59378 0.45352 0.0
C1479 C 0.81354 0.59844 0.4214 0.0
C1480 C 0.79913 0.61325 0.41268 0.0
C1481 C 0.78668 0.62251 0.43505 0.0
C1482 C 0.83049 0.57454 0.34397 0.0
C1483 C 0.84972 0.56693 0.35166 0.0
C1484 C 0.81875 0.58462 0.3665 0.0
C1485 C 0.82618 0.58776 0.39714 0.0
C1486 C 0.84574 0.58036 0.40436 0.0
C1487 C 0.85721 0.56984 0.38203 0.0
H1488 H 0.65299 0.5044 0.32077 0.0
H1489 H 0.65199 0.45411 0.2558 0.0
H1490 H 0.66933 0.48306 0.35961 0.0
H1491 H 0.66873 0.43269 0.29492 0.0
H1492 H 0.68149 0.39552 0.38491 0.0
H1493 H 0.66335 0.41626 0.3462 0.0
H1494 H 0.70204 0.46726 0.36868 0.0
H1495 H 0.71974 0.44656 0.40758 0.0
C1496 C 0.65625 0.48877 0.31467 0.0
C1497 C 0.65117 0.48105 0.28495 0.0
C1498 C 0.66577 0.47654 0.337 0.0
C1499 C 0.6705 0.45616 0.33042 0.0
C1500 C 0.66517 0.44828 0.30089 0.0
C1501 C 0.65567 0.46059 0.27838 0.0
C1502 C 0.68591 0.41123 0.38161 0.0
C1503 C 0.70198 0.4195 0.39906 0.0
C1504 C 0.67569 0.42305 0.35929 0.0
C1505 C 0.68124 0.44344 0.35419 0.0
C1506 C 0.69719 0.4517 0.37214 0.0
C1507 C 0.70742 0.43986 0.39431 0.0
H1508 H 0.81811 0.46948 0.66082 0.0
H1509 H 0.86876 0.43078 0.63783 0.0
H1510 H 0.79688 0.45139 0.62298 0.0
H1511 H 0.8475 0.41222 0.60039 0.0
H1512 H 0.81011 0.40081 0.51048 0.0
H1513 H 0.83133 0.41758 0.54959 0.0
H1514 H 0.78052 0.41898 0.61347 0.0
H1515 H 0.75925 0.40255 0.57435 0.0
C1516 C 0.82462 0.45699 0.64771 0.0
C1517 C 0.84505 0.45157 0.65197 0.0
C1518 C 0.81246 0.44651 0.62621 0.0
C1519 C 0.82048 0.43036 0.60845 0.0
C1520 C 0.84089 0.42474 0.61329 0.0
C1521 C 0.85301 0.4352 0.6349 0.0
C1522 C 0.80346 0.40466 0.53287 0.0
C1523 C 0.78291 0.40034 0.53911 0.0
C1524 C 0.81568 0.41418 0.55541 0.0
C1525 C 0.80766 0.41968 0.58474 0.0
C1526 C 0.78716 0.41522 0.59102 0.0
C1527 C 0.77497 0.40567 0.56857 0.0
H1528 H 0.85956 0.51141 0.81815 0.0
H1529 H 0.8697 0.56279 0.75725 0.0
H1530 H 0.8424 0.53332 0.85541 0.0
H1531 H 0.85312 0.58496 0.79521 0.0
H1532 H 0.80324 0.61486 0.85407 0.0
H1533 H 0.82111 0.59345 0.8166 0.0
H1534 H 0.84706 0.55906 0.89294 0.0
H1535 H 0.82807 0.57975 0.93017 0.0
C1536 C 0.85831 0.52745 0.81279 0.0
C1537 C 0.86604 0.53528 0.78457 0.0
C1538 C 0.84855 0.5401 0.83438 0.0
C1539 C 0.84635 0.56102 0.82856 0.0
C1540 C 0.85422 0.5689 0.8004 0.0
C1541 C 0.86386 0.55619 0.77864 0.0
C1542 C 0.81261 0.60259 0.86279 0.0
C1543 C 0.81416 0.59895 0.89509 0.0
C1544 C 0.82312 0.59045 0.84131 0.0
C1545 C 0.83561 0.57441 0.85156 0.0
C1546 C 0.83738 0.57103 0.88401 0.0
C1547 C 0.82672 0.58308 0.90546 0.0
H1548 H 0.70034 0.54772 0.16109 0.0
H1549 H 0.64922 0.58593 0.13864 0.0
H1550 H 0.72125 0.56609 0.12314 0.0
H1551 H 0.67014 0.60476 0.10111 0.0
H1552 H 0.70675 0.61618 0.01062 0.0
H1553 H 0.68601 0.59934 0.05017 0.0
H1554 H 0.73725 0.59871 0.11328 0.0
H1555 H 0.75809 0.61524 0.07366 0.0
C1556 C 0.69367 0.56018 0.1481 0.0
C1557 C 0.6732 0.56538 0.1525 0.0
C1558 C 0.70565 0.57081 0.12654 0.0
C1559 C 0.69738 0.58688 0.10889 0.0
C1560 C 0.67694 0.5923 0.11392 0.0
C1561 C 0.665 0.58168 0.13558 0.0
C1562 C 0.71361 0.6125 0.03294 0.0
C1563 C 0.73415 0.61705 0.03882 0.0
C1564 C 0.70166 0.60294 0.05573 0.0
C1565 C 0.70994 0.59763 0.08496 0.0
C1566 C 0.73043 0.60233 0.09091 0.0
C1567 C 0.74236 0.61193 0.06818 0.0
H1568 H 0.36698 0.45687 0.26022 0.0
H1569 H 0.36479 0.50779 0.32396 0.0
H1570 H 0.34999 0.43569 0.29914 0.0
H1571 H 0.34809 0.48656 0.36285 0.0
H1572 H 0.3366 0.39856 0.38785 0.0
H1573 H 0.35522 0.41971 0.35032 0.0
H1574 H 0.31549 0.47013 0.37154 0.0
H1575 H 0.29729 0.44898 0.40939 0.0
C1576 C 0.36298 0.46355 0.28254 0.0
C1577 C 0.36725 0.4841 0.28882 0.0
C1578 C 0.35333 0.45135 0.30495 0.0
C1579 C 0.34762 0.45941 0.33416 0.0
C1580 C 0.35202 0.47991 0.34049 0.0
C1581 C 0.36172 0.49207 0.31817 0.0
C1582 C 0.33205 0.41422 0.38455 0.0
C1583 C 0.31552 0.42218 0.40126 0.0
C1584 C 0.34255 0.42629 0.36291 0.0
C1585 C 0.33681 0.44662 0.35774 0.0
C1586 C 0.32046 0.45462 0.37508 0.0
C1587 C 0.30994 0.44251 0.39659 0.0
H1588 H 0.32053 0.54737 0.15911 0.0
H1589 H 0.37117 0.58623 0.13669 0.0
H1590 H 0.29944 0.56537 0.12098 0.0
H1591 H 0.35006 0.60465 0.09885 0.0
H1592 H 0.26187 0.61453 0.07329 0.0
H1593 H 0.28321 0.59798 0.1121 0.0
H1594 H 0.33379 0.59932 0.04779 0.0
H1595 H 0.31245 0.6162 0.00888 0.0
C1596 C 0.32706 0.55988 0.14606 0.0
C1597 C 0.34743 0.56539 0.1506 0.0
C1598 C 0.31499 0.57028 0.12437 0.0
C1599 C 0.32305 0.58646 0.10671 0.0
C1600 C 0.34343 0.59212 0.1117 0.0
C1601 C 0.35547 0.58173 0.13352 0.0
C1602 C 0.27755 0.61138 0.06732 0.0
C1603 C 0.28538 0.61672 0.0378 0.0
C1604 C 0.28978 0.60175 0.08961 0.0
C1605 C 0.31023 0.59722 0.08311 0.0
C1606 C 0.31816 0.60276 0.05373 0.0
C1607 C 0.30588 0.61234 0.03133 0.0
H1608 H 0.1825 0.61972 0.88782 0.0
H1609 H 0.22001 0.56841 0.91192 0.0
H1610 H 0.16384 0.59873 0.85013 0.0
H1611 H 0.20183 0.54744 0.87384 0.0
H1612 H 0.15218 0.5612 0.76042 0.0
H1613 H 0.16911 0.58225 0.79959 0.0
H1614 H 0.16922 0.53168 0.86392 0.0
H1615 H 0.15265 0.51058 0.82477 0.0
C1616 C 0.18665 0.60389 0.88507 0.0
C1617 C 0.2027 0.59565 0.90254 0.0
C1618 C 0.17613 0.59191 0.86332 0.0
C1619 C 0.18138 0.57138 0.85874 0.0
C1620 C 0.19723 0.56311 0.87687 0.0
C1621 C 0.20776 0.57512 0.89852 0.0
C1622 C 0.15578 0.55456 0.78293 0.0
C1623 C 0.15106 0.53412 0.78929 0.0
C1624 C 0.16539 0.56669 0.80549 0.0
C1625 C 0.17059 0.55869 0.83497 0.0
C1626 C 0.16572 0.5383 0.84137 0.0
C1627 C 0.15608 0.52621 0.81889 0.0
H1628 H 0.15493 0.46488 0.60856 0.0
H1629 H 0.18861 0.43777 0.68438 0.0
H1630 H 0.17625 0.4472 0.57085 0.0
H1631 H 0.20928 0.41901 0.64672 0.0
H1632 H 0.25716 0.40683 0.57145 0.0
H1633 H 0.2355 0.4237 0.60948 0.0
H1634 H 0.18377 0.41518 0.54861 0.0
H1635 H 0.20563 0.39888 0.51003 0.0
C1636 C 0.16689 0.45506 0.61717 0.0
C1637 C 0.17013 0.45281 0.64947 0.0
C1638 C 0.17896 0.44466 0.59552 0.0
C1639 C 0.19457 0.43157 0.60556 0.0
C1640 C 0.19762 0.42913 0.63799 0.0
C1641 C 0.18558 0.43967 0.65966 0.0
C1642 C 0.24116 0.40851 0.56612 0.0
C1643 C 0.2332 0.40151 0.53752 0.0
C1644 C 0.22866 0.41809 0.58813 0.0
C1645 C 0.20779 0.42086 0.58231 0.0
C1646 C 0.1998 0.41365 0.55381 0.0
C1647 C 0.21234 0.40417 0.53168 0.0
H1648 H 0.36178 0.51109 0.67866 0.0
H1649 H 0.36996 0.56235 0.7405 0.0
H1650 H 0.34543 0.53301 0.6405 0.0
H1651 H 0.35419 0.5845 0.70175 0.0
H1652 H 0.30485 0.61376 0.64126 0.0
H1653 H 0.32245 0.59247 0.67909 0.0
H1654 H 0.35051 0.55916 0.6034 0.0
H1655 H 0.3318 0.57979 0.56562 0.0
C1656 C 0.36027 0.52709 0.68405 0.0
C1657 C 0.36718 0.53489 0.71282 0.0
C1658 C 0.35099 0.53975 0.66196 0.0
C1659 C 0.34845 0.56063 0.66783 0.0
C1660 C 0.35556 0.56847 0.69649 0.0
C1661 C 0.36473 0.55577 0.71872 0.0
C1662 C 0.31465 0.60176 0.63271 0.0
C1663 C 0.31683 0.59839 0.60043 0.0
C1664 C 0.325 0.58971 0.65444 0.0
C1665 C 0.33799 0.57399 0.64449 0.0
C1666 C 0.34045 0.57089 0.61207 0.0
C1667 C 0.32995 0.5829 0.59032 0.0
H1668 H 0.24851 0.63215 0.42157 0.0
H1669 H 0.21662 0.60039 0.49489 0.0
H1670 H 0.22643 0.61663 0.38264 0.0
H1671 H 0.19548 0.58361 0.45611 0.0
H1672 H 0.14856 0.56732 0.38431 0.0
H1673 H 0.16922 0.58578 0.42204 0.0
H1674 H 0.2183 0.58829 0.35466 0.0
H1675 H 0.1967 0.57117 0.31638 0.0
C1676 C 0.23687 0.62164 0.42931 0.0
C1677 C 0.23425 0.61756 0.4613 0.0
C1678 C 0.22425 0.61255 0.40692 0.0
C1679 C 0.20897 0.59869 0.41584 0.0
C1680 C 0.20659 0.59452 0.44802 0.0
C1681 C 0.21886 0.60403 0.47042 0.0
C1682 C 0.1637 0.57213 0.37762 0.0
C1683 C 0.17106 0.56803 0.34752 0.0
C1684 C 0.17573 0.5825 0.39936 0.0
C1685 C 0.19572 0.58852 0.39187 0.0
C1686 C 0.20295 0.58437 0.36142 0.0
C1687 C 0.19066 0.57443 0.33941 0.0
H1688 H 0.14869 0.45677 0.24064 0.0
H1689 H 0.15699 0.50764 0.17807 0.0
H1690 H 0.16486 0.43444 0.20246 0.0
H1691 H 0.17367 0.48557 0.14054 0.0
H1692 H 0.18712 0.43839 0.06631 0.0
H1693 H 0.16847 0.4592 0.10386 0.0
H1694 H 0.1968 0.42646 0.1799 0.0
H1695 H 0.21438 0.40497 0.14226 0.0
C1696 C 0.15403 0.46323 0.21884 0.0
C1697 C 0.15147 0.48404 0.21253 0.0
C1698 C 0.16342 0.45043 0.19694 0.0
C1699 C 0.17062 0.45812 0.16824 0.0
C1700 C 0.16803 0.47894 0.16202 0.0
C1701 C 0.15855 0.49168 0.18377 0.0
C1702 C 0.18907 0.43545 0.09104 0.0
C1703 C 0.20224 0.42004 0.10129 0.0
C1704 C 0.1786 0.44756 0.11265 0.0
C1705 C 0.18114 0.44466 0.1451 0.0
C1706 C 0.19421 0.42907 0.15522 0.0
C1707 C 0.20455 0.4169 0.13361 0.0
H1708 H 0.25983 0.40222 0.92596 0.0
H1709 H 0.31071 0.40175 0.98986 0.0
H1710 H 0.28087 0.41848 0.88645 0.0
H1711 H 0.33172 0.41836 0.9503 0.0
H1712 H 0.36887 0.43116 0.86146 0.0
H1713 H 0.34795 0.41275 0.89954 0.0
H1714 H 0.29676 0.45097 0.87613 0.0
H1715 H 0.31765 0.46889 0.8377 0.0
C1716 C 0.27551 0.40559 0.93167 0.0
C1717 C 0.28351 0.40066 0.96126 0.0
C1718 C 0.28757 0.41504 0.90897 0.0
C1719 C 0.30801 0.41982 0.91513 0.0
C1720 C 0.31611 0.41471 0.94459 0.0
C1721 C 0.30401 0.40529 0.96738 0.0
C1722 C 0.35307 0.43539 0.86434 0.0
C1723 C 0.34484 0.45144 0.84685 0.0
C1724 C 0.34114 0.42502 0.88632 0.0
C1725 C 0.32066 0.43042 0.89111 0.0
C1726 C 0.31239 0.44625 0.87295 0.0
C1727 C 0.32435 0.45664 0.85109 0.0
H1728 H 0.21447 0.16149 0.31475 0.0
H1729 H 0.27507 0.1413 0.33774 0.0
H1730 H 0.22434 0.16382 0.2596 0.0
H1731 H 0.28469 0.14287 0.28336 0.0
H1732 H 0.302 0.16185 0.18572 0.0
H1733 H 0.292 0.16465 0.24074 0.0
H1734 H 0.23226 0.14176 0.21751 0.0
H1735 H 0.24202 0.1397 0.16317 0.0
C1736 C 0.22985 0.15758 0.30801 0.0
C1737 C 0.24406 0.15156 0.33058 0.0
C1738 C 0.23552 0.15883 0.27651 0.0
C1739 C 0.2554 0.15368 0.26706 0.0
C1740 C 0.26946 0.1475 0.28979 0.0
C1741 C 0.26386 0.14648 0.32111 0.0
C1742 C 0.28672 0.15761 0.19255 0.0
C1743 C 0.27272 0.15089 0.17014 0.0
C1744 C 0.28098 0.15913 0.22397 0.0
C1745 C 0.26124 0.15355 0.23353 0.0
C1746 C 0.24737 0.1467 0.21096 0.0
C1747 C 0.25304 0.14542 0.17969 0.0
H1748 H 0.12435 0.99263 0.40893 0.0
H1749 H 0.10613 0.05344 0.43425 0.0
H1750 H 0.12342 0.98247 0.46323 0.0
H1751 H 0.10431 0.04305 0.48916 0.0
H1752 H 0.12875 0.0246 0.58449 0.0
H1753 H 0.12652 0.03451 0.53027 0.0
H1754 H 0.10279 0.97513 0.50695 0.0
H1755 H 0.10584 0.96495 0.56187 0.0
C1756 C 0.11971 1.00377 0.42609 0.0
C1757 C 0.11505 0.02381 0.41731 0.0
C1758 C 0.11906 0.99787 0.45734 0.0
C1759 C 0.11366 0.01185 0.48068 0.0
C1760 C 0.10878 0.03191 0.47184 0.0
C1761 C 0.1097 0.03789 0.44045 0.0
C1762 C 0.12285 0.01368 0.56798 0.0
C1763 C 0.11718 0.99406 0.57752 0.0
C1764 C 0.12145 0.01944 0.53675 0.0
C1765 C 0.11424 1.00576 0.51416 0.0
C1766 C 0.10858 0.98604 0.52369 0.0
C1767 C 0.11023 0.98018 0.55508 0.0
H1768 H 0.22403 0.89517 0.6837 0.0
H1769 H 0.24808 0.83491 0.66851 0.0
H1770 H 0.23579 0.89404 0.7378 0.0
H1771 H 0.26066 0.83421 0.72232 0.0
H1772 H 0.30165 0.85766 0.80703 0.0
H1773 H 0.28833 0.85603 0.75326 0.0
H1774 H 0.22881 0.87262 0.7871 0.0
H1775 H 0.24184 0.87404 0.84009 0.0
C1776 C 0.23163 0.8816 0.69198 0.0
C1777 C 0.23556 0.86533 0.67162 0.0
C1778 C 0.23848 0.88102 0.72286 0.0
C1779 C 0.24948 0.8642 0.73393 0.0
C1780 C 0.25264 0.84755 0.71405 0.0
C1781 C 0.24548 0.84799 0.68329 0.0
C1782 C 0.28572 0.86076 0.80284 0.0
C1783 C 0.27276 0.86565 0.82778 0.0
C1784 C 0.27809 0.85976 0.77225 0.0
C1785 C 0.25753 0.86415 0.7662 0.0
C1786 C 0.2447 0.86921 0.79113 0.0
C1787 C 0.25221 0.8699 0.82154 0.0
H1788 H 0.39379 0.02567 0.9137 0.0
H1789 H 0.41229 0.96464 0.93726 0.0
H1790 H 0.39549 0.0354 0.96801 0.0
H1791 H 0.41481 0.97462 0.9923 0.0
H1792 H 0.39059 0.99259 0.08822 0.0
H1793 H 0.39277 0.98293 0.0339 0.0
H1794 H 0.41672 0.04234 0.01128 0.0
H1795 H 0.41371 0.05228 0.06632 0.0
C1796 C 0.39867 0.01439 0.93043 0.0
C1797 C 0.40317 0.9944 0.92114 0.0
C1798 C 0.39975 0.02005 0.96172 0.0
C1799 C 0.40543 1.00589 0.98461 0.0
C1800 C 0.41016 0.98588 0.9753 0.0
C1801 C 0.40882 0.98015 0.94385 0.0
C1802 C 0.39653 1.00358 0.07184 0.0
C1803 C 0.40224 0.02314 0.0816 0.0
C1804 C 0.39791 0.99795 0.04057 0.0
C1805 C 0.40513 0.01173 0.01816 0.0
C1806 C 0.41092 0.03137 0.02791 0.0
C1807 C 0.40928 0.03709 0.05935 0.0
H1808 H 0.77061 0.8361 0.66723 0.0
H1809 H 0.79308 0.89726 0.67952 0.0
H1810 H 0.75799 0.83618 0.72102 0.0
H1811 H 0.78126 0.89694 0.73362 0.0
H1812 H 0.7766 0.87808 0.83673 0.0
H1813 H 0.78913 0.87664 0.78353 0.0
H1814 H 0.7299 0.85767 0.75145 0.0
H1815 H 0.71706 0.85928 0.8055 0.0
C1816 C 0.77284 0.84955 0.68136 0.0
C1817 C 0.78237 0.86687 0.66892 0.0
C1818 C 0.76564 0.84955 0.7121 0.0
C1819 C 0.76836 0.86668 0.73115 0.0
C1820 C 0.77891 0.88356 0.7193 0.0
C1821 C 0.78582 0.88367 0.68844 0.0
C1822 C 0.76617 0.87348 0.81854 0.0
C1823 C 0.74586 0.86852 0.82537 0.0
C1824 C 0.77339 0.87277 0.788 0.0
C1825 C 0.76051 0.86698 0.76351 0.0
C1826 C 0.74016 0.86199 0.77011 0.0
C1827 C 0.73281 0.863 0.80085 0.0
H1828 H 0.8927 0.99181 0.4121 0.0
H1829 H 0.91391 0.0521 0.43476 0.0
H1830 H 0.89508 0.982 0.46629 0.0
H1831 H 0.91723 0.04199 0.48966 0.0
H1832 H 0.89491 0.02443 0.58714 0.0
H1833 H 0.89648 0.03441 0.53287 0.0
H1834 H 0.91682 0.97403 0.50807 0.0
H1835 H 0.91429 0.96379 0.56299 0.0
C1836 C 0.89828 1.00291 0.42861 0.0
C1837 C 0.90336 0.0227 0.41909 0.0
C1838 C 0.89979 0.99719 0.45983 0.0
C1839 C 0.90654 0.01108 0.48245 0.0
C1840 C 0.91177 0.03092 0.47291 0.0
C1841 C 0.90997 0.03673 0.44153 0.0
C1842 C 0.89994 0.0133 0.57026 0.0
C1843 C 0.90471 0.99334 0.57935 0.0
C1844 C 0.90098 0.0191 0.53901 0.0
C1845 C 0.90691 1.00512 0.51598 0.0
C1846 C 0.91195 0.98516 0.52515 0.0
C1847 C 0.91063 0.97927 0.55653 0.0
H1848 H 0.80212 0.16447 0.31439 0.0
H1849 H 0.74327 0.13901 0.33557 0.0
H1850 H 0.79189 0.16826 0.25956 0.0
H1851 H 0.73332 0.14206 0.28146 0.0
H1852 H 0.71371 0.16319 0.18654 0.0
H1853 H 0.72415 0.16505 0.24143 0.0
H1854 H 0.78522 0.14785 0.21506 0.0
H1855 H 0.77498 0.14676 0.16084 0.0
C1856 C 0.78706 0.15967 0.30729 0.0
C1857 C 0.7734 0.15178 0.32929 0.0
C1858 C 0.78118 0.16178 0.27598 0.0
C1859 C 0.76166 0.15567 0.26612 0.0
C1860 C 0.74821 0.1475 0.28826 0.0
C1861 C 0.754 0.14563 0.3194 0.0
C1862 C 0.72939 0.16011 0.19263 0.0
C1863 C 0.74355 0.15519 0.16939 0.0
C1864 C 0.73539 0.16105 0.22399 0.0
C1865 C 0.75559 0.15664 0.23269 0.0
C1866 C 0.7697 0.15182 0.20926 0.0
C1867 C 0.76376 0.15112 0.17804 0.0
H1868 H 0.62354 0.02422 0.91362 0.0
H1869 H 0.60322 0.9639 0.93781 0.0
H1870 H 0.62143 0.03446 0.96773 0.0
H1871 H 0.60004 0.97443 0.99251 0.0
H1872 H 0.62259 0.99252 0.08938 0.0
H1873 H 0.62077 0.98231 0.03525 0.0
H1874 H 0.60045 0.04264 0.01005 0.0
H1875 H 0.60335 0.05313 0.06482 0.0
C1876 C 0.6182 0.01321 0.93048 0.0
C1877 C 0.61334 0.99328 0.92143 0.0
C1878 C 0.61683 0.01917 0.96163 0.0
C1879 C 0.61042 1.00538 0.98464 0.0
C1880 C 0.60529 0.98543 0.97551 0.0
C1881 C 0.60698 0.97937 0.94422 0.0
C1882 C 0.61754 1.0036 0.07243 0.0
C1883 C 0.61289 0.02361 0.08139 0.0
C1884 C 0.61634 0.99766 0.04125 0.0
C1885 C 0.61032 0.01154 0.01812 0.0
C1886 C 0.6054 0.03157 0.02716 0.0
C1887 C 0.60692 0.0376 0.05848 0.0
H1888 H 0.7982 0.66005 0.69541 0.0
H1889 H 0.73945 0.63918 0.66381 0.0
H1890 H 0.78505 0.66169 0.74924 0.0
H1891 H 0.72656 0.64075 0.71681 0.0
H1892 H 0.72302 0.62057 0.82121 0.0
H1893 H 0.73453 0.62113 0.76697 0.0
H1894 H 0.7566 0.68237 0.7793 0.0
H1895 H 0.74432 0.68215 0.83329 0.0
C1896 C 0.78254 0.65591 0.69993 0.0
C1897 C 0.7698 0.6498 0.67537 0.0
C1898 C 0.775 0.65695 0.73054 0.0
C1899 C 0.75477 0.65142 0.73699 0.0
C1900 C 0.7422 0.64506 0.71246 0.0
C1901 C 0.74961 0.6443 0.68202 0.0
C1902 C 0.72991 0.63432 0.81217 0.0
C1903 C 0.73317 0.65116 0.83167 0.0
C1904 C 0.73663 0.63457 0.78123 0.0
C1905 C 0.7468 0.65165 0.76928 0.0
C1906 C 0.74924 0.66885 0.78828 0.0
C1907 C 0.74223 0.6687 0.81911 0.0
H1908 H 0.60764 0.46844 0.05641 0.0
H1909 H 0.62802 0.52762 0.08674 0.0
H1910 H 0.60616 0.48099 0.00224 0.0
H1911 H 0.62656 0.53994 0.03342 0.0
H1912 H 0.64684 0.54337 0.92943 0.0
H1913 H 0.64627 0.53204 0.98376 0.0
H1914 H 0.58559 0.50856 0.9709 0.0
H1915 H 0.58582 0.52062 0.91681 0.0
C1916 C 0.61168 0.48407 0.05154 0.0
C1917 C 0.6176 0.4971 0.07588 0.0
C1918 C 0.61075 0.49127 0.02072 0.0
C1919 C 0.61618 0.51146 0.01379 0.0
C1920 C 0.62234 0.52432 0.0381 0.0
C1921 C 0.62301 0.51724 0.06874 0.0
C1922 C 0.63322 0.53616 0.93834 0.0
C1923 C 0.61654 0.53249 0.91865 0.0
C1924 C 0.63295 0.52955 0.96935 0.0
C1925 C 0.61602 0.5191 0.98126 0.0
C1926 C 0.59901 0.51615 0.96201 0.0
C1927 C 0.59917 0.52303 0.93108 0.0
H1928 H 0.74336 0.36994 0.34034 0.0
H1929 H 0.80504 0.35478 0.31509 0.0
H1930 H 0.73329 0.36854 0.2861 0.0
H1931 H 0.79476 0.35253 0.26015 0.0
H1932 H 0.71669 0.35168 0.18705 0.0
H1933 H 0.72704 0.34801 0.24182 0.0
H1934 H 0.78522 0.37502 0.21976 0.0
H1935 H 0.77517 0.37791 0.16567 0.0
C1936 C 0.75472 0.3658 0.32323 0.0
C1937 C 0.77498 0.36217 0.33203 0.0
C1938 C 0.74887 0.3649 0.29199 0.0
C1939 C 0.76313 0.36031 0.26866 0.0
C1940 C 0.7834 0.35635 0.2775 0.0
C1941 C 0.78931 0.3575 0.30889 0.0
C1942 C 0.73171 0.35666 0.19409 0.0
C1943 C 0.74521 0.36476 0.17205 0.0
C1944 C 0.73766 0.35463 0.22537 0.0
C1945 C 0.75709 0.36105 0.2352 0.0
C1946 C 0.77041 0.36935 0.213 0.0
C1947 C 0.76456 0.37114 0.18187 0.0
H1948 H 0.91696 0.55161 0.56268 0.0
H1949 H 0.88894 0.4938 0.58275 0.0
H1950 H 0.9211 0.54135 0.50793 0.0
H1951 H 0.89233 0.48382 0.52868 0.0
H1952 H 0.89978 0.52571 0.40865 0.0
H1953 H 0.90103 0.5357 0.4629 0.0
H1954 H 0.9152 0.47384 0.48906 0.0
H1955 H 0.91312 0.46365 0.43408 0.0
C1956 C 0.91168 0.53676 0.55535 0.0
C1957 C 0.90295 0.5234 0.57701 0.0
C1958 C 0.91399 0.53086 0.52408 0.0
C1959 C 0.90723 0.51163 0.51392 0.0
C1960 C 0.89828 0.49846 0.53573 0.0
C1961 C 0.89621 0.50426 0.56684 0.0
C1962 C 0.90353 0.51423 0.42578 0.0
C1963 C 0.90664 0.49388 0.41702 0.0
C1964 C 0.90433 0.52004 0.45705 0.0
C1965 C 0.9083 0.50564 0.48045 0.0
C1966 C 0.91185 0.4853 0.47165 0.0
C1967 C 0.9108 0.47944 0.44023 0.0
H1968 H 0.30305 0.35425 0.18623 0.0
H1969 H 0.24365 0.37729 0.16237 0.0
H1970 H 0.29245 0.3514 0.24097 0.0
H1971 H 0.23336 0.37541 0.21649 0.0
H1972 H 0.21378 0.35628 0.3128 0.0
H1973 H 0.22435 0.35388 0.25802 0.0
H1974 H 0.28517 0.37211 0.28425 0.0
H1975 H 0.27483 0.37355 0.33838 0.0
C1976 C 0.28779 0.35873 0.19274 0.0
C1977 C 0.27412 0.3657 0.17003 0.0
C1978 C 0.28169 0.3572 0.22403 0.0
C1979 C 0.26195 0.36305 0.23321 0.0
C1980 C 0.24845 0.37022 0.21032 0.0
C1981 C 0.25444 0.37145 0.17917 0.0
C1982 C 0.22943 0.3595 0.30669 0.0
C1983 C 0.24351 0.36476 0.32989 0.0
C1984 C 0.2355 0.35827 0.27537 0.0
C1985 C 0.25569 0.36274 0.26663 0.0
C1986 C 0.26967 0.36805 0.29003 0.0
C1987 C 0.26367 0.369 0.32121 0.0
H1988 H 0.38772 0.49331 0.91533 0.0
H1989 H 0.41486 0.55133 0.93684 0.0
H1990 H 0.39063 0.48309 0.96934 0.0
H1991 H 0.41851 0.54083 0.99156 0.0
H1992 H 0.39689 0.52425 0.09026 0.0
H1993 H 0.39804 0.53458 0.0361 0.0
H1994 H 0.41346 0.47316 0.00919 0.0
H1995 H 0.41152 0.46262 0.06405 0.0
C1996 C 0.39468 0.50379 0.93155 0.0
C1997 C 0.40134 0.52304 0.92178 0.0
C1998 C 0.39647 0.49784 0.96263 0.0
C1999 C 0.40506 0.51098 0.98483 0.0
C2000 C 0.41169 0.53036 0.9751 0.0
C2001 C 0.40966 0.5364 0.94385 0.0
C2002 C 0.40085 0.51295 0.07295 0.0
C2003 C 0.40442 0.49263 0.08145 0.0
C2004 C 0.40161 0.51895 0.04177 0.0
C2005 C 0.40595 0.50478 0.01821 0.0
C2006 C 0.40984 0.48445 0.02674 0.0
C2007 C 0.40885 0.4784 0.05808 0.0
H2008 H 0.27541 0.64218 0.6604 0.0
H2009 H 0.21495 0.66116 0.6864 0.0
H2010 H 0.28596 0.64334 0.71452 0.0
H2011 H 0.22575 0.66331 0.74109 0.0
H2012 H 0.24451 0.63947 0.83645 0.0
H2013 H 0.2343 0.64135 0.78236 0.0
H2014 H 0.29385 0.66415 0.75774 0.0
H2015 H 0.30435 0.66137 0.81257 0.0
C2016 C 0.26444 0.647 0.67769 0.0
C2017 C 0.24437 0.65179 0.66919 0.0
C2018 C 0.27056 0.64781 0.70882 0.0
C2019 C 0.2568 0.65355 0.73226 0.0
C2020 C 0.23672 0.65857 0.72368 0.0
C2021 C 0.2305 0.65746 0.69243 0.0
C2022 C 0.25543 0.64505 0.81966 0.0
C2023 C 0.27519 0.65053 0.82881 0.0
C2024 C 0.24949 0.64627 0.78852 0.0
C2025 C 0.26312 0.65314 0.76562 0.0
C2026 C 0.28298 0.65863 0.77474 0.0
C2027 C 0.28902 0.65713 0.80606 0.0
H2028 H 0.12484 0.52727 0.4128 0.0
H2029 H 0.10607 0.46639 0.43675 0.0
H2030 H 0.12333 0.53712 0.46707 0.0
H2031 H 0.10369 0.47649 0.49174 0.0
H2032 H 0.12705 0.49468 0.58811 0.0
H2033 H 0.12524 0.4848 0.53378 0.0
H2034 H 0.10225 0.5444 0.51005 0.0
H2035 H 0.10497 0.55456 0.565 0.0
C2036 C 0.11994 0.51604 0.4296 0.0
C2037 C 0.11529 0.49607 0.42041 0.0
C2038 C 0.11897 0.52177 0.46089 0.0
C2039 C 0.11323 0.5077 0.4839 0.0
C2040 C 0.1084 0.4877 0.47469 0.0
C2041 C 0.10964 0.48189 0.44324 0.0
C2042 C 0.12142 0.50566 0.57144 0.0
C2043 C 0.11591 0.52536 0.58084 0.0
C2044 C 0.12025 0.49991 0.54017 0.0
C2045 C 0.11341 0.51368 0.51743 0.0
C2046 C 0.10779 0.53344 0.52688 0.0
C2047 C 0.10925 0.53928 0.55829 0.0
H2048 H 0.18614 0.16604 0.89291 0.0
H2049 H 0.17102 0.11817 0.95809 0.0
H2050 H 0.1618 0.15203 0.85545 0.0
H2051 H 0.14708 0.10413 0.92075 0.0
H2052 H 0.1512 0.09592 0.78854 0.0
H2053 H 0.16517 0.12013 0.82551 0.0
H2054 H 0.1158 0.10767 0.88934 0.0
H2055 H 0.10185 0.08306 0.85226 0.0
C2056 C 0.17735 0.15279 0.89947 0.0
C2057 C 0.18077 0.14293 0.92812 0.0
C2058 C 0.16346 0.14478 0.87805 0.0
C2059 C 0.15269 0.1269 0.88509 0.0
C2060 C 0.155 0.11802 0.91472 0.0
C2061 C 0.16893 0.12593 0.93599 0.0
C2062 C 0.14311 0.09856 0.81022 0.0
C2063 C 0.12568 0.08728 0.81783 0.0
C2064 C 0.15099 0.11265 0.83127 0.0
C2065 C 0.14165 0.11568 0.86041 0.0
C2066 C 0.1234 0.10545 0.86712 0.0
C2067 C 0.11543 0.0914 0.84592 0.0
H2068 H 0.15189 0.92107 0.20866 0.0
H2069 H 0.10339 0.93444 0.14362 0.0
H2070 H 0.16674 0.89769 0.17119 0.0
H2071 H 0.11819 0.91066 0.10611 0.0
H2072 H 0.17351 0.90054 0.03803 0.0
H2073 H 0.14963 0.91452 0.07554 0.0
H2074 H 0.16409 0.86625 0.14031 0.0
H2075 H 0.18838 0.85232 0.10276 0.0
C2076 C 0.14417 0.9187 0.18657 0.0
C2077 C 0.12671 0.92989 0.1788 0.0
C2078 C 0.15257 0.90512 0.16521 0.0
C2079 C 0.14371 0.90247 0.13561 0.0
C2080 C 0.12546 0.9126 0.12865 0.0
C2081 C 0.11698 0.92617 0.15013 0.0
C2082 C 0.17139 0.89269 0.06006 0.0
C2083 C 0.18311 0.87557 0.06773 0.0
C2084 C 0.15751 0.90059 0.08144 0.0
C2085 C 0.1551 0.89155 0.11095 0.0
C2086 C 0.16583 0.87363 0.11783 0.0
C2087 C 0.17969 0.86566 0.09633 0.0
H2088 H 0.36638 0.9208 0.2928 0.0
H2089 H 0.41433 0.93557 0.35808 0.0
H2090 H 0.35182 0.89741 0.33048 0.0
H2091 H 0.39983 0.91175 0.39583 0.0
H2092 H 0.33038 0.85241 0.39928 0.0
H2093 H 0.35481 0.86629 0.36193 0.0
H2094 H 0.36823 0.91526 0.42601 0.0
H2095 H 0.34421 0.90131 0.46334 0.0
C2096 C 0.37405 0.91875 0.31499 0.0
C2097 C 0.39125 0.93033 0.32276 0.0
C2098 C 0.36582 0.90514 0.33648 0.0
C2099 C 0.3746 0.90287 0.36621 0.0
C2100 C 0.39263 0.9134 0.37318 0.0
C2101 C 0.40094 0.92699 0.35158 0.0
C2102 C 0.33888 0.86589 0.40562 0.0
C2103 C 0.3351 0.87601 0.43395 0.0
C2104 C 0.35282 0.87384 0.38423 0.0
C2105 C 0.36328 0.89195 0.39094 0.0
C2106 C 0.36056 0.90118 0.42025 0.0
C2107 C 0.3466 0.89331 0.44152 0.0
H2108 H 0.3674 0.09597 0.70972 0.0
H2109 H 0.41674 0.08291 0.64608 0.0
H2110 H 0.35356 0.12022 0.67271 0.0
H2111 H 0.40291 0.10756 0.60897 0.0
H2112 H 0.3479 0.11865 0.54005 0.0
H2113 H 0.3717 0.10435 0.57738 0.0
H2114 H 0.35717 0.15213 0.64299 0.0
H2115 H 0.33297 0.16638 0.60558 0.0
C2116 C 0.37552 0.09857 0.68805 0.0
C2117 C 0.39291 0.08724 0.68049 0.0
C2118 C 0.3677 0.11268 0.66698 0.0
C2119 C 0.37709 0.11568 0.63786 0.0
C2120 C 0.39528 0.10537 0.63116 0.0
C2121 C 0.40319 0.09129 0.65239 0.0
C2122 C 0.35002 0.12633 0.56221 0.0
C2123 C 0.33825 0.14336 0.5702 0.0
C2124 C 0.36386 0.11827 0.58348 0.0
C2125 C 0.36616 0.12704 0.6132 0.0
C2126 C 0.3555 0.14496 0.62033 0.0
C2127 C 0.34169 0.15311 0.59893 0.0
H2128 H 0.84476 0.90006 0.03729 0.0
H2129 H 0.82961 0.85225 0.10255 0.0
H2130 H 0.86872 0.9141 0.07461 0.0
H2131 H 0.85397 0.86625 0.13997 0.0
H2132 H 0.86547 0.92186 0.20724 0.0
H2133 H 0.85099 0.89805 0.17011 0.0
H2134 H 0.90007 0.9104 0.10571 0.0
H2135 H 0.91452 0.93462 0.14293 0.0
C2136 C 0.84685 0.89231 0.0594 0.0
C2137 C 0.835 0.87531 0.06729 0.0
C2138 C 0.86077 0.90023 0.08067 0.0
C2139 C 0.8631 0.89135 0.11031 0.0
C2140 C 0.85229 0.8735 0.11738 0.0
C2141 C 0.83839 0.86549 0.09597 0.0
C2142 C 0.87338 0.91928 0.18539 0.0
C2143 C 0.89089 0.93042 0.17769 0.0
C2144 C 0.8652 0.90543 0.16424 0.0
C2145 C 0.87433 0.90247 0.13492 0.0
C2146 C 0.89262 0.91257 0.12806 0.0
C2147 C 0.90089 0.92639 0.14935 0.0
H2148 H 0.85435 0.16737 0.92501 0.0
H2149 H 0.83181 0.10711 0.94578 0.0
H2150 H 0.87469 0.15323 0.88189 0.0
H2151 H 0.85179 0.09339 0.903 0.0
H2152 H 0.85896 0.0859 0.79824 0.0
H2153 H 0.84464 0.10582 0.84068 0.0
H2154 H 0.90486 0.11955 0.87447 0.0
H2155 H 0.91954 0.09931 0.83173 0.0
C2156 C 0.85399 0.15116 0.92075 0.0
C2157 C 0.84121 0.13839 0.93837 0.0
C2158 C 0.86562 0.14314 0.89623 0.0
C2159 C 0.86446 0.12236 0.88919 0.0
C2160 C 0.85267 0.10951 0.90795 0.0
C2161 C 0.84122 0.11741 0.93235 0.0
C2162 C 0.86925 0.09337 0.81435 0.0
C2163 C 0.89037 0.0907 0.81206 0.0
C2164 C 0.86102 0.10481 0.83852 0.0
C2165 C 0.87372 0.11392 0.86076 0.0
C2166 C 0.89487 0.11261 0.85738 0.0
C2167 C 0.9032 0.10102 0.83307 0.0
H2168 H 0.67139 0.11676 0.54111 0.0
H2169 H 0.68693 0.1645 0.6063 0.0
H2170 H 0.64769 0.10265 0.57877 0.0
H2171 H 0.66284 0.15043 0.64405 0.0
H2172 H 0.65209 0.09456 0.71118 0.0
H2173 H 0.66619 0.11853 0.67394 0.0
H2174 H 0.61656 0.10631 0.61048 0.0
H2175 H 0.60248 0.08195 0.6478 0.0
C2176 C 0.66944 0.12448 0.56328 0.0
C2177 C 0.68133 0.14147 0.57105 0.0
C2178 C 0.65566 0.11652 0.58474 0.0
C2179 C 0.65354 0.12536 0.61444 0.0
C2180 C 0.66436 0.14321 0.6214 0.0
C2181 C 0.67811 0.15126 0.59981 0.0
C2182 C 0.64398 0.09721 0.68952 0.0
C2183 C 0.62642 0.08607 0.6821 0.0
C2184 C 0.65194 0.11114 0.66831 0.0
C2185 C 0.64254 0.11418 0.63921 0.0
C2186 C 0.62421 0.10408 0.63265 0.0
C2187 C 0.61615 0.09018 0.654 0.0
H2188 H 0.65273 0.92124 0.29028 0.0
H2189 H 0.60358 0.93387 0.35447 0.0
H2190 H 0.66741 0.89772 0.3277 0.0
H2191 H 0.61819 0.90992 0.39191 0.0
H2192 H 0.67276 0.89918 0.46116 0.0
H2193 H 0.64918 0.91344 0.42345 0.0
H2194 H 0.66467 0.86604 0.35771 0.0
H2195 H 0.68867 0.85186 0.39545 0.0
C2196 C 0.64484 0.9187 0.31216 0.0
C2197 C 0.62723 0.92971 0.31971 0.0
C2198 C 0.65314 0.90502 0.33349 0.0
C2199 C 0.64402 0.90209 0.36284 0.0
C2200 C 0.62566 0.91208 0.36958 0.0
C2201 C 0.61729 0.92575 0.34814 0.0
C2202 C 0.67092 0.89157 0.43887 0.0
C2203 C 0.68287 0.87465 0.431 0.0
C2204 C 0.65721 0.89963 0.41736 0.0
C2205 C 0.6552 0.89095 0.38751 0.0
C2206 C 0.66611 0.87318 0.38043 0.0
C2207 C 0.67981 0.86505 0.40204 0.0
H2208 H 0.66137 0.5823 0.29967 0.0
H2209 H 0.60121 0.59901 0.3313 0.0
H2210 H 0.67627 0.60248 0.34126 0.0
H2211 H 0.61649 0.61947 0.37336 0.0
H2212 H 0.66675 0.66637 0.4236 0.0
H2213 H 0.64631 0.65173 0.38096 0.0
H2214 H 0.67002 0.59228 0.4027 0.0
H2215 H 0.69014 0.60651 0.44486 0.0
C2216 C 0.6513 0.5905 0.31524 0.0
C2217 C 0.6301 0.58874 0.31264 0.0
C2218 C 0.65987 0.60209 0.33895 0.0
C2219 C 0.64745 0.6122 0.36053 0.0
C2220 C 0.62627 0.61173 0.35683 0.0
C2221 C 0.6176 0.60001 0.33293 0.0
C2222 C 0.6673 0.65014 0.41951 0.0
C2223 C 0.68033 0.63764 0.43714 0.0
C2224 C 0.65561 0.64183 0.39528 0.0
C2225 C 0.65694 0.62101 0.38854 0.0
C2226 C 0.66902 0.60844 0.40732 0.0
C2227 C 0.68056 0.61664 0.43139 0.0
H2228 H 0.68555 0.35292 0.60541 0.0
H2229 H 0.67152 0.40137 0.54065 0.0
H2230 H 0.66174 0.36742 0.64313 0.0
H2231 H 0.64814 0.41595 0.57836 0.0
H2232 H 0.60257 0.43695 0.64684 0.0
H2233 H 0.61683 0.41299 0.60912 0.0
H2234 H 0.665 0.3986 0.67413 0.0
H2235 H 0.65065 0.42212 0.71185 0.0
C2236 C 0.67715 0.36644 0.59902 0.0
C2237 C 0.68067 0.37622 0.57033 0.0
C2238 C 0.66356 0.37476 0.62063 0.0
C2239 C 0.65322 0.39291 0.61381 0.0
C2240 C 0.65572 0.40185 0.58423 0.0
C2241 C 0.66931 0.3936 0.56273 0.0
C2242 C 0.61595 0.42834 0.65329 0.0
C2243 C 0.62572 0.43169 0.68204 0.0
C2244 C 0.62413 0.41467 0.63168 0.0
C2245 C 0.64213 0.40408 0.63855 0.0
C2246 C 0.65102 0.40638 0.66821 0.0
C2247 C 0.6429 0.42005 0.68972 0.0
H2248 H 0.84568 0.40156 0.95962 0.0
H2249 H 0.83177 0.35304 0.89494 0.0
H2250 H 0.8695 0.41585 0.92231 0.0
H2251 H 0.85598 0.3673 0.85753 0.0
H2252 H 0.91519 0.4368 0.85417 0.0
H2253 H 0.90107 0.41251 0.89157 0.0
H2254 H 0.85246 0.39888 0.82693 0.0
H2255 H 0.8666 0.42278 0.78963 0.0
C2256 C 0.84801 0.39372 0.93764 0.0
C2257 C 0.83655 0.37643 0.92991 0.0
C2258 C 0.86186 0.40179 0.91639 0.0
C2259 C 0.86449 0.39276 0.88692 0.0
C2260 C 0.85407 0.37466 0.88 0.0
C2261 C 0.84025 0.3665 0.9014 0.0
C2262 C 0.90174 0.42828 0.84774 0.0
C2263 C 0.89175 0.43197 0.81927 0.0
C2264 C 0.89366 0.41442 0.86914 0.0
C2265 C 0.87559 0.40394 0.86226 0.0
C2266 C 0.8665 0.40657 0.83282 0.0
C2267 C 0.87449 0.42046 0.81157 0.0
H2268 H 0.86501 0.59644 0.20794 0.0
H2269 H 0.91451 0.5839 0.14433 0.0
H2270 H 0.8505 0.61995 0.17035 0.0
H2271 H 0.90006 0.60784 0.10674 0.0
H2272 H 0.8295 0.6658 0.10258 0.0
H2273 H 0.85341 0.65166 0.14048 0.0
H2274 H 0.86925 0.60436 0.07478 0.0
H2275 H 0.84577 0.61859 0.03689 0.0
C2276 C 0.87301 0.599 0.18615 0.0
C2277 C 0.89068 0.58803 0.17881 0.0
C2278 C 0.8648 0.61267 0.16473 0.0
C2279 C 0.87407 0.61563 0.1355 0.0
C2280 C 0.89248 0.60566 0.12897 0.0
C2281 C 0.90076 0.592 0.1505 0.0
C2282 C 0.83843 0.65265 0.09602 0.0
C2283 C 0.83548 0.64306 0.06702 0.0
C2284 C 0.85206 0.64454 0.11773 0.0
C2285 C 0.86303 0.62679 0.11071 0.0
C2286 C 0.86116 0.61814 0.08083 0.0
C2287 C 0.84752 0.62618 0.05921 0.0
H2288 H 0.34563 0.40196 0.53925 0.0
H2289 H 0.33304 0.3526 0.60305 0.0
H2290 H 0.36957 0.41624 0.57639 0.0
H2291 H 0.35738 0.36685 0.64027 0.0
H2292 H 0.36764 0.4219 0.70923 0.0
H2293 H 0.35363 0.39806 0.6717 0.0
H2294 H 0.40143 0.41315 0.60642 0.0
H2295 H 0.4154 0.43739 0.64405 0.0
C2296 C 0.34828 0.39394 0.56098 0.0
C2297 C 0.33715 0.37641 0.56855 0.0
C2298 C 0.3622 0.402 0.58213 0.0
C2299 C 0.36523 0.39273 0.61133 0.0
C2300 C 0.35516 0.3744 0.61803 0.0
C2301 C 0.34126 0.36625 0.59673 0.0
C2302 C 0.37538 0.41992 0.68709 0.0
C2303 C 0.39235 0.43182 0.67929 0.0
C2304 C 0.36748 0.40605 0.6657 0.0
C2305 C 0.37636 0.40386 0.63604 0.0
C2306 C 0.39418 0.41472 0.62904 0.0
C2307 C 0.40217 0.42856 0.65056 0.0
H2308 H 0.34652 0.61793 0.45948 0.0
H2309 H 0.3319 0.66585 0.39412 0.0
H2310 H 0.37029 0.60358 0.42214 0.0
H2311 H 0.35607 0.65155 0.35671 0.0
H2312 H 0.41603 0.58266 0.35406 0.0
H2313 H 0.40166 0.60693 0.39125 0.0
H2314 H 0.35298 0.6199 0.32642 0.0
H2315 H 0.3674 0.59604 0.28928 0.0
C2316 C 0.34868 0.62563 0.43734 0.0
C2317 C 0.33704 0.64277 0.42944 0.0
C2318 C 0.3625 0.61753 0.41606 0.0
C2319 C 0.36493 0.62637 0.38641 0.0
C2320 C 0.35432 0.64432 0.37931 0.0
C2321 C 0.34052 0.65251 0.40072 0.0
C2322 C 0.40251 0.59103 0.34753 0.0
C2323 C 0.3926 0.58717 0.31905 0.0
C2324 C 0.39429 0.60488 0.36882 0.0
C2325 C 0.37612 0.61516 0.36184 0.0
C2326 C 0.36709 0.61236 0.33239 0.0
C2327 C 0.37524 0.5985 0.31123 0.0
H2328 H 0.18615 0.66684 0.10315 0.0
H2329 H 0.17268 0.61809 0.03865 0.0
H2330 H 0.16164 0.65273 0.14024 0.0
H2331 H 0.14856 0.60397 0.07562 0.0
H2332 H 0.15127 0.59699 0.20805 0.0
H2333 H 0.16526 0.62111 0.17095 0.0
H2334 H 0.11684 0.60728 0.10608 0.0
H2335 H 0.10287 0.58278 0.14329 0.0
C2336 C 0.17768 0.65337 0.09664 0.0
C2337 C 0.18162 0.64331 0.06833 0.0
C2338 C 0.16369 0.6453 0.11786 0.0
C2339 C 0.15334 0.62717 0.11092 0.0
C2340 C 0.15616 0.61805 0.08155 0.0
C2341 C 0.17018 0.62602 0.0605 0.0
C2342 C 0.14339 0.59931 0.1861 0.0
C2343 C 0.12624 0.58769 0.17826 0.0
C2344 C 0.15128 0.61334 0.16498 0.0
C2345 C 0.14221 0.61597 0.13553 0.0
C2346 C 0.12422 0.60538 0.12854 0.0
C2347 C 0.11624 0.59139 0.14981 0.0
H2348 H 0.10216 0.43583 0.85461 0.0
H2349 H 0.15089 0.42228 0.79011 0.0
H2350 H 0.11643 0.41161 0.89197 0.0
H2351 H 0.16521 0.39846 0.82742 0.0
H2352 H 0.17152 0.40058 0.96044 0.0
H2353 H 0.14782 0.41496 0.92298 0.0
H2354 H 0.1619 0.36682 0.85777 0.0
H2355 H 0.18599 0.35249 0.89528 0.0
C2356 C 0.11568 0.42743 0.84818 0.0
C2357 C 0.12564 0.43122 0.81973 0.0
C2358 C 0.12385 0.41361 0.86957 0.0
C2359 C 0.14202 0.40329 0.86271 0.0
C2360 C 0.1511 0.40603 0.83329 0.0
C2361 C 0.14301 0.41987 0.81204 0.0
C2362 C 0.16933 0.39285 0.93832 0.0
C2363 C 0.18091 0.37566 0.93051 0.0
C2364 C 0.15556 0.40097 0.91698 0.0
C2365 C 0.15313 0.39209 0.88735 0.0
C2366 C 0.16367 0.37408 0.88034 0.0
C2367 C 0.17741 0.36588 0.90181 0.0
H2368 H 0.26046 0.20718 0.06061 0.0
H2369 H 0.22466 0.20701 0.97594 0.0
H2370 H 0.2603 0.24413 0.06071 0.0
H2371 H 0.22528 0.244 0.97511 0.0
H2372 H 0.21273 0.31022 0.99894 0.0
H2373 H 0.21241 0.27325 0.99918 0.0
H2374 H 0.27358 0.27293 0.03616 0.0
H2375 H 0.27346 0.30987 0.03728 0.0
C2376 C 0.25272 0.21505 0.04181 0.0
C2377 C 0.24256 0.20412 0.01829 0.0
C2378 C 0.25273 0.2363 0.04173 0.0
C2379 C 0.24283 0.24722 0.01785 0.0
C2380 C 0.23277 0.23622 0.99421 0.0
C2381 C 0.23252 0.21496 0.99455 0.0
C2382 C 0.22611 0.30225 0.00711 0.0
C2383 C 0.2431 0.31304 0.01816 0.0
C2384 C 0.226 0.28099 0.00707 0.0
C2385 C 0.24297 0.26993 0.0177 0.0
C2386 C 0.26005 0.2808 0.02838 0.0
C2387 C 0.26006 0.30205 0.02881 0.0
H2388 H 0.95752 0.01014 0.30785 0.0
H2389 H 0.95661 0.97349 0.22407 0.0
H2390 H 0.9944 0.00965 0.30761 0.0
H2391 H 0.99366 0.9738 0.22285 0.0
H2392 H 0.06023 0.96145 0.24677 0.0
H2393 H 0.0232 0.96121 0.24677 0.0
H2394 H 0.02296 0.02267 0.28251 0.0
H2395 H 0.05987 0.02247 0.28392 0.0
C2396 C 0.96521 1.00213 0.28915 0.0
C2397 C 0.95408 0.99185 0.26598 0.0
C2398 C 0.98644 1.00197 0.28886 0.0
C2399 C 0.99719 0.99179 0.26509 0.0
C2400 C 0.98601 0.98155 0.24182 0.0
C2401 C 0.96472 0.98147 0.24238 0.0
C2402 C 0.05224 0.9749 0.25463 0.0
C2403 C 0.06304 0.99194 0.26548 0.0
C2404 C 0.03096 0.97483 0.25444 0.0
C2405 C 0.01992 0.9919 0.26473 0.0
C2406 C 0.03081 0.00906 0.27506 0.0
C2407 C 0.05206 0.00901 0.27566 0.0
H2408 H 0.30486 0.70822 0.49904 0.0
H2409 H 0.24445 0.70743 0.53853 0.0
H2410 H 0.30477 0.74521 0.50039 0.0
H2411 H 0.24392 0.74436 0.53856 0.0
H2412 H 0.25632 0.80982 0.56485 0.0
H2413 H 0.25721 0.77289 0.56393 0.0
H2414 H 0.29126 0.77466 0.47748 0.0
H2415 H 0.29114 0.81165 0.47928 0.0
C2416 C 0.29146 0.71595 0.50771 0.0
C2417 C 0.27469 0.70484 0.51875 0.0
C2418 C 0.29135 0.73721 0.50832 0.0
C2419 C 0.27435 0.74793 0.51964 0.0
C2420 C 0.25747 0.73674 0.53028 0.0
C2421 C 0.2577 0.7155 0.53004 0.0
C2422 C 0.26401 0.80232 0.54565 0.0
C2423 C 0.27364 0.8137 0.52213 0.0
C2424 C 0.26441 0.78109 0.54499 0.0
C2425 C 0.27422 0.77063 0.52053 0.0
C2426 C 0.28384 0.78208 0.49697 0.0
C2427 C 0.28367 0.80334 0.49788 0.0
H2428 H 0.45753 0.04299 0.72617 0.0
H2429 H 0.45809 1.00657 0.81019 0.0
H2430 H 0.49458 0.0424 0.72502 0.0
H2431 H 0.49496 1.00684 0.81007 0.0
H2432 H 0.56035 0.9936 0.78698 0.0
H2433 H 0.52345 0.99358 0.78529 0.0
H2434 H 0.52415 0.05487 0.74886 0.0
H2435 H 0.56117 0.05441 0.74909 0.0
C2436 C 0.46557 0.03501 0.74455 0.0
C2437 C 0.45483 0.02478 0.7682 0.0
C2438 C 0.48685 0.03477 0.74404 0.0
C2439 C 0.49793 0.02453 0.76742 0.0
C2440 C 0.48708 0.01451 0.79124 0.0
C2441 C 0.46585 0.01448 0.79146 0.0
C2442 C 0.55263 1.00705 0.77851 0.0
C2443 C 0.56373 0.02401 0.7682 0.0
C2444 C 0.5314 1.00712 0.77775 0.0
C2445 C 0.52064 0.02428 0.76715 0.0
C2446 C 0.53181 0.04124 0.75673 0.0
C2447 C 0.55308 0.04105 0.75705 0.0
H2448 H 0.27527 0.81029 0.95986 0.0
H2449 H 0.21461 0.8105 0.99842 0.0
H2450 H 0.27558 0.77336 0.96134 0.0
H2451 H 0.21446 0.77353 0.99849 0.0
H2452 H 0.22687 0.70744 0.02229 0.0
H2453 H 0.22736 0.74444 0.02276 0.0
H2454 H 0.26259 0.74431 0.93737 0.0
H2455 H 0.26291 0.70739 0.93788 0.0
C2456 C 0.26192 0.80244 0.96843 0.0
C2457 C 0.24494 0.81339 0.97907 0.0
C2458 C 0.26202 0.78119 0.96907 0.0
C2459 C 0.24502 0.77027 0.97994 0.0
C2460 C 0.228 0.78129 0.99049 0.0
C2461 C 0.22802 0.80256 0.99025 0.0
C2462 C 0.23475 0.71534 0.00367 0.0
C2463 C 0.24489 0.70444 0.9801 0.0
C2464 C 0.23493 0.73661 0.00379 0.0
C2465 C 0.245 0.74755 0.98008 0.0
C2466 C 0.25501 0.73655 0.9564 0.0
C2467 C 0.25508 0.7153 0.95655 0.0
H2468 H 0.56056 0.96105 0.25206 0.0
H2469 H 0.56004 0.02186 0.21414 0.0
H2470 H 0.52353 0.96073 0.25211 0.0
H2471 H 0.52313 0.02199 0.21559 0.0
H2472 H 0.45752 0.00934 0.19109 0.0
H2473 H 0.49443 0.00888 0.19095 0.0
H2474 H 0.49409 0.9734 0.27607 0.0
H2475 H 0.45705 0.97305 0.27523 0.0
C2476 C 0.55254 0.97444 0.24404 0.0
C2477 C 0.56329 0.99144 0.23298 0.0
C2478 C 0.53125 0.97433 0.24425 0.0
C2479 C 0.52016 0.99132 0.23378 0.0
C2480 C 0.53101 1.00843 0.22319 0.0
C2481 C 0.55226 1.00843 0.22258 0.0
C2482 C 0.46531 1.00143 0.20978 0.0
C2483 C 0.45431 0.99124 0.23317 0.0
C2484 C 0.48656 1.00128 0.20985 0.0
C2485 C 0.49743 0.9912 0.2336 0.0
C2486 C 0.48636 0.98105 0.25709 0.0
C2487 C 0.46507 0.98096 0.25675 0.0
H2488 H 0.29393 0.20787 0.52372 0.0
H2489 H 0.25754 0.20808 0.43966 0.0
H2490 H 0.29325 0.24487 0.52467 0.0
H2491 H 0.25771 0.24498 0.43956 0.0
H2492 H 0.24446 0.31055 0.46271 0.0
H2493 H 0.24451 0.27363 0.46402 0.0
H2494 H 0.30571 0.27433 0.50089 0.0
H2495 H 0.30518 0.31132 0.50104 0.0
C2496 C 0.28594 0.21582 0.50527 0.0
C2497 C 0.27575 0.20499 0.48167 0.0
C2498 C 0.28565 0.23709 0.50566 0.0
C2499 C 0.27541 0.24809 0.4822 0.0
C2500 C 0.2654 0.23716 0.45844 0.0
C2501 C 0.26542 0.21592 0.45833 0.0
C2502 C 0.25791 0.30282 0.4712 0.0
C2503 C 0.27481 0.31391 0.48179 0.0
C2504 C 0.25801 0.28158 0.47173 0.0
C2505 C 0.27516 0.27081 0.4824 0.0
C2506 C 0.29208 0.28198 0.493 0.0
C2507 C 0.29185 0.30324 0.4929 0.0
H2508 H 0.06161 0.04234 0.77265 0.0
H2509 H 0.06073 1.00692 0.68762 0.0
H2510 H 0.02461 0.04203 0.77389 0.0
H2511 H 0.02379 1.0074 0.68795 0.0
H2512 H 0.95821 0.99442 0.71197 0.0
H2513 H 0.99514 0.99413 0.71283 0.0
H2514 H 0.99522 0.05515 0.75031 0.0
H2515 H 0.9582 0.055 0.7508 0.0
C2516 C 0.05351 0.03463 0.75406 0.0
C2517 C 0.06414 0.02459 0.73011 0.0
C2518 C 0.03224 0.03456 0.75464 0.0
C2519 C 0.02104 0.02469 0.73103 0.0
C2520 C 0.03177 0.01481 0.70692 0.0
C2521 C 0.05302 0.01464 0.70659 0.0
C2522 C 0.9661 1.00776 0.7205 0.0
C2523 C 0.95522 0.02473 0.73134 0.0
C2524 C 0.98735 1.00766 0.72077 0.0
C2525 C 0.99833 0.02466 0.73147 0.0
C2526 C 0.98738 0.04164 0.74236 0.0
C2527 C 0.96611 0.04162 0.74247 0.0
H2528 H 0.75411 0.81062 0.93624 0.0
H2529 H 0.79158 0.81112 0.01918 0.0
H2530 H 0.75451 0.7737 0.93623 0.0
H2531 H 0.79113 0.77415 0.02022 0.0
H2532 H 0.80349 0.70792 0.9965 0.0
H2533 H 0.80365 0.7449 0.99597 0.0
H2534 H 0.74194 0.74485 0.96115 0.0
H2535 H 0.74222 0.70792 0.96025 0.0
C2536 C 0.76229 0.80284 0.95467 0.0
C2537 C 0.77288 0.81386 0.97764 0.0
C2538 C 0.7624 0.78159 0.95483 0.0
C2539 C 0.77282 0.77076 0.97828 0.0
C2540 C 0.78325 0.78185 0.00143 0.0
C2541 C 0.7834 0.80311 0.00098 0.0
C2542 C 0.78996 0.71582 0.98872 0.0
C2543 C 0.77287 0.70494 0.97834 0.0
C2544 C 0.78999 0.73709 0.9886 0.0
C2545 C 0.77281 0.74804 0.97851 0.0
C2546 C 0.75563 0.73706 0.96849 0.0
C2547 C 0.75572 0.71582 0.96818 0.0
H2548 H 0.76006 0.20704 0.43921 0.0
H2549 H 0.72449 0.2061 0.52408 0.0
H2550 H 0.75958 0.24396 0.43959 0.0
H2551 H 0.72479 0.24311 0.52537 0.0
H2552 H 0.71203 0.30961 0.5023 0.0
H2553 H 0.7118 0.2726 0.50184 0.0
H2554 H 0.7729 0.27253 0.46461 0.0
H2555 H 0.77269 0.30944 0.46371 0.0
C2556 C 0.7523 0.21473 0.45816 0.0
C2557 C 0.74232 0.2036 0.48162 0.0
C2558 C 0.75214 0.23598 0.45852 0.0
C2559 C 0.74223 0.2467 0.48261 0.0
C2560 C 0.7323 0.23549 0.50615 0.0
C2561 C 0.73223 0.21422 0.50554 0.0
C2562 C 0.72541 0.30167 0.49403 0.0
C2563 C 0.74235 0.31252 0.48294 0.0
C2564 C 0.72534 0.2804 0.49394 0.0
C2565 C 0.74231 0.26941 0.48311 0.0
C2566 C 0.75936 0.28035 0.47249 0.0
C2567 C 0.75932 0.30159 0.4722 0.0
H2568 H 0.80525 0.20751 0.99698 0.0
H2569 H 0.74487 0.20801 0.03658 0.0
H2570 H 0.80568 0.24454 0.99745 0.0
H2571 H 0.74486 0.24491 0.03574 0.0
H2572 H 0.75826 0.31012 0.06151 0.0
H2573 H 0.75867 0.27321 0.06088 0.0
H2574 H 0.7926 0.27422 0.97428 0.0
H2575 H 0.79295 0.31125 0.97578 0.0
C2576 C 0.79197 0.21552 0.00546 0.0
C2577 C 0.77506 0.20477 0.01685 0.0
C2578 C 0.79216 0.2368 0.00557 0.0
C2579 C 0.77533 0.24787 0.01674 0.0
C2580 C 0.7583 0.23702 0.0276 0.0
C2581 C 0.75822 0.21579 0.02787 0.0
C2582 C 0.76581 0.30247 0.04231 0.0
C2583 C 0.77554 0.31365 0.01866 0.0
C2584 C 0.76594 0.28123 0.04182 0.0
C2585 C 0.77555 0.27057 0.01741 0.0
C2586 C 0.78529 0.28181 0.99372 0.0
C2587 C 0.7854 0.30308 0.99445 0.0
H2588 H 0.7145 0.80972 0.50156 0.0
H2589 H 0.77503 0.80961 0.54062 0.0
H2590 H 0.71423 0.77274 0.50215 0.0
H2591 H 0.77522 0.77266 0.53984 0.0
H2592 H 0.76243 0.70686 0.56401 0.0
H2593 H 0.76202 0.74379 0.56417 0.0
H2594 H 0.72723 0.74349 0.47835 0.0
H2595 H 0.72683 0.70651 0.47914 0.0
C2596 C 0.72784 0.80179 0.51 0.0
C2597 C 0.74477 0.81266 0.5211 0.0
C2598 C 0.72776 0.78053 0.51015 0.0
C2599 C 0.74471 0.76953 0.52103 0.0
C2600 C 0.76171 0.78048 0.53185 0.0
C2601 C 0.76168 0.80173 0.53209 0.0
C2602 C 0.75466 0.71467 0.5452 0.0
C2603 C 0.74464 0.70369 0.52159 0.0
C2604 C 0.75454 0.73593 0.54514 0.0
C2605 C 0.74465 0.74681 0.52121 0.0
C2606 C 0.73472 0.73575 0.4975 0.0
C2607 C 0.73459 0.71449 0.49781 0.0
H2608 H 0.55969 0.52375 0.79048 0.0
H2609 H 0.56045 0.46342 0.75075 0.0
H2610 H 0.52275 0.52366 0.78928 0.0
H2611 H 0.52345 0.46288 0.75087 0.0
H2612 H 0.45709 0.47539 0.72741 0.0
H2613 H 0.49412 0.4759 0.72693 0.0
H2614 H 0.49401 0.50996 0.81343 0.0
H2615 H 0.45707 0.51021 0.81302 0.0
C2616 C 0.55196 0.51037 0.78172 0.0
C2617 C 0.56306 0.4936 0.77069 0.0
C2618 C 0.53071 0.51025 0.78122 0.0
C2619 C 0.51995 0.49322 0.7701 0.0
C2620 C 0.53111 0.47642 0.75913 0.0
C2621 C 0.55238 0.47666 0.75924 0.0
C2622 C 0.46501 0.48301 0.74628 0.0
C2623 C 0.45411 0.49284 0.77016 0.0
C2624 C 0.48629 0.4832 0.74615 0.0
C2625 C 0.49722 0.493 0.77013 0.0
C2626 C 0.48623 0.50262 0.79418 0.0
C2627 C 0.46498 0.50267 0.79407 0.0
H2628 H 0.06004 0.50847 0.30853 0.0
H2629 H 0.0615 0.54486 0.2245 0.0
H2630 H 0.02317 0.50905 0.30776 0.0
H2631 H 0.02446 0.54464 0.22278 0.0
H2632 H 0.95759 0.55692 0.24611 0.0
H2633 H 0.99465 0.55726 0.24634 0.0
H2634 H 0.99497 0.49576 0.28189 0.0
H2635 H 0.95809 0.49584 0.28303 0.0
C2636 C 0.05248 0.51645 0.28968 0.0
C2637 C 0.06376 0.52661 0.26657 0.0
C2638 C 0.03126 0.51666 0.28908 0.0
C2639 C 0.02067 0.52676 0.26507 0.0
C2640 C 0.03199 0.53693 0.24191 0.0
C2641 C 0.05327 0.53696 0.24276 0.0
C2642 C 0.96561 0.54348 0.25393 0.0
C2643 C 0.95486 0.5264 0.26471 0.0
C2644 C 0.9869 0.54361 0.2539 0.0
C2645 C 0.99796 0.52658 0.2643 0.0
C2646 C 0.9871 0.50936 0.27441 0.0
C2647 C 0.96587 0.50934 0.27484 0.0
H2648 H 0.06019 0.46365 0.75232 0.0
H2649 H 0.06002 0.52398 0.7126 0.0
H2650 H 0.02319 0.46333 0.75163 0.0
H2651 H 0.02308 0.5241 0.71322 0.0
H2652 H 0.95764 0.51069 0.68758 0.0
H2653 H 0.99458 0.51043 0.68827 0.0
H2654 H 0.99362 0.47645 0.7748 0.0
H2655 H 0.9566 0.47595 0.77325 0.0
C2656 C 0.05225 0.47694 0.74375 0.0
C2657 C 0.06311 0.49381 0.73242 0.0
C2658 C 0.03098 0.47682 0.74352 0.0
C2659 C 0.01998 0.49367 0.73231 0.0
C2660 C 0.03091 0.51066 0.72143 0.0
C2661 C 0.05217 0.51066 0.72129 0.0
C2662 C 0.96531 0.50317 0.70677 0.0
C2663 C 0.95414 0.49336 0.73038 0.0
C2664 C 0.98656 0.50312 0.7073 0.0
C2665 C 0.99726 0.49351 0.73168 0.0
C2666 C 0.98602 0.48374 0.75536 0.0
C2667 C 0.96475 0.48355 0.7546 0.0
H2668 H 0.4583 0.55462 0.25148 0.0
H2669 H 0.45811 0.494 0.21279 0.0
H2670 H 0.49532 0.55471 0.25074 0.0
H2671 H 0.49504 0.49365 0.21342 0.0
H2672 H 0.56057 0.50619 0.18781 0.0
H2673 H 0.52364 0.5068 0.18835 0.0
H2674 H 0.52478 0.54164 0.27408 0.0
H2675 H 0.56178 0.54185 0.2726 0.0
C2676 C 0.46617 0.54121 0.24314 0.0
C2677 C 0.45522 0.52433 0.23211 0.0
C2678 C 0.48745 0.5412 0.24288 0.0
C2679 C 0.49834 0.5242 0.23196 0.0
C2680 C 0.4873 0.50721 0.22138 0.0
C2681 C 0.46605 0.50733 0.22124 0.0
C2682 C 0.55294 0.51401 0.20677 0.0
C2683 C 0.56416 0.52398 0.23015 0.0
C2684 C 0.53169 0.51424 0.20722 0.0
C2685 C 0.52105 0.52419 0.23135 0.0
C2686 C 0.53234 0.5341 0.25482 0.0
C2687 C 0.55361 0.53411 0.25411 0.0
loop_
_geom_bond_atom_site_label_1
_geom_bond_atom_site_label_2
_geom_bond_distance
_geom_bond_site_symmetry_2
_ccdc_geom_bond_type
Co0 O3 1.970 . S
Co0 N17 1.989 . S
Co0 O25 1.967 1_554 S
Co0 O32 1.920 1_554 S
Co1 O4 1.966 . S
Co1 N10 2.022 . S
Co1 N18 1.993 . S
Co1 O26 1.941 . S
C2 O3 1.258 . S
C2 O4 1.263 . S
O3 Co0 1.970 . S
O3 C2 1.258 . S
O4 Co1 1.966 . S
O4 C2 1.263 . S
C5 O6 1.235 . S
C5 O32 1.289 . S
O6 C5 1.235 . S
C7 C9 1.400 . S
C7 N10 1.351 . S
C7 C12 1.501 . S
C8 C9 1.387 . S
C8 N11 1.341 . S
C9 C7 1.400 . S
C9 C8 1.387 . S
N10 Co1 2.022 . S
N10 C7 1.351 . S
N10 N11 1.365 . S
N11 C8 1.341 . S
N11 N10 1.365 . S
N11 H31 0.862 . S
C12 C7 1.501 . S
C12 H13 0.961 . S
C12 H14 0.961 . S
C12 H15 0.960 . S
H13 C12 0.961 . S
H14 C12 0.961 . S
H15 C12 0.960 . S
C16 N17 1.342 . S
C16 C20 1.401 . S
C16 C21 1.499 . S
N17 Co0 1.989 . S
N17 C16 1.342 . S
N17 N18 1.388 . S
N18 Co1 1.993 . S
N18 N17 1.388 . S
N18 C19 1.346 . S
C19 N18 1.346 . S
C19 C20 1.396 . S
C19 C29 1.510 . S
C20 C16 1.401 . S
C20 C19 1.396 . S
C21 C16 1.499 . S
C21 H22 0.959 . S
C21 H23 0.960 . S
C21 H24 0.961 . S
H22 C21 0.959 . S
H23 C21 0.960 . S
H24 C21 0.961 . S
O25 Co0 1.967 1_556 S
O25 C33 1.258 1_556 S
O26 Co1 1.941 . S
O26 C33 1.266 . S
H27 C29 0.959 . S
H28 C29 0.961 . S
C29 C19 1.510 . S
C29 H27 0.959 . S
C29 H28 0.961 . S
C29 H30 0.960 . S
H30 C29 0.960 . S
H31 N11 0.862 . S
O32 Co0 1.920 1_556 S
O32 C5 1.289 . S
C33 O25 1.258 1_554 S
C33 O26 1.266 . S
Co34 O37 1.970 . S
Co34 N51 1.989 . S
Co34 O59 1.967 . S
Co34 O66 1.920 . S
Co35 O38 1.966 . S
Co35 N44 2.022 . S
Co35 N52 1.993 . S
Co35 O60 1.941 . S
C36 O37 1.258 . S
C36 O38 1.263 . S
O37 Co34 1.970 . S
O37 C36 1.258 . S
O38 Co35 1.966 . S
O38 C36 1.263 . S
C39 O40 1.235 . S
C39 O66 1.289 . S
O40 C39 1.235 . S
C41 C43 1.400 . S
C41 N44 1.351 . S
C41 C46 1.501 . S
C42 C43 1.387 . S
C42 N45 1.341 . S
C43 C41 1.400 . S
C43 C42 1.387 . S
N44 Co35 2.022 . S
N44 C41 1.351 . S
N44 N45 1.365 . S
N45 C42 1.341 . S
N45 N44 1.365 . S
N45 H65 0.862 . S
C46 C41 1.501 . S
C46 H47 0.961 . S
C46 H48 0.961 . S
C46 H49 0.960 . S
H47 C46 0.961 . S
H48 C46 0.961 . S
H49 C46 0.960 . S
C50 N51 1.342 . S
C50 C54 1.401 . S
C50 C55 1.499 . S
N51 Co34 1.989 . S
N51 C50 1.342 . S
N51 N52 1.388 . S
N52 Co35 1.993 . S
N52 N51 1.388 . S
N52 C53 1.346 . S
C53 N52 1.346 . S
C53 C54 1.396 . S
C53 C63 1.510 . S
C54 C50 1.401 . S
C54 C53 1.396 . S
C55 C50 1.499 . S
C55 H56 0.959 . S
C55 H57 0.960 . S
C55 H58 0.961 . S
H56 C55 0.959 . S
H57 C55 0.960 . S
H58 C55 0.961 . S
O59 Co34 1.967 . S
O59 C67 1.258 . S
O60 Co35 1.941 . S
O60 C67 1.266 . S
H61 C63 0.959 . S
H62 C63 0.961 . S
C63 C53 1.510 . S
C63 H61 0.959 . S
C63 H62 0.961 . S
C63 H64 0.960 . S
H64 C63 0.960 . S
H65 N45 0.862 . S
O66 Co34 1.920 . S
O66 C39 1.289 . S
C67 O59 1.258 . S
C67 O60 1.266 . S
Co68 O71 1.970 . S
Co68 N85 1.989 . S
Co68 O93 1.967 . S
Co68 O100 1.920 . S
Co69 O72 1.966 . S
Co69 N78 2.022 . S
Co69 N86 1.993 . S
Co69 O94 1.941 . S
C70 O71 1.258 . S
C70 O72 1.263 . S
O71 Co68 1.970 . S
O71 C70 1.258 . S
O72 Co69 1.966 . S
O72 C70 1.263 . S
C73 O74 1.235 . S
C73 O100 1.289 . S
O74 C73 1.235 . S
C75 C77 1.400 . S
C75 N78 1.351 . S
C75 C80 1.501 . S
C76 C77 1.387 . S
C76 N79 1.341 . S
C77 C75 1.400 . S
C77 C76 1.387 . S
N78 Co69 2.022 . S
N78 C75 1.351 . S
N78 N79 1.365 . S
N79 C76 1.341 . S
N79 N78 1.365 . S
N79 H99 0.862 . S
C80 C75 1.501 . S
C80 H81 0.961 . S
C80 H82 0.961 . S
C80 H83 0.960 . S
H81 C80 0.961 . S
H82 C80 0.961 . S
H83 C80 0.960 . S
C84 N85 1.342 . S
C84 C88 1.401 . S
C84 C89 1.499 . S
N85 Co68 1.989 . S
N85 C84 1.342 . S
N85 N86 1.388 . S
N86 Co69 1.993 . S
N86 N85 1.388 . S
N86 C87 1.346 . S
C87 N86 1.346 . S
C87 C88 1.396 . S
C87 C97 1.510 . S
C88 C84 1.401 . S
C88 C87 1.396 . S
C89 C84 1.499 . S
C89 H90 0.959 . S
C89 H91 0.960 . S
C89 H92 0.961 . S
H90 C89 0.959 . S
H91 C89 0.960 . S
H92 C89 0.961 . S
O93 Co68 1.967 . S
O93 C101 1.258 . S
O94 Co69 1.941 . S
O94 C101 1.266 . S
H95 C97 0.959 . S
H96 C97 0.961 . S
C97 C87 1.510 . S
C97 H95 0.959 . S
C97 H96 0.961 . S
C97 H98 0.960 . S
H98 C97 0.960 . S
H99 N79 0.862 . S
O100 Co68 1.920 . S
O100 C73 1.289 . S
C101 O93 1.258 . S
C101 O94 1.266 . S
Co102 O105 1.970 . S
Co102 N119 1.989 . S
Co102 O127 1.967 . S
Co102 O134 1.920 . S
Co103 O106 1.966 . S
Co103 N112 2.022 . S
Co103 N120 1.993 . S
Co103 O128 1.941 . S
C104 O105 1.258 . S
C104 O106 1.263 . S
O105 Co102 1.970 . S
O105 C104 1.258 . S
O106 Co103 1.966 . S
O106 C104 1.263 . S
C107 O108 1.235 . S
C107 O134 1.289 . S
O108 C107 1.235 . S
C109 C111 1.400 . S
C109 N112 1.351 . S
C109 C114 1.501 . S
C110 C111 1.387 . S
C110 N113 1.341 . S
C111 C109 1.400 . S
C111 C110 1.387 . S
N112 Co103 2.022 . S
N112 C109 1.351 . S
N112 N113 1.365 . S
N113 C110 1.341 . S
N113 N112 1.365 . S
N113 H133 0.862 . S
C114 C109 1.501 . S
C114 H115 0.961 . S
C114 H116 0.961 . S
C114 H117 0.960 . S
H115 C114 0.961 . S
H116 C114 0.961 . S
H117 C114 0.960 . S
C118 N119 1.342 . S
C118 C122 1.401 . S
C118 C123 1.499 . S
N119 Co102 1.989 . S
N119 C118 1.342 . S
N119 N120 1.388 . S
N120 Co103 1.993 . S
N120 N119 1.388 . S
N120 C121 1.346 . S
C121 N120 1.346 . S
C121 C122 1.396 . S
C121 C131 1.510 . S
C122 C118 1.401 . S
C122 C121 1.396 . S
C123 C118 1.499 . S
C123 H124 0.959 . S
C123 H125 0.960 . S
C123 H126 0.961 . S
H124 C123 0.959 . S
H125 C123 0.960 . S
H126 C123 0.961 . S
O127 Co102 1.967 . S
O127 C135 1.258 . S
O128 Co103 1.941 . S
O128 C135 1.266 . S
H129 C131 0.959 . S
H130 C131 0.961 . S
C131 C121 1.510 . S
C131 H129 0.959 . S
C131 H130 0.961 . S
C131 H132 0.960 . S
H132 C131 0.960 . S
H133 N113 0.862 . S
O134 Co102 1.920 . S
O134 C107 1.289 . S
C135 O127 1.258 . S
C135 O128 1.266 . S
Co136 O139 1.970 . S
Co136 N153 1.989 . S
Co136 O161 1.967 1_556 S
Co136 O168 1.920 1_556 S
Co137 O140 1.966 . S
Co137 N146 2.022 . S
Co137 N154 1.993 . S
Co137 O162 1.941 . S
C138 O139 1.258 . S
C138 O140 1.263 . S
O139 Co136 1.970 . S
O139 C138 1.258 . S
O140 Co137 1.966 . S
O140 C138 1.263 . S
C141 O142 1.235 . S
C141 O168 1.289 . S
O142 C141 1.235 . S
C143 C145 1.400 . S
C143 N146 1.351 . S
C143 C148 1.501 . S
C144 C145 1.387 . S
C144 N147 1.341 . S
C145 C143 1.400 . S
C145 C144 1.387 . S
N146 Co137 2.022 . S
N146 C143 1.351 . S
N146 N147 1.365 . S
N147 C144 1.341 . S
N147 N146 1.365 . S
N147 H167 0.862 . S
C148 C143 1.501 . S
C148 H149 0.961 . S
C148 H150 0.961 . S
C148 H151 0.960 . S
H149 C148 0.961 . S
H150 C148 0.961 . S
H151 C148 0.960 . S
C152 N153 1.342 . S
C152 C156 1.401 . S
C152 C157 1.499 . S
N153 Co136 1.989 . S
N153 C152 1.342 . S
N153 N154 1.388 . S
N154 Co137 1.993 . S
N154 N153 1.388 . S
N154 C155 1.346 . S
C155 N154 1.346 . S
C155 C156 1.396 . S
C155 C165 1.510 . S
C156 C152 1.401 . S
C156 C155 1.396 . S
C157 C152 1.499 . S
C157 H158 0.959 . S
C157 H159 0.960 . S
C157 H160 0.961 . S
H158 C157 0.959 . S
H159 C157 0.960 . S
H160 C157 0.961 . S
O161 Co136 1.967 1_554 S
O161 C169 1.258 1_554 S
O162 Co137 1.941 . S
O162 C169 1.266 . S
H163 C165 0.959 . S
H164 C165 0.961 . S
C165 C155 1.510 . S
C165 H163 0.959 . S
C165 H164 0.961 . S
C165 H166 0.960 . S
H166 C165 0.960 . S
H167 N147 0.862 . S
O168 Co136 1.920 1_554 S
O168 C141 1.289 . S
C169 O161 1.258 1_556 S
C169 O162 1.266 . S
Co170 O173 1.970 . S
Co170 N187 1.989 . S
Co170 O195 1.967 . S
Co170 O202 1.920 . S
Co171 O174 1.966 . S
Co171 N180 2.022 . S
Co171 N188 1.993 . S
Co171 O196 1.941 . S
C172 O173 1.258 . S
C172 O174 1.263 . S
O173 Co170 1.970 . S
O173 C172 1.258 . S
O174 Co171 1.966 . S
O174 C172 1.263 . S
C175 O176 1.235 . S
C175 O202 1.289 . S
O176 C175 1.235 . S
C177 C179 1.400 . S
C177 N180 1.351 . S
C177 C182 1.501 . S
C178 C179 1.387 . S
C178 N181 1.341 . S
C179 C177 1.400 . S
C179 C178 1.387 . S
N180 Co171 2.022 . S
N180 C177 1.351 . S
N180 N181 1.365 . S
N181 C178 1.341 . S
N181 N180 1.365 . S
N181 H201 0.862 . S
C182 C177 1.501 . S
C182 H183 0.961 . S
C182 H184 0.961 . S
C182 H185 0.960 . S
H183 C182 0.961 . S
H184 C182 0.961 . S
H185 C182 0.960 . S
C186 N187 1.342 . S
C186 C190 1.401 . S
C186 C191 1.499 . S
N187 Co170 1.989 . S
N187 C186 1.342 . S
N187 N188 1.388 . S
N188 Co171 1.993 . S
N188 N187 1.388 . S
N188 C189 1.346 . S
C189 N188 1.346 . S
C189 C190 1.396 . S
C189 C199 1.510 . S
C190 C186 1.401 . S
C190 C189 1.396 . S
C191 C186 1.499 . S
C191 H192 0.959 . S
C191 H193 0.960 . S
C191 H194 0.961 . S
H192 C191 0.959 . S
H193 C191 0.960 . S
H194 C191 0.961 . S
O195 Co170 1.967 . S
O195 C203 1.258 . S
O196 Co171 1.941 . S
O196 C203 1.266 . S
H197 C199 0.959 . S
H198 C199 0.961 . S
C199 C189 1.510 . S
C199 H197 0.959 . S
C199 H198 0.961 . S
C199 H200 0.960 . S
H200 C199 0.960 . S
H201 N181 0.862 . S
O202 Co170 1.920 . S
O202 C175 1.289 . S
C203 O195 1.258 . S
C203 O196 1.266 . S
Co204 O207 1.970 . S
Co204 N221 1.989 . S
Co204 O229 1.967 . S
Co204 O236 1.920 . S
Co205 O208 1.966 . S
Co205 N214 2.022 . S
Co205 N222 1.993 . S
Co205 O230 1.941 . S
C206 O207 1.258 . S
C206 O208 1.263 . S
O207 Co204 1.970 . S
O207 C206 1.258 . S
O208 Co205 1.966 . S
O208 C206 1.263 . S
C209 O210 1.235 . S
C209 O236 1.289 . S
O210 C209 1.235 . S
C211 C213 1.400 . S
C211 N214 1.351 . S
C211 C216 1.501 . S
C212 C213 1.387 . S
C212 N215 1.341 . S
C213 C211 1.400 . S
C213 C212 1.387 . S
N214 Co205 2.022 . S
N214 C211 1.351 . S
N214 N215 1.365 . S
N215 C212 1.341 . S
N215 N214 1.365 . S
N215 H235 0.862 . S
C216 C211 1.501 . S
C216 H217 0.961 . S
C216 H218 0.961 . S
C216 H219 0.960 . S
H217 C216 0.961 . S
H218 C216 0.961 . S
H219 C216 0.960 . S
C220 N221 1.342 . S
C220 C224 1.401 . S
C220 C225 1.499 . S
N221 Co204 1.989 . S
N221 C220 1.342 . S
N221 N222 1.388 . S
N222 Co205 1.993 . S
N222 N221 1.388 . S
N222 C223 1.346 . S
C223 N222 1.346 . S
C223 C224 1.396 . S
C223 C233 1.510 . S
C224 C220 1.401 . S
C224 C223 1.396 . S
C225 C220 1.499 . S
C225 H226 0.959 . S
C225 H227 0.960 . S
C225 H228 0.961 . S
H226 C225 0.959 . S
H227 C225 0.960 . S
H228 C225 0.961 . S
O229 Co204 1.967 . S
O229 C237 1.258 . S
O230 Co205 1.941 . S
O230 C237 1.266 . S
H231 C233 0.959 . S
H232 C233 0.961 . S
C233 C223 1.510 . S
C233 H231 0.959 . S
C233 H232 0.961 . S
C233 H234 0.960 . S
H234 C233 0.960 . S
H235 N215 0.862 . S
O236 Co204 1.920 . S
O236 C209 1.289 . S
C237 O229 1.258 . S
C237 O230 1.266 . S
Co238 O241 1.970 . S
Co238 N255 1.989 . S
Co238 O263 1.967 . S
Co238 O270 1.920 . S
Co239 O242 1.966 . S
Co239 N248 2.022 . S
Co239 N256 1.993 . S
Co239 O264 1.941 . S
C240 O241 1.258 . S
C240 O242 1.263 . S
O241 Co238 1.970 . S
O241 C240 1.258 . S
O242 Co239 1.966 . S
O242 C240 1.263 . S
C243 O244 1.235 . S
C243 O270 1.289 . S
O244 C243 1.235 . S
C245 C247 1.400 . S
C245 N248 1.351 . S
C245 C250 1.501 . S
C246 C247 1.387 . S
C246 N249 1.341 . S
C247 C245 1.400 . S
C247 C246 1.387 . S
N248 Co239 2.022 . S
N248 C245 1.351 . S
N248 N249 1.365 . S
N249 C246 1.341 . S
N249 N248 1.365 . S
N249 H269 0.862 . S
C250 C245 1.501 . S
C250 H251 0.961 . S
C250 H252 0.961 . S
C250 H253 0.960 . S
H251 C250 0.961 . S
H252 C250 0.961 . S
H253 C250 0.960 . S
C254 N255 1.342 . S
C254 C258 1.401 . S
C254 C259 1.499 . S
N255 Co238 1.989 . S
N255 C254 1.342 . S
N255 N256 1.388 . S
N256 Co239 1.993 . S
N256 N255 1.388 . S
N256 C257 1.346 . S
C257 N256 1.346 . S
C257 C258 1.396 . S
C257 C267 1.510 . S
C258 C254 1.401 . S
C258 C257 1.396 . S
C259 C254 1.499 . S
C259 H260 0.959 . S
C259 H261 0.960 . S
C259 H262 0.961 . S
H260 C259 0.959 . S
H261 C259 0.960 . S
H262 C259 0.961 . S
O263 Co238 1.967 . S
O263 C271 1.258 . S
O264 Co239 1.941 . S
O264 C271 1.266 . S
H265 C267 0.959 . S
H266 C267 0.961 . S
C267 C257 1.510 . S
C267 H265 0.959 . S
C267 H266 0.961 . S
C267 H268 0.960 . S
H268 C267 0.960 . S
H269 N249 0.862 . S
O270 Co238 1.920 . S
O270 C243 1.289 . S
C271 O263 1.258 . S
C271 O264 1.266 . S
Co272 O275 1.970 . S
Co272 N289 1.989 . S
Co272 O297 1.967 1_556 S
Co272 O304 1.920 1_556 S
Co273 O276 1.966 . S
Co273 N282 2.022 . S
Co273 N290 1.993 . S
Co273 O298 1.941 . S
C274 O275 1.258 . S
C274 O276 1.263 . S
O275 Co272 1.970 . S
O275 C274 1.258 . S
O276 Co273 1.966 . S
O276 C274 1.263 . S
C277 O278 1.235 . S
C277 O304 1.289 . S
O278 C277 1.235 . S
C279 C281 1.400 . S
C279 N282 1.351 . S
C279 C284 1.501 . S
C280 C281 1.387 . S
C280 N283 1.341 . S
C281 C279 1.400 . S
C281 C280 1.387 . S
N282 Co273 2.022 . S
N282 C279 1.351 . S
N282 N283 1.365 . S
N283 C280 1.341 . S
N283 N282 1.365 . S
N283 H303 0.862 . S
C284 C279 1.501 . S
C284 H285 0.961 . S
C284 H286 0.961 . S
C284 H287 0.960 . S
H285 C284 0.961 . S
H286 C284 0.961 . S
H287 C284 0.960 . S
C288 N289 1.342 . S
C288 C292 1.401 . S
C288 C293 1.499 . S
N289 Co272 1.989 . S
N289 C288 1.342 . S
N289 N290 1.388 . S
N290 Co273 1.993 . S
N290 N289 1.388 . S
N290 C291 1.346 . S
C291 N290 1.346 . S
C291 C292 1.396 . S
C291 C301 1.510 . S
C292 C288 1.401 . S
C292 C291 1.396 . S
C293 C288 1.499 . S
C293 H294 0.959 . S
C293 H295 0.960 . S
C293 H296 0.961 . S
H294 C293 0.959 . S
H295 C293 0.960 . S
H296 C293 0.961 . S
O297 Co272 1.967 1_554 S
O297 C305 1.258 1_554 S
O298 Co273 1.941 . S
O298 C305 1.266 . S
H299 C301 0.959 . S
H300 C301 0.961 . S
C301 C291 1.510 . S
C301 H299 0.959 . S
C301 H300 0.961 . S
C301 H302 0.960 . S
H302 C301 0.960 . S
H303 N283 0.862 . S
O304 Co272 1.920 1_554 S
O304 C277 1.289 . S
C305 O297 1.258 1_556 S
C305 O298 1.266 . S
Co306 O309 1.970 . S
Co306 N323 1.989 . S
Co306 O331 1.967 . S
Co306 O338 1.920 . S
Co307 O310 1.966 . S
Co307 N316 2.022 . S
Co307 N324 1.993 . S
Co307 O332 1.941 . S
C308 O309 1.258 . S
C308 O310 1.263 . S
O309 Co306 1.970 . S
O309 C308 1.258 . S
O310 Co307 1.966 . S
O310 C308 1.263 . S
C311 O312 1.235 . S
C311 O338 1.289 . S
O312 C311 1.235 . S
C313 C315 1.400 . S
C313 N316 1.351 . S
C313 C318 1.501 . S
C314 C315 1.387 . S
C314 N317 1.341 . S
C315 C313 1.400 . S
C315 C314 1.387 . S
N316 Co307 2.022 . S
N316 C313 1.351 . S
N316 N317 1.365 . S
N317 C314 1.341 . S
N317 N316 1.365 . S
N317 H337 0.862 . S
C318 C313 1.501 . S
C318 H319 0.961 . S
C318 H320 0.961 . S
C318 H321 0.960 . S
H319 C318 0.961 . S
H320 C318 0.961 . S
H321 C318 0.960 . S
C322 N323 1.342 . S
C322 C326 1.401 . S
C322 C327 1.499 . S
N323 Co306 1.989 . S
N323 C322 1.342 . S
N323 N324 1.388 . S
N324 Co307 1.993 . S
N324 N323 1.388 . S
N324 C325 1.346 . S
C325 N324 1.346 . S
C325 C326 1.396 . S
C325 C335 1.510 . S
C326 C322 1.401 . S
C326 C325 1.396 . S
C327 C322 1.499 . S
C327 H328 0.959 . S
C327 H329 0.960 . S
C327 H330 0.961 . S
H328 C327 0.959 . S
H329 C327 0.960 . S
H330 C327 0.961 . S
O331 Co306 1.967 . S
O331 C339 1.258 . S
O332 Co307 1.941 . S
O332 C339 1.266 . S
H333 C335 0.959 . S
H334 C335 0.961 . S
C335 C325 1.510 . S
C335 H333 0.959 . S
C335 H334 0.961 . S
C335 H336 0.960 . S
H336 C335 0.960 . S
H337 N317 0.862 . S
O338 Co306 1.920 . S
O338 C311 1.289 . S
C339 O331 1.258 . S
C339 O332 1.266 . S
Co340 O343 1.970 . S
Co340 N357 1.989 . S
Co340 O365 1.967 . S
Co340 O372 1.920 . S
Co341 O344 1.966 . S
Co341 N350 2.022 . S
Co341 N358 1.993 . S
Co341 O366 1.941 . S
C342 O343 1.258 . S
C342 O344 1.263 . S
O343 Co340 1.970 . S
O343 C342 1.258 . S
O344 Co341 1.966 . S
O344 C342 1.263 . S
C345 O346 1.235 . S
C345 O372 1.289 . S
O346 C345 1.235 . S
C347 C349 1.400 . S
C347 N350 1.351 . S
C347 C352 1.501 . S
C348 C349 1.387 . S
C348 N351 1.341 . S
C349 C347 1.400 . S
C349 C348 1.387 . S
N350 Co341 2.022 . S
N350 C347 1.351 . S
N350 N351 1.365 . S
N351 C348 1.341 . S
N351 N350 1.365 . S
N351 H371 0.862 . S
C352 C347 1.501 . S
C352 H353 0.961 . S
C352 H354 0.961 . S
C352 H355 0.960 . S
H353 C352 0.961 . S
H354 C352 0.961 . S
H355 C352 0.960 . S
C356 N357 1.342 . S
C356 C360 1.401 . S
C356 C361 1.499 . S
N357 Co340 1.989 . S
N357 C356 1.342 . S
N357 N358 1.388 . S
N358 Co341 1.993 . S
N358 N357 1.388 . S
N358 C359 1.346 . S
C359 N358 1.346 . S
C359 C360 1.396 . S
C359 C369 1.510 . S
C360 C356 1.401 . S
C360 C359 1.396 . S
C361 C356 1.499 . S
C361 H362 0.959 . S
C361 H363 0.960 . S
C361 H364 0.961 . S
H362 C361 0.959 . S
H363 C361 0.960 . S
H364 C361 0.961 . S
O365 Co340 1.967 . S
O365 C373 1.258 . S
O366 Co341 1.941 . S
O366 C373 1.266 . S
H367 C369 0.959 . S
H368 C369 0.961 . S
C369 C359 1.510 . S
C369 H367 0.959 . S
C369 H368 0.961 . S
C369 H370 0.960 . S
H370 C369 0.960 . S
H371 N351 0.862 . S
O372 Co340 1.920 . S
O372 C345 1.289 . S
C373 O365 1.258 . S
C373 O366 1.266 . S
Co374 O377 1.970 . S
Co374 N391 1.989 . S
Co374 O399 1.967 . S
Co374 O406 1.920 . S
Co375 O378 1.966 . S
Co375 N384 2.022 . S
Co375 N392 1.993 . S
Co375 O400 1.941 . S
C376 O377 1.258 . S
C376 O378 1.263 . S
O377 Co374 1.970 . S
O377 C376 1.258 . S
O378 Co375 1.966 . S
O378 C376 1.263 . S
C379 O380 1.235 . S
C379 O406 1.289 . S
O380 C379 1.235 . S
C381 C383 1.400 . S
C381 N384 1.351 . S
C381 C386 1.501 . S
C382 C383 1.387 . S
C382 N385 1.341 . S
C383 C381 1.400 . S
C383 C382 1.387 . S
N384 Co375 2.022 . S
N384 C381 1.351 . S
N384 N385 1.365 . S
N385 C382 1.341 . S
N385 N384 1.365 . S
N385 H405 0.862 . S
C386 C381 1.501 . S
C386 H387 0.961 . S
C386 H388 0.961 . S
C386 H389 0.960 . S
H387 C386 0.961 . S
H388 C386 0.961 . S
H389 C386 0.960 . S
C390 N391 1.342 . S
C390 C394 1.401 . S
C390 C395 1.499 . S
N391 Co374 1.989 . S
N391 C390 1.342 . S
N391 N392 1.388 . S
N392 Co375 1.993 . S
N392 N391 1.388 . S
N392 C393 1.346 . S
C393 N392 1.346 . S
C393 C394 1.396 . S
C393 C403 1.510 . S
C394 C390 1.401 . S
C394 C393 1.396 . S
C395 C390 1.499 . S
C395 H396 0.959 . S
C395 H397 0.960 . S
C395 H398 0.961 . S
H396 C395 0.959 . S
H397 C395 0.960 . S
H398 C395 0.961 . S
O399 Co374 1.967 . S
O399 C407 1.258 . S
O400 Co375 1.941 . S
O400 C407 1.266 . S
H401 C403 0.959 . S
H402 C403 0.961 . S
C403 C393 1.510 . S
C403 H401 0.959 . S
C403 H402 0.961 . S
C403 H404 0.960 . S
H404 C403 0.960 . S
H405 N385 0.862 . S
O406 Co374 1.920 . S
O406 C379 1.289 . S
C407 O399 1.258 . S
C407 O400 1.266 . S
Co408 O411 1.970 . S
Co408 N425 1.989 . S
Co408 O433 1.967 1_554 S
Co408 O440 1.920 1_554 S
Co409 O412 1.966 . S
Co409 N418 2.022 . S
Co409 N426 1.993 . S
Co409 O434 1.941 . S
C410 O411 1.258 . S
C410 O412 1.263 . S
O411 Co408 1.970 . S
O411 C410 1.258 . S
O412 Co409 1.966 . S
O412 C410 1.263 . S
C413 O414 1.235 . S
C413 O440 1.289 . S
O414 C413 1.235 . S
C415 C417 1.400 . S
C415 N418 1.351 . S
C415 C420 1.501 . S
C416 C417 1.387 . S
C416 N419 1.341 . S
C417 C415 1.400 . S
C417 C416 1.387 . S
N418 Co409 2.022 . S
N418 C415 1.351 . S
N418 N419 1.365 . S
N419 C416 1.341 . S
N419 N418 1.365 . S
N419 H439 0.862 . S
C420 C415 1.501 . S
C420 H421 0.961 . S
C420 H422 0.961 . S
C420 H423 0.960 . S
H421 C420 0.961 . S
H422 C420 0.961 . S
H423 C420 0.960 . S
C424 N425 1.342 . S
C424 C428 1.401 . S
C424 C429 1.499 . S
N425 Co408 1.989 . S
N425 C424 1.342 . S
N425 N426 1.388 . S
N426 Co409 1.993 . S
N426 N425 1.388 . S
N426 C427 1.346 . S
C427 N426 1.346 . S
C427 C428 1.396 . S
C427 C437 1.510 . S
C428 C424 1.401 . S
C428 C427 1.396 . S
C429 C424 1.499 . S
C429 H430 0.959 . S
C429 H431 0.960 . S
C429 H432 0.961 . S
H430 C429 0.959 . S
H431 C429 0.960 . S
H432 C429 0.961 . S
O433 Co408 1.967 1_556 S
O433 C441 1.258 1_556 S
O434 Co409 1.941 . S
O434 C441 1.266 . S
H435 C437 0.959 . S
H436 C437 0.961 . S
C437 C427 1.510 . S
C437 H435 0.959 . S
C437 H436 0.961 . S
C437 H438 0.960 . S
H438 C437 0.960 . S
H439 N419 0.862 . S
O440 Co408 1.920 1_556 S
O440 C413 1.289 . S
C441 O433 1.258 1_554 S
C441 O434 1.266 . S
Co442 O445 1.970 . S
Co442 N459 1.989 . S
Co442 O467 1.967 . S
Co442 O474 1.920 . S
Co443 O446 1.966 . S
Co443 N452 2.022 . S
Co443 N460 1.993 . S
Co443 O468 1.941 . S
C444 O445 1.258 . S
C444 O446 1.263 . S
O445 Co442 1.970 . S
O445 C444 1.258 . S
O446 Co443 1.966 . S
O446 C444 1.263 . S
C447 O448 1.235 . S
C447 O474 1.289 . S
O448 C447 1.235 . S
C449 C451 1.400 . S
C449 N452 1.351 . S
C449 C454 1.501 . S
C450 C451 1.387 . S
C450 N453 1.341 . S
C451 C449 1.400 . S
C451 C450 1.387 . S
N452 Co443 2.022 . S
N452 C449 1.351 . S
N452 N453 1.365 . S
N453 C450 1.341 . S
N453 N452 1.365 . S
N453 H473 0.862 . S
C454 C449 1.501 . S
C454 H455 0.961 . S
C454 H456 0.961 . S
C454 H457 0.960 . S
H455 C454 0.961 . S
H456 C454 0.961 . S
H457 C454 0.960 . S
C458 N459 1.342 . S
C458 C462 1.401 . S
C458 C463 1.499 . S
N459 Co442 1.989 . S
N459 C458 1.342 . S
N459 N460 1.388 . S
N460 Co443 1.993 . S
N460 N459 1.388 . S
N460 C461 1.346 . S
C461 N460 1.346 . S
C461 C462 1.396 . S
C461 C471 1.510 . S
C462 C458 1.401 . S
C462 C461 1.396 . S
C463 C458 1.499 . S
C463 H464 0.959 . S
C463 H465 0.960 . S
C463 H466 0.961 . S
H464 C463 0.959 . S
H465 C463 0.960 . S
H466 C463 0.961 . S
O467 Co442 1.967 . S
O467 C475 1.258 . S
O468 Co443 1.941 . S
O468 C475 1.266 . S
H469 C471 0.959 . S
H470 C471 0.961 . S
C471 C461 1.510 . S
C471 H469 0.959 . S
C471 H470 0.961 . S
C471 H472 0.960 . S
H472 C471 0.960 . S
H473 N453 0.862 . S
O474 Co442 1.920 . S
O474 C447 1.289 . S
C475 O467 1.258 . S
C475 O468 1.266 . S
Co476 O479 1.970 . S
Co476 N493 1.989 . S
Co476 O501 1.967 . S
Co476 O508 1.920 . S
Co477 O480 1.966 . S
Co477 N486 2.022 . S
Co477 N494 1.993 . S
Co477 O502 1.941 . S
C478 O479 1.258 . S
C478 O480 1.263 . S
O479 Co476 1.970 . S
O479 C478 1.258 . S
O480 Co477 1.966 . S
O480 C478 1.263 . S
C481 O482 1.235 . S
C481 O508 1.289 . S
O482 C481 1.235 . S
C483 C485 1.400 . S
C483 N486 1.351 . S
C483 C488 1.501 . S
C484 C485 1.387 . S
C484 N487 1.341 . S
C485 C483 1.400 . S
C485 C484 1.387 . S
N486 Co477 2.022 . S
N486 C483 1.351 . S
N486 N487 1.365 . S
N487 C484 1.341 . S
N487 N486 1.365 . S
N487 H507 0.862 . S
C488 C483 1.501 . S
C488 H489 0.961 . S
C488 H490 0.961 . S
C488 H491 0.960 . S
H489 C488 0.961 . S
H490 C488 0.961 . S
H491 C488 0.960 . S
C492 N493 1.342 . S
C492 C496 1.401 . S
C492 C497 1.499 . S
N493 Co476 1.989 . S
N493 C492 1.342 . S
N493 N494 1.388 . S
N494 Co477 1.993 . S
N494 N493 1.388 . S
N494 C495 1.346 . S
C495 N494 1.346 . S
C495 C496 1.396 . S
C495 C505 1.510 . S
C496 C492 1.401 . S
C496 C495 1.396 . S
C497 C492 1.499 . S
C497 H498 0.959 . S
C497 H499 0.960 . S
C497 H500 0.961 . S
H498 C497 0.959 . S
H499 C497 0.960 . S
H500 C497 0.961 . S
O501 Co476 1.967 . S
O501 C509 1.258 . S
O502 Co477 1.941 . S
O502 C509 1.266 . S
H503 C505 0.959 . S
H504 C505 0.961 . S
C505 C495 1.510 . S
C505 H503 0.959 . S
C505 H504 0.961 . S
C505 H506 0.960 . S
H506 C505 0.960 . S
H507 N487 0.862 . S
O508 Co476 1.920 . S
O508 C481 1.289 . S
C509 O501 1.258 . S
C509 O502 1.266 . S
Co510 O513 1.970 . S
Co510 N527 1.989 . S
Co510 O535 1.967 . S
Co510 O542 1.920 . S
Co511 O514 1.966 . S
Co511 N520 2.022 . S
Co511 N528 1.993 . S
Co511 O536 1.941 . S
C512 O513 1.258 . S
C512 O514 1.263 . S
O513 Co510 1.970 . S
O513 C512 1.258 . S
O514 Co511 1.966 . S
O514 C512 1.263 . S
C515 O516 1.235 . S
C515 O542 1.289 . S
O516 C515 1.235 . S
C517 C519 1.400 . S
C517 N520 1.351 . S
C517 C522 1.501 . S
C518 C519 1.387 . S
C518 N521 1.341 . S
C519 C517 1.400 . S
C519 C518 1.387 . S
N520 Co511 2.022 . S
N520 C517 1.351 . S
N520 N521 1.365 . S
N521 C518 1.341 . S
N521 N520 1.365 . S
N521 H541 0.862 . S
C522 C517 1.501 . S
C522 H523 0.961 . S
C522 H524 0.961 . S
C522 H525 0.960 . S
H523 C522 0.961 . S
H524 C522 0.961 . S
H525 C522 0.960 . S
C526 N527 1.342 . S
C526 C530 1.401 . S
C526 C531 1.499 . S
N527 Co510 1.989 . S
N527 C526 1.342 . S
N527 N528 1.388 . S
N528 Co511 1.993 . S
N528 N527 1.388 . S
N528 C529 1.346 . S
C529 N528 1.346 . S
C529 C530 1.396 . S
C529 C539 1.510 . S
C530 C526 1.401 . S
C530 C529 1.396 . S
C531 C526 1.499 . S
C531 H532 0.959 . S
C531 H533 0.960 . S
C531 H534 0.961 . S
H532 C531 0.959 . S
H533 C531 0.960 . S
H534 C531 0.961 . S
O535 Co510 1.967 . S
O535 C543 1.258 . S
O536 Co511 1.941 . S
O536 C543 1.266 . S
H537 C539 0.959 . S
H538 C539 0.961 . S
C539 C529 1.510 . S
C539 H537 0.959 . S
C539 H538 0.961 . S
C539 H540 0.960 . S
H540 C539 0.960 . S
H541 N521 0.862 . S
O542 Co510 1.920 . S
O542 C515 1.289 . S
C543 O535 1.258 . S
C543 O536 1.266 . S
Co544 O547 1.970 . S
Co544 N561 1.989 . S
Co544 O569 1.967 . S
Co544 O576 1.920 . S
Co545 O548 1.966 . S
Co545 N554 2.022 . S
Co545 N562 1.993 . S
Co545 O570 1.941 . S
C546 O547 1.258 . S
C546 O548 1.263 . S
O547 Co544 1.970 . S
O547 C546 1.258 . S
O548 Co545 1.966 . S
O548 C546 1.263 . S
C549 O550 1.235 . S
C549 O576 1.289 . S
O550 C549 1.235 . S
C551 C553 1.400 . S
C551 N554 1.351 . S
C551 C556 1.501 . S
C552 C553 1.387 . S
C552 N555 1.341 . S
C553 C551 1.400 . S
C553 C552 1.387 . S
N554 Co545 2.022 . S
N554 C551 1.351 . S
N554 N555 1.365 . S
N555 C552 1.341 . S
N555 N554 1.365 . S
N555 H575 0.862 . S
C556 C551 1.501 . S
C556 H557 0.961 . S
C556 H558 0.961 . S
C556 H559 0.960 . S
H557 C556 0.961 . S
H558 C556 0.961 . S
H559 C556 0.960 . S
C560 N561 1.342 . S
C560 C564 1.401 . S
C560 C565 1.499 . S
N561 Co544 1.989 . S
N561 C560 1.342 . S
N561 N562 1.388 . S
N562 Co545 1.993 . S
N562 N561 1.388 . S
N562 C563 1.346 . S
C563 N562 1.346 . S
C563 C564 1.396 . S
C563 C573 1.510 . S
C564 C560 1.401 . S
C564 C563 1.396 . S
C565 C560 1.499 . S
C565 H566 0.959 . S
C565 H567 0.960 . S
C565 H568 0.961 . S
H566 C565 0.959 . S
H567 C565 0.960 . S
H568 C565 0.961 . S
O569 Co544 1.967 . S
O569 C577 1.258 . S
O570 Co545 1.941 . S
O570 C577 1.266 . S
H571 C573 0.959 . S
H572 C573 0.961 . S
C573 C563 1.510 . S
C573 H571 0.959 . S
C573 H572 0.961 . S
C573 H574 0.960 . S
H574 C573 0.960 . S
H575 N555 0.862 . S
O576 Co544 1.920 . S
O576 C549 1.289 . S
C577 O569 1.258 . S
C577 O570 1.266 . S
Co578 O581 1.970 . S
Co578 N595 1.989 . S
Co578 O603 1.967 . S
Co578 O610 1.920 . S
Co579 O582 1.966 . S
Co579 N588 2.022 . S
Co579 N596 1.993 . S
Co579 O604 1.941 . S
C580 O581 1.258 . S
C580 O582 1.263 . S
O581 Co578 1.970 . S
O581 C580 1.258 . S
O582 Co579 1.966 . S
O582 C580 1.263 . S
C583 O584 1.235 . S
C583 O610 1.289 . S
O584 C583 1.235 . S
C585 C587 1.400 . S
C585 N588 1.351 . S
C585 C590 1.501 . S
C586 C587 1.387 . S
C586 N589 1.341 . S
C587 C585 1.400 . S
C587 C586 1.387 . S
N588 Co579 2.022 . S
N588 C585 1.351 . S
N588 N589 1.365 . S
N589 C586 1.341 . S
N589 N588 1.365 . S
N589 H609 0.862 . S
C590 C585 1.501 . S
C590 H591 0.961 . S
C590 H592 0.961 . S
C590 H593 0.960 . S
H591 C590 0.961 . S
H592 C590 0.961 . S
H593 C590 0.960 . S
C594 N595 1.342 . S
C594 C598 1.401 . S
C594 C599 1.499 . S
N595 Co578 1.989 . S
N595 C594 1.342 . S
N595 N596 1.388 . S
N596 Co579 1.993 . S
N596 N595 1.388 . S
N596 C597 1.346 . S
C597 N596 1.346 . S
C597 C598 1.396 . S
C597 C607 1.510 . S
C598 C594 1.401 . S
C598 C597 1.396 . S
C599 C594 1.499 . S
C599 H600 0.959 . S
C599 H601 0.960 . S
C599 H602 0.961 . S
H600 C599 0.959 . S
H601 C599 0.960 . S
H602 C599 0.961 . S
O603 Co578 1.967 . S
O603 C611 1.258 . S
O604 Co579 1.941 . S
O604 C611 1.266 . S
H605 C607 0.959 . S
H606 C607 0.961 . S
C607 C597 1.510 . S
C607 H605 0.959 . S
C607 H606 0.961 . S
C607 H608 0.960 . S
H608 C607 0.960 . S
H609 N589 0.862 . S
O610 Co578 1.920 . S
O610 C583 1.289 . S
C611 O603 1.258 . S
C611 O604 1.266 . S
Co612 O615 1.970 . S
Co612 N629 1.989 . S
Co612 O637 1.967 1_554 S
Co612 O644 1.920 1_554 S
Co613 O616 1.966 . S
Co613 N622 2.022 . S
Co613 N630 1.993 . S
Co613 O638 1.941 . S
C614 O615 1.258 . S
C614 O616 1.263 . S
O615 Co612 1.970 . S
O615 C614 1.258 . S
O616 Co613 1.966 . S
O616 C614 1.263 . S
C617 O618 1.235 . S
C617 O644 1.289 . S
O618 C617 1.235 . S
C619 C621 1.400 . S
C619 N622 1.351 . S
C619 C624 1.501 . S
C620 C621 1.387 . S
C620 N623 1.341 . S
C621 C619 1.400 . S
C621 C620 1.387 . S
N622 Co613 2.022 . S
N622 C619 1.351 . S
N622 N623 1.365 . S
N623 C620 1.341 . S
N623 N622 1.365 . S
N623 H643 0.862 . S
C624 C619 1.501 . S
C624 H625 0.961 . S
C624 H626 0.961 . S
C624 H627 0.960 . S
H625 C624 0.961 . S
H626 C624 0.961 . S
H627 C624 0.960 . S
C628 N629 1.342 . S
C628 C632 1.401 . S
C628 C633 1.499 . S
N629 Co612 1.989 . S
N629 C628 1.342 . S
N629 N630 1.388 . S
N630 Co613 1.993 . S
N630 N629 1.388 . S
N630 C631 1.346 . S
C631 N630 1.346 . S
C631 C632 1.396 . S
C631 C641 1.510 . S
C632 C628 1.401 . S
C632 C631 1.396 . S
C633 C628 1.499 . S
C633 H634 0.959 . S
C633 H635 0.960 . S
C633 H636 0.961 . S
H634 C633 0.959 . S
H635 C633 0.960 . S
H636 C633 0.961 . S
O637 Co612 1.967 1_556 S
O637 C645 1.258 1_556 S
O638 Co613 1.941 . S
O638 C645 1.266 . S
H639 C641 0.959 . S
H640 C641 0.961 . S
C641 C631 1.510 . S
C641 H639 0.959 . S
C641 H640 0.961 . S
C641 H642 0.960 . S
H642 C641 0.960 . S
H643 N623 0.862 . S
O644 Co612 1.920 1_556 S
O644 C617 1.289 . S
C645 O637 1.258 1_554 S
C645 O638 1.266 . S
Co646 O649 1.970 . S
Co646 N663 1.989 . S
Co646 O671 1.967 . S
Co646 O678 1.920 . S
Co647 O650 1.966 . S
Co647 N656 2.022 . S
Co647 N664 1.993 . S
Co647 O672 1.941 . S
C648 O649 1.258 . S
C648 O650 1.263 . S
O649 Co646 1.970 . S
O649 C648 1.258 . S
O650 Co647 1.966 . S
O650 C648 1.263 . S
C651 O652 1.235 . S
C651 O678 1.289 . S
O652 C651 1.235 . S
C653 C655 1.400 . S
C653 N656 1.351 . S
C653 C658 1.501 . S
C654 C655 1.387 . S
C654 N657 1.341 . S
C655 C653 1.400 . S
C655 C654 1.387 . S
N656 Co647 2.022 . S
N656 C653 1.351 . S
N656 N657 1.365 . S
N657 C654 1.341 . S
N657 N656 1.365 . S
N657 H677 0.862 . S
C658 C653 1.501 . S
C658 H659 0.961 . S
C658 H660 0.961 . S
C658 H661 0.960 . S
H659 C658 0.961 . S
H660 C658 0.961 . S
H661 C658 0.960 . S
C662 N663 1.342 . S
C662 C666 1.401 . S
C662 C667 1.499 . S
N663 Co646 1.989 . S
N663 C662 1.342 . S
N663 N664 1.388 . S
N664 Co647 1.993 . S
N664 N663 1.388 . S
N664 C665 1.346 . S
C665 N664 1.346 . S
C665 C666 1.396 . S
C665 C675 1.510 . S
C666 C662 1.401 . S
C666 C665 1.396 . S
C667 C662 1.499 . S
C667 H668 0.959 . S
C667 H669 0.960 . S
C667 H670 0.961 . S
H668 C667 0.959 . S
H669 C667 0.960 . S
H670 C667 0.961 . S
O671 Co646 1.967 . S
O671 C679 1.258 . S
O672 Co647 1.941 . S
O672 C679 1.266 . S
H673 C675 0.959 . S
H674 C675 0.961 . S
C675 C665 1.510 . S
C675 H673 0.959 . S
C675 H674 0.961 . S
C675 H676 0.960 . S
H676 C675 0.960 . S
H677 N657 0.862 . S
O678 Co646 1.920 . S
O678 C651 1.289 . S
C679 O671 1.258 . S
C679 O672 1.266 . S
Co680 O683 1.970 . S
Co680 N697 1.989 . S
Co680 O705 1.967 . S
Co680 O712 1.920 . S
Co681 O684 1.966 . S
Co681 N690 2.022 . S
Co681 N698 1.993 . S
Co681 O706 1.941 . S
C682 O683 1.258 . S
C682 O684 1.263 . S
O683 Co680 1.970 . S
O683 C682 1.258 . S
O684 Co681 1.966 . S
O684 C682 1.263 . S
C685 O686 1.235 . S
C685 O712 1.289 . S
O686 C685 1.235 . S
C687 C689 1.400 . S
C687 N690 1.351 . S
C687 C692 1.501 . S
C688 C689 1.387 . S
C688 N691 1.341 . S
C689 C687 1.400 . S
C689 C688 1.387 . S
N690 Co681 2.022 . S
N690 C687 1.351 . S
N690 N691 1.365 . S
N691 C688 1.341 . S
N691 N690 1.365 . S
N691 H711 0.862 . S
C692 C687 1.501 . S
C692 H693 0.961 . S
C692 H694 0.961 . S
C692 H695 0.960 . S
H693 C692 0.961 . S
H694 C692 0.961 . S
H695 C692 0.960 . S
C696 N697 1.342 . S
C696 C700 1.401 . S
C696 C701 1.499 . S
N697 Co680 1.989 . S
N697 C696 1.342 . S
N697 N698 1.388 . S
N698 Co681 1.993 . S
N698 N697 1.388 . S
N698 C699 1.346 . S
C699 N698 1.346 . S
C699 C700 1.396 . S
C699 C709 1.510 . S
C700 C696 1.401 . S
C700 C699 1.396 . S
C701 C696 1.499 . S
C701 H702 0.959 . S
C701 H703 0.960 . S
C701 H704 0.961 . S
H702 C701 0.959 . S
H703 C701 0.960 . S
H704 C701 0.961 . S
O705 Co680 1.967 . S
O705 C713 1.258 . S
O706 Co681 1.941 . S
O706 C713 1.266 . S
H707 C709 0.959 . S
H708 C709 0.961 . S
C709 C699 1.510 . S
C709 H707 0.959 . S
C709 H708 0.961 . S
C709 H710 0.960 . S
H710 C709 0.960 . S
H711 N691 0.862 . S
O712 Co680 1.920 . S
O712 C685 1.289 . S
C713 O705 1.258 . S
C713 O706 1.266 . S
Co714 O717 1.970 . S
Co714 N731 1.989 . S
Co714 O739 1.967 . S
Co714 O746 1.920 . S
Co715 O718 1.966 . S
Co715 N724 2.022 . S
Co715 N732 1.993 . S
Co715 O740 1.941 . S
C716 O717 1.258 . S
C716 O718 1.263 . S
O717 Co714 1.970 . S
O717 C716 1.258 . S
O718 Co715 1.966 . S
O718 C716 1.263 . S
C719 O720 1.235 . S
C719 O746 1.289 . S
O720 C719 1.235 . S
C721 C723 1.400 . S
C721 N724 1.351 . S
C721 C726 1.501 . S
C722 C723 1.387 . S
C722 N725 1.341 . S
C723 C721 1.400 . S
C723 C722 1.387 . S
N724 Co715 2.022 . S
N724 C721 1.351 . S
N724 N725 1.365 . S
N725 C722 1.341 . S
N725 N724 1.365 . S
N725 H745 0.862 . S
C726 C721 1.501 . S
C726 H727 0.961 . S
C726 H728 0.961 . S
C726 H729 0.960 . S
H727 C726 0.961 . S
H728 C726 0.961 . S
H729 C726 0.960 . S
C730 N731 1.342 . S
C730 C734 1.401 . S
C730 C735 1.499 . S
N731 Co714 1.989 . S
N731 C730 1.342 . S
N731 N732 1.388 . S
N732 Co715 1.993 . S
N732 N731 1.388 . S
N732 C733 1.346 . S
C733 N732 1.346 . S
C733 C734 1.396 . S
C733 C743 1.510 . S
C734 C730 1.401 . S
C734 C733 1.396 . S
C735 C730 1.499 . S
C735 H736 0.959 . S
C735 H737 0.960 . S
C735 H738 0.961 . S
H736 C735 0.959 . S
H737 C735 0.960 . S
H738 C735 0.961 . S
O739 Co714 1.967 . S
O739 C747 1.258 . S
O740 Co715 1.941 . S
O740 C747 1.266 . S
H741 C743 0.959 . S
H742 C743 0.961 . S
C743 C733 1.510 . S
C743 H741 0.959 . S
C743 H742 0.961 . S
C743 H744 0.960 . S
H744 C743 0.960 . S
H745 N725 0.862 . S
O746 Co714 1.920 . S
O746 C719 1.289 . S
C747 O739 1.258 . S
C747 O740 1.266 . S
Co748 O751 1.970 . S
Co748 N765 1.989 . S
Co748 O773 1.967 1_556 S
Co748 O780 1.920 1_556 S
Co749 O752 1.966 . S
Co749 N758 2.022 . S
Co749 N766 1.993 . S
Co749 O774 1.941 . S
C750 O751 1.258 . S
C750 O752 1.263 . S
O751 Co748 1.970 . S
O751 C750 1.258 . S
O752 Co749 1.966 . S
O752 C750 1.263 . S
C753 O754 1.235 . S
C753 O780 1.289 . S
O754 C753 1.235 . S
C755 C757 1.400 . S
C755 N758 1.351 . S
C755 C760 1.501 . S
C756 C757 1.387 . S
C756 N759 1.341 . S
C757 C755 1.400 . S
C757 C756 1.387 . S
N758 Co749 2.022 . S
N758 C755 1.351 . S
N758 N759 1.365 . S
N759 C756 1.341 . S
N759 N758 1.365 . S
N759 H779 0.862 . S
C760 C755 1.501 . S
C760 H761 0.961 . S
C760 H762 0.961 . S
C760 H763 0.960 . S
H761 C760 0.961 . S
H762 C760 0.961 . S
H763 C760 0.960 . S
C764 N765 1.342 . S
C764 C768 1.401 . S
C764 C769 1.499 . S
N765 Co748 1.989 . S
N765 C764 1.342 . S
N765 N766 1.388 . S
N766 Co749 1.993 . S
N766 N765 1.388 . S
N766 C767 1.346 . S
C767 N766 1.346 . S
C767 C768 1.396 . S
C767 C777 1.510 . S
C768 C764 1.401 . S
C768 C767 1.396 . S
C769 C764 1.499 . S
C769 H770 0.959 . S
C769 H771 0.960 . S
C769 H772 0.961 . S
H770 C769 0.959 . S
H771 C769 0.960 . S
H772 C769 0.961 . S
O773 Co748 1.967 1_554 S
O773 C781 1.258 1_554 S
O774 Co749 1.941 . S
O774 C781 1.266 . S
H775 C777 0.959 . S
H776 C777 0.961 . S
C777 C767 1.510 . S
C777 H775 0.959 . S
C777 H776 0.961 . S
C777 H778 0.960 . S
H778 C777 0.960 . S
H779 N759 0.862 . S
O780 Co748 1.920 1_554 S
O780 C753 1.289 . S
C781 O773 1.258 1_556 S
C781 O774 1.266 . S
Co782 O785 1.970 . S
Co782 N799 1.989 . S
Co782 O807 1.967 . S
Co782 O814 1.920 . S
Co783 O786 1.966 . S
Co783 N792 2.022 . S
Co783 N800 1.993 . S
Co783 O808 1.941 . S
C784 O785 1.258 . S
C784 O786 1.263 . S
O785 Co782 1.970 . S
O785 C784 1.258 . S
O786 Co783 1.966 . S
O786 C784 1.263 . S
C787 O788 1.235 . S
C787 O814 1.289 . S
O788 C787 1.235 . S
C789 C791 1.400 . S
C789 N792 1.351 . S
C789 C794 1.501 . S
C790 C791 1.387 . S
C790 N793 1.341 . S
C791 C789 1.400 . S
C791 C790 1.387 . S
N792 Co783 2.022 . S
N792 C789 1.351 . S
N792 N793 1.365 . S
N793 C790 1.341 . S
N793 N792 1.365 . S
N793 H813 0.862 . S
C794 C789 1.501 . S
C794 H795 0.961 . S
C794 H796 0.961 . S
C794 H797 0.960 . S
H795 C794 0.961 . S
H796 C794 0.961 . S
H797 C794 0.960 . S
C798 N799 1.342 . S
C798 C802 1.401 . S
C798 C803 1.499 . S
N799 Co782 1.989 . S
N799 C798 1.342 . S
N799 N800 1.388 . S
N800 Co783 1.993 . S
N800 N799 1.388 . S
N800 C801 1.346 . S
C801 N800 1.346 . S
C801 C802 1.396 . S
C801 C811 1.510 . S
C802 C798 1.401 . S
C802 C801 1.396 . S
C803 C798 1.499 . S
C803 H804 0.959 . S
C803 H805 0.960 . S
C803 H806 0.961 . S
H804 C803 0.959 . S
H805 C803 0.960 . S
H806 C803 0.961 . S
O807 Co782 1.967 . S
O807 C815 1.258 . S
O808 Co783 1.941 . S
O808 C815 1.266 . S
H809 C811 0.959 . S
H810 C811 0.961 . S
C811 C801 1.510 . S
C811 H809 0.959 . S
C811 H810 0.961 . S
C811 H812 0.960 . S
H812 C811 0.960 . S
H813 N793 0.862 . S
O814 Co782 1.920 . S
O814 C787 1.289 . S
C815 O807 1.258 . S
C815 O808 1.266 . S
Co816 O819 1.970 . S
Co816 N833 1.989 . S
Co816 O841 1.967 . S
Co816 O848 1.920 . S
Co817 O820 1.966 . S
Co817 N826 2.022 . S
Co817 N834 1.993 . S
Co817 O842 1.941 . S
C818 O819 1.258 . S
C818 O820 1.263 . S
O819 Co816 1.970 . S
O819 C818 1.258 . S
O820 Co817 1.966 . S
O820 C818 1.263 . S
C821 O822 1.235 . S
C821 O848 1.289 . S
O822 C821 1.235 . S
C823 C825 1.400 . S
C823 N826 1.351 . S
C823 C828 1.501 . S
C824 C825 1.387 . S
C824 N827 1.341 . S
C825 C823 1.400 . S
C825 C824 1.387 . S
N826 Co817 2.022 . S
N826 C823 1.351 . S
N826 N827 1.365 . S
N827 C824 1.341 . S
N827 N826 1.365 . S
N827 H847 0.862 . S
C828 C823 1.501 . S
C828 H829 0.961 . S
C828 H830 0.961 . S
C828 H831 0.960 . S
H829 C828 0.961 . S
H830 C828 0.961 . S
H831 C828 0.960 . S
C832 N833 1.342 . S
C832 C836 1.401 . S
C832 C837 1.499 . S
N833 Co816 1.989 . S
N833 C832 1.342 . S
N833 N834 1.388 . S
N834 Co817 1.993 . S
N834 N833 1.388 . S
N834 C835 1.346 . S
C835 N834 1.346 . S
C835 C836 1.396 . S
C835 C845 1.510 . S
C836 C832 1.401 . S
C836 C835 1.396 . S
C837 C832 1.499 . S
C837 H838 0.959 . S
C837 H839 0.960 . S
C837 H840 0.961 . S
H838 C837 0.959 . S
H839 C837 0.960 . S
H840 C837 0.961 . S
O841 Co816 1.967 . S
O841 C849 1.258 . S
O842 Co817 1.941 . S
O842 C849 1.266 . S
H843 C845 0.959 . S
H844 C845 0.961 . S
C845 C835 1.510 . S
C845 H843 0.959 . S
C845 H844 0.961 . S
C845 H846 0.960 . S
H846 C845 0.960 . S
H847 N827 0.862 . S
O848 Co816 1.920 . S
O848 C821 1.289 . S
C849 O841 1.258 . S
C849 O842 1.266 . S
Co850 O853 1.970 . S
Co850 N867 1.989 . S
Co850 O875 1.967 . S
Co850 O882 1.920 . S
Co851 O854 1.966 . S
Co851 N860 2.022 . S
Co851 N868 1.993 . S
Co851 O876 1.941 . S
C852 O853 1.258 . S
C852 O854 1.263 . S
O853 Co850 1.970 . S
O853 C852 1.258 . S
O854 Co851 1.966 . S
O854 C852 1.263 . S
C855 O856 1.235 . S
C855 O882 1.289 . S
O856 C855 1.235 . S
C857 C859 1.400 . S
C857 N860 1.351 . S
C857 C862 1.501 . S
C858 C859 1.387 . S
C858 N861 1.341 . S
C859 C857 1.400 . S
C859 C858 1.387 . S
N860 Co851 2.022 . S
N860 C857 1.351 . S
N860 N861 1.365 . S
N861 C858 1.341 . S
N861 N860 1.365 . S
N861 H881 0.862 . S
C862 C857 1.501 . S
C862 H863 0.961 . S
C862 H864 0.961 . S
C862 H865 0.960 . S
H863 C862 0.961 . S
H864 C862 0.961 . S
H865 C862 0.960 . S
C866 N867 1.342 . S
C866 C870 1.401 . S
C866 C871 1.499 . S
N867 Co850 1.989 . S
N867 C866 1.342 . S
N867 N868 1.388 . S
N868 Co851 1.993 . S
N868 N867 1.388 . S
N868 C869 1.346 . S
C869 N868 1.346 . S
C869 C870 1.396 . S
C869 C879 1.510 . S
C870 C866 1.401 . S
C870 C869 1.396 . S
C871 C866 1.499 . S
C871 H872 0.959 . S
C871 H873 0.960 . S
C871 H874 0.961 . S
H872 C871 0.959 . S
H873 C871 0.960 . S
H874 C871 0.961 . S
O875 Co850 1.967 . S
O875 C883 1.258 . S
O876 Co851 1.941 . S
O876 C883 1.266 . S
H877 C879 0.959 . S
H878 C879 0.961 . S
C879 C869 1.510 . S
C879 H877 0.959 . S
C879 H878 0.961 . S
C879 H880 0.960 . S
H880 C879 0.960 . S
H881 N861 0.862 . S
O882 Co850 1.920 . S
O882 C855 1.289 . S
C883 O875 1.258 . S
C883 O876 1.266 . S
Co884 O887 1.970 . S
Co884 N901 1.989 . S
Co884 O909 1.967 1_556 S
Co884 O916 1.920 1_556 S
Co885 O888 1.966 . S
Co885 N894 2.022 . S
Co885 N902 1.993 . S
Co885 O910 1.941 . S
C886 O887 1.258 . S
C886 O888 1.263 . S
O887 Co884 1.970 . S
O887 C886 1.258 . S
O888 Co885 1.966 . S
O888 C886 1.263 . S
C889 O890 1.235 . S
C889 O916 1.289 . S
O890 C889 1.235 . S
C891 C893 1.400 . S
C891 N894 1.351 . S
C891 C896 1.501 . S
C892 C893 1.387 . S
C892 N895 1.341 . S
C893 C891 1.400 . S
C893 C892 1.387 . S
N894 Co885 2.022 . S
N894 C891 1.351 . S
N894 N895 1.365 . S
N895 C892 1.341 . S
N895 N894 1.365 . S
N895 H915 0.862 . S
C896 C891 1.501 . S
C896 H897 0.961 . S
C896 H898 0.961 . S
C896 H899 0.960 . S
H897 C896 0.961 . S
H898 C896 0.961 . S
H899 C896 0.960 . S
C900 N901 1.342 . S
C900 C904 1.401 . S
C900 C905 1.499 . S
N901 Co884 1.989 . S
N901 C900 1.342 . S
N901 N902 1.388 . S
N902 Co885 1.993 . S
N902 N901 1.388 . S
N902 C903 1.346 . S
C903 N902 1.346 . S
C903 C904 1.396 . S
C903 C913 1.510 . S
C904 C900 1.401 . S
C904 C903 1.396 . S
C905 C900 1.499 . S
C905 H906 0.959 . S
C905 H907 0.960 . S
C905 H908 0.961 . S
H906 C905 0.959 . S
H907 C905 0.960 . S
H908 C905 0.961 . S
O909 Co884 1.967 1_554 S
O909 C917 1.258 1_554 S
O910 Co885 1.941 . S
O910 C917 1.266 . S
H911 C913 0.959 . S
H912 C913 0.961 . S
C913 C903 1.510 . S
C913 H911 0.959 . S
C913 H912 0.961 . S
C913 H914 0.960 . S
H914 C913 0.960 . S
H915 N895 0.862 . S
O916 Co884 1.920 1_554 S
O916 C889 1.289 . S
C917 O909 1.258 1_556 S
C917 O910 1.266 . S
Co918 O921 1.970 . S
Co918 N935 1.989 . S
Co918 O943 1.967 . S
Co918 O950 1.920 . S
Co919 O922 1.966 . S
Co919 N928 2.022 . S
Co919 N936 1.993 . S
Co919 O944 1.941 . S
C920 O921 1.258 . S
C920 O922 1.263 . S
O921 Co918 1.970 . S
O921 C920 1.258 . S
O922 Co919 1.966 . S
O922 C920 1.263 . S
C923 O924 1.235 . S
C923 O950 1.289 . S
O924 C923 1.235 . S
C925 C927 1.400 . S
C925 N928 1.351 . S
C925 C930 1.501 . S
C926 C927 1.387 . S
C926 N929 1.341 . S
C927 C925 1.400 . S
C927 C926 1.387 . S
N928 Co919 2.022 . S
N928 C925 1.351 . S
N928 N929 1.365 . S
N929 C926 1.341 . S
N929 N928 1.365 . S
N929 H949 0.862 . S
C930 C925 1.501 . S
C930 H931 0.961 . S
C930 H932 0.961 . S
C930 H933 0.960 . S
H931 C930 0.961 . S
H932 C930 0.961 . S
H933 C930 0.960 . S
C934 N935 1.342 . S
C934 C938 1.401 . S
C934 C939 1.499 . S
N935 Co918 1.989 . S
N935 C934 1.342 . S
N935 N936 1.388 . S
N936 Co919 1.993 . S
N936 N935 1.388 . S
N936 C937 1.346 . S
C937 N936 1.346 . S
C937 C938 1.396 . S
C937 C947 1.510 . S
C938 C934 1.401 . S
C938 C937 1.396 . S
C939 C934 1.499 . S
C939 H940 0.959 . S
C939 H941 0.960 . S
C939 H942 0.961 . S
H940 C939 0.959 . S
H941 C939 0.960 . S
H942 C939 0.961 . S
O943 Co918 1.967 . S
O943 C951 1.258 . S
O944 Co919 1.941 . S
O944 C951 1.266 . S
H945 C947 0.959 . S
H946 C947 0.961 . S
C947 C937 1.510 . S
C947 H945 0.959 . S
C947 H946 0.961 . S
C947 H948 0.960 . S
H948 C947 0.960 . S
H949 N929 0.862 . S
O950 Co918 1.920 . S
O950 C923 1.289 . S
C951 O943 1.258 . S
C951 O944 1.266 . S
Co952 O955 1.970 . S
Co952 N969 1.989 . S
Co952 O977 1.967 . S
Co952 O984 1.920 . S
Co953 O956 1.966 . S
Co953 N962 2.022 . S
Co953 N970 1.993 . S
Co953 O978 1.941 . S
C954 O955 1.258 . S
C954 O956 1.263 . S
O955 Co952 1.970 . S
O955 C954 1.258 . S
O956 Co953 1.966 . S
O956 C954 1.263 . S
C957 O958 1.235 . S
C957 O984 1.289 . S
O958 C957 1.235 . S
C959 C961 1.400 . S
C959 N962 1.351 . S
C959 C964 1.501 . S
C960 C961 1.387 . S
C960 N963 1.341 . S
C961 C959 1.400 . S
C961 C960 1.387 . S
N962 Co953 2.022 . S
N962 C959 1.351 . S
N962 N963 1.365 . S
N963 C960 1.341 . S
N963 N962 1.365 . S
N963 H983 0.862 . S
C964 C959 1.501 . S
C964 H965 0.961 . S
C964 H966 0.961 . S
C964 H967 0.960 . S
H965 C964 0.961 . S
H966 C964 0.961 . S
H967 C964 0.960 . S
C968 N969 1.342 . S
C968 C972 1.401 . S
C968 C973 1.499 . S
N969 Co952 1.989 . S
N969 C968 1.342 . S
N969 N970 1.388 . S
N970 Co953 1.993 . S
N970 N969 1.388 . S
N970 C971 1.346 . S
C971 N970 1.346 . S
C971 C972 1.396 . S
C971 C981 1.510 . S
C972 C968 1.401 . S
C972 C971 1.396 . S
C973 C968 1.499 . S
C973 H974 0.959 . S
C973 H975 0.960 . S
C973 H976 0.961 . S
H974 C973 0.959 . S
H975 C973 0.960 . S
H976 C973 0.961 . S
O977 Co952 1.967 . S
O977 C985 1.258 . S
O978 Co953 1.941 . S
O978 C985 1.266 . S
H979 C981 0.959 . S
H980 C981 0.961 . S
C981 C971 1.510 . S
C981 H979 0.959 . S
C981 H980 0.961 . S
C981 H982 0.960 . S
H982 C981 0.960 . S
H983 N963 0.862 . S
O984 Co952 1.920 . S
O984 C957 1.289 . S
C985 O977 1.258 . S
C985 O978 1.266 . S
Co986 O989 1.970 . S
Co986 N1003 1.989 . S
Co986 O1011 1.967 . S
Co986 O1018 1.920 . S
Co987 O990 1.966 . S
Co987 N996 2.022 . S
Co987 N1004 1.993 . S
Co987 O1012 1.941 . S
C988 O989 1.258 . S
C988 O990 1.263 . S
O989 Co986 1.970 . S
O989 C988 1.258 . S
O990 Co987 1.966 . S
O990 C988 1.263 . S
C991 O992 1.235 . S
C991 O1018 1.289 . S
O992 C991 1.235 . S
C993 C995 1.400 . S
C993 N996 1.351 . S
C993 C998 1.501 . S
C994 C995 1.387 . S
C994 N997 1.341 . S
C995 C993 1.400 . S
C995 C994 1.387 . S
N996 Co987 2.022 . S
N996 C993 1.351 . S
N996 N997 1.365 . S
N997 C994 1.341 . S
N997 N996 1.365 . S
N997 H1017 0.862 . S
C998 C993 1.501 . S
C998 H999 0.961 . S
C998 H1000 0.961 . S
C998 H1001 0.960 . S
H999 C998 0.961 . S
H1000 C998 0.961 . S
H1001 C998 0.960 . S
C1002 N1003 1.342 . S
C1002 C1006 1.401 . S
C1002 C1007 1.499 . S
N1003 Co986 1.989 . S
N1003 C1002 1.342 . S
N1003 N1004 1.388 . S
N1004 Co987 1.993 . S
N1004 N1003 1.388 . S
N1004 C1005 1.346 . S
C1005 N1004 1.346 . S
C1005 C1006 1.396 . S
C1005 C1015 1.510 . S
C1006 C1002 1.401 . S
C1006 C1005 1.396 . S
C1007 C1002 1.499 . S
C1007 H1008 0.959 . S
C1007 H1009 0.960 . S
C1007 H1010 0.961 . S
H1008 C1007 0.959 . S
H1009 C1007 0.960 . S
H1010 C1007 0.961 . S
O1011 Co986 1.967 . S
O1011 C1019 1.258 . S
O1012 Co987 1.941 . S
O1012 C1019 1.266 . S
H1013 C1015 0.959 . S
H1014 C1015 0.961 . S
C1015 C1005 1.510 . S
C1015 H1013 0.959 . S
C1015 H1014 0.961 . S
C1015 H1016 0.960 . S
H1016 C1015 0.960 . S
H1017 N997 0.862 . S
O1018 Co986 1.920 . S
O1018 C991 1.289 . S
C1019 O1011 1.258 . S
C1019 O1012 1.266 . S
Co1020 O1023 1.970 . S
Co1020 N1037 1.989 . S
Co1020 O1045 1.967 1_554 S
Co1020 O1052 1.920 1_554 S
Co1021 O1024 1.966 . S
Co1021 N1030 2.022 . S
Co1021 N1038 1.993 . S
Co1021 O1046 1.941 . S
C1022 O1023 1.258 . S
C1022 O1024 1.263 . S
O1023 Co1020 1.970 . S
O1023 C1022 1.258 . S
O1024 Co1021 1.966 . S
O1024 C1022 1.263 . S
C1025 O1026 1.235 . S
C1025 O1052 1.289 . S
O1026 C1025 1.235 . S
C1027 C1029 1.400 . S
C1027 N1030 1.351 . S
C1027 C1032 1.501 . S
C1028 C1029 1.387 . S
C1028 N1031 1.341 . S
C1029 C1027 1.400 . S
C1029 C1028 1.387 . S
N1030 Co1021 2.022 . S
N1030 C1027 1.351 . S
N1030 N1031 1.365 . S
N1031 C1028 1.341 . S
N1031 N1030 1.365 . S
N1031 H1051 0.862 . S
C1032 C1027 1.501 . S
C1032 H1033 0.961 . S
C1032 H1034 0.961 . S
C1032 H1035 0.960 . S
H1033 C1032 0.961 . S
H1034 C1032 0.961 . S
H1035 C1032 0.960 . S
C1036 N1037 1.342 . S
C1036 C1040 1.401 . S
C1036 C1041 1.499 . S
N1037 Co1020 1.989 . S
N1037 C1036 1.342 . S
N1037 N1038 1.388 . S
N1038 Co1021 1.993 . S
N1038 N1037 1.388 . S
N1038 C1039 1.346 . S
C1039 N1038 1.346 . S
C1039 C1040 1.396 . S
C1039 C1049 1.510 . S
C1040 C1036 1.401 . S
C1040 C1039 1.396 . S
C1041 C1036 1.499 . S
C1041 H1042 0.959 . S
C1041 H1043 0.960 . S
C1041 H1044 0.961 . S
H1042 C1041 0.959 . S
H1043 C1041 0.960 . S
H1044 C1041 0.961 . S
O1045 Co1020 1.967 1_556 S
O1045 C1053 1.258 1_556 S
O1046 Co1021 1.941 . S
O1046 C1053 1.266 . S
H1047 C1049 0.959 . S
H1048 C1049 0.961 . S
C1049 C1039 1.510 . S
C1049 H1047 0.959 . S
C1049 H1048 0.961 . S
C1049 H1050 0.960 . S
H1050 C1049 0.960 . S
H1051 N1031 0.862 . S
O1052 Co1020 1.920 1_556 S
O1052 C1025 1.289 . S
C1053 O1045 1.258 1_554 S
C1053 O1046 1.266 . S
Co1054 O1057 1.970 . S
Co1054 N1071 1.989 . S
Co1054 O1079 1.967 . S
Co1054 O1086 1.920 . S
Co1055 O1058 1.966 . S
Co1055 N1064 2.022 . S
Co1055 N1072 1.993 . S
Co1055 O1080 1.941 . S
C1056 O1057 1.258 . S
C1056 O1058 1.263 . S
O1057 Co1054 1.970 . S
O1057 C1056 1.258 . S
O1058 Co1055 1.966 . S
O1058 C1056 1.263 . S
C1059 O1060 1.235 . S
C1059 O1086 1.289 . S
O1060 C1059 1.235 . S
C1061 C1063 1.400 . S
C1061 N1064 1.351 . S
C1061 C1066 1.501 . S
C1062 C1063 1.387 . S
C1062 N1065 1.341 . S
C1063 C1061 1.400 . S
C1063 C1062 1.387 . S
N1064 Co1055 2.022 . S
N1064 C1061 1.351 . S
N1064 N1065 1.365 . S
N1065 C1062 1.341 . S
N1065 N1064 1.365 . S
N1065 H1085 0.862 . S
C1066 C1061 1.501 . S
C1066 H1067 0.961 . S
C1066 H1068 0.961 . S
C1066 H1069 0.960 . S
H1067 C1066 0.961 . S
H1068 C1066 0.961 . S
H1069 C1066 0.960 . S
C1070 N1071 1.342 . S
C1070 C1074 1.401 . S
C1070 C1075 1.499 . S
N1071 Co1054 1.989 . S
N1071 C1070 1.342 . S
N1071 N1072 1.388 . S
N1072 Co1055 1.993 . S
N1072 N1071 1.388 . S
N1072 C1073 1.346 . S
C1073 N1072 1.346 . S
C1073 C1074 1.396 . S
C1073 C1083 1.510 . S
C1074 C1070 1.401 . S
C1074 C1073 1.396 . S
C1075 C1070 1.499 . S
C1075 H1076 0.959 . S
C1075 H1077 0.960 . S
C1075 H1078 0.961 . S
H1076 C1075 0.959 . S
H1077 C1075 0.960 . S
H1078 C1075 0.961 . S
O1079 Co1054 1.967 . S
O1079 C1087 1.258 . S
O1080 Co1055 1.941 . S
O1080 C1087 1.266 . S
H1081 C1083 0.959 . S
H1082 C1083 0.961 . S
C1083 C1073 1.510 . S
C1083 H1081 0.959 . S
C1083 H1082 0.961 . S
C1083 H1084 0.960 . S
H1084 C1083 0.960 . S
H1085 N1065 0.862 . S
O1086 Co1054 1.920 . S
O1086 C1059 1.289 . S
C1087 O1079 1.258 . S
C1087 O1080 1.266 . S
H1088 C1096 0.950 . S
H1089 C1101 0.950 1_565 S
H1090 C1098 0.950 . S
H1091 C1100 0.950 . S
H1092 C1102 0.950 . S
H1093 C1104 0.950 . S
H1094 C1106 0.950 . S
H1095 C1107 0.950 . S
C1096 H1088 0.950 . S
C1096 C1097 1.385 1_545 S
C1096 C1098 1.391 . S
C1097 C1096 1.385 1_565 S
C1097 C1101 1.393 1_565 S
C1098 H1090 0.950 . S
C1098 C1096 1.391 . S
C1098 C1099 1.400 . S
C1099 C1098 1.400 . S
C1099 C1100 1.398 . S
C1099 C1105 1.491 . S
C1100 H1091 0.950 . S
C1100 C1099 1.398 . S
C1100 C1101 1.391 . S
C1101 H1089 0.950 1_545 S
C1101 C1097 1.393 1_545 S
C1101 C1100 1.391 . S
C1102 H1092 0.950 . S
C1102 C1103 1.386 . S
C1102 C1104 1.391 . S
C1103 C1102 1.386 . S
C1103 C1107 1.393 . S
C1104 H1093 0.950 . S
C1104 C1102 1.391 . S
C1104 C1105 1.400 . S
C1105 C1099 1.491 . S
C1105 C1104 1.400 . S
C1105 C1106 1.398 . S
C1106 H1094 0.950 . S
C1106 C1105 1.398 . S
C1106 C1107 1.391 . S
C1107 H1095 0.950 . S
C1107 C1103 1.393 . S
C1107 C1106 1.391 . S
H1108 C1116 0.950 . S
H1109 C1121 0.950 . S
H1110 C1118 0.950 . S
H1111 C1120 0.950 . S
H1112 C1122 0.950 . S
H1113 C1124 0.950 . S
H1114 C1126 0.950 . S
H1115 C1127 0.950 . S
C1116 H1108 0.950 . S
C1116 C1117 1.386 . S
C1116 C1118 1.391 . S
C1117 C1116 1.386 . S
C1117 C1121 1.393 . S
C1118 H1110 0.950 . S
C1118 C1116 1.391 . S
C1118 C1119 1.400 . S
C1119 C1118 1.400 . S
C1119 C1120 1.398 . S
C1119 C1125 1.491 . S
C1120 H1111 0.950 . S
C1120 C1119 1.398 . S
C1120 C1121 1.391 . S
C1121 H1109 0.950 . S
C1121 C1117 1.393 . S
C1121 C1120 1.391 . S
C1122 H1112 0.950 . S
C1122 C1123 1.386 . S
C1122 C1124 1.391 . S
C1123 C1122 1.386 . S
C1123 C1127 1.393 . S
C1124 H1113 0.950 . S
C1124 C1122 1.391 . S
C1124 C1125 1.400 . S
C1125 C1119 1.491 . S
C1125 C1124 1.400 . S
C1125 C1126 1.398 . S
C1126 H1114 0.950 . S
C1126 C1125 1.398 . S
C1126 C1127 1.391 . S
C1127 H1115 0.950 . S
C1127 C1123 1.393 . S
C1127 C1126 1.391 . S
H1128 C1136 0.950 . S
H1129 C1141 0.950 . S
H1130 C1138 0.950 . S
H1131 C1140 0.950 . S
H1132 C1142 0.950 . S
H1133 C1144 0.950 . S
H1134 C1146 0.950 . S
H1135 C1147 0.950 1_545 S
C1136 H1128 0.950 . S
C1136 C1137 1.386 . S
C1136 C1138 1.391 . S
C1137 C1136 1.386 . S
C1137 C1141 1.393 . S
C1138 H1130 0.950 . S
C1138 C1136 1.391 . S
C1138 C1139 1.400 . S
C1139 C1138 1.400 . S
C1139 C1140 1.398 . S
C1139 C1145 1.491 . S
C1140 H1131 0.950 . S
C1140 C1139 1.398 . S
C1140 C1141 1.391 . S
C1141 H1129 0.950 . S
C1141 C1137 1.393 . S
C1141 C1140 1.391 . S
C1142 H1132 0.950 . S
C1142 C1143 1.384 1_565 S
C1142 C1144 1.391 . S
C1143 C1142 1.384 1_545 S
C1143 C1147 1.393 1_545 S
C1144 H1133 0.950 . S
C1144 C1142 1.391 . S
C1144 C1145 1.400 . S
C1145 C1139 1.491 . S
C1145 C1144 1.400 . S
C1145 C1146 1.398 . S
C1146 H1134 0.950 . S
C1146 C1145 1.398 . S
C1146 C1147 1.391 . S
C1147 H1135 0.950 1_565 S
C1147 C1143 1.393 1_565 S
C1147 C1146 1.391 . S
H1148 C1156 0.950 . S
H1149 C1161 0.950 . S
H1150 C1158 0.950 . S
H1151 C1160 0.950 . S
H1152 C1162 0.950 . S
H1153 C1164 0.950 . S
H1154 C1166 0.950 . S
H1155 C1167 0.950 . S
C1156 H1148 0.950 . S
C1156 C1157 1.386 . S
C1156 C1158 1.391 . S
C1157 C1156 1.386 . S
C1157 C1161 1.393 . S
C1158 H1150 0.950 . S
C1158 C1156 1.391 . S
C1158 C1159 1.400 . S
C1159 C1158 1.400 . S
C1159 C1160 1.398 . S
C1159 C1165 1.491 . S
C1160 H1151 0.950 . S
C1160 C1159 1.398 . S
C1160 C1161 1.391 . S
C1161 H1149 0.950 . S
C1161 C1157 1.393 . S
C1161 C1160 1.391 . S
C1162 H1152 0.950 . S
C1162 C1163 1.386 . S
C1162 C1164 1.391 . S
C1163 C1162 1.386 . S
C1163 C1167 1.393 . S
C1164 H1153 0.950 . S
C1164 C1162 1.391 . S
C1164 C1165 1.400 . S
C1165 C1159 1.491 . S
C1165 C1164 1.400 . S
C1165 C1166 1.398 . S
C1166 H1154 0.950 . S
C1166 C1165 1.398 . S
C1166 C1167 1.391 . S
C1167 H1155 0.950 . S
C1167 C1163 1.393 . S
C1167 C1166 1.391 . S
H1168 C1176 0.950 . S
H1169 C1181 0.950 . S
H1170 C1178 0.950 . S
H1171 C1180 0.950 . S
H1172 C1182 0.950 . S
H1173 C1184 0.950 . S
H1174 C1186 0.950 . S
H1175 C1187 0.933 1_545 S
C1176 H1168 0.950 . S
C1176 C1177 1.386 . S
C1176 C1178 1.391 . S
C1177 C1176 1.386 . S
C1177 C1181 1.393 . S
C1178 H1170 0.950 . S
C1178 C1176 1.391 . S
C1178 C1179 1.400 . S
C1179 C1178 1.400 . S
C1179 C1180 1.398 . S
C1179 C1185 1.491 . S
C1180 H1171 0.950 . S
C1180 C1179 1.398 . S
C1180 C1181 1.391 . S
C1181 H1169 0.950 . S
C1181 C1177 1.393 . S
C1181 C1180 1.391 . S
C1182 H1172 0.950 . S
C1182 C1183 1.383 1_565 S
C1182 C1184 1.391 . S
C1183 C1182 1.383 1_545 S
C1183 C1187 1.392 1_545 S
C1184 H1173 0.950 . S
C1184 C1182 1.391 . S
C1184 C1185 1.400 . S
C1185 C1179 1.491 . S
C1185 C1184 1.400 . S
C1185 C1186 1.398 . S
C1186 H1174 0.950 . S
C1186 C1185 1.398 . S
C1186 C1187 1.408 . S
C1187 H1175 0.933 1_565 S
C1187 C1183 1.392 1_565 S
C1187 C1186 1.408 . S
H1188 C1196 0.950 . S
H1189 C1201 0.950 . S
H1190 C1198 0.950 . S
H1191 C1200 0.950 . S
H1192 C1202 0.950 . S
H1193 C1204 0.950 . S
H1194 C1206 0.950 . S
H1195 C1207 0.950 . S
C1196 H1188 0.950 . S
C1196 C1197 1.386 . S
C1196 C1198 1.391 . S
C1197 C1196 1.386 . S
C1197 C1201 1.393 . S
C1198 H1190 0.950 . S
C1198 C1196 1.391 . S
C1198 C1199 1.400 . S
C1199 C1198 1.400 . S
C1199 C1200 1.398 . S
C1199 C1205 1.491 . S
C1200 H1191 0.950 . S
C1200 C1199 1.398 . S
C1200 C1201 1.391 . S
C1201 H1189 0.950 . S
C1201 C1197 1.393 . S
C1201 C1200 1.391 . S
C1202 H1192 0.950 . S
C1202 C1203 1.386 . S
C1202 C1204 1.391 . S
C1203 C1202 1.386 . S
C1203 C1207 1.393 . S
C1204 H1193 0.950 . S
C1204 C1202 1.391 . S
C1204 C1205 1.400 . S
C1205 C1199 1.491 . S
C1205 C1204 1.400 . S
C1205 C1206 1.398 . S
C1206 H1194 0.950 . S
C1206 C1205 1.398 . S
C1206 C1207 1.391 . S
C1207 H1195 0.950 . S
C1207 C1203 1.393 . S
C1207 C1206 1.391 . S
H1208 C1216 0.950 . S
H1209 C1221 0.950 . S
H1210 C1218 0.950 . S
H1211 C1220 0.950 . S
H1212 C1222 0.950 . S
H1213 C1224 0.950 . S
H1214 C1226 0.950 . S
H1215 C1227 0.950 . S
C1216 H1208 0.950 . S
C1216 C1217 1.386 . S
C1216 C1218 1.391 . S
C1217 C1216 1.386 . S
C1217 C1221 1.393 . S
C1218 H1210 0.950 . S
C1218 C1216 1.391 . S
C1218 C1219 1.400 . S
C1219 C1218 1.400 . S
C1219 C1220 1.398 . S
C1219 C1225 1.491 . S
C1220 H1211 0.950 . S
C1220 C1219 1.398 . S
C1220 C1221 1.391 . S
C1221 H1209 0.950 . S
C1221 C1217 1.393 . S
C1221 C1220 1.391 . S
C1222 H1212 0.950 . S
C1222 C1223 1.386 . S
C1222 C1224 1.391 1_565 S
C1223 C1222 1.386 . S
C1223 C1227 1.391 1_565 S
C1224 H1213 0.950 . S
C1224 C1222 1.391 1_545 S
C1224 C1225 1.400 . S
C1225 C1219 1.491 . S
C1225 C1224 1.400 . S
C1225 C1226 1.398 . S
C1226 H1214 0.950 . S
C1226 C1225 1.398 . S
C1226 C1227 1.391 . S
C1227 H1215 0.950 . S
C1227 C1223 1.391 1_545 S
C1227 C1226 1.391 . S
H1228 C1236 0.950 . S
H1229 C1241 0.950 . S
H1230 C1238 0.950 . S
H1231 C1240 0.950 . S
H1232 C1242 0.950 . S
H1233 C1244 0.950 . S
H1234 C1246 0.950 . S
H1235 C1247 0.950 . S
C1236 H1228 0.950 . S
C1236 C1237 1.386 . S
C1236 C1238 1.391 . S
C1237 C1236 1.386 . S
C1237 C1241 1.393 . S
C1238 H1230 0.950 . S
C1238 C1236 1.391 . S
C1238 C1239 1.400 . S
C1239 C1238 1.400 . S
C1239 C1240 1.398 . S
C1239 C1245 1.491 . S
C1240 H1231 0.950 . S
C1240 C1239 1.398 . S
C1240 C1241 1.391 . S
C1241 H1229 0.950 . S
C1241 C1237 1.393 . S
C1241 C1240 1.391 . S
C1242 H1232 0.950 . S
C1242 C1243 1.386 . S
C1242 C1244 1.391 . S
C1243 C1242 1.386 . S
C1243 C1247 1.393 . S
C1244 H1233 0.950 . S
C1244 C1242 1.391 . S
C1244 C1245 1.400 . S
C1245 C1239 1.491 . S
C1245 C1244 1.400 . S
C1245 C1246 1.398 . S
C1246 H1234 0.950 . S
C1246 C1245 1.398 . S
C1246 C1247 1.391 . S
C1247 H1235 0.950 . S
C1247 C1243 1.393 . S
C1247 C1246 1.391 . S
H1248 C1256 0.952 1_545 S
H1249 C1261 0.950 . S
H1250 C1258 0.950 . S
H1251 C1260 0.950 . S
H1252 C1262 0.950 . S
H1253 C1264 0.950 . S
H1254 C1266 0.950 . S
H1255 C1267 0.950 . S
C1256 H1248 0.952 1_565 S
C1256 C1257 1.386 1_565 S
C1256 C1258 1.391 . S
C1257 C1256 1.386 1_545 S
C1257 C1261 1.393 1_545 S
C1258 H1250 0.950 . S
C1258 C1256 1.391 . S
C1258 C1259 1.400 . S
C1259 C1258 1.400 . S
C1259 C1260 1.398 . S
C1259 C1265 1.491 . S
C1260 H1251 0.950 . S
C1260 C1259 1.398 . S
C1260 C1261 1.391 . S
C1261 H1249 0.950 . S
C1261 C1257 1.393 1_565 S
C1261 C1260 1.391 . S
C1262 H1252 0.950 . S
C1262 C1263 1.386 . S
C1262 C1264 1.391 . S
C1263 C1262 1.386 . S
C1263 C1267 1.393 . S
C1264 H1253 0.950 . S
C1264 C1262 1.391 . S
C1264 C1265 1.400 . S
C1265 C1259 1.491 . S
C1265 C1264 1.400 . S
C1265 C1266 1.398 . S
C1266 H1254 0.950 . S
C1266 C1265 1.398 . S
C1266 C1267 1.391 . S
C1267 H1255 0.950 . S
C1267 C1263 1.393 . S
C1267 C1266 1.391 . S
H1268 C1276 0.950 . S
H1269 C1281 0.950 . S
H1270 C1278 0.950 . S
H1271 C1280 0.950 . S
H1272 C1282 0.950 . S
H1273 C1284 0.950 . S
H1274 C1286 0.950 . S
H1275 C1287 0.950 . S
C1276 H1268 0.950 . S
C1276 C1277 1.386 . S
C1276 C1278 1.391 . S
C1277 C1276 1.386 . S
C1277 C1281 1.393 . S
C1278 H1270 0.950 . S
C1278 C1276 1.391 . S
C1278 C1279 1.400 . S
C1279 C1278 1.400 . S
C1279 C1280 1.398 . S
C1279 C1285 1.491 . S
C1280 H1271 0.950 . S
C1280 C1279 1.398 . S
C1280 C1281 1.391 . S
C1281 H1269 0.950 . S
C1281 C1277 1.393 . S
C1281 C1280 1.391 . S
C1282 H1272 0.950 . S
C1282 C1283 1.386 . S
C1282 C1284 1.391 . S
C1283 C1282 1.386 . S
C1283 C1287 1.393 . S
C1284 H1273 0.950 . S
C1284 C1282 1.391 . S
C1284 C1285 1.400 . S
C1285 C1279 1.491 . S
C1285 C1284 1.400 . S
C1285 C1286 1.398 . S
C1286 H1274 0.950 . S
C1286 C1285 1.398 . S
C1286 C1287 1.391 . S
C1287 H1275 0.950 . S
C1287 C1283 1.393 . S
C1287 C1286 1.391 . S
H1288 C1296 0.950 . S
H1289 C1301 0.950 . S
H1290 C1298 0.950 . S
H1291 C1300 0.950 . S
H1292 C1302 0.950 . S
H1293 C1304 0.950 . S
H1294 C1306 0.950 . S
H1295 C1307 0.950 . S
C1296 H1288 0.950 . S
C1296 C1297 1.386 . S
C1296 C1298 1.391 . S
C1297 C1296 1.386 . S
C1297 C1301 1.393 . S
C1298 H1290 0.950 . S
C1298 C1296 1.391 . S
C1298 C1299 1.400 . S
C1299 C1298 1.400 . S
C1299 C1300 1.398 . S
C1299 C1305 1.491 . S
C1300 H1291 0.950 . S
C1300 C1299 1.398 . S
C1300 C1301 1.391 . S
C1301 H1289 0.950 . S
C1301 C1297 1.393 . S
C1301 C1300 1.391 . S
C1302 H1292 0.950 . S
C1302 C1303 1.392 . S
C1302 C1304 1.391 1_565 S
C1303 C1302 1.392 . S
C1303 C1307 1.352 1_565 S
C1304 H1293 0.950 . S
C1304 C1302 1.391 1_545 S
C1304 C1305 1.400 . S
C1305 C1299 1.491 . S
C1305 C1304 1.400 . S
C1305 C1306 1.398 . S
C1306 H1294 0.950 . S
C1306 C1305 1.398 . S
C1306 C1307 1.391 . S
C1307 H1295 0.950 . S
C1307 C1303 1.352 1_545 S
C1307 C1306 1.391 . S
H1308 C1316 0.950 . S
H1309 C1321 0.950 . S
H1310 C1318 0.950 . S
H1311 C1320 0.950 . S
H1312 C1322 0.950 . S
H1313 C1324 0.950 . S
H1314 C1326 0.950 . S
H1315 C1327 0.950 . S
C1316 H1308 0.950 . S
C1316 C1317 1.386 . S
C1316 C1318 1.391 . S
C1317 C1316 1.386 . S
C1317 C1321 1.393 . S
C1318 H1310 0.950 . S
C1318 C1316 1.391 . S
C1318 C1319 1.400 . S
C1319 C1318 1.400 . S
C1319 C1320 1.398 . S
C1319 C1325 1.491 . S
C1320 H1311 0.950 . S
C1320 C1319 1.398 . S
C1320 C1321 1.391 . S
C1321 H1309 0.950 . S
C1321 C1317 1.393 . S
C1321 C1320 1.391 . S
C1322 H1312 0.950 . S
C1322 C1323 1.386 . S
C1322 C1324 1.391 . S
C1323 C1322 1.386 . S
C1323 C1327 1.393 . S
C1324 H1313 0.950 . S
C1324 C1322 1.391 . S
C1324 C1325 1.400 . S
C1325 C1319 1.491 . S
C1325 C1324 1.400 . S
C1325 C1326 1.398 . S
C1326 H1314 0.950 . S
C1326 C1325 1.398 . S
C1326 C1327 1.391 . S
C1327 H1315 0.950 . S
C1327 C1323 1.393 . S
C1327 C1326 1.391 . S
H1328 C1336 0.950 . S
H1329 C1341 0.950 . S
H1330 C1338 0.950 . S
H1331 C1340 0.950 . S
H1332 C1342 0.950 1_565 S
H1333 C1344 0.950 . S
H1334 C1346 0.950 . S
H1335 C1347 0.950 . S
C1336 H1328 0.950 . S
C1336 C1337 1.386 . S
C1336 C1338 1.391 . S
C1337 C1336 1.386 . S
C1337 C1341 1.393 . S
C1338 H1330 0.950 . S
C1338 C1336 1.391 . S
C1338 C1339 1.400 . S
C1339 C1338 1.400 . S
C1339 C1340 1.398 . S
C1339 C1345 1.491 . S
C1340 H1331 0.950 . S
C1340 C1339 1.398 . S
C1340 C1341 1.391 . S
C1341 H1329 0.950 . S
C1341 C1337 1.393 . S
C1341 C1340 1.391 . S
C1342 H1332 0.950 1_545 S
C1342 C1343 1.387 1_545 S
C1342 C1344 1.391 . S
C1343 C1342 1.387 1_565 S
C1343 C1347 1.395 1_565 S
C1344 H1333 0.950 . S
C1344 C1342 1.391 . S
C1344 C1345 1.400 . S
C1345 C1339 1.491 . S
C1345 C1344 1.400 . S
C1345 C1346 1.398 . S
C1346 H1334 0.950 . S
C1346 C1345 1.398 . S
C1346 C1347 1.391 . S
C1347 H1335 0.950 . S
C1347 C1343 1.395 1_545 S
C1347 C1346 1.391 . S
H1348 C1356 0.950 . S
H1349 C1361 0.950 . S
H1350 C1358 0.950 . S
H1351 C1360 0.950 . S
H1352 C1362 0.950 . S
H1353 C1364 0.950 . S
H1354 C1366 0.950 . S
H1355 C1367 0.950 . S
C1356 H1348 0.950 . S
C1356 C1357 1.386 . S
C1356 C1358 1.391 . S
C1357 C1356 1.386 . S
C1357 C1361 1.393 . S
C1358 H1350 0.950 . S
C1358 C1356 1.391 . S
C1358 C1359 1.400 . S
C1359 C1358 1.400 . S
C1359 C1360 1.398 . S
C1359 C1365 1.491 . S
C1360 H1351 0.950 . S
C1360 C1359 1.398 . S
C1360 C1361 1.391 . S
C1361 H1349 0.950 . S
C1361 C1357 1.393 . S
C1361 C1360 1.391 . S
C1362 H1352 0.950 . S
C1362 C1363 1.386 . S
C1362 C1364 1.391 . S
C1363 C1362 1.386 . S
C1363 C1367 1.393 . S
C1364 H1353 0.950 . S
C1364 C1362 1.391 . S
C1364 C1365 1.400 . S
C1365 C1359 1.491 . S
C1365 C1364 1.400 . S
C1365 C1366 1.398 . S
C1366 H1354 0.950 . S
C1366 C1365 1.398 . S
C1366 C1367 1.391 . S
C1367 H1355 0.950 . S
C1367 C1363 1.393 . S
C1367 C1366 1.391 . S
H1368 C1376 0.950 . S
H1369 C1381 0.950 . S
H1370 C1378 0.950 . S
H1371 C1380 0.950 . S
H1372 C1382 0.950 . S
H1373 C1384 0.950 . S
H1374 C1386 0.950 . S
H1375 C1387 0.950 . S
C1376 H1368 0.950 . S
C1376 C1377 1.376 1_565 S
C1376 C1378 1.391 . S
C1377 C1376 1.376 1_545 S
C1377 C1381 1.394 . S
C1378 H1370 0.950 . S
C1378 C1376 1.391 . S
C1378 C1379 1.400 . S
C1379 C1378 1.400 . S
C1379 C1380 1.398 . S
C1379 C1385 1.491 . S
C1380 H1371 0.950 . S
C1380 C1379 1.398 . S
C1380 C1381 1.391 1_565 S
C1381 H1369 0.950 . S
C1381 C1377 1.394 . S
C1381 C1380 1.391 1_545 S
C1382 H1372 0.950 . S
C1382 C1383 1.386 . S
C1382 C1384 1.391 . S
C1383 C1382 1.386 . S
C1383 C1387 1.393 . S
C1384 H1373 0.950 . S
C1384 C1382 1.391 . S
C1384 C1385 1.400 . S
C1385 C1379 1.491 . S
C1385 C1384 1.400 . S
C1385 C1386 1.398 . S
C1386 H1374 0.950 . S
C1386 C1385 1.398 . S
C1386 C1387 1.391 . S
C1387 H1375 0.950 . S
C1387 C1383 1.393 . S
C1387 C1386 1.391 . S
H1388 C1396 0.950 . S
H1389 C1401 0.950 . S
H1390 C1398 0.950 . S
H1391 C1400 0.950 . S
H1392 C1402 0.950 . S
H1393 C1404 0.950 . S
H1394 C1406 0.950 . S
H1395 C1407 0.950 . S
C1396 H1388 0.950 . S
C1396 C1397 1.386 . S
C1396 C1398 1.391 . S
C1397 C1396 1.386 . S
C1397 C1401 1.393 . S
C1398 H1390 0.950 . S
C1398 C1396 1.391 . S
C1398 C1399 1.400 . S
C1399 C1398 1.400 . S
C1399 C1400 1.398 . S
C1399 C1405 1.491 . S
C1400 H1391 0.950 . S
C1400 C1399 1.398 . S
C1400 C1401 1.391 . S
C1401 H1389 0.950 . S
C1401 C1397 1.393 . S
C1401 C1400 1.391 . S
C1402 H1392 0.950 . S
C1402 C1403 1.386 . S
C1402 C1404 1.391 . S
C1403 C1402 1.386 . S
C1403 C1407 1.393 . S
C1404 H1393 0.950 . S
C1404 C1402 1.391 . S
C1404 C1405 1.400 . S
C1405 C1399 1.491 . S
C1405 C1404 1.400 . S
C1405 C1406 1.398 . S
C1406 H1394 0.950 . S
C1406 C1405 1.398 . S
C1406 C1407 1.391 . S
C1407 H1395 0.950 . S
C1407 C1403 1.393 . S
C1407 C1406 1.391 . S
H1408 C1416 0.950 . S
H1409 C1421 0.950 . S
H1410 C1418 0.950 . S
H1411 C1420 0.950 . S
H1412 C1422 0.950 . S
H1413 C1424 0.950 . S
H1414 C1426 0.950 . S
H1415 C1427 0.950 . S
C1416 H1408 0.950 . S
C1416 C1417 1.386 . S
C1416 C1418 1.391 . S
C1417 C1416 1.386 . S
C1417 C1421 1.393 . S
C1418 H1410 0.950 . S
C1418 C1416 1.391 . S
C1418 C1419 1.400 . S
C1419 C1418 1.400 . S
C1419 C1420 1.398 . S
C1419 C1425 1.491 . S
C1420 H1411 0.950 . S
C1420 C1419 1.398 . S
C1420 C1421 1.391 . S
C1421 H1409 0.950 . S
C1421 C1417 1.393 . S
C1421 C1420 1.391 . S
C1422 H1412 0.950 . S
C1422 C1423 1.386 . S
C1422 C1424 1.391 . S
C1423 C1422 1.386 . S
C1423 C1427 1.393 . S
C1424 H1413 0.950 . S
C1424 C1422 1.391 . S
C1424 C1425 1.400 . S
C1425 C1419 1.491 . S
C1425 C1424 1.400 . S
C1425 C1426 1.398 . S
C1426 H1414 0.950 . S
C1426 C1425 1.398 . S
C1426 C1427 1.391 . S
C1427 H1415 0.950 . S
C1427 C1423 1.393 . S
C1427 C1426 1.391 . S
H1428 C1436 0.950 . S
H1429 C1441 0.950 . S
H1430 C1438 0.950 . S
H1431 C1440 0.950 . S
H1432 C1442 0.950 . S
H1433 C1444 0.950 . S
H1434 C1446 0.950 . S
H1435 C1447 0.950 . S
C1436 H1428 0.950 . S
C1436 C1437 1.386 . S
C1436 C1438 1.391 . S
C1437 C1436 1.386 . S
C1437 C1441 1.393 . S
C1438 H1430 0.950 . S
C1438 C1436 1.391 . S
C1438 C1439 1.400 . S
C1439 C1438 1.400 . S
C1439 C1440 1.398 . S
C1439 C1445 1.491 . S
C1440 H1431 0.950 . S
C1440 C1439 1.398 . S
C1440 C1441 1.391 . S
C1441 H1429 0.950 . S
C1441 C1437 1.393 . S
C1441 C1440 1.391 . S
C1442 H1432 0.950 . S
C1442 C1443 1.386 . S
C1442 C1444 1.391 . S
C1443 C1442 1.386 . S
C1443 C1447 1.393 . S
C1444 H1433 0.950 . S
C1444 C1442 1.391 . S
C1444 C1445 1.400 . S
C1445 C1439 1.491 . S
C1445 C1444 1.400 . S
C1445 C1446 1.398 . S
C1446 H1434 0.950 . S
C1446 C1445 1.398 . S
C1446 C1447 1.391 . S
C1447 H1435 0.950 . S
C1447 C1443 1.393 . S
C1447 C1446 1.391 . S
H1448 C1456 0.950 . S
H1449 C1461 0.950 . S
H1450 C1458 0.950 . S
H1451 C1460 0.950 . S
H1452 C1462 0.950 . S
H1453 C1464 0.950 . S
H1454 C1466 0.950 . S
H1455 C1467 0.950 . S
C1456 H1448 0.950 . S
C1456 C1457 1.386 . S
C1456 C1458 1.391 . S
C1457 C1456 1.386 . S
C1457 C1461 1.393 . S
C1458 H1450 0.950 . S
C1458 C1456 1.391 . S
C1458 C1459 1.400 . S
C1459 C1458 1.400 . S
C1459 C1460 1.398 . S
C1459 C1465 1.491 . S
C1460 H1451 0.950 . S
C1460 C1459 1.398 . S
C1460 C1461 1.391 . S
C1461 H1449 0.950 . S
C1461 C1457 1.393 . S
C1461 C1460 1.391 . S
C1462 H1452 0.950 . S
C1462 C1463 1.386 . S
C1462 C1464 1.391 . S
C1463 C1462 1.386 . S
C1463 C1467 1.393 . S
C1464 H1453 0.950 . S
C1464 C1462 1.391 . S
C1464 C1465 1.400 . S
C1465 C1459 1.491 . S
C1465 C1464 1.400 . S
C1465 C1466 1.398 . S
C1466 H1454 0.950 . S
C1466 C1465 1.398 . S
C1466 C1467 1.391 . S
C1467 H1455 0.950 . S
C1467 C1463 1.393 . S
C1467 C1466 1.391 . S
H1468 C1476 0.950 . S
H1469 C1481 0.950 . S
H1470 C1478 0.950 . S
H1471 C1480 0.950 . S
H1472 C1482 0.950 . S
H1473 C1484 0.950 . S
H1474 C1486 0.950 . S
H1475 C1487 0.950 . S
C1476 H1468 0.950 . S
C1476 C1477 1.386 . S
C1476 C1478 1.391 . S
C1477 C1476 1.386 . S
C1477 C1481 1.393 . S
C1478 H1470 0.950 . S
C1478 C1476 1.391 . S
C1478 C1479 1.400 . S
C1479 C1478 1.400 . S
C1479 C1480 1.398 . S
C1479 C1485 1.491 . S
C1480 H1471 0.950 . S
C1480 C1479 1.398 . S
C1480 C1481 1.391 . S
C1481 H1469 0.950 . S
C1481 C1477 1.393 . S
C1481 C1480 1.391 . S
C1482 H1472 0.950 . S
C1482 C1483 1.386 . S
C1482 C1484 1.391 . S
C1483 C1482 1.386 . S
C1483 C1487 1.393 . S
C1484 H1473 0.950 . S
C1484 C1482 1.391 . S
C1484 C1485 1.400 . S
C1485 C1479 1.491 . S
C1485 C1484 1.400 . S
C1485 C1486 1.398 . S
C1486 H1474 0.950 . S
C1486 C1485 1.398 . S
C1486 C1487 1.391 . S
C1487 H1475 0.950 . S
C1487 C1483 1.393 . S
C1487 C1486 1.391 . S
H1488 C1496 0.950 . S
H1489 C1501 0.950 . S
H1490 C1498 0.950 . S
H1491 C1500 0.950 . S
H1492 C1502 0.950 . S
H1493 C1504 0.950 . S
H1494 C1506 0.950 . S
H1495 C1507 0.950 . S
C1496 H1488 0.950 . S
C1496 C1497 1.386 . S
C1496 C1498 1.391 . S
C1497 C1496 1.386 . S
C1497 C1501 1.393 . S
C1498 H1490 0.950 . S
C1498 C1496 1.391 . S
C1498 C1499 1.400 . S
C1499 C1498 1.400 . S
C1499 C1500 1.398 . S
C1499 C1505 1.491 . S
C1500 H1491 0.950 . S
C1500 C1499 1.398 . S
C1500 C1501 1.391 . S
C1501 H1489 0.950 . S
C1501 C1497 1.393 . S
C1501 C1500 1.391 . S
C1502 H1492 0.950 . S
C1502 C1503 1.386 . S
C1502 C1504 1.391 . S
C1503 C1502 1.386 . S
C1503 C1507 1.393 . S
C1504 H1493 0.950 . S
C1504 C1502 1.391 . S
C1504 C1505 1.400 . S
C1505 C1499 1.491 . S
C1505 C1504 1.400 . S
C1505 C1506 1.398 . S
C1506 H1494 0.950 . S
C1506 C1505 1.398 . S
C1506 C1507 1.391 . S
C1507 H1495 0.950 . S
C1507 C1503 1.393 . S
C1507 C1506 1.391 . S
H1508 C1516 0.950 . S
H1509 C1521 0.950 . S
H1510 C1518 0.950 . S
H1511 C1520 0.950 . S
H1512 C1522 0.950 . S
H1513 C1524 0.950 . S
H1514 C1526 0.950 . S
H1515 C1527 0.950 . S
C1516 H1508 0.950 . S
C1516 C1517 1.386 . S
C1516 C1518 1.391 . S
C1517 C1516 1.386 . S
C1517 C1521 1.393 . S
C1518 H1510 0.950 . S
C1518 C1516 1.391 . S
C1518 C1519 1.400 . S
C1519 C1518 1.400 . S
C1519 C1520 1.398 . S
C1519 C1525 1.491 . S
C1520 H1511 0.950 . S
C1520 C1519 1.398 . S
C1520 C1521 1.391 . S
C1521 H1509 0.950 . S
C1521 C1517 1.393 . S
C1521 C1520 1.391 . S
C1522 H1512 0.950 . S
C1522 C1523 1.386 . S
C1522 C1524 1.391 . S
C1523 C1522 1.386 . S
C1523 C1527 1.393 . S
C1524 H1513 0.950 . S
C1524 C1522 1.391 . S
C1524 C1525 1.400 . S
C1525 C1519 1.491 . S
C1525 C1524 1.400 . S
C1525 C1526 1.398 . S
C1526 H1514 0.950 . S
C1526 C1525 1.398 . S
C1526 C1527 1.391 . S
C1527 H1515 0.950 . S
C1527 C1523 1.393 . S
C1527 C1526 1.391 . S
H1528 C1536 0.950 . S
H1529 C1541 0.950 . S
H1530 C1538 0.950 . S
H1531 C1540 0.950 . S
H1532 C1542 0.950 . S
H1533 C1544 0.950 . S
H1534 C1546 0.950 . S
H1535 C1547 0.950 . S
C1536 H1528 0.950 . S
C1536 C1537 1.386 . S
C1536 C1538 1.391 . S
C1537 C1536 1.386 . S
C1537 C1541 1.393 . S
C1538 H1530 0.950 . S
C1538 C1536 1.391 . S
C1538 C1539 1.400 . S
C1539 C1538 1.400 . S
C1539 C1540 1.398 . S
C1539 C1545 1.491 . S
C1540 H1531 0.950 . S
C1540 C1539 1.398 . S
C1540 C1541 1.391 . S
C1541 H1529 0.950 . S
C1541 C1537 1.393 . S
C1541 C1540 1.391 . S
C1542 H1532 0.950 . S
C1542 C1543 1.386 . S
C1542 C1544 1.391 . S
C1543 C1542 1.386 . S
C1543 C1547 1.393 . S
C1544 H1533 0.950 . S
C1544 C1542 1.391 . S
C1544 C1545 1.400 . S
C1545 C1539 1.491 . S
C1545 C1544 1.400 . S
C1545 C1546 1.398 . S
C1546 H1534 0.950 . S
C1546 C1545 1.398 . S
C1546 C1547 1.391 . S
C1547 H1535 0.950 . S
C1547 C1543 1.393 . S
C1547 C1546 1.391 . S
H1548 C1556 0.950 . S
H1549 C1561 0.950 . S
H1550 C1558 0.950 . S
H1551 C1560 0.950 . S
H1552 C1562 0.950 . S
H1553 C1564 0.950 . S
H1554 C1566 0.950 . S
H1555 C1567 0.950 . S
C1556 H1548 0.950 . S
C1556 C1557 1.386 . S
C1556 C1558 1.391 . S
C1557 C1556 1.386 . S
C1557 C1561 1.393 . S
C1558 H1550 0.950 . S
C1558 C1556 1.391 . S
C1558 C1559 1.400 . S
C1559 C1558 1.400 . S
C1559 C1560 1.398 . S
C1559 C1565 1.491 . S
C1560 H1551 0.950 . S
C1560 C1559 1.398 . S
C1560 C1561 1.391 . S
C1561 H1549 0.950 . S
C1561 C1557 1.393 . S
C1561 C1560 1.391 . S
C1562 H1552 0.950 . S
C1562 C1563 1.386 . S
C1562 C1564 1.391 . S
C1563 C1562 1.386 . S
C1563 C1567 1.393 . S
C1564 H1553 0.950 . S
C1564 C1562 1.391 . S
C1564 C1565 1.400 . S
C1565 C1559 1.491 . S
C1565 C1564 1.400 . S
C1565 C1566 1.398 . S
C1566 H1554 0.950 . S
C1566 C1565 1.398 . S
C1566 C1567 1.391 . S
C1567 H1555 0.950 . S
C1567 C1563 1.393 . S
C1567 C1566 1.391 . S
H1568 C1576 0.950 . S
H1569 C1581 0.950 . S
H1570 C1578 0.950 . S
H1571 C1580 0.950 . S
H1572 C1582 0.950 . S
H1573 C1584 0.950 . S
H1574 C1586 0.950 . S
H1575 C1587 0.950 . S
C1576 H1568 0.950 . S
C1576 C1577 1.386 . S
C1576 C1578 1.391 . S
C1577 C1576 1.386 . S
C1577 C1581 1.393 . S
C1578 H1570 0.950 . S
C1578 C1576 1.391 . S
C1578 C1579 1.400 . S
C1579 C1578 1.400 . S
C1579 C1580 1.398 . S
C1579 C1585 1.491 . S
C1580 H1571 0.950 . S
C1580 C1579 1.398 . S
C1580 C1581 1.391 . S
C1581 H1569 0.950 . S
C1581 C1577 1.393 . S
C1581 C1580 1.391 . S
C1582 H1572 0.950 . S
C1582 C1583 1.386 . S
C1582 C1584 1.391 . S
C1583 C1582 1.386 . S
C1583 C1587 1.393 . S
C1584 H1573 0.950 . S
C1584 C1582 1.391 . S
C1584 C1585 1.400 . S
C1585 C1579 1.491 . S
C1585 C1584 1.400 . S
C1585 C1586 1.398 . S
C1586 H1574 0.950 . S
C1586 C1585 1.398 . S
C1586 C1587 1.391 . S
C1587 H1575 0.950 . S
C1587 C1583 1.393 . S
C1587 C1586 1.391 . S
H1588 C1596 0.950 . S
H1589 C1601 0.950 . S
H1590 C1598 0.950 . S
H1591 C1600 0.950 . S
H1592 C1602 0.950 . S
H1593 C1604 0.950 . S
H1594 C1606 0.950 . S
H1595 C1607 0.927 1_556 S
C1596 H1588 0.950 . S
C1596 C1597 1.386 . S
C1596 C1598 1.391 . S
C1597 C1596 1.386 . S
C1597 C1601 1.393 . S
C1598 H1590 0.950 . S
C1598 C1596 1.391 . S
C1598 C1599 1.400 . S
C1599 C1598 1.400 . S
C1599 C1600 1.398 . S
C1599 C1605 1.491 . S
C1600 H1591 0.950 . S
C1600 C1599 1.398 . S
C1600 C1601 1.391 . S
C1601 H1589 0.950 . S
C1601 C1597 1.393 . S
C1601 C1600 1.391 . S
C1602 H1592 0.950 . S
C1602 C1603 1.386 . S
C1602 C1604 1.391 . S
C1603 C1602 1.386 . S
C1603 C1607 1.393 . S
C1604 H1593 0.950 . S
C1604 C1602 1.391 . S
C1604 C1605 1.400 . S
C1605 C1599 1.491 . S
C1605 C1604 1.400 . S
C1605 C1606 1.398 . S
C1606 H1594 0.950 . S
C1606 C1605 1.398 . S
C1606 C1607 1.391 . S
C1607 H1595 0.927 1_554 S
C1607 C1603 1.393 . S
C1607 C1606 1.391 . S
H1608 C1616 0.950 . S
H1609 C1621 0.950 . S
H1610 C1618 0.950 . S
H1611 C1620 0.950 . S
H1612 C1622 0.950 . S
H1613 C1624 0.950 . S
H1614 C1626 0.950 . S
H1615 C1627 0.950 . S
C1616 H1608 0.950 . S
C1616 C1617 1.386 . S
C1616 C1618 1.391 . S
C1617 C1616 1.386 . S
C1617 C1621 1.393 . S
C1618 H1610 0.950 . S
C1618 C1616 1.391 . S
C1618 C1619 1.400 . S
C1619 C1618 1.400 . S
C1619 C1620 1.398 . S
C1619 C1625 1.491 . S
C1620 H1611 0.950 . S
C1620 C1619 1.398 . S
C1620 C1621 1.391 . S
C1621 H1609 0.950 . S
C1621 C1617 1.393 . S
C1621 C1620 1.391 . S
C1622 H1612 0.950 . S
C1622 C1623 1.386 . S
C1622 C1624 1.391 . S
C1623 C1622 1.386 . S
C1623 C1627 1.393 . S
C1624 H1613 0.950 . S
C1624 C1622 1.391 . S
C1624 C1625 1.400 . S
C1625 C1619 1.491 . S
C1625 C1624 1.400 . S
C1625 C1626 1.398 . S
C1626 H1614 0.950 . S
C1626 C1625 1.398 . S
C1626 C1627 1.391 . S
C1627 H1615 0.950 . S
C1627 C1623 1.393 . S
C1627 C1626 1.391 . S
H1628 C1636 0.950 . S
H1629 C1641 0.950 . S
H1630 C1638 0.950 . S
H1631 C1640 0.950 . S
H1632 C1642 0.950 . S
H1633 C1644 0.950 . S
H1634 C1646 0.950 . S
H1635 C1647 0.950 . S
C1636 H1628 0.950 . S
C1636 C1637 1.386 . S
C1636 C1638 1.391 . S
C1637 C1636 1.386 . S
C1637 C1641 1.393 . S
C1638 H1630 0.950 . S
C1638 C1636 1.391 . S
C1638 C1639 1.400 . S
C1639 C1638 1.400 . S
C1639 C1640 1.398 . S
C1639 C1645 1.491 . S
C1640 H1631 0.950 . S
C1640 C1639 1.398 . S
C1640 C1641 1.391 . S
C1641 H1629 0.950 . S
C1641 C1637 1.393 . S
C1641 C1640 1.391 . S
C1642 H1632 0.950 . S
C1642 C1643 1.386 . S
C1642 C1644 1.391 . S
C1643 C1642 1.386 . S
C1643 C1647 1.393 . S
C1644 H1633 0.950 . S
C1644 C1642 1.391 . S
C1644 C1645 1.400 . S
C1645 C1639 1.491 . S
C1645 C1644 1.400 . S
C1645 C1646 1.398 . S
C1646 H1634 0.950 . S
C1646 C1645 1.398 . S
C1646 C1647 1.391 . S
C1647 H1635 0.950 . S
C1647 C1643 1.393 . S
C1647 C1646 1.391 . S
H1648 C1656 0.950 . S
H1649 C1661 0.950 . S
H1650 C1658 0.950 . S
H1651 C1660 0.950 . S
H1652 C1662 0.950 . S
H1653 C1664 0.950 . S
H1654 C1666 0.950 . S
H1655 C1667 0.950 . S
C1656 H1648 0.950 . S
C1656 C1657 1.386 . S
C1656 C1658 1.391 . S
C1657 C1656 1.386 . S
C1657 C1661 1.393 . S
C1658 H1650 0.950 . S
C1658 C1656 1.391 . S
C1658 C1659 1.400 . S
C1659 C1658 1.400 . S
C1659 C1660 1.398 . S
C1659 C1665 1.491 . S
C1660 H1651 0.950 . S
C1660 C1659 1.398 . S
C1660 C1661 1.391 . S
C1661 H1649 0.950 . S
C1661 C1657 1.393 . S
C1661 C1660 1.391 . S
C1662 H1652 0.950 . S
C1662 C1663 1.386 . S
C1662 C1664 1.391 . S
C1663 C1662 1.386 . S
C1663 C1667 1.393 . S
C1664 H1653 0.950 . S
C1664 C1662 1.391 . S
C1664 C1665 1.400 . S
C1665 C1659 1.491 . S
C1665 C1664 1.400 . S
C1665 C1666 1.398 . S
C1666 H1654 0.950 . S
C1666 C1665 1.398 . S
C1666 C1667 1.391 . S
C1667 H1655 0.950 . S
C1667 C1663 1.393 . S
C1667 C1666 1.391 . S
H1668 C1676 0.950 . S
H1669 C1681 0.950 . S
H1670 C1678 0.950 . S
H1671 C1680 0.950 . S
H1672 C1682 0.950 . S
H1673 C1684 0.950 . S
H1674 C1686 0.950 . S
H1675 C1687 0.950 . S
C1676 H1668 0.950 . S
C1676 C1677 1.386 . S
C1676 C1678 1.391 . S
C1677 C1676 1.386 . S
C1677 C1681 1.393 . S
C1678 H1670 0.950 . S
C1678 C1676 1.391 . S
C1678 C1679 1.400 . S
C1679 C1678 1.400 . S
C1679 C1680 1.398 . S
C1679 C1685 1.491 . S
C1680 H1671 0.950 . S
C1680 C1679 1.398 . S
C1680 C1681 1.391 . S
C1681 H1669 0.950 . S
C1681 C1677 1.393 . S
C1681 C1680 1.391 . S
C1682 H1672 0.950 . S
C1682 C1683 1.386 . S
C1682 C1684 1.391 . S
C1683 C1682 1.386 . S
C1683 C1687 1.393 . S
C1684 H1673 0.950 . S
C1684 C1682 1.391 . S
C1684 C1685 1.400 . S
C1685 C1679 1.491 . S
C1685 C1684 1.400 . S
C1685 C1686 1.398 . S
C1686 H1674 0.950 . S
C1686 C1685 1.398 . S
C1686 C1687 1.391 . S
C1687 H1675 0.950 . S
C1687 C1683 1.393 . S
C1687 C1686 1.391 . S
H1688 C1696 0.950 . S
H1689 C1701 0.950 . S
H1690 C1698 0.950 . S
H1691 C1700 0.950 . S
H1692 C1702 0.950 . S
H1693 C1704 0.950 . S
H1694 C1706 0.950 . S
H1695 C1707 0.950 . S
C1696 H1688 0.950 . S
C1696 C1697 1.386 . S
C1696 C1698 1.391 . S
C1697 C1696 1.386 . S
C1697 C1701 1.393 . S
C1698 H1690 0.950 . S
C1698 C1696 1.391 . S
C1698 C1699 1.400 . S
C1699 C1698 1.400 . S
C1699 C1700 1.398 . S
C1699 C1705 1.491 . S
C1700 H1691 0.950 . S
C1700 C1699 1.398 . S
C1700 C1701 1.391 . S
C1701 H1689 0.950 . S
C1701 C1697 1.393 . S
C1701 C1700 1.391 . S
C1702 H1692 0.950 . S
C1702 C1703 1.386 . S
C1702 C1704 1.391 . S
C1703 C1702 1.386 . S
C1703 C1707 1.393 . S
C1704 H1693 0.950 . S
C1704 C1702 1.391 . S
C1704 C1705 1.400 . S
C1705 C1699 1.491 . S
C1705 C1704 1.400 . S
C1705 C1706 1.398 . S
C1706 H1694 0.950 . S
C1706 C1705 1.398 . S
C1706 C1707 1.391 . S
C1707 H1695 0.950 . S
C1707 C1703 1.393 . S
C1707 C1706 1.391 . S
H1708 C1716 0.950 . S
H1709 C1721 0.950 . S
H1710 C1718 0.950 . S
H1711 C1720 0.950 . S
H1712 C1722 0.950 . S
H1713 C1724 0.950 . S
H1714 C1726 0.950 . S
H1715 C1727 0.950 . S
C1716 H1708 0.950 . S
C1716 C1717 1.386 . S
C1716 C1718 1.391 . S
C1717 C1716 1.386 . S
C1717 C1721 1.393 . S
C1718 H1710 0.950 . S
C1718 C1716 1.391 . S
C1718 C1719 1.400 . S
C1719 C1718 1.400 . S
C1719 C1720 1.398 . S
C1719 C1725 1.491 . S
C1720 H1711 0.950 . S
C1720 C1719 1.398 . S
C1720 C1721 1.391 . S
C1721 H1709 0.950 . S
C1721 C1717 1.393 . S
C1721 C1720 1.391 . S
C1722 H1712 0.950 . S
C1722 C1723 1.386 . S
C1722 C1724 1.391 . S
C1723 C1722 1.386 . S
C1723 C1727 1.393 . S
C1724 H1713 0.950 . S
C1724 C1722 1.391 . S
C1724 C1725 1.400 . S
C1725 C1719 1.491 . S
C1725 C1724 1.400 . S
C1725 C1726 1.398 . S
C1726 H1714 0.950 . S
C1726 C1725 1.398 . S
C1726 C1727 1.391 . S
C1727 H1715 0.950 . S
C1727 C1723 1.393 . S
C1727 C1726 1.391 . S
H1728 C1736 0.950 . S
H1729 C1741 0.950 . S
H1730 C1738 0.950 . S
H1731 C1740 0.950 . S
H1732 C1742 0.950 . S
H1733 C1744 0.950 . S
H1734 C1746 0.950 . S
H1735 C1747 0.950 . S
C1736 H1728 0.950 . S
C1736 C1737 1.386 . S
C1736 C1738 1.391 . S
C1737 C1736 1.386 . S
C1737 C1741 1.393 . S
C1738 H1730 0.950 . S
C1738 C1736 1.391 . S
C1738 C1739 1.400 . S
C1739 C1738 1.400 . S
C1739 C1740 1.398 . S
C1739 C1745 1.491 . S
C1740 H1731 0.950 . S
C1740 C1739 1.398 . S
C1740 C1741 1.391 . S
C1741 H1729 0.950 . S
C1741 C1737 1.393 . S
C1741 C1740 1.391 . S
C1742 H1732 0.950 . S
C1742 C1743 1.386 . S
C1742 C1744 1.391 . S
C1743 C1742 1.386 . S
C1743 C1747 1.393 . S
C1744 H1733 0.950 . S
C1744 C1742 1.391 . S
C1744 C1745 1.400 . S
C1745 C1739 1.491 . S
C1745 C1744 1.400 . S
C1745 C1746 1.398 . S
C1746 H1734 0.950 . S
C1746 C1745 1.398 . S
C1746 C1747 1.391 . S
C1747 H1735 0.950 . S
C1747 C1743 1.393 . S
C1747 C1746 1.391 . S
H1748 C1756 0.950 . S
H1749 C1761 0.941 1_545 S
H1750 C1758 0.950 . S
H1751 C1760 0.950 . S
H1752 C1762 0.950 . S
H1753 C1764 0.950 . S
H1754 C1766 0.950 . S
H1755 C1767 0.941 1_565 S
C1756 H1748 0.950 . S
C1756 C1757 1.386 . S
C1756 C1758 1.391 . S
C1757 C1756 1.386 . S
C1757 C1761 1.393 . S
C1758 H1750 0.950 . S
C1758 C1756 1.391 . S
C1758 C1759 1.400 . S
C1759 C1758 1.400 . S
C1759 C1760 1.398 1_565 S
C1759 C1765 1.491 1_565 S
C1760 H1751 0.950 . S
C1760 C1759 1.398 1_545 S
C1760 C1761 1.391 1_545 S
C1761 H1749 0.941 1_565 S
C1761 C1757 1.393 . S
C1761 C1760 1.391 1_565 S
C1762 H1752 0.950 . S
C1762 C1763 1.386 . S
C1762 C1764 1.391 . S
C1763 C1762 1.386 . S
C1763 C1767 1.393 . S
C1764 H1753 0.950 . S
C1764 C1762 1.391 . S
C1764 C1765 1.400 . S
C1765 C1759 1.491 1_545 S
C1765 C1764 1.400 . S
C1765 C1766 1.398 1_545 S
C1766 H1754 0.950 . S
C1766 C1765 1.398 1_565 S
C1766 C1767 1.391 1_565 S
C1767 H1755 0.941 1_545 S
C1767 C1763 1.393 . S
C1767 C1766 1.391 1_545 S
H1768 C1776 0.950 . S
H1769 C1781 0.950 . S
H1770 C1778 0.950 . S
H1771 C1780 0.950 . S
H1772 C1782 0.950 . S
H1773 C1784 0.950 . S
H1774 C1786 0.950 . S
H1775 C1787 0.950 . S
C1776 H1768 0.950 . S
C1776 C1777 1.386 . S
C1776 C1778 1.391 . S
C1777 C1776 1.386 . S
C1777 C1781 1.393 . S
C1778 H1770 0.950 . S
C1778 C1776 1.391 . S
C1778 C1779 1.400 . S
C1779 C1778 1.400 . S
C1779 C1780 1.398 . S
C1779 C1785 1.491 . S
C1780 H1771 0.950 . S
C1780 C1779 1.398 . S
C1780 C1781 1.391 . S
C1781 H1769 0.950 . S
C1781 C1777 1.393 . S
C1781 C1780 1.391 . S
C1782 H1772 0.950 . S
C1782 C1783 1.386 . S
C1782 C1784 1.391 . S
C1783 C1782 1.386 . S
C1783 C1787 1.393 . S
C1784 H1773 0.950 . S
C1784 C1782 1.391 . S
C1784 C1785 1.400 . S
C1785 C1779 1.491 . S
C1785 C1784 1.400 . S
C1785 C1786 1.398 . S
C1786 H1774 0.950 . S
C1786 C1785 1.398 . S
C1786 C1787 1.391 . S
C1787 H1775 0.950 . S
C1787 C1783 1.393 . S
C1787 C1786 1.391 . S
H1788 C1796 0.950 . S
H1789 C1801 0.950 1_565 S
H1790 C1798 0.950 1_554 S
H1791 C1800 0.950 . S
H1792 C1802 0.950 . S
H1793 C1804 0.950 1_556 S
H1794 C1806 0.950 . S
H1795 C1807 0.950 1_545 S
C1796 H1788 0.950 . S
C1796 C1797 1.386 . S
C1796 C1798 1.391 . S
C1797 C1796 1.386 . S
C1797 C1801 1.393 . S
C1798 H1790 0.950 1_556 S
C1798 C1796 1.391 . S
C1798 C1799 1.400 . S
C1799 C1798 1.400 . S
C1799 C1800 1.398 1_545 S
C1799 C1805 1.491 1_546 S
C1800 H1791 0.950 . S
C1800 C1799 1.398 1_565 S
C1800 C1801 1.391 1_565 S
C1801 H1789 0.950 1_545 S
C1801 C1797 1.393 . S
C1801 C1800 1.391 1_545 S
C1802 H1792 0.950 . S
C1802 C1803 1.386 . S
C1802 C1804 1.391 . S
C1803 C1802 1.386 . S
C1803 C1807 1.393 . S
C1804 H1793 0.950 1_554 S
C1804 C1802 1.391 . S
C1804 C1805 1.400 . S
C1805 C1799 1.491 1_564 S
C1805 C1804 1.400 . S
C1805 C1806 1.398 1_565 S
C1806 H1794 0.950 . S
C1806 C1805 1.398 1_545 S
C1806 C1807 1.391 1_545 S
C1807 H1795 0.950 1_565 S
C1807 C1803 1.393 . S
C1807 C1806 1.391 1_565 S
H1808 C1816 0.950 . S
H1809 C1821 0.950 . S
H1810 C1818 0.950 . S
H1811 C1820 0.950 . S
H1812 C1822 0.950 . S
H1813 C1824 0.950 . S
H1814 C1826 0.950 . S
H1815 C1827 0.950 . S
C1816 H1808 0.950 . S
C1816 C1817 1.386 . S
C1816 C1818 1.391 . S
C1817 C1816 1.386 . S
C1817 C1821 1.393 . S
C1818 H1810 0.950 . S
C1818 C1816 1.391 . S
C1818 C1819 1.400 . S
C1819 C1818 1.400 . S
C1819 C1820 1.398 . S
C1819 C1825 1.491 . S
C1820 H1811 0.950 . S
C1820 C1819 1.398 . S
C1820 C1821 1.391 . S
C1821 H1809 0.950 . S
C1821 C1817 1.393 . S
C1821 C1820 1.391 . S
C1822 H1812 0.950 . S
C1822 C1823 1.386 . S
C1822 C1824 1.391 . S
C1823 C1822 1.386 . S
C1823 C1827 1.393 . S
C1824 H1813 0.950 . S
C1824 C1822 1.391 . S
C1824 C1825 1.400 . S
C1825 C1819 1.491 . S
C1825 C1824 1.400 . S
C1825 C1826 1.398 . S
C1826 H1814 0.950 . S
C1826 C1825 1.398 . S
C1826 C1827 1.391 . S
C1827 H1815 0.950 . S
C1827 C1823 1.393 . S
C1827 C1826 1.391 . S
H1828 C1836 0.950 . S
H1829 C1841 0.950 1_545 S
H1830 C1838 0.950 . S
H1831 C1840 0.950 . S
H1832 C1842 0.950 . S
H1833 C1844 0.950 . S
H1834 C1846 0.950 . S
H1835 C1847 0.950 1_565 S
C1836 H1828 0.950 . S
C1836 C1837 1.386 . S
C1836 C1838 1.391 . S
C1837 C1836 1.386 . S
C1837 C1841 1.393 . S
C1838 H1830 0.950 . S
C1838 C1836 1.391 . S
C1838 C1839 1.400 . S
C1839 C1838 1.400 . S
C1839 C1840 1.398 1_565 S
C1839 C1845 1.491 1_565 S
C1840 H1831 0.950 . S
C1840 C1839 1.398 1_545 S
C1840 C1841 1.391 1_545 S
C1841 H1829 0.950 1_565 S
C1841 C1837 1.393 . S
C1841 C1840 1.391 1_565 S
C1842 H1832 0.950 . S
C1842 C1843 1.386 . S
C1842 C1844 1.391 . S
C1843 C1842 1.386 . S
C1843 C1847 1.393 . S
C1844 H1833 0.950 . S
C1844 C1842 1.391 . S
C1844 C1845 1.400 . S
C1845 C1839 1.491 1_545 S
C1845 C1844 1.400 . S
C1845 C1846 1.398 1_545 S
C1846 H1834 0.950 . S
C1846 C1845 1.398 1_565 S
C1846 C1847 1.391 1_565 S
C1847 H1835 0.950 1_545 S
C1847 C1843 1.393 . S
C1847 C1846 1.391 1_545 S
H1848 C1856 0.950 . S
H1849 C1861 0.950 . S
H1850 C1858 0.950 . S
H1851 C1860 0.950 . S
H1852 C1862 0.950 . S
H1853 C1864 0.950 . S
H1854 C1866 0.950 . S
H1855 C1867 0.950 . S
C1856 H1848 0.950 . S
C1856 C1857 1.386 . S
C1856 C1858 1.391 . S
C1857 C1856 1.386 . S
C1857 C1861 1.393 . S
C1858 H1850 0.950 . S
C1858 C1856 1.391 . S
C1858 C1859 1.400 . S
C1859 C1858 1.400 . S
C1859 C1860 1.398 . S
C1859 C1865 1.491 . S
C1860 H1851 0.950 . S
C1860 C1859 1.398 . S
C1860 C1861 1.391 . S
C1861 H1849 0.950 . S
C1861 C1857 1.393 . S
C1861 C1860 1.391 . S
C1862 H1852 0.950 . S
C1862 C1863 1.386 . S
C1862 C1864 1.391 . S
C1863 C1862 1.386 . S
C1863 C1867 1.393 . S
C1864 H1853 0.950 . S
C1864 C1862 1.391 . S
C1864 C1865 1.400 . S
C1865 C1859 1.491 . S
C1865 C1864 1.400 . S
C1865 C1866 1.398 . S
C1866 H1854 0.950 . S
C1866 C1865 1.398 . S
C1866 C1867 1.391 . S
C1867 H1855 0.950 . S
C1867 C1863 1.393 . S
C1867 C1866 1.391 . S
H1868 C1876 0.950 . S
H1869 C1881 0.950 . S
H1870 C1878 0.950 . S
H1871 C1880 0.914 1_565 S
H1872 C1882 0.950 . S
H1873 C1884 0.950 . S
H1874 C1886 0.914 1_545 S
H1875 C1887 0.950 . S
C1876 H1868 0.950 . S
C1876 C1877 1.386 . S
C1876 C1878 1.391 . S
C1877 C1876 1.386 . S
C1877 C1881 1.393 . S
C1878 H1870 0.950 . S
C1878 C1876 1.391 . S
C1878 C1879 1.400 . S
C1879 C1878 1.400 . S
C1879 C1880 1.410 . S
C1879 C1885 1.491 1_546 S
C1880 H1871 0.914 1_545 S
C1880 C1879 1.410 . S
C1880 C1881 1.417 . S
C1881 H1869 0.950 . S
C1881 C1877 1.393 . S
C1881 C1880 1.417 . S
C1882 H1872 0.950 . S
C1882 C1883 1.386 . S
C1882 C1884 1.391 . S
C1883 C1882 1.386 . S
C1883 C1887 1.393 . S
C1884 H1873 0.950 . S
C1884 C1882 1.391 . S
C1884 C1885 1.400 . S
C1885 C1879 1.491 1_564 S
C1885 C1884 1.400 . S
C1885 C1886 1.410 . S
C1886 H1874 0.914 1_565 S
C1886 C1885 1.410 . S
C1886 C1887 1.417 . S
C1887 H1875 0.950 . S
C1887 C1883 1.393 . S
C1887 C1886 1.417 . S
H1888 C1896 0.950 . S
H1889 C1901 0.950 . S
H1890 C1898 0.950 . S
H1891 C1900 0.950 . S
H1892 C1902 0.950 . S
H1893 C1904 0.950 . S
H1894 C1906 0.950 . S
H1895 C1907 0.950 . S
C1896 H1888 0.950 . S
C1896 C1897 1.386 . S
C1896 C1898 1.391 . S
C1897 C1896 1.386 . S
C1897 C1901 1.393 . S
C1898 H1890 0.950 . S
C1898 C1896 1.391 . S
C1898 C1899 1.400 . S
C1899 C1898 1.400 . S
C1899 C1900 1.398 . S
C1899 C1905 1.491 . S
C1900 H1891 0.950 . S
C1900 C1899 1.398 . S
C1900 C1901 1.391 . S
C1901 H1889 0.950 . S
C1901 C1897 1.393 . S
C1901 C1900 1.391 . S
C1902 H1892 0.950 . S
C1902 C1903 1.386 . S
C1902 C1904 1.391 . S
C1903 C1902 1.386 . S
C1903 C1907 1.393 . S
C1904 H1893 0.950 . S
C1904 C1902 1.391 . S
C1904 C1905 1.400 . S
C1905 C1899 1.491 . S
C1905 C1904 1.400 . S
C1905 C1906 1.398 . S
C1906 H1894 0.950 . S
C1906 C1905 1.398 . S
C1906 C1907 1.391 . S
C1907 H1895 0.950 . S
C1907 C1903 1.393 . S
C1907 C1906 1.391 . S
H1908 C1916 0.950 . S
H1909 C1921 0.950 . S
H1910 C1918 0.950 . S
H1911 C1920 0.950 . S
H1912 C1922 0.950 . S
H1913 C1924 0.950 . S
H1914 C1926 0.950 . S
H1915 C1927 0.950 . S
C1916 H1908 0.950 . S
C1916 C1917 1.386 . S
C1916 C1918 1.391 . S
C1917 C1916 1.386 . S
C1917 C1921 1.393 . S
C1918 H1910 0.950 . S
C1918 C1916 1.391 . S
C1918 C1919 1.400 . S
C1919 C1918 1.400 . S
C1919 C1920 1.398 . S
C1919 C1925 1.491 1_554 S
C1920 H1911 0.950 . S
C1920 C1919 1.398 . S
C1920 C1921 1.391 . S
C1921 H1909 0.950 . S
C1921 C1917 1.393 . S
C1921 C1920 1.391 . S
C1922 H1912 0.950 . S
C1922 C1923 1.386 . S
C1922 C1924 1.391 . S
C1923 C1922 1.386 . S
C1923 C1927 1.393 . S
C1924 H1913 0.950 . S
C1924 C1922 1.391 . S
C1924 C1925 1.400 . S
C1925 C1919 1.491 1_556 S
C1925 C1924 1.400 . S
C1925 C1926 1.398 . S
C1926 H1914 0.950 . S
C1926 C1925 1.398 . S
C1926 C1927 1.391 . S
C1927 H1915 0.950 . S
C1927 C1923 1.393 . S
C1927 C1926 1.391 . S
H1928 C1936 0.950 . S
H1929 C1941 0.950 . S
H1930 C1938 0.950 . S
H1931 C1940 0.950 . S
H1932 C1942 0.950 . S
H1933 C1944 0.950 . S
H1934 C1946 0.950 . S
H1935 C1947 0.950 . S
C1936 H1928 0.950 . S
C1936 C1937 1.386 . S
C1936 C1938 1.391 . S
C1937 C1936 1.386 . S
C1937 C1941 1.393 . S
C1938 H1930 0.950 . S
C1938 C1936 1.391 . S
C1938 C1939 1.400 . S
C1939 C1938 1.400 . S
C1939 C1940 1.398 . S
C1939 C1945 1.491 . S
C1940 H1931 0.950 . S
C1940 C1939 1.398 . S
C1940 C1941 1.391 . S
C1941 H1929 0.950 . S
C1941 C1937 1.393 . S
C1941 C1940 1.391 . S
C1942 H1932 0.950 . S
C1942 C1943 1.386 . S
C1942 C1944 1.391 . S
C1943 C1942 1.386 . S
C1943 C1947 1.393 . S
C1944 H1933 0.950 . S
C1944 C1942 1.391 . S
C1944 C1945 1.400 . S
C1945 C1939 1.491 . S
C1945 C1944 1.400 . S
C1945 C1946 1.398 . S
C1946 H1934 0.950 . S
C1946 C1945 1.398 . S
C1946 C1947 1.391 . S
C1947 H1935 0.950 . S
C1947 C1943 1.393 . S
C1947 C1946 1.391 . S
H1948 C1956 0.950 . S
H1949 C1961 0.950 . S
H1950 C1958 0.950 . S
H1951 C1960 0.950 . S
H1952 C1962 0.950 . S
H1953 C1964 0.950 . S
H1954 C1966 0.950 . S
H1955 C1967 0.950 . S
C1956 H1948 0.950 . S
C1956 C1957 1.386 . S
C1956 C1958 1.391 . S
C1957 C1956 1.386 . S
C1957 C1961 1.393 . S
C1958 H1950 0.950 . S
C1958 C1956 1.391 . S
C1958 C1959 1.400 . S
C1959 C1958 1.400 . S
C1959 C1960 1.398 . S
C1959 C1965 1.491 . S
C1960 H1951 0.950 . S
C1960 C1959 1.398 . S
C1960 C1961 1.391 . S
C1961 H1949 0.950 . S
C1961 C1957 1.393 . S
C1961 C1960 1.391 . S
C1962 H1952 0.950 . S
C1962 C1963 1.386 . S
C1962 C1964 1.391 . S
C1963 C1962 1.386 . S
C1963 C1967 1.393 . S
C1964 H1953 0.950 . S
C1964 C1962 1.391 . S
C1964 C1965 1.400 . S
C1965 C1959 1.491 . S
C1965 C1964 1.400 . S
C1965 C1966 1.398 . S
C1966 H1954 0.950 . S
C1966 C1965 1.398 . S
C1966 C1967 1.391 . S
C1967 H1955 0.950 . S
C1967 C1963 1.393 . S
C1967 C1966 1.391 . S
H1968 C1976 0.950 . S
H1969 C1981 0.950 . S
H1970 C1978 0.950 . S
H1971 C1980 0.950 . S
H1972 C1982 0.950 . S
H1973 C1984 0.950 . S
H1974 C1986 0.950 . S
H1975 C1987 0.950 . S
C1976 H1968 0.950 . S
C1976 C1977 1.386 . S
C1976 C1978 1.391 . S
C1977 C1976 1.386 . S
C1977 C1981 1.393 . S
C1978 H1970 0.950 . S
C1978 C1976 1.391 . S
C1978 C1979 1.400 . S
C1979 C1978 1.400 . S
C1979 C1980 1.398 . S
C1979 C1985 1.491 . S
C1980 H1971 0.950 . S
C1980 C1979 1.398 . S
C1980 C1981 1.391 . S
C1981 H1969 0.950 . S
C1981 C1977 1.393 . S
C1981 C1980 1.391 . S
C1982 H1972 0.950 . S
C1982 C1983 1.386 . S
C1982 C1984 1.391 . S
C1983 C1982 1.386 . S
C1983 C1987 1.393 . S
C1984 H1973 0.950 . S
C1984 C1982 1.391 . S
C1984 C1985 1.400 . S
C1985 C1979 1.491 . S
C1985 C1984 1.400 . S
C1985 C1986 1.398 . S
C1986 H1974 0.950 . S
C1986 C1985 1.398 . S
C1986 C1987 1.391 . S
C1987 H1975 0.950 . S
C1987 C1983 1.393 . S
C1987 C1986 1.391 . S
H1988 C1996 0.950 . S
H1989 C2001 0.950 . S
H1990 C1998 0.950 . S
H1991 C2000 0.950 . S
H1992 C2002 0.950 . S
H1993 C2004 0.950 . S
H1994 C2006 0.950 . S
H1995 C2007 0.950 . S
C1996 H1988 0.950 . S
C1996 C1997 1.386 . S
C1996 C1998 1.391 . S
C1997 C1996 1.386 . S
C1997 C2001 1.393 . S
C1998 H1990 0.950 . S
C1998 C1996 1.391 . S
C1998 C1999 1.400 . S
C1999 C1998 1.400 . S
C1999 C2000 1.398 . S
C1999 C2005 1.491 1_556 S
C2000 H1991 0.950 . S
C2000 C1999 1.398 . S
C2000 C2001 1.391 . S
C2001 H1989 0.950 . S
C2001 C1997 1.393 . S
C2001 C2000 1.391 . S
C2002 H1992 0.950 . S
C2002 C2003 1.386 . S
C2002 C2004 1.391 . S
C2003 C2002 1.386 . S
C2003 C2007 1.393 . S
C2004 H1993 0.950 . S
C2004 C2002 1.391 . S
C2004 C2005 1.400 . S
C2005 C1999 1.491 1_554 S
C2005 C2004 1.400 . S
C2005 C2006 1.398 . S
C2006 H1994 0.950 . S
C2006 C2005 1.398 . S
C2006 C2007 1.391 . S
C2007 H1995 0.950 . S
C2007 C2003 1.393 . S
C2007 C2006 1.391 . S
H2008 C2016 0.950 . S
H2009 C2021 0.950 . S
H2010 C2018 0.950 . S
H2011 C2020 0.950 . S
H2012 C2022 0.950 . S
H2013 C2024 0.950 . S
H2014 C2026 0.950 . S
H2015 C2027 0.950 . S
C2016 H2008 0.950 . S
C2016 C2017 1.386 . S
C2016 C2018 1.391 . S
C2017 C2016 1.386 . S
C2017 C2021 1.393 . S
C2018 H2010 0.950 . S
C2018 C2016 1.391 . S
C2018 C2019 1.400 . S
C2019 C2018 1.400 . S
C2019 C2020 1.398 . S
C2019 C2025 1.491 . S
C2020 H2011 0.950 . S
C2020 C2019 1.398 . S
C2020 C2021 1.391 . S
C2021 H2009 0.950 . S
C2021 C2017 1.393 . S
C2021 C2020 1.391 . S
C2022 H2012 0.950 . S
C2022 C2023 1.386 . S
C2022 C2024 1.391 . S
C2023 C2022 1.386 . S
C2023 C2027 1.393 . S
C2024 H2013 0.950 . S
C2024 C2022 1.391 . S
C2024 C2025 1.400 . S
C2025 C2019 1.491 . S
C2025 C2024 1.400 . S
C2025 C2026 1.398 . S
C2026 H2014 0.950 . S
C2026 C2025 1.398 . S
C2026 C2027 1.391 . S
C2027 H2015 0.950 . S
C2027 C2023 1.393 . S
C2027 C2026 1.391 . S
H2028 C2036 0.950 . S
H2029 C2041 0.950 . S
H2030 C2038 0.950 . S
H2031 C2040 0.950 . S
H2032 C2042 0.950 . S
H2033 C2044 0.950 . S
H2034 C2046 0.950 . S
H2035 C2047 0.950 . S
C2036 H2028 0.950 . S
C2036 C2037 1.386 . S
C2036 C2038 1.391 . S
C2037 C2036 1.386 . S
C2037 C2041 1.393 . S
C2038 H2030 0.950 . S
C2038 C2036 1.391 . S
C2038 C2039 1.400 . S
C2039 C2038 1.400 . S
C2039 C2040 1.398 . S
C2039 C2045 1.491 . S
C2040 H2031 0.950 . S
C2040 C2039 1.398 . S
C2040 C2041 1.391 . S
C2041 H2029 0.950 . S
C2041 C2037 1.393 . S
C2041 C2040 1.391 . S
C2042 H2032 0.950 . S
C2042 C2043 1.386 . S
C2042 C2044 1.391 . S
C2043 C2042 1.386 . S
C2043 C2047 1.393 . S
C2044 H2033 0.950 . S
C2044 C2042 1.391 . S
C2044 C2045 1.400 . S
C2045 C2039 1.491 . S
C2045 C2044 1.400 . S
C2045 C2046 1.398 . S
C2046 H2034 0.950 . S
C2046 C2045 1.398 . S
C2046 C2047 1.391 . S
C2047 H2035 0.950 . S
C2047 C2043 1.393 . S
C2047 C2046 1.391 . S
H2048 C2056 0.950 . S
H2049 C2061 0.950 . S
H2050 C2058 0.950 . S
H2051 C2060 0.950 . S
H2052 C2062 0.950 . S
H2053 C2064 0.950 . S
H2054 C2066 0.950 . S
H2055 C2067 0.950 . S
C2056 H2048 0.950 . S
C2056 C2057 1.386 . S
C2056 C2058 1.391 . S
C2057 C2056 1.386 . S
C2057 C2061 1.393 . S
C2058 H2050 0.950 . S
C2058 C2056 1.391 . S
C2058 C2059 1.400 . S
C2059 C2058 1.400 . S
C2059 C2060 1.398 . S
C2059 C2065 1.491 . S
C2060 H2051 0.950 . S
C2060 C2059 1.398 . S
C2060 C2061 1.391 . S
C2061 H2049 0.950 . S
C2061 C2057 1.393 . S
C2061 C2060 1.391 . S
C2062 H2052 0.950 . S
C2062 C2063 1.386 . S
C2062 C2064 1.391 . S
C2063 C2062 1.386 . S
C2063 C2067 1.393 . S
C2064 H2053 0.950 . S
C2064 C2062 1.391 . S
C2064 C2065 1.400 . S
C2065 C2059 1.491 . S
C2065 C2064 1.400 . S
C2065 C2066 1.398 . S
C2066 H2054 0.950 . S
C2066 C2065 1.398 . S
C2066 C2067 1.391 . S
C2067 H2055 0.950 . S
C2067 C2063 1.393 . S
C2067 C2066 1.391 . S
H2068 C2076 0.950 . S
H2069 C2081 0.950 . S
H2070 C2078 0.950 . S
H2071 C2080 0.950 . S
H2072 C2082 0.950 . S
H2073 C2084 0.950 . S
H2074 C2086 0.950 . S
H2075 C2087 0.950 . S
C2076 H2068 0.950 . S
C2076 C2077 1.386 . S
C2076 C2078 1.391 . S
C2077 C2076 1.386 . S
C2077 C2081 1.393 . S
C2078 H2070 0.950 . S
C2078 C2076 1.391 . S
C2078 C2079 1.400 . S
C2079 C2078 1.400 . S
C2079 C2080 1.398 . S
C2079 C2085 1.491 . S
C2080 H2071 0.950 . S
C2080 C2079 1.398 . S
C2080 C2081 1.391 . S
C2081 H2069 0.950 . S
C2081 C2077 1.393 . S
C2081 C2080 1.391 . S
C2082 H2072 0.950 . S
C2082 C2083 1.386 . S
C2082 C2084 1.391 . S
C2083 C2082 1.386 . S
C2083 C2087 1.393 . S
C2084 H2073 0.950 . S
C2084 C2082 1.391 . S
C2084 C2085 1.400 . S
C2085 C2079 1.491 . S
C2085 C2084 1.400 . S
C2085 C2086 1.398 . S
C2086 H2074 0.950 . S
C2086 C2085 1.398 . S
C2086 C2087 1.391 . S
C2087 H2075 0.950 . S
C2087 C2083 1.393 . S
C2087 C2086 1.391 . S
H2088 C2096 0.950 . S
H2089 C2101 0.950 . S
H2090 C2098 0.950 . S
H2091 C2100 0.950 . S
H2092 C2102 0.950 . S
H2093 C2104 0.950 . S
H2094 C2106 0.950 . S
H2095 C2107 0.950 . S
C2096 H2088 0.950 . S
C2096 C2097 1.386 . S
C2096 C2098 1.391 . S
C2097 C2096 1.386 . S
C2097 C2101 1.393 . S
C2098 H2090 0.950 . S
C2098 C2096 1.391 . S
C2098 C2099 1.400 . S
C2099 C2098 1.400 . S
C2099 C2100 1.398 . S
C2099 C2105 1.491 . S
C2100 H2091 0.950 . S
C2100 C2099 1.398 . S
C2100 C2101 1.391 . S
C2101 H2089 0.950 . S
C2101 C2097 1.393 . S
C2101 C2100 1.391 . S
C2102 H2092 0.950 . S
C2102 C2103 1.386 . S
C2102 C2104 1.391 . S
C2103 C2102 1.386 . S
C2103 C2107 1.393 . S
C2104 H2093 0.950 . S
C2104 C2102 1.391 . S
C2104 C2105 1.400 . S
C2105 C2099 1.491 . S
C2105 C2104 1.400 . S
C2105 C2106 1.398 . S
C2106 H2094 0.950 . S
C2106 C2105 1.398 . S
C2106 C2107 1.391 . S
C2107 H2095 0.950 . S
C2107 C2103 1.393 . S
C2107 C2106 1.391 . S
H2108 C2116 0.950 . S
H2109 C2121 0.950 . S
H2110 C2118 0.950 . S
H2111 C2120 0.950 . S
H2112 C2122 0.950 . S
H2113 C2124 0.950 . S
H2114 C2126 0.950 . S
H2115 C2127 0.950 . S
C2116 H2108 0.950 . S
C2116 C2117 1.386 . S
C2116 C2118 1.391 . S
C2117 C2116 1.386 . S
C2117 C2121 1.393 . S
C2118 H2110 0.950 . S
C2118 C2116 1.391 . S
C2118 C2119 1.400 . S
C2119 C2118 1.400 . S
C2119 C2120 1.398 . S
C2119 C2125 1.491 . S
C2120 H2111 0.950 . S
C2120 C2119 1.398 . S
C2120 C2121 1.391 . S
C2121 H2109 0.950 . S
C2121 C2117 1.393 . S
C2121 C2120 1.391 . S
C2122 H2112 0.950 . S
C2122 C2123 1.386 . S
C2122 C2124 1.391 . S
C2123 C2122 1.386 . S
C2123 C2127 1.393 . S
C2124 H2113 0.950 . S
C2124 C2122 1.391 . S
C2124 C2125 1.400 . S
C2125 C2119 1.491 . S
C2125 C2124 1.400 . S
C2125 C2126 1.398 . S
C2126 H2114 0.950 . S
C2126 C2125 1.398 . S
C2126 C2127 1.391 . S
C2127 H2115 0.950 . S
C2127 C2123 1.393 . S
C2127 C2126 1.391 . S
H2128 C2136 0.950 . S
H2129 C2141 0.950 . S
H2130 C2138 0.950 . S
H2131 C2140 0.950 . S
H2132 C2142 0.950 . S
H2133 C2144 0.950 . S
H2134 C2146 0.950 . S
H2135 C2147 0.950 . S
C2136 H2128 0.950 . S
C2136 C2137 1.386 . S
C2136 C2138 1.391 . S
C2137 C2136 1.386 . S
C2137 C2141 1.393 . S
C2138 H2130 0.950 . S
C2138 C2136 1.391 . S
C2138 C2139 1.400 . S
C2139 C2138 1.400 . S
C2139 C2140 1.398 . S
C2139 C2145 1.491 . S
C2140 H2131 0.950 . S
C2140 C2139 1.398 . S
C2140 C2141 1.391 . S
C2141 H2129 0.950 . S
C2141 C2137 1.393 . S
C2141 C2140 1.391 . S
C2142 H2132 0.950 . S
C2142 C2143 1.386 . S
C2142 C2144 1.391 . S
C2143 C2142 1.386 . S
C2143 C2147 1.393 . S
C2144 H2133 0.950 . S
C2144 C2142 1.391 . S
C2144 C2145 1.400 . S
C2145 C2139 1.491 . S
C2145 C2144 1.400 . S
C2145 C2146 1.398 . S
C2146 H2134 0.950 . S
C2146 C2145 1.398 . S
C2146 C2147 1.391 . S
C2147 H2135 0.950 . S
C2147 C2143 1.393 . S
C2147 C2146 1.391 . S
H2148 C2156 0.950 . S
H2149 C2161 0.950 . S
H2150 C2158 0.950 . S
H2151 C2160 0.950 . S
H2152 C2162 0.950 . S
H2153 C2164 0.950 . S
H2154 C2166 0.950 . S
H2155 C2167 0.950 . S
C2156 H2148 0.950 . S
C2156 C2157 1.386 . S
C2156 C2158 1.391 . S
C2157 C2156 1.386 . S
C2157 C2161 1.393 . S
C2158 H2150 0.950 . S
C2158 C2156 1.391 . S
C2158 C2159 1.400 . S
C2159 C2158 1.400 . S
C2159 C2160 1.398 . S
C2159 C2165 1.491 . S
C2160 H2151 0.950 . S
C2160 C2159 1.398 . S
C2160 C2161 1.391 . S
C2161 H2149 0.950 . S
C2161 C2157 1.393 . S
C2161 C2160 1.391 . S
C2162 H2152 0.950 . S
C2162 C2163 1.386 . S
C2162 C2164 1.391 . S
C2163 C2162 1.386 . S
C2163 C2167 1.393 . S
C2164 H2153 0.950 . S
C2164 C2162 1.391 . S
C2164 C2165 1.400 . S
C2165 C2159 1.491 . S
C2165 C2164 1.400 . S
C2165 C2166 1.398 . S
C2166 H2154 0.950 . S
C2166 C2165 1.398 . S
C2166 C2167 1.391 . S
C2167 H2155 0.950 . S
C2167 C2163 1.393 . S
C2167 C2166 1.391 . S
H2168 C2176 0.950 . S
H2169 C2181 0.950 . S
H2170 C2178 0.950 . S
H2171 C2180 0.950 . S
H2172 C2182 0.950 . S
H2173 C2184 0.950 . S
H2174 C2186 0.950 . S
H2175 C2187 0.950 . S
C2176 H2168 0.950 . S
C2176 C2177 1.386 . S
C2176 C2178 1.391 . S
C2177 C2176 1.386 . S
C2177 C2181 1.393 . S
C2178 H2170 0.950 . S
C2178 C2176 1.391 . S
C2178 C2179 1.400 . S
C2179 C2178 1.400 . S
C2179 C2180 1.398 . S
C2179 C2185 1.491 . S
C2180 H2171 0.950 . S
C2180 C2179 1.398 . S
C2180 C2181 1.391 . S
C2181 H2169 0.950 . S
C2181 C2177 1.393 . S
C2181 C2180 1.391 . S
C2182 H2172 0.950 . S
C2182 C2183 1.386 . S
C2182 C2184 1.391 . S
C2183 C2182 1.386 . S
C2183 C2187 1.393 . S
C2184 H2173 0.950 . S
C2184 C2182 1.391 . S
C2184 C2185 1.400 . S
C2185 C2179 1.491 . S
C2185 C2184 1.400 . S
C2185 C2186 1.398 . S
C2186 H2174 0.950 . S
C2186 C2185 1.398 . S
C2186 C2187 1.391 . S
C2187 H2175 0.950 . S
C2187 C2183 1.393 . S
C2187 C2186 1.391 . S
H2188 C2196 0.950 . S
H2189 C2201 0.950 . S
H2190 C2198 0.950 . S
H2191 C2200 0.950 . S
H2192 C2202 0.950 . S
H2193 C2204 0.950 . S
H2194 C2206 0.950 . S
H2195 C2207 0.950 . S
C2196 H2188 0.950 . S
C2196 C2197 1.386 . S
C2196 C2198 1.391 . S
C2197 C2196 1.386 . S
C2197 C2201 1.393 . S
C2198 H2190 0.950 . S
C2198 C2196 1.391 . S
C2198 C2199 1.400 . S
C2199 C2198 1.400 . S
C2199 C2200 1.398 . S
C2199 C2205 1.491 . S
C2200 H2191 0.950 . S
C2200 C2199 1.398 . S
C2200 C2201 1.391 . S
C2201 H2189 0.950 . S
C2201 C2197 1.393 . S
C2201 C2200 1.391 . S
C2202 H2192 0.950 . S
C2202 C2203 1.386 . S
C2202 C2204 1.391 . S
C2203 C2202 1.386 . S
C2203 C2207 1.393 . S
C2204 H2193 0.950 . S
C2204 C2202 1.391 . S
C2204 C2205 1.400 . S
C2205 C2199 1.491 . S
C2205 C2204 1.400 . S
C2205 C2206 1.398 . S
C2206 H2194 0.950 . S
C2206 C2205 1.398 . S
C2206 C2207 1.391 . S
C2207 H2195 0.950 . S
C2207 C2203 1.393 . S
C2207 C2206 1.391 . S
H2208 C2216 0.950 . S
H2209 C2221 0.950 . S
H2210 C2218 0.950 . S
H2211 C2220 0.950 . S
H2212 C2222 0.950 . S
H2213 C2224 0.950 . S
H2214 C2226 0.950 . S
H2215 C2227 0.950 . S
C2216 H2208 0.950 . S
C2216 C2217 1.386 . S
C2216 C2218 1.391 . S
C2217 C2216 1.386 . S
C2217 C2221 1.393 . S
C2218 H2210 0.950 . S
C2218 C2216 1.391 . S
C2218 C2219 1.400 . S
C2219 C2218 1.400 . S
C2219 C2220 1.398 . S
C2219 C2225 1.491 . S
C2220 H2211 0.950 . S
C2220 C2219 1.398 . S
C2220 C2221 1.391 . S
C2221 H2209 0.950 . S
C2221 C2217 1.393 . S
C2221 C2220 1.391 . S
C2222 H2212 0.950 . S
C2222 C2223 1.386 . S
C2222 C2224 1.391 . S
C2223 C2222 1.386 . S
C2223 C2227 1.393 . S
C2224 H2213 0.950 . S
C2224 C2222 1.391 . S
C2224 C2225 1.400 . S
C2225 C2219 1.491 . S
C2225 C2224 1.400 . S
C2225 C2226 1.398 . S
C2226 H2214 0.950 . S
C2226 C2225 1.398 . S
C2226 C2227 1.391 . S
C2227 H2215 0.950 . S
C2227 C2223 1.393 . S
C2227 C2226 1.391 . S
H2228 C2236 0.950 . S
H2229 C2241 0.950 . S
H2230 C2238 0.950 . S
H2231 C2240 0.950 . S
H2232 C2242 0.950 . S
H2233 C2244 0.950 . S
H2234 C2246 0.950 . S
H2235 C2247 0.950 . S
C2236 H2228 0.950 . S
C2236 C2237 1.386 . S
C2236 C2238 1.391 . S
C2237 C2236 1.386 . S
C2237 C2241 1.393 . S
C2238 H2230 0.950 . S
C2238 C2236 1.391 . S
C2238 C2239 1.400 . S
C2239 C2238 1.400 . S
C2239 C2240 1.398 . S
C2239 C2245 1.491 . S
C2240 H2231 0.950 . S
C2240 C2239 1.398 . S
C2240 C2241 1.391 . S
C2241 H2229 0.950 . S
C2241 C2237 1.393 . S
C2241 C2240 1.391 . S
C2242 H2232 0.950 . S
C2242 C2243 1.386 . S
C2242 C2244 1.391 . S
C2243 C2242 1.386 . S
C2243 C2247 1.393 . S
C2244 H2233 0.950 . S
C2244 C2242 1.391 . S
C2244 C2245 1.400 . S
C2245 C2239 1.491 . S
C2245 C2244 1.400 . S
C2245 C2246 1.398 . S
C2246 H2234 0.950 . S
C2246 C2245 1.398 . S
C2246 C2247 1.391 . S
C2247 H2235 0.950 . S
C2247 C2243 1.393 . S
C2247 C2246 1.391 . S
H2248 C2256 0.950 . S
H2249 C2261 0.950 . S
H2250 C2258 0.950 . S
H2251 C2260 0.950 . S
H2252 C2262 0.950 . S
H2253 C2264 0.950 . S
H2254 C2266 0.950 . S
H2255 C2267 0.950 . S
C2256 H2248 0.950 . S
C2256 C2257 1.386 . S
C2256 C2258 1.391 . S
C2257 C2256 1.386 . S
C2257 C2261 1.393 . S
C2258 H2250 0.950 . S
C2258 C2256 1.391 . S
C2258 C2259 1.400 . S
C2259 C2258 1.400 . S
C2259 C2260 1.398 . S
C2259 C2265 1.491 . S
C2260 H2251 0.950 . S
C2260 C2259 1.398 . S
C2260 C2261 1.391 . S
C2261 H2249 0.950 . S
C2261 C2257 1.393 . S
C2261 C2260 1.391 . S
C2262 H2252 0.950 . S
C2262 C2263 1.386 . S
C2262 C2264 1.391 . S
C2263 C2262 1.386 . S
C2263 C2267 1.393 . S
C2264 H2253 0.950 . S
C2264 C2262 1.391 . S
C2264 C2265 1.400 . S
C2265 C2259 1.491 . S
C2265 C2264 1.400 . S
C2265 C2266 1.398 . S
C2266 H2254 0.950 . S
C2266 C2265 1.398 . S
C2266 C2267 1.391 . S
C2267 H2255 0.950 . S
C2267 C2263 1.393 . S
C2267 C2266 1.391 . S
H2268 C2276 0.950 . S
H2269 C2281 0.950 . S
H2270 C2278 0.950 . S
H2271 C2280 0.950 . S
H2272 C2282 0.950 . S
H2273 C2284 0.950 . S
H2274 C2286 0.950 . S
H2275 C2287 0.950 . S
C2276 H2268 0.950 . S
C2276 C2277 1.386 . S
C2276 C2278 1.391 . S
C2277 C2276 1.386 . S
C2277 C2281 1.393 . S
C2278 H2270 0.950 . S
C2278 C2276 1.391 . S
C2278 C2279 1.400 . S
C2279 C2278 1.400 . S
C2279 C2280 1.398 . S
C2279 C2285 1.491 . S
C2280 H2271 0.950 . S
C2280 C2279 1.398 . S
C2280 C2281 1.391 . S
C2281 H2269 0.950 . S
C2281 C2277 1.393 . S
C2281 C2280 1.391 . S
C2282 H2272 0.950 . S
C2282 C2283 1.386 . S
C2282 C2284 1.391 . S
C2283 C2282 1.386 . S
C2283 C2287 1.393 . S
C2284 H2273 0.950 . S
C2284 C2282 1.391 . S
C2284 C2285 1.400 . S
C2285 C2279 1.491 . S
C2285 C2284 1.400 . S
C2285 C2286 1.398 . S
C2286 H2274 0.950 . S
C2286 C2285 1.398 . S
C2286 C2287 1.391 . S
C2287 H2275 0.950 . S
C2287 C2283 1.393 . S
C2287 C2286 1.391 . S
H2288 C2296 0.950 . S
H2289 C2301 0.950 . S
H2290 C2298 0.950 . S
H2291 C2300 0.950 . S
H2292 C2302 0.950 . S
H2293 C2304 0.950 . S
H2294 C2306 0.950 . S
H2295 C2307 0.950 . S
C2296 H2288 0.950 . S
C2296 C2297 1.386 . S
C2296 C2298 1.391 . S
C2297 C2296 1.386 . S
C2297 C2301 1.393 . S
C2298 H2290 0.950 . S
C2298 C2296 1.391 . S
C2298 C2299 1.400 . S
C2299 C2298 1.400 . S
C2299 C2300 1.398 . S
C2299 C2305 1.491 . S
C2300 H2291 0.950 . S
C2300 C2299 1.398 . S
C2300 C2301 1.391 . S
C2301 H2289 0.950 . S
C2301 C2297 1.393 . S
C2301 C2300 1.391 . S
C2302 H2292 0.950 . S
C2302 C2303 1.386 . S
C2302 C2304 1.391 . S
C2303 C2302 1.386 . S
C2303 C2307 1.393 . S
C2304 H2293 0.950 . S
C2304 C2302 1.391 . S
C2304 C2305 1.400 . S
C2305 C2299 1.491 . S
C2305 C2304 1.400 . S
C2305 C2306 1.398 . S
C2306 H2294 0.950 . S
C2306 C2305 1.398 . S
C2306 C2307 1.391 . S
C2307 H2295 0.950 . S
C2307 C2303 1.393 . S
C2307 C2306 1.391 . S
H2308 C2316 0.950 . S
H2309 C2321 0.950 . S
H2310 C2318 0.950 . S
H2311 C2320 0.950 . S
H2312 C2322 0.950 . S
H2313 C2324 0.950 . S
H2314 C2326 0.950 . S
H2315 C2327 0.950 . S
C2316 H2308 0.950 . S
C2316 C2317 1.386 . S
C2316 C2318 1.391 . S
C2317 C2316 1.386 . S
C2317 C2321 1.393 . S
C2318 H2310 0.950 . S
C2318 C2316 1.391 . S
C2318 C2319 1.400 . S
C2319 C2318 1.400 . S
C2319 C2320 1.398 . S
C2319 C2325 1.491 . S
C2320 H2311 0.950 . S
C2320 C2319 1.398 . S
C2320 C2321 1.391 . S
C2321 H2309 0.950 . S
C2321 C2317 1.393 . S
C2321 C2320 1.391 . S
C2322 H2312 0.950 . S
C2322 C2323 1.386 . S
C2322 C2324 1.391 . S
C2323 C2322 1.386 . S
C2323 C2327 1.393 . S
C2324 H2313 0.950 . S
C2324 C2322 1.391 . S
C2324 C2325 1.400 . S
C2325 C2319 1.491 . S
C2325 C2324 1.400 . S
C2325 C2326 1.398 . S
C2326 H2314 0.950 . S
C2326 C2325 1.398 . S
C2326 C2327 1.391 . S
C2327 H2315 0.950 . S
C2327 C2323 1.393 . S
C2327 C2326 1.391 . S
H2328 C2336 0.950 . S
H2329 C2341 0.950 . S
H2330 C2338 0.950 . S
H2331 C2340 0.950 . S
H2332 C2342 0.950 . S
H2333 C2344 0.950 . S
H2334 C2346 0.950 . S
H2335 C2347 0.950 . S
C2336 H2328 0.950 . S
C2336 C2337 1.386 . S
C2336 C2338 1.391 . S
C2337 C2336 1.386 . S
C2337 C2341 1.393 . S
C2338 H2330 0.950 . S
C2338 C2336 1.391 . S
C2338 C2339 1.400 . S
C2339 C2338 1.400 . S
C2339 C2340 1.398 . S
C2339 C2345 1.491 . S
C2340 H2331 0.950 . S
C2340 C2339 1.398 . S
C2340 C2341 1.391 . S
C2341 H2329 0.950 . S
C2341 C2337 1.393 . S
C2341 C2340 1.391 . S
C2342 H2332 0.950 . S
C2342 C2343 1.386 . S
C2342 C2344 1.391 . S
C2343 C2342 1.386 . S
C2343 C2347 1.393 . S
C2344 H2333 0.950 . S
C2344 C2342 1.391 . S
C2344 C2345 1.400 . S
C2345 C2339 1.491 . S
C2345 C2344 1.400 . S
C2345 C2346 1.398 . S
C2346 H2334 0.950 . S
C2346 C2345 1.398 . S
C2346 C2347 1.391 . S
C2347 H2335 0.950 . S
C2347 C2343 1.393 . S
C2347 C2346 1.391 . S
H2348 C2356 0.950 . S
H2349 C2361 0.950 . S
H2350 C2358 0.950 . S
H2351 C2360 0.950 . S
H2352 C2362 0.950 . S
H2353 C2364 0.950 . S
H2354 C2366 0.950 . S
H2355 C2367 0.950 . S
C2356 H2348 0.950 . S
C2356 C2357 1.386 . S
C2356 C2358 1.391 . S
C2357 C2356 1.386 . S
C2357 C2361 1.393 . S
C2358 H2350 0.950 . S
C2358 C2356 1.391 . S
C2358 C2359 1.400 . S
C2359 C2358 1.400 . S
C2359 C2360 1.398 . S
C2359 C2365 1.491 . S
C2360 H2351 0.950 . S
C2360 C2359 1.398 . S
C2360 C2361 1.391 . S
C2361 H2349 0.950 . S
C2361 C2357 1.393 . S
C2361 C2360 1.391 . S
C2362 H2352 0.950 . S
C2362 C2363 1.386 . S
C2362 C2364 1.391 . S
C2363 C2362 1.386 . S
C2363 C2367 1.393 . S
C2364 H2353 0.950 . S
C2364 C2362 1.391 . S
C2364 C2365 1.400 . S
C2365 C2359 1.491 . S
C2365 C2364 1.400 . S
C2365 C2366 1.398 . S
C2366 H2354 0.950 . S
C2366 C2365 1.398 . S
C2366 C2367 1.391 . S
C2367 H2355 0.950 . S
C2367 C2363 1.393 . S
C2367 C2366 1.391 . S
H2368 C2376 0.950 . S
H2369 C2381 0.950 1_556 S
H2370 C2378 0.950 . S
H2371 C2380 0.950 1_556 S
H2372 C2382 0.950 1_556 S
H2373 C2384 0.950 1_556 S
H2374 C2386 0.950 . S
H2375 C2387 0.950 . S
C2376 H2368 0.950 . S
C2376 C2377 1.386 . S
C2376 C2378 1.391 . S
C2377 C2376 1.386 . S
C2377 C2381 1.393 . S
C2378 H2370 0.950 . S
C2378 C2376 1.391 . S
C2378 C2379 1.400 . S
C2379 C2378 1.400 . S
C2379 C2380 1.398 . S
C2379 C2385 1.491 . S
C2380 H2371 0.950 1_554 S
C2380 C2379 1.398 . S
C2380 C2381 1.391 . S
C2381 H2369 0.950 1_554 S
C2381 C2377 1.393 . S
C2381 C2380 1.391 . S
C2382 H2372 0.950 1_554 S
C2382 C2383 1.386 . S
C2382 C2384 1.391 . S
C2383 C2382 1.386 . S
C2383 C2387 1.393 . S
C2384 H2373 0.950 1_554 S
C2384 C2382 1.391 . S
C2384 C2385 1.400 . S
C2385 C2379 1.491 . S
C2385 C2384 1.400 . S
C2385 C2386 1.398 . S
C2386 H2374 0.950 . S
C2386 C2385 1.398 . S
C2386 C2387 1.391 . S
C2387 H2375 0.950 . S
C2387 C2383 1.393 . S
C2387 C2386 1.391 . S
H2388 C2396 0.950 . S
H2389 C2401 0.950 . S
H2390 C2398 0.950 . S
H2391 C2400 0.950 . S
H2392 C2402 0.950 . S
H2393 C2404 0.950 . S
H2394 C2406 0.950 . S
H2395 C2407 0.950 . S
C2396 H2388 0.950 . S
C2396 C2397 1.386 . S
C2396 C2398 1.391 . S
C2397 C2396 1.386 . S
C2397 C2401 1.393 . S
C2398 H2390 0.950 . S
C2398 C2396 1.391 . S
C2398 C2399 1.400 . S
C2399 C2398 1.400 . S
C2399 C2400 1.398 . S
C2399 C2405 1.491 1_655 S
C2400 H2391 0.950 . S
C2400 C2399 1.398 . S
C2400 C2401 1.391 . S
C2401 H2389 0.950 . S
C2401 C2397 1.393 . S
C2401 C2400 1.391 . S
C2402 H2392 0.950 . S
C2402 C2403 1.386 . S
C2402 C2404 1.391 . S
C2403 C2402 1.386 . S
C2403 C2407 1.393 . S
C2404 H2393 0.950 . S
C2404 C2402 1.391 . S
C2404 C2405 1.400 . S
C2405 C2399 1.491 1_455 S
C2405 C2404 1.400 . S
C2405 C2406 1.398 . S
C2406 H2394 0.950 . S
C2406 C2405 1.398 . S
C2406 C2407 1.391 . S
C2407 H2395 0.950 . S
C2407 C2403 1.393 . S
C2407 C2406 1.391 . S
H2408 C2416 0.950 . S
H2409 C2421 0.950 . S
H2410 C2418 0.950 . S
H2411 C2420 0.950 . S
H2412 C2422 0.950 . S
H2413 C2424 0.950 . S
H2414 C2426 0.950 . S
H2415 C2427 0.950 . S
C2416 H2408 0.950 . S
C2416 C2417 1.386 . S
C2416 C2418 1.391 . S
C2417 C2416 1.386 . S
C2417 C2421 1.393 . S
C2418 H2410 0.950 . S
C2418 C2416 1.391 . S
C2418 C2419 1.400 . S
C2419 C2418 1.400 . S
C2419 C2420 1.398 . S
C2419 C2425 1.491 . S
C2420 H2411 0.950 . S
C2420 C2419 1.398 . S
C2420 C2421 1.391 . S
C2421 H2409 0.950 . S
C2421 C2417 1.393 . S
C2421 C2420 1.391 . S
C2422 H2412 0.950 . S
C2422 C2423 1.386 . S
C2422 C2424 1.391 . S
C2423 C2422 1.386 . S
C2423 C2427 1.393 . S
C2424 H2413 0.950 . S
C2424 C2422 1.391 . S
C2424 C2425 1.400 . S
C2425 C2419 1.491 . S
C2425 C2424 1.400 . S
C2425 C2426 1.398 . S
C2426 H2414 0.950 . S
C2426 C2425 1.398 . S
C2426 C2427 1.391 . S
C2427 H2415 0.950 . S
C2427 C2423 1.393 . S
C2427 C2426 1.391 . S
H2428 C2436 0.950 . S
H2429 C2441 0.950 . S
H2430 C2438 0.950 . S
H2431 C2440 0.950 . S
H2432 C2442 0.950 . S
H2433 C2444 0.950 . S
H2434 C2446 0.950 . S
H2435 C2447 0.950 . S
C2436 H2428 0.950 . S
C2436 C2437 1.386 . S
C2436 C2438 1.391 . S
C2437 C2436 1.386 . S
C2437 C2441 1.393 . S
C2438 H2430 0.950 . S
C2438 C2436 1.391 . S
C2438 C2439 1.400 . S
C2439 C2438 1.400 . S
C2439 C2440 1.398 . S
C2439 C2445 1.491 . S
C2440 H2431 0.950 . S
C2440 C2439 1.398 . S
C2440 C2441 1.391 . S
C2441 H2429 0.950 . S
C2441 C2437 1.393 . S
C2441 C2440 1.391 . S
C2442 H2432 0.950 . S
C2442 C2443 1.386 . S
C2442 C2444 1.391 . S
C2443 C2442 1.386 . S
C2443 C2447 1.393 . S
C2444 H2433 0.950 . S
C2444 C2442 1.391 . S
C2444 C2445 1.400 . S
C2445 C2439 1.491 . S
C2445 C2444 1.400 . S
C2445 C2446 1.398 . S
C2446 H2434 0.950 . S
C2446 C2445 1.398 . S
C2446 C2447 1.391 . S
C2447 H2435 0.950 . S
C2447 C2443 1.393 . S
C2447 C2446 1.391 . S
H2448 C2456 0.950 . S
H2449 C2461 0.950 . S
H2450 C2458 0.950 . S
H2451 C2460 0.950 . S
H2452 C2462 0.950 . S
H2453 C2464 0.950 . S
H2454 C2466 0.950 . S
H2455 C2467 0.950 . S
C2456 H2448 0.950 . S
C2456 C2457 1.386 . S
C2456 C2458 1.391 . S
C2457 C2456 1.386 . S
C2457 C2461 1.393 . S
C2458 H2450 0.950 . S
C2458 C2456 1.391 . S
C2458 C2459 1.400 . S
C2459 C2458 1.400 . S
C2459 C2460 1.398 . S
C2459 C2465 1.491 . S
C2460 H2451 0.950 . S
C2460 C2459 1.398 . S
C2460 C2461 1.391 . S
C2461 H2449 0.950 . S
C2461 C2457 1.393 . S
C2461 C2460 1.391 . S
C2462 H2452 0.950 . S
C2462 C2463 1.386 . S
C2462 C2464 1.391 . S
C2463 C2462 1.386 . S
C2463 C2467 1.393 . S
C2464 H2453 0.950 . S
C2464 C2462 1.391 . S
C2464 C2465 1.400 . S
C2465 C2459 1.491 . S
C2465 C2464 1.400 . S
C2465 C2466 1.398 . S
C2466 H2454 0.950 . S
C2466 C2465 1.398 . S
C2466 C2467 1.391 . S
C2467 H2455 0.950 . S
C2467 C2463 1.393 . S
C2467 C2466 1.391 . S
H2468 C2476 0.950 . S
H2469 C2481 0.950 . S
H2470 C2478 0.950 . S
H2471 C2480 0.950 . S
H2472 C2482 0.950 . S
H2473 C2484 0.950 . S
H2474 C2486 0.950 . S
H2475 C2487 0.950 . S
C2476 H2468 0.950 . S
C2476 C2477 1.386 . S
C2476 C2478 1.391 . S
C2477 C2476 1.386 . S
C2477 C2481 1.393 . S
C2478 H2470 0.950 . S
C2478 C2476 1.391 . S
C2478 C2479 1.400 . S
C2479 C2478 1.400 . S
C2479 C2480 1.398 . S
C2479 C2485 1.491 . S
C2480 H2471 0.950 . S
C2480 C2479 1.398 . S
C2480 C2481 1.391 . S
C2481 H2469 0.950 . S
C2481 C2477 1.393 . S
C2481 C2480 1.391 . S
C2482 H2472 0.950 . S
C2482 C2483 1.386 . S
C2482 C2484 1.391 . S
C2483 C2482 1.386 . S
C2483 C2487 1.393 . S
C2484 H2473 0.950 . S
C2484 C2482 1.391 . S
C2484 C2485 1.400 . S
C2485 C2479 1.491 . S
C2485 C2484 1.400 . S
C2485 C2486 1.398 . S
C2486 H2474 0.950 . S
C2486 C2485 1.398 . S
C2486 C2487 1.391 . S
C2487 H2475 0.950 . S
C2487 C2483 1.393 . S
C2487 C2486 1.391 . S
H2488 C2496 0.950 . S
H2489 C2501 0.950 . S
H2490 C2498 0.950 . S
H2491 C2500 0.950 . S
H2492 C2502 0.950 . S
H2493 C2504 0.950 . S
H2494 C2506 0.950 . S
H2495 C2507 0.950 . S
C2496 H2488 0.950 . S
C2496 C2497 1.386 . S
C2496 C2498 1.391 . S
C2497 C2496 1.386 . S
C2497 C2501 1.393 . S
C2498 H2490 0.950 . S
C2498 C2496 1.391 . S
C2498 C2499 1.400 . S
C2499 C2498 1.400 . S
C2499 C2500 1.398 . S
C2499 C2505 1.491 . S
C2500 H2491 0.950 . S
C2500 C2499 1.398 . S
C2500 C2501 1.391 . S
C2501 H2489 0.950 . S
C2501 C2497 1.393 . S
C2501 C2500 1.391 . S
C2502 H2492 0.950 . S
C2502 C2503 1.386 . S
C2502 C2504 1.391 . S
C2503 C2502 1.386 . S
C2503 C2507 1.393 . S
C2504 H2493 0.950 . S
C2504 C2502 1.391 . S
C2504 C2505 1.400 . S
C2505 C2499 1.491 . S
C2505 C2504 1.400 . S
C2505 C2506 1.398 . S
C2506 H2494 0.950 . S
C2506 C2505 1.398 . S
C2506 C2507 1.391 . S
C2507 H2495 0.950 . S
C2507 C2503 1.393 . S
C2507 C2506 1.391 . S
H2508 C2516 0.950 . S
H2509 C2521 0.950 . S
H2510 C2518 0.950 . S
H2511 C2520 0.950 . S
H2512 C2522 0.950 . S
H2513 C2524 0.950 . S
H2514 C2526 0.950 . S
H2515 C2527 0.950 . S
C2516 H2508 0.950 . S
C2516 C2517 1.386 . S
C2516 C2518 1.391 . S
C2517 C2516 1.386 . S
C2517 C2521 1.393 . S
C2518 H2510 0.950 . S
C2518 C2516 1.391 . S
C2518 C2519 1.400 . S
C2519 C2518 1.400 . S
C2519 C2520 1.398 . S
C2519 C2525 1.491 1_455 S
C2520 H2511 0.950 . S
C2520 C2519 1.398 . S
C2520 C2521 1.391 . S
C2521 H2509 0.950 . S
C2521 C2517 1.393 . S
C2521 C2520 1.391 . S
C2522 H2512 0.950 . S
C2522 C2523 1.386 . S
C2522 C2524 1.391 . S
C2523 C2522 1.386 . S
C2523 C2527 1.393 . S
C2524 H2513 0.950 . S
C2524 C2522 1.391 . S
C2524 C2525 1.400 . S
C2525 C2519 1.491 1_655 S
C2525 C2524 1.400 . S
C2525 C2526 1.398 . S
C2526 H2514 0.950 . S
C2526 C2525 1.398 . S
C2526 C2527 1.391 . S
C2527 H2515 0.950 . S
C2527 C2523 1.393 . S
C2527 C2526 1.391 . S
H2528 C2536 0.950 . S
H2529 C2541 0.950 . S
H2530 C2538 0.950 . S
H2531 C2540 0.950 . S
H2532 C2542 0.950 . S
H2533 C2544 0.950 . S
H2534 C2546 0.950 . S
H2535 C2547 0.950 . S
C2536 H2528 0.950 . S
C2536 C2537 1.386 . S
C2536 C2538 1.391 . S
C2537 C2536 1.386 . S
C2537 C2541 1.393 . S
C2538 H2530 0.950 . S
C2538 C2536 1.391 . S
C2538 C2539 1.400 . S
C2539 C2538 1.400 . S
C2539 C2540 1.398 . S
C2539 C2545 1.491 . S
C2540 H2531 0.950 . S
C2540 C2539 1.398 . S
C2540 C2541 1.391 . S
C2541 H2529 0.950 . S
C2541 C2537 1.393 . S
C2541 C2540 1.391 . S
C2542 H2532 0.950 . S
C2542 C2543 1.386 . S
C2542 C2544 1.391 . S
C2543 C2542 1.386 . S
C2543 C2547 1.393 . S
C2544 H2533 0.950 . S
C2544 C2542 1.391 . S
C2544 C2545 1.400 . S
C2545 C2539 1.491 . S
C2545 C2544 1.400 . S
C2545 C2546 1.398 . S
C2546 H2534 0.950 . S
C2546 C2545 1.398 . S
C2546 C2547 1.391 . S
C2547 H2535 0.950 . S
C2547 C2543 1.393 . S
C2547 C2546 1.391 . S
H2548 C2556 0.950 . S
H2549 C2561 0.950 . S
H2550 C2558 0.950 . S
H2551 C2560 0.950 . S
H2552 C2562 0.950 . S
H2553 C2564 0.950 . S
H2554 C2566 0.950 . S
H2555 C2567 0.950 . S
C2556 H2548 0.950 . S
C2556 C2557 1.386 . S
C2556 C2558 1.391 . S
C2557 C2556 1.386 . S
C2557 C2561 1.393 . S
C2558 H2550 0.950 . S
C2558 C2556 1.391 . S
C2558 C2559 1.400 . S
C2559 C2558 1.400 . S
C2559 C2560 1.398 . S
C2559 C2565 1.491 . S
C2560 H2551 0.950 . S
C2560 C2559 1.398 . S
C2560 C2561 1.391 . S
C2561 H2549 0.950 . S
C2561 C2557 1.393 . S
C2561 C2560 1.391 . S
C2562 H2552 0.950 . S
C2562 C2563 1.386 . S
C2562 C2564 1.391 . S
C2563 C2562 1.386 . S
C2563 C2567 1.393 . S
C2564 H2553 0.950 . S
C2564 C2562 1.391 . S
C2564 C2565 1.400 . S
C2565 C2559 1.491 . S
C2565 C2564 1.400 . S
C2565 C2566 1.398 . S
C2566 H2554 0.950 . S
C2566 C2565 1.398 . S
C2566 C2567 1.391 . S
C2567 H2555 0.950 . S
C2567 C2563 1.393 . S
C2567 C2566 1.391 . S
H2568 C2576 0.950 . S
H2569 C2581 0.950 . S
H2570 C2578 0.950 . S
H2571 C2580 0.950 . S
H2572 C2582 0.950 . S
H2573 C2584 0.950 . S
H2574 C2586 0.950 . S
H2575 C2587 0.950 . S
C2576 H2568 0.950 . S
C2576 C2577 1.386 . S
C2576 C2578 1.391 . S
C2577 C2576 1.386 . S
C2577 C2581 1.393 . S
C2578 H2570 0.950 . S
C2578 C2576 1.391 . S
C2578 C2579 1.400 . S
C2579 C2578 1.400 . S
C2579 C2580 1.398 . S
C2579 C2585 1.491 . S
C2580 H2571 0.950 . S
C2580 C2579 1.398 . S
C2580 C2581 1.391 . S
C2581 H2569 0.950 . S
C2581 C2577 1.393 . S
C2581 C2580 1.391 . S
C2582 H2572 0.950 . S
C2582 C2583 1.386 . S
C2582 C2584 1.391 . S
C2583 C2582 1.386 . S
C2583 C2587 1.393 . S
C2584 H2573 0.950 . S
C2584 C2582 1.391 . S
C2584 C2585 1.400 . S
C2585 C2579 1.491 . S
C2585 C2584 1.400 . S
C2585 C2586 1.398 . S
C2586 H2574 0.950 . S
C2586 C2585 1.398 . S
C2586 C2587 1.391 . S
C2587 H2575 0.950 . S
C2587 C2583 1.393 . S
C2587 C2586 1.391 . S
H2588 C2596 0.950 . S
H2589 C2601 0.950 . S
H2590 C2598 0.950 . S
H2591 C2600 0.950 . S
H2592 C2602 0.950 . S
H2593 C2604 0.950 . S
H2594 C2606 0.950 . S
H2595 C2607 0.950 . S
C2596 H2588 0.950 . S
C2596 C2597 1.386 . S
C2596 C2598 1.391 . S
C2597 C2596 1.386 . S
C2597 C2601 1.393 . S
C2598 H2590 0.950 . S
C2598 C2596 1.391 . S
C2598 C2599 1.400 . S
C2599 C2598 1.400 . S
C2599 C2600 1.398 . S
C2599 C2605 1.491 . S
C2600 H2591 0.950 . S
C2600 C2599 1.398 . S
C2600 C2601 1.391 . S
C2601 H2589 0.950 . S
C2601 C2597 1.393 . S
C2601 C2600 1.391 . S
C2602 H2592 0.950 . S
C2602 C2603 1.386 . S
C2602 C2604 1.391 . S
C2603 C2602 1.386 . S
C2603 C2607 1.393 . S
C2604 H2593 0.950 . S
C2604 C2602 1.391 . S
C2604 C2605 1.400 . S
C2605 C2599 1.491 . S
C2605 C2604 1.400 . S
C2605 C2606 1.398 . S
C2606 H2594 0.950 . S
C2606 C2605 1.398 . S
C2606 C2607 1.391 . S
C2607 H2595 0.950 . S
C2607 C2603 1.393 . S
C2607 C2606 1.391 . S
H2608 C2616 0.950 . S
H2609 C2621 0.950 . S
H2610 C2618 0.950 . S
H2611 C2620 0.950 . S
H2612 C2622 0.950 . S
H2613 C2624 0.950 . S
H2614 C2626 0.950 . S
H2615 C2627 0.950 . S
C2616 H2608 0.950 . S
C2616 C2617 1.386 . S
C2616 C2618 1.391 . S
C2617 C2616 1.386 . S
C2617 C2621 1.393 . S
C2618 H2610 0.950 . S
C2618 C2616 1.391 . S
C2618 C2619 1.400 . S
C2619 C2618 1.400 . S
C2619 C2620 1.398 . S
C2619 C2625 1.491 . S
C2620 H2611 0.950 . S
C2620 C2619 1.398 . S
C2620 C2621 1.391 . S
C2621 H2609 0.950 . S
C2621 C2617 1.393 . S
C2621 C2620 1.391 . S
C2622 H2612 0.950 . S
C2622 C2623 1.386 . S
C2622 C2624 1.391 . S
C2623 C2622 1.386 . S
C2623 C2627 1.393 . S
C2624 H2613 0.950 . S
C2624 C2622 1.391 . S
C2624 C2625 1.400 . S
C2625 C2619 1.491 . S
C2625 C2624 1.400 . S
C2625 C2626 1.398 . S
C2626 H2614 0.950 . S
C2626 C2625 1.398 . S
C2626 C2627 1.391 . S
C2627 H2615 0.950 . S
C2627 C2623 1.393 . S
C2627 C2626 1.391 . S
H2628 C2636 0.950 . S
H2629 C2641 0.950 . S
H2630 C2638 0.950 . S
H2631 C2640 0.950 . S
H2632 C2642 0.950 . S
H2633 C2644 0.950 . S
H2634 C2646 0.950 . S
H2635 C2647 0.950 . S
C2636 H2628 0.950 . S
C2636 C2637 1.386 . S
C2636 C2638 1.391 . S
C2637 C2636 1.386 . S
C2637 C2641 1.393 . S
C2638 H2630 0.950 . S
C2638 C2636 1.391 . S
C2638 C2639 1.400 . S
C2639 C2638 1.400 . S
C2639 C2640 1.398 . S
C2639 C2645 1.491 1_455 S
C2640 H2631 0.950 . S
C2640 C2639 1.398 . S
C2640 C2641 1.391 . S
C2641 H2629 0.950 . S
C2641 C2637 1.393 . S
C2641 C2640 1.391 . S
C2642 H2632 0.950 . S
C2642 C2643 1.386 . S
C2642 C2644 1.391 . S
C2643 C2642 1.386 . S
C2643 C2647 1.393 . S
C2644 H2633 0.950 . S
C2644 C2642 1.391 . S
C2644 C2645 1.400 . S
C2645 C2639 1.491 1_655 S
C2645 C2644 1.400 . S
C2645 C2646 1.398 . S
C2646 H2634 0.950 . S
C2646 C2645 1.398 . S
C2646 C2647 1.391 . S
C2647 H2635 0.950 . S
C2647 C2643 1.393 . S
C2647 C2646 1.391 . S
H2648 C2656 0.950 . S
H2649 C2661 0.950 . S
H2650 C2658 0.950 . S
H2651 C2660 0.950 . S
H2652 C2662 0.950 . S
H2653 C2664 0.950 . S
H2654 C2666 0.950 . S
H2655 C2667 0.950 . S
C2656 H2648 0.950 . S
C2656 C2657 1.386 . S
C2656 C2658 1.391 . S
C2657 C2656 1.386 . S
C2657 C2661 1.393 . S
C2658 H2650 0.950 . S
C2658 C2656 1.391 . S
C2658 C2659 1.400 . S
C2659 C2658 1.400 . S
C2659 C2660 1.398 . S
C2659 C2665 1.491 1_455 S
C2660 H2651 0.950 . S
C2660 C2659 1.398 . S
C2660 C2661 1.391 . S
C2661 H2649 0.950 . S
C2661 C2657 1.393 . S
C2661 C2660 1.391 . S
C2662 H2652 0.950 . S
C2662 C2663 1.386 . S
C2662 C2664 1.391 . S
C2663 C2662 1.386 . S
C2663 C2667 1.393 . S
C2664 H2653 0.950 . S
C2664 C2662 1.391 . S
C2664 C2665 1.400 . S
C2665 C2659 1.491 1_655 S
C2665 C2664 1.400 . S
C2665 C2666 1.398 . S
C2666 H2654 0.950 . S
C2666 C2665 1.398 . S
C2666 C2667 1.391 . S
C2667 H2655 0.950 . S
C2667 C2663 1.393 . S
C2667 C2666 1.391 . S
H2668 C2676 0.950 . S
H2669 C2681 0.950 . S
H2670 C2678 0.950 . S
H2671 C2680 0.950 . S
H2672 C2682 0.950 . S
H2673 C2684 0.950 . S
H2674 C2686 0.950 . S
H2675 C2687 0.950 . S
C2676 H2668 0.950 . S
C2676 C2677 1.386 . S
C2676 C2678 1.391 . S
C2677 C2676 1.386 . S
C2677 C2681 1.393 . S
C2678 H2670 0.950 . S
C2678 C2676 1.391 . S
C2678 C2679 1.400 . S
C2679 C2678 1.400 . S
C2679 C2680 1.398 . S
C2679 C2685 1.491 . S
C2680 H2671 0.950 . S
C2680 C2679 1.398 . S
C2680 C2681 1.391 . S
C2681 H2669 0.950 . S
C2681 C2677 1.393 . S
C2681 C2680 1.391 . S
C2682 H2672 0.950 . S
C2682 C2683 1.386 . S
C2682 C2684 1.391 . S
C2683 C2682 1.386 . S
C2683 C2687 1.393 . S
C2684 H2673 0.950 . S
C2684 C2682 1.391 . S
C2684 C2685 1.400 . S
C2685 C2679 1.491 . S
C2685 C2684 1.400 . S
C2685 C2686 1.398 . S
C2686 H2674 0.950 . S
C2686 C2685 1.398 . S
C2686 C2687 1.391 . S
C2687 H2675 0.950 . S
C2687 C2683 1.393 . S
C2687 C2686 1.391 . S
C1097 C67 2.394 . S
C1103 C20 2.384 . S
C1117 C54 2.384 . S
C1123 C101 2.393 . S
C1137 C88 2.381 . S
C1143 C135 2.396 . S
C1157 C122 2.383 . S
C1163 C33 2.392 1_556 S
C1177 C156 2.381 . S
C1183 C271 2.397 . S
C1197 C169 2.392 1_554 S
C1203 C190 2.377 . S
C1217 C224 2.384 . S
C1223 C203 2.395 . S
C1237 C258 2.377 . S
C1243 C237 2.393 . S
C1257 C339 2.391 . S
C1263 C292 2.378 . S
C1277 C373 2.394 . S
C1283 C326 2.380 . S
C1297 C360 2.377 . S
C1303 C407 2.428 . S
C1317 C305 2.393 1_554 S
C1323 C394 2.384 . S
C1337 C428 2.383 . S
C1343 C543 2.391 . S
C1357 C462 2.384 . S
C1363 C441 2.393 1_556 S
C1377 C475 2.403 . S
C1383 C496 2.380 . S
C1397 C509 2.393 . S
C1403 C530 2.384 . S
C1417 C611 2.392 . S
C1423 C564 2.377 . S
C1437 C598 2.383 . S
C1443 C645 2.392 1_556 S
C1457 C679 2.392 . S
C1463 C632 2.384 . S
C1477 C577 2.391 . S
C1483 C666 2.380 . S
C1497 C815 2.392 . S
C1503 C700 2.377 . S
C1517 C734 2.377 . S
C1523 C713 2.392 . S
C1537 C747 2.394 . S
C1543 C768 2.380 . S
C1557 C802 2.377 . S
C1563 C781 2.392 1_554 S
C1577 C883 2.394 . S
C1583 C836 2.383 . S
C1597 C870 2.382 . S
C1603 C917 2.394 1_554 S
C1617 C904 2.378 . S
C1623 C951 2.391 . S
C1637 C938 2.381 . S
C1643 C849 2.394 . S
C1657 C1087 2.393 . S
C1663 C972 2.384 . S
C1677 C985 2.392 . S
C1683 C1006 2.383 . S
C1697 C1019 2.394 . S
C1703 C1040 2.378 . S
C1717 C1053 2.393 1_556 S
C1723 C1074 2.384 . S
C1737 C213 0.841 . S
C1743 C9 0.801 . S
C1757 C43 0.799 . S
C1763 C247 0.836 . S
C1777 C77 0.812 . S
C1783 C145 0.802 . S
C1797 C111 0.809 . S
C1803 C179 0.851 . S
C1817 C485 0.817 . S
C1823 C281 0.800 . S
C1837 C519 0.835 . S
C1843 C315 0.799 . S
C1857 C349 0.798 . S
C1863 C417 0.832 . S
C1877 C451 0.819 . S
C1883 C383 0.799 . S
C1897 C553 0.856 . S
C1903 C757 0.844 . S
C1917 C791 0.856 . S
C1923 C587 0.846 . S
C1937 C689 0.810 . S
C1943 C621 0.803 . S
C1957 C723 0.851 . S
C1963 C655 0.852 . S
C1977 C1029 0.798 . S
C1983 C825 0.827 . S
C1997 C1063 0.830 . S
C2003 C859 0.798 . S
C2017 C961 0.859 . S
C2023 C893 0.827 . S
C2037 C995 0.839 . S
C2043 C927 0.801 . S
C2057 C5 0.620 . S
C2063 C243 0.622 . S
C2077 C39 0.634 . S
C2083 C141 0.623 . S
C2097 C175 0.637 . S
C2103 C73 0.633 . S
C2117 C107 0.634 . S
C2123 C209 0.623 . S
C2137 C277 0.626 . S
C2143 C515 0.636 . S
C2157 C413 0.632 . S
C2163 C311 0.637 . S
C2177 C345 0.622 . S
C2183 C447 0.633 . S
C2197 C379 0.619 . S
C2203 C481 0.629 . S
C2217 C787 0.637 . S
C2223 C549 0.630 . S
C2237 C685 0.625 . S
C2243 C583 0.635 . S
C2257 C617 0.637 . S
C2263 C719 0.631 . S
C2277 C651 0.634 . S
C2283 C753 0.636 . S
C2297 C821 0.621 . S
C2303 C1059 0.632 . S
C2317 C957 0.620 . S
C2323 C855 0.621 . S
C2337 C889 0.628 . S
C2343 C991 0.637 . S
C2357 C923 0.630 . S
C2363 C1025 0.637 . S
C2377 C2 1.168 . S
C2383 C1022 1.172 . S
C2397 C512 1.167 . S
C2403 C36 1.173 . S
C2417 C954 1.168 . S
C2423 C70 1.172 . S
C2437 C104 1.167 . S
C2443 C444 1.173 . S
C2457 C138 1.173 . S
C2463 C886 1.167 . S
C2477 C376 1.169 . S
C2483 C172 1.171 . S
C2497 C206 1.172 . S
C2503 C818 1.168 . S
C2517 C240 1.169 . S
C2523 C308 1.171 . S
C2537 C274 1.167 . S
C2543 C750 1.173 . S
C2557 C342 1.168 . S
C2563 C682 1.172 . S
C2577 C410 1.173 . S
C2583 C614 1.167 . S
C2597 C478 1.172 . S
C2603 C546 1.168 . S
C2617 C580 1.170 . S
C2623 C1056 1.170 . S
C2637 C988 1.167 . S
C2643 C648 1.172 . S
C2657 C920 1.173 . S
C2663 C716 1.167 . S
C2677 C852 1.173 . S
C2683 C784 1.167 . S
