# Generated by pormake.
# Topology cbo, (4)-cn, num edge types: 1
# Building blocks:
#     Node 0, Type 0, BuildingBlock: KUFVIS_clean_sbu_0, # of connection points: 4
#     Node 1, Type 0, BuildingBlock: KUFVIS_clean_sbu_0, # of connection points: 4
#     Node 2, Type 0, BuildingBlock: KUFVIS_clean_sbu_0, # of connection points: 4
#     Node 3, Type 0, BuildingBlock: KUFVIS_clean_sbu_0, # of connection points: 4
#     Node 4, Type 0, BuildingBlock: KUFVIS_clean_sbu_0, # of connection points: 4
#     Node 5, Type 0, BuildingBlock: KUFVIS_clean_sbu_0, # of connection points: 4
#     Node 6, Type 0, BuildingBlock: KUFVIS_clean_sbu_0, # of connection points: 4
#     Node 7, Type 0, BuildingBlock: KUFVIS_clean_sbu_0, # of connection points: 4
#     Node 8, Type 0, BuildingBlock: KUFVIS_clean_sbu_0, # of connection points: 4
#     Node 9, Type 0, BuildingBlock: KUFVIS_clean_sbu_0, # of connection points: 4
#     Node 10, Type 0, BuildingBlock: KUFVIS_clean_sbu_0, # of connection points: 4
#     Node 11, Type 0, BuildingBlock: KUFVIS_clean_sbu_0, # of connection points: 4
#     Node 12, Type 0, BuildingBlock: KUFVIS_clean_sbu_0, # of connection points: 4
#     Node 13, Type 0, BuildingBlock: KUFVIS_clean_sbu_0, # of connection points: 4
#     Node 14, Type 0, BuildingBlock: KUFVIS_clean_sbu_0, # of connection points: 4
#     Node 15, Type 0, BuildingBlock: KUFVIS_clean_sbu_0, # of connection points: 4
#     Node 16, Type 0, BuildingBlock: KUFVIS_clean_sbu_0, # of connection points: 4
#     Node 17, Type 0, BuildingBlock: KUFVIS_clean_sbu_0, # of connection points: 4
#     Node 18, Type 0, BuildingBlock: KUFVIS_clean_sbu_0, # of connection points: 4
#     Node 19, Type 0, BuildingBlock: KUFVIS_clean_sbu_0, # of connection points: 4
#     Node 20, Type 0, BuildingBlock: KUFVIS_clean_sbu_0, # of connection points: 4
#     Node 21, Type 0, BuildingBlock: KUFVIS_clean_sbu_0, # of connection points: 4
#     Node 22, Type 0, BuildingBlock: KUFVIS_clean_sbu_0, # of connection points: 4
#     Node 23, Type 0, BuildingBlock: KUFVIS_clean_sbu_0, # of connection points: 4
#     Edge 24, Type (0, 0), BuildingBlock: AJUNOK_clean_linker_0, # of connection points: 2
#     Edge 25, Type (0, 0), BuildingBlock: AJUNOK_clean_linker_0, # of connection points: 2
#     Edge 26, Type (0, 0), BuildingBlock: AJUNOK_clean_linker_0, # of connection points: 2
#     Edge 27, Type (0, 0), BuildingBlock: AJUNOK_clean_linker_0, # of connection points: 2
#     Edge 28, Type (0, 0), BuildingBlock: AJUNOK_clean_linker_0, # of connection points: 2
#     Edge 29, Type (0, 0), BuildingBlock: AJUNOK_clean_linker_0, # of connection points: 2
#     Edge 30, Type (0, 0), BuildingBlock: AJUNOK_clean_linker_0, # of connection points: 2
#     Edge 31, Type (0, 0), BuildingBlock: AJUNOK_clean_linker_0, # of connection points: 2
#     Edge 32, Type (0, 0), BuildingBlock: AJUNOK_clean_linker_0, # of connection points: 2
#     Edge 33, Type (0, 0), BuildingBlock: AJUNOK_clean_linker_0, # of connection points: 2
#     Edge 34, Type (0, 0), BuildingBlock: AJUNOK_clean_linker_0, # of connection points: 2
#     Edge 35, Type (0, 0), BuildingBlock: AJUNOK_clean_linker_0, # of connection points: 2
#     Edge 36, Type (0, 0), BuildingBlock: AJUNOK_clean_linker_0, # of connection points: 2
#     Edge 37, Type (0, 0), BuildingBlock: AJUNOK_clean_linker_0, # of connection points: 2
#     Edge 38, Type (0, 0), BuildingBlock: AJUNOK_clean_linker_0, # of connection points: 2
#     Edge 39, Type (0, 0), BuildingBlock: AJUNOK_clean_linker_0, # of connection points: 2
#     Edge 40, Type (0, 0), BuildingBlock: AJUNOK_clean_linker_0, # of connection points: 2
#     Edge 41, Type (0, 0), BuildingBlock: AJUNOK_clean_linker_0, # of connection points: 2
#     Edge 42, Type (0, 0), BuildingBlock: AJUNOK_clean_linker_0, # of connection points: 2
#     Edge 43, Type (0, 0), BuildingBlock: AJUNOK_clean_linker_0, # of connection points: 2
#     Edge 44, Type (0, 0), BuildingBlock: AJUNOK_clean_linker_0, # of connection points: 2
#     Edge 45, Type (0, 0), BuildingBlock: AJUNOK_clean_linker_0, # of connection points: 2
#     Edge 46, Type (0, 0), BuildingBlock: AJUNOK_clean_linker_0, # of connection points: 2
#     Edge 47, Type (0, 0), BuildingBlock: AJUNOK_clean_linker_0, # of connection points: 2
#     Edge 48, Type (0, 0), BuildingBlock: AJUNOK_clean_linker_0, # of connection points: 2
#     Edge 49, Type (0, 0), BuildingBlock: AJUNOK_clean_linker_0, # of connection points: 2
#     Edge 50, Type (0, 0), BuildingBlock: AJUNOK_clean_linker_0, # of connection points: 2
#     Edge 51, Type (0, 0), BuildingBlock: AJUNOK_clean_linker_0, # of connection points: 2
#     Edge 52, Type (0, 0), BuildingBlock: AJUNOK_clean_linker_0, # of connection points: 2
#     Edge 53, Type (0, 0), BuildingBlock: AJUNOK_clean_linker_0, # of connection points: 2
#     Edge 54, Type (0, 0), BuildingBlock: AJUNOK_clean_linker_0, # of connection points: 2
#     Edge 55, Type (0, 0), BuildingBlock: AJUNOK_clean_linker_0, # of connection points: 2
#     Edge 56, Type (0, 0), BuildingBlock: AJUNOK_clean_linker_0, # of connection points: 2
#     Edge 57, Type (0, 0), BuildingBlock: AJUNOK_clean_linker_0, # of connection points: 2
#     Edge 58, Type (0, 0), BuildingBlock: AJUNOK_clean_linker_0, # of connection points: 2
#     Edge 59, Type (0, 0), BuildingBlock: AJUNOK_clean_linker_0, # of connection points: 2
#     Edge 60, Type (0, 0), BuildingBlock: AJUNOK_clean_linker_0, # of connection points: 2
#     Edge 61, Type (0, 0), BuildingBlock: AJUNOK_clean_linker_0, # of connection points: 2
#     Edge 62, Type (0, 0), BuildingBlock: AJUNOK_clean_linker_0, # of connection points: 2
#     Edge 63, Type (0, 0), BuildingBlock: AJUNOK_clean_linker_0, # of connection points: 2
#     Edge 64, Type (0, 0), BuildingBlock: AJUNOK_clean_linker_0, # of connection points: 2
#     Edge 65, Type (0, 0), BuildingBlock: AJUNOK_clean_linker_0, # of connection points: 2
#     Edge 66, Type (0, 0), BuildingBlock: AJUNOK_clean_linker_0, # of connection points: 2
#     Edge 67, Type (0, 0), BuildingBlock: AJUNOK_clean_linker_0, # of connection points: 2
#     Edge 68, Type (0, 0), BuildingBlock: AJUNOK_clean_linker_0, # of connection points: 2
#     Edge 69, Type (0, 0), BuildingBlock: AJUNOK_clean_linker_0, # of connection points: 2
#     Edge 70, Type (0, 0), BuildingBlock: AJUNOK_clean_linker_0, # of connection points: 2
#     Edge 71, Type (0, 0), BuildingBlock: AJUNOK_clean_linker_0, # of connection points: 2
# Relax obj value: 0.204
# Max RMSD: 0.230
# Mean RMSD: 0.214
data_MOF--net-cbo--node1-KUFVIS_clean_sbu_0--edge1-AJUNOK_clean_linker_0
_symmetry_space_group_name_H-M    P1
_symmetry_Int_Tables_number       1
_symmetry_cell_setting            triclinic
loop_
_symmetry_equiv_pos_as_xyz
'x, y, z'
_cell_length_a     37.712536
_cell_length_b     37.29644
_cell_length_c     38.434717
_cell_angle_alpha  90.0019
_cell_angle_beta   89.944083
_cell_angle_gamma 90.026437
loop_
_atom_site_label
_atom_site_type_symbol
_atom_site_fract_x
_atom_site_fract_y
_atom_site_fract_z
_atom_type_partial_charge
Mn0 Mn 0.12829 0.17537 0.32633 0.0
Mn1 Mn 0.13096 0.08724 0.34362 0.0
C2 C 0.17907 0.14294 0.31439 0.0
C3 C 0.11689 0.22092 0.28631 0.0
C4 C 0.13519 0.14491 0.39959 0.0
O5 O 0.07623 0.16231 0.33262 0.0
O6 O 0.08036 0.10216 0.3383 0.0
C7 C 0.10485 0.05968 0.27613 0.0
N8 N 0.13066 0.06106 0.30085 0.0
C9 C 0.16907 0.02348 0.26659 0.0
C10 C 0.14263 0.02115 0.24107 0.0
C11 C 0.11041 0.03938 0.24585 0.0
C12 C 0.16182 0.0437 0.29647 0.0
H13 H 0.08038 0.07429 0.27933 0.0
C14 C 0.06223 0.13121 0.33581 0.0
O15 O 0.11805 0.22768 0.31949 0.0
O16 O 0.12021 0.1878 0.27693 0.0
N17 N 0.17854 0.07013 0.34878 0.0
C18 C 0.20214 0.07707 0.37475 0.0
C19 C 0.23618 0.0619 0.3733 0.0
C20 C 0.24565 0.0399 0.34512 0.0
C21 C 0.22087 0.03303 0.31877 0.0
C22 C 0.18715 0.04844 0.32189 0.0
H23 H 0.19516 0.09429 0.39627 0.0
O24 O 0.18056 0.17741 0.31831 0.0
O25 O 0.1478 0.12879 0.31791 0.0
O26 O 0.13588 0.17184 0.37906 0.0
O27 O 0.13227 0.11246 0.3891 0.0
C28 C 0.22856 0.01213 0.28917 0.0
C29 C 0.20268 0.00735 0.2631 0.0
H30 H 0.14698 0.00588 0.21747 0.0
H31 H 0.09004 0.03808 0.22607 0.0
H32 H 0.2552 0.06745 0.39366 0.0
H33 H 0.2721 0.02867 0.34385 0.0
H34 H 0.25444 0.99998 0.28598 0.0
H35 H 0.20907 0.99165 0.24024 0.0
Mn36 Mn 0.37823 0.82178 0.82536 0.0
Mn37 Mn 0.37359 0.90904 0.84712 0.0
C38 C 0.32688 0.85411 0.81503 0.0
C39 C 0.3901 0.7784 0.78275 0.0
C40 C 0.37024 0.84876 0.90022 0.0
O41 O 0.43022 0.83558 0.83115 0.0
O42 O 0.42434 0.89472 0.84293 0.0
C43 C 0.40295 0.942 0.78325 0.0
N44 N 0.3755 0.93767 0.80592 0.0
C45 C 0.33853 0.97755 0.77271 0.0
C46 C 0.36647 0.98259 0.7491 0.0
C47 C 0.39881 0.96473 0.7544 0.0
C48 C 0.34437 0.95496 0.80123 0.0
H49 H 0.42777 0.92814 0.7871 0.0
C50 C 0.44322 0.86658 0.83757 0.0
O51 O 0.38925 0.76997 0.81559 0.0
O52 O 0.38582 0.81186 0.77515 0.0
N53 N 0.32567 0.9254 0.8513 0.0
C54 C 0.30105 0.91672 0.87586 0.0
C55 C 0.26692 0.93162 0.87383 0.0
C56 C 0.25849 0.95523 0.84658 0.0
C57 C 0.28432 0.96384 0.82168 0.0
C58 C 0.31796 0.94841 0.82522 0.0
H59 H 0.30732 0.89832 0.89665 0.0
O60 O 0.32582 0.8195 0.81783 0.0
O61 O 0.35796 0.8685 0.81921 0.0
O62 O 0.37137 0.82256 0.87875 0.0
O63 O 0.37097 0.88167 0.89099 0.0
C64 C 0.27785 0.98668 0.79318 0.0
C65 C 0.30495 0.99358 0.76875 0.0
H66 H 0.36326 0.9998 0.72662 0.0
H67 H 0.42042 0.96831 0.73618 0.0
H68 H 0.2471 0.92475 0.89308 0.0
H69 H 0.23204 0.96641 0.84493 0.0
H70 H 0.25204 0.9989 0.78969 0.0
H71 H 0.29959 0.01102 0.74685 0.0
Mn72 Mn 0.62873 0.32332 0.67978 0.0
Mn73 Mn 0.6326 0.41042 0.65758 0.0
C74 C 0.67929 0.35649 0.69075 0.0
C75 C 0.61717 0.27966 0.72196 0.0
C76 C 0.63979 0.3503 0.60489 0.0
O77 O 0.57677 0.33584 0.67377 0.0
O78 O 0.58205 0.39413 0.65857 0.0
C79 C 0.59771 0.44134 0.71977 0.0
N80 N 0.62667 0.43865 0.69871 0.0
C81 C 0.65963 0.47969 0.7346 0.0
C82 C 0.63008 0.48307 0.75652 0.0
C83 C 0.599 0.46378 0.74907 0.0
C84 C 0.65665 0.45723 0.70555 0.0
H85 H 0.57383 0.42638 0.71433 0.0
C86 C 0.56346 0.36606 0.66525 0.0
O87 O 0.61858 0.27128 0.68913 0.0
O88 O 0.62091 0.31314 0.72979 0.0
N89 N 0.67997 0.42894 0.65665 0.0
C90 C 0.70662 0.42152 0.63381 0.0
C91 C 0.73984 0.43793 0.63815 0.0
C92 C 0.74535 0.46169 0.66598 0.0
C93 C 0.71753 0.46892 0.68916 0.0
C94 C 0.68488 0.45207 0.68331 0.0
H95 H 0.70271 0.40284 0.61273 0.0
O96 O 0.681 0.32194 0.68763 0.0
O97 O 0.64807 0.37046 0.68635 0.0
O98 O 0.63581 0.32447 0.62649 0.0
O99 O 0.63979 0.38329 0.61393 0.0
C100 C 0.72108 0.49174 0.71816 0.0
C101 C 0.69215 0.49716 0.74084 0.0
H102 H 0.63109 0.50007 0.77935 0.0
H103 H 0.57616 0.46606 0.766 0.0
H104 H 0.76124 0.43204 0.62027 0.0
H105 H 0.77112 0.474 0.66946 0.0
H106 H 0.74605 0.50505 0.72342 0.0
H107 H 0.69529 0.51454 0.7632 0.0
Mn108 Mn 0.87549 0.67555 0.18228 0.0
Mn109 Mn 0.87177 0.58768 0.16332 0.0
C110 C 0.82476 0.64306 0.19458 0.0
C111 C 0.88746 0.72051 0.22277 0.0
C112 C 0.8662 0.64613 0.1085 0.0
O113 O 0.92753 0.66245 0.17603 0.0
O114 O 0.92249 0.60292 0.16599 0.0
C115 C 0.90275 0.55773 0.22779 0.0
N116 N 0.87488 0.56065 0.20546 0.0
C117 C 0.83888 0.5221 0.24121 0.0
C118 C 0.86727 0.51851 0.26448 0.0
C119 C 0.89934 0.53641 0.25773 0.0
C120 C 0.84399 0.54333 0.21157 0.0
H121 H 0.92734 0.5717 0.22287 0.0
C122 C 0.94097 0.63153 0.17031 0.0
O123 O 0.88587 0.72778 0.18971 0.0
O124 O 0.88384 0.68732 0.23178 0.0
N125 N 0.82402 0.57045 0.16072 0.0
C126 C 0.79882 0.57779 0.13637 0.0
C127 C 0.76489 0.56267 0.13977 0.0
C128 C 0.7572 0.54025 0.16817 0.0
C129 C 0.7836 0.53302 0.19286 0.0
C130 C 0.81705 0.54854 0.18791 0.0
H131 H 0.80448 0.59532 0.11471 0.0
O132 O 0.8233 0.67753 0.19058 0.0
O133 O 0.85594 0.62881 0.19042 0.0
O134 O 0.86763 0.67282 0.12933 0.0
O135 O 0.86782 0.61348 0.11851 0.0
C136 C 0.77787 0.51152 0.22248 0.0
C137 C 0.8055 0.50602 0.24661 0.0
H138 H 0.86463 0.5024 0.28779 0.0
H139 H 0.9213 0.53396 0.27568 0.0
H140 H 0.74461 0.56849 0.12068 0.0
H141 H 0.73089 0.52894 0.17089 0.0
H142 H 0.75223 0.49929 0.22709 0.0
H143 H 0.8007 0.48964 0.26941 0.0
Mn144 Mn 0.33222 0.1189 0.17379 0.0
Mn145 Mn 0.35641 0.11632 0.08968 0.0
C146 C 0.32624 0.17062 0.13986 0.0
C147 C 0.28976 0.11022 0.21739 0.0
C148 C 0.40878 0.1179 0.1496 0.0
O149 O 0.33533 0.06522 0.16318 0.0
O150 O 0.34364 0.06727 0.10511 0.0
C151 C 0.28882 0.09636 0.05574 0.0
N152 N 0.31691 0.11905 0.05888 0.0
C153 C 0.29925 0.15222 0.00814 0.0
C154 C 0.26995 0.12935 1.00439 0.0
C155 C 0.26456 0.10149 0.02848 0.0
C156 C 0.32183 0.14648 0.03642 0.0
H157 H 0.28518 0.07444 0.07379 0.0
C158 C 0.33849 0.05006 0.13351 0.0
O159 O 0.32345 0.10964 0.2242 0.0
O160 O 0.28084 0.11451 0.18505 0.0
N161 N 0.37 0.16169 0.07113 0.0
C162 C 0.39911 0.1817 0.07909 0.0
C163 C 0.40942 0.20954 0.05677 0.0
C164 C 0.38995 0.21617 0.02637 0.0
C165 C 0.3592 0.19619 0.01944 0.0
C166 C 0.35031 0.16874 0.04263 0.0
H167 H 0.41509 0.17569 0.10162 0.0
O168 O 0.32785 0.17213 0.17356 0.0
O169 O 0.32795 0.13834 0.12688 0.0
O170 O 0.38647 0.12301 0.17397 0.0
O171 O 0.39985 0.11348 0.11796 0.0
C172 C 0.33773 0.20152 0.9899 0.0
C173 C 0.30732 0.18009 0.98466 0.0
H174 H 0.25154 0.13282 0.98304 0.0
H175 H 0.24208 0.08367 0.02569 0.0
H176 H 0.43299 0.22507 0.06236 0.0
H177 H 0.3994 0.2362 0.00829 0.0
H178 H 0.34431 0.22206 0.97107 0.0
H179 H 0.29068 0.18488 0.96218 0.0
Mn180 Mn 0.17377 0.88358 0.67517 0.0
Mn181 Mn 0.15373 0.88792 0.58999 0.0
C182 C 0.17864 0.83196 0.64145 0.0
C183 C 0.21651 0.89061 0.71868 0.0
C184 C 0.0982 0.88438 0.64753 0.0
O185 O 0.17197 0.93719 0.66594 0.0
O186 O 0.16452 0.93666 0.60794 0.0
C187 C 0.22471 0.90927 0.56432 0.0
N188 N 0.19588 0.8874 0.5625 0.0
C189 C 0.21955 0.85672 0.51263 0.0
C190 C 0.24916 0.87949 0.51339 0.0
C191 C 0.25193 0.90562 0.5396 0.0
C192 C 0.19356 0.86136 0.53825 0.0
H193 H 0.22696 0.92911 0.58464 0.0
C194 C 0.16954 0.95307 0.63671 0.0
O195 O 0.18286 0.89178 0.72603 0.0
O196 O 0.22486 0.88637 0.68628 0.0
N197 N 0.14259 0.84353 0.56778 0.0
C198 C 0.11309 0.82285 0.57174 0.0
C199 C 0.10582 0.79589 0.54729 0.0
C200 C 0.12884 0.79067 0.51897 0.0
C201 C 0.15958 0.81152 0.51601 0.0
C202 C 0.16506 0.83839 0.54078 0.0
H203 H 0.09467 0.82763 0.59276 0.0
O204 O 0.17634 0.83064 0.67507 0.0
O205 O 0.17903 0.86424 0.62826 0.0
O206 O 0.11949 0.88103 0.67314 0.0
O207 O 0.10845 0.88805 0.616 0.0
C208 C 0.18462 0.80722 0.48907 0.0
C209 C 0.2149 0.82943 0.48771 0.0
H210 H 0.2701 0.87686 0.49425 0.0
H211 H 0.27492 0.92296 0.54068 0.0
H212 H 0.08217 0.77966 0.54984 0.0
H213 H 0.12263 0.7706 0.49956 0.0
H214 H 0.18102 0.78672 0.46942 0.0
H215 H 0.23434 0.82539 0.46732 0.0
Mn216 Mn 0.83216 0.38353 0.83052 0.0
Mn217 Mn 0.85557 0.38814 0.91453 0.0
C218 C 0.82588 0.33243 0.865 0.0
C219 C 0.78906 0.39232 0.78776 0.0
C220 C 0.9084 0.38418 0.85462 0.0
O221 O 0.83687 0.43719 0.83985 0.0
O222 O 0.84179 0.43697 0.8983 0.0
C223 C 0.78692 0.40706 0.94712 0.0
N224 N 0.81584 0.38536 0.94519 0.0
C225 C 0.79699 0.35178 0.99532 0.0
C226 C 0.76721 0.3741 0.99821 0.0
C227 C 0.76198 0.40165 0.97379 0.0
C228 C 0.82062 0.35818 0.96793 0.0
H229 H 0.78291 0.42813 0.92835 0.0
C230 C 0.83799 0.4532 0.86916 0.0
O231 O 0.8226 0.39199 0.78001 0.0
O232 O 0.78091 0.38877 0.82034 0.0
N233 N 0.86945 0.34315 0.93393 0.0
C234 C 0.8982 0.32261 0.92596 0.0
C235 C 0.9073 0.29386 0.94769 0.0
C236 C 0.88696 0.28677 0.97751 0.0
C237 C 0.85682 0.30755 0.98462 0.0
C238 C 0.84919 0.33595 0.96209 0.0
H239 H 0.91459 0.32861 0.90368 0.0
O240 O 0.82685 0.33059 0.83131 0.0
O241 O 0.82777 0.36488 0.87766 0.0
O242 O 0.8861 0.37826 0.83044 0.0
O243 O 0.89934 0.39075 0.88601 0.0
C244 C 0.83437 0.30168 0.01342 0.0
C245 C 0.80413 0.32337 0.01842 0.0
H246 H 0.74804 0.37014 0.01886 0.0
H247 H 0.7389 0.41878 0.97562 0.0
H248 H 0.93041 0.27772 0.94194 0.0
H249 H 0.8951 0.26555 0.99487 0.0
H250 H 0.83993 0.28046 0.03182 0.0
H251 H 0.78665 0.31805 0.0402 0.0
Mn252 Mn 0.67047 0.62171 0.33535 0.0
Mn253 Mn 0.6456 0.61843 0.41926 0.0
C254 C 0.67633 0.67316 0.36964 0.0
C255 C 0.71412 0.61271 0.29285 0.0
C256 C 0.59351 0.62241 0.35915 0.0
O257 O 0.66685 0.56799 0.34517 0.0
O258 O 0.65718 0.5693 0.40295 0.0
C259 C 0.71312 0.59641 0.4521 0.0
N260 N 0.68539 0.61963 0.44981 0.0
C261 C 0.70443 0.65146 0.5009 0.0
C262 C 0.73333 0.62799 0.50381 0.0
C263 C 0.73786 0.60053 0.47912 0.0
C264 C 0.68136 0.64672 0.4728 0.0
H265 H 0.71614 0.57484 0.43356 0.0
C266 C 0.66288 0.55242 0.37449 0.0
O267 O 0.68064 0.61278 0.28493 0.0
O268 O 0.72195 0.617 0.32541 0.0
N269 N 0.63308 0.66362 0.43896 0.0
C270 C 0.60398 0.68406 0.43209 0.0
C271 C 0.59419 0.71118 0.45546 0.0
C272 C 0.61421 0.7167 0.48573 0.0
C273 C 0.64501 0.6965 0.49144 0.0
C274 C 0.65324 0.66963 0.4674 0.0
H275 H 0.58754 0.67883 0.40968 0.0
O276 O 0.67519 0.67482 0.33594 0.0
O277 O 0.67433 0.6408 0.38245 0.0
O278 O 0.61615 0.62634 0.33478 0.0
O279 O 0.60214 0.61744 0.39084 0.0
C280 C 0.66708 0.70097 0.52068 0.0
C281 C 0.69723 0.67899 0.52501 0.0
H282 H 0.7521 0.63069 0.52497 0.0
H283 H 0.76005 0.58227 0.48124 0.0
H284 H 0.57056 0.72692 0.45078 0.0
H285 H 0.60515 0.73597 0.50477 0.0
H286 H 0.66111 0.72124 0.53999 0.0
H287 H 0.71429 0.68304 0.54732 0.0
Mn288 Mn 0.18326 0.31812 0.11516 0.0
Mn289 Mn 0.25135 0.35523 0.07124 0.0
C290 C 0.23224 0.28308 0.10038 0.0
C291 C 0.15499 0.30397 0.16751 0.0
C292 C 0.18268 0.33328 0.03682 0.0
O293 O 0.17449 0.37145 0.12217 0.0
O294 O 0.22132 0.39317 0.09249 0.0
C295 C 0.29036 0.38638 0.13088 0.0
N296 N 0.28969 0.36483 0.10229 0.0
C297 C 0.35236 0.35365 0.10646 0.0
C298 C 0.35377 0.37571 0.13599 0.0
C299 C 0.32258 0.39194 0.14839 0.0
C300 C 0.31936 0.34849 0.0906 0.0
H301 H 0.26653 0.39932 0.14011 0.0
C302 C 0.1932 0.39734 0.11072 0.0
O303 O 0.13752 0.30563 0.13846 0.0
O304 O 0.18859 0.31124 0.16621 0.0
N305 N 0.28276 0.32247 0.04897 0.0
C306 C 0.27682 0.30289 0.01965 0.0
C307 C 0.30552 0.28707 1.00238 0.0
C308 C 0.33993 0.29139 0.01557 0.0
C309 C 0.34528 0.3104 0.04657 0.0
C310 C 0.31574 0.32638 0.06211 0.0
H311 H 0.2506 0.30056 0.00871 0.0
O312 O 0.20155 0.26882 0.10678 0.0
O313 O 0.23356 0.31796 0.10297 0.0
O314 O 0.16698 0.32192 0.06409 0.0
O315 O 0.21396 0.34612 0.03672 0.0
C316 C 0.37889 0.31544 0.06181 0.0
C317 C 0.38235 0.33667 0.09203 0.0
H318 H 0.37863 0.38036 0.14934 0.0
H319 H 0.32346 0.40899 0.17115 0.0
H320 H 0.30122 0.2726 0.97835 0.0
H321 H 0.3621 0.28113 1.00095 0.0
H322 H 0.40223 0.3032 0.05045 0.0
H323 H 0.40828 0.3402 0.10366 0.0
Mn324 Mn 0.68496 0.18383 0.89349 0.0
Mn325 Mn 0.75531 0.14422 0.93058 0.0
C326 C 0.73477 0.2185 0.90592 0.0
C327 C 0.65441 0.19842 0.84241 0.0
C328 C 0.68679 0.16188 0.96912 0.0
O329 O 0.6754 0.13024 0.88755 0.0
O330 O 0.72852 0.10768 0.90343 0.0
C331 C 0.79906 0.12207 0.87035 0.0
N332 N 0.79543 0.14105 0.9004 0.0
C333 C 0.85733 0.15674 0.90027 0.0
C334 C 0.86172 0.13743 0.86925 0.0
C335 C 0.8324 0.12018 0.85413 0.0
C336 C 0.82337 0.15805 0.91497 0.0
H337 H 0.77671 0.10841 0.85897 0.0
C338 C 0.6973 0.10436 0.8907 0.0
O339 O 0.63822 0.19681 0.87223 0.0
O340 O 0.68782 0.19038 0.84222 0.0
N341 N 0.78342 0.17652 0.95749 0.0
C342 C 0.77477 0.19343 0.98775 0.0
C343 C 0.80133 0.21071 0.00694 0.0
C344 C 0.83646 0.21027 0.9949 0.0
C345 C 0.84456 0.19383 0.96308 0.0
C346 C 0.81702 0.17675 0.94525 0.0
H347 H 0.74803 0.19288 0.99772 0.0
O348 O 0.70397 0.233 0.90079 0.0
O349 O 0.7357 0.18365 0.90271 0.0
O350 O 0.67198 0.18043 0.94537 0.0
O351 O 0.71629 0.14571 0.9649 0.0
C352 C 0.87902 0.19273 0.94891 0.0
C353 C 0.88534 0.1745 0.91734 0.0
H354 H 0.88745 0.13569 0.85681 0.0
H355 H 0.83555 0.10521 0.8302 0.0
H356 H 0.79492 0.22352 0.03142 0.0
H357 H 0.85708 0.2219 0.01076 0.0
H358 H 0.90091 0.20565 0.96215 0.0
H359 H 0.91192 0.17391 0.90666 0.0
Mn360 Mn 0.82093 0.81948 0.39326 0.0
Mn361 Mn 0.75282 0.85728 0.43651 0.0
C362 C 0.77149 0.78499 0.40789 0.0
C363 C 0.84991 0.8039 0.34162 0.0
C364 C 0.82015 0.83379 0.47194 0.0
O365 O 0.83028 0.87263 0.38567 0.0
O366 O 0.78492 0.89467 0.41712 0.0
C367 C 0.71742 0.89096 0.37597 0.0
N368 N 0.7161 0.869 0.40425 0.0
C369 C 0.65329 0.86028 0.39742 0.0
C370 C 0.65392 0.88282 0.36821 0.0
C371 C 0.68618 0.89803 0.35731 0.0
C372 C 0.68538 0.85366 0.41451 0.0
H373 H 0.74207 0.90308 0.36782 0.0
C374 C 0.81272 0.89869 0.39839 0.0
O375 O 0.86691 0.80631 0.37089 0.0
O376 O 0.8164 0.81165 0.34222 0.0
N377 N 0.71928 0.82536 0.45693 0.0
C378 C 0.72326 0.8049 0.48601 0.0
C379 C 0.6933 0.78963 0.50166 0.0
C380 C 0.65967 0.79542 0.48713 0.0
C381 C 0.65632 0.81547 0.45651 0.0
C382 C 0.68703 0.83082 0.44262 0.0
H383 H 0.7489 0.80138 0.49793 0.0
O384 O 0.80216 0.77045 0.40212 0.0
O385 O 0.77039 0.81986 0.40481 0.0
O386 O 0.83656 0.82398 0.4445 0.0
O387 O 0.78857 0.84584 0.47203 0.0
C388 C 0.62358 0.82204 0.44007 0.0
C389 C 0.62213 0.84408 0.41025 0.0
H390 H 0.62983 0.88859 0.35395 0.0
H391 H 0.68689 0.91543 0.33478 0.0
H392 H 0.69606 0.77453 0.52552 0.0
H393 H 0.63647 0.7856 0.50042 0.0
H394 H 0.59938 0.81032 0.45016 0.0
H395 H 0.59687 0.84875 0.39765 0.0
Mn396 Mn 0.31622 0.67832 0.61605 0.0
Mn397 Mn 0.24183 0.64243 0.58245 0.0
C398 C 0.2673 0.71462 0.6055 0.0
C399 C 0.3499 0.69411 0.66504 0.0
C400 C 0.30537 0.66246 0.53796 0.0
O401 O 0.32467 0.62506 0.62366 0.0
O402 O 0.27469 0.60455 0.5991 0.0
C403 C 0.2148 0.61387 0.64944 0.0
N404 N 0.20941 0.63256 0.61948 0.0
C405 C 0.14769 0.6408 0.63303 0.0
C406 C 0.15223 0.62036 0.66334 0.0
C407 C 0.18606 0.60723 0.6718 0.0
C408 C 0.17737 0.64652 0.61182 0.0
H409 H 0.24088 0.60435 0.6563 0.0
C410 C 0.30427 0.59953 0.61456 0.0
O411 O 0.36453 0.69088 0.63454 0.0
O412 O 0.3164 0.68695 0.66708 0.0
N413 N 0.2063 0.67456 0.56574 0.0
C414 C 0.20733 0.69664 0.53761 0.0
C415 C 0.17591 0.71275 0.52596 0.0
C416 C 0.14395 0.70656 0.54383 0.0
C417 C 0.14382 0.68493 0.57354 0.0
C418 C 0.17571 0.66873 0.58328 0.0
H419 H 0.23189 0.70169 0.52414 0.0
O420 O 0.29894 0.72786 0.60805 0.0
O421 O 0.26476 0.68002 0.61004 0.0
O422 O 0.32546 0.67208 0.5632 0.0
O423 O 0.27336 0.65196 0.54231 0.0
C424 C 0.11322 0.67855 0.59371 0.0
C425 C 0.11521 0.65669 0.6236 0.0
H426 H 0.13014 0.61533 0.6807 0.0
H427 H 0.18999 0.59211 0.69552 0.0
H428 H 0.17631 0.72938 0.50296 0.0
H429 H 0.11952 0.71827 0.53453 0.0
H430 H 0.08815 0.69076 0.58675 0.0
H431 H 0.09173 0.65264 0.63938 0.0
Mn432 Mn 0.88186 0.82928 0.68734 0.0
Mn433 Mn 0.87571 0.91558 0.66234 0.0
C434 C 0.83022 0.86115 0.69706 0.0
C435 C 0.89483 0.78741 0.73097 0.0
C436 C 0.86985 0.85325 0.61199 0.0
O437 O 0.93355 0.84301 0.67958 0.0
O438 O 0.92648 0.90098 0.66412 0.0
C439 C 0.90878 0.94986 0.72373 0.0
N440 N 0.88024 0.94555 0.70244 0.0
C441 C 0.84581 0.98744 0.73602 0.0
C442 C 0.87492 0.99252 0.75816 0.0
C443 C 0.90651 0.97361 0.752 0.0
C444 C 0.84975 0.9637 0.70806 0.0
H445 H 0.93305 0.93522 0.71922 0.0
C446 C 0.94589 0.87343 0.67016 0.0
O447 O 0.89374 0.77797 0.6984 0.0
O448 O 0.8905 0.82113 0.7375 0.0
N449 N 0.8279 0.93265 0.66014 0.0
C450 C 0.80198 0.92385 0.63699 0.0
C451 C 0.76833 0.93964 0.64016 0.0
C452 C 0.76173 0.96431 0.66702 0.0
C453 C 0.78893 0.97317 0.69034 0.0
C454 C 0.82201 0.95681 0.68571 0.0
H455 H 0.80685 0.90467 0.61649 0.0
O456 O 0.82981 0.82645 0.69597 0.0
O457 O 0.86102 0.8761 0.69229 0.0
O458 O 0.87333 0.82811 0.63438 0.0
O459 O 0.87011 0.88657 0.61978 0.0
C460 C 0.78439 0.99724 0.71826 0.0
C461 C 0.81284 0.00443 0.74103 0.0
H462 H 0.87317 0.01056 0.78019 0.0
H463 H 0.92901 0.97721 0.76911 0.0
H464 H 0.74746 0.93264 0.62208 0.0
H465 H 0.73565 0.97619 0.66956 0.0
H466 H 0.75907 0.01021 0.72257 0.0
H467 H 0.80899 0.02282 0.76251 0.0
Mn468 Mn 0.62567 0.17073 0.18567 0.0
Mn469 Mn 0.63113 0.08306 0.16581 0.0
C470 C 0.67733 0.13916 0.19659 0.0
C471 C 0.6126 0.21432 0.22789 0.0
C472 C 0.63813 0.14221 0.11167 0.0
O473 O 0.57388 0.15706 0.17899 0.0
O474 O 0.58045 0.09827 0.16706 0.0
C475 C 0.59828 0.05412 0.22992 0.0
N476 N 0.62646 0.05597 0.2078 0.0
C477 C 0.66072 0.01635 0.24399 0.0
C478 C 0.63195 0.0138 0.267 0.0
C479 C 0.60061 0.03278 0.25993 0.0
C480 C 0.65672 0.03775 0.21431 0.0
H481 H 0.57426 0.06894 0.22478 0.0
C482 C 0.56119 0.12622 0.17168 0.0
O483 O 0.61387 0.22266 0.19502 0.0
O484 O 0.61719 0.18091 0.2354 0.0
N485 N 0.67864 0.06501 0.16425 0.0
C486 C 0.70449 0.07166 0.14031 0.0
C487 C 0.73784 0.0554 0.14407 0.0
C488 C 0.74425 0.03248 0.17237 0.0
C489 C 0.71714 0.02578 0.1965 0.0
C490 C 0.6843 0.0424 0.19117 0.0
H491 H 0.69987 0.08961 0.11876 0.0
O492 O 0.67786 0.17376 0.1939 0.0
O493 O 0.64644 0.12419 0.19301 0.0
O494 O 0.63401 0.1688 0.13243 0.0
O495 O 0.63726 0.10951 0.12177 0.0
C496 C 0.72161 0.00379 0.22598 0.0
C497 C 0.69343 0.99908 0.2497 0.0
H498 H 0.63375 0.9976 0.29033 0.0
H499 H 0.57838 0.03113 0.27768 0.0
H500 H 0.75867 0.0608 0.12541 0.0
H501 H 0.77015 0.02034 0.17542 0.0
H502 H 0.74675 0.99068 0.23085 0.0
H503 H 0.69731 0.98241 0.27247 0.0
Mn504 Mn 0.37503 0.67505 0.32297 0.0
Mn505 Mn 0.37235 0.5879 0.34579 0.0
C506 C 0.32525 0.64092 0.31089 0.0
C507 C 0.38776 0.7191 0.28141 0.0
C508 C 0.36102 0.64852 0.39726 0.0
O509 O 0.42704 0.66362 0.33153 0.0
O510 O 0.42253 0.60505 0.34553 0.0
C511 C 0.40898 0.55721 0.28444 0.0
N512 N 0.37965 0.55938 0.30505 0.0
C513 C 0.34823 0.51718 0.26906 0.0
C514 C 0.3782 0.51431 0.24762 0.0
C515 C 0.40868 0.53445 0.25534 0.0
C516 C 0.3502 0.54005 0.2979 0.0
H517 H 0.4324 0.57281 0.29008 0.0
C518 C 0.44079 0.63352 0.33977 0.0
O519 O 0.385 0.72712 0.31423 0.0
O520 O 0.38506 0.68552 0.27336 0.0
N521 N 0.32543 0.56823 0.34616 0.0
C522 C 0.29852 0.57457 0.36902 0.0
C523 C 0.2658 0.55724 0.3644 0.0
C524 C 0.26116 0.53343 0.33645 0.0
C525 C 0.2894 0.52692 0.31356 0.0
C526 C 0.32148 0.54477 0.31963 0.0
H527 H 0.30192 0.59283 0.39052 0.0
O528 O 0.3232 0.67555 0.31279 0.0
O529 O 0.35658 0.62735 0.31618 0.0
O530 O 0.36444 0.67426 0.37557 0.0
O531 O 0.36353 0.61542 0.38901 0.0
C532 C 0.28685 0.50373 0.28473 0.0
C533 C 0.31626 0.49883 0.26252 0.0
H534 H 0.37797 0.49703 0.22497 0.0
H535 H 0.43184 0.53256 0.23878 0.0
H536 H 0.24417 0.56234 0.38224 0.0
H537 H 0.23579 0.52033 0.3328 0.0
H538 H 0.26233 0.48968 0.27928 0.0
H539 H 0.3139 0.48112 0.2403 0.0
Mn540 Mn 0.12534 0.32724 0.82094 0.0
Mn541 Mn 0.13112 0.41408 0.84372 0.0
C542 C 0.17762 0.35836 0.81191 0.0
C543 C 0.11188 0.28489 0.77802 0.0
C544 C 0.13487 0.35305 0.89601 0.0
O545 O 0.07374 0.34151 0.82708 0.0
O546 O 0.08008 0.40018 0.83992 0.0
C547 C 0.10201 0.44603 0.77931 0.0
N548 N 0.12911 0.44266 0.80248 0.0
C549 C 0.16622 0.48204 0.76874 0.0
C550 C 0.1386 0.48618 0.74468 0.0
C551 C 0.10637 0.46808 0.75 0.0
C552 C 0.1602 0.46003 0.79767 0.0
H553 H 0.07734 0.43185 0.78308 0.0
C554 C 0.06093 0.37235 0.83408 0.0
O555 O 0.11268 0.27593 0.81074 0.0
O556 O 0.11751 0.31827 0.77088 0.0
N557 N 0.17898 0.43066 0.8478 0.0
C558 C 0.20355 0.42235 0.87248 0.0
C559 C 0.23759 0.43747 0.87042 0.0
C560 C 0.24601 0.46093 0.84304 0.0
C561 C 0.22019 0.46931 0.8181 0.0
C562 C 0.18658 0.45378 0.82174 0.0
H563 H 0.19734 0.40404 0.89338 0.0
O564 O 0.17758 0.32366 0.81354 0.0
O565 O 0.14683 0.37365 0.8155 0.0
O566 O 0.13256 0.32734 0.87407 0.0
O567 O 0.13435 0.38617 0.88734 0.0
C568 C 0.2267 0.49189 0.7894 0.0
C569 C 0.19974 0.49825 0.76474 0.0
H570 H 0.14197 0.5029 0.72186 0.0
H571 H 0.08501 0.47095 0.73142 0.0
H572 H 0.25741 0.43079 0.88971 0.0
H573 H 0.27244 0.47218 0.8413 0.0
H574 H 0.25248 0.50418 0.78584 0.0
H575 H 0.2052 0.51533 0.74257 0.0
Mn576 Mn 0.6715 0.88594 0.82926 0.0
Mn577 Mn 0.65006 0.88724 0.91413 0.0
C578 C 0.67989 0.83528 0.86293 0.0
C579 C 0.71468 0.89604 0.78675 0.0
C580 C 0.59554 0.88204 0.85608 0.0
O581 O 0.66759 0.93912 0.83999 0.0
O582 O 0.65824 0.93751 0.89799 0.0
C583 C 0.71799 0.91304 0.94342 0.0
N584 N 0.69236 0.88739 0.94151 0.0
C585 C 0.72412 0.84926 0.98123 0.0
C586 C 0.75071 0.87541 0.98383 0.0
C587 C 0.74762 0.90743 0.96484 0.0
C588 C 0.69496 0.85655 0.95983 0.0
H589 H 0.71597 0.93752 0.92854 0.0
C590 C 0.66402 0.95449 0.86946 0.0
O591 O 0.68119 0.89528 0.77865 0.0
O592 O 0.7225 0.89177 0.81923 0.0
N593 N 0.64245 0.84005 0.93235 0.0
C594 C 0.6158 0.81654 0.92509 0.0
C595 C 0.61564 0.78266 0.94102 0.0
C596 C 0.64291 0.77326 0.96414 0.0
C597 C 0.67001 0.79792 0.97128 0.0
C598 C 0.66853 0.83148 0.95499 0.0
H599 H 0.59499 0.82342 0.90701 0.0
O600 O 0.67744 0.83273 0.82937 0.0
O601 O 0.67717 0.86752 0.87545 0.0
O602 O 0.61736 0.88035 0.83069 0.0
O603 O 0.60502 0.88607 0.88779 0.0
C604 C 0.69888 0.79021 0.99329 0.0
C605 C 0.7259 0.81586 0.99828 0.0
H606 H 0.77381 0.87101 1.0 0.0
H607 H 0.76816 0.92763 0.96651 0.0
H608 H 0.59474 0.7637 0.93522 0.0
H609 H 0.64295 0.74692 0.976 0.0
H610 H 0.7008 0.76444 0.00615 0.0
H611 H 0.7482 0.80941 0.01489 0.0
Mn612 Mn 0.8342 0.11426 0.32949 0.0
Mn613 Mn 0.85487 0.12068 0.41446 0.0
C614 C 0.82541 0.16757 0.35936 0.0
C615 C 0.79217 0.10264 0.28639 0.0
C616 C 0.90986 0.1222 0.35676 0.0
O617 O 0.83774 0.06196 0.344 0.0
O618 O 0.84971 0.06911 0.40108 0.0
C619 C 0.78732 0.09303 0.4433 0.0
N620 N 0.81196 0.11965 0.44106 0.0
C621 C 0.77765 0.15775 0.47879 0.0
C622 C 0.75223 0.1305 0.48194 0.0
C623 C 0.75707 0.09803 0.46406 0.0
C624 C 0.80753 0.15105 0.45811 0.0
H625 H 0.7905 0.0683 0.42909 0.0
C626 C 0.84356 0.04934 0.37436 0.0
O627 O 0.82591 0.10177 0.27943 0.0
O628 O 0.78329 0.10843 0.31843 0.0
N629 N 0.8595 0.1691 0.43051 0.0
C630 C 0.88512 0.1936 0.42277 0.0
C631 C 0.88335 0.22807 0.43734 0.0
C632 C 0.85528 0.23701 0.45973 0.0
C633 C 0.82933 0.2113 0.46752 0.0
C634 C 0.83272 0.17723 0.45255 0.0
H635 H 0.90652 0.187 0.40535 0.0
O636 O 0.82879 0.16752 0.32579 0.0
O637 O 0.82773 0.13642 0.37424 0.0
O638 O 0.88833 0.11887 0.33138 0.0
O639 O 0.90039 0.12317 0.3887 0.0
C640 C 0.79981 0.21841 0.48892 0.0
C641 C 0.774 0.19166 0.49456 0.0
H642 H 0.72865 0.13442 0.4976 0.0
H643 H 0.73736 0.07703 0.46602 0.0
H644 H 0.90341 0.24781 0.43108 0.0
H645 H 0.85375 0.26378 0.47057 0.0
H646 H 0.79645 0.24454 0.50077 0.0
H647 H 0.75114 0.19763 0.51063 0.0
Mn648 Mn 0.1695 0.61432 0.17628 0.0
Mn649 Mn 0.14757 0.61765 0.09156 0.0
C650 C 0.1794 0.66619 0.14433 0.0
C651 C 0.21265 0.60262 0.21858 0.0
C652 C 0.09348 0.62023 0.1503 0.0
O653 O 0.1643 0.56149 0.16315 0.0
O654 O 0.15556 0.56679 0.10524 0.0
C655 C 0.214 0.59227 0.0586 0.0
N656 N 0.18932 0.6185 0.06327 0.0
C657 C 0.22022 0.65799 0.02408 0.0
C658 C 0.24578 0.63128 0.01862 0.0
C659 C 0.24264 0.59828 0.03596 0.0
C660 C 0.19193 0.65025 0.04648 0.0
H661 H 0.21201 0.56707 0.07223 0.0
C662 C 0.16064 0.54792 0.13277 0.0
O663 O 0.17913 0.60315 0.22655 0.0
O664 O 0.22053 0.60729 0.18614 0.0
N665 N 0.14032 0.6659 0.07605 0.0
C666 C 0.11416 0.6893 0.08511 0.0
C667 C 0.11407 0.72395 0.07083 0.0
C668 C 0.14087 0.7342 0.04746 0.0
C669 C 0.1675 0.70964 0.0385 0.0
C670 C 0.16606 0.67538 0.05334 0.0
H671 H 0.09366 0.6817 0.1033 0.0
O672 O 0.17681 0.66755 0.17794 0.0
O673 O 0.1754 0.63458 0.13081 0.0
O674 O 0.11545 0.62095 0.17555 0.0
O675 O 0.1028 0.61762 0.11842 0.0
C676 C 0.19574 0.71803 0.01588 0.0
C677 C 0.22203 0.69219 0.00861 0.0
H678 H 0.26815 0.63598 1.00151 0.0
H679 H 0.26242 0.57764 0.03213 0.0
H680 H 0.09351 0.7428 0.07799 0.0
H681 H 0.14088 0.76106 0.03674 0.0
H682 H 0.19761 0.74435 1.00411 0.0
H683 H 0.24372 0.69902 0.99134 0.0
Mn684 Mn 0.33538 0.38322 0.67813 0.0
Mn685 Mn 0.35475 0.38439 0.59256 0.0
C686 C 0.32429 0.33336 0.64401 0.0
C687 C 0.29373 0.39297 0.72239 0.0
C688 C 0.41055 0.37834 0.64927 0.0
O689 O 0.34001 0.43638 0.66748 0.0
O690 O 0.34793 0.43454 0.60908 0.0
C691 C 0.28805 0.41281 0.56277 0.0
N692 N 0.3121 0.38573 0.56571 0.0
C693 C 0.27883 0.3486 0.52625 0.0
C694 C 0.25371 0.37608 0.52285 0.0
C695 C 0.25839 0.40835 0.54114 0.0
C696 C 0.30814 0.35479 0.54779 0.0
H697 H 0.29145 0.43761 0.57682 0.0
C698 C 0.34361 0.45146 0.63785 0.0
O699 O 0.32749 0.39186 0.72916 0.0
O700 O 0.28466 0.38985 0.69008 0.0
N701 N 0.36066 0.33693 0.57441 0.0
C702 C 0.38676 0.31271 0.58129 0.0
C703 C 0.38561 0.27875 0.56554 0.0
C704 C 0.35763 0.27003 0.54297 0.0
C705 C 0.33108 0.2954 0.53626 0.0
C706 C 0.33379 0.32892 0.55246 0.0
H707 H 0.40814 0.31912 0.59889 0.0
O708 O 0.3281 0.33011 0.6774 0.0
O709 O 0.32795 0.36561 0.63188 0.0
O710 O 0.38938 0.37677 0.67518 0.0
O711 O 0.40026 0.3823 0.61785 0.0
C712 C 0.30174 0.28853 0.51458 0.0
C713 C 0.27568 0.31514 0.50952 0.0
H714 H 0.23059 0.37259 0.50649 0.0
H715 H 0.23907 0.42965 0.53874 0.0
H716 H 0.40612 0.25926 0.57096 0.0
H717 H 0.35667 0.24369 0.53113 0.0
H718 H 0.29885 0.2628 0.50183 0.0
H719 H 0.25317 0.30948 0.49292 0.0
Mn720 Mn 0.82125 0.68317 0.89269 0.0
Mn721 Mn 0.90832 0.66356 0.89247 0.0
C722 C 0.85563 0.69554 0.84424 0.0
C723 C 0.77497 0.72361 0.9023 0.0
C724 C 0.85159 0.60758 0.88108 0.0
O725 O 0.83139 0.67722 0.94419 0.0
O726 O 0.88909 0.66158 0.94114 0.0
C727 C 0.93337 0.72758 0.93089 0.0
N728 N 0.93395 0.70678 0.90176 0.0
C729 C 0.9759 0.74618 0.87402 0.0
C730 C 0.97593 0.76786 0.90383 0.0
C731 C 0.95453 0.75853 0.93236 0.0
C732 C 0.95448 0.7155 0.87417 0.0
H733 H 0.91683 0.72068 0.95283 0.0
C734 C 0.8605 0.66779 0.95836 0.0
O735 O 0.76912 0.68928 0.90091 0.0
O736 O 0.80767 0.73391 0.89982 0.0
N737 N 0.93009 0.66524 0.84745 0.0
C738 C 0.92601 0.64229 0.82017 0.0
C739 C 0.94483 0.64844 0.78919 0.0
C740 C 0.96764 0.6781 0.78659 0.0
C741 C 0.9716 0.70121 0.81509 0.0
C742 C 0.95241 0.69353 0.8454 0.0
H743 H 0.90812 0.61982 0.82183 0.0
O744 O 0.82166 0.69121 0.8414 0.0
O745 O 0.86853 0.69214 0.87548 0.0
O746 O 0.82523 0.62859 0.88566 0.0
O747 O 0.88388 0.61797 0.88182 0.0
C748 C 0.99347 0.73184 0.81443 0.0
C749 C 0.99565 0.75428 0.84389 0.0
H750 H 0.99198 0.79192 0.90495 0.0
H751 H 0.95423 0.77524 0.95537 0.0
H752 H 0.94153 0.63054 0.76727 0.0
H753 H 0.98184 0.68295 0.76253 0.0
H754 H 0.00853 0.73852 0.79131 0.0
H755 H 0.01232 0.77793 0.84297 0.0
Mn756 Mn 0.32119 0.81949 0.11581 0.0
Mn757 Mn 0.40838 0.83819 0.1183 0.0
C758 C 0.35324 0.80932 0.1662 0.0
C759 C 0.27659 0.77735 0.10534 0.0
C760 C 0.3511 0.89519 0.12344 0.0
O761 O 0.33382 0.82442 0.06432 0.0
O762 O 0.39267 0.83408 0.06882 0.0
C763 C 0.43553 0.76972 0.08997 0.0
N764 N 0.43435 0.79425 0.11619 0.0
C765 C 0.47295 0.75834 0.15181 0.0
C766 C 0.47481 0.73284 0.12507 0.0
C767 C 0.45601 0.73856 0.09402 0.0
C768 C 0.45244 0.78908 0.14613 0.0
H769 H 0.42082 0.77383 0.06621 0.0
C770 C 0.36432 0.82989 0.05078 0.0
O771 O 0.26948 0.81148 0.10562 0.0
O772 O 0.30944 0.76844 0.10936 0.0
N773 N 0.42662 0.84245 0.16459 0.0
C774 C 0.42054 0.86873 0.18848 0.0
C775 C 0.43661 0.86654 0.22136 0.0
C776 C 0.45874 0.83739 0.22931 0.0
C777 C 0.46483 0.81082 0.20419 0.0
C778 C 0.44845 0.81467 0.17172 0.0
H779 H 0.40324 0.891 0.18264 0.0
O780 O 0.31908 0.81281 0.1673 0.0
O781 O 0.36746 0.81166 0.13545 0.0
O782 O 0.32433 0.87418 0.12226 0.0
O783 O 0.38329 0.88455 0.12146 0.0
C784 C 0.48593 0.78031 0.21034 0.0
C785 C 0.49 0.75409 0.18417 0.0
H786 H 0.49029 0.7086 0.12822 0.0
H787 H 0.45713 0.71889 0.07335 0.0
H788 H 0.43169 0.88709 0.24064 0.0
H789 H 0.47072 0.83556 0.25485 0.0
H790 H 0.49883 0.77652 0.23524 0.0
H791 H 0.50595 0.73055 0.18936 0.0
Mn792 Mn 0.17997 0.18293 0.61481 0.0
Mn793 Mn 0.09368 0.1603 0.61654 0.0
C794 C 0.14639 0.19328 0.66407 0.0
C795 C 0.22444 0.22512 0.60479 0.0
C796 C 0.15246 0.10659 0.62649 0.0
O797 O 0.16897 0.17728 0.56357 0.0
O798 O 0.11209 0.15901 0.56748 0.0
C799 C 0.06603 0.22362 0.57878 0.0
N800 N 0.06663 0.20275 0.60787 0.0
C801 C 0.0246 0.24117 0.63673 0.0
C802 C 0.02335 0.2629 0.60699 0.0
C803 C 0.04419 0.25409 0.57791 0.0
C804 C 0.04663 0.21096 0.63598 0.0
H805 H 0.08216 0.21715 0.55643 0.0
C806 C 0.14011 0.16654 0.54983 0.0
O807 O 0.23163 0.19102 0.60551 0.0
O808 O 0.19147 0.23406 0.60824 0.0
N809 N 0.07269 0.16117 0.66194 0.0
C810 C 0.0777 0.13807 0.68895 0.0
C811 C 0.05952 0.14371 0.72038 0.0
C812 C 0.03632 0.17296 0.72368 0.0
C813 C 0.03127 0.19614 0.6954 0.0
C814 C 0.04987 0.18898 0.66462 0.0
H815 H 0.09576 0.11579 0.68667 0.0
O816 O 0.18054 0.19006 0.66611 0.0
O817 O 0.13286 0.19 0.63307 0.0
O818 O 0.17797 0.12838 0.62107 0.0
O819 O 0.11979 0.11564 0.6267 0.0
C820 C 0.00885 0.22632 0.6967 0.0
C821 C 0.00548 0.24879 0.66737 0.0
H822 H 0.00679 0.28661 0.60632 0.0
H823 H 0.04355 0.27085 0.55494 0.0
H824 H 0.06358 0.12571 0.74209 0.0
H825 H 0.0226 0.17742 0.74807 0.0
H826 H 0.99425 0.23262 0.7202 0.0
H827 H 0.98839 0.27208 0.66878 0.0
Mn828 Mn 0.68489 0.32237 0.38672 0.0
Mn829 Mn 0.59738 0.33811 0.39062 0.0
C830 C 0.64951 0.30932 0.33903 0.0
C831 C 0.73139 0.28211 0.39578 0.0
C832 C 0.65316 0.39683 0.38256 0.0
O833 O 0.67547 0.32931 0.43866 0.0
O834 O 0.61547 0.33092 0.43923 0.0
C835 C 0.56974 0.26887 0.41683 0.0
N836 N 0.57102 0.29428 0.39146 0.0
C837 C 0.52962 0.26129 0.35615 0.0
C838 C 0.52759 0.23497 0.38212 0.0
C839 C 0.54779 0.23877 0.41259 0.0
C840 C 0.55154 0.29099 0.36212 0.0
H841 H 0.5855 0.27148 0.43999 0.0
C842 C 0.64572 0.33 0.45466 0.0
O843 O 0.73729 0.31641 0.39377 0.0
O844 O 0.69865 0.27187 0.39435 0.0
N845 N 0.57761 0.34477 0.34516 0.0
C846 C 0.58357 0.37183 0.32205 0.0
C847 C 0.56638 0.37136 0.28966 0.0
C848 C 0.54326 0.34311 0.28136 0.0
C849 C 0.53747 0.3156 0.30557 0.0
C850 C 0.55516 0.31762 0.33753 0.0
H851 H 0.60149 0.3935 0.32814 0.0
O852 O 0.68342 0.31361 0.33542 0.0
O853 O 0.63763 0.31261 0.37066 0.0
O854 O 0.68008 0.3765 0.37874 0.0
O855 O 0.62195 0.38509 0.38896 0.0
C856 C 0.51526 0.28598 0.29902 0.0
C857 C 0.51126 0.25889 0.32433 0.0
H858 H 0.511 0.21151 0.37875 0.0
H859 H 0.54664 0.21841 0.43262 0.0
H860 H 0.57108 0.39263 0.27107 0.0
H861 H 0.53026 0.3427 0.25624 0.0
H862 H 0.5013 0.28365 0.2745 0.0
H863 H 0.49427 0.23614 0.31892 0.0
C864 C 0.11266 0.26291 0.19745 0.0
C865 C 0.13875 0.28975 0.19974 0.0
C866 C 0.10307 0.24264 0.22672 0.0
C867 C 0.11846 0.24918 0.25944 0.0
H868 H 0.10169 0.25551 0.17242 0.0
H869 H 0.08515 0.22021 0.22326 0.0
S870 S 0.18358 0.32048 0.28023 0.0
N871 N 0.17674 0.32462 0.23798 0.0
N872 N 0.15786 0.28719 0.29321 0.0
C873 C 0.1419 0.27827 0.26273 0.0
C874 C 0.15231 0.29837 0.23277 0.0
C875 C 0.36765 0.72071 0.75844 0.0
C876 C 0.38911 0.75128 0.7546 0.0
C877 C 0.35718 0.70051 0.72934 0.0
C878 C 0.36851 0.7096 0.69553 0.0
H879 H 0.35634 0.71416 0.78357 0.0
H880 H 0.33844 0.67882 0.73313 0.0
S881 S 0.42944 0.78394 0.67246 0.0
N882 N 0.42439 0.78745 0.71502 0.0
N883 N 0.4057 0.74879 0.66056 0.0
C884 C 0.39272 0.73801 0.69185 0.0
C885 C 0.40273 0.75905 0.72136 0.0
C886 C 0.64157 0.22369 0.74781 0.0
C887 C 0.61787 0.25264 0.75006 0.0
C888 C 0.65147 0.20443 0.77767 0.0
C889 C 0.63738 0.21295 0.81063 0.0
H890 H 0.65493 0.21788 0.72348 0.0
H891 H 0.67175 0.18402 0.77523 0.0
S892 S 0.57 0.28286 0.82905 0.0
N893 N 0.57767 0.28647 0.78688 0.0
N894 N 0.59526 0.24958 0.84278 0.0
C895 C 0.61107 0.23959 0.81251 0.0
C896 C 0.6016 0.25966 0.78226 0.0
C897 C 0.8614 0.77618 0.24746 0.0
C898 C 0.88648 0.74845 0.24991 0.0
C899 C 0.85128 0.79582 0.27702 0.0
C900 C 0.86648 0.7889 0.30981 0.0
H901 H 0.84723 0.7806 0.22332 0.0
H902 H 0.83007 0.81522 0.27454 0.0
S903 S 0.93742 0.72271 0.32839 0.0
N904 N 0.92895 0.71752 0.28654 0.0
N905 N 0.911 0.75519 0.34185 0.0
C906 C 0.89404 0.76356 0.31175 0.0
C907 C 0.90375 0.7431 0.28183 0.0
C908 C 0.22666 0.10514 0.2367 0.0
C909 C 0.26255 0.11047 0.24533 0.0
C910 C 0.19959 0.11263 0.26064 0.0
C911 C 0.20742 0.12563 0.29407 0.0
H912 H 0.21927 0.09694 0.21065 0.0
H913 H 0.17229 0.11055 0.25208 0.0
S914 S 0.29674 0.14065 0.33105 0.0
N915 N 0.30438 0.12632 0.29107 0.0
N916 N 0.25319 0.14129 0.33554 0.0
C917 C 0.24305 0.12907 0.30377 0.0
C918 C 0.27072 0.12099 0.27961 0.0
C919 C 0.26328 0.86873 0.80337 0.0
C920 C 0.2992 0.87161 0.79399 0.0
C921 C 0.23628 0.87807 0.77984 0.0
C922 C 0.24442 0.88958 0.74584 0.0
H923 H 0.25605 0.85774 0.82849 0.0
H924 H 0.20896 0.87383 0.78753 0.0
S925 S 0.33461 0.90231 0.70906 0.0
N926 N 0.3415 0.88739 0.74889 0.0
N927 N 0.29118 0.90554 0.705 0.0
C928 C 0.28034 0.89426 0.73693 0.0
C929 C 0.30765 0.88491 0.76085 0.0
C930 C 0.76944 0.38033 0.7266 0.0
C931 C 0.76113 0.39167 0.76061 0.0
C932 C 0.74261 0.37125 0.70285 0.0
C933 C 0.70667 0.37426 0.71196 0.0
H934 H 0.79678 0.37598 0.71903 0.0
H935 H 0.75 0.36026 0.67777 0.0
S936 S 0.67077 0.40511 0.79664 0.0
N937 N 0.7142 0.40786 0.80115 0.0
N938 N 0.66408 0.39037 0.75669 0.0
C939 C 0.69801 0.3876 0.74505 0.0
C940 C 0.7252 0.39661 0.76927 0.0
C941 C 0.76132 0.62909 0.20708 0.0
C942 C 0.79721 0.62623 0.2164 0.0
C943 C 0.73428 0.62165 0.23123 0.0
C944 C 0.74231 0.61215 0.26582 0.0
H945 H 0.75413 0.63878 0.18147 0.0
H946 H 0.70702 0.62579 0.22335 0.0
S947 S 0.83242 0.59973 0.30265 0.0
N948 N 0.83943 0.61214 0.26201 0.0
N949 N 0.78894 0.59774 0.30723 0.0
C950 C 0.77817 0.60734 0.2748 0.0
C951 C 0.80557 0.61466 0.25017 0.0
C952 C 0.28408 0.19689 0.09622 0.0
C953 C 0.31098 0.20203 0.12106 0.0
C954 C 0.26148 0.22502 0.08618 0.0
C955 C 0.26379 0.25918 0.10163 0.0
H956 H 0.2778 0.17025 0.08718 0.0
H957 H 0.2398 0.219 0.06864 0.0
S958 S 0.32876 0.28635 0.16907 0.0
N959 N 0.33977 0.24468 0.1595 0.0
N960 N 0.29456 0.296 0.14399 0.0
C961 C 0.29126 0.26507 0.12566 0.0
C962 C 0.31537 0.23687 0.13461 0.0
C963 C 0.78561 0.30505 0.90982 0.0
C964 C 0.81191 0.30068 0.88424 0.0
C965 C 0.76402 0.27632 0.92043 0.0
C966 C 0.76624 0.24246 0.90433 0.0
H967 H 0.77877 0.3315 0.91893 0.0
H968 H 0.74281 0.28175 0.93873 0.0
S969 S 0.82855 0.21788 0.83352 0.0
N970 N 0.83989 0.25919 0.84406 0.0
N971 N 0.79536 0.2073 0.85959 0.0
C972 C 0.79278 0.2375 0.8791 0.0
C973 C 0.81639 0.26612 0.87006 0.0
C974 C 0.74176 0.72722 0.42275 0.0
C975 C 0.73977 0.76124 0.40693 0.0
C976 C 0.71866 0.69926 0.41325 0.0
C977 C 0.69165 0.70448 0.38854 0.0
H978 H 0.7635 0.72114 0.44019 0.0
H979 H 0.72462 0.67263 0.42254 0.0
S980 S 0.67445 0.78853 0.33991 0.0
N981 N 0.70907 0.79798 0.36451 0.0
N982 N 0.66297 0.74713 0.35005 0.0
C983 C 0.68754 0.73926 0.37476 0.0
C984 C 0.71213 0.76722 0.38314 0.0
C985 C 0.21914 0.80249 0.59848 0.0
C986 C 0.19205 0.79942 0.6234 0.0
C987 C 0.24042 0.77308 0.58945 0.0
C988 C 0.23704 0.73992 0.60665 0.0
H989 H 0.2268 0.82847 0.58879 0.0
H990 H 0.26211 0.7774 0.57141 0.0
S991 S 0.17239 0.71883 0.67642 0.0
N992 N 0.16198 0.75983 0.66405 0.0
N993 N 0.20625 0.70685 0.65181 0.0
C994 C 0.20983 0.73627 0.63133 0.0
C995 C 0.18642 0.76547 0.63859 0.0
C996 C 0.87202 0.70348 0.7817 0.0
C997 C 0.87423 0.71531 0.81636 0.0
C998 C 0.88235 0.72574 0.75395 0.0
C999 C 0.89425 0.761 0.75993 0.0
H1000 H 0.86073 0.67743 0.77594 0.0
H1001 H 0.87838 0.71618 0.72763 0.0
S1002 S 0.90563 0.80428 0.84623 0.0
N1003 N 0.88985 0.76405 0.85522 0.0
N1004 N 0.90995 0.80562 0.80352 0.0
C1005 C 0.89841 0.7723 0.79469 0.0
C1006 C 0.88799 0.74962 0.8228 0.0
C1007 C 0.62188 0.27724 0.2497 0.0
C1008 C 0.61209 0.24143 0.25632 0.0
C1009 C 0.63131 0.30048 0.27705 0.0
C1010 C 0.63052 0.28892 0.31189 0.0
H1011 H 0.62496 0.28659 0.22319 0.0
H1012 H 0.64115 0.327 0.27081 0.0
S1013 S 0.6047 0.1987 0.34335 0.0
N1014 N 0.59938 0.19671 0.3008 0.0
N1015 N 0.61851 0.23982 0.35152 0.0
C1016 C 0.61873 0.25401 0.31894 0.0
C1017 C 0.60893 0.23049 0.29132 0.0
C1018 C 0.39482 0.73565 0.21895 0.0
C1019 C 0.38802 0.74655 0.25342 0.0
C1020 C 0.38618 0.75763 0.19064 0.0
C1021 C 0.37091 0.79154 0.19572 0.0
H1022 H 0.40475 0.70896 0.2136 0.0
H1023 H 0.38924 0.74696 0.16459 0.0
S1024 S 0.35178 0.8348 0.28038 0.0
N1025 N 0.36836 0.79526 0.29091 0.0
N1026 N 0.35187 0.83634 0.23743 0.0
C1027 C 0.36621 0.80384 0.22991 0.0
C1028 C 0.37518 0.78155 0.25886 0.0
C1029 C 0.1319 0.20068 0.727 0.0
C1030 C 0.1281 0.21242 0.69245 0.0
C1031 C 0.12284 0.22301 0.7551 0.0
C1032 C 0.11064 0.25819 0.74945 0.0
H1033 H 0.14372 0.17478 0.73234 0.0
H1034 H 0.12824 0.2137 0.78125 0.0
S1035 S 0.09445 0.3009 0.66368 0.0
N1036 N 0.11014 0.26079 0.65412 0.0
N1037 N 0.09225 0.30241 0.70655 0.0
C1038 C 0.1045 0.26923 0.71492 0.0
C1039 C 0.11368 0.24652 0.68648 0.0
C1040 C 0.73731 0.88291 0.72682 0.0
C1041 C 0.74335 0.89667 0.76039 0.0
C1042 C 0.7658 0.87387 0.70492 0.0
C1043 C 0.80107 0.87927 0.71552 0.0
H1044 H 0.71065 0.87637 0.71848 0.0
H1045 H 0.76029 0.86085 0.6803 0.0
S1046 S 0.83091 0.9172 0.79964 0.0
N1047 N 0.78722 0.91813 0.80186 0.0
N1048 N 0.84043 0.90025 0.76109 0.0
C1049 C 0.80733 0.89515 0.74801 0.0
C1050 C 0.77849 0.90431 0.77026 0.0
C1051 C 0.7009 0.10512 0.24681 0.0
C1052 C 0.70704 0.1214 0.21444 0.0
C1053 C 0.72911 0.09586 0.26868 0.0
C1054 C 0.76449 0.10286 0.25909 0.0
H1055 H 0.67406 0.10167 0.25632 0.0
H1056 H 0.723 0.08522 0.29422 0.0
S1057 S 0.79445 0.14205 0.17536 0.0
N1058 N 0.75074 0.14201 0.17266 0.0
N1059 N 0.80408 0.12412 0.21351 0.0
C1060 C 0.77104 0.11679 0.22568 0.0
C1061 C 0.74219 0.12655 0.20356 0.0
C1062 C 0.26167 0.62502 0.30168 0.0
C1063 C 0.29732 0.62185 0.29145 0.0
C1064 C 0.23399 0.61513 0.27914 0.0
C1065 C 0.24113 0.60276 0.24523 0.0
H1066 H 0.25513 0.63693 0.32659 0.0
H1067 H 0.20693 0.61993 0.28738 0.0
S1068 S 0.33027 0.58827 0.20664 0.0
N1069 N 0.33833 0.60437 0.24585 0.0
N1070 N 0.28671 0.58519 0.20374 0.0
C1071 C 0.2768 0.59743 0.23562 0.0
C1072 C 0.30483 0.60735 0.25858 0.0
C1073 C 0.23082 0.40135 0.74048 0.0
C1074 C 0.26596 0.39285 0.74977 0.0
C1075 C 0.2023 0.39293 0.7624 0.0
C1076 C 0.20785 0.37601 0.79456 0.0
H1077 H 0.22503 0.41257 0.71512 0.0
H1078 H 0.17559 0.39741 0.75299 0.0
S1079 S 0.29456 0.35177 0.83304 0.0
N1080 N 0.30478 0.36968 0.795 0.0
N1081 N 0.25088 0.35343 0.83593 0.0
C1082 C 0.24283 0.3695 0.80523 0.0
C1083 C 0.27201 0.37835 0.78303 0.0
C1084 C 0.75473 0.78691 0.90677 0.0
C1085 C 0.74614 0.75062 0.9012 0.0
C1086 C 0.73153 0.81434 0.89692 0.0
C1087 C 0.6986 0.80655 0.8817 0.0
H1088 H 0.78061 0.79438 0.91663 0.0
H1089 H 0.74054 0.84184 0.899 0.0
S1090 S 0.66114 0.7163 0.86577 0.0
N1091 N 0.70058 0.70842 0.88282 0.0
N1092 N 0.65704 0.76036 0.86421 0.0
C1093 C 0.68848 0.77054 0.87833 0.0
C1094 C 0.71209 0.74244 0.88845 0.0
C1095 C 0.19059 0.73031 0.12826 0.0
C1096 C 0.20051 0.69403 0.12666 0.0
C1097 C 0.21421 0.75753 0.11788 0.0
C1098 C 0.24875 0.74923 0.10641 0.0
H1099 H 0.16505 0.73771 0.13899 0.0
H1100 H 0.20625 0.7852 0.12131 0.0
S1101 S 0.28705 0.65802 0.09714 0.0
N1102 N 0.24675 0.65123 0.1125 0.0
N1103 N 0.29056 0.70178 0.09197 0.0
C1104 C 0.25805 0.71284 0.10293 0.0
C1105 C 0.23417 0.68537 0.11357 0.0
C1106 C 0.31174 0.27031 0.6258 0.0
C1107 C 0.30223 0.3067 0.62594 0.0
C1108 C 0.28735 0.24384 0.61554 0.0
C1109 C 0.25245 0.25299 0.60594 0.0
H1110 H 0.3376 0.26218 0.63517 0.0
H1111 H 0.29514 0.21597 0.61756 0.0
S1112 S 0.21506 0.34495 0.60139 0.0
N1113 N 0.25607 0.35065 0.61521 0.0
N1114 N 0.21068 0.30145 0.59495 0.0
C1115 C 0.24347 0.28958 0.6041 0.0
C1116 C 0.26818 0.31632 0.6146 0.0
C1117 C 0.75122 0.21889 0.4016 0.0
C1118 C 0.75995 0.25485 0.39442 0.0
C1119 C 0.7739 0.19087 0.39219 0.0
C1120 C 0.80652 0.19768 0.37587 0.0
H1121 H 0.72565 0.21207 0.41264 0.0
H1122 H 0.76482 0.16356 0.39586 0.0
S1123 S 0.84395 0.28683 0.35476 0.0
N1124 N 0.80508 0.2958 0.37264 0.0
N1125 N 0.84777 0.2427 0.35501 0.0
C1126 C 0.81668 0.23342 0.37044 0.0
C1127 C 0.79356 0.26216 0.38008 0.0
C1128 C 0.11845 0.13451 0.49664 0.0
C1129 C 0.13901 0.16204 0.51145 0.0
C1130 C 0.11777 0.12898 0.46052 0.0
C1131 C 0.13691 0.15131 0.43768 0.0
H1132 H 0.10323 0.11665 0.51313 0.0
H1133 H 0.10171 0.10728 0.45038 0.0
S1134 S 0.19437 0.2277 0.46317 0.0
N1135 N 0.17898 0.21199 0.50042 0.0
N1136 N 0.17693 0.20215 0.43252 0.0
C1137 C 0.15722 0.17924 0.45209 0.0
C1138 C 0.1585 0.18442 0.48895 0.0
C1139 C 0.34342 0.81479 0.99007 0.0
C1140 C 0.36715 0.83311 0.01222 0.0
C1141 C 0.34526 0.81861 0.9536 0.0
C1142 C 0.37033 0.84156 0.93814 0.0
H1143 H 0.32326 0.7974 1.00098 0.0
H1144 H 0.32627 0.80447 0.93753 0.0
S1145 S 0.43878 0.89509 0.98396 0.0
N1146 N 0.41706 0.87441 0.01541 0.0
N1147 N 0.41985 0.88202 0.9474 0.0
C1148 C 0.39435 0.85965 0.95987 0.0
C1149 C 0.39295 0.85531 0.99674 0.0
C1150 C 0.66366 0.36141 0.50915 0.0
C1151 C 0.64618 0.33255 0.49313 0.0
C1152 C 0.66202 0.36647 0.54532 0.0
C1153 C 0.64356 0.34235 0.56707 0.0
H1154 H 0.67771 0.38095 0.49346 0.0
H1155 H 0.67503 0.38976 0.55624 0.0
S1156 S 0.59544 0.2609 0.53785 0.0
N1157 N 0.61114 0.27867 0.50162 0.0
N1158 N 0.60865 0.28754 0.56964 0.0
C1159 C 0.6271 0.31257 0.55138 0.0
C1160 C 0.6282 0.30787 0.51441 0.0
C1161 C 0.88337 0.63062 0.04757 0.0
C1162 C 0.8642 0.65281 0.07049 0.0
C1163 C 0.88237 0.63602 0.01146 0.0
C1164 C 0.86142 0.66324 0.99672 0.0
H1165 H 0.89971 0.60912 0.05765 0.0
H1166 H 0.89771 0.61832 0.99493 0.0
S1167 S 0.80588 0.72848 0.04524 0.0
N1168 N 0.82384 0.70327 0.07587 0.0
N1169 N 0.82103 0.71277 0.00789 0.0
C1170 C 0.84186 0.68548 0.0193 0.0
C1171 C 0.84354 0.68049 0.05619 0.0
C1172 C 0.46186 0.14328 0.1803 0.0
C1173 C 0.44716 0.1178 0.15753 0.0
C1174 C 0.49877 0.14584 0.1849 0.0
C1175 C 0.52219 0.12249 0.16744 0.0
H1176 H 0.44483 0.16216 0.19371 0.0
H1177 H 0.50902 0.16631 0.20218 0.0
S1178 S 0.49647 0.04974 0.10641 0.0
N1179 N 0.45852 0.06804 0.11832 0.0
N1180 N 0.52755 0.07228 0.12726 0.0
C1181 C 0.50756 0.09617 0.14543 0.0
C1182 C 0.47016 0.09399 0.14038 0.0
C1183 C 0.00875 0.85777 0.68551 0.0
C1184 C 0.98466 0.87714 0.66481 0.0
C1185 C 0.04555 0.86104 0.68052 0.0
C1186 C 0.05949 0.88315 0.65415 0.0
H1187 H 0.99913 0.84015 0.70584 0.0
H1188 H 0.06314 0.84546 0.69687 0.0
S1189 S 0.00768 0.93931 0.59278 0.0
N1190 N 0.97745 0.91932 0.61706 0.0
N1191 N 0.0463 0.92499 0.6074 0.0
C1192 C 0.03565 0.90264 0.63334 0.0
C1193 C 0.99834 0.89977 0.63875 0.0
C1194 C 0.00742 0.40134 0.86027 0.0
C1195 C 0.02185 0.37609 0.83703 0.0
C1196 C 0.9707 0.40409 0.86532 0.0
C1197 C 0.94686 0.38227 0.84677 0.0
H1198 H 0.02465 0.41848 0.8755 0.0
H1199 H 0.96092 0.42339 0.88408 0.0
S1200 S 0.97087 0.31296 0.78158 0.0
N1201 N 0.00931 0.32943 0.79453 0.0
N1202 N 0.94024 0.33512 0.80354 0.0
C1203 C 0.96082 0.3576 0.82268 0.0
C1204 C 0.9983 0.35434 0.81799 0.0
C1205 C 0.49466 0.60576 0.36623 0.0
C1206 C 0.47993 0.6309 0.34311 0.0
C1207 C 0.53141 0.60282 0.37055 0.0
C1208 C 0.55508 0.62431 0.35138 0.0
H1209 H 0.47764 0.58865 0.38175 0.0
H1210 H 0.54139 0.58357 0.38925 0.0
S1211 S 0.53037 0.69333 0.2863 0.0
N1212 N 0.49203 0.67722 0.30008 0.0
N1213 N 0.56127 0.67113 0.30782 0.0
C1214 C 0.54087 0.64895 0.32749 0.0
C1215 C 0.50329 0.65245 0.32352 0.0
C1216 C 0.18196 0.45904 0.0895 0.0
C1217 C 0.18155 0.43451 0.11717 0.0
C1218 C 0.17365 0.49517 0.09473 0.0
C1219 C 0.16544 0.50858 0.12809 0.0
H1220 H 0.18901 0.45026 0.06352 0.0
H1221 H 0.17478 0.51283 0.07241 0.0
S1222 S 0.15951 0.45447 0.20909 0.0
N1223 N 0.17076 0.42519 0.17877 0.0
N1224 N 0.15607 0.49356 0.18913 0.0
C1225 C 0.16419 0.48398 0.15596 0.0
C1226 C 0.17197 0.44685 0.15037 0.0
C1227 C 0.65182 0.01427 0.89681 0.0
C1228 C 0.6696 0.99379 0.87142 0.0
C1229 C 0.65946 0.05081 0.90147 0.0
C1230 C 0.68565 0.06789 0.88141 0.0
H1231 H 0.63232 0.0018 0.91363 0.0
H1232 H 0.64596 0.06539 0.92196 0.0
S1233 S 0.73917 0.02697 0.81099 0.0
N1234 N 0.71375 0.99396 0.82514 0.0
N1235 N 0.72847 0.06235 0.83461 0.0
C1236 C 0.703 0.04811 0.85546 0.0
C1237 C 0.69483 0.01113 0.85023 0.0
C1238 C 0.83141 0.99709 0.41343 0.0
C1239 C 0.83987 0.01001 0.37998 0.0
C1240 C 0.82351 0.96089 0.41912 0.0
C1241 C 0.82464 0.93585 0.39184 0.0
H1242 H 0.82955 0.01524 0.43534 0.0
H1243 H 0.81602 0.95248 0.4451 0.0
S1244 S 0.8482 0.95465 0.30002 0.0
N1245 N 0.85072 0.9941 0.31942 0.0
N1246 N 0.83676 0.92572 0.33058 0.0
C1247 C 0.83473 0.9478 0.35863 0.0
C1248 C 0.84209 0.98494 0.35259 0.0
C1249 C 0.36026 0.51604 0.63028 0.0
C1250 C 0.33435 0.48951 0.63529 0.0
C1251 C 0.35045 0.55196 0.6246 0.0
C1252 C 0.31446 0.56202 0.62265 0.0
H1253 H 0.38811 0.50892 0.63038 0.0
H1254 H 0.37112 0.57172 0.62061 0.0
S1255 S 0.23697 0.50142 0.63447 0.0
N1256 N 0.27183 0.47517 0.63917 0.0
N1257 N 0.25305 0.54179 0.62671 0.0
C1258 C 0.28849 0.5353 0.62779 0.0
C1259 C 0.29855 0.49923 0.63454 0.0
C1260 C 0.82649 0.81167 0.53278 0.0
C1261 C 0.83876 0.83366 0.50559 0.0
C1262 C 0.83868 0.8164 0.56701 0.0
C1263 C 0.86276 0.84394 0.57521 0.0
H1264 H 0.80634 0.79163 0.5278 0.0
H1265 H 0.82748 0.7999 0.58746 0.0
S1266 S 0.90453 0.90697 0.51267 0.0
N1267 N 0.87791 0.88215 0.48849 0.0
N1268 N 0.90029 0.89176 0.55284 0.0
C1269 C 0.87636 0.86499 0.54786 0.0
C1270 C 0.86447 0.85967 0.51301 0.0
C1271 C 0.66967 0.124 0.01938 0.0
C1272 C 0.66969 0.1579 1.00358 0.0
C1273 C 0.65814 0.11935 0.05365 0.0
C1274 C 0.64671 0.14855 0.07417 0.0
H1275 H 0.67931 0.1008 0.00526 0.0
H1276 H 0.65936 0.09251 0.06435 0.0
S1277 S 0.64052 0.24307 0.04416 0.0
N1278 N 0.65607 0.22115 0.01004 0.0
N1279 N 0.63485 0.21277 0.07505 0.0
C1280 C 0.64567 0.18265 0.05826 0.0
C1281 C 0.65699 0.18723 0.02287 0.0
C1282 C 0.3703 0.65543 0.46166 0.0
C1283 C 0.34781 0.65663 0.43254 0.0
C1284 C 0.35661 0.65879 0.49566 0.0
C1285 C 0.31984 0.66234 0.50171 0.0
H1286 H 0.39849 0.65119 0.45815 0.0
H1287 H 0.37484 0.6572 0.51736 0.0
S1288 S 0.25027 0.66714 0.43319 0.0
N1289 N 0.28772 0.66286 0.41137 0.0
N1290 N 0.26156 0.66728 0.47467 0.0
C1291 C 0.29733 0.66387 0.47237 0.0
C1292 C 0.31143 0.66146 0.43797 0.0
C1293 C 0.17295 0.30941 0.97707 0.0
C1294 C 0.16374 0.33387 1.00338 0.0
C1295 C 0.16147 0.31443 0.94263 0.0
C1296 C 0.14114 0.3446 0.93327 0.0
H1297 H 0.19041 0.28714 0.98284 0.0
H1298 H 0.17042 0.29577 0.9229 0.0
S1299 S 0.10805 0.41488 0.99359 0.0
N1300 N 0.13142 0.38775 0.01862 0.0
N1301 N 0.11006 0.3977 0.95401 0.0
C1302 C 0.13043 0.36826 0.95988 0.0
C1303 C 0.14173 0.3628 0.99492 0.0
C1304 C 0.53293 0.89858 0.86935 0.0
C1305 C 0.55706 0.87875 0.84914 0.0
C1306 C 0.49627 0.89483 0.86489 0.0
C1307 C 0.4822 0.87046 0.8406 0.0
H1308 H 0.54247 0.91723 0.88884 0.0
H1309 H 0.47879 0.91061 0.88123 0.0
S1310 S 0.53396 0.81204 0.78122 0.0
N1311 N 0.56435 0.83412 0.80358 0.0
N1312 N 0.49525 0.82641 0.79575 0.0
C1313 C 0.50598 0.85042 0.82016 0.0
C1314 C 0.54344 0.8548 0.82422 0.0
C1315 C 0.96664 0.15643 0.35575 0.0
C1316 C 0.94803 0.12459 0.34901 0.0
C1317 C 0.00337 0.1586 0.35035 0.0
C1318 C 0.02295 0.12877 0.33859 0.0
H1319 H 0.95278 0.17985 0.36527 0.0
H1320 H 0.01661 0.18362 0.35637 0.0
S1321 S 0.98567 0.03942 0.31617 0.0
N1322 N 0.95099 0.06309 0.32887 0.0
N1323 N 0.02016 0.06653 0.31939 0.0
C1324 C 0.00429 0.09685 0.33128 0.0
C1325 C 0.96678 0.09494 0.33628 0.0
C1326 C 0.03125 0.60175 0.13783 0.0
C1327 C 0.055 0.62243 0.15766 0.0
C1328 C 0.99452 0.60435 0.14274 0.0
C1329 C 0.98001 0.62845 0.16704 0.0
H1330 H 0.04115 0.58331 0.11832 0.0
H1331 H 0.97732 0.58797 0.12671 0.0
S1332 S 0.03071 0.68858 0.22566 0.0
N1333 N 0.0615 0.66734 0.20303 0.0
N1334 N 0.99228 0.67304 0.21159 0.0
C1335 C 0.00343 0.64927 0.18714 0.0
C1336 C 0.04096 0.646 0.18267 0.0
C1337 C 0.47265 0.39475 0.63353 0.0
C1338 C 0.44926 0.37561 0.65524 0.0
C1339 C 0.50946 0.39186 0.63735 0.0
C1340 C 0.5244 0.36906 0.6625 0.0
H1341 H 0.46241 0.41227 0.61342 0.0
H1342 H 0.52635 0.40709 0.61996 0.0
S1343 S 0.47488 0.31334 0.72613 0.0
N1344 N 0.44367 0.33356 0.70326 0.0
N1345 N 0.51301 0.32746 0.70996 0.0
C1346 C 0.50138 0.34979 0.68448 0.0
C1347 C 0.46379 0.3533 0.68103 0.0
C1348 C 0.86648 0.54899 0.85284 0.0
C1349 C 0.84487 0.56882 0.87572 0.0
C1350 C 0.86268 0.51173 0.84947 0.0
C1351 C 0.83785 0.49281 0.86963 0.0
H1352 H 0.88683 0.56224 0.83771 0.0
H1353 H 0.88038 0.49742 0.83212 0.0
S1354 S 0.77419 0.53197 0.93258 0.0
N1355 N 0.79671 0.56678 0.91776 0.0
N1356 N 0.79053 0.49657 0.91234 0.0
C1357 C 0.81566 0.51228 0.89211 0.0
C1358 C 0.81888 0.55034 0.89489 0.0
C1359 C 0.36519 0.95704 0.10426 0.0
C1360 C 0.34529 0.93426 0.12583 0.0
C1361 C 0.36207 0.9943 0.10668 0.0
C1362 C 0.33952 0.01041 0.13136 0.0
H1363 H 0.38339 0.94594 0.08526 0.0
H1364 H 0.37821 0.01064 0.08955 0.0
S1365 S 0.28188 0.96252 0.19433 0.0
N1366 N 0.30196 0.93014 0.17251 0.0
N1367 N 0.29681 1.00059 0.17786 0.0
C1368 C 0.31946 0.98795 0.15324 0.0
C1369 C 0.32208 0.94977 0.15021 0.0
C1370 C 0.15178 0.01199 0.66207 0.0
C1371 C 0.16961 0.99268 0.63592 0.0
C1372 C 0.14697 0.04916 0.6593 0.0
C1373 C 0.16075 0.06833 0.63087 0.0
H1374 H 0.13998 0.99807 0.68395 0.0
H1375 H 0.13198 0.06289 0.6793 0.0
S1376 S 0.21147 0.03096 0.55674 0.0
N1377 N 0.20213 0.99587 0.5813 0.0
N1378 N 0.19422 0.06592 0.57698 0.0
C1379 C 0.18002 0.04972 0.60545 0.0
C1380 C 0.18414 0.0118 0.60774 0.0
C1381 C 0.63774 0.45836 0.40248 0.0
C1382 C 0.65776 0.43622 0.38034 0.0
C1383 C 0.64023 0.49574 0.40063 0.0
C1384 C 0.66227 0.51267 0.37603 0.0
H1385 H 0.62002 0.44669 0.42159 0.0
H1386 H 0.62408 0.51151 0.41823 0.0
S1387 S 0.72025 0.4669 0.31188 0.0
N1388 N 0.7008 0.43381 0.33323 0.0
N1389 N 0.70479 0.50437 0.3291 0.0
C1390 C 0.68248 0.49091 0.35361 0.0
C1391 C 0.68048 0.45264 0.356 0.0
loop_
_geom_bond_atom_site_label_1
_geom_bond_atom_site_label_2
_geom_bond_distance
_geom_bond_site_symmetry_2
_ccdc_geom_bond_type
Mn0 O5 2.095 . S
Mn0 O15 2.162 . S
Mn0 O16 2.297 . S
Mn0 O24 2.385 . S
Mn0 O25 2.209 . S
Mn0 O26 2.094 . S
Mn1 O6 2.121 . S
Mn1 N8 2.257 . S
Mn1 N17 2.282 . S
Mn1 O25 2.215 . S
Mn1 O27 2.117 . S
C2 O24 1.234 . S
C2 O25 1.283 . S
C3 O15 1.281 . S
C3 O16 1.236 . S
C4 O26 1.240 . S
C4 O27 1.264 . S
O5 Mn0 2.095 . S
O5 C14 1.250 . S
O6 Mn1 2.121 . S
O6 C14 1.258 . S
C7 N8 1.326 . S
C7 C11 1.460 . S
C7 H13 0.929 . S
N8 Mn1 2.257 . S
N8 C7 1.326 . S
N8 C12 1.362 . S
C9 C10 1.258 1_545 S
C9 C12 1.431 . S
C9 C29 1.449 1_545 S
C10 C9 1.258 1_565 S
C10 C11 1.477 1_565 S
C10 H30 0.931 . S
C11 C7 1.460 . S
C11 C10 1.477 1_545 S
C11 H31 0.930 . S
C12 N8 1.362 . S
C12 C9 1.431 . S
C12 C22 1.476 . S
H13 C7 0.929 . S
C14 O5 1.250 . S
C14 O6 1.258 . S
O15 Mn0 2.162 . S
O15 C3 1.281 . S
O16 Mn0 2.297 . S
O16 C3 1.236 . S
N17 Mn1 2.282 . S
N17 C18 1.328 . S
N17 C22 1.318 . S
C18 N17 1.328 . S
C18 C19 1.457 . S
C18 H23 0.929 . S
C19 C18 1.457 . S
C19 C20 1.291 . S
C19 H32 0.931 . S
C20 C19 1.291 . S
C20 C21 1.373 . S
C20 H33 0.929 . S
C21 C20 1.373 . S
C21 C22 1.396 . S
C21 C28 1.403 . S
C22 C12 1.476 . S
C22 N17 1.318 . S
C22 C21 1.396 . S
H23 C18 0.929 . S
O24 Mn0 2.385 . S
O24 C2 1.234 . S
O25 Mn0 2.209 . S
O25 Mn1 2.215 . S
O25 C2 1.283 . S
O26 Mn0 2.094 . S
O26 C4 1.240 . S
O27 Mn1 2.117 . S
O27 C4 1.264 . S
C28 C21 1.403 . S
C28 C29 1.399 1_545 S
C28 H34 0.929 1_545 S
C29 C9 1.449 1_565 S
C29 C28 1.399 1_565 S
C29 H35 0.930 . S
H30 C10 0.931 . S
H31 C11 0.930 . S
H32 C19 0.931 . S
H33 C20 0.929 . S
H34 C28 0.929 1_565 S
H35 C29 0.930 . S
Mn36 O41 2.095 . S
Mn36 O51 2.162 . S
Mn36 O52 2.297 . S
Mn36 O60 2.385 . S
Mn36 O61 2.209 . S
Mn36 O62 2.094 . S
Mn37 O42 2.121 . S
Mn37 N44 2.257 . S
Mn37 N53 2.282 . S
Mn37 O61 2.215 . S
Mn37 O63 2.117 . S
C38 O60 1.234 . S
C38 O61 1.283 . S
C39 O51 1.281 . S
C39 O52 1.236 . S
C40 O62 1.240 . S
C40 O63 1.264 . S
O41 Mn36 2.095 . S
O41 C50 1.250 . S
O42 Mn37 2.121 . S
O42 C50 1.258 . S
C43 N44 1.326 . S
C43 C47 1.460 . S
C43 H49 0.929 . S
N44 Mn37 2.257 . S
N44 C43 1.326 . S
N44 C48 1.362 . S
C45 C46 1.258 1_565 S
C45 C48 1.431 . S
C45 C65 1.449 1_565 S
C46 C45 1.258 1_545 S
C46 C47 1.477 1_545 S
C46 H66 0.931 . S
C47 C43 1.460 . S
C47 C46 1.477 1_565 S
C47 H67 0.930 . S
C48 N44 1.362 . S
C48 C45 1.431 . S
C48 C58 1.476 . S
H49 C43 0.929 . S
C50 O41 1.250 . S
C50 O42 1.258 . S
O51 Mn36 2.162 . S
O51 C39 1.281 . S
O52 Mn36 2.297 . S
O52 C39 1.236 . S
N53 Mn37 2.282 . S
N53 C54 1.328 . S
N53 C58 1.318 . S
C54 N53 1.328 . S
C54 C55 1.457 . S
C54 H59 0.929 . S
C55 C54 1.457 . S
C55 C56 1.291 . S
C55 H68 0.931 . S
C56 C55 1.291 . S
C56 C57 1.373 . S
C56 H69 0.929 . S
C57 C56 1.373 . S
C57 C58 1.396 . S
C57 C64 1.403 . S
C58 C48 1.476 . S
C58 N53 1.318 . S
C58 C57 1.396 . S
H59 C54 0.929 . S
O60 Mn36 2.385 . S
O60 C38 1.234 . S
O61 Mn36 2.209 . S
O61 Mn37 2.215 . S
O61 C38 1.283 . S
O62 Mn36 2.094 . S
O62 C40 1.240 . S
O63 Mn37 2.117 . S
O63 C40 1.264 . S
C64 C57 1.403 . S
C64 C65 1.399 1_565 S
C64 H70 0.929 1_565 S
C65 C45 1.449 1_545 S
C65 C64 1.399 1_545 S
C65 H71 0.930 . S
H66 C46 0.931 . S
H67 C47 0.930 . S
H68 C55 0.931 . S
H69 C56 0.929 . S
H70 C64 0.929 1_545 S
H71 C65 0.930 . S
Mn72 O77 2.095 . S
Mn72 O87 2.162 . S
Mn72 O88 2.297 . S
Mn72 O96 2.385 . S
Mn72 O97 2.209 . S
Mn72 O98 2.094 . S
Mn73 O78 2.121 . S
Mn73 N80 2.257 . S
Mn73 N89 2.282 . S
Mn73 O97 2.215 . S
Mn73 O99 2.117 . S
C74 O96 1.234 . S
C74 O97 1.283 . S
C75 O87 1.281 . S
C75 O88 1.236 . S
C76 O98 1.240 . S
C76 O99 1.264 . S
O77 Mn72 2.095 . S
O77 C86 1.250 . S
O78 Mn73 2.121 . S
O78 C86 1.258 . S
C79 N80 1.326 . S
C79 C83 1.460 . S
C79 H85 0.929 . S
N80 Mn73 2.257 . S
N80 C79 1.326 . S
N80 C84 1.362 . S
C81 C82 1.258 . S
C81 C84 1.431 . S
C81 C101 1.449 . S
C82 C81 1.258 . S
C82 C83 1.477 . S
C82 H102 0.931 . S
C83 C79 1.460 . S
C83 C82 1.477 . S
C83 H103 0.930 . S
C84 N80 1.362 . S
C84 C81 1.431 . S
C84 C94 1.476 . S
H85 C79 0.929 . S
C86 O77 1.250 . S
C86 O78 1.258 . S
O87 Mn72 2.162 . S
O87 C75 1.281 . S
O88 Mn72 2.297 . S
O88 C75 1.236 . S
N89 Mn73 2.282 . S
N89 C90 1.328 . S
N89 C94 1.318 . S
C90 N89 1.328 . S
C90 C91 1.457 . S
C90 H95 0.929 . S
C91 C90 1.457 . S
C91 C92 1.291 . S
C91 H104 0.931 . S
C92 C91 1.291 . S
C92 C93 1.373 . S
C92 H105 0.929 . S
C93 C92 1.373 . S
C93 C94 1.396 . S
C93 C100 1.403 . S
C94 C84 1.476 . S
C94 N89 1.318 . S
C94 C93 1.396 . S
H95 C90 0.929 . S
O96 Mn72 2.385 . S
O96 C74 1.234 . S
O97 Mn72 2.209 . S
O97 Mn73 2.215 . S
O97 C74 1.283 . S
O98 Mn72 2.094 . S
O98 C76 1.240 . S
O99 Mn73 2.117 . S
O99 C76 1.264 . S
C100 C93 1.403 . S
C100 C101 1.399 . S
C100 H106 0.929 . S
C101 C81 1.449 . S
C101 C100 1.399 . S
C101 H107 0.930 . S
H102 C82 0.931 . S
H103 C83 0.930 . S
H104 C91 0.931 . S
H105 C92 0.929 . S
H106 C100 0.929 . S
H107 C101 0.930 . S
Mn108 O113 2.095 . S
Mn108 O123 2.162 . S
Mn108 O124 2.297 . S
Mn108 O132 2.385 . S
Mn108 O133 2.209 . S
Mn108 O134 2.094 . S
Mn109 O114 2.121 . S
Mn109 N116 2.257 . S
Mn109 N125 2.282 . S
Mn109 O133 2.215 . S
Mn109 O135 2.117 . S
C110 O132 1.234 . S
C110 O133 1.283 . S
C111 O123 1.281 . S
C111 O124 1.236 . S
C112 O134 1.240 . S
C112 O135 1.264 . S
O113 Mn108 2.095 . S
O113 C122 1.250 . S
O114 Mn109 2.121 . S
O114 C122 1.258 . S
C115 N116 1.326 . S
C115 C119 1.460 . S
C115 H121 0.929 . S
N116 Mn109 2.257 . S
N116 C115 1.326 . S
N116 C120 1.362 . S
C117 C118 1.258 . S
C117 C120 1.431 . S
C117 C137 1.449 . S
C118 C117 1.258 . S
C118 C119 1.477 . S
C118 H138 0.931 . S
C119 C115 1.460 . S
C119 C118 1.477 . S
C119 H139 0.930 . S
C120 N116 1.362 . S
C120 C117 1.431 . S
C120 C130 1.476 . S
H121 C115 0.929 . S
C122 O113 1.250 . S
C122 O114 1.258 . S
O123 Mn108 2.162 . S
O123 C111 1.281 . S
O124 Mn108 2.297 . S
O124 C111 1.236 . S
N125 Mn109 2.282 . S
N125 C126 1.328 . S
N125 C130 1.318 . S
C126 N125 1.328 . S
C126 C127 1.457 . S
C126 H131 0.929 . S
C127 C126 1.457 . S
C127 C128 1.291 . S
C127 H140 0.931 . S
C128 C127 1.291 . S
C128 C129 1.373 . S
C128 H141 0.929 . S
C129 C128 1.373 . S
C129 C130 1.396 . S
C129 C136 1.403 . S
C130 C120 1.476 . S
C130 N125 1.318 . S
C130 C129 1.396 . S
H131 C126 0.929 . S
O132 Mn108 2.385 . S
O132 C110 1.234 . S
O133 Mn108 2.209 . S
O133 Mn109 2.215 . S
O133 C110 1.283 . S
O134 Mn108 2.094 . S
O134 C112 1.240 . S
O135 Mn109 2.117 . S
O135 C112 1.264 . S
C136 C129 1.403 . S
C136 C137 1.399 . S
C136 H142 0.929 . S
C137 C117 1.449 . S
C137 C136 1.399 . S
C137 H143 0.930 . S
H138 C118 0.931 . S
H139 C119 0.930 . S
H140 C127 0.931 . S
H141 C128 0.929 . S
H142 C136 0.929 . S
H143 C137 0.930 . S
Mn144 O149 2.095 . S
Mn144 O159 2.162 . S
Mn144 O160 2.297 . S
Mn144 O168 2.385 . S
Mn144 O169 2.209 . S
Mn144 O170 2.094 . S
Mn145 O150 2.121 . S
Mn145 N152 2.257 . S
Mn145 N161 2.282 . S
Mn145 O169 2.215 . S
Mn145 O171 2.117 . S
C146 O168 1.234 . S
C146 O169 1.283 . S
C147 O159 1.281 . S
C147 O160 1.236 . S
C148 O170 1.240 . S
C148 O171 1.264 . S
O149 Mn144 2.095 . S
O149 C158 1.250 . S
O150 Mn145 2.121 . S
O150 C158 1.258 . S
C151 N152 1.326 . S
C151 C155 1.460 . S
C151 H157 0.929 . S
N152 Mn145 2.257 . S
N152 C151 1.326 . S
N152 C156 1.362 . S
C153 C154 1.258 . S
C153 C156 1.431 . S
C153 C173 1.448 . S
C154 C153 1.258 . S
C154 C155 1.477 . S
C154 H174 0.931 1_554 S
C155 C151 1.460 . S
C155 C154 1.477 . S
C155 H175 0.930 . S
C156 N152 1.362 . S
C156 C153 1.431 . S
C156 C166 1.476 . S
H157 C151 0.929 . S
C158 O149 1.250 . S
C158 O150 1.258 . S
O159 Mn144 2.162 . S
O159 C147 1.281 . S
O160 Mn144 2.297 . S
O160 C147 1.236 . S
N161 Mn145 2.282 . S
N161 C162 1.328 . S
N161 C166 1.318 . S
C162 N161 1.328 . S
C162 C163 1.457 . S
C162 H167 0.929 . S
C163 C162 1.457 . S
C163 C164 1.291 . S
C163 H176 0.931 . S
C164 C163 1.291 . S
C164 C165 1.373 . S
C164 H177 0.929 . S
C165 C164 1.373 . S
C165 C166 1.396 . S
C165 C172 1.403 . S
C166 C156 1.476 . S
C166 N161 1.318 . S
C166 C165 1.396 . S
H167 C162 0.929 . S
O168 Mn144 2.385 . S
O168 C146 1.234 . S
O169 Mn144 2.209 . S
O169 Mn145 2.215 . S
O169 C146 1.283 . S
O170 Mn144 2.094 . S
O170 C148 1.240 . S
O171 Mn145 2.117 . S
O171 C148 1.264 . S
C172 C165 1.403 . S
C172 C173 1.399 . S
C172 H178 0.929 . S
C173 C153 1.448 . S
C173 C172 1.399 . S
C173 H179 0.932 1_554 S
H174 C154 0.931 1_556 S
H175 C155 0.930 . S
H176 C163 0.931 . S
H177 C164 0.929 . S
H178 C172 0.929 . S
H179 C173 0.932 1_556 S
Mn180 O185 2.095 . S
Mn180 O195 2.162 . S
Mn180 O196 2.297 . S
Mn180 O204 2.385 . S
Mn180 O205 2.209 . S
Mn180 O206 2.094 . S
Mn181 O186 2.121 . S
Mn181 N188 2.257 . S
Mn181 N197 2.282 . S
Mn181 O205 2.215 . S
Mn181 O207 2.117 . S
C182 O204 1.234 . S
C182 O205 1.283 . S
C183 O195 1.281 . S
C183 O196 1.236 . S
C184 O206 1.240 . S
C184 O207 1.264 . S
O185 Mn180 2.095 . S
O185 C194 1.250 . S
O186 Mn181 2.121 . S
O186 C194 1.258 . S
C187 N188 1.326 . S
C187 C191 1.460 . S
C187 H193 0.929 . S
N188 Mn181 2.257 . S
N188 C187 1.326 . S
N188 C192 1.362 . S
C189 C190 1.258 . S
C189 C192 1.431 . S
C189 C209 1.449 . S
C190 C189 1.258 . S
C190 C191 1.477 . S
C190 H210 0.931 . S
C191 C187 1.460 . S
C191 C190 1.477 . S
C191 H211 0.930 . S
C192 N188 1.362 . S
C192 C189 1.431 . S
C192 C202 1.476 . S
H193 C187 0.929 . S
C194 O185 1.250 . S
C194 O186 1.258 . S
O195 Mn180 2.162 . S
O195 C183 1.281 . S
O196 Mn180 2.297 . S
O196 C183 1.236 . S
N197 Mn181 2.282 . S
N197 C198 1.328 . S
N197 C202 1.318 . S
C198 N197 1.328 . S
C198 C199 1.457 . S
C198 H203 0.929 . S
C199 C198 1.457 . S
C199 C200 1.291 . S
C199 H212 0.931 . S
C200 C199 1.291 . S
C200 C201 1.373 . S
C200 H213 0.929 . S
C201 C200 1.373 . S
C201 C202 1.396 . S
C201 C208 1.403 . S
C202 C192 1.476 . S
C202 N197 1.318 . S
C202 C201 1.396 . S
H203 C198 0.929 . S
O204 Mn180 2.385 . S
O204 C182 1.234 . S
O205 Mn180 2.209 . S
O205 Mn181 2.215 . S
O205 C182 1.283 . S
O206 Mn180 2.094 . S
O206 C184 1.240 . S
O207 Mn181 2.117 . S
O207 C184 1.264 . S
C208 C201 1.403 . S
C208 C209 1.399 . S
C208 H214 0.929 . S
C209 C189 1.449 . S
C209 C208 1.399 . S
C209 H215 0.930 . S
H210 C190 0.931 . S
H211 C191 0.930 . S
H212 C199 0.931 . S
H213 C200 0.929 . S
H214 C208 0.929 . S
H215 C209 0.930 . S
Mn216 O221 2.095 . S
Mn216 O231 2.162 . S
Mn216 O232 2.297 . S
Mn216 O240 2.385 . S
Mn216 O241 2.209 . S
Mn216 O242 2.094 . S
Mn217 O222 2.121 . S
Mn217 N224 2.257 . S
Mn217 N233 2.282 . S
Mn217 O241 2.215 . S
Mn217 O243 2.117 . S
C218 O240 1.234 . S
C218 O241 1.283 . S
C219 O231 1.281 . S
C219 O232 1.236 . S
C220 O242 1.240 . S
C220 O243 1.264 . S
O221 Mn216 2.095 . S
O221 C230 1.250 . S
O222 Mn217 2.121 . S
O222 C230 1.258 . S
C223 N224 1.326 . S
C223 C227 1.460 . S
C223 H229 0.929 . S
N224 Mn217 2.257 . S
N224 C223 1.326 . S
N224 C228 1.362 . S
C225 C226 1.258 . S
C225 C228 1.431 . S
C225 C245 1.448 . S
C226 C225 1.258 . S
C226 C227 1.477 . S
C226 H246 0.931 1_556 S
C227 C223 1.460 . S
C227 C226 1.477 . S
C227 H247 0.930 . S
C228 N224 1.362 . S
C228 C225 1.431 . S
C228 C238 1.476 . S
H229 C223 0.929 . S
C230 O221 1.250 . S
C230 O222 1.258 . S
O231 Mn216 2.162 . S
O231 C219 1.281 . S
O232 Mn216 2.297 . S
O232 C219 1.236 . S
N233 Mn217 2.282 . S
N233 C234 1.328 . S
N233 C238 1.318 . S
C234 N233 1.328 . S
C234 C235 1.457 . S
C234 H239 0.929 . S
C235 C234 1.457 . S
C235 C236 1.291 . S
C235 H248 0.931 . S
C236 C235 1.291 . S
C236 C237 1.373 . S
C236 H249 0.929 . S
C237 C236 1.373 . S
C237 C238 1.396 . S
C237 C244 1.403 . S
C238 C228 1.476 . S
C238 N233 1.318 . S
C238 C237 1.396 . S
H239 C234 0.929 . S
O240 Mn216 2.385 . S
O240 C218 1.234 . S
O241 Mn216 2.209 . S
O241 Mn217 2.215 . S
O241 C218 1.283 . S
O242 Mn216 2.094 . S
O242 C220 1.240 . S
O243 Mn217 2.117 . S
O243 C220 1.264 . S
C244 C237 1.403 . S
C244 C245 1.399 . S
C244 H250 0.929 . S
C245 C225 1.448 . S
C245 C244 1.399 . S
C245 H251 0.932 1_556 S
H246 C226 0.931 1_554 S
H247 C227 0.930 . S
H248 C235 0.931 . S
H249 C236 0.929 . S
H250 C244 0.929 . S
H251 C245 0.932 1_554 S
Mn252 O257 2.095 . S
Mn252 O267 2.162 . S
Mn252 O268 2.297 . S
Mn252 O276 2.385 . S
Mn252 O277 2.209 . S
Mn252 O278 2.094 . S
Mn253 O258 2.121 . S
Mn253 N260 2.257 . S
Mn253 N269 2.282 . S
Mn253 O277 2.215 . S
Mn253 O279 2.117 . S
C254 O276 1.234 . S
C254 O277 1.283 . S
C255 O267 1.281 . S
C255 O268 1.236 . S
C256 O278 1.240 . S
C256 O279 1.264 . S
O257 Mn252 2.095 . S
O257 C266 1.250 . S
O258 Mn253 2.121 . S
O258 C266 1.258 . S
C259 N260 1.326 . S
C259 C263 1.460 . S
C259 H265 0.929 . S
N260 Mn253 2.257 . S
N260 C259 1.326 . S
N260 C264 1.362 . S
C261 C262 1.258 . S
C261 C264 1.431 . S
C261 C281 1.449 . S
C262 C261 1.258 . S
C262 C263 1.477 . S
C262 H282 0.931 . S
C263 C259 1.460 . S
C263 C262 1.477 . S
C263 H283 0.930 . S
C264 N260 1.362 . S
C264 C261 1.431 . S
C264 C274 1.476 . S
H265 C259 0.929 . S
C266 O257 1.250 . S
C266 O258 1.258 . S
O267 Mn252 2.162 . S
O267 C255 1.281 . S
O268 Mn252 2.297 . S
O268 C255 1.236 . S
N269 Mn253 2.282 . S
N269 C270 1.328 . S
N269 C274 1.318 . S
C270 N269 1.328 . S
C270 C271 1.457 . S
C270 H275 0.929 . S
C271 C270 1.457 . S
C271 C272 1.291 . S
C271 H284 0.931 . S
C272 C271 1.291 . S
C272 C273 1.373 . S
C272 H285 0.929 . S
C273 C272 1.373 . S
C273 C274 1.396 . S
C273 C280 1.403 . S
C274 C264 1.476 . S
C274 N269 1.318 . S
C274 C273 1.396 . S
H275 C270 0.929 . S
O276 Mn252 2.385 . S
O276 C254 1.234 . S
O277 Mn252 2.209 . S
O277 Mn253 2.215 . S
O277 C254 1.283 . S
O278 Mn252 2.094 . S
O278 C256 1.240 . S
O279 Mn253 2.117 . S
O279 C256 1.264 . S
C280 C273 1.403 . S
C280 C281 1.399 . S
C280 H286 0.929 . S
C281 C261 1.449 . S
C281 C280 1.399 . S
C281 H287 0.930 . S
H282 C262 0.931 . S
H283 C263 0.930 . S
H284 C271 0.931 . S
H285 C272 0.929 . S
H286 C280 0.929 . S
H287 C281 0.930 . S
Mn288 O293 2.095 . S
Mn288 O303 2.162 . S
Mn288 O304 2.297 . S
Mn288 O312 2.385 . S
Mn288 O313 2.209 . S
Mn288 O314 2.094 . S
Mn289 O294 2.121 . S
Mn289 N296 2.257 . S
Mn289 N305 2.282 . S
Mn289 O313 2.215 . S
Mn289 O315 2.117 . S
C290 O312 1.234 . S
C290 O313 1.283 . S
C291 O303 1.281 . S
C291 O304 1.236 . S
C292 O314 1.240 . S
C292 O315 1.264 . S
O293 Mn288 2.095 . S
O293 C302 1.250 . S
O294 Mn289 2.121 . S
O294 C302 1.258 . S
C295 N296 1.326 . S
C295 C299 1.460 . S
C295 H301 0.929 . S
N296 Mn289 2.257 . S
N296 C295 1.326 . S
N296 C300 1.362 . S
C297 C298 1.258 . S
C297 C300 1.431 . S
C297 C317 1.449 . S
C298 C297 1.258 . S
C298 C299 1.477 . S
C298 H318 0.931 . S
C299 C295 1.460 . S
C299 C298 1.477 . S
C299 H319 0.930 . S
C300 N296 1.362 . S
C300 C297 1.431 . S
C300 C310 1.476 . S
H301 C295 0.929 . S
C302 O293 1.250 . S
C302 O294 1.258 . S
O303 Mn288 2.162 . S
O303 C291 1.281 . S
O304 Mn288 2.297 . S
O304 C291 1.236 . S
N305 Mn289 2.282 . S
N305 C306 1.328 . S
N305 C310 1.318 . S
C306 N305 1.328 . S
C306 C307 1.457 . S
C306 H311 0.929 . S
C307 C306 1.457 . S
C307 C308 1.291 . S
C307 H320 0.931 . S
C308 C307 1.291 . S
C308 C309 1.373 . S
C308 H321 0.929 . S
C309 C308 1.373 . S
C309 C310 1.396 . S
C309 C316 1.403 . S
C310 C300 1.476 . S
C310 N305 1.318 . S
C310 C309 1.396 . S
H311 C306 0.929 . S
O312 Mn288 2.385 . S
O312 C290 1.234 . S
O313 Mn288 2.209 . S
O313 Mn289 2.215 . S
O313 C290 1.283 . S
O314 Mn288 2.094 . S
O314 C292 1.240 . S
O315 Mn289 2.117 . S
O315 C292 1.264 . S
C316 C309 1.403 . S
C316 C317 1.399 . S
C316 H322 0.929 . S
C317 C297 1.449 . S
C317 C316 1.399 . S
C317 H323 0.930 . S
H318 C298 0.931 . S
H319 C299 0.930 . S
H320 C307 0.931 . S
H321 C308 0.929 . S
H322 C316 0.929 . S
H323 C317 0.930 . S
Mn324 O329 2.095 . S
Mn324 O339 2.162 . S
Mn324 O340 2.297 . S
Mn324 O348 2.385 . S
Mn324 O349 2.209 . S
Mn324 O350 2.094 . S
Mn325 O330 2.121 . S
Mn325 N332 2.257 . S
Mn325 N341 2.282 . S
Mn325 O349 2.215 . S
Mn325 O351 2.117 . S
C326 O348 1.234 . S
C326 O349 1.283 . S
C327 O339 1.281 . S
C327 O340 1.236 . S
C328 O350 1.240 . S
C328 O351 1.264 . S
O329 Mn324 2.095 . S
O329 C338 1.250 . S
O330 Mn325 2.121 . S
O330 C338 1.258 . S
C331 N332 1.326 . S
C331 C335 1.460 . S
C331 H337 0.929 . S
N332 Mn325 2.257 . S
N332 C331 1.326 . S
N332 C336 1.362 . S
C333 C334 1.258 . S
C333 C336 1.431 . S
C333 C353 1.449 . S
C334 C333 1.258 . S
C334 C335 1.477 . S
C334 H354 0.931 . S
C335 C331 1.460 . S
C335 C334 1.477 . S
C335 H355 0.930 . S
C336 N332 1.362 . S
C336 C333 1.431 . S
C336 C346 1.476 . S
H337 C331 0.929 . S
C338 O329 1.250 . S
C338 O330 1.258 . S
O339 Mn324 2.162 . S
O339 C327 1.281 . S
O340 Mn324 2.297 . S
O340 C327 1.236 . S
N341 Mn325 2.282 . S
N341 C342 1.328 . S
N341 C346 1.318 . S
C342 N341 1.328 . S
C342 C343 1.457 . S
C342 H347 0.929 . S
C343 C342 1.457 . S
C343 C344 1.291 . S
C343 H356 0.931 . S
C344 C343 1.291 . S
C344 C345 1.373 . S
C344 H357 0.929 . S
C345 C344 1.373 . S
C345 C346 1.396 . S
C345 C352 1.403 . S
C346 C336 1.476 . S
C346 N341 1.318 . S
C346 C345 1.396 . S
H347 C342 0.929 . S
O348 Mn324 2.385 . S
O348 C326 1.234 . S
O349 Mn324 2.209 . S
O349 Mn325 2.215 . S
O349 C326 1.283 . S
O350 Mn324 2.094 . S
O350 C328 1.240 . S
O351 Mn325 2.117 . S
O351 C328 1.264 . S
C352 C345 1.403 . S
C352 C353 1.399 . S
C352 H358 0.929 . S
C353 C333 1.449 . S
C353 C352 1.399 . S
C353 H359 0.930 . S
H354 C334 0.931 . S
H355 C335 0.930 . S
H356 C343 0.931 . S
H357 C344 0.929 . S
H358 C352 0.929 . S
H359 C353 0.930 . S
Mn360 O365 2.095 . S
Mn360 O375 2.162 . S
Mn360 O376 2.297 . S
Mn360 O384 2.385 . S
Mn360 O385 2.209 . S
Mn360 O386 2.094 . S
Mn361 O366 2.121 . S
Mn361 N368 2.257 . S
Mn361 N377 2.282 . S
Mn361 O385 2.215 . S
Mn361 O387 2.117 . S
C362 O384 1.234 . S
C362 O385 1.283 . S
C363 O375 1.281 . S
C363 O376 1.236 . S
C364 O386 1.240 . S
C364 O387 1.264 . S
O365 Mn360 2.095 . S
O365 C374 1.250 . S
O366 Mn361 2.121 . S
O366 C374 1.258 . S
C367 N368 1.326 . S
C367 C371 1.460 . S
C367 H373 0.929 . S
N368 Mn361 2.257 . S
N368 C367 1.326 . S
N368 C372 1.362 . S
C369 C370 1.258 . S
C369 C372 1.431 . S
C369 C389 1.449 . S
C370 C369 1.258 . S
C370 C371 1.477 . S
C370 H390 0.931 . S
C371 C367 1.460 . S
C371 C370 1.477 . S
C371 H391 0.930 . S
C372 N368 1.362 . S
C372 C369 1.431 . S
C372 C382 1.476 . S
H373 C367 0.929 . S
C374 O365 1.250 . S
C374 O366 1.258 . S
O375 Mn360 2.162 . S
O375 C363 1.281 . S
O376 Mn360 2.297 . S
O376 C363 1.236 . S
N377 Mn361 2.282 . S
N377 C378 1.328 . S
N377 C382 1.318 . S
C378 N377 1.328 . S
C378 C379 1.457 . S
C378 H383 0.929 . S
C379 C378 1.457 . S
C379 C380 1.291 . S
C379 H392 0.931 . S
C380 C379 1.291 . S
C380 C381 1.373 . S
C380 H393 0.929 . S
C381 C380 1.373 . S
C381 C382 1.396 . S
C381 C388 1.403 . S
C382 C372 1.476 . S
C382 N377 1.318 . S
C382 C381 1.396 . S
H383 C378 0.929 . S
O384 Mn360 2.385 . S
O384 C362 1.234 . S
O385 Mn360 2.209 . S
O385 Mn361 2.215 . S
O385 C362 1.283 . S
O386 Mn360 2.094 . S
O386 C364 1.240 . S
O387 Mn361 2.117 . S
O387 C364 1.264 . S
C388 C381 1.403 . S
C388 C389 1.399 . S
C388 H394 0.929 . S
C389 C369 1.449 . S
C389 C388 1.399 . S
C389 H395 0.930 . S
H390 C370 0.931 . S
H391 C371 0.930 . S
H392 C379 0.931 . S
H393 C380 0.929 . S
H394 C388 0.929 . S
H395 C389 0.930 . S
Mn396 O401 2.095 . S
Mn396 O411 2.162 . S
Mn396 O412 2.297 . S
Mn396 O420 2.385 . S
Mn396 O421 2.209 . S
Mn396 O422 2.094 . S
Mn397 O402 2.121 . S
Mn397 N404 2.257 . S
Mn397 N413 2.282 . S
Mn397 O421 2.215 . S
Mn397 O423 2.117 . S
C398 O420 1.234 . S
C398 O421 1.283 . S
C399 O411 1.281 . S
C399 O412 1.236 . S
C400 O422 1.240 . S
C400 O423 1.264 . S
O401 Mn396 2.095 . S
O401 C410 1.250 . S
O402 Mn397 2.121 . S
O402 C410 1.258 . S
C403 N404 1.326 . S
C403 C407 1.460 . S
C403 H409 0.929 . S
N404 Mn397 2.257 . S
N404 C403 1.326 . S
N404 C408 1.362 . S
C405 C406 1.258 . S
C405 C408 1.431 . S
C405 C425 1.449 . S
C406 C405 1.258 . S
C406 C407 1.477 . S
C406 H426 0.931 . S
C407 C403 1.460 . S
C407 C406 1.477 . S
C407 H427 0.930 . S
C408 N404 1.362 . S
C408 C405 1.431 . S
C408 C418 1.476 . S
H409 C403 0.929 . S
C410 O401 1.250 . S
C410 O402 1.258 . S
O411 Mn396 2.162 . S
O411 C399 1.281 . S
O412 Mn396 2.297 . S
O412 C399 1.236 . S
N413 Mn397 2.282 . S
N413 C414 1.328 . S
N413 C418 1.318 . S
C414 N413 1.328 . S
C414 C415 1.457 . S
C414 H419 0.929 . S
C415 C414 1.457 . S
C415 C416 1.291 . S
C415 H428 0.931 . S
C416 C415 1.291 . S
C416 C417 1.373 . S
C416 H429 0.929 . S
C417 C416 1.373 . S
C417 C418 1.396 . S
C417 C424 1.403 . S
C418 C408 1.476 . S
C418 N413 1.318 . S
C418 C417 1.396 . S
H419 C414 0.929 . S
O420 Mn396 2.385 . S
O420 C398 1.234 . S
O421 Mn396 2.209 . S
O421 Mn397 2.215 . S
O421 C398 1.283 . S
O422 Mn396 2.094 . S
O422 C400 1.240 . S
O423 Mn397 2.117 . S
O423 C400 1.264 . S
C424 C417 1.403 . S
C424 C425 1.399 . S
C424 H430 0.929 . S
C425 C405 1.449 . S
C425 C424 1.399 . S
C425 H431 0.930 . S
H426 C406 0.931 . S
H427 C407 0.930 . S
H428 C415 0.931 . S
H429 C416 0.929 . S
H430 C424 0.929 . S
H431 C425 0.930 . S
Mn432 O437 2.095 . S
Mn432 O447 2.162 . S
Mn432 O448 2.297 . S
Mn432 O456 2.385 . S
Mn432 O457 2.209 . S
Mn432 O458 2.094 . S
Mn433 O438 2.121 . S
Mn433 N440 2.257 . S
Mn433 N449 2.282 . S
Mn433 O457 2.215 . S
Mn433 O459 2.117 . S
C434 O456 1.234 . S
C434 O457 1.283 . S
C435 O447 1.281 . S
C435 O448 1.236 . S
C436 O458 1.240 . S
C436 O459 1.264 . S
O437 Mn432 2.095 . S
O437 C446 1.250 . S
O438 Mn433 2.121 . S
O438 C446 1.258 . S
C439 N440 1.326 . S
C439 C443 1.460 . S
C439 H445 0.929 . S
N440 Mn433 2.257 . S
N440 C439 1.326 . S
N440 C444 1.362 . S
C441 C442 1.255 1_565 S
C441 C444 1.431 . S
C441 C461 1.449 1_565 S
C442 C441 1.255 1_545 S
C442 C443 1.473 1_545 S
C442 H462 0.938 . S
C443 C439 1.460 . S
C443 C442 1.473 1_565 S
C443 H463 0.930 . S
C444 N440 1.362 . S
C444 C441 1.431 . S
C444 C454 1.476 . S
H445 C439 0.929 . S
C446 O437 1.250 . S
C446 O438 1.258 . S
O447 Mn432 2.162 . S
O447 C435 1.281 . S
O448 Mn432 2.297 . S
O448 C435 1.236 . S
N449 Mn433 2.282 . S
N449 C450 1.328 . S
N449 C454 1.318 . S
C450 N449 1.328 . S
C450 C451 1.457 . S
C450 H455 0.929 . S
C451 C450 1.457 . S
C451 C452 1.291 . S
C451 H464 0.931 . S
C452 C451 1.291 . S
C452 C453 1.373 . S
C452 H465 0.929 . S
C453 C452 1.373 . S
C453 C454 1.396 . S
C453 C460 1.403 . S
C454 C444 1.476 . S
C454 N449 1.318 . S
C454 C453 1.396 . S
H455 C450 0.929 . S
O456 Mn432 2.385 . S
O456 C434 1.234 . S
O457 Mn432 2.209 . S
O457 Mn433 2.215 . S
O457 C434 1.283 . S
O458 Mn432 2.094 . S
O458 C436 1.240 . S
O459 Mn433 2.117 . S
O459 C436 1.264 . S
C460 C453 1.403 . S
C460 C461 1.399 1_565 S
C460 H466 0.929 1_565 S
C461 C441 1.449 1_545 S
C461 C460 1.399 1_545 S
C461 H467 0.930 . S
H462 C442 0.938 . S
H463 C443 0.930 . S
H464 C451 0.931 . S
H465 C452 0.929 . S
H466 C460 0.929 1_545 S
H467 C461 0.930 . S
Mn468 O473 2.095 . S
Mn468 O483 2.162 . S
Mn468 O484 2.297 . S
Mn468 O492 2.385 . S
Mn468 O493 2.209 . S
Mn468 O494 2.094 . S
Mn469 O474 2.121 . S
Mn469 N476 2.257 . S
Mn469 N485 2.282 . S
Mn469 O493 2.215 . S
Mn469 O495 2.117 . S
C470 O492 1.234 . S
C470 O493 1.283 . S
C471 O483 1.281 . S
C471 O484 1.236 . S
C472 O494 1.240 . S
C472 O495 1.264 . S
O473 Mn468 2.095 . S
O473 C482 1.250 . S
O474 Mn469 2.121 . S
O474 C482 1.258 . S
C475 N476 1.326 . S
C475 C479 1.460 . S
C475 H481 0.929 . S
N476 Mn469 2.257 . S
N476 C475 1.326 . S
N476 C480 1.362 . S
C477 C478 1.255 1_545 S
C477 C480 1.431 . S
C477 C497 1.449 1_545 S
C478 C477 1.255 1_565 S
C478 C479 1.473 1_565 S
C478 H498 0.938 . S
C479 C475 1.460 . S
C479 C478 1.473 1_545 S
C479 H499 0.930 . S
C480 N476 1.362 . S
C480 C477 1.431 . S
C480 C490 1.476 . S
H481 C475 0.929 . S
C482 O473 1.250 . S
C482 O474 1.258 . S
O483 Mn468 2.162 . S
O483 C471 1.281 . S
O484 Mn468 2.297 . S
O484 C471 1.236 . S
N485 Mn469 2.282 . S
N485 C486 1.328 . S
N485 C490 1.318 . S
C486 N485 1.328 . S
C486 C487 1.457 . S
C486 H491 0.929 . S
C487 C486 1.457 . S
C487 C488 1.291 . S
C487 H500 0.931 . S
C488 C487 1.291 . S
C488 C489 1.373 . S
C488 H501 0.929 . S
C489 C488 1.373 . S
C489 C490 1.396 . S
C489 C496 1.403 . S
C490 C480 1.476 . S
C490 N485 1.318 . S
C490 C489 1.396 . S
H491 C486 0.929 . S
O492 Mn468 2.385 . S
O492 C470 1.234 . S
O493 Mn468 2.209 . S
O493 Mn469 2.215 . S
O493 C470 1.283 . S
O494 Mn468 2.094 . S
O494 C472 1.240 . S
O495 Mn469 2.117 . S
O495 C472 1.264 . S
C496 C489 1.403 . S
C496 C497 1.399 1_545 S
C496 H502 0.929 1_545 S
C497 C477 1.449 1_565 S
C497 C496 1.399 1_565 S
C497 H503 0.930 . S
H498 C478 0.938 . S
H499 C479 0.930 . S
H500 C487 0.931 . S
H501 C488 0.929 . S
H502 C496 0.929 1_565 S
H503 C497 0.930 . S
Mn504 O509 2.095 . S
Mn504 O519 2.162 . S
Mn504 O520 2.297 . S
Mn504 O528 2.385 . S
Mn504 O529 2.209 . S
Mn504 O530 2.094 . S
Mn505 O510 2.121 . S
Mn505 N512 2.257 . S
Mn505 N521 2.282 . S
Mn505 O529 2.215 . S
Mn505 O531 2.117 . S
C506 O528 1.234 . S
C506 O529 1.283 . S
C507 O519 1.281 . S
C507 O520 1.236 . S
C508 O530 1.240 . S
C508 O531 1.264 . S
O509 Mn504 2.095 . S
O509 C518 1.250 . S
O510 Mn505 2.121 . S
O510 C518 1.258 . S
C511 N512 1.326 . S
C511 C515 1.460 . S
C511 H517 0.929 . S
N512 Mn505 2.257 . S
N512 C511 1.326 . S
N512 C516 1.362 . S
C513 C514 1.258 . S
C513 C516 1.431 . S
C513 C533 1.449 . S
C514 C513 1.258 . S
C514 C515 1.477 . S
C514 H534 0.931 . S
C515 C511 1.460 . S
C515 C514 1.477 . S
C515 H535 0.930 . S
C516 N512 1.362 . S
C516 C513 1.431 . S
C516 C526 1.476 . S
H517 C511 0.929 . S
C518 O509 1.250 . S
C518 O510 1.258 . S
O519 Mn504 2.162 . S
O519 C507 1.281 . S
O520 Mn504 2.297 . S
O520 C507 1.236 . S
N521 Mn505 2.282 . S
N521 C522 1.328 . S
N521 C526 1.318 . S
C522 N521 1.328 . S
C522 C523 1.457 . S
C522 H527 0.929 . S
C523 C522 1.457 . S
C523 C524 1.291 . S
C523 H536 0.931 . S
C524 C523 1.291 . S
C524 C525 1.373 . S
C524 H537 0.929 . S
C525 C524 1.373 . S
C525 C526 1.396 . S
C525 C532 1.403 . S
C526 C516 1.476 . S
C526 N521 1.318 . S
C526 C525 1.396 . S
H527 C522 0.929 . S
O528 Mn504 2.385 . S
O528 C506 1.234 . S
O529 Mn504 2.209 . S
O529 Mn505 2.215 . S
O529 C506 1.283 . S
O530 Mn504 2.094 . S
O530 C508 1.240 . S
O531 Mn505 2.117 . S
O531 C508 1.264 . S
C532 C525 1.403 . S
C532 C533 1.399 . S
C532 H538 0.929 . S
C533 C513 1.449 . S
C533 C532 1.399 . S
C533 H539 0.930 . S
H534 C514 0.931 . S
H535 C515 0.930 . S
H536 C523 0.931 . S
H537 C524 0.929 . S
H538 C532 0.929 . S
H539 C533 0.930 . S
Mn540 O545 2.095 . S
Mn540 O555 2.162 . S
Mn540 O556 2.297 . S
Mn540 O564 2.385 . S
Mn540 O565 2.209 . S
Mn540 O566 2.094 . S
Mn541 O546 2.121 . S
Mn541 N548 2.257 . S
Mn541 N557 2.282 . S
Mn541 O565 2.215 . S
Mn541 O567 2.117 . S
C542 O564 1.234 . S
C542 O565 1.283 . S
C543 O555 1.281 . S
C543 O556 1.236 . S
C544 O566 1.240 . S
C544 O567 1.264 . S
O545 Mn540 2.095 . S
O545 C554 1.250 . S
O546 Mn541 2.121 . S
O546 C554 1.258 . S
C547 N548 1.326 . S
C547 C551 1.460 . S
C547 H553 0.929 . S
N548 Mn541 2.257 . S
N548 C547 1.326 . S
N548 C552 1.362 . S
C549 C550 1.258 . S
C549 C552 1.431 . S
C549 C569 1.449 . S
C550 C549 1.258 . S
C550 C551 1.477 . S
C550 H570 0.931 . S
C551 C547 1.460 . S
C551 C550 1.477 . S
C551 H571 0.930 . S
C552 N548 1.362 . S
C552 C549 1.431 . S
C552 C562 1.476 . S
H553 C547 0.929 . S
C554 O545 1.250 . S
C554 O546 1.258 . S
O555 Mn540 2.162 . S
O555 C543 1.281 . S
O556 Mn540 2.297 . S
O556 C543 1.236 . S
N557 Mn541 2.282 . S
N557 C558 1.328 . S
N557 C562 1.318 . S
C558 N557 1.328 . S
C558 C559 1.457 . S
C558 H563 0.929 . S
C559 C558 1.457 . S
C559 C560 1.291 . S
C559 H572 0.931 . S
C560 C559 1.291 . S
C560 C561 1.373 . S
C560 H573 0.929 . S
C561 C560 1.373 . S
C561 C562 1.396 . S
C561 C568 1.403 . S
C562 C552 1.476 . S
C562 N557 1.318 . S
C562 C561 1.396 . S
H563 C558 0.929 . S
O564 Mn540 2.385 . S
O564 C542 1.234 . S
O565 Mn540 2.209 . S
O565 Mn541 2.215 . S
O565 C542 1.283 . S
O566 Mn540 2.094 . S
O566 C544 1.240 . S
O567 Mn541 2.117 . S
O567 C544 1.264 . S
C568 C561 1.403 . S
C568 C569 1.399 . S
C568 H574 0.929 . S
C569 C549 1.449 . S
C569 C568 1.399 . S
C569 H575 0.930 . S
H570 C550 0.931 . S
H571 C551 0.930 . S
H572 C559 0.931 . S
H573 C560 0.929 . S
H574 C568 0.929 . S
H575 C569 0.930 . S
Mn576 O581 2.095 . S
Mn576 O591 2.162 . S
Mn576 O592 2.297 . S
Mn576 O600 2.385 . S
Mn576 O601 2.209 . S
Mn576 O602 2.094 . S
Mn577 O582 2.121 . S
Mn577 N584 2.257 . S
Mn577 N593 2.282 . S
Mn577 O601 2.215 . S
Mn577 O603 2.117 . S
C578 O600 1.234 . S
C578 O601 1.283 . S
C579 O591 1.281 . S
C579 O592 1.236 . S
C580 O602 1.240 . S
C580 O603 1.264 . S
O581 Mn576 2.095 . S
O581 C590 1.250 . S
O582 Mn577 2.121 . S
O582 C590 1.258 . S
C583 N584 1.326 . S
C583 C587 1.460 . S
C583 H589 0.929 . S
N584 Mn577 2.257 . S
N584 C583 1.326 . S
N584 C588 1.362 . S
C585 C586 1.258 . S
C585 C588 1.431 . S
C585 C605 1.449 1_556 S
C586 C585 1.258 . S
C586 C587 1.477 . S
C586 H606 0.931 1_556 S
C587 C583 1.460 . S
C587 C586 1.477 . S
C587 H607 0.930 . S
C588 N584 1.362 . S
C588 C585 1.431 . S
C588 C598 1.476 . S
H589 C583 0.929 . S
C590 O581 1.250 . S
C590 O582 1.258 . S
O591 Mn576 2.162 . S
O591 C579 1.281 . S
O592 Mn576 2.297 . S
O592 C579 1.236 . S
N593 Mn577 2.282 . S
N593 C594 1.328 . S
N593 C598 1.318 . S
C594 N593 1.328 . S
C594 C595 1.457 . S
C594 H599 0.929 . S
C595 C594 1.457 . S
C595 C596 1.291 . S
C595 H608 0.931 . S
C596 C595 1.291 . S
C596 C597 1.373 . S
C596 H609 0.929 . S
C597 C596 1.373 . S
C597 C598 1.396 . S
C597 C604 1.403 . S
C598 C588 1.476 . S
C598 N593 1.318 . S
C598 C597 1.396 . S
H599 C594 0.929 . S
O600 Mn576 2.385 . S
O600 C578 1.234 . S
O601 Mn576 2.209 . S
O601 Mn577 2.215 . S
O601 C578 1.283 . S
O602 Mn576 2.094 . S
O602 C580 1.240 . S
O603 Mn577 2.117 . S
O603 C580 1.264 . S
C604 C597 1.403 . S
C604 C605 1.399 1_556 S
C604 H610 0.929 1_556 S
C605 C585 1.449 1_554 S
C605 C604 1.399 1_554 S
C605 H611 0.930 . S
H606 C586 0.931 1_554 S
H607 C587 0.930 . S
H608 C595 0.931 . S
H609 C596 0.929 . S
H610 C604 0.929 1_554 S
H611 C605 0.930 . S
Mn612 O617 2.095 . S
Mn612 O627 2.162 . S
Mn612 O628 2.297 . S
Mn612 O636 2.385 . S
Mn612 O637 2.209 . S
Mn612 O638 2.094 . S
Mn613 O618 2.121 . S
Mn613 N620 2.257 . S
Mn613 N629 2.282 . S
Mn613 O637 2.215 . S
Mn613 O639 2.117 . S
C614 O636 1.234 . S
C614 O637 1.283 . S
C615 O627 1.281 . S
C615 O628 1.236 . S
C616 O638 1.240 . S
C616 O639 1.264 . S
O617 Mn612 2.095 . S
O617 C626 1.250 . S
O618 Mn613 2.121 . S
O618 C626 1.258 . S
C619 N620 1.326 . S
C619 C623 1.460 . S
C619 H625 0.929 . S
N620 Mn613 2.257 . S
N620 C619 1.326 . S
N620 C624 1.362 . S
C621 C622 1.258 . S
C621 C624 1.431 . S
C621 C641 1.449 . S
C622 C621 1.258 . S
C622 C623 1.477 . S
C622 H642 0.931 . S
C623 C619 1.460 . S
C623 C622 1.477 . S
C623 H643 0.930 . S
C624 N620 1.362 . S
C624 C621 1.431 . S
C624 C634 1.476 . S
H625 C619 0.929 . S
C626 O617 1.250 . S
C626 O618 1.258 . S
O627 Mn612 2.162 . S
O627 C615 1.281 . S
O628 Mn612 2.297 . S
O628 C615 1.236 . S
N629 Mn613 2.282 . S
N629 C630 1.328 . S
N629 C634 1.318 . S
C630 N629 1.328 . S
C630 C631 1.457 . S
C630 H635 0.929 . S
C631 C630 1.457 . S
C631 C632 1.291 . S
C631 H644 0.931 . S
C632 C631 1.291 . S
C632 C633 1.373 . S
C632 H645 0.929 . S
C633 C632 1.373 . S
C633 C634 1.396 . S
C633 C640 1.403 . S
C634 C624 1.476 . S
C634 N629 1.318 . S
C634 C633 1.396 . S
H635 C630 0.929 . S
O636 Mn612 2.385 . S
O636 C614 1.234 . S
O637 Mn612 2.209 . S
O637 Mn613 2.215 . S
O637 C614 1.283 . S
O638 Mn612 2.094 . S
O638 C616 1.240 . S
O639 Mn613 2.117 . S
O639 C616 1.264 . S
C640 C633 1.403 . S
C640 C641 1.399 . S
C640 H646 0.929 . S
C641 C621 1.449 . S
C641 C640 1.399 . S
C641 H647 0.930 . S
H642 C622 0.931 . S
H643 C623 0.930 . S
H644 C631 0.931 . S
H645 C632 0.929 . S
H646 C640 0.929 . S
H647 C641 0.930 . S
Mn648 O653 2.095 . S
Mn648 O663 2.162 . S
Mn648 O664 2.297 . S
Mn648 O672 2.385 . S
Mn648 O673 2.209 . S
Mn648 O674 2.094 . S
Mn649 O654 2.121 . S
Mn649 N656 2.257 . S
Mn649 N665 2.282 . S
Mn649 O673 2.215 . S
Mn649 O675 2.117 . S
C650 O672 1.234 . S
C650 O673 1.283 . S
C651 O663 1.281 . S
C651 O664 1.236 . S
C652 O674 1.240 . S
C652 O675 1.264 . S
O653 Mn648 2.095 . S
O653 C662 1.250 . S
O654 Mn649 2.121 . S
O654 C662 1.258 . S
C655 N656 1.326 . S
C655 C659 1.460 . S
C655 H661 0.929 . S
N656 Mn649 2.257 . S
N656 C655 1.326 . S
N656 C660 1.362 . S
C657 C658 1.258 . S
C657 C660 1.431 . S
C657 C677 1.449 1_554 S
C658 C657 1.258 . S
C658 C659 1.477 . S
C658 H678 0.931 1_554 S
C659 C655 1.460 . S
C659 C658 1.477 . S
C659 H679 0.930 . S
C660 N656 1.362 . S
C660 C657 1.431 . S
C660 C670 1.476 . S
H661 C655 0.929 . S
C662 O653 1.250 . S
C662 O654 1.258 . S
O663 Mn648 2.162 . S
O663 C651 1.281 . S
O664 Mn648 2.297 . S
O664 C651 1.236 . S
N665 Mn649 2.282 . S
N665 C666 1.328 . S
N665 C670 1.318 . S
C666 N665 1.328 . S
C666 C667 1.457 . S
C666 H671 0.929 . S
C667 C666 1.457 . S
C667 C668 1.291 . S
C667 H680 0.931 . S
C668 C667 1.291 . S
C668 C669 1.373 . S
C668 H681 0.929 . S
C669 C668 1.373 . S
C669 C670 1.396 . S
C669 C676 1.403 . S
C670 C660 1.476 . S
C670 N665 1.318 . S
C670 C669 1.396 . S
H671 C666 0.929 . S
O672 Mn648 2.385 . S
O672 C650 1.234 . S
O673 Mn648 2.209 . S
O673 Mn649 2.215 . S
O673 C650 1.283 . S
O674 Mn648 2.094 . S
O674 C652 1.240 . S
O675 Mn649 2.117 . S
O675 C652 1.264 . S
C676 C669 1.403 . S
C676 C677 1.399 1_554 S
C676 H682 0.929 1_554 S
C677 C657 1.449 1_556 S
C677 C676 1.399 1_556 S
C677 H683 0.930 . S
H678 C658 0.931 1_556 S
H679 C659 0.930 . S
H680 C667 0.931 . S
H681 C668 0.929 . S
H682 C676 0.929 1_556 S
H683 C677 0.930 . S
Mn684 O689 2.095 . S
Mn684 O699 2.162 . S
Mn684 O700 2.297 . S
Mn684 O708 2.385 . S
Mn684 O709 2.209 . S
Mn684 O710 2.094 . S
Mn685 O690 2.121 . S
Mn685 N692 2.257 . S
Mn685 N701 2.282 . S
Mn685 O709 2.215 . S
Mn685 O711 2.117 . S
C686 O708 1.234 . S
C686 O709 1.283 . S
C687 O699 1.281 . S
C687 O700 1.236 . S
C688 O710 1.240 . S
C688 O711 1.264 . S
O689 Mn684 2.095 . S
O689 C698 1.250 . S
O690 Mn685 2.121 . S
O690 C698 1.258 . S
C691 N692 1.326 . S
C691 C695 1.460 . S
C691 H697 0.929 . S
N692 Mn685 2.257 . S
N692 C691 1.326 . S
N692 C696 1.362 . S
C693 C694 1.258 . S
C693 C696 1.431 . S
C693 C713 1.449 . S
C694 C693 1.258 . S
C694 C695 1.477 . S
C694 H714 0.931 . S
C695 C691 1.460 . S
C695 C694 1.477 . S
C695 H715 0.930 . S
C696 N692 1.362 . S
C696 C693 1.431 . S
C696 C706 1.476 . S
H697 C691 0.929 . S
C698 O689 1.250 . S
C698 O690 1.258 . S
O699 Mn684 2.162 . S
O699 C687 1.281 . S
O700 Mn684 2.297 . S
O700 C687 1.236 . S
N701 Mn685 2.282 . S
N701 C702 1.328 . S
N701 C706 1.318 . S
C702 N701 1.328 . S
C702 C703 1.457 . S
C702 H707 0.929 . S
C703 C702 1.457 . S
C703 C704 1.291 . S
C703 H716 0.931 . S
C704 C703 1.291 . S
C704 C705 1.373 . S
C704 H717 0.929 . S
C705 C704 1.373 . S
C705 C706 1.396 . S
C705 C712 1.403 . S
C706 C696 1.476 . S
C706 N701 1.318 . S
C706 C705 1.396 . S
H707 C702 0.929 . S
O708 Mn684 2.385 . S
O708 C686 1.234 . S
O709 Mn684 2.209 . S
O709 Mn685 2.215 . S
O709 C686 1.283 . S
O710 Mn684 2.094 . S
O710 C688 1.240 . S
O711 Mn685 2.117 . S
O711 C688 1.264 . S
C712 C705 1.403 . S
C712 C713 1.399 . S
C712 H718 0.929 . S
C713 C693 1.449 . S
C713 C712 1.399 . S
C713 H719 0.930 . S
H714 C694 0.931 . S
H715 C695 0.930 . S
H716 C703 0.931 . S
H717 C704 0.929 . S
H718 C712 0.929 . S
H719 C713 0.930 . S
Mn720 O725 2.095 . S
Mn720 O735 2.162 . S
Mn720 O736 2.297 . S
Mn720 O744 2.385 . S
Mn720 O745 2.209 . S
Mn720 O746 2.094 . S
Mn721 O726 2.121 . S
Mn721 N728 2.257 . S
Mn721 N737 2.282 . S
Mn721 O745 2.215 . S
Mn721 O747 2.117 . S
C722 O744 1.234 . S
C722 O745 1.283 . S
C723 O735 1.281 . S
C723 O736 1.236 . S
C724 O746 1.240 . S
C724 O747 1.264 . S
O725 Mn720 2.095 . S
O725 C734 1.250 . S
O726 Mn721 2.121 . S
O726 C734 1.258 . S
C727 N728 1.326 . S
C727 C731 1.460 . S
C727 H733 0.929 . S
N728 Mn721 2.257 . S
N728 C727 1.326 . S
N728 C732 1.362 . S
C729 C730 1.258 . S
C729 C732 1.431 . S
C729 C749 1.449 1_655 S
C730 C729 1.258 . S
C730 C731 1.477 . S
C730 H750 0.931 1_655 S
C731 C727 1.460 . S
C731 C730 1.477 . S
C731 H751 0.930 . S
C732 N728 1.362 . S
C732 C729 1.431 . S
C732 C742 1.476 . S
H733 C727 0.929 . S
C734 O725 1.250 . S
C734 O726 1.258 . S
O735 Mn720 2.162 . S
O735 C723 1.281 . S
O736 Mn720 2.297 . S
O736 C723 1.236 . S
N737 Mn721 2.282 . S
N737 C738 1.328 . S
N737 C742 1.318 . S
C738 N737 1.328 . S
C738 C739 1.457 . S
C738 H743 0.929 . S
C739 C738 1.457 . S
C739 C740 1.291 . S
C739 H752 0.931 . S
C740 C739 1.291 . S
C740 C741 1.373 . S
C740 H753 0.929 . S
C741 C740 1.373 . S
C741 C742 1.396 . S
C741 C748 1.403 . S
C742 C732 1.476 . S
C742 N737 1.318 . S
C742 C741 1.396 . S
H743 C738 0.929 . S
O744 Mn720 2.385 . S
O744 C722 1.234 . S
O745 Mn720 2.209 . S
O745 Mn721 2.215 . S
O745 C722 1.283 . S
O746 Mn720 2.094 . S
O746 C724 1.240 . S
O747 Mn721 2.117 . S
O747 C724 1.264 . S
C748 C741 1.403 . S
C748 C749 1.399 1_655 S
C748 H754 0.929 1_655 S
C749 C729 1.449 1_455 S
C749 C748 1.399 1_455 S
C749 H755 0.930 . S
H750 C730 0.931 1_455 S
H751 C731 0.930 . S
H752 C739 0.931 . S
H753 C740 0.929 . S
H754 C748 0.929 1_455 S
H755 C749 0.930 . S
Mn756 O761 2.095 . S
Mn756 O771 2.162 . S
Mn756 O772 2.297 . S
Mn756 O780 2.385 . S
Mn756 O781 2.209 . S
Mn756 O782 2.094 . S
Mn757 O762 2.121 . S
Mn757 N764 2.257 . S
Mn757 N773 2.282 . S
Mn757 O781 2.215 . S
Mn757 O783 2.117 . S
C758 O780 1.234 . S
C758 O781 1.283 . S
C759 O771 1.281 . S
C759 O772 1.236 . S
C760 O782 1.240 . S
C760 O783 1.264 . S
O761 Mn756 2.095 . S
O761 C770 1.250 . S
O762 Mn757 2.121 . S
O762 C770 1.258 . S
C763 N764 1.326 . S
C763 C767 1.460 . S
C763 H769 0.929 . S
N764 Mn757 2.257 . S
N764 C763 1.326 . S
N764 C768 1.362 . S
C765 C766 1.258 . S
C765 C768 1.431 . S
C765 C785 1.449 . S
C766 C765 1.258 . S
C766 C767 1.477 . S
C766 H786 0.931 . S
C767 C763 1.460 . S
C767 C766 1.477 . S
C767 H787 0.930 . S
C768 N764 1.362 . S
C768 C765 1.431 . S
C768 C778 1.476 . S
H769 C763 0.929 . S
C770 O761 1.250 . S
C770 O762 1.258 . S
O771 Mn756 2.162 . S
O771 C759 1.281 . S
O772 Mn756 2.297 . S
O772 C759 1.236 . S
N773 Mn757 2.282 . S
N773 C774 1.328 . S
N773 C778 1.318 . S
C774 N773 1.328 . S
C774 C775 1.457 . S
C774 H779 0.929 . S
C775 C774 1.457 . S
C775 C776 1.291 . S
C775 H788 0.931 . S
C776 C775 1.291 . S
C776 C777 1.373 . S
C776 H789 0.929 . S
C777 C776 1.373 . S
C777 C778 1.396 . S
C777 C784 1.403 . S
C778 C768 1.476 . S
C778 N773 1.318 . S
C778 C777 1.396 . S
H779 C774 0.929 . S
O780 Mn756 2.385 . S
O780 C758 1.234 . S
O781 Mn756 2.209 . S
O781 Mn757 2.215 . S
O781 C758 1.283 . S
O782 Mn756 2.094 . S
O782 C760 1.240 . S
O783 Mn757 2.117 . S
O783 C760 1.264 . S
C784 C777 1.403 . S
C784 C785 1.399 . S
C784 H790 0.929 . S
C785 C765 1.449 . S
C785 C784 1.399 . S
C785 H791 0.930 . S
H786 C766 0.931 . S
H787 C767 0.930 . S
H788 C775 0.931 . S
H789 C776 0.929 . S
H790 C784 0.929 . S
H791 C785 0.930 . S
Mn792 O797 2.095 . S
Mn792 O807 2.162 . S
Mn792 O808 2.297 . S
Mn792 O816 2.385 . S
Mn792 O817 2.209 . S
Mn792 O818 2.094 . S
Mn793 O798 2.121 . S
Mn793 N800 2.257 . S
Mn793 N809 2.282 . S
Mn793 O817 2.215 . S
Mn793 O819 2.117 . S
C794 O816 1.234 . S
C794 O817 1.283 . S
C795 O807 1.281 . S
C795 O808 1.236 . S
C796 O818 1.240 . S
C796 O819 1.264 . S
O797 Mn792 2.095 . S
O797 C806 1.250 . S
O798 Mn793 2.121 . S
O798 C806 1.258 . S
C799 N800 1.326 . S
C799 C803 1.460 . S
C799 H805 0.929 . S
N800 Mn793 2.257 . S
N800 C799 1.326 . S
N800 C804 1.362 . S
C801 C802 1.258 . S
C801 C804 1.431 . S
C801 C821 1.449 1_455 S
C802 C801 1.258 . S
C802 C803 1.477 . S
C802 H822 0.931 1_455 S
C803 C799 1.460 . S
C803 C802 1.477 . S
C803 H823 0.930 . S
C804 N800 1.362 . S
C804 C801 1.431 . S
C804 C814 1.476 . S
H805 C799 0.929 . S
C806 O797 1.250 . S
C806 O798 1.258 . S
O807 Mn792 2.162 . S
O807 C795 1.281 . S
O808 Mn792 2.297 . S
O808 C795 1.236 . S
N809 Mn793 2.282 . S
N809 C810 1.328 . S
N809 C814 1.318 . S
C810 N809 1.328 . S
C810 C811 1.457 . S
C810 H815 0.929 . S
C811 C810 1.457 . S
C811 C812 1.291 . S
C811 H824 0.931 . S
C812 C811 1.291 . S
C812 C813 1.373 . S
C812 H825 0.929 . S
C813 C812 1.373 . S
C813 C814 1.396 . S
C813 C820 1.403 . S
C814 C804 1.476 . S
C814 N809 1.318 . S
C814 C813 1.396 . S
H815 C810 0.929 . S
O816 Mn792 2.385 . S
O816 C794 1.234 . S
O817 Mn792 2.209 . S
O817 Mn793 2.215 . S
O817 C794 1.283 . S
O818 Mn792 2.094 . S
O818 C796 1.240 . S
O819 Mn793 2.117 . S
O819 C796 1.264 . S
C820 C813 1.403 . S
C820 C821 1.399 1_455 S
C820 H826 0.929 1_455 S
C821 C801 1.449 1_655 S
C821 C820 1.399 1_655 S
C821 H827 0.930 . S
H822 C802 0.931 1_655 S
H823 C803 0.930 . S
H824 C811 0.931 . S
H825 C812 0.929 . S
H826 C820 0.929 1_655 S
H827 C821 0.930 . S
Mn828 O833 2.095 . S
Mn828 O843 2.162 . S
Mn828 O844 2.297 . S
Mn828 O852 2.385 . S
Mn828 O853 2.209 . S
Mn828 O854 2.094 . S
Mn829 O834 2.121 . S
Mn829 N836 2.257 . S
Mn829 N845 2.282 . S
Mn829 O853 2.215 . S
Mn829 O855 2.117 . S
C830 O852 1.234 . S
C830 O853 1.283 . S
C831 O843 1.281 . S
C831 O844 1.236 . S
C832 O854 1.240 . S
C832 O855 1.264 . S
O833 Mn828 2.095 . S
O833 C842 1.250 . S
O834 Mn829 2.121 . S
O834 C842 1.258 . S
C835 N836 1.326 . S
C835 C839 1.460 . S
C835 H841 0.929 . S
N836 Mn829 2.257 . S
N836 C835 1.326 . S
N836 C840 1.362 . S
C837 C838 1.258 . S
C837 C840 1.431 . S
C837 C857 1.449 . S
C838 C837 1.258 . S
C838 C839 1.477 . S
C838 H858 0.931 . S
C839 C835 1.460 . S
C839 C838 1.477 . S
C839 H859 0.930 . S
C840 N836 1.362 . S
C840 C837 1.431 . S
C840 C850 1.476 . S
H841 C835 0.929 . S
C842 O833 1.250 . S
C842 O834 1.258 . S
O843 Mn828 2.162 . S
O843 C831 1.281 . S
O844 Mn828 2.297 . S
O844 C831 1.236 . S
N845 Mn829 2.282 . S
N845 C846 1.328 . S
N845 C850 1.318 . S
C846 N845 1.328 . S
C846 C847 1.457 . S
C846 H851 0.929 . S
C847 C846 1.457 . S
C847 C848 1.291 . S
C847 H860 0.931 . S
C848 C847 1.291 . S
C848 C849 1.373 . S
C848 H861 0.929 . S
C849 C848 1.373 . S
C849 C850 1.396 . S
C849 C856 1.403 . S
C850 C840 1.476 . S
C850 N845 1.318 . S
C850 C849 1.396 . S
H851 C846 0.929 . S
O852 Mn828 2.385 . S
O852 C830 1.234 . S
O853 Mn828 2.209 . S
O853 Mn829 2.215 . S
O853 C830 1.283 . S
O854 Mn828 2.094 . S
O854 C832 1.240 . S
O855 Mn829 2.117 . S
O855 C832 1.264 . S
C856 C849 1.403 . S
C856 C857 1.399 . S
C856 H862 0.929 . S
C857 C837 1.449 . S
C857 C856 1.399 . S
C857 H863 0.930 . S
H858 C838 0.931 . S
H859 C839 0.930 . S
H860 C847 0.931 . S
H861 C848 0.929 . S
H862 C856 0.929 . S
H863 C857 0.930 . S
C864 C865 1.369 . S
C864 C866 1.419 . S
C864 H868 0.930 . S
C865 C864 1.369 . S
C865 C874 1.429 . S
C866 C864 1.419 . S
C866 C867 1.363 . S
C866 H869 0.929 . S
C867 C866 1.363 . S
C867 C873 1.428 . S
H868 C864 0.930 . S
H869 C866 0.929 . S
S870 N871 1.613 . S
S870 N872 1.610 . S
N871 S870 1.613 . S
N871 C874 1.350 . S
N872 S870 1.610 . S
N872 C873 1.351 . S
C873 C867 1.428 . S
C873 N872 1.351 . S
C873 C874 1.434 . S
C874 C865 1.429 . S
C874 N871 1.350 . S
C874 C873 1.434 . S
C875 C876 1.369 . S
C875 C877 1.419 . S
C875 H879 0.930 . S
C876 C875 1.369 . S
C876 C885 1.429 . S
C877 C875 1.419 . S
C877 C878 1.363 . S
C877 H880 0.929 . S
C878 C877 1.363 . S
C878 C884 1.428 . S
H879 C875 0.930 . S
H880 C877 0.929 . S
S881 N882 1.613 . S
S881 N883 1.610 . S
N882 S881 1.613 . S
N882 C885 1.350 . S
N883 S881 1.610 . S
N883 C884 1.351 . S
C884 C878 1.428 . S
C884 N883 1.351 . S
C884 C885 1.434 . S
C885 C876 1.429 . S
C885 N882 1.350 . S
C885 C884 1.434 . S
C886 C887 1.369 . S
C886 C888 1.419 . S
C886 H890 0.930 . S
C887 C886 1.369 . S
C887 C896 1.429 . S
C888 C886 1.419 . S
C888 C889 1.363 . S
C888 H891 0.929 . S
C889 C888 1.363 . S
C889 C895 1.428 . S
H890 C886 0.930 . S
H891 C888 0.929 . S
S892 N893 1.613 . S
S892 N894 1.610 . S
N893 S892 1.613 . S
N893 C896 1.350 . S
N894 S892 1.610 . S
N894 C895 1.351 . S
C895 C889 1.428 . S
C895 N894 1.351 . S
C895 C896 1.434 . S
C896 C887 1.429 . S
C896 N893 1.350 . S
C896 C895 1.434 . S
C897 C898 1.369 . S
C897 C899 1.419 . S
C897 H901 0.930 . S
C898 C897 1.369 . S
C898 C907 1.429 . S
C899 C897 1.419 . S
C899 C900 1.363 . S
C899 H902 0.929 . S
C900 C899 1.363 . S
C900 C906 1.428 . S
H901 C897 0.930 . S
H902 C899 0.929 . S
S903 N904 1.613 . S
S903 N905 1.610 . S
N904 S903 1.613 . S
N904 C907 1.350 . S
N905 S903 1.610 . S
N905 C906 1.351 . S
C906 C900 1.428 . S
C906 N905 1.351 . S
C906 C907 1.434 . S
C907 C898 1.429 . S
C907 N904 1.350 . S
C907 C906 1.434 . S
C908 C909 1.369 . S
C908 C910 1.419 . S
C908 H912 0.930 . S
C909 C908 1.369 . S
C909 C918 1.429 . S
C910 C908 1.419 . S
C910 C911 1.363 . S
C910 H913 0.929 . S
C911 C910 1.363 . S
C911 C917 1.428 . S
H912 C908 0.930 . S
H913 C910 0.929 . S
S914 N915 1.613 . S
S914 N916 1.610 . S
N915 S914 1.613 . S
N915 C918 1.350 . S
N916 S914 1.610 . S
N916 C917 1.351 . S
C917 C911 1.428 . S
C917 N916 1.351 . S
C917 C918 1.434 . S
C918 C909 1.429 . S
C918 N915 1.350 . S
C918 C917 1.434 . S
C919 C920 1.369 . S
C919 C921 1.419 . S
C919 H923 0.930 . S
C920 C919 1.369 . S
C920 C929 1.429 . S
C921 C919 1.419 . S
C921 C922 1.363 . S
C921 H924 0.929 . S
C922 C921 1.363 . S
C922 C928 1.428 . S
H923 C919 0.930 . S
H924 C921 0.929 . S
S925 N926 1.613 . S
S925 N927 1.610 . S
N926 S925 1.613 . S
N926 C929 1.350 . S
N927 S925 1.610 . S
N927 C928 1.351 . S
C928 C922 1.428 . S
C928 N927 1.351 . S
C928 C929 1.434 . S
C929 C920 1.429 . S
C929 N926 1.350 . S
C929 C928 1.434 . S
C930 C931 1.369 . S
C930 C932 1.419 . S
C930 H934 0.930 . S
C931 C930 1.369 . S
C931 C940 1.429 . S
C932 C930 1.419 . S
C932 C933 1.363 . S
C932 H935 0.929 . S
C933 C932 1.363 . S
C933 C939 1.428 . S
H934 C930 0.930 . S
H935 C932 0.929 . S
S936 N937 1.613 . S
S936 N938 1.610 . S
N937 S936 1.613 . S
N937 C940 1.350 . S
N938 S936 1.610 . S
N938 C939 1.351 . S
C939 C933 1.428 . S
C939 N938 1.351 . S
C939 C940 1.434 . S
C940 C931 1.429 . S
C940 N937 1.350 . S
C940 C939 1.434 . S
C941 C942 1.369 . S
C941 C943 1.419 . S
C941 H945 0.930 . S
C942 C941 1.369 . S
C942 C951 1.429 . S
C943 C941 1.419 . S
C943 C944 1.363 . S
C943 H946 0.929 . S
C944 C943 1.363 . S
C944 C950 1.428 . S
H945 C941 0.930 . S
H946 C943 0.929 . S
S947 N948 1.613 . S
S947 N949 1.610 . S
N948 S947 1.613 . S
N948 C951 1.350 . S
N949 S947 1.610 . S
N949 C950 1.351 . S
C950 C944 1.428 . S
C950 N949 1.351 . S
C950 C951 1.434 . S
C951 C942 1.429 . S
C951 N948 1.350 . S
C951 C950 1.434 . S
C952 C953 1.369 . S
C952 C954 1.419 . S
C952 H956 0.930 . S
C953 C952 1.369 . S
C953 C962 1.429 . S
C954 C952 1.419 . S
C954 C955 1.363 . S
C954 H957 0.929 . S
C955 C954 1.363 . S
C955 C961 1.428 . S
H956 C952 0.930 . S
H957 C954 0.929 . S
S958 N959 1.613 . S
S958 N960 1.610 . S
N959 S958 1.613 . S
N959 C962 1.350 . S
N960 S958 1.610 . S
N960 C961 1.351 . S
C961 C955 1.428 . S
C961 N960 1.351 . S
C961 C962 1.434 . S
C962 C953 1.429 . S
C962 N959 1.350 . S
C962 C961 1.434 . S
C963 C964 1.369 . S
C963 C965 1.419 . S
C963 H967 0.930 . S
C964 C963 1.369 . S
C964 C973 1.429 . S
C965 C963 1.419 . S
C965 C966 1.363 . S
C965 H968 0.929 . S
C966 C965 1.363 . S
C966 C972 1.428 . S
H967 C963 0.930 . S
H968 C965 0.929 . S
S969 N970 1.613 . S
S969 N971 1.610 . S
N970 S969 1.613 . S
N970 C973 1.350 . S
N971 S969 1.610 . S
N971 C972 1.351 . S
C972 C966 1.428 . S
C972 N971 1.351 . S
C972 C973 1.434 . S
C973 C964 1.429 . S
C973 N970 1.350 . S
C973 C972 1.434 . S
C974 C975 1.369 . S
C974 C976 1.419 . S
C974 H978 0.930 . S
C975 C974 1.369 . S
C975 C984 1.429 . S
C976 C974 1.419 . S
C976 C977 1.363 . S
C976 H979 0.929 . S
C977 C976 1.363 . S
C977 C983 1.428 . S
H978 C974 0.930 . S
H979 C976 0.929 . S
S980 N981 1.613 . S
S980 N982 1.610 . S
N981 S980 1.613 . S
N981 C984 1.350 . S
N982 S980 1.610 . S
N982 C983 1.351 . S
C983 C977 1.428 . S
C983 N982 1.351 . S
C983 C984 1.434 . S
C984 C975 1.429 . S
C984 N981 1.350 . S
C984 C983 1.434 . S
C985 C986 1.369 . S
C985 C987 1.419 . S
C985 H989 0.930 . S
C986 C985 1.369 . S
C986 C995 1.429 . S
C987 C985 1.419 . S
C987 C988 1.363 . S
C987 H990 0.929 . S
C988 C987 1.363 . S
C988 C994 1.428 . S
H989 C985 0.930 . S
H990 C987 0.929 . S
S991 N992 1.613 . S
S991 N993 1.610 . S
N992 S991 1.613 . S
N992 C995 1.350 . S
N993 S991 1.610 . S
N993 C994 1.351 . S
C994 C988 1.428 . S
C994 N993 1.351 . S
C994 C995 1.434 . S
C995 C986 1.429 . S
C995 N992 1.350 . S
C995 C994 1.434 . S
C996 C997 1.369 . S
C996 C998 1.419 . S
C996 H1000 0.930 . S
C997 C996 1.369 . S
C997 C1006 1.429 . S
C998 C996 1.419 . S
C998 C999 1.363 . S
C998 H1001 0.929 . S
C999 C998 1.363 . S
C999 C1005 1.428 . S
H1000 C996 0.930 . S
H1001 C998 0.929 . S
S1002 N1003 1.613 . S
S1002 N1004 1.610 . S
N1003 S1002 1.613 . S
N1003 C1006 1.350 . S
N1004 S1002 1.610 . S
N1004 C1005 1.351 . S
C1005 C999 1.428 . S
C1005 N1004 1.351 . S
C1005 C1006 1.434 . S
C1006 C997 1.429 . S
C1006 N1003 1.350 . S
C1006 C1005 1.434 . S
C1007 C1008 1.369 . S
C1007 C1009 1.419 . S
C1007 H1011 0.930 . S
C1008 C1007 1.369 . S
C1008 C1017 1.429 . S
C1009 C1007 1.419 . S
C1009 C1010 1.363 . S
C1009 H1012 0.929 . S
C1010 C1009 1.363 . S
C1010 C1016 1.428 . S
H1011 C1007 0.930 . S
H1012 C1009 0.929 . S
S1013 N1014 1.613 . S
S1013 N1015 1.610 . S
N1014 S1013 1.613 . S
N1014 C1017 1.350 . S
N1015 S1013 1.610 . S
N1015 C1016 1.351 . S
C1016 C1010 1.428 . S
C1016 N1015 1.351 . S
C1016 C1017 1.434 . S
C1017 C1008 1.429 . S
C1017 N1014 1.350 . S
C1017 C1016 1.434 . S
C1018 C1019 1.369 . S
C1018 C1020 1.419 . S
C1018 H1022 0.930 . S
C1019 C1018 1.369 . S
C1019 C1028 1.429 . S
C1020 C1018 1.419 . S
C1020 C1021 1.363 . S
C1020 H1023 0.929 . S
C1021 C1020 1.363 . S
C1021 C1027 1.428 . S
H1022 C1018 0.930 . S
H1023 C1020 0.929 . S
S1024 N1025 1.613 . S
S1024 N1026 1.610 . S
N1025 S1024 1.613 . S
N1025 C1028 1.350 . S
N1026 S1024 1.610 . S
N1026 C1027 1.351 . S
C1027 C1021 1.428 . S
C1027 N1026 1.351 . S
C1027 C1028 1.434 . S
C1028 C1019 1.429 . S
C1028 N1025 1.350 . S
C1028 C1027 1.434 . S
C1029 C1030 1.369 . S
C1029 C1031 1.419 . S
C1029 H1033 0.930 . S
C1030 C1029 1.369 . S
C1030 C1039 1.429 . S
C1031 C1029 1.419 . S
C1031 C1032 1.363 . S
C1031 H1034 0.929 . S
C1032 C1031 1.363 . S
C1032 C1038 1.428 . S
H1033 C1029 0.930 . S
H1034 C1031 0.929 . S
S1035 N1036 1.613 . S
S1035 N1037 1.610 . S
N1036 S1035 1.613 . S
N1036 C1039 1.350 . S
N1037 S1035 1.610 . S
N1037 C1038 1.351 . S
C1038 C1032 1.428 . S
C1038 N1037 1.351 . S
C1038 C1039 1.434 . S
C1039 C1030 1.429 . S
C1039 N1036 1.350 . S
C1039 C1038 1.434 . S
C1040 C1041 1.369 . S
C1040 C1042 1.419 . S
C1040 H1044 0.930 . S
C1041 C1040 1.369 . S
C1041 C1050 1.429 . S
C1042 C1040 1.419 . S
C1042 C1043 1.363 . S
C1042 H1045 0.929 . S
C1043 C1042 1.363 . S
C1043 C1049 1.428 . S
H1044 C1040 0.930 . S
H1045 C1042 0.929 . S
S1046 N1047 1.613 . S
S1046 N1048 1.610 . S
N1047 S1046 1.613 . S
N1047 C1050 1.350 . S
N1048 S1046 1.610 . S
N1048 C1049 1.351 . S
C1049 C1043 1.428 . S
C1049 N1048 1.351 . S
C1049 C1050 1.434 . S
C1050 C1041 1.429 . S
C1050 N1047 1.350 . S
C1050 C1049 1.434 . S
C1051 C1052 1.369 . S
C1051 C1053 1.419 . S
C1051 H1055 0.930 . S
C1052 C1051 1.369 . S
C1052 C1061 1.429 . S
C1053 C1051 1.419 . S
C1053 C1054 1.363 . S
C1053 H1056 0.929 . S
C1054 C1053 1.363 . S
C1054 C1060 1.428 . S
H1055 C1051 0.930 . S
H1056 C1053 0.929 . S
S1057 N1058 1.613 . S
S1057 N1059 1.610 . S
N1058 S1057 1.613 . S
N1058 C1061 1.350 . S
N1059 S1057 1.610 . S
N1059 C1060 1.351 . S
C1060 C1054 1.428 . S
C1060 N1059 1.351 . S
C1060 C1061 1.434 . S
C1061 C1052 1.429 . S
C1061 N1058 1.350 . S
C1061 C1060 1.434 . S
C1062 C1063 1.369 . S
C1062 C1064 1.419 . S
C1062 H1066 0.930 . S
C1063 C1062 1.369 . S
C1063 C1072 1.429 . S
C1064 C1062 1.419 . S
C1064 C1065 1.363 . S
C1064 H1067 0.929 . S
C1065 C1064 1.363 . S
C1065 C1071 1.428 . S
H1066 C1062 0.930 . S
H1067 C1064 0.929 . S
S1068 N1069 1.613 . S
S1068 N1070 1.610 . S
N1069 S1068 1.613 . S
N1069 C1072 1.350 . S
N1070 S1068 1.610 . S
N1070 C1071 1.351 . S
C1071 C1065 1.428 . S
C1071 N1070 1.351 . S
C1071 C1072 1.434 . S
C1072 C1063 1.429 . S
C1072 N1069 1.350 . S
C1072 C1071 1.434 . S
C1073 C1074 1.369 . S
C1073 C1075 1.419 . S
C1073 H1077 0.930 . S
C1074 C1073 1.369 . S
C1074 C1083 1.429 . S
C1075 C1073 1.419 . S
C1075 C1076 1.363 . S
C1075 H1078 0.929 . S
C1076 C1075 1.363 . S
C1076 C1082 1.428 . S
H1077 C1073 0.930 . S
H1078 C1075 0.929 . S
S1079 N1080 1.613 . S
S1079 N1081 1.610 . S
N1080 S1079 1.613 . S
N1080 C1083 1.350 . S
N1081 S1079 1.610 . S
N1081 C1082 1.351 . S
C1082 C1076 1.428 . S
C1082 N1081 1.351 . S
C1082 C1083 1.434 . S
C1083 C1074 1.429 . S
C1083 N1080 1.350 . S
C1083 C1082 1.434 . S
C1084 C1085 1.369 . S
C1084 C1086 1.419 . S
C1084 H1088 0.930 . S
C1085 C1084 1.369 . S
C1085 C1094 1.429 . S
C1086 C1084 1.419 . S
C1086 C1087 1.363 . S
C1086 H1089 0.929 . S
C1087 C1086 1.363 . S
C1087 C1093 1.428 . S
H1088 C1084 0.930 . S
H1089 C1086 0.929 . S
S1090 N1091 1.613 . S
S1090 N1092 1.610 . S
N1091 S1090 1.613 . S
N1091 C1094 1.350 . S
N1092 S1090 1.610 . S
N1092 C1093 1.351 . S
C1093 C1087 1.428 . S
C1093 N1092 1.351 . S
C1093 C1094 1.434 . S
C1094 C1085 1.429 . S
C1094 N1091 1.350 . S
C1094 C1093 1.434 . S
C1095 C1096 1.369 . S
C1095 C1097 1.419 . S
C1095 H1099 0.930 . S
C1096 C1095 1.369 . S
C1096 C1105 1.429 . S
C1097 C1095 1.419 . S
C1097 C1098 1.363 . S
C1097 H1100 0.929 . S
C1098 C1097 1.363 . S
C1098 C1104 1.428 . S
H1099 C1095 0.930 . S
H1100 C1097 0.929 . S
S1101 N1102 1.613 . S
S1101 N1103 1.610 . S
N1102 S1101 1.613 . S
N1102 C1105 1.350 . S
N1103 S1101 1.610 . S
N1103 C1104 1.351 . S
C1104 C1098 1.428 . S
C1104 N1103 1.351 . S
C1104 C1105 1.434 . S
C1105 C1096 1.429 . S
C1105 N1102 1.350 . S
C1105 C1104 1.434 . S
C1106 C1107 1.369 . S
C1106 C1108 1.419 . S
C1106 H1110 0.930 . S
C1107 C1106 1.369 . S
C1107 C1116 1.429 . S
C1108 C1106 1.419 . S
C1108 C1109 1.363 . S
C1108 H1111 0.929 . S
C1109 C1108 1.363 . S
C1109 C1115 1.428 . S
H1110 C1106 0.930 . S
H1111 C1108 0.929 . S
S1112 N1113 1.613 . S
S1112 N1114 1.610 . S
N1113 S1112 1.613 . S
N1113 C1116 1.350 . S
N1114 S1112 1.610 . S
N1114 C1115 1.351 . S
C1115 C1109 1.428 . S
C1115 N1114 1.351 . S
C1115 C1116 1.434 . S
C1116 C1107 1.429 . S
C1116 N1113 1.350 . S
C1116 C1115 1.434 . S
C1117 C1118 1.369 . S
C1117 C1119 1.419 . S
C1117 H1121 0.930 . S
C1118 C1117 1.369 . S
C1118 C1127 1.429 . S
C1119 C1117 1.419 . S
C1119 C1120 1.363 . S
C1119 H1122 0.929 . S
C1120 C1119 1.363 . S
C1120 C1126 1.428 . S
H1121 C1117 0.930 . S
H1122 C1119 0.929 . S
S1123 N1124 1.613 . S
S1123 N1125 1.610 . S
N1124 S1123 1.613 . S
N1124 C1127 1.350 . S
N1125 S1123 1.610 . S
N1125 C1126 1.351 . S
C1126 C1120 1.428 . S
C1126 N1125 1.351 . S
C1126 C1127 1.434 . S
C1127 C1118 1.429 . S
C1127 N1124 1.350 . S
C1127 C1126 1.434 . S
C1128 C1129 1.369 . S
C1128 C1130 1.419 . S
C1128 H1132 0.930 . S
C1129 C1128 1.369 . S
C1129 C1138 1.429 . S
C1130 C1128 1.419 . S
C1130 C1131 1.363 . S
C1130 H1133 0.929 . S
C1131 C1130 1.363 . S
C1131 C1137 1.428 . S
H1132 C1128 0.930 . S
H1133 C1130 0.929 . S
S1134 N1135 1.613 . S
S1134 N1136 1.610 . S
N1135 S1134 1.613 . S
N1135 C1138 1.350 . S
N1136 S1134 1.610 . S
N1136 C1137 1.351 . S
C1137 C1131 1.428 . S
C1137 N1136 1.351 . S
C1137 C1138 1.434 . S
C1138 C1129 1.429 . S
C1138 N1135 1.350 . S
C1138 C1137 1.434 . S
C1139 C1140 1.385 . S
C1139 C1141 1.389 1_554 S
C1139 H1143 0.944 . S
C1140 C1139 1.385 . S
C1140 C1149 1.444 . S
C1141 C1139 1.389 1_556 S
C1141 C1142 1.363 . S
C1141 H1144 0.929 . S
C1142 C1141 1.363 . S
C1142 C1148 1.428 . S
H1143 C1139 0.944 . S
H1144 C1141 0.929 . S
S1145 N1146 1.613 1_556 S
S1145 N1147 1.610 . S
N1146 S1145 1.613 1_554 S
N1146 C1149 1.361 . S
N1147 S1145 1.610 . S
N1147 C1148 1.351 . S
C1148 C1142 1.428 . S
C1148 N1147 1.351 . S
C1148 C1149 1.405 1_556 S
C1149 C1140 1.444 . S
C1149 N1146 1.361 . S
C1149 C1148 1.405 1_554 S
C1150 C1151 1.369 . S
C1150 C1152 1.419 . S
C1150 H1154 0.930 . S
C1151 C1150 1.369 . S
C1151 C1160 1.429 . S
C1152 C1150 1.419 . S
C1152 C1153 1.363 . S
C1152 H1155 0.929 . S
C1153 C1152 1.363 . S
C1153 C1159 1.428 . S
H1154 C1150 0.930 . S
H1155 C1152 0.929 . S
S1156 N1157 1.613 . S
S1156 N1158 1.610 . S
N1157 S1156 1.613 . S
N1157 C1160 1.350 . S
N1158 S1156 1.610 . S
N1158 C1159 1.351 . S
C1159 C1153 1.428 . S
C1159 N1158 1.351 . S
C1159 C1160 1.434 . S
C1160 C1151 1.429 . S
C1160 N1157 1.350 . S
C1160 C1159 1.434 . S
C1161 C1162 1.369 . S
C1161 C1163 1.419 . S
C1161 H1165 0.930 . S
C1162 C1161 1.369 . S
C1162 C1171 1.429 . S
C1163 C1161 1.419 . S
C1163 C1164 1.363 1_554 S
C1163 H1166 0.929 1_554 S
C1164 C1163 1.363 1_556 S
C1164 C1170 1.428 . S
H1165 C1161 0.930 . S
H1166 C1163 0.929 1_556 S
S1167 N1168 1.613 1_556 S
S1167 N1169 1.610 . S
N1168 S1167 1.613 1_554 S
N1168 C1171 1.350 . S
N1169 S1167 1.610 . S
N1169 C1170 1.351 . S
C1170 C1164 1.428 . S
C1170 N1169 1.351 . S
C1170 C1171 1.434 1_556 S
C1171 C1162 1.429 . S
C1171 N1168 1.350 . S
C1171 C1170 1.434 1_554 S
C1172 C1173 1.369 . S
C1172 C1174 1.419 . S
C1172 H1176 0.930 . S
C1173 C1172 1.369 . S
C1173 C1182 1.429 . S
C1174 C1172 1.419 . S
C1174 C1175 1.363 . S
C1174 H1177 0.929 . S
C1175 C1174 1.363 . S
C1175 C1181 1.428 . S
H1176 C1172 0.930 . S
H1177 C1174 0.929 . S
S1178 N1179 1.613 . S
S1178 N1180 1.610 . S
N1179 S1178 1.613 . S
N1179 C1182 1.350 . S
N1180 S1178 1.610 . S
N1180 C1181 1.351 . S
C1181 C1175 1.428 . S
C1181 N1180 1.351 . S
C1181 C1182 1.434 . S
C1182 C1173 1.429 . S
C1182 N1179 1.350 . S
C1182 C1181 1.434 . S
C1183 C1184 1.369 . S
C1183 C1185 1.419 1_655 S
C1183 H1187 0.930 . S
C1184 C1183 1.369 . S
C1184 C1193 1.429 1_655 S
C1185 C1183 1.419 1_455 S
C1185 C1186 1.363 . S
C1185 H1188 0.929 . S
C1186 C1185 1.363 . S
C1186 C1192 1.428 . S
H1187 C1183 0.930 . S
H1188 C1185 0.929 . S
S1189 N1190 1.613 . S
S1189 N1191 1.610 . S
N1190 S1189 1.613 . S
N1190 C1193 1.350 . S
N1191 S1189 1.610 . S
N1191 C1192 1.351 . S
C1192 C1186 1.428 . S
C1192 N1191 1.351 . S
C1192 C1193 1.434 . S
C1193 C1184 1.429 1_455 S
C1193 N1190 1.350 . S
C1193 C1192 1.434 . S
C1194 C1195 1.369 . S
C1194 C1196 1.419 1_455 S
C1194 H1198 0.930 . S
C1195 C1194 1.369 . S
C1195 C1204 1.429 1_455 S
C1196 C1194 1.419 1_655 S
C1196 C1197 1.363 . S
C1196 H1199 0.929 . S
C1197 C1196 1.363 . S
C1197 C1203 1.428 . S
H1198 C1194 0.930 . S
H1199 C1196 0.929 . S
S1200 N1201 1.613 . S
S1200 N1202 1.610 . S
N1201 S1200 1.613 . S
N1201 C1204 1.350 . S
N1202 S1200 1.610 . S
N1202 C1203 1.351 . S
C1203 C1197 1.428 . S
C1203 N1202 1.351 . S
C1203 C1204 1.434 . S
C1204 C1195 1.429 1_655 S
C1204 N1201 1.350 . S
C1204 C1203 1.434 . S
C1205 C1206 1.369 . S
C1205 C1207 1.419 . S
C1205 H1209 0.930 . S
C1206 C1205 1.369 . S
C1206 C1215 1.429 . S
C1207 C1205 1.419 . S
C1207 C1208 1.363 . S
C1207 H1210 0.929 . S
C1208 C1207 1.363 . S
C1208 C1214 1.428 . S
H1209 C1205 0.930 . S
H1210 C1207 0.929 . S
S1211 N1212 1.613 . S
S1211 N1213 1.610 . S
N1212 S1211 1.613 . S
N1212 C1215 1.350 . S
N1213 S1211 1.610 . S
N1213 C1214 1.351 . S
C1214 C1208 1.428 . S
C1214 N1213 1.351 . S
C1214 C1215 1.434 . S
C1215 C1206 1.429 . S
C1215 N1212 1.350 . S
C1215 C1214 1.434 . S
C1216 C1217 1.369 . S
C1216 C1218 1.419 . S
C1216 H1220 0.930 . S
C1217 C1216 1.369 . S
C1217 C1226 1.429 . S
C1218 C1216 1.419 . S
C1218 C1219 1.363 . S
C1218 H1221 0.929 . S
C1219 C1218 1.363 . S
C1219 C1225 1.428 . S
H1220 C1216 0.930 . S
H1221 C1218 0.929 . S
S1222 N1223 1.613 . S
S1222 N1224 1.610 . S
N1223 S1222 1.613 . S
N1223 C1226 1.350 . S
N1224 S1222 1.610 . S
N1224 C1225 1.351 . S
C1225 C1219 1.428 . S
C1225 N1224 1.351 . S
C1225 C1226 1.434 . S
C1226 C1217 1.429 . S
C1226 N1223 1.350 . S
C1226 C1225 1.434 . S
C1227 C1228 1.369 1_545 S
C1227 C1229 1.419 . S
C1227 H1231 0.930 . S
C1228 C1227 1.369 1_565 S
C1228 C1237 1.438 . S
C1229 C1227 1.419 . S
C1229 C1230 1.363 . S
C1229 H1232 0.929 . S
C1230 C1229 1.363 . S
C1230 C1236 1.428 . S
H1231 C1227 0.930 . S
H1232 C1229 0.929 . S
S1233 N1234 1.613 1_545 S
S1233 N1235 1.610 . S
N1234 S1233 1.613 1_565 S
N1234 C1237 1.370 . S
N1235 S1233 1.610 . S
N1235 C1236 1.351 . S
C1236 C1230 1.428 . S
C1236 N1235 1.351 . S
C1236 C1237 1.403 1_545 S
C1237 C1228 1.438 . S
C1237 N1234 1.370 . S
C1237 C1236 1.403 1_565 S
C1238 C1239 1.369 1_565 S
C1238 C1240 1.419 . S
C1238 H1242 0.930 1_565 S
C1239 C1238 1.369 1_545 S
C1239 C1248 1.429 1_545 S
C1240 C1238 1.419 . S
C1240 C1241 1.363 . S
C1240 H1243 0.929 . S
C1241 C1240 1.363 . S
C1241 C1247 1.428 . S
H1242 C1238 0.930 1_545 S
H1243 C1240 0.929 . S
S1244 N1245 1.613 . S
S1244 N1246 1.610 . S
N1245 S1244 1.613 . S
N1245 C1248 1.350 . S
N1246 S1244 1.610 . S
N1246 C1247 1.351 . S
C1247 C1241 1.428 . S
C1247 N1246 1.351 . S
C1247 C1248 1.434 . S
C1248 C1239 1.429 1_565 S
C1248 N1245 1.350 . S
C1248 C1247 1.434 . S
C1249 C1250 1.369 . S
C1249 C1251 1.419 . S
C1249 H1253 0.930 . S
C1250 C1249 1.369 . S
C1250 C1259 1.429 . S
C1251 C1249 1.419 . S
C1251 C1252 1.363 . S
C1251 H1254 0.929 . S
C1252 C1251 1.363 . S
C1252 C1258 1.428 . S
H1253 C1249 0.930 . S
H1254 C1251 0.929 . S
S1255 N1256 1.613 . S
S1255 N1257 1.610 . S
N1256 S1255 1.613 . S
N1256 C1259 1.350 . S
N1257 S1255 1.610 . S
N1257 C1258 1.351 . S
C1258 C1252 1.428 . S
C1258 N1257 1.351 . S
C1258 C1259 1.434 . S
C1259 C1250 1.429 . S
C1259 N1256 1.350 . S
C1259 C1258 1.434 . S
C1260 C1261 1.369 . S
C1260 C1262 1.419 . S
C1260 H1264 0.930 . S
C1261 C1260 1.369 . S
C1261 C1270 1.429 . S
C1262 C1260 1.419 . S
C1262 C1263 1.363 . S
C1262 H1265 0.929 . S
C1263 C1262 1.363 . S
C1263 C1269 1.428 . S
H1264 C1260 0.930 . S
H1265 C1262 0.929 . S
S1266 N1267 1.613 . S
S1266 N1268 1.610 . S
N1267 S1266 1.613 . S
N1267 C1270 1.350 . S
N1268 S1266 1.610 . S
N1268 C1269 1.351 . S
C1269 C1263 1.428 . S
C1269 N1268 1.351 . S
C1269 C1270 1.434 . S
C1270 C1261 1.429 . S
C1270 N1267 1.350 . S
C1270 C1269 1.434 . S
C1271 C1272 1.369 1_554 S
C1271 C1273 1.419 . S
C1271 H1275 0.930 . S
C1272 C1271 1.369 1_556 S
C1272 C1281 1.429 1_556 S
C1273 C1271 1.419 . S
C1273 C1274 1.363 . S
C1273 H1276 0.929 . S
C1274 C1273 1.363 . S
C1274 C1280 1.428 . S
H1275 C1271 0.930 . S
H1276 C1273 0.929 . S
S1277 N1278 1.613 1_554 S
S1277 N1279 1.610 . S
N1278 S1277 1.613 1_556 S
N1278 C1281 1.350 1_556 S
N1279 S1277 1.610 . S
N1279 C1280 1.351 . S
C1280 C1274 1.428 . S
C1280 N1279 1.351 . S
C1280 C1281 1.434 . S
C1281 C1272 1.429 1_554 S
C1281 N1278 1.350 1_554 S
C1281 C1280 1.434 . S
C1282 C1283 1.369 . S
C1282 C1284 1.419 . S
C1282 H1286 0.930 . S
C1283 C1282 1.369 . S
C1283 C1292 1.429 . S
C1284 C1282 1.419 . S
C1284 C1285 1.363 . S
C1284 H1287 0.929 . S
C1285 C1284 1.363 . S
C1285 C1291 1.428 . S
H1286 C1282 0.930 . S
H1287 C1284 0.929 . S
S1288 N1289 1.613 . S
S1288 N1290 1.610 . S
N1289 S1288 1.613 . S
N1289 C1292 1.350 . S
N1290 S1288 1.610 . S
N1290 C1291 1.351 . S
C1291 C1285 1.428 . S
C1291 N1290 1.351 . S
C1291 C1292 1.434 . S
C1292 C1283 1.429 . S
C1292 N1289 1.350 . S
C1292 C1291 1.434 . S
C1293 C1294 1.369 1_556 S
C1293 C1295 1.419 . S
C1293 H1297 0.930 . S
C1294 C1293 1.369 1_554 S
C1294 C1303 1.429 1_554 S
C1295 C1293 1.419 . S
C1295 C1296 1.363 . S
C1295 H1298 0.929 . S
C1296 C1295 1.363 . S
C1296 C1302 1.428 . S
H1297 C1293 0.930 . S
H1298 C1295 0.929 . S
S1299 N1300 1.613 1_556 S
S1299 N1301 1.610 . S
N1300 S1299 1.613 1_554 S
N1300 C1303 1.350 1_554 S
N1301 S1299 1.610 . S
N1301 C1302 1.351 . S
C1302 C1296 1.428 . S
C1302 N1301 1.351 . S
C1302 C1303 1.434 . S
C1303 C1294 1.429 1_556 S
C1303 N1300 1.350 1_556 S
C1303 C1302 1.434 . S
C1304 C1305 1.369 . S
C1304 C1306 1.419 . S
C1304 H1308 0.930 . S
C1305 C1304 1.369 . S
C1305 C1314 1.429 . S
C1306 C1304 1.419 . S
C1306 C1307 1.363 . S
C1306 H1309 0.929 . S
C1307 C1306 1.363 . S
C1307 C1313 1.428 . S
H1308 C1304 0.930 . S
H1309 C1306 0.929 . S
S1310 N1311 1.613 . S
S1310 N1312 1.610 . S
N1311 S1310 1.613 . S
N1311 C1314 1.350 . S
N1312 S1310 1.610 . S
N1312 C1313 1.351 . S
C1313 C1307 1.428 . S
C1313 N1312 1.351 . S
C1313 C1314 1.434 . S
C1314 C1305 1.429 . S
C1314 N1311 1.350 . S
C1314 C1313 1.434 . S
C1315 C1316 1.369 . S
C1315 C1317 1.419 . S
C1315 H1319 0.930 . S
C1316 C1315 1.369 . S
C1316 C1325 1.429 . S
C1317 C1315 1.419 . S
C1317 C1318 1.363 1_655 S
C1317 H1320 0.929 . S
C1318 C1317 1.363 1_455 S
C1318 C1324 1.428 . S
H1319 C1315 0.930 . S
H1320 C1317 0.929 . S
S1321 N1322 1.613 1_455 S
S1321 N1323 1.610 . S
N1322 S1321 1.613 1_655 S
N1322 C1325 1.350 . S
N1323 S1321 1.610 . S
N1323 C1324 1.351 . S
C1324 C1318 1.428 . S
C1324 N1323 1.351 . S
C1324 C1325 1.434 1_455 S
C1325 C1316 1.429 . S
C1325 N1322 1.350 . S
C1325 C1324 1.434 1_655 S
C1326 C1327 1.369 . S
C1326 C1328 1.419 1_455 S
C1326 H1330 0.930 . S
C1327 C1326 1.369 . S
C1327 C1336 1.429 . S
C1328 C1326 1.419 1_655 S
C1328 C1329 1.363 . S
C1328 H1331 0.929 . S
C1329 C1328 1.363 . S
C1329 C1335 1.428 1_655 S
H1330 C1326 0.930 . S
H1331 C1328 0.929 . S
S1332 N1333 1.613 . S
S1332 N1334 1.610 . S
N1333 S1332 1.613 . S
N1333 C1336 1.350 . S
N1334 S1332 1.610 . S
N1334 C1335 1.351 . S
C1335 C1329 1.428 1_455 S
C1335 N1334 1.351 . S
C1335 C1336 1.434 . S
C1336 C1327 1.429 . S
C1336 N1333 1.350 . S
C1336 C1335 1.434 . S
C1337 C1338 1.369 . S
C1337 C1339 1.419 . S
C1337 H1341 0.930 . S
C1338 C1337 1.369 . S
C1338 C1347 1.429 . S
C1339 C1337 1.419 . S
C1339 C1340 1.363 . S
C1339 H1342 0.929 . S
C1340 C1339 1.363 . S
C1340 C1346 1.428 . S
H1341 C1337 0.930 . S
H1342 C1339 0.929 . S
S1343 N1344 1.613 . S
S1343 N1345 1.610 . S
N1344 S1343 1.613 . S
N1344 C1347 1.350 . S
N1345 S1343 1.610 . S
N1345 C1346 1.351 . S
C1346 C1340 1.428 . S
C1346 N1345 1.351 . S
C1346 C1347 1.434 . S
C1347 C1338 1.429 . S
C1347 N1344 1.350 . S
C1347 C1346 1.434 . S
C1348 C1349 1.369 . S
C1348 C1350 1.419 . S
C1348 H1352 0.930 . S
C1349 C1348 1.369 . S
C1349 C1358 1.429 . S
C1350 C1348 1.419 . S
C1350 C1351 1.363 . S
C1350 H1353 0.929 . S
C1351 C1350 1.363 . S
C1351 C1357 1.428 . S
H1352 C1348 0.930 . S
H1353 C1350 0.929 . S
S1354 N1355 1.613 . S
S1354 N1356 1.610 . S
N1355 S1354 1.613 . S
N1355 C1358 1.350 . S
N1356 S1354 1.610 . S
N1356 C1357 1.351 . S
C1357 C1351 1.428 . S
C1357 N1356 1.351 . S
C1357 C1358 1.434 . S
C1358 C1349 1.429 . S
C1358 N1355 1.350 . S
C1358 C1357 1.434 . S
C1359 C1360 1.369 . S
C1359 C1361 1.419 1_565 S
C1359 H1363 0.930 . S
C1360 C1359 1.369 . S
C1360 C1369 1.429 . S
C1361 C1359 1.419 1_545 S
C1361 C1362 1.363 . S
C1361 H1364 0.929 . S
C1362 C1361 1.363 . S
C1362 C1368 1.428 1_545 S
H1363 C1359 0.930 . S
H1364 C1361 0.929 . S
S1365 N1366 1.613 . S
S1365 N1367 1.610 1_565 S
N1366 S1365 1.613 . S
N1366 C1369 1.350 . S
N1367 S1365 1.610 1_545 S
N1367 C1368 1.351 1_545 S
C1368 C1362 1.428 1_565 S
C1368 N1367 1.351 1_565 S
C1368 C1369 1.434 . S
C1369 C1360 1.429 . S
C1369 N1366 1.350 . S
C1369 C1368 1.434 . S
C1370 C1371 1.369 1_545 S
C1370 C1372 1.419 . S
C1370 H1374 0.930 . S
C1371 C1370 1.369 1_565 S
C1371 C1380 1.429 . S
C1372 C1370 1.419 . S
C1372 C1373 1.363 . S
C1372 H1375 0.929 . S
C1373 C1372 1.363 . S
C1373 C1379 1.428 . S
H1374 C1370 0.930 . S
H1375 C1372 0.929 . S
S1376 N1377 1.613 . S
S1376 N1378 1.610 1_565 S
N1377 S1376 1.613 . S
N1377 C1380 1.350 . S
N1378 S1376 1.610 1_545 S
N1378 C1379 1.351 . S
C1379 C1373 1.428 . S
C1379 N1378 1.351 . S
C1379 C1380 1.434 1_545 S
C1380 C1371 1.429 . S
C1380 N1377 1.350 . S
C1380 C1379 1.434 1_565 S
C1381 C1382 1.369 . S
C1381 C1383 1.419 . S
C1381 H1385 0.930 . S
C1382 C1381 1.369 . S
C1382 C1391 1.429 . S
C1383 C1381 1.419 . S
C1383 C1384 1.363 . S
C1383 H1386 0.929 . S
C1384 C1383 1.363 . S
C1384 C1390 1.428 . S
H1385 C1381 0.930 . S
H1386 C1383 0.929 . S
S1387 N1388 1.613 . S
S1387 N1389 1.610 . S
N1388 S1387 1.613 . S
N1388 C1391 1.350 . S
N1389 S1387 1.610 . S
N1389 C1390 1.351 . S
C1390 C1384 1.428 . S
C1390 N1389 1.351 . S
C1390 C1391 1.434 . S
C1391 C1382 1.429 . S
C1391 N1388 1.350 . S
C1391 C1390 1.434 . S
C865 C291 1.179 . S
C867 C3 1.158 . S
C876 C39 1.158 . S
C878 C399 1.182 . S
C887 C75 1.157 . S
C889 C327 1.182 . S
C898 C111 1.157 . S
C900 C363 1.182 . S
C909 C147 1.205 . S
C911 C2 1.168 . S
C920 C38 1.170 . S
C922 C183 1.204 . S
C931 C219 1.203 . S
C933 C74 1.169 . S
C942 C110 1.169 . S
C944 C255 1.202 . S
C953 C146 1.253 . S
C955 C290 1.221 . S
C964 C218 1.248 . S
C966 C326 1.213 . S
C975 C362 1.219 . S
C977 C254 1.255 . S
C986 C182 1.253 . S
C988 C398 1.221 . S
C997 C722 1.182 . S
C999 C435 1.194 . S
C1008 C471 1.194 . S
C1010 C830 1.182 . S
C1019 C507 1.194 . S
C1021 C758 1.177 . S
C1030 C794 1.182 . S
C1032 C543 1.194 . S
C1041 C579 1.219 . S
C1043 C434 1.201 . S
C1052 C470 1.202 . S
C1054 C615 1.217 . S
C1063 C506 1.196 . S
C1065 C651 1.212 . S
C1074 C687 1.219 . S
C1076 C542 1.199 . S
C1085 C723 1.203 . S
C1087 C578 1.184 . S
C1096 C650 1.193 . S
C1098 C759 1.207 . S
C1107 C686 1.193 . S
C1109 C795 1.207 . S
C1118 C831 1.210 . S
C1120 C614 1.184 . S
C1129 C806 1.382 . S
C1131 C4 1.383 . S
C1140 C770 1.378 . S
C1142 C40 1.383 . S
C1151 C842 1.378 . S
C1153 C76 1.387 . S
C1162 C112 1.388 . S
C1164 C734 1.381 . S
C1173 C148 1.400 . S
C1175 C482 1.392 . S
C1184 C446 1.395 . S
C1186 C184 1.401 . S
C1195 C554 1.396 . S
C1197 C220 1.402 . S
C1206 C518 1.392 . S
C1208 C256 1.405 . S
C1217 C302 1.401 . S
C1219 C662 1.390 . S
C1228 C590 1.387 . S
C1230 C338 1.397 . S
C1239 C626 1.391 . S
C1241 C374 1.400 . S
C1250 C698 1.386 . S
C1252 C410 1.396 . S
C1261 C364 1.452 . S
C1263 C436 1.429 . S
C1272 C328 1.449 . S
C1274 C472 1.433 . S
C1283 C508 1.432 . S
C1285 C400 1.449 . S
C1294 C292 1.452 . S
C1296 C544 1.433 . S
C1305 C580 1.411 . S
C1307 C50 1.412 . S
C1316 C616 1.411 . S
C1318 C14 1.407 . S
C1327 C652 1.410 . S
C1329 C122 1.412 . S
C1338 C688 1.412 . S
C1340 C86 1.408 . S
C1349 C724 1.411 . S
C1351 C230 1.402 . S
C1360 C760 1.410 . S
C1362 C158 1.406 . S
C1371 C194 1.402 . S
C1373 C796 1.411 . S
C1382 C832 1.411 . S
C1384 C266 1.406 . S
