# Generated by pormake.
# Topology wjd, (6)-cn, num edge types: 1
# Building blocks:
#     Node 0, Type 0, BuildingBlock: KUMBUR_clean_sbu_1, # of connection points: 6
#     Node 1, Type 0, BuildingBlock: KUMBUR_clean_sbu_1, # of connection points: 6
#     Node 2, Type 0, BuildingBlock: KUMBUR_clean_sbu_1, # of connection points: 6
#     Node 3, Type 0, BuildingBlock: KUMBUR_clean_sbu_1, # of connection points: 6
#     Node 4, Type 0, BuildingBlock: KUMBUR_clean_sbu_1, # of connection points: 6
#     Node 5, Type 0, BuildingBlock: KUMBUR_clean_sbu_1, # of connection points: 6
#     Node 6, Type 0, BuildingBlock: KUMBUR_clean_sbu_1, # of connection points: 6
#     Node 7, Type 0, BuildingBlock: KUMBUR_clean_sbu_1, # of connection points: 6
#     Node 8, Type 0, BuildingBlock: KUMBUR_clean_sbu_1, # of connection points: 6
#     Node 9, Type 0, BuildingBlock: KUMBUR_clean_sbu_1, # of connection points: 6
#     Node 10, Type 0, BuildingBlock: KUMBUR_clean_sbu_1, # of connection points: 6
#     Node 11, Type 0, BuildingBlock: KUMBUR_clean_sbu_1, # of connection points: 6
#     Edge 12, Type (0, 0), BuildingBlock: UVAHIK_clean_linker_0, # of connection points: 2
#     Edge 13, Type (0, 0), BuildingBlock: UVAHIK_clean_linker_0, # of connection points: 2
#     Edge 14, Type (0, 0), BuildingBlock: UVAHIK_clean_linker_0, # of connection points: 2
#     Edge 15, Type (0, 0), BuildingBlock: UVAHIK_clean_linker_0, # of connection points: 2
#     Edge 16, Type (0, 0), BuildingBlock: UVAHIK_clean_linker_0, # of connection points: 2
#     Edge 17, Type (0, 0), BuildingBlock: UVAHIK_clean_linker_0, # of connection points: 2
#     Edge 18, Type (0, 0), BuildingBlock: UVAHIK_clean_linker_0, # of connection points: 2
#     Edge 19, Type (0, 0), BuildingBlock: UVAHIK_clean_linker_0, # of connection points: 2
#     Edge 20, Type (0, 0), BuildingBlock: UVAHIK_clean_linker_0, # of connection points: 2
#     Edge 21, Type (0, 0), BuildingBlock: UVAHIK_clean_linker_0, # of connection points: 2
#     Edge 22, Type (0, 0), BuildingBlock: UVAHIK_clean_linker_0, # of connection points: 2
#     Edge 23, Type (0, 0), BuildingBlock: UVAHIK_clean_linker_0, # of connection points: 2
#     Edge 24, Type (0, 0), BuildingBlock: UVAHIK_clean_linker_0, # of connection points: 2
#     Edge 25, Type (0, 0), BuildingBlock: UVAHIK_clean_linker_0, # of connection points: 2
#     Edge 26, Type (0, 0), BuildingBlock: UVAHIK_clean_linker_0, # of connection points: 2
#     Edge 27, Type (0, 0), BuildingBlock: UVAHIK_clean_linker_0, # of connection points: 2
#     Edge 28, Type (0, 0), BuildingBlock: UVAHIK_clean_linker_0, # of connection points: 2
#     Edge 29, Type (0, 0), BuildingBlock: UVAHIK_clean_linker_0, # of connection points: 2
#     Edge 30, Type (0, 0), BuildingBlock: UVAHIK_clean_linker_0, # of connection points: 2
#     Edge 31, Type (0, 0), BuildingBlock: UVAHIK_clean_linker_0, # of connection points: 2
#     Edge 32, Type (0, 0), BuildingBlock: UVAHIK_clean_linker_0, # of connection points: 2
#     Edge 33, Type (0, 0), BuildingBlock: UVAHIK_clean_linker_0, # of connection points: 2
#     Edge 34, Type (0, 0), BuildingBlock: UVAHIK_clean_linker_0, # of connection points: 2
#     Edge 35, Type (0, 0), BuildingBlock: UVAHIK_clean_linker_0, # of connection points: 2
#     Edge 36, Type (0, 0), BuildingBlock: UVAHIK_clean_linker_0, # of connection points: 2
#     Edge 37, Type (0, 0), BuildingBlock: UVAHIK_clean_linker_0, # of connection points: 2
#     Edge 38, Type (0, 0), BuildingBlock: UVAHIK_clean_linker_0, # of connection points: 2
#     Edge 39, Type (0, 0), BuildingBlock: UVAHIK_clean_linker_0, # of connection points: 2
#     Edge 40, Type (0, 0), BuildingBlock: UVAHIK_clean_linker_0, # of connection points: 2
#     Edge 41, Type (0, 0), BuildingBlock: UVAHIK_clean_linker_0, # of connection points: 2
#     Edge 42, Type (0, 0), BuildingBlock: UVAHIK_clean_linker_0, # of connection points: 2
#     Edge 43, Type (0, 0), BuildingBlock: UVAHIK_clean_linker_0, # of connection points: 2
#     Edge 44, Type (0, 0), BuildingBlock: UVAHIK_clean_linker_0, # of connection points: 2
#     Edge 45, Type (0, 0), BuildingBlock: UVAHIK_clean_linker_0, # of connection points: 2
#     Edge 46, Type (0, 0), BuildingBlock: UVAHIK_clean_linker_0, # of connection points: 2
#     Edge 47, Type (0, 0), BuildingBlock: UVAHIK_clean_linker_0, # of connection points: 2
# Relax obj value: 0.072
# Max RMSD: 0.178
# Mean RMSD: 0.178
data_MOF--net-wjd--node1-KUMBUR_clean_sbu_1--edge1-UVAHIK_clean_linker_0
_symmetry_space_group_name_H-M    P1
_symmetry_Int_Tables_number       1
_symmetry_cell_setting            triclinic
loop_
_symmetry_equiv_pos_as_xyz
'x, y, z'
_cell_length_a     47.686736
_cell_length_b     47.760857
_cell_length_c     70.67794
_cell_angle_alpha  90.058298
_cell_angle_beta   89.904639
_cell_angle_gamma 119.99163
loop_
_atom_site_label
_atom_site_type_symbol
_atom_site_fract_x
_atom_site_fract_y
_atom_site_fract_z
_atom_type_partial_charge
Tb0 Tb 0.31649 0.0847 0.13587 0.0
C1 C 0.31835 0.19963 0.09819 0.0
N2 N 0.33266 0.18386 0.09046 0.0
C3 C 0.31071 0.18435 0.06007 0.0
C4 C 0.29888 0.20778 0.08712 0.0
C5 C 0.32974 0.1767 0.07161 0.0
C6 C 0.2951 0.19983 0.06787 0.0
C7 C 0.30773 0.22289 0.12586 0.0
C8 C 0.32272 0.20695 0.11735 0.0
C9 C 0.28771 0.2304 0.115 0.0
C10 C 0.28345 0.22304 0.09567 0.0
Tb11 Tb 0.36436 0.17413 0.11015 0.0
N12 N 0.34231 0.19932 0.12747 0.0
C13 C 0.31403 0.23167 0.1449 0.0
C14 C 0.35131 0.21133 0.1454 0.0
C15 C 0.33649 0.2265 0.15458 0.0
H16 H 0.34213 0.16518 0.06544 0.0
H17 H 0.34316 0.23509 0.16896 0.0
H18 H 0.28567 0.0973 0.17437 0.0
H19 H 0.3712 0.01047 0.12442 0.0
H20 H 0.37092 0.2109 0.15258 0.0
H21 H 0.30293 0.24383 0.15198 0.0
H22 H 0.34291 0.03981 0.11492 0.0
H23 H 0.30817 0.17839 0.04516 0.0
H24 H 0.27578 0.24233 0.12137 0.0
H25 H 0.26809 0.22914 0.08746 0.0
H26 H 0.2903 0.09291 0.20903 0.0
H27 H 0.28025 0.20558 0.05891 0.0
H28 H 0.38481 0.00923 0.1581 0.0
N29 N 0.31743 0.07955 0.16781 0.0
C30 C 0.33474 0.06624 0.17444 0.0
C31 C 0.30318 0.08557 0.19947 0.0
C32 C 0.33808 0.06313 0.19399 0.0
C33 C 0.30062 0.08807 0.17989 0.0
C34 C 0.32255 0.07366 0.20658 0.0
N35 N 0.34099 0.05522 0.14291 0.0
C36 C 0.34829 0.03886 0.12968 0.0
C37 C 0.36294 0.03708 0.1676 0.0
C38 C 0.34688 0.05344 0.16149 0.0
C39 C 0.37235 0.02202 0.15401 0.0
C40 C 0.36458 0.02254 0.135 0.0
H41 H 0.32448 0.07171 0.22173 0.0
H42 H 0.35882 0.04611 0.21522 0.0
H43 H 0.38065 0.02326 0.19207 0.0
O44 O 0.2761 0.05966 0.118 0.0
O45 O 0.36773 0.10112 0.12925 0.0
O46 O 0.39489 0.15293 0.11532 0.0
O47 O 0.27572 0.04249 0.14609 0.0
O48 O 0.32646 0.08476 0.10576 0.0
O49 O 0.35463 0.13492 0.08991 0.0
O50 O 0.39684 0.2243 0.11197 0.0
O51 O 0.31207 0.1392 0.10672 0.0
O52 O 0.29881 0.11884 0.1364 0.0
O53 O 0.39743 0.1976 0.08787 0.0
O54 O 0.37935 0.17029 0.13927 0.0
O55 O 0.33006 0.13096 0.14861 0.0
C56 C 0.3935 0.12633 0.12183 0.0
C57 C 0.2431 1.00351 0.12331 0.0
C58 C 0.19274 0.95269 0.11744 0.0
C59 C 0.21092 0.94033 0.10883 0.0
C60 C 0.26062 0.99048 0.11483 0.0
C61 C 0.24459 0.95909 0.10762 0.0
C62 C 0.20915 0.98443 0.12477 0.0
C63 C 0.33929 0.10275 0.09048 0.0
C64 C 0.25973 0.03706 0.13036 0.0
C65 C 0.35563 0.04845 0.20025 0.0
C66 C 0.36804 0.03542 0.18706 0.0
C67 C 0.29125 0.12831 0.12079 0.0
C68 C 0.44754 0.24299 0.0974 0.0
C69 C 0.49889 0.29338 0.10258 0.0
C70 C 0.51535 0.27598 0.10045 0.0
C71 C 0.46472 0.22639 0.09537 0.0
C72 C 0.4648 0.27663 0.10087 0.0
C73 C 0.49837 0.24281 0.09685 0.0
C74 C 0.36019 0.15133 0.15271 0.0
C75 C 0.41171 0.22547 0.09638 0.0
H76 H 0.1991 0.91596 0.10323 0.0
H77 H 0.28662 1.00463 0.11366 0.0
H78 H 0.25832 0.94926 0.10104 0.0
H79 H 0.1955 0.99449 0.13125 0.0
H80 H 0.5415 0.2881 0.10139 0.0
H81 H 0.45214 0.20072 0.09265 0.0
H82 H 0.45166 0.28955 0.10264 0.0
H83 H 0.51136 0.22975 0.09523 0.0
Tb84 Tb 0.82479 0.65137 0.40114 0.0
C85 C 0.74682 0.67818 0.33621 0.0
N86 N 0.77791 0.69601 0.34207 0.0
C87 C 0.79614 0.70559 0.30986 0.0
C88 C 0.73907 0.67231 0.31686 0.0
C89 C 0.80248 0.7109 0.32927 0.0
C90 C 0.76434 0.68568 0.30364 0.0
C91 C 0.68987 0.65176 0.34425 0.0
C92 C 0.72265 0.668 0.34965 0.0
C93 C 0.68182 0.64419 0.32507 0.0
C94 C 0.70641 0.65441 0.31139 0.0
Tb95 Tb 0.78567 0.7001 0.37396 0.0
N96 N 0.73151 0.67602 0.36796 0.0
C97 C 0.66637 0.64473 0.35821 0.0
C98 C 0.70896 0.67148 0.38141 0.0
C99 C 0.676 0.65514 0.37681 0.0
H100 H 0.82708 0.72621 0.33408 0.0
H101 H 0.65807 0.65059 0.38759 0.0
H102 H 0.83738 0.67737 0.4453 0.0
H103 H 0.90768 0.66711 0.34385 0.0
H104 H 0.71646 0.67937 0.39579 0.0
H105 H 0.64085 0.63224 0.35467 0.0
H106 H 0.85514 0.64182 0.35977 0.0
H107 H 0.81576 0.71671 0.29974 0.0
H108 H 0.65673 0.63136 0.32062 0.0
H109 H 0.6999 0.64929 0.2966 0.0
H110 H 0.88427 0.7123 0.46553 0.0
H111 H 0.75949 0.68165 0.28861 0.0
H112 H 0.9568 0.70725 0.36079 0.0
N113 N 0.86612 0.68342 0.42093 0.0
C114 C 0.8964 0.69665 0.41355 0.0
C115 C 0.88799 0.70819 0.45092 0.0
C116 C 0.92383 0.71683 0.42455 0.0
C117 C 0.86148 0.68856 0.4394 0.0
C118 C 0.9193 0.72246 0.44346 0.0
N119 N 0.8725 0.67126 0.38452 0.0
C120 C 0.87549 0.66119 0.36689 0.0
C121 C 0.93074 0.70473 0.38642 0.0
C122 C 0.89966 0.69083 0.39467 0.0
C123 C 0.9334 0.69706 0.36766 0.0
C124 C 0.90571 0.67466 0.358 0.0
H125 H 0.93977 0.73785 0.45237 0.0
H126 H 0.97608 0.74708 0.42442 0.0
H127 H 0.98216 0.73638 0.39105 0.0
O128 O 0.83272 0.61213 0.39705 0.0
O129 O 0.84457 0.70425 0.40325 0.0
O130 O 0.83717 0.71614 0.37332 0.0
O131 O 0.81964 0.62132 0.42434 0.0
O132 O 0.80611 0.63642 0.37198 0.0
O133 O 0.81781 0.68566 0.36128 0.0
O134 O 0.80193 0.74252 0.39023 0.0
O135 O 0.75018 0.64915 0.3803 0.0
O136 O 0.77236 0.62324 0.39815 0.0
O137 O 0.7818 0.73869 0.3626 0.0
O138 O 0.77692 0.69307 0.40439 0.0
O139 O 0.79429 0.66114 0.42051 0.0
C140 C 0.85468 0.72401 0.38873 0.0
C141 C 0.85254 0.59653 0.42323 0.0
C142 C 0.87662 0.56146 0.42506 0.0
C143 C 0.89661 0.5811 0.43984 0.0
C144 C 0.87306 0.61567 0.43785 0.0
C145 C 0.89492 0.60798 0.44604 0.0
C146 C 0.85453 0.56953 0.41683 0.0
C147 C 0.80783 0.65527 0.35796 0.0
C148 C 0.82847 0.60379 0.41472 0.0
C149 C 0.95472 0.73123 0.41626 0.0
C150 C 0.95815 0.72526 0.39722 0.0
C151 C 0.74826 0.62434 0.38972 0.0
C152 C 0.82395 0.78984 0.3715 0.0
C153 C 0.84807 0.8485 0.36874 0.0
C154 C 0.87495 0.84987 0.35959 0.0
C155 C 0.85077 0.79191 0.36201 0.0
C156 C 0.82272 0.81829 0.37499 0.0
C157 C 0.8763 0.82177 0.35635 0.0
C158 C 0.78004 0.67901 0.41975 0.0
C159 C 0.79664 0.75786 0.37672 0.0
H160 H 0.91327 0.57546 0.44693 0.0
H161 H 0.87205 0.63639 0.44313 0.0
H162 H 0.91044 0.62275 0.45742 0.0
H163 H 0.83897 0.555 0.40538 0.0
H164 H 0.89494 0.87278 0.35487 0.0
H165 H 0.85172 0.77035 0.35868 0.0
H166 H 0.80174 0.8168 0.38194 0.0
H167 H 0.89698 0.82309 0.34914 0.0
Tb168 Tb 0.93622 0.24084 0.13118 0.0
C169 C 0.81421 0.1258 0.1009 0.0
N170 N 0.83212 0.15564 0.09311 0.0
C171 C 0.83151 0.13186 0.06313 0.0
C172 C 0.80542 0.09767 0.09024 0.0
C173 C 0.83991 0.15909 0.07434 0.0
C174 C 0.81446 0.10102 0.07115 0.0
C175 C 0.78747 0.0932 0.12849 0.0
C176 C 0.80546 0.12372 0.11978 0.0
C177 C 0.77945 0.06506 0.11811 0.0
C178 C 0.78829 0.06728 0.09901 0.0
Tb179 Tb 0.84393 0.19832 0.1124 0.0
N180 N 0.81375 0.15153 0.12939 0.0
C181 C 0.7774 0.09183 0.14722 0.0
C182 C 0.80133 0.14994 0.14708 0.0
C183 C 0.78384 0.12029 0.15642 0.0
H184 H 0.85266 0.18281 0.068 0.0
H185 H 0.77476 0.11936 0.17059 0.0
H186 H 0.93109 0.23649 0.17854 0.0
H187 H 1.00804 0.34279 0.08585 0.0
H188 H 0.80379 0.17117 0.15399 0.0
H189 H 0.76358 0.06888 0.15443 0.0
H190 H 0.97631 0.28475 0.09419 0.0
H191 H 0.83815 0.13466 0.04832 0.0
H192 H 0.76592 0.04144 0.12463 0.0
H193 H 0.78166 0.04537 0.09113 0.0
H194 H 0.93969 0.27361 0.20492 0.0
H195 H 0.8082 0.07999 0.06247 0.0
H196 H 0.01693 0.38432 0.10981 0.0
N197 N 0.94602 0.27287 0.15732 0.0
C198 C 0.96145 0.3052 0.15393 0.0
C199 C 0.94545 0.28279 0.1906 0.0
C200 C 0.96826 0.32758 0.16869 0.0
C201 C 0.93984 0.26166 0.17551 0.0
C202 C 0.95919 0.31587 0.18714 0.0
N203 N 0.96612 0.29358 0.12214 0.0
C204 C 0.97963 0.30275 0.10456 0.0
C205 C 0.99045 0.34927 0.13178 0.0
C206 C 0.97244 0.31598 0.1358 0.0
C207 C 1.00286 0.35893 0.11347 0.0
C208 C 0.99784 0.33556 0.09989 0.0
H209 H 0.96392 0.33224 0.19888 0.0
H210 H 0.99012 0.37843 0.17576 0.0
H211 H 1.00956 0.39742 0.14341 0.0
O212 O 0.9671 0.22637 0.11868 0.0
O213 O 0.91747 0.27063 0.11829 0.0
O214 O 0.86402 0.24469 0.12698 0.0
O215 O 0.97698 0.24717 0.14641 0.0
O216 O 0.92717 0.22604 0.1015 0.0
O217 O 0.88191 0.22839 0.0913 0.0
O218 O 0.79395 0.18226 0.11224 0.0
O219 O 0.87397 0.17542 0.10951 0.0
O220 O 0.90356 0.18933 0.13671 0.0
O221 O 0.82544 0.21636 0.09162 0.0
O222 O 0.85225 0.21475 0.14233 0.0
O223 O 0.89732 0.21157 0.15139 0.0
C224 C 0.89073 0.27111 0.12228 0.0
C225 C 0.02173 0.25339 0.12841 0.0
C226 C 0.07166 0.25227 0.12232 0.0
C227 C 0.08753 0.28556 0.11841 0.0
C228 C 0.03827 0.28679 0.12502 0.0
C229 C 0.07095 0.3027 0.11991 0.0
C230 C 0.03865 0.2363 0.12731 0.0
C231 C 0.91091 0.23156 0.08838 0.0
C232 C 0.98689 0.23572 0.13294 0.0
C233 C 0.98491 0.36086 0.16464 0.0
C234 C 0.99605 0.37169 0.14623 0.0
C235 C 0.88652 0.16783 0.12372 0.0
C236 C 0.77922 0.21979 0.10136 0.0
C237 C 0.72882 0.22054 0.10759 0.0
C238 C 0.74656 0.25454 0.10662 0.0
C239 C 0.79611 0.25369 0.10047 0.0
C240 C 0.74552 0.20333 0.10487 0.0
C241 C 0.77984 0.27085 0.10312 0.0
C242 C 0.8707 0.2123 0.15545 0.0
C243 C 0.79617 0.20121 0.0985 0.0
H244 H 0.11295 0.29844 0.11462 0.0
H245 H 0.0261 0.30061 0.12639 0.0
H246 H 0.08352 0.32845 0.11719 0.0
H247 H 0.02607 0.21053 0.13014 0.0
H248 H 0.73465 0.26865 0.10822 0.0
H249 H 0.82187 0.26698 0.09764 0.0
H250 H 0.73245 0.17717 0.10566 0.0
H251 H 0.79305 0.29696 0.10232 0.0
Tb252 Tb 0.37299 0.17489 0.39814 0.0
C253 C 0.36287 0.06296 0.35216 0.0
N254 N 0.34387 0.07654 0.35039 0.0
C255 C 0.35076 0.07858 0.31667 0.0
C256 C 0.378 0.05821 0.33633 0.0
C257 C 0.33586 0.08221 0.33282 0.0
C258 C 0.37251 0.06719 0.31847 0.0
C259 C 0.38238 0.03501 0.3721 0.0
C260 C 0.36493 0.05136 0.36971 0.0
C261 C 0.39908 0.03183 0.3566 0.0
C262 C 0.39691 0.04344 0.33874 0.0
Tb263 Tb 0.32341 0.08393 0.3781 0.0
N264 N 0.34876 0.05523 0.38438 0.0
C265 C 0.38174 0.02166 0.38985 0.0
C266 C 0.34615 0.04041 0.40135 0.0
C267 C 0.36309 0.0239 0.40444 0.0
H268 H 0.31785 0.08943 0.33117 0.0
H269 H 0.36178 0.01295 0.41805 0.0
H270 H 0.35184 0.16585 0.44306 0.0
H271 H 0.35964 0.24498 0.34182 0.0
H272 H 0.33171 0.04214 0.4126 0.0
H273 H 0.39482 0.00887 0.39227 0.0
H274 H 0.38346 0.21576 0.35696 0.0
H275 H 0.34513 0.08415 0.30284 0.0
H276 H 0.41297 0.01967 0.35815 0.0
H277 H 0.40906 0.03991 0.32678 0.0
H278 H 0.31986 0.18054 0.4642 0.0
H279 H 0.38372 0.06401 0.30593 0.0
H280 H 0.32145 0.25603 0.3595 0.0
N281 N 0.3435 0.18661 0.41864 0.0
C282 C 0.33111 0.20462 0.41163 0.0
C283 C 0.32262 0.18723 0.4494 0.0
C284 C 0.31275 0.2136 0.42315 0.0
C285 C 0.3405 0.17872 0.43738 0.0
C286 C 0.30844 0.2045 0.44223 0.0
N287 N 0.35538 0.20535 0.3823 0.0
C288 C 0.36512 0.21806 0.36456 0.0
C289 C 0.32351 0.23175 0.38486 0.0
C290 C 0.33649 0.21353 0.39273 0.0
C291 C 0.33098 0.24204 0.36609 0.0
C292 C 0.35237 0.23569 0.35603 0.0
H293 H 0.29446 0.21089 0.45156 0.0
H294 H 0.28453 0.23777 0.42378 0.0
H295 H 0.29389 0.25361 0.39024 0.0
O296 O 0.40597 0.22487 0.39954 0.0
O297 O 0.32026 0.1443 0.40211 0.0
O298 O 0.30353 0.11622 0.37446 0.0
O299 O 0.41139 0.19207 0.41774 0.0
O300 O 0.38 0.16786 0.36778 0.0
O301 O 0.33113 0.12359 0.35908 0.0
O302 O 0.27878 0.05189 0.39109 0.0
O303 O 0.37242 0.10294 0.39051 0.0
O304 O 0.39931 0.15631 0.38209 0.0
O305 O 0.28993 0.04204 0.36347 0.0
O306 O 0.31873 0.09028 0.40832 0.0
O307 O 0.3657 0.13635 0.4186 0.0
C308 C 0.29914 0.13196 0.38831 0.0
C309 C 0.45931 0.23887 0.40696 0.0
C310 C 0.50907 0.2895 0.39971 0.0
C311 C 0.52428 0.27166 0.3951 0.0
C312 C 0.47526 0.22165 0.4026 0.0
C313 C 0.50753 0.23801 0.39671 0.0
C314 C 0.47654 0.2729 0.40576 0.0
C315 C 0.35863 0.14971 0.35478 0.0
C316 C 0.42445 0.22179 0.41178 0.0
C317 C 0.29908 0.231 0.41523 0.0
C318 C 0.3043 0.23989 0.3961 0.0
C319 C 0.39921 0.12934 0.38561 0.0
C320 C 0.23611 0.0286 0.36911 0.0
C321 C 0.1773 0.99513 0.3662 0.0
C322 C 0.1772 0.0192 0.35479 0.0
C323 C 0.23531 0.05209 0.35755 0.0
C324 C 0.20697 1.00019 0.37358 0.0
C325 C 0.20599 0.04748 0.35058 0.0
C326 C 0.34022 0.10715 0.42147 0.0
C327 C 0.26746 0.0338 0.37615 0.0
H328 H 0.54932 0.28384 0.39053 0.0
H329 H 0.46272 0.19558 0.40363 0.0
H330 H 0.51961 0.22455 0.39333 0.0
H331 H 0.46443 0.2864 0.4091 0.0
H332 H 0.15473 0.01615 0.34914 0.0
H333 H 0.25741 0.07389 0.35374 0.0
H334 H 0.20748 0.98184 0.38234 0.0
H335 H 0.20561 0.0658 0.34175 0.0
Tb336 Tb 0.77977 0.69944 0.13463 0.0
C337 C 0.88683 0.68162 0.09937 0.0
N338 N 0.85641 0.67125 0.0929 0.0
C339 C 0.8773 0.69123 0.06191 0.0
C340 C 0.91396 0.6983 0.08745 0.0
C341 C 0.85116 0.67512 0.07435 0.0
C342 C 0.90886 0.70307 0.06851 0.0
C343 C 0.92188 0.68731 0.1256 0.0
C344 C 0.89063 0.67623 0.11819 0.0
C345 C 0.94911 0.70457 0.11392 0.0
C346 C 0.94516 0.70995 0.09487 0.0
Tb347 Tb 0.81539 0.64433 0.11401 0.0
N348 N 0.86366 0.65953 0.12907 0.0
C349 C 0.9248 0.68014 0.14441 0.0
C350 C 0.86646 0.65028 0.14696 0.0
C351 C 0.89694 0.66109 0.15503 0.0
H352 H 0.82684 0.66562 0.06908 0.0
H353 H 0.8989 0.65414 0.16932 0.0
H354 H 0.79233 0.70496 0.18149 0.0
H355 H 0.67076 0.66933 0.09617 0.0
H356 H 0.84549 0.63369 0.15502 0.0
H357 H 0.94837 0.68823 0.15065 0.0
H358 H 0.73011 0.69513 0.1009 0.0
H359 H 0.87309 0.69447 0.04725 0.0
H360 H 0.97331 0.71346 0.11941 0.0
H361 H 0.96635 0.7231 0.08599 0.0
H362 H 0.75988 0.67971 0.21014 0.0
H363 H 0.92906 0.71575 0.05888 0.0
H364 H 0.63333 0.63837 0.1223 0.0
N365 N 0.75235 0.68085 0.16266 0.0
C366 C 0.71956 0.66392 0.16126 0.0
C367 C 0.74824 0.67461 0.19643 0.0
C368 C 0.69981 0.65017 0.17732 0.0
C369 C 0.76666 0.68832 0.18009 0.0
C370 C 0.71469 0.65484 0.195 0.0
N371 N 0.72575 0.67764 0.129 0.0
C372 C 0.71377 0.68157 0.11227 0.0
C373 C 0.67189 0.64777 0.14193 0.0
C374 C 0.70573 0.6628 0.14389 0.0
C375 C 0.65923 0.64957 0.12439 0.0
C376 C 0.68029 0.66705 0.10961 0.0
H377 H 0.70042 0.64462 0.2077 0.0
H378 H 0.65035 0.62246 0.18745 0.0
H379 H 0.62589 0.62032 0.15641 0.0
O380 O 0.79371 0.74395 0.12116 0.0
O381 O 0.74607 0.65112 0.1224 0.0
O382 O 0.7704 0.6219 0.13011 0.0
O383 O 0.77534 0.73536 0.14938 0.0
O384 O 0.79146 0.7027 0.10454 0.0
O385 O 0.78484 0.65355 0.094 0.0
O386 O 0.82384 0.60523 0.11615 0.0
O387 O 0.84139 0.6972 0.11041 0.0
O388 O 0.83159 0.71607 0.13792 0.0
O389 O 0.79524 0.60738 0.09343 0.0
O390 O 0.80134 0.63869 0.14433 0.0
O391 O 0.81008 0.68898 0.15346 0.0
C392 C 0.74442 0.62334 0.12606 0.0
C393 C 0.8158 0.78833 0.14207 0.0
C394 C 0.84036 0.84696 0.14531 0.0
C395 C 0.86666 0.84775 0.1548 0.0
C396 C 0.84218 0.7898 0.15174 0.0
C397 C 0.86757 0.81939 0.1579 0.0
C398 C 0.81506 0.81704 0.13871 0.0
C399 C 0.78322 0.68029 0.09142 0.0
C400 C 0.78873 0.75674 0.13609 0.0
C401 C 0.66595 0.63353 0.17531 0.0
C402 C 0.65201 0.63236 0.15764 0.0
C403 C 0.85125 0.71858 0.12411 0.0
C404 C 0.82538 0.58035 0.08769 0.0
C405 C 0.84766 0.54446 0.08201 0.0
C406 C 0.8564 0.55736 0.06363 0.0
C407 C 0.83428 0.5926 0.06927 0.0
C408 C 0.83213 0.55628 0.09397 0.0
C409 C 0.8498 0.58122 0.05739 0.0
C410 C 0.80668 0.66054 0.15747 0.0
C411 C 0.80873 0.59185 0.10058 0.0
H412 H 0.88661 0.87043 0.15982 0.0
H413 H 0.84297 0.76803 0.15476 0.0
H414 H 0.88789 0.82029 0.16528 0.0
H415 H 0.79454 0.81599 0.13146 0.0
H416 H 0.86778 0.54858 0.05387 0.0
H417 H 0.82908 0.61074 0.06397 0.0
H418 H 0.82544 0.54698 0.10823 0.0
H419 H 0.85649 0.59073 0.04318 0.0
Tb420 Tb 0.84776 0.1998 0.39938 0.0
C421 C 0.96383 0.30325 0.35441 0.0
N422 N 0.94742 0.27073 0.35169 0.0
C423 C 0.94478 0.27882 0.31835 0.0
C424 C 0.9702 0.32486 0.3393 0.0
C425 C 0.93974 0.25846 0.33376 0.0
C426 C 0.95955 0.31216 0.32118 0.0
C427 C 0.99561 0.34834 0.37544 0.0
C428 C 0.97634 0.31489 0.37217 0.0
C429 C 1.0008 0.37007 0.36066 0.0
C430 C 0.98804 0.35835 0.34263 0.0
Tb431 Tb 0.93879 0.24005 0.37829 0.0
N432 N 0.97038 0.29316 0.38617 0.0
C433 C 1.00965 0.35881 0.39332 0.0
C434 C 0.98532 0.30304 0.40333 0.0
C435 C 1.00486 0.33602 0.40724 0.0
H436 H 0.93026 0.23304 0.33118 0.0
H437 H 0.01626 0.34384 0.42094 0.0
H438 H 0.85861 0.18578 0.44365 0.0
H439 H 0.77449 0.11908 0.34286 0.0
H440 H 0.98211 0.28546 0.41394 0.0
H441 H 0.02475 0.38433 0.39639 0.0
H442 H 0.80519 0.17148 0.35866 0.0
H443 H 0.93781 0.26882 0.30426 0.0
H444 H 0.01525 0.39592 0.36291 0.0
H445 H 0.99293 0.37536 0.33123 0.0
H446 H 0.84432 0.13825 0.46384 0.0
H447 H 0.96388 0.32793 0.30918 0.0
H448 H 0.76332 0.069 0.35946 0.0
N449 N 0.83636 0.15773 0.41906 0.0
C450 C 0.81762 0.12765 0.41174 0.0
C451 C 0.8369 0.13495 0.44916 0.0
C452 C 0.80894 0.09985 0.4227 0.0
C453 C 0.84516 0.16183 0.43767 0.0
C454 C 0.81897 0.10383 0.44161 0.0
N455 N 0.81608 0.15247 0.38315 0.0
C456 C 0.80275 0.1504 0.3657 0.0
C457 C 0.78895 0.09415 0.38482 0.0
C458 C 0.80787 0.12495 0.39304 0.0
C459 C 0.77789 0.0922 0.3663 0.0
C460 C 0.78431 0.12042 0.35684 0.0
H461 H 0.81281 0.08308 0.45051 0.0
H462 H 0.78429 0.04749 0.42251 0.0
H463 H 0.76676 0.04247 0.38934 0.0
O464 O 0.79798 0.18452 0.40059 0.0
O465 O 0.87712 0.17606 0.40173 0.0
O466 O 0.9049 0.18848 0.37383 0.0
O467 O 0.83094 0.21905 0.4205 0.0
O468 O 0.85444 0.2152 0.36927 0.0
O469 O 0.89813 0.21027 0.3593 0.0
O470 O 0.97018 0.22587 0.39037 0.0
O471 O 0.92195 0.27142 0.39139 0.0
O472 O 0.86776 0.2458 0.38439 0.0
O473 O 0.9777 0.24393 0.36204 0.0
O474 O 0.9313 0.22663 0.40818 0.0
O475 O 0.88726 0.2301 0.41956 0.0
C476 C 0.88878 0.16771 0.38734 0.0
C477 C 0.78454 0.22292 0.41176 0.0
C478 C 0.7345 0.22437 0.40578 0.0
C479 C 0.75255 0.25834 0.40668 0.0
C480 C 0.80174 0.25682 0.41274 0.0
C481 C 0.78581 0.27433 0.41016 0.0
C482 C 0.75079 0.20679 0.40845 0.0
C483 C 0.87183 0.21184 0.35576 0.0
C484 C 0.80127 0.20403 0.41426 0.0
C485 C 0.79088 0.06916 0.41441 0.0
C486 C 0.78101 0.06632 0.39549 0.0
C487 C 0.89504 0.27215 0.38838 0.0
C488 C 0.02387 0.2511 0.37879 0.0
C489 C 0.0742 0.25006 0.38359 0.0
C490 C 0.09064 0.28373 0.38624 0.0
C491 C 0.04101 0.2848 0.38093 0.0
C492 C 0.04068 0.23384 0.37986 0.0
C493 C 0.07415 0.30094 0.38477 0.0
C494 C 0.91633 0.23309 0.42172 0.0
C495 C 0.98858 0.23346 0.3755 0.0
H496 H 0.74085 0.27264 0.40497 0.0
H497 H 0.82751 0.26986 0.41552 0.0
H498 H 0.7993 0.30046 0.41094 0.0
H499 H 0.73736 0.18062 0.40769 0.0
H500 H 0.11642 0.29681 0.38905 0.0
H501 H 0.02892 0.29869 0.37954 0.0
H502 H 0.02765 0.20782 0.378 0.0
H503 H 0.08716 0.32694 0.38651 0.0
Tb504 Tb 0.17875 0.36646 0.61395 0.0
C505 C 0.06548 0.35361 0.6632 0.0
N506 N 0.08202 0.33742 0.66488 0.0
C507 C 0.08662 0.34703 0.69839 0.0
C508 C 0.05996 0.36832 0.67896 0.0
C509 C 0.09075 0.33222 0.68237 0.0
C510 C 0.07167 0.36567 0.69663 0.0
C511 C 0.03215 0.3672 0.64375 0.0
C512 C 0.05185 0.35319 0.64589 0.0
C513 C 0.02786 0.38331 0.65915 0.0
C514 C 0.04184 0.38396 0.67672 0.0
Tb515 Tb 0.08934 0.31644 0.63739 0.0
N516 N 0.05682 0.33768 0.63131 0.0
C517 C 0.01665 0.36373 0.62637 0.0
C518 C 0.04044 0.33266 0.61465 0.0
C519 C 0.0204 0.34592 0.61186 0.0
H520 H 0.10074 0.31647 0.68407 0.0
H521 H 1.00787 0.34239 0.59855 0.0
H522 H 0.16526 0.33883 0.57023 0.0
H523 H 0.25314 0.35995 0.6701 0.0
H524 H 0.04299 0.31856 0.60355 0.0
H525 H 1.00116 0.37401 0.62417 0.0
H526 H 0.22275 0.3819 0.65421 0.0
H527 H 0.09451 0.34363 0.71211 0.0
H528 H 1.01312 0.3946 0.65777 0.0
H529 H 0.03758 0.39567 0.68863 0.0
H530 H 0.17697 0.30298 0.55059 0.0
H531 H 0.06807 0.37672 0.7091 0.0
H532 H 0.26241 0.31927 0.65403 0.0
N533 N 0.18842 0.334 0.59467 0.0
C534 C 0.20685 0.32233 0.60204 0.0
C535 C 0.18529 0.30804 0.56509 0.0
C536 C 0.21398 0.30168 0.59143 0.0
C537 C 0.17854 0.32817 0.57625 0.0
C538 C 0.20279 0.29445 0.57276 0.0
N539 N 0.21042 0.35076 0.63017 0.0
C540 C 0.22449 0.36266 0.64738 0.0
C541 C 0.23618 0.31819 0.62882 0.0
C542 C 0.21762 0.33043 0.62052 0.0
C543 C 0.24809 0.32814 0.64713 0.0
C544 C 0.24273 0.35093 0.65629 0.0
H545 H 0.20775 0.27866 0.56413 0.0
H546 H 0.23712 0.2725 0.59199 0.0
H547 H 0.25662 0.28701 0.62473 0.0
O548 O 0.22856 0.40063 0.61198 0.0
O549 O 0.14819 0.31346 0.61225 0.0
O550 O 0.12411 0.29964 0.64118 0.0
O551 O 0.19508 0.40089 0.59197 0.0
O552 O 0.17387 0.37763 0.64387 0.0
O553 O 0.13202 0.32913 0.65498 0.0
O554 O 0.05876 0.27038 0.62562 0.0
O555 O 0.10448 0.36409 0.62399 0.0
O556 O 0.15962 0.39368 0.62852 0.0
O557 O 0.05109 0.28117 0.65388 0.0
O558 O 0.0939 0.31049 0.60706 0.0
O559 O 0.13815 0.35681 0.59456 0.0
C560 C 0.13855 0.29426 0.62699 0.0
C561 C 0.24133 0.45172 0.59987 0.0
C562 C 0.29106 0.50387 0.60505 0.0
C563 C 0.27253 0.51929 0.6038 0.0
C564 C 0.22367 0.46796 0.59864 0.0
C565 C 0.23922 0.50147 0.60062 0.0
C566 C 0.27516 0.46989 0.60292 0.0
C567 C 0.15707 0.35806 0.65791 0.0
C568 C 0.22488 0.416 0.59799 0.0
C569 C 0.2317 0.28875 0.59983 0.0
C570 C 0.24271 0.29693 0.61849 0.0
C571 C 0.13165 0.39203 0.62561 0.0
C572 C 1.00512 0.24156 0.63726 0.0
C573 C 0.95528 0.19009 0.63175 0.0
C574 C 0.93833 0.20698 0.62987 0.0
C575 C 0.98742 0.25771 0.63592 0.0
C576 C 0.98882 0.2076 0.63544 0.0
C577 C 0.95429 0.24052 0.63209 0.0
C578 C 0.1086 0.33118 0.59313 0.0
C579 C 0.04044 0.2596 0.64053 0.0
H580 H 0.28388 0.54531 0.60505 0.0
H581 H 0.19781 0.45482 0.59615 0.0
H582 H 0.22536 0.51374 0.59963 0.0
H583 H 0.28894 0.45751 0.60394 0.0
H584 H 0.91253 0.19412 0.6271 0.0
H585 H 0.99906 0.28352 0.63797 0.0
H586 H 1.00223 0.19488 0.63673 0.0
H587 H 0.94087 0.25321 0.63096 0.0
Tb588 Tb 0.24908 0.93189 0.87555 0.0
C589 C 0.13461 0.81701 0.91179 0.0
N590 N 0.16542 0.83415 0.91839 0.0
C591 C 0.14569 0.83751 0.94903 0.0
C592 C 0.10802 0.81054 0.92343 0.0
C593 C 0.1713 0.84348 0.9369 0.0
C594 C 0.11393 0.82124 0.94223 0.0
C595 C 0.09833 0.7893 0.88567 0.0
C596 C 0.12995 0.80661 0.89313 0.0
C597 C 0.07176 0.78345 0.89707 0.0
C598 C 0.07658 0.7939 0.91593 0.0
Tb599 Tb 0.20526 0.84208 0.89766 0.0
N600 N 0.1563 0.81285 0.88249 0.0
C601 C 0.0943 0.77784 0.8671 0.0
C602 C 0.15205 0.79914 0.86495 0.0
C603 C 0.12123 0.78229 0.85683 0.0
H604 H 0.19572 0.85556 0.94233 0.0
H605 H 0.1182 0.77216 0.84277 0.0
H606 H 0.23493 0.92437 0.82893 0.0
H607 H 0.36177 1.00228 0.91275 0.0
H608 H 0.17194 0.80003 0.85721 0.0
H609 H 0.07044 0.76453 0.86082 0.0
H610 H 0.30221 0.97479 0.90861 0.0
H611 H 0.15044 0.84538 0.96362 0.0
H612 H 0.04734 0.77049 0.8915 0.0
H613 H 0.05584 0.78897 0.92459 0.0
H614 H 0.26511 0.92676 0.79999 0.0
H615 H 0.09415 0.81679 0.95163 0.0
H616 H 0.39649 1.00306 0.88641 0.0
N617 N 0.27486 0.93699 0.84731 0.0
C618 C 0.30737 0.94936 0.84839 0.0
C619 C 0.27723 0.93277 0.81356 0.0
C620 C 0.32593 0.9524 0.83219 0.0
C621 C 0.26006 0.93085 0.83005 0.0
C622 C 0.31021 0.94293 0.81468 0.0
N623 N 0.30362 0.95945 0.88055 0.0
C624 C 0.31734 0.97516 0.8971 0.0
C625 C 0.35628 0.97685 0.8672 0.0
C626 C 0.32238 0.96153 0.86556 0.0
C627 C 0.37048 0.99102 0.88455 0.0
C628 C 0.35096 0.99067 0.89946 0.0
H629 H 0.32355 0.94476 0.80188 0.0
H630 H 0.37432 0.96824 0.82163 0.0
H631 H 0.40092 0.98961 0.85235 0.0
O632 O 0.23736 0.96478 0.88821 0.0
O633 O 0.27837 0.91237 0.88832 0.0
O634 O 0.24998 0.85814 0.88169 0.0
O635 O 0.2584 0.97381 0.86061 0.0
O636 O 0.24013 0.92798 0.90605 0.0
O637 O 0.23854 0.88109 0.91725 0.0
O638 O 0.18595 0.79175 0.8996 0.0
O639 O 0.1859 0.87518 0.9008 0.0
O640 O 0.19667 0.90055 0.87233 0.0
O641 O 0.22453 0.82382 0.91785 0.0
O642 O 0.21887 0.84666 0.86731 0.0
O643 O 0.21591 0.89126 0.85742 0.0
C644 C 0.2775 0.88506 0.88423 0.0
C645 C 0.21881 0.98847 0.86599 0.0
C646 C 0.19442 0.02277 0.8629 0.0
C647 C 0.16999 0.99881 0.85153 0.0
C648 C 0.19421 0.96508 0.85453 0.0
C649 C 0.16987 0.97019 0.84746 0.0
C650 C 0.21871 0.01725 0.87033 0.0
C651 C 0.24376 0.91096 0.91955 0.0
C652 C 0.24452 0.98269 0.87317 0.0
C653 C 0.35965 0.96604 0.83388 0.0
C654 C 0.37481 0.97828 0.85136 0.0
C655 C 0.1769 0.88641 0.88656 0.0
C656 C 0.22393 0.77612 0.90727 0.0
C657 C 0.2217 0.7248 0.90022 0.0
C658 C 0.25454 0.74204 0.89508 0.0
C659 C 0.25686 0.7927 0.90231 0.0
C660 C 0.20651 0.74202 0.90647 0.0
C661 C 0.27198 0.7757 0.89629 0.0
C662 C 0.21672 0.86464 0.8538 0.0
C663 C 0.20703 0.79411 0.91198 0.0
H664 H 0.15079 1.00218 0.84584 0.0
H665 H 0.19393 0.94293 0.85088 0.0
H666 H 0.15095 0.95196 0.83869 0.0
H667 H 0.23776 0.03548 0.87906 0.0
H668 H 0.26683 0.72938 0.89032 0.0
H669 H 0.27084 0.81881 0.90289 0.0
H670 H 0.18104 0.72899 0.91019 0.0
H671 H 0.29729 0.78868 0.89242 0.0
Tb672 Tb 0.65482 0.81839 0.61196 0.0
C673 C 0.66056 0.71398 0.65714 0.0
N674 N 0.67947 0.74645 0.65949 0.0
C675 C 0.66962 0.74016 0.69298 0.0
C676 C 0.64403 0.69348 0.6725 0.0
C677 C 0.68597 0.75932 0.67731 0.0
C678 C 0.648 0.70718 0.69051 0.0
C679 C 0.64229 0.66737 0.63658 0.0
C680 C 0.65978 0.70101 0.63951 0.0
C681 C 0.62437 0.64692 0.65159 0.0
C682 C 0.62521 0.65996 0.66952 0.0
Tb683 Tb 0.70249 0.7753 0.63239 0.0
N684 N 0.67696 0.7216 0.62528 0.0
C685 C 0.644 0.65537 0.61878 0.0
C686 C 0.68046 0.71005 0.60827 0.0
C687 C 0.66359 0.67679 0.60466 0.0
H688 H 0.70409 0.78429 0.67959 0.0
H689 H 0.6657 0.66769 0.59102 0.0
H690 H 0.67792 0.83062 0.56737 0.0
H691 H 0.66465 0.90154 0.66762 0.0
H692 H 0.69575 0.72659 0.59743 0.0
H693 H 0.63093 0.62963 0.61594 0.0
H694 H 0.64184 0.84856 0.65239 0.0
H695 H 0.67412 0.75074 0.70698 0.0
H696 H 0.61045 0.62097 0.6496 0.0
H697 H 0.61204 0.64383 0.6811 0.0
H698 H 0.7108 0.87729 0.54647 0.0
H699 H 0.6357 0.6923 0.7027 0.0
H700 H 0.70384 0.95082 0.65041 0.0
N701 N 0.68518 0.85966 0.59172 0.0
C702 C 0.69726 0.89002 0.59871 0.0
C703 C 0.70739 0.88119 0.56118 0.0
C704 C 0.71612 0.91735 0.58734 0.0
C705 C 0.68899 0.85481 0.57307 0.0
C706 C 0.72128 0.9126 0.56838 0.0
N707 N 0.67141 0.86641 0.62762 0.0
C708 C 0.66059 0.86928 0.64507 0.0
C709 C 0.70335 0.92463 0.62529 0.0
C710 C 0.6909 0.89349 0.61743 0.0
C711 C 0.69475 0.92736 0.64383 0.0
C712 C 0.67277 0.89958 0.65362 0.0
H713 H 0.73567 0.93297 0.55917 0.0
H714 H 0.74431 0.96969 0.58685 0.0
H715 H 0.73317 0.97608 0.62011 0.0
O716 O 0.62106 0.8345 0.61026 0.0
O717 O 0.7076 0.84021 0.60849 0.0
O718 O 0.72382 0.82771 0.63601 0.0
O719 O 0.61753 0.79733 0.59173 0.0
O720 O 0.64787 0.80499 0.64239 0.0
O721 O 0.69588 0.80788 0.65155 0.0
O722 O 0.74718 0.78614 0.62008 0.0
O723 O 0.65349 0.74613 0.61974 0.0
O724 O 0.6283 0.77412 0.6284 0.0
O725 O 0.73453 0.76581 0.64781 0.0
O726 O 0.70858 0.78758 0.60235 0.0
O727 O 0.66186 0.78663 0.59175 0.0
C728 C 0.72839 0.84835 0.62244 0.0
C729 C 0.56831 0.79471 0.60145 0.0
C730 C 0.5176 0.79429 0.60838 0.0
C731 C 0.50145 0.76026 0.60881 0.0
C732 C 0.55148 0.76077 0.60195 0.0
C733 C 0.5183 0.74375 0.60565 0.0
C734 C 0.5512 0.81131 0.60464 0.0
C735 C 0.66932 0.80878 0.65547 0.0
C736 C 0.60356 0.81322 0.59762 0.0
C737 C 0.72937 0.94837 0.59527 0.0
C738 C 0.72314 0.95199 0.61424 0.0
C739 C 0.62707 0.7468 0.62433 0.0
C740 C 0.78894 0.80493 0.64268 0.0
C741 C 0.84762 0.82942 0.64599 0.0
C742 C 0.84783 0.85354 0.65754 0.0
C743 C 0.78987 0.82921 0.65435 0.0
C744 C 0.81797 0.80526 0.63835 0.0
C745 C 0.81917 0.85345 0.6616 0.0
C746 C 0.68717 0.78253 0.58908 0.0
C747 C 0.75756 0.77924 0.63538 0.0
H748 H 0.4756 0.74627 0.61126 0.0
H749 H 0.56388 0.74732 0.59945 0.0
H750 H 0.50551 0.71758 0.60594 0.0
H751 H 0.56422 0.83751 0.60441 0.0
H752 H 0.8703 0.8726 0.6634 0.0
H753 H 0.76786 0.82925 0.65803 0.0
H754 H 0.81738 0.78645 0.62948 0.0
H755 H 0.81964 0.87212 0.67052 0.0
Tb756 Tb 0.0952 0.31668 0.87393 0.0
C757 C 0.20996 0.32046 0.91301 0.0
N758 N 0.19256 0.3332 0.92053 0.0
C759 C 0.19047 0.30857 0.95044 0.0
C760 C 0.21784 0.30065 0.92391 0.0
C761 C 0.18299 0.32785 0.93904 0.0
C762 C 0.2079 0.29484 0.94284 0.0
C763 C 0.23636 0.31304 0.88572 0.0
C764 C 0.21882 0.32642 0.89411 0.0
C765 C 0.24387 0.29289 0.89642 0.0
C766 C 0.23471 0.28678 0.91549 0.0
Tb767 Tb 0.18243 0.36484 0.90089 0.0
N768 N 0.21066 0.34565 0.88406 0.0
C769 C 0.24646 0.32088 0.86694 0.0
C770 C 0.22359 0.35599 0.86643 0.0
C771 C 0.24063 0.343 0.8574 0.0
H772 H 0.16985 0.33868 0.9451 0.0
H773 H 0.25003 0.35074 0.84324 0.0
H774 H 0.10903 0.2919 0.83325 0.0
H775 H 0.02201 0.37044 0.89159 0.0
H776 H 0.22231 0.37527 0.85942 0.0
H777 H 0.25995 0.31109 0.85997 0.0
H778 H 0.05265 0.34238 0.89841 0.0
H779 H 0.18281 0.30432 0.96509 0.0
H780 H 0.25706 0.28218 0.89015 0.0
H781 H 0.24072 0.27124 0.92357 0.0
H782 H 0.10409 0.30086 0.79917 0.0
H783 H 0.21345 0.27972 0.95168 0.0
H784 H 0.01706 0.38483 0.85861 0.0
N785 N 0.08848 0.32015 0.84234 0.0
C786 C 0.0738 0.33703 0.83724 0.0
C787 C 0.09553 0.31124 0.80974 0.0
C788 C 0.06998 0.34238 0.81807 0.0
C789 C 0.09839 0.3063 0.829 0.0
C790 C 0.08163 0.32972 0.80425 0.0
N791 N 0.06487 0.34108 0.86957 0.0
C792 C 0.05012 0.34812 0.88395 0.0
C793 C 0.04421 0.36372 0.84679 0.0
C794 C 0.06123 0.34759 0.85135 0.0
C795 C 0.03033 0.37237 0.86151 0.0
C796 C 0.033 0.36421 0.88015 0.0
H797 H 0.07937 0.33345 0.78933 0.0
H798 H 0.05107 0.36412 0.79873 0.0
H799 H 0.02839 0.38273 0.8239 0.0
O800 O 0.07024 0.27493 0.89068 0.0
O801 O 0.11283 0.3686 0.87885 0.0
O802 O 0.1561 0.39127 0.90046 0.0
O803 O 0.05381 0.27632 0.86258 0.0
O804 O 0.09356 0.32251 0.90444 0.0
O805 O 0.14246 0.35405 0.92084 0.0
O806 O 0.22858 0.40544 0.89597 0.0
O807 O 0.15041 0.31164 0.90222 0.0
O808 O 0.13031 0.30022 0.87237 0.0
O809 O 0.20892 0.3944 0.92392 0.0
O810 O 0.17827 0.38005 0.87181 0.0
O811 O 0.14122 0.33086 0.86062 0.0
C812 C 0.13318 0.3918 0.89031 0.0
C813 C 0.01425 0.24248 0.88489 0.0
C814 C 0.9639 0.19202 0.89137 0.0
C815 C 0.95135 0.21002 0.89997 0.0
C816 C 1.00105 0.25982 0.8934 0.0
C817 C 0.96979 0.24367 0.90087 0.0
C818 C 0.99546 0.20853 0.88371 0.0
C819 C 0.11039 0.33567 0.92 0.0
C820 C 0.04797 0.25936 0.87798 0.0
C821 C 0.05408 0.35952 0.81339 0.0
C822 C 0.04116 0.37011 0.82772 0.0
C823 C 0.14074 0.29233 0.88746 0.0
C824 C 0.26643 0.41991 0.92087 0.0
C825 C 0.32577 0.45488 0.92111 0.0
C826 C 0.32735 0.43449 0.93494 0.0
C827 C 0.2691 0.40004 0.93452 0.0
C828 C 0.2949 0.44728 0.91416 0.0
C829 C 0.29933 0.40731 0.94144 0.0
C830 C 0.16184 0.36127 0.85756 0.0
C831 C 0.23427 0.41281 0.91374 0.0
H832 H 0.92712 0.19804 0.90584 0.0
H833 H 0.01505 0.28576 0.89452 0.0
H834 H 0.95987 0.25729 0.9075 0.0
H835 H 1.00564 0.19497 0.87727 0.0
H836 H 0.35026 0.43975 0.94108 0.0
H837 H 0.24786 0.37905 0.94003 0.0
H838 H 0.29291 0.46242 0.90346 0.0
H839 H 0.30105 0.39196 0.95209 0.0
Tb840 Tb 0.20041 0.84059 0.61021 0.0
C841 C 0.28593 0.948 0.67295 0.0
N842 N 0.25398 0.93356 0.66872 0.0
C843 C 0.24065 0.92584 0.70173 0.0
C844 C 0.29663 0.95111 0.69179 0.0
C845 C 0.23135 0.92379 0.68277 0.0
C846 C 0.27341 0.93908 0.70625 0.0
C847 C 0.34141 0.97892 0.66202 0.0
C848 C 0.30794 0.96158 0.65834 0.0
C849 C 0.35241 0.98095 0.68069 0.0
C850 C 0.33004 0.967 0.69556 0.0
Tb851 Tb 0.24147 0.92854 0.63735 0.0
N852 N 0.29631 0.95892 0.64054 0.0
C853 C 0.36264 0.9943 0.64689 0.0
C854 C 0.31664 0.9756 0.62591 0.0
C855 C 0.35016 0.99302 0.62881 0.0
H856 H 0.20606 0.91393 0.67929 0.0
H857 H 0.36632 1.00545 0.61711 0.0
H858 H 0.18969 0.8549 0.56583 0.0
H859 H 0.11532 0.77489 0.66678 0.0
H860 H 0.30699 0.97456 0.61194 0.0
H861 H 0.38858 1.00787 0.6491 0.0
H862 H 0.16843 0.80152 0.65149 0.0
H863 H 0.22259 0.91727 0.71283 0.0
H864 H 0.37808 0.99387 0.68383 0.0
H865 H 0.33881 0.96941 0.70993 0.0
H866 H 0.14372 0.84391 0.54507 0.0
H867 H 0.28057 0.9408 0.72094 0.0
H868 H 0.06698 0.76632 0.64909 0.0
N869 N 0.16004 0.83237 0.58991 0.0
C870 C 0.12948 0.81562 0.59694 0.0
C871 C 0.1394 0.83594 0.55965 0.0
C872 C 0.10252 0.80886 0.5856 0.0
C873 C 0.16541 0.84231 0.57148 0.0
C874 C 0.10782 0.81922 0.56674 0.0
N875 N 0.15215 0.81358 0.62632 0.0
C876 C 0.14842 0.8007 0.64403 0.0
C877 C 0.09406 0.78953 0.62369 0.0
C878 C 0.12543 0.80634 0.6158 0.0
C879 C 0.09063 0.77925 0.64249 0.0
C880 C 0.11789 0.78432 0.65257 0.0
H881 H 0.08775 0.81451 0.55757 0.0
H882 H 0.05033 0.78743 0.58507 0.0
H883 H 0.0429 0.77042 0.61841 0.0
O884 O 0.19223 0.7935 0.61489 0.0
O885 O 0.18133 0.8743 0.60841 0.0
O886 O 0.18964 0.89417 0.63829 0.0
O887 O 0.20419 0.81435 0.58723 0.0
O888 O 0.21868 0.84397 0.63946 0.0
O889 O 0.20856 0.88262 0.65041 0.0
O890 O 0.22856 0.95759 0.62136 0.0
O891 O 0.27614 0.91181 0.63103 0.0
O892 O 0.2527 0.86405 0.61295 0.0
O893 O 0.24345 0.96923 0.65028 0.0
O894 O 0.24699 0.92921 0.60668 0.0
O895 O 0.23191 0.88029 0.59078 0.0
C896 C 0.1717 0.88428 0.62302 0.0
C897 C 0.1708 0.75689 0.58935 0.0
C898 C 0.14633 0.6977 0.58819 0.0
C899 C 0.12503 0.69684 0.5741 0.0
C900 C 0.149 0.75504 0.57542 0.0
C901 C 0.1263 0.7252 0.56791 0.0
C902 C 0.16926 0.72812 0.59574 0.0
C903 C 0.2173 0.86119 0.65358 0.0
C904 C 0.19556 0.78845 0.59722 0.0
C905 C 0.07133 0.7926 0.59351 0.0
C906 C 0.06712 0.78305 0.61252 0.0
C907 C 0.27737 0.88868 0.62138 0.0
C908 C 0.20463 0.98198 0.6392 0.0
C909 C 0.18127 0.0173 0.63853 0.0
C910 C 0.1519 0.99169 0.64525 0.0
C911 C 0.17542 0.95709 0.64655 0.0
C912 C 0.20766 0.01233 0.63541 0.0
C913 C 0.14908 0.9618 0.64932 0.0
C914 C 0.24459 0.91222 0.59136 0.0
C915 C 0.23191 0.97638 0.63559 0.0
H916 H 0.10764 0.67427 0.56753 0.0
H917 H 0.1496 0.77658 0.57019 0.0
H918 H 0.10976 0.72406 0.55706 0.0
H919 H 0.18581 0.72956 0.60668 0.0
H920 H 0.13135 0.99507 0.64771 0.0
H921 H 0.17307 0.93412 0.65029 0.0
H922 H 0.23035 0.03195 0.63011 0.0
H923 H 0.12653 0.94231 0.65481 0.0
Tb924 Tb 0.7093 0.77949 0.87625 0.0
C925 C 0.69817 0.88735 0.91499 0.0
N926 N 0.68674 0.8565 0.92101 0.0
C927 C 0.70823 0.87566 0.95197 0.0
C928 C 0.71637 0.91379 0.92711 0.0
C929 C 0.69053 0.85021 0.93937 0.0
C930 C 0.72145 0.9076 0.94578 0.0
C931 C 0.70431 0.92394 0.88955 0.0
C932 C 0.69218 0.89224 0.89645 0.0
C933 C 0.72325 0.95045 0.90139 0.0
C934 C 0.72914 0.94538 0.92015 0.0
Tb935 Tb 0.65735 0.81686 0.89967 0.0
N936 N 0.67373 0.86594 0.8854 0.0
C937 C 0.69637 0.92806 0.87113 0.0
C938 C 0.66355 0.87004 0.86806 0.0
C939 C 0.67541 0.90098 0.86048 0.0
H940 H 0.67995 0.8256 0.94432 0.0
H941 H 0.66779 0.90394 0.84657 0.0
H942 H 0.71054 0.79292 0.82973 0.0
H943 H 0.68208 0.67013 0.91304 0.0
H944 H 0.64548 0.84981 0.86012 0.0
H945 H 0.70523 0.952 0.86529 0.0
H946 H 0.70648 0.72931 0.90894 0.0
H947 H 0.71161 0.87064 0.96646 0.0
H948 H 0.733 0.97496 0.89627 0.0
H949 H 0.74352 0.96605 0.92916 0.0
H950 H 0.68322 0.76122 0.80124 0.0
H951 H 0.73533 0.92725 0.95554 0.0
H952 H 0.65034 0.63313 0.88697 0.0
N953 N 0.68831 0.75255 0.84835 0.0
C954 C 0.6718 0.71978 0.84947 0.0
C955 C 0.67932 0.74924 0.81479 0.0
C956 C 0.65713 0.7004 0.83342 0.0
C957 C 0.69409 0.76728 0.83108 0.0
C958 C 0.6602 0.71565 0.81602 0.0
N959 N 0.6875 0.72541 0.88131 0.0
C960 C 0.69234 0.71322 0.89767 0.0
C961 C 0.65765 0.67189 0.86806 0.0
C962 C 0.67196 0.70567 0.86647 0.0
C963 C 0.66086 0.65899 0.88518 0.0
C964 C 0.67874 0.6798 0.89994 0.0
H965 H 0.64922 0.70167 0.80334 0.0
H966 H 0.62947 0.65122 0.82298 0.0
H967 H 0.63 0.62623 0.85336 0.0
O968 O 0.75356 0.78957 0.88885 0.0
O969 O 0.66067 0.74625 0.88837 0.0
O970 O 0.63224 0.77254 0.883 0.0
O971 O 0.74571 0.77994 0.85919 0.0
O972 O 0.71406 0.7896 0.9066 0.0
O973 O 0.66613 0.78456 0.91841 0.0
O974 O 0.62252 0.83161 0.90154 0.0
O975 O 0.71036 0.84048 0.9027 0.0
O976 O 0.72747 0.83163 0.87429 0.0
O977 O 0.62041 0.7953 0.92017 0.0
O978 O 0.64978 0.80467 0.86909 0.0
O979 O 0.69917 0.81176 0.85907 0.0
C980 C 0.63303 0.74587 0.88607 0.0
C981 C 0.78192 0.76659 0.87394 0.0
C982 C 0.83214 0.76446 0.87684 0.0
C983 C 0.81404 0.73084 0.87369 0.0
C984 C 0.76464 0.73313 0.8708 0.0
C985 C 0.78063 0.71541 0.8708 0.0
C986 C 0.81562 0.78214 0.87701 0.0
C987 C 0.69205 0.78115 0.92004 0.0
C988 C 0.76555 0.78587 0.87315 0.0
C989 C 0.64117 0.66655 0.8351 0.0
C990 C 0.64152 0.65231 0.8524 0.0
C991 C 0.73111 0.85069 0.88863 0.0
C992 C 0.57028 0.79182 0.91147 0.0
C993 C 0.51901 0.79023 0.90449 0.0
C994 C 0.50307 0.75627 0.90544 0.0
C995 C 0.55351 0.75791 0.91253 0.0
C996 C 0.55276 0.80791 0.90767 0.0
C997 C 0.52018 0.74035 0.90948 0.0
C998 C 0.67114 0.80983 0.85561 0.0
C999 C 0.60581 0.81069 0.91453 0.0
H1000 H 0.82575 0.71643 0.87303 0.0
H1001 H 0.73893 0.72075 0.86804 0.0
H1002 H 0.76714 0.68961 0.86824 0.0
H1003 H 0.82887 0.808 0.87948 0.0
H1004 H 0.47714 0.74193 0.90334 0.0
H1005 H 0.5661 0.74488 0.9157 0.0
H1006 H 0.56546 0.83408 0.90693 0.0
H1007 H 0.5075 0.71424 0.91031 0.0
C1008 C 0.10781 0.23626 0.10538 0.0
C1009 C 0.08992 0.23462 0.12158 0.0
C1010 C 0.12645 0.22108 0.10505 0.0
C1011 C 0.17312 0.19908 0.1354 0.0
H1012 H 0.16543 0.13906 0.09603 0.0
C1013 C 0.25128 0.13849 0.13797 0.0
C1014 C 0.26329 0.13382 0.12081 0.0
C1015 C 0.22747 0.14741 0.13806 0.0
C1016 C 0.16834 0.15613 0.107 0.0
H1017 H 0.07743 0.21588 0.15011 0.0
H1018 H 0.11092 0.19014 0.14974 0.0
H1019 H 0.12966 0.16195 0.09585 0.0
H1020 H 0.25799 0.1323 0.09038 0.0
H1021 H 0.21738 0.14905 0.09039 0.0
H1022 H 0.21276 0.195 0.14609 0.0
C1023 C 0.11008 0.20277 0.13723 0.0
C1024 C 0.14763 0.16904 0.10693 0.0
C1025 C 0.09084 0.21732 0.1374 0.0
C1026 C 0.24954 0.13628 0.1038 0.0
C1027 C 0.22594 0.14558 0.10387 0.0
C1028 C 0.19428 0.18677 0.13526 0.0
C1029 C 0.12816 0.20461 0.12107 0.0
C1030 C 0.14973 0.19051 0.12118 0.0
C1031 C 0.21511 0.15209 0.121 0.0
C1032 C 0.19213 0.16491 0.12113 0.0
H1033 H 0.10745 0.24942 0.09299 0.0
H1034 H 0.1403 0.223 0.09246 0.0
H1035 H 0.17557 0.21597 0.1464 0.0
H1036 H 0.2611 0.1364 0.15136 0.0
H1037 H 0.21911 0.15105 0.1516 0.0
C1038 C 0.12525 0.94853 0.35476 0.0
C1039 C 0.14627 0.9648 0.36986 0.0
C1040 C 0.09463 0.92186 0.35803 0.0
C1041 C 0.04282 0.8604 0.3939 0.0
H1042 H 0.97404 0.85496 0.36209 0.0
C1043 C 0.90478 0.7677 0.40463 0.0
C1044 C 0.88833 0.75152 0.38809 0.0
C1045 C 0.93675 0.7935 0.40367 0.0
C1046 C 0.99301 0.85604 0.37102 0.0
H1047 H 0.15211 0.96521 0.40025 0.0
H1048 H 0.0981 0.91873 0.40611 0.0
H1049 H 0.02888 0.89989 0.35818 0.0
H1050 H 0.89254 0.74944 0.35762 0.0
H1051 H 0.94767 0.79477 0.35592 0.0
H1052 H 1.00626 0.81643 0.40686 0.0
C1053 C 0.10549 0.92639 0.39166 0.0
C1054 C 0.02455 0.88174 0.36874 0.0
C1055 C 0.13642 0.95303 0.38833 0.0
C1056 C 0.90437 0.76168 0.37061 0.0
C1057 C 0.936 0.7876 0.36963 0.0
C1058 C 1.01103 0.83472 0.3963 0.0
C1059 C 0.08393 0.91086 0.37655 0.0
C1060 C 0.05006 0.88404 0.37989 0.0
C1061 C 0.95255 0.8039 0.38611 0.0
C1062 C 0.98592 0.83205 0.38466 0.0
H1063 H 0.1324 0.95671 0.34034 0.0
H1064 H 0.0792 0.91001 0.34597 0.0
H1065 H 0.0618 0.86124 0.40268 0.0
H1066 H 0.89291 0.76044 0.41827 0.0
H1067 H 0.94889 0.80569 0.4166 0.0
C1068 C 0.87564 0.11521 0.10944 0.0
C1069 C 0.88064 0.13443 0.12554 0.0
C1070 C 0.86903 0.08328 0.11125 0.0
C1071 C 0.88051 0.02983 0.14388 0.0
H1072 H 0.81307 0.95999 0.11458 0.0
C1073 C 0.8461 0.89828 0.15837 0.0
C1074 C 0.8396 0.87751 0.14286 0.0
C1075 C 0.84861 0.92849 0.15604 0.0
C1076 C 0.83224 0.97924 0.12271 0.0
H1077 H 0.88308 0.13549 0.15614 0.0
H1078 H 0.87207 0.07996 0.15934 0.0
H1079 H 0.82283 0.01509 0.1108 0.0
H1080 H 0.82962 0.8717 0.11282 0.0
H1081 H 0.83471 0.92497 0.10856 0.0
H1082 H 0.89053 0.99455 0.15555 0.0
C1083 C 0.87316 0.08949 0.14529 0.0
C1084 C 0.83779 0.01082 0.12056 0.0
C1085 C 0.87952 0.12131 0.14347 0.0
C1086 C 0.83452 0.88718 0.12503 0.0
C1087 C 0.83739 0.9177 0.12263 0.0
C1088 C 0.87515 0.99843 0.14593 0.0
C1089 C 0.86783 0.07006 0.12921 0.0
C1090 C 0.86189 0.03645 0.13122 0.0
C1091 C 0.84512 0.93904 0.13807 0.0
C1092 C 0.85078 0.97258 0.13551 0.0
H1093 H 0.87698 0.12494 0.09542 0.0
H1094 H 0.86546 0.06913 0.09857 0.0
H1095 H 0.89967 0.04909 0.15203 0.0
H1096 H 0.8496 0.89124 0.17235 0.0
H1097 H 0.85361 0.94372 0.16838 0.0
C1098 C 0.2595 0.1441 0.40435 0.0
C1099 C 0.27145 0.13791 0.38767 0.0
C1100 C 0.23559 0.1529 0.40368 0.0
C1101 C 0.19672 0.18392 0.37002 0.0
H1102 H 0.13802 0.16619 0.41217 0.0
C1103 C 0.09193 0.21323 0.36919 0.0
C1104 C 0.09246 0.23237 0.38447 0.0
C1105 C 0.11156 0.19906 0.36933 0.0
C1106 C 0.15428 0.17131 0.4003 0.0
H1107 H 0.26599 0.13375 0.35721 0.0
H1108 H 0.22308 0.14733 0.35601 0.0
H1109 H 0.17524 0.14515 0.41258 0.0
H1110 H 0.11304 0.25079 0.41208 0.0
H1111 H 0.14653 0.22515 0.41261 0.0
H1112 H 0.17484 0.20937 0.35761 0.0
C1113 C 0.23318 0.14701 0.36965 0.0
C1114 C 0.17588 0.15946 0.40056 0.0
C1115 C 0.25753 0.13873 0.37033 0.0
C1116 C 0.11219 0.23617 0.40013 0.0
C1117 C 0.13125 0.22143 0.40045 0.0
C1118 C 0.17465 0.19519 0.36961 0.0
C1119 C 0.22226 0.1549 0.38629 0.0
C1120 C 0.19781 0.16594 0.38554 0.0
C1121 C 0.13154 0.20314 0.38493 0.0
C1122 C 0.15348 0.18935 0.38485 0.0
H1123 H 0.26919 0.14286 0.41797 0.0
H1124 H 0.22836 0.15907 0.41684 0.0
H1125 H 0.21349 0.19011 0.35833 0.0
H1126 H 0.07711 0.21011 0.35689 0.0
H1127 H 0.11121 0.18497 0.35722 0.0
C1128 C 0.13895 0.91461 0.10272 0.0
C1129 C 0.15681 0.93229 0.11858 0.0
C1130 C 0.10542 0.89403 0.1039 0.0
C1131 C 0.04026 0.8457 0.13768 0.0
H1132 H 0.98397 0.84277 0.09728 0.0
C1133 C 0.90087 0.76074 0.141 0.0
C1134 C 0.88517 0.74572 0.12406 0.0
C1135 C 0.93345 0.78527 0.14091 0.0
C1136 C 0.99931 0.84291 0.1086 0.0
H1137 H 0.15334 0.94237 0.14811 0.0
H1138 H 0.09461 0.90612 0.15024 0.0
H1139 H 0.04162 0.88219 0.09603 0.0
H1140 H 0.89091 0.7456 0.09368 0.0
H1141 H 0.9478 0.7871 0.09351 0.0
H1142 H 0.99821 0.80583 0.15001 0.0
C1143 C 0.10667 0.90826 0.13687 0.0
C1144 C 0.03241 0.86567 0.1079 0.0
C1145 C 0.14023 0.92921 0.13562 0.0
C1146 C 0.9025 0.75627 0.10701 0.0
C1147 C 0.93508 0.78049 0.10691 0.0
C1148 C 1.00717 0.82269 0.1383 0.0
C1149 C 0.08888 0.89031 0.12103 0.0
C1150 C 0.05336 0.86721 0.12235 0.0
C1151 C 0.95114 0.79532 0.12386 0.0
C1152 C 0.98622 0.82077 0.12368 0.0
H1153 H 0.15096 0.91662 0.08935 0.0
H1154 H 0.09254 0.8804 0.09147 0.0
H1155 H 0.05579 0.84598 0.14893 0.0
H1156 H 0.88816 0.75314 0.15439 0.0
H1157 H 0.94472 0.79639 0.15423 0.0
C1158 C 0.84086 0.88832 0.38867 0.0
C1159 C 0.84662 0.87872 0.37097 0.0
C1160 C 0.84316 0.91864 0.39087 0.0
C1161 C 0.88041 0.99912 0.36729 0.0
H1162 H 0.82651 0.01514 0.40164 0.0
C1163 C 0.88208 0.12067 0.36818 0.0
C1164 C 0.883 0.13428 0.38595 0.0
C1165 C 0.87622 0.08897 0.36673 0.0
C1166 C 0.8419 0.01105 0.39209 0.0
H1167 H 0.85718 0.8923 0.34149 0.0
H1168 H 0.86018 0.94437 0.3451 0.0
H1169 H 0.8178 0.96032 0.39835 0.0
H1170 H 0.87943 0.12569 0.41616 0.0
H1171 H 0.86857 0.07002 0.41366 0.0
H1172 H 0.90428 0.04965 0.36089 0.0
C1173 C 0.85511 0.92929 0.3575 0.0
C1174 C 0.83696 0.97963 0.39022 0.0
C1175 C 0.85317 0.8993 0.35538 0.0
C1176 C 0.87816 0.11558 0.40226 0.0
C1177 C 0.87198 0.08373 0.40082 0.0
C1178 C 0.88515 0.03034 0.36905 0.0
C1179 C 0.85097 0.93982 0.37535 0.0
C1180 C 0.85606 0.9732 0.37769 0.0
C1181 C 0.87113 0.07011 0.38303 0.0
C1182 C 0.86591 0.03672 0.38141 0.0
H1183 H 0.83588 0.87297 0.40095 0.0
H1184 H 0.83997 0.9259 0.40485 0.0
H1185 H 0.89623 0.99545 0.35788 0.0
H1186 H 0.88554 0.13441 0.35534 0.0
H1187 H 0.87539 0.0791 0.35281 0.0
C1188 C 0.16906 0.05449 0.61998 0.0
C1189 C 0.18412 0.04927 0.63554 0.0
C1190 C 0.1681 0.08324 0.61844 0.0
C1191 C 0.16531 0.14423 0.64782 0.0
H1192 H 0.18612 0.19541 0.60202 0.0
C1193 C 0.15482 0.25966 0.64504 0.0
C1194 C 0.14522 0.26723 0.62796 0.0
C1195 C 0.1624 0.23489 0.6458 0.0
C1196 C 0.17968 0.18117 0.61486 0.0
H1197 H 0.21007 0.06965 0.66161 0.0
H1198 H 0.20792 0.11983 0.65915 0.0
H1199 H 0.19438 0.14894 0.6032 0.0
H1200 H 0.13551 0.25475 0.59834 0.0
H1201 H 0.14703 0.21047 0.59974 0.0
H1202 H 0.14912 0.17508 0.6593 0.0
C1203 C 0.19722 0.10191 0.64803 0.0
C1204 C 0.18468 0.15466 0.61554 0.0
C1205 C 0.19867 0.0734 0.64939 0.0
C1206 C 0.14295 0.24938 0.61169 0.0
C1207 C 0.14992 0.2242 0.61249 0.0
C1208 C 0.15972 0.17032 0.64704 0.0
C1209 C 0.18156 0.10696 0.63266 0.0
C1210 C 0.17753 0.1359 0.63203 0.0
C1211 C 0.15982 0.21655 0.62957 0.0
C1212 C 0.16672 0.1892 0.63053 0.0
H1213 H 0.15733 0.03595 0.60928 0.0
H1214 H 0.15563 0.08634 0.60653 0.0
H1215 H 0.15915 0.12994 0.66065 0.0
H1216 H 0.15727 0.27347 0.65773 0.0
H1217 H 0.17065 0.23045 0.65912 0.0
C1218 C 0.12624 0.8711 0.86837 0.0
C1219 C 0.14311 0.87971 0.88559 0.0
C1220 C 0.09324 0.86143 0.86781 0.0
C1221 C 0.02613 0.85421 0.86838 0.0
H1222 H 0.97319 0.8052 0.91102 0.0
C1223 C 0.88885 0.81145 0.87161 0.0
C1224 C 0.86811 0.78072 0.87939 0.0
C1225 C 0.92259 0.82561 0.87305 0.0
C1226 C 0.98745 0.81858 0.89888 0.0
H1227 H 0.13945 0.88687 0.91551 0.0
H1228 H 0.08232 0.87132 0.91453 0.0
H1229 H 0.03105 0.82534 0.91158 0.0
H1230 H 0.86713 0.74154 0.89546 0.0
H1231 H 0.92543 0.76538 0.89724 0.0
H1232 H 0.98224 0.84607 0.85529 0.0
C1233 C 0.09401 0.8708 0.9015 0.0
C1234 C 0.02091 0.83065 0.89933 0.0
C1235 C 0.12685 0.88 0.90208 0.0
C1236 C 0.88215 0.76495 0.88898 0.0
C1237 C 0.91581 0.77894 0.89026 0.0
C1238 C 0.99257 0.84186 0.86785 0.0
C1239 C 0.07649 0.86073 0.88443 0.0
C1240 C 0.04081 0.84859 0.88407 0.0
C1241 C 0.93662 0.8094 0.88221 0.0
C1242 C 0.97266 0.8237 0.88305 0.0
H1243 H 0.13819 0.87046 0.85546 0.0
H1244 H 0.08069 0.85348 0.85443 0.0
H1245 H 0.04054 0.86824 0.85644 0.0
H1246 H 0.87909 0.82431 0.86398 0.0
H1247 H 0.93765 0.84931 0.86692 0.0
C1248 C 0.76854 0.90051 0.60702 0.0
C1249 C 0.7563 0.88181 0.62347 0.0
C1250 C 0.79273 0.93304 0.60809 0.0
C1251 C 0.83231 1.00152 0.64269 0.0
H1252 H 0.89125 0.04339 0.60079 0.0
C1253 C 0.9378 0.13499 0.64512 0.0
C1254 C 0.93742 0.15423 0.6302 0.0
C1255 C 0.91812 0.10124 0.64449 0.0
C1256 C 0.87494 0.03199 0.61259 0.0
H1257 H 0.76159 0.88191 0.6539 0.0
H1258 H 0.805 0.93803 0.65577 0.0
H1259 H 0.85343 0.98536 0.59963 0.0
H1260 H 0.91711 0.15327 0.60267 0.0
H1261 H 0.88357 0.09426 0.60127 0.0
H1262 H 0.85472 0.04835 0.65576 0.0
C1263 C 0.79489 0.92822 0.64203 0.0
C1264 C 0.85298 0.99868 0.61191 0.0
C1265 C 0.77023 0.89579 0.64096 0.0
C1266 C 0.91788 0.139 0.61435 0.0
C1267 C 0.89877 0.10527 0.61354 0.0
C1268 C 0.85473 0.03471 0.64351 0.0
C1269 C 0.8061 0.94762 0.62564 0.0
C1270 C 0.83095 0.98292 0.62683 0.0
C1271 C 0.89823 0.08604 0.62873 0.0
C1272 C 0.876 0.05039 0.62838 0.0
H1273 H 0.75893 0.89013 0.59328 0.0
H1274 H 0.80019 0.94689 0.5951 0.0
H1275 H 0.81549 0.99072 0.65433 0.0
H1276 H 0.95245 0.14614 0.65756 0.0
H1277 H 0.91828 0.087 0.65636 0.0
C1278 C 0.14912 0.24937 0.90269 0.0
C1279 C 0.14693 0.26487 0.88633 0.0
C1280 C 0.15587 0.22401 0.90131 0.0
C1281 C 0.14904 0.16153 0.86809 0.0
H1282 H 0.21381 0.1574 0.89917 0.0
C1283 C 0.18934 0.06958 0.85143 0.0
C1284 C 0.19418 0.05336 0.86652 0.0
C1285 C 0.18551 0.09632 0.85471 0.0
C1286 C 0.19537 0.15797 0.89053 0.0
H1287 H 0.14988 0.26578 0.85569 0.0
H1288 H 0.161 0.22142 0.85328 0.0
H1289 H 0.20249 0.20173 0.90361 0.0
H1290 H 0.19998 0.0532 0.89689 0.0
H1291 H 0.19274 0.09982 0.90276 0.0
H1292 H 0.1414 0.11788 0.85514 0.0
C1293 C 0.15757 0.22878 0.86719 0.0
C1294 C 0.18892 0.18338 0.89308 0.0
C1295 C 0.15113 0.2542 0.86858 0.0
C1296 C 0.19641 0.06532 0.88497 0.0
C1297 C 0.19227 0.09204 0.88831 0.0
C1298 C 0.1553 0.13614 0.86563 0.0
C1299 C 0.15995 0.2133 0.88351 0.0
C1300 C 0.16595 0.18564 0.8817 0.0
C1301 C 0.18604 0.10746 0.87323 0.0
C1302 C 0.17888 0.13419 0.8766 0.0
H1303 H 0.1456 0.25685 0.91654 0.0
H1304 H 0.15732 0.21241 0.91413 0.0
H1305 H 0.13075 0.1622 0.85935 0.0
H1306 H 0.18807 0.06128 0.83702 0.0
H1307 H 0.18176 0.10806 0.84267 0.0
C1308 C 0.12116 0.87761 0.60763 0.0
C1309 C 0.13792 0.87778 0.624 0.0
C1310 C 0.089 0.87086 0.60881 0.0
C1311 C 0.03193 0.87461 0.64213 0.0
H1312 H 0.96416 0.81231 0.60942 0.0
C1313 C 0.89908 0.83371 0.65767 0.0
C1314 C 0.87855 0.8298 0.64244 0.0
C1315 C 0.92977 0.83767 0.65452 0.0
C1316 C 0.98285 0.83007 0.61852 0.0
H1317 H 0.13412 0.87078 0.6544 0.0
H1318 H 0.07854 0.85981 0.65651 0.0
H1319 H 0.02 0.82386 0.60525 0.0
H1320 H 0.87361 0.82582 0.61197 0.0
H1321 H 0.92774 0.83339 0.60635 0.0
H1322 H 0.99545 0.88142 0.65526 0.0
C1323 C 0.09013 0.86488 0.64276 0.0
C1324 C 0.01482 0.83665 0.61612 0.0
C1325 C 0.12201 0.87125 0.64155 0.0
C1326 C 0.88892 0.82866 0.62397 0.0
C1327 C 0.91992 0.83298 0.62079 0.0
C1328 C 1.0002 0.86828 0.64442 0.0
C1329 C 0.07326 0.86468 0.62644 0.0
C1330 C 0.0396 0.85869 0.62809 0.0
C1331 C 0.94103 0.83825 0.63603 0.0
C1332 C 0.97506 0.84557 0.63286 0.0
H1333 H 0.13292 0.8827 0.59393 0.0
H1334 H 0.07664 0.871 0.59601 0.0
H1335 H 0.05061 0.89217 0.65133 0.0
H1336 H 0.89152 0.83415 0.67208 0.0
H1337 H 0.94483 0.84064 0.66667 0.0
C1338 C 0.92784 0.1387 0.90706 0.0
C1339 C 0.94388 0.15614 0.8907 0.0
C1340 C 0.9073 0.10518 0.90634 0.0
C1341 C 0.85509 0.03978 0.87408 0.0
H1342 H 0.85768 0.98376 0.91284 0.0
C1343 C 0.77062 0.90085 0.87123 0.0
C1344 C 0.75805 0.88463 0.88842 0.0
C1345 C 0.79482 0.93349 0.87105 0.0
C1346 C 0.85624 0.99902 0.90203 0.0
H1347 H 0.9512 0.15207 0.86081 0.0
H1348 H 0.91482 0.09332 0.85948 0.0
H1349 H 0.89709 0.04142 0.91339 0.0
H1350 H 0.762 0.88936 0.91889 0.0
H1351 H 0.80312 0.94643 0.91869 0.0
H1352 H 0.81362 0.9978 0.86303 0.0
C1353 C 0.9183 0.10568 0.87287 0.0
C1354 C 0.87902 0.0321 0.9023 0.0
C1355 C 0.93929 0.13923 0.87365 0.0
C1356 C 0.77083 0.90142 0.90542 0.0
C1357 C 0.79478 0.93409 0.90527 0.0
C1358 C 0.83203 1.00676 0.87392 0.0
C1359 C 0.90194 0.08832 0.8892 0.0
C1360 C 0.87864 0.0529 0.88838 0.0
C1361 C 0.80705 0.95072 0.88807 0.0
C1362 C 0.83217 0.98587 0.88794 0.0
H1363 H 0.93105 0.15106 0.92043 0.0
H1364 H 0.89491 0.09257 0.91914 0.0
H1365 H 0.85389 0.05525 0.86329 0.0
H1366 H 0.76132 0.88849 0.85788 0.0
H1367 H 0.80399 0.94513 0.85752 0.0
C1368 C 0.33978 0.15602 0.32315 0.0
C1369 C 0.36502 0.15887 0.33462 0.0
C1370 C 0.34359 0.15942 0.30355 0.0
C1371 C 0.40349 0.18578 0.26389 0.0
H1372 H 0.3266 0.12673 0.23578 0.0
C1373 C 0.39514 0.16102 0.18142 0.0
C1374 C 0.36826 0.1603 0.17282 0.0
C1375 C 0.39893 0.16403 0.2012 0.0
C1376 C 0.34829 0.14343 0.24339 0.0
H1377 H 0.41449 0.16873 0.33482 0.0
H1378 H 0.42112 0.17397 0.30034 0.0
H1379 H 0.32524 0.12574 0.27006 0.0
H1380 H 0.32544 0.16406 0.17782 0.0
H1381 H 0.3322 0.1697 0.21198 0.0
H1382 H 0.42653 0.20273 0.23678 0.0
C1383 C 0.39849 0.16965 0.30648 0.0
C1384 C 0.34747 0.1431 0.26312 0.0
C1385 C 0.39478 0.16673 0.32623 0.0
C1386 C 0.34637 0.16449 0.1841 0.0
C1387 C 0.35013 0.16752 0.20367 0.0
C1388 C 0.40441 0.1858 0.244 0.0
C1389 C 0.37259 0.16516 0.29483 0.0
C1390 C 0.37476 0.16476 0.27371 0.0
C1391 C 0.37582 0.16632 0.21254 0.0
C1392 C 0.37654 0.16505 0.23357 0.0
H1393 H 0.31668 0.15024 0.32933 0.0
H1394 H 0.32343 0.15684 0.29519 0.0
H1395 H 0.425 0.20282 0.27153 0.0
H1396 H 0.41217 0.15755 0.17299 0.0
H1397 H 0.41894 0.16299 0.20768 0.0
C1398 C 0.78191 0.61944 0.3298 0.0
C1399 C 0.80875 0.64584 0.33818 0.0
C1400 C 0.78128 0.61448 0.31016 0.0
C1401 C 0.83456 0.6409 0.26712 0.0
H1402 H 0.75575 0.62129 0.24054 0.0
C1403 C 0.83164 0.67635 0.18949 0.0
C1404 C 0.8083 0.65282 0.17752 0.0
C1405 C 0.83145 0.6704 0.20887 0.0
C1406 C 0.77779 0.62634 0.24779 0.0
H1407 H 0.85628 0.68705 0.33298 0.0
H1408 H 0.85545 0.67852 0.29912 0.0
H1409 H 0.75573 0.61927 0.27513 0.0
H1410 H 0.7666 0.60463 0.17621 0.0
H1411 H 0.76579 0.59442 0.21036 0.0
H1412 H 0.85698 0.64968 0.2398 0.0
C1413 C 0.83496 0.66123 0.30741 0.0
C1414 C 0.77778 0.62504 0.26762 0.0
C1415 C 0.83544 0.66625 0.32686 0.0
C1416 C 0.78504 0.62299 0.18518 0.0
C1417 C 0.78441 0.61729 0.20467 0.0
C1418 C 0.83466 0.64263 0.24738 0.0
C1419 C 0.80765 0.6357 0.29866 0.0
C1420 C 0.80636 0.63294 0.27757 0.0
C1421 C 0.80756 0.64101 0.21672 0.0
C1422 C 0.80645 0.63591 0.23751 0.0
H1423 H 0.7609 0.60365 0.33825 0.0
H1424 H 0.75995 0.59441 0.30395 0.0
H1425 H 0.85686 0.64646 0.27423 0.0
H1426 H 0.84974 0.69956 0.18389 0.0
H1427 H 0.84942 0.68921 0.21782 0.0
C1428 C 0.8667 0.18828 0.18731 0.0
C1429 C 0.8605 0.20821 0.17552 0.0
C1430 C 0.86007 0.18633 0.20666 0.0
C1431 C 0.85353 0.23281 0.2459 0.0
H1432 H 0.82093 0.15167 0.27282 0.0
C1433 C 0.8476 0.22552 0.32818 0.0
C1434 C 0.86063 0.20741 0.3359 0.0
C1435 C 0.841 0.22392 0.30872 0.0
C1436 C 0.83012 0.17456 0.26555 0.0
H1437 H 0.84171 0.2411 0.17458 0.0
H1438 H 0.83026 0.23795 0.2087 0.0
H1439 H 0.82127 0.15199 0.23833 0.0
H1440 H 0.87534 0.17221 0.32967 0.0
H1441 H 0.86384 0.16927 0.296 0.0
H1442 H 0.86344 0.2555 0.27318 0.0
C1443 C 0.84032 0.22386 0.20289 0.0
C1444 C 0.83029 0.17473 0.24576 0.0
C1445 C 0.84661 0.22548 0.18338 0.0
C1446 C 0.86545 0.18656 0.32406 0.0
C1447 C 0.85863 0.18474 0.30476 0.0
C1448 C 0.85344 0.23266 0.26575 0.0
C1449 C 0.84725 0.20443 0.21478 0.0
C1450 C 0.8428 0.20393 0.23569 0.0
C1451 C 0.84684 0.20377 0.29674 0.0
C1452 C 0.84255 0.2036 0.27581 0.0
H1453 H 0.87729 0.17459 0.1816 0.0
H1454 H 0.86608 0.17144 0.21538 0.0
H1455 H 0.86356 0.25575 0.23858 0.0
H1456 H 0.84375 0.24184 0.33703 0.0
H1457 H 0.83169 0.23871 0.30302 0.0
C1458 C 0.174 0.39708 0.68498 0.0
C1459 C 0.16815 0.36734 0.67759 0.0
C1460 C 0.1797 0.40354 0.70441 0.0
C1461 C 0.20543 0.37895 0.74748 0.0
H1462 H 0.14915 0.40177 0.77487 0.0
C1463 C 0.17739 0.35045 0.82608 0.0
C1464 C 0.17231 0.37121 0.83783 0.0
C1465 C 0.18264 0.35644 0.80673 0.0
C1466 C 0.16559 0.39612 0.76745 0.0
H1467 H 0.16498 0.32165 0.6843 0.0
H1468 H 0.17597 0.33323 0.718 0.0
H1469 H 0.14835 0.4008 0.74023 0.0
H1470 H 0.1693 0.41487 0.83874 0.0
H1471 H 0.1787 0.42569 0.80456 0.0
H1472 H 0.22237 0.37371 0.77451 0.0
C1473 C 0.17588 0.35148 0.70896 0.0
C1474 C 0.16506 0.39549 0.74759 0.0
C1475 C 0.16955 0.34481 0.6897 0.0
C1476 C 0.17358 0.39877 0.82996 0.0
C1477 C 0.17857 0.40468 0.81041 0.0
C1478 C 0.20618 0.37984 0.76725 0.0
C1479 C 0.18043 0.38064 0.71662 0.0
C1480 C 0.18433 0.38601 0.73743 0.0
C1481 C 0.18281 0.38332 0.79852 0.0
C1482 C 0.18557 0.38747 0.77754 0.0
H1483 H 0.17265 0.41463 0.6759 0.0
H1484 H 0.1832 0.42623 0.70992 0.0
H1485 H 0.22088 0.37199 0.74003 0.0
H1486 H 0.17625 0.32886 0.8318 0.0
H1487 H 0.18515 0.33908 0.79809 0.0
C1488 C 0.23583 0.84547 0.82631 0.0
C1489 C 0.21411 0.85431 0.83387 0.0
C1490 C 0.23614 0.84005 0.80682 0.0
C1491 C 0.18666 0.81907 0.76377 0.0
H1492 H 0.26724 0.87067 0.73661 0.0
C1493 C 0.18919 0.84553 0.6846 0.0
C1494 C 0.21535 0.85006 0.67329 0.0
C1495 C 0.18899 0.84019 0.704 0.0
C1496 C 0.24466 0.85548 0.74395 0.0
H1497 H 0.17492 0.86319 0.82735 0.0
H1498 H 0.17456 0.85255 0.79345 0.0
H1499 H 0.26678 0.87177 0.77122 0.0
H1500 H 0.26142 0.85159 0.67318 0.0
H1501 H 0.26108 0.84174 0.70737 0.0
H1502 H 0.16435 0.80276 0.73671 0.0
C1503 C 0.19161 0.85017 0.80247 0.0
C1504 C 0.24441 0.85623 0.76379 0.0
C1505 C 0.1918 0.85628 0.82183 0.0
C1506 C 0.24083 0.84781 0.68162 0.0
C1507 C 0.24076 0.8426 0.7012 0.0
C1508 C 0.18695 0.81796 0.744 0.0
C1509 C 0.21414 0.84256 0.79469 0.0
C1510 C 0.21525 0.83865 0.77387 0.0
C1511 C 0.21502 0.83925 0.71269 0.0
C1512 C 0.21577 0.83685 0.73376 0.0
H1513 H 0.25349 0.84418 0.83532 0.0
H1514 H 0.2537 0.83416 0.8012 0.0
H1515 H 0.1639 0.80496 0.77118 0.0
H1516 H 0.16934 0.8474 0.67852 0.0
H1517 H 0.16904 0.83838 0.71229 0.0
C1518 C 0.69003 0.83416 0.68698 0.0
C1519 C 0.66365 0.81393 0.67542 0.0
C1520 C 0.68572 0.83649 0.70635 0.0
C1521 C 0.63351 0.79006 0.74584 0.0
H1522 H 0.68107 0.87141 0.77271 0.0
C1523 C 0.63363 0.79627 0.8279 0.0
C1524 C 0.66446 0.81511 0.8359 0.0
C1525 C 0.62894 0.79819 0.80844 0.0
C1526 C 0.6677 0.84845 0.76545 0.0
H1527 H 0.61192 0.78092 0.67487 0.0
H1528 H 0.6043 0.78475 0.70897 0.0
H1529 H 0.68134 0.87097 0.7382 0.0
H1530 H 0.714 0.85208 0.83026 0.0
H1531 H 0.70602 0.85547 0.79654 0.0
H1532 H 0.6209 0.76739 0.77309 0.0
C1533 C 0.62833 0.79881 0.70299 0.0
C1534 C 0.66781 0.84822 0.74566 0.0
C1535 C 0.63262 0.79682 0.68349 0.0
C1536 C 0.69001 0.83716 0.8244 0.0
C1537 C 0.68533 0.83921 0.80507 0.0
C1538 C 0.63353 0.79026 0.76567 0.0
C1539 C 0.65494 0.81843 0.71468 0.0
C1540 C 0.65134 0.81897 0.73561 0.0
C1541 C 0.65492 0.81929 0.79672 0.0
C1542 C 0.65126 0.8194 0.77574 0.0
H1543 H 0.71422 0.84764 0.68109 0.0
H1544 H 0.70678 0.85154 0.71494 0.0
H1545 H 0.62083 0.76708 0.73853 0.0
H1546 H 0.61356 0.77904 0.83649 0.0
H1547 H 0.60511 0.78277 0.80252 0.0
C1548 C 0.23998 0.94622 0.94415 0.0
C1549 C 0.25294 0.92684 0.93835 0.0
C1550 C 0.25081 0.96474 0.96063 0.0
C1551 C 0.32032 1.00614 0.99246 0.0
H1552 H 0.25709 1.00559 0.02725 0.0
C1553 C 0.34854 0.09873 0.05522 0.0
C1554 C 0.33394 0.08404 0.07254 0.0
C1555 C 0.34119 0.08017 0.03851 0.0
C1556 C 0.2751 1.00609 0.01767 0.0
H1557 H 0.28755 0.91173 0.9453 0.0
H1558 H 0.30696 0.94466 0.97435 0.0
H1559 H 0.23887 0.97043 0.99957 0.0
H1560 H 0.30032 0.03787 0.0855 0.0
H1561 H 0.2877 1.00644 0.05687 0.0
H1562 H 0.35655 0.0422 0.0107 0.0
C1563 C 0.28817 0.94522 0.96605 0.0
C1564 C 0.26464 0.98597 1.00178 0.0
C1565 C 0.27682 0.92608 0.9496 0.0
C1566 C 0.31232 0.05039 0.07264 0.0
C1567 C 0.30479 0.03215 0.0561 0.0
C1568 C 0.33083 0.02674 0.00831 0.0
C1569 C 0.27533 0.96487 0.97169 0.0
C1570 C 0.28705 0.9856 0.98898 0.0
C1571 C 0.31872 0.04673 0.03877 0.0
C1572 C 0.30828 0.02674 0.02117 0.0
H1573 H 0.22164 0.94742 0.93572 0.0
H1574 H 0.24054 0.9797 0.96447 0.0
H1575 H 0.33817 1.00665 0.98275 0.0
H1576 H 0.3653 0.1245 0.05453 0.0
H1577 H 0.35228 0.0921 0.02531 0.0
C1578 C 0.76628 0.6701 0.45482 0.0
C1579 C 0.76599 0.6843 0.43743 0.0
C1580 C 0.75414 0.67682 0.47134 0.0
C1581 C 0.70393 0.71287 0.48795 0.0
H1582 H 0.75129 0.72648 0.53468 0.0
C1583 C 0.6674 0.75065 0.55862 0.0
C1584 C 0.69294 0.77188 0.57042 0.0
C1585 C 0.6736 0.73737 0.54242 0.0
C1586 C 0.73785 0.72304 0.52172 0.0
H1587 H 0.7522 0.7167 0.42408 0.0
H1588 H 0.73199 0.72853 0.45245 0.0
H1589 H 0.7668 0.70751 0.50681 0.0
H1590 H 0.74509 0.79714 0.5739 0.0
H1591 H 0.75589 0.77518 0.5457 0.0
H1592 H 0.67593 0.72982 0.50268 0.0
C1593 C 0.74085 0.71167 0.45344 0.0
C1594 C 0.74648 0.7116 0.50575 0.0
C1595 C 0.75282 0.70496 0.43705 0.0
C1596 C 0.72477 0.78057 0.56525 0.0
C1597 C 0.73096 0.76763 0.54912 0.0
C1598 C 0.69541 0.7245 0.50391 0.0
C1599 C 0.74141 0.6979 0.47089 0.0
C1600 C 0.73007 0.7069 0.48849 0.0
C1601 C 0.7055 0.74524 0.53766 0.0
C1602 C 0.71267 0.73039 0.52095 0.0
H1603 H 0.77607 0.654 0.45574 0.0
H1604 H 0.75472 0.66544 0.48446 0.0
H1605 H 0.69021 0.70897 0.47506 0.0
H1606 H 0.6426 0.74322 0.56233 0.0
H1607 H 0.6533 0.72016 0.53401 0.0
C1608 C 0.05746 0.30468 0.9371 0.0
C1609 C 0.09055 0.32842 0.93767 0.0
C1610 C 0.03816 0.29611 0.95327 0.0
C1611 C 0.02897 0.32156 1.00088 0.0
H1612 H 0.97332 0.22933 0.00857 0.0
C1613 C 0.92686 0.26568 0.05874 0.0
C1614 C 0.92659 0.2408 0.0695 0.0
C1615 C 0.94651 0.27759 0.0425 0.0
C1616 C 0.98868 0.25517 0.00669 0.0
H1617 H 0.12889 0.36214 0.95613 0.0
H1618 H 0.09471 0.34702 0.98472 0.0
H1619 H 1.00997 0.24875 0.9816 0.0
H1620 H 0.94597 0.20843 0.07143 0.0
H1621 H 0.97924 0.22839 0.04311 0.0
H1622 H 1.00745 0.32772 0.02619 0.0
C1623 C 0.08398 0.33522 0.97144 0.0
C1624 C 1.00964 0.26634 0.99115 0.0
C1625 C 0.1036 0.34376 0.95509 0.0
C1626 C 0.94544 0.22744 0.06336 0.0
C1627 C 0.96456 0.23891 0.0471 0.0
C1628 C 1.00764 0.31031 0.01643 0.0
C1629 C 0.05109 0.31089 0.97073 0.0
C1630 C 0.03005 0.29965 0.98797 0.0
C1631 C 0.96577 0.26442 0.03656 0.0
C1632 C 0.9873 0.27693 0.01956 0.0
H1633 H 0.04622 0.29202 0.92414 0.0
H1634 H 1.0129 0.27764 0.95208 0.0
H1635 H 0.04419 0.34735 0.99878 0.0
H1636 H 0.91305 0.27684 0.06334 0.0
H1637 H 0.94675 0.29715 0.03462 0.0
C1638 C 0.30146 0.07242 0.44634 0.0
C1639 C 0.33375 0.09175 0.44042 0.0
C1640 C 0.29388 0.05393 0.46282 0.0
C1641 C 0.32305 0.01328 0.49474 0.0
H1642 H 0.25746 0.01031 0.52851 0.0
C1643 C 0.26004 0.91845 0.55639 0.0
C1644 C 0.25728 0.93173 0.57362 0.0
C1645 C 0.27122 0.93769 0.53993 0.0
C1646 C 0.27585 0.01083 0.51926 0.0
H1647 H 0.38355 0.10691 0.44725 0.0
H1648 H 0.37027 0.07422 0.47636 0.0
H1649 H 0.27471 0.04621 0.50123 0.0
H1650 H 0.26477 0.97626 0.58675 0.0
H1651 H 0.28363 0.00883 0.55855 0.0
H1652 H 0.32393 0.97763 0.51298 0.0
C1653 C 0.35083 0.07358 0.46811 0.0
C1654 C 0.28566 0.03136 0.50355 0.0
C1655 C 0.3585 0.09262 0.45163 0.0
C1656 C 0.26634 0.96474 0.57391 0.0
C1657 C 0.2771 0.98364 0.55761 0.0
C1658 C 0.31292 0.99236 0.51045 0.0
C1659 C 0.31835 0.05385 0.47383 0.0
C1660 C 0.30939 0.03293 0.49106 0.0
C1661 C 0.2794 0.97045 0.54034 0.0
C1662 C 0.2893 0.99105 0.52296 0.0
H1663 H 0.28181 0.07111 0.43797 0.0
H1664 H 0.26863 0.03888 0.46665 0.0
H1665 H 0.34113 0.01365 0.48529 0.0
H1666 H 0.25342 0.89324 0.55557 0.0
H1667 H 0.27267 0.92677 0.5268 0.0
C1668 C 0.75599 0.66357 0.05916 0.0
C1669 C 0.77345 0.68751 0.07282 0.0
C1670 C 0.74535 0.67138 0.0424 0.0
C1671 C 0.76335 0.74237 0.01236 0.0
H1672 H 0.67718 0.68923 0.99177 0.0
C1673 C 0.72956 0.77238 0.94065 0.0
C1674 C 0.69893 0.7695 0.9381 0.0
C1675 C 0.73668 0.76048 0.95682 0.0
C1676 C 0.70123 0.70445 0.99745 0.0
H1677 H 0.79364 0.73857 0.07924 0.0
H1678 H 0.7752 0.7517 0.05071 0.0
H1679 H 0.69376 0.67107 0.01997 0.0
H1680 H 0.65172 0.75162 0.95093 0.0
H1681 H 0.66453 0.73123 0.97973 0.0
H1682 H 0.77087 0.7761 0.99043 0.0
C1683 C 0.76983 0.727 0.05263 0.0
C1684 C 0.71088 0.69382 0.01345 0.0
C1685 C 0.78029 0.7193 0.06918 0.0
C1686 C 0.67558 0.75442 0.95244 0.0
C1687 C 0.68284 0.74245 0.96884 0.0
C1688 C 0.75377 0.75292 0.99652 0.0
C1689 C 0.75228 0.70332 0.03894 0.0
C1690 C 0.74206 0.71282 0.02118 0.0
C1691 C 0.71363 0.74553 0.97126 0.0
C1692 C 0.72265 0.73417 0.98875 0.0
H1693 H 0.7501 0.63882 0.06156 0.0
H1694 H 0.73201 0.65255 0.03209 0.0
H1695 H 0.78765 0.75754 0.01772 0.0
H1696 H 0.74833 0.7837 0.93002 0.0
H1697 H 0.7604 0.76281 0.9579 0.0
C1698 C 0.09895 0.34576 0.56008 0.0
C1699 C 0.09069 0.32314 0.5748 0.0
C1700 C 0.08001 0.33757 0.5435 0.0
C1701 C 0.02057 0.26547 0.51625 0.0
H1702 H 0.99675 0.32352 0.49221 0.0
C1703 C 0.95827 0.23573 0.4439 0.0
C1704 C 0.93326 0.24254 0.44033 0.0
C1705 C 0.97679 0.24658 0.46034 0.0
C1706 C 1.00295 0.30694 0.49888 0.0
H1707 H 0.05601 0.27395 0.58333 0.0
H1708 H 0.0236 0.26018 0.55507 0.0
H1709 H 0.03179 0.34147 0.52027 0.0
H1710 H 0.90802 0.26607 0.45157 0.0
H1711 H 0.94035 0.28479 0.4808 0.0
H1712 H 0.99152 0.23074 0.49534 0.0
C1713 C 0.04471 0.2841 0.55603 0.0
C1714 C 0.02341 0.31739 0.5148 0.0
C1715 C 0.06338 0.29219 0.57241 0.0
C1716 C 0.92691 0.26018 0.45395 0.0
C1717 C 0.94569 0.27122 0.47056 0.0
C1718 C 1.00027 0.2551 0.50046 0.0
C1719 C 0.05266 0.30651 0.54128 0.0
C1720 C 0.03237 0.29668 0.52374 0.0
C1721 C 0.97092 0.26452 0.47393 0.0
C1722 C 0.99122 0.27564 0.49146 0.0
H1723 H 0.11967 0.36984 0.56146 0.0
H1724 H 0.08697 0.35538 0.53236 0.0
H1725 H 0.02715 0.24891 0.52256 0.0
H1726 H 0.96403 0.22226 0.43381 0.0
H1727 H 0.99624 0.24134 0.4622 0.0
C1728 C 0.67966 0.21671 0.12362 0.0
C1729 C 0.69302 0.20352 0.11111 0.0
C1730 C 0.64609 0.20247 0.12585 0.0
C1731 C 0.56897 0.1482 0.10101 0.0
H1732 H 0.53099 0.15397 0.14836 0.0
C1733 C 0.44369 0.13832 0.10439 0.0
C1734 C 0.42412 0.12552 0.12051 0.0
C1735 C 0.47473 0.14223 0.10371 0.0
C1736 C 0.541 0.15165 0.13508 0.0
H1737 H 0.68101 0.16408 0.09158 0.0
H1738 H 0.62252 0.13872 0.09585 0.0
H1739 H 0.58832 0.17065 0.14705 0.0
H1740 H 0.42089 0.10481 0.14819 0.0
H1741 H 0.47521 0.11096 0.14696 0.0
H1742 H 0.52164 0.12892 0.08907 0.0
C1743 C 0.63807 0.16057 0.10368 0.0
C1744 C 0.57411 0.1617 0.13425 0.0
C1745 C 0.67174 0.17491 0.1014 0.0
C1746 C 0.43554 0.11487 0.1356 0.0
C1747 C 0.46679 0.11876 0.13494 0.0
C1748 C 0.53587 0.13804 0.10186 0.0
C1749 C 0.6247 0.17441 0.11573 0.0
C1750 C 0.58877 0.16076 0.11711 0.0
C1751 C 0.48708 0.13311 0.1191 0.0
C1752 C 0.52149 0.14027 0.1188 0.0
H1753 H 0.69517 0.23839 0.13161 0.0
H1754 H 0.63694 0.21417 0.13511 0.0
H1755 H 0.57919 0.14724 0.0875 0.0
H1756 H 0.4351 0.14585 0.09233 0.0
H1757 H 0.48946 0.15358 0.09132 0.0
C1758 C 0.70549 0.57917 0.4085 0.0
C1759 C 0.71659 0.59437 0.39093 0.0
C1760 C 0.67855 0.5481 0.40964 0.0
C1761 C 0.61176 0.48156 0.38087 0.0
H1762 H 0.61676 0.42827 0.4206 0.0
C1763 C 0.54383 0.34045 0.38145 0.0
C1764 C 0.52747 0.32534 0.39827 0.0
C1765 C 0.56316 0.37416 0.38047 0.0
C1766 C 0.61484 0.44292 0.40955 0.0
H1767 H 0.70783 0.58973 0.36079 0.0
H1768 H 0.66179 0.5347 0.3625 0.0
H1769 H 0.65732 0.48517 0.41897 0.0
H1770 H 0.51816 0.33359 0.42713 0.0
H1771 H 0.55287 0.3926 0.42561 0.0
H1772 H 0.57015 0.4381 0.37091 0.0
C1773 C 0.673 0.54693 0.37559 0.0
C1774 C 0.63802 0.4758 0.40864 0.0
C1775 C 0.69949 0.57852 0.37452 0.0
C1776 C 0.53037 0.34465 0.41398 0.0
C1777 C 0.5503 0.37832 0.41313 0.0
C1778 C 0.58896 0.4484 0.38156 0.0
C1779 C 0.66263 0.53084 0.39316 0.0
C1780 C 0.63691 0.49579 0.39431 0.0
C1781 C 0.56709 0.39339 0.3964 0.0
C1782 C 0.59028 0.42879 0.39593 0.0
H1783 H 0.7182 0.5911 0.42137 0.0
H1784 H 0.67081 0.53739 0.42352 0.0
H1785 H 0.60954 0.49593 0.36978 0.0
H1786 H 0.54192 0.32611 0.36912 0.0
H1787 H 0.57599 0.38511 0.36745 0.0
C1788 C 0.86397 0.30391 0.12865 0.0
C1789 C 0.88943 0.30145 0.12028 0.0
C1790 C 0.86092 0.33124 0.12575 0.0
C1791 C 0.90534 0.41707 0.11046 0.0
H1792 H 0.81922 0.40216 0.09975 0.0
C1793 C 0.88257 0.51842 0.0827 0.0
C1794 C 0.85418 0.51832 0.08836 0.0
C1795 C 0.88782 0.49299 0.08762 0.0
C1796 C 0.8434 0.40695 0.10301 0.0
H1797 H 0.93195 0.32621 0.1025 0.0
H1798 H 0.92704 0.37428 0.09768 0.0
H1799 H 0.82696 0.35658 0.10649 0.0
H1800 H 0.80933 0.49123 0.10404 0.0
H1801 H 0.81893 0.44755 0.11311 0.0
H1802 H 0.92177 0.46753 0.10707 0.0
C1803 C 0.90945 0.35503 0.10658 0.0
C1804 C 0.84786 0.38068 0.10684 0.0
C1805 C 0.91236 0.3275 0.10939 0.0
C1806 C 0.8316 0.4924 0.09952 0.0
C1807 C 0.83692 0.46702 0.10451 0.0
C1808 C 0.90087 0.44343 0.10673 0.0
C1809 C 0.88337 0.35704 0.11449 0.0
C1810 C 0.87887 0.38532 0.11059 0.0
C1811 C 0.86493 0.46672 0.09844 0.0
C1812 C 0.86981 0.43876 0.10291 0.0
H1813 H 0.84596 0.28443 0.13726 0.0
H1814 H 0.84084 0.3321 0.13233 0.0
H1815 H 0.92952 0.42161 0.11351 0.0
H1816 H 0.90081 0.53814 0.07436 0.0
H1817 H 0.90956 0.49364 0.08252 0.0
C1818 C 0.43742 0.11131 0.39776 0.0
C1819 C 0.43085 0.13037 0.38543 0.0
C1820 C 0.46883 0.11577 0.399 0.0
C1821 C 0.54891 0.15393 0.37414 0.0
H1822 H 0.58391 0.15906 0.4243 0.0
C1823 C 0.68641 0.22023 0.38853 0.0
C1824 C 0.69884 0.20782 0.40211 0.0
C1825 C 0.65299 0.20637 0.38584 0.0
C1826 C 0.57445 0.15724 0.41016 0.0
H1827 H 0.45161 0.16788 0.36408 0.0
H1828 H 0.50591 0.17567 0.36619 0.0
H1829 H 0.52665 0.142 0.42057 0.0
H1830 H 0.68556 0.17054 0.42333 0.0
H1831 H 0.62705 0.14612 0.41857 0.0
H1832 H 0.59676 0.16984 0.36375 0.0
C1833 C 0.48708 0.15716 0.3749 0.0
C1834 C 0.54152 0.14739 0.40801 0.0
C1835 C 0.45589 0.15284 0.37376 0.0
C1836 C 0.67686 0.18062 0.41267 0.0
C1837 C 0.64329 0.16683 0.41007 0.0
C1838 C 0.58176 0.1638 0.37629 0.0
C1839 C 0.49423 0.13917 0.38778 0.0
C1840 C 0.5284 0.1462 0.38998 0.0
C1841 C 0.63089 0.17967 0.3967 0.0
C1842 C 0.59518 0.16621 0.39435 0.0
H1843 H 0.41867 0.09393 0.407 0.0
H1844 H 0.4733 0.10118 0.40891 0.0
H1845 H 0.53963 0.15269 0.36 0.0
H1846 H 0.70257 0.24093 0.37999 0.0
H1847 H 0.64448 0.21721 0.37556 0.0
C1848 C 0.54312 0.3408 0.11995 0.0
C1849 C 0.51767 0.32877 0.10676 0.0
C1850 C 0.5625 0.37403 0.12306 0.0
C1851 C 0.59063 0.45316 0.10021 0.0
H1852 H 0.62401 0.48549 0.15036 0.0
C1853 C 0.68691 0.58837 0.11452 0.0
C1854 C 0.71306 0.59248 0.12571 0.0
C1855 C 0.65879 0.55785 0.11303 0.0
C1856 C 0.61498 0.4769 0.13624 0.0
H1857 H 0.49228 0.34249 0.08676 0.0
H1858 H 0.52618 0.40081 0.09225 0.0
H1859 H 0.58262 0.42901 0.14622 0.0
H1860 H 0.72962 0.56809 0.14468 0.0
H1861 H 0.68113 0.5155 0.14215 0.0
H1862 H 0.62371 0.50104 0.09022 0.0
C1863 C 0.53122 0.38435 0.1001 0.0
C1864 C 0.59125 0.44445 0.13386 0.0
C1865 C 0.51159 0.35093 0.09708 0.0
C1866 C 0.71002 0.5658 0.13586 0.0
C1867 C 0.682 0.53559 0.13453 0.0
C1868 C 0.61445 0.48574 0.1026 0.0
C1869 C 0.5571 0.39635 0.11305 0.0
C1870 C 0.57934 0.43187 0.11576 0.0
C1871 C 0.65614 0.53099 0.12291 0.0
C1872 C 0.62756 0.49781 0.1206 0.0
H1873 H 0.54829 0.32445 0.12782 0.0
H1874 H 0.58238 0.38225 0.13297 0.0
H1875 H 0.58221 0.44433 0.08605 0.0
H1876 H 0.68864 0.60838 0.10641 0.0
H1877 H 0.63925 0.5552 0.10403 0.0
C1878 C 0.85099 0.50374 0.41302 0.0
C1879 C 0.87872 0.53252 0.41871 0.0
C1880 C 0.85292 0.4762 0.40823 0.0
C1881 C 0.91268 0.44867 0.39702 0.0
H1882 H 0.84044 0.36443 0.40988 0.0
C1883 C 0.92021 0.33045 0.39876 0.0
C1884 C 0.89459 0.30303 0.39016 0.0
C1885 C 0.91879 0.35891 0.40105 0.0
C1886 C 0.86074 0.38777 0.40607 0.0
H1887 H 0.93063 0.55477 0.42292 0.0
H1888 H 0.93366 0.50682 0.41566 0.0
H1889 H 0.83676 0.41269 0.41599 0.0
H1890 H 0.84745 0.28442 0.37703 0.0
H1891 H 0.84463 0.33357 0.38153 0.0
H1892 H 0.93696 0.42343 0.38774 0.0
C1893 C 0.91037 0.50544 0.4145 0.0
C1894 C 0.8586 0.41558 0.40947 0.0
C1895 C 0.90851 0.53302 0.41903 0.0
C1896 C 0.86762 0.30493 0.38382 0.0
C1897 C 0.86592 0.33312 0.38642 0.0
C1898 C 0.91499 0.42087 0.39391 0.0
C1899 C 0.88259 0.47643 0.40915 0.0
C1900 C 0.88455 0.44655 0.40502 0.0
C1901 C 0.89141 0.36043 0.39513 0.0
C1902 C 0.88904 0.39008 0.39838 0.0
H1903 H 0.82753 0.50211 0.41268 0.0
H1904 H 0.831 0.45469 0.40384 0.0
H1905 H 0.93299 0.47181 0.39297 0.0
H1906 H 0.94099 0.32971 0.40416 0.0
H1907 H 0.93872 0.37944 0.40797 0.0
C1908 C 0.11481 0.63775 0.59524 0.0
C1909 C 0.14468 0.66689 0.59455 0.0
C1910 C 0.11324 0.60847 0.59981 0.0
C1911 C 0.16506 0.57013 0.60285 0.0
H1912 H 0.08923 0.50132 0.62759 0.0
C1913 C 0.15923 0.45241 0.6289 0.0
C1914 C 0.13155 0.42309 0.62382 0.0
C1915 C 0.16047 0.48203 0.62618 0.0
C1916 C 0.11048 0.52024 0.62056 0.0
H1917 H 0.19636 0.68762 0.5988 0.0
H1918 H 0.19349 0.63704 0.60768 0.0
H1919 H 0.09275 0.55341 0.62216 0.0
H1920 H 0.08343 0.40236 0.61198 0.0
H1921 H 0.08501 0.45401 0.60794 0.0
H1922 H 0.183 0.53697 0.60175 0.0
C1923 C 0.17123 0.63661 0.60407 0.0
C1924 C 0.11251 0.55019 0.61735 0.0
C1925 C 0.17284 0.6659 0.59926 0.0
C1926 C 0.10481 0.42425 0.6164 0.0
C1927 C 0.10583 0.45392 0.61398 0.0
C1928 C 0.16321 0.54036 0.60632 0.0
C1929 C 0.14143 0.60729 0.60416 0.0
C1930 C 0.13975 0.57561 0.60831 0.0
C1931 C 0.13388 0.48321 0.61859 0.0
C1932 C 0.13583 0.51498 0.61512 0.0
H1933 H 0.09241 0.63739 0.59213 0.0
H1934 H 0.08982 0.58664 0.59946 0.0
H1935 H 0.18614 0.5886 0.5955 0.0
H1936 H 0.18029 0.45261 0.63478 0.0
H1937 H 0.18231 0.50408 0.63008 0.0
C1938 C 0.3338 0.90157 0.89583 0.0
C1939 C 0.3076 0.88305 0.8837 0.0
C1940 C 0.35987 0.89566 0.897 0.0
C1941 C 0.37742 0.82919 0.88734 0.0
H1942 H 0.46683 0.89395 0.89678 0.0
C1943 C 0.47614 0.79418 0.88603 0.0
C1944 C 0.49989 0.80653 0.90026 0.0
C1945 C 0.45556 0.80678 0.88323 0.0
C1946 C 0.4419 0.87553 0.89431 0.0
H1947 H 0.28931 0.84558 0.86231 0.0
H1948 H 0.33476 0.8361 0.86379 0.0
H1949 H 0.42598 0.91041 0.89309 0.0
H1950 H 0.52145 0.8429 0.92219 0.0
H1951 H 0.48517 0.86484 0.91742 0.0
H1952 H 0.39285 0.79429 0.88871 0.0
C1953 C 0.33496 0.85436 0.87297 0.0
C1954 C 0.41843 0.88498 0.89219 0.0
C1955 C 0.30894 0.86 0.87197 0.0
C1956 C 0.50348 0.8329 0.91107 0.0
C1957 C 0.48266 0.84547 0.90832 0.0
C1958 C 0.40068 0.81981 0.88946 0.0
C1959 C 0.36033 0.87126 0.88595 0.0
C1960 C 0.38583 0.8619 0.8885 0.0
C1961 C 0.45788 0.83203 0.89464 0.0
C1962 C 0.43335 0.84278 0.89278 0.0
H1963 H 0.33337 0.91941 0.90511 0.0
H1964 H 0.37887 0.9092 0.90718 0.0
H1965 H 0.35262 0.81048 0.88499 0.0
H1966 H 0.47313 0.77434 0.87718 0.0
H1967 H 0.43745 0.79635 0.8722 0.0
C1968 C 0.58831 0.69031 0.61258 0.0
C1969 C 0.59471 0.71697 0.62401 0.0
C1970 C 0.55676 0.66364 0.61127 0.0
C1971 C 0.47635 0.62409 0.6355 0.0
H1972 H 0.44185 0.58918 0.58593 0.0
C1973 C 0.33893 0.54938 0.62159 0.0
C1974 C 0.32676 0.52364 0.60857 0.0
C1975 C 0.37229 0.56962 0.62405 0.0
C1976 C 0.45117 0.59823 0.59994 0.0
H1977 H 0.57315 0.73602 0.64345 0.0
H1978 H 0.51865 0.68999 0.64118 0.0
H1979 H 0.49896 0.63017 0.58927 0.0
H1980 H 0.34058 0.49876 0.5882 0.0
H1981 H 0.39901 0.53396 0.59265 0.0
H1982 H 0.42864 0.59262 0.64618 0.0
C1983 C 0.5378 0.68932 0.63329 0.0
C1984 C 0.484 0.62179 0.60185 0.0
C1985 C 0.56912 0.71591 0.6345 0.0
C1986 C 0.34904 0.51823 0.59841 0.0
C1987 C 0.38257 0.53865 0.60082 0.0
C1988 C 0.44363 0.60057 0.6336 0.0
C1989 C 0.531 0.66292 0.62151 0.0
C1990 C 0.49691 0.63551 0.61962 0.0
C1991 C 0.39469 0.56482 0.61359 0.0
C1992 C 0.43034 0.58771 0.61575 0.0
H1993 H 0.60742 0.6905 0.6042 0.0
H1994 H 0.55251 0.64364 0.60217 0.0
H1995 H 0.4855 0.63355 0.64947 0.0
H1996 H 0.32258 0.55411 0.62984 0.0
H1997 H 0.3805 0.58964 0.63385 0.0
C1998 C 0.1892 0.66992 0.91507 0.0
C1999 C 0.20381 0.68893 0.89896 0.0
C2000 C 0.17594 0.63628 0.91437 0.0
C2001 C 0.14385 0.56542 0.88304 0.0
H2002 H 0.17991 0.53142 0.91935 0.0
C2003 C 0.12893 0.43722 0.87539 0.0
C2004 C 0.1315 0.42183 0.89166 0.0
C2005 C 0.13312 0.46846 0.87656 0.0
C2006 C 0.16877 0.54001 0.90934 0.0
H2007 H 0.21471 0.68769 0.86933 0.0
H2008 H 0.19062 0.6288 0.86794 0.0
H2009 H 0.19424 0.58776 0.92106 0.0
H2010 H 0.13767 0.42562 0.92204 0.0
H2011 H 0.14267 0.47869 0.92437 0.0
H2012 H 0.11777 0.51763 0.87149 0.0
C2013 C 0.18971 0.63989 0.88114 0.0
C2014 C 0.17728 0.57257 0.9103 0.0
C2015 C 0.20358 0.67355 0.88194 0.0
C2016 C 0.13605 0.43719 0.90923 0.0
C2017 C 0.13935 0.4679 0.91049 0.0
C2018 C 0.13473 0.53257 0.8823 0.0
C2019 C 0.1764 0.62096 0.89744 0.0
C2020 C 0.16521 0.58574 0.89706 0.0
C2021 C 0.13924 0.48467 0.89411 0.0
C2022 C 0.1473 0.51934 0.89534 0.0
H2023 H 0.18926 0.68121 0.92838 0.0
H2024 H 0.16575 0.62225 0.92713 0.0
H2025 H 0.13408 0.57495 0.87268 0.0
H2026 H 0.12557 0.42592 0.86164 0.0
H2027 H 0.13302 0.48032 0.86355 0.0
C2028 C 0.31391 0.87337 0.60466 0.0
C2029 C 0.30874 0.88925 0.61988 0.0
C2030 C 0.34138 0.87011 0.60393 0.0
C2031 C 0.40191 0.86709 0.63484 0.0
H2032 H 0.44015 0.86512 0.58676 0.0
C2033 C 0.47369 0.80003 0.62477 0.0
C2034 C 0.49913 0.81164 0.61152 0.0
C2035 C 0.45479 0.81475 0.62681 0.0
C2036 C 0.43023 0.86601 0.60038 0.0
H2037 H 0.3291 0.91499 0.64608 0.0
H2038 H 0.37763 0.90965 0.64473 0.0
H2039 H 0.4009 0.8834 0.588 0.0
H2040 H 0.52506 0.84872 0.59039 0.0
H2041 H 0.49276 0.87494 0.59432 0.0
H2042 H 0.43138 0.84978 0.64722 0.0
C2043 C 0.36009 0.89947 0.6334 0.0
C2044 C 0.40733 0.87616 0.60106 0.0
C2045 C 0.33247 0.90288 0.63408 0.0
C2046 C 0.50584 0.83915 0.60082 0.0
C2047 C 0.48699 0.85398 0.60292 0.0
C2048 C 0.42494 0.85702 0.63417 0.0
C2049 C 0.36464 0.8826 0.61842 0.0
C2050 C 0.39223 0.87609 0.61821 0.0
C2051 C 0.46086 0.84169 0.61574 0.0
C2052 C 0.4389 0.85564 0.61686 0.0
H2053 H 0.29625 0.86271 0.5934 0.0
H2054 H 0.34367 0.85659 0.59231 0.0
H2055 H 0.39074 0.86653 0.64829 0.0
H2056 H 0.46809 0.77927 0.63351 0.0
H2057 H 0.43475 0.80429 0.6367 0.0
C2058 C 0.59979 0.68665 0.89463 0.0
C2059 C 0.6016 0.71492 0.88739 0.0
C2060 C 0.56981 0.65811 0.89657 0.0
C2061 C 0.48327 0.62938 0.90348 0.0
H2062 H 0.46991 0.54646 0.88648 0.0
C2063 C 0.3573 0.51335 0.9102 0.0
C2064 C 0.35636 0.4841 0.91446 0.0
C2065 C 0.38658 0.54115 0.90538 0.0
C2066 C 0.47319 0.56925 0.89162 0.0
H2067 H 0.57294 0.73495 0.87623 0.0
H2068 H 0.52086 0.68562 0.88013 0.0
H2069 H 0.52233 0.59501 0.88165 0.0
H2070 H 0.38591 0.46129 0.91593 0.0
H2071 H 0.43658 0.50956 0.90864 0.0
H2072 H 0.4348 0.60388 0.91411 0.0
C2073 C 0.54267 0.68549 0.88425 0.0
C2074 C 0.50333 0.59716 0.88874 0.0
C2075 C 0.57262 0.71378 0.88199 0.0
C2076 C 0.3855 0.48339 0.91321 0.0
C2077 C 0.41475 0.51119 0.90865 0.0
C2078 C 0.4533 0.60143 0.90666 0.0
C2079 C 0.54083 0.65734 0.89166 0.0
C2080 C 0.50874 0.62757 0.89462 0.0
C2081 C 0.41593 0.54069 0.90482 0.0
C2082 C 0.4477 0.57082 0.90082 0.0
H2083 H 0.6214 0.68672 0.89924 0.0
H2084 H 0.56922 0.63689 0.90246 0.0
H2085 H 0.48676 0.6524 0.90838 0.0
H2086 H 0.33556 0.51511 0.91107 0.0
H2087 H 0.38611 0.56306 0.90217 0.0
loop_
_geom_bond_atom_site_label_1
_geom_bond_atom_site_label_2
_geom_bond_distance
_geom_bond_site_symmetry_2
_ccdc_geom_bond_type
Tb0 N29 2.617 . S
Tb0 N35 2.572 . S
Tb0 O44 2.465 . S
Tb0 O45 2.387 . S
Tb0 O47 2.428 . S
Tb0 O48 2.308 . S
Tb0 O52 2.349 . S
Tb0 O55 2.393 . S
Tb0 C64 2.802 . S
C1 N2 1.379 . S
C1 C4 1.416 . S
C1 C8 1.424 . S
N2 C1 1.379 . S
N2 C5 1.334 . S
N2 Tb11 2.617 . S
C3 C5 1.390 . S
C3 C6 1.339 . S
C3 H23 0.930 . S
C4 C1 1.416 . S
C4 C6 1.416 . S
C4 C10 1.448 . S
C5 N2 1.334 . S
C5 C3 1.390 . S
C5 H16 0.930 . S
C6 C3 1.339 . S
C6 C4 1.416 . S
C6 H27 0.930 . S
C7 C8 1.413 . S
C7 C9 1.427 . S
C7 C13 1.416 . S
C8 C1 1.424 . S
C8 C7 1.413 . S
C8 N12 1.361 . S
C9 C7 1.427 . S
C9 C10 1.328 . S
C9 H24 0.929 . S
C10 C4 1.448 . S
C10 C9 1.328 . S
C10 H25 0.930 . S
Tb11 N2 2.617 . S
Tb11 N12 2.572 . S
Tb11 O46 2.349 . S
Tb11 O49 2.393 . S
Tb11 O50 2.465 . S
Tb11 O51 2.387 . S
Tb11 O53 2.428 . S
Tb11 O54 2.308 . S
Tb11 C75 2.802 . S
N12 C8 1.361 . S
N12 Tb11 2.572 . S
N12 C14 1.340 . S
C13 C7 1.416 . S
C13 C15 1.332 . S
C13 H21 0.931 . S
C14 N12 1.340 . S
C14 C15 1.407 . S
C14 H20 0.930 . S
C15 C13 1.332 . S
C15 C14 1.407 . S
C15 H17 0.929 . S
H16 C5 0.930 . S
H17 C15 0.929 . S
H18 C33 0.930 . S
H19 C40 0.929 . S
H20 C14 0.930 . S
H21 C13 0.931 . S
H22 C36 0.930 . S
H23 C3 0.930 . S
H24 C9 0.929 . S
H25 C10 0.930 . S
H26 C31 0.930 . S
H27 C6 0.930 . S
H28 C39 0.931 . S
N29 Tb0 2.617 . S
N29 C30 1.379 . S
N29 C33 1.334 . S
C30 N29 1.379 . S
C30 C32 1.416 . S
C30 C38 1.424 . S
C31 H26 0.930 . S
C31 C33 1.390 . S
C31 C34 1.339 . S
C32 C30 1.416 . S
C32 C34 1.416 . S
C32 C65 1.448 . S
C33 H18 0.930 . S
C33 N29 1.334 . S
C33 C31 1.390 . S
C34 C31 1.339 . S
C34 C32 1.416 . S
C34 H41 0.930 . S
N35 Tb0 2.572 . S
N35 C36 1.340 . S
N35 C38 1.361 . S
C36 H22 0.930 . S
C36 N35 1.340 . S
C36 C40 1.407 . S
C37 C38 1.413 . S
C37 C39 1.416 . S
C37 C66 1.427 . S
C38 C30 1.424 . S
C38 N35 1.361 . S
C38 C37 1.413 . S
C39 H28 0.931 . S
C39 C37 1.416 . S
C39 C40 1.332 . S
C40 H19 0.929 . S
C40 C36 1.407 . S
C40 C39 1.332 . S
H41 C34 0.930 . S
H42 C65 0.930 . S
H43 C66 0.929 . S
O44 Tb0 2.465 . S
O44 C64 1.264 . S
O45 Tb0 2.387 . S
O45 C56 1.264 . S
O46 Tb11 2.349 . S
O46 C56 1.243 . S
O47 Tb0 2.428 . S
O47 C64 1.256 . S
O48 Tb0 2.308 . S
O48 C63 1.266 . S
O49 Tb11 2.393 . S
O49 C63 1.248 . S
O50 Tb11 2.465 . S
O50 C75 1.264 . S
O51 Tb11 2.387 . S
O51 C67 1.264 . S
O52 Tb0 2.349 . S
O52 C67 1.243 . S
O53 Tb11 2.428 . S
O53 C75 1.256 . S
O54 Tb11 2.308 . S
O54 C74 1.266 . S
O55 Tb0 2.393 . S
O55 C74 1.248 . S
C56 O45 1.264 . S
C56 O46 1.243 . S
C57 C60 1.399 . S
C57 C62 1.383 . S
C57 C64 1.496 . S
C58 C59 1.399 . S
C58 C62 1.389 1_565 S
C59 C58 1.399 . S
C59 C61 1.380 . S
C59 H76 0.929 . S
C60 C57 1.399 . S
C60 C61 1.392 1_545 S
C60 H77 0.929 . S
C61 C59 1.380 . S
C61 C60 1.392 1_565 S
C61 H78 0.929 . S
C62 C57 1.383 . S
C62 C58 1.389 1_545 S
C62 H79 0.931 . S
C63 O48 1.266 . S
C63 O49 1.248 . S
C64 Tb0 2.802 . S
C64 O44 1.264 . S
C64 O47 1.256 . S
C64 C57 1.496 . S
C65 C32 1.448 . S
C65 H42 0.930 . S
C65 C66 1.328 . S
C66 C37 1.427 . S
C66 H43 0.929 . S
C66 C65 1.328 . S
C67 O51 1.264 . S
C67 O52 1.243 . S
C68 C71 1.399 . S
C68 C72 1.383 . S
C68 C75 1.496 . S
C69 C70 1.399 . S
C69 C72 1.389 . S
C70 C69 1.399 . S
C70 C73 1.380 . S
C70 H80 0.929 . S
C71 C68 1.399 . S
C71 C73 1.392 . S
C71 H81 0.929 . S
C72 C68 1.383 . S
C72 C69 1.389 . S
C72 H82 0.931 . S
C73 C70 1.380 . S
C73 C71 1.392 . S
C73 H83 0.929 . S
C74 O54 1.266 . S
C74 O55 1.248 . S
C75 Tb11 2.802 . S
C75 O50 1.264 . S
C75 O53 1.256 . S
C75 C68 1.496 . S
H76 C59 0.929 . S
H77 C60 0.929 . S
H78 C61 0.929 . S
H79 C62 0.931 . S
H80 C70 0.929 . S
H81 C71 0.929 . S
H82 C72 0.931 . S
H83 C73 0.929 . S
Tb84 N113 2.617 . S
Tb84 N119 2.572 . S
Tb84 O128 2.465 . S
Tb84 O129 2.387 . S
Tb84 O131 2.428 . S
Tb84 O132 2.308 . S
Tb84 O136 2.349 . S
Tb84 O139 2.393 . S
Tb84 C148 2.802 . S
C85 N86 1.379 . S
C85 C88 1.416 . S
C85 C92 1.424 . S
N86 C85 1.379 . S
N86 C89 1.334 . S
N86 Tb95 2.617 . S
C87 C89 1.390 . S
C87 C90 1.339 . S
C87 H107 0.930 . S
C88 C85 1.416 . S
C88 C90 1.416 . S
C88 C94 1.448 . S
C89 N86 1.334 . S
C89 C87 1.390 . S
C89 H100 0.930 . S
C90 C87 1.339 . S
C90 C88 1.416 . S
C90 H111 0.930 . S
C91 C92 1.413 . S
C91 C93 1.427 . S
C91 C97 1.416 . S
C92 C85 1.424 . S
C92 C91 1.413 . S
C92 N96 1.361 . S
C93 C91 1.427 . S
C93 C94 1.328 . S
C93 H108 0.929 . S
C94 C88 1.448 . S
C94 C93 1.328 . S
C94 H109 0.930 . S
Tb95 N86 2.617 . S
Tb95 N96 2.572 . S
Tb95 O130 2.349 . S
Tb95 O133 2.393 . S
Tb95 O134 2.465 . S
Tb95 O135 2.387 . S
Tb95 O137 2.428 . S
Tb95 O138 2.308 . S
Tb95 C159 2.802 . S
N96 C92 1.361 . S
N96 Tb95 2.572 . S
N96 C98 1.340 . S
C97 C91 1.416 . S
C97 C99 1.332 . S
C97 H105 0.931 . S
C98 N96 1.340 . S
C98 C99 1.407 . S
C98 H104 0.930 . S
C99 C97 1.332 . S
C99 C98 1.407 . S
C99 H101 0.929 . S
H100 C89 0.930 . S
H101 C99 0.929 . S
H102 C117 0.930 . S
H103 C124 0.929 . S
H104 C98 0.930 . S
H105 C97 0.931 . S
H106 C120 0.930 . S
H107 C87 0.930 . S
H108 C93 0.929 . S
H109 C94 0.930 . S
H110 C115 0.930 . S
H111 C90 0.930 . S
H112 C123 0.931 . S
N113 Tb84 2.617 . S
N113 C114 1.379 . S
N113 C117 1.334 . S
C114 N113 1.379 . S
C114 C116 1.416 . S
C114 C122 1.424 . S
C115 H110 0.930 . S
C115 C117 1.390 . S
C115 C118 1.339 . S
C116 C114 1.416 . S
C116 C118 1.416 . S
C116 C149 1.448 . S
C117 H102 0.930 . S
C117 N113 1.334 . S
C117 C115 1.390 . S
C118 C115 1.339 . S
C118 C116 1.416 . S
C118 H125 0.930 . S
N119 Tb84 2.572 . S
N119 C120 1.340 . S
N119 C122 1.361 . S
C120 H106 0.930 . S
C120 N119 1.340 . S
C120 C124 1.407 . S
C121 C122 1.413 . S
C121 C123 1.416 . S
C121 C150 1.427 . S
C122 C114 1.424 . S
C122 N119 1.361 . S
C122 C121 1.413 . S
C123 H112 0.931 . S
C123 C121 1.416 . S
C123 C124 1.332 . S
C124 H103 0.929 . S
C124 C120 1.407 . S
C124 C123 1.332 . S
H125 C118 0.930 . S
H126 C149 0.930 . S
H127 C150 0.929 1_455 S
O128 Tb84 2.465 . S
O128 C148 1.264 . S
O129 Tb84 2.387 . S
O129 C140 1.264 . S
O130 Tb95 2.349 . S
O130 C140 1.243 . S
O131 Tb84 2.428 . S
O131 C148 1.256 . S
O132 Tb84 2.308 . S
O132 C147 1.266 . S
O133 Tb95 2.393 . S
O133 C147 1.248 . S
O134 Tb95 2.465 . S
O134 C159 1.264 . S
O135 Tb95 2.387 . S
O135 C151 1.264 . S
O136 Tb84 2.349 . S
O136 C151 1.243 . S
O137 Tb95 2.428 . S
O137 C159 1.256 . S
O138 Tb95 2.308 . S
O138 C158 1.266 . S
O139 Tb84 2.393 . S
O139 C158 1.248 . S
C140 O129 1.264 . S
C140 O130 1.243 . S
C141 C144 1.399 . S
C141 C146 1.383 . S
C141 C148 1.496 . S
C142 C143 1.399 . S
C142 C146 1.389 . S
C143 C142 1.399 . S
C143 C145 1.380 . S
C143 H160 0.929 . S
C144 C141 1.399 . S
C144 C145 1.392 . S
C144 H161 0.929 . S
C145 C143 1.380 . S
C145 C144 1.392 . S
C145 H162 0.929 . S
C146 C141 1.383 . S
C146 C142 1.389 . S
C146 H163 0.931 . S
C147 O132 1.266 . S
C147 O133 1.248 . S
C148 Tb84 2.802 . S
C148 O128 1.264 . S
C148 O131 1.256 . S
C148 C141 1.496 . S
C149 C116 1.448 . S
C149 H126 0.930 . S
C149 C150 1.328 . S
C150 C121 1.427 . S
C150 H127 0.929 1_655 S
C150 C149 1.328 . S
C151 O135 1.264 . S
C151 O136 1.243 . S
C152 C155 1.399 . S
C152 C156 1.383 . S
C152 C159 1.496 . S
C153 C154 1.399 . S
C153 C156 1.389 . S
C154 C153 1.399 . S
C154 C157 1.380 . S
C154 H164 0.929 . S
C155 C152 1.399 . S
C155 C157 1.392 . S
C155 H165 0.929 . S
C156 C152 1.383 . S
C156 C153 1.389 . S
C156 H166 0.931 . S
C157 C154 1.380 . S
C157 C155 1.392 . S
C157 H167 0.929 . S
C158 O138 1.266 . S
C158 O139 1.248 . S
C159 Tb95 2.802 . S
C159 O134 1.264 . S
C159 O137 1.256 . S
C159 C152 1.496 . S
H160 C143 0.929 . S
H161 C144 0.929 . S
H162 C145 0.929 . S
H163 C146 0.931 . S
H164 C154 0.929 . S
H165 C155 0.929 . S
H166 C156 0.931 . S
H167 C157 0.929 . S
Tb168 N197 2.617 . S
Tb168 N203 2.572 . S
Tb168 O212 2.465 . S
Tb168 O213 2.387 . S
Tb168 O215 2.428 . S
Tb168 O216 2.308 . S
Tb168 O220 2.349 . S
Tb168 O223 2.393 . S
Tb168 C232 2.802 . S
C169 N170 1.379 . S
C169 C172 1.416 . S
C169 C176 1.424 . S
N170 C169 1.379 . S
N170 C173 1.334 . S
N170 Tb179 2.617 . S
C171 C173 1.390 . S
C171 C174 1.339 . S
C171 H191 0.930 . S
C172 C169 1.416 . S
C172 C174 1.416 . S
C172 C178 1.448 . S
C173 N170 1.334 . S
C173 C171 1.390 . S
C173 H184 0.930 . S
C174 C171 1.339 . S
C174 C172 1.416 . S
C174 H195 0.930 . S
C175 C176 1.413 . S
C175 C177 1.427 . S
C175 C181 1.416 . S
C176 C169 1.424 . S
C176 C175 1.413 . S
C176 N180 1.361 . S
C177 C175 1.427 . S
C177 C178 1.328 . S
C177 H192 0.929 1_545 S
C178 C172 1.448 . S
C178 C177 1.328 . S
C178 H193 0.930 . S
Tb179 N170 2.617 . S
Tb179 N180 2.572 . S
Tb179 O214 2.349 . S
Tb179 O217 2.393 . S
Tb179 O218 2.465 . S
Tb179 O219 2.387 . S
Tb179 O221 2.428 . S
Tb179 O222 2.308 . S
Tb179 C243 2.802 . S
N180 C176 1.361 . S
N180 Tb179 2.572 . S
N180 C182 1.340 . S
C181 C175 1.416 . S
C181 C183 1.332 . S
C181 H189 0.931 . S
C182 N180 1.340 . S
C182 C183 1.407 . S
C182 H188 0.930 . S
C183 C181 1.332 . S
C183 C182 1.407 . S
C183 H185 0.929 . S
H184 C173 0.930 . S
H185 C183 0.929 . S
H186 C201 0.930 . S
H187 C208 0.929 . S
H188 C182 0.930 . S
H189 C181 0.931 . S
H190 C204 0.930 . S
H191 C171 0.930 . S
H192 C177 0.929 1_565 S
H193 C178 0.930 . S
H194 C199 0.930 . S
H195 C174 0.930 . S
H196 C207 0.931 . S
N197 Tb168 2.617 . S
N197 C198 1.379 . S
N197 C201 1.334 . S
C198 N197 1.379 . S
C198 C200 1.416 . S
C198 C206 1.424 . S
C199 H194 0.930 . S
C199 C201 1.390 . S
C199 C202 1.339 . S
C200 C198 1.416 . S
C200 C202 1.416 . S
C200 C233 1.448 . S
C201 H186 0.930 . S
C201 N197 1.334 . S
C201 C199 1.390 . S
C202 C199 1.339 . S
C202 C200 1.416 . S
C202 H209 0.930 . S
N203 Tb168 2.572 . S
N203 C204 1.340 . S
N203 C206 1.361 . S
C204 H190 0.930 . S
C204 N203 1.340 . S
C204 C208 1.407 . S
C205 C206 1.413 . S
C205 C207 1.416 . S
C205 C234 1.427 . S
C206 C198 1.424 . S
C206 N203 1.361 . S
C206 C205 1.413 . S
C207 H196 0.931 . S
C207 C205 1.416 . S
C207 C208 1.332 . S
C208 H187 0.929 . S
C208 C204 1.407 . S
C208 C207 1.332 . S
H209 C202 0.930 . S
H210 C233 0.930 . S
H211 C234 0.929 . S
O212 Tb168 2.465 . S
O212 C232 1.264 . S
O213 Tb168 2.387 . S
O213 C224 1.264 . S
O214 Tb179 2.349 . S
O214 C224 1.243 . S
O215 Tb168 2.428 . S
O215 C232 1.256 . S
O216 Tb168 2.308 . S
O216 C231 1.266 . S
O217 Tb179 2.393 . S
O217 C231 1.248 . S
O218 Tb179 2.465 . S
O218 C243 1.264 . S
O219 Tb179 2.387 . S
O219 C235 1.264 . S
O220 Tb168 2.349 . S
O220 C235 1.243 . S
O221 Tb179 2.428 . S
O221 C243 1.256 . S
O222 Tb179 2.308 . S
O222 C242 1.266 . S
O223 Tb168 2.393 . S
O223 C242 1.248 . S
C224 O213 1.264 . S
C224 O214 1.243 . S
C225 C228 1.399 . S
C225 C230 1.383 . S
C225 C232 1.496 . S
C226 C227 1.399 . S
C226 C230 1.389 1_455 S
C227 C226 1.399 . S
C227 C229 1.380 . S
C227 H244 0.929 . S
C228 C225 1.399 . S
C228 C229 1.392 1_655 S
C228 H245 0.929 . S
C229 C227 1.380 . S
C229 C228 1.392 1_455 S
C229 H246 0.929 . S
C230 C225 1.383 . S
C230 C226 1.389 1_655 S
C230 H247 0.931 . S
C231 O216 1.266 . S
C231 O217 1.248 . S
C232 Tb168 2.802 . S
C232 O212 1.264 . S
C232 O215 1.256 . S
C232 C225 1.496 . S
C233 C200 1.448 . S
C233 H210 0.930 . S
C233 C234 1.328 . S
C234 C205 1.427 . S
C234 H211 0.929 . S
C234 C233 1.328 . S
C235 O219 1.264 . S
C235 O220 1.243 . S
C236 C239 1.399 . S
C236 C240 1.383 . S
C236 C243 1.496 . S
C237 C238 1.399 . S
C237 C240 1.389 . S
C238 C237 1.399 . S
C238 C241 1.380 . S
C238 H248 0.929 . S
C239 C236 1.399 . S
C239 C241 1.392 . S
C239 H249 0.929 . S
C240 C236 1.383 . S
C240 C237 1.389 . S
C240 H250 0.931 . S
C241 C238 1.380 . S
C241 C239 1.392 . S
C241 H251 0.929 . S
C242 O222 1.266 . S
C242 O223 1.248 . S
C243 Tb179 2.802 . S
C243 O218 1.264 . S
C243 O221 1.256 . S
C243 C236 1.496 . S
H244 C227 0.929 . S
H245 C228 0.929 . S
H246 C229 0.929 . S
H247 C230 0.931 . S
H248 C238 0.929 . S
H249 C239 0.929 . S
H250 C240 0.931 . S
H251 C241 0.929 . S
Tb252 N281 2.617 . S
Tb252 N287 2.572 . S
Tb252 O296 2.465 . S
Tb252 O297 2.387 . S
Tb252 O299 2.428 . S
Tb252 O300 2.308 . S
Tb252 O304 2.349 . S
Tb252 O307 2.393 . S
Tb252 C316 2.802 . S
C253 N254 1.379 . S
C253 C256 1.416 . S
C253 C260 1.424 . S
N254 C253 1.379 . S
N254 C257 1.334 . S
N254 Tb263 2.617 . S
C255 C257 1.390 . S
C255 C258 1.339 . S
C255 H275 0.930 . S
C256 C253 1.416 . S
C256 C258 1.416 . S
C256 C262 1.448 . S
C257 N254 1.334 . S
C257 C255 1.390 . S
C257 H268 0.930 . S
C258 C255 1.339 . S
C258 C256 1.416 . S
C258 H279 0.930 . S
C259 C260 1.413 . S
C259 C261 1.427 . S
C259 C265 1.416 . S
C260 C253 1.424 . S
C260 C259 1.413 . S
C260 N264 1.361 . S
C261 C259 1.427 . S
C261 C262 1.328 . S
C261 H276 0.929 . S
C262 C256 1.448 . S
C262 C261 1.328 . S
C262 H277 0.930 . S
Tb263 N254 2.617 . S
Tb263 N264 2.572 . S
Tb263 O298 2.349 . S
Tb263 O301 2.393 . S
Tb263 O302 2.465 . S
Tb263 O303 2.387 . S
Tb263 O305 2.428 . S
Tb263 O306 2.308 . S
Tb263 C327 2.802 . S
N264 C260 1.361 . S
N264 Tb263 2.572 . S
N264 C266 1.340 . S
C265 C259 1.416 . S
C265 C267 1.332 . S
C265 H273 0.931 . S
C266 N264 1.340 . S
C266 C267 1.407 . S
C266 H272 0.930 . S
C267 C265 1.332 . S
C267 C266 1.407 . S
C267 H269 0.929 . S
H268 C257 0.930 . S
H269 C267 0.929 . S
H270 C285 0.930 . S
H271 C292 0.929 . S
H272 C266 0.930 . S
H273 C265 0.931 . S
H274 C288 0.930 . S
H275 C255 0.930 . S
H276 C261 0.929 . S
H277 C262 0.930 . S
H278 C283 0.930 . S
H279 C258 0.930 . S
H280 C291 0.931 . S
N281 Tb252 2.617 . S
N281 C282 1.379 . S
N281 C285 1.334 . S
C282 N281 1.379 . S
C282 C284 1.416 . S
C282 C290 1.424 . S
C283 H278 0.930 . S
C283 C285 1.390 . S
C283 C286 1.339 . S
C284 C282 1.416 . S
C284 C286 1.416 . S
C284 C317 1.448 . S
C285 H270 0.930 . S
C285 N281 1.334 . S
C285 C283 1.390 . S
C286 C283 1.339 . S
C286 C284 1.416 . S
C286 H293 0.930 . S
N287 Tb252 2.572 . S
N287 C288 1.340 . S
N287 C290 1.361 . S
C288 H274 0.930 . S
C288 N287 1.340 . S
C288 C292 1.407 . S
C289 C290 1.413 . S
C289 C291 1.416 . S
C289 C318 1.427 . S
C290 C282 1.424 . S
C290 N287 1.361 . S
C290 C289 1.413 . S
C291 H280 0.931 . S
C291 C289 1.416 . S
C291 C292 1.332 . S
C292 H271 0.929 . S
C292 C288 1.407 . S
C292 C291 1.332 . S
H293 C286 0.930 . S
H294 C317 0.930 . S
H295 C318 0.929 . S
O296 Tb252 2.465 . S
O296 C316 1.264 . S
O297 Tb252 2.387 . S
O297 C308 1.264 . S
O298 Tb263 2.349 . S
O298 C308 1.243 . S
O299 Tb252 2.428 . S
O299 C316 1.256 . S
O300 Tb252 2.308 . S
O300 C315 1.266 . S
O301 Tb263 2.393 . S
O301 C315 1.248 . S
O302 Tb263 2.465 . S
O302 C327 1.264 . S
O303 Tb263 2.387 . S
O303 C319 1.264 . S
O304 Tb252 2.349 . S
O304 C319 1.243 . S
O305 Tb263 2.428 . S
O305 C327 1.256 . S
O306 Tb263 2.308 . S
O306 C326 1.266 . S
O307 Tb252 2.393 . S
O307 C326 1.248 . S
C308 O297 1.264 . S
C308 O298 1.243 . S
C309 C312 1.399 . S
C309 C314 1.383 . S
C309 C316 1.496 . S
C310 C311 1.399 . S
C310 C314 1.389 . S
C311 C310 1.399 . S
C311 C313 1.380 . S
C311 H328 0.929 . S
C312 C309 1.399 . S
C312 C313 1.392 . S
C312 H329 0.929 . S
C313 C311 1.380 . S
C313 C312 1.392 . S
C313 H330 0.929 . S
C314 C309 1.383 . S
C314 C310 1.389 . S
C314 H331 0.931 . S
C315 O300 1.266 . S
C315 O301 1.248 . S
C316 Tb252 2.802 . S
C316 O296 1.264 . S
C316 O299 1.256 . S
C316 C309 1.496 . S
C317 C284 1.448 . S
C317 H294 0.930 . S
C317 C318 1.328 . S
C318 C289 1.427 . S
C318 H295 0.929 . S
C318 C317 1.328 . S
C319 O303 1.264 . S
C319 O304 1.243 . S
C320 C323 1.399 . S
C320 C324 1.383 . S
C320 C327 1.496 . S
C321 C322 1.399 . S
C321 C324 1.389 1_565 S
C322 C321 1.399 . S
C322 C325 1.380 . S
C322 H332 0.929 . S
C323 C320 1.399 . S
C323 C325 1.392 1_545 S
C323 H333 0.929 . S
C324 C320 1.383 . S
C324 C321 1.389 1_545 S
C324 H334 0.931 . S
C325 C322 1.380 . S
C325 C323 1.392 1_565 S
C325 H335 0.929 . S
C326 O306 1.266 . S
C326 O307 1.248 . S
C327 Tb263 2.802 . S
C327 O302 1.264 . S
C327 O305 1.256 . S
C327 C320 1.496 . S
H328 C311 0.929 . S
H329 C312 0.929 . S
H330 C313 0.929 . S
H331 C314 0.931 . S
H332 C322 0.929 . S
H333 C323 0.929 . S
H334 C324 0.931 . S
H335 C325 0.929 . S
Tb336 N365 2.617 . S
Tb336 N371 2.572 . S
Tb336 O380 2.465 . S
Tb336 O381 2.387 . S
Tb336 O383 2.428 . S
Tb336 O384 2.308 . S
Tb336 O388 2.349 . S
Tb336 O391 2.393 . S
Tb336 C400 2.802 . S
C337 N338 1.379 . S
C337 C340 1.416 . S
C337 C344 1.424 . S
N338 C337 1.379 . S
N338 C341 1.334 . S
N338 Tb347 2.617 . S
C339 C341 1.390 . S
C339 C342 1.339 . S
C339 H359 0.930 . S
C340 C337 1.416 . S
C340 C342 1.416 . S
C340 C346 1.448 . S
C341 N338 1.334 . S
C341 C339 1.390 . S
C341 H352 0.930 . S
C342 C339 1.339 . S
C342 C340 1.416 . S
C342 H363 0.930 . S
C343 C344 1.413 . S
C343 C345 1.427 . S
C343 C349 1.416 . S
C344 C337 1.424 . S
C344 C343 1.413 . S
C344 N348 1.361 . S
C345 C343 1.427 . S
C345 C346 1.328 . S
C345 H360 0.929 1_655 S
C346 C340 1.448 . S
C346 C345 1.328 . S
C346 H361 0.930 . S
Tb347 N338 2.617 . S
Tb347 N348 2.572 . S
Tb347 O382 2.349 . S
Tb347 O385 2.393 . S
Tb347 O386 2.465 . S
Tb347 O387 2.387 . S
Tb347 O389 2.428 . S
Tb347 O390 2.308 . S
Tb347 C411 2.802 . S
N348 C344 1.361 . S
N348 Tb347 2.572 . S
N348 C350 1.340 . S
C349 C343 1.416 . S
C349 C351 1.332 . S
C349 H357 0.931 . S
C350 N348 1.340 . S
C350 C351 1.407 . S
C350 H356 0.930 . S
C351 C349 1.332 . S
C351 C350 1.407 . S
C351 H353 0.929 . S
H352 C341 0.930 . S
H353 C351 0.929 . S
H354 C369 0.930 . S
H355 C376 0.929 . S
H356 C350 0.930 . S
H357 C349 0.931 . S
H358 C372 0.930 . S
H359 C339 0.930 . S
H360 C345 0.929 1_455 S
H361 C346 0.930 . S
H362 C367 0.930 . S
H363 C342 0.930 . S
H364 C375 0.931 . S
N365 Tb336 2.617 . S
N365 C366 1.379 . S
N365 C369 1.334 . S
C366 N365 1.379 . S
C366 C368 1.416 . S
C366 C374 1.424 . S
C367 H362 0.930 . S
C367 C369 1.390 . S
C367 C370 1.339 . S
C368 C366 1.416 . S
C368 C370 1.416 . S
C368 C401 1.448 . S
C369 H354 0.930 . S
C369 N365 1.334 . S
C369 C367 1.390 . S
C370 C367 1.339 . S
C370 C368 1.416 . S
C370 H377 0.930 . S
N371 Tb336 2.572 . S
N371 C372 1.340 . S
N371 C374 1.361 . S
C372 H358 0.930 . S
C372 N371 1.340 . S
C372 C376 1.407 . S
C373 C374 1.413 . S
C373 C375 1.416 . S
C373 C402 1.427 . S
C374 C366 1.424 . S
C374 N371 1.361 . S
C374 C373 1.413 . S
C375 H364 0.931 . S
C375 C373 1.416 . S
C375 C376 1.332 . S
C376 H355 0.929 . S
C376 C372 1.407 . S
C376 C375 1.332 . S
H377 C370 0.930 . S
H378 C401 0.930 . S
H379 C402 0.929 . S
O380 Tb336 2.465 . S
O380 C400 1.264 . S
O381 Tb336 2.387 . S
O381 C392 1.264 . S
O382 Tb347 2.349 . S
O382 C392 1.243 . S
O383 Tb336 2.428 . S
O383 C400 1.256 . S
O384 Tb336 2.308 . S
O384 C399 1.266 . S
O385 Tb347 2.393 . S
O385 C399 1.248 . S
O386 Tb347 2.465 . S
O386 C411 1.264 . S
O387 Tb347 2.387 . S
O387 C403 1.264 . S
O388 Tb336 2.349 . S
O388 C403 1.243 . S
O389 Tb347 2.428 . S
O389 C411 1.256 . S
O390 Tb347 2.308 . S
O390 C410 1.266 . S
O391 Tb336 2.393 . S
O391 C410 1.248 . S
C392 O381 1.264 . S
C392 O382 1.243 . S
C393 C396 1.399 . S
C393 C398 1.383 . S
C393 C400 1.496 . S
C394 C395 1.399 . S
C394 C398 1.389 . S
C395 C394 1.399 . S
C395 C397 1.380 . S
C395 H412 0.929 . S
C396 C393 1.399 . S
C396 C397 1.392 . S
C396 H413 0.929 . S
C397 C395 1.380 . S
C397 C396 1.392 . S
C397 H414 0.929 . S
C398 C393 1.383 . S
C398 C394 1.389 . S
C398 H415 0.931 . S
C399 O384 1.266 . S
C399 O385 1.248 . S
C400 Tb336 2.802 . S
C400 O380 1.264 . S
C400 O383 1.256 . S
C400 C393 1.496 . S
C401 C368 1.448 . S
C401 H378 0.930 . S
C401 C402 1.328 . S
C402 C373 1.427 . S
C402 H379 0.929 . S
C402 C401 1.328 . S
C403 O387 1.264 . S
C403 O388 1.243 . S
C404 C407 1.399 . S
C404 C408 1.383 . S
C404 C411 1.496 . S
C405 C406 1.399 . S
C405 C408 1.389 . S
C406 C405 1.399 . S
C406 C409 1.380 . S
C406 H416 0.929 . S
C407 C404 1.399 . S
C407 C409 1.392 . S
C407 H417 0.929 . S
C408 C404 1.383 . S
C408 C405 1.389 . S
C408 H418 0.931 . S
C409 C406 1.380 . S
C409 C407 1.392 . S
C409 H419 0.929 . S
C410 O390 1.266 . S
C410 O391 1.248 . S
C411 Tb347 2.802 . S
C411 O386 1.264 . S
C411 O389 1.256 . S
C411 C404 1.496 . S
H412 C395 0.929 . S
H413 C396 0.929 . S
H414 C397 0.929 . S
H415 C398 0.931 . S
H416 C406 0.929 . S
H417 C407 0.929 . S
H418 C408 0.931 . S
H419 C409 0.929 . S
Tb420 N449 2.617 . S
Tb420 N455 2.572 . S
Tb420 O464 2.465 . S
Tb420 O465 2.387 . S
Tb420 O467 2.428 . S
Tb420 O468 2.308 . S
Tb420 O472 2.349 . S
Tb420 O475 2.393 . S
Tb420 C484 2.802 . S
C421 N422 1.379 . S
C421 C424 1.416 . S
C421 C428 1.424 . S
N422 C421 1.379 . S
N422 C425 1.334 . S
N422 Tb431 2.617 . S
C423 C425 1.390 . S
C423 C426 1.339 . S
C423 H443 0.930 . S
C424 C421 1.416 . S
C424 C426 1.416 . S
C424 C430 1.448 . S
C425 N422 1.334 . S
C425 C423 1.390 . S
C425 H436 0.930 . S
C426 C423 1.339 . S
C426 C424 1.416 . S
C426 H447 0.930 . S
C427 C428 1.413 . S
C427 C429 1.427 . S
C427 C433 1.416 . S
C428 C421 1.424 . S
C428 C427 1.413 . S
C428 N432 1.361 . S
C429 C427 1.427 . S
C429 C430 1.328 . S
C429 H444 0.929 . S
C430 C424 1.448 . S
C430 C429 1.328 . S
C430 H445 0.930 . S
Tb431 N422 2.617 . S
Tb431 N432 2.572 . S
Tb431 O466 2.349 . S
Tb431 O469 2.393 . S
Tb431 O470 2.465 . S
Tb431 O471 2.387 . S
Tb431 O473 2.428 . S
Tb431 O474 2.308 . S
Tb431 C495 2.802 . S
N432 C428 1.361 . S
N432 Tb431 2.572 . S
N432 C434 1.340 . S
C433 C427 1.416 . S
C433 C435 1.332 . S
C433 H441 0.931 . S
C434 N432 1.340 . S
C434 C435 1.407 . S
C434 H440 0.930 . S
C435 C433 1.332 . S
C435 C434 1.407 . S
C435 H437 0.929 . S
H436 C425 0.930 . S
H437 C435 0.929 . S
H438 C453 0.930 . S
H439 C460 0.929 . S
H440 C434 0.930 . S
H441 C433 0.931 . S
H442 C456 0.930 . S
H443 C423 0.930 . S
H444 C429 0.929 . S
H445 C430 0.930 . S
H446 C451 0.930 . S
H447 C426 0.930 . S
H448 C459 0.931 . S
N449 Tb420 2.617 . S
N449 C450 1.379 . S
N449 C453 1.334 . S
C450 N449 1.379 . S
C450 C452 1.416 . S
C450 C458 1.424 . S
C451 H446 0.930 . S
C451 C453 1.390 . S
C451 C454 1.339 . S
C452 C450 1.416 . S
C452 C454 1.416 . S
C452 C485 1.448 . S
C453 H438 0.930 . S
C453 N449 1.334 . S
C453 C451 1.390 . S
C454 C451 1.339 . S
C454 C452 1.416 . S
C454 H461 0.930 . S
N455 Tb420 2.572 . S
N455 C456 1.340 . S
N455 C458 1.361 . S
C456 H442 0.930 . S
C456 N455 1.340 . S
C456 C460 1.407 . S
C457 C458 1.413 . S
C457 C459 1.416 . S
C457 C486 1.427 . S
C458 C450 1.424 . S
C458 N455 1.361 . S
C458 C457 1.413 . S
C459 H448 0.931 . S
C459 C457 1.416 . S
C459 C460 1.332 . S
C460 H439 0.929 . S
C460 C456 1.407 . S
C460 C459 1.332 . S
H461 C454 0.930 . S
H462 C485 0.930 . S
H463 C486 0.929 1_565 S
O464 Tb420 2.465 . S
O464 C484 1.264 . S
O465 Tb420 2.387 . S
O465 C476 1.264 . S
O466 Tb431 2.349 . S
O466 C476 1.243 . S
O467 Tb420 2.428 . S
O467 C484 1.256 . S
O468 Tb420 2.308 . S
O468 C483 1.266 . S
O469 Tb431 2.393 . S
O469 C483 1.248 . S
O470 Tb431 2.465 . S
O470 C495 1.264 . S
O471 Tb431 2.387 . S
O471 C487 1.264 . S
O472 Tb420 2.349 . S
O472 C487 1.243 . S
O473 Tb431 2.428 . S
O473 C495 1.256 . S
O474 Tb431 2.308 . S
O474 C494 1.266 . S
O475 Tb420 2.393 . S
O475 C494 1.248 . S
C476 O465 1.264 . S
C476 O466 1.243 . S
C477 C480 1.399 . S
C477 C482 1.383 . S
C477 C484 1.496 . S
C478 C479 1.399 . S
C478 C482 1.389 . S
C479 C478 1.399 . S
C479 C481 1.380 . S
C479 H496 0.929 . S
C480 C477 1.399 . S
C480 C481 1.392 . S
C480 H497 0.929 . S
C481 C479 1.380 . S
C481 C480 1.392 . S
C481 H498 0.929 . S
C482 C477 1.383 . S
C482 C478 1.389 . S
C482 H499 0.931 . S
C483 O468 1.266 . S
C483 O469 1.248 . S
C484 Tb420 2.802 . S
C484 O464 1.264 . S
C484 O467 1.256 . S
C484 C477 1.496 . S
C485 C452 1.448 . S
C485 H462 0.930 . S
C485 C486 1.328 . S
C486 C457 1.427 . S
C486 H463 0.929 1_545 S
C486 C485 1.328 . S
C487 O471 1.264 . S
C487 O472 1.243 . S
C488 C491 1.399 . S
C488 C492 1.383 . S
C488 C495 1.496 . S
C489 C490 1.399 . S
C489 C492 1.389 1_455 S
C490 C489 1.399 . S
C490 C493 1.380 . S
C490 H500 0.929 . S
C491 C488 1.399 . S
C491 C493 1.392 1_655 S
C491 H501 0.929 . S
C492 C488 1.383 . S
C492 C489 1.389 1_655 S
C492 H502 0.931 . S
C493 C490 1.380 . S
C493 C491 1.392 1_455 S
C493 H503 0.929 . S
C494 O474 1.266 . S
C494 O475 1.248 . S
C495 Tb431 2.802 . S
C495 O470 1.264 . S
C495 O473 1.256 . S
C495 C488 1.496 . S
H496 C479 0.929 . S
H497 C480 0.929 . S
H498 C481 0.929 . S
H499 C482 0.931 . S
H500 C490 0.929 . S
H501 C491 0.929 . S
H502 C492 0.931 . S
H503 C493 0.929 . S
Tb504 N533 2.617 . S
Tb504 N539 2.572 . S
Tb504 O548 2.465 . S
Tb504 O549 2.387 . S
Tb504 O551 2.428 . S
Tb504 O552 2.308 . S
Tb504 O556 2.349 . S
Tb504 O559 2.393 . S
Tb504 C568 2.802 . S
C505 N506 1.379 . S
C505 C508 1.416 . S
C505 C512 1.424 . S
N506 C505 1.379 . S
N506 C509 1.334 . S
N506 Tb515 2.617 . S
C507 C509 1.390 . S
C507 C510 1.339 . S
C507 H527 0.930 . S
C508 C505 1.416 . S
C508 C510 1.416 . S
C508 C514 1.448 . S
C509 N506 1.334 . S
C509 C507 1.390 . S
C509 H520 0.930 . S
C510 C507 1.339 . S
C510 C508 1.416 . S
C510 H531 0.930 . S
C511 C512 1.413 . S
C511 C513 1.427 . S
C511 C517 1.416 . S
C512 C505 1.424 . S
C512 C511 1.413 . S
C512 N516 1.361 . S
C513 C511 1.427 . S
C513 C514 1.328 . S
C513 H528 0.929 . S
C514 C508 1.448 . S
C514 C513 1.328 . S
C514 H529 0.930 . S
Tb515 N506 2.617 . S
Tb515 N516 2.572 . S
Tb515 O550 2.349 . S
Tb515 O553 2.393 . S
Tb515 O554 2.465 . S
Tb515 O555 2.387 . S
Tb515 O557 2.428 . S
Tb515 O558 2.308 . S
Tb515 C579 2.802 . S
N516 C512 1.361 . S
N516 Tb515 2.572 . S
N516 C518 1.340 . S
C517 C511 1.416 . S
C517 C519 1.332 . S
C517 H525 0.931 . S
C518 N516 1.340 . S
C518 C519 1.407 . S
C518 H524 0.930 . S
C519 C517 1.332 . S
C519 C518 1.407 . S
C519 H521 0.929 . S
H520 C509 0.930 . S
H521 C519 0.929 . S
H522 C537 0.930 . S
H523 C544 0.929 . S
H524 C518 0.930 . S
H525 C517 0.931 . S
H526 C540 0.930 . S
H527 C507 0.930 . S
H528 C513 0.929 . S
H529 C514 0.930 . S
H530 C535 0.930 . S
H531 C510 0.930 . S
H532 C543 0.931 . S
N533 Tb504 2.617 . S
N533 C534 1.379 . S
N533 C537 1.334 . S
C534 N533 1.379 . S
C534 C536 1.416 . S
C534 C542 1.424 . S
C535 H530 0.930 . S
C535 C537 1.390 . S
C535 C538 1.339 . S
C536 C534 1.416 . S
C536 C538 1.416 . S
C536 C569 1.448 . S
C537 H522 0.930 . S
C537 N533 1.334 . S
C537 C535 1.390 . S
C538 C535 1.339 . S
C538 C536 1.416 . S
C538 H545 0.930 . S
N539 Tb504 2.572 . S
N539 C540 1.340 . S
N539 C542 1.361 . S
C540 H526 0.930 . S
C540 N539 1.340 . S
C540 C544 1.407 . S
C541 C542 1.413 . S
C541 C543 1.416 . S
C541 C570 1.427 . S
C542 C534 1.424 . S
C542 N539 1.361 . S
C542 C541 1.413 . S
C543 H532 0.931 . S
C543 C541 1.416 . S
C543 C544 1.332 . S
C544 H523 0.929 . S
C544 C540 1.407 . S
C544 C543 1.332 . S
H545 C538 0.930 . S
H546 C569 0.930 . S
H547 C570 0.929 . S
O548 Tb504 2.465 . S
O548 C568 1.264 . S
O549 Tb504 2.387 . S
O549 C560 1.264 . S
O550 Tb515 2.349 . S
O550 C560 1.243 . S
O551 Tb504 2.428 . S
O551 C568 1.256 . S
O552 Tb504 2.308 . S
O552 C567 1.266 . S
O553 Tb515 2.393 . S
O553 C567 1.248 . S
O554 Tb515 2.465 . S
O554 C579 1.264 . S
O555 Tb515 2.387 . S
O555 C571 1.264 . S
O556 Tb504 2.349 . S
O556 C571 1.243 . S
O557 Tb515 2.428 . S
O557 C579 1.256 . S
O558 Tb515 2.308 . S
O558 C578 1.266 . S
O559 Tb504 2.393 . S
O559 C578 1.248 . S
C560 O549 1.264 . S
C560 O550 1.243 . S
C561 C564 1.399 . S
C561 C566 1.383 . S
C561 C568 1.496 . S
C562 C563 1.399 . S
C562 C566 1.389 . S
C563 C562 1.399 . S
C563 C565 1.380 . S
C563 H580 0.929 . S
C564 C561 1.399 . S
C564 C565 1.392 . S
C564 H581 0.929 . S
C565 C563 1.380 . S
C565 C564 1.392 . S
C565 H582 0.929 . S
C566 C561 1.383 . S
C566 C562 1.389 . S
C566 H583 0.931 . S
C567 O552 1.266 . S
C567 O553 1.248 . S
C568 Tb504 2.802 . S
C568 O548 1.264 . S
C568 O551 1.256 . S
C568 C561 1.496 . S
C569 C536 1.448 . S
C569 H546 0.930 . S
C569 C570 1.328 . S
C570 C541 1.427 . S
C570 H547 0.929 . S
C570 C569 1.328 . S
C571 O555 1.264 . S
C571 O556 1.243 . S
C572 C575 1.399 . S
C572 C576 1.383 . S
C572 C579 1.496 . S
C573 C574 1.399 . S
C573 C576 1.389 1_655 S
C574 C573 1.399 . S
C574 C577 1.380 . S
C574 H584 0.929 . S
C575 C572 1.399 . S
C575 C577 1.392 1_455 S
C575 H585 0.929 . S
C576 C572 1.383 . S
C576 C573 1.389 1_455 S
C576 H586 0.931 . S
C577 C574 1.380 . S
C577 C575 1.392 1_655 S
C577 H587 0.929 . S
C578 O558 1.266 . S
C578 O559 1.248 . S
C579 Tb515 2.802 . S
C579 O554 1.264 . S
C579 O557 1.256 . S
C579 C572 1.496 . S
H580 C563 0.929 . S
H581 C564 0.929 . S
H582 C565 0.929 . S
H583 C566 0.931 . S
H584 C574 0.929 . S
H585 C575 0.929 . S
H586 C576 0.931 . S
H587 C577 0.929 . S
Tb588 N617 2.617 . S
Tb588 N623 2.572 . S
Tb588 O632 2.465 . S
Tb588 O633 2.387 . S
Tb588 O635 2.428 . S
Tb588 O636 2.308 . S
Tb588 O640 2.349 . S
Tb588 O643 2.393 . S
Tb588 C652 2.802 . S
C589 N590 1.379 . S
C589 C592 1.416 . S
C589 C596 1.424 . S
N590 C589 1.379 . S
N590 C593 1.334 . S
N590 Tb599 2.617 . S
C591 C593 1.390 . S
C591 C594 1.339 . S
C591 H611 0.930 . S
C592 C589 1.416 . S
C592 C594 1.416 . S
C592 C598 1.448 . S
C593 N590 1.334 . S
C593 C591 1.390 . S
C593 H604 0.930 . S
C594 C591 1.339 . S
C594 C592 1.416 . S
C594 H615 0.930 . S
C595 C596 1.413 . S
C595 C597 1.427 . S
C595 C601 1.416 . S
C596 C589 1.424 . S
C596 C595 1.413 . S
C596 N600 1.361 . S
C597 C595 1.427 . S
C597 C598 1.328 . S
C597 H612 0.929 1_455 S
C598 C592 1.448 . S
C598 C597 1.328 . S
C598 H613 0.930 . S
Tb599 N590 2.617 . S
Tb599 N600 2.572 . S
Tb599 O634 2.349 . S
Tb599 O637 2.393 . S
Tb599 O638 2.465 . S
Tb599 O639 2.387 . S
Tb599 O641 2.428 . S
Tb599 O642 2.308 . S
Tb599 C663 2.802 . S
N600 C596 1.361 . S
N600 Tb599 2.572 . S
N600 C602 1.340 . S
C601 C595 1.416 . S
C601 C603 1.332 . S
C601 H609 0.931 . S
C602 N600 1.340 . S
C602 C603 1.407 . S
C602 H608 0.930 . S
C603 C601 1.332 . S
C603 C602 1.407 . S
C603 H605 0.929 . S
H604 C593 0.930 . S
H605 C603 0.929 . S
H606 C621 0.930 . S
H607 C628 0.929 . S
H608 C602 0.930 . S
H609 C601 0.931 . S
H610 C624 0.930 . S
H611 C591 0.930 . S
H612 C597 0.929 1_655 S
H613 C598 0.930 . S
H614 C619 0.930 . S
H615 C594 0.930 . S
H616 C627 0.931 . S
N617 Tb588 2.617 . S
N617 C618 1.379 . S
N617 C621 1.334 . S
C618 N617 1.379 . S
C618 C620 1.416 . S
C618 C626 1.424 . S
C619 H614 0.930 . S
C619 C621 1.390 . S
C619 C622 1.339 . S
C620 C618 1.416 . S
C620 C622 1.416 . S
C620 C653 1.448 . S
C621 H606 0.930 . S
C621 N617 1.334 . S
C621 C619 1.390 . S
C622 C619 1.339 . S
C622 C620 1.416 . S
C622 H629 0.930 . S
N623 Tb588 2.572 . S
N623 C624 1.340 . S
N623 C626 1.361 . S
C624 H610 0.930 . S
C624 N623 1.340 . S
C624 C628 1.407 . S
C625 C626 1.413 . S
C625 C627 1.416 . S
C625 C654 1.427 . S
C626 C618 1.424 . S
C626 N623 1.361 . S
C626 C625 1.413 . S
C627 H616 0.931 . S
C627 C625 1.416 . S
C627 C628 1.332 . S
C628 H607 0.929 . S
C628 C624 1.407 . S
C628 C627 1.332 . S
H629 C622 0.930 . S
H630 C653 0.930 . S
H631 C654 0.929 . S
O632 Tb588 2.465 . S
O632 C652 1.264 . S
O633 Tb588 2.387 . S
O633 C644 1.264 . S
O634 Tb599 2.349 . S
O634 C644 1.243 . S
O635 Tb588 2.428 . S
O635 C652 1.256 . S
O636 Tb588 2.308 . S
O636 C651 1.266 . S
O637 Tb599 2.393 . S
O637 C651 1.248 . S
O638 Tb599 2.465 . S
O638 C663 1.264 . S
O639 Tb599 2.387 . S
O639 C655 1.264 . S
O640 Tb588 2.349 . S
O640 C655 1.243 . S
O641 Tb599 2.428 . S
O641 C663 1.256 . S
O642 Tb599 2.308 . S
O642 C662 1.266 . S
O643 Tb588 2.393 . S
O643 C662 1.248 . S
C644 O633 1.264 . S
C644 O634 1.243 . S
C645 C648 1.399 . S
C645 C650 1.383 . S
C645 C652 1.496 . S
C646 C647 1.399 . S
C646 C650 1.389 1_545 S
C647 C646 1.399 . S
C647 C649 1.380 . S
C647 H664 0.929 . S
C648 C645 1.399 . S
C648 C649 1.392 1_565 S
C648 H665 0.929 . S
C649 C647 1.380 . S
C649 C648 1.392 1_545 S
C649 H666 0.929 . S
C650 C645 1.383 . S
C650 C646 1.389 1_565 S
C650 H667 0.931 . S
C651 O636 1.266 . S
C651 O637 1.248 . S
C652 Tb588 2.802 . S
C652 O632 1.264 . S
C652 O635 1.256 . S
C652 C645 1.496 . S
C653 C620 1.448 . S
C653 H630 0.930 . S
C653 C654 1.328 . S
C654 C625 1.427 . S
C654 H631 0.929 . S
C654 C653 1.328 . S
C655 O639 1.264 . S
C655 O640 1.243 . S
C656 C659 1.399 . S
C656 C660 1.383 . S
C656 C663 1.496 . S
C657 C658 1.399 . S
C657 C660 1.389 . S
C658 C657 1.399 . S
C658 C661 1.380 . S
C658 H668 0.929 . S
C659 C656 1.399 . S
C659 C661 1.392 . S
C659 H669 0.929 . S
C660 C656 1.383 . S
C660 C657 1.389 . S
C660 H670 0.931 . S
C661 C658 1.380 . S
C661 C659 1.392 . S
C661 H671 0.929 . S
C662 O642 1.266 . S
C662 O643 1.248 . S
C663 Tb599 2.802 . S
C663 O638 1.264 . S
C663 O641 1.256 . S
C663 C656 1.496 . S
H664 C647 0.929 . S
H665 C648 0.929 . S
H666 C649 0.929 . S
H667 C650 0.931 . S
H668 C658 0.929 . S
H669 C659 0.929 . S
H670 C660 0.931 . S
H671 C661 0.929 . S
Tb672 N701 2.617 . S
Tb672 N707 2.572 . S
Tb672 O716 2.465 . S
Tb672 O717 2.387 . S
Tb672 O719 2.428 . S
Tb672 O720 2.308 . S
Tb672 O724 2.349 . S
Tb672 O727 2.393 . S
Tb672 C736 2.802 . S
C673 N674 1.379 . S
C673 C676 1.416 . S
C673 C680 1.424 . S
N674 C673 1.379 . S
N674 C677 1.334 . S
N674 Tb683 2.617 . S
C675 C677 1.390 . S
C675 C678 1.339 . S
C675 H695 0.930 . S
C676 C673 1.416 . S
C676 C678 1.416 . S
C676 C682 1.448 . S
C677 N674 1.334 . S
C677 C675 1.390 . S
C677 H688 0.930 . S
C678 C675 1.339 . S
C678 C676 1.416 . S
C678 H699 0.930 . S
C679 C680 1.413 . S
C679 C681 1.427 . S
C679 C685 1.416 . S
C680 C673 1.424 . S
C680 C679 1.413 . S
C680 N684 1.361 . S
C681 C679 1.427 . S
C681 C682 1.328 . S
C681 H696 0.929 . S
C682 C676 1.448 . S
C682 C681 1.328 . S
C682 H697 0.930 . S
Tb683 N674 2.617 . S
Tb683 N684 2.572 . S
Tb683 O718 2.349 . S
Tb683 O721 2.393 . S
Tb683 O722 2.465 . S
Tb683 O723 2.387 . S
Tb683 O725 2.428 . S
Tb683 O726 2.308 . S
Tb683 C747 2.802 . S
N684 C680 1.361 . S
N684 Tb683 2.572 . S
N684 C686 1.340 . S
C685 C679 1.416 . S
C685 C687 1.332 . S
C685 H693 0.931 . S
C686 N684 1.340 . S
C686 C687 1.407 . S
C686 H692 0.930 . S
C687 C685 1.332 . S
C687 C686 1.407 . S
C687 H689 0.929 . S
H688 C677 0.930 . S
H689 C687 0.929 . S
H690 C705 0.930 . S
H691 C712 0.929 . S
H692 C686 0.930 . S
H693 C685 0.931 . S
H694 C708 0.930 . S
H695 C675 0.930 . S
H696 C681 0.929 . S
H697 C682 0.930 . S
H698 C703 0.930 . S
H699 C678 0.930 . S
H700 C711 0.931 . S
N701 Tb672 2.617 . S
N701 C702 1.379 . S
N701 C705 1.334 . S
C702 N701 1.379 . S
C702 C704 1.416 . S
C702 C710 1.424 . S
C703 H698 0.930 . S
C703 C705 1.390 . S
C703 C706 1.339 . S
C704 C702 1.416 . S
C704 C706 1.416 . S
C704 C737 1.448 . S
C705 H690 0.930 . S
C705 N701 1.334 . S
C705 C703 1.390 . S
C706 C703 1.339 . S
C706 C704 1.416 . S
C706 H713 0.930 . S
N707 Tb672 2.572 . S
N707 C708 1.340 . S
N707 C710 1.361 . S
C708 H694 0.930 . S
C708 N707 1.340 . S
C708 C712 1.407 . S
C709 C710 1.413 . S
C709 C711 1.416 . S
C709 C738 1.427 . S
C710 C702 1.424 . S
C710 N707 1.361 . S
C710 C709 1.413 . S
C711 H700 0.931 . S
C711 C709 1.416 . S
C711 C712 1.332 . S
C712 H691 0.929 . S
C712 C708 1.407 . S
C712 C711 1.332 . S
H713 C706 0.930 . S
H714 C737 0.930 . S
H715 C738 0.929 1_545 S
O716 Tb672 2.465 . S
O716 C736 1.264 . S
O717 Tb672 2.387 . S
O717 C728 1.264 . S
O718 Tb683 2.349 . S
O718 C728 1.243 . S
O719 Tb672 2.428 . S
O719 C736 1.256 . S
O720 Tb672 2.308 . S
O720 C735 1.266 . S
O721 Tb683 2.393 . S
O721 C735 1.248 . S
O722 Tb683 2.465 . S
O722 C747 1.264 . S
O723 Tb683 2.387 . S
O723 C739 1.264 . S
O724 Tb672 2.349 . S
O724 C739 1.243 . S
O725 Tb683 2.428 . S
O725 C747 1.256 . S
O726 Tb683 2.308 . S
O726 C746 1.266 . S
O727 Tb672 2.393 . S
O727 C746 1.248 . S
C728 O717 1.264 . S
C728 O718 1.243 . S
C729 C732 1.399 . S
C729 C734 1.383 . S
C729 C736 1.496 . S
C730 C731 1.399 . S
C730 C734 1.389 . S
C731 C730 1.399 . S
C731 C733 1.380 . S
C731 H748 0.929 . S
C732 C729 1.399 . S
C732 C733 1.392 . S
C732 H749 0.929 . S
C733 C731 1.380 . S
C733 C732 1.392 . S
C733 H750 0.929 . S
C734 C729 1.383 . S
C734 C730 1.389 . S
C734 H751 0.931 . S
C735 O720 1.266 . S
C735 O721 1.248 . S
C736 Tb672 2.802 . S
C736 O716 1.264 . S
C736 O719 1.256 . S
C736 C729 1.496 . S
C737 C704 1.448 . S
C737 H714 0.930 . S
C737 C738 1.328 . S
C738 C709 1.427 . S
C738 H715 0.929 1_565 S
C738 C737 1.328 . S
C739 O723 1.264 . S
C739 O724 1.243 . S
C740 C743 1.399 . S
C740 C744 1.383 . S
C740 C747 1.496 . S
C741 C742 1.399 . S
C741 C744 1.389 . S
C742 C741 1.399 . S
C742 C745 1.380 . S
C742 H752 0.929 . S
C743 C740 1.399 . S
C743 C745 1.392 . S
C743 H753 0.929 . S
C744 C740 1.383 . S
C744 C741 1.389 . S
C744 H754 0.931 . S
C745 C742 1.380 . S
C745 C743 1.392 . S
C745 H755 0.929 . S
C746 O726 1.266 . S
C746 O727 1.248 . S
C747 Tb683 2.802 . S
C747 O722 1.264 . S
C747 O725 1.256 . S
C747 C740 1.496 . S
H748 C731 0.929 . S
H749 C732 0.929 . S
H750 C733 0.929 . S
H751 C734 0.931 . S
H752 C742 0.929 . S
H753 C743 0.929 . S
H754 C744 0.931 . S
H755 C745 0.929 . S
Tb756 N785 2.617 . S
Tb756 N791 2.572 . S
Tb756 O800 2.465 . S
Tb756 O801 2.387 . S
Tb756 O803 2.428 . S
Tb756 O804 2.308 . S
Tb756 O808 2.349 . S
Tb756 O811 2.393 . S
Tb756 C820 2.802 . S
C757 N758 1.379 . S
C757 C760 1.416 . S
C757 C764 1.424 . S
N758 C757 1.379 . S
N758 C761 1.334 . S
N758 Tb767 2.617 . S
C759 C761 1.390 . S
C759 C762 1.339 . S
C759 H779 0.930 . S
C760 C757 1.416 . S
C760 C762 1.416 . S
C760 C766 1.448 . S
C761 N758 1.334 . S
C761 C759 1.390 . S
C761 H772 0.930 . S
C762 C759 1.339 . S
C762 C760 1.416 . S
C762 H783 0.930 . S
C763 C764 1.413 . S
C763 C765 1.427 . S
C763 C769 1.416 . S
C764 C757 1.424 . S
C764 C763 1.413 . S
C764 N768 1.361 . S
C765 C763 1.427 . S
C765 C766 1.328 . S
C765 H780 0.929 . S
C766 C760 1.448 . S
C766 C765 1.328 . S
C766 H781 0.930 . S
Tb767 N758 2.617 . S
Tb767 N768 2.572 . S
Tb767 O802 2.349 . S
Tb767 O805 2.393 . S
Tb767 O806 2.465 . S
Tb767 O807 2.387 . S
Tb767 O809 2.428 . S
Tb767 O810 2.308 . S
Tb767 C831 2.802 . S
N768 C764 1.361 . S
N768 Tb767 2.572 . S
N768 C770 1.340 . S
C769 C763 1.416 . S
C769 C771 1.332 . S
C769 H777 0.931 . S
C770 N768 1.340 . S
C770 C771 1.407 . S
C770 H776 0.930 . S
C771 C769 1.332 . S
C771 C770 1.407 . S
C771 H773 0.929 . S
H772 C761 0.930 . S
H773 C771 0.929 . S
H774 C789 0.930 . S
H775 C796 0.929 . S
H776 C770 0.930 . S
H777 C769 0.931 . S
H778 C792 0.930 . S
H779 C759 0.930 . S
H780 C765 0.929 . S
H781 C766 0.930 . S
H782 C787 0.930 . S
H783 C762 0.930 . S
H784 C795 0.931 . S
N785 Tb756 2.617 . S
N785 C786 1.379 . S
N785 C789 1.334 . S
C786 N785 1.379 . S
C786 C788 1.416 . S
C786 C794 1.424 . S
C787 H782 0.930 . S
C787 C789 1.390 . S
C787 C790 1.339 . S
C788 C786 1.416 . S
C788 C790 1.416 . S
C788 C821 1.448 . S
C789 H774 0.930 . S
C789 N785 1.334 . S
C789 C787 1.390 . S
C790 C787 1.339 . S
C790 C788 1.416 . S
C790 H797 0.930 . S
N791 Tb756 2.572 . S
N791 C792 1.340 . S
N791 C794 1.361 . S
C792 H778 0.930 . S
C792 N791 1.340 . S
C792 C796 1.407 . S
C793 C794 1.413 . S
C793 C795 1.416 . S
C793 C822 1.427 . S
C794 C786 1.424 . S
C794 N791 1.361 . S
C794 C793 1.413 . S
C795 H784 0.931 . S
C795 C793 1.416 . S
C795 C796 1.332 . S
C796 H775 0.929 . S
C796 C792 1.407 . S
C796 C795 1.332 . S
H797 C790 0.930 . S
H798 C821 0.930 . S
H799 C822 0.929 . S
O800 Tb756 2.465 . S
O800 C820 1.264 . S
O801 Tb756 2.387 . S
O801 C812 1.264 . S
O802 Tb767 2.349 . S
O802 C812 1.243 . S
O803 Tb756 2.428 . S
O803 C820 1.256 . S
O804 Tb756 2.308 . S
O804 C819 1.266 . S
O805 Tb767 2.393 . S
O805 C819 1.248 . S
O806 Tb767 2.465 . S
O806 C831 1.264 . S
O807 Tb767 2.387 . S
O807 C823 1.264 . S
O808 Tb756 2.349 . S
O808 C823 1.243 . S
O809 Tb767 2.428 . S
O809 C831 1.256 . S
O810 Tb767 2.308 . S
O810 C830 1.266 . S
O811 Tb756 2.393 . S
O811 C830 1.248 . S
C812 O801 1.264 . S
C812 O802 1.243 . S
C813 C816 1.399 . S
C813 C818 1.383 . S
C813 C820 1.496 . S
C814 C815 1.399 . S
C814 C818 1.389 1_655 S
C815 C814 1.399 . S
C815 C817 1.380 . S
C815 H832 0.929 . S
C816 C813 1.399 . S
C816 C817 1.392 1_455 S
C816 H833 0.929 . S
C817 C815 1.380 . S
C817 C816 1.392 1_655 S
C817 H834 0.929 . S
C818 C813 1.383 . S
C818 C814 1.389 1_455 S
C818 H835 0.931 . S
C819 O804 1.266 . S
C819 O805 1.248 . S
C820 Tb756 2.802 . S
C820 O800 1.264 . S
C820 O803 1.256 . S
C820 C813 1.496 . S
C821 C788 1.448 . S
C821 H798 0.930 . S
C821 C822 1.328 . S
C822 C793 1.427 . S
C822 H799 0.929 . S
C822 C821 1.328 . S
C823 O807 1.264 . S
C823 O808 1.243 . S
C824 C827 1.399 . S
C824 C828 1.383 . S
C824 C831 1.496 . S
C825 C826 1.399 . S
C825 C828 1.389 . S
C826 C825 1.399 . S
C826 C829 1.380 . S
C826 H836 0.929 . S
C827 C824 1.399 . S
C827 C829 1.392 . S
C827 H837 0.929 . S
C828 C824 1.383 . S
C828 C825 1.389 . S
C828 H838 0.931 . S
C829 C826 1.380 . S
C829 C827 1.392 . S
C829 H839 0.929 . S
C830 O810 1.266 . S
C830 O811 1.248 . S
C831 Tb767 2.802 . S
C831 O806 1.264 . S
C831 O809 1.256 . S
C831 C824 1.496 . S
H832 C815 0.929 . S
H833 C816 0.929 . S
H834 C817 0.929 . S
H835 C818 0.931 . S
H836 C826 0.929 . S
H837 C827 0.929 . S
H838 C828 0.931 . S
H839 C829 0.929 . S
Tb840 N869 2.617 . S
Tb840 N875 2.572 . S
Tb840 O884 2.465 . S
Tb840 O885 2.387 . S
Tb840 O887 2.428 . S
Tb840 O888 2.308 . S
Tb840 O892 2.349 . S
Tb840 O895 2.393 . S
Tb840 C904 2.802 . S
C841 N842 1.379 . S
C841 C844 1.416 . S
C841 C848 1.424 . S
N842 C841 1.379 . S
N842 C845 1.334 . S
N842 Tb851 2.617 . S
C843 C845 1.390 . S
C843 C846 1.339 . S
C843 H863 0.930 . S
C844 C841 1.416 . S
C844 C846 1.416 . S
C844 C850 1.448 . S
C845 N842 1.334 . S
C845 C843 1.390 . S
C845 H856 0.930 . S
C846 C843 1.339 . S
C846 C844 1.416 . S
C846 H867 0.930 . S
C847 C848 1.413 . S
C847 C849 1.427 . S
C847 C853 1.416 . S
C848 C841 1.424 . S
C848 C847 1.413 . S
C848 N852 1.361 . S
C849 C847 1.427 . S
C849 C850 1.328 . S
C849 H864 0.929 . S
C850 C844 1.448 . S
C850 C849 1.328 . S
C850 H865 0.930 . S
Tb851 N842 2.617 . S
Tb851 N852 2.572 . S
Tb851 O886 2.349 . S
Tb851 O889 2.393 . S
Tb851 O890 2.465 . S
Tb851 O891 2.387 . S
Tb851 O893 2.428 . S
Tb851 O894 2.308 . S
Tb851 C915 2.802 . S
N852 C848 1.361 . S
N852 Tb851 2.572 . S
N852 C854 1.340 . S
C853 C847 1.416 . S
C853 C855 1.332 . S
C853 H861 0.931 . S
C854 N852 1.340 . S
C854 C855 1.407 . S
C854 H860 0.930 . S
C855 C853 1.332 . S
C855 C854 1.407 . S
C855 H857 0.929 . S
H856 C845 0.930 . S
H857 C855 0.929 . S
H858 C873 0.930 . S
H859 C880 0.929 . S
H860 C854 0.930 . S
H861 C853 0.931 . S
H862 C876 0.930 . S
H863 C843 0.930 . S
H864 C849 0.929 . S
H865 C850 0.930 . S
H866 C871 0.930 . S
H867 C846 0.930 . S
H868 C879 0.931 . S
N869 Tb840 2.617 . S
N869 C870 1.379 . S
N869 C873 1.334 . S
C870 N869 1.379 . S
C870 C872 1.416 . S
C870 C878 1.424 . S
C871 H866 0.930 . S
C871 C873 1.390 . S
C871 C874 1.339 . S
C872 C870 1.416 . S
C872 C874 1.416 . S
C872 C905 1.448 . S
C873 H858 0.930 . S
C873 N869 1.334 . S
C873 C871 1.390 . S
C874 C871 1.339 . S
C874 C872 1.416 . S
C874 H881 0.930 . S
N875 Tb840 2.572 . S
N875 C876 1.340 . S
N875 C878 1.361 . S
C876 H862 0.930 . S
C876 N875 1.340 . S
C876 C880 1.407 . S
C877 C878 1.413 . S
C877 C879 1.416 . S
C877 C906 1.427 . S
C878 C870 1.424 . S
C878 N875 1.361 . S
C878 C877 1.413 . S
C879 H868 0.931 . S
C879 C877 1.416 . S
C879 C880 1.332 . S
C880 H859 0.929 . S
C880 C876 1.407 . S
C880 C879 1.332 . S
H881 C874 0.930 . S
H882 C905 0.930 . S
H883 C906 0.929 1_655 S
O884 Tb840 2.465 . S
O884 C904 1.264 . S
O885 Tb840 2.387 . S
O885 C896 1.264 . S
O886 Tb851 2.349 . S
O886 C896 1.243 . S
O887 Tb840 2.428 . S
O887 C904 1.256 . S
O888 Tb840 2.308 . S
O888 C903 1.266 . S
O889 Tb851 2.393 . S
O889 C903 1.248 . S
O890 Tb851 2.465 . S
O890 C915 1.264 . S
O891 Tb851 2.387 . S
O891 C907 1.264 . S
O892 Tb840 2.349 . S
O892 C907 1.243 . S
O893 Tb851 2.428 . S
O893 C915 1.256 . S
O894 Tb851 2.308 . S
O894 C914 1.266 . S
O895 Tb840 2.393 . S
O895 C914 1.248 . S
C896 O885 1.264 . S
C896 O886 1.243 . S
C897 C900 1.399 . S
C897 C902 1.383 . S
C897 C904 1.496 . S
C898 C899 1.399 . S
C898 C902 1.389 . S
C899 C898 1.399 . S
C899 C901 1.380 . S
C899 H916 0.929 . S
C900 C897 1.399 . S
C900 C901 1.392 . S
C900 H917 0.929 . S
C901 C899 1.380 . S
C901 C900 1.392 . S
C901 H918 0.929 . S
C902 C897 1.383 . S
C902 C898 1.389 . S
C902 H919 0.931 . S
C903 O888 1.266 . S
C903 O889 1.248 . S
C904 Tb840 2.802 . S
C904 O884 1.264 . S
C904 O887 1.256 . S
C904 C897 1.496 . S
C905 C872 1.448 . S
C905 H882 0.930 . S
C905 C906 1.328 . S
C906 C877 1.427 . S
C906 H883 0.929 1_455 S
C906 C905 1.328 . S
C907 O891 1.264 . S
C907 O892 1.243 . S
C908 C911 1.399 . S
C908 C912 1.383 . S
C908 C915 1.496 . S
C909 C910 1.399 . S
C909 C912 1.389 1_545 S
C910 C909 1.399 . S
C910 C913 1.380 . S
C910 H920 0.929 . S
C911 C908 1.399 . S
C911 C913 1.392 1_565 S
C911 H921 0.929 . S
C912 C908 1.383 . S
C912 C909 1.389 1_565 S
C912 H922 0.931 . S
C913 C910 1.380 . S
C913 C911 1.392 1_545 S
C913 H923 0.929 . S
C914 O894 1.266 . S
C914 O895 1.248 . S
C915 Tb851 2.802 . S
C915 O890 1.264 . S
C915 O893 1.256 . S
C915 C908 1.496 . S
H916 C899 0.929 . S
H917 C900 0.929 . S
H918 C901 0.929 . S
H919 C902 0.931 . S
H920 C910 0.929 . S
H921 C911 0.929 . S
H922 C912 0.931 . S
H923 C913 0.929 . S
Tb924 N953 2.617 . S
Tb924 N959 2.572 . S
Tb924 O968 2.465 . S
Tb924 O969 2.387 . S
Tb924 O971 2.428 . S
Tb924 O972 2.308 . S
Tb924 O976 2.349 . S
Tb924 O979 2.393 . S
Tb924 C988 2.802 . S
C925 N926 1.379 . S
C925 C928 1.416 . S
C925 C932 1.424 . S
N926 C925 1.379 . S
N926 C929 1.334 . S
N926 Tb935 2.617 . S
C927 C929 1.390 . S
C927 C930 1.339 . S
C927 H947 0.930 . S
C928 C925 1.416 . S
C928 C930 1.416 . S
C928 C934 1.448 . S
C929 N926 1.334 . S
C929 C927 1.390 . S
C929 H940 0.930 . S
C930 C927 1.339 . S
C930 C928 1.416 . S
C930 H951 0.930 . S
C931 C932 1.413 . S
C931 C933 1.427 . S
C931 C937 1.416 . S
C932 C925 1.424 . S
C932 C931 1.413 . S
C932 N936 1.361 . S
C933 C931 1.427 . S
C933 C934 1.328 . S
C933 H948 0.929 1_565 S
C934 C928 1.448 . S
C934 C933 1.328 . S
C934 H949 0.930 . S
Tb935 N926 2.617 . S
Tb935 N936 2.572 . S
Tb935 O970 2.349 . S
Tb935 O973 2.393 . S
Tb935 O974 2.465 . S
Tb935 O975 2.387 . S
Tb935 O977 2.428 . S
Tb935 O978 2.308 . S
Tb935 C999 2.802 . S
N936 C932 1.361 . S
N936 Tb935 2.572 . S
N936 C938 1.340 . S
C937 C931 1.416 . S
C937 C939 1.332 . S
C937 H945 0.931 . S
C938 N936 1.340 . S
C938 C939 1.407 . S
C938 H944 0.930 . S
C939 C937 1.332 . S
C939 C938 1.407 . S
C939 H941 0.929 . S
H940 C929 0.930 . S
H941 C939 0.929 . S
H942 C957 0.930 . S
H943 C964 0.929 . S
H944 C938 0.930 . S
H945 C937 0.931 . S
H946 C960 0.930 . S
H947 C927 0.930 . S
H948 C933 0.929 1_545 S
H949 C934 0.930 . S
H950 C955 0.930 . S
H951 C930 0.930 . S
H952 C963 0.931 . S
N953 Tb924 2.617 . S
N953 C954 1.379 . S
N953 C957 1.334 . S
C954 N953 1.379 . S
C954 C956 1.416 . S
C954 C962 1.424 . S
C955 H950 0.930 . S
C955 C957 1.390 . S
C955 C958 1.339 . S
C956 C954 1.416 . S
C956 C958 1.416 . S
C956 C989 1.448 . S
C957 H942 0.930 . S
C957 N953 1.334 . S
C957 C955 1.390 . S
C958 C955 1.339 . S
C958 C956 1.416 . S
C958 H965 0.930 . S
N959 Tb924 2.572 . S
N959 C960 1.340 . S
N959 C962 1.361 . S
C960 H946 0.930 . S
C960 N959 1.340 . S
C960 C964 1.407 . S
C961 C962 1.413 . S
C961 C963 1.416 . S
C961 C990 1.427 . S
C962 C954 1.424 . S
C962 N959 1.361 . S
C962 C961 1.413 . S
C963 H952 0.931 . S
C963 C961 1.416 . S
C963 C964 1.332 . S
C964 H943 0.929 . S
C964 C960 1.407 . S
C964 C963 1.332 . S
H965 C958 0.930 . S
H966 C989 0.930 . S
H967 C990 0.929 . S
O968 Tb924 2.465 . S
O968 C988 1.264 . S
O969 Tb924 2.387 . S
O969 C980 1.264 . S
O970 Tb935 2.349 . S
O970 C980 1.243 . S
O971 Tb924 2.428 . S
O971 C988 1.256 . S
O972 Tb924 2.308 . S
O972 C987 1.266 . S
O973 Tb935 2.393 . S
O973 C987 1.248 . S
O974 Tb935 2.465 . S
O974 C999 1.264 . S
O975 Tb935 2.387 . S
O975 C991 1.264 . S
O976 Tb924 2.349 . S
O976 C991 1.243 . S
O977 Tb935 2.428 . S
O977 C999 1.256 . S
O978 Tb935 2.308 . S
O978 C998 1.266 . S
O979 Tb924 2.393 . S
O979 C998 1.248 . S
C980 O969 1.264 . S
C980 O970 1.243 . S
C981 C984 1.399 . S
C981 C986 1.383 . S
C981 C988 1.496 . S
C982 C983 1.399 . S
C982 C986 1.389 . S
C983 C982 1.399 . S
C983 C985 1.380 . S
C983 H1000 0.929 . S
C984 C981 1.399 . S
C984 C985 1.392 . S
C984 H1001 0.929 . S
C985 C983 1.380 . S
C985 C984 1.392 . S
C985 H1002 0.929 . S
C986 C981 1.383 . S
C986 C982 1.389 . S
C986 H1003 0.931 . S
C987 O972 1.266 . S
C987 O973 1.248 . S
C988 Tb924 2.802 . S
C988 O968 1.264 . S
C988 O971 1.256 . S
C988 C981 1.496 . S
C989 C956 1.448 . S
C989 H966 0.930 . S
C989 C990 1.328 . S
C990 C961 1.427 . S
C990 H967 0.929 . S
C990 C989 1.328 . S
C991 O975 1.264 . S
C991 O976 1.243 . S
C992 C995 1.399 . S
C992 C996 1.383 . S
C992 C999 1.496 . S
C993 C994 1.399 . S
C993 C996 1.389 . S
C994 C993 1.399 . S
C994 C997 1.380 . S
C994 H1004 0.929 . S
C995 C992 1.399 . S
C995 C997 1.392 . S
C995 H1005 0.929 . S
C996 C992 1.383 . S
C996 C993 1.389 . S
C996 H1006 0.931 . S
C997 C994 1.380 . S
C997 C995 1.392 . S
C997 H1007 0.929 . S
C998 O978 1.266 . S
C998 O979 1.248 . S
C999 Tb935 2.802 . S
C999 O974 1.264 . S
C999 O977 1.256 . S
C999 C992 1.496 . S
H1000 C983 0.929 . S
H1001 C984 0.929 . S
H1002 C985 0.929 . S
H1003 C986 0.931 . S
H1004 C994 0.929 . S
H1005 C995 0.929 . S
H1006 C996 0.931 . S
H1007 C997 0.929 . S
C1008 C1009 1.349 . S
C1008 C1010 1.327 . S
C1008 H1033 0.950 . S
C1009 C1008 1.349 . S
C1009 C1025 1.349 . S
C1010 C1008 1.327 . S
C1010 C1029 1.429 . S
C1010 H1034 0.950 . S
C1011 C1028 1.574 . S
C1011 C1030 1.368 . S
C1011 H1035 0.949 . S
H1012 C1016 0.949 . S
C1013 C1014 1.349 . S
C1013 C1015 1.327 . S
C1013 H1036 0.950 . S
C1014 C1013 1.349 . S
C1014 C1026 1.349 . S
C1015 C1013 1.327 . S
C1015 C1031 1.429 . S
C1015 H1037 0.950 . S
C1016 H1012 0.949 . S
C1016 C1024 1.574 . S
C1016 C1032 1.368 . S
H1017 C1025 0.950 . S
H1018 C1023 0.950 . S
H1019 C1024 0.949 . S
H1020 C1026 0.950 . S
H1021 C1027 0.950 . S
H1022 C1028 0.949 . S
C1023 H1018 0.950 . S
C1023 C1025 1.327 . S
C1023 C1029 1.429 . S
C1024 C1016 1.574 . S
C1024 H1019 0.949 . S
C1024 C1030 1.368 . S
C1025 C1009 1.349 . S
C1025 H1017 0.950 . S
C1025 C1023 1.327 . S
C1026 C1014 1.349 . S
C1026 H1020 0.950 . S
C1026 C1027 1.327 . S
C1027 H1021 0.950 . S
C1027 C1026 1.327 . S
C1027 C1031 1.429 . S
C1028 C1011 1.574 . S
C1028 H1022 0.949 . S
C1028 C1032 1.368 . S
C1029 C1010 1.429 . S
C1029 C1023 1.429 . S
C1029 C1030 1.523 . S
C1030 C1011 1.368 . S
C1030 C1024 1.368 . S
C1030 C1029 1.523 . S
C1031 C1015 1.429 . S
C1031 C1027 1.429 . S
C1031 C1032 1.523 . S
C1032 C1016 1.368 . S
C1032 C1028 1.368 . S
C1032 C1031 1.523 . S
H1033 C1008 0.950 . S
H1034 C1010 0.950 . S
H1035 C1011 0.949 . S
H1036 C1013 0.950 . S
H1037 C1015 0.950 . S
C1038 C1039 1.349 . S
C1038 C1040 1.327 . S
C1038 H1063 0.950 . S
C1039 C1038 1.349 . S
C1039 C1055 1.349 . S
C1040 C1038 1.327 . S
C1040 C1059 1.429 . S
C1040 H1064 0.950 . S
C1041 C1058 1.589 . S
C1041 C1060 1.368 . S
C1041 H1065 0.949 . S
H1042 C1046 0.949 . S
C1043 C1044 1.349 . S
C1043 C1045 1.327 . S
C1043 H1066 0.950 . S
C1044 C1043 1.349 . S
C1044 C1056 1.349 . S
C1045 C1043 1.327 . S
C1045 C1061 1.429 . S
C1045 H1067 0.950 . S
C1046 H1042 0.949 . S
C1046 C1054 1.574 . S
C1046 C1062 1.368 1_455 S
H1047 C1055 0.950 . S
H1048 C1053 0.950 . S
H1049 C1054 0.949 . S
H1050 C1056 0.950 . S
H1051 C1057 0.950 . S
H1052 C1058 0.930 1_655 S
C1053 H1048 0.950 . S
C1053 C1055 1.327 . S
C1053 C1059 1.429 . S
C1054 C1046 1.574 . S
C1054 H1049 0.949 . S
C1054 C1060 1.368 . S
C1055 C1039 1.349 . S
C1055 H1047 0.950 . S
C1055 C1053 1.327 . S
C1056 C1044 1.349 . S
C1056 H1050 0.950 . S
C1056 C1057 1.327 . S
C1057 H1051 0.950 . S
C1057 C1056 1.327 . S
C1057 C1061 1.429 . S
C1058 C1041 1.589 . S
C1058 H1052 0.930 1_455 S
C1058 C1062 1.374 1_455 S
C1059 C1040 1.429 . S
C1059 C1053 1.429 . S
C1059 C1060 1.523 . S
C1060 C1041 1.368 . S
C1060 C1054 1.368 . S
C1060 C1059 1.523 . S
C1061 C1045 1.429 . S
C1061 C1057 1.429 . S
C1061 C1062 1.523 . S
C1062 C1046 1.368 1_655 S
C1062 C1058 1.374 1_655 S
C1062 C1061 1.523 . S
H1063 C1038 0.950 . S
H1064 C1040 0.950 . S
H1065 C1041 0.949 . S
H1066 C1043 0.950 . S
H1067 C1045 0.950 . S
C1068 C1069 1.349 . S
C1068 C1070 1.327 . S
C1068 H1093 0.950 . S
C1069 C1068 1.349 . S
C1069 C1085 1.349 . S
C1070 C1068 1.327 . S
C1070 C1089 1.429 . S
C1070 H1094 0.950 . S
C1071 C1088 1.574 . S
C1071 C1090 1.368 1_565 S
C1071 H1095 0.949 . S
H1072 C1076 0.949 . S
C1073 C1074 1.349 . S
C1073 C1075 1.327 . S
C1073 H1096 0.950 . S
C1074 C1073 1.349 . S
C1074 C1086 1.349 . S
C1075 C1073 1.327 . S
C1075 C1091 1.429 . S
C1075 H1097 0.950 . S
C1076 H1072 0.949 . S
C1076 C1084 1.539 1_565 S
C1076 C1092 1.368 . S
H1077 C1085 0.950 . S
H1078 C1083 0.950 . S
H1079 C1084 0.968 . S
H1080 C1086 0.950 . S
H1081 C1087 0.950 . S
H1082 C1088 0.949 . S
C1083 H1078 0.950 . S
C1083 C1085 1.327 . S
C1083 C1089 1.429 . S
C1084 C1076 1.539 1_545 S
C1084 H1079 0.968 . S
C1084 C1090 1.383 . S
C1085 C1069 1.349 . S
C1085 H1077 0.950 . S
C1085 C1083 1.327 . S
C1086 C1074 1.349 . S
C1086 H1080 0.950 . S
C1086 C1087 1.327 . S
C1087 H1081 0.950 . S
C1087 C1086 1.327 . S
C1087 C1091 1.429 . S
C1088 C1071 1.574 . S
C1088 H1082 0.949 . S
C1088 C1092 1.368 . S
C1089 C1070 1.429 . S
C1089 C1083 1.429 . S
C1089 C1090 1.523 . S
C1090 C1071 1.368 1_545 S
C1090 C1084 1.383 . S
C1090 C1089 1.523 . S
C1091 C1075 1.429 . S
C1091 C1087 1.429 . S
C1091 C1092 1.523 . S
C1092 C1076 1.368 . S
C1092 C1088 1.368 . S
C1092 C1091 1.523 . S
H1093 C1068 0.950 . S
H1094 C1070 0.950 . S
H1095 C1071 0.949 . S
H1096 C1073 0.950 . S
H1097 C1075 0.950 . S
C1098 C1099 1.349 . S
C1098 C1100 1.327 . S
C1098 H1123 0.950 . S
C1099 C1098 1.349 . S
C1099 C1115 1.349 . S
C1100 C1098 1.327 . S
C1100 C1119 1.429 . S
C1100 H1124 0.950 . S
C1101 C1118 1.574 . S
C1101 C1120 1.368 . S
C1101 H1125 0.949 . S
H1102 C1106 0.949 . S
C1103 C1104 1.349 . S
C1103 C1105 1.327 . S
C1103 H1126 0.950 . S
C1104 C1103 1.349 . S
C1104 C1116 1.349 . S
C1105 C1103 1.327 . S
C1105 C1121 1.429 . S
C1105 H1127 0.950 . S
C1106 H1102 0.949 . S
C1106 C1114 1.574 . S
C1106 C1122 1.368 . S
H1107 C1115 0.950 . S
H1108 C1113 0.950 . S
H1109 C1114 0.949 . S
H1110 C1116 0.950 . S
H1111 C1117 0.950 . S
H1112 C1118 0.949 . S
C1113 H1108 0.950 . S
C1113 C1115 1.327 . S
C1113 C1119 1.429 . S
C1114 C1106 1.574 . S
C1114 H1109 0.949 . S
C1114 C1120 1.368 . S
C1115 C1099 1.349 . S
C1115 H1107 0.950 . S
C1115 C1113 1.327 . S
C1116 C1104 1.349 . S
C1116 H1110 0.950 . S
C1116 C1117 1.327 . S
C1117 H1111 0.950 . S
C1117 C1116 1.327 . S
C1117 C1121 1.429 . S
C1118 C1101 1.574 . S
C1118 H1112 0.949 . S
C1118 C1122 1.368 . S
C1119 C1100 1.429 . S
C1119 C1113 1.429 . S
C1119 C1120 1.523 . S
C1120 C1101 1.368 . S
C1120 C1114 1.368 . S
C1120 C1119 1.523 . S
C1121 C1105 1.429 . S
C1121 C1117 1.429 . S
C1121 C1122 1.523 . S
C1122 C1106 1.368 . S
C1122 C1118 1.368 . S
C1122 C1121 1.523 . S
H1123 C1098 0.950 . S
H1124 C1100 0.950 . S
H1125 C1101 0.949 . S
H1126 C1103 0.950 . S
H1127 C1105 0.950 . S
C1128 C1129 1.349 . S
C1128 C1130 1.327 . S
C1128 H1153 0.950 . S
C1129 C1128 1.349 . S
C1129 C1145 1.349 . S
C1130 C1128 1.327 . S
C1130 C1149 1.429 . S
C1130 H1154 0.950 . S
C1131 C1148 1.574 . S
C1131 C1150 1.368 . S
C1131 H1155 0.949 . S
H1132 C1136 0.949 . S
C1133 C1134 1.349 . S
C1133 C1135 1.327 . S
C1133 H1156 0.950 . S
C1134 C1133 1.349 . S
C1134 C1146 1.349 . S
C1135 C1133 1.327 . S
C1135 C1151 1.429 . S
C1135 H1157 0.950 . S
C1136 H1132 0.949 . S
C1136 C1144 1.574 . S
C1136 C1152 1.368 1_455 S
H1137 C1145 0.950 . S
H1138 C1143 0.950 . S
H1139 C1144 0.949 . S
H1140 C1146 0.950 . S
H1141 C1147 0.950 . S
H1142 C1148 0.949 1_655 S
C1143 H1138 0.950 . S
C1143 C1145 1.327 . S
C1143 C1149 1.429 . S
C1144 C1136 1.574 . S
C1144 H1139 0.949 . S
C1144 C1150 1.368 . S
C1145 C1129 1.349 . S
C1145 H1137 0.950 . S
C1145 C1143 1.327 . S
C1146 C1134 1.349 . S
C1146 H1140 0.950 . S
C1146 C1147 1.327 . S
C1147 H1141 0.950 . S
C1147 C1146 1.327 . S
C1147 C1151 1.429 . S
C1148 C1131 1.574 . S
C1148 H1142 0.949 1_455 S
C1148 C1152 1.368 1_455 S
C1149 C1130 1.429 . S
C1149 C1143 1.429 . S
C1149 C1150 1.523 . S
C1150 C1131 1.368 . S
C1150 C1144 1.368 . S
C1150 C1149 1.523 . S
C1151 C1135 1.429 . S
C1151 C1147 1.429 . S
C1151 C1152 1.523 . S
C1152 C1136 1.368 1_655 S
C1152 C1148 1.368 1_655 S
C1152 C1151 1.523 . S
H1153 C1128 0.950 . S
H1154 C1130 0.950 . S
H1155 C1131 0.949 . S
H1156 C1133 0.950 . S
H1157 C1135 0.950 . S
C1158 C1159 1.349 . S
C1158 C1160 1.327 . S
C1158 H1183 0.950 . S
C1159 C1158 1.349 . S
C1159 C1175 1.349 . S
C1160 C1158 1.327 . S
C1160 C1179 1.429 . S
C1160 H1184 0.950 . S
C1161 C1178 1.574 . S
C1161 C1180 1.368 . S
C1161 H1185 0.949 . S
H1162 C1166 0.948 1_545 S
C1163 C1164 1.349 . S
C1163 C1165 1.327 . S
C1163 H1186 0.950 . S
C1164 C1163 1.349 . S
C1164 C1176 1.349 . S
C1165 C1163 1.327 . S
C1165 C1181 1.429 . S
C1165 H1187 0.950 . S
C1166 H1162 0.948 1_565 S
C1166 C1174 1.576 . S
C1166 C1182 1.367 1_565 S
H1167 C1175 0.950 . S
H1168 C1173 0.950 . S
H1169 C1174 0.949 . S
H1170 C1176 0.950 . S
H1171 C1177 0.950 . S
H1172 C1178 0.949 . S
C1173 H1168 0.950 . S
C1173 C1175 1.327 . S
C1173 C1179 1.429 . S
C1174 C1166 1.576 . S
C1174 H1169 0.949 . S
C1174 C1180 1.368 . S
C1175 C1159 1.349 . S
C1175 H1167 0.950 . S
C1175 C1173 1.327 . S
C1176 C1164 1.349 . S
C1176 H1170 0.950 . S
C1176 C1177 1.327 . S
C1177 H1171 0.950 . S
C1177 C1176 1.327 . S
C1177 C1181 1.429 . S
C1178 C1161 1.574 . S
C1178 H1172 0.949 . S
C1178 C1182 1.368 1_565 S
C1179 C1160 1.429 . S
C1179 C1173 1.429 . S
C1179 C1180 1.523 . S
C1180 C1161 1.368 . S
C1180 C1174 1.368 . S
C1180 C1179 1.523 . S
C1181 C1165 1.429 . S
C1181 C1177 1.429 . S
C1181 C1182 1.523 . S
C1182 C1166 1.367 1_545 S
C1182 C1178 1.368 1_545 S
C1182 C1181 1.523 . S
H1183 C1158 0.950 . S
H1184 C1160 0.950 . S
H1185 C1161 0.949 . S
H1186 C1163 0.950 . S
H1187 C1165 0.950 . S
C1188 C1189 1.349 . S
C1188 C1190 1.327 . S
C1188 H1213 0.950 . S
C1189 C1188 1.349 . S
C1189 C1205 1.349 . S
C1190 C1188 1.327 . S
C1190 C1209 1.429 . S
C1190 H1214 0.950 . S
C1191 C1208 1.574 . S
C1191 C1210 1.368 . S
C1191 H1215 0.949 . S
H1192 C1196 0.949 . S
C1193 C1194 1.349 . S
C1193 C1195 1.327 . S
C1193 H1216 0.950 . S
C1194 C1193 1.349 . S
C1194 C1206 1.349 . S
C1195 C1193 1.327 . S
C1195 C1211 1.429 . S
C1195 H1217 0.950 . S
C1196 H1192 0.949 . S
C1196 C1204 1.574 . S
C1196 C1212 1.368 . S
H1197 C1205 0.950 . S
H1198 C1203 0.950 . S
H1199 C1204 0.949 . S
H1200 C1206 0.950 . S
H1201 C1207 0.950 . S
H1202 C1208 0.949 . S
C1203 H1198 0.950 . S
C1203 C1205 1.327 . S
C1203 C1209 1.429 . S
C1204 C1196 1.574 . S
C1204 H1199 0.949 . S
C1204 C1210 1.368 . S
C1205 C1189 1.349 . S
C1205 H1197 0.950 . S
C1205 C1203 1.327 . S
C1206 C1194 1.349 . S
C1206 H1200 0.950 . S
C1206 C1207 1.327 . S
C1207 H1201 0.950 . S
C1207 C1206 1.327 . S
C1207 C1211 1.429 . S
C1208 C1191 1.574 . S
C1208 H1202 0.949 . S
C1208 C1212 1.368 . S
C1209 C1190 1.429 . S
C1209 C1203 1.429 . S
C1209 C1210 1.523 . S
C1210 C1191 1.368 . S
C1210 C1204 1.368 . S
C1210 C1209 1.523 . S
C1211 C1195 1.429 . S
C1211 C1207 1.429 . S
C1211 C1212 1.523 . S
C1212 C1196 1.368 . S
C1212 C1208 1.368 . S
C1212 C1211 1.523 . S
H1213 C1188 0.950 . S
H1214 C1190 0.950 . S
H1215 C1191 0.949 . S
H1216 C1193 0.950 . S
H1217 C1195 0.950 . S
C1218 C1219 1.349 . S
C1218 C1220 1.327 . S
C1218 H1243 0.950 . S
C1219 C1218 1.349 . S
C1219 C1235 1.349 . S
C1220 C1218 1.327 . S
C1220 C1239 1.429 . S
C1220 H1244 0.950 . S
C1221 C1238 1.574 1_455 S
C1221 C1240 1.368 . S
C1221 H1245 0.949 . S
H1222 C1226 0.949 . S
C1223 C1224 1.349 . S
C1223 C1225 1.327 . S
C1223 H1246 0.950 . S
C1224 C1223 1.349 . S
C1224 C1236 1.349 . S
C1225 C1223 1.327 . S
C1225 C1241 1.429 . S
C1225 H1247 0.950 . S
C1226 H1222 0.949 . S
C1226 C1234 1.574 . S
C1226 C1242 1.368 . S
H1227 C1235 0.950 . S
H1228 C1233 0.950 . S
H1229 C1234 0.949 . S
H1230 C1236 0.950 . S
H1231 C1237 0.950 . S
H1232 C1238 0.949 . S
C1233 H1228 0.950 . S
C1233 C1235 1.327 . S
C1233 C1239 1.429 . S
C1234 C1226 1.574 . S
C1234 H1229 0.949 . S
C1234 C1240 1.368 1_655 S
C1235 C1219 1.349 . S
C1235 H1227 0.950 . S
C1235 C1233 1.327 . S
C1236 C1224 1.349 . S
C1236 H1230 0.950 . S
C1236 C1237 1.327 . S
C1237 H1231 0.950 . S
C1237 C1236 1.327 . S
C1237 C1241 1.429 . S
C1238 C1221 1.574 1_655 S
C1238 H1232 0.949 . S
C1238 C1242 1.368 . S
C1239 C1220 1.429 . S
C1239 C1233 1.429 . S
C1239 C1240 1.523 . S
C1240 C1221 1.368 . S
C1240 C1234 1.368 1_455 S
C1240 C1239 1.523 . S
C1241 C1225 1.429 . S
C1241 C1237 1.429 . S
C1241 C1242 1.523 . S
C1242 C1226 1.368 . S
C1242 C1238 1.368 . S
C1242 C1241 1.523 . S
H1243 C1218 0.950 . S
H1244 C1220 0.950 . S
H1245 C1221 0.949 . S
H1246 C1223 0.950 . S
H1247 C1225 0.950 . S
C1248 C1249 1.349 . S
C1248 C1250 1.327 . S
C1248 H1273 0.950 . S
C1249 C1248 1.349 . S
C1249 C1265 1.349 . S
C1250 C1248 1.327 . S
C1250 C1269 1.429 . S
C1250 H1274 0.950 . S
C1251 C1268 1.574 . S
C1251 C1270 1.368 1_545 S
C1251 H1275 0.949 1_545 S
H1252 C1256 0.949 . S
C1253 C1254 1.349 . S
C1253 C1255 1.327 . S
C1253 H1276 0.950 . S
C1254 C1253 1.349 . S
C1254 C1266 1.349 . S
C1255 C1253 1.327 . S
C1255 C1271 1.429 . S
C1255 H1277 0.950 . S
C1256 H1252 0.949 . S
C1256 C1264 1.574 . S
C1256 C1272 1.368 . S
H1257 C1265 0.950 . S
H1258 C1263 0.950 . S
H1259 C1264 0.949 . S
H1260 C1266 0.950 . S
H1261 C1267 0.950 . S
H1262 C1268 0.949 . S
C1263 H1258 0.950 . S
C1263 C1265 1.327 . S
C1263 C1269 1.429 . S
C1264 C1256 1.574 . S
C1264 H1259 0.949 . S
C1264 C1270 1.368 1_545 S
C1265 C1249 1.349 . S
C1265 H1257 0.950 . S
C1265 C1263 1.327 . S
C1266 C1254 1.349 . S
C1266 H1260 0.950 . S
C1266 C1267 1.327 . S
C1267 H1261 0.950 . S
C1267 C1266 1.327 . S
C1267 C1271 1.429 . S
C1268 C1251 1.574 . S
C1268 H1262 0.949 . S
C1268 C1272 1.368 . S
C1269 C1250 1.429 . S
C1269 C1263 1.429 . S
C1269 C1270 1.523 . S
C1270 C1251 1.368 1_565 S
C1270 C1264 1.368 1_565 S
C1270 C1269 1.523 . S
C1271 C1255 1.429 . S
C1271 C1267 1.429 . S
C1271 C1272 1.523 . S
C1272 C1256 1.368 . S
C1272 C1268 1.368 . S
C1272 C1271 1.523 . S
H1273 C1248 0.950 . S
H1274 C1250 0.950 . S
H1275 C1251 0.949 1_565 S
H1276 C1253 0.950 . S
H1277 C1255 0.950 . S
C1278 C1279 1.349 . S
C1278 C1280 1.327 . S
C1278 H1303 0.950 . S
C1279 C1278 1.349 . S
C1279 C1295 1.349 . S
C1280 C1278 1.327 . S
C1280 C1299 1.429 . S
C1280 H1304 0.950 . S
C1281 C1298 1.574 . S
C1281 C1300 1.368 . S
C1281 H1305 0.949 . S
H1282 C1286 0.949 . S
C1283 C1284 1.349 . S
C1283 C1285 1.327 . S
C1283 H1306 0.950 . S
C1284 C1283 1.349 . S
C1284 C1296 1.349 . S
C1285 C1283 1.327 . S
C1285 C1301 1.429 . S
C1285 H1307 0.950 . S
C1286 H1282 0.949 . S
C1286 C1294 1.574 . S
C1286 C1302 1.368 . S
H1287 C1295 0.950 . S
H1288 C1293 0.950 . S
H1289 C1294 0.949 . S
H1290 C1296 0.950 . S
H1291 C1297 0.950 . S
H1292 C1298 0.949 . S
C1293 H1288 0.950 . S
C1293 C1295 1.327 . S
C1293 C1299 1.429 . S
C1294 C1286 1.574 . S
C1294 H1289 0.949 . S
C1294 C1300 1.368 . S
C1295 C1279 1.349 . S
C1295 H1287 0.950 . S
C1295 C1293 1.327 . S
C1296 C1284 1.349 . S
C1296 H1290 0.950 . S
C1296 C1297 1.327 . S
C1297 H1291 0.950 . S
C1297 C1296 1.327 . S
C1297 C1301 1.429 . S
C1298 C1281 1.574 . S
C1298 H1292 0.949 . S
C1298 C1302 1.368 . S
C1299 C1280 1.429 . S
C1299 C1293 1.429 . S
C1299 C1300 1.523 . S
C1300 C1281 1.368 . S
C1300 C1294 1.368 . S
C1300 C1299 1.523 . S
C1301 C1285 1.429 . S
C1301 C1297 1.429 . S
C1301 C1302 1.523 . S
C1302 C1286 1.368 . S
C1302 C1298 1.368 . S
C1302 C1301 1.523 . S
H1303 C1278 0.950 . S
H1304 C1280 0.950 . S
H1305 C1281 0.949 . S
H1306 C1283 0.950 . S
H1307 C1285 0.950 . S
C1308 C1309 1.349 . S
C1308 C1310 1.327 . S
C1308 H1333 0.950 . S
C1309 C1308 1.349 . S
C1309 C1325 1.349 . S
C1310 C1308 1.327 . S
C1310 C1329 1.429 . S
C1310 H1334 0.950 . S
C1311 C1328 1.574 . S
C1311 C1330 1.368 1_655 S
C1311 H1335 0.963 . S
H1312 C1316 0.949 . S
C1313 C1314 1.349 . S
C1313 C1315 1.327 . S
C1313 H1336 0.950 . S
C1314 C1313 1.349 . S
C1314 C1326 1.349 . S
C1315 C1313 1.327 . S
C1315 C1331 1.429 . S
C1315 H1337 0.950 . S
C1316 H1312 0.949 . S
C1316 C1324 1.574 . S
C1316 C1332 1.368 . S
H1317 C1325 0.950 . S
H1318 C1323 0.950 . S
H1319 C1324 0.949 1_455 S
H1320 C1326 0.950 . S
H1321 C1327 0.950 . S
H1322 C1328 0.949 . S
C1323 H1318 0.950 . S
C1323 C1325 1.327 . S
C1323 C1329 1.429 . S
C1324 C1316 1.574 . S
C1324 H1319 0.949 1_655 S
C1324 C1330 1.368 1_655 S
C1325 C1309 1.349 . S
C1325 H1317 0.950 . S
C1325 C1323 1.327 . S
C1326 C1314 1.349 . S
C1326 H1320 0.950 . S
C1326 C1327 1.327 . S
C1327 H1321 0.950 . S
C1327 C1326 1.327 . S
C1327 C1331 1.429 . S
C1328 C1311 1.574 . S
C1328 H1322 0.949 . S
C1328 C1332 1.368 . S
C1329 C1310 1.429 . S
C1329 C1323 1.429 . S
C1329 C1330 1.523 . S
C1330 C1311 1.368 1_455 S
C1330 C1324 1.368 1_455 S
C1330 C1329 1.523 . S
C1331 C1315 1.429 . S
C1331 C1327 1.429 . S
C1331 C1332 1.523 . S
C1332 C1316 1.368 . S
C1332 C1328 1.368 . S
C1332 C1331 1.523 . S
H1333 C1308 0.950 . S
H1334 C1310 0.950 . S
H1335 C1311 0.963 . S
H1336 C1313 0.950 . S
H1337 C1315 0.950 . S
C1338 C1339 1.349 . S
C1338 C1340 1.327 . S
C1338 H1363 0.950 . S
C1339 C1338 1.349 . S
C1339 C1355 1.349 . S
C1340 C1338 1.327 . S
C1340 C1359 1.429 . S
C1340 H1364 0.950 . S
C1341 C1358 1.574 . S
C1341 C1360 1.368 . S
C1341 H1365 0.949 . S
H1342 C1346 0.949 . S
C1343 C1344 1.349 . S
C1343 C1345 1.327 . S
C1343 H1366 0.950 . S
C1344 C1343 1.349 . S
C1344 C1356 1.349 . S
C1345 C1343 1.327 . S
C1345 C1361 1.429 . S
C1345 H1367 0.950 . S
C1346 H1342 0.949 . S
C1346 C1354 1.574 . S
C1346 C1362 1.368 1_545 S
H1347 C1355 0.950 . S
H1348 C1353 0.950 . S
H1349 C1354 0.949 . S
H1350 C1356 0.950 . S
H1351 C1357 0.950 . S
H1352 C1358 0.949 1_565 S
C1353 H1348 0.950 . S
C1353 C1355 1.327 . S
C1353 C1359 1.429 . S
C1354 C1346 1.574 . S
C1354 H1349 0.949 . S
C1354 C1360 1.368 . S
C1355 C1339 1.349 . S
C1355 H1347 0.950 . S
C1355 C1353 1.327 . S
C1356 C1344 1.349 . S
C1356 H1350 0.950 . S
C1356 C1357 1.327 . S
C1357 H1351 0.950 . S
C1357 C1356 1.327 . S
C1357 C1361 1.429 . S
C1358 C1341 1.574 . S
C1358 H1352 0.949 1_545 S
C1358 C1362 1.368 1_545 S
C1359 C1340 1.429 . S
C1359 C1353 1.429 . S
C1359 C1360 1.523 . S
C1360 C1341 1.368 . S
C1360 C1354 1.368 . S
C1360 C1359 1.523 . S
C1361 C1345 1.429 . S
C1361 C1357 1.429 . S
C1361 C1362 1.523 . S
C1362 C1346 1.368 1_565 S
C1362 C1358 1.368 1_565 S
C1362 C1361 1.523 . S
H1363 C1338 0.950 . S
H1364 C1340 0.950 . S
H1365 C1341 0.949 . S
H1366 C1343 0.950 . S
H1367 C1345 0.950 . S
C1368 C1369 1.349 . S
C1368 C1370 1.327 . S
C1368 H1393 0.950 . S
C1369 C1368 1.349 . S
C1369 C1385 1.349 . S
C1370 C1368 1.327 . S
C1370 C1389 1.429 . S
C1370 H1394 0.950 . S
C1371 C1388 1.574 . S
C1371 C1390 1.368 . S
C1371 H1395 0.949 . S
H1372 C1376 0.949 . S
C1373 C1374 1.349 . S
C1373 C1375 1.327 . S
C1373 H1396 0.950 . S
C1374 C1373 1.349 . S
C1374 C1386 1.349 . S
C1375 C1373 1.327 . S
C1375 C1391 1.429 . S
C1375 H1397 0.950 . S
C1376 H1372 0.949 . S
C1376 C1384 1.574 . S
C1376 C1392 1.368 . S
H1377 C1385 0.950 . S
H1378 C1383 0.950 . S
H1379 C1384 0.949 . S
H1380 C1386 0.950 . S
H1381 C1387 0.950 . S
H1382 C1388 0.949 . S
C1383 H1378 0.950 . S
C1383 C1385 1.327 . S
C1383 C1389 1.429 . S
C1384 C1376 1.574 . S
C1384 H1379 0.949 . S
C1384 C1390 1.368 . S
C1385 C1369 1.349 . S
C1385 H1377 0.950 . S
C1385 C1383 1.327 . S
C1386 C1374 1.349 . S
C1386 H1380 0.950 . S
C1386 C1387 1.327 . S
C1387 H1381 0.950 . S
C1387 C1386 1.327 . S
C1387 C1391 1.429 . S
C1388 C1371 1.574 . S
C1388 H1382 0.949 . S
C1388 C1392 1.368 . S
C1389 C1370 1.429 . S
C1389 C1383 1.429 . S
C1389 C1390 1.523 . S
C1390 C1371 1.368 . S
C1390 C1384 1.368 . S
C1390 C1389 1.523 . S
C1391 C1375 1.429 . S
C1391 C1387 1.429 . S
C1391 C1392 1.523 . S
C1392 C1376 1.368 . S
C1392 C1388 1.368 . S
C1392 C1391 1.523 . S
H1393 C1368 0.950 . S
H1394 C1370 0.950 . S
H1395 C1371 0.949 . S
H1396 C1373 0.950 . S
H1397 C1375 0.950 . S
C1398 C1399 1.349 . S
C1398 C1400 1.327 . S
C1398 H1423 0.950 . S
C1399 C1398 1.349 . S
C1399 C1415 1.349 . S
C1400 C1398 1.327 . S
C1400 C1419 1.429 . S
C1400 H1424 0.950 . S
C1401 C1418 1.574 . S
C1401 C1420 1.368 . S
C1401 H1425 0.949 . S
H1402 C1406 0.949 . S
C1403 C1404 1.349 . S
C1403 C1405 1.327 . S
C1403 H1426 0.950 . S
C1404 C1403 1.349 . S
C1404 C1416 1.349 . S
C1405 C1403 1.327 . S
C1405 C1421 1.429 . S
C1405 H1427 0.950 . S
C1406 H1402 0.949 . S
C1406 C1414 1.574 . S
C1406 C1422 1.368 . S
H1407 C1415 0.950 . S
H1408 C1413 0.950 . S
H1409 C1414 0.949 . S
H1410 C1416 0.950 . S
H1411 C1417 0.950 . S
H1412 C1418 0.949 . S
C1413 H1408 0.950 . S
C1413 C1415 1.327 . S
C1413 C1419 1.429 . S
C1414 C1406 1.574 . S
C1414 H1409 0.949 . S
C1414 C1420 1.368 . S
C1415 C1399 1.349 . S
C1415 H1407 0.950 . S
C1415 C1413 1.327 . S
C1416 C1404 1.349 . S
C1416 H1410 0.950 . S
C1416 C1417 1.327 . S
C1417 H1411 0.950 . S
C1417 C1416 1.327 . S
C1417 C1421 1.429 . S
C1418 C1401 1.574 . S
C1418 H1412 0.949 . S
C1418 C1422 1.368 . S
C1419 C1400 1.429 . S
C1419 C1413 1.429 . S
C1419 C1420 1.523 . S
C1420 C1401 1.368 . S
C1420 C1414 1.368 . S
C1420 C1419 1.523 . S
C1421 C1405 1.429 . S
C1421 C1417 1.429 . S
C1421 C1422 1.523 . S
C1422 C1406 1.368 . S
C1422 C1418 1.368 . S
C1422 C1421 1.523 . S
H1423 C1398 0.950 . S
H1424 C1400 0.950 . S
H1425 C1401 0.949 . S
H1426 C1403 0.950 . S
H1427 C1405 0.950 . S
C1428 C1429 1.349 . S
C1428 C1430 1.327 . S
C1428 H1453 0.950 . S
C1429 C1428 1.349 . S
C1429 C1445 1.349 . S
C1430 C1428 1.327 . S
C1430 C1449 1.429 . S
C1430 H1454 0.950 . S
C1431 C1448 1.574 . S
C1431 C1450 1.368 . S
C1431 H1455 0.949 . S
H1432 C1436 0.949 . S
C1433 C1434 1.349 . S
C1433 C1435 1.327 . S
C1433 H1456 0.950 . S
C1434 C1433 1.349 . S
C1434 C1446 1.349 . S
C1435 C1433 1.327 . S
C1435 C1451 1.429 . S
C1435 H1457 0.950 . S
C1436 H1432 0.949 . S
C1436 C1444 1.574 . S
C1436 C1452 1.368 . S
H1437 C1445 0.950 . S
H1438 C1443 0.950 . S
H1439 C1444 0.949 . S
H1440 C1446 0.950 . S
H1441 C1447 0.950 . S
H1442 C1448 0.949 . S
C1443 H1438 0.950 . S
C1443 C1445 1.327 . S
C1443 C1449 1.429 . S
C1444 C1436 1.574 . S
C1444 H1439 0.949 . S
C1444 C1450 1.368 . S
C1445 C1429 1.349 . S
C1445 H1437 0.950 . S
C1445 C1443 1.327 . S
C1446 C1434 1.349 . S
C1446 H1440 0.950 . S
C1446 C1447 1.327 . S
C1447 H1441 0.950 . S
C1447 C1446 1.327 . S
C1447 C1451 1.429 . S
C1448 C1431 1.574 . S
C1448 H1442 0.949 . S
C1448 C1452 1.368 . S
C1449 C1430 1.429 . S
C1449 C1443 1.429 . S
C1449 C1450 1.523 . S
C1450 C1431 1.368 . S
C1450 C1444 1.368 . S
C1450 C1449 1.523 . S
C1451 C1435 1.429 . S
C1451 C1447 1.429 . S
C1451 C1452 1.523 . S
C1452 C1436 1.368 . S
C1452 C1448 1.368 . S
C1452 C1451 1.523 . S
H1453 C1428 0.950 . S
H1454 C1430 0.950 . S
H1455 C1431 0.949 . S
H1456 C1433 0.950 . S
H1457 C1435 0.950 . S
C1458 C1459 1.349 . S
C1458 C1460 1.327 . S
C1458 H1483 0.950 . S
C1459 C1458 1.349 . S
C1459 C1475 1.349 . S
C1460 C1458 1.327 . S
C1460 C1479 1.429 . S
C1460 H1484 0.950 . S
C1461 C1478 1.574 . S
C1461 C1480 1.368 . S
C1461 H1485 0.949 . S
H1462 C1466 0.949 . S
C1463 C1464 1.349 . S
C1463 C1465 1.327 . S
C1463 H1486 0.950 . S
C1464 C1463 1.349 . S
C1464 C1476 1.349 . S
C1465 C1463 1.327 . S
C1465 C1481 1.429 . S
C1465 H1487 0.950 . S
C1466 H1462 0.949 . S
C1466 C1474 1.574 . S
C1466 C1482 1.368 . S
H1467 C1475 0.950 . S
H1468 C1473 0.950 . S
H1469 C1474 0.949 . S
H1470 C1476 0.950 . S
H1471 C1477 0.950 . S
H1472 C1478 0.949 . S
C1473 H1468 0.950 . S
C1473 C1475 1.327 . S
C1473 C1479 1.429 . S
C1474 C1466 1.574 . S
C1474 H1469 0.949 . S
C1474 C1480 1.368 . S
C1475 C1459 1.349 . S
C1475 H1467 0.950 . S
C1475 C1473 1.327 . S
C1476 C1464 1.349 . S
C1476 H1470 0.950 . S
C1476 C1477 1.327 . S
C1477 H1471 0.950 . S
C1477 C1476 1.327 . S
C1477 C1481 1.429 . S
C1478 C1461 1.574 . S
C1478 H1472 0.949 . S
C1478 C1482 1.368 . S
C1479 C1460 1.429 . S
C1479 C1473 1.429 . S
C1479 C1480 1.523 . S
C1480 C1461 1.368 . S
C1480 C1474 1.368 . S
C1480 C1479 1.523 . S
C1481 C1465 1.429 . S
C1481 C1477 1.429 . S
C1481 C1482 1.523 . S
C1482 C1466 1.368 . S
C1482 C1478 1.368 . S
C1482 C1481 1.523 . S
H1483 C1458 0.950 . S
H1484 C1460 0.950 . S
H1485 C1461 0.949 . S
H1486 C1463 0.950 . S
H1487 C1465 0.950 . S
C1488 C1489 1.349 . S
C1488 C1490 1.327 . S
C1488 H1513 0.950 . S
C1489 C1488 1.349 . S
C1489 C1505 1.349 . S
C1490 C1488 1.327 . S
C1490 C1509 1.429 . S
C1490 H1514 0.950 . S
C1491 C1508 1.574 . S
C1491 C1510 1.368 . S
C1491 H1515 0.949 . S
H1492 C1496 0.949 . S
C1493 C1494 1.349 . S
C1493 C1495 1.327 . S
C1493 H1516 0.950 . S
C1494 C1493 1.349 . S
C1494 C1506 1.349 . S
C1495 C1493 1.327 . S
C1495 C1511 1.429 . S
C1495 H1517 0.950 . S
C1496 H1492 0.949 . S
C1496 C1504 1.574 . S
C1496 C1512 1.368 . S
H1497 C1505 0.950 . S
H1498 C1503 0.950 . S
H1499 C1504 0.949 . S
H1500 C1506 0.950 . S
H1501 C1507 0.950 . S
H1502 C1508 0.949 . S
C1503 H1498 0.950 . S
C1503 C1505 1.327 . S
C1503 C1509 1.429 . S
C1504 C1496 1.574 . S
C1504 H1499 0.949 . S
C1504 C1510 1.368 . S
C1505 C1489 1.349 . S
C1505 H1497 0.950 . S
C1505 C1503 1.327 . S
C1506 C1494 1.349 . S
C1506 H1500 0.950 . S
C1506 C1507 1.327 . S
C1507 H1501 0.950 . S
C1507 C1506 1.327 . S
C1507 C1511 1.429 . S
C1508 C1491 1.574 . S
C1508 H1502 0.949 . S
C1508 C1512 1.368 . S
C1509 C1490 1.429 . S
C1509 C1503 1.429 . S
C1509 C1510 1.523 . S
C1510 C1491 1.368 . S
C1510 C1504 1.368 . S
C1510 C1509 1.523 . S
C1511 C1495 1.429 . S
C1511 C1507 1.429 . S
C1511 C1512 1.523 . S
C1512 C1496 1.368 . S
C1512 C1508 1.368 . S
C1512 C1511 1.523 . S
H1513 C1488 0.950 . S
H1514 C1490 0.950 . S
H1515 C1491 0.949 . S
H1516 C1493 0.950 . S
H1517 C1495 0.950 . S
C1518 C1519 1.349 . S
C1518 C1520 1.327 . S
C1518 H1543 0.950 . S
C1519 C1518 1.349 . S
C1519 C1535 1.349 . S
C1520 C1518 1.327 . S
C1520 C1539 1.429 . S
C1520 H1544 0.950 . S
C1521 C1538 1.574 . S
C1521 C1540 1.368 . S
C1521 H1545 0.949 . S
H1522 C1526 0.949 . S
C1523 C1524 1.349 . S
C1523 C1525 1.327 . S
C1523 H1546 0.950 . S
C1524 C1523 1.349 . S
C1524 C1536 1.349 . S
C1525 C1523 1.327 . S
C1525 C1541 1.429 . S
C1525 H1547 0.950 . S
C1526 H1522 0.949 . S
C1526 C1534 1.574 . S
C1526 C1542 1.368 . S
H1527 C1535 0.950 . S
H1528 C1533 0.950 . S
H1529 C1534 0.949 . S
H1530 C1536 0.950 . S
H1531 C1537 0.950 . S
H1532 C1538 0.949 . S
C1533 H1528 0.950 . S
C1533 C1535 1.327 . S
C1533 C1539 1.429 . S
C1534 C1526 1.574 . S
C1534 H1529 0.949 . S
C1534 C1540 1.368 . S
C1535 C1519 1.349 . S
C1535 H1527 0.950 . S
C1535 C1533 1.327 . S
C1536 C1524 1.349 . S
C1536 H1530 0.950 . S
C1536 C1537 1.327 . S
C1537 H1531 0.950 . S
C1537 C1536 1.327 . S
C1537 C1541 1.429 . S
C1538 C1521 1.574 . S
C1538 H1532 0.949 . S
C1538 C1542 1.368 . S
C1539 C1520 1.429 . S
C1539 C1533 1.429 . S
C1539 C1540 1.523 . S
C1540 C1521 1.368 . S
C1540 C1534 1.368 . S
C1540 C1539 1.523 . S
C1541 C1525 1.429 . S
C1541 C1537 1.429 . S
C1541 C1542 1.523 . S
C1542 C1526 1.368 . S
C1542 C1538 1.368 . S
C1542 C1541 1.523 . S
H1543 C1518 0.950 . S
H1544 C1520 0.950 . S
H1545 C1521 0.949 . S
H1546 C1523 0.950 . S
H1547 C1525 0.950 . S
C1548 C1549 1.349 . S
C1548 C1550 1.327 . S
C1548 H1573 0.950 . S
C1549 C1548 1.349 . S
C1549 C1565 1.349 . S
C1550 C1548 1.327 . S
C1550 C1569 1.429 . S
C1550 H1574 0.950 . S
C1551 C1568 1.574 1_566 S
C1551 C1570 1.368 . S
C1551 H1575 0.949 . S
H1552 C1556 0.949 . S
C1553 C1554 1.349 . S
C1553 C1555 1.327 . S
C1553 H1576 0.950 . S
C1554 C1553 1.349 . S
C1554 C1566 1.349 . S
C1555 C1553 1.327 . S
C1555 C1571 1.429 . S
C1555 H1577 0.950 . S
C1556 H1552 0.949 . S
C1556 C1564 1.574 1_544 S
C1556 C1572 1.368 . S
H1557 C1565 0.950 . S
H1558 C1563 0.950 . S
H1559 C1564 0.949 . S
H1560 C1566 0.950 . S
H1561 C1567 0.950 . S
H1562 C1568 0.949 . S
C1563 H1558 0.950 . S
C1563 C1565 1.327 . S
C1563 C1569 1.429 . S
C1564 C1556 1.574 1_566 S
C1564 H1559 0.949 . S
C1564 C1570 1.368 . S
C1565 C1549 1.349 . S
C1565 H1557 0.950 . S
C1565 C1563 1.327 . S
C1566 C1554 1.349 . S
C1566 H1560 0.950 . S
C1566 C1567 1.327 . S
C1567 H1561 0.950 . S
C1567 C1566 1.327 . S
C1567 C1571 1.429 . S
C1568 C1551 1.574 1_544 S
C1568 H1562 0.949 . S
C1568 C1572 1.368 . S
C1569 C1550 1.429 . S
C1569 C1563 1.429 . S
C1569 C1570 1.523 . S
C1570 C1551 1.368 . S
C1570 C1564 1.368 . S
C1570 C1569 1.523 . S
C1571 C1555 1.429 . S
C1571 C1567 1.429 . S
C1571 C1572 1.523 . S
C1572 C1556 1.368 . S
C1572 C1568 1.368 . S
C1572 C1571 1.523 . S
H1573 C1548 0.950 . S
H1574 C1550 0.950 . S
H1575 C1551 0.949 . S
H1576 C1553 0.950 . S
H1577 C1555 0.950 . S
C1578 C1579 1.349 . S
C1578 C1580 1.327 . S
C1578 H1603 0.950 . S
C1579 C1578 1.349 . S
C1579 C1595 1.349 . S
C1580 C1578 1.327 . S
C1580 C1599 1.429 . S
C1580 H1604 0.950 . S
C1581 C1598 1.574 . S
C1581 C1600 1.368 . S
C1581 H1605 0.949 . S
H1582 C1586 0.949 . S
C1583 C1584 1.349 . S
C1583 C1585 1.327 . S
C1583 H1606 0.950 . S
C1584 C1583 1.349 . S
C1584 C1596 1.349 . S
C1585 C1583 1.327 . S
C1585 C1601 1.429 . S
C1585 H1607 0.950 . S
C1586 H1582 0.949 . S
C1586 C1594 1.574 . S
C1586 C1602 1.368 . S
H1587 C1595 0.950 . S
H1588 C1593 0.950 . S
H1589 C1594 0.949 . S
H1590 C1596 0.950 . S
H1591 C1597 0.950 . S
H1592 C1598 0.949 . S
C1593 H1588 0.950 . S
C1593 C1595 1.327 . S
C1593 C1599 1.429 . S
C1594 C1586 1.574 . S
C1594 H1589 0.949 . S
C1594 C1600 1.368 . S
C1595 C1579 1.349 . S
C1595 H1587 0.950 . S
C1595 C1593 1.327 . S
C1596 C1584 1.349 . S
C1596 H1590 0.950 . S
C1596 C1597 1.327 . S
C1597 H1591 0.950 . S
C1597 C1596 1.327 . S
C1597 C1601 1.429 . S
C1598 C1581 1.574 . S
C1598 H1592 0.949 . S
C1598 C1602 1.368 . S
C1599 C1580 1.429 . S
C1599 C1593 1.429 . S
C1599 C1600 1.523 . S
C1600 C1581 1.368 . S
C1600 C1594 1.368 . S
C1600 C1599 1.523 . S
C1601 C1585 1.429 . S
C1601 C1597 1.429 . S
C1601 C1602 1.523 . S
C1602 C1586 1.368 . S
C1602 C1598 1.368 . S
C1602 C1601 1.523 . S
H1603 C1578 0.950 . S
H1604 C1580 0.950 . S
H1605 C1581 0.949 . S
H1606 C1583 0.950 . S
H1607 C1585 0.950 . S
C1608 C1609 1.349 . S
C1608 C1610 1.327 . S
C1608 H1633 0.950 . S
C1609 C1608 1.349 . S
C1609 C1625 1.349 . S
C1610 C1608 1.327 . S
C1610 C1629 1.429 . S
C1610 H1634 0.950 . S
C1611 C1628 1.574 1_456 S
C1611 C1630 1.368 . S
C1611 H1635 0.949 . S
H1612 C1616 0.949 . S
C1613 C1614 1.349 . S
C1613 C1615 1.327 . S
C1613 H1636 0.950 . S
C1614 C1613 1.349 . S
C1614 C1626 1.349 . S
C1615 C1613 1.327 . S
C1615 C1631 1.429 . S
C1615 H1637 0.950 . S
C1616 H1612 0.949 . S
C1616 C1624 1.574 1_654 S
C1616 C1632 1.368 . S
H1617 C1625 0.950 . S
H1618 C1623 0.950 . S
H1619 C1624 0.949 . S
H1620 C1626 0.950 . S
H1621 C1627 0.950 . S
H1622 C1628 0.949 . S
C1623 H1618 0.950 . S
C1623 C1625 1.327 . S
C1623 C1629 1.429 . S
C1624 C1616 1.574 1_456 S
C1624 H1619 0.949 . S
C1624 C1630 1.368 . S
C1625 C1609 1.349 . S
C1625 H1617 0.950 . S
C1625 C1623 1.327 . S
C1626 C1614 1.349 . S
C1626 H1620 0.950 . S
C1626 C1627 1.327 . S
C1627 H1621 0.950 . S
C1627 C1626 1.327 . S
C1627 C1631 1.429 . S
C1628 C1611 1.574 1_654 S
C1628 H1622 0.949 . S
C1628 C1632 1.368 . S
C1629 C1610 1.429 . S
C1629 C1623 1.429 . S
C1629 C1630 1.523 . S
C1630 C1611 1.368 . S
C1630 C1624 1.368 . S
C1630 C1629 1.523 . S
C1631 C1615 1.429 . S
C1631 C1627 1.429 . S
C1631 C1632 1.523 . S
C1632 C1616 1.368 . S
C1632 C1628 1.368 . S
C1632 C1631 1.523 . S
H1633 C1608 0.950 . S
H1634 C1610 0.950 . S
H1635 C1611 0.949 . S
H1636 C1613 0.950 . S
H1637 C1615 0.950 . S
C1638 C1639 1.349 . S
C1638 C1640 1.327 . S
C1638 H1663 0.950 . S
C1639 C1638 1.349 . S
C1639 C1655 1.349 . S
C1640 C1638 1.327 . S
C1640 C1659 1.429 . S
C1640 H1664 0.950 . S
C1641 C1658 1.574 1_545 S
C1641 C1660 1.368 . S
C1641 H1665 0.949 . S
H1642 C1646 0.949 . S
C1643 C1644 1.349 . S
C1643 C1645 1.327 . S
C1643 H1666 0.950 . S
C1644 C1643 1.349 . S
C1644 C1656 1.349 . S
C1645 C1643 1.327 . S
C1645 C1661 1.429 . S
C1645 H1667 0.950 . S
C1646 H1642 0.949 . S
C1646 C1654 1.574 1_565 S
C1646 C1662 1.368 . S
H1647 C1655 0.950 . S
H1648 C1653 0.950 . S
H1649 C1654 0.949 . S
H1650 C1656 0.950 . S
H1651 C1657 0.950 . S
H1652 C1658 0.949 . S
C1653 H1648 0.950 . S
C1653 C1655 1.327 . S
C1653 C1659 1.429 . S
C1654 C1646 1.574 1_545 S
C1654 H1649 0.949 . S
C1654 C1660 1.368 . S
C1655 C1639 1.349 . S
C1655 H1647 0.950 . S
C1655 C1653 1.327 . S
C1656 C1644 1.349 . S
C1656 H1650 0.950 . S
C1656 C1657 1.327 . S
C1657 H1651 0.950 . S
C1657 C1656 1.327 . S
C1657 C1661 1.429 . S
C1658 C1641 1.574 1_565 S
C1658 H1652 0.949 . S
C1658 C1662 1.368 . S
C1659 C1640 1.429 . S
C1659 C1653 1.429 . S
C1659 C1660 1.523 . S
C1660 C1641 1.368 . S
C1660 C1654 1.368 . S
C1660 C1659 1.523 . S
C1661 C1645 1.429 . S
C1661 C1657 1.429 . S
C1661 C1662 1.523 . S
C1662 C1646 1.368 . S
C1662 C1658 1.368 . S
C1662 C1661 1.523 . S
H1663 C1638 0.950 . S
H1664 C1640 0.950 . S
H1665 C1641 0.949 . S
H1666 C1643 0.950 . S
H1667 C1645 0.950 . S
C1668 C1669 1.349 . S
C1668 C1670 1.327 . S
C1668 H1693 0.950 . S
C1669 C1668 1.349 . S
C1669 C1685 1.349 . S
C1670 C1668 1.327 . S
C1670 C1689 1.429 . S
C1670 H1694 0.950 . S
C1671 C1688 1.574 1_554 S
C1671 C1690 1.368 . S
C1671 H1695 0.949 . S
H1672 C1676 0.949 . S
C1673 C1674 1.349 . S
C1673 C1675 1.327 . S
C1673 H1696 0.950 . S
C1674 C1673 1.349 . S
C1674 C1686 1.349 . S
C1675 C1673 1.327 . S
C1675 C1691 1.429 . S
C1675 H1697 0.950 . S
C1676 H1672 0.949 . S
C1676 C1684 1.574 1_556 S
C1676 C1692 1.368 . S
H1677 C1685 0.950 . S
H1678 C1683 0.950 . S
H1679 C1684 0.949 . S
H1680 C1686 0.950 . S
H1681 C1687 0.950 . S
H1682 C1688 0.949 . S
C1683 H1678 0.950 . S
C1683 C1685 1.327 . S
C1683 C1689 1.429 . S
C1684 C1676 1.574 1_554 S
C1684 H1679 0.949 . S
C1684 C1690 1.368 . S
C1685 C1669 1.349 . S
C1685 H1677 0.950 . S
C1685 C1683 1.327 . S
C1686 C1674 1.349 . S
C1686 H1680 0.950 . S
C1686 C1687 1.327 . S
C1687 H1681 0.950 . S
C1687 C1686 1.327 . S
C1687 C1691 1.429 . S
C1688 C1671 1.574 1_556 S
C1688 H1682 0.949 . S
C1688 C1692 1.368 . S
C1689 C1670 1.429 . S
C1689 C1683 1.429 . S
C1689 C1690 1.523 . S
C1690 C1671 1.368 . S
C1690 C1684 1.368 . S
C1690 C1689 1.523 . S
C1691 C1675 1.429 . S
C1691 C1687 1.429 . S
C1691 C1692 1.523 . S
C1692 C1676 1.368 . S
C1692 C1688 1.368 . S
C1692 C1691 1.523 . S
H1693 C1668 0.950 . S
H1694 C1670 0.950 . S
H1695 C1671 0.949 . S
H1696 C1673 0.950 . S
H1697 C1675 0.950 . S
C1698 C1699 1.349 . S
C1698 C1700 1.327 . S
C1698 H1723 0.950 . S
C1699 C1698 1.349 . S
C1699 C1715 1.349 . S
C1700 C1698 1.327 . S
C1700 C1719 1.429 . S
C1700 H1724 0.950 . S
C1701 C1718 1.574 1_455 S
C1701 C1720 1.368 . S
C1701 H1725 0.949 . S
H1702 C1706 0.949 . S
C1703 C1704 1.349 . S
C1703 C1705 1.327 . S
C1703 H1726 0.950 . S
C1704 C1703 1.349 . S
C1704 C1716 1.349 . S
C1705 C1703 1.327 . S
C1705 C1721 1.429 . S
C1705 H1727 0.950 . S
C1706 H1702 0.949 . S
C1706 C1714 1.574 1_655 S
C1706 C1722 1.368 . S
H1707 C1715 0.950 . S
H1708 C1713 0.950 . S
H1709 C1714 0.949 . S
H1710 C1716 0.950 . S
H1711 C1717 0.950 . S
H1712 C1718 0.949 . S
C1713 H1708 0.950 . S
C1713 C1715 1.327 . S
C1713 C1719 1.429 . S
C1714 C1706 1.574 1_455 S
C1714 H1709 0.949 . S
C1714 C1720 1.368 . S
C1715 C1699 1.349 . S
C1715 H1707 0.950 . S
C1715 C1713 1.327 . S
C1716 C1704 1.349 . S
C1716 H1710 0.950 . S
C1716 C1717 1.327 . S
C1717 H1711 0.950 . S
C1717 C1716 1.327 . S
C1717 C1721 1.429 . S
C1718 C1701 1.574 1_655 S
C1718 H1712 0.949 . S
C1718 C1722 1.368 . S
C1719 C1700 1.429 . S
C1719 C1713 1.429 . S
C1719 C1720 1.523 . S
C1720 C1701 1.368 . S
C1720 C1714 1.368 . S
C1720 C1719 1.523 . S
C1721 C1705 1.429 . S
C1721 C1717 1.429 . S
C1721 C1722 1.523 . S
C1722 C1706 1.368 . S
C1722 C1718 1.368 . S
C1722 C1721 1.523 . S
H1723 C1698 0.950 . S
H1724 C1700 0.950 . S
H1725 C1701 0.949 . S
H1726 C1703 0.950 . S
H1727 C1705 0.950 . S
C1728 C1729 1.349 . S
C1728 C1730 1.327 . S
C1728 H1753 0.950 . S
C1729 C1728 1.349 . S
C1729 C1745 1.349 . S
C1730 C1728 1.327 . S
C1730 C1749 1.429 . S
C1730 H1754 0.950 . S
C1731 C1748 1.574 . S
C1731 C1750 1.368 . S
C1731 H1755 0.949 . S
H1732 C1736 0.949 . S
C1733 C1734 1.349 . S
C1733 C1735 1.327 . S
C1733 H1756 0.950 . S
C1734 C1733 1.349 . S
C1734 C1746 1.349 . S
C1735 C1733 1.327 . S
C1735 C1751 1.429 . S
C1735 H1757 0.950 . S
C1736 H1732 0.949 . S
C1736 C1744 1.574 . S
C1736 C1752 1.368 . S
H1737 C1745 0.950 . S
H1738 C1743 0.950 . S
H1739 C1744 0.949 . S
H1740 C1746 0.950 . S
H1741 C1747 0.950 . S
H1742 C1748 0.949 . S
C1743 H1738 0.950 . S
C1743 C1745 1.327 . S
C1743 C1749 1.429 . S
C1744 C1736 1.574 . S
C1744 H1739 0.949 . S
C1744 C1750 1.368 . S
C1745 C1729 1.349 . S
C1745 H1737 0.950 . S
C1745 C1743 1.327 . S
C1746 C1734 1.349 . S
C1746 H1740 0.950 . S
C1746 C1747 1.327 . S
C1747 H1741 0.950 . S
C1747 C1746 1.327 . S
C1747 C1751 1.429 . S
C1748 C1731 1.574 . S
C1748 H1742 0.949 . S
C1748 C1752 1.368 . S
C1749 C1730 1.429 . S
C1749 C1743 1.429 . S
C1749 C1750 1.523 . S
C1750 C1731 1.368 . S
C1750 C1744 1.368 . S
C1750 C1749 1.523 . S
C1751 C1735 1.429 . S
C1751 C1747 1.429 . S
C1751 C1752 1.523 . S
C1752 C1736 1.368 . S
C1752 C1748 1.368 . S
C1752 C1751 1.523 . S
H1753 C1728 0.950 . S
H1754 C1730 0.950 . S
H1755 C1731 0.949 . S
H1756 C1733 0.950 . S
H1757 C1735 0.950 . S
C1758 C1759 1.349 . S
C1758 C1760 1.327 . S
C1758 H1783 0.950 . S
C1759 C1758 1.349 . S
C1759 C1775 1.349 . S
C1760 C1758 1.327 . S
C1760 C1779 1.429 . S
C1760 H1784 0.950 . S
C1761 C1778 1.574 . S
C1761 C1780 1.368 . S
C1761 H1785 0.949 . S
H1762 C1766 0.949 . S
C1763 C1764 1.349 . S
C1763 C1765 1.327 . S
C1763 H1786 0.950 . S
C1764 C1763 1.349 . S
C1764 C1776 1.349 . S
C1765 C1763 1.327 . S
C1765 C1781 1.429 . S
C1765 H1787 0.950 . S
C1766 H1762 0.949 . S
C1766 C1774 1.574 . S
C1766 C1782 1.368 . S
H1767 C1775 0.950 . S
H1768 C1773 0.950 . S
H1769 C1774 0.949 . S
H1770 C1776 0.950 . S
H1771 C1777 0.950 . S
H1772 C1778 0.949 . S
C1773 H1768 0.950 . S
C1773 C1775 1.327 . S
C1773 C1779 1.429 . S
C1774 C1766 1.574 . S
C1774 H1769 0.949 . S
C1774 C1780 1.368 . S
C1775 C1759 1.349 . S
C1775 H1767 0.950 . S
C1775 C1773 1.327 . S
C1776 C1764 1.349 . S
C1776 H1770 0.950 . S
C1776 C1777 1.327 . S
C1777 H1771 0.950 . S
C1777 C1776 1.327 . S
C1777 C1781 1.429 . S
C1778 C1761 1.574 . S
C1778 H1772 0.949 . S
C1778 C1782 1.368 . S
C1779 C1760 1.429 . S
C1779 C1773 1.429 . S
C1779 C1780 1.523 . S
C1780 C1761 1.368 . S
C1780 C1774 1.368 . S
C1780 C1779 1.523 . S
C1781 C1765 1.429 . S
C1781 C1777 1.429 . S
C1781 C1782 1.523 . S
C1782 C1766 1.368 . S
C1782 C1778 1.368 . S
C1782 C1781 1.523 . S
H1783 C1758 0.950 . S
H1784 C1760 0.950 . S
H1785 C1761 0.949 . S
H1786 C1763 0.950 . S
H1787 C1765 0.950 . S
C1788 C1789 1.349 . S
C1788 C1790 1.327 . S
C1788 H1813 0.950 . S
C1789 C1788 1.349 . S
C1789 C1805 1.349 . S
C1790 C1788 1.327 . S
C1790 C1809 1.429 . S
C1790 H1814 0.950 . S
C1791 C1808 1.574 . S
C1791 C1810 1.368 . S
C1791 H1815 0.949 . S
H1792 C1796 0.949 . S
C1793 C1794 1.349 . S
C1793 C1795 1.327 . S
C1793 H1816 0.950 . S
C1794 C1793 1.349 . S
C1794 C1806 1.349 . S
C1795 C1793 1.327 . S
C1795 C1811 1.429 . S
C1795 H1817 0.950 . S
C1796 H1792 0.949 . S
C1796 C1804 1.574 . S
C1796 C1812 1.368 . S
H1797 C1805 0.950 . S
H1798 C1803 0.950 . S
H1799 C1804 0.949 . S
H1800 C1806 0.950 . S
H1801 C1807 0.950 . S
H1802 C1808 0.949 . S
C1803 H1798 0.950 . S
C1803 C1805 1.327 . S
C1803 C1809 1.429 . S
C1804 C1796 1.574 . S
C1804 H1799 0.949 . S
C1804 C1810 1.368 . S
C1805 C1789 1.349 . S
C1805 H1797 0.950 . S
C1805 C1803 1.327 . S
C1806 C1794 1.349 . S
C1806 H1800 0.950 . S
C1806 C1807 1.327 . S
C1807 H1801 0.950 . S
C1807 C1806 1.327 . S
C1807 C1811 1.429 . S
C1808 C1791 1.574 . S
C1808 H1802 0.949 . S
C1808 C1812 1.368 . S
C1809 C1790 1.429 . S
C1809 C1803 1.429 . S
C1809 C1810 1.523 . S
C1810 C1791 1.368 . S
C1810 C1804 1.368 . S
C1810 C1809 1.523 . S
C1811 C1795 1.429 . S
C1811 C1807 1.429 . S
C1811 C1812 1.523 . S
C1812 C1796 1.368 . S
C1812 C1808 1.368 . S
C1812 C1811 1.523 . S
H1813 C1788 0.950 . S
H1814 C1790 0.950 . S
H1815 C1791 0.949 . S
H1816 C1793 0.950 . S
H1817 C1795 0.950 . S
C1818 C1819 1.349 . S
C1818 C1820 1.327 . S
C1818 H1843 0.950 . S
C1819 C1818 1.349 . S
C1819 C1835 1.349 . S
C1820 C1818 1.327 . S
C1820 C1839 1.429 . S
C1820 H1844 0.950 . S
C1821 C1838 1.574 . S
C1821 C1840 1.368 . S
C1821 H1845 0.949 . S
H1822 C1826 0.949 . S
C1823 C1824 1.349 . S
C1823 C1825 1.327 . S
C1823 H1846 0.950 . S
C1824 C1823 1.349 . S
C1824 C1836 1.349 . S
C1825 C1823 1.327 . S
C1825 C1841 1.429 . S
C1825 H1847 0.950 . S
C1826 H1822 0.949 . S
C1826 C1834 1.574 . S
C1826 C1842 1.368 . S
H1827 C1835 0.950 . S
H1828 C1833 0.950 . S
H1829 C1834 0.949 . S
H1830 C1836 0.950 . S
H1831 C1837 0.950 . S
H1832 C1838 0.949 . S
C1833 H1828 0.950 . S
C1833 C1835 1.327 . S
C1833 C1839 1.429 . S
C1834 C1826 1.574 . S
C1834 H1829 0.949 . S
C1834 C1840 1.368 . S
C1835 C1819 1.349 . S
C1835 H1827 0.950 . S
C1835 C1833 1.327 . S
C1836 C1824 1.349 . S
C1836 H1830 0.950 . S
C1836 C1837 1.327 . S
C1837 H1831 0.950 . S
C1837 C1836 1.327 . S
C1837 C1841 1.429 . S
C1838 C1821 1.574 . S
C1838 H1832 0.949 . S
C1838 C1842 1.368 . S
C1839 C1820 1.429 . S
C1839 C1833 1.429 . S
C1839 C1840 1.523 . S
C1840 C1821 1.368 . S
C1840 C1834 1.368 . S
C1840 C1839 1.523 . S
C1841 C1825 1.429 . S
C1841 C1837 1.429 . S
C1841 C1842 1.523 . S
C1842 C1826 1.368 . S
C1842 C1838 1.368 . S
C1842 C1841 1.523 . S
H1843 C1818 0.950 . S
H1844 C1820 0.950 . S
H1845 C1821 0.949 . S
H1846 C1823 0.950 . S
H1847 C1825 0.950 . S
C1848 C1849 1.349 . S
C1848 C1850 1.327 . S
C1848 H1873 0.950 . S
C1849 C1848 1.349 . S
C1849 C1865 1.349 . S
C1850 C1848 1.327 . S
C1850 C1869 1.429 . S
C1850 H1874 0.950 . S
C1851 C1868 1.574 . S
C1851 C1870 1.368 . S
C1851 H1875 0.949 . S
H1852 C1856 0.949 . S
C1853 C1854 1.349 . S
C1853 C1855 1.327 . S
C1853 H1876 0.950 . S
C1854 C1853 1.349 . S
C1854 C1866 1.349 . S
C1855 C1853 1.327 . S
C1855 C1871 1.429 . S
C1855 H1877 0.950 . S
C1856 H1852 0.949 . S
C1856 C1864 1.574 . S
C1856 C1872 1.368 . S
H1857 C1865 0.950 . S
H1858 C1863 0.950 . S
H1859 C1864 0.949 . S
H1860 C1866 0.950 . S
H1861 C1867 0.950 . S
H1862 C1868 0.949 . S
C1863 H1858 0.950 . S
C1863 C1865 1.327 . S
C1863 C1869 1.429 . S
C1864 C1856 1.574 . S
C1864 H1859 0.949 . S
C1864 C1870 1.368 . S
C1865 C1849 1.349 . S
C1865 H1857 0.950 . S
C1865 C1863 1.327 . S
C1866 C1854 1.349 . S
C1866 H1860 0.950 . S
C1866 C1867 1.327 . S
C1867 H1861 0.950 . S
C1867 C1866 1.327 . S
C1867 C1871 1.429 . S
C1868 C1851 1.574 . S
C1868 H1862 0.949 . S
C1868 C1872 1.368 . S
C1869 C1850 1.429 . S
C1869 C1863 1.429 . S
C1869 C1870 1.523 . S
C1870 C1851 1.368 . S
C1870 C1864 1.368 . S
C1870 C1869 1.523 . S
C1871 C1855 1.429 . S
C1871 C1867 1.429 . S
C1871 C1872 1.523 . S
C1872 C1856 1.368 . S
C1872 C1868 1.368 . S
C1872 C1871 1.523 . S
H1873 C1848 0.950 . S
H1874 C1850 0.950 . S
H1875 C1851 0.949 . S
H1876 C1853 0.950 . S
H1877 C1855 0.950 . S
C1878 C1879 1.349 . S
C1878 C1880 1.327 . S
C1878 H1903 0.950 . S
C1879 C1878 1.349 . S
C1879 C1895 1.349 . S
C1880 C1878 1.327 . S
C1880 C1899 1.429 . S
C1880 H1904 0.950 . S
C1881 C1898 1.574 . S
C1881 C1900 1.368 . S
C1881 H1905 0.949 . S
H1882 C1886 0.949 . S
C1883 C1884 1.349 . S
C1883 C1885 1.327 . S
C1883 H1906 0.950 . S
C1884 C1883 1.349 . S
C1884 C1896 1.349 . S
C1885 C1883 1.327 . S
C1885 C1901 1.429 . S
C1885 H1907 0.950 . S
C1886 H1882 0.949 . S
C1886 C1894 1.574 . S
C1886 C1902 1.368 . S
H1887 C1895 0.950 . S
H1888 C1893 0.950 . S
H1889 C1894 0.949 . S
H1890 C1896 0.950 . S
H1891 C1897 0.950 . S
H1892 C1898 0.949 . S
C1893 H1888 0.950 . S
C1893 C1895 1.327 . S
C1893 C1899 1.429 . S
C1894 C1886 1.574 . S
C1894 H1889 0.949 . S
C1894 C1900 1.368 . S
C1895 C1879 1.349 . S
C1895 H1887 0.950 . S
C1895 C1893 1.327 . S
C1896 C1884 1.349 . S
C1896 H1890 0.950 . S
C1896 C1897 1.327 . S
C1897 H1891 0.950 . S
C1897 C1896 1.327 . S
C1897 C1901 1.429 . S
C1898 C1881 1.574 . S
C1898 H1892 0.949 . S
C1898 C1902 1.368 . S
C1899 C1880 1.429 . S
C1899 C1893 1.429 . S
C1899 C1900 1.523 . S
C1900 C1881 1.368 . S
C1900 C1894 1.368 . S
C1900 C1899 1.523 . S
C1901 C1885 1.429 . S
C1901 C1897 1.429 . S
C1901 C1902 1.523 . S
C1902 C1886 1.368 . S
C1902 C1898 1.368 . S
C1902 C1901 1.523 . S
H1903 C1878 0.950 . S
H1904 C1880 0.950 . S
H1905 C1881 0.949 . S
H1906 C1883 0.950 . S
H1907 C1885 0.950 . S
C1908 C1909 1.349 . S
C1908 C1910 1.327 . S
C1908 H1933 0.950 . S
C1909 C1908 1.349 . S
C1909 C1925 1.349 . S
C1910 C1908 1.327 . S
C1910 C1929 1.429 . S
C1910 H1934 0.950 . S
C1911 C1928 1.574 . S
C1911 C1930 1.368 . S
C1911 H1935 0.949 . S
H1912 C1916 0.949 . S
C1913 C1914 1.349 . S
C1913 C1915 1.327 . S
C1913 H1936 0.950 . S
C1914 C1913 1.349 . S
C1914 C1926 1.349 . S
C1915 C1913 1.327 . S
C1915 C1931 1.429 . S
C1915 H1937 0.950 . S
C1916 H1912 0.949 . S
C1916 C1924 1.574 . S
C1916 C1932 1.368 . S
H1917 C1925 0.950 . S
H1918 C1923 0.950 . S
H1919 C1924 0.949 . S
H1920 C1926 0.950 . S
H1921 C1927 0.950 . S
H1922 C1928 0.949 . S
C1923 H1918 0.950 . S
C1923 C1925 1.327 . S
C1923 C1929 1.429 . S
C1924 C1916 1.574 . S
C1924 H1919 0.949 . S
C1924 C1930 1.368 . S
C1925 C1909 1.349 . S
C1925 H1917 0.950 . S
C1925 C1923 1.327 . S
C1926 C1914 1.349 . S
C1926 H1920 0.950 . S
C1926 C1927 1.327 . S
C1927 H1921 0.950 . S
C1927 C1926 1.327 . S
C1927 C1931 1.429 . S
C1928 C1911 1.574 . S
C1928 H1922 0.949 . S
C1928 C1932 1.368 . S
C1929 C1910 1.429 . S
C1929 C1923 1.429 . S
C1929 C1930 1.523 . S
C1930 C1911 1.368 . S
C1930 C1924 1.368 . S
C1930 C1929 1.523 . S
C1931 C1915 1.429 . S
C1931 C1927 1.429 . S
C1931 C1932 1.523 . S
C1932 C1916 1.368 . S
C1932 C1928 1.368 . S
C1932 C1931 1.523 . S
H1933 C1908 0.950 . S
H1934 C1910 0.950 . S
H1935 C1911 0.949 . S
H1936 C1913 0.950 . S
H1937 C1915 0.950 . S
C1938 C1939 1.349 . S
C1938 C1940 1.327 . S
C1938 H1963 0.950 . S
C1939 C1938 1.349 . S
C1939 C1955 1.349 . S
C1940 C1938 1.327 . S
C1940 C1959 1.429 . S
C1940 H1964 0.950 . S
C1941 C1958 1.574 . S
C1941 C1960 1.368 . S
C1941 H1965 0.949 . S
H1942 C1946 0.949 . S
C1943 C1944 1.349 . S
C1943 C1945 1.327 . S
C1943 H1966 0.950 . S
C1944 C1943 1.349 . S
C1944 C1956 1.349 . S
C1945 C1943 1.327 . S
C1945 C1961 1.429 . S
C1945 H1967 0.950 . S
C1946 H1942 0.949 . S
C1946 C1954 1.574 . S
C1946 C1962 1.368 . S
H1947 C1955 0.950 . S
H1948 C1953 0.950 . S
H1949 C1954 0.949 . S
H1950 C1956 0.950 . S
H1951 C1957 0.950 . S
H1952 C1958 0.949 . S
C1953 H1948 0.950 . S
C1953 C1955 1.327 . S
C1953 C1959 1.429 . S
C1954 C1946 1.574 . S
C1954 H1949 0.949 . S
C1954 C1960 1.368 . S
C1955 C1939 1.349 . S
C1955 H1947 0.950 . S
C1955 C1953 1.327 . S
C1956 C1944 1.349 . S
C1956 H1950 0.950 . S
C1956 C1957 1.327 . S
C1957 H1951 0.950 . S
C1957 C1956 1.327 . S
C1957 C1961 1.429 . S
C1958 C1941 1.574 . S
C1958 H1952 0.949 . S
C1958 C1962 1.368 . S
C1959 C1940 1.429 . S
C1959 C1953 1.429 . S
C1959 C1960 1.523 . S
C1960 C1941 1.368 . S
C1960 C1954 1.368 . S
C1960 C1959 1.523 . S
C1961 C1945 1.429 . S
C1961 C1957 1.429 . S
C1961 C1962 1.523 . S
C1962 C1946 1.368 . S
C1962 C1958 1.368 . S
C1962 C1961 1.523 . S
H1963 C1938 0.950 . S
H1964 C1940 0.950 . S
H1965 C1941 0.949 . S
H1966 C1943 0.950 . S
H1967 C1945 0.950 . S
C1968 C1969 1.349 . S
C1968 C1970 1.327 . S
C1968 H1993 0.950 . S
C1969 C1968 1.349 . S
C1969 C1985 1.349 . S
C1970 C1968 1.327 . S
C1970 C1989 1.429 . S
C1970 H1994 0.950 . S
C1971 C1988 1.574 . S
C1971 C1990 1.368 . S
C1971 H1995 0.949 . S
H1972 C1976 0.949 . S
C1973 C1974 1.349 . S
C1973 C1975 1.327 . S
C1973 H1996 0.950 . S
C1974 C1973 1.349 . S
C1974 C1986 1.349 . S
C1975 C1973 1.327 . S
C1975 C1991 1.429 . S
C1975 H1997 0.950 . S
C1976 H1972 0.949 . S
C1976 C1984 1.574 . S
C1976 C1992 1.368 . S
H1977 C1985 0.950 . S
H1978 C1983 0.950 . S
H1979 C1984 0.949 . S
H1980 C1986 0.950 . S
H1981 C1987 0.950 . S
H1982 C1988 0.949 . S
C1983 H1978 0.950 . S
C1983 C1985 1.327 . S
C1983 C1989 1.429 . S
C1984 C1976 1.574 . S
C1984 H1979 0.949 . S
C1984 C1990 1.368 . S
C1985 C1969 1.349 . S
C1985 H1977 0.950 . S
C1985 C1983 1.327 . S
C1986 C1974 1.349 . S
C1986 H1980 0.950 . S
C1986 C1987 1.327 . S
C1987 H1981 0.950 . S
C1987 C1986 1.327 . S
C1987 C1991 1.429 . S
C1988 C1971 1.574 . S
C1988 H1982 0.949 . S
C1988 C1992 1.368 . S
C1989 C1970 1.429 . S
C1989 C1983 1.429 . S
C1989 C1990 1.523 . S
C1990 C1971 1.368 . S
C1990 C1984 1.368 . S
C1990 C1989 1.523 . S
C1991 C1975 1.429 . S
C1991 C1987 1.429 . S
C1991 C1992 1.523 . S
C1992 C1976 1.368 . S
C1992 C1988 1.368 . S
C1992 C1991 1.523 . S
H1993 C1968 0.950 . S
H1994 C1970 0.950 . S
H1995 C1971 0.949 . S
H1996 C1973 0.950 . S
H1997 C1975 0.950 . S
C1998 C1999 1.349 . S
C1998 C2000 1.327 . S
C1998 H2023 0.950 . S
C1999 C1998 1.349 . S
C1999 C2015 1.349 . S
C2000 C1998 1.327 . S
C2000 C2019 1.429 . S
C2000 H2024 0.950 . S
C2001 C2018 1.574 . S
C2001 C2020 1.368 . S
C2001 H2025 0.949 . S
H2002 C2006 0.949 . S
C2003 C2004 1.349 . S
C2003 C2005 1.327 . S
C2003 H2026 0.950 . S
C2004 C2003 1.349 . S
C2004 C2016 1.349 . S
C2005 C2003 1.327 . S
C2005 C2021 1.429 . S
C2005 H2027 0.950 . S
C2006 H2002 0.949 . S
C2006 C2014 1.574 . S
C2006 C2022 1.368 . S
H2007 C2015 0.950 . S
H2008 C2013 0.950 . S
H2009 C2014 0.949 . S
H2010 C2016 0.950 . S
H2011 C2017 0.950 . S
H2012 C2018 0.949 . S
C2013 H2008 0.950 . S
C2013 C2015 1.327 . S
C2013 C2019 1.429 . S
C2014 C2006 1.574 . S
C2014 H2009 0.949 . S
C2014 C2020 1.368 . S
C2015 C1999 1.349 . S
C2015 H2007 0.950 . S
C2015 C2013 1.327 . S
C2016 C2004 1.349 . S
C2016 H2010 0.950 . S
C2016 C2017 1.327 . S
C2017 H2011 0.950 . S
C2017 C2016 1.327 . S
C2017 C2021 1.429 . S
C2018 C2001 1.574 . S
C2018 H2012 0.949 . S
C2018 C2022 1.368 . S
C2019 C2000 1.429 . S
C2019 C2013 1.429 . S
C2019 C2020 1.523 . S
C2020 C2001 1.368 . S
C2020 C2014 1.368 . S
C2020 C2019 1.523 . S
C2021 C2005 1.429 . S
C2021 C2017 1.429 . S
C2021 C2022 1.523 . S
C2022 C2006 1.368 . S
C2022 C2018 1.368 . S
C2022 C2021 1.523 . S
H2023 C1998 0.950 . S
H2024 C2000 0.950 . S
H2025 C2001 0.949 . S
H2026 C2003 0.950 . S
H2027 C2005 0.950 . S
C2028 C2029 1.349 . S
C2028 C2030 1.327 . S
C2028 H2053 0.950 . S
C2029 C2028 1.349 . S
C2029 C2045 1.349 . S
C2030 C2028 1.327 . S
C2030 C2049 1.429 . S
C2030 H2054 0.950 . S
C2031 C2048 1.574 . S
C2031 C2050 1.368 . S
C2031 H2055 0.949 . S
H2032 C2036 0.949 . S
C2033 C2034 1.349 . S
C2033 C2035 1.327 . S
C2033 H2056 0.950 . S
C2034 C2033 1.349 . S
C2034 C2046 1.349 . S
C2035 C2033 1.327 . S
C2035 C2051 1.429 . S
C2035 H2057 0.950 . S
C2036 H2032 0.949 . S
C2036 C2044 1.574 . S
C2036 C2052 1.368 . S
H2037 C2045 0.950 . S
H2038 C2043 0.950 . S
H2039 C2044 0.949 . S
H2040 C2046 0.950 . S
H2041 C2047 0.950 . S
H2042 C2048 0.949 . S
C2043 H2038 0.950 . S
C2043 C2045 1.327 . S
C2043 C2049 1.429 . S
C2044 C2036 1.574 . S
C2044 H2039 0.949 . S
C2044 C2050 1.368 . S
C2045 C2029 1.349 . S
C2045 H2037 0.950 . S
C2045 C2043 1.327 . S
C2046 C2034 1.349 . S
C2046 H2040 0.950 . S
C2046 C2047 1.327 . S
C2047 H2041 0.950 . S
C2047 C2046 1.327 . S
C2047 C2051 1.429 . S
C2048 C2031 1.574 . S
C2048 H2042 0.949 . S
C2048 C2052 1.368 . S
C2049 C2030 1.429 . S
C2049 C2043 1.429 . S
C2049 C2050 1.523 . S
C2050 C2031 1.368 . S
C2050 C2044 1.368 . S
C2050 C2049 1.523 . S
C2051 C2035 1.429 . S
C2051 C2047 1.429 . S
C2051 C2052 1.523 . S
C2052 C2036 1.368 . S
C2052 C2048 1.368 . S
C2052 C2051 1.523 . S
H2053 C2028 0.950 . S
H2054 C2030 0.950 . S
H2055 C2031 0.949 . S
H2056 C2033 0.950 . S
H2057 C2035 0.950 . S
C2058 C2059 1.349 . S
C2058 C2060 1.327 . S
C2058 H2083 0.950 . S
C2059 C2058 1.349 . S
C2059 C2075 1.349 . S
C2060 C2058 1.327 . S
C2060 C2079 1.429 . S
C2060 H2084 0.950 . S
C2061 C2078 1.574 . S
C2061 C2080 1.368 . S
C2061 H2085 0.949 . S
H2062 C2066 0.949 . S
C2063 C2064 1.349 . S
C2063 C2065 1.327 . S
C2063 H2086 0.950 . S
C2064 C2063 1.349 . S
C2064 C2076 1.349 . S
C2065 C2063 1.327 . S
C2065 C2081 1.429 . S
C2065 H2087 0.950 . S
C2066 H2062 0.949 . S
C2066 C2074 1.574 . S
C2066 C2082 1.368 . S
H2067 C2075 0.950 . S
H2068 C2073 0.950 . S
H2069 C2074 0.949 . S
H2070 C2076 0.950 . S
H2071 C2077 0.950 . S
H2072 C2078 0.949 . S
C2073 H2068 0.950 . S
C2073 C2075 1.327 . S
C2073 C2079 1.429 . S
C2074 C2066 1.574 . S
C2074 H2069 0.949 . S
C2074 C2080 1.368 . S
C2075 C2059 1.349 . S
C2075 H2067 0.950 . S
C2075 C2073 1.327 . S
C2076 C2064 1.349 . S
C2076 H2070 0.950 . S
C2076 C2077 1.327 . S
C2077 H2071 0.950 . S
C2077 C2076 1.327 . S
C2077 C2081 1.429 . S
C2078 C2061 1.574 . S
C2078 H2072 0.949 . S
C2078 C2082 1.368 . S
C2079 C2060 1.429 . S
C2079 C2073 1.429 . S
C2079 C2080 1.523 . S
C2080 C2061 1.368 . S
C2080 C2074 1.368 . S
C2080 C2079 1.523 . S
C2081 C2065 1.429 . S
C2081 C2077 1.429 . S
C2081 C2082 1.523 . S
C2082 C2066 1.368 . S
C2082 C2078 1.368 . S
C2082 C2081 1.523 . S
H2083 C2058 0.950 . S
H2084 C2060 0.950 . S
H2085 C2061 0.949 . S
H2086 C2063 0.950 . S
H2087 C2065 0.950 . S
C1009 C226 1.086 . S
C1014 C67 1.222 . S
C1039 C321 1.086 . S
C1044 C140 1.222 . S
C1069 C235 1.222 . S
C1074 C394 1.086 . S
C1099 C308 1.222 . S
C1104 C489 1.086 . S
C1129 C58 1.086 . S
C1134 C403 1.222 . S
C1159 C153 1.086 . S
C1164 C476 1.222 . S
C1189 C909 1.086 . S
C1194 C560 1.222 . S
C1219 C655 1.222 . S
C1224 C982 1.086 . S
C1249 C728 1.222 . S
C1254 C573 1.086 . S
C1279 C823 1.222 . S
C1284 C646 1.086 . S
C1309 C896 1.222 . S
C1314 C741 1.086 . S
C1339 C814 1.086 . S
C1344 C991 1.222 . S
C1369 C315 1.959 . S
C1374 C74 1.959 . S
C1399 C147 1.958 . S
C1404 C410 1.958 . S
C1429 C242 1.958 . S
C1434 C483 1.958 . S
C1459 C567 1.959 . S
C1464 C830 1.959 . S
C1489 C662 1.958 . S
C1494 C903 1.958 . S
C1519 C735 1.958 . S
C1524 C998 1.958 . S
C1549 C651 2.160 . S
C1554 C63 2.160 . S
C1579 C158 2.160 . S
C1584 C746 2.160 . S
C1609 C819 2.160 . S
C1614 C231 2.160 . S
C1639 C326 2.160 . S
C1644 C914 2.160 . S
C1669 C399 2.160 . S
C1674 C987 2.160 . S
C1699 C578 2.160 . S
C1704 C494 2.160 . S
C1729 C237 1.243 . S
C1734 C56 1.401 . S
C1759 C151 1.401 . S
C1764 C310 1.243 . S
C1789 C224 1.401 . S
C1794 C405 1.243 . S
C1819 C319 1.401 . S
C1824 C478 1.243 . S
C1849 C69 1.243 . S
C1854 C392 1.401 . S
C1879 C142 1.243 . S
C1884 C487 1.401 . S
C1909 C898 1.243 . S
C1914 C571 1.401 . S
C1939 C644 1.401 . S
C1944 C993 1.243 . S
C1969 C739 1.401 . S
C1974 C562 1.243 . S
C1999 C657 1.243 . S
C2004 C812 1.401 . S
C2029 C907 1.401 . S
C2034 C730 1.243 . S
C2059 C980 1.401 . S
C2064 C825 1.243 . S
