# Generated by pormake.
# Topology wip, (6)-cn, num edge types: 1
# Building blocks:
#     Node 0, Type 0, BuildingBlock: CUKXOW_clean_sbu_0, # of connection points: 6
#     Node 1, Type 0, BuildingBlock: CUKXOW_clean_sbu_0, # of connection points: 6
#     Node 2, Type 0, BuildingBlock: CUKXOW_clean_sbu_0, # of connection points: 6
#     Node 3, Type 0, BuildingBlock: CUKXOW_clean_sbu_0, # of connection points: 6
#     Node 4, Type 0, BuildingBlock: CUKXOW_clean_sbu_0, # of connection points: 6
#     Node 5, Type 0, BuildingBlock: CUKXOW_clean_sbu_0, # of connection points: 6
#     Node 6, Type 0, BuildingBlock: CUKXOW_clean_sbu_0, # of connection points: 6
#     Node 7, Type 0, BuildingBlock: CUKXOW_clean_sbu_0, # of connection points: 6
#     Node 8, Type 0, BuildingBlock: CUKXOW_clean_sbu_0, # of connection points: 6
#     Node 9, Type 0, BuildingBlock: CUKXOW_clean_sbu_0, # of connection points: 6
#     Node 10, Type 0, BuildingBlock: CUKXOW_clean_sbu_0, # of connection points: 6
#     Node 11, Type 0, BuildingBlock: CUKXOW_clean_sbu_0, # of connection points: 6
#     Node 12, Type 0, BuildingBlock: CUKXOW_clean_sbu_0, # of connection points: 6
#     Node 13, Type 0, BuildingBlock: CUKXOW_clean_sbu_0, # of connection points: 6
#     Node 14, Type 0, BuildingBlock: CUKXOW_clean_sbu_0, # of connection points: 6
#     Node 15, Type 0, BuildingBlock: CUKXOW_clean_sbu_0, # of connection points: 6
#     Node 16, Type 0, BuildingBlock: CUKXOW_clean_sbu_0, # of connection points: 6
#     Node 17, Type 0, BuildingBlock: CUKXOW_clean_sbu_0, # of connection points: 6
#     Node 18, Type 0, BuildingBlock: CUKXOW_clean_sbu_0, # of connection points: 6
#     Node 19, Type 0, BuildingBlock: CUKXOW_clean_sbu_0, # of connection points: 6
#     Node 20, Type 0, BuildingBlock: CUKXOW_clean_sbu_0, # of connection points: 6
#     Node 21, Type 0, BuildingBlock: CUKXOW_clean_sbu_0, # of connection points: 6
#     Node 22, Type 0, BuildingBlock: CUKXOW_clean_sbu_0, # of connection points: 6
#     Node 23, Type 0, BuildingBlock: CUKXOW_clean_sbu_0, # of connection points: 6
#     Node 24, Type 0, BuildingBlock: CUKXOW_clean_sbu_0, # of connection points: 6
#     Node 25, Type 0, BuildingBlock: CUKXOW_clean_sbu_0, # of connection points: 6
#     Node 26, Type 0, BuildingBlock: CUKXOW_clean_sbu_0, # of connection points: 6
#     Node 27, Type 0, BuildingBlock: CUKXOW_clean_sbu_0, # of connection points: 6
#     Node 28, Type 0, BuildingBlock: CUKXOW_clean_sbu_0, # of connection points: 6
#     Node 29, Type 0, BuildingBlock: CUKXOW_clean_sbu_0, # of connection points: 6
#     Node 30, Type 0, BuildingBlock: CUKXOW_clean_sbu_0, # of connection points: 6
#     Node 31, Type 0, BuildingBlock: CUKXOW_clean_sbu_0, # of connection points: 6
#     Edge 32, Type (0, 0), BuildingBlock: KIFKEQ_clean_linker_1, # of connection points: 2
#     Edge 33, Type (0, 0), BuildingBlock: KIFKEQ_clean_linker_1, # of connection points: 2
#     Edge 34, Type (0, 0), BuildingBlock: KIFKEQ_clean_linker_1, # of connection points: 2
#     Edge 35, Type (0, 0), BuildingBlock: KIFKEQ_clean_linker_1, # of connection points: 2
#     Edge 36, Type (0, 0), BuildingBlock: KIFKEQ_clean_linker_1, # of connection points: 2
#     Edge 37, Type (0, 0), BuildingBlock: KIFKEQ_clean_linker_1, # of connection points: 2
#     Edge 38, Type (0, 0), BuildingBlock: KIFKEQ_clean_linker_1, # of connection points: 2
#     Edge 39, Type (0, 0), BuildingBlock: KIFKEQ_clean_linker_1, # of connection points: 2
#     Edge 40, Type (0, 0), BuildingBlock: KIFKEQ_clean_linker_1, # of connection points: 2
#     Edge 41, Type (0, 0), BuildingBlock: KIFKEQ_clean_linker_1, # of connection points: 2
#     Edge 42, Type (0, 0), BuildingBlock: KIFKEQ_clean_linker_1, # of connection points: 2
#     Edge 43, Type (0, 0), BuildingBlock: KIFKEQ_clean_linker_1, # of connection points: 2
#     Edge 44, Type (0, 0), BuildingBlock: KIFKEQ_clean_linker_1, # of connection points: 2
#     Edge 45, Type (0, 0), BuildingBlock: KIFKEQ_clean_linker_1, # of connection points: 2
#     Edge 46, Type (0, 0), BuildingBlock: KIFKEQ_clean_linker_1, # of connection points: 2
#     Edge 47, Type (0, 0), BuildingBlock: KIFKEQ_clean_linker_1, # of connection points: 2
#     Edge 48, Type (0, 0), BuildingBlock: KIFKEQ_clean_linker_1, # of connection points: 2
#     Edge 49, Type (0, 0), BuildingBlock: KIFKEQ_clean_linker_1, # of connection points: 2
#     Edge 50, Type (0, 0), BuildingBlock: KIFKEQ_clean_linker_1, # of connection points: 2
#     Edge 51, Type (0, 0), BuildingBlock: KIFKEQ_clean_linker_1, # of connection points: 2
#     Edge 52, Type (0, 0), BuildingBlock: KIFKEQ_clean_linker_1, # of connection points: 2
#     Edge 53, Type (0, 0), BuildingBlock: KIFKEQ_clean_linker_1, # of connection points: 2
#     Edge 54, Type (0, 0), BuildingBlock: KIFKEQ_clean_linker_1, # of connection points: 2
#     Edge 55, Type (0, 0), BuildingBlock: KIFKEQ_clean_linker_1, # of connection points: 2
#     Edge 56, Type (0, 0), BuildingBlock: KIFKEQ_clean_linker_1, # of connection points: 2
#     Edge 57, Type (0, 0), BuildingBlock: KIFKEQ_clean_linker_1, # of connection points: 2
#     Edge 58, Type (0, 0), BuildingBlock: KIFKEQ_clean_linker_1, # of connection points: 2
#     Edge 59, Type (0, 0), BuildingBlock: KIFKEQ_clean_linker_1, # of connection points: 2
#     Edge 60, Type (0, 0), BuildingBlock: KIFKEQ_clean_linker_1, # of connection points: 2
#     Edge 61, Type (0, 0), BuildingBlock: KIFKEQ_clean_linker_1, # of connection points: 2
#     Edge 62, Type (0, 0), BuildingBlock: KIFKEQ_clean_linker_1, # of connection points: 2
#     Edge 63, Type (0, 0), BuildingBlock: KIFKEQ_clean_linker_1, # of connection points: 2
#     Edge 64, Type (0, 0), BuildingBlock: KIFKEQ_clean_linker_1, # of connection points: 2
#     Edge 65, Type (0, 0), BuildingBlock: KIFKEQ_clean_linker_1, # of connection points: 2
#     Edge 66, Type (0, 0), BuildingBlock: KIFKEQ_clean_linker_1, # of connection points: 2
#     Edge 67, Type (0, 0), BuildingBlock: KIFKEQ_clean_linker_1, # of connection points: 2
#     Edge 68, Type (0, 0), BuildingBlock: KIFKEQ_clean_linker_1, # of connection points: 2
#     Edge 69, Type (0, 0), BuildingBlock: KIFKEQ_clean_linker_1, # of connection points: 2
#     Edge 70, Type (0, 0), BuildingBlock: KIFKEQ_clean_linker_1, # of connection points: 2
#     Edge 71, Type (0, 0), BuildingBlock: KIFKEQ_clean_linker_1, # of connection points: 2
#     Edge 72, Type (0, 0), BuildingBlock: KIFKEQ_clean_linker_1, # of connection points: 2
#     Edge 73, Type (0, 0), BuildingBlock: KIFKEQ_clean_linker_1, # of connection points: 2
#     Edge 74, Type (0, 0), BuildingBlock: KIFKEQ_clean_linker_1, # of connection points: 2
#     Edge 75, Type (0, 0), BuildingBlock: KIFKEQ_clean_linker_1, # of connection points: 2
#     Edge 76, Type (0, 0), BuildingBlock: KIFKEQ_clean_linker_1, # of connection points: 2
#     Edge 77, Type (0, 0), BuildingBlock: KIFKEQ_clean_linker_1, # of connection points: 2
#     Edge 78, Type (0, 0), BuildingBlock: KIFKEQ_clean_linker_1, # of connection points: 2
#     Edge 79, Type (0, 0), BuildingBlock: KIFKEQ_clean_linker_1, # of connection points: 2
#     Edge 80, Type (0, 0), BuildingBlock: KIFKEQ_clean_linker_1, # of connection points: 2
#     Edge 81, Type (0, 0), BuildingBlock: KIFKEQ_clean_linker_1, # of connection points: 2
#     Edge 82, Type (0, 0), BuildingBlock: KIFKEQ_clean_linker_1, # of connection points: 2
#     Edge 83, Type (0, 0), BuildingBlock: KIFKEQ_clean_linker_1, # of connection points: 2
#     Edge 84, Type (0, 0), BuildingBlock: KIFKEQ_clean_linker_1, # of connection points: 2
#     Edge 85, Type (0, 0), BuildingBlock: KIFKEQ_clean_linker_1, # of connection points: 2
#     Edge 86, Type (0, 0), BuildingBlock: KIFKEQ_clean_linker_1, # of connection points: 2
#     Edge 87, Type (0, 0), BuildingBlock: KIFKEQ_clean_linker_1, # of connection points: 2
#     Edge 88, Type (0, 0), BuildingBlock: KIFKEQ_clean_linker_1, # of connection points: 2
#     Edge 89, Type (0, 0), BuildingBlock: KIFKEQ_clean_linker_1, # of connection points: 2
#     Edge 90, Type (0, 0), BuildingBlock: KIFKEQ_clean_linker_1, # of connection points: 2
#     Edge 91, Type (0, 0), BuildingBlock: KIFKEQ_clean_linker_1, # of connection points: 2
#     Edge 92, Type (0, 0), BuildingBlock: KIFKEQ_clean_linker_1, # of connection points: 2
#     Edge 93, Type (0, 0), BuildingBlock: KIFKEQ_clean_linker_1, # of connection points: 2
#     Edge 94, Type (0, 0), BuildingBlock: KIFKEQ_clean_linker_1, # of connection points: 2
#     Edge 95, Type (0, 0), BuildingBlock: KIFKEQ_clean_linker_1, # of connection points: 2
#     Edge 96, Type (0, 0), BuildingBlock: KIFKEQ_clean_linker_1, # of connection points: 2
#     Edge 97, Type (0, 0), BuildingBlock: KIFKEQ_clean_linker_1, # of connection points: 2
#     Edge 98, Type (0, 0), BuildingBlock: KIFKEQ_clean_linker_1, # of connection points: 2
#     Edge 99, Type (0, 0), BuildingBlock: KIFKEQ_clean_linker_1, # of connection points: 2
#     Edge 100, Type (0, 0), BuildingBlock: KIFKEQ_clean_linker_1, # of connection points: 2
#     Edge 101, Type (0, 0), BuildingBlock: KIFKEQ_clean_linker_1, # of connection points: 2
#     Edge 102, Type (0, 0), BuildingBlock: KIFKEQ_clean_linker_1, # of connection points: 2
#     Edge 103, Type (0, 0), BuildingBlock: KIFKEQ_clean_linker_1, # of connection points: 2
#     Edge 104, Type (0, 0), BuildingBlock: KIFKEQ_clean_linker_1, # of connection points: 2
#     Edge 105, Type (0, 0), BuildingBlock: KIFKEQ_clean_linker_1, # of connection points: 2
#     Edge 106, Type (0, 0), BuildingBlock: KIFKEQ_clean_linker_1, # of connection points: 2
#     Edge 107, Type (0, 0), BuildingBlock: KIFKEQ_clean_linker_1, # of connection points: 2
#     Edge 108, Type (0, 0), BuildingBlock: KIFKEQ_clean_linker_1, # of connection points: 2
#     Edge 109, Type (0, 0), BuildingBlock: KIFKEQ_clean_linker_1, # of connection points: 2
#     Edge 110, Type (0, 0), BuildingBlock: KIFKEQ_clean_linker_1, # of connection points: 2
#     Edge 111, Type (0, 0), BuildingBlock: KIFKEQ_clean_linker_1, # of connection points: 2
#     Edge 112, Type (0, 0), BuildingBlock: KIFKEQ_clean_linker_1, # of connection points: 2
#     Edge 113, Type (0, 0), BuildingBlock: KIFKEQ_clean_linker_1, # of connection points: 2
#     Edge 114, Type (0, 0), BuildingBlock: KIFKEQ_clean_linker_1, # of connection points: 2
#     Edge 115, Type (0, 0), BuildingBlock: KIFKEQ_clean_linker_1, # of connection points: 2
#     Edge 116, Type (0, 0), BuildingBlock: KIFKEQ_clean_linker_1, # of connection points: 2
#     Edge 117, Type (0, 0), BuildingBlock: KIFKEQ_clean_linker_1, # of connection points: 2
#     Edge 118, Type (0, 0), BuildingBlock: KIFKEQ_clean_linker_1, # of connection points: 2
#     Edge 119, Type (0, 0), BuildingBlock: KIFKEQ_clean_linker_1, # of connection points: 2
#     Edge 120, Type (0, 0), BuildingBlock: KIFKEQ_clean_linker_1, # of connection points: 2
#     Edge 121, Type (0, 0), BuildingBlock: KIFKEQ_clean_linker_1, # of connection points: 2
#     Edge 122, Type (0, 0), BuildingBlock: KIFKEQ_clean_linker_1, # of connection points: 2
#     Edge 123, Type (0, 0), BuildingBlock: KIFKEQ_clean_linker_1, # of connection points: 2
#     Edge 124, Type (0, 0), BuildingBlock: KIFKEQ_clean_linker_1, # of connection points: 2
#     Edge 125, Type (0, 0), BuildingBlock: KIFKEQ_clean_linker_1, # of connection points: 2
#     Edge 126, Type (0, 0), BuildingBlock: KIFKEQ_clean_linker_1, # of connection points: 2
#     Edge 127, Type (0, 0), BuildingBlock: KIFKEQ_clean_linker_1, # of connection points: 2
# Relax obj value: 0.227
# Max RMSD: 0.182
# Mean RMSD: 0.176
data_MOF--net-wip--node1-CUKXOW_clean_sbu_0--edge1-KIFKEQ_clean_linker_1
_symmetry_space_group_name_H-M    P1
_symmetry_Int_Tables_number       1
_symmetry_cell_setting            triclinic
loop_
_symmetry_equiv_pos_as_xyz
'x, y, z'
_cell_length_a     58.385049
_cell_length_b     76.250406
_cell_length_c     27.997469
_cell_angle_alpha  87.783379
_cell_angle_beta   89.957415
_cell_angle_gamma 90.037981
loop_
_atom_site_label
_atom_site_type_symbol
_atom_site_fract_x
_atom_site_fract_y
_atom_site_fract_z
_atom_type_partial_charge
Tb0 Tb 0.07326 0.46955 0.13562 0.0
C1 C 0.02837 0.47839 0.0774 0.0
Tb2 Tb 0.0564 0.44509 0.05535 0.0
O3 O 0.08696 0.48944 0.08707 0.0
O4 O 0.08398 0.46371 0.06448 0.0
O5 O 0.039 0.47919 0.11927 0.0
C6 C 0.04144 0.43541 0.96828 0.0
O7 O 0.03733 0.46942 0.04265 0.0
C8 C 0.03962 0.43806 0.14288 0.0
C9 C 0.0932 0.43042 0.12804 0.0
O10 O 0.02998 0.4343 1.00804 0.0
O11 O 0.06188 0.44097 0.9783 0.0
O12 O 0.03956 0.42677 0.10904 0.0
O13 O 0.04609 0.45238 0.12397 0.0
O14 O 0.0846 0.42878 0.08408 0.0
O15 O 0.08925 0.44434 0.15412 0.0
C16 C 0.08197 0.48463 0.21883 0.0
O17 O 0.09472 0.47289 0.19947 0.0
O18 O 0.06454 0.48785 0.19126 0.0
C19 C 0.08761 0.47959 0.05046 0.0
Tb20 Tb 0.7884 0.81767 0.39568 0.0
C21 C 0.83554 0.82393 0.45003 0.0
Tb22 Tb 0.80119 0.79278 0.48601 0.0
O23 O 0.76655 0.83448 0.44049 0.0
O24 O 0.79237 0.81904 0.46958 0.0
O25 O 0.82276 0.82795 0.41114 0.0
C26 C 0.80715 0.77826 0.57429 0.0
O27 O 0.83024 0.81117 0.48258 0.0
C28 C 0.80087 0.7782 0.40146 0.0
C29 C 0.74999 0.79801 0.45428 0.0
O30 O 0.82254 0.77854 0.54034 0.0
O31 O 0.78896 0.78623 0.55826 0.0
O32 O 0.79755 0.76964 0.44182 0.0
O33 O 0.80628 0.7937 0.41061 0.0
O34 O 0.76417 0.79392 0.48975 0.0
O35 O 0.75713 0.80298 0.4109 0.0
C36 C 0.77905 0.82323 0.30181 0.0
O37 O 0.77931 0.83538 0.33358 0.0
O38 O 0.78492 0.80848 0.32291 0.0
C39 C 0.77635 0.82912 0.48044 0.0
Tb40 Tb 0.40634 0.5285 0.63585 0.0
C41 C 0.4003 0.56657 0.67955 0.0
Tb42 Tb 0.43798 0.54013 0.721 0.0
O43 O 0.3849 0.51176 0.68216 0.0
O44 O 0.40319 0.53268 0.70992 0.0
O45 O 0.39435 0.5558 0.64487 0.0
C46 C 0.45886 0.54603 0.80533 0.0
O47 O 0.41568 0.56256 0.71311 0.0
C48 C 0.45364 0.54683 0.63229 0.0
C49 C 0.44213 0.50282 0.68753 0.0
O50 O 0.43896 0.55195 0.79175 0.0
O51 O 0.46697 0.53667 0.77138 0.0
O52 O 0.46014 0.55527 0.66939 0.0
O53 O 0.44123 0.53446 0.64766 0.0
O54 O 0.43793 0.51163 0.7263 0.0
O55 O 0.43188 0.50766 0.64651 0.0
C56 C 0.39371 0.52089 0.54627 0.0
O57 O 0.40685 0.53384 0.55788 0.0
O58 O 0.38666 0.51291 0.58545 0.0
C59 C 0.39125 0.51926 0.72102 0.0
Tb60 Tb 0.67721 0.2021 0.88467 0.0
C61 C 0.64729 0.18456 0.96758 0.0
Tb62 Tb 0.65971 0.22531 0.96895 0.0
O63 O 0.70036 0.18716 0.93169 0.0
O64 O 0.69032 0.21248 0.94826 0.0
O65 O 0.65349 0.18361 0.92162 0.0
C66 C 0.65894 0.24122 0.05415 0.0
O67 O 0.65097 0.19867 0.99307 0.0
C68 C 0.63548 0.22865 0.88777 0.0
C69 C 0.68391 0.24362 0.88305 0.0
O70 O 0.64361 0.23025 0.03917 0.0
O71 O 0.67421 0.24334 1.02075 0.0
O72 O 0.63423 0.2393 0.92312 0.0
O73 O 0.6469 0.21556 0.90381 0.0
O74 O 0.68082 0.244 0.92975 0.0
O75 O 0.68231 0.2291 0.85878 0.0
C76 C 0.69356 0.19144 0.80074 0.0
O77 O 0.70403 0.20131 0.83043 0.0
O78 O 0.67357 0.18714 0.81865 0.0
C79 C 0.70051 0.19885 0.96407 0.0
Tb80 Tb 0.08598 0.54033 0.64231 0.0
C81 C 0.06635 0.5152 0.72294 0.0
Tb82 Tb 0.05982 0.55679 0.72733 0.0
O83 O 0.11353 0.52928 0.68683 0.0
O84 O 0.09412 0.55017 0.70989 0.0
O85 O 0.07342 0.51679 0.67793 0.0
C86 C 0.03855 0.56122 0.81172 0.0
O87 O 0.06152 0.52886 0.74913 0.0
C88 C 0.03834 0.55702 0.64438 0.0
C89 C 0.08701 0.58171 0.65456 0.0
O90 O 0.03066 0.55281 0.77588 0.0
O91 O 0.05835 0.56794 0.79937 0.0
O92 O 0.03513 0.5687 0.67629 0.0
O93 O 0.05156 0.54534 0.66167 0.0
O94 O 0.07775 0.58037 0.69835 0.0
O95 O 0.08941 0.56826 0.62623 0.0
C96 C 0.09021 0.52853 0.55393 0.0
O97 O 0.10678 0.53556 0.57793 0.0
O98 O 0.0719 0.52817 0.57992 0.0
C99 C 0.10857 0.53857 0.72369 0.0
Tb100 Tb 0.68607 0.80419 0.88892 0.0
C101 C 0.65731 0.82453 0.80874 0.0
Tb102 Tb 0.66289 0.78298 0.8061 0.0
O103 O 0.7107 0.81699 0.84068 0.0
O104 O 0.69581 0.79325 0.82302 0.0
O105 O 0.66441 0.82475 0.85429 0.0
C106 C 0.65658 0.76708 0.72179 0.0
O107 O 0.65747 0.81018 0.78321 0.0
C108 C 0.64099 0.78113 0.89079 0.0
C109 C 0.68607 0.76221 0.88908 0.0
O110 O 0.64121 0.7761 0.74422 0.0
O111 O 0.67526 0.76716 0.74698 0.0
O112 O 0.63753 0.77064 0.85576 0.0
O113 O 0.6535 0.79342 0.87331 0.0
O114 O 0.68126 0.76209 0.84298 0.0
O115 O 0.68783 0.77678 0.91314 0.0
C116 C 0.70474 0.81256 0.97367 0.0
O117 O 0.712 0.80077 0.94512 0.0
O118 O 0.68678 0.82011 0.95409 0.0
C119 C 0.70768 0.80608 0.80686 0.0
Tb120 Tb 0.40768 0.46067 0.13055 0.0
C121 C 0.42259 0.42434 0.08432 0.0
Tb122 Tb 0.44031 0.46126 0.04064 0.0
O123 O 0.37708 0.46632 0.08645 0.0
O124 O 0.40613 0.4548 0.05834 0.0
O125 O 0.4126 0.43207 0.12133 0.0
C126 C 0.4603 0.46356 0.95373 0.0
O127 O 0.4334 0.43333 0.04933 0.0
C128 C 0.45996 0.462 0.12541 0.0
C129 C 0.41287 0.49527 0.06683 0.0
O130 O 0.44688 0.45106 0.96956 0.0
O131 O 0.46254 0.47486 0.98702 0.0
O132 O 0.46954 0.45534 0.08836 0.0
O133 O 0.44139 0.46901 0.11248 0.0
O134 O 0.42297 0.4865 0.03255 0.0
O135 O 0.4094 0.48846 0.11067 0.0
C136 C 0.39926 0.46394 0.2245 0.0
O137 O 0.38401 0.46516 0.19052 0.0
O138 O 0.41872 0.45975 0.20552 0.0
C139 C 0.38699 0.46137 0.04726 0.0
Tb140 Tb 0.77321 0.18322 0.38116 0.0
C141 C 0.82002 0.16873 0.33456 0.0
Tb142 Tb 0.79795 0.20456 0.29667 0.0
O143 O 0.74788 0.17191 0.33342 0.0
O144 O 0.77973 0.18066 0.30842 0.0
O145 O 0.80431 0.16719 0.36961 0.0
C146 C 0.80676 0.2207 0.21067 0.0
O147 O 0.82063 0.18209 0.30247 0.0
C148 C 0.80775 0.21373 0.38574 0.0
C149 C 0.74991 0.21577 0.32812 0.0
O150 O 0.80693 0.20389 0.22013 0.0
O151 O 0.80253 0.22844 0.25026 0.0
O152 O 0.82143 0.21635 0.34929 0.0
O153 O 0.78934 0.20787 0.36959 0.0
O154 O 0.76215 0.21202 0.29026 0.0
O155 O 0.75332 0.20716 0.36979 0.0
C156 C 0.75966 0.17425 0.47059 0.0
O157 O 0.74728 0.17331 0.4322 0.0
O158 O 0.78017 0.17941 0.4582 0.0
C159 C 0.76046 0.17512 0.29559 0.0
Tb160 Tb 0.9466 0.55111 0.2284 0.0
C161 C 0.92341 0.57698 0.15134 0.0
Tb162 Tb 0.91859 0.53563 0.14365 0.0
O163 O 0.97358 0.56093 0.17923 0.0
O164 O 0.95328 0.53978 0.16169 0.0
O165 O 0.93115 0.57537 0.19641 0.0
C166 C 0.91256 0.52222 0.05767 0.0
O167 O 0.91937 0.5634 0.1243 0.0
C168 C 0.89634 0.53515 0.22634 0.0
C169 C 0.93635 0.50995 0.22524 0.0
O170 O 0.89781 0.5322 0.07877 0.0
O171 O 0.93022 0.51983 0.0852 0.0
O172 O 0.88997 0.52659 0.18908 0.0
O173 O 0.91188 0.54577 0.21176 0.0
O174 O 0.92933 0.51176 0.18032 0.0
O175 O 0.9432 0.52327 0.25085 0.0
C176 C 0.96663 0.55663 0.31322 0.0
O177 O 0.97432 0.54674 0.28016 0.0
O178 O 0.94769 0.564 0.29798 0.0
C179 C 0.96802 0.55059 0.14533 0.0
Tb180 Tb 0.18873 0.20463 0.80239 0.0
C181 C 0.23869 0.21261 0.82717 0.0
Tb182 Tb 0.21181 0.18381 0.88951 0.0
O183 O 0.16605 0.21744 0.85471 0.0
O184 O 0.19829 0.20912 0.87455 0.0
O185 O 0.22495 0.2092 0.79131 0.0
C186 C 0.22558 0.17634 0.98026 0.0
O187 O 0.23483 0.20567 0.87094 0.0
C188 C 0.22417 0.17282 0.80658 0.0
C189 C 0.16391 0.17063 0.84498 0.0
O190 O 0.23611 0.17195 0.94159 0.0
O191 O 0.20662 0.18426 0.9677 0.0
O192 O 0.23568 0.16961 0.84581 0.0
O193 O 0.20523 0.17992 0.81669 0.0
O194 O 0.17938 0.16896 0.88043 0.0
O195 O 0.16462 0.18326 0.81087 0.0
C196 C 0.17745 0.22164 0.71839 0.0
O197 O 0.17646 0.2048 0.72745 0.0
O198 O 0.1846 0.22889 0.75697 0.0
C199 C 0.18018 0.21557 0.89042 0.0
Tb200 Tb 0.55401 0.46686 0.53933 0.0
C201 C 0.57245 0.50329 0.57194 0.0
Tb202 Tb 0.58879 0.46829 0.62457 0.0
O203 O 0.5269 0.45776 0.58884 0.0
O204 O 0.55344 0.47333 0.61268 0.0
O205 O 0.56517 0.49427 0.53518 0.0
C206 C 0.60181 0.47036 0.71607 0.0
O207 O 0.57875 0.49538 0.61296 0.0
C208 C 0.60651 0.47173 0.53878 0.0
C209 C 0.57657 0.43129 0.57938 0.0
O210 O 0.612 0.47788 0.67937 0.0
O211 O 0.58522 0.46069 0.70069 0.0
O212 O 0.61667 0.47757 0.57652 0.0
O213 O 0.58922 0.4631 0.55219 0.0
O214 O 0.58765 0.43974 0.61355 0.0
O215 O 0.56307 0.43927 0.54703 0.0
C216 C 0.53374 0.46806 0.45286 0.0
O217 O 0.553 0.46047 0.46367 0.0
O218 O 0.52562 0.47498 0.4911 0.0
C219 C 0.53625 0.46445 0.62618 0.0
Tb220 Tb 0.33386 0.78557 0.27942 0.0
C221 C 0.2934 0.76356 0.31149 0.0
Tb222 Tb 0.29879 0.80171 0.35246 0.0
O223 O 0.35858 0.78028 0.33968 0.0
O224 O 0.32435 0.78243 0.3522 0.0
O225 O 0.30316 0.77016 0.27264 0.0
C226 C 0.27954 0.81011 0.43697 0.0
O227 O 0.29155 0.77329 0.34999 0.0
C228 C 0.28566 0.80429 0.26327 0.0
C229 C 0.33996 0.82528 0.30415 0.0
O230 O 0.26866 0.80709 0.39755 0.0
O231 O 0.30141 0.80896 0.42821 0.0
O232 O 0.27177 0.80548 0.29948 0.0
O233 O 0.30613 0.80411 0.27845 0.0
O234 O 0.32267 0.82407 0.336 0.0
O235 O 0.34688 0.81205 0.27816 0.0
C236 C 0.35097 0.76987 0.20182 0.0
O237 O 0.34709 0.78656 0.20531 0.0
O238 O 0.34616 0.76219 0.24284 0.0
C239 C 0.34314 0.78106 0.37331 0.0
Tb240 Tb 0.94441 0.44453 0.55537 0.0
C241 C 0.90968 0.42339 0.6222 0.0
Tb242 Tb 0.92072 0.46397 0.6371 0.0
O243 O 0.96442 0.42897 0.60921 0.0
O244 O 0.95376 0.45409 0.62334 0.0
O245 O 0.92211 0.42317 0.58217 0.0
C246 C 0.91206 0.47418 0.72603 0.0
O247 O 0.90665 0.43766 0.64725 0.0
C248 C 0.90311 0.47164 0.55286 0.0
C249 C 0.95661 0.48362 0.57159 0.0
O250 O 0.92406 0.46064 0.71489 0.0
O251 O 0.90452 0.48189 0.68693 0.0
O252 O 0.90018 0.48089 0.59047 0.0
O253 O 0.91211 0.45698 0.56617 0.0
O254 O 0.94812 0.48166 0.61557 0.0
O255 O 0.95236 0.47204 0.53881 0.0
C256 C 0.96371 0.43638 0.47109 0.0
O257 O 0.97439 0.44127 0.50898 0.0
O258 O 0.94194 0.43543 0.48118 0.0
C259 C 0.96327 0.44065 0.64177 0.0
Tb260 Tb 0.31262 0.20969 0.49312 0.0
C261 C 0.26454 0.19563 0.46167 0.0
Tb262 Tb 0.30862 0.1847 0.40345 0.0
O263 O 0.30308 0.23223 0.44506 0.0
O264 O 0.31917 0.21068 0.41791 0.0
O265 O 0.27693 0.20213 0.49638 0.0
C266 C 0.29899 0.18143 0.31012 0.0
O267 O 0.27315 0.19151 0.41964 0.0
C268 C 0.29937 0.16944 0.48737 0.0
C269 C 0.35491 0.18461 0.46411 0.0
O270 O 0.29466 0.19485 0.33572 0.0
O271 O 0.3097 0.1696 0.33706 0.0
O272 O 0.29349 0.16259 0.44697 0.0
O273 O 0.31071 0.18306 0.47708 0.0
O274 O 0.34496 0.18044 0.42257 0.0
O275 O 0.34532 0.19535 0.49536 0.0
C276 C 0.31475 0.2247 0.57899 0.0
O277 O 0.33002 0.22651 0.54497 0.0
O278 O 0.2988 0.21427 0.56458 0.0
C279 C 0.30965 0.22499 0.40618 0.0
Tb280 Tb 0.54241 0.54873 0.21093 0.0
C281 C 0.52 0.52553 0.14019 0.0
Tb282 Tb 0.57191 0.53568 0.12536 0.0
O283 O 0.52097 0.56608 0.16433 0.0
O284 O 0.55258 0.55825 0.14147 0.0
O285 O 0.52374 0.52642 0.1865 0.0
C286 C 0.58437 0.52202 0.04214 0.0
O287 O 0.5364 0.5295 0.10893 0.0
C288 C 0.57998 0.52063 0.20908 0.0
C289 C 0.59251 0.56417 0.19247 0.0
O290 O 0.57179 0.51449 0.07507 0.0
O291 O 0.59052 0.53743 0.05626 0.0
O292 O 0.59501 0.52186 0.17501 0.0
O293 O 0.56081 0.52581 0.1935 0.0
O294 O 0.59361 0.55741 0.14902 0.0
O295 O 0.57505 0.56145 0.22235 0.0
C296 C 0.52466 0.55164 0.29959 0.0
O297 O 0.54624 0.54995 0.28934 0.0
O298 O 0.51322 0.55208 0.2598 0.0
C299 C 0.53426 0.5655 0.12703 0.0
Tb300 Tb 0.17484 0.78667 0.94906 0.0
C301 C 0.2104 0.77191 0.87829 0.0
Tb302 Tb 0.19066 0.81003 0.85815 0.0
O303 O 0.15308 0.7704 0.90594 0.0
O304 O 0.16092 0.79617 0.88288 0.0
O305 O 0.20117 0.76984 0.92146 0.0
C306 C 0.20514 0.81886 0.76773 0.0
O307 O 0.20077 0.78273 0.84592 0.0
C308 C 0.21397 0.81323 0.93797 0.0
C309 C 0.15936 0.82708 0.93512 0.0
O310 O 0.21671 0.82042 0.80688 0.0
O311 O 0.18479 0.81336 0.77994 0.0
O312 O 0.2127 0.82567 0.90495 0.0
O313 O 0.20431 0.79987 0.92286 0.0
O314 O 0.1664 0.82841 0.88948 0.0
O315 O 0.16167 0.81265 0.96312 0.0
C316 C 0.17394 0.77433 0.04039 0.0
O317 O 0.189 0.7849 1.02131 0.0
O318 O 0.15872 0.77086 1.00806 0.0
C319 C 0.15178 0.78195 0.87047 0.0
Tb320 Tb 0.57102 0.96855 0.63217 0.0
C321 C 0.52568 0.97843 0.57737 0.0
Tb322 Tb 0.55177 0.94444 0.55433 0.0
O323 O 0.58368 0.98837 0.58203 0.0
O324 O 0.58007 0.9626 0.55995 0.0
O325 O 0.53715 0.97916 0.61815 0.0
C326 C 0.5348 0.93433 0.46958 0.0
O327 O 0.53352 0.96913 0.54214 0.0
C328 C 0.53627 0.93766 0.64309 0.0
C329 C 0.58937 0.92914 0.62425 0.0
O330 O 0.52328 0.93666 0.50843 0.0
O331 O 0.55639 0.93678 0.47915 0.0
O332 O 0.53514 0.92648 0.60904 0.0
O333 O 0.54293 0.95187 0.62374 0.0
O334 O 0.57949 0.92746 0.58159 0.0
O335 O 0.58672 0.94322 0.65029 0.0
C336 C 0.5808 0.98401 0.71411 0.0
O337 O 0.59438 0.97348 0.69215 0.0
O338 O 0.56205 0.9858 0.68979 0.0
C339 C 0.5835 0.97846 0.54548 0.0
Tb340 Tb 0.29067 0.32363 0.89581 0.0
C341 C 0.3396 0.32482 0.94905 0.0
Tb342 Tb 0.30052 0.29778 0.98378 0.0
O343 O 0.27229 0.34226 0.94068 0.0
O344 O 0.29656 0.32484 0.96888 0.0
O345 O 0.32693 0.33025 0.9112 0.0
C346 C 0.30262 0.28132 0.07092 0.0
O347 O 0.33253 0.31248 0.98083 0.0
C348 C 0.30749 0.28566 0.89735 0.0
C349 C 0.24954 0.30544 0.95078 0.0
O350 O 0.30685 0.29777 0.06121 0.0
O351 O 0.29744 0.27396 0.03117 0.0
O352 O 0.31897 0.28056 0.93525 0.0
O353 O 0.29206 0.29607 0.91003 0.0
O354 O 0.26321 0.30012 0.98641 0.0
O355 O 0.25756 0.31188 0.90927 0.0
C356 C 0.28414 0.33157 0.80223 0.0
O357 O 0.27484 0.33962 0.83755 0.0
O358 O 0.29837 0.3199 0.81991 0.0
C359 C 0.28164 0.33583 0.98 0.0
Tb360 Tb 0.90424 0.02737 0.15117 0.0
C361 C 0.89962 0.0638 0.20341 0.0
Tb362 Tb 0.93775 0.03586 0.23566 0.0
O363 O 0.88122 0.01176 0.19801 0.0
O364 O 0.90245 0.0309 0.22511 0.0
O365 O 0.89472 0.05511 0.16387 0.0
C366 C 0.95968 0.03788 0.32049 0.0
O367 O 0.91397 0.05765 0.23692 0.0
C368 C 0.95408 0.04205 0.14703 0.0
C369 C 0.93625 0.99847 0.20036 0.0
O370 O 0.94895 0.0506 0.29792 0.0
O371 O 0.95823 0.02407 0.29496 0.0
O372 O 0.96214 0.04917 0.18493 0.0
O373 O 0.93996 0.03069 0.16165 0.0
O374 O 0.93469 0.00749 0.23957 0.0
O375 O 0.92771 0.00509 0.15935 0.0
C376 C 0.889 0.01994 0.06369 0.0
O377 O 0.90147 0.03351 0.07362 0.0
O378 O 0.88412 0.01139 0.10337 0.0
C379 C 0.88908 0.01853 0.23668 0.0
Tb380 Tb 0.20286 0.68876 0.40218 0.0
C381 C 0.15761 0.68121 0.46135 0.0
Tb382 Tb 0.1861 0.71747 0.47549 0.0
O383 O 0.21933 0.6711 0.45836 0.0
O384 O 0.20093 0.69278 0.47442 0.0
O385 O 0.17038 0.67645 0.42406 0.0
C386 C 0.17099 0.736 0.54798 0.0
O387 O 0.16121 0.69588 0.4853 0.0
C388 C 0.18628 0.72724 0.38351 0.0
C389 C 0.23697 0.71366 0.45109 0.0
O390 O 0.15813 0.7269 0.5202 0.0
O391 O 0.19223 0.73458 0.53501 0.0
O392 O 0.18763 0.73794 0.41821 0.0
O393 O 0.1824 0.71211 0.4014 0.0
O394 O 0.22296 0.71731 0.48639 0.0
O395 O 0.22899 0.70895 0.40916 0.0
C396 C 0.21816 0.67977 0.31495 0.0
O397 O 0.22998 0.6796 0.35426 0.0
O398 O 0.19712 0.68384 0.32558 0.0
C399 C 0.21297 0.68088 0.49352 0.0
Tb400 Tb 0.58386 0.03746 0.13817 0.0
C401 C 0.56675 0.01161 0.21947 0.0
Tb402 Tb 0.55749 0.0529 0.22382 0.0
O403 O 0.61257 0.02777 0.18212 0.0
O404 O 0.59202 0.04783 0.20521 0.0
O405 O 0.57313 0.01346 0.17415 0.0
C406 C 0.53703 0.05808 0.30845 0.0
O407 O 0.56074 0.02499 0.24573 0.0
C408 C 0.53537 0.05283 0.14167 0.0
C409 C 0.58091 0.07873 0.14792 0.0
O410 O 0.52891 0.04909 0.27392 0.0
O411 O 0.55665 0.06476 0.29479 0.0
O412 O 0.53189 0.06422 0.17418 0.0
O413 O 0.54925 0.0414 0.15806 0.0
O414 O 0.57403 0.07691 0.1935 0.0
O415 O 0.58326 0.06531 0.11955 0.0
C416 C 0.58939 0.02546 0.05058 0.0
O417 O 0.60446 0.03485 0.07257 0.0
O418 O 0.57184 0.02282 0.07817 0.0
C419 C 0.60723 0.03689 0.21904 0.0
Tb420 Tb 0.19564 0.3068 0.38932 0.0
C421 C 0.16449 0.32635 0.31111 0.0
Tb422 Tb 0.17442 0.28545 0.30475 0.0
O423 O 0.21893 0.32145 0.34194 0.0
O424 O 0.20628 0.29717 0.32263 0.0
O425 O 0.17235 0.32659 0.35613 0.0
C426 C 0.17121 0.26984 0.21943 0.0
O427 O 0.16611 0.31245 0.28402 0.0
C428 C 0.1524 0.28161 0.3889 0.0
C429 C 0.19937 0.26508 0.38595 0.0
O430 O 0.15574 0.28001 0.23757 0.0
O431 O 0.18808 0.26856 0.24948 0.0
O432 O 0.14964 0.27149 0.35275 0.0
O433 O 0.16411 0.29456 0.37271 0.0
O434 O 0.19528 0.26558 0.33957 0.0
O435 O 0.1996 0.27927 0.41183 0.0
C436 C 0.2136 0.31578 0.47375 0.0
O437 O 0.22226 0.30488 0.44428 0.0
O438 O 0.19459 0.32205 0.45537 0.0
C439 C 0.21696 0.31071 0.30743 0.0
Tb440 Tb 0.90602 0.95951 0.65169 0.0
C441 C 0.91413 0.92191 0.60694 0.0
Tb442 Tb 0.94063 0.95592 0.56617 0.0
O443 O 0.87868 0.96986 0.60476 0.0
O444 O 0.90496 0.95446 0.57873 0.0
O445 O 0.90466 0.93087 0.64219 0.0
C446 C 0.96212 0.95655 0.48049 0.0
O447 O 0.92773 0.92917 0.57348 0.0
C448 C 0.95837 0.95365 0.65363 0.0
C449 C 0.92568 0.99306 0.59653 0.0
O450 O 0.94705 0.94508 0.4955 0.0
O451 O 0.96524 0.96763 0.51401 0.0
O452 O 0.96763 0.94671 0.61654 0.0
O453 O 0.94165 0.96271 0.63906 0.0
O454 O 0.93013 0.98336 0.55929 0.0
O455 O 0.91948 0.98574 0.63846 0.0
C456 C 0.89169 0.96452 0.74132 0.0
O457 O 0.8822 0.9709 0.70246 0.0
O458 O 0.90844 0.95427 0.72948 0.0
C459 C 0.88821 0.96395 0.56648 0.0
Tb460 Tb 0.31071 0.69753 0.89509 0.0
C461 C 0.33087 0.67168 0.82039 0.0
Tb462 Tb 0.33664 0.71284 0.80295 0.0
O463 O 0.28332 0.6876 0.85031 0.0
O464 O 0.30227 0.7094 0.82709 0.0
O465 O 0.32554 0.67352 0.86649 0.0
C466 C 0.34206 0.72656 0.71307 0.0
O467 O 0.33345 0.6851 0.78909 0.0
C468 C 0.36144 0.71108 0.88343 0.0
C469 C 0.32419 0.73832 0.88249 0.0
O470 O 0.35637 0.71586 0.73514 0.0
O471 O 0.32501 0.72925 0.74166 0.0
O472 O 0.36689 0.72041 0.84496 0.0
O473 O 0.34486 0.70145 0.87151 0.0
O474 O 0.32828 0.73691 0.83635 0.0
O475 O 0.31801 0.72488 0.91143 0.0
C476 C 0.29127 0.69119 0.98226 0.0
O477 O 0.28419 0.7023 0.94914 0.0
O478 O 0.30942 0.68338 0.96602 0.0
C479 C 0.28729 0.6985 0.81457 0.0
Tb480 Tb 0.44501 0.05683 0.72372 0.0
C481 C 0.42088 0.08298 0.64889 0.0
Tb482 Tb 0.41714 0.04162 0.63959 0.0
O483 O 0.47069 0.06734 0.67297 0.0
O484 O 0.4521 0.0449 0.65794 0.0
O485 O 0.42962 0.08132 0.69314 0.0
C486 C 0.41062 0.02938 0.55246 0.0
O487 O 0.4174 0.06945 0.62132 0.0
C488 C 0.39455 0.04165 0.72142 0.0
C489 C 0.43391 0.01569 0.72082 0.0
O490 O 0.39581 0.03881 0.57509 0.0
O491 O 0.42849 0.02691 0.57913 0.0
O492 O 0.38845 0.03266 0.68473 0.0
O493 O 0.41016 0.05218 0.70685 0.0
O494 O 0.42703 0.01751 0.67585 0.0
O495 O 0.4409 0.02901 0.7463 0.0
C496 C 0.46628 0.0612 0.80789 0.0
O497 O 0.47373 0.05212 0.77289 0.0
O498 O 0.44697 0.06853 0.79484 0.0
C499 C 0.46632 0.05596 0.64086 0.0
Tb500 Tb 0.67148 0.70946 0.31315 0.0
C501 C 0.69199 0.73206 0.39131 0.0
Tb502 Tb 0.69753 0.6904 0.40043 0.0
O503 O 0.6448 0.72011 0.36002 0.0
O504 O 0.66363 0.69868 0.38308 0.0
O505 O 0.68747 0.73162 0.3451 0.0
C506 C 0.7184 0.68254 0.48508 0.0
O507 O 0.69576 0.7178 0.41874 0.0
C508 C 0.71832 0.68927 0.3175 0.0
C509 C 0.67029 0.66774 0.32731 0.0
O510 O 0.7258 0.69323 0.45128 0.0
O511 O 0.69904 0.67587 0.47092 0.0
O512 O 0.72238 0.67858 0.35361 0.0
O513 O 0.70556 0.70155 0.33124 0.0
O514 O 0.6782 0.66828 0.37218 0.0
O515 O 0.66874 0.68182 0.29787 0.0
C516 C 0.66224 0.72448 0.22541 0.0
O517 O 0.64845 0.71434 0.25076 0.0
O518 O 0.6811 0.72594 0.24957 0.0
C519 C 0.64954 0.71004 0.39743 0.0
Tb520 Tb 0.05646 0.96171 0.06486 0.0
C521 C 0.0702 0.99871 0.09854 0.0
Tb522 Tb 0.09159 0.96485 0.14974 0.0
O523 O 0.0295 0.95181 0.11443 0.0
O524 O 0.05559 0.96717 0.13896 0.0
O525 O 0.0652 0.98951 0.06057 0.0
C526 C 0.10611 0.96934 0.23952 0.0
O527 O 0.07714 0.99093 0.1394 0.0
C528 C 0.10827 0.97131 0.06407 0.0
C529 C 0.08659 0.92834 0.09852 0.0
O530 O 0.09003 0.95856 0.22719 0.0
O531 O 0.11498 0.97649 0.20089 0.0
O532 O 0.11807 0.97675 0.10263 0.0
O533 O 0.09212 0.96123 0.07619 0.0
O534 O 0.09468 0.93647 0.13666 0.0
O535 O 0.07341 0.93631 0.06558 0.0
C536 C 0.03488 0.96097 0.97945 0.0
O537 O 0.04488 0.94787 1.00169 0.0
O538 O 0.03688 0.97463 1.00557 0.0
C539 C 0.03896 0.95777 0.15252 0.0
Tb540 Tb 0.80685 0.29232 0.78647 0.0
C541 C 0.75731 0.30415 0.81498 0.0
Tb542 Tb 0.79946 0.31811 0.87341 0.0
O543 O 0.7999 0.26983 0.83662 0.0
O544 O 0.81326 0.29274 0.86181 0.0
O545 O 0.77063 0.2979 0.78139 0.0
C546 C 0.78924 0.3224 0.96635 0.0
O547 O 0.76503 0.30873 0.85735 0.0
C548 C 0.78892 0.33208 0.78801 0.0
C549 C 0.84547 0.32099 0.8128 0.0
O550 O 0.78704 0.30812 0.94299 0.0
O551 O 0.79812 0.33451 0.93738 0.0
O552 O 0.78294 0.33911 0.82813 0.0
O553 O 0.80104 0.31891 0.79941 0.0
O554 O 0.83512 0.32473 0.8542 0.0
O555 O 0.83736 0.30924 0.78255 0.0
C556 C 0.81134 0.2764 0.70228 0.0
O557 O 0.79363 0.28504 0.71662 0.0
O558 O 0.82701 0.27684 0.73553 0.0
C559 C 0.80543 0.27794 0.87485 0.0
Tb560 Tb 0.44198 0.94665 0.05502 0.0
C561 C 0.40391 0.93159 0.12488 0.0
Tb562 Tb 0.42337 0.97063 0.13455 0.0
O563 O 0.45809 0.92806 0.10862 0.0
O564 O 0.45084 0.95341 0.12502 0.0
O565 O 0.4138 0.92996 0.08213 0.0
C566 C 0.41478 0.986 0.21726 0.0
O567 O 0.4068 0.94553 0.1514 0.0
C568 C 0.41153 0.98135 0.04808 0.0
C569 C 0.46925 0.9799 0.08054 0.0
O570 O 0.40059 0.97588 0.19542 0.0
O571 O 0.43343 0.98741 0.19241 0.0
O572 O 0.41126 0.99097 0.08521 0.0
O573 O 0.41453 0.96539 0.06196 0.0
O574 O 0.45763 0.98064 0.12116 0.0
O575 O 0.46119 0.97104 0.04461 0.0
C576 C 0.45855 0.93664 0.96972 0.0
O577 O 0.47018 0.93869 1.00853 0.0
O578 O 0.43703 0.93938 0.97955 0.0
C579 C 0.45715 0.93894 0.14339 0.0
Tb580 Tb 0.81029 0.70555 0.99563 0.0
C581 C 0.75991 0.6972 0.96363 0.0
Tb582 Tb 0.80105 0.6799 0.91008 0.0
O583 O 0.80524 0.72843 0.9465 0.0
O584 O 0.81642 0.70489 0.9205 0.0
O585 O 0.77343 0.70256 0.99797 0.0
C586 C 0.79163 0.67608 0.81664 0.0
O587 O 0.76769 0.69167 0.92238 0.0
C588 C 0.7891 0.66789 0.99686 0.0
C589 C 0.84774 0.67604 0.96952 0.0
O590 O 0.79272 0.69066 0.8389 0.0
O591 O 0.79684 0.66317 0.84709 0.0
O592 O 0.78054 0.66164 0.95775 0.0
O593 O 0.80388 0.67905 0.98402 0.0
O594 O 0.83625 0.67164 0.9299 0.0
O595 O 0.84064 0.68849 0.99879 0.0
C596 C 0.81278 0.72004 0.08139 0.0
O597 O 0.82898 0.7208 0.04907 0.0
O598 O 0.79579 0.71112 0.06516 0.0
C599 C 0.8097 0.7201 0.90805 0.0
Tb600 Tb 0.05403 0.0397 0.73475 0.0
C601 C 0.06032 0.00202 0.70394 0.0
Tb602 Tb 0.08793 0.03237 0.64966 0.0
O603 O 0.02838 0.05102 0.68384 0.0
O604 O 0.05205 0.03319 0.66158 0.0
O605 O 0.0613 0.01178 0.74186 0.0
C606 C 0.10296 0.02496 0.56191 0.0
O607 O 0.0677 0.0085 0.66181 0.0
C608 C 0.105 0.02656 0.73519 0.0
C609 C 0.08579 0.07065 0.69373 0.0
O610 O 0.0892 0.03781 0.57162 0.0
O611 O 0.10914 0.01715 0.60185 0.0
O612 O 0.11342 0.01975 0.69703 0.0
O613 O 0.08977 0.03747 0.72269 0.0
O614 O 0.09374 0.06084 0.65851 0.0
O615 O 0.07145 0.0647 0.72752 0.0
C616 C 0.03241 0.0411 0.82014 0.0
O617 O 0.04804 0.05192 0.80401 0.0
O618 O 0.02885 0.0296 0.78793 0.0
C619 C 0.03681 0.04361 0.64665 0.0
Tb620 Tb 0.68268 0.30126 0.47618 0.0
C621 C 0.73569 0.30568 0.45816 0.0
Tb622 Tb 0.70083 0.3244 0.38709 0.0
O623 O 0.66407 0.28478 0.42577 0.0
O624 O 0.69381 0.29751 0.40436 0.0
O625 O 0.71941 0.30213 0.49035 0.0
C626 C 0.71366 0.33021 0.29469 0.0
O627 O 0.73112 0.3107 0.41303 0.0
C628 C 0.70789 0.33836 0.4705 0.0
C629 C 0.65086 0.3314 0.42886 0.0
O630 O 0.72136 0.33847 0.33121 0.0
O631 O 0.69785 0.31938 0.31016 0.0
O632 O 0.718 0.34379 0.4309 0.0
O633 O 0.69268 0.32744 0.4593 0.0
O634 O 0.6654 0.33415 0.39227 0.0
O635 O 0.65483 0.32001 0.46526 0.0
C636 C 0.671 0.28514 0.56097 0.0
O637 O 0.6629 0.29992 0.54355 0.0
O638 O 0.68591 0.27947 0.53059 0.0
C639 C 0.67748 0.28836 0.38972 0.0
H640 H 0.05479 0.50823 0.26144 0.0
H641 H 0.1166 0.47796 0.28323 0.0
H642 H 0.05846 0.51956 0.34125 0.0
H643 H 0.1202 0.48919 0.36393 0.0
H644 H 0.12721 0.52645 0.49291 0.0
H645 H 0.12682 0.51648 0.41031 0.0
H646 H 0.05408 0.50681 0.42199 0.0
H647 H 0.05451 0.51667 0.50333 0.0
C648 C 0.06926 0.50407 0.28328 0.0
C649 C 0.08536 0.49217 0.26622 0.0
C650 C 0.07131 0.51049 0.32914 0.0
C651 C 0.08952 0.50516 0.35919 0.0
C652 C 0.10606 0.49363 0.34158 0.0
C653 C 0.10395 0.48715 0.29553 0.0
C654 C 0.11123 0.52217 0.4776 0.0
C655 C 0.0909 0.5224 0.50444 0.0
C656 C 0.11099 0.5164 0.43049 0.0
C657 C 0.09037 0.51098 0.4094 0.0
C658 C 0.07018 0.51116 0.43669 0.0
C659 C 0.07046 0.51674 0.48352 0.0
H660 H 0.74714 0.82274 0.78611 0.0
H661 H 0.69056 0.79699 0.7191 0.0
H662 H 0.7632 0.83066 0.70805 0.0
H663 H 0.70696 0.80456 0.64011 0.0
H664 H 0.73226 0.83712 0.50702 0.0
H665 H 0.71506 0.83152 0.58634 0.0
H666 H 0.78131 0.81601 0.64199 0.0
H667 H 0.79829 0.82187 0.56358 0.0
C668 C 0.73831 0.8185 0.75454 0.0
C669 C 0.71789 0.80882 0.75875 0.0
C670 C 0.74752 0.82305 0.70977 0.0
C671 C 0.73641 0.81824 0.66778 0.0
C672 C 0.71588 0.80855 0.67182 0.0
C673 C 0.70672 0.80385 0.71699 0.0
C674 C 0.74314 0.83292 0.53661 0.0
C675 C 0.76651 0.82962 0.52912 0.0
C676 C 0.73327 0.82948 0.58179 0.0
C677 C 0.74673 0.823 0.62031 0.0
C678 C 0.7704 0.82094 0.61322 0.0
C679 C 0.78016 0.8243 0.56826 0.0
H680 H 0.37414 0.48708 0.74318 0.0
H681 H 0.39995 0.53366 0.80768 0.0
H682 H 0.3696 0.47283 0.82199 0.0
H683 H 0.39533 0.51928 0.88728 0.0
H684 H 0.36305 0.49113 1.02216 0.0
H685 H 0.36229 0.50603 0.94286 0.0
H686 H 0.39949 0.46281 0.88475 0.0
H687 H 0.40043 0.4481 0.9638 0.0
C688 C 0.3787 0.49433 0.77431 0.0
C689 C 0.38757 0.51143 0.76941 0.0
C690 C 0.37614 0.48614 0.81937 0.0
C691 C 0.38213 0.49495 0.8606 0.0
C692 C 0.39041 0.51227 0.85595 0.0
C693 C 0.39324 0.52043 0.81058 0.0
C694 C 0.3705 0.48465 0.99209 0.0
C695 C 0.38181 0.46849 0.99882 0.0
C696 C 0.37035 0.49327 0.94701 0.0
C697 C 0.38097 0.48561 0.90789 0.0
C698 C 0.39111 0.46898 0.91427 0.0
C699 C 0.39162 0.46055 0.95937 0.0
H700 H 0.78516 0.17468 0.21361 0.0
H701 H 0.71616 0.17842 0.26749 0.0
H702 H 0.77128 0.181 0.13232 0.0
H703 H 0.70205 0.18403 0.18621 0.0
H704 H 0.68965 0.21488 0.04618 0.0
H705 H 0.70466 0.20852 0.12619 0.0
H706 H 0.7475 0.16795 0.06998 0.0
H707 H 0.73279 0.17491 0.98984 0.0
C708 C 0.76702 0.17682 0.20783 0.0
C709 C 0.75175 0.17645 0.24649 0.0
C710 C 0.75905 0.18023 0.16144 0.0
C711 C 0.73562 0.18322 0.15309 0.0
C712 C 0.72025 0.18212 0.19175 0.0
C713 C 0.72826 0.1787 0.2381 0.0
C714 C 0.70265 0.20504 0.05086 0.0
C715 C 0.71034 0.19573 1.01194 0.0
C716 C 0.71098 0.2011 0.0967 0.0
C717 C 0.72722 0.18769 0.10432 0.0
C718 C 0.73515 0.17847 0.06513 0.0
C719 C 0.72668 0.1824 1.01937 0.0
H720 H 0.87584 0.52343 0.99586 0.0
H721 H 0.94566 0.50543 1.00982 0.0
H722 H 0.87389 0.51131 0.91592 0.0
H723 H 0.94406 0.49387 0.93031 0.0
H724 H 0.92904 0.45928 0.80822 0.0
H725 H 0.92738 0.47051 0.88841 0.0
H726 H 0.88845 0.51524 0.83466 0.0
H727 H 0.88968 0.50363 0.7543 0.0
C728 C 0.89074 0.51693 0.98178 0.0
C729 C 0.91081 0.51523 1.00919 0.0
C730 C 0.8897 0.51007 0.93594 0.0
C731 C 0.90875 0.50143 0.91667 0.0
C732 C 0.92886 0.50003 0.9442 0.0
C733 C 0.92984 0.50677 0.9898 0.0
C734 C 0.91992 0.47142 0.81362 0.0
C735 C 0.90952 0.48059 0.77501 0.0
C736 C 0.91912 0.47796 0.85957 0.0
C737 C 0.90799 0.49392 0.86813 0.0
C738 C 0.89702 0.50286 0.82958 0.0
C739 C 0.8978 0.49626 0.78348 0.0
H740 H 0.26533 0.15903 0.78721 0.0
H741 H 0.20364 0.17836 0.71861 0.0
H742 H 0.28282 0.15507 0.70973 0.0
H743 H 0.22156 0.17477 0.63999 0.0
H744 H 0.25883 0.15262 0.50738 0.0
H745 H 0.23874 0.1514 0.58469 0.0
H746 H 0.29592 0.1777 0.64883 0.0
H747 H 0.31576 0.17881 0.5723 0.0
C748 C 0.25544 0.16238 0.75544 0.0
C749 C 0.23327 0.16933 0.75881 0.0
C750 C 0.2655 0.16013 0.71108 0.0
C751 C 0.25365 0.16479 0.66896 0.0
C752 C 0.23102 0.17102 0.67204 0.0
C753 C 0.22087 0.17326 0.71682 0.0
C754 C 0.26722 0.15771 0.53845 0.0
C755 C 0.2888 0.16576 0.5343 0.0
C756 C 0.25565 0.15722 0.58234 0.0
C757 C 0.26578 0.16447 0.62261 0.0
C758 C 0.28778 0.17185 0.61852 0.0
C759 C 0.29915 0.17249 0.57481 0.0
H760 H 0.62168 0.52014 0.25107 0.0
H761 H 0.55038 0.50828 0.27819 0.0
H762 H 0.63153 0.50898 0.33169 0.0
H763 H 0.56043 0.49672 0.35862 0.0
H764 H 0.59795 0.45461 0.45855 0.0
H765 H 0.5923 0.46784 0.37834 0.0
H766 H 0.61545 0.51772 0.42756 0.0
H767 H 0.62061 0.50455 0.50852 0.0
C768 C 0.60814 0.51518 0.27439 0.0
C769 C 0.58531 0.5149 0.25855 0.0
C770 C 0.61379 0.50891 0.32038 0.0
C771 C 0.59674 0.50195 0.35077 0.0
C772 C 0.57383 0.50196 0.33537 0.0
C773 C 0.56809 0.50858 0.28966 0.0
C774 C 0.60215 0.46834 0.45197 0.0
C775 C 0.60932 0.47867 0.48949 0.0
C776 C 0.59877 0.47588 0.4064 0.0
C777 C 0.60289 0.49381 0.39755 0.0
C778 C 0.61198 0.50387 0.434 0.0
C779 C 0.61516 0.49633 0.47994 0.0
H780 H 0.30588 0.79288 0.18154 0.0
H781 H 0.24833 0.82229 0.23227 0.0
H782 H 0.29146 0.79657 0.09936 0.0
H783 H 0.2341 0.82619 0.15062 0.0
H784 H 0.22536 0.84143 0.9909 0.0
H785 H 0.24575 0.8408 0.06787 0.0
H786 H 0.25406 0.78472 0.06056 0.0
H787 H 0.23316 0.78534 0.98528 0.0
C788 C 0.29049 0.80042 0.17499 0.0
C789 C 0.27833 0.80736 0.21313 0.0
C790 C 0.28214 0.80246 0.12812 0.0
C791 C 0.26175 0.81181 0.11864 0.0
C792 C 0.25001 0.81916 0.15675 0.0
C793 C 0.25809 0.8168 0.20351 0.0
C794 C 0.23179 0.82905 1.00567 0.0
C795 C 0.22767 0.81342 0.98228 0.0
C796 C 0.24339 0.82867 0.04958 0.0
C797 C 0.25157 0.8127 0.07003 0.0
C798 C 0.24825 0.79723 0.04543 0.0
C799 C 0.23624 0.79758 1.00234 0.0
H800 H 0.55575 0.00931 1.00322 0.0
H801 H 0.6251 0.02827 0.9861 0.0
H802 H 0.55562 1.00018 0.92116 0.0
H803 H 0.62498 0.01901 0.90274 0.0
H804 H 0.61817 0.98013 0.77324 0.0
H805 H 0.6222 0.99089 0.85451 0.0
H806 H 0.55583 0.0156 0.84165 0.0
H807 H 0.5518 0.00483 0.76141 0.0
C808 C 0.57105 0.01149 0.98186 0.0
C809 C 0.59044 0.01954 1.00101 0.0
C810 C 0.57091 0.00634 0.93467 0.0
C811 C 0.5902 0.00903 0.9053 0.0
C812 C 0.60988 0.01675 0.92463 0.0
C813 C 0.60995 0.02208 0.97213 0.0
C814 C 0.60462 0.98802 0.78779 0.0
C815 C 0.58462 0.99156 0.76125 0.0
C816 C 0.60695 0.99423 0.83411 0.0
C817 C 0.58922 0.00393 0.85461 0.0
C818 C 0.56963 0.00792 0.82717 0.0
C819 C 0.56736 0.00182 0.7811 0.0
H820 H 0.23646 0.33835 1.00466 0.0
H821 H 0.30451 0.33356 0.06347 0.0
H822 H 0.22012 0.33243 0.08449 0.0
H823 H 0.28841 0.32769 0.14292 0.0
H824 H 0.25149 0.33286 0.28478 0.0
H825 H 0.26626 0.34131 0.2059 0.0
H826 H 0.2182 0.3061 0.14189 0.0
H827 H 0.20304 0.29804 0.22142 0.0
C828 C 0.24787 0.33646 0.03491 0.0
C829 C 0.2717 0.33628 0.02822 0.0
C830 C 0.23857 0.33281 0.08035 0.0
C831 C 0.25299 0.32932 0.11984 0.0
C832 C 0.27683 0.33029 0.11329 0.0
C833 C 0.28607 0.33368 0.06791 0.0
C834 C 0.24417 0.32682 0.25388 0.0
C835 C 0.22642 0.31446 0.25923 0.0
C836 C 0.25265 0.33166 0.20871 0.0
C837 C 0.24344 0.32436 0.16766 0.0
C838 C 0.22556 0.31203 0.17289 0.0
C839 C 0.21716 0.30711 0.21839 0.0
H840 H 0.86949 0.98731 0.26222 0.0
H841 H 0.90198 0.03274 0.32013 0.0
H842 H 0.86677 0.9737 0.34262 0.0
H843 H 0.89897 0.0192 0.40069 0.0
H844 H 0.86762 0.99478 0.54026 0.0
H845 H 0.86578 0.00846 0.45969 0.0
H846 H 0.89896 0.96311 0.40311 0.0
H847 H 0.90095 0.94952 0.48367 0.0
C848 C 0.87578 0.99444 0.29226 0.0
C849 C 0.88594 0.01102 0.28528 0.0
C850 C 0.8743 0.98665 0.33804 0.0
C851 C 0.88263 0.99545 0.37754 0.0
C852 C 0.89224 0.01225 0.3707 0.0
C853 C 0.89403 0.01994 0.32479 0.0
C854 C 0.87416 0.98766 0.51043 0.0
C855 C 0.88446 0.97116 0.5178 0.0
C856 C 0.87327 0.99552 0.46459 0.0
C857 C 0.88227 0.98681 0.42552 0.0
C858 C 0.89179 0.97001 0.43274 0.0
C859 C 0.893 0.96229 0.47865 0.0
H860 H 0.24976 0.66229 0.53014 0.0
H861 H 0.19982 0.70129 0.56602 0.0
H862 H 0.26939 0.6666 0.60652 0.0
H863 H 0.21988 0.70614 0.64099 0.0
H864 H 0.27853 0.72326 0.74264 0.0
H865 H 0.26092 0.71827 0.66444 0.0
H866 H 0.25896 0.6626 0.69829 0.0
H867 H 0.27597 0.66762 0.77635 0.0
C868 C 0.24287 0.67165 0.55448 0.0
C869 C 0.22334 0.68155 0.54193 0.0
C870 C 0.25419 0.67423 0.59798 0.0
C871 C 0.24642 0.68696 0.62936 0.0
C872 C 0.22657 0.69651 0.61718 0.0
C873 C 0.21502 0.69366 0.57436 0.0
C874 C 0.2746 0.70997 0.73299 0.0
C875 C 0.27864 0.69584 0.76552 0.0
C876 C 0.26438 0.70711 0.68847 0.0
C877 C 0.25851 0.69002 0.67527 0.0
C878 C 0.26335 0.67588 0.70726 0.0
C879 C 0.27301 0.67879 0.75203 0.0
H880 H 0.37427 0.03213 0.48955 0.0
H881 H 0.4433 0.01239 0.50449 0.0
H882 H 0.37329 0.02224 0.40681 0.0
H883 H 0.44233 0.0026 0.4231 0.0
H884 H 0.44485 0.00633 0.26318 0.0
H885 H 0.44186 0.01743 0.3432 0.0
H886 H 0.37481 0.99396 0.35921 0.0
H887 H 0.37778 0.98287 0.27805 0.0
C888 C 0.38912 0.02563 0.47525 0.0
C889 C 0.40887 0.02309 0.50331 0.0
C890 C 0.38855 0.01993 0.4281 0.0
C891 C 0.40782 0.0118 0.4083 0.0
C892 C 0.42734 0.00907 0.43693 0.0
C893 C 0.42784 0.01461 0.48375 0.0
C894 C 0.42937 0.00364 0.28353 0.0
C895 C 0.4116 0.99365 0.26453 0.0
C896 C 0.4277 0.00994 0.3295 0.0
C897 C 0.40821 0.0064 0.35778 0.0
C898 C 0.39 0.99694 0.33819 0.0
C899 C 0.39172 0.99055 0.29192 0.0
H900 H 0.74524 0.65847 0.02435 0.0
H901 H 0.8102 0.67573 0.07869 0.0
H902 H 0.72738 0.66377 0.10214 0.0
H903 H 0.79261 0.68128 0.15534 0.0
H904 H 0.75875 0.67415 0.30032 0.0
H905 H 0.7752 0.66649 0.22424 0.0
H906 H 0.71761 0.69041 0.15024 0.0
H907 H 0.70073 0.69767 0.22755 0.0
C908 C 0.75577 0.66301 0.05322 0.0
C909 C 0.77901 0.66695 0.04542 0.0
C910 C 0.74551 0.6663 0.09746 0.0
C911 C 0.75847 0.67325 0.13473 0.0
C912 C 0.78206 0.67594 0.12758 0.0
C913 C 0.79219 0.67274 0.08361 0.0
C914 C 0.74967 0.67798 0.26782 0.0
C915 C 0.72868 0.68691 0.26988 0.0
C916 C 0.75912 0.67357 0.22414 0.0
C917 C 0.74778 0.67783 0.18104 0.0
C918 C 0.72672 0.68684 0.18286 0.0
C919 C 0.71727 0.69137 0.22698 0.0
H920 H 0.09317 0.95826 0.98136 0.0
H921 H 0.1293 0.00217 0.03868 0.0
H922 H 0.09474 0.97241 0.90153 0.0
H923 H 0.1305 0.01651 0.95868 0.0
H924 H 0.09254 0.04118 0.81859 0.0
H925 H 0.09592 0.02786 0.89952 0.0
H926 H 0.1288 0.9826 0.84189 0.0
H927 H 0.12573 0.99595 0.76136 0.0
C928 C 0.10166 0.97085 0.97665 0.0
C929 C 0.11127 0.97912 1.01578 0.0
C930 C 0.10256 0.97891 0.93117 0.0
C931 C 0.11276 0.99549 0.92432 0.0
C932 C 0.12254 0.00372 0.96336 0.0
C933 C 0.12201 0.99549 1.00882 0.0
C934 C 0.10069 0.02849 0.82348 0.0
C935 C 0.10879 0.01951 0.78405 0.0
C936 C 0.10272 0.02094 0.86956 0.0
C937 C 0.11257 0.00424 0.87652 0.0
C938 C 0.12109 0.99547 0.83716 0.0
C939 C 0.1194 0.00313 0.79129 0.0
H940 H 0.68952 0.3292 0.55839 0.0
H941 H 0.75038 0.3504 0.49019 0.0
H942 H 0.70918 0.32905 0.63616 0.0
H943 H 0.76998 0.34994 0.56716 0.0
H944 H 0.74942 0.35019 0.76926 0.0
H945 H 0.7286 0.35264 0.69316 0.0
H946 H 0.78215 0.32352 0.62549 0.0
H947 H 0.80274 0.32082 0.70166 0.0
C948 C 0.70695 0.33398 0.56013 0.0
C949 C 0.7184 0.33983 0.51833 0.0
C950 C 0.71817 0.33391 0.60449 0.0
C951 C 0.74113 0.33941 0.60751 0.0
C952 C 0.75235 0.34554 0.56578 0.0
C953 C 0.74105 0.34591 0.52181 0.0
C954 C 0.75685 0.34452 0.73793 0.0
C955 C 0.77766 0.3353 0.7412 0.0
C956 C 0.74484 0.34578 0.69461 0.0
C957 C 0.75374 0.33822 0.65356 0.0
C958 C 0.77494 0.3295 0.65658 0.0
C959 C 0.7867 0.32795 0.70005 0.0
H960 H 0.17256 0.36138 0.32662 0.0
H961 H 0.13227 0.32695 0.24133 0.0
H962 H 0.15765 0.38672 0.28007 0.0
H963 H 0.11673 0.35199 0.19635 0.0
H964 H 0.10605 0.39828 0.09319 0.0
H965 H 0.12428 0.37378 0.13755 0.0
H966 H 0.12599 0.40445 0.26413 0.0
H967 H 0.10904 0.42886 0.21982 0.0
C968 C 0.16019 0.35925 0.29861 0.0
C969 C 0.15365 0.34214 0.28779 0.0
C970 C 0.15161 0.37377 0.27169 0.0
C971 C 0.13604 0.37154 0.2337 0.0
C972 C 0.1291 0.35437 0.22412 0.0
C973 C 0.13785 0.33994 0.25049 0.0
C974 C 0.11063 0.39985 0.1303 0.0
C975 C 0.10598 0.41566 0.15257 0.0
C976 C 0.1209 0.38571 0.15604 0.0
C977 C 0.12657 0.38694 0.20492 0.0
C978 C 0.12232 0.40292 0.22662 0.0
C979 C 0.11234 0.41701 0.20093 0.0
H980 H 0.87018 0.91028 0.61443 0.0
H981 H 0.93787 0.89459 0.57117 0.0
H982 H 0.85379 0.88548 0.57311 0.0
H983 H 0.92145 0.86949 0.53097 0.0
H984 H 0.87285 0.81814 0.50769 0.0
H985 H 0.89377 0.84033 0.55149 0.0
H986 H 0.85604 0.88124 0.47569 0.0
H987 H 0.83557 0.85923 0.43105 0.0
C988 C 0.88163 0.90111 0.59792 0.0
C989 C 0.90532 0.90429 0.59637 0.0
C990 C 0.87223 0.8871 0.57363 0.0
C991 C 0.88638 0.87579 0.54828 0.0
C992 C 0.9102 0.87807 0.5501 0.0
C993 C 0.91957 0.89233 0.57343 0.0
C994 C 0.8696 0.83189 0.4992 0.0
C995 C 0.85264 0.83691 0.46562 0.0
C996 C 0.88142 0.84455 0.52458 0.0
C997 C 0.87611 0.86242 0.51763 0.0
C998 C 0.86017 0.8675 0.48216 0.0
C999 C 0.84874 0.85489 0.45604 0.0
H1000 H 0.31854 0.66037 0.73356 0.0
H1001 H 0.35358 0.64391 0.86337 0.0
H1002 H 0.33255 0.63435 0.69431 0.0
H1003 H 0.368 0.61797 0.82362 0.0
H1004 H 0.41804 0.59617 0.71365 0.0
H1005 H 0.39721 0.61987 0.74968 0.0
H1006 H 0.33338 0.59833 0.70111 0.0
H1007 H 0.35441 0.57395 0.6657 0.0
C1008 C 0.32879 0.65093 0.75405 0.0
C1009 C 0.33509 0.65415 0.80148 0.0
C1010 C 0.33674 0.63606 0.73154 0.0
C1011 C 0.35153 0.62431 0.75575 0.0
C1012 C 0.3567 0.62695 0.80412 0.0
C1013 C 0.34835 0.64168 0.82699 0.0
C1014 C 0.39957 0.59661 0.70973 0.0
C1015 C 0.38784 0.58313 0.68705 0.0
C1016 C 0.38766 0.61007 0.73092 0.0
C1017 C 0.36369 0.61059 0.72943 0.0
C1018 C 0.35189 0.59803 0.70325 0.0
C1019 C 0.36391 0.58427 0.6824 0.0
H1020 H 0.62851 0.18398 0.05697 0.0
H1021 H 0.64045 0.15076 0.93782 0.0
H1022 H 0.61083 0.15972 0.10145 0.0
H1023 H 0.62305 0.12614 0.98331 0.0
H1024 H 0.57221 0.08966 0.05698 0.0
H1025 H 0.58722 0.11537 1.01352 0.0
H1026 H 0.61893 0.13248 0.14317 0.0
H1027 H 0.60328 0.10668 0.18706 0.0
C1028 C 0.62748 0.17146 0.0401 0.0
C1029 C 0.636 0.16941 0.99346 0.0
C1030 C 0.61739 0.15745 0.06603 0.0
C1031 C 0.61549 0.14088 0.04632 0.0
C1032 C 0.6239 0.13878 0.99954 0.0
C1033 C 0.63399 0.15288 0.9734 0.0
C1034 C 0.58212 0.09906 0.07643 0.0
C1035 C 0.58662 0.09613 0.12548 0.0
C1036 C 0.59097 0.11372 0.0513 0.0
C1037 C 0.60474 0.12589 0.07437 0.0
C1038 C 0.60834 0.12343 0.12411 0.0
C1039 C 0.59929 0.1087 0.14947 0.0
H1040 H 0.12826 0.58618 0.61402 0.0
H1041 H 0.06678 0.61452 0.64749 0.0
H1042 H 0.1418 0.61096 0.56477 0.0
H1043 H 0.08029 0.63967 0.59701 0.0
H1044 H 0.12862 0.68568 0.53727 0.0
H1045 H 0.11011 0.66281 0.58666 0.0
H1046 H 0.13159 0.6241 0.48745 0.0
H1047 H 0.15063 0.64686 0.43854 0.0
C1048 C 0.1178 0.59792 0.6114 0.0
C1049 C 0.09653 0.59846 0.63476 0.0
C1050 C 0.1254 0.61204 0.58251 0.0
C1051 C 0.11187 0.62716 0.57568 0.0
C1052 C 0.09108 0.62817 0.60126 0.0
C1053 C 0.08343 0.61389 0.63055 0.0
C1054 C 0.12906 0.67235 0.5253 0.0
C1055 C 0.14153 0.66815 0.48405 0.0
C1056 C 0.11836 0.65921 0.55379 0.0
C1057 C 0.11983 0.64154 0.5418 0.0
C1058 C 0.13066 0.63754 0.49852 0.0
C1059 C 0.14137 0.65065 0.47004 0.0
H1060 H 0.61778 0.92999 0.70158 0.0
H1061 H 0.58945 0.89434 0.60091 0.0
H1062 H 0.63504 0.90548 0.74634 0.0
H1063 H 0.60645 0.86967 0.64643 0.0
H1064 H 0.6564 0.83064 0.71266 0.0
H1065 H 0.64175 0.85584 0.66743 0.0
H1066 H 0.62528 0.88086 0.79896 0.0
H1067 H 0.64059 0.85541 0.84489 0.0
C1068 C 0.61531 0.91691 0.68872 0.0
C1069 C 0.60218 0.9142 0.64739 0.0
C1070 C 0.62508 0.9028 0.71484 0.0
C1071 C 0.62203 0.88551 0.70053 0.0
C1072 C 0.60941 0.88281 0.65842 0.0
C1073 C 0.59965 0.89697 0.63213 0.0
C1074 C 0.64962 0.84146 0.73229 0.0
C1075 C 0.64942 0.84084 0.78269 0.0
C1076 C 0.64108 0.85595 0.70608 0.0
C1077 C 0.63195 0.87036 0.72925 0.0
C1078 C 0.63229 0.87003 0.77977 0.0
C1079 C 0.64101 0.85544 0.80622 0.0
H1080 H 0.39004 0.40238 0.1263 0.0
H1081 H 0.442 0.40452 1.01605 0.0
H1082 H 0.37451 0.37568 0.09233 0.0
H1083 H 0.42581 0.37849 0.98153 0.0
H1084 H 0.3577 0.3548 0.90505 0.0
H1085 H 0.38229 0.37642 0.94242 0.0
H1086 H 0.3886 0.34231 0.06807 0.0
H1087 H 0.36503 0.32042 0.03071 0.0
C1088 C 0.39857 0.39695 0.09586 0.0
C1089 C 0.41712 0.40581 0.07376 0.0
C1090 C 0.38956 0.38175 0.07616 0.0
C1091 C 0.39874 0.37529 0.03376 0.0
C1092 C 0.41823 0.38336 1.01377 0.0
C1093 C 0.42752 0.39825 0.0339 0.0
C1094 C 0.36494 0.35161 0.93991 0.0
C1095 C 0.3591 0.33585 0.96476 0.0
C1096 C 0.3789 0.36405 0.96145 0.0
C1097 C 0.38695 0.3611 1.00846 0.0
C1098 C 0.38236 0.34498 0.03209 0.0
C1099 C 0.36892 0.3324 1.01027 0.0
H1100 H 0.81233 0.13431 0.36085 0.0
H1101 H 0.85834 0.16803 0.27855 0.0
H1102 H 0.82927 0.10876 0.32525 0.0
H1103 H 0.8757 0.14242 0.24375 0.0
H1104 H 0.88653 0.09427 0.15302 0.0
H1105 H 0.86741 0.1198 0.18696 0.0
H1106 H 0.8627 0.09162 0.32361 0.0
H1107 H 0.88069 0.06645 0.28968 0.0
C1108 C 0.82655 0.13626 0.33634 0.0
C1109 C 0.83401 0.15324 0.32281 0.0
C1110 C 0.83617 0.12159 0.31548 0.0
C1111 C 0.85366 0.12351 0.28091 0.0
C1112 C 0.86188 0.14045 0.26921 0.0
C1113 C 0.85218 0.15512 0.28987 0.0
C1114 C 0.88086 0.09353 0.18988 0.0
C1115 C 0.88516 0.07846 0.21872 0.0
C1116 C 0.87024 0.10817 0.20961 0.0
C1117 C 0.86366 0.10784 0.25828 0.0
C1118 C 0.86723 0.0924 0.28607 0.0
C1119 C 0.87772 0.07796 0.26656 0.0
H1120 H 0.93292 0.58628 0.05965 0.0
H1121 H 0.90348 0.60669 0.18747 0.0
H1122 H 0.91931 0.61173 1.01309 0.0
H1123 H 0.8894 0.63236 0.14038 0.0
H1124 H 0.87583 0.68108 0.04628 0.0
H1125 H 0.89795 0.65897 0.09114 0.0
H1126 H 0.88217 0.62123 0.98492 0.0
H1127 H 0.86006 0.64333 0.9399 0.0
C1128 C 0.92378 0.5964 0.078 0.0
C1129 C 0.91912 0.5944 0.12728 0.0
C1130 C 0.91581 0.61096 0.05111 0.0
C1131 C 0.90283 0.624 0.07256 0.0
C1132 C 0.8994 0.6226 0.12258 0.0
C1133 C 0.90752 0.60794 0.14973 0.0
C1134 C 0.87745 0.66818 0.03174 0.0
C1135 C 0.86595 0.66406 0.98927 0.0
C1136 C 0.88999 0.65542 0.05794 0.0
C1137 C 0.89163 0.63819 0.04226 0.0
C1138 C 0.88144 0.63438 0.99815 0.0
C1139 C 0.86878 0.64712 0.97203 0.0
H1140 H 0.06397 0.09923 0.72496 0.0
H1141 H 0.13103 0.07995 0.6894 0.0
H1142 H 0.0812 0.12315 0.76731 0.0
H1143 H 0.14854 0.10427 0.73113 0.0
H1144 H 0.17234 0.13548 0.85718 0.0
H1145 H 0.153 0.11218 0.81492 0.0
H1146 H 0.10288 0.14964 0.76129 0.0
H1147 H 0.12185 0.17265 0.80423 0.0
C1148 C 0.08246 0.10054 0.72464 0.0
C1149 C 0.09615 0.08782 0.70346 0.0
C1150 C 0.09237 0.11419 0.74929 0.0
C1151 C 0.11629 0.11546 0.75356 0.0
C1152 C 0.13004 0.10343 0.72949 0.0
C1153 C 0.12006 0.08975 0.70453 0.0
C1154 C 0.15664 0.13854 0.83802 0.0
C1155 C 0.1485 0.15587 0.83439 0.0
C1156 C 0.14588 0.12529 0.81277 0.0
C1157 C 0.12668 0.1291 0.78369 0.0
C1158 C 0.1176 0.14618 0.78317 0.0
C1159 C 0.12838 0.15937 0.80817 0.0
H1160 H 0.61035 0.32686 0.4764 0.0
H1161 H 0.65325 0.36637 0.40705 0.0
H1162 H 0.58954 0.3498 0.51737 0.0
H1163 H 0.63279 0.38914 0.44879 0.0
H1164 H 0.61905 0.41703 0.589 0.0
H1165 H 0.63358 0.39198 0.54624 0.0
H1166 H 0.56523 0.38047 0.49813 0.0
H1167 H 0.55066 0.40582 0.54007 0.0
C1168 C 0.61473 0.34048 0.46849 0.0
C1169 C 0.63339 0.34482 0.43838 0.0
C1170 C 0.60299 0.35355 0.49232 0.0
C1171 C 0.61002 0.37111 0.48705 0.0
C1172 C 0.62735 0.37561 0.45395 0.0
C1173 C 0.63877 0.3626 0.4294 0.0
C1174 C 0.60698 0.4088 0.57082 0.0
C1175 C 0.58371 0.41334 0.56801 0.0
C1176 C 0.61535 0.39466 0.54568 0.0
C1177 C 0.60054 0.38461 0.51814 0.0
C1178 C 0.57698 0.38814 0.51881 0.0
C1179 C 0.56866 0.40252 0.54315 0.0
H1180 H 0.38315 0.83182 0.27246 0.0
H1181 H 0.31882 0.85752 0.29882 0.0
H1182 H 0.39673 0.85777 0.22776 0.0
H1183 H 0.33233 0.88364 0.25329 0.0
H1184 H 0.37463 0.93247 0.20083 0.0
H1185 H 0.35932 0.90786 0.24857 0.0
H1186 H 0.38901 0.8719 0.15046 0.0
H1187 H 0.40488 0.89665 0.10303 0.0
C1188 C 0.37206 0.8432 0.26957 0.0
C1189 C 0.34991 0.8426 0.28939 0.0
C1190 C 0.37972 0.858 0.24319 0.0
C1191 C 0.36545 0.87268 0.23567 0.0
C1192 C 0.34381 0.87256 0.25819 0.0
C1193 C 0.33611 0.85767 0.2848 0.0
C1194 C 0.3777 0.91933 0.18893 0.0
C1195 C 0.39116 0.91659 0.14803 0.0
C1196 C 0.36881 0.90518 0.21642 0.0
C1197 C 0.37319 0.88783 0.204 0.0
C1198 C 0.38571 0.88509 0.16177 0.0
C1199 C 0.39455 0.89929 0.13408 0.0
H1200 H 0.87284 0.41961 0.68107 0.0
H1201 H 0.92654 0.38986 0.61593 0.0
H1202 H 0.86199 0.39404 0.73026 0.0
H1203 H 0.91597 0.3641 0.6663 0.0
H1204 H 0.87092 0.31801 0.73115 0.0
H1205 H 0.88752 0.34201 0.68319 0.0
H1206 H 0.87543 0.37711 0.79794 0.0
H1207 H 0.85794 0.35323 0.84536 0.0
C1208 C 0.8822 0.4075 0.67686 0.0
C1209 C 0.90051 0.4068 0.64434 0.0
C1210 C 0.87621 0.39286 0.70574 0.0
C1211 C 0.88845 0.37704 0.70339 0.0
C1212 C 0.90615 0.37605 0.66927 0.0
C1213 C 0.9121 0.39077 0.64001 0.0
C1214 C 0.87229 0.33073 0.74684 0.0
C1215 C 0.86259 0.33366 0.79202 0.0
C1216 C 0.88185 0.34457 0.71909 0.0
C1217 C 0.88218 0.3617 0.73589 0.0
C1218 C 0.87474 0.36422 0.78307 0.0
C1219 C 0.86506 0.3504 0.81076 0.0
H1220 H 0.37186 0.1541 0.42848 0.0
H1221 H 0.37985 0.18858 0.54626 0.0
H1222 H 0.39163 0.13096 0.47441 0.0
H1223 H 0.39909 0.16522 0.5925 0.0
H1224 H 0.44063 0.11612 0.6557 0.0
H1225 H 0.43069 0.14269 0.60662 0.0
H1226 H 0.37503 0.11448 0.54314 0.0
H1227 H 0.38469 0.08856 0.59126 0.0
C1228 C 0.37845 0.15701 0.46344 0.0
C1229 C 0.37372 0.17318 0.48379 0.0
C1230 C 0.38957 0.14362 0.49014 0.0
C1231 C 0.39627 0.14603 0.53784 0.0
C1232 C 0.394 0.16283 0.55613 0.0
C1233 C 0.3829 0.17625 0.52939 0.0
C1234 C 0.42606 0.11581 0.63183 0.0
C1235 C 0.41357 0.10019 0.62716 0.0
C1236 C 0.4205 0.13093 0.60338 0.0
C1237 C 0.4025 0.13055 0.56971 0.0
C1238 C 0.38951 0.11513 0.5672 0.0
C1239 C 0.39493 0.10027 0.59536 0.0
H1240 H 0.62154 0.58625 0.14031 0.0
H1241 H 0.60418 0.56892 0.28446 0.0
H1242 H 0.64547 0.60953 0.17211 0.0
H1243 H 0.62697 0.5923 0.31594 0.0
H1244 H 0.6745 0.63398 0.3664 0.0
H1245 H 0.66188 0.60668 0.3312 0.0
H1246 H 0.63653 0.63636 0.20767 0.0
H1247 H 0.64954 0.66315 0.24159 0.0
C1248 C 0.62317 0.5872 0.17866 0.0
C1249 C 0.61062 0.57599 0.20976 0.0
C1250 C 0.63667 0.60064 0.197 0.0
C1251 C 0.63784 0.60308 0.24675 0.0
C1252 C 0.62667 0.59091 0.27761 0.0
C1253 C 0.61333 0.57756 0.25939 0.0
C1254 C 0.66633 0.63461 0.33167 0.0
C1255 C 0.66293 0.65084 0.30724 0.0
C1256 C 0.65909 0.61897 0.31138 0.0
C1257 C 0.64821 0.61923 0.26632 0.0
C1258 C 0.64526 0.63547 0.24179 0.0
C1259 C 0.65253 0.65097 0.2618 0.0
H1260 H 0.13484 0.85522 0.89603 0.0
H1261 H 0.16218 0.83365 0.02906 0.0
H1262 H 0.11712 0.87908 0.93979 0.0
H1263 H 0.14457 0.8571 0.07215 0.0
H1264 H 0.12813 0.91337 0.12263 0.0
H1265 H 0.14675 0.88924 0.08218 0.0
H1266 H 0.08535 0.88132 0.9999 0.0
H1267 H 0.06678 0.90514 0.0403 0.0
C1268 C 0.13717 0.85562 0.93434 0.0
C1269 C 0.14961 0.84241 0.95904 0.0
C1270 C 0.12693 0.86917 0.95949 0.0
C1271 C 0.12932 0.86988 1.00958 0.0
C1272 C 0.14245 0.85699 0.03373 0.0
C1273 C 0.15237 0.84345 1.00888 0.0
C1274 C 0.11841 0.90611 0.09703 0.0
C1275 C 0.096 0.91121 0.08469 0.0
C1276 C 0.12913 0.89243 0.07341 0.0
C1277 C 0.11768 0.88367 0.03693 0.0
C1278 C 0.09485 0.88812 0.0268 0.0
C1279 C 0.08413 0.90162 0.05052 0.0
H1280 H 0.97007 0.49557 0.28285 0.0
H1281 H 0.90755 0.48222 0.21152 0.0
H1282 H 0.98924 0.47171 0.24502 0.0
H1283 H 0.92738 0.45933 0.17057 0.0
H1284 H 0.00178 0.44973 0.06901 0.0
H1285 H 0.97419 0.44277 0.13258 0.0
H1286 H 0.97141 0.49773 0.1638 0.0
H1287 H -0.00013 0.50441 0.1029 0.0
C1288 C 0.95988 0.48671 0.26221 0.0
C1289 C 0.93833 0.49184 0.24476 0.0
C1290 C 0.97088 0.47285 0.24041 0.0
C1291 C 0.9603 0.46559 0.2005 0.0
C1292 C 0.93636 0.46594 0.19855 0.0
C1293 C 0.92503 0.47923 0.22197 0.0
C1294 C 0.99424 0.46046 0.08771 0.0
C1295 C 0.00357 0.47753 0.08276 0.0
C1296 C 0.9789 0.45633 0.12478 0.0
C1297 C 0.97193 0.46953 0.15468 0.0
C1298 C 0.9774 0.48716 0.1424 0.0
C1299 C 0.99317 0.49116 0.1065 0.0
H1300 H 0.71623 0.81298 0.39762 0.0
H1301 H 0.72869 0.79282 0.54174 0.0
H1302 H 0.67519 0.81163 0.41379 0.0
H1303 H 0.6873 0.79215 0.5553 0.0
H1304 H 0.69903 0.73845 0.48484 0.0
H1305 H 0.68785 0.76374 0.52714 0.0
H1306 H 0.65661 0.78611 0.39835 0.0
H1307 H 0.66747 0.7602 0.3563 0.0
C1308 C 0.71035 0.80776 0.43201 0.0
C1309 C 0.72564 0.80032 0.46596 0.0
C1310 C 0.68688 0.80743 0.44194 0.0
C1311 C 0.67948 0.79628 0.48017 0.0
C1312 C 0.69364 0.79681 0.52071 0.0
C1313 C 0.71731 0.79659 0.51259 0.0
C1314 C 0.69015 0.74892 0.46522 0.0
C1315 C 0.68605 0.74806 0.41608 0.0
C1316 C 0.68319 0.76345 0.48979 0.0
C1317 C 0.67349 0.77814 0.46496 0.0
C1318 C 0.66573 0.77579 0.41794 0.0
C1319 C 0.67256 0.76114 0.3933 0.0
H1320 H 0.54669 0.52518 0.50808 0.0
H1321 H 0.58162 0.52858 0.6406 0.0
H1322 H 0.51006 0.52397 0.54919 0.0
H1323 H 0.54603 0.5257 0.68429 0.0
H1324 H 0.47848 0.50597 0.74949 0.0
H1325 H 0.51223 0.52006 0.71619 0.0
H1326 H 0.49717 0.49771 0.57982 0.0
H1327 H 0.46159 0.48613 0.61206 0.0
C1328 C 0.54648 0.52628 0.54655 0.0
C1329 C 0.56602 0.5221 0.57364 0.0
C1330 C 0.52545 0.525 0.57026 0.0
C1331 C 0.52521 0.52202 0.62042 0.0
C1332 C 0.54527 0.52623 0.6457 0.0
C1333 C 0.56583 0.52824 0.62033 0.0
C1334 C 0.48243 0.50414 0.71226 0.0
C1335 C 0.46607 0.49705 0.68166 0.0
C1336 C 0.50183 0.51238 0.69289 0.0
C1337 C 0.50631 0.51174 0.64363 0.0
C1338 C 0.49306 0.50021 0.61663 0.0
C1339 C 0.47314 0.49274 0.63573 0.0
H1340 H 0.66473 0.27405 0.91046 0.0
H1341 H 0.69651 0.24973 0.7906 0.0
H1342 H 0.66089 0.30126 0.86372 0.0
H1343 H 0.6932 0.2767 0.74386 0.0
H1344 H 0.73709 0.30278 0.72613 0.0
H1345 H 0.69605 0.30542 0.71023 0.0
H1346 H 0.6848 0.32442 0.84875 0.0
H1347 H 0.72545 0.32176 0.86766 0.0
C1348 C 0.67151 0.27471 0.87441 0.0
C1349 C 0.68278 0.26029 0.85537 0.0
C1350 C 0.66874 0.29019 0.84704 0.0
C1351 C 0.67868 0.292 0.80123 0.0
C1352 C 0.68674 0.27659 0.78008 0.0
C1353 C 0.6892 0.26105 0.80721 0.0
C1354 C 0.72587 0.30708 0.75419 0.0
C1355 C 0.7339 0.30929 0.80115 0.0
C1356 C 0.7025 0.30925 0.74458 0.0
C1357 C 0.68778 0.3096 0.7843 0.0
C1358 C 0.69621 0.31956 0.82182 0.0
C1359 C 0.71938 0.31765 0.8333 0.0
H1360 H -0.00372 0.47136 0.53496 0.0
H1361 H 0.96827 0.516 0.60393 0.0
H1362 H 0.02512 0.46799 0.59639 0.0
H1363 H -0.00138 0.5141 0.66302 0.0
H1364 H 0.03172 0.50503 0.78679 0.0
H1365 H 0.00236 0.49552 0.73191 0.0
H1366 H 0.05536 0.47345 0.64409 0.0
H1367 H 0.08354 0.48197 0.70215 0.0
C1368 C -0.00283 0.48122 0.56175 0.0
C1369 C 0.97866 0.49261 0.56873 0.0
C1370 C 0.01344 0.47896 0.59784 0.0
C1371 C 0.01265 0.48964 0.63754 0.0
C1372 C -0.0018 0.50448 0.63557 0.0
C1373 C 0.98155 0.50623 0.6002 0.0
C1374 C 0.03682 0.49713 0.75723 0.0
C1375 C 0.05943 0.49752 0.74071 0.0
C1376 C 0.02005 0.4922 0.72493 0.0
C1377 C 0.02693 0.48593 0.68034 0.0
C1378 C 0.04943 0.47953 0.67609 0.0
C1379 C 0.06563 0.48415 0.71011 0.0
H1380 H 0.72691 0.68235 0.90828 0.0
H1381 H 0.738 0.70198 0.0492 0.0
H1382 H 0.68595 0.68306 0.92235 0.0
H1383 H 0.69672 0.70185 0.06223 0.0
H1384 H 0.69712 0.75639 0.98242 0.0
H1385 H 0.69278 0.72981 0.02981 0.0
H1386 H 0.66062 0.70506 0.91026 0.0
H1387 H 0.665 0.73213 0.86279 0.0
C1388 C 0.72067 0.68713 0.94181 0.0
C1389 C 0.73553 0.69453 0.97497 0.0
C1390 C 0.69716 0.68709 0.95066 0.0
C1391 C 0.6889 0.69712 0.98826 0.0
C1392 C 0.70324 0.69738 0.02856 0.0
C1393 C 0.72686 0.69803 1.02062 0.0
C1394 C 0.68949 0.74517 0.96594 0.0
C1395 C 0.68347 0.74578 0.91752 0.0
C1396 C 0.68644 0.72984 0.99352 0.0
C1397 C 0.67864 0.71438 0.97235 0.0
C1398 C 0.66855 0.71615 0.9267 0.0
C1399 C 0.67161 0.73154 0.89895 0.0
H1400 H 0.39575 0.51923 0.1291 0.0
H1401 H 0.41848 0.51539 0.98289 0.0
H1402 H 0.41359 0.54787 0.13144 0.0
H1403 H 0.43613 0.54427 0.98743 0.0
H1404 H 0.5031 0.51816 0.05319 0.0
H1405 H 0.46762 0.52829 1.01847 0.0
H1406 H 0.45025 0.55283 0.15119 0.0
H1407 H 0.48521 0.5414 0.18621 0.0
C1408 C 0.40395 0.52461 0.09704 0.0
C1409 C 0.40871 0.51413 0.05806 0.0
C1410 C 0.41426 0.54111 0.0982 0.0
C1411 C 0.43144 0.54492 0.06402 0.0
C1412 C 0.42647 0.53916 1.01799 0.0
C1413 C 0.41655 0.52251 1.0154 0.0
C1414 C 0.49124 0.52521 0.07524 0.0
C1415 C 0.49653 0.52838 0.12282 0.0
C1416 C 0.47095 0.53155 0.05507 0.0
C1417 C 0.45536 0.54153 0.08181 0.0
C1418 C 0.46125 0.54503 0.1293 0.0
C1419 C 0.48122 0.53818 0.14983 0.0
H1420 H 0.76687 0.24442 0.2777 0.0
H1421 H 0.71846 0.22986 0.38829 0.0
H1422 H 0.78309 0.2665 0.32727 0.0
H1423 H 0.732 0.25371 0.43533 0.0
H1424 H 0.75323 0.28312 0.53026 0.0
H1425 H 0.76323 0.25749 0.48606 0.0
H1426 H 0.78487 0.29156 0.36742 0.0
H1427 H 0.77675 0.31661 0.41473 0.0
C1428 C 0.75896 0.24649 0.31195 0.0
C1429 C 0.74341 0.2342 0.33206 0.0
C1430 C 0.76856 0.25902 0.34076 0.0
C1431 C 0.76056 0.26061 0.38765 0.0
C1432 C 0.74034 0.25156 0.4015 0.0
C1433 C 0.73161 0.2385 0.37343 0.0
C1434 C 0.76178 0.28506 0.49609 0.0
C1435 C 0.75962 0.30096 0.46986 0.0
C1436 C 0.76715 0.27032 0.47035 0.0
C1437 C 0.77158 0.27261 0.42097 0.0
C1438 C 0.77941 0.28918 0.40401 0.0
C1439 C 0.77495 0.30365 0.43161 0.0
H1440 H 0.22582 0.28211 1.01365 0.0
H1441 H 0.21241 0.31551 0.89152 0.0
H1442 H 0.22489 0.25654 0.96464 0.0
H1443 H 0.21321 0.29075 0.83989 0.0
H1444 H 0.23154 0.24004 0.76201 0.0
H1445 H 0.21647 0.26512 0.8018 0.0
H1446 H 0.25965 0.25218 0.92368 0.0
H1447 H 0.27215 0.2258 0.88559 0.0
C1448 C 0.22161 0.28394 0.9761 0.0
C1449 C 0.22512 0.3002 0.95235 0.0
C1450 C 0.22166 0.26929 0.94779 0.0
C1451 C 0.22216 0.27189 0.89758 0.0
C1452 C 0.21487 0.28825 0.87802 0.0
C1453 C 0.21405 0.30247 0.90799 0.0
C1454 C 0.23828 0.24281 0.79698 0.0
C1455 C 0.25004 0.22982 0.8243 0.0
C1456 C 0.2292 0.25707 0.82017 0.0
C1457 C 0.23473 0.25939 0.86829 0.0
C1458 C 0.253 0.24954 0.88858 0.0
C1459 C 0.26114 0.23491 0.86579 0.0
H1460 H 0.25801 0.68231 0.44092 0.0
H1461 H 0.27071 0.73502 0.48535 0.0
H1462 H 0.29666 0.68051 0.41143 0.0
H1463 H 0.31012 0.73235 0.458 0.0
H1464 H 0.26423 0.73546 0.3123 0.0
H1465 H 0.27135 0.70787 0.35581 0.0
H1466 H 0.34111 0.7238 0.38256 0.0
H1467 H 0.33486 0.74993 0.33191 0.0
C1468 C 0.26942 0.69309 0.44742 0.0
C1469 C 0.26095 0.70941 0.46148 0.0
C1470 C 0.29194 0.69185 0.43141 0.0
C1471 C 0.30439 0.70745 0.42545 0.0
C1472 C 0.29925 0.72086 0.45715 0.0
C1473 C 0.27653 0.72261 0.47224 0.0
C1474 C 0.28138 0.7325 0.325 0.0
C1475 C 0.29861 0.7451 0.32177 0.0
C1476 C 0.28572 0.71665 0.34975 0.0
C1477 C 0.30646 0.71434 0.37559 0.0
C1478 C 0.32487 0.72543 0.36419 0.0
C1479 C 0.32097 0.74069 0.33658 0.0
H1480 H 0.24157 0.19707 0.54761 0.0
H1481 H 0.23242 0.18185 0.40167 0.0
H1482 H 0.20019 0.20043 0.55482 0.0
H1483 H 0.1913 0.18497 0.41134 0.0
H1484 H 0.17569 0.23676 0.35691 0.0
H1485 H 0.16882 0.20934 0.40122 0.0
H1486 H 0.20727 0.22911 0.52029 0.0
H1487 H 0.21322 0.25643 0.47632 0.0
C1488 C 0.23085 0.19444 0.51715 0.0
C1489 C 0.24032 0.19175 0.47166 0.0
C1490 C 0.20705 0.19577 0.52167 0.0
C1491 C 0.19434 0.19773 0.47917 0.0
C1492 C 0.20213 0.18743 0.44171 0.0
C1493 C 0.22577 0.18596 0.43559 0.0
C1494 C 0.18301 0.23501 0.39231 0.0
C1495 C 0.19658 0.24815 0.41192 0.0
C1496 C 0.17855 0.21944 0.41826 0.0
C1497 C 0.18874 0.21621 0.46327 0.0
C1498 C 0.19989 0.23039 0.4849 0.0
C1499 C 0.20391 0.24607 0.4593 0.0
H1500 H 0.33261 0.76989 0.83436 0.0
H1501 H 0.32277 0.74747 0.97729 0.0
H1502 H 0.31542 0.79696 0.85971 0.0
H1503 H 0.30587 0.77515 1.00028 0.0
H1504 H 0.23766 0.75073 0.9332 0.0
H1505 H 0.27471 0.75845 0.96216 0.0
H1506 H 0.27671 0.80328 0.8618 0.0
H1507 H 0.23977 0.79466 0.83164 0.0
C1508 C 0.32724 0.77075 0.87124 0.0
C1509 C 0.32593 0.7558 0.90223 0.0
C1510 C 0.31761 0.78636 0.88615 0.0
C1511 C 0.30369 0.78513 0.92714 0.0
C1512 C 0.31267 0.77432 0.96441 0.0
C1513 C 0.32194 0.75829 0.95114 0.0
C1514 C 0.24641 0.76186 0.91621 0.0
C1515 C 0.23557 0.77218 0.88058 0.0
C1516 C 0.26756 0.76681 0.93391 0.0
C1517 C 0.27902 0.782 0.91536 0.0
C1518 C 0.26851 0.79174 0.87778 0.0
C1519 C 0.24743 0.78659 0.85974 0.0
H1520 H 0.46642 0.00113 0.78131 0.0
H1521 H 0.40484 0.98839 0.7054 0.0
H1522 H 0.48479 0.97543 0.75037 0.0
H1523 H 0.42408 0.96368 0.67139 0.0
H1524 H 0.49736 0.9505 0.57401 0.0
H1525 H 0.46944 0.94542 0.63814 0.0
H1526 H 0.47079 0.00079 0.66502 0.0
H1527 H 0.49962 0.00554 0.60366 0.0
C1528 C 0.45619 0.99219 0.76104 0.0
C1529 C 0.43531 0.99762 0.74076 0.0
C1530 C 0.4667 0.97731 0.74324 0.0
C1531 C 0.45664 0.96957 0.70344 0.0
C1532 C 0.43282 0.97068 0.69897 0.0
C1533 C 0.42186 0.98504 0.71822 0.0
C1534 C 0.49071 0.96174 0.59195 0.0
C1535 C 0.50101 0.9784 0.58505 0.0
C1536 C 0.47522 0.95866 0.62943 0.0
C1537 C 0.46929 0.97246 0.6583 0.0
C1538 C 0.47607 0.98971 0.64469 0.0
C1539 C 0.49193 0.99265 0.60834 0.0
H1540 H 0.04218 0.01856 0.03374 0.0
H1541 H 0.07162 0.02331 0.1714 0.0
H1542 H 0.0049 0.01277 0.06909 0.0
H1543 H 0.03557 0.01636 0.20946 0.0
H1544 H 0.97036 0.99154 0.26722 0.0
H1545 H 0.00584 0.0038 0.23868 0.0
H1546 H 0.98827 0.98864 0.09557 0.0
H1547 H 0.95126 0.97892 0.12467 0.0
C1548 C 0.04051 0.0187 0.07227 0.0
C1549 C 0.05977 0.01636 0.10162 0.0
C1550 C 0.01925 0.01456 0.0927 0.0
C1551 C 0.0178 0.01084 0.14255 0.0
C1552 C 0.03605 0.01682 0.17093 0.0
C1553 C 0.0568 0.02144 0.14885 0.0
C1554 C 0.97426 0.99073 0.22952 0.0
C1555 C 0.95686 0.98741 0.19651 0.0
C1556 C 0.99461 0.99825 0.21266 0.0
C1557 C -0.00119 0.99977 0.16304 0.0
C1558 C 0.98449 0.99009 0.13299 0.0
C1559 C 0.96366 0.9835 0.15016 0.0
H1560 H 0.49616 0.00575 0.11212 0.0
H1561 H 0.49669 0.95158 0.07317 0.0
H1562 H 0.52472 0.9991 0.17275 0.0
H1563 H 0.52463 0.94461 0.13598 0.0
H1564 H 0.5925 0.98296 0.19841 0.0
H1565 H 0.56977 0.95946 0.16716 0.0
H1566 H 0.51349 0.97379 0.25623 0.0
H1567 H 0.53539 0.99829 0.28492 0.0
C1568 C 0.50331 0.99263 0.11484 0.0
C1569 C 0.49387 0.97916 0.08891 0.0
C1570 C 0.51899 0.98859 0.15082 0.0
C1571 C 0.52537 0.97099 0.16129 0.0
C1572 C 0.51904 0.95806 0.12993 0.0
C1573 C 0.50361 0.96223 0.09309 0.0
C1574 C 0.57574 0.98042 0.21387 0.0
C1575 C 0.56438 0.99352 0.23889 0.0
C1576 C 0.56276 0.96675 0.19624 0.0
C1577 C 0.53913 0.96692 0.20444 0.0
C1578 C 0.53138 0.97482 0.24615 0.0
C1579 C 0.54393 0.989 0.26262 0.0
H1580 H 0.9547 0.01094 0.53033 0.0
H1581 H 0.92354 0.01884 0.66542 0.0
H1582 H 0.99183 0.00772 0.5679 0.0
H1583 H 0.95956 0.01447 0.70559 0.0
H1584 H 0.02612 0.99532 0.7708 0.0
H1585 H 0.9898 0.00431 0.73854 0.0
H1586 H 0.01061 0.98572 0.60067 0.0
H1587 H 0.04815 0.97933 0.63295 0.0
C1588 C 0.95592 0.0124 0.5686 0.0
C1589 C 0.93641 0.01064 0.59755 0.0
C1590 C 0.97716 0.0097 0.59055 0.0
C1591 C 0.97836 0.00764 0.64095 0.0
C1592 C 0.95945 0.01373 0.66721 0.0
C1593 C 0.93865 0.01692 0.64376 0.0
C1594 C 0.02276 0.99305 0.73349 0.0
C1595 C 0.04083 0.98972 0.70207 0.0
C1596 C 0.00187 0.99867 0.71435 0.0
C1597 C -0.00188 0.99833 0.66459 0.0
C1598 C 0.01376 0.9886 0.63757 0.0
C1599 C 0.03501 0.98391 0.65679 0.0
H1600 H 0.0027 0.41792 0.94132 0.0
H1601 H 0.05634 0.45162 0.88472 0.0
H1602 H 0.98406 0.41864 0.86254 0.0
H1603 H 0.03717 0.45293 0.80652 0.0
H1604 H 0.97538 0.46745 0.69962 0.0
H1605 H 0.99473 0.46536 0.77761 0.0
H1606 H -0.00425 0.40902 0.77143 0.0
H1607 H 0.97677 0.41106 0.69302 0.0
C1608 C 0.01063 0.42535 0.91198 0.0
C1609 C 0.0312 0.43451 0.91932 0.0
C1610 C -9e-05 0.42579 0.86684 0.0
C1611 C 0.00906 0.43587 0.82814 0.0
C1612 C 0.02963 0.44506 0.8355 0.0
C1613 C 0.04071 0.44419 0.88026 0.0
C1614 C 0.97976 0.45461 0.7148 0.0
C1615 C 0.97456 0.43942 0.68985 0.0
C1616 C 0.991 0.45344 0.75934 0.0
C1617 C -0.00298 0.43705 0.78061 0.0
C1618 C 0.99141 0.42185 0.7561 0.0
C1619 C 0.98058 0.42303 0.7111 0.0
H1620 H 0.77826 0.71903 0.14602 0.0
H1621 H 0.84617 0.74007 0.12323 0.0
H1622 H 0.77583 0.73323 0.22189 0.0
H1623 H 0.84419 0.75397 0.20079 0.0
H1624 H 0.82369 0.79069 0.32103 0.0
H1625 H 0.82704 0.77686 0.24396 0.0
H1626 H 0.78891 0.73212 0.30073 0.0
H1627 H 0.78459 0.74644 0.37651 0.0
C1628 C 0.79283 0.72661 0.15749 0.0
C1629 C 0.81243 0.72842 0.1285 0.0
C1630 C 0.7915 0.73469 0.20142 0.0
C1631 C 0.80984 0.74477 0.21814 0.0
C1632 C 0.82957 0.74652 0.18909 0.0
C1633 C 0.83083 0.73845 0.14475 0.0
C1634 C 0.81569 0.77803 0.31664 0.0
C1635 C 0.80334 0.76987 0.35451 0.0
C1636 C 0.81792 0.76994 0.27261 0.0
C1637 C 0.80813 0.75334 0.2655 0.0
C1638 C 0.79627 0.74505 0.30406 0.0
C1639 C 0.7939 0.75321 0.34782 0.0
H1640 H 0.47973 0.54744 0.32467 0.0
H1641 H 0.54659 0.55568 0.38527 0.0
H1642 H 0.46291 0.54647 0.40487 0.0
H1643 H 0.52966 0.55511 0.46569 0.0
H1644 H 0.48394 0.5715 0.59573 0.0
H1645 H 0.50153 0.57303 0.51589 0.0
H1646 H 0.46518 0.52612 0.47954 0.0
H1647 H 0.44865 0.52413 0.55967 0.0
C1648 C 0.49083 0.54919 0.35512 0.0
C1649 C 0.5145 0.55171 0.34851 0.0
C1650 C 0.48119 0.54855 0.40115 0.0
C1651 C 0.4949 0.55076 0.44185 0.0
C1652 C 0.51857 0.55352 0.43517 0.0
C1653 C 0.52828 0.5538 0.38911 0.0
C1654 C 0.47969 0.56155 0.57062 0.0
C1655 C 0.46428 0.548 0.58372 0.0
C1656 C 0.48981 0.56239 0.52491 0.0
C1657 C 0.48451 0.54985 0.49091 0.0
C1658 C 0.46923 0.53624 0.50429 0.0
C1659 C 0.45959 0.53518 0.55024 0.0
H1660 H 0.64494 0.21095 0.80566 0.0
H1661 H 0.62293 0.26123 0.85284 0.0
H1662 H 0.6519 0.22373 0.72545 0.0
H1663 H 0.62977 0.27417 0.77358 0.0
H1664 H 0.63563 0.29385 0.61965 0.0
H1665 H 0.62292 0.27909 0.69374 0.0
H1666 H 0.67783 0.24149 0.68232 0.0
H1667 H 0.68973 0.25593 0.60682 0.0
C1668 C 0.64143 0.2247 0.7988 0.0
C1669 C 0.63418 0.2351 0.83633 0.0
C1670 C 0.64555 0.23216 0.75271 0.0
C1671 C 0.64208 0.25026 0.74241 0.0
C1672 C 0.63272 0.26023 0.77914 0.0
C1673 C 0.62879 0.25277 0.82514 0.0
C1674 C 0.64494 0.28238 0.63288 0.0
C1675 C 0.66371 0.2761 0.60705 0.0
C1676 C 0.63771 0.27389 0.67582 0.0
C1677 C 0.64916 0.25888 0.69489 0.0
C1678 C 0.66807 0.25268 0.66886 0.0
C1679 C 0.67513 0.26109 0.62557 0.0
H1680 H 0.94606 0.54963 0.05871 0.0
H1681 H 0.01284 0.55503 0.12134 0.0
H1682 H 0.96264 0.55273 0.97908 0.0
H1683 H 0.02989 0.55779 0.04167 0.0
H1684 H 0.0525 0.57774 0.89281 0.0
H1685 H 0.03535 0.57542 0.97269 0.0
H1686 H 0.98415 0.53997 0.92033 0.0
H1687 H 0.00067 0.54302 0.84078 0.0
C1688 C 0.96442 0.55086 0.05544 0.0
C1689 C 0.97817 0.55147 0.09642 0.0
C1690 C 0.97405 0.55282 1.00952 0.0
C1691 C -0.00217 0.55544 1.00311 0.0
C1692 C 0.01154 0.55608 0.04451 0.0
C1693 C 0.0018 0.5543 0.09039 0.0
C1694 C 0.03742 0.56964 0.89843 0.0
C1695 C 0.02786 0.56072 0.86024 0.0
C1696 C 0.02765 0.56811 0.94447 0.0
C1697 C 0.00819 0.55746 0.95372 0.0
C1698 C -0.00125 0.54859 0.9151 0.0
C1699 C 0.00834 0.55027 0.8692 0.0
H1700 H 0.62378 0.722 0.16864 0.0
H1701 H 0.68992 0.74699 0.17287 0.0
H1702 H 0.6162 0.73669 0.09078 0.0
H1703 H 0.68257 0.76155 0.09504 0.0
H1704 H 0.65616 0.79727 0.97207 0.0
H1705 H 0.66046 0.78416 0.05292 0.0
H1706 H 0.62693 0.73716 1.00769 0.0
H1707 H 0.62308 0.75023 0.92725 0.0
C1708 C 0.63673 0.73062 0.15298 0.0
C1709 C 0.65745 0.73328 0.17737 0.0
C1710 C 0.63244 0.73905 0.10805 0.0
C1711 C 0.64865 0.75054 0.08609 0.0
C1712 C 0.66938 0.75315 0.11072 0.0
C1713 C 0.67371 0.74464 0.15542 0.0
C1714 C 0.64958 0.78423 0.97953 0.0
C1715 C 0.63968 0.7748 0.94255 0.0
C1716 C 0.65212 0.77659 0.026 0.0
C1717 C 0.64433 0.75937 0.0374 0.0
C1718 C 0.63307 0.75043 1.00102 0.0
C1719 C 0.63083 0.75799 0.95453 0.0
H1720 H 0.55253 0.45708 0.37049 0.0
H1721 H 0.49094 0.47985 0.42621 0.0
H1722 H 0.53559 0.457 0.29125 0.0
H1723 H 0.47322 0.47888 0.34715 0.0
H1724 H 0.45322 0.48751 0.19012 0.0
H1725 H 0.47155 0.49022 0.26799 0.0
H1726 H 0.50906 0.44229 0.24609 0.0
H1727 H 0.49158 0.44028 0.16746 0.0
C1728 C 0.53526 0.462 0.36578 0.0
C1729 C 0.52307 0.46842 0.40466 0.0
C1730 C 0.52538 0.46179 0.32027 0.0
C1731 C 0.50279 0.4677 0.31234 0.0
C1732 C 0.49069 0.47437 0.35137 0.0
C1733 C 0.50077 0.47482 0.39691 0.0
C1734 C 0.46545 0.47761 0.20211 0.0
C1735 C 0.47089 0.46361 0.17289 0.0
C1736 C 0.47591 0.47909 0.24691 0.0
C1737 C 0.49187 0.46647 0.26396 0.0
C1738 C 0.49725 0.45249 0.23429 0.0
C1739 C 0.48708 0.45121 0.18921 0.0
H1740 H 0.8482 0.26 0.66015 0.0
H1741 H 0.77637 0.27115 0.64058 0.0
H1742 H 0.84845 0.24422 0.58518 0.0
H1743 H 0.77639 0.25535 0.56712 0.0
H1744 H 0.77593 0.21398 0.45732 0.0
H1745 H 0.77816 0.22762 0.53417 0.0
H1746 H 0.84586 0.24695 0.4988 0.0
H1747 H 0.844 0.23227 0.42239 0.0
C1748 C 0.83249 0.25912 0.63984 0.0
C1749 C 0.81228 0.26689 0.65648 0.0
C1750 C 0.83261 0.25012 0.59664 0.0
C1751 C 0.81245 0.24842 0.56929 0.0
C1752 C 0.79231 0.25619 0.58654 0.0
C1753 C 0.79228 0.26536 0.629 0.0
C1754 C 0.79152 0.2208 0.46617 0.0
C1755 C 0.8099 0.22176 0.43362 0.0
C1756 C 0.7927 0.22891 0.51029 0.0
C1757 C 0.81211 0.23869 0.52318 0.0
C1758 C 0.83067 0.23947 0.49075 0.0
C1759 C 0.82958 0.23112 0.44666 0.0
H1760 H 0.02898 0.52901 0.58904 0.0
H1761 H 0.02118 0.58513 0.59273 0.0
H1762 H 0.01143 0.5293 0.50981 0.0
H1763 H 0.00338 0.58553 0.51346 0.0
H1764 H 0.95258 0.57621 0.38865 0.0
H1765 H 0.96909 0.57639 0.46929 0.0
H1766 H 0.02038 0.53914 0.42776 0.0
H1767 H 0.00389 0.53896 0.34783 0.0
C1768 C 0.02386 0.54146 0.57254 0.0
C1769 C 0.02709 0.55709 0.59662 0.0
C1770 C 0.01366 0.54164 0.52714 0.0
C1771 C 0.00617 0.55748 0.50469 0.0
C1772 C 0.00881 0.57307 0.52954 0.0
C1773 C 0.01911 0.57286 0.57492 0.0
C1774 C 0.96745 0.56817 0.39679 0.0
C1775 C 0.97694 0.55763 0.36174 0.0
C1776 C 0.97697 0.56828 0.44298 0.0
C1777 C -0.00394 0.5577 0.45535 0.0
C1778 C 0.00552 0.54726 0.41999 0.0
C1779 C -0.00385 0.54726 0.37391 0.0
H1780 H 0.14294 0.27688 0.14166 0.0
H1781 H 0.19887 0.2438 0.1892 0.0
H1782 H 0.14458 0.26404 0.0628 0.0
H1783 H 0.19982 0.23024 0.11216 0.0
H1784 H 0.21366 0.2203 0.95673 0.0
H1785 H 0.21077 0.23313 0.03444 0.0
H1786 H 0.13816 0.24104 1.01247 0.0
H1787 H 0.14149 0.22858 0.93342 0.0
C1788 C 0.15539 0.26669 0.13547 0.0
C1789 C 0.17082 0.26145 0.17186 0.0
C1790 C 0.1563 0.25919 0.09014 0.0
C1791 C 0.17249 0.24603 0.07996 0.0
C1792 C 0.18749 0.24059 0.11721 0.0
C1793 C 0.1868 0.24828 0.16201 0.0
C1794 C 0.197 0.22463 0.96858 0.0
C1795 C 0.17777 0.2232 0.93876 0.0
C1796 C 0.19525 0.23198 1.0137 0.0
C1797 C 0.17413 0.23818 0.03101 0.0
C1798 C 0.15484 0.23675 1.00086 0.0
C1799 C 0.15667 0.22944 0.95541 0.0
H1800 H 0.48404 0.49097 0.91011 0.0
H1801 H 0.46185 0.43786 0.88926 0.0
H1802 H 0.50199 0.49191 0.83094 0.0
H1803 H 0.48056 0.43835 0.81163 0.0
H1804 H 0.49692 0.44823 0.65574 0.0
H1805 H 0.47826 0.44905 0.73331 0.0
H1806 H 0.53253 0.4822 0.78374 0.0
H1807 H 0.5502 0.48234 0.70458 0.0
C1808 C 0.48315 0.47945 0.88871 0.0
C1809 C 0.47148 0.46435 0.90591 0.0
C1810 C 0.49359 0.47991 0.84335 0.0
C1811 C 0.49282 0.46521 0.81425 0.0
C1812 C 0.48121 0.4501 0.83205 0.0
C1813 C 0.47058 0.44974 0.87695 0.0
C1814 C 0.50489 0.45566 0.68343 0.0
C1815 C 0.52536 0.46485 0.67424 0.0
C1816 C 0.49427 0.45604 0.72828 0.0
C1817 C 0.50395 0.46544 0.7657 0.0
C1818 C 0.52438 0.47484 0.75616 0.0
C1819 C 0.5348 0.47469 0.71088 0.0
H1820 H 0.30841 0.7747 0.4362 0.0
H1821 H 0.38185 0.77063 0.42522 0.0
H1822 H 0.30953 0.76189 0.51611 0.0
H1823 H 0.38321 0.75789 0.50736 0.0
H1824 H 0.37331 0.71964 0.64138 0.0
H1825 H 0.37506 0.73313 0.56024 0.0
H1826 H 0.31816 0.76664 0.59446 0.0
H1827 H 0.3159 0.75266 0.6736 0.0
C1828 C 0.32499 0.7714 0.45117 0.0
C1829 C 0.34507 0.77405 0.42401 0.0
C1830 C 0.32566 0.76402 0.4977 0.0
C1831 C 0.3465 0.75891 0.51938 0.0
C1832 C 0.36675 0.76148 0.49219 0.0
C1833 C 0.36604 0.76895 0.44513 0.0
C1834 C 0.3612 0.72987 0.63131 0.0
C1835 C 0.34432 0.73493 0.66399 0.0
C1836 C 0.36227 0.73774 0.58478 0.0
C1837 C 0.34659 0.75097 0.56982 0.0
C1838 C 0.3302 0.75623 0.60343 0.0
C1839 C 0.32898 0.74827 0.64935 0.0
H1840 H 0.0076 0.41381 0.17605 0.0
H1841 H 0.04716 0.45811 0.21913 0.0
H1842 H 0.98884 0.41226 0.25486 0.0
H1843 H 0.0288 0.4567 0.29727 0.0
H1844 H 0.0089 0.43977 0.44859 0.0
H1845 H 0.02715 0.43888 0.3704 0.0
H1846 H 0.96164 0.4285 0.30585 0.0
H1847 H 0.94335 0.42921 0.38489 0.0
C1848 C 0.01246 0.42311 0.20249 0.0
C1849 C 0.02898 0.43608 0.19134 0.0
C1850 C 0.00156 0.42235 0.24755 0.0
C1851 C 0.00727 0.43432 0.2829 0.0
C1852 C 0.02409 0.44707 0.27159 0.0
C1853 C 0.03457 0.448 0.22649 0.0
C1854 C -0.00164 0.43713 0.41785 0.0
C1855 C 0.97464 0.4345 0.4232 0.0
C1856 C 0.00883 0.43675 0.37276 0.0
C1857 C -0.00405 0.4337 0.33135 0.0
C1858 C 0.97222 0.4307 0.33681 0.0
C1859 C 0.96169 0.43115 0.38214 0.0
H1860 H 0.30007 0.24614 0.09609 0.0
H1861 H 0.30609 0.29718 0.15616 0.0
H1862 H 0.30135 0.23237 0.17683 0.0
H1863 H 0.3071 0.28353 0.23657 0.0
H1864 H 0.28418 0.25329 0.37526 0.0
H1865 H 0.2818 0.26661 0.29435 0.0
H1866 H 0.32989 0.2284 0.24465 0.0
H1867 H 0.33266 0.21539 0.32579 0.0
C1868 C 0.30163 0.25441 0.12651 0.0
C1869 C 0.30308 0.27275 0.11967 0.0
C1870 C 0.30245 0.24653 0.17277 0.0
C1871 C 0.30436 0.25683 0.21335 0.0
C1872 C 0.30544 0.27519 0.20632 0.0
C1873 C 0.30498 0.28302 0.16014 0.0
C1874 C 0.29429 0.24778 0.34708 0.0
C1875 C 0.30837 0.23313 0.35691 0.0
C1876 C 0.29295 0.25542 0.30067 0.0
C1877 C 0.30554 0.24853 0.26275 0.0
C1878 C 0.3197 0.23391 0.27272 0.0
C1879 C 0.32132 0.22646 0.31928 0.0
H1880 H 0.55608 0.55701 0.04354 0.0
H1881 H 0.49186 0.57588 0.09659 0.0
H1882 H 0.53886 0.55326 0.96509 0.0
H1883 H 0.47437 0.57212 1.01913 0.0
H1884 H 0.49604 0.52942 0.84668 0.0
H1885 H 0.51496 0.5358 0.92185 0.0
H1886 H 0.46784 0.57873 0.94099 0.0
H1887 H 0.44829 0.5715 0.8676 0.0
C1888 C 0.5383 0.56043 0.03835 0.0
C1889 C 0.52528 0.56629 0.07683 0.0
C1890 C 0.52823 0.55815 0.99331 0.0
C1891 C 0.50482 0.56191 0.98513 0.0
C1892 C 0.49237 0.56906 0.023 0.0
C1893 C 0.50242 0.57117 0.06798 0.0
C1894 C 0.48974 0.54019 0.86716 0.0
C1895 C 0.47061 0.54993 0.85111 0.0
C1896 C 0.50076 0.54402 0.91028 0.0
C1897 C 0.49326 0.55794 0.93832 0.0
C1898 C 0.47413 0.56771 0.92161 0.0
C1899 C 0.46289 0.56365 0.87905 0.0
H1900 H 0.14449 0.80327 0.7906 0.0
H1901 H 0.14831 0.74893 0.83882 0.0
H1902 H 0.14565 0.79424 0.70699 0.0
H1903 H 0.14777 0.73996 0.75625 0.0
H1904 H 0.19353 0.76175 0.593 0.0
H1905 H 0.18291 0.77508 0.668 0.0
H1906 H 0.12095 0.74422 0.67399 0.0
H1907 H 0.13124 0.73119 0.598 0.0
C1908 C 0.14553 0.78946 0.78325 0.0
C1909 C 0.1475 0.77687 0.82088 0.0
C1910 C 0.14584 0.78431 0.73571 0.0
C1911 C 0.14704 0.76643 0.7255 0.0
C1912 C 0.14683 0.75382 0.76328 0.0
C1913 C 0.14717 0.75899 0.81051 0.0
C1914 C 0.1774 0.75811 0.60981 0.0
C1915 C 0.16321 0.74542 0.59 0.0
C1916 C 0.17126 0.76584 0.65241 0.0
C1917 C 0.15106 0.76074 0.67635 0.0
C1918 C 0.13651 0.74844 0.65582 0.0
C1919 C 0.1424 0.741 0.61256 0.0
H1920 H 0.44866 0.95722 0.22295 0.0
H1921 H 0.49158 0.91609 0.17163 0.0
H1922 H 0.46809 0.9553 0.30019 0.0
H1923 H 0.51134 0.91412 0.24927 0.0
H1924 H 0.48941 0.93351 0.44808 0.0
H1925 H 0.4712 0.93388 0.36968 0.0
H1926 H 0.5376 0.93241 0.30227 0.0
H1927 H 0.55598 0.93215 0.38146 0.0
C1928 C 0.46228 0.94776 0.2282 0.0
C1929 C 0.46845 0.9368 0.19113 0.0
C1930 C 0.47338 0.94656 0.27266 0.0
C1931 C 0.49132 0.9345 0.2813 0.0
C1932 C 0.49769 0.92361 0.24396 0.0
C1933 C 0.48622 0.92461 0.19961 0.0
C1934 C 0.5002 0.93308 0.41666 0.0
C1935 C 0.5242 0.93271 0.42127 0.0
C1936 C 0.48972 0.93342 0.37154 0.0
C1937 C 0.50286 0.93326 0.32938 0.0
C1938 C 0.52691 0.9324 0.3339 0.0
C1939 C 0.53746 0.93225 0.37929 0.0
H1940 H 0.27989 0.22531 0.64393 0.0
H1941 H 0.3485 0.24463 0.61963 0.0
H1942 H 0.27822 0.24042 0.71932 0.0
H1943 H 0.34697 0.25966 0.69565 0.0
H1944 H 0.34299 0.26689 0.86111 0.0
H1945 H 0.34515 0.25258 0.78433 0.0
H1946 H 0.27707 0.27099 0.74958 0.0
H1947 H 0.27509 0.28546 0.82614 0.0
C1948 C 0.29468 0.23277 0.65472 0.0
C1949 C 0.31435 0.23373 0.62556 0.0
C1950 C 0.29365 0.24154 0.69793 0.0
C1951 C 0.31241 0.25137 0.71381 0.0
C1952 C 0.33223 0.25215 0.68486 0.0
C1953 C 0.33311 0.24358 0.64116 0.0
C1954 C 0.32855 0.26798 0.83692 0.0
C1955 C 0.30894 0.27743 0.84977 0.0
C1956 C 0.32981 0.25982 0.79275 0.0
C1957 C 0.31131 0.26058 0.76043 0.0
C1958 C 0.29163 0.27 0.77348 0.0
C1959 C 0.29053 0.27841 0.81732 0.0
H1960 H 0.94291 0.02297 0.06952 0.0
H1961 H 0.99123 0.06143 0.11604 0.0
H1962 H 0.96044 0.0237 0.99089 0.0
H1963 H 0.01045 0.06106 0.03876 0.0
H1964 H 0.03155 0.06796 0.88254 0.0
H1965 H 0.01222 0.0688 0.95967 0.0
H1966 H 0.98946 0.01531 0.94399 0.0
H1967 H 0.00747 0.01523 0.86555 0.0
C1968 C 0.95722 0.03173 0.06279 0.0
C1969 C 0.96518 0.04251 0.09884 0.0
C1970 C 0.96773 0.0319 1.01763 0.0
C1971 C 0.98717 0.04244 1.00734 0.0
C1972 C 0.99529 0.05306 0.04402 0.0
C1973 C 0.98436 0.05318 0.08885 0.0
C1974 C 0.02227 0.05644 0.89563 0.0
C1975 C 0.02094 0.04154 0.86776 0.0
C1976 C 0.01128 0.05681 0.94034 0.0
C1977 C -0.00102 0.04213 0.95914 0.0
C1978 C -0.00192 0.02712 0.9311 0.0
C1979 C 0.00865 0.02694 0.88599 0.0
H1980 H 0.20788 0.77927 0.10441 0.0
H1981 H 0.14368 0.7521 0.08815 0.0
H1982 H 0.21169 0.76675 0.18509 0.0
H1983 H 0.14701 0.73989 0.17025 0.0
H1984 H 0.16952 0.70929 0.30722 0.0
H1985 H 0.16718 0.71973 0.22347 0.0
H1986 H 0.19633 0.76936 0.26192 0.0
H1987 H 0.19976 0.75852 0.34435 0.0
C1988 C 0.19443 0.7707 0.11832 0.0
C1989 C 0.17539 0.76677 0.08998 0.0
C1990 C 0.19656 0.76355 0.16485 0.0
C1991 C 0.17959 0.75235 0.18477 0.0
C1992 C 0.16056 0.7483 0.15615 0.0
C1993 C 0.15851 0.75541 0.10923 0.0
C1994 C 0.17598 0.72222 0.29736 0.0
C1995 C 0.18528 0.73292 0.33221 0.0
C1996 C 0.17425 0.72837 0.24948 0.0
C1997 C 0.18161 0.74544 0.2355 0.0
C1998 C 0.19087 0.75606 0.27074 0.0
C1999 C 0.1927 0.74988 0.31827 0.0
H2000 H 0.49778 0.0421 0.33946 0.0
H2001 H 0.55269 0.07499 0.38716 0.0
H2002 H 0.48096 0.04156 0.41928 0.0
H2003 H 0.53594 0.07438 0.46759 0.0
H2004 H 0.48596 0.08374 0.59249 0.0
H2005 H 0.50306 0.08468 0.51269 0.0
H2006 H 0.48792 0.0296 0.50001 0.0
H2007 H 0.4712 0.02874 0.58018 0.0
C2008 C 0.50623 0.0493 0.36703 0.0
C2009 C 0.52653 0.05868 0.35684 0.0
C2010 C 0.49667 0.04886 0.41302 0.0
C2011 C 0.50707 0.05787 0.45023 0.0
C2012 C 0.52729 0.06743 0.43983 0.0
C2013 C 0.53694 0.06777 0.39375 0.0
C2014 C 0.4863 0.07183 0.57261 0.0
C2015 C 0.47668 0.05625 0.59222 0.0
C2016 C 0.49621 0.07235 0.52688 0.0
C2017 C 0.4968 0.05726 0.49945 0.0
C2018 C 0.48738 0.04159 0.51947 0.0
C2019 C 0.4776 0.04109 0.56536 0.0
H2020 H 0.16803 0.29682 0.47089 0.0
H2021 H 0.13428 0.25049 0.4235 0.0
H2022 H 0.17385 0.28275 0.54953 0.0
H2023 H 0.13808 0.23678 0.50287 0.0
H2024 H 0.16944 0.20739 0.63146 0.0
H2025 H 0.16136 0.22234 0.55503 0.0
H2026 H 0.16381 0.27227 0.62317 0.0
H2027 H 0.17302 0.2571 0.69897 0.0
C2028 C 0.16142 0.28372 0.47758 0.0
C2029 C 0.15129 0.27473 0.44013 0.0
C2030 C 0.16456 0.27556 0.52318 0.0
C2031 C 0.1569 0.25822 0.53363 0.0
C2032 C 0.14507 0.2498 0.49687 0.0
C2033 C 0.14247 0.25784 0.45103 0.0
C2034 C 0.16824 0.22157 0.63006 0.0
C2035 C 0.1719 0.23098 0.6716 0.0
C2036 C 0.16338 0.2303 0.58594 0.0
C2037 C 0.16175 0.24881 0.58162 0.0
C2038 C 0.16525 0.25815 0.62372 0.0
C2039 C 0.17039 0.24939 0.66774 0.0
H2040 H 0.02913 0.93238 0.92522 0.0
H2041 H 0.01478 0.9878 0.92617 0.0
H2042 H 0.01052 0.93069 0.84759 0.0
H2043 H -0.00361 0.98624 0.8476 0.0
H2044 H 0.94588 0.97427 0.72749 0.0
H2045 H 0.9637 0.97597 0.80607 0.0
H2046 H 0.01487 0.93849 0.76507 0.0
H2047 H -0.00371 0.93625 0.68741 0.0
C2048 C 0.02206 0.94425 0.90868 0.0
C2049 C 0.02343 0.96023 0.93196 0.0
C2050 C 0.01148 0.94332 0.86385 0.0
C2051 C 0.00196 0.95836 0.84076 0.0
C2052 C 0.0033 0.97436 0.86429 0.0
C2053 C 0.01392 0.97529 0.90925 0.0
C2054 C 0.96068 0.96615 0.73562 0.0
C2055 C 0.96933 0.9548 0.7015 0.0
C2056 C 0.97115 0.96731 0.78057 0.0
C2057 C 0.99076 0.95729 0.79253 0.0
C2058 C -0.00043 0.94616 0.75788 0.0
C2059 C 0.98899 0.94493 0.71309 0.0
H2060 H 0.35342 0.78405 0.11056 0.0
H2061 H 0.3598 0.73492 0.1908 0.0
H2062 H 0.35871 0.76888 0.03621 0.0
H2063 H 0.36591 0.71966 0.11658 0.0
H2064 H 0.3487 0.69585 0.97025 0.0
H2065 H 0.3476 0.7097 0.04761 0.0
H2066 H 0.38409 0.75441 0.98594 0.0
H2067 H 0.38375 0.74092 0.9085 0.0
C2068 C 0.35641 0.77002 0.11239 0.0
C2069 C 0.35634 0.76075 0.15678 0.0
C2070 C 0.35956 0.76125 0.06958 0.0
C2071 C 0.3629 0.7429 0.06974 0.0
C2072 C 0.36315 0.7337 0.11446 0.0
C2073 C 0.35985 0.74249 0.15726 0.0
C2074 C 0.35643 0.70861 0.9734 0.0
C2075 C 0.36566 0.71741 0.93277 0.0
C2076 C 0.35607 0.71656 1.01799 0.0
C2077 C 0.36536 0.73348 0.02346 0.0
C2078 C 0.37616 0.74164 0.98336 0.0
C2079 C 0.3763 0.73375 0.93883 0.0
H2080 H 0.45176 0.07798 0.88779 0.0
H2081 H 0.5044 0.04347 0.83797 0.0
H2082 H 0.46824 0.07585 0.96837 0.0
H2083 H 0.52093 0.04138 0.91801 0.0
H2084 H 0.52895 0.02645 0.07865 0.0
H2085 H 0.51281 0.02886 0.99799 0.0
H2086 H 0.50174 0.0843 1.01456 0.0
H2087 H 0.51827 0.08182 0.0947 0.0
C2088 C 0.46697 0.07009 0.89394 0.0
C2089 C 0.47682 0.06099 0.85637 0.0
C2090 C 0.47647 0.06886 0.94013 0.0
C2091 C 0.49595 0.05838 0.95 0.0
C2092 C 0.5058 0.04938 0.91214 0.0
C2093 C 0.49641 0.05071 0.86604 0.0
C2094 C 0.52358 0.0392 0.06458 0.0
C2095 C 0.52543 0.054 0.09266 0.0
C2096 C 0.51413 0.04059 1.01842 0.0
C2097 C 0.50598 0.05682 0.99938 0.0
C2098 C 0.50758 0.07156 0.02797 0.0
C2099 C 0.51715 0.07016 0.07393 0.0
H2100 H 0.62638 0.73893 0.42656 0.0
H2101 H 0.6657 0.69515 0.48275 0.0
H2102 H 0.62654 0.75188 0.50484 0.0
H2103 H 0.66635 0.70816 0.56139 0.0
H2104 H 0.68805 0.74727 0.67551 0.0
H2105 H 0.6841 0.73241 0.60024 0.0
H2106 H 0.61457 0.75119 0.58716 0.0
H2107 H 0.61875 0.76625 0.66255 0.0
C2108 C 0.63479 0.73186 0.45587 0.0
C2109 C 0.6465 0.71607 0.44776 0.0
C2110 C 0.63486 0.73933 0.50111 0.0
C2111 C 0.64677 0.73134 0.53998 0.0
C2112 C 0.65745 0.71504 0.53241 0.0
C2113 C 0.65707 0.70747 0.4872 0.0
C2114 C 0.67186 0.74821 0.65671 0.0
C2115 C 0.65371 0.75799 0.67543 0.0
C2116 C 0.66951 0.73951 0.61349 0.0
C2117 C 0.64892 0.74033 0.58716 0.0
C2118 C 0.63077 0.75024 0.60587 0.0
C2119 C 0.63311 0.75887 0.64935 0.0
H2120 H 0.0523 0.97554 0.23155 0.0
H2121 H -0.0002 0.941 0.18171 0.0
H2122 H 0.03481 0.9748 0.31065 0.0
H2123 H 0.98101 0.94139 0.25923 0.0
H2124 H 0.96218 0.93102 0.41472 0.0
H2125 H 0.98108 0.93127 0.33716 0.0
H2126 H 0.00578 0.98382 0.3594 0.0
H2127 H 0.98786 0.98291 0.43837 0.0
C2128 C 0.03714 0.96761 0.23766 0.0
C2129 C 0.02796 0.95782 0.20068 0.0
C2130 C 0.02671 0.96746 0.28298 0.0
C2131 C 0.00639 0.95787 0.29239 0.0
C2132 C -0.00307 0.94851 0.25458 0.0
C2133 C 0.00763 0.9484 0.20965 0.0
C2134 C 0.97173 0.9426 0.40303 0.0
C2135 C 0.97356 0.95694 0.4328 0.0
C2136 C 0.98247 0.94285 0.35811 0.0
C2137 C 0.99508 0.95761 0.341 0.0
C2138 C -0.0033 0.97203 0.37102 0.0
C2139 C 0.98625 0.97162 0.41635 0.0
H2140 H 0.78479 0.24761 0.90752 0.0
H2141 H 0.82731 0.28985 0.95441 0.0
H2142 H 0.78547 0.23411 0.98814 0.0
H2143 H 0.82804 0.27642 0.03524 0.0
H2144 H 0.80524 0.25589 0.18609 0.0
H2145 H 0.80484 0.26986 0.10581 0.0
H2146 H 0.81033 0.21892 0.04454 0.0
H2147 H 0.8104 0.20505 0.12472 0.0
C2148 C 0.7943 0.25403 0.93509 0.0
C2149 C 0.8058 0.26992 0.92448 0.0
C2150 C 0.7948 0.24623 0.98142 0.0
C2151 C 0.80685 0.25408 1.01868 0.0
C2152 C 0.81834 0.27003 1.00793 0.0
C2153 C 0.81795 0.27776 0.96146 0.0
C2154 C 0.80656 0.2477 0.15544 0.0
C2155 C 0.80802 0.22935 0.16192 0.0
C2156 C 0.80639 0.25572 0.10928 0.0
C2157 C 0.80752 0.24559 0.06822 0.0
C2158 C 0.80913 0.22721 0.07498 0.0
C2159 C 0.8094 0.21922 0.12109 0.0
H2160 H 0.50096 0.91573 0.6726 0.0
H2161 H 0.54543 0.95632 0.72163 0.0
H2162 H 0.48114 0.91476 0.7503 0.0
H2163 H 0.52596 0.95538 0.79891 0.0
H2164 H 0.50388 0.93513 0.94795 0.0
H2165 H 0.52205 0.93468 0.86955 0.0
H2166 H 0.45558 0.93382 0.80249 0.0
H2167 H 0.43725 0.93439 0.88171 0.0
C2168 C 0.50664 0.92434 0.70009 0.0
C2169 C 0.52487 0.9361 0.69092 0.0
C2170 C 0.49514 0.92391 0.74448 0.0
C2171 C 0.50193 0.93495 0.78122 0.0
C2172 C 0.52033 0.94655 0.77189 0.0
C2173 C 0.53146 0.9472 0.72738 0.0
C2174 C 0.49306 0.93468 0.91661 0.0
C2175 C 0.46905 0.93471 0.92136 0.0
C2176 C 0.50352 0.93455 0.87147 0.0
C2177 C 0.49036 0.93429 0.82938 0.0
C2178 C 0.46629 0.93387 0.83405 0.0
C2179 C 0.45576 0.93421 0.87946 0.0
H2180 H 0.77419 0.77665 0.64248 0.0
H2181 H 0.84372 0.76053 0.61625 0.0
H2182 H 0.77537 0.76235 0.72139 0.0
H2183 H 0.84536 0.74658 0.69671 0.0
H2184 H 0.78943 0.75053 0.87749 0.0
H2185 H 0.79026 0.76476 0.79817 0.0
H2186 H 0.83235 0.72271 0.74756 0.0
H2187 H 0.83229 0.70893 0.82808 0.0
C2188 C 0.78987 0.77014 0.6538 0.0
C2189 C 0.80888 0.76976 0.62299 0.0
C2190 C 0.79063 0.762 0.69946 0.0
C2191 C 0.81053 0.75332 0.71619 0.0
C2192 C 0.82962 0.75294 0.6852 0.0
C2193 C 0.82879 0.76105 0.63914 0.0
C2194 C 0.79889 0.74433 0.84944 0.0
C2195 C 0.81042 0.72842 0.85897 0.0
C2196 C 0.79924 0.75243 0.80363 0.0
C2197 C 0.81112 0.74486 0.76569 0.0
C2198 C 0.82311 0.72908 0.7756 0.0
C2199 C 0.82285 0.72102 0.82169 0.0
H2200 H 0.04848 0.02337 0.5717 0.0
H2201 H -0.00031 0.06236 0.61319 0.0
H2202 H 0.03082 0.02261 0.49299 0.0
H2203 H 0.98095 0.06089 0.53538 0.0
H2204 H 0.96488 0.06661 0.37524 0.0
H2205 H 0.9837 0.06832 0.45285 0.0
H2206 H -0.0014 0.01287 0.45164 0.0
H2207 H 0.98026 0.01137 0.37336 0.0
C2208 C 0.03407 0.03192 0.56386 0.0
C2209 C 0.02586 0.04322 0.59851 0.0
C2210 C 0.02363 0.03129 0.51877 0.0
C2211 C 0.00431 0.0417 0.50716 0.0
C2212 C -0.004 0.0529 0.54222 0.0
C2213 C 0.00666 0.05368 0.58714 0.0
C2214 C 0.97223 0.05479 0.39154 0.0
C2215 C 0.97115 0.03887 0.36795 0.0
C2216 C 0.98292 0.05572 0.43637 0.0
C2217 C 0.9928 0.04073 0.4591 0.0
C2218 C 0.99158 0.02478 0.43529 0.0
C2219 C 0.98095 0.02387 0.3904 0.0
H2220 H 0.63329 0.23294 0.13458 0.0
H2221 H 0.68905 0.26584 0.08459 0.0
H2222 H 0.63811 0.24369 0.21512 0.0
H2223 H 0.69339 0.27723 0.16424 0.0
H2224 H 0.71072 0.28341 0.32177 0.0
H2225 H 0.70617 0.27192 0.24203 0.0
H2226 H 0.63336 0.26648 0.26675 0.0
H2227 H 0.63831 0.27732 0.34695 0.0
C2228 C 0.64638 0.24267 0.14065 0.0
C2229 C 0.66069 0.24855 0.10292 0.0
C2230 C 0.64915 0.24895 0.18701 0.0
C2231 C 0.66623 0.26145 0.19711 0.0
C2232 C 0.68034 0.26742 0.15886 0.0
C2233 C 0.67769 0.261 0.11273 0.0
C2234 C 0.69374 0.2798 0.31 0.0
C2235 C 0.67484 0.28148 0.34066 0.0
C2236 C 0.69104 0.27324 0.26397 0.0
C2237 C 0.66929 0.26823 0.24692 0.0
C2238 C 0.65046 0.26985 0.27812 0.0
C2239 C 0.65323 0.27623 0.32427 0.0
H2240 H 0.09608 0.55321 0.80758 0.0
H2241 H 0.12548 0.50646 0.75161 0.0
H2242 H 0.09118 0.53811 0.88517 0.0
H2243 H 0.1225 0.49164 0.82991 0.0
H2244 H 0.09067 0.46344 0.96257 0.0
H2245 H 0.09703 0.47804 0.8842 0.0
H2246 H 0.10833 0.52708 0.95315 0.0
H2247 H 0.09996 0.51292 0.02946 0.0
C2248 C 0.10177 0.53978 0.81218 0.0
C2249 C 0.11058 0.53098 0.77325 0.0
C2250 C 0.09927 0.53107 0.85688 0.0
C2251 C 0.10624 0.51342 0.86424 0.0
C2252 C 0.11637 0.505 0.82571 0.0
C2253 C 0.11848 0.51365 0.78087 0.0
C2254 C 0.09398 0.47734 0.96065 0.0
C2255 C 0.09394 0.48701 1.00226 0.0
C2256 C 0.09808 0.48576 0.91575 0.0
C2257 C 0.10283 0.50396 0.91175 0.0
C2258 C 0.10395 0.51327 0.95397 0.0
C2259 C 0.09937 0.505 0.99819 0.0
H2260 H 0.70354 0.84224 0.02809 0.0
H2261 H 0.72886 0.78921 0.02862 0.0
H2262 H 0.72267 0.84662 0.1047 0.0
H2263 H 0.74637 0.79284 0.10584 0.0
H2264 H 0.79229 0.80412 0.22694 0.0
H2265 H 0.77539 0.80306 0.14803 0.0
H2266 H 0.72656 0.8429 0.18578 0.0
H2267 H 0.74509 0.84478 0.26384 0.0
C2268 C 0.71297 0.83145 0.04489 0.0
C2269 C 0.71488 0.81545 1.02185 0.0
C2270 C 0.72394 0.83388 0.0892 0.0
C2271 C 0.73672 0.82023 0.1123 0.0
C2272 C 0.73772 0.80406 0.0894 0.0
C2273 C 0.72733 0.80183 0.04489 0.0
C2274 C 0.77822 0.81291 0.21798 0.0
C2275 C 0.7702 0.82461 0.25168 0.0
C2276 C 0.7681 0.81211 0.17265 0.0
C2277 C 0.74889 0.82254 0.15971 0.0
C2278 C 0.74129 0.83466 0.19333 0.0
C2279 C 0.75194 0.83579 0.23844 0.0
H2280 H 0.36392 0.49591 0.5155 0.0
H2281 H 0.41973 0.52921 0.46738 0.0
H2282 H 0.36392 0.48168 0.43828 0.0
H2283 H 0.42018 0.51469 0.39087 0.0
H2284 H 0.43284 0.46866 0.29034 0.0
H2285 H 0.43009 0.4832 0.36641 0.0
H2286 H 0.35716 0.48885 0.34696 0.0
H2287 H 0.36004 0.47471 0.2697 0.0
C2288 C 0.37599 0.50034 0.48822 0.0
C2289 C 0.39174 0.51376 0.49756 0.0
C2290 C 0.37601 0.49217 0.444 0.0
C2291 C 0.39216 0.49693 0.40844 0.0
C2292 C 0.40764 0.51058 0.41756 0.0
C2293 C 0.40727 0.519 0.46132 0.0
C2294 C 0.41618 0.47291 0.30229 0.0
C2295 C 0.39667 0.47054 0.27374 0.0
C2296 C 0.41463 0.48135 0.34583 0.0
C2297 C 0.39345 0.48738 0.36265 0.0
C2298 C 0.37374 0.48437 0.33509 0.0
C2299 C 0.37537 0.47622 0.2909 0.0
H2300 H 0.78319 0.17716 0.55446 0.0
H2301 H 0.71513 0.17011 0.49873 0.0
H2302 H 0.76747 0.17921 0.63484 0.0
H2303 H 0.69914 0.17297 0.57852 0.0
H2304 H 0.67657 0.1686 0.7351 0.0
H2305 H 0.69299 0.16203 0.6571 0.0
H2306 H 0.74779 0.19885 0.68087 0.0
H2307 H 0.73197 0.20466 0.75877 0.0
C2308 C 0.76486 0.1759 0.55949 0.0
C2309 C 0.75044 0.17342 0.52021 0.0
C2310 C 0.75573 0.17729 0.6056 0.0
C2311 C 0.73186 0.17652 0.61368 0.0
C2312 C 0.71756 0.17346 0.57432 0.0
C2313 C 0.72674 0.17187 0.52831 0.0
C2314 C 0.69221 0.17514 0.72358 0.0
C2315 C 0.70302 0.18706 0.75326 0.0
C2316 C 0.70161 0.17148 0.67869 0.0
C2317 C 0.72195 0.17979 0.66222 0.0
C2318 C 0.73253 0.19178 0.69224 0.0
C2319 C 0.72329 0.19526 0.73703 0.0
H2320 H 0.90906 0.45723 0.46318 0.0
H2321 H 0.89224 0.50535 0.5313 0.0
H2322 H 0.90701 0.4729 0.38466 0.0
H2323 H 0.88972 0.52067 0.45431 0.0
H2324 H 0.91058 0.54799 0.31231 0.0
H2325 H 0.91318 0.53189 0.38954 0.0
H2326 H 0.87971 0.48741 0.3289 0.0
H2327 H 0.8777 0.50337 0.25194 0.0
C2328 C 0.90501 0.47106 0.46153 0.0
C2329 C 0.9011 0.47997 0.50377 0.0
C2330 C 0.90364 0.48007 0.41655 0.0
C2331 C 0.8984 0.4982 0.41293 0.0
C2332 C 0.89425 0.50689 0.45533 0.0
C2333 C 0.89552 0.49796 0.49976 0.0
C2334 C 0.9038 0.53482 0.3156 0.0
C2335 C 0.89433 0.52697 0.27564 0.0
C2336 C 0.90516 0.52554 0.35993 0.0
C2337 C 0.89693 0.50815 0.36558 0.0
C2338 C 0.88668 0.50057 0.32592 0.0
C2339 C 0.88522 0.50989 0.28183 0.0
H2340 H 0.20959 0.1913 0.06132 0.0
H2341 H 0.26464 0.15931 1.0104 0.0
H2342 H 0.2278 0.19174 0.1399 0.0
H2343 H 0.28305 0.15981 0.08892 0.0
H2344 H 0.29915 0.15258 0.25249 0.0
H2345 H 0.28107 0.15026 0.17361 0.0
H2346 H 0.26076 0.20464 0.17673 0.0
H2347 H 0.27845 0.20683 0.25487 0.0
C2348 C 0.22546 0.18418 0.06705 0.0
C2349 C 0.23556 0.17521 0.0295 0.0
C2350 C 0.23609 0.18456 0.1121 0.0
C2351 C 0.25711 0.1759 0.12112 0.0
C2352 C 0.26685 0.16652 0.08377 0.0
C2353 C 0.25629 0.16626 0.03858 0.0
C2354 C 0.291 0.16404 0.23601 0.0
C2355 C 0.29023 0.17985 0.26023 0.0
C2356 C 0.2806 0.16274 0.19074 0.0
C2357 C 0.26905 0.17719 0.16868 0.0
C2358 C 0.26891 0.19308 0.19268 0.0
C2359 C 0.2793 0.19438 0.23754 0.0
H2360 H 0.62147 0.50039 0.74632 0.0
H2361 H 0.58533 0.4541 0.79771 0.0
H2362 H 0.61827 0.51286 0.82465 0.0
H2363 H 0.5836 0.46577 0.87735 0.0
H2364 H 0.55872 0.49788 0.99857 0.0
H2365 H 0.5647 0.48512 0.92169 0.0
H2366 H 0.62717 0.51526 0.90327 0.0
H2367 H 0.61985 0.52905 0.97928 0.0
C2368 C 0.61347 0.49262 0.77494 0.0
C2369 C 0.60369 0.47624 0.76586 0.0
C2370 C 0.61164 0.49977 0.82022 0.0
C2371 C 0.60038 0.49057 0.8581 0.0
C2372 C 0.59175 0.47367 0.84927 0.0
C2373 C 0.59308 0.46675 0.80365 0.0
C2374 C 0.57373 0.50179 0.97799 0.0
C2375 C 0.58884 0.51444 0.995 0.0
C2376 C 0.57738 0.49428 0.93383 0.0
C2377 C 0.59668 0.49879 0.90565 0.0
C2378 C 0.61191 0.51149 0.92307 0.0
C2379 C 0.60786 0.51938 0.96691 0.0
H2380 H 0.24764 0.83044 0.73892 0.0
H2381 H 0.18556 0.80825 0.68426 0.0
H2382 H 0.26517 0.82942 0.65993 0.0
H2383 H 0.20328 0.80629 0.60563 0.0
H2384 H 0.23425 0.81611 0.45722 0.0
H2385 H 0.21613 0.81948 0.53493 0.0
H2386 H 0.28188 0.81217 0.60368 0.0
H2387 H 0.29993 0.8096 0.52556 0.0
C2388 C 0.23766 0.82539 0.70989 0.0
C2389 C 0.21507 0.81957 0.71813 0.0
C2390 C 0.24786 0.82456 0.66435 0.0
C2391 C 0.23595 0.81764 0.62536 0.0
C2392 C 0.21315 0.812 0.63379 0.0
C2393 C 0.20289 0.81304 0.67925 0.0
C2394 C 0.24486 0.81538 0.48895 0.0
C2395 C 0.26863 0.81273 0.48484 0.0
C2396 C 0.2344 0.81714 0.53394 0.0
C2397 C 0.24729 0.81612 0.57669 0.0
C2398 C 0.27116 0.81344 0.57224 0.0
C2399 C 0.28163 0.81186 0.52716 0.0
H2400 H 0.58148 0.96295 0.45668 0.0
H2401 H 0.60088 0.01051 0.52488 0.0
H2402 H 0.58947 0.97731 0.37827 0.0
H2403 H 0.60961 0.02443 0.44817 0.0
H2404 H 0.62305 0.00436 0.24682 0.0
H2405 H 0.61882 0.98937 0.32487 0.0
H2406 H 0.59041 0.0367 0.38096 0.0
H2407 H 0.59578 0.0518 0.30323 0.0
C2408 C 0.58763 0.97631 0.45509 0.0
C2409 C 0.59023 0.98555 0.49715 0.0
C2410 C 0.59236 0.98457 0.41019 0.0
C2411 C 0.59994 0.0022 0.40662 0.0
C2412 C 0.60326 0.01107 0.44903 0.0
C2413 C 0.5984 0.00294 0.49334 0.0
C2414 C 0.6164 0.0117 0.27615 0.0
C2415 C 0.60925 0.02924 0.26863 0.0
C2416 C 0.6136 0.00297 0.32078 0.0
C2417 C 0.60389 0.01163 0.35932 0.0
C2418 C 0.59799 0.02951 0.35234 0.0
C2419 C 0.60085 0.03821 0.30769 0.0
H2420 H 0.2055 0.34353 0.53222 0.0
H2421 H 0.2445 0.29583 0.52326 0.0
H2422 H 0.22369 0.3492 0.60889 0.0
H2423 H 0.26151 0.30063 0.60059 0.0
H2424 H 0.3037 0.31733 0.72384 0.0
H2425 H 0.28748 0.31506 0.64424 0.0
H2426 H 0.22718 0.34296 0.68925 0.0
H2427 H 0.24436 0.34618 0.76772 0.0
C2428 C 0.2178 0.33417 0.54691 0.0
C2429 C 0.22367 0.31931 0.52141 0.0
C2430 C 0.22822 0.33733 0.59121 0.0
C2431 C 0.24448 0.32551 0.61171 0.0
C2432 C 0.2498 0.31045 0.58613 0.0
C2433 C 0.23979 0.30754 0.54164 0.0
C2434 C 0.28719 0.32329 0.7163 0.0
C2435 C 0.27546 0.33206 0.75208 0.0
C2436 C 0.27759 0.32176 0.67064 0.0
C2437 C 0.25561 0.32854 0.65954 0.0
C2438 C 0.24418 0.33771 0.69538 0.0
C2439 C 0.25403 0.33955 0.74076 0.0
H2440 H 0.87363 0.98742 0.04338 0.0
H2441 H 0.89829 0.03559 0.97551 0.0
H2442 H 0.87302 0.97363 0.96603 0.0
H2443 H 0.897 0.02184 0.8975 0.0
H2444 H 0.90886 0.95203 0.82723 0.0
H2445 H 0.90622 0.96578 0.90493 0.0
H2446 H 0.8654 0.00756 0.84104 0.0
H2447 H 0.86742 0.99357 0.76386 0.0
C2448 C 0.87853 0.99519 1.01179 0.0
C2449 C 0.88589 0.01266 1.01558 0.0
C2450 C 0.87833 0.98722 0.96754 0.0
C2451 C 0.88504 0.99661 0.92572 0.0
C2452 C 0.89164 0.0143 0.92913 0.0
C2453 C 0.89231 0.02219 0.9737 0.0
C2454 C 0.89895 0.96395 0.83003 0.0
C2455 C 0.88812 0.97158 0.78953 0.0
C2456 C 0.89751 0.97186 0.87443 0.0
C2457 C 0.88568 0.98781 0.87902 0.0
C2458 C 0.87473 0.99535 0.83856 0.0
C2459 C 0.87573 0.98724 0.79449 0.0
H2460 H 0.19643 0.68443 0.22809 0.0
H2461 H 0.26299 0.67474 0.29005 0.0
H2462 H 0.21362 0.68619 0.1483 0.0
H2463 H 0.28037 0.6769 0.21069 0.0
H2464 H 0.30408 0.66844 0.05665 0.0
H2465 H 0.28613 0.66435 0.13547 0.0
H2466 H 0.23628 0.70422 0.09666 0.0
H2467 H 0.25392 0.7079 1.01792 0.0
C2468 C 0.21472 0.68248 0.22466 0.0
C2469 C 0.22822 0.67923 0.26566 0.0
C2470 C 0.22472 0.6837 0.17876 0.0
C2471 C 0.24859 0.68177 0.17227 0.0
C2472 C 0.26197 0.67822 0.2135 0.0
C2473 C 0.25196 0.67701 0.25932 0.0
C2474 C 0.28923 0.67627 0.06496 0.0
C2475 C 0.28045 0.68845 0.03067 0.0
C2476 C 0.27894 0.67402 0.11045 0.0
C2477 C 0.25952 0.68389 0.12318 0.0
C2478 C 0.25084 0.69608 0.08855 0.0
C2479 C 0.26111 0.6983 0.0432 0.0
H2480 H 0.41238 0.96589 0.95903 0.0
H2481 H 0.3991 0.01465 0.02713 0.0
H2482 H 0.40671 0.98085 0.88054 0.0
H2483 H 0.39253 0.02921 0.9504 0.0
H2484 H 0.40817 0.05572 0.80556 0.0
H2485 H 0.4125 0.04025 0.88306 0.0
H2486 H 0.37911 0.99478 0.8272 0.0
H2487 H 0.37601 0.01004 0.74941 0.0
C2488 C 0.40816 0.97968 0.95737 0.0
C2489 C 0.40653 0.98903 0.99946 0.0
C2490 C 0.40471 0.98829 0.91244 0.0
C2491 C 0.39941 0.0064 0.90884 0.0
C2492 C 0.39716 0.01546 0.95125 0.0
C2493 C 0.40075 0.00696 0.99558 0.0
C2494 C 0.40187 0.04245 0.80998 0.0
C2495 C 0.39238 0.03403 0.77105 0.0
C2496 C 0.40411 0.03354 0.85453 0.0
C2497 C 0.39644 0.01605 0.86153 0.0
C2498 C 0.38572 0.00802 0.82309 0.0
C2499 C 0.3836 0.01693 0.77859 0.0
H2500 H 0.77617 0.64726 0.76754 0.0
H2501 H 0.78657 0.70317 0.75215 0.0
H2502 H 0.75883 0.64747 0.6872 0.0
H2503 H 0.76948 0.70345 0.67312 0.0
H2504 H 0.75771 0.69766 0.51539 0.0
H2505 H 0.7764 0.69459 0.59294 0.0
H2506 H 0.72411 0.65802 0.64139 0.0
H2507 H 0.70536 0.66106 0.56274 0.0
C2508 C 0.77507 0.65953 0.74688 0.0
C2509 C 0.78303 0.67516 0.76632 0.0
C2510 C 0.7649 0.6597 0.70096 0.0
C2511 C 0.76272 0.67548 0.67311 0.0
C2512 C 0.77107 0.69098 0.69268 0.0
C2513 C 0.78091 0.69082 0.73836 0.0
C2514 C 0.75018 0.68888 0.54239 0.0
C2515 C 0.72993 0.67966 0.53262 0.0
C2516 C 0.76089 0.68717 0.58721 0.0
C2517 C 0.75181 0.67614 0.6241 0.0
C2518 C 0.73179 0.66654 0.614 0.0
C2519 C 0.72094 0.66835 0.56893 0.0
H2520 H 0.12844 0.99915 0.26326 0.0
H2521 H 0.08931 0.95591 0.32497 0.0
H2522 H 0.12884 0.01307 0.3406 0.0
H2523 H 0.09036 0.96964 0.40291 0.0
H2524 H 0.12042 0.99295 0.54256 0.0
H2525 H 0.12245 0.979 0.46547 0.0
H2526 H 0.09549 0.02596 0.39562 0.0
H2527 H 0.09275 0.03983 0.47331 0.0
C2528 C 0.12032 0.99243 0.29358 0.0
C2529 C 0.10903 0.97632 0.28805 0.0
C2530 C 0.12038 1.00051 0.33776 0.0
C2531 C 0.10958 0.9925 0.3778 0.0
C2532 C 0.09893 0.97609 0.37273 0.0
C2533 C 0.09841 0.96819 0.3282 0.0
C2534 C 0.11514 1.0004 0.51073 0.0
C2535 C 0.10656 0.01757 0.51404 0.0
C2536 C 0.11616 0.99233 0.46663 0.0
C2537 C 0.10909 0.00134 0.42449 0.0
C2538 C 0.10117 0.01872 0.42749 0.0
C2539 C 0.09965 0.02667 0.47189 0.0
H2540 H 0.74909 0.35072 0.25937 0.0
H2541 H 0.702 0.31036 0.21889 0.0
H2542 H 0.76812 0.34944 0.18153 0.0
H2543 H 0.72066 0.30917 0.14102 0.0
H2544 H 0.77297 0.29668 0.02722 0.0
H2545 H 0.75495 0.2993 0.10502 0.0
H2546 H 0.7659 0.35535 0.09606 0.0
H2547 H 0.78442 0.35257 1.01784 0.0
C2548 C 0.74259 0.34173 0.2336 0.0
C2549 C 0.72393 0.33068 0.24553 0.0
C2550 C 0.7535 0.341 0.18875 0.0
C2551 C 0.7462 0.3291 0.15449 0.0
C2552 C 0.72719 0.31831 0.16636 0.0
C2553 C 0.71626 0.3191 0.21105 0.0
C2554 C 0.7717 0.30959 0.04187 0.0
C2555 C 0.78016 0.32442 1.01597 0.0
C2556 C 0.7611 0.31113 0.08656 0.0
C2557 C 0.7585 0.32759 0.10718 0.0
C2558 C 0.76758 0.34242 0.08181 0.0
C2559 C 0.77823 0.34086 0.03681 0.0
loop_
_geom_bond_atom_site_label_1
_geom_bond_atom_site_label_2
_geom_bond_distance
_geom_bond_site_symmetry_2
_ccdc_geom_bond_type
Tb0 O3 2.453 . S
Tb0 O4 2.596 . S
Tb0 O5 2.374 . S
Tb0 O13 2.343 . S
Tb0 O15 2.353 . S
Tb0 O17 2.427 . S
Tb0 O18 2.513 . S
C1 O5 1.251 . S
C1 O7 1.263 . S
Tb2 O4 2.343 . S
Tb2 O7 2.353 . S
Tb2 O10 2.427 . S
Tb2 O11 2.513 . S
Tb2 O12 2.453 . S
Tb2 O13 2.596 . S
Tb2 O14 2.374 . S
O3 Tb0 2.453 . S
O3 C19 1.245 . S
O4 Tb0 2.596 . S
O4 Tb2 2.343 . S
O4 C19 1.259 . S
O5 Tb0 2.374 . S
O5 C1 1.251 . S
C6 O10 1.265 1_556 S
C6 O11 1.234 1_556 S
O7 C1 1.263 . S
O7 Tb2 2.353 . S
C8 O12 1.245 . S
C8 O13 1.259 . S
C9 O14 1.250 . S
C9 O15 1.263 . S
O10 Tb2 2.427 . S
O10 C6 1.265 1_554 S
O11 Tb2 2.513 . S
O11 C6 1.234 1_554 S
O12 Tb2 2.453 . S
O12 C8 1.245 . S
O13 Tb0 2.343 . S
O13 Tb2 2.596 . S
O13 C8 1.259 . S
O14 Tb2 2.374 . S
O14 C9 1.250 . S
O15 Tb0 2.353 . S
O15 C9 1.263 . S
C16 O17 1.275 . S
C16 O18 1.246 . S
O17 Tb0 2.427 . S
O17 C16 1.275 . S
O18 Tb0 2.513 . S
O18 C16 1.246 . S
C19 O3 1.245 . S
C19 O4 1.259 . S
Tb20 O23 2.453 . S
Tb20 O24 2.596 . S
Tb20 O25 2.374 . S
Tb20 O33 2.343 . S
Tb20 O35 2.353 . S
Tb20 O37 2.427 . S
Tb20 O38 2.513 . S
C21 O25 1.251 . S
C21 O27 1.263 . S
Tb22 O24 2.343 . S
Tb22 O27 2.353 . S
Tb22 O30 2.427 . S
Tb22 O31 2.513 . S
Tb22 O32 2.453 . S
Tb22 O33 2.596 . S
Tb22 O34 2.374 . S
O23 Tb20 2.453 . S
O23 C39 1.245 . S
O24 Tb20 2.596 . S
O24 Tb22 2.343 . S
O24 C39 1.259 . S
O25 Tb20 2.374 . S
O25 C21 1.251 . S
C26 O30 1.275 . S
C26 O31 1.246 . S
O27 C21 1.263 . S
O27 Tb22 2.353 . S
C28 O32 1.245 . S
C28 O33 1.259 . S
C29 O34 1.250 . S
C29 O35 1.263 . S
O30 Tb22 2.427 . S
O30 C26 1.275 . S
O31 Tb22 2.513 . S
O31 C26 1.246 . S
O32 Tb22 2.453 . S
O32 C28 1.245 . S
O33 Tb20 2.343 . S
O33 Tb22 2.596 . S
O33 C28 1.259 . S
O34 Tb22 2.374 . S
O34 C29 1.250 . S
O35 Tb20 2.353 . S
O35 C29 1.263 . S
C36 O37 1.275 . S
C36 O38 1.246 . S
O37 Tb20 2.427 . S
O37 C36 1.275 . S
O38 Tb20 2.513 . S
O38 C36 1.246 . S
C39 O23 1.245 . S
C39 O24 1.259 . S
Tb40 O43 2.453 . S
Tb40 O44 2.596 . S
Tb40 O45 2.374 . S
Tb40 O53 2.343 . S
Tb40 O55 2.353 . S
Tb40 O57 2.427 . S
Tb40 O58 2.513 . S
C41 O45 1.251 . S
C41 O47 1.263 . S
Tb42 O44 2.343 . S
Tb42 O47 2.353 . S
Tb42 O50 2.427 . S
Tb42 O51 2.513 . S
Tb42 O52 2.453 . S
Tb42 O53 2.596 . S
Tb42 O54 2.374 . S
O43 Tb40 2.453 . S
O43 C59 1.245 . S
O44 Tb40 2.596 . S
O44 Tb42 2.343 . S
O44 C59 1.259 . S
O45 Tb40 2.374 . S
O45 C41 1.251 . S
C46 O50 1.275 . S
C46 O51 1.246 . S
O47 C41 1.263 . S
O47 Tb42 2.353 . S
C48 O52 1.245 . S
C48 O53 1.259 . S
C49 O54 1.250 . S
C49 O55 1.263 . S
O50 Tb42 2.427 . S
O50 C46 1.275 . S
O51 Tb42 2.513 . S
O51 C46 1.246 . S
O52 Tb42 2.453 . S
O52 C48 1.245 . S
O53 Tb40 2.343 . S
O53 Tb42 2.596 . S
O53 C48 1.259 . S
O54 Tb42 2.374 . S
O54 C49 1.250 . S
O55 Tb40 2.353 . S
O55 C49 1.263 . S
C56 O57 1.275 . S
C56 O58 1.246 . S
O57 Tb40 2.427 . S
O57 C56 1.275 . S
O58 Tb40 2.513 . S
O58 C56 1.246 . S
C59 O43 1.245 . S
C59 O44 1.259 . S
Tb60 O63 2.453 . S
Tb60 O64 2.596 . S
Tb60 O65 2.374 . S
Tb60 O73 2.343 . S
Tb60 O75 2.353 . S
Tb60 O77 2.427 . S
Tb60 O78 2.513 . S
C61 O65 1.251 . S
C61 O67 1.263 . S
Tb62 O64 2.343 . S
Tb62 O67 2.353 . S
Tb62 O70 2.427 1_556 S
Tb62 O71 2.513 1_556 S
Tb62 O72 2.453 . S
Tb62 O73 2.596 . S
Tb62 O74 2.374 . S
O63 Tb60 2.453 . S
O63 C79 1.245 . S
O64 Tb60 2.596 . S
O64 Tb62 2.343 . S
O64 C79 1.259 . S
O65 Tb60 2.374 . S
O65 C61 1.251 . S
C66 O70 1.275 . S
C66 O71 1.246 . S
O67 C61 1.263 . S
O67 Tb62 2.353 . S
C68 O72 1.245 . S
C68 O73 1.259 . S
C69 O74 1.250 . S
C69 O75 1.263 . S
O70 Tb62 2.427 1_554 S
O70 C66 1.275 . S
O71 Tb62 2.513 1_554 S
O71 C66 1.246 . S
O72 Tb62 2.453 . S
O72 C68 1.245 . S
O73 Tb60 2.343 . S
O73 Tb62 2.596 . S
O73 C68 1.259 . S
O74 Tb62 2.374 . S
O74 C69 1.250 . S
O75 Tb60 2.353 . S
O75 C69 1.263 . S
C76 O77 1.275 . S
C76 O78 1.246 . S
O77 Tb60 2.427 . S
O77 C76 1.275 . S
O78 Tb60 2.513 . S
O78 C76 1.246 . S
C79 O63 1.245 . S
C79 O64 1.259 . S
Tb80 O83 2.453 . S
Tb80 O84 2.596 . S
Tb80 O85 2.374 . S
Tb80 O93 2.343 . S
Tb80 O95 2.353 . S
Tb80 O97 2.427 . S
Tb80 O98 2.513 . S
C81 O85 1.251 . S
C81 O87 1.263 . S
Tb82 O84 2.343 . S
Tb82 O87 2.353 . S
Tb82 O90 2.427 . S
Tb82 O91 2.513 . S
Tb82 O92 2.453 . S
Tb82 O93 2.596 . S
Tb82 O94 2.374 . S
O83 Tb80 2.453 . S
O83 C99 1.245 . S
O84 Tb80 2.596 . S
O84 Tb82 2.343 . S
O84 C99 1.259 . S
O85 Tb80 2.374 . S
O85 C81 1.251 . S
C86 O90 1.275 . S
C86 O91 1.246 . S
O87 C81 1.263 . S
O87 Tb82 2.353 . S
C88 O92 1.245 . S
C88 O93 1.259 . S
C89 O94 1.250 . S
C89 O95 1.263 . S
O90 Tb82 2.427 . S
O90 C86 1.275 . S
O91 Tb82 2.513 . S
O91 C86 1.246 . S
O92 Tb82 2.453 . S
O92 C88 1.245 . S
O93 Tb80 2.343 . S
O93 Tb82 2.596 . S
O93 C88 1.259 . S
O94 Tb82 2.374 . S
O94 C89 1.250 . S
O95 Tb80 2.353 . S
O95 C89 1.263 . S
C96 O97 1.275 . S
C96 O98 1.246 . S
O97 Tb80 2.427 . S
O97 C96 1.275 . S
O98 Tb80 2.513 . S
O98 C96 1.246 . S
C99 O83 1.245 . S
C99 O84 1.259 . S
Tb100 O103 2.453 . S
Tb100 O104 2.596 . S
Tb100 O105 2.374 . S
Tb100 O113 2.343 . S
Tb100 O115 2.353 . S
Tb100 O117 2.427 . S
Tb100 O118 2.513 . S
C101 O105 1.251 . S
C101 O107 1.263 . S
Tb102 O104 2.343 . S
Tb102 O107 2.353 . S
Tb102 O110 2.427 . S
Tb102 O111 2.513 . S
Tb102 O112 2.453 . S
Tb102 O113 2.596 . S
Tb102 O114 2.374 . S
O103 Tb100 2.453 . S
O103 C119 1.245 . S
O104 Tb100 2.596 . S
O104 Tb102 2.343 . S
O104 C119 1.259 . S
O105 Tb100 2.374 . S
O105 C101 1.251 . S
C106 O110 1.275 . S
C106 O111 1.246 . S
O107 C101 1.263 . S
O107 Tb102 2.353 . S
C108 O112 1.245 . S
C108 O113 1.259 . S
C109 O114 1.250 . S
C109 O115 1.263 . S
O110 Tb102 2.427 . S
O110 C106 1.275 . S
O111 Tb102 2.513 . S
O111 C106 1.246 . S
O112 Tb102 2.453 . S
O112 C108 1.245 . S
O113 Tb100 2.343 . S
O113 Tb102 2.596 . S
O113 C108 1.259 . S
O114 Tb102 2.374 . S
O114 C109 1.250 . S
O115 Tb100 2.353 . S
O115 C109 1.263 . S
C116 O117 1.275 . S
C116 O118 1.246 . S
O117 Tb100 2.427 . S
O117 C116 1.275 . S
O118 Tb100 2.513 . S
O118 C116 1.246 . S
C119 O103 1.245 . S
C119 O104 1.259 . S
Tb120 O123 2.453 . S
Tb120 O124 2.596 . S
Tb120 O125 2.374 . S
Tb120 O133 2.343 . S
Tb120 O135 2.353 . S
Tb120 O137 2.427 . S
Tb120 O138 2.513 . S
C121 O125 1.251 . S
C121 O127 1.263 . S
Tb122 O124 2.343 . S
Tb122 O127 2.353 . S
Tb122 O130 2.427 1_554 S
Tb122 O131 2.513 1_554 S
Tb122 O132 2.453 . S
Tb122 O133 2.596 . S
Tb122 O134 2.374 . S
O123 Tb120 2.453 . S
O123 C139 1.245 . S
O124 Tb120 2.596 . S
O124 Tb122 2.343 . S
O124 C139 1.259 . S
O125 Tb120 2.374 . S
O125 C121 1.251 . S
C126 O130 1.275 . S
C126 O131 1.246 . S
O127 C121 1.263 . S
O127 Tb122 2.353 . S
C128 O132 1.245 . S
C128 O133 1.259 . S
C129 O134 1.250 . S
C129 O135 1.263 . S
O130 Tb122 2.427 1_556 S
O130 C126 1.275 . S
O131 Tb122 2.513 1_556 S
O131 C126 1.246 . S
O132 Tb122 2.453 . S
O132 C128 1.245 . S
O133 Tb120 2.343 . S
O133 Tb122 2.596 . S
O133 C128 1.259 . S
O134 Tb122 2.374 . S
O134 C129 1.250 . S
O135 Tb120 2.353 . S
O135 C129 1.263 . S
C136 O137 1.275 . S
C136 O138 1.246 . S
O137 Tb120 2.427 . S
O137 C136 1.275 . S
O138 Tb120 2.513 . S
O138 C136 1.246 . S
C139 O123 1.245 . S
C139 O124 1.259 . S
Tb140 O143 2.453 . S
Tb140 O144 2.596 . S
Tb140 O145 2.374 . S
Tb140 O153 2.343 . S
Tb140 O155 2.353 . S
Tb140 O157 2.427 . S
Tb140 O158 2.513 . S
C141 O145 1.251 . S
C141 O147 1.263 . S
Tb142 O144 2.343 . S
Tb142 O147 2.353 . S
Tb142 O150 2.427 . S
Tb142 O151 2.513 . S
Tb142 O152 2.453 . S
Tb142 O153 2.596 . S
Tb142 O154 2.374 . S
O143 Tb140 2.453 . S
O143 C159 1.245 . S
O144 Tb140 2.596 . S
O144 Tb142 2.343 . S
O144 C159 1.259 . S
O145 Tb140 2.374 . S
O145 C141 1.251 . S
C146 O150 1.275 . S
C146 O151 1.246 . S
O147 C141 1.263 . S
O147 Tb142 2.353 . S
C148 O152 1.245 . S
C148 O153 1.259 . S
C149 O154 1.250 . S
C149 O155 1.263 . S
O150 Tb142 2.427 . S
O150 C146 1.275 . S
O151 Tb142 2.513 . S
O151 C146 1.246 . S
O152 Tb142 2.453 . S
O152 C148 1.245 . S
O153 Tb140 2.343 . S
O153 Tb142 2.596 . S
O153 C148 1.259 . S
O154 Tb142 2.374 . S
O154 C149 1.250 . S
O155 Tb140 2.353 . S
O155 C149 1.263 . S
C156 O157 1.275 . S
C156 O158 1.246 . S
O157 Tb140 2.427 . S
O157 C156 1.275 . S
O158 Tb140 2.513 . S
O158 C156 1.246 . S
C159 O143 1.245 . S
C159 O144 1.259 . S
Tb160 O163 2.453 . S
Tb160 O164 2.596 . S
Tb160 O165 2.374 . S
Tb160 O173 2.343 . S
Tb160 O175 2.353 . S
Tb160 O177 2.427 . S
Tb160 O178 2.513 . S
C161 O165 1.251 . S
C161 O167 1.263 . S
Tb162 O164 2.343 . S
Tb162 O167 2.353 . S
Tb162 O170 2.427 . S
Tb162 O171 2.513 . S
Tb162 O172 2.453 . S
Tb162 O173 2.596 . S
Tb162 O174 2.374 . S
O163 Tb160 2.453 . S
O163 C179 1.245 . S
O164 Tb160 2.596 . S
O164 Tb162 2.343 . S
O164 C179 1.259 . S
O165 Tb160 2.374 . S
O165 C161 1.251 . S
C166 O170 1.275 1_556 S
C166 O171 1.246 1_556 S
O167 C161 1.263 . S
O167 Tb162 2.353 . S
C168 O172 1.245 . S
C168 O173 1.259 . S
C169 O174 1.250 . S
C169 O175 1.263 . S
O170 Tb162 2.427 . S
O170 C166 1.275 1_554 S
O171 Tb162 2.513 . S
O171 C166 1.246 1_554 S
O172 Tb162 2.453 . S
O172 C168 1.245 . S
O173 Tb160 2.343 . S
O173 Tb162 2.596 . S
O173 C168 1.259 . S
O174 Tb162 2.374 . S
O174 C169 1.250 . S
O175 Tb160 2.353 . S
O175 C169 1.263 . S
C176 O177 1.275 . S
C176 O178 1.246 . S
O177 Tb160 2.427 . S
O177 C176 1.275 . S
O178 Tb160 2.513 . S
O178 C176 1.246 . S
C179 O163 1.245 . S
C179 O164 1.259 . S
Tb180 O183 2.453 . S
Tb180 O184 2.596 . S
Tb180 O185 2.374 . S
Tb180 O193 2.343 . S
Tb180 O195 2.353 . S
Tb180 O197 2.427 . S
Tb180 O198 2.513 . S
C181 O185 1.251 . S
C181 O187 1.263 . S
Tb182 O184 2.343 . S
Tb182 O187 2.353 . S
Tb182 O190 2.427 . S
Tb182 O191 2.513 . S
Tb182 O192 2.453 . S
Tb182 O193 2.596 . S
Tb182 O194 2.374 . S
O183 Tb180 2.453 . S
O183 C199 1.245 . S
O184 Tb180 2.596 . S
O184 Tb182 2.343 . S
O184 C199 1.259 . S
O185 Tb180 2.374 . S
O185 C181 1.251 . S
C186 O190 1.275 . S
C186 O191 1.246 . S
O187 C181 1.263 . S
O187 Tb182 2.353 . S
C188 O192 1.245 . S
C188 O193 1.259 . S
C189 O194 1.250 . S
C189 O195 1.263 . S
O190 Tb182 2.427 . S
O190 C186 1.275 . S
O191 Tb182 2.513 . S
O191 C186 1.246 . S
O192 Tb182 2.453 . S
O192 C188 1.245 . S
O193 Tb180 2.343 . S
O193 Tb182 2.596 . S
O193 C188 1.259 . S
O194 Tb182 2.374 . S
O194 C189 1.250 . S
O195 Tb180 2.353 . S
O195 C189 1.263 . S
C196 O197 1.275 . S
C196 O198 1.246 . S
O197 Tb180 2.427 . S
O197 C196 1.275 . S
O198 Tb180 2.513 . S
O198 C196 1.246 . S
C199 O183 1.245 . S
C199 O184 1.259 . S
Tb200 O203 2.453 . S
Tb200 O204 2.596 . S
Tb200 O205 2.374 . S
Tb200 O213 2.343 . S
Tb200 O215 2.353 . S
Tb200 O217 2.427 . S
Tb200 O218 2.513 . S
C201 O205 1.251 . S
C201 O207 1.263 . S
Tb202 O204 2.343 . S
Tb202 O207 2.353 . S
Tb202 O210 2.427 . S
Tb202 O211 2.513 . S
Tb202 O212 2.453 . S
Tb202 O213 2.596 . S
Tb202 O214 2.374 . S
O203 Tb200 2.453 . S
O203 C219 1.245 . S
O204 Tb200 2.596 . S
O204 Tb202 2.343 . S
O204 C219 1.259 . S
O205 Tb200 2.374 . S
O205 C201 1.251 . S
C206 O210 1.275 . S
C206 O211 1.246 . S
O207 C201 1.263 . S
O207 Tb202 2.353 . S
C208 O212 1.245 . S
C208 O213 1.259 . S
C209 O214 1.250 . S
C209 O215 1.263 . S
O210 Tb202 2.427 . S
O210 C206 1.275 . S
O211 Tb202 2.513 . S
O211 C206 1.246 . S
O212 Tb202 2.453 . S
O212 C208 1.245 . S
O213 Tb200 2.343 . S
O213 Tb202 2.596 . S
O213 C208 1.259 . S
O214 Tb202 2.374 . S
O214 C209 1.250 . S
O215 Tb200 2.353 . S
O215 C209 1.263 . S
C216 O217 1.275 . S
C216 O218 1.246 . S
O217 Tb200 2.427 . S
O217 C216 1.275 . S
O218 Tb200 2.513 . S
O218 C216 1.246 . S
C219 O203 1.245 . S
C219 O204 1.259 . S
Tb220 O223 2.453 . S
Tb220 O224 2.596 . S
Tb220 O225 2.374 . S
Tb220 O233 2.343 . S
Tb220 O235 2.353 . S
Tb220 O237 2.427 . S
Tb220 O238 2.513 . S
C221 O225 1.251 . S
C221 O227 1.263 . S
Tb222 O224 2.343 . S
Tb222 O227 2.353 . S
Tb222 O230 2.427 . S
Tb222 O231 2.513 . S
Tb222 O232 2.453 . S
Tb222 O233 2.596 . S
Tb222 O234 2.374 . S
O223 Tb220 2.453 . S
O223 C239 1.245 . S
O224 Tb220 2.596 . S
O224 Tb222 2.343 . S
O224 C239 1.259 . S
O225 Tb220 2.374 . S
O225 C221 1.251 . S
C226 O230 1.275 . S
C226 O231 1.246 . S
O227 C221 1.263 . S
O227 Tb222 2.353 . S
C228 O232 1.245 . S
C228 O233 1.259 . S
C229 O234 1.250 . S
C229 O235 1.263 . S
O230 Tb222 2.427 . S
O230 C226 1.275 . S
O231 Tb222 2.513 . S
O231 C226 1.246 . S
O232 Tb222 2.453 . S
O232 C228 1.245 . S
O233 Tb220 2.343 . S
O233 Tb222 2.596 . S
O233 C228 1.259 . S
O234 Tb222 2.374 . S
O234 C229 1.250 . S
O235 Tb220 2.353 . S
O235 C229 1.263 . S
C236 O237 1.275 . S
C236 O238 1.246 . S
O237 Tb220 2.427 . S
O237 C236 1.275 . S
O238 Tb220 2.513 . S
O238 C236 1.246 . S
C239 O223 1.245 . S
C239 O224 1.259 . S
Tb240 O243 2.453 . S
Tb240 O244 2.596 . S
Tb240 O245 2.374 . S
Tb240 O253 2.343 . S
Tb240 O255 2.353 . S
Tb240 O257 2.427 . S
Tb240 O258 2.513 . S
C241 O245 1.251 . S
C241 O247 1.263 . S
Tb242 O244 2.343 . S
Tb242 O247 2.353 . S
Tb242 O250 2.427 . S
Tb242 O251 2.513 . S
Tb242 O252 2.453 . S
Tb242 O253 2.596 . S
Tb242 O254 2.374 . S
O243 Tb240 2.453 . S
O243 C259 1.245 . S
O244 Tb240 2.596 . S
O244 Tb242 2.343 . S
O244 C259 1.259 . S
O245 Tb240 2.374 . S
O245 C241 1.251 . S
C246 O250 1.275 . S
C246 O251 1.246 . S
O247 C241 1.263 . S
O247 Tb242 2.353 . S
C248 O252 1.245 . S
C248 O253 1.259 . S
C249 O254 1.250 . S
C249 O255 1.263 . S
O250 Tb242 2.427 . S
O250 C246 1.275 . S
O251 Tb242 2.513 . S
O251 C246 1.246 . S
O252 Tb242 2.453 . S
O252 C248 1.245 . S
O253 Tb240 2.343 . S
O253 Tb242 2.596 . S
O253 C248 1.259 . S
O254 Tb242 2.374 . S
O254 C249 1.250 . S
O255 Tb240 2.353 . S
O255 C249 1.263 . S
C256 O257 1.275 . S
C256 O258 1.246 . S
O257 Tb240 2.427 . S
O257 C256 1.275 . S
O258 Tb240 2.513 . S
O258 C256 1.246 . S
C259 O243 1.245 . S
C259 O244 1.259 . S
Tb260 O263 2.453 . S
Tb260 O264 2.596 . S
Tb260 O265 2.374 . S
Tb260 O273 2.343 . S
Tb260 O275 2.353 . S
Tb260 O277 2.427 . S
Tb260 O278 2.513 . S
C261 O265 1.251 . S
C261 O267 1.263 . S
Tb262 O264 2.343 . S
Tb262 O267 2.353 . S
Tb262 O270 2.427 . S
Tb262 O271 2.513 . S
Tb262 O272 2.453 . S
Tb262 O273 2.596 . S
Tb262 O274 2.374 . S
O263 Tb260 2.453 . S
O263 C279 1.245 . S
O264 Tb260 2.596 . S
O264 Tb262 2.343 . S
O264 C279 1.259 . S
O265 Tb260 2.374 . S
O265 C261 1.251 . S
C266 O270 1.275 . S
C266 O271 1.246 . S
O267 C261 1.263 . S
O267 Tb262 2.353 . S
C268 O272 1.245 . S
C268 O273 1.259 . S
C269 O274 1.250 . S
C269 O275 1.263 . S
O270 Tb262 2.427 . S
O270 C266 1.275 . S
O271 Tb262 2.513 . S
O271 C266 1.246 . S
O272 Tb262 2.453 . S
O272 C268 1.245 . S
O273 Tb260 2.343 . S
O273 Tb262 2.596 . S
O273 C268 1.259 . S
O274 Tb262 2.374 . S
O274 C269 1.250 . S
O275 Tb260 2.353 . S
O275 C269 1.263 . S
C276 O277 1.275 . S
C276 O278 1.246 . S
O277 Tb260 2.427 . S
O277 C276 1.275 . S
O278 Tb260 2.513 . S
O278 C276 1.246 . S
C279 O263 1.245 . S
C279 O264 1.259 . S
Tb280 O283 2.453 . S
Tb280 O284 2.596 . S
Tb280 O285 2.374 . S
Tb280 O293 2.343 . S
Tb280 O295 2.353 . S
Tb280 O297 2.427 . S
Tb280 O298 2.513 . S
C281 O285 1.251 . S
C281 O287 1.263 . S
Tb282 O284 2.343 . S
Tb282 O287 2.353 . S
Tb282 O290 2.427 . S
Tb282 O291 2.513 . S
Tb282 O292 2.453 . S
Tb282 O293 2.596 . S
Tb282 O294 2.374 . S
O283 Tb280 2.453 . S
O283 C299 1.245 . S
O284 Tb280 2.596 . S
O284 Tb282 2.343 . S
O284 C299 1.259 . S
O285 Tb280 2.374 . S
O285 C281 1.251 . S
C286 O290 1.275 . S
C286 O291 1.246 . S
O287 C281 1.263 . S
O287 Tb282 2.353 . S
C288 O292 1.245 . S
C288 O293 1.259 . S
C289 O294 1.250 . S
C289 O295 1.263 . S
O290 Tb282 2.427 . S
O290 C286 1.275 . S
O291 Tb282 2.513 . S
O291 C286 1.246 . S
O292 Tb282 2.453 . S
O292 C288 1.245 . S
O293 Tb280 2.343 . S
O293 Tb282 2.596 . S
O293 C288 1.259 . S
O294 Tb282 2.374 . S
O294 C289 1.250 . S
O295 Tb280 2.353 . S
O295 C289 1.263 . S
C296 O297 1.275 . S
C296 O298 1.246 . S
O297 Tb280 2.427 . S
O297 C296 1.275 . S
O298 Tb280 2.513 . S
O298 C296 1.246 . S
C299 O283 1.245 . S
C299 O284 1.259 . S
Tb300 O303 2.453 . S
Tb300 O304 2.596 . S
Tb300 O305 2.374 . S
Tb300 O313 2.343 . S
Tb300 O315 2.353 . S
Tb300 O317 2.427 1_556 S
Tb300 O318 2.513 1_556 S
C301 O305 1.251 . S
C301 O307 1.263 . S
Tb302 O304 2.343 . S
Tb302 O307 2.353 . S
Tb302 O310 2.427 . S
Tb302 O311 2.513 . S
Tb302 O312 2.453 . S
Tb302 O313 2.596 . S
Tb302 O314 2.374 . S
O303 Tb300 2.453 . S
O303 C319 1.245 . S
O304 Tb300 2.596 . S
O304 Tb302 2.343 . S
O304 C319 1.259 . S
O305 Tb300 2.374 . S
O305 C301 1.251 . S
C306 O310 1.275 . S
C306 O311 1.246 . S
O307 C301 1.263 . S
O307 Tb302 2.353 . S
C308 O312 1.245 . S
C308 O313 1.259 . S
C309 O314 1.250 . S
C309 O315 1.263 . S
O310 Tb302 2.427 . S
O310 C306 1.275 . S
O311 Tb302 2.513 . S
O311 C306 1.246 . S
O312 Tb302 2.453 . S
O312 C308 1.245 . S
O313 Tb300 2.343 . S
O313 Tb302 2.596 . S
O313 C308 1.259 . S
O314 Tb302 2.374 . S
O314 C309 1.250 . S
O315 Tb300 2.353 . S
O315 C309 1.263 . S
C316 O317 1.275 . S
C316 O318 1.246 . S
O317 Tb300 2.427 1_554 S
O317 C316 1.275 . S
O318 Tb300 2.513 1_554 S
O318 C316 1.246 . S
C319 O303 1.245 . S
C319 O304 1.259 . S
Tb320 O323 2.453 . S
Tb320 O324 2.596 . S
Tb320 O325 2.374 . S
Tb320 O333 2.343 . S
Tb320 O335 2.353 . S
Tb320 O337 2.427 . S
Tb320 O338 2.513 . S
C321 O325 1.251 . S
C321 O327 1.263 . S
Tb322 O324 2.343 . S
Tb322 O327 2.353 . S
Tb322 O330 2.427 . S
Tb322 O331 2.513 . S
Tb322 O332 2.453 . S
Tb322 O333 2.596 . S
Tb322 O334 2.374 . S
O323 Tb320 2.453 . S
O323 C339 1.245 . S
O324 Tb320 2.596 . S
O324 Tb322 2.343 . S
O324 C339 1.259 . S
O325 Tb320 2.374 . S
O325 C321 1.251 . S
C326 O330 1.275 . S
C326 O331 1.246 . S
O327 C321 1.263 . S
O327 Tb322 2.353 . S
C328 O332 1.245 . S
C328 O333 1.259 . S
C329 O334 1.250 . S
C329 O335 1.263 . S
O330 Tb322 2.427 . S
O330 C326 1.275 . S
O331 Tb322 2.513 . S
O331 C326 1.246 . S
O332 Tb322 2.453 . S
O332 C328 1.245 . S
O333 Tb320 2.343 . S
O333 Tb322 2.596 . S
O333 C328 1.259 . S
O334 Tb322 2.374 . S
O334 C329 1.250 . S
O335 Tb320 2.353 . S
O335 C329 1.263 . S
C336 O337 1.275 . S
C336 O338 1.246 . S
O337 Tb320 2.427 . S
O337 C336 1.275 . S
O338 Tb320 2.513 . S
O338 C336 1.246 . S
C339 O323 1.245 . S
C339 O324 1.259 . S
Tb340 O343 2.453 . S
Tb340 O344 2.596 . S
Tb340 O345 2.374 . S
Tb340 O353 2.343 . S
Tb340 O355 2.353 . S
Tb340 O357 2.427 . S
Tb340 O358 2.513 . S
C341 O345 1.251 . S
C341 O347 1.263 . S
Tb342 O344 2.343 . S
Tb342 O347 2.353 . S
Tb342 O350 2.427 1_556 S
Tb342 O351 2.513 1_556 S
Tb342 O352 2.453 . S
Tb342 O353 2.596 . S
Tb342 O354 2.374 . S
O343 Tb340 2.453 . S
O343 C359 1.245 . S
O344 Tb340 2.596 . S
O344 Tb342 2.343 . S
O344 C359 1.259 . S
O345 Tb340 2.374 . S
O345 C341 1.251 . S
C346 O350 1.275 . S
C346 O351 1.246 . S
O347 C341 1.263 . S
O347 Tb342 2.353 . S
C348 O352 1.245 . S
C348 O353 1.259 . S
C349 O354 1.250 . S
C349 O355 1.263 . S
O350 Tb342 2.427 1_554 S
O350 C346 1.275 . S
O351 Tb342 2.513 1_554 S
O351 C346 1.246 . S
O352 Tb342 2.453 . S
O352 C348 1.245 . S
O353 Tb340 2.343 . S
O353 Tb342 2.596 . S
O353 C348 1.259 . S
O354 Tb342 2.374 . S
O354 C349 1.250 . S
O355 Tb340 2.353 . S
O355 C349 1.263 . S
C356 O357 1.275 . S
C356 O358 1.246 . S
O357 Tb340 2.427 . S
O357 C356 1.275 . S
O358 Tb340 2.513 . S
O358 C356 1.246 . S
C359 O343 1.245 . S
C359 O344 1.259 . S
Tb360 O363 2.453 . S
Tb360 O364 2.596 . S
Tb360 O365 2.374 . S
Tb360 O373 2.343 . S
Tb360 O375 2.353 . S
Tb360 O377 2.427 . S
Tb360 O378 2.513 . S
C361 O365 1.251 . S
C361 O367 1.263 . S
Tb362 O364 2.343 . S
Tb362 O367 2.353 . S
Tb362 O370 2.427 . S
Tb362 O371 2.513 . S
Tb362 O372 2.453 . S
Tb362 O373 2.596 . S
Tb362 O374 2.374 . S
O363 Tb360 2.453 . S
O363 C379 1.245 . S
O364 Tb360 2.596 . S
O364 Tb362 2.343 . S
O364 C379 1.259 . S
O365 Tb360 2.374 . S
O365 C361 1.251 . S
C366 O370 1.275 . S
C366 O371 1.246 . S
O367 C361 1.263 . S
O367 Tb362 2.353 . S
C368 O372 1.245 . S
C368 O373 1.259 . S
C369 O374 1.250 . S
C369 O375 1.263 . S
O370 Tb362 2.427 . S
O370 C366 1.275 . S
O371 Tb362 2.513 . S
O371 C366 1.246 . S
O372 Tb362 2.453 . S
O372 C368 1.245 . S
O373 Tb360 2.343 . S
O373 Tb362 2.596 . S
O373 C368 1.259 . S
O374 Tb362 2.374 . S
O374 C369 1.250 . S
O375 Tb360 2.353 . S
O375 C369 1.263 . S
C376 O377 1.275 . S
C376 O378 1.246 . S
O377 Tb360 2.427 . S
O377 C376 1.275 . S
O378 Tb360 2.513 . S
O378 C376 1.246 . S
C379 O363 1.245 . S
C379 O364 1.259 . S
Tb380 O383 2.453 . S
Tb380 O384 2.596 . S
Tb380 O385 2.374 . S
Tb380 O393 2.343 . S
Tb380 O395 2.353 . S
Tb380 O397 2.427 . S
Tb380 O398 2.513 . S
C381 O385 1.251 . S
C381 O387 1.263 . S
Tb382 O384 2.343 . S
Tb382 O387 2.353 . S
Tb382 O390 2.427 . S
Tb382 O391 2.513 . S
Tb382 O392 2.453 . S
Tb382 O393 2.596 . S
Tb382 O394 2.374 . S
O383 Tb380 2.453 . S
O383 C399 1.245 . S
O384 Tb380 2.596 . S
O384 Tb382 2.343 . S
O384 C399 1.259 . S
O385 Tb380 2.374 . S
O385 C381 1.251 . S
C386 O390 1.275 . S
C386 O391 1.246 . S
O387 C381 1.263 . S
O387 Tb382 2.353 . S
C388 O392 1.245 . S
C388 O393 1.259 . S
C389 O394 1.250 . S
C389 O395 1.263 . S
O390 Tb382 2.427 . S
O390 C386 1.275 . S
O391 Tb382 2.513 . S
O391 C386 1.246 . S
O392 Tb382 2.453 . S
O392 C388 1.245 . S
O393 Tb380 2.343 . S
O393 Tb382 2.596 . S
O393 C388 1.259 . S
O394 Tb382 2.374 . S
O394 C389 1.250 . S
O395 Tb380 2.353 . S
O395 C389 1.263 . S
C396 O397 1.275 . S
C396 O398 1.246 . S
O397 Tb380 2.427 . S
O397 C396 1.275 . S
O398 Tb380 2.513 . S
O398 C396 1.246 . S
C399 O383 1.245 . S
C399 O384 1.259 . S
Tb400 O403 2.453 . S
Tb400 O404 2.596 . S
Tb400 O405 2.374 . S
Tb400 O413 2.343 . S
Tb400 O415 2.353 . S
Tb400 O417 2.427 . S
Tb400 O418 2.513 . S
C401 O405 1.251 . S
C401 O407 1.263 . S
Tb402 O404 2.343 . S
Tb402 O407 2.353 . S
Tb402 O410 2.427 . S
Tb402 O411 2.513 . S
Tb402 O412 2.453 . S
Tb402 O413 2.596 . S
Tb402 O414 2.374 . S
O403 Tb400 2.453 . S
O403 C419 1.245 . S
O404 Tb400 2.596 . S
O404 Tb402 2.343 . S
O404 C419 1.259 . S
O405 Tb400 2.374 . S
O405 C401 1.251 . S
C406 O410 1.275 . S
C406 O411 1.246 . S
O407 C401 1.263 . S
O407 Tb402 2.353 . S
C408 O412 1.245 . S
C408 O413 1.259 . S
C409 O414 1.250 . S
C409 O415 1.263 . S
O410 Tb402 2.427 . S
O410 C406 1.275 . S
O411 Tb402 2.513 . S
O411 C406 1.246 . S
O412 Tb402 2.453 . S
O412 C408 1.245 . S
O413 Tb400 2.343 . S
O413 Tb402 2.596 . S
O413 C408 1.259 . S
O414 Tb402 2.374 . S
O414 C409 1.250 . S
O415 Tb400 2.353 . S
O415 C409 1.263 . S
C416 O417 1.275 1_556 S
C416 O418 1.246 1_556 S
O417 Tb400 2.427 . S
O417 C416 1.275 1_554 S
O418 Tb400 2.513 . S
O418 C416 1.246 1_554 S
C419 O403 1.245 . S
C419 O404 1.259 . S
Tb420 O423 2.453 . S
Tb420 O424 2.596 . S
Tb420 O425 2.374 . S
Tb420 O433 2.343 . S
Tb420 O435 2.353 . S
Tb420 O437 2.427 . S
Tb420 O438 2.513 . S
C421 O425 1.251 . S
C421 O427 1.263 . S
Tb422 O424 2.343 . S
Tb422 O427 2.353 . S
Tb422 O430 2.427 . S
Tb422 O431 2.513 . S
Tb422 O432 2.453 . S
Tb422 O433 2.596 . S
Tb422 O434 2.374 . S
O423 Tb420 2.453 . S
O423 C439 1.245 . S
O424 Tb420 2.596 . S
O424 Tb422 2.343 . S
O424 C439 1.259 . S
O425 Tb420 2.374 . S
O425 C421 1.251 . S
C426 O430 1.275 . S
C426 O431 1.246 . S
O427 C421 1.263 . S
O427 Tb422 2.353 . S
C428 O432 1.245 . S
C428 O433 1.259 . S
C429 O434 1.250 . S
C429 O435 1.263 . S
O430 Tb422 2.427 . S
O430 C426 1.275 . S
O431 Tb422 2.513 . S
O431 C426 1.246 . S
O432 Tb422 2.453 . S
O432 C428 1.245 . S
O433 Tb420 2.343 . S
O433 Tb422 2.596 . S
O433 C428 1.259 . S
O434 Tb422 2.374 . S
O434 C429 1.250 . S
O435 Tb420 2.353 . S
O435 C429 1.263 . S
C436 O437 1.275 . S
C436 O438 1.246 . S
O437 Tb420 2.427 . S
O437 C436 1.275 . S
O438 Tb420 2.513 . S
O438 C436 1.246 . S
C439 O423 1.245 . S
C439 O424 1.259 . S
Tb440 O443 2.453 . S
Tb440 O444 2.596 . S
Tb440 O445 2.374 . S
Tb440 O453 2.343 . S
Tb440 O455 2.353 . S
Tb440 O457 2.427 . S
Tb440 O458 2.513 . S
C441 O445 1.251 . S
C441 O447 1.263 . S
Tb442 O444 2.343 . S
Tb442 O447 2.353 . S
Tb442 O450 2.427 . S
Tb442 O451 2.513 . S
Tb442 O452 2.453 . S
Tb442 O453 2.596 . S
Tb442 O454 2.374 . S
O443 Tb440 2.453 . S
O443 C459 1.245 . S
O444 Tb440 2.596 . S
O444 Tb442 2.343 . S
O444 C459 1.259 . S
O445 Tb440 2.374 . S
O445 C441 1.251 . S
C446 O450 1.275 . S
C446 O451 1.246 . S
O447 C441 1.263 . S
O447 Tb442 2.353 . S
C448 O452 1.245 . S
C448 O453 1.259 . S
C449 O454 1.250 . S
C449 O455 1.263 . S
O450 Tb442 2.427 . S
O450 C446 1.275 . S
O451 Tb442 2.513 . S
O451 C446 1.246 . S
O452 Tb442 2.453 . S
O452 C448 1.245 . S
O453 Tb440 2.343 . S
O453 Tb442 2.596 . S
O453 C448 1.259 . S
O454 Tb442 2.374 . S
O454 C449 1.250 . S
O455 Tb440 2.353 . S
O455 C449 1.263 . S
C456 O457 1.275 . S
C456 O458 1.246 . S
O457 Tb440 2.427 . S
O457 C456 1.275 . S
O458 Tb440 2.513 . S
O458 C456 1.246 . S
C459 O443 1.245 . S
C459 O444 1.259 . S
Tb460 O463 2.453 . S
Tb460 O464 2.596 . S
Tb460 O465 2.374 . S
Tb460 O473 2.343 . S
Tb460 O475 2.353 . S
Tb460 O477 2.427 . S
Tb460 O478 2.513 . S
C461 O465 1.251 . S
C461 O467 1.263 . S
Tb462 O464 2.343 . S
Tb462 O467 2.353 . S
Tb462 O470 2.427 . S
Tb462 O471 2.513 . S
Tb462 O472 2.453 . S
Tb462 O473 2.596 . S
Tb462 O474 2.374 . S
O463 Tb460 2.453 . S
O463 C479 1.245 . S
O464 Tb460 2.596 . S
O464 Tb462 2.343 . S
O464 C479 1.259 . S
O465 Tb460 2.374 . S
O465 C461 1.251 . S
C466 O470 1.275 . S
C466 O471 1.246 . S
O467 C461 1.263 . S
O467 Tb462 2.353 . S
C468 O472 1.245 . S
C468 O473 1.259 . S
C469 O474 1.250 . S
C469 O475 1.263 . S
O470 Tb462 2.427 . S
O470 C466 1.275 . S
O471 Tb462 2.513 . S
O471 C466 1.246 . S
O472 Tb462 2.453 . S
O472 C468 1.245 . S
O473 Tb460 2.343 . S
O473 Tb462 2.596 . S
O473 C468 1.259 . S
O474 Tb462 2.374 . S
O474 C469 1.250 . S
O475 Tb460 2.353 . S
O475 C469 1.263 . S
C476 O477 1.275 . S
C476 O478 1.246 . S
O477 Tb460 2.427 . S
O477 C476 1.275 . S
O478 Tb460 2.513 . S
O478 C476 1.246 . S
C479 O463 1.245 . S
C479 O464 1.259 . S
Tb480 O483 2.453 . S
Tb480 O484 2.596 . S
Tb480 O485 2.374 . S
Tb480 O493 2.343 . S
Tb480 O495 2.353 . S
Tb480 O497 2.427 . S
Tb480 O498 2.513 . S
C481 O485 1.251 . S
C481 O487 1.263 . S
Tb482 O484 2.343 . S
Tb482 O487 2.353 . S
Tb482 O490 2.427 . S
Tb482 O491 2.513 . S
Tb482 O492 2.453 . S
Tb482 O493 2.596 . S
Tb482 O494 2.374 . S
O483 Tb480 2.453 . S
O483 C499 1.245 . S
O484 Tb480 2.596 . S
O484 Tb482 2.343 . S
O484 C499 1.259 . S
O485 Tb480 2.374 . S
O485 C481 1.251 . S
C486 O490 1.275 . S
C486 O491 1.246 . S
O487 C481 1.263 . S
O487 Tb482 2.353 . S
C488 O492 1.245 . S
C488 O493 1.259 . S
C489 O494 1.250 . S
C489 O495 1.263 . S
O490 Tb482 2.427 . S
O490 C486 1.275 . S
O491 Tb482 2.513 . S
O491 C486 1.246 . S
O492 Tb482 2.453 . S
O492 C488 1.245 . S
O493 Tb480 2.343 . S
O493 Tb482 2.596 . S
O493 C488 1.259 . S
O494 Tb482 2.374 . S
O494 C489 1.250 . S
O495 Tb480 2.353 . S
O495 C489 1.263 . S
C496 O497 1.275 . S
C496 O498 1.246 . S
O497 Tb480 2.427 . S
O497 C496 1.275 . S
O498 Tb480 2.513 . S
O498 C496 1.246 . S
C499 O483 1.245 . S
C499 O484 1.259 . S
Tb500 O503 2.453 . S
Tb500 O504 2.596 . S
Tb500 O505 2.374 . S
Tb500 O513 2.343 . S
Tb500 O515 2.353 . S
Tb500 O517 2.427 . S
Tb500 O518 2.513 . S
C501 O505 1.251 . S
C501 O507 1.263 . S
Tb502 O504 2.343 . S
Tb502 O507 2.353 . S
Tb502 O510 2.427 . S
Tb502 O511 2.513 . S
Tb502 O512 2.453 . S
Tb502 O513 2.596 . S
Tb502 O514 2.374 . S
O503 Tb500 2.453 . S
O503 C519 1.245 . S
O504 Tb500 2.596 . S
O504 Tb502 2.343 . S
O504 C519 1.259 . S
O505 Tb500 2.374 . S
O505 C501 1.251 . S
C506 O510 1.275 . S
C506 O511 1.246 . S
O507 C501 1.263 . S
O507 Tb502 2.353 . S
C508 O512 1.245 . S
C508 O513 1.259 . S
C509 O514 1.250 . S
C509 O515 1.263 . S
O510 Tb502 2.427 . S
O510 C506 1.275 . S
O511 Tb502 2.513 . S
O511 C506 1.246 . S
O512 Tb502 2.453 . S
O512 C508 1.245 . S
O513 Tb500 2.343 . S
O513 Tb502 2.596 . S
O513 C508 1.259 . S
O514 Tb502 2.374 . S
O514 C509 1.250 . S
O515 Tb500 2.353 . S
O515 C509 1.263 . S
C516 O517 1.275 . S
C516 O518 1.246 . S
O517 Tb500 2.427 . S
O517 C516 1.275 . S
O518 Tb500 2.513 . S
O518 C516 1.246 . S
C519 O503 1.245 . S
C519 O504 1.259 . S
Tb520 O523 2.453 . S
Tb520 O524 2.596 . S
Tb520 O525 2.374 . S
Tb520 O533 2.343 . S
Tb520 O535 2.353 . S
Tb520 O537 2.427 1_554 S
Tb520 O538 2.513 1_554 S
C521 O525 1.251 . S
C521 O527 1.263 . S
Tb522 O524 2.343 . S
Tb522 O527 2.353 . S
Tb522 O530 2.427 . S
Tb522 O531 2.513 . S
Tb522 O532 2.453 . S
Tb522 O533 2.596 . S
Tb522 O534 2.374 . S
O523 Tb520 2.453 . S
O523 C539 1.245 . S
O524 Tb520 2.596 . S
O524 Tb522 2.343 . S
O524 C539 1.259 . S
O525 Tb520 2.374 . S
O525 C521 1.251 . S
C526 O530 1.275 . S
C526 O531 1.246 . S
O527 C521 1.263 . S
O527 Tb522 2.353 . S
C528 O532 1.245 . S
C528 O533 1.259 . S
C529 O534 1.250 . S
C529 O535 1.263 . S
O530 Tb522 2.427 . S
O530 C526 1.275 . S
O531 Tb522 2.513 . S
O531 C526 1.246 . S
O532 Tb522 2.453 . S
O532 C528 1.245 . S
O533 Tb520 2.343 . S
O533 Tb522 2.596 . S
O533 C528 1.259 . S
O534 Tb522 2.374 . S
O534 C529 1.250 . S
O535 Tb520 2.353 . S
O535 C529 1.263 . S
C536 O537 1.275 . S
C536 O538 1.246 . S
O537 Tb520 2.427 1_556 S
O537 C536 1.275 . S
O538 Tb520 2.513 1_556 S
O538 C536 1.246 . S
C539 O523 1.245 . S
C539 O524 1.259 . S
Tb540 O543 2.453 . S
Tb540 O544 2.596 . S
Tb540 O545 2.374 . S
Tb540 O553 2.343 . S
Tb540 O555 2.353 . S
Tb540 O557 2.427 . S
Tb540 O558 2.513 . S
C541 O545 1.251 . S
C541 O547 1.263 . S
Tb542 O544 2.343 . S
Tb542 O547 2.353 . S
Tb542 O550 2.427 . S
Tb542 O551 2.513 . S
Tb542 O552 2.453 . S
Tb542 O553 2.596 . S
Tb542 O554 2.374 . S
O543 Tb540 2.453 . S
O543 C559 1.245 . S
O544 Tb540 2.596 . S
O544 Tb542 2.343 . S
O544 C559 1.259 . S
O545 Tb540 2.374 . S
O545 C541 1.251 . S
C546 O550 1.275 . S
C546 O551 1.246 . S
O547 C541 1.263 . S
O547 Tb542 2.353 . S
C548 O552 1.245 . S
C548 O553 1.259 . S
C549 O554 1.250 . S
C549 O555 1.263 . S
O550 Tb542 2.427 . S
O550 C546 1.275 . S
O551 Tb542 2.513 . S
O551 C546 1.246 . S
O552 Tb542 2.453 . S
O552 C548 1.245 . S
O553 Tb540 2.343 . S
O553 Tb542 2.596 . S
O553 C548 1.259 . S
O554 Tb542 2.374 . S
O554 C549 1.250 . S
O555 Tb540 2.353 . S
O555 C549 1.263 . S
C556 O557 1.275 . S
C556 O558 1.246 . S
O557 Tb540 2.427 . S
O557 C556 1.275 . S
O558 Tb540 2.513 . S
O558 C556 1.246 . S
C559 O543 1.245 . S
C559 O544 1.259 . S
Tb560 O563 2.453 . S
Tb560 O564 2.596 . S
Tb560 O565 2.374 . S
Tb560 O573 2.343 . S
Tb560 O575 2.353 . S
Tb560 O577 2.427 . S
Tb560 O578 2.513 . S
C561 O565 1.251 . S
C561 O567 1.263 . S
Tb562 O564 2.343 . S
Tb562 O567 2.353 . S
Tb562 O570 2.427 . S
Tb562 O571 2.513 . S
Tb562 O572 2.453 . S
Tb562 O573 2.596 . S
Tb562 O574 2.374 . S
O563 Tb560 2.453 . S
O563 C579 1.245 . S
O564 Tb560 2.596 . S
O564 Tb562 2.343 . S
O564 C579 1.259 . S
O565 Tb560 2.374 . S
O565 C561 1.251 . S
C566 O570 1.275 . S
C566 O571 1.246 . S
O567 C561 1.263 . S
O567 Tb562 2.353 . S
C568 O572 1.245 . S
C568 O573 1.259 . S
C569 O574 1.250 . S
C569 O575 1.263 . S
O570 Tb562 2.427 . S
O570 C566 1.275 . S
O571 Tb562 2.513 . S
O571 C566 1.246 . S
O572 Tb562 2.453 . S
O572 C568 1.245 . S
O573 Tb560 2.343 . S
O573 Tb562 2.596 . S
O573 C568 1.259 . S
O574 Tb562 2.374 . S
O574 C569 1.250 . S
O575 Tb560 2.353 . S
O575 C569 1.263 . S
C576 O577 1.265 1_556 S
C576 O578 1.234 1_556 S
O577 Tb560 2.427 . S
O577 C576 1.265 1_554 S
O578 Tb560 2.513 . S
O578 C576 1.234 1_554 S
C579 O563 1.245 . S
C579 O564 1.259 . S
Tb580 O583 2.453 . S
Tb580 O584 2.596 . S
Tb580 O585 2.374 . S
Tb580 O593 2.343 . S
Tb580 O595 2.353 . S
Tb580 O597 2.427 1_556 S
Tb580 O598 2.513 1_556 S
C581 O585 1.251 . S
C581 O587 1.263 . S
Tb582 O584 2.343 . S
Tb582 O587 2.353 . S
Tb582 O590 2.427 . S
Tb582 O591 2.513 . S
Tb582 O592 2.453 . S
Tb582 O593 2.596 . S
Tb582 O594 2.374 . S
O583 Tb580 2.453 . S
O583 C599 1.245 . S
O584 Tb580 2.596 . S
O584 Tb582 2.343 . S
O584 C599 1.259 . S
O585 Tb580 2.374 . S
O585 C581 1.251 . S
C586 O590 1.275 . S
C586 O591 1.246 . S
O587 C581 1.263 . S
O587 Tb582 2.353 . S
C588 O592 1.245 . S
C588 O593 1.259 . S
C589 O594 1.250 . S
C589 O595 1.263 . S
O590 Tb582 2.427 . S
O590 C586 1.275 . S
O591 Tb582 2.513 . S
O591 C586 1.246 . S
O592 Tb582 2.453 . S
O592 C588 1.245 . S
O593 Tb580 2.343 . S
O593 Tb582 2.596 . S
O593 C588 1.259 . S
O594 Tb582 2.374 . S
O594 C589 1.250 . S
O595 Tb580 2.353 . S
O595 C589 1.263 . S
C596 O597 1.275 . S
C596 O598 1.246 . S
O597 Tb580 2.427 1_554 S
O597 C596 1.275 . S
O598 Tb580 2.513 1_554 S
O598 C596 1.246 . S
C599 O583 1.245 . S
C599 O584 1.259 . S
Tb600 O603 2.453 . S
Tb600 O604 2.596 . S
Tb600 O605 2.374 . S
Tb600 O613 2.343 . S
Tb600 O615 2.353 . S
Tb600 O617 2.427 . S
Tb600 O618 2.513 . S
C601 O605 1.251 . S
C601 O607 1.263 . S
Tb602 O604 2.343 . S
Tb602 O607 2.353 . S
Tb602 O610 2.427 . S
Tb602 O611 2.513 . S
Tb602 O612 2.453 . S
Tb602 O613 2.596 . S
Tb602 O614 2.374 . S
O603 Tb600 2.453 . S
O603 C619 1.245 . S
O604 Tb600 2.596 . S
O604 Tb602 2.343 . S
O604 C619 1.259 . S
O605 Tb600 2.374 . S
O605 C601 1.251 . S
C606 O610 1.275 . S
C606 O611 1.246 . S
O607 C601 1.263 . S
O607 Tb602 2.353 . S
C608 O612 1.245 . S
C608 O613 1.259 . S
C609 O614 1.250 . S
C609 O615 1.263 . S
O610 Tb602 2.427 . S
O610 C606 1.275 . S
O611 Tb602 2.513 . S
O611 C606 1.246 . S
O612 Tb602 2.453 . S
O612 C608 1.245 . S
O613 Tb600 2.343 . S
O613 Tb602 2.596 . S
O613 C608 1.259 . S
O614 Tb602 2.374 . S
O614 C609 1.250 . S
O615 Tb600 2.353 . S
O615 C609 1.263 . S
C616 O617 1.275 . S
C616 O618 1.246 . S
O617 Tb600 2.427 . S
O617 C616 1.275 . S
O618 Tb600 2.513 . S
O618 C616 1.246 . S
C619 O603 1.245 . S
C619 O604 1.259 . S
Tb620 O623 2.453 . S
Tb620 O624 2.596 . S
Tb620 O625 2.374 . S
Tb620 O633 2.343 . S
Tb620 O635 2.353 . S
Tb620 O637 2.427 . S
Tb620 O638 2.513 . S
C621 O625 1.251 . S
C621 O627 1.263 . S
Tb622 O624 2.343 . S
Tb622 O627 2.353 . S
Tb622 O630 2.427 . S
Tb622 O631 2.513 . S
Tb622 O632 2.453 . S
Tb622 O633 2.596 . S
Tb622 O634 2.374 . S
O623 Tb620 2.453 . S
O623 C639 1.245 . S
O624 Tb620 2.596 . S
O624 Tb622 2.343 . S
O624 C639 1.259 . S
O625 Tb620 2.374 . S
O625 C621 1.251 . S
C626 O630 1.275 . S
C626 O631 1.246 . S
O627 C621 1.263 . S
O627 Tb622 2.353 . S
C628 O632 1.245 . S
C628 O633 1.259 . S
C629 O634 1.250 . S
C629 O635 1.263 . S
O630 Tb622 2.427 . S
O630 C626 1.275 . S
O631 Tb622 2.513 . S
O631 C626 1.246 . S
O632 Tb622 2.453 . S
O632 C628 1.245 . S
O633 Tb620 2.343 . S
O633 Tb622 2.596 . S
O633 C628 1.259 . S
O634 Tb622 2.374 . S
O634 C629 1.250 . S
O635 Tb620 2.353 . S
O635 C629 1.263 . S
C636 O637 1.275 . S
C636 O638 1.246 . S
O637 Tb620 2.427 . S
O637 C636 1.275 . S
O638 Tb620 2.513 . S
O638 C636 1.246 . S
C639 O623 1.245 . S
C639 O624 1.259 . S
H640 C648 0.950 . S
H641 C653 0.950 . S
H642 C650 0.950 . S
H643 C652 0.950 . S
H644 C654 0.950 . S
H645 C656 0.950 . S
H646 C658 0.950 . S
H647 C659 0.950 . S
C648 H640 0.950 . S
C648 C649 1.386 . S
C648 C650 1.391 . S
C649 C648 1.386 . S
C649 C653 1.393 . S
C650 H642 0.950 . S
C650 C648 1.391 . S
C650 C651 1.400 . S
C651 C650 1.400 . S
C651 C652 1.398 . S
C651 C657 1.491 . S
C652 H643 0.950 . S
C652 C651 1.398 . S
C652 C653 1.391 . S
C653 H641 0.950 . S
C653 C649 1.393 . S
C653 C652 1.391 . S
C654 H644 0.950 . S
C654 C655 1.386 . S
C654 C656 1.391 . S
C655 C654 1.386 . S
C655 C659 1.393 . S
C656 H645 0.950 . S
C656 C654 1.391 . S
C656 C657 1.400 . S
C657 C651 1.491 . S
C657 C656 1.400 . S
C657 C658 1.398 . S
C658 H646 0.950 . S
C658 C657 1.398 . S
C658 C659 1.391 . S
C659 H647 0.950 . S
C659 C655 1.393 . S
C659 C658 1.391 . S
H660 C668 0.950 . S
H661 C673 0.950 . S
H662 C670 0.950 . S
H663 C672 0.950 . S
H664 C674 0.950 . S
H665 C676 0.950 . S
H666 C678 0.950 . S
H667 C679 0.950 . S
C668 H660 0.950 . S
C668 C669 1.386 . S
C668 C670 1.391 . S
C669 C668 1.386 . S
C669 C673 1.393 . S
C670 H662 0.950 . S
C670 C668 1.391 . S
C670 C671 1.400 . S
C671 C670 1.400 . S
C671 C672 1.398 . S
C671 C677 1.491 . S
C672 H663 0.950 . S
C672 C671 1.398 . S
C672 C673 1.391 . S
C673 H661 0.950 . S
C673 C669 1.393 . S
C673 C672 1.391 . S
C674 H664 0.950 . S
C674 C675 1.386 . S
C674 C676 1.391 . S
C675 C674 1.386 . S
C675 C679 1.393 . S
C676 H665 0.950 . S
C676 C674 1.391 . S
C676 C677 1.400 . S
C677 C671 1.491 . S
C677 C676 1.400 . S
C677 C678 1.398 . S
C678 H666 0.950 . S
C678 C677 1.398 . S
C678 C679 1.391 . S
C679 H667 0.950 . S
C679 C675 1.393 . S
C679 C678 1.391 . S
H680 C688 0.950 . S
H681 C693 0.950 . S
H682 C690 0.950 . S
H683 C692 0.950 . S
H684 C694 0.950 1_554 S
H685 C696 0.950 . S
H686 C698 0.950 . S
H687 C699 0.950 . S
C688 H680 0.950 . S
C688 C689 1.386 . S
C688 C690 1.391 . S
C689 C688 1.386 . S
C689 C693 1.393 . S
C690 H682 0.950 . S
C690 C688 1.391 . S
C690 C691 1.400 . S
C691 C690 1.400 . S
C691 C692 1.398 . S
C691 C697 1.491 . S
C692 H683 0.950 . S
C692 C691 1.398 . S
C692 C693 1.391 . S
C693 H681 0.950 . S
C693 C689 1.393 . S
C693 C692 1.391 . S
C694 H684 0.950 1_556 S
C694 C695 1.386 . S
C694 C696 1.391 . S
C695 C694 1.386 . S
C695 C699 1.393 . S
C696 H685 0.950 . S
C696 C694 1.391 . S
C696 C697 1.400 . S
C697 C691 1.491 . S
C697 C696 1.400 . S
C697 C698 1.398 . S
C698 H686 0.950 . S
C698 C697 1.398 . S
C698 C699 1.391 . S
C699 H687 0.950 . S
C699 C695 1.393 . S
C699 C698 1.391 . S
H700 C708 0.950 . S
H701 C713 0.950 . S
H702 C710 0.950 . S
H703 C712 0.950 . S
H704 C714 0.950 . S
H705 C716 0.950 . S
H706 C718 0.950 . S
H707 C719 0.950 1_556 S
C708 H700 0.950 . S
C708 C709 1.386 . S
C708 C710 1.391 . S
C709 C708 1.386 . S
C709 C713 1.393 . S
C710 H702 0.950 . S
C710 C708 1.391 . S
C710 C711 1.400 . S
C711 C710 1.400 . S
C711 C712 1.398 . S
C711 C717 1.491 . S
C712 H703 0.950 . S
C712 C711 1.398 . S
C712 C713 1.391 . S
C713 H701 0.950 . S
C713 C709 1.393 . S
C713 C712 1.391 . S
C714 H704 0.950 . S
C714 C715 1.386 . S
C714 C716 1.391 . S
C715 C714 1.386 . S
C715 C719 1.393 . S
C716 H705 0.950 . S
C716 C714 1.391 . S
C716 C717 1.400 . S
C717 C711 1.491 . S
C717 C716 1.400 . S
C717 C718 1.398 . S
C718 H706 0.950 . S
C718 C717 1.398 . S
C718 C719 1.391 . S
C719 H707 0.950 1_554 S
C719 C715 1.393 . S
C719 C718 1.391 . S
H720 C728 0.950 . S
H721 C733 0.950 . S
H722 C730 0.950 . S
H723 C732 0.950 . S
H724 C734 0.950 . S
H725 C736 0.950 . S
H726 C738 0.950 . S
H727 C739 0.950 . S
C728 H720 0.950 . S
C728 C729 1.386 . S
C728 C730 1.391 . S
C729 C728 1.386 . S
C729 C733 1.393 . S
C730 H722 0.950 . S
C730 C728 1.391 . S
C730 C731 1.400 . S
C731 C730 1.400 . S
C731 C732 1.398 . S
C731 C737 1.491 . S
C732 H723 0.950 . S
C732 C731 1.398 . S
C732 C733 1.391 . S
C733 H721 0.950 . S
C733 C729 1.393 . S
C733 C732 1.391 . S
C734 H724 0.950 . S
C734 C735 1.386 . S
C734 C736 1.391 . S
C735 C734 1.386 . S
C735 C739 1.393 . S
C736 H725 0.950 . S
C736 C734 1.391 . S
C736 C737 1.400 . S
C737 C731 1.491 . S
C737 C736 1.400 . S
C737 C738 1.398 . S
C738 H726 0.950 . S
C738 C737 1.398 . S
C738 C739 1.391 . S
C739 H727 0.950 . S
C739 C735 1.393 . S
C739 C738 1.391 . S
H740 C748 0.950 . S
H741 C753 0.950 . S
H742 C750 0.950 . S
H743 C752 0.950 . S
H744 C754 0.950 . S
H745 C756 0.950 . S
H746 C758 0.950 . S
H747 C759 0.950 . S
C748 H740 0.950 . S
C748 C749 1.386 . S
C748 C750 1.391 . S
C749 C748 1.386 . S
C749 C753 1.393 . S
C750 H742 0.950 . S
C750 C748 1.391 . S
C750 C751 1.400 . S
C751 C750 1.400 . S
C751 C752 1.398 . S
C751 C757 1.491 . S
C752 H743 0.950 . S
C752 C751 1.398 . S
C752 C753 1.391 . S
C753 H741 0.950 . S
C753 C749 1.393 . S
C753 C752 1.391 . S
C754 H744 0.950 . S
C754 C755 1.386 . S
C754 C756 1.391 . S
C755 C754 1.386 . S
C755 C759 1.393 . S
C756 H745 0.950 . S
C756 C754 1.391 . S
C756 C757 1.400 . S
C757 C751 1.491 . S
C757 C756 1.400 . S
C757 C758 1.398 . S
C758 H746 0.950 . S
C758 C757 1.398 . S
C758 C759 1.391 . S
C759 H747 0.950 . S
C759 C755 1.393 . S
C759 C758 1.391 . S
H760 C768 0.950 . S
H761 C773 0.950 . S
H762 C770 0.950 . S
H763 C772 0.950 . S
H764 C774 0.950 . S
H765 C776 0.950 . S
H766 C778 0.950 . S
H767 C779 0.950 . S
C768 H760 0.950 . S
C768 C769 1.386 . S
C768 C770 1.391 . S
C769 C768 1.386 . S
C769 C773 1.393 . S
C770 H762 0.950 . S
C770 C768 1.391 . S
C770 C771 1.400 . S
C771 C770 1.400 . S
C771 C772 1.398 . S
C771 C777 1.491 . S
C772 H763 0.950 . S
C772 C771 1.398 . S
C772 C773 1.391 . S
C773 H761 0.950 . S
C773 C769 1.393 . S
C773 C772 1.391 . S
C774 H764 0.950 . S
C774 C775 1.386 . S
C774 C776 1.391 . S
C775 C774 1.386 . S
C775 C779 1.393 . S
C776 H765 0.950 . S
C776 C774 1.391 . S
C776 C777 1.400 . S
C777 C771 1.491 . S
C777 C776 1.400 . S
C777 C778 1.398 . S
C778 H766 0.950 . S
C778 C777 1.398 . S
C778 C779 1.391 . S
C779 H767 0.950 . S
C779 C775 1.393 . S
C779 C778 1.391 . S
H780 C788 0.950 . S
H781 C793 0.950 . S
H782 C790 0.950 . S
H783 C792 0.950 . S
H784 C794 0.950 . S
H785 C796 0.950 . S
H786 C798 0.950 . S
H787 C799 0.950 . S
C788 H780 0.950 . S
C788 C789 1.386 . S
C788 C790 1.391 . S
C789 C788 1.386 . S
C789 C793 1.393 . S
C790 H782 0.950 . S
C790 C788 1.391 . S
C790 C791 1.400 . S
C791 C790 1.400 . S
C791 C792 1.398 . S
C791 C797 1.491 . S
C792 H783 0.950 . S
C792 C791 1.398 . S
C792 C793 1.391 . S
C793 H781 0.950 . S
C793 C789 1.393 . S
C793 C792 1.391 . S
C794 H784 0.950 . S
C794 C795 1.386 . S
C794 C796 1.391 . S
C795 C794 1.386 . S
C795 C799 1.393 . S
C796 H785 0.950 . S
C796 C794 1.391 . S
C796 C797 1.400 . S
C797 C791 1.491 . S
C797 C796 1.400 . S
C797 C798 1.398 . S
C798 H786 0.950 . S
C798 C797 1.398 . S
C798 C799 1.391 . S
C799 H787 0.950 . S
C799 C795 1.393 . S
C799 C798 1.391 . S
H800 C808 0.950 . S
H801 C813 0.950 . S
H802 C810 0.950 . S
H803 C812 0.950 . S
H804 C814 0.950 . S
H805 C816 0.950 . S
H806 C818 0.950 . S
H807 C819 0.950 . S
C808 H800 0.950 . S
C808 C809 1.386 . S
C808 C810 1.391 . S
C809 C808 1.386 . S
C809 C813 1.393 . S
C810 H802 0.950 . S
C810 C808 1.391 . S
C810 C811 1.400 . S
C811 C810 1.400 . S
C811 C812 1.398 . S
C811 C817 1.491 1_545 S
C812 H803 0.950 . S
C812 C811 1.398 . S
C812 C813 1.391 . S
C813 H801 0.950 . S
C813 C809 1.393 . S
C813 C812 1.391 . S
C814 H804 0.950 . S
C814 C815 1.386 . S
C814 C816 1.391 . S
C815 C814 1.386 . S
C815 C819 1.393 . S
C816 H805 0.950 . S
C816 C814 1.391 . S
C816 C817 1.400 . S
C817 C811 1.491 1_565 S
C817 C816 1.400 . S
C817 C818 1.398 . S
C818 H806 0.950 . S
C818 C817 1.398 . S
C818 C819 1.391 . S
C819 H807 0.950 . S
C819 C815 1.393 . S
C819 C818 1.391 . S
H820 C828 0.950 1_556 S
H821 C833 0.950 . S
H822 C830 0.950 . S
H823 C832 0.950 . S
H824 C834 0.950 . S
H825 C836 0.950 . S
H826 C838 0.950 . S
H827 C839 0.950 . S
C828 H820 0.950 1_554 S
C828 C829 1.386 . S
C828 C830 1.391 . S
C829 C828 1.386 . S
C829 C833 1.393 . S
C830 H822 0.950 . S
C830 C828 1.391 . S
C830 C831 1.400 . S
C831 C830 1.400 . S
C831 C832 1.398 . S
C831 C837 1.491 . S
C832 H823 0.950 . S
C832 C831 1.398 . S
C832 C833 1.391 . S
C833 H821 0.950 . S
C833 C829 1.393 . S
C833 C832 1.391 . S
C834 H824 0.950 . S
C834 C835 1.386 . S
C834 C836 1.391 . S
C835 C834 1.386 . S
C835 C839 1.393 . S
C836 H825 0.950 . S
C836 C834 1.391 . S
C836 C837 1.400 . S
C837 C831 1.491 . S
C837 C836 1.400 . S
C837 C838 1.398 . S
C838 H826 0.950 . S
C838 C837 1.398 . S
C838 C839 1.391 . S
C839 H827 0.950 . S
C839 C835 1.393 . S
C839 C838 1.391 . S
H840 C848 0.950 . S
H841 C853 0.950 . S
H842 C850 0.950 . S
H843 C852 0.950 . S
H844 C854 0.950 . S
H845 C856 0.950 . S
H846 C858 0.950 . S
H847 C859 0.950 . S
C848 H840 0.950 . S
C848 C849 1.386 . S
C848 C850 1.391 1_545 S
C849 C848 1.386 . S
C849 C853 1.393 . S
C850 H842 0.950 . S
C850 C848 1.391 1_565 S
C850 C851 1.400 1_565 S
C851 C850 1.400 1_545 S
C851 C852 1.398 . S
C851 C857 1.491 1_545 S
C852 H843 0.950 . S
C852 C851 1.398 . S
C852 C853 1.391 . S
C853 H841 0.950 . S
C853 C849 1.393 . S
C853 C852 1.391 . S
C854 H844 0.950 . S
C854 C855 1.386 . S
C854 C856 1.391 1_565 S
C855 C854 1.386 . S
C855 C859 1.393 . S
C856 H845 0.950 . S
C856 C854 1.391 1_545 S
C856 C857 1.400 1_545 S
C857 C851 1.491 1_565 S
C857 C856 1.400 1_565 S
C857 C858 1.398 . S
C858 H846 0.950 . S
C858 C857 1.398 . S
C858 C859 1.391 . S
C859 H847 0.950 . S
C859 C855 1.393 . S
C859 C858 1.391 . S
H860 C868 0.950 . S
H861 C873 0.950 . S
H862 C870 0.950 . S
H863 C872 0.950 . S
H864 C874 0.950 . S
H865 C876 0.950 . S
H866 C878 0.950 . S
H867 C879 0.950 . S
C868 H860 0.950 . S
C868 C869 1.386 . S
C868 C870 1.391 . S
C869 C868 1.386 . S
C869 C873 1.393 . S
C870 H862 0.950 . S
C870 C868 1.391 . S
C870 C871 1.400 . S
C871 C870 1.400 . S
C871 C872 1.398 . S
C871 C877 1.491 . S
C872 H863 0.950 . S
C872 C871 1.398 . S
C872 C873 1.391 . S
C873 H861 0.950 . S
C873 C869 1.393 . S
C873 C872 1.391 . S
C874 H864 0.950 . S
C874 C875 1.386 . S
C874 C876 1.391 . S
C875 C874 1.386 . S
C875 C879 1.393 . S
C876 H865 0.950 . S
C876 C874 1.391 . S
C876 C877 1.400 . S
C877 C871 1.491 . S
C877 C876 1.400 . S
C877 C878 1.398 . S
C878 H866 0.950 . S
C878 C877 1.398 . S
C878 C879 1.391 . S
C879 H867 0.950 . S
C879 C875 1.393 . S
C879 C878 1.391 . S
H880 C888 0.950 . S
H881 C893 0.950 . S
H882 C890 0.950 . S
H883 C892 0.950 . S
H884 C894 0.950 . S
H885 C896 0.950 . S
H886 C898 0.950 . S
H887 C899 0.950 . S
C888 H880 0.950 . S
C888 C889 1.386 . S
C888 C890 1.391 . S
C889 C888 1.386 . S
C889 C893 1.393 . S
C890 H882 0.950 . S
C890 C888 1.391 . S
C890 C891 1.400 . S
C891 C890 1.400 . S
C891 C892 1.398 . S
C891 C897 1.491 1_545 S
C892 H883 0.950 . S
C892 C891 1.398 . S
C892 C893 1.391 . S
C893 H881 0.950 . S
C893 C889 1.393 . S
C893 C892 1.391 . S
C894 H884 0.950 . S
C894 C895 1.386 . S
C894 C896 1.391 . S
C895 C894 1.386 . S
C895 C899 1.393 . S
C896 H885 0.950 . S
C896 C894 1.391 . S
C896 C897 1.400 . S
C897 C891 1.491 1_565 S
C897 C896 1.400 . S
C897 C898 1.398 . S
C898 H886 0.950 . S
C898 C897 1.398 . S
C898 C899 1.391 . S
C899 H887 0.950 . S
C899 C895 1.393 . S
C899 C898 1.391 . S
H900 C908 0.950 1_556 S
H901 C913 0.950 . S
H902 C910 0.950 . S
H903 C912 0.950 . S
H904 C914 0.950 . S
H905 C916 0.950 . S
H906 C918 0.950 . S
H907 C919 0.950 . S
C908 H900 0.950 1_554 S
C908 C909 1.386 . S
C908 C910 1.391 . S
C909 C908 1.386 . S
C909 C913 1.393 . S
C910 H902 0.950 . S
C910 C908 1.391 . S
C910 C911 1.400 . S
C911 C910 1.400 . S
C911 C912 1.398 . S
C911 C917 1.491 . S
C912 H903 0.950 . S
C912 C911 1.398 . S
C912 C913 1.391 . S
C913 H901 0.950 . S
C913 C909 1.393 . S
C913 C912 1.391 . S
C914 H904 0.950 . S
C914 C915 1.386 . S
C914 C916 1.391 . S
C915 C914 1.386 . S
C915 C919 1.393 . S
C916 H905 0.950 . S
C916 C914 1.391 . S
C916 C917 1.400 . S
C917 C911 1.491 . S
C917 C916 1.400 . S
C917 C918 1.398 . S
C918 H906 0.950 . S
C918 C917 1.398 . S
C918 C919 1.391 . S
C919 H907 0.950 . S
C919 C915 1.393 . S
C919 C918 1.391 . S
H920 C928 0.950 . S
H921 C933 0.931 1_544 S
H922 C930 0.950 . S
H923 C932 0.950 . S
H924 C934 0.950 . S
H925 C936 0.950 . S
H926 C938 0.950 . S
H927 C939 0.933 1_565 S
C928 H920 0.950 . S
C928 C929 1.386 . S
C928 C930 1.391 . S
C929 C928 1.386 . S
C929 C933 1.393 . S
C930 H922 0.950 . S
C930 C928 1.391 . S
C930 C931 1.400 . S
C931 C930 1.400 . S
C931 C932 1.398 1_565 S
C931 C937 1.491 1_565 S
C932 H923 0.950 . S
C932 C931 1.398 1_545 S
C932 C933 1.391 1_545 S
C933 H921 0.931 1_566 S
C933 C929 1.393 . S
C933 C932 1.391 1_565 S
C934 H924 0.950 . S
C934 C935 1.386 . S
C934 C936 1.391 . S
C935 C934 1.386 . S
C935 C939 1.393 . S
C936 H925 0.950 . S
C936 C934 1.391 . S
C936 C937 1.400 . S
C937 C931 1.491 1_545 S
C937 C936 1.400 . S
C937 C938 1.398 1_545 S
C938 H926 0.950 . S
C938 C937 1.398 1_565 S
C938 C939 1.391 1_565 S
C939 H927 0.933 1_545 S
C939 C935 1.393 . S
C939 C938 1.391 1_545 S
H940 C948 0.950 . S
H941 C953 0.950 . S
H942 C950 0.950 . S
H943 C952 0.950 . S
H944 C954 0.950 . S
H945 C956 0.950 . S
H946 C958 0.950 . S
H947 C959 0.950 . S
C948 H940 0.950 . S
C948 C949 1.386 . S
C948 C950 1.391 . S
C949 C948 1.386 . S
C949 C953 1.393 . S
C950 H942 0.950 . S
C950 C948 1.391 . S
C950 C951 1.400 . S
C951 C950 1.400 . S
C951 C952 1.398 . S
C951 C957 1.491 . S
C952 H943 0.950 . S
C952 C951 1.398 . S
C952 C953 1.391 . S
C953 H941 0.950 . S
C953 C949 1.393 . S
C953 C952 1.391 . S
C954 H944 0.950 . S
C954 C955 1.386 . S
C954 C956 1.391 . S
C955 C954 1.386 . S
C955 C959 1.393 . S
C956 H945 0.950 . S
C956 C954 1.391 . S
C956 C957 1.400 . S
C957 C951 1.491 . S
C957 C956 1.400 . S
C957 C958 1.398 . S
C958 H946 0.950 . S
C958 C957 1.398 . S
C958 C959 1.391 . S
C959 H947 0.950 . S
C959 C955 1.393 . S
C959 C958 1.391 . S
H960 C968 0.950 . S
H961 C973 0.950 . S
H962 C970 0.950 . S
H963 C972 0.950 . S
H964 C974 0.950 . S
H965 C976 0.950 . S
H966 C978 0.950 . S
H967 C979 0.950 . S
C968 H960 0.950 . S
C968 C969 1.386 . S
C968 C970 1.391 . S
C969 C968 1.386 . S
C969 C973 1.393 . S
C970 H962 0.950 . S
C970 C968 1.391 . S
C970 C971 1.400 . S
C971 C970 1.400 . S
C971 C972 1.398 . S
C971 C977 1.491 . S
C972 H963 0.950 . S
C972 C971 1.398 . S
C972 C973 1.391 . S
C973 H961 0.950 . S
C973 C969 1.393 . S
C973 C972 1.391 . S
C974 H964 0.950 . S
C974 C975 1.386 . S
C974 C976 1.391 . S
C975 C974 1.386 . S
C975 C979 1.393 . S
C976 H965 0.950 . S
C976 C974 1.391 . S
C976 C977 1.400 . S
C977 C971 1.491 . S
C977 C976 1.400 . S
C977 C978 1.398 . S
C978 H966 0.950 . S
C978 C977 1.398 . S
C978 C979 1.391 . S
C979 H967 0.950 . S
C979 C975 1.393 . S
C979 C978 1.391 . S
H980 C988 0.950 . S
H981 C993 0.950 . S
H982 C990 0.950 . S
H983 C992 0.950 . S
H984 C994 0.950 . S
H985 C996 0.950 . S
H986 C998 0.950 . S
H987 C999 0.950 . S
C988 H980 0.950 . S
C988 C989 1.386 . S
C988 C990 1.391 . S
C989 C988 1.386 . S
C989 C993 1.393 . S
C990 H982 0.950 . S
C990 C988 1.391 . S
C990 C991 1.400 . S
C991 C990 1.400 . S
C991 C992 1.398 . S
C991 C997 1.491 . S
C992 H983 0.950 . S
C992 C991 1.398 . S
C992 C993 1.391 . S
C993 H981 0.950 . S
C993 C989 1.393 . S
C993 C992 1.391 . S
C994 H984 0.950 . S
C994 C995 1.386 . S
C994 C996 1.391 . S
C995 C994 1.386 . S
C995 C999 1.393 . S
C996 H985 0.950 . S
C996 C994 1.391 . S
C996 C997 1.400 . S
C997 C991 1.491 . S
C997 C996 1.400 . S
C997 C998 1.398 . S
C998 H986 0.950 . S
C998 C997 1.398 . S
C998 C999 1.391 . S
C999 H987 0.950 . S
C999 C995 1.393 . S
C999 C998 1.391 . S
H1000 C1008 0.950 . S
H1001 C1013 0.950 . S
H1002 C1010 0.950 . S
H1003 C1012 0.950 . S
H1004 C1014 0.950 . S
H1005 C1016 0.950 . S
H1006 C1018 0.950 . S
H1007 C1019 0.950 . S
C1008 H1000 0.950 . S
C1008 C1009 1.386 . S
C1008 C1010 1.391 . S
C1009 C1008 1.386 . S
C1009 C1013 1.393 . S
C1010 H1002 0.950 . S
C1010 C1008 1.391 . S
C1010 C1011 1.400 . S
C1011 C1010 1.400 . S
C1011 C1012 1.398 . S
C1011 C1017 1.491 . S
C1012 H1003 0.950 . S
C1012 C1011 1.398 . S
C1012 C1013 1.391 . S
C1013 H1001 0.950 . S
C1013 C1009 1.393 . S
C1013 C1012 1.391 . S
C1014 H1004 0.950 . S
C1014 C1015 1.386 . S
C1014 C1016 1.391 . S
C1015 C1014 1.386 . S
C1015 C1019 1.393 . S
C1016 H1005 0.950 . S
C1016 C1014 1.391 . S
C1016 C1017 1.400 . S
C1017 C1011 1.491 . S
C1017 C1016 1.400 . S
C1017 C1018 1.398 . S
C1018 H1006 0.950 . S
C1018 C1017 1.398 . S
C1018 C1019 1.391 . S
C1019 H1007 0.950 . S
C1019 C1015 1.393 . S
C1019 C1018 1.391 . S
H1020 C1028 0.950 . S
H1021 C1033 0.950 . S
H1022 C1030 0.950 . S
H1023 C1032 0.950 . S
H1024 C1034 0.950 . S
H1025 C1036 0.950 . S
H1026 C1038 0.950 . S
H1027 C1039 0.950 . S
C1028 H1020 0.950 . S
C1028 C1029 1.386 . S
C1028 C1030 1.391 1_556 S
C1029 C1028 1.386 . S
C1029 C1033 1.393 . S
C1030 H1022 0.950 . S
C1030 C1028 1.391 1_554 S
C1030 C1031 1.400 . S
C1031 C1030 1.400 . S
C1031 C1032 1.398 1_554 S
C1031 C1037 1.491 . S
C1032 H1023 0.950 . S
C1032 C1031 1.398 1_556 S
C1032 C1033 1.391 . S
C1033 H1021 0.950 . S
C1033 C1029 1.393 . S
C1033 C1032 1.391 . S
C1034 H1024 0.950 . S
C1034 C1035 1.386 . S
C1034 C1036 1.391 . S
C1035 C1034 1.386 . S
C1035 C1039 1.393 . S
C1036 H1025 0.950 . S
C1036 C1034 1.391 . S
C1036 C1037 1.400 . S
C1037 C1031 1.491 . S
C1037 C1036 1.400 . S
C1037 C1038 1.398 . S
C1038 H1026 0.950 . S
C1038 C1037 1.398 . S
C1038 C1039 1.391 . S
C1039 H1027 0.950 . S
C1039 C1035 1.393 . S
C1039 C1038 1.391 . S
H1040 C1048 0.950 . S
H1041 C1053 0.950 . S
H1042 C1050 0.950 . S
H1043 C1052 0.950 . S
H1044 C1054 0.950 . S
H1045 C1056 0.950 . S
H1046 C1058 0.950 . S
H1047 C1059 0.950 . S
C1048 H1040 0.950 . S
C1048 C1049 1.386 . S
C1048 C1050 1.391 . S
C1049 C1048 1.386 . S
C1049 C1053 1.393 . S
C1050 H1042 0.950 . S
C1050 C1048 1.391 . S
C1050 C1051 1.400 . S
C1051 C1050 1.400 . S
C1051 C1052 1.398 . S
C1051 C1057 1.491 . S
C1052 H1043 0.950 . S
C1052 C1051 1.398 . S
C1052 C1053 1.391 . S
C1053 H1041 0.950 . S
C1053 C1049 1.393 . S
C1053 C1052 1.391 . S
C1054 H1044 0.950 . S
C1054 C1055 1.386 . S
C1054 C1056 1.391 . S
C1055 C1054 1.386 . S
C1055 C1059 1.393 . S
C1056 H1045 0.950 . S
C1056 C1054 1.391 . S
C1056 C1057 1.400 . S
C1057 C1051 1.491 . S
C1057 C1056 1.400 . S
C1057 C1058 1.398 . S
C1058 H1046 0.950 . S
C1058 C1057 1.398 . S
C1058 C1059 1.391 . S
C1059 H1047 0.950 . S
C1059 C1055 1.393 . S
C1059 C1058 1.391 . S
H1060 C1068 0.950 . S
H1061 C1073 0.950 . S
H1062 C1070 0.950 . S
H1063 C1072 0.950 . S
H1064 C1074 0.950 . S
H1065 C1076 0.950 . S
H1066 C1078 0.950 . S
H1067 C1079 0.950 . S
C1068 H1060 0.950 . S
C1068 C1069 1.386 . S
C1068 C1070 1.391 . S
C1069 C1068 1.386 . S
C1069 C1073 1.393 . S
C1070 H1062 0.950 . S
C1070 C1068 1.391 . S
C1070 C1071 1.400 . S
C1071 C1070 1.400 . S
C1071 C1072 1.398 . S
C1071 C1077 1.491 . S
C1072 H1063 0.950 . S
C1072 C1071 1.398 . S
C1072 C1073 1.391 . S
C1073 H1061 0.950 . S
C1073 C1069 1.393 . S
C1073 C1072 1.391 . S
C1074 H1064 0.950 . S
C1074 C1075 1.386 . S
C1074 C1076 1.391 . S
C1075 C1074 1.386 . S
C1075 C1079 1.393 . S
C1076 H1065 0.950 . S
C1076 C1074 1.391 . S
C1076 C1077 1.400 . S
C1077 C1071 1.491 . S
C1077 C1076 1.400 . S
C1077 C1078 1.398 . S
C1078 H1066 0.950 . S
C1078 C1077 1.398 . S
C1078 C1079 1.391 . S
C1079 H1067 0.950 . S
C1079 C1075 1.393 . S
C1079 C1078 1.391 . S
H1080 C1088 0.950 . S
H1081 C1093 0.950 . S
H1082 C1090 0.950 . S
H1083 C1092 0.950 . S
H1084 C1094 0.950 . S
H1085 C1096 0.950 . S
H1086 C1098 0.950 . S
H1087 C1099 0.950 1_554 S
C1088 H1080 0.950 . S
C1088 C1089 1.386 . S
C1088 C1090 1.391 . S
C1089 C1088 1.386 . S
C1089 C1093 1.393 1_554 S
C1090 H1082 0.950 . S
C1090 C1088 1.391 . S
C1090 C1091 1.400 . S
C1091 C1090 1.400 . S
C1091 C1092 1.398 1_554 S
C1091 C1097 1.491 1_554 S
C1092 H1083 0.950 . S
C1092 C1091 1.398 1_556 S
C1092 C1093 1.391 . S
C1093 H1081 0.950 . S
C1093 C1089 1.393 1_556 S
C1093 C1092 1.391 . S
C1094 H1084 0.950 . S
C1094 C1095 1.386 . S
C1094 C1096 1.391 . S
C1095 C1094 1.386 . S
C1095 C1099 1.393 . S
C1096 H1085 0.950 . S
C1096 C1094 1.391 . S
C1096 C1097 1.400 . S
C1097 C1091 1.491 1_556 S
C1097 C1096 1.400 . S
C1097 C1098 1.398 1_556 S
C1098 H1086 0.950 . S
C1098 C1097 1.398 1_554 S
C1098 C1099 1.391 1_554 S
C1099 H1087 0.950 1_556 S
C1099 C1095 1.393 . S
C1099 C1098 1.391 1_556 S
H1100 C1108 0.950 . S
H1101 C1113 0.950 . S
H1102 C1110 0.950 . S
H1103 C1112 0.950 . S
H1104 C1114 0.950 . S
H1105 C1116 0.950 . S
H1106 C1118 0.950 . S
H1107 C1119 0.950 . S
C1108 H1100 0.950 . S
C1108 C1109 1.386 . S
C1108 C1110 1.391 . S
C1109 C1108 1.386 . S
C1109 C1113 1.393 . S
C1110 H1102 0.950 . S
C1110 C1108 1.391 . S
C1110 C1111 1.400 . S
C1111 C1110 1.400 . S
C1111 C1112 1.398 . S
C1111 C1117 1.491 . S
C1112 H1103 0.950 . S
C1112 C1111 1.398 . S
C1112 C1113 1.391 . S
C1113 H1101 0.950 . S
C1113 C1109 1.393 . S
C1113 C1112 1.391 . S
C1114 H1104 0.950 . S
C1114 C1115 1.386 . S
C1114 C1116 1.391 . S
C1115 C1114 1.386 . S
C1115 C1119 1.393 . S
C1116 H1105 0.950 . S
C1116 C1114 1.391 . S
C1116 C1117 1.400 . S
C1117 C1111 1.491 . S
C1117 C1116 1.400 . S
C1117 C1118 1.398 . S
C1118 H1106 0.950 . S
C1118 C1117 1.398 . S
C1118 C1119 1.391 . S
C1119 H1107 0.950 . S
C1119 C1115 1.393 . S
C1119 C1118 1.391 . S
H1120 C1128 0.950 . S
H1121 C1133 0.950 . S
H1122 C1130 0.950 . S
H1123 C1132 0.950 . S
H1124 C1134 0.950 . S
H1125 C1136 0.950 . S
H1126 C1138 0.950 . S
H1127 C1139 0.950 . S
C1128 H1120 0.950 . S
C1128 C1129 1.386 . S
C1128 C1130 1.391 . S
C1129 C1128 1.386 . S
C1129 C1133 1.393 . S
C1130 H1122 0.950 . S
C1130 C1128 1.391 . S
C1130 C1131 1.400 . S
C1131 C1130 1.400 . S
C1131 C1132 1.398 . S
C1131 C1137 1.491 . S
C1132 H1123 0.950 . S
C1132 C1131 1.398 . S
C1132 C1133 1.391 . S
C1133 H1121 0.950 . S
C1133 C1129 1.393 . S
C1133 C1132 1.391 . S
C1134 H1124 0.950 . S
C1134 C1135 1.386 . S
C1134 C1136 1.391 . S
C1135 C1134 1.386 . S
C1135 C1139 1.393 . S
C1136 H1125 0.950 . S
C1136 C1134 1.391 . S
C1136 C1137 1.400 1_556 S
C1137 C1131 1.491 . S
C1137 C1136 1.400 1_554 S
C1137 C1138 1.398 1_554 S
C1138 H1126 0.950 . S
C1138 C1137 1.398 1_556 S
C1138 C1139 1.391 . S
C1139 H1127 0.950 . S
C1139 C1135 1.393 . S
C1139 C1138 1.391 . S
H1140 C1148 0.950 . S
H1141 C1153 0.950 . S
H1142 C1150 0.950 . S
H1143 C1152 0.950 . S
H1144 C1154 0.950 . S
H1145 C1156 0.950 . S
H1146 C1158 0.950 . S
H1147 C1159 0.950 . S
C1148 H1140 0.950 . S
C1148 C1149 1.386 . S
C1148 C1150 1.391 . S
C1149 C1148 1.386 . S
C1149 C1153 1.393 . S
C1150 H1142 0.950 . S
C1150 C1148 1.391 . S
C1150 C1151 1.400 . S
C1151 C1150 1.400 . S
C1151 C1152 1.398 . S
C1151 C1157 1.491 . S
C1152 H1143 0.950 . S
C1152 C1151 1.398 . S
C1152 C1153 1.391 . S
C1153 H1141 0.950 . S
C1153 C1149 1.393 . S
C1153 C1152 1.391 . S
C1154 H1144 0.950 . S
C1154 C1155 1.386 . S
C1154 C1156 1.391 . S
C1155 C1154 1.386 . S
C1155 C1159 1.393 . S
C1156 H1145 0.950 . S
C1156 C1154 1.391 . S
C1156 C1157 1.400 . S
C1157 C1151 1.491 . S
C1157 C1156 1.400 . S
C1157 C1158 1.398 . S
C1158 H1146 0.950 . S
C1158 C1157 1.398 . S
C1158 C1159 1.391 . S
C1159 H1147 0.950 . S
C1159 C1155 1.393 . S
C1159 C1158 1.391 . S
H1160 C1168 0.950 . S
H1161 C1173 0.950 . S
H1162 C1170 0.950 . S
H1163 C1172 0.950 . S
H1164 C1174 0.950 . S
H1165 C1176 0.950 . S
H1166 C1178 0.950 . S
H1167 C1179 0.950 . S
C1168 H1160 0.950 . S
C1168 C1169 1.386 . S
C1168 C1170 1.391 . S
C1169 C1168 1.386 . S
C1169 C1173 1.393 . S
C1170 H1162 0.950 . S
C1170 C1168 1.391 . S
C1170 C1171 1.400 . S
C1171 C1170 1.400 . S
C1171 C1172 1.398 . S
C1171 C1177 1.491 . S
C1172 H1163 0.950 . S
C1172 C1171 1.398 . S
C1172 C1173 1.391 . S
C1173 H1161 0.950 . S
C1173 C1169 1.393 . S
C1173 C1172 1.391 . S
C1174 H1164 0.950 . S
C1174 C1175 1.386 . S
C1174 C1176 1.391 . S
C1175 C1174 1.386 . S
C1175 C1179 1.393 . S
C1176 H1165 0.950 . S
C1176 C1174 1.391 . S
C1176 C1177 1.400 . S
C1177 C1171 1.491 . S
C1177 C1176 1.400 . S
C1177 C1178 1.398 . S
C1178 H1166 0.950 . S
C1178 C1177 1.398 . S
C1178 C1179 1.391 . S
C1179 H1167 0.950 . S
C1179 C1175 1.393 . S
C1179 C1178 1.391 . S
H1180 C1188 0.950 . S
H1181 C1193 0.950 . S
H1182 C1190 0.950 . S
H1183 C1192 0.950 . S
H1184 C1194 0.950 . S
H1185 C1196 0.950 . S
H1186 C1198 0.950 . S
H1187 C1199 0.950 . S
C1188 H1180 0.950 . S
C1188 C1189 1.386 . S
C1188 C1190 1.391 . S
C1189 C1188 1.386 . S
C1189 C1193 1.393 . S
C1190 H1182 0.950 . S
C1190 C1188 1.391 . S
C1190 C1191 1.400 . S
C1191 C1190 1.400 . S
C1191 C1192 1.398 . S
C1191 C1197 1.491 . S
C1192 H1183 0.950 . S
C1192 C1191 1.398 . S
C1192 C1193 1.391 . S
C1193 H1181 0.950 . S
C1193 C1189 1.393 . S
C1193 C1192 1.391 . S
C1194 H1184 0.950 . S
C1194 C1195 1.386 . S
C1194 C1196 1.391 . S
C1195 C1194 1.386 . S
C1195 C1199 1.393 . S
C1196 H1185 0.950 . S
C1196 C1194 1.391 . S
C1196 C1197 1.400 . S
C1197 C1191 1.491 . S
C1197 C1196 1.400 . S
C1197 C1198 1.398 . S
C1198 H1186 0.950 . S
C1198 C1197 1.398 . S
C1198 C1199 1.391 . S
C1199 H1187 0.950 . S
C1199 C1195 1.393 . S
C1199 C1198 1.391 . S
H1200 C1208 0.950 . S
H1201 C1213 0.950 . S
H1202 C1210 0.950 . S
H1203 C1212 0.950 . S
H1204 C1214 0.950 . S
H1205 C1216 0.950 . S
H1206 C1218 0.950 . S
H1207 C1219 0.950 . S
C1208 H1200 0.950 . S
C1208 C1209 1.386 . S
C1208 C1210 1.391 . S
C1209 C1208 1.386 . S
C1209 C1213 1.393 . S
C1210 H1202 0.950 . S
C1210 C1208 1.391 . S
C1210 C1211 1.400 . S
C1211 C1210 1.400 . S
C1211 C1212 1.398 . S
C1211 C1217 1.491 . S
C1212 H1203 0.950 . S
C1212 C1211 1.398 . S
C1212 C1213 1.391 . S
C1213 H1201 0.950 . S
C1213 C1209 1.393 . S
C1213 C1212 1.391 . S
C1214 H1204 0.950 . S
C1214 C1215 1.386 . S
C1214 C1216 1.391 . S
C1215 C1214 1.386 . S
C1215 C1219 1.393 . S
C1216 H1205 0.950 . S
C1216 C1214 1.391 . S
C1216 C1217 1.400 . S
C1217 C1211 1.491 . S
C1217 C1216 1.400 . S
C1217 C1218 1.398 . S
C1218 H1206 0.950 . S
C1218 C1217 1.398 . S
C1218 C1219 1.391 . S
C1219 H1207 0.950 . S
C1219 C1215 1.393 . S
C1219 C1218 1.391 . S
H1220 C1228 0.950 . S
H1221 C1233 0.950 . S
H1222 C1230 0.950 . S
H1223 C1232 0.950 . S
H1224 C1234 0.950 . S
H1225 C1236 0.950 . S
H1226 C1238 0.950 . S
H1227 C1239 0.950 . S
C1228 H1220 0.950 . S
C1228 C1229 1.386 . S
C1228 C1230 1.391 . S
C1229 C1228 1.386 . S
C1229 C1233 1.393 . S
C1230 H1222 0.950 . S
C1230 C1228 1.391 . S
C1230 C1231 1.400 . S
C1231 C1230 1.400 . S
C1231 C1232 1.398 . S
C1231 C1237 1.491 . S
C1232 H1223 0.950 . S
C1232 C1231 1.398 . S
C1232 C1233 1.391 . S
C1233 H1221 0.950 . S
C1233 C1229 1.393 . S
C1233 C1232 1.391 . S
C1234 H1224 0.950 . S
C1234 C1235 1.386 . S
C1234 C1236 1.391 . S
C1235 C1234 1.386 . S
C1235 C1239 1.393 . S
C1236 H1225 0.950 . S
C1236 C1234 1.391 . S
C1236 C1237 1.400 . S
C1237 C1231 1.491 . S
C1237 C1236 1.400 . S
C1237 C1238 1.398 . S
C1238 H1226 0.950 . S
C1238 C1237 1.398 . S
C1238 C1239 1.391 . S
C1239 H1227 0.950 . S
C1239 C1235 1.393 . S
C1239 C1238 1.391 . S
H1240 C1248 0.950 . S
H1241 C1253 0.950 . S
H1242 C1250 0.950 . S
H1243 C1252 0.950 . S
H1244 C1254 0.950 . S
H1245 C1256 0.950 . S
H1246 C1258 0.950 . S
H1247 C1259 0.950 . S
C1248 H1240 0.950 . S
C1248 C1249 1.386 . S
C1248 C1250 1.391 . S
C1249 C1248 1.386 . S
C1249 C1253 1.393 . S
C1250 H1242 0.950 . S
C1250 C1248 1.391 . S
C1250 C1251 1.400 . S
C1251 C1250 1.400 . S
C1251 C1252 1.398 . S
C1251 C1257 1.491 . S
C1252 H1243 0.950 . S
C1252 C1251 1.398 . S
C1252 C1253 1.391 . S
C1253 H1241 0.950 . S
C1253 C1249 1.393 . S
C1253 C1252 1.391 . S
C1254 H1244 0.950 . S
C1254 C1255 1.386 . S
C1254 C1256 1.391 . S
C1255 C1254 1.386 . S
C1255 C1259 1.393 . S
C1256 H1245 0.950 . S
C1256 C1254 1.391 . S
C1256 C1257 1.400 . S
C1257 C1251 1.491 . S
C1257 C1256 1.400 . S
C1257 C1258 1.398 . S
C1258 H1246 0.950 . S
C1258 C1257 1.398 . S
C1258 C1259 1.391 . S
C1259 H1247 0.950 . S
C1259 C1255 1.393 . S
C1259 C1258 1.391 . S
H1260 C1268 0.950 . S
H1261 C1273 0.950 1_554 S
H1262 C1270 0.950 . S
H1263 C1272 0.950 . S
H1264 C1274 0.950 . S
H1265 C1276 0.950 . S
H1266 C1278 0.950 . S
H1267 C1279 0.950 . S
C1268 H1260 0.950 . S
C1268 C1269 1.386 . S
C1268 C1270 1.391 . S
C1269 C1268 1.386 . S
C1269 C1273 1.393 . S
C1270 H1262 0.950 . S
C1270 C1268 1.391 . S
C1270 C1271 1.400 . S
C1271 C1270 1.400 . S
C1271 C1272 1.398 1_556 S
C1271 C1277 1.491 1_556 S
C1272 H1263 0.950 . S
C1272 C1271 1.398 1_554 S
C1272 C1273 1.391 1_554 S
C1273 H1261 0.950 1_556 S
C1273 C1269 1.393 . S
C1273 C1272 1.391 1_556 S
C1274 H1264 0.950 . S
C1274 C1275 1.386 . S
C1274 C1276 1.391 . S
C1275 C1274 1.386 . S
C1275 C1279 1.393 1_554 S
C1276 H1265 0.950 . S
C1276 C1274 1.391 . S
C1276 C1277 1.400 . S
C1277 C1271 1.491 1_554 S
C1277 C1276 1.400 . S
C1277 C1278 1.398 1_554 S
C1278 H1266 0.950 . S
C1278 C1277 1.398 1_556 S
C1278 C1279 1.391 . S
C1279 H1267 0.950 . S
C1279 C1275 1.393 1_556 S
C1279 C1278 1.391 . S
H1280 C1288 0.950 . S
H1281 C1293 0.950 . S
H1282 C1290 0.950 . S
H1283 C1292 0.950 . S
H1284 C1294 0.950 . S
H1285 C1296 0.950 . S
H1286 C1298 0.950 . S
H1287 C1299 0.950 . S
C1288 H1280 0.950 . S
C1288 C1289 1.386 . S
C1288 C1290 1.391 . S
C1289 C1288 1.386 . S
C1289 C1293 1.393 . S
C1290 H1282 0.950 . S
C1290 C1288 1.391 . S
C1290 C1291 1.400 . S
C1291 C1290 1.400 . S
C1291 C1292 1.398 . S
C1291 C1297 1.491 1_655 S
C1292 H1283 0.950 . S
C1292 C1291 1.398 . S
C1292 C1293 1.391 . S
C1293 H1281 0.950 . S
C1293 C1289 1.393 . S
C1293 C1292 1.391 . S
C1294 H1284 0.950 . S
C1294 C1295 1.386 . S
C1294 C1296 1.391 . S
C1295 C1294 1.386 . S
C1295 C1299 1.393 . S
C1296 H1285 0.950 . S
C1296 C1294 1.391 . S
C1296 C1297 1.400 . S
C1297 C1291 1.491 1_455 S
C1297 C1296 1.400 . S
C1297 C1298 1.398 . S
C1298 H1286 0.950 . S
C1298 C1297 1.398 . S
C1298 C1299 1.391 . S
C1299 H1287 0.950 . S
C1299 C1295 1.393 . S
C1299 C1298 1.391 . S
H1300 C1308 0.950 . S
H1301 C1313 0.950 . S
H1302 C1310 0.950 . S
H1303 C1312 0.950 . S
H1304 C1314 0.950 . S
H1305 C1316 0.950 . S
H1306 C1318 0.950 . S
H1307 C1319 0.950 . S
C1308 H1300 0.950 . S
C1308 C1309 1.386 . S
C1308 C1310 1.391 . S
C1309 C1308 1.386 . S
C1309 C1313 1.393 . S
C1310 H1302 0.950 . S
C1310 C1308 1.391 . S
C1310 C1311 1.400 . S
C1311 C1310 1.400 . S
C1311 C1312 1.398 . S
C1311 C1317 1.491 . S
C1312 H1303 0.950 . S
C1312 C1311 1.398 . S
C1312 C1313 1.391 . S
C1313 H1301 0.950 . S
C1313 C1309 1.393 . S
C1313 C1312 1.391 . S
C1314 H1304 0.950 . S
C1314 C1315 1.386 . S
C1314 C1316 1.391 . S
C1315 C1314 1.386 . S
C1315 C1319 1.393 . S
C1316 H1305 0.950 . S
C1316 C1314 1.391 . S
C1316 C1317 1.400 . S
C1317 C1311 1.491 . S
C1317 C1316 1.400 . S
C1317 C1318 1.398 . S
C1318 H1306 0.950 . S
C1318 C1317 1.398 . S
C1318 C1319 1.391 . S
C1319 H1307 0.950 . S
C1319 C1315 1.393 . S
C1319 C1318 1.391 . S
H1320 C1328 0.950 . S
H1321 C1333 0.950 . S
H1322 C1330 0.950 . S
H1323 C1332 0.950 . S
H1324 C1334 0.950 . S
H1325 C1336 0.950 . S
H1326 C1338 0.950 . S
H1327 C1339 0.950 . S
C1328 H1320 0.950 . S
C1328 C1329 1.386 . S
C1328 C1330 1.391 . S
C1329 C1328 1.386 . S
C1329 C1333 1.393 . S
C1330 H1322 0.950 . S
C1330 C1328 1.391 . S
C1330 C1331 1.400 . S
C1331 C1330 1.400 . S
C1331 C1332 1.398 . S
C1331 C1337 1.491 . S
C1332 H1323 0.950 . S
C1332 C1331 1.398 . S
C1332 C1333 1.391 . S
C1333 H1321 0.950 . S
C1333 C1329 1.393 . S
C1333 C1332 1.391 . S
C1334 H1324 0.950 . S
C1334 C1335 1.386 . S
C1334 C1336 1.391 . S
C1335 C1334 1.386 . S
C1335 C1339 1.393 . S
C1336 H1325 0.950 . S
C1336 C1334 1.391 . S
C1336 C1337 1.400 . S
C1337 C1331 1.491 . S
C1337 C1336 1.400 . S
C1337 C1338 1.398 . S
C1338 H1326 0.950 . S
C1338 C1337 1.398 . S
C1338 C1339 1.391 . S
C1339 H1327 0.950 . S
C1339 C1335 1.393 . S
C1339 C1338 1.391 . S
H1340 C1348 0.950 . S
H1341 C1353 0.950 . S
H1342 C1350 0.950 . S
H1343 C1352 0.950 . S
H1344 C1354 0.950 . S
H1345 C1356 0.950 . S
H1346 C1358 0.950 . S
H1347 C1359 0.950 . S
C1348 H1340 0.950 . S
C1348 C1349 1.386 . S
C1348 C1350 1.391 . S
C1349 C1348 1.386 . S
C1349 C1353 1.393 . S
C1350 H1342 0.950 . S
C1350 C1348 1.391 . S
C1350 C1351 1.400 . S
C1351 C1350 1.400 . S
C1351 C1352 1.398 . S
C1351 C1357 1.491 . S
C1352 H1343 0.950 . S
C1352 C1351 1.398 . S
C1352 C1353 1.391 . S
C1353 H1341 0.950 . S
C1353 C1349 1.393 . S
C1353 C1352 1.391 . S
C1354 H1344 0.950 . S
C1354 C1355 1.386 . S
C1354 C1356 1.391 . S
C1355 C1354 1.386 . S
C1355 C1359 1.393 . S
C1356 H1345 0.950 . S
C1356 C1354 1.391 . S
C1356 C1357 1.400 . S
C1357 C1351 1.491 . S
C1357 C1356 1.400 . S
C1357 C1358 1.398 . S
C1358 H1346 0.950 . S
C1358 C1357 1.398 . S
C1358 C1359 1.391 . S
C1359 H1347 0.950 . S
C1359 C1355 1.393 . S
C1359 C1358 1.391 . S
H1360 C1368 0.950 . S
H1361 C1373 0.950 . S
H1362 C1370 0.950 1_455 S
H1363 C1372 0.950 . S
H1364 C1374 0.950 . S
H1365 C1376 0.950 1_655 S
H1366 C1378 0.950 . S
H1367 C1379 0.950 . S
C1368 H1360 0.950 . S
C1368 C1369 1.386 . S
C1368 C1370 1.391 . S
C1369 C1368 1.386 . S
C1369 C1373 1.393 . S
C1370 H1362 0.950 1_655 S
C1370 C1368 1.391 . S
C1370 C1371 1.400 . S
C1371 C1370 1.400 . S
C1371 C1372 1.398 . S
C1371 C1377 1.491 1_655 S
C1372 H1363 0.950 . S
C1372 C1371 1.398 . S
C1372 C1373 1.391 . S
C1373 H1361 0.950 . S
C1373 C1369 1.393 . S
C1373 C1372 1.391 . S
C1374 H1364 0.950 . S
C1374 C1375 1.386 . S
C1374 C1376 1.391 . S
C1375 C1374 1.386 . S
C1375 C1379 1.393 . S
C1376 H1365 0.950 1_455 S
C1376 C1374 1.391 . S
C1376 C1377 1.400 . S
C1377 C1371 1.491 1_455 S
C1377 C1376 1.400 . S
C1377 C1378 1.398 . S
C1378 H1366 0.950 . S
C1378 C1377 1.398 . S
C1378 C1379 1.391 . S
C1379 H1367 0.950 . S
C1379 C1375 1.393 . S
C1379 C1378 1.391 . S
H1380 C1388 0.950 . S
H1381 C1393 0.950 . S
H1382 C1390 0.950 . S
H1383 C1392 0.950 . S
H1384 C1394 0.950 . S
H1385 C1396 0.950 . S
H1386 C1398 0.950 . S
H1387 C1399 0.950 . S
C1388 H1380 0.950 . S
C1388 C1389 1.386 . S
C1388 C1390 1.391 . S
C1389 C1388 1.386 . S
C1389 C1393 1.393 . S
C1390 H1382 0.950 . S
C1390 C1388 1.391 . S
C1390 C1391 1.400 . S
C1391 C1390 1.400 . S
C1391 C1392 1.398 . S
C1391 C1397 1.491 . S
C1392 H1383 0.950 . S
C1392 C1391 1.398 . S
C1392 C1393 1.391 . S
C1393 H1381 0.950 . S
C1393 C1389 1.393 . S
C1393 C1392 1.391 . S
C1394 H1384 0.950 . S
C1394 C1395 1.386 . S
C1394 C1396 1.391 . S
C1395 C1394 1.386 . S
C1395 C1399 1.393 . S
C1396 H1385 0.950 . S
C1396 C1394 1.391 . S
C1396 C1397 1.400 . S
C1397 C1391 1.491 . S
C1397 C1396 1.400 . S
C1397 C1398 1.398 . S
C1398 H1386 0.950 . S
C1398 C1397 1.398 . S
C1398 C1399 1.391 . S
C1399 H1387 0.950 . S
C1399 C1395 1.393 . S
C1399 C1398 1.391 . S
H1400 C1408 0.950 . S
H1401 C1413 0.950 . S
H1402 C1410 0.950 . S
H1403 C1412 0.950 . S
H1404 C1414 0.950 . S
H1405 C1416 0.950 . S
H1406 C1418 0.950 . S
H1407 C1419 0.950 . S
C1408 H1400 0.950 . S
C1408 C1409 1.386 . S
C1408 C1410 1.391 . S
C1409 C1408 1.386 . S
C1409 C1413 1.393 . S
C1410 H1402 0.950 . S
C1410 C1408 1.391 . S
C1410 C1411 1.400 . S
C1411 C1410 1.400 . S
C1411 C1412 1.398 . S
C1411 C1417 1.491 . S
C1412 H1403 0.950 . S
C1412 C1411 1.398 . S
C1412 C1413 1.391 . S
C1413 H1401 0.950 . S
C1413 C1409 1.393 . S
C1413 C1412 1.391 . S
C1414 H1404 0.950 . S
C1414 C1415 1.386 . S
C1414 C1416 1.391 . S
C1415 C1414 1.386 . S
C1415 C1419 1.393 . S
C1416 H1405 0.950 . S
C1416 C1414 1.391 . S
C1416 C1417 1.400 . S
C1417 C1411 1.491 . S
C1417 C1416 1.400 . S
C1417 C1418 1.398 . S
C1418 H1406 0.950 . S
C1418 C1417 1.398 . S
C1418 C1419 1.391 . S
C1419 H1407 0.950 . S
C1419 C1415 1.393 . S
C1419 C1418 1.391 . S
H1420 C1428 0.950 . S
H1421 C1433 0.950 . S
H1422 C1430 0.950 . S
H1423 C1432 0.950 . S
H1424 C1434 0.950 . S
H1425 C1436 0.950 . S
H1426 C1438 0.950 . S
H1427 C1439 0.950 . S
C1428 H1420 0.950 . S
C1428 C1429 1.386 . S
C1428 C1430 1.391 . S
C1429 C1428 1.386 . S
C1429 C1433 1.393 . S
C1430 H1422 0.950 . S
C1430 C1428 1.391 . S
C1430 C1431 1.400 . S
C1431 C1430 1.400 . S
C1431 C1432 1.398 . S
C1431 C1437 1.491 . S
C1432 H1423 0.950 . S
C1432 C1431 1.398 . S
C1432 C1433 1.391 . S
C1433 H1421 0.950 . S
C1433 C1429 1.393 . S
C1433 C1432 1.391 . S
C1434 H1424 0.950 . S
C1434 C1435 1.386 . S
C1434 C1436 1.391 . S
C1435 C1434 1.386 . S
C1435 C1439 1.393 . S
C1436 H1425 0.950 . S
C1436 C1434 1.391 . S
C1436 C1437 1.400 . S
C1437 C1431 1.491 . S
C1437 C1436 1.400 . S
C1437 C1438 1.398 . S
C1438 H1426 0.950 . S
C1438 C1437 1.398 . S
C1438 C1439 1.391 . S
C1439 H1427 0.950 . S
C1439 C1435 1.393 . S
C1439 C1438 1.391 . S
H1440 C1448 0.950 . S
H1441 C1453 0.950 . S
H1442 C1450 0.950 . S
H1443 C1452 0.950 . S
H1444 C1454 0.950 . S
H1445 C1456 0.950 . S
H1446 C1458 0.950 . S
H1447 C1459 0.950 . S
C1448 H1440 0.950 . S
C1448 C1449 1.386 . S
C1448 C1450 1.391 . S
C1449 C1448 1.386 . S
C1449 C1453 1.393 . S
C1450 H1442 0.950 . S
C1450 C1448 1.391 . S
C1450 C1451 1.400 . S
C1451 C1450 1.400 . S
C1451 C1452 1.398 . S
C1451 C1457 1.491 . S
C1452 H1443 0.950 . S
C1452 C1451 1.398 . S
C1452 C1453 1.391 . S
C1453 H1441 0.950 . S
C1453 C1449 1.393 . S
C1453 C1452 1.391 . S
C1454 H1444 0.950 . S
C1454 C1455 1.386 . S
C1454 C1456 1.391 . S
C1455 C1454 1.386 . S
C1455 C1459 1.393 . S
C1456 H1445 0.950 . S
C1456 C1454 1.391 . S
C1456 C1457 1.400 . S
C1457 C1451 1.491 . S
C1457 C1456 1.400 . S
C1457 C1458 1.398 . S
C1458 H1446 0.950 . S
C1458 C1457 1.398 . S
C1458 C1459 1.391 . S
C1459 H1447 0.950 . S
C1459 C1455 1.393 . S
C1459 C1458 1.391 . S
H1460 C1468 0.950 . S
H1461 C1473 0.950 . S
H1462 C1470 0.950 . S
H1463 C1472 0.950 . S
H1464 C1474 0.950 . S
H1465 C1476 0.950 . S
H1466 C1478 0.950 . S
H1467 C1479 0.950 . S
C1468 H1460 0.950 . S
C1468 C1469 1.386 . S
C1468 C1470 1.391 . S
C1469 C1468 1.386 . S
C1469 C1473 1.393 . S
C1470 H1462 0.950 . S
C1470 C1468 1.391 . S
C1470 C1471 1.400 . S
C1471 C1470 1.400 . S
C1471 C1472 1.398 . S
C1471 C1477 1.491 . S
C1472 H1463 0.950 . S
C1472 C1471 1.398 . S
C1472 C1473 1.391 . S
C1473 H1461 0.950 . S
C1473 C1469 1.393 . S
C1473 C1472 1.391 . S
C1474 H1464 0.950 . S
C1474 C1475 1.386 . S
C1474 C1476 1.391 . S
C1475 C1474 1.386 . S
C1475 C1479 1.393 . S
C1476 H1465 0.950 . S
C1476 C1474 1.391 . S
C1476 C1477 1.400 . S
C1477 C1471 1.491 . S
C1477 C1476 1.400 . S
C1477 C1478 1.398 . S
C1478 H1466 0.950 . S
C1478 C1477 1.398 . S
C1478 C1479 1.391 . S
C1479 H1467 0.950 . S
C1479 C1475 1.393 . S
C1479 C1478 1.391 . S
H1480 C1488 0.950 . S
H1481 C1493 0.950 . S
H1482 C1490 0.950 . S
H1483 C1492 0.950 . S
H1484 C1494 0.950 . S
H1485 C1496 0.950 . S
H1486 C1498 0.950 . S
H1487 C1499 0.950 . S
C1488 H1480 0.950 . S
C1488 C1489 1.386 . S
C1488 C1490 1.391 . S
C1489 C1488 1.386 . S
C1489 C1493 1.393 . S
C1490 H1482 0.950 . S
C1490 C1488 1.391 . S
C1490 C1491 1.400 . S
C1491 C1490 1.400 . S
C1491 C1492 1.398 . S
C1491 C1497 1.491 . S
C1492 H1483 0.950 . S
C1492 C1491 1.398 . S
C1492 C1493 1.391 . S
C1493 H1481 0.950 . S
C1493 C1489 1.393 . S
C1493 C1492 1.391 . S
C1494 H1484 0.950 . S
C1494 C1495 1.386 . S
C1494 C1496 1.391 . S
C1495 C1494 1.386 . S
C1495 C1499 1.393 . S
C1496 H1485 0.950 . S
C1496 C1494 1.391 . S
C1496 C1497 1.400 . S
C1497 C1491 1.491 . S
C1497 C1496 1.400 . S
C1497 C1498 1.398 . S
C1498 H1486 0.950 . S
C1498 C1497 1.398 . S
C1498 C1499 1.391 . S
C1499 H1487 0.950 . S
C1499 C1495 1.393 . S
C1499 C1498 1.391 . S
H1500 C1508 0.950 . S
H1501 C1513 0.950 . S
H1502 C1510 0.950 . S
H1503 C1512 0.950 . S
H1504 C1514 0.950 . S
H1505 C1516 0.950 . S
H1506 C1518 0.950 . S
H1507 C1519 0.950 . S
C1508 H1500 0.950 . S
C1508 C1509 1.386 . S
C1508 C1510 1.391 . S
C1509 C1508 1.386 . S
C1509 C1513 1.393 . S
C1510 H1502 0.950 . S
C1510 C1508 1.391 . S
C1510 C1511 1.400 . S
C1511 C1510 1.400 . S
C1511 C1512 1.398 . S
C1511 C1517 1.491 . S
C1512 H1503 0.950 . S
C1512 C1511 1.398 . S
C1512 C1513 1.391 . S
C1513 H1501 0.950 . S
C1513 C1509 1.393 . S
C1513 C1512 1.391 . S
C1514 H1504 0.950 . S
C1514 C1515 1.386 . S
C1514 C1516 1.391 . S
C1515 C1514 1.386 . S
C1515 C1519 1.393 . S
C1516 H1505 0.950 . S
C1516 C1514 1.391 . S
C1516 C1517 1.400 . S
C1517 C1511 1.491 . S
C1517 C1516 1.400 . S
C1517 C1518 1.398 . S
C1518 H1506 0.950 . S
C1518 C1517 1.398 . S
C1518 C1519 1.391 . S
C1519 H1507 0.950 . S
C1519 C1515 1.393 . S
C1519 C1518 1.391 . S
H1520 C1528 0.950 . S
H1521 C1533 0.950 . S
H1522 C1530 0.950 . S
H1523 C1532 0.950 1_565 S
H1524 C1534 0.950 . S
H1525 C1536 0.950 . S
H1526 C1538 0.950 1_545 S
H1527 C1539 0.950 . S
C1528 H1520 0.950 . S
C1528 C1529 1.386 . S
C1528 C1530 1.391 . S
C1529 C1528 1.386 . S
C1529 C1533 1.393 . S
C1530 H1522 0.950 . S
C1530 C1528 1.391 . S
C1530 C1531 1.400 . S
C1531 C1530 1.400 . S
C1531 C1532 1.398 . S
C1531 C1537 1.491 1_545 S
C1532 H1523 0.950 1_545 S
C1532 C1531 1.398 . S
C1532 C1533 1.391 . S
C1533 H1521 0.950 . S
C1533 C1529 1.393 . S
C1533 C1532 1.391 . S
C1534 H1524 0.950 . S
C1534 C1535 1.386 . S
C1534 C1536 1.391 . S
C1535 C1534 1.386 . S
C1535 C1539 1.393 . S
C1536 H1525 0.950 . S
C1536 C1534 1.391 . S
C1536 C1537 1.400 . S
C1537 C1531 1.491 1_565 S
C1537 C1536 1.400 . S
C1537 C1538 1.398 . S
C1538 H1526 0.950 1_565 S
C1538 C1537 1.398 . S
C1538 C1539 1.391 . S
C1539 H1527 0.950 . S
C1539 C1535 1.393 . S
C1539 C1538 1.391 . S
H1540 C1548 0.950 . S
H1541 C1553 0.950 . S
H1542 C1550 0.950 . S
H1543 C1552 0.950 . S
H1544 C1554 0.950 . S
H1545 C1556 0.950 . S
H1546 C1558 0.950 . S
H1547 C1559 0.950 . S
C1548 H1540 0.950 . S
C1548 C1549 1.386 . S
C1548 C1550 1.391 . S
C1549 C1548 1.386 . S
C1549 C1553 1.393 1_565 S
C1550 H1542 0.950 . S
C1550 C1548 1.391 . S
C1550 C1551 1.400 . S
C1551 C1550 1.400 . S
C1551 C1552 1.398 1_565 S
C1551 C1557 1.491 1_465 S
C1552 H1543 0.950 . S
C1552 C1551 1.398 1_545 S
C1552 C1553 1.391 . S
C1553 H1541 0.950 . S
C1553 C1549 1.393 1_545 S
C1553 C1552 1.391 . S
C1554 H1544 0.950 . S
C1554 C1555 1.386 . S
C1554 C1556 1.391 . S
C1555 C1554 1.386 . S
C1555 C1559 1.393 1_545 S
C1556 H1545 0.950 . S
C1556 C1554 1.391 . S
C1556 C1557 1.400 . S
C1557 C1551 1.491 1_645 S
C1557 C1556 1.400 . S
C1557 C1558 1.398 1_545 S
C1558 H1546 0.950 . S
C1558 C1557 1.398 1_565 S
C1558 C1559 1.391 . S
C1559 H1547 0.950 . S
C1559 C1555 1.393 1_565 S
C1559 C1558 1.391 . S
H1560 C1568 0.950 . S
H1561 C1573 0.950 . S
H1562 C1570 0.950 1_545 S
H1563 C1572 0.950 . S
H1564 C1574 0.950 . S
H1565 C1576 0.950 1_565 S
H1566 C1578 0.950 . S
H1567 C1579 0.950 . S
C1568 H1560 0.950 . S
C1568 C1569 1.386 . S
C1568 C1570 1.391 . S
C1569 C1568 1.386 . S
C1569 C1573 1.393 . S
C1570 H1562 0.950 1_565 S
C1570 C1568 1.391 . S
C1570 C1571 1.400 . S
C1571 C1570 1.400 . S
C1571 C1572 1.398 . S
C1571 C1577 1.491 1_565 S
C1572 H1563 0.950 . S
C1572 C1571 1.398 . S
C1572 C1573 1.391 . S
C1573 H1561 0.950 . S
C1573 C1569 1.393 . S
C1573 C1572 1.391 . S
C1574 H1564 0.950 . S
C1574 C1575 1.386 . S
C1574 C1576 1.391 . S
C1575 C1574 1.386 . S
C1575 C1579 1.393 . S
C1576 H1565 0.950 1_545 S
C1576 C1574 1.391 . S
C1576 C1577 1.400 . S
C1577 C1571 1.491 1_545 S
C1577 C1576 1.400 . S
C1577 C1578 1.398 . S
C1578 H1566 0.950 . S
C1578 C1577 1.398 . S
C1578 C1579 1.391 . S
C1579 H1567 0.950 . S
C1579 C1575 1.393 . S
C1579 C1578 1.391 . S
H1580 C1588 0.950 . S
H1581 C1593 0.950 . S
H1582 C1590 0.950 . S
H1583 C1592 0.950 1_545 S
H1584 C1594 0.950 . S
H1585 C1596 0.950 . S
H1586 C1598 0.950 1_565 S
H1587 C1599 0.950 . S
C1588 H1580 0.950 . S
C1588 C1589 1.386 . S
C1588 C1590 1.391 . S
C1589 C1588 1.386 . S
C1589 C1593 1.393 . S
C1590 H1582 0.950 . S
C1590 C1588 1.391 . S
C1590 C1591 1.400 . S
C1591 C1590 1.400 . S
C1591 C1592 1.398 . S
C1591 C1597 1.491 1_665 S
C1592 H1583 0.950 1_565 S
C1592 C1591 1.398 . S
C1592 C1593 1.391 . S
C1593 H1581 0.950 . S
C1593 C1589 1.393 . S
C1593 C1592 1.391 . S
C1594 H1584 0.950 . S
C1594 C1595 1.386 . S
C1594 C1596 1.391 . S
C1595 C1594 1.386 . S
C1595 C1599 1.393 . S
C1596 H1585 0.950 . S
C1596 C1594 1.391 . S
C1596 C1597 1.400 . S
C1597 C1591 1.491 1_445 S
C1597 C1596 1.400 . S
C1597 C1598 1.398 . S
C1598 H1586 0.950 1_545 S
C1598 C1597 1.398 . S
C1598 C1599 1.391 . S
C1599 H1587 0.950 . S
C1599 C1595 1.393 . S
C1599 C1598 1.391 . S
H1600 C1608 0.950 1_655 S
H1601 C1613 0.950 . S
H1602 C1610 0.950 . S
H1603 C1612 0.950 . S
H1604 C1614 0.950 . S
H1605 C1616 0.927 1_455 S
H1606 C1618 0.950 . S
H1607 C1619 0.950 . S
C1608 H1600 0.950 1_455 S
C1608 C1609 1.386 . S
C1608 C1610 1.391 1_455 S
C1609 C1608 1.386 . S
C1609 C1613 1.393 . S
C1610 H1602 0.950 . S
C1610 C1608 1.391 1_655 S
C1610 C1611 1.400 1_655 S
C1611 C1610 1.400 1_455 S
C1611 C1612 1.398 . S
C1611 C1617 1.491 1_455 S
C1612 H1603 0.950 . S
C1612 C1611 1.398 . S
C1612 C1613 1.391 . S
C1613 H1601 0.950 . S
C1613 C1609 1.393 . S
C1613 C1612 1.391 . S
C1614 H1604 0.950 . S
C1614 C1615 1.386 . S
C1614 C1616 1.404 . S
C1615 C1614 1.386 . S
C1615 C1619 1.393 . S
C1616 H1605 0.927 1_655 S
C1616 C1614 1.404 . S
C1616 C1617 1.411 . S
C1617 C1611 1.491 1_655 S
C1617 C1616 1.411 . S
C1617 C1618 1.398 . S
C1618 H1606 0.950 . S
C1618 C1617 1.398 . S
C1618 C1619 1.391 . S
C1619 H1607 0.950 . S
C1619 C1615 1.393 . S
C1619 C1618 1.391 . S
H1620 C1628 0.950 . S
H1621 C1633 0.950 . S
H1622 C1630 0.950 . S
H1623 C1632 0.950 . S
H1624 C1634 0.950 . S
H1625 C1636 0.950 . S
H1626 C1638 0.950 . S
H1627 C1639 0.950 . S
C1628 H1620 0.950 . S
C1628 C1629 1.386 . S
C1628 C1630 1.391 . S
C1629 C1628 1.386 . S
C1629 C1633 1.393 . S
C1630 H1622 0.950 . S
C1630 C1628 1.391 . S
C1630 C1631 1.400 . S
C1631 C1630 1.400 . S
C1631 C1632 1.398 . S
C1631 C1637 1.491 . S
C1632 H1623 0.950 . S
C1632 C1631 1.398 . S
C1632 C1633 1.391 . S
C1633 H1621 0.950 . S
C1633 C1629 1.393 . S
C1633 C1632 1.391 . S
C1634 H1624 0.950 . S
C1634 C1635 1.386 . S
C1634 C1636 1.391 . S
C1635 C1634 1.386 . S
C1635 C1639 1.393 . S
C1636 H1625 0.950 . S
C1636 C1634 1.391 . S
C1636 C1637 1.400 . S
C1637 C1631 1.491 . S
C1637 C1636 1.400 . S
C1637 C1638 1.398 . S
C1638 H1626 0.950 . S
C1638 C1637 1.398 . S
C1638 C1639 1.391 . S
C1639 H1627 0.950 . S
C1639 C1635 1.393 . S
C1639 C1638 1.391 . S
H1640 C1648 0.950 . S
H1641 C1653 0.950 . S
H1642 C1650 0.950 . S
H1643 C1652 0.950 . S
H1644 C1654 0.950 . S
H1645 C1656 0.950 . S
H1646 C1658 0.950 . S
H1647 C1659 0.950 . S
C1648 H1640 0.950 . S
C1648 C1649 1.386 . S
C1648 C1650 1.391 . S
C1649 C1648 1.386 . S
C1649 C1653 1.393 . S
C1650 H1642 0.950 . S
C1650 C1648 1.391 . S
C1650 C1651 1.400 . S
C1651 C1650 1.400 . S
C1651 C1652 1.398 . S
C1651 C1657 1.491 . S
C1652 H1643 0.950 . S
C1652 C1651 1.398 . S
C1652 C1653 1.391 . S
C1653 H1641 0.950 . S
C1653 C1649 1.393 . S
C1653 C1652 1.391 . S
C1654 H1644 0.950 . S
C1654 C1655 1.386 . S
C1654 C1656 1.391 . S
C1655 C1654 1.386 . S
C1655 C1659 1.393 . S
C1656 H1645 0.950 . S
C1656 C1654 1.391 . S
C1656 C1657 1.400 . S
C1657 C1651 1.491 . S
C1657 C1656 1.400 . S
C1657 C1658 1.398 . S
C1658 H1646 0.950 . S
C1658 C1657 1.398 . S
C1658 C1659 1.391 . S
C1659 H1647 0.950 . S
C1659 C1655 1.393 . S
C1659 C1658 1.391 . S
H1660 C1668 0.950 . S
H1661 C1673 0.950 . S
H1662 C1670 0.950 . S
H1663 C1672 0.950 . S
H1664 C1674 0.950 . S
H1665 C1676 0.950 . S
H1666 C1678 0.950 . S
H1667 C1679 0.950 . S
C1668 H1660 0.950 . S
C1668 C1669 1.386 . S
C1668 C1670 1.391 . S
C1669 C1668 1.386 . S
C1669 C1673 1.393 . S
C1670 H1662 0.950 . S
C1670 C1668 1.391 . S
C1670 C1671 1.400 . S
C1671 C1670 1.400 . S
C1671 C1672 1.398 . S
C1671 C1677 1.491 . S
C1672 H1663 0.950 . S
C1672 C1671 1.398 . S
C1672 C1673 1.391 . S
C1673 H1661 0.950 . S
C1673 C1669 1.393 . S
C1673 C1672 1.391 . S
C1674 H1664 0.950 . S
C1674 C1675 1.386 . S
C1674 C1676 1.391 . S
C1675 C1674 1.386 . S
C1675 C1679 1.393 . S
C1676 H1665 0.950 . S
C1676 C1674 1.391 . S
C1676 C1677 1.400 . S
C1677 C1671 1.491 . S
C1677 C1676 1.400 . S
C1677 C1678 1.398 . S
C1678 H1666 0.950 . S
C1678 C1677 1.398 . S
C1678 C1679 1.391 . S
C1679 H1667 0.950 . S
C1679 C1675 1.393 . S
C1679 C1678 1.391 . S
H1680 C1688 0.950 . S
H1681 C1693 0.950 1_554 S
H1682 C1690 0.950 . S
H1683 C1692 0.950 1_455 S
H1684 C1694 0.950 . S
H1685 C1696 0.950 . S
H1686 C1698 0.950 . S
H1687 C1699 0.963 . S
C1688 H1680 0.950 . S
C1688 C1689 1.386 . S
C1688 C1690 1.391 . S
C1689 C1688 1.386 . S
C1689 C1693 1.393 . S
C1690 H1682 0.950 . S
C1690 C1688 1.391 . S
C1690 C1691 1.400 . S
C1691 C1690 1.400 . S
C1691 C1692 1.398 . S
C1691 C1697 1.491 1_655 S
C1692 H1683 0.950 1_655 S
C1692 C1691 1.398 . S
C1692 C1693 1.391 . S
C1693 H1681 0.950 1_556 S
C1693 C1689 1.393 . S
C1693 C1692 1.391 . S
C1694 H1684 0.950 . S
C1694 C1695 1.386 . S
C1694 C1696 1.391 . S
C1695 C1694 1.386 . S
C1695 C1699 1.393 . S
C1696 H1685 0.950 . S
C1696 C1694 1.391 . S
C1696 C1697 1.400 . S
C1697 C1691 1.491 1_455 S
C1697 C1696 1.400 . S
C1697 C1698 1.398 1_455 S
C1698 H1686 0.950 . S
C1698 C1697 1.398 1_655 S
C1698 C1699 1.391 1_655 S
C1699 H1687 0.963 . S
C1699 C1695 1.393 . S
C1699 C1698 1.391 1_455 S
H1700 C1708 0.950 . S
H1701 C1713 0.950 . S
H1702 C1710 0.950 . S
H1703 C1712 0.950 . S
H1704 C1714 0.950 . S
H1705 C1716 0.950 . S
H1706 C1718 0.950 . S
H1707 C1719 0.950 . S
C1708 H1700 0.950 . S
C1708 C1709 1.386 . S
C1708 C1710 1.391 . S
C1709 C1708 1.386 . S
C1709 C1713 1.393 . S
C1710 H1702 0.950 . S
C1710 C1708 1.391 . S
C1710 C1711 1.400 . S
C1711 C1710 1.400 . S
C1711 C1712 1.398 . S
C1711 C1717 1.491 . S
C1712 H1703 0.950 . S
C1712 C1711 1.398 . S
C1712 C1713 1.391 . S
C1713 H1701 0.950 . S
C1713 C1709 1.393 . S
C1713 C1712 1.391 . S
C1714 H1704 0.950 . S
C1714 C1715 1.386 . S
C1714 C1716 1.391 1_556 S
C1715 C1714 1.386 . S
C1715 C1719 1.393 . S
C1716 H1705 0.950 . S
C1716 C1714 1.391 1_554 S
C1716 C1717 1.400 . S
C1717 C1711 1.491 . S
C1717 C1716 1.400 . S
C1717 C1718 1.398 1_554 S
C1718 H1706 0.950 . S
C1718 C1717 1.398 1_556 S
C1718 C1719 1.391 . S
C1719 H1707 0.950 . S
C1719 C1715 1.393 . S
C1719 C1718 1.391 . S
H1720 C1728 0.950 . S
H1721 C1733 0.950 . S
H1722 C1730 0.950 . S
H1723 C1732 0.950 . S
H1724 C1734 0.950 . S
H1725 C1736 0.950 . S
H1726 C1738 0.950 . S
H1727 C1739 0.950 . S
C1728 H1720 0.950 . S
C1728 C1729 1.386 . S
C1728 C1730 1.391 . S
C1729 C1728 1.386 . S
C1729 C1733 1.393 . S
C1730 H1722 0.950 . S
C1730 C1728 1.391 . S
C1730 C1731 1.400 . S
C1731 C1730 1.400 . S
C1731 C1732 1.398 . S
C1731 C1737 1.491 . S
C1732 H1723 0.950 . S
C1732 C1731 1.398 . S
C1732 C1733 1.391 . S
C1733 H1721 0.950 . S
C1733 C1729 1.393 . S
C1733 C1732 1.391 . S
C1734 H1724 0.950 . S
C1734 C1735 1.386 . S
C1734 C1736 1.391 . S
C1735 C1734 1.386 . S
C1735 C1739 1.393 . S
C1736 H1725 0.950 . S
C1736 C1734 1.391 . S
C1736 C1737 1.400 . S
C1737 C1731 1.491 . S
C1737 C1736 1.400 . S
C1737 C1738 1.398 . S
C1738 H1726 0.950 . S
C1738 C1737 1.398 . S
C1738 C1739 1.391 . S
C1739 H1727 0.950 . S
C1739 C1735 1.393 . S
C1739 C1738 1.391 . S
H1740 C1748 0.950 . S
H1741 C1753 0.950 . S
H1742 C1750 0.950 . S
H1743 C1752 0.950 . S
H1744 C1754 0.950 . S
H1745 C1756 0.950 . S
H1746 C1758 0.950 . S
H1747 C1759 0.950 . S
C1748 H1740 0.950 . S
C1748 C1749 1.386 . S
C1748 C1750 1.391 . S
C1749 C1748 1.386 . S
C1749 C1753 1.393 . S
C1750 H1742 0.950 . S
C1750 C1748 1.391 . S
C1750 C1751 1.400 . S
C1751 C1750 1.400 . S
C1751 C1752 1.398 . S
C1751 C1757 1.491 . S
C1752 H1743 0.950 . S
C1752 C1751 1.398 . S
C1752 C1753 1.391 . S
C1753 H1741 0.950 . S
C1753 C1749 1.393 . S
C1753 C1752 1.391 . S
C1754 H1744 0.950 . S
C1754 C1755 1.386 . S
C1754 C1756 1.391 . S
C1755 C1754 1.386 . S
C1755 C1759 1.393 . S
C1756 H1745 0.950 . S
C1756 C1754 1.391 . S
C1756 C1757 1.400 . S
C1757 C1751 1.491 . S
C1757 C1756 1.400 . S
C1757 C1758 1.398 . S
C1758 H1746 0.950 . S
C1758 C1757 1.398 . S
C1758 C1759 1.391 . S
C1759 H1747 0.950 . S
C1759 C1755 1.393 . S
C1759 C1758 1.391 . S
H1760 C1768 0.950 . S
H1761 C1773 0.950 . S
H1762 C1770 0.950 . S
H1763 C1772 0.950 1_655 S
H1764 C1774 0.950 . S
H1765 C1776 0.950 . S
H1766 C1778 0.950 . S
H1767 C1779 0.950 . S
C1768 H1760 0.950 . S
C1768 C1769 1.386 . S
C1768 C1770 1.391 . S
C1769 C1768 1.386 . S
C1769 C1773 1.393 . S
C1770 H1762 0.950 . S
C1770 C1768 1.391 . S
C1770 C1771 1.400 . S
C1771 C1770 1.400 . S
C1771 C1772 1.398 . S
C1771 C1777 1.491 1_455 S
C1772 H1763 0.950 1_455 S
C1772 C1771 1.398 . S
C1772 C1773 1.391 . S
C1773 H1761 0.950 . S
C1773 C1769 1.393 . S
C1773 C1772 1.391 . S
C1774 H1764 0.950 . S
C1774 C1775 1.386 . S
C1774 C1776 1.391 . S
C1775 C1774 1.386 . S
C1775 C1779 1.393 . S
C1776 H1765 0.950 . S
C1776 C1774 1.391 . S
C1776 C1777 1.400 . S
C1777 C1771 1.491 1_655 S
C1777 C1776 1.400 . S
C1777 C1778 1.398 1_655 S
C1778 H1766 0.950 . S
C1778 C1777 1.398 1_455 S
C1778 C1779 1.391 1_455 S
C1779 H1767 0.950 . S
C1779 C1775 1.393 . S
C1779 C1778 1.391 1_655 S
H1780 C1788 0.950 . S
H1781 C1793 0.950 . S
H1782 C1790 0.950 . S
H1783 C1792 0.950 . S
H1784 C1794 0.950 . S
H1785 C1796 0.950 . S
H1786 C1798 0.950 . S
H1787 C1799 0.950 . S
C1788 H1780 0.950 . S
C1788 C1789 1.386 . S
C1788 C1790 1.391 . S
C1789 C1788 1.386 . S
C1789 C1793 1.393 . S
C1790 H1782 0.950 . S
C1790 C1788 1.391 . S
C1790 C1791 1.400 . S
C1791 C1790 1.400 . S
C1791 C1792 1.398 . S
C1791 C1797 1.491 . S
C1792 H1783 0.950 . S
C1792 C1791 1.398 . S
C1792 C1793 1.391 . S
C1793 H1781 0.950 . S
C1793 C1789 1.393 . S
C1793 C1792 1.391 . S
C1794 H1784 0.950 . S
C1794 C1795 1.386 . S
C1794 C1796 1.391 1_556 S
C1795 C1794 1.386 . S
C1795 C1799 1.393 . S
C1796 H1785 0.950 . S
C1796 C1794 1.391 1_554 S
C1796 C1797 1.400 . S
C1797 C1791 1.491 . S
C1797 C1796 1.400 . S
C1797 C1798 1.398 1_554 S
C1798 H1786 0.950 . S
C1798 C1797 1.398 1_556 S
C1798 C1799 1.391 . S
C1799 H1787 0.950 . S
C1799 C1795 1.393 . S
C1799 C1798 1.391 . S
H1800 C1808 0.950 . S
H1801 C1813 0.950 . S
H1802 C1810 0.950 . S
H1803 C1812 0.950 . S
H1804 C1814 0.950 . S
H1805 C1816 0.950 . S
H1806 C1818 0.950 . S
H1807 C1819 0.950 . S
C1808 H1800 0.950 . S
C1808 C1809 1.386 . S
C1808 C1810 1.391 . S
C1809 C1808 1.386 . S
C1809 C1813 1.393 . S
C1810 H1802 0.950 . S
C1810 C1808 1.391 . S
C1810 C1811 1.400 . S
C1811 C1810 1.400 . S
C1811 C1812 1.398 . S
C1811 C1817 1.491 . S
C1812 H1803 0.950 . S
C1812 C1811 1.398 . S
C1812 C1813 1.391 . S
C1813 H1801 0.950 . S
C1813 C1809 1.393 . S
C1813 C1812 1.391 . S
C1814 H1804 0.950 . S
C1814 C1815 1.386 . S
C1814 C1816 1.391 . S
C1815 C1814 1.386 . S
C1815 C1819 1.393 . S
C1816 H1805 0.950 . S
C1816 C1814 1.391 . S
C1816 C1817 1.400 . S
C1817 C1811 1.491 . S
C1817 C1816 1.400 . S
C1817 C1818 1.398 . S
C1818 H1806 0.950 . S
C1818 C1817 1.398 . S
C1818 C1819 1.391 . S
C1819 H1807 0.950 . S
C1819 C1815 1.393 . S
C1819 C1818 1.391 . S
H1820 C1828 0.950 . S
H1821 C1833 0.950 . S
H1822 C1830 0.950 . S
H1823 C1832 0.950 . S
H1824 C1834 0.950 . S
H1825 C1836 0.950 . S
H1826 C1838 0.950 . S
H1827 C1839 0.950 . S
C1828 H1820 0.950 . S
C1828 C1829 1.386 . S
C1828 C1830 1.391 . S
C1829 C1828 1.386 . S
C1829 C1833 1.393 . S
C1830 H1822 0.950 . S
C1830 C1828 1.391 . S
C1830 C1831 1.400 . S
C1831 C1830 1.400 . S
C1831 C1832 1.398 . S
C1831 C1837 1.491 . S
C1832 H1823 0.950 . S
C1832 C1831 1.398 . S
C1832 C1833 1.391 . S
C1833 H1821 0.950 . S
C1833 C1829 1.393 . S
C1833 C1832 1.391 . S
C1834 H1824 0.950 . S
C1834 C1835 1.386 . S
C1834 C1836 1.391 . S
C1835 C1834 1.386 . S
C1835 C1839 1.393 . S
C1836 H1825 0.950 . S
C1836 C1834 1.391 . S
C1836 C1837 1.400 . S
C1837 C1831 1.491 . S
C1837 C1836 1.400 . S
C1837 C1838 1.398 . S
C1838 H1826 0.950 . S
C1838 C1837 1.398 . S
C1838 C1839 1.391 . S
C1839 H1827 0.950 . S
C1839 C1835 1.393 . S
C1839 C1838 1.391 . S
H1840 C1848 0.950 . S
H1841 C1853 0.950 . S
H1842 C1850 0.950 . S
H1843 C1852 0.950 . S
H1844 C1854 0.950 . S
H1845 C1856 0.950 . S
H1846 C1858 0.950 . S
H1847 C1859 0.950 . S
C1848 H1840 0.950 . S
C1848 C1849 1.386 . S
C1848 C1850 1.391 . S
C1849 C1848 1.386 . S
C1849 C1853 1.393 . S
C1850 H1842 0.950 . S
C1850 C1848 1.391 . S
C1850 C1851 1.400 . S
C1851 C1850 1.400 . S
C1851 C1852 1.398 . S
C1851 C1857 1.491 1_455 S
C1852 H1843 0.950 . S
C1852 C1851 1.398 . S
C1852 C1853 1.391 . S
C1853 H1841 0.950 . S
C1853 C1849 1.393 . S
C1853 C1852 1.391 . S
C1854 H1844 0.950 . S
C1854 C1855 1.386 . S
C1854 C1856 1.391 . S
C1855 C1854 1.386 . S
C1855 C1859 1.393 . S
C1856 H1845 0.950 . S
C1856 C1854 1.391 . S
C1856 C1857 1.400 . S
C1857 C1851 1.491 1_655 S
C1857 C1856 1.400 . S
C1857 C1858 1.398 . S
C1858 H1846 0.950 . S
C1858 C1857 1.398 . S
C1858 C1859 1.391 . S
C1859 H1847 0.950 . S
C1859 C1855 1.393 . S
C1859 C1858 1.391 . S
H1860 C1868 0.950 . S
H1861 C1873 0.950 . S
H1862 C1870 0.950 . S
H1863 C1872 0.950 . S
H1864 C1874 0.950 . S
H1865 C1876 0.950 . S
H1866 C1878 0.950 . S
H1867 C1879 0.950 . S
C1868 H1860 0.950 . S
C1868 C1869 1.386 . S
C1868 C1870 1.391 . S
C1869 C1868 1.386 . S
C1869 C1873 1.393 . S
C1870 H1862 0.950 . S
C1870 C1868 1.391 . S
C1870 C1871 1.400 . S
C1871 C1870 1.400 . S
C1871 C1872 1.398 . S
C1871 C1877 1.491 . S
C1872 H1863 0.950 . S
C1872 C1871 1.398 . S
C1872 C1873 1.391 . S
C1873 H1861 0.950 . S
C1873 C1869 1.393 . S
C1873 C1872 1.391 . S
C1874 H1864 0.950 . S
C1874 C1875 1.386 . S
C1874 C1876 1.391 . S
C1875 C1874 1.386 . S
C1875 C1879 1.393 . S
C1876 H1865 0.950 . S
C1876 C1874 1.391 . S
C1876 C1877 1.400 . S
C1877 C1871 1.491 . S
C1877 C1876 1.400 . S
C1877 C1878 1.398 . S
C1878 H1866 0.950 . S
C1878 C1877 1.398 . S
C1878 C1879 1.391 . S
C1879 H1867 0.950 . S
C1879 C1875 1.393 . S
C1879 C1878 1.391 . S
H1880 C1888 0.950 . S
H1881 C1893 0.950 . S
H1882 C1890 0.950 . S
H1883 C1892 0.951 . S
H1884 C1894 0.950 . S
H1885 C1896 0.950 . S
H1886 C1898 0.950 . S
H1887 C1899 0.950 . S
C1888 H1880 0.950 . S
C1888 C1889 1.386 1_556 S
C1888 C1890 1.391 . S
C1889 C1888 1.386 1_554 S
C1889 C1893 1.393 . S
C1890 H1882 0.950 . S
C1890 C1888 1.391 . S
C1890 C1891 1.400 . S
C1891 C1890 1.400 . S
C1891 C1892 1.398 . S
C1891 C1897 1.491 . S
C1892 H1883 0.951 . S
C1892 C1891 1.398 . S
C1892 C1893 1.391 1_556 S
C1893 H1881 0.950 . S
C1893 C1889 1.393 . S
C1893 C1892 1.391 1_554 S
C1894 H1884 0.950 . S
C1894 C1895 1.386 . S
C1894 C1896 1.391 . S
C1895 C1894 1.386 . S
C1895 C1899 1.393 . S
C1896 H1885 0.950 . S
C1896 C1894 1.391 . S
C1896 C1897 1.400 . S
C1897 C1891 1.491 . S
C1897 C1896 1.400 . S
C1897 C1898 1.398 . S
C1898 H1886 0.950 . S
C1898 C1897 1.398 . S
C1898 C1899 1.391 . S
C1899 H1887 0.950 . S
C1899 C1895 1.393 . S
C1899 C1898 1.391 . S
H1900 C1908 0.950 . S
H1901 C1913 0.950 . S
H1902 C1910 0.950 . S
H1903 C1912 0.950 . S
H1904 C1914 0.950 . S
H1905 C1916 0.950 . S
H1906 C1918 0.950 . S
H1907 C1919 0.950 . S
C1908 H1900 0.950 . S
C1908 C1909 1.386 . S
C1908 C1910 1.391 . S
C1909 C1908 1.386 . S
C1909 C1913 1.393 . S
C1910 H1902 0.950 . S
C1910 C1908 1.391 . S
C1910 C1911 1.400 . S
C1911 C1910 1.400 . S
C1911 C1912 1.398 . S
C1911 C1917 1.491 . S
C1912 H1903 0.950 . S
C1912 C1911 1.398 . S
C1912 C1913 1.391 . S
C1913 H1901 0.950 . S
C1913 C1909 1.393 . S
C1913 C1912 1.391 . S
C1914 H1904 0.950 . S
C1914 C1915 1.386 . S
C1914 C1916 1.391 . S
C1915 C1914 1.386 . S
C1915 C1919 1.393 . S
C1916 H1905 0.950 . S
C1916 C1914 1.391 . S
C1916 C1917 1.400 . S
C1917 C1911 1.491 . S
C1917 C1916 1.400 . S
C1917 C1918 1.398 . S
C1918 H1906 0.950 . S
C1918 C1917 1.398 . S
C1918 C1919 1.391 . S
C1919 H1907 0.950 . S
C1919 C1915 1.393 . S
C1919 C1918 1.391 . S
H1920 C1928 0.950 . S
H1921 C1933 0.950 . S
H1922 C1930 0.950 . S
H1923 C1932 0.950 . S
H1924 C1934 0.950 . S
H1925 C1936 0.950 . S
H1926 C1938 0.950 . S
H1927 C1939 0.950 . S
C1928 H1920 0.950 . S
C1928 C1929 1.386 . S
C1928 C1930 1.391 . S
C1929 C1928 1.386 . S
C1929 C1933 1.393 . S
C1930 H1922 0.950 . S
C1930 C1928 1.391 . S
C1930 C1931 1.400 . S
C1931 C1930 1.400 . S
C1931 C1932 1.398 . S
C1931 C1937 1.491 . S
C1932 H1923 0.950 . S
C1932 C1931 1.398 . S
C1932 C1933 1.391 . S
C1933 H1921 0.950 . S
C1933 C1929 1.393 . S
C1933 C1932 1.391 . S
C1934 H1924 0.950 . S
C1934 C1935 1.386 . S
C1934 C1936 1.391 . S
C1935 C1934 1.386 . S
C1935 C1939 1.393 . S
C1936 H1925 0.950 . S
C1936 C1934 1.391 . S
C1936 C1937 1.400 . S
C1937 C1931 1.491 . S
C1937 C1936 1.400 . S
C1937 C1938 1.398 . S
C1938 H1926 0.950 . S
C1938 C1937 1.398 . S
C1938 C1939 1.391 . S
C1939 H1927 0.950 . S
C1939 C1935 1.393 . S
C1939 C1938 1.391 . S
H1940 C1948 0.950 . S
H1941 C1953 0.950 . S
H1942 C1950 0.950 . S
H1943 C1952 0.950 . S
H1944 C1954 0.950 . S
H1945 C1956 0.950 . S
H1946 C1958 0.950 . S
H1947 C1959 0.950 . S
C1948 H1940 0.950 . S
C1948 C1949 1.386 . S
C1948 C1950 1.391 . S
C1949 C1948 1.386 . S
C1949 C1953 1.393 . S
C1950 H1942 0.950 . S
C1950 C1948 1.391 . S
C1950 C1951 1.400 . S
C1951 C1950 1.400 . S
C1951 C1952 1.398 . S
C1951 C1957 1.491 . S
C1952 H1943 0.950 . S
C1952 C1951 1.398 . S
C1952 C1953 1.391 . S
C1953 H1941 0.950 . S
C1953 C1949 1.393 . S
C1953 C1952 1.391 . S
C1954 H1944 0.950 . S
C1954 C1955 1.386 . S
C1954 C1956 1.391 . S
C1955 C1954 1.386 . S
C1955 C1959 1.393 . S
C1956 H1945 0.950 . S
C1956 C1954 1.391 . S
C1956 C1957 1.400 . S
C1957 C1951 1.491 . S
C1957 C1956 1.400 . S
C1957 C1958 1.398 . S
C1958 H1946 0.950 . S
C1958 C1957 1.398 . S
C1958 C1959 1.391 . S
C1959 H1947 0.950 . S
C1959 C1955 1.393 . S
C1959 C1958 1.391 . S
H1960 C1968 0.950 . S
H1961 C1973 0.950 . S
H1962 C1970 0.950 . S
H1963 C1972 0.950 . S
H1964 C1974 0.950 . S
H1965 C1976 0.950 . S
H1966 C1978 0.950 . S
H1967 C1979 0.950 . S
C1968 H1960 0.950 . S
C1968 C1969 1.386 . S
C1968 C1970 1.391 1_554 S
C1969 C1968 1.386 . S
C1969 C1973 1.393 . S
C1970 H1962 0.950 . S
C1970 C1968 1.391 1_556 S
C1970 C1971 1.400 . S
C1971 C1970 1.400 . S
C1971 C1972 1.398 . S
C1971 C1977 1.491 1_655 S
C1972 H1963 0.950 . S
C1972 C1971 1.398 . S
C1972 C1973 1.391 1_556 S
C1973 H1961 0.950 . S
C1973 C1969 1.393 . S
C1973 C1972 1.391 1_554 S
C1974 H1964 0.950 . S
C1974 C1975 1.386 . S
C1974 C1976 1.391 . S
C1975 C1974 1.386 . S
C1975 C1979 1.393 . S
C1976 H1965 0.950 . S
C1976 C1974 1.391 . S
C1976 C1977 1.400 . S
C1977 C1971 1.491 1_455 S
C1977 C1976 1.400 . S
C1977 C1978 1.398 . S
C1978 H1966 0.950 . S
C1978 C1977 1.398 . S
C1978 C1979 1.391 . S
C1979 H1967 0.950 . S
C1979 C1975 1.393 . S
C1979 C1978 1.391 . S
H1980 C1988 0.950 . S
H1981 C1993 0.950 . S
H1982 C1990 0.950 . S
H1983 C1992 0.950 . S
H1984 C1994 0.950 . S
H1985 C1996 0.950 . S
H1986 C1998 0.950 . S
H1987 C1999 0.950 . S
C1988 H1980 0.950 . S
C1988 C1989 1.386 . S
C1988 C1990 1.391 . S
C1989 C1988 1.386 . S
C1989 C1993 1.393 . S
C1990 H1982 0.950 . S
C1990 C1988 1.391 . S
C1990 C1991 1.400 . S
C1991 C1990 1.400 . S
C1991 C1992 1.398 . S
C1991 C1997 1.491 . S
C1992 H1983 0.950 . S
C1992 C1991 1.398 . S
C1992 C1993 1.391 . S
C1993 H1981 0.950 . S
C1993 C1989 1.393 . S
C1993 C1992 1.391 . S
C1994 H1984 0.950 . S
C1994 C1995 1.386 . S
C1994 C1996 1.391 . S
C1995 C1994 1.386 . S
C1995 C1999 1.393 . S
C1996 H1985 0.950 . S
C1996 C1994 1.391 . S
C1996 C1997 1.400 . S
C1997 C1991 1.491 . S
C1997 C1996 1.400 . S
C1997 C1998 1.398 . S
C1998 H1986 0.950 . S
C1998 C1997 1.398 . S
C1998 C1999 1.391 . S
C1999 H1987 0.950 . S
C1999 C1995 1.393 . S
C1999 C1998 1.391 . S
H2000 C2008 0.950 . S
H2001 C2013 0.950 . S
H2002 C2010 0.950 . S
H2003 C2012 0.950 . S
H2004 C2014 0.950 . S
H2005 C2016 0.950 . S
H2006 C2018 0.950 . S
H2007 C2019 0.950 . S
C2008 H2000 0.950 . S
C2008 C2009 1.386 . S
C2008 C2010 1.391 . S
C2009 C2008 1.386 . S
C2009 C2013 1.393 . S
C2010 H2002 0.950 . S
C2010 C2008 1.391 . S
C2010 C2011 1.400 . S
C2011 C2010 1.400 . S
C2011 C2012 1.398 . S
C2011 C2017 1.491 . S
C2012 H2003 0.950 . S
C2012 C2011 1.398 . S
C2012 C2013 1.391 . S
C2013 H2001 0.950 . S
C2013 C2009 1.393 . S
C2013 C2012 1.391 . S
C2014 H2004 0.950 . S
C2014 C2015 1.386 . S
C2014 C2016 1.391 . S
C2015 C2014 1.386 . S
C2015 C2019 1.393 . S
C2016 H2005 0.950 . S
C2016 C2014 1.391 . S
C2016 C2017 1.400 . S
C2017 C2011 1.491 . S
C2017 C2016 1.400 . S
C2017 C2018 1.398 . S
C2018 H2006 0.950 . S
C2018 C2017 1.398 . S
C2018 C2019 1.391 . S
C2019 H2007 0.950 . S
C2019 C2015 1.393 . S
C2019 C2018 1.391 . S
H2020 C2028 0.950 . S
H2021 C2033 0.950 . S
H2022 C2030 0.950 . S
H2023 C2032 0.950 . S
H2024 C2034 0.950 . S
H2025 C2036 0.950 . S
H2026 C2038 0.950 . S
H2027 C2039 0.950 . S
C2028 H2020 0.950 . S
C2028 C2029 1.386 . S
C2028 C2030 1.391 . S
C2029 C2028 1.386 . S
C2029 C2033 1.393 . S
C2030 H2022 0.950 . S
C2030 C2028 1.391 . S
C2030 C2031 1.400 . S
C2031 C2030 1.400 . S
C2031 C2032 1.398 . S
C2031 C2037 1.491 . S
C2032 H2023 0.950 . S
C2032 C2031 1.398 . S
C2032 C2033 1.391 . S
C2033 H2021 0.950 . S
C2033 C2029 1.393 . S
C2033 C2032 1.391 . S
C2034 H2024 0.950 . S
C2034 C2035 1.386 . S
C2034 C2036 1.391 . S
C2035 C2034 1.386 . S
C2035 C2039 1.393 . S
C2036 H2025 0.950 . S
C2036 C2034 1.391 . S
C2036 C2037 1.400 . S
C2037 C2031 1.491 . S
C2037 C2036 1.400 . S
C2037 C2038 1.398 . S
C2038 H2026 0.950 . S
C2038 C2037 1.398 . S
C2038 C2039 1.391 . S
C2039 H2027 0.950 . S
C2039 C2035 1.393 . S
C2039 C2038 1.391 . S
H2040 C2048 0.950 . S
H2041 C2053 0.950 . S
H2042 C2050 0.947 . S
H2043 C2052 0.950 . S
H2044 C2054 0.950 . S
H2045 C2056 0.950 . S
H2046 C2058 0.950 . S
H2047 C2059 0.950 . S
C2048 H2040 0.950 . S
C2048 C2049 1.386 . S
C2048 C2050 1.394 1_455 S
C2049 C2048 1.386 . S
C2049 C2053 1.393 . S
C2050 H2042 0.947 . S
C2050 C2048 1.394 1_655 S
C2050 C2051 1.400 1_655 S
C2051 C2050 1.400 1_455 S
C2051 C2052 1.398 . S
C2051 C2057 1.491 1_455 S
C2052 H2043 0.950 . S
C2052 C2051 1.398 . S
C2052 C2053 1.391 . S
C2053 H2041 0.950 . S
C2053 C2049 1.393 . S
C2053 C2052 1.391 . S
C2054 H2044 0.950 . S
C2054 C2055 1.386 . S
C2054 C2056 1.391 . S
C2055 C2054 1.386 . S
C2055 C2059 1.393 . S
C2056 H2045 0.950 . S
C2056 C2054 1.391 . S
C2056 C2057 1.400 . S
C2057 C2051 1.491 1_655 S
C2057 C2056 1.400 . S
C2057 C2058 1.398 . S
C2058 H2046 0.950 . S
C2058 C2057 1.398 . S
C2058 C2059 1.391 . S
C2059 H2047 0.950 . S
C2059 C2055 1.393 . S
C2059 C2058 1.391 . S
H2060 C2068 0.950 . S
H2061 C2073 0.950 . S
H2062 C2070 0.950 . S
H2063 C2072 0.950 . S
H2064 C2074 0.950 . S
H2065 C2076 0.950 . S
H2066 C2078 0.950 . S
H2067 C2079 0.950 . S
C2068 H2060 0.950 . S
C2068 C2069 1.386 . S
C2068 C2070 1.391 . S
C2069 C2068 1.386 . S
C2069 C2073 1.393 . S
C2070 H2062 0.950 . S
C2070 C2068 1.391 . S
C2070 C2071 1.400 . S
C2071 C2070 1.400 . S
C2071 C2072 1.398 . S
C2071 C2077 1.491 . S
C2072 H2063 0.950 . S
C2072 C2071 1.398 . S
C2072 C2073 1.391 . S
C2073 H2061 0.950 . S
C2073 C2069 1.393 . S
C2073 C2072 1.391 . S
C2074 H2064 0.950 . S
C2074 C2075 1.386 . S
C2074 C2076 1.391 1_556 S
C2075 C2074 1.386 . S
C2075 C2079 1.393 . S
C2076 H2065 0.950 . S
C2076 C2074 1.391 1_554 S
C2076 C2077 1.400 . S
C2077 C2071 1.491 . S
C2077 C2076 1.400 . S
C2077 C2078 1.398 1_554 S
C2078 H2066 0.950 . S
C2078 C2077 1.398 1_556 S
C2078 C2079 1.391 . S
C2079 H2067 0.950 . S
C2079 C2075 1.393 . S
C2079 C2078 1.391 . S
H2080 C2088 0.950 . S
H2081 C2093 0.950 . S
H2082 C2090 0.950 . S
H2083 C2092 0.950 . S
H2084 C2094 0.950 . S
H2085 C2096 0.950 . S
H2086 C2098 0.950 . S
H2087 C2099 0.950 1_554 S
C2088 H2080 0.950 . S
C2088 C2089 1.386 . S
C2088 C2090 1.391 . S
C2089 C2088 1.386 . S
C2089 C2093 1.393 . S
C2090 H2082 0.950 . S
C2090 C2088 1.391 . S
C2090 C2091 1.400 . S
C2091 C2090 1.400 . S
C2091 C2092 1.398 . S
C2091 C2097 1.491 . S
C2092 H2083 0.950 . S
C2092 C2091 1.398 . S
C2092 C2093 1.391 . S
C2093 H2081 0.950 . S
C2093 C2089 1.393 . S
C2093 C2092 1.391 . S
C2094 H2084 0.950 . S
C2094 C2095 1.386 . S
C2094 C2096 1.391 . S
C2095 C2094 1.386 . S
C2095 C2099 1.393 . S
C2096 H2085 0.950 . S
C2096 C2094 1.391 . S
C2096 C2097 1.400 . S
C2097 C2091 1.491 . S
C2097 C2096 1.400 . S
C2097 C2098 1.398 . S
C2098 H2086 0.950 . S
C2098 C2097 1.398 . S
C2098 C2099 1.391 . S
C2099 H2087 0.950 1_556 S
C2099 C2095 1.393 . S
C2099 C2098 1.391 . S
H2100 C2108 0.950 . S
H2101 C2113 0.950 . S
H2102 C2110 0.950 . S
H2103 C2112 0.950 . S
H2104 C2114 0.950 . S
H2105 C2116 0.950 . S
H2106 C2118 0.950 . S
H2107 C2119 0.950 . S
C2108 H2100 0.950 . S
C2108 C2109 1.386 . S
C2108 C2110 1.391 . S
C2109 C2108 1.386 . S
C2109 C2113 1.393 . S
C2110 H2102 0.950 . S
C2110 C2108 1.391 . S
C2110 C2111 1.400 . S
C2111 C2110 1.400 . S
C2111 C2112 1.398 . S
C2111 C2117 1.491 . S
C2112 H2103 0.950 . S
C2112 C2111 1.398 . S
C2112 C2113 1.391 . S
C2113 H2101 0.950 . S
C2113 C2109 1.393 . S
C2113 C2112 1.391 . S
C2114 H2104 0.950 . S
C2114 C2115 1.386 . S
C2114 C2116 1.391 . S
C2115 C2114 1.386 . S
C2115 C2119 1.393 . S
C2116 H2105 0.950 . S
C2116 C2114 1.391 . S
C2116 C2117 1.400 . S
C2117 C2111 1.491 . S
C2117 C2116 1.400 . S
C2117 C2118 1.398 . S
C2118 H2106 0.950 . S
C2118 C2117 1.398 . S
C2118 C2119 1.391 . S
C2119 H2107 0.950 . S
C2119 C2115 1.393 . S
C2119 C2118 1.391 . S
H2120 C2128 0.950 . S
H2121 C2133 0.950 . S
H2122 C2130 0.950 . S
H2123 C2132 0.950 . S
H2124 C2134 0.950 . S
H2125 C2136 0.950 . S
H2126 C2138 0.950 . S
H2127 C2139 0.950 . S
C2128 H2120 0.950 . S
C2128 C2129 1.386 . S
C2128 C2130 1.391 . S
C2129 C2128 1.386 . S
C2129 C2133 1.393 . S
C2130 H2122 0.950 . S
C2130 C2128 1.391 . S
C2130 C2131 1.400 . S
C2131 C2130 1.400 . S
C2131 C2132 1.398 . S
C2131 C2137 1.491 1_455 S
C2132 H2123 0.950 . S
C2132 C2131 1.398 . S
C2132 C2133 1.391 . S
C2133 H2121 0.950 . S
C2133 C2129 1.393 . S
C2133 C2132 1.391 . S
C2134 H2124 0.950 . S
C2134 C2135 1.386 . S
C2134 C2136 1.391 . S
C2135 C2134 1.386 . S
C2135 C2139 1.393 . S
C2136 H2125 0.950 . S
C2136 C2134 1.391 . S
C2136 C2137 1.400 . S
C2137 C2131 1.491 1_655 S
C2137 C2136 1.400 . S
C2137 C2138 1.398 . S
C2138 H2126 0.950 . S
C2138 C2137 1.398 . S
C2138 C2139 1.391 . S
C2139 H2127 0.950 . S
C2139 C2135 1.393 . S
C2139 C2138 1.391 . S
H2140 C2148 0.950 . S
H2141 C2153 0.950 . S
H2142 C2150 0.950 . S
H2143 C2152 0.950 . S
H2144 C2154 0.950 . S
H2145 C2156 0.950 . S
H2146 C2158 0.950 . S
H2147 C2159 0.950 . S
C2148 H2140 0.950 . S
C2148 C2149 1.386 . S
C2148 C2150 1.391 . S
C2149 C2148 1.386 . S
C2149 C2153 1.393 . S
C2150 H2142 0.950 . S
C2150 C2148 1.391 . S
C2150 C2151 1.400 1_556 S
C2151 C2150 1.400 1_554 S
C2151 C2152 1.398 . S
C2151 C2157 1.491 . S
C2152 H2143 0.950 . S
C2152 C2151 1.398 . S
C2152 C2153 1.391 1_554 S
C2153 H2141 0.950 . S
C2153 C2149 1.393 . S
C2153 C2152 1.391 1_556 S
C2154 H2144 0.950 . S
C2154 C2155 1.386 . S
C2154 C2156 1.391 . S
C2155 C2154 1.386 . S
C2155 C2159 1.393 . S
C2156 H2145 0.950 . S
C2156 C2154 1.391 . S
C2156 C2157 1.400 . S
C2157 C2151 1.491 . S
C2157 C2156 1.400 . S
C2157 C2158 1.398 . S
C2158 H2146 0.950 . S
C2158 C2157 1.398 . S
C2158 C2159 1.391 . S
C2159 H2147 0.950 . S
C2159 C2155 1.393 . S
C2159 C2158 1.391 . S
H2160 C2168 0.950 . S
H2161 C2173 0.950 . S
H2162 C2170 0.950 . S
H2163 C2172 0.950 . S
H2164 C2174 0.950 . S
H2165 C2176 0.950 . S
H2166 C2178 0.950 . S
H2167 C2179 0.950 . S
C2168 H2160 0.950 . S
C2168 C2169 1.386 . S
C2168 C2170 1.391 . S
C2169 C2168 1.386 . S
C2169 C2173 1.393 . S
C2170 H2162 0.950 . S
C2170 C2168 1.391 . S
C2170 C2171 1.400 . S
C2171 C2170 1.400 . S
C2171 C2172 1.398 . S
C2171 C2177 1.491 . S
C2172 H2163 0.950 . S
C2172 C2171 1.398 . S
C2172 C2173 1.391 . S
C2173 H2161 0.950 . S
C2173 C2169 1.393 . S
C2173 C2172 1.391 . S
C2174 H2164 0.950 . S
C2174 C2175 1.386 . S
C2174 C2176 1.391 . S
C2175 C2174 1.386 . S
C2175 C2179 1.393 . S
C2176 H2165 0.950 . S
C2176 C2174 1.391 . S
C2176 C2177 1.400 . S
C2177 C2171 1.491 . S
C2177 C2176 1.400 . S
C2177 C2178 1.398 . S
C2178 H2166 0.950 . S
C2178 C2177 1.398 . S
C2178 C2179 1.391 . S
C2179 H2167 0.950 . S
C2179 C2175 1.393 . S
C2179 C2178 1.391 . S
H2180 C2188 0.950 . S
H2181 C2193 0.950 . S
H2182 C2190 0.950 . S
H2183 C2192 0.950 . S
H2184 C2194 0.950 . S
H2185 C2196 0.950 . S
H2186 C2198 0.950 . S
H2187 C2199 0.950 . S
C2188 H2180 0.950 . S
C2188 C2189 1.386 . S
C2188 C2190 1.391 . S
C2189 C2188 1.386 . S
C2189 C2193 1.393 . S
C2190 H2182 0.950 . S
C2190 C2188 1.391 . S
C2190 C2191 1.400 . S
C2191 C2190 1.400 . S
C2191 C2192 1.398 . S
C2191 C2197 1.491 . S
C2192 H2183 0.950 . S
C2192 C2191 1.398 . S
C2192 C2193 1.391 . S
C2193 H2181 0.950 . S
C2193 C2189 1.393 . S
C2193 C2192 1.391 . S
C2194 H2184 0.950 . S
C2194 C2195 1.386 . S
C2194 C2196 1.391 . S
C2195 C2194 1.386 . S
C2195 C2199 1.393 . S
C2196 H2185 0.950 . S
C2196 C2194 1.391 . S
C2196 C2197 1.400 . S
C2197 C2191 1.491 . S
C2197 C2196 1.400 . S
C2197 C2198 1.398 . S
C2198 H2186 0.950 . S
C2198 C2197 1.398 . S
C2198 C2199 1.391 . S
C2199 H2187 0.950 . S
C2199 C2195 1.393 . S
C2199 C2198 1.391 . S
H2200 C2208 0.950 . S
H2201 C2213 0.950 . S
H2202 C2210 0.950 . S
H2203 C2212 0.950 . S
H2204 C2214 0.950 . S
H2205 C2216 0.950 1_455 S
H2206 C2218 0.950 . S
H2207 C2219 0.950 . S
C2208 H2200 0.950 . S
C2208 C2209 1.386 . S
C2208 C2210 1.391 . S
C2209 C2208 1.386 . S
C2209 C2213 1.393 . S
C2210 H2202 0.950 . S
C2210 C2208 1.391 . S
C2210 C2211 1.400 . S
C2211 C2210 1.400 . S
C2211 C2212 1.398 . S
C2211 C2217 1.491 1_455 S
C2212 H2203 0.950 . S
C2212 C2211 1.398 . S
C2212 C2213 1.391 . S
C2213 H2201 0.950 . S
C2213 C2209 1.393 . S
C2213 C2212 1.391 . S
C2214 H2204 0.950 . S
C2214 C2215 1.386 . S
C2214 C2216 1.391 . S
C2215 C2214 1.386 . S
C2215 C2219 1.393 . S
C2216 H2205 0.950 1_655 S
C2216 C2214 1.391 . S
C2216 C2217 1.400 . S
C2217 C2211 1.491 1_655 S
C2217 C2216 1.400 . S
C2217 C2218 1.398 . S
C2218 H2206 0.950 . S
C2218 C2217 1.398 . S
C2218 C2219 1.391 . S
C2219 H2207 0.950 . S
C2219 C2215 1.393 . S
C2219 C2218 1.391 . S
H2220 C2228 0.950 . S
H2221 C2233 0.950 . S
H2222 C2230 0.950 . S
H2223 C2232 0.950 . S
H2224 C2234 0.950 . S
H2225 C2236 0.950 . S
H2226 C2238 0.950 . S
H2227 C2239 0.950 . S
C2228 H2220 0.950 . S
C2228 C2229 1.386 . S
C2228 C2230 1.391 . S
C2229 C2228 1.386 . S
C2229 C2233 1.393 . S
C2230 H2222 0.950 . S
C2230 C2228 1.391 . S
C2230 C2231 1.400 . S
C2231 C2230 1.400 . S
C2231 C2232 1.398 . S
C2231 C2237 1.491 . S
C2232 H2223 0.950 . S
C2232 C2231 1.398 . S
C2232 C2233 1.391 . S
C2233 H2221 0.950 . S
C2233 C2229 1.393 . S
C2233 C2232 1.391 . S
C2234 H2224 0.950 . S
C2234 C2235 1.386 . S
C2234 C2236 1.391 . S
C2235 C2234 1.386 . S
C2235 C2239 1.393 . S
C2236 H2225 0.950 . S
C2236 C2234 1.391 . S
C2236 C2237 1.400 . S
C2237 C2231 1.491 . S
C2237 C2236 1.400 . S
C2237 C2238 1.398 . S
C2238 H2226 0.950 . S
C2238 C2237 1.398 . S
C2238 C2239 1.391 . S
C2239 H2227 0.950 . S
C2239 C2235 1.393 . S
C2239 C2238 1.391 . S
H2240 C2248 0.950 . S
H2241 C2253 0.950 . S
H2242 C2250 0.950 . S
H2243 C2252 0.950 . S
H2244 C2254 0.950 . S
H2245 C2256 0.950 . S
H2246 C2258 0.950 . S
H2247 C2259 0.950 . S
C2248 H2240 0.950 . S
C2248 C2249 1.386 . S
C2248 C2250 1.391 . S
C2249 C2248 1.386 . S
C2249 C2253 1.393 . S
C2250 H2242 0.950 . S
C2250 C2248 1.391 . S
C2250 C2251 1.400 . S
C2251 C2250 1.400 . S
C2251 C2252 1.398 . S
C2251 C2257 1.491 . S
C2252 H2243 0.950 . S
C2252 C2251 1.398 . S
C2252 C2253 1.391 . S
C2253 H2241 0.950 . S
C2253 C2249 1.393 . S
C2253 C2252 1.391 . S
C2254 H2244 0.950 . S
C2254 C2255 1.386 . S
C2254 C2256 1.391 . S
C2255 C2254 1.386 . S
C2255 C2259 1.393 . S
C2256 H2245 0.950 . S
C2256 C2254 1.391 . S
C2256 C2257 1.400 . S
C2257 C2251 1.491 . S
C2257 C2256 1.400 . S
C2257 C2258 1.398 . S
C2258 H2246 0.950 . S
C2258 C2257 1.398 . S
C2258 C2259 1.391 . S
C2259 H2247 0.950 . S
C2259 C2255 1.393 . S
C2259 C2258 1.391 . S
H2260 C2268 0.950 . S
H2261 C2273 0.950 1_556 S
H2262 C2270 0.950 . S
H2263 C2272 0.950 . S
H2264 C2274 0.950 . S
H2265 C2276 0.950 . S
H2266 C2278 0.950 . S
H2267 C2279 0.950 . S
C2268 H2260 0.950 . S
C2268 C2269 1.386 . S
C2268 C2270 1.391 . S
C2269 C2268 1.386 . S
C2269 C2273 1.393 . S
C2270 H2262 0.950 . S
C2270 C2268 1.391 . S
C2270 C2271 1.400 . S
C2271 C2270 1.400 . S
C2271 C2272 1.398 . S
C2271 C2277 1.491 . S
C2272 H2263 0.950 . S
C2272 C2271 1.398 . S
C2272 C2273 1.391 . S
C2273 H2261 0.950 1_554 S
C2273 C2269 1.393 . S
C2273 C2272 1.391 . S
C2274 H2264 0.950 . S
C2274 C2275 1.386 . S
C2274 C2276 1.391 . S
C2275 C2274 1.386 . S
C2275 C2279 1.393 . S
C2276 H2265 0.950 . S
C2276 C2274 1.391 . S
C2276 C2277 1.400 . S
C2277 C2271 1.491 . S
C2277 C2276 1.400 . S
C2277 C2278 1.398 . S
C2278 H2266 0.950 . S
C2278 C2277 1.398 . S
C2278 C2279 1.391 . S
C2279 H2267 0.950 . S
C2279 C2275 1.393 . S
C2279 C2278 1.391 . S
H2280 C2288 0.950 . S
H2281 C2293 0.950 . S
H2282 C2290 0.950 . S
H2283 C2292 0.950 . S
H2284 C2294 0.950 . S
H2285 C2296 0.950 . S
H2286 C2298 0.950 . S
H2287 C2299 0.950 . S
C2288 H2280 0.950 . S
C2288 C2289 1.386 . S
C2288 C2290 1.391 . S
C2289 C2288 1.386 . S
C2289 C2293 1.393 . S
C2290 H2282 0.950 . S
C2290 C2288 1.391 . S
C2290 C2291 1.400 . S
C2291 C2290 1.400 . S
C2291 C2292 1.398 . S
C2291 C2297 1.491 . S
C2292 H2283 0.950 . S
C2292 C2291 1.398 . S
C2292 C2293 1.391 . S
C2293 H2281 0.950 . S
C2293 C2289 1.393 . S
C2293 C2292 1.391 . S
C2294 H2284 0.950 . S
C2294 C2295 1.386 . S
C2294 C2296 1.391 . S
C2295 C2294 1.386 . S
C2295 C2299 1.393 . S
C2296 H2285 0.950 . S
C2296 C2294 1.391 . S
C2296 C2297 1.400 . S
C2297 C2291 1.491 . S
C2297 C2296 1.400 . S
C2297 C2298 1.398 . S
C2298 H2286 0.950 . S
C2298 C2297 1.398 . S
C2298 C2299 1.391 . S
C2299 H2287 0.950 . S
C2299 C2295 1.393 . S
C2299 C2298 1.391 . S
H2300 C2308 0.950 . S
H2301 C2313 0.950 . S
H2302 C2310 0.950 . S
H2303 C2312 0.950 . S
H2304 C2314 0.950 . S
H2305 C2316 0.950 . S
H2306 C2318 0.950 . S
H2307 C2319 0.950 . S
C2308 H2300 0.950 . S
C2308 C2309 1.386 . S
C2308 C2310 1.391 . S
C2309 C2308 1.386 . S
C2309 C2313 1.393 . S
C2310 H2302 0.950 . S
C2310 C2308 1.391 . S
C2310 C2311 1.400 . S
C2311 C2310 1.400 . S
C2311 C2312 1.398 . S
C2311 C2317 1.491 . S
C2312 H2303 0.950 . S
C2312 C2311 1.398 . S
C2312 C2313 1.391 . S
C2313 H2301 0.950 . S
C2313 C2309 1.393 . S
C2313 C2312 1.391 . S
C2314 H2304 0.950 . S
C2314 C2315 1.386 . S
C2314 C2316 1.391 . S
C2315 C2314 1.386 . S
C2315 C2319 1.393 . S
C2316 H2305 0.950 . S
C2316 C2314 1.391 . S
C2316 C2317 1.400 . S
C2317 C2311 1.491 . S
C2317 C2316 1.400 . S
C2317 C2318 1.398 . S
C2318 H2306 0.950 . S
C2318 C2317 1.398 . S
C2318 C2319 1.391 . S
C2319 H2307 0.950 . S
C2319 C2315 1.393 . S
C2319 C2318 1.391 . S
H2320 C2328 0.950 . S
H2321 C2333 0.950 . S
H2322 C2330 0.950 . S
H2323 C2332 0.950 . S
H2324 C2334 0.950 . S
H2325 C2336 0.950 . S
H2326 C2338 0.950 . S
H2327 C2339 0.950 . S
C2328 H2320 0.950 . S
C2328 C2329 1.386 . S
C2328 C2330 1.391 . S
C2329 C2328 1.386 . S
C2329 C2333 1.393 . S
C2330 H2322 0.950 . S
C2330 C2328 1.391 . S
C2330 C2331 1.400 . S
C2331 C2330 1.400 . S
C2331 C2332 1.398 . S
C2331 C2337 1.491 . S
C2332 H2323 0.950 . S
C2332 C2331 1.398 . S
C2332 C2333 1.391 . S
C2333 H2321 0.950 . S
C2333 C2329 1.393 . S
C2333 C2332 1.391 . S
C2334 H2324 0.950 . S
C2334 C2335 1.386 . S
C2334 C2336 1.391 . S
C2335 C2334 1.386 . S
C2335 C2339 1.393 . S
C2336 H2325 0.950 . S
C2336 C2334 1.391 . S
C2336 C2337 1.400 . S
C2337 C2331 1.491 . S
C2337 C2336 1.400 . S
C2337 C2338 1.398 . S
C2338 H2326 0.950 . S
C2338 C2337 1.398 . S
C2338 C2339 1.391 . S
C2339 H2327 0.950 . S
C2339 C2335 1.393 . S
C2339 C2338 1.391 . S
H2340 C2348 0.950 . S
H2341 C2353 0.950 1_556 S
H2342 C2350 0.950 . S
H2343 C2352 0.950 . S
H2344 C2354 0.950 . S
H2345 C2356 0.950 . S
H2346 C2358 0.950 . S
H2347 C2359 0.950 . S
C2348 H2340 0.950 . S
C2348 C2349 1.386 . S
C2348 C2350 1.391 . S
C2349 C2348 1.386 . S
C2349 C2353 1.393 . S
C2350 H2342 0.950 . S
C2350 C2348 1.391 . S
C2350 C2351 1.400 . S
C2351 C2350 1.400 . S
C2351 C2352 1.398 . S
C2351 C2357 1.491 . S
C2352 H2343 0.950 . S
C2352 C2351 1.398 . S
C2352 C2353 1.391 . S
C2353 H2341 0.950 1_554 S
C2353 C2349 1.393 . S
C2353 C2352 1.391 . S
C2354 H2344 0.950 . S
C2354 C2355 1.386 . S
C2354 C2356 1.391 . S
C2355 C2354 1.386 . S
C2355 C2359 1.393 . S
C2356 H2345 0.950 . S
C2356 C2354 1.391 . S
C2356 C2357 1.400 . S
C2357 C2351 1.491 . S
C2357 C2356 1.400 . S
C2357 C2358 1.398 . S
C2358 H2346 0.950 . S
C2358 C2357 1.398 . S
C2358 C2359 1.391 . S
C2359 H2347 0.950 . S
C2359 C2355 1.393 . S
C2359 C2358 1.391 . S
H2360 C2368 0.950 . S
H2361 C2373 0.950 . S
H2362 C2370 0.950 . S
H2363 C2372 0.950 . S
H2364 C2374 0.950 . S
H2365 C2376 0.950 . S
H2366 C2378 0.950 . S
H2367 C2379 0.950 . S
C2368 H2360 0.950 . S
C2368 C2369 1.386 . S
C2368 C2370 1.391 . S
C2369 C2368 1.386 . S
C2369 C2373 1.393 . S
C2370 H2362 0.950 . S
C2370 C2368 1.391 . S
C2370 C2371 1.400 . S
C2371 C2370 1.400 . S
C2371 C2372 1.398 . S
C2371 C2377 1.491 . S
C2372 H2363 0.950 . S
C2372 C2371 1.398 . S
C2372 C2373 1.391 . S
C2373 H2361 0.950 . S
C2373 C2369 1.393 . S
C2373 C2372 1.391 . S
C2374 H2364 0.950 . S
C2374 C2375 1.386 . S
C2374 C2376 1.391 . S
C2375 C2374 1.386 . S
C2375 C2379 1.393 . S
C2376 H2365 0.950 . S
C2376 C2374 1.391 . S
C2376 C2377 1.400 . S
C2377 C2371 1.491 . S
C2377 C2376 1.400 . S
C2377 C2378 1.398 . S
C2378 H2366 0.950 . S
C2378 C2377 1.398 . S
C2378 C2379 1.391 . S
C2379 H2367 0.950 . S
C2379 C2375 1.393 . S
C2379 C2378 1.391 . S
H2380 C2388 0.950 . S
H2381 C2393 0.950 . S
H2382 C2390 0.950 . S
H2383 C2392 0.950 . S
H2384 C2394 0.950 . S
H2385 C2396 0.950 . S
H2386 C2398 0.950 . S
H2387 C2399 0.950 . S
C2388 H2380 0.950 . S
C2388 C2389 1.386 . S
C2388 C2390 1.391 . S
C2389 C2388 1.386 . S
C2389 C2393 1.393 . S
C2390 H2382 0.950 . S
C2390 C2388 1.391 . S
C2390 C2391 1.400 . S
C2391 C2390 1.400 . S
C2391 C2392 1.398 . S
C2391 C2397 1.491 . S
C2392 H2383 0.950 . S
C2392 C2391 1.398 . S
C2392 C2393 1.391 . S
C2393 H2381 0.950 . S
C2393 C2389 1.393 . S
C2393 C2392 1.391 . S
C2394 H2384 0.950 . S
C2394 C2395 1.386 . S
C2394 C2396 1.391 . S
C2395 C2394 1.386 . S
C2395 C2399 1.393 . S
C2396 H2385 0.950 . S
C2396 C2394 1.391 . S
C2396 C2397 1.400 . S
C2397 C2391 1.491 . S
C2397 C2396 1.400 . S
C2397 C2398 1.398 . S
C2398 H2386 0.950 . S
C2398 C2397 1.398 . S
C2398 C2399 1.391 . S
C2399 H2387 0.950 . S
C2399 C2395 1.393 . S
C2399 C2398 1.391 . S
H2400 C2408 0.950 . S
H2401 C2413 0.950 . S
H2402 C2410 0.950 . S
H2403 C2412 0.950 . S
H2404 C2414 0.950 . S
H2405 C2416 0.950 . S
H2406 C2418 0.950 . S
H2407 C2419 0.950 . S
C2408 H2400 0.950 . S
C2408 C2409 1.386 . S
C2408 C2410 1.391 . S
C2409 C2408 1.386 . S
C2409 C2413 1.393 . S
C2410 H2402 0.950 . S
C2410 C2408 1.391 . S
C2410 C2411 1.400 . S
C2411 C2410 1.400 . S
C2411 C2412 1.398 . S
C2411 C2417 1.491 1_565 S
C2412 H2403 0.950 . S
C2412 C2411 1.398 . S
C2412 C2413 1.391 . S
C2413 H2401 0.950 . S
C2413 C2409 1.393 . S
C2413 C2412 1.391 . S
C2414 H2404 0.950 . S
C2414 C2415 1.386 . S
C2414 C2416 1.391 . S
C2415 C2414 1.386 . S
C2415 C2419 1.393 . S
C2416 H2405 0.950 . S
C2416 C2414 1.391 . S
C2416 C2417 1.400 . S
C2417 C2411 1.491 1_545 S
C2417 C2416 1.400 . S
C2417 C2418 1.398 . S
C2418 H2406 0.950 . S
C2418 C2417 1.398 . S
C2418 C2419 1.391 . S
C2419 H2407 0.950 . S
C2419 C2415 1.393 . S
C2419 C2418 1.391 . S
H2420 C2428 0.950 . S
H2421 C2433 0.950 . S
H2422 C2430 0.950 . S
H2423 C2432 0.950 . S
H2424 C2434 0.950 . S
H2425 C2436 0.950 . S
H2426 C2438 0.950 . S
H2427 C2439 0.950 . S
C2428 H2420 0.950 . S
C2428 C2429 1.386 . S
C2428 C2430 1.391 . S
C2429 C2428 1.386 . S
C2429 C2433 1.393 . S
C2430 H2422 0.950 . S
C2430 C2428 1.391 . S
C2430 C2431 1.400 . S
C2431 C2430 1.400 . S
C2431 C2432 1.398 . S
C2431 C2437 1.491 . S
C2432 H2423 0.950 . S
C2432 C2431 1.398 . S
C2432 C2433 1.391 . S
C2433 H2421 0.950 . S
C2433 C2429 1.393 . S
C2433 C2432 1.391 . S
C2434 H2424 0.950 . S
C2434 C2435 1.386 . S
C2434 C2436 1.391 . S
C2435 C2434 1.386 . S
C2435 C2439 1.393 . S
C2436 H2425 0.950 . S
C2436 C2434 1.391 . S
C2436 C2437 1.400 . S
C2437 C2431 1.491 . S
C2437 C2436 1.400 . S
C2437 C2438 1.398 . S
C2438 H2426 0.950 . S
C2438 C2437 1.398 . S
C2438 C2439 1.391 . S
C2439 H2427 0.950 . S
C2439 C2435 1.393 . S
C2439 C2438 1.391 . S
H2440 C2448 0.950 . S
H2441 C2453 0.950 1_565 S
H2442 C2450 0.950 . S
H2443 C2452 0.950 . S
H2444 C2454 0.950 . S
H2445 C2456 0.950 . S
H2446 C2458 0.950 . S
H2447 C2459 0.950 1_545 S
C2448 H2440 0.950 . S
C2448 C2449 1.386 . S
C2448 C2450 1.391 . S
C2449 C2448 1.386 . S
C2449 C2453 1.393 . S
C2450 H2442 0.950 . S
C2450 C2448 1.391 . S
C2450 C2451 1.400 . S
C2451 C2450 1.400 . S
C2451 C2452 1.398 1_545 S
C2451 C2457 1.491 1_545 S
C2452 H2443 0.950 . S
C2452 C2451 1.398 1_565 S
C2452 C2453 1.391 1_565 S
C2453 H2441 0.950 1_545 S
C2453 C2449 1.393 . S
C2453 C2452 1.391 1_545 S
C2454 H2444 0.950 . S
C2454 C2455 1.386 . S
C2454 C2456 1.391 . S
C2455 C2454 1.386 . S
C2455 C2459 1.393 . S
C2456 H2445 0.950 . S
C2456 C2454 1.391 . S
C2456 C2457 1.400 . S
C2457 C2451 1.491 1_565 S
C2457 C2456 1.400 . S
C2457 C2458 1.398 1_565 S
C2458 H2446 0.950 . S
C2458 C2457 1.398 1_545 S
C2458 C2459 1.391 1_545 S
C2459 H2447 0.950 1_565 S
C2459 C2455 1.393 . S
C2459 C2458 1.391 1_565 S
H2460 C2468 0.950 . S
H2461 C2473 0.950 . S
H2462 C2470 0.950 . S
H2463 C2472 0.950 . S
H2464 C2474 0.950 . S
H2465 C2476 0.950 . S
H2466 C2478 0.950 . S
H2467 C2479 0.950 1_556 S
C2468 H2460 0.950 . S
C2468 C2469 1.386 . S
C2468 C2470 1.391 . S
C2469 C2468 1.386 . S
C2469 C2473 1.393 . S
C2470 H2462 0.950 . S
C2470 C2468 1.391 . S
C2470 C2471 1.400 . S
C2471 C2470 1.400 . S
C2471 C2472 1.398 . S
C2471 C2477 1.491 . S
C2472 H2463 0.950 . S
C2472 C2471 1.398 . S
C2472 C2473 1.391 . S
C2473 H2461 0.950 . S
C2473 C2469 1.393 . S
C2473 C2472 1.391 . S
C2474 H2464 0.950 . S
C2474 C2475 1.386 . S
C2474 C2476 1.391 . S
C2475 C2474 1.386 . S
C2475 C2479 1.393 . S
C2476 H2465 0.950 . S
C2476 C2474 1.391 . S
C2476 C2477 1.400 . S
C2477 C2471 1.491 . S
C2477 C2476 1.400 . S
C2477 C2478 1.398 . S
C2478 H2466 0.950 . S
C2478 C2477 1.398 . S
C2478 C2479 1.391 . S
C2479 H2467 0.950 1_554 S
C2479 C2475 1.393 . S
C2479 C2478 1.391 . S
H2480 C2488 0.950 . S
H2481 C2493 0.950 . S
H2482 C2490 0.950 . S
H2483 C2492 0.980 . S
H2484 C2494 0.950 . S
H2485 C2496 0.950 . S
H2486 C2498 0.975 . S
H2487 C2499 0.950 . S
C2488 H2480 0.950 . S
C2488 C2489 1.386 . S
C2488 C2490 1.391 . S
C2489 C2488 1.386 . S
C2489 C2493 1.393 . S
C2490 H2482 0.950 . S
C2490 C2488 1.391 . S
C2490 C2491 1.400 . S
C2491 C2490 1.400 . S
C2491 C2492 1.387 1_565 S
C2491 C2497 1.491 1_565 S
C2492 H2483 0.980 . S
C2492 C2491 1.387 1_545 S
C2492 C2493 1.373 1_545 S
C2493 H2481 0.950 . S
C2493 C2489 1.393 . S
C2493 C2492 1.373 1_565 S
C2494 H2484 0.950 . S
C2494 C2495 1.386 . S
C2494 C2496 1.391 . S
C2495 C2494 1.386 . S
C2495 C2499 1.393 . S
C2496 H2485 0.950 . S
C2496 C2494 1.391 . S
C2496 C2497 1.400 . S
C2497 C2491 1.491 1_545 S
C2497 C2496 1.400 . S
C2497 C2498 1.389 1_545 S
C2498 H2486 0.975 . S
C2498 C2497 1.389 1_565 S
C2498 C2499 1.376 1_565 S
C2499 H2487 0.950 . S
C2499 C2495 1.393 . S
C2499 C2498 1.376 1_545 S
H2500 C2508 0.950 . S
H2501 C2513 0.950 . S
H2502 C2510 0.950 . S
H2503 C2512 0.950 . S
H2504 C2514 0.950 . S
H2505 C2516 0.950 . S
H2506 C2518 0.950 . S
H2507 C2519 0.950 . S
C2508 H2500 0.950 . S
C2508 C2509 1.386 . S
C2508 C2510 1.391 . S
C2509 C2508 1.386 . S
C2509 C2513 1.393 . S
C2510 H2502 0.950 . S
C2510 C2508 1.391 . S
C2510 C2511 1.400 . S
C2511 C2510 1.400 . S
C2511 C2512 1.398 . S
C2511 C2517 1.491 . S
C2512 H2503 0.950 . S
C2512 C2511 1.398 . S
C2512 C2513 1.391 . S
C2513 H2501 0.950 . S
C2513 C2509 1.393 . S
C2513 C2512 1.391 . S
C2514 H2504 0.950 . S
C2514 C2515 1.386 . S
C2514 C2516 1.391 . S
C2515 C2514 1.386 . S
C2515 C2519 1.393 . S
C2516 H2505 0.950 . S
C2516 C2514 1.391 . S
C2516 C2517 1.400 . S
C2517 C2511 1.491 . S
C2517 C2516 1.400 . S
C2517 C2518 1.398 . S
C2518 H2506 0.950 . S
C2518 C2517 1.398 . S
C2518 C2519 1.391 . S
C2519 H2507 0.950 . S
C2519 C2515 1.393 . S
C2519 C2518 1.391 . S
H2520 C2528 0.950 . S
H2521 C2533 0.950 . S
H2522 C2530 0.962 . S
H2523 C2532 0.950 . S
H2524 C2534 0.950 . S
H2525 C2536 0.960 . S
H2526 C2538 0.950 . S
H2527 C2539 0.950 . S
C2528 H2520 0.950 . S
C2528 C2529 1.386 . S
C2528 C2530 1.391 . S
C2529 C2528 1.386 . S
C2529 C2533 1.393 . S
C2530 H2522 0.962 . S
C2530 C2528 1.391 . S
C2530 C2531 1.400 . S
C2531 C2530 1.400 . S
C2531 C2532 1.398 . S
C2531 C2537 1.491 1_565 S
C2532 H2523 0.950 . S
C2532 C2531 1.398 . S
C2532 C2533 1.391 . S
C2533 H2521 0.950 . S
C2533 C2529 1.393 . S
C2533 C2532 1.391 . S
C2534 H2524 0.950 . S
C2534 C2535 1.386 . S
C2534 C2536 1.391 . S
C2535 C2534 1.386 . S
C2535 C2539 1.393 . S
C2536 H2525 0.960 . S
C2536 C2534 1.391 . S
C2536 C2537 1.400 . S
C2537 C2531 1.491 1_545 S
C2537 C2536 1.400 . S
C2537 C2538 1.398 . S
C2538 H2526 0.950 . S
C2538 C2537 1.398 . S
C2538 C2539 1.391 . S
C2539 H2527 0.950 . S
C2539 C2535 1.393 . S
C2539 C2538 1.391 . S
H2540 C2548 0.950 . S
H2541 C2553 0.950 . S
H2542 C2550 0.950 . S
H2543 C2552 0.950 . S
H2544 C2554 0.950 1_556 S
H2545 C2556 0.950 . S
H2546 C2558 0.950 . S
H2547 C2559 0.950 . S
C2548 H2540 0.950 . S
C2548 C2549 1.386 . S
C2548 C2550 1.391 . S
C2549 C2548 1.386 . S
C2549 C2553 1.393 . S
C2550 H2542 0.950 . S
C2550 C2548 1.391 . S
C2550 C2551 1.400 . S
C2551 C2550 1.400 . S
C2551 C2552 1.398 . S
C2551 C2557 1.491 . S
C2552 H2543 0.950 . S
C2552 C2551 1.398 . S
C2552 C2553 1.391 . S
C2553 H2541 0.950 . S
C2553 C2549 1.393 . S
C2553 C2552 1.391 . S
C2554 H2544 0.950 1_554 S
C2554 C2555 1.386 . S
C2554 C2556 1.391 . S
C2555 C2554 1.386 . S
C2555 C2559 1.393 . S
C2556 H2545 0.950 . S
C2556 C2554 1.391 . S
C2556 C2557 1.400 . S
C2557 C2551 1.491 . S
C2557 C2556 1.400 . S
C2557 C2558 1.398 . S
C2558 H2546 0.950 . S
C2558 C2557 1.398 . S
C2558 C2559 1.391 . S
C2559 H2547 0.950 . S
C2559 C2555 1.393 . S
C2559 C2558 1.391 . S
C649 C16 0.975 . S
C655 C96 0.972 . S
C669 C119 0.989 . S
C675 C39 0.995 . S
C689 C59 0.855 . S
C695 C139 0.863 1_556 S
C709 C159 0.994 . S
C715 C79 0.988 1_554 S
C729 C166 0.963 . S
C735 C246 0.969 . S
C749 C188 0.964 . S
C755 C268 0.960 . S
C769 C288 0.875 . S
C775 C208 0.880 . S
C789 C228 0.957 . S
C795 C308 0.955 1_554 S
C809 C416 0.976 . S
C815 C336 0.975 . S
C829 C359 0.972 1_554 S
C835 C439 0.983 . S
C849 C379 0.867 . S
C855 C459 0.874 . S
C869 C399 0.960 . S
C875 C479 0.954 . S
C889 C486 0.975 . S
C895 C566 0.976 . S
C909 C588 0.982 1_554 S
C915 C508 0.971 . S
C929 C528 0.842 1_556 S
C935 C608 0.850 . S
C949 C628 0.954 . S
C955 C548 0.959 . S
C969 C421 1.212 . S
C975 C9 1.213 . S
C989 C441 1.326 . S
C995 C21 1.345 . S
C1009 C461 1.343 . S
C1015 C41 1.328 . S
C1029 C61 1.218 . S
C1035 C409 1.220 . S
C1049 C89 1.213 . S
C1055 C381 1.211 . S
C1069 C329 1.213 . S
C1075 C101 1.211 . S
C1089 C121 1.330 . S
C1095 C341 1.343 . S
C1109 C141 1.345 . S
C1115 C361 1.321 . S
C1129 C161 1.218 . S
C1135 C589 1.216 . S
C1149 C609 1.316 . S
C1155 C189 1.345 . S
C1169 C629 1.343 . S
C1175 C209 1.312 . S
C1189 C229 1.214 . S
C1195 C561 1.214 . S
C1209 C241 1.216 . S
C1215 C549 1.213 . S
C1229 C269 1.215 . S
C1235 C481 1.218 . S
C1249 C289 1.319 . S
C1255 C509 1.342 . S
C1269 C309 1.344 . S
C1275 C529 1.331 . S
C1289 C169 1.174 . S
C1295 C1 1.174 . S
C1309 C29 1.037 . S
C1315 C501 1.037 . S
C1329 C201 0.947 . S
C1335 C49 0.948 . S
C1349 C69 1.012 . S
C1355 C541 1.012 . S
C1369 C249 1.185 . S
C1375 C81 1.185 . S
C1389 C581 1.013 . S
C1395 C109 1.014 . S
C1409 C129 0.947 . S
C1415 C281 0.947 . S
C1429 C149 1.029 . S
C1435 C621 1.029 . S
C1449 C349 1.030 . S
C1455 C181 1.030 . S
C1469 C389 1.030 . S
C1475 C221 1.030 . S
C1489 C261 1.033 . S
C1495 C429 1.033 . S
C1509 C469 1.029 . S
C1515 C301 1.029 . S
C1529 C489 1.190 . S
C1535 C321 1.190 . S
C1549 C521 0.977 . S
C1555 C369 0.978 . S
C1569 C569 1.161 . S
C1575 C401 1.161 . S
C1589 C449 0.981 . S
C1595 C601 0.981 . S
C1609 C6 1.536 . S
C1615 C259 1.467 . S
C1629 C596 1.694 . S
C1635 C28 1.693 . S
C1649 C296 1.741 . S
C1655 C48 1.732 . S
C1669 C68 1.679 . S
C1675 C636 1.679 . S
C1689 C179 1.449 1_556 S
C1695 C86 1.505 . S
C1709 C516 1.661 . S
C1715 C108 1.664 . S
C1729 C216 1.729 . S
C1735 C128 1.724 . S
C1749 C556 1.677 . S
C1755 C148 1.673 . S
C1769 C88 1.445 . S
C1775 C176 1.509 . S
C1789 C426 1.685 . S
C1795 C199 1.681 . S
C1809 C126 1.724 . S
C1815 C219 1.718 . S
C1829 C239 1.664 . S
C1835 C466 1.662 . S
C1849 C8 1.476 . S
C1855 C256 1.527 . S
C1869 C346 1.678 . S
C1875 C279 1.681 . S
C1889 C299 1.735 . S
C1895 C46 1.739 . S
C1909 C319 1.694 . S
C1915 C386 1.695 . S
C1929 C579 1.472 . S
C1935 C326 1.527 . S
C1949 C276 1.695 . S
C1955 C348 1.693 . S
C1969 C368 1.738 . S
C1975 C616 1.745 . S
C1989 C316 1.675 . S
C1995 C388 1.678 . S
C2009 C406 1.517 . S
C2015 C499 1.468 . S
C2029 C428 1.672 . S
C2035 C196 1.673 . S
C2049 C536 1.726 . S
C2055 C448 1.717 . S
C2069 C236 1.691 . S
C2075 C468 1.691 . S
C2089 C496 1.521 . S
C2095 C408 1.474 1_556 S
C2109 C519 1.692 . S
C2115 C106 1.695 . S
C2129 C539 1.717 . S
C2135 C446 1.724 . S
C2149 C559 1.678 . S
C2155 C146 1.678 . S
C2169 C328 1.471 . S
C2175 C576 1.539 . S
C2189 C26 1.666 . S
C2195 C599 1.669 . S
C2209 C619 1.717 . S
C2215 C366 1.726 . S
C2229 C66 1.693 . S
C2235 C639 1.689 . S
C2249 C99 2.404 . S
C2255 C19 2.401 1_556 S
C2269 C116 1.824 1_554 S
C2275 C36 1.827 . S
C2289 C56 1.792 . S
C2295 C136 1.796 . S
C2309 C156 1.818 . S
C2315 C76 1.823 . S
C2329 C248 2.408 . S
C2335 C168 2.413 . S
C2349 C186 1.828 1_554 S
C2355 C266 1.825 . S
C2369 C206 1.795 . S
C2375 C286 1.797 1_556 S
C2389 C306 1.827 . S
C2395 C226 1.832 . S
C2409 C339 2.401 . S
C2415 C419 2.402 . S
C2429 C436 1.821 . S
C2435 C356 1.823 . S
C2449 C376 1.790 1_556 S
C2455 C456 1.794 . S
C2469 C396 1.822 . S
C2475 C476 1.825 1_554 S
C2489 C568 2.402 1_556 S
C2495 C488 2.405 . S
C2509 C586 1.818 . S
C2515 C506 1.818 . S
C2529 C526 1.797 . S
C2535 C606 1.797 . S
C2549 C626 1.827 . S
C2555 C546 1.832 1_554 S
