# Generated by pormake.
# Topology wnd, (6)-cn, num edge types: 1
# Building blocks:
#     Node 0, Type 0, BuildingBlock: PAMTOO_clean_sbu_0, # of connection points: 6
#     Node 1, Type 0, BuildingBlock: PAMTOO_clean_sbu_0, # of connection points: 6
#     Node 2, Type 0, BuildingBlock: PAMTOO_clean_sbu_0, # of connection points: 6
#     Node 3, Type 0, BuildingBlock: PAMTOO_clean_sbu_0, # of connection points: 6
#     Node 4, Type 0, BuildingBlock: PAMTOO_clean_sbu_0, # of connection points: 6
#     Node 5, Type 0, BuildingBlock: PAMTOO_clean_sbu_0, # of connection points: 6
#     Node 6, Type 0, BuildingBlock: PAMTOO_clean_sbu_0, # of connection points: 6
#     Node 7, Type 0, BuildingBlock: PAMTOO_clean_sbu_0, # of connection points: 6
#     Node 8, Type 0, BuildingBlock: PAMTOO_clean_sbu_0, # of connection points: 6
#     Node 9, Type 0, BuildingBlock: PAMTOO_clean_sbu_0, # of connection points: 6
#     Node 10, Type 0, BuildingBlock: PAMTOO_clean_sbu_0, # of connection points: 6
#     Node 11, Type 0, BuildingBlock: PAMTOO_clean_sbu_0, # of connection points: 6
#     Node 12, Type 0, BuildingBlock: PAMTOO_clean_sbu_0, # of connection points: 6
#     Node 13, Type 0, BuildingBlock: PAMTOO_clean_sbu_0, # of connection points: 6
#     Node 14, Type 0, BuildingBlock: PAMTOO_clean_sbu_0, # of connection points: 6
#     Node 15, Type 0, BuildingBlock: PAMTOO_clean_sbu_0, # of connection points: 6
#     Node 16, Type 0, BuildingBlock: PAMTOO_clean_sbu_0, # of connection points: 6
#     Node 17, Type 0, BuildingBlock: PAMTOO_clean_sbu_0, # of connection points: 6
#     Node 18, Type 0, BuildingBlock: PAMTOO_clean_sbu_0, # of connection points: 6
#     Node 19, Type 0, BuildingBlock: PAMTOO_clean_sbu_0, # of connection points: 6
#     Node 20, Type 0, BuildingBlock: PAMTOO_clean_sbu_0, # of connection points: 6
#     Node 21, Type 0, BuildingBlock: PAMTOO_clean_sbu_0, # of connection points: 6
#     Node 22, Type 0, BuildingBlock: PAMTOO_clean_sbu_0, # of connection points: 6
#     Node 23, Type 0, BuildingBlock: PAMTOO_clean_sbu_0, # of connection points: 6
#     Node 24, Type 0, BuildingBlock: PAMTOO_clean_sbu_0, # of connection points: 6
#     Node 25, Type 0, BuildingBlock: PAMTOO_clean_sbu_0, # of connection points: 6
#     Node 26, Type 0, BuildingBlock: PAMTOO_clean_sbu_0, # of connection points: 6
#     Node 27, Type 0, BuildingBlock: PAMTOO_clean_sbu_0, # of connection points: 6
#     Node 28, Type 0, BuildingBlock: PAMTOO_clean_sbu_0, # of connection points: 6
#     Node 29, Type 0, BuildingBlock: PAMTOO_clean_sbu_0, # of connection points: 6
#     Node 30, Type 0, BuildingBlock: PAMTOO_clean_sbu_0, # of connection points: 6
#     Node 31, Type 0, BuildingBlock: PAMTOO_clean_sbu_0, # of connection points: 6
#     Node 32, Type 0, BuildingBlock: PAMTOO_clean_sbu_0, # of connection points: 6
#     Node 33, Type 0, BuildingBlock: PAMTOO_clean_sbu_0, # of connection points: 6
#     Node 34, Type 0, BuildingBlock: PAMTOO_clean_sbu_0, # of connection points: 6
#     Node 35, Type 0, BuildingBlock: PAMTOO_clean_sbu_0, # of connection points: 6
#     Edge 36, Type (0, 0), BuildingBlock: OJICUG_clean_linker_0, # of connection points: 2
#     Edge 37, Type (0, 0), BuildingBlock: OJICUG_clean_linker_0, # of connection points: 2
#     Edge 38, Type (0, 0), BuildingBlock: OJICUG_clean_linker_0, # of connection points: 2
#     Edge 39, Type (0, 0), BuildingBlock: OJICUG_clean_linker_0, # of connection points: 2
#     Edge 40, Type (0, 0), BuildingBlock: OJICUG_clean_linker_0, # of connection points: 2
#     Edge 41, Type (0, 0), BuildingBlock: OJICUG_clean_linker_0, # of connection points: 2
#     Edge 42, Type (0, 0), BuildingBlock: OJICUG_clean_linker_0, # of connection points: 2
#     Edge 43, Type (0, 0), BuildingBlock: OJICUG_clean_linker_0, # of connection points: 2
#     Edge 44, Type (0, 0), BuildingBlock: OJICUG_clean_linker_0, # of connection points: 2
#     Edge 45, Type (0, 0), BuildingBlock: OJICUG_clean_linker_0, # of connection points: 2
#     Edge 46, Type (0, 0), BuildingBlock: OJICUG_clean_linker_0, # of connection points: 2
#     Edge 47, Type (0, 0), BuildingBlock: OJICUG_clean_linker_0, # of connection points: 2
#     Edge 48, Type (0, 0), BuildingBlock: OJICUG_clean_linker_0, # of connection points: 2
#     Edge 49, Type (0, 0), BuildingBlock: OJICUG_clean_linker_0, # of connection points: 2
#     Edge 50, Type (0, 0), BuildingBlock: OJICUG_clean_linker_0, # of connection points: 2
#     Edge 51, Type (0, 0), BuildingBlock: OJICUG_clean_linker_0, # of connection points: 2
#     Edge 52, Type (0, 0), BuildingBlock: OJICUG_clean_linker_0, # of connection points: 2
#     Edge 53, Type (0, 0), BuildingBlock: OJICUG_clean_linker_0, # of connection points: 2
#     Edge 54, Type (0, 0), BuildingBlock: OJICUG_clean_linker_0, # of connection points: 2
#     Edge 55, Type (0, 0), BuildingBlock: OJICUG_clean_linker_0, # of connection points: 2
#     Edge 56, Type (0, 0), BuildingBlock: OJICUG_clean_linker_0, # of connection points: 2
#     Edge 57, Type (0, 0), BuildingBlock: OJICUG_clean_linker_0, # of connection points: 2
#     Edge 58, Type (0, 0), BuildingBlock: OJICUG_clean_linker_0, # of connection points: 2
#     Edge 59, Type (0, 0), BuildingBlock: OJICUG_clean_linker_0, # of connection points: 2
#     Edge 60, Type (0, 0), BuildingBlock: OJICUG_clean_linker_0, # of connection points: 2
#     Edge 61, Type (0, 0), BuildingBlock: OJICUG_clean_linker_0, # of connection points: 2
#     Edge 62, Type (0, 0), BuildingBlock: OJICUG_clean_linker_0, # of connection points: 2
#     Edge 63, Type (0, 0), BuildingBlock: OJICUG_clean_linker_0, # of connection points: 2
#     Edge 64, Type (0, 0), BuildingBlock: OJICUG_clean_linker_0, # of connection points: 2
#     Edge 65, Type (0, 0), BuildingBlock: OJICUG_clean_linker_0, # of connection points: 2
#     Edge 66, Type (0, 0), BuildingBlock: OJICUG_clean_linker_0, # of connection points: 2
#     Edge 67, Type (0, 0), BuildingBlock: OJICUG_clean_linker_0, # of connection points: 2
#     Edge 68, Type (0, 0), BuildingBlock: OJICUG_clean_linker_0, # of connection points: 2
#     Edge 69, Type (0, 0), BuildingBlock: OJICUG_clean_linker_0, # of connection points: 2
#     Edge 70, Type (0, 0), BuildingBlock: OJICUG_clean_linker_0, # of connection points: 2
#     Edge 71, Type (0, 0), BuildingBlock: OJICUG_clean_linker_0, # of connection points: 2
#     Edge 72, Type (0, 0), BuildingBlock: OJICUG_clean_linker_0, # of connection points: 2
#     Edge 73, Type (0, 0), BuildingBlock: OJICUG_clean_linker_0, # of connection points: 2
#     Edge 74, Type (0, 0), BuildingBlock: OJICUG_clean_linker_0, # of connection points: 2
#     Edge 75, Type (0, 0), BuildingBlock: OJICUG_clean_linker_0, # of connection points: 2
#     Edge 76, Type (0, 0), BuildingBlock: OJICUG_clean_linker_0, # of connection points: 2
#     Edge 77, Type (0, 0), BuildingBlock: OJICUG_clean_linker_0, # of connection points: 2
#     Edge 78, Type (0, 0), BuildingBlock: OJICUG_clean_linker_0, # of connection points: 2
#     Edge 79, Type (0, 0), BuildingBlock: OJICUG_clean_linker_0, # of connection points: 2
#     Edge 80, Type (0, 0), BuildingBlock: OJICUG_clean_linker_0, # of connection points: 2
#     Edge 81, Type (0, 0), BuildingBlock: OJICUG_clean_linker_0, # of connection points: 2
#     Edge 82, Type (0, 0), BuildingBlock: OJICUG_clean_linker_0, # of connection points: 2
#     Edge 83, Type (0, 0), BuildingBlock: OJICUG_clean_linker_0, # of connection points: 2
#     Edge 84, Type (0, 0), BuildingBlock: OJICUG_clean_linker_0, # of connection points: 2
#     Edge 85, Type (0, 0), BuildingBlock: OJICUG_clean_linker_0, # of connection points: 2
#     Edge 86, Type (0, 0), BuildingBlock: OJICUG_clean_linker_0, # of connection points: 2
#     Edge 87, Type (0, 0), BuildingBlock: OJICUG_clean_linker_0, # of connection points: 2
#     Edge 88, Type (0, 0), BuildingBlock: OJICUG_clean_linker_0, # of connection points: 2
#     Edge 89, Type (0, 0), BuildingBlock: OJICUG_clean_linker_0, # of connection points: 2
#     Edge 90, Type (0, 0), BuildingBlock: OJICUG_clean_linker_0, # of connection points: 2
#     Edge 91, Type (0, 0), BuildingBlock: OJICUG_clean_linker_0, # of connection points: 2
#     Edge 92, Type (0, 0), BuildingBlock: OJICUG_clean_linker_0, # of connection points: 2
#     Edge 93, Type (0, 0), BuildingBlock: OJICUG_clean_linker_0, # of connection points: 2
#     Edge 94, Type (0, 0), BuildingBlock: OJICUG_clean_linker_0, # of connection points: 2
#     Edge 95, Type (0, 0), BuildingBlock: OJICUG_clean_linker_0, # of connection points: 2
#     Edge 96, Type (0, 0), BuildingBlock: OJICUG_clean_linker_0, # of connection points: 2
#     Edge 97, Type (0, 0), BuildingBlock: OJICUG_clean_linker_0, # of connection points: 2
#     Edge 98, Type (0, 0), BuildingBlock: OJICUG_clean_linker_0, # of connection points: 2
#     Edge 99, Type (0, 0), BuildingBlock: OJICUG_clean_linker_0, # of connection points: 2
#     Edge 100, Type (0, 0), BuildingBlock: OJICUG_clean_linker_0, # of connection points: 2
#     Edge 101, Type (0, 0), BuildingBlock: OJICUG_clean_linker_0, # of connection points: 2
#     Edge 102, Type (0, 0), BuildingBlock: OJICUG_clean_linker_0, # of connection points: 2
#     Edge 103, Type (0, 0), BuildingBlock: OJICUG_clean_linker_0, # of connection points: 2
#     Edge 104, Type (0, 0), BuildingBlock: OJICUG_clean_linker_0, # of connection points: 2
#     Edge 105, Type (0, 0), BuildingBlock: OJICUG_clean_linker_0, # of connection points: 2
#     Edge 106, Type (0, 0), BuildingBlock: OJICUG_clean_linker_0, # of connection points: 2
#     Edge 107, Type (0, 0), BuildingBlock: OJICUG_clean_linker_0, # of connection points: 2
#     Edge 108, Type (0, 0), BuildingBlock: OJICUG_clean_linker_0, # of connection points: 2
#     Edge 109, Type (0, 0), BuildingBlock: OJICUG_clean_linker_0, # of connection points: 2
#     Edge 110, Type (0, 0), BuildingBlock: OJICUG_clean_linker_0, # of connection points: 2
#     Edge 111, Type (0, 0), BuildingBlock: OJICUG_clean_linker_0, # of connection points: 2
#     Edge 112, Type (0, 0), BuildingBlock: OJICUG_clean_linker_0, # of connection points: 2
#     Edge 113, Type (0, 0), BuildingBlock: OJICUG_clean_linker_0, # of connection points: 2
#     Edge 114, Type (0, 0), BuildingBlock: OJICUG_clean_linker_0, # of connection points: 2
#     Edge 115, Type (0, 0), BuildingBlock: OJICUG_clean_linker_0, # of connection points: 2
#     Edge 116, Type (0, 0), BuildingBlock: OJICUG_clean_linker_0, # of connection points: 2
#     Edge 117, Type (0, 0), BuildingBlock: OJICUG_clean_linker_0, # of connection points: 2
#     Edge 118, Type (0, 0), BuildingBlock: OJICUG_clean_linker_0, # of connection points: 2
#     Edge 119, Type (0, 0), BuildingBlock: OJICUG_clean_linker_0, # of connection points: 2
#     Edge 120, Type (0, 0), BuildingBlock: OJICUG_clean_linker_0, # of connection points: 2
#     Edge 121, Type (0, 0), BuildingBlock: OJICUG_clean_linker_0, # of connection points: 2
#     Edge 122, Type (0, 0), BuildingBlock: OJICUG_clean_linker_0, # of connection points: 2
#     Edge 123, Type (0, 0), BuildingBlock: OJICUG_clean_linker_0, # of connection points: 2
#     Edge 124, Type (0, 0), BuildingBlock: OJICUG_clean_linker_0, # of connection points: 2
#     Edge 125, Type (0, 0), BuildingBlock: OJICUG_clean_linker_0, # of connection points: 2
#     Edge 126, Type (0, 0), BuildingBlock: OJICUG_clean_linker_0, # of connection points: 2
#     Edge 127, Type (0, 0), BuildingBlock: OJICUG_clean_linker_0, # of connection points: 2
#     Edge 128, Type (0, 0), BuildingBlock: OJICUG_clean_linker_0, # of connection points: 2
#     Edge 129, Type (0, 0), BuildingBlock: OJICUG_clean_linker_0, # of connection points: 2
#     Edge 130, Type (0, 0), BuildingBlock: OJICUG_clean_linker_0, # of connection points: 2
#     Edge 131, Type (0, 0), BuildingBlock: OJICUG_clean_linker_0, # of connection points: 2
#     Edge 132, Type (0, 0), BuildingBlock: OJICUG_clean_linker_0, # of connection points: 2
#     Edge 133, Type (0, 0), BuildingBlock: OJICUG_clean_linker_0, # of connection points: 2
#     Edge 134, Type (0, 0), BuildingBlock: OJICUG_clean_linker_0, # of connection points: 2
#     Edge 135, Type (0, 0), BuildingBlock: OJICUG_clean_linker_0, # of connection points: 2
#     Edge 136, Type (0, 0), BuildingBlock: OJICUG_clean_linker_0, # of connection points: 2
#     Edge 137, Type (0, 0), BuildingBlock: OJICUG_clean_linker_0, # of connection points: 2
#     Edge 138, Type (0, 0), BuildingBlock: OJICUG_clean_linker_0, # of connection points: 2
#     Edge 139, Type (0, 0), BuildingBlock: OJICUG_clean_linker_0, # of connection points: 2
#     Edge 140, Type (0, 0), BuildingBlock: OJICUG_clean_linker_0, # of connection points: 2
#     Edge 141, Type (0, 0), BuildingBlock: OJICUG_clean_linker_0, # of connection points: 2
#     Edge 142, Type (0, 0), BuildingBlock: OJICUG_clean_linker_0, # of connection points: 2
#     Edge 143, Type (0, 0), BuildingBlock: OJICUG_clean_linker_0, # of connection points: 2
# Relax obj value: 0.090
# Max RMSD: 0.220
# Mean RMSD: 0.220
data_MOF--net-wnd--node1-PAMTOO_clean_sbu_0--edge1-OJICUG_clean_linker_0
_symmetry_space_group_name_H-M    P1
_symmetry_Int_Tables_number       1
_symmetry_cell_setting            triclinic
loop_
_symmetry_equiv_pos_as_xyz
'x, y, z'
_cell_length_a     31.789005
_cell_length_b     31.821665
_cell_length_c     115.32752
_cell_angle_alpha  89.855729
_cell_angle_beta   90.053777
_cell_angle_gamma 119.89301
loop_
_atom_site_label
_atom_site_type_symbol
_atom_site_fract_x
_atom_site_fract_y
_atom_site_fract_z
_atom_type_partial_charge
Dy0 Dy 0.55382 0.03952 0.04116 0.0
Dy1 Dy 0.51106 0.10534 0.02954 0.0
C2 C 0.54565 0.05158 0.01351 0.0
O3 O 0.61252 0.11623 0.04305 0.0
O4 O 0.59249 0.14665 0.02731 0.0
O5 O 0.61467 0.02885 0.04466 0.0
O6 O 0.54346 0.97705 0.05109 0.0
O7 O 0.5382 0.13225 0.04702 0.0
O8 O 0.51467 0.05867 0.05487 0.0
O9 O 0.44704 0.03246 0.03481 0.0
O10 O 0.48476 0.98763 0.03267 0.0
O11 O 0.46411 0.13586 0.03129 0.0
O12 O 0.51026 0.15256 0.01613 0.0
C13 C 0.62496 0.1486 0.03475 0.0
O14 O 0.5724 0.04988 0.02207 0.0
O15 O 0.50862 0.05765 0.01553 0.0
C16 C 0.59758 0.9479 0.04669 0.0
C17 C 0.61682 0.87255 0.04081 0.0
C18 C 0.59237 0.8873 0.03302 0.0
C19 C 0.5829 0.92462 0.03592 0.0
C20 C 0.6224 0.93381 0.05442 0.0
C21 C 0.63195 0.89661 0.05153 0.0
C22 C 0.58854 0.98762 0.04996 0.0
C23 C 0.52073 0.10263 0.05574 0.0
C24 C 0.445 0.99014 0.03358 0.0
C25 C 0.50287 0.21637 0.02421 0.0
C26 C 0.54511 0.31738 0.02757 0.0
C27 C 0.54679 0.28764 0.03639 0.0
C28 C 0.52612 0.23772 0.03471 0.0
C29 C 0.50124 0.24585 0.01537 0.0
C30 C 0.52223 0.29594 0.01702 0.0
C31 C 0.48293 0.16403 0.02225 0.0
H32 H 0.58062 0.87007 0.02463 0.0
H33 H 0.56411 0.93527 0.02978 0.0
H34 H 0.63422 0.95146 0.06277 0.0
H35 H 0.65016 0.88593 0.05783 0.0
H36 H 0.56466 0.30304 0.04455 0.0
H37 H 0.52863 0.21587 0.0416 0.0
H38 H 0.48392 0.23016 0.00718 0.0
H39 H 0.51992 0.31779 0.01011 0.0
Dy40 Dy 0.10899 0.57172 0.04089 0.0
Dy41 Dy 0.04295 0.46277 0.0295 0.0
C42 C 0.09654 0.55121 0.01333 0.0
O43 O 1.03192 0.55305 0.0428 0.0
O44 O 1.00181 0.50295 0.02707 0.0
O45 O 0.11867 0.64264 0.04443 0.0
O46 O 0.17162 0.62418 0.05063 0.0
O47 O 1.01655 0.46377 0.04702 0.0
O48 O 0.09036 0.51438 0.05472 0.0
O49 O 0.11592 0.47152 0.03474 0.0
O50 O 0.16091 0.55398 0.03253 0.0
O51 O 1.00953 0.38515 0.03192 0.0
O52 O 0.99806 0.4144 0.01597 0.0
C53 C 0.99965 0.53323 0.0345 0.0
O54 O 0.09866 0.57982 0.02185 0.0
O55 O 0.09032 0.50806 0.01536 0.0
C56 C 0.19925 0.70699 0.04627 0.0
C57 C 0.27329 0.80177 0.04025 0.0
C58 C 0.25733 0.7633 0.03226 0.0
C59 C 0.22063 0.71639 0.03523 0.0
C60 C 0.21452 0.74519 0.0542 0.0
C61 C 0.2511 0.79205 0.05124 0.0
C62 C 0.16022 0.65814 0.04961 0.0
C63 C 0.0464 0.4768 0.05571 0.0
C64 C 0.15832 0.51171 0.03353 0.0
C65 C 0.93105 0.34372 0.02372 0.0
C66 C 0.83031 0.28214 0.02732 0.0
C67 C 0.84949 0.3321 0.02546 0.0
C68 C 0.89939 0.36264 0.02376 0.0
C69 C 0.91198 0.29386 0.02546 0.0
C70 C 0.86215 0.26337 0.02726 0.0
C71 C 0.98402 0.37585 0.02242 0.0
H72 H 0.27316 0.76945 0.02368 0.0
H73 H 0.20899 0.68747 0.02894 0.0
H74 H 0.1983 0.73869 0.06275 0.0
H75 H 0.26283 0.82039 0.05768 0.0
H76 H 0.82608 0.34777 0.02559 0.0
H77 H 0.91327 0.40114 0.0226 0.0
H78 H 0.93571 0.27853 0.02552 0.0
H79 H 0.84848 0.22499 0.02855 0.0
Dy80 Dy 0.57606 0.5907 0.04103 0.0
Dy81 Dy 0.68534 0.63626 0.02958 0.0
C82 C 0.59722 0.60231 0.01344 0.0
O83 O 0.59694 0.53401 0.04298 0.0
O84 O 0.64586 0.55519 0.027 0.0
O85 O 0.50497 0.52875 0.04399 0.0
O86 O 0.52306 0.59827 0.05129 0.0
O87 O 0.68549 0.60867 0.04705 0.0
O88 O 0.63354 0.62978 0.05481 0.0
O89 O 0.67488 0.69925 0.035 0.0
O90 O 0.59212 0.6606 0.03308 0.0
O91 O 0.76257 0.68411 0.03131 0.0
O92 O 0.73378 0.63782 0.0162 0.0
C93 C 0.61677 0.52236 0.03454 0.0
O94 O 0.56885 0.57436 0.02186 0.0
O95 O 0.63998 0.63938 0.01562 0.0
C96 C 0.44049 0.54473 0.04639 0.0
C97 C 0.3462 0.52617 0.04042 0.0
C98 C 0.38511 0.54929 0.03252 0.0
C99 C 0.43177 0.55844 0.03548 0.0
C100 C 0.40187 0.52124 0.05422 0.0
C101 C 0.35525 0.51202 0.05128 0.0
C102 C 0.48911 0.55339 0.04968 0.0
C103 C 0.67262 0.62559 0.05574 0.0
C104 C 0.63406 0.70063 0.034 0.0
C105 C 0.80588 0.64662 0.02426 0.0
C106 C 0.86613 0.60565 0.02767 0.0
C107 C 0.83881 0.60863 0.03689 0.0
C108 C 0.8089 0.62867 0.03519 0.0
C109 C 0.83301 0.6437 0.01503 0.0
C110 C 0.86282 0.62335 0.0167 0.0
C111 C 0.77239 0.66556 0.02231 0.0
H112 H 0.3795 0.56024 0.02403 0.0
H113 H 0.46102 0.57622 0.02926 0.0
H114 H 0.40783 0.5102 0.06268 0.0
H115 H 0.32656 0.49487 0.05766 0.0
H116 H 0.83997 0.59478 0.0454 0.0
H117 H 0.78776 0.62971 0.04241 0.0
H118 H 0.83089 0.65689 0.0065 0.0
H119 H 0.88373 0.62203 0.00945 0.0
Dy120 Dy 0.05343 0.54118 0.43918 0.0
Dy121 Dy 0.11979 0.49858 0.45058 0.0
C122 C 0.06611 0.53313 0.46678 0.0
O123 O 0.13014 0.59967 0.43713 0.0
O124 O 0.16104 0.57985 0.45279 0.0
O125 O 0.04331 0.60218 0.43555 0.0
O126 O 0.99049 0.53082 0.42947 0.0
O127 O 0.14629 0.52574 0.43305 0.0
O128 O 0.07234 0.50246 0.42538 0.0
O129 O 0.04685 0.43466 0.44536 0.0
O130 O 1.00181 0.47206 0.44774 0.0
O131 O 0.15045 0.45181 0.44869 0.0
O132 O 0.16737 0.49762 0.46387 0.0
C133 C 0.16267 0.61222 0.44538 0.0
O134 O 0.06387 0.55962 0.45823 0.0
O135 O 0.07277 0.49647 0.46478 0.0
C136 C 0.96255 0.58583 0.43381 0.0
C137 C 0.8885 0.60663 0.43992 0.0
C138 C 0.90424 0.58344 0.44784 0.0
C139 C 0.94094 0.5732 0.44481 0.0
C140 C 0.94749 0.60941 0.42595 0.0
C141 C 0.91091 0.61973 0.42896 0.0
C142 C 1.00166 0.57607 0.43043 0.0
C143 C 0.11641 0.50885 0.42437 0.0
C144 C 1.00449 0.43247 0.44674 0.0
C145 C 0.23115 0.49019 0.45568 0.0
C146 C 0.33229 0.53223 0.45228 0.0
C147 C 0.30242 0.53297 0.44337 0.0
C148 C 0.25244 0.51242 0.44507 0.0
C149 C 0.26076 0.4894 0.4646 0.0
C150 C 0.31089 0.51029 0.46293 0.0
C151 C 0.17875 0.47041 0.45769 0.0
H152 H 0.88823 0.57326 0.45639 0.0
H153 H 0.95243 0.55542 0.45105 0.0
H154 H 0.96389 0.61965 0.41743 0.0
H155 H 0.89936 0.63689 0.42258 0.0
H156 H 0.3178 0.55009 0.43512 0.0
H157 H 0.23052 0.51426 0.43811 0.0
H158 H 0.24513 0.47286 0.47288 0.0
H159 H 0.33281 0.50869 0.46993 0.0
Dy160 Dy 0.60809 0.56586 0.43931 0.0
Dy161 Dy 0.65163 0.67435 0.45089 0.0
C162 C 0.6164 0.58581 0.46695 0.0
O163 O 0.55036 0.58538 0.43721 0.0
O164 O 0.5703 0.63436 0.45314 0.0
O165 O 0.54681 0.49442 0.43622 0.0
O166 O 0.61722 0.51373 0.42915 0.0
O167 O 0.62497 0.67481 0.43336 0.0
O168 O 0.64712 0.62356 0.42552 0.0
O169 O 0.71545 0.66495 0.44567 0.0
O170 O 0.67729 0.58242 0.44772 0.0
O171 O 0.69869 0.75166 0.44914 0.0
O172 O 0.65204 0.7223 0.46421 0.0
C173 C 0.53798 0.605 0.44557 0.0
O174 O 0.58967 0.55778 0.45837 0.0
O175 O 0.65355 0.6288 0.46498 0.0
C176 C 0.56418 0.43019 0.43423 0.0
C177 C 0.54581 0.33519 0.43957 0.0
C178 C 0.50741 0.34499 0.43856 0.0
C179 C 0.5165 0.39181 0.43589 0.0
C180 C 0.60263 0.42055 0.43524 0.0
C181 C 0.59356 0.37373 0.43786 0.0
C182 C 0.57264 0.47901 0.43087 0.0
C183 C 0.64152 0.66175 0.42462 0.0
C184 C 0.71719 0.62445 0.44683 0.0
C185 C 0.6596 0.79359 0.456 0.0
C186 C 0.61716 0.8524 0.45243 0.0
C187 C 0.61788 0.8228 0.44348 0.0
C188 C 0.63863 0.79354 0.44526 0.0
C189 C 0.65891 0.82295 0.46496 0.0
C190 C 0.63783 0.85205 0.46321 0.0
C191 C 0.67949 0.76102 0.45809 0.0
H192 H 0.47025 0.31656 0.43991 0.0
H193 H 0.48604 0.39797 0.43507 0.0
H194 H 0.63979 0.449 0.43388 0.0
H195 H 0.62411 0.36762 0.43832 0.0
H196 H 0.60175 0.82173 0.43513 0.0
H197 H 0.63789 0.77057 0.43825 0.0
H198 H 0.67445 0.82318 0.47334 0.0
H199 H 0.6383 0.87476 0.47024 0.0
Dy200 Dy 0.58396 0.09466 0.4392 0.0
Dy201 Dy 0.47441 0.02943 0.45032 0.0
C202 C 0.56198 0.08217 0.46672 0.0
O203 O 0.56453 1.01757 0.43709 0.0
O204 O 0.51403 0.98773 0.45279 0.0
O205 O 0.63672 0.15603 0.42915 0.0
O206 O 0.65583 0.10503 0.43642 0.0
O207 O 0.47526 1.00313 0.43278 0.0
O208 O 0.52742 0.07682 0.42518 0.0
O209 O 0.48399 0.10256 0.44497 0.0
O210 O 0.56639 0.14679 0.44746 0.0
O211 O 0.3968 0.99619 0.44782 0.0
O212 O 0.42562 0.98531 0.4639 0.0
C213 C 0.54418 0.98519 0.44536 0.0
O214 O 0.59077 0.08378 0.45828 0.0
O215 O 0.51904 0.07631 0.46455 0.0
C216 C 0.72003 0.18652 0.4345 0.0
C217 C 0.81467 0.26309 0.44 0.0
C218 C 0.77586 0.27205 0.43833 0.0
C219 C 0.72921 0.23433 0.43563 0.0
C220 C 0.75866 0.17745 0.43614 0.0
C221 C 0.80531 0.21516 0.43888 0.0
C222 C 0.67146 0.14624 0.43104 0.0
C223 C 0.48935 0.03322 0.4241 0.0
C224 C 0.52433 0.14464 0.44633 0.0
C225 C 0.35538 0.91814 0.4562 0.0
C226 C 0.29452 0.81744 0.45274 0.0
C227 C 0.34466 0.83708 0.45443 0.0
C228 C 0.37484 0.88697 0.45606 0.0
C229 C 0.30533 0.89862 0.45465 0.0
C230 C 0.27518 0.84878 0.45292 0.0
C231 C 0.38722 0.97106 0.4574 0.0
H232 H 0.78163 0.30852 0.43887 0.0
H233 H 0.70053 0.24283 0.43431 0.0
H234 H 0.75284 0.14105 0.43523 0.0
H235 H 0.83396 0.20662 0.4402 0.0
H236 H 0.36072 0.81402 0.45421 0.0
H237 H 0.4135 0.90124 0.45707 0.0
H238 H 0.28962 0.92201 0.45467 0.0
H239 H 0.23663 0.8347 0.45175 0.0
Dy240 Dy 0.65077 0.03449 0.95033 0.0
Dy241 Dy 0.60716 0.09976 0.93894 0.0
C242 C 0.64046 0.0374 0.92411 0.0
O243 O 0.71445 0.10768 0.94506 0.0
O244 O 0.67625 0.15195 0.94738 0.0
O245 O 0.69814 1.00448 0.94853 0.0
O246 O 0.65198 0.9873 0.9637 0.0
O247 O 0.58872 0.08857 0.95803 0.0
O248 O 0.65305 0.08163 0.96447 0.0
O249 O 0.54899 1.023 0.93685 0.0
O250 O 0.56924 0.99255 0.95253 0.0
O251 O 0.54614 0.11083 0.93603 0.0
O252 O 0.61634 0.16115 0.92877 0.0
C253 C 0.71619 0.14984 0.94635 0.0
O254 O 0.62389 1.00765 0.93283 0.0
O255 O 0.64607 0.08115 0.92506 0.0
C256 C 0.65948 0.92382 0.95548 0.0
C257 C 0.61659 0.82284 0.95201 0.0
C258 C 0.61518 0.85287 0.94324 0.0
C259 C 0.63618 0.90277 0.94497 0.0
C260 C 0.6609 0.89407 0.96428 0.0
C261 C 0.6396 0.84398 0.96257 0.0
C262 C 0.67939 0.97609 0.95753 0.0
C263 C 0.61571 0.08707 0.96655 0.0
C264 C 0.53667 0.99047 0.9451 0.0
C265 C 0.56406 0.1926 0.93394 0.0
C266 C 0.54661 0.26997 0.93912 0.0
C267 C 0.50807 0.22185 0.93859 0.0
C268 C 0.51669 0.18375 0.936 0.0
C269 C 0.60265 0.24061 0.93448 0.0
C270 C 0.59404 0.27872 0.93703 0.0
C271 C 0.57197 0.15187 0.9306 0.0
H272 H 0.59723 0.83769 0.93507 0.0
H273 H 0.63381 0.92484 0.93811 0.0
H274 H 0.67823 0.90953 0.97249 0.0
H275 H 0.64169 0.82189 0.96946 0.0
H276 H 0.47116 0.21348 0.94024 0.0
H277 H 0.48609 0.14721 0.93553 0.0
H278 H 0.63954 0.24897 0.93281 0.0
H279 H 0.62466 0.31527 0.93712 0.0
Dy280 Dy 0.1175 0.67807 0.95046 0.0
Dy281 Dy 0.05085 0.56946 0.93892 0.0
C282 C 0.11452 0.66467 0.92428 0.0
O283 O 0.04477 0.67 0.94519 0.0
O284 O 0.99932 0.58754 0.94734 0.0
O285 O 0.15163 0.75575 0.94803 0.0
O286 O 0.16275 0.72622 0.96398 0.0
O287 O 0.06069 0.56085 0.95797 0.0
O288 O 0.06973 0.63282 0.96453 0.0
O289 O 0.1277 0.58721 0.93715 0.0
O290 O 0.15792 0.63718 0.95291 0.0
O291 O 0.04094 0.49862 0.93514 0.0
O292 O 0.98766 0.51721 0.92929 0.0
C293 C 1.0022 0.62996 0.94638 0.0
O294 O 0.14406 0.67654 0.93301 0.0
O295 O 0.07028 0.62744 0.92517 0.0
C296 C 0.23022 0.7966 0.95621 0.0
C297 C 0.33112 0.85752 0.95259 0.0
C298 C 0.2995 0.87655 0.9525 0.0
C299 C 0.24962 0.84641 0.95431 0.0
C300 C 0.26166 0.77741 0.95634 0.0
C301 C 0.31163 0.80762 0.95462 0.0
C302 C 0.17716 0.76482 0.95753 0.0
C303 C 0.06297 0.58943 0.96652 0.0
C304 C 0.15989 0.60679 0.94548 0.0
C305 C 0.96026 0.43422 0.93346 0.0
C306 C 0.88676 0.33914 0.9395 0.0
C307 C 0.90257 0.37758 0.9475 0.0
C308 C 0.93899 0.42463 0.94452 0.0
C309 C 0.94513 0.39605 0.92553 0.0
C310 C 0.90883 0.34905 0.92849 0.0
C311 C 0.9991 0.48322 0.93012 0.0
H312 H 0.31338 0.9149 0.95107 0.0
H313 H 0.22608 0.86196 0.95413 0.0
H314 H 0.24757 0.73894 0.95763 0.0
H315 H 0.33486 0.79173 0.95462 0.0
H316 H 0.88685 0.37131 0.95609 0.0
H317 H 0.95053 0.4535 0.95082 0.0
H318 H 0.96126 0.40267 0.91696 0.0
H319 H 0.89723 0.32074 0.92204 0.0
Dy320 Dy 0.4744 0.50392 0.94987 0.0
Dy321 Dy 0.58391 0.54944 0.9385 0.0
C322 C 0.48746 0.51452 0.92369 0.0
O323 O 0.48487 0.44101 0.94445 0.0
O324 O 0.56757 0.4796 0.94654 0.0
O325 O 0.39715 0.45618 0.94813 0.0
O326 O 0.42602 0.50223 0.96328 0.0
O327 O 0.59086 0.56602 0.95766 0.0
O328 O 0.51973 0.50095 0.96387 0.0
O329 O 0.56292 0.606 0.93646 0.0
O330 O 0.51385 0.58498 0.95241 0.0
O331 O 0.65496 0.61142 0.93552 0.0
O332 O 0.6372 0.54173 0.9284 0.0
C333 C 0.52561 0.43962 0.94558 0.0
O334 O 0.47424 0.53123 0.93237 0.0
O335 O 0.52663 0.51048 0.92467 0.0
C336 C 0.35385 0.49347 0.9553 0.0
C337 C 0.29347 0.53435 0.95206 0.0
C338 C 0.32115 0.53211 0.94283 0.0
C339 C 0.35114 0.51211 0.94444 0.0
C340 C 0.32637 0.49565 0.96455 0.0
C341 C 0.2965 0.51597 0.96296 0.0
C342 C 0.38737 0.47454 0.95718 0.0
C343 C 0.56241 0.53811 0.96607 0.0
C344 C 0.54307 0.61774 0.94488 0.0
C345 C 0.71973 0.59573 0.93329 0.0
C346 C 0.81423 0.61508 0.93936 0.0
C347 C 0.77541 0.59252 0.9473 0.0
C348 C 0.72866 0.58298 0.9443 0.0
C349 C 0.75825 0.61867 0.9254 0.0
C350 C 0.80497 0.62827 0.92839 0.0
C351 C 0.67102 0.58671 0.92995 0.0
H352 H 0.32019 0.54649 0.93437 0.0
H353 H 0.37258 0.51166 0.93721 0.0
H354 H 0.32826 0.48192 0.97302 0.0
H355 H 0.27531 0.51673 0.97022 0.0
H356 H 0.78116 0.58229 0.95587 0.0
H357 H 0.6995 0.56565 0.95056 0.0
H358 H 0.75215 0.62898 0.91688 0.0
H359 H 0.83356 0.64496 0.92198 0.0
Dy360 Dy 0.04139 0.63578 0.53002 0.0
Dy361 Dy 0.10778 0.59325 0.54143 0.0
C362 C 0.04439 0.6251 0.55621 0.0
O363 O 0.1143 0.69973 0.53527 0.0
O364 O 0.1594 0.66241 0.53288 0.0
O365 O 1.01068 0.68246 0.53198 0.0
O366 O 0.9937 0.6368 0.51677 0.0
O367 O 0.09764 0.57506 0.52236 0.0
O368 O 0.08844 0.63806 0.51581 0.0
O369 O 1.03113 0.5345 0.54336 0.0
O370 O 1.00029 0.55454 0.52772 0.0
O371 O 0.118 0.53231 0.54506 0.0
O372 O 0.17072 0.60369 0.55115 0.0
C373 C 0.1567 0.70198 0.5339 0.0
O374 O 1.01467 0.60808 0.54751 0.0
O375 O 0.08855 0.6317 0.55522 0.0
C376 C 0.92989 0.64401 0.52503 0.0
C377 C 0.82875 0.6018 0.5285 0.0
C378 C 0.85879 0.60138 0.5374 0.0
C379 C 0.90876 0.62202 0.53567 0.0
C380 C 0.90011 0.64448 0.51611 0.0
C381 C 0.84998 0.62352 0.51782 0.0
C382 C 0.98229 0.66389 0.52299 0.0
C383 C 0.09533 0.60155 0.51381 0.0
C384 C 0.99869 0.52205 0.5351 0.0
C385 C 0.19878 0.54876 0.54683 0.0
C386 C 0.27288 0.528 0.54074 0.0
C387 C 0.25726 0.5513 0.53283 0.0
C388 C 0.22053 0.56152 0.53584 0.0
C389 C 0.21374 0.52508 0.55468 0.0
C390 C 0.25034 0.51478 0.55168 0.0
C391 C 0.15961 0.55846 0.55019 0.0
H392 H 0.84356 0.58444 0.54568 0.0
H393 H 0.93082 0.62041 0.54264 0.0
H394 H 0.9156 0.66084 0.50781 0.0
H395 H 0.82793 0.62487 0.51082 0.0
H396 H 0.27336 0.56158 0.52428 0.0
H397 H 0.20912 0.57938 0.5296 0.0
H398 H 0.19723 0.51474 0.56319 0.0
H399 H 0.2618 0.49753 0.55806 0.0
Dy400 Dy 0.50939 0.45966 0.52991 0.0
Dy401 Dy 0.5532 0.5684 0.54138 0.0
C402 C 0.51933 0.47274 0.55619 0.0
O403 O 0.44567 0.46933 0.53506 0.0
O404 O 0.48402 0.55186 0.53295 0.0
O405 O 0.46229 0.38236 0.53169 0.0
O406 O 0.50884 0.41161 0.5166 0.0
O407 O 0.57171 0.57612 0.52233 0.0
O408 O 0.50769 0.50513 0.51577 0.0
O409 O 0.61066 0.54856 0.54359 0.0
O410 O 0.59073 0.49941 0.5277 0.0
O411 O 0.61459 0.63987 0.54438 0.0
O412 O 0.54431 0.62077 0.55149 0.0
C413 C 0.44406 0.50988 0.53387 0.0
O414 O 0.53561 0.45916 0.5475 0.0
O415 O 0.51399 0.51105 0.55522 0.0
C416 C 0.50124 0.34032 0.52481 0.0
C417 C 0.54374 0.28153 0.52833 0.0
C418 C 0.54317 0.31119 0.53728 0.0
C419 C 0.52239 0.34044 0.53553 0.0
C420 C 0.50177 0.31088 0.51584 0.0
C421 C 0.52287 0.2818 0.51758 0.0
C422 C 0.4814 0.37293 0.52273 0.0
C423 C 0.54496 0.54801 0.51377 0.0
C424 C 0.62304 0.5288 0.53527 0.0
C425 C 0.59737 0.70421 0.54635 0.0
C426 C 0.6158 0.79919 0.54097 0.0
C427 C 0.65419 0.78938 0.542 0.0
C428 C 0.64507 0.74256 0.54468 0.0
C429 C 0.55894 0.71385 0.54531 0.0
C430 C 0.56804 0.76067 0.54268 0.0
C431 C 0.58888 0.65541 0.54973 0.0
H432 H 0.55944 0.31233 0.54562 0.0
H433 H 0.52326 0.36347 0.54253 0.0
H434 H 0.48609 0.3106 0.50748 0.0
H435 H 0.52229 0.25903 0.51054 0.0
H436 H 0.69136 0.8178 0.54066 0.0
H437 H 0.67552 0.73639 0.54553 0.0
H438 H 0.52177 0.68541 0.54667 0.0
H439 H 0.53749 0.76679 0.5422 0.0
Dy440 Dy 0.68686 0.10484 0.53025 0.0
Dy441 Dy 0.57746 0.03951 0.54146 0.0
C442 C 0.67236 0.10111 0.55647 0.0
O443 O 0.67749 0.03179 0.53559 0.0
O444 O 0.59505 0.98744 0.53317 0.0
O445 O 0.76452 0.13818 0.53267 0.0
O446 O 0.73538 0.14894 0.51662 0.0
O447 O 0.5704 0.05032 0.52237 0.0
O448 O 0.64205 0.05774 0.51607 0.0
O449 O 0.59683 0.11658 0.54356 0.0
O450 O 0.64708 0.14641 0.52782 0.0
O451 O 0.50563 0.02914 0.54432 0.0
O452 O 0.52476 0.97799 0.55148 0.0
C453 C 0.63716 0.98967 0.53426 0.0
O454 O 0.68618 0.13116 0.54779 0.0
O455 O 0.63426 0.05749 0.55543 0.0
C456 C 0.8058 0.21617 0.52425 0.0
C457 C 0.86679 0.31688 0.52765 0.0
C458 C 0.88609 0.28551 0.52744 0.0
C459 C 0.85587 0.23567 0.52573 0.0
C460 C 0.78637 0.24737 0.52441 0.0
C461 C 0.81663 0.29727 0.52602 0.0
C462 C 0.7739 0.16324 0.52308 0.0
C463 C 0.5991 0.05186 0.51392 0.0
C464 C 0.61702 0.14893 0.53528 0.0
C465 C 0.44139 0.94763 0.54619 0.0
C466 C 0.34665 0.8712 0.54068 0.0
C467 C 0.35607 0.91913 0.54187 0.0
C468 C 0.40277 0.95676 0.54462 0.0
C469 C 0.43215 0.89983 0.54499 0.0
C470 C 0.38545 0.86218 0.54229 0.0
C471 C 0.49002 0.98783 0.54965 0.0
H472 H 0.92465 0.29956 0.52856 0.0
H473 H 0.87155 0.21225 0.52569 0.0
H474 H 0.7477 0.23312 0.52345 0.0
H475 H 0.80059 0.32035 0.52627 0.0
H476 H 0.32743 0.92772 0.54061 0.0
H477 H 0.40863 0.99316 0.54559 0.0
H478 H 0.46082 0.89127 0.54626 0.0
H479 H 0.37965 0.82571 0.54169 0.0
Dy480 Dy 0.22328 0.37346 0.37446 0.0
Dy481 Dy 0.18004 0.43941 0.36324 0.0
C482 C 0.2142 0.386 0.34691 0.0
O483 O 0.2815 0.45014 0.37658 0.0
O484 O 0.26145 0.48091 0.36094 0.0
O485 O 0.28449 0.36285 0.37749 0.0
O486 O 0.21396 0.31161 0.38445 0.0
O487 O 0.2071 0.46571 0.38076 0.0
O488 O 0.18458 0.39183 0.38838 0.0
O489 O 0.11625 0.36638 0.36852 0.0
O490 O 0.15392 0.32164 0.36606 0.0
O491 O 0.13306 0.46981 0.3652 0.0
O492 O 0.17872 0.48678 0.34994 0.0
C493 C 0.29396 0.48268 0.36833 0.0
O494 O 0.24123 0.38419 0.35538 0.0
O495 O 0.17744 0.39239 0.34903 0.0
C496 C 0.26705 0.28126 0.37924 0.0
C497 C 0.28549 0.205 0.37361 0.0
C498 C 0.32387 0.25297 0.37472 0.0
C499 C 0.31475 0.29053 0.37753 0.0
C500 C 0.22861 0.2334 0.37813 0.0
C501 C 0.23772 0.19582 0.37537 0.0
C502 C 0.25856 0.32139 0.38273 0.0
C503 C 0.19057 0.43567 0.38943 0.0
C504 C 0.1142 0.32413 0.36713 0.0
C505 C 0.17111 0.55034 0.35811 0.0
C506 C 0.21316 0.65138 0.36138 0.0
C507 C 0.21409 0.62167 0.37031 0.0
C508 C 0.19353 0.57174 0.36868 0.0
C509 C 0.17012 0.57979 0.34917 0.0
C510 C 0.19101 0.62988 0.35078 0.0
C511 C 0.15145 0.49803 0.35615 0.0
H512 H 0.36104 0.26165 0.37334 0.0
H513 H 0.34519 0.32697 0.37843 0.0
H514 H 0.19145 0.22475 0.37952 0.0
H515 H 0.20719 0.1593 0.37484 0.0
H516 H 0.23137 0.63714 0.37853 0.0
H517 H 0.19554 0.54993 0.37565 0.0
H518 H 0.15343 0.56406 0.34092 0.0
H519 H 0.18928 0.65169 0.34377 0.0
Dy520 Dy 0.77705 0.90315 0.37442 0.0
Dy521 Dy 0.712 0.79388 0.36316 0.0
C522 C 0.76432 0.88193 0.34688 0.0
O523 O 0.69978 0.88344 0.37656 0.0
O524 O 0.67018 0.83342 0.36081 0.0
O525 O 0.78716 0.97477 0.3773 0.0
O526 O 0.83841 0.95575 0.38446 0.0
O527 O 0.68559 0.79423 0.38073 0.0
O528 O 0.75917 0.84633 0.38837 0.0
O529 O 0.78538 0.80353 0.36836 0.0
O530 O 0.82942 0.88601 0.36608 0.0
O531 O 0.67864 0.71626 0.36558 0.0
O532 O 0.6678 0.74553 0.34956 0.0
C533 C 0.66747 0.86327 0.36828 0.0
O534 O 0.7659 0.91036 0.35538 0.0
O535 O 0.7589 0.83913 0.34896 0.0
C536 C 0.86864 0.03909 0.37921 0.0
C537 C 0.94505 0.13397 0.37378 0.0
C538 C 0.95422 0.09528 0.37538 0.0
C539 C 0.91657 0.04852 0.37804 0.0
C540 C 0.85936 0.0776 0.37764 0.0
C541 C 0.89699 0.12437 0.37494 0.0
C542 C 0.82844 0.99039 0.38264 0.0
C543 C 0.71558 0.80816 0.38941 0.0
C544 C 0.82748 0.84404 0.36711 0.0
C545 C 0.60039 0.6752 0.35726 0.0
C546 C 0.4995 0.61446 0.36079 0.0
C547 C 0.53091 0.59518 0.36072 0.0
C548 C 0.58083 0.62526 0.35895 0.0
C549 C 0.56915 0.69462 0.35729 0.0
C550 C 0.51918 0.66449 0.35895 0.0
C551 C 0.65342 0.70699 0.35603 0.0
H552 H 0.99079 0.10122 0.37481 0.0
H553 H 0.92524 1.01994 0.37931 0.0
H554 H 0.82286 0.07159 0.37859 0.0
H555 H 0.8883 0.15292 0.37368 0.0
H556 H 0.51684 0.55672 0.36199 0.0
H557 H 0.60424 0.60957 0.35902 0.0
H558 H 0.58341 0.73319 0.35616 0.0
H559 H 0.49609 0.68054 0.35909 0.0
Dy560 Dy 0.24739 0.92722 0.37417 0.0
Dy561 Dy 0.35609 0.97029 0.36262 0.0
C562 C 0.26757 0.93579 0.34653 0.0
O563 O 0.26657 0.86927 0.37623 0.0
O564 O 0.31585 0.88914 0.36033 0.0
O565 O 0.17635 0.86605 0.37768 0.0
O566 O 0.19489 0.93705 0.38406 0.0
O567 O 0.35613 0.94332 0.38015 0.0
O568 O 0.30518 0.96601 0.38794 0.0
O569 O 0.34695 0.03407 0.36791 0.0
O570 O 0.26443 0.99645 0.36571 0.0
O571 O 0.43345 1.01726 0.36439 0.0
O572 O 0.40431 0.97074 0.34933 0.0
C573 C 0.28621 0.85685 0.36789 0.0
O574 O 0.23917 0.90911 0.3551 0.0
O575 O 0.31081 0.97253 0.34851 0.0
C576 C 0.11191 0.88235 0.37969 0.0
C577 C 1.01693 0.86192 0.37379 0.0
C578 C 0.05558 0.88521 0.36583 0.0
C579 C 0.10257 0.89526 0.36875 0.0
C580 C 0.07356 0.8587 0.38759 0.0
C581 C 1.02661 0.84856 0.38469 0.0
C582 C 0.16085 0.89187 0.38296 0.0
C583 C 0.34315 0.96002 0.38887 0.0
C584 C 0.30663 0.0361 0.36665 0.0
C585 C 0.47558 0.97833 0.35757 0.0
C586 C 0.53452 0.93607 0.3612 0.0
C587 C 0.50474 0.93668 0.37013 0.0
C588 C 0.47541 0.95734 0.36833 0.0
C589 C 0.50513 0.97776 0.34863 0.0
C590 C 0.53429 0.95676 0.35041 0.0
C591 C 0.44297 0.99815 0.35546 0.0
H592 H 0.04949 0.89559 0.35732 0.0
H593 H 0.1316 0.91311 0.36248 0.0
H594 H 0.07998 0.84824 0.39607 0.0
H595 H 0.99814 0.83132 0.39111 0.0
H596 H 0.50358 0.92054 0.37849 0.0
H597 H 0.4523 0.95653 0.37533 0.0
H598 H 0.50545 0.99332 0.34024 0.0
H599 H 0.55716 0.95731 0.34338 0.0
Dy600 Dy 0.71831 0.87162 0.77242 0.0
Dy601 Dy 0.78425 0.82918 0.78423 0.0
C602 C 0.73047 0.86457 0.8001 0.0
O603 O 0.79521 0.92953 0.77037 0.0
O604 O 0.8256 0.91051 0.78627 0.0
O605 O 0.70827 0.93259 0.76864 0.0
O606 O 0.65542 0.86115 0.76263 0.0
O607 O 0.81139 0.85549 0.76669 0.0
O608 O 0.73783 0.83249 0.75879 0.0
O609 O 0.71167 0.76554 0.77885 0.0
O610 O 0.66654 0.80287 0.78108 0.0
O611 O 0.81289 0.78059 0.78277 0.0
O612 O 0.8323 0.82907 0.79751 0.0
C613 C 0.82747 0.94249 0.77869 0.0
O614 O 0.72872 0.89091 0.79144 0.0
O615 O 0.73672 0.82757 0.79824 0.0
C616 C 0.62746 0.91643 0.76681 0.0
C617 C 0.55368 0.93812 0.77275 0.0
C618 C 0.57176 0.91834 0.78102 0.0
C619 C 0.60828 0.90765 0.77809 0.0
C620 C 0.61 0.93654 0.75858 0.0
C621 C 0.57358 0.94728 0.7615 0.0
C622 C 0.66661 0.90644 0.76353 0.0
C623 C 0.78181 0.83834 0.75796 0.0
C624 C 0.66931 0.76332 0.78015 0.0
C625 C 0.8941 0.81817 0.78937 0.0
C626 C 0.99454 0.85722 0.78553 0.0
C627 C 0.96383 0.8545 0.77643 0.0
C628 C 0.91419 0.83544 0.77834 0.0
C629 C 0.92457 0.82072 0.79847 0.0
C630 C 0.97438 0.84017 0.79658 0.0
C631 C 0.84214 0.80013 0.79158 0.0
H632 H 0.55779 0.91123 0.7898 0.0
H633 H 0.62158 0.8926 0.78461 0.0
H634 H 0.62445 0.9438 0.74985 0.0
H635 H 0.56023 0.9617 0.75484 0.0
H636 H 0.97833 0.86786 0.76786 0.0
H637 H 0.89162 0.83466 0.7712 0.0
H638 H 0.90988 0.80799 0.80706 0.0
H639 H 0.99703 0.84136 0.80374 0.0
Dy640 Dy 0.27297 0.89191 0.77249 0.0
Dy641 Dy 0.31278 1.00202 0.7825 0.0
C642 C 0.28123 0.9173 0.79982 0.0
O643 O 0.21184 0.90667 0.77034 0.0
O644 O 0.23204 0.96025 0.78535 0.0
O645 O 0.2128 0.82019 0.76908 0.0
O646 O 0.28555 0.83818 0.76419 0.0
O647 O 0.28285 0.99469 0.76498 0.0
O648 O 0.31096 0.94705 0.75818 0.0
O649 O 0.37848 0.99465 0.77785 0.0
O650 O 0.34283 0.91303 0.7812 0.0
O651 O 0.3534 0.07897 0.77886 0.0
O652 O 0.31456 0.05281 0.79512 0.0
C653 C 0.19945 0.92791 0.7783 0.0
O654 O 0.25556 0.88662 0.79153 0.0
O655 O 0.31636 0.96113 0.79749 0.0
C656 C 0.23073 0.75673 0.76977 0.0
C657 C 0.21163 0.6651 0.77812 0.0
C658 C 0.24546 0.70809 0.78376 0.0
C659 C 0.25481 0.75348 0.77965 0.0
C660 C 0.19625 0.71404 0.76429 0.0
C661 C 0.18674 0.66872 0.76841 0.0
C662 C 0.24032 0.80396 0.76511 0.0
C663 C 0.30217 0.98287 0.75662 0.0
C664 C 0.38188 0.95535 0.77972 0.0
C665 C 0.31197 0.11787 0.78593 0.0
C666 C 0.26612 0.17245 0.7808 0.0
C667 C 0.23887 0.12161 0.7814 0.0
C668 C 0.26166 0.09454 0.78386 0.0
C669 C 0.33905 0.16852 0.78551 0.0
C670 C 0.31641 0.19554 0.78298 0.0
C671 C 0.33657 0.08959 0.78805 0.0
H672 H 0.26499 0.70666 0.79131 0.0
H673 H 0.28111 0.786 0.78411 0.0
H674 H 0.17707 0.71578 0.7567 0.0
H675 H 0.16107 0.63659 0.76373 0.0
H676 H 0.20022 0.10277 0.77971 0.0
H677 H 0.24007 0.05534 0.78403 0.0
H678 H 0.37782 0.18721 0.78705 0.0
H679 H 0.33836 0.23469 0.78276 0.0
Dy680 Dy 0.25132 0.42409 0.77247 0.0
Dy681 Dy 0.137 0.35979 0.78157 0.0
C682 C 0.22364 0.39593 0.79932 0.0
O683 O 0.24091 0.35201 0.77647 0.0
O684 O 0.1581 0.30593 0.77479 0.0
O685 O 0.32364 0.43434 0.77153 0.0
O686 O 0.3053 0.48055 0.76147 0.0
O687 O 0.14615 0.40345 0.76599 0.0
O688 O 0.19904 0.38664 0.75768 0.0
O689 O 0.15726 0.4365 0.78641 0.0
O690 O 0.23142 0.47978 0.77694 0.0
O691 O 0.06415 0.3167 0.77518 0.0
O692 O 0.07728 0.32612 0.79374 0.0
C693 C 0.20152 0.31016 0.77519 0.0
O694 O 0.25285 0.42973 0.79193 0.0
O695 O 0.18137 0.35988 0.79623 0.0
C696 C 0.38775 0.51395 0.7679 0.0
C697 C 0.4812 0.5924 0.77324 0.0
C698 C 0.44168 0.60006 0.77132 0.0
C699 C 0.39549 0.56132 0.76871 0.0
C700 C 0.42706 0.50621 0.76977 0.0
C701 C 0.47316 0.54486 0.77244 0.0
C702 C 0.33979 0.47221 0.76481 0.0
C703 C 0.15999 0.39059 0.75679 0.0
C704 C 0.19519 0.47773 0.78292 0.0
C705 C 1.01478 0.25014 0.78686 0.0
C706 C 0.95588 0.14846 0.78553 0.0
C707 C 1.00597 0.16967 0.78764 0.0
C708 C 1.03526 0.22019 0.78823 0.0
C709 C 0.96463 0.22903 0.78527 0.0
C710 C 0.93542 0.17868 0.78462 0.0
C711 C 0.04572 0.30289 0.78553 0.0
H712 H 0.44651 0.63621 0.77164 0.0
H713 H 0.36605 0.56859 0.76726 0.0
H714 H 0.42212 0.47004 0.76915 0.0
H715 H 0.50236 0.53732 0.77398 0.0
H716 H 1.02281 0.14739 0.78831 0.0
H717 H 0.07409 0.23593 0.78931 0.0
H718 H 0.94827 0.25157 0.7841 0.0
H719 H 0.89686 0.16338 0.78315 0.0
Dy720 Dy 0.31542 0.36271 0.2833 0.0
Dy721 Dy 0.2704 0.42728 0.27213 0.0
C722 C 0.30373 0.36587 0.25711 0.0
O723 O 0.3786 0.43596 0.27792 0.0
O724 O 0.33998 0.47987 0.28033 0.0
O725 O 0.36007 0.32974 0.28078 0.0
O726 O 0.32064 0.31883 0.29689 0.0
O727 O 0.25323 0.41684 0.29124 0.0
O728 O 0.31777 0.40973 0.2975 0.0
O729 O 0.21302 0.3501 0.27012 0.0
O730 O 0.23421 0.32083 0.28586 0.0
O731 O 0.20879 0.43762 0.26945 0.0
O732 O 0.27834 0.48797 0.26188 0.0
C733 C 0.38002 0.47797 0.27922 0.0
O734 O 0.28786 0.33595 0.26581 0.0
O735 O 0.30918 0.40947 0.25815 0.0
C736 C 0.32366 0.25168 0.28913 0.0
C737 C 0.28374 0.15104 0.28554 0.0
C738 C 0.25333 0.17078 0.28728 0.0
C739 C 0.27307 0.22064 0.28898 0.0
C740 C 0.3541 0.23206 0.28754 0.0
C741 C 0.33437 0.18224 0.28574 0.0
C742 C 0.34471 0.30459 0.29036 0.0
C743 C 0.28066 0.41552 0.29967 0.0
C744 C 0.20132 0.31795 0.27844 0.0
C745 C 0.22614 0.51907 0.26731 0.0
C746 C 0.20882 0.59621 0.27277 0.0
C747 C 0.17009 0.54834 0.27181 0.0
C748 C 0.17866 0.51034 0.26908 0.0
C749 C 0.26492 0.56682 0.26828 0.0
C750 C 0.25636 0.60484 0.27096 0.0
C751 C 0.23402 0.47846 0.26391 0.0
H752 H 0.21424 0.14784 0.28704 0.0
H753 H 0.24874 0.235 0.29002 0.0
H754 H 0.39316 0.25536 0.28756 0.0
H755 H 0.35877 0.16807 0.28454 0.0
H756 H 0.13308 0.54008 0.27323 0.0
H757 H 0.14798 0.47398 0.26829 0.0
H758 H 0.30193 0.57505 0.26685 0.0
H759 H 0.28715 0.64124 0.27137 0.0
Dy760 Dy 0.78333 1.00747 0.28396 0.0
Dy761 Dy 0.71809 0.89893 0.2724 0.0
C762 C 0.78066 0.99469 0.25771 0.0
O763 O 0.71026 0.99843 0.27872 0.0
O764 O 0.66574 0.91591 0.28079 0.0
O765 O 0.81387 0.08484 0.2822 0.0
O766 O 0.83091 0.05526 0.2973 0.0
O767 O 0.72851 0.89084 0.29146 0.0
O768 O 0.73581 0.96202 0.29803 0.0
O769 O 0.79519 0.91811 0.2703 0.0
O770 O 0.82442 0.96715 0.28622 0.0
O771 O 0.70759 0.82729 0.26935 0.0
O772 O 0.65684 0.84702 0.26221 0.0
C773 C 0.66801 0.95805 0.27987 0.0
O774 O 0.81028 1.0077 0.26644 0.0
O775 O 0.73686 0.95668 0.25861 0.0
C776 C 0.89477 0.12637 0.28911 0.0
C777 C 0.99593 0.18497 0.28557 0.0
C778 C 0.96572 0.15489 0.27667 0.0
C779 C 0.91576 0.12574 0.27844 0.0
C780 C 0.92474 0.15617 0.29803 0.0
C781 C 0.97486 0.18516 0.29629 0.0
C782 C 0.84234 0.09404 0.29117 0.0
C783 C 0.72991 0.91898 0.30002 0.0
C784 C 0.82725 0.93771 0.27865 0.0
C785 C 0.62593 0.76335 0.26728 0.0
C786 C 0.549 0.66847 0.2725 0.0
C787 C 0.5974 0.67855 0.27219 0.0
C788 C 0.6353 0.72532 0.26959 0.0
C789 C 0.5776 0.75336 0.26756 0.0
C790 C 0.53972 0.70661 0.27013 0.0
C791 C 0.66646 0.8121 0.26397 0.0
H792 H 0.9808 0.15339 0.26836 0.0
H793 H 0.8936 0.10244 0.27146 0.0
H794 H 0.90938 0.15685 0.30636 0.0
H795 H 0.99703 0.20825 0.30329 0.0
H796 H 0.60613 0.65039 0.27404 0.0
H797 H 0.67208 0.73167 0.26931 0.0
H798 H 0.56884 0.78148 0.26567 0.0
H799 H 0.50292 0.70022 0.27003 0.0
Dy800 Dy 0.13997 0.83232 0.28329 0.0
Dy801 Dy 0.24893 0.87516 0.27193 0.0
C802 C 0.1537 0.84252 0.25703 0.0
O803 O 0.14916 0.7685 0.27808 0.0
O804 O 0.23155 0.80592 0.28046 0.0
O805 O 0.06263 0.78537 0.28148 0.0
O806 O 0.09172 0.83139 0.29663 0.0
O807 O 0.25685 0.89375 0.29096 0.0
O808 O 0.18512 0.83036 0.29749 0.0
O809 O 0.23013 0.93329 0.26977 0.0
O810 O 0.17966 0.91357 0.28545 0.0
O811 O 0.30168 0.86504 0.26225 0.0
O812 O 0.31991 0.93629 0.26838 0.0
C813 C 0.18934 0.76633 0.27945 0.0
O814 O 0.13999 0.85882 0.2657 0.0
O815 O 0.19161 0.83651 0.25809 0.0
C816 C 1.0202 0.82357 0.28853 0.0
C817 C 0.96067 0.86528 0.28522 0.0
C818 C 0.99135 0.86638 0.2763 0.0
C819 C 1.02098 0.84598 0.27796 0.0
C820 C 0.98975 0.82242 0.29746 0.0
C821 C 0.96028 0.84315 0.29584 0.0
C822 C 0.05305 0.80399 0.2905 0.0
C823 C 0.22827 0.86718 0.29951 0.0
C824 C 0.21018 0.94588 0.27801 0.0
C825 C 0.38444 0.92007 0.26667 0.0
C826 C 0.4792 0.94082 0.27285 0.0
C827 C 0.44033 0.91783 0.28076 0.0
C828 C 0.39343 0.90761 0.27771 0.0
C829 C 0.42302 0.94347 0.25882 0.0
C830 C 0.46988 0.95377 0.26187 0.0
C831 C 0.33561 0.9103 0.26326 0.0
H832 H 0.99297 0.88365 0.26808 0.0
H833 H 0.0448 0.84809 0.27099 0.0
H834 H 0.98896 0.80574 0.30572 0.0
H835 H 0.93672 0.8413 0.30284 0.0
H836 H 0.44616 0.90777 0.28934 0.0
H837 H 0.3642 0.88996 0.28394 0.0
H838 H 0.41685 0.95358 0.25028 0.0
H839 H 0.49855 0.97078 0.25549 0.0
Dy840 Dy 0.71085 0.97228 0.86294 0.0
Dy841 Dy 0.77669 0.92923 0.8745 0.0
C842 C 0.71476 0.96362 0.88926 0.0
O843 O 0.78382 0.03578 0.86816 0.0
O844 O 0.8285 0.99799 0.86585 0.0
O845 O 0.68207 1.02077 0.86442 0.0
O846 O 0.66284 0.97245 0.84966 0.0
O847 O 0.7649 0.90969 0.85551 0.0
O848 O 0.75776 0.97359 0.84881 0.0
O849 O 0.69972 0.8722 0.87695 0.0
O850 O 0.66898 0.89083 0.86107 0.0
O851 O 0.78664 0.86777 0.87781 0.0
O852 O 0.83902 0.93862 0.8843 0.0
C853 C 0.82605 0.0377 0.86682 0.0
O854 O 0.68466 0.94718 0.8806 0.0
O855 O 0.75836 0.96864 0.88829 0.0
C856 C 0.60088 0.98308 0.85778 0.0
C857 C 0.50028 0.94326 0.86152 0.0
C858 C 0.53096 0.94627 0.87066 0.0
C859 C 0.58069 0.96571 0.86879 0.0
C860 C 0.57044 0.98027 0.84864 0.0
C861 C 0.52055 0.96044 0.85048 0.0
C862 C 0.65289 1.00128 0.8556 0.0
C863 C 0.76326 0.93619 0.84688 0.0
C864 C 0.66711 0.85905 0.86871 0.0
C865 C 0.86803 0.88402 0.87942 0.0
C866 C 0.94321 0.86351 0.8739 0.0
C867 C 0.89587 0.82582 0.87631 0.0
C868 C 0.85887 0.83599 0.87906 0.0
C869 C 0.91521 0.92177 0.87698 0.0
C870 C 0.95225 0.91165 0.87428 0.0
C871 C 0.82851 0.8937 0.88286 0.0
H872 H 0.51638 0.93283 0.87922 0.0
H873 H 0.60323 0.96666 0.87596 0.0
H874 H 0.58521 0.99305 0.84006 0.0
H875 H 0.49792 0.95903 0.8433 0.0
H876 H 0.88721 0.78835 0.87601 0.0
H877 H 0.82294 0.80612 0.88098 0.0
H878 H 0.92376 0.95923 0.87728 0.0
H879 H 0.98833 0.94184 0.87271 0.0
Dy880 Dy 0.1817 0.79587 0.86435 0.0
Dy881 Dy 0.22051 0.90585 0.87416 0.0
C882 C 0.19252 0.81552 0.89017 0.0
O883 O 0.11579 0.8027 0.86907 0.0
O884 O 0.15076 0.88388 0.8653 0.0
O885 O 0.14148 0.71905 0.86814 0.0
O886 O 0.17992 0.74482 0.85181 0.0
O887 O 0.23822 0.91082 0.85514 0.0
O888 O 0.17788 0.83602 0.84923 0.0
O889 O 0.28233 0.89228 0.87642 0.0
O890 O 0.26253 0.83803 0.86156 0.0
O891 O 0.20685 0.95886 0.88253 0.0
O892 O 0.27966 0.97819 0.87733 0.0
C893 C 0.11197 0.84156 0.86696 0.0
O894 O 0.21211 0.80394 0.88183 0.0
O895 O 0.18314 0.85092 0.88856 0.0
C896 C 0.1834 0.68059 0.86118 0.0
C897 C 0.23033 0.62734 0.86655 0.0
C898 C 0.25725 0.67806 0.86551 0.0
C899 C 0.23393 0.70449 0.86293 0.0
C900 C 0.15661 0.63003 0.86205 0.0
C901 C 0.17979 0.60366 0.86471 0.0
C902 C 0.15831 0.7083 0.85897 0.0
C903 C 0.21281 0.8799 0.84687 0.0
C904 C 0.29497 0.87089 0.86855 0.0
C905 C 0.25931 0.04081 0.87642 0.0
C906 C 0.2764 0.1328 0.86867 0.0
C907 C 0.23394 0.10128 0.87486 0.0
C908 C 0.22558 0.05602 0.8787 0.0
C909 C 0.30174 0.07215 0.87019 0.0
C910 C 0.31015 0.11756 0.86636 0.0
C911 C 0.25151 0.99394 0.88118 0.0
H912 H 0.29609 0.69734 0.86694 0.0
H913 H 0.2553 0.74365 0.86242 0.0
H914 H 0.11766 0.61094 0.86077 0.0
H915 H 0.15809 0.56454 0.86527 0.0
H916 H 0.20758 0.1121 0.87705 0.0
H917 H 0.19298 0.03323 0.88363 0.0
H918 H 0.32884 0.06191 0.86838 0.0
H919 H 0.34311 0.14073 0.8616 0.0
Dy920 Dy 0.35988 0.44094 0.86555 0.0
Dy921 Dy 0.24499 0.37667 0.87446 0.0
C922 C 0.33585 0.4093 0.89026 0.0
O923 O 0.3395 0.36435 0.8606 0.0
O924 O 0.26473 0.32104 0.86983 0.0
O925 O 0.43258 0.4837 0.87208 0.0
O926 O 0.41997 0.47506 0.85349 0.0
O927 O 0.24411 0.37183 0.85501 0.0
O928 O 0.31598 0.44153 0.85084 0.0
O929 O 0.2561 0.44917 0.87068 0.0
O930 O 0.33896 0.49463 0.87248 0.0
O931 O 0.17261 0.36637 0.87523 0.0
O932 O 0.19068 0.32021 0.8854 0.0
C933 C 0.30113 0.32315 0.86392 0.0
O934 O 0.35003 0.39668 0.88107 0.0
O935 O 0.29699 0.41353 0.88931 0.0
C936 C 0.48192 0.55096 0.86057 0.0
C937 C 0.53986 0.65274 0.86205 0.0
C938 C 0.48996 0.6311 0.85965 0.0
C939 C 0.46114 0.58054 0.85899 0.0
C940 C 0.53192 0.5725 0.86249 0.0
C941 C 0.56065 0.62289 0.86321 0.0
C942 C 0.45125 0.49808 0.86177 0.0
C943 C 0.27363 0.40575 0.84769 0.0
C944 C 0.2957 0.49075 0.87208 0.0
C945 C 0.10829 0.28679 0.87889 0.0
C946 C 1.01469 0.20831 0.87364 0.0
C947 C 1.02299 0.256 0.87422 0.0
C948 C 0.06915 0.29466 0.87685 0.0
C949 C 0.10029 0.23928 0.87829 0.0
C950 C 0.05403 0.20053 0.87572 0.0
C951 C 0.15628 0.32854 0.88198 0.0
H952 H 0.47285 0.65307 0.85879 0.0
H953 H 0.4224 0.56448 0.85766 0.0
H954 H 0.54851 0.55025 0.86383 0.0
H955 H 0.5991 0.6385 0.8649 0.0
H956 H 0.99393 0.26362 0.87255 0.0
H957 H 0.07426 0.33092 0.87731 0.0
H958 H 0.12957 0.2319 0.87989 0.0
H959 H 0.04901 0.16429 0.87557 0.0
Dy960 Dy 0.88988 0.70049 0.7088 0.0
Dy961 Dy 0.84499 0.76462 0.69726 0.0
C962 C 0.87993 0.71134 0.68122 0.0
O963 O 0.9473 0.77777 0.71074 0.0
O964 O 0.92629 0.80646 0.69484 0.0
O965 O 0.95128 0.68981 0.71154 0.0
O966 O 0.88174 0.63995 0.71917 0.0
O967 O 0.87182 0.79213 0.71475 0.0
O968 O 0.85108 0.71912 0.72268 0.0
O969 O 0.78161 0.69166 0.70273 0.0
O970 O 0.82025 0.64759 0.70067 0.0
O971 O 0.80037 0.79784 0.69935 0.0
O972 O 0.84036 0.80767 0.68338 0.0
C973 C 0.95908 0.8097 0.70235 0.0
O974 O 0.9076 0.71083 0.68969 0.0
O975 O 0.84233 0.71628 0.68338 0.0
C976 C 0.93354 0.60816 0.71382 0.0
C977 C 0.95033 0.53038 0.70857 0.0
C978 C 0.90295 0.52204 0.71051 0.0
C979 C 0.89466 0.56034 0.71309 0.0
C980 C 0.98086 0.61661 0.71191 0.0
C981 C 0.98916 0.57831 0.70929 0.0
C982 C 0.92595 0.64912 0.71713 0.0
C983 C 0.85597 0.76261 0.72353 0.0
C984 C 0.78019 0.64956 0.70162 0.0
C985 C 0.83728 0.87538 0.69071 0.0
C986 C 0.87729 0.97611 0.69411 0.0
C987 C 0.90768 0.95627 0.69251 0.0
C988 C 0.88788 0.90635 0.69091 0.0
C989 C 0.80687 0.89515 0.69211 0.0
C990 C 0.82665 0.94502 0.69381 0.0
C991 C 0.81613 0.82239 0.6897 0.0
H992 H 0.87209 0.48564 0.71028 0.0
H993 H 0.85778 0.55229 0.71463 0.0
H994 H 1.01165 0.65299 0.71251 0.0
H995 H 1.02605 0.58641 0.70775 0.0
H996 H 0.94676 0.97916 0.69282 0.0
H997 H 0.91218 0.89188 0.69001 0.0
H998 H 0.7678 0.87192 0.69204 0.0
H999 H 0.80229 0.95929 0.69491 0.0
Dy1000 Dy 0.4448 0.23003 0.70822 0.0
Dy1001 Dy 0.37783 0.12196 0.69649 0.0
C1002 C 0.43206 0.21115 0.68054 0.0
O1003 O 0.36827 0.21299 0.71006 0.0
O1004 O 0.33718 0.16278 0.69437 0.0
O1005 O 0.45504 0.30079 0.71226 0.0
O1006 O 0.50824 0.28166 0.71787 0.0
O1007 O 0.35125 0.12294 0.71395 0.0
O1008 O 0.42506 0.1714 0.72183 0.0
O1009 O 0.4506 0.12992 0.70165 0.0
O1010 O 0.49603 0.2123 0.69952 0.0
O1011 O 0.34655 0.04455 0.69836 0.0
O1012 O 0.32953 0.07407 0.68325 0.0
C1013 C 0.33576 0.19342 0.70181 0.0
O1014 O 0.43471 0.23945 0.68921 0.0
O1015 O 0.42495 0.16752 0.68237 0.0
C1016 C 0.53582 0.36488 0.71396 0.0
C1017 C 0.60946 0.4601 0.70811 0.0
C1018 C 0.59415 0.42181 0.70008 0.0
C1019 C 0.55765 0.37469 0.70298 0.0
C1020 C 0.55041 0.40291 0.72192 0.0
C1021 C 0.58678 0.44998 0.71904 0.0
C1022 C 0.49694 0.3158 0.71722 0.0
C1023 C 0.3807 0.13432 0.72268 0.0
C1024 C 0.49315 0.1699 0.70042 0.0
C1025 C 0.26547 1.0031 0.69152 0.0
C1026 C 0.16437 0.94394 0.69518 0.0
C1027 C 0.19479 0.97358 0.70411 0.0
C1028 C 0.24471 1.003 0.70229 0.0
C1029 C 0.23529 0.97377 0.68257 0.0
C1030 C 0.18522 0.94453 0.68436 0.0
C1031 C 0.31794 0.03535 0.68942 0.0
H1032 H 0.61035 0.42825 0.69154 0.0
H1033 H 0.54652 0.34592 0.69666 0.0
H1034 H 0.53382 0.39612 0.73043 0.0
H1035 H 0.59798 0.47819 0.72551 0.0
H1036 H 0.1799 0.9745 0.71249 0.0
H1037 H 0.26702 0.02589 0.7093 0.0
H1038 H 0.25044 0.9736 0.67417 0.0
H1039 H 0.16293 0.92181 0.67734 0.0
Dy1040 Dy 0.91092 0.25034 0.70886 0.0
Dy1041 Dy 1.02029 0.29489 0.69755 0.0
C1042 C 0.93221 0.26097 0.68129 0.0
O1043 O 0.93028 0.19252 0.7106 0.0
O1044 O 0.98114 0.21379 0.69495 0.0
O1045 O 0.83992 0.18876 0.71215 0.0
O1046 O 0.85793 0.25925 0.71878 0.0
O1047 O 1.01899 0.26608 0.71494 0.0
O1048 O 0.96841 0.28883 0.72268 0.0
O1049 O 1.01039 0.35808 0.70307 0.0
O1050 O 0.92793 0.3202 0.70071 0.0
O1051 O 0.09775 0.33951 0.70012 0.0
O1052 O 0.06941 0.30065 0.68395 0.0
C1053 C 0.95047 0.18077 0.70225 0.0
O1054 O 0.90346 0.23362 0.68973 0.0
O1055 O 0.97528 0.29766 0.68344 0.0
C1056 C 0.77537 0.20492 0.71402 0.0
C1057 C 0.68099 0.18513 0.70773 0.0
C1058 C 0.71998 0.20753 0.69983 0.0
C1059 C 0.76668 0.21728 0.70295 0.0
C1060 C 0.73668 0.18214 0.72187 0.0
C1061 C 0.69001 0.17233 0.71877 0.0
C1062 C 0.82402 0.21415 0.71748 0.0
C1063 C 1.00718 0.28409 0.72359 0.0
C1064 C 0.96997 0.35996 0.70181 0.0
C1065 C 0.14008 0.30421 0.6916 0.0
C1066 C 0.20208 0.26537 0.69488 0.0
C1067 C 0.15188 0.23453 0.69346 0.0
C1068 C 0.12113 0.25376 0.69191 0.0
C1069 C 0.19015 0.33507 0.6929 0.0
C1070 C 0.22089 0.31586 0.69455 0.0
C1071 C 0.10769 0.32476 0.69048 0.0
H1072 H 0.7144 0.21746 0.69122 0.0
H1073 H 0.79599 0.23446 0.69672 0.0
H1074 H 0.7426 0.17213 0.73045 0.0
H1075 H 0.66126 0.15579 0.72514 0.0
H1076 H 0.13625 0.19554 0.69381 0.0
H1077 H 0.08245 0.22916 0.6911 0.0
H1078 H 0.20543 0.37405 0.69276 0.0
H1079 H 0.25946 0.34056 0.69552 0.0
Dy1080 Dy 0.38135 0.20963 0.10486 0.0
Dy1081 Dy 0.44916 0.16861 0.11631 0.0
C1082 C 0.39484 0.20229 0.13242 0.0
O1083 O 0.45798 0.26761 0.10239 0.0
O1084 O 0.48954 0.2501 0.11828 0.0
O1085 O 0.37139 0.27064 0.1011 0.0
O1086 O 0.3173 0.19892 0.09556 0.0
O1087 O 0.47443 0.19383 0.0986 0.0
O1088 O 0.4001 0.17055 0.09107 0.0
O1089 O 0.37655 0.10386 0.11127 0.0
O1090 O 0.33036 0.14023 0.11341 0.0
O1091 O 0.48015 0.12204 0.11473 0.0
O1092 O 0.49746 0.16934 0.12964 0.0
C1093 C 0.49068 0.2815 0.11063 0.0
O1094 O 0.39279 0.22892 0.12388 0.0
O1095 O 0.40116 0.16549 0.13037 0.0
C1096 C 0.29071 0.25528 0.09981 0.0
C1097 C 0.21889 0.27917 0.10618 0.0
C1098 C 0.23732 0.25937 0.11435 0.0
C1099 C 0.27289 0.24761 0.11121 0.0
C1100 C 0.27288 0.27536 0.09167 0.0
C1101 C 0.23743 0.28719 0.0948 0.0
C1102 C 0.32904 0.2444 0.09631 0.0
C1103 C 0.44404 0.17647 0.09002 0.0
C1104 C 0.33385 0.10102 0.11257 0.0
C1105 C 0.56097 0.16072 0.12169 0.0
C1106 C 0.66197 0.20143 0.11833 0.0
C1107 C 0.63197 0.19985 0.10918 0.0
C1108 C 0.58204 0.17997 0.11085 0.0
C1109 C 0.59073 0.16221 0.13085 0.0
C1110 C 0.64079 0.18245 0.1292 0.0
C1111 C 0.50863 0.14147 0.12367 0.0
H1112 H 0.22439 0.25311 0.12322 0.0
H1113 H 0.28653 0.23263 0.11767 0.0
H1114 H 0.28632 0.2818 0.08284 0.0
H1115 H 0.22374 0.30156 0.08821 0.0
H1116 H 0.64721 0.21467 0.10075 0.0
H1117 H 0.56001 0.18001 0.10368 0.0
H1118 H 0.57527 0.14793 0.1393 0.0
H1119 H 0.66283 0.18269 0.1364 0.0
Dy1120 Dy 0.94127 0.23774 0.10632 0.0
Dy1121 Dy 0.98106 0.34726 0.1167 0.0
C1122 C 0.94861 0.26162 0.13378 0.0
O1123 O 0.88064 0.25301 0.10398 0.0
O1124 O 0.89995 0.30544 0.1192 0.0
O1125 O 0.88141 0.16575 0.10299 0.0
O1126 O 0.95391 0.18517 0.09744 0.0
O1127 O 0.95226 0.3418 0.09913 0.0
O1128 O 0.97958 0.29364 0.09218 0.0
O1129 O 0.04658 0.33948 0.11206 0.0
O1130 O 1.01044 0.25775 0.11522 0.0
O1131 O 1.02448 0.42438 0.11371 0.0
O1132 O 0.98033 0.3974 0.12924 0.0
C1133 C 0.86776 0.2737 0.11197 0.0
O1134 O 0.92322 0.23153 0.12536 0.0
O1135 O 0.98376 0.30565 0.13164 0.0
C1136 C 0.90026 0.10282 0.10265 0.0
C1137 C 0.88253 1.01029 0.10989 0.0
C1138 C 0.91916 0.05277 0.11518 0.0
C1139 C 0.92785 0.09861 0.11162 0.0
C1140 C 0.8632 0.06064 0.09752 0.0
C1141 C 0.85436 1.01489 0.1011 0.0
C1142 C 0.90894 0.15046 0.09852 0.0
C1143 C 0.97111 0.32973 0.09072 0.0
C1144 C 0.04967 0.29997 0.11385 0.0
C1145 C 0.98147 0.4637 0.11976 0.0
C1146 C 0.93218 0.51549 0.11511 0.0
C1147 C 0.93595 0.48611 0.10655 0.0
C1148 C 0.96008 0.46031 0.10886 0.0
C1149 C 0.97762 0.49278 0.12834 0.0
C1150 C 0.95318 0.51837 0.12605 0.0
C1151 C 1.00493 0.43465 0.12244 0.0
H1152 H 0.94125 0.05058 0.12205 0.0
H1153 H 0.95629 0.1307 0.1158 0.0
H1154 H 0.84136 0.06311 0.09062 0.0
H1155 H 0.82641 0.98318 0.0967 0.0
H1156 H 0.9198 0.48264 0.09808 0.0
H1157 H 0.96168 0.43745 0.10214 0.0
H1158 H 0.99336 0.49554 0.13683 0.0
H1159 H 0.95147 0.54111 0.13279 0.0
Dy1160 Dy 0.91442 0.75999 0.10494 0.0
Dy1161 Dy 0.79928 0.70256 0.11374 0.0
C1162 C 0.88065 0.73083 0.13241 0.0
O1163 O 0.88874 0.68392 0.10027 0.0
O1164 O 0.82877 0.65068 0.11387 0.0
O1165 O 0.98661 0.76939 0.1056 0.0
O1166 O 0.97151 0.81534 0.09441 0.0
O1167 O 0.81253 0.74563 0.09778 0.0
O1168 O 0.86483 0.72802 0.08951 0.0
O1169 O 0.81874 0.77974 0.11695 0.0
O1170 O 0.89768 0.81819 0.1098 0.0
O1171 O 0.73194 0.65445 0.1053 0.0
O1172 O 0.73251 0.66983 0.1237 0.0
C1173 C 0.86018 0.64778 0.10696 0.0
O1174 O 0.91349 0.74318 0.12407 0.0
O1175 O 0.83551 0.71918 0.13052 0.0
C1176 C 0.05247 0.84851 0.10182 0.0
C1177 C 0.14602 0.92778 0.10685 0.0
C1178 C 0.13821 0.88027 0.1062 0.0
C1179 C 0.09206 0.84121 0.10369 0.0
C1180 C 0.05992 0.8958 0.10256 0.0
C1181 C 0.10611 0.93491 0.10501 0.0
C1182 C 1.00472 0.80664 0.09859 0.0
C1183 C 0.82594 0.73202 0.08865 0.0
C1184 C 0.86025 0.81928 0.11441 0.0
C1185 C 0.67581 0.59084 0.11686 0.0
C1186 C 0.61714 0.48884 0.11638 0.0
C1187 C 0.66688 0.51061 0.11902 0.0
C1188 C 0.69604 0.56125 0.1192 0.0
C1189 C 0.62591 0.56928 0.11479 0.0
C1190 C 0.59683 0.51882 0.11457 0.0
C1191 C 0.70697 0.64331 0.11492 0.0
H1192 H 0.1677 0.87312 0.10769 0.0
H1193 H 0.08736 0.80513 0.10313 0.0
H1194 H 1.03026 0.90275 0.10111 0.0
H1195 H 0.11064 0.97096 0.10523 0.0
H1196 H 0.68368 0.4886 0.12039 0.0
H1197 H 0.73467 0.57725 0.12068 0.0
H1198 H 0.60972 0.59148 0.11288 0.0
H1199 H 0.55851 0.50321 0.11271 0.0
Dy1200 Dy 0.98279 0.69445 0.61771 0.0
Dy1201 Dy 0.93793 0.7593 0.6066 0.0
C1202 C 0.97161 0.69824 0.59148 0.0
O1203 O 0.04608 0.76762 0.61233 0.0
O1204 O 1.00769 0.81176 0.61477 0.0
O1205 O 1.02726 0.6612 0.61531 0.0
O1206 O 0.98766 0.65065 0.63138 0.0
O1207 O 0.92032 0.74801 0.62569 0.0
O1208 O 0.9854 0.74182 0.63186 0.0
O1209 O 0.88085 0.68214 0.60437 0.0
O1210 O 0.90148 0.65252 0.62014 0.0
O1211 O 0.87621 0.76947 0.60394 0.0
O1212 O 0.94581 0.82026 0.59647 0.0
C1213 C 0.04764 0.80969 0.61363 0.0
O1214 O 0.95605 0.66813 0.60015 0.0
O1215 O 0.97667 0.74169 0.59256 0.0
C1216 C 0.99068 0.58329 0.62377 0.0
C1217 C 0.95077 0.48254 0.62035 0.0
C1218 C 1.0014 0.51373 0.62058 0.0
C1219 C 1.02112 0.5636 0.6223 0.0
C1220 C 0.94009 0.55226 0.62359 0.0
C1221 C 0.92034 0.50234 0.62198 0.0
C1222 C 1.01176 0.63623 0.62492 0.0
C1223 C 0.94792 0.74687 0.6341 0.0
C1224 C 0.86884 0.64979 0.61265 0.0
C1225 C 0.89305 0.85078 0.60185 0.0
C1226 C 0.87489 0.92744 0.60724 0.0
C1227 C 0.92267 0.93626 0.60574 0.0
C1228 C 0.93164 0.89848 0.6031 0.0
C1229 C 0.84535 0.84185 0.60332 0.0
C1230 C 0.83636 0.87961 0.60601 0.0
C1231 C 0.90136 0.81044 0.59845 0.0
H1232 H 1.0258 0.49952 0.61946 0.0
H1233 H 0.06019 0.58688 0.62235 0.0
H1234 H 0.91576 0.56666 0.62454 0.0
H1235 H 0.88126 0.47941 0.62171 0.0
H1236 H 0.95334 0.97266 0.60637 0.0
H1237 H 0.96882 0.90686 0.60191 0.0
H1238 H 0.81482 0.80551 0.60231 0.0
H1239 H 0.79917 0.87118 0.60719 0.0
Dy1240 Dy 0.4501 0.34007 0.61779 0.0
Dy1241 Dy 0.38456 0.23121 0.60634 0.0
C1242 C 0.44618 0.32676 0.5915 0.0
O1243 O 0.37667 0.33066 0.61277 0.0
O1244 O 0.3326 0.24817 0.61495 0.0
O1245 O 0.48088 0.41748 0.61598 0.0
O1246 O 0.49778 0.38796 0.63111 0.0
O1247 O 0.39615 0.22339 0.62533 0.0
O1248 O 0.40376 0.29456 0.63203 0.0
O1249 O 0.46164 0.2506 0.60403 0.0
O1250 O 0.49159 0.30009 0.61985 0.0
O1251 O 0.37413 0.15961 0.60323 0.0
O1252 O 0.32271 0.17898 0.59636 0.0
C1253 C 0.33458 0.29017 0.61402 0.0
O1254 O 0.47621 0.34029 0.60017 0.0
O1255 O 0.40254 0.28859 0.59251 0.0
C1256 C 0.5618 0.45897 0.62292 0.0
C1257 C 0.66309 0.51728 0.61948 0.0
C1258 C 0.63291 0.48756 0.61053 0.0
C1259 C 0.58289 0.45856 0.61224 0.0
C1260 C 0.59173 0.48844 0.63189 0.0
C1261 C 0.64191 0.51728 0.6302 0.0
C1262 C 0.50932 0.42671 0.62495 0.0
C1263 C 0.39815 0.25158 0.63394 0.0
C1264 C 0.4941 0.27047 0.61228 0.0
C1265 C 0.29248 0.09541 0.60143 0.0
C1266 C 0.21615 1.00039 0.60681 0.0
C1267 C 0.26437 1.01028 0.60585 0.0
C1268 C 0.30195 0.05711 0.60317 0.0
C1269 C 0.24436 0.08567 0.60239 0.0
C1270 C 0.20677 0.03885 0.60503 0.0
C1271 C 0.33263 0.1442 0.59801 0.0
H1272 H 0.64807 0.48621 0.60222 0.0
H1273 H 0.56076 0.43549 0.60524 0.0
H1274 H 0.57631 0.48896 0.64022 0.0
H1275 H 0.66403 0.5401 0.63723 0.0
H1276 H 0.27322 0.98192 0.60725 0.0
H1277 H 0.33858 0.06332 0.60237 0.0
H1278 H 0.23552 0.11404 0.60097 0.0
H1279 H 0.17009 0.03267 0.60545 0.0
Dy1280 Dy 0.80575 0.1636 0.6176 0.0
Dy1281 Dy 0.91468 0.20605 0.60634 0.0
C1282 C 0.81969 0.17463 0.59145 0.0
O1283 O 0.8147 0.09964 0.61233 0.0
O1284 O 0.89703 0.13663 0.61477 0.0
O1285 O 0.72851 0.11692 0.61554 0.0
O1286 O 0.75685 0.16244 0.6308 0.0
O1287 O 0.92247 0.22347 0.62546 0.0
O1288 O 0.85005 0.16049 0.63183 0.0
O1289 O 0.89681 0.26491 0.60444 0.0
O1290 O 0.84599 0.24477 0.62006 0.0
O1291 O 0.98576 0.26704 0.6028 0.0
O1292 O 0.96731 0.19578 0.59664 0.0
C1293 C 0.85474 0.0972 0.61374 0.0
O1294 O 0.80704 0.19172 0.60014 0.0
O1295 O 0.85714 0.16784 0.59247 0.0
C1296 C 0.68587 0.15512 0.62246 0.0
C1297 C 0.62677 0.19721 0.61896 0.0
C1298 C 0.65695 0.19736 0.61004 0.0
C1299 C 0.68638 0.17678 0.61178 0.0
C1300 C 0.65585 0.15489 0.63139 0.0
C1301 C 0.62661 0.1758 0.62967 0.0
C1302 C 0.71851 0.13535 0.62453 0.0
C1303 C 0.89349 0.19666 0.63393 0.0
C1304 C 0.87691 0.27734 0.61272 0.0
C1305 C 0.0502 0.25071 0.60102 0.0
C1306 C 0.14513 0.2717 0.60712 0.0
C1307 C 0.10636 0.24861 0.61505 0.0
C1308 C 0.05938 0.23828 0.61204 0.0
C1309 C 0.08868 0.27415 0.59314 0.0
C1310 C 0.13561 0.28456 0.59615 0.0
C1311 C 1.00132 0.241 0.59765 0.0
H1312 H 0.65838 0.21405 0.60174 0.0
H1313 H 0.70985 0.17818 0.6048 0.0
H1314 H 0.65525 0.13878 0.63972 0.0
H1315 H 0.60341 0.17467 0.63668 0.0
H1316 H 0.11233 0.2386 0.62362 0.0
H1317 H 1.03024 0.22061 0.61829 0.0
H1318 H 0.08237 0.28424 0.58461 0.0
H1319 H 0.1642 0.30164 0.58975 0.0
Dy1320 Dy 0.37552 0.30571 0.19564 0.0
Dy1321 Dy 0.44046 0.26143 0.20702 0.0
C1322 C 0.37782 0.29415 0.22185 0.0
O1323 O 0.44856 0.36891 0.20105 0.0
O1324 O 0.49301 0.33082 0.19872 0.0
O1325 O 0.34579 0.35328 0.1975 0.0
O1326 O 0.32793 0.30696 0.18238 0.0
O1327 O 0.43025 0.24394 0.18791 0.0
O1328 O 0.42304 0.30826 0.18152 0.0
O1329 O 0.36331 0.20387 0.20905 0.0
O1330 O 0.33415 0.22457 0.19321 0.0
O1331 O 0.502 0.27025 0.2171 0.0
O1332 O 0.45039 0.19998 0.2102 0.0
C1333 C 0.49075 0.37063 0.19976 0.0
O1334 O 0.34825 0.27825 0.2131 0.0
O1335 O 0.42167 0.29992 0.22089 0.0
C1336 C 0.26472 0.3149 0.19075 0.0
C1337 C 0.16373 0.2728 0.19448 0.0
C1338 C 0.19427 0.27321 0.20336 0.0
C1339 C 0.24415 0.2938 0.2015 0.0
C1340 C 0.23444 0.31455 0.18185 0.0
C1341 C 0.18438 0.29364 0.18369 0.0
C1342 C 0.317 0.33447 0.18858 0.0
C1343 C 0.42885 0.27115 0.17942 0.0
C1344 C 0.33125 0.19194 0.20072 0.0
C1345 C 0.53091 0.21615 0.2126 0.0
C1346 C 0.6064 0.19682 0.20695 0.0
C1347 C 0.59173 0.22091 0.19902 0.0
C1348 C 0.55432 0.23042 0.20182 0.0
C1349 C 0.5449 0.19167 0.22045 0.0
C1350 C 0.58218 0.18207 0.21768 0.0
C1351 C 0.49112 0.22523 0.21575 0.0
H1352 H 0.17949 0.25695 0.21172 0.0
H1353 H 0.26657 0.2928 0.20846 0.0
H1354 H 0.24947 0.33019 0.17346 0.0
H1355 H 0.16193 0.29433 0.1767 0.0
H1356 H 0.60913 0.23236 0.19064 0.0
H1357 H 0.54372 0.24896 0.19558 0.0
H1358 H 0.52712 0.18017 0.22881 0.0
H1359 H 0.59284 0.16416 0.22407 0.0
Dy1360 Dy 0.84451 0.13048 0.19674 0.0
Dy1361 Dy 0.88851 0.23908 0.20838 0.0
C1362 C 0.85503 0.1432 0.22301 0.0
O1363 O 0.78075 0.13992 0.20199 0.0
O1364 O 0.81911 0.22256 0.20007 0.0
O1365 O 0.80005 0.05279 0.19895 0.0
O1366 O 0.84039 0.08267 0.183 0.0
O1367 O 0.90659 0.24766 0.18933 0.0
O1368 O 0.84283 0.17652 0.18273 0.0
O1369 O 0.94622 0.21933 0.21024 0.0
O1370 O 0.9257 0.17012 0.19433 0.0
O1371 O 0.87959 0.29144 0.2185 0.0
O1372 O 0.95008 0.31026 0.21158 0.0
C1373 C 0.77915 0.18052 0.2009 0.0
O1374 O 0.87151 0.13012 0.21426 0.0
O1375 O 0.84948 0.1814 0.22214 0.0
C1376 C 0.83659 1.01147 0.19043 0.0
C1377 C 0.87556 0.94942 0.19364 0.0
C1378 C 0.82501 0.93072 0.19344 0.0
C1379 C 0.80576 0.96145 0.19183 0.0
C1380 C 0.88711 0.03031 0.1906 0.0
C1381 C 0.90638 0.99955 0.19211 0.0
C1382 C 0.8159 0.04383 0.18935 0.0
C1383 C 0.8798 0.21966 0.18077 0.0
C1384 C 0.9583 0.19965 0.20183 0.0
C1385 C 0.933 0.37472 0.21331 0.0
C1386 C 0.95171 0.4694 0.20746 0.0
C1387 C 0.90381 0.43072 0.20886 0.0
C1388 C 0.89457 0.38405 0.21173 0.0
C1389 C 0.98083 0.41323 0.21196 0.0
C1390 C 0.99009 0.45991 0.20905 0.0
C1391 C 0.92428 0.32597 0.21682 0.0
H1392 H 0.80028 0.89221 0.19449 0.0
H1393 H 0.76674 0.94619 0.19178 0.0
H1394 H 0.91174 0.06892 0.1897 0.0
H1395 H 0.94542 1.01515 0.19236 0.0
H1396 H 0.87322 0.43659 0.20797 0.0
H1397 H 0.85728 0.35545 0.2128 0.0
H1398 H 1.01124 0.40727 0.21322 0.0
H1399 H 1.02738 0.48845 0.20796 0.0
Dy1400 Dy 1.0196 0.7739 0.19583 0.0
Dy1401 Dy 0.91121 0.70713 0.20734 0.0
C1402 C 1.00639 0.7706 0.22204 0.0
O1403 O 1.01169 0.70137 0.20118 0.0
O1404 O 0.92928 0.65559 0.19899 0.0
O1405 O 0.09702 0.80516 0.19783 0.0
O1406 O 0.06794 0.82178 0.18257 0.0
O1407 O 0.90229 0.71463 0.18818 0.0
O1408 O 0.97562 0.72678 0.18156 0.0
O1409 O 0.92826 0.7836 0.20909 0.0
O1410 O 0.97857 0.81423 0.19338 0.0
O1411 O 0.83964 0.69642 0.21072 0.0
O1412 O 0.85951 0.64505 0.21738 0.0
C1413 C 0.97184 0.6588 0.19994 0.0
O1414 O 1.01848 0.80037 0.21333 0.0
O1415 O 0.96911 0.72644 0.22109 0.0
C1416 C 0.13883 0.88574 0.19074 0.0
C1417 C 0.19777 0.98678 0.19406 0.0
C1418 C 0.16708 0.95704 0.20297 0.0
C1419 C 0.13775 0.90711 0.20131 0.0
C1420 C 0.16923 0.91523 0.18182 0.0
C1421 C 0.19839 0.96531 0.18345 0.0
C1422 C 0.10653 0.83336 0.18879 0.0
C1423 C 0.93113 0.71708 0.17965 0.0
C1424 C 0.9478 0.81586 0.20077 0.0
C1425 C 0.7758 0.61477 0.21245 0.0
C1426 C 0.68101 0.53875 0.20688 0.0
C1427 C 0.69075 0.58681 0.20795 0.0
C1428 C 0.73747 0.62425 0.21073 0.0
C1429 C 0.7662 0.5668 0.21139 0.0
C1430 C 0.71947 0.52934 0.20865 0.0
C1431 C 0.82453 0.65482 0.21587 0.0
H1432 H 0.16528 0.97247 0.21118 0.0
H1433 H 0.11398 0.88527 0.20827 0.0
H1434 H 0.17027 0.89954 0.17358 0.0
H1435 H 0.22196 0.98713 0.17646 0.0
H1436 H 0.66236 0.59566 0.20656 0.0
H1437 H 0.74358 0.66077 0.2116 0.0
H1438 H 0.79462 0.55798 0.21279 0.0
H1439 H 0.71336 0.49274 0.20815 0.0
C1440 C 0.50692 0.18662 0.07606 0.0
C1441 C 0.45947 0.15786 0.08022 0.0
H1442 H 0.56369 0.19089 0.06535 0.0
C1443 C 0.43285 0.10891 0.07689 0.0
H1444 H 0.52864 0.22408 0.07876 0.0
C1445 C 0.45374 0.08922 0.06949 0.0
C1446 C 0.50129 0.11844 0.06532 0.0
H1447 H 0.39678 0.08562 0.08033 0.0
H1448 H 0.4324 0.05178 0.06677 0.0
C1449 C 0.52736 0.16732 0.06863 0.0
C1450 C 0.96294 0.38488 0.07712 0.0
C1451 C 0.99016 0.36384 0.08095 0.0
H1452 H 0.96044 0.43838 0.06639 0.0
C1453 C 0.03818 0.38291 0.07706 0.0
H1454 H 0.9262 0.37149 0.0802 0.0
C1455 C 0.0585 0.42265 0.06942 0.0
C1456 C 1.03076 0.44322 0.06558 0.0
H1457 H 0.06028 0.36812 0.08019 0.0
H1458 H 0.09508 0.43619 0.06623 0.0
C1459 C 0.98284 0.42379 0.06945 0.0
C1460 C 0.74798 0.64075 0.06601 0.0
C1461 C 0.70943 0.65042 0.06487 0.0
H1462 H 0.81601 0.65996 0.07408 0.0
C1463 C 0.71071 0.68834 0.07129 0.0
H1464 H 0.7479 0.6115 0.06121 0.0
C1465 C 0.74998 0.71626 0.0786 0.0
C1466 C 0.78879 0.70692 0.07962 0.0
H1467 H 0.68208 0.69722 0.07046 0.0
H1468 H 0.7498 0.74507 0.08355 0.0
C1469 C 0.78741 0.66889 0.07324 0.0
C1470 C 0.18032 0.5181 0.41085 0.0
C1471 C 0.13206 0.4905 0.41458 0.0
H1472 H 0.23683 0.52143 0.40018 0.0
C1473 C 0.10374 0.44259 0.41064 0.0
H1474 H 0.2032 0.55474 0.41398 0.0
C1475 C 0.12375 0.42274 0.40304 0.0
C1476 C 0.17205 0.45084 0.39928 0.0
H1477 H 0.06688 0.42017 0.41371 0.0
H1478 H 0.10117 0.38623 0.39982 0.0
C1479 C 0.19989 0.4987 0.40319 0.0
C1480 C 0.63372 0.71853 0.41145 0.0
C1481 C 0.66003 0.69589 0.41483 0.0
H1482 H 0.63171 0.77296 0.40096 0.0
C1483 C 0.70711 0.7133 0.41046 0.0
H1484 H 0.59774 0.70641 0.4149 0.0
C1485 C 0.7274 0.75293 0.40278 0.0
C1486 C 0.70056 0.77506 0.39938 0.0
H1487 H 0.72859 0.69728 0.41323 0.0
H1488 H 0.76317 0.76512 0.39921 0.0
C1489 C 0.65352 0.75727 0.40372 0.0
C1490 C 0.39485 0.02538 0.40301 0.0
C1491 C 0.37728 0.97835 0.39865 0.0
H1492 H 0.44671 0.08117 0.41427 0.0
C1493 C 0.39969 0.95185 0.40206 0.0
H1494 H 0.37901 0.047 0.40023 0.0
C1495 C 0.43835 0.97142 0.40981 0.0
C1496 C 0.45631 1.0184 0.41414 0.0
H1497 H 0.38745 0.9159 0.39862 0.0
H1498 H 0.45385 0.94946 0.41258 0.0
C1499 C 0.4344 0.04543 0.4107 0.0
C1500 C 0.70703 0.0504 0.91033 0.0
C1501 C 0.65911 1.02187 0.91433 0.0
H1502 H 0.76367 0.0533 0.8995 0.0
C1503 C 0.63191 0.97351 0.91069 0.0
H1504 H 0.7292 0.08735 0.91332 0.0
C1505 C 0.65165 0.95406 0.90309 0.0
C1506 C 0.6995 0.9821 0.89912 0.0
H1507 H 0.5953 0.95044 0.91387 0.0
H1508 H 0.62915 0.91704 0.90016 0.0
C1509 C 0.72721 0.03052 0.90277 0.0
C1510 C 0.12388 0.76026 0.90325 0.0
C1511 C 0.17262 0.78069 0.8998 0.0
H1512 H 0.06587 0.70503 0.91349 0.0
C1513 C 0.2 0.76011 0.90379 0.0
H1514 H 0.10166 0.77466 0.89996 0.0
C1515 C 0.17953 0.72022 0.91117 0.0
C1516 C 0.13091 0.69942 0.91462 0.0
H1517 H 0.23731 0.77453 0.90104 0.0
H1518 H 0.20205 0.70595 0.91434 0.0
C1519 C 0.10303 0.71962 0.91063 0.0
C1520 C 0.45062 0.45296 0.90784 0.0
C1521 C 0.45109 0.49007 0.91444 0.0
H1522 H 0.41261 0.39715 0.8953 0.0
C1523 C 0.41224 0.49932 0.91332 0.0
H1524 H 0.47948 0.44441 0.90865 0.0
C1525 C 0.37333 0.47155 0.90592 0.0
C1526 C 0.37274 0.4343 0.89936 0.0
H1527 H 0.41167 0.52792 0.91826 0.0
H1528 H 0.34446 0.48009 0.90512 0.0
C1529 C 0.41184 0.42539 0.90037 0.0
C1530 C 0.96059 0.6368 0.57706 0.0
C1531 C 0.98971 0.6836 0.58147 0.0
H1532 H 0.95584 0.58139 0.56582 0.0
C1533 C 0.03866 0.71044 0.5781 0.0
H1534 H 0.92312 0.61498 0.57979 0.0
C1535 C 0.05809 0.69037 0.5704 0.0
C1536 C 1.02854 0.64351 0.56597 0.0
H1537 H 0.06216 0.74601 0.58174 0.0
H1538 H 0.09558 0.71183 0.56768 0.0
C1539 C 0.97961 0.61721 0.5693 0.0
C1540 C 0.52873 0.41861 0.56989 0.0
C1541 C 0.50108 0.43918 0.56608 0.0
H1542 H 0.53209 0.3658 0.58073 0.0
C1543 C 0.45313 0.41983 0.57004 0.0
H1544 H 0.56539 0.43218 0.56674 0.0
C1545 C 0.43327 0.38028 0.57774 0.0
C1546 C 0.46142 0.36017 0.58159 0.0
H1547 H 0.43068 0.43421 0.5669 0.0
H1548 H 0.39671 0.36652 0.58097 0.0
C1549 C 0.50933 0.37996 0.57766 0.0
C1550 C 0.76315 0.18284 0.57828 0.0
C1551 C 0.78532 0.15615 0.58171 0.0
H1552 H 0.70889 0.18533 0.56782 0.0
C1553 C 0.7672 0.10886 0.57746 0.0
H1554 H 0.77579 0.21898 0.58164 0.0
C1555 C 0.72738 0.08879 0.56984 0.0
C1556 C 0.70572 0.11602 0.56638 0.0
H1557 H 0.78282 0.08709 0.58027 0.0
H1558 H 0.71466 0.05286 0.56636 0.0
C1559 C 0.72421 0.16323 0.57061 0.0
C1560 C 0.86609 0.82535 0.73749 0.0
C1561 C 0.8374 0.778 0.73334 0.0
H1562 H 0.87022 0.88175 0.74828 0.0
C1563 C 0.78842 0.75123 0.73671 0.0
H1564 H 0.90356 0.84717 0.73476 0.0
C1565 C 0.76862 0.77184 0.74416 0.0
C1566 C 0.79777 0.81927 0.74833 0.0
H1567 H 0.76519 0.71521 0.73328 0.0
H1568 H 0.73117 0.75038 0.74691 0.0
C1569 C 0.84669 0.84552 0.74499 0.0
C1570 C 0.37128 0.03882 0.74377 0.0
C1571 C 0.3222 1.0176 0.74699 0.0
H1572 H 0.42964 0.09483 0.73376 0.0
C1573 C 0.29449 0.03751 0.74281 0.0
H1574 H 0.39371 0.02494 0.74722 0.0
C1575 C 0.31501 0.07753 0.73548 0.0
C1576 C 0.36399 0.09917 0.73226 0.0
H1577 H 0.25691 1.02249 0.74539 0.0
H1578 H 0.29225 0.0913 0.73217 0.0
C1579 C 0.39217 0.0796 0.73644 0.0
C1580 C 0.04314 0.34384 0.73986 0.0
C1581 C 0.04471 0.30952 0.73258 0.0
H1582 H 0.07933 0.3976 0.75292 0.0
C1583 C 0.0859 0.30364 0.73293 0.0
H1584 H 1.0125 0.34989 0.73966 0.0
C1585 C 0.12462 0.33146 0.74039 0.0
C1586 C 0.12293 0.36564 0.7477 0.0
H1587 H 0.08852 0.2777 0.72735 0.0
H1588 H 0.15525 0.3254 0.74061 0.0
C1589 C 0.08185 0.37164 0.74732 0.0
C1590 C 0.37067 0.37905 0.24356 0.0
C1591 C 0.32221 0.35103 0.24721 0.0
H1592 H 0.42764 0.38186 0.23289 0.0
C1593 C 0.29413 0.30353 0.2431 0.0
H1594 H 0.39341 0.41528 0.24693 0.0
C1595 C 0.31365 0.28442 0.23535 0.0
C1596 C 0.36209 0.31194 0.23173 0.0
H1597 H 0.25705 0.28088 0.24603 0.0
H1598 H 0.29062 0.24809 0.23205 0.0
C1599 C 0.39063 0.35948 0.23587 0.0
C1600 C 0.8448 0.04982 0.2443 0.0
C1601 C 0.79636 0.02884 0.24793 0.0
H1602 H 0.90151 0.10359 0.23379 0.0
C1603 C 0.76787 0.04836 0.24395 0.0
H1604 H 0.86781 0.03613 0.24748 0.0
C1605 C 0.7879 0.08849 0.23642 0.0
C1606 C 0.83639 0.10903 0.23277 0.0
H1607 H 0.73086 0.03367 0.24694 0.0
H1608 H 0.76521 0.1024 0.23317 0.0
C1609 C 0.8644 0.08907 0.23671 0.0
C1610 C 0.06334 0.83491 0.23517 0.0
C1611 C 0.04109 0.78625 0.23171 0.0
H1612 H 0.11748 0.89096 0.24571 0.0
C1613 C 0.05903 0.75676 0.23595 0.0
H1614 H 0.05079 0.85863 0.23183 0.0
C1615 C 0.09875 0.77598 0.24359 0.0
C1616 C 0.12044 0.82465 0.2471 0.0
H1617 H 0.04329 0.71949 0.23313 0.0
H1618 H 0.11133 0.75252 0.24707 0.0
C1619 C 0.10214 0.85371 0.24288 0.0
C1620 C 0.53336 0.05852 -0.0076 0.0
C1621 C 0.56255 0.05722 0.00143 0.0
H1622 H 0.52765 0.07028 0.97434 0.0
C1623 C 0.60993 0.06764 -0.00106 0.0
H1624 H 0.49668 0.05094 -0.00595 0.0
C1625 C 0.62787 0.07945 0.98766 0.0
C1626 C 0.59871 0.08089 0.97864 0.0
H1627 H 0.63357 0.06776 0.00572 0.0
H1628 H 0.66454 0.08704 0.986 0.0
C1629 C 0.55129 0.07035 0.98113 0.0
C1630 C 0.07663 0.5391 0.98098 0.0
C1631 C 0.06825 0.57751 0.97857 0.0
H1632 H 0.09391 0.50171 -0.00618 0.0
C1633 C 0.07113 0.6084 0.98763 0.0
H1634 H 0.07548 0.51519 0.97417 0.0
C1635 C 0.08246 0.60121 -0.00114 0.0
C1636 C 0.09092 0.56285 0.00127 0.0
H1637 H 0.06517 0.63859 0.98604 0.0
H1638 H 0.08365 0.62516 0.00567 0.0
C1639 C 0.08795 0.5319 -0.00778 0.0
C1640 C 0.61661 0.61704 -0.00763 0.0
C1641 C 0.58613 0.58689 0.00127 0.0
H1642 H 0.63389 0.62488 0.9743 0.0
C1643 C 0.54911 0.53997 -0.00147 0.0
H1644 H 0.64576 0.65338 -0.00579 0.0
C1645 C 0.54285 0.52345 0.98713 0.0
C1646 C 0.57336 0.5536 0.97824 0.0
H1647 H 0.52559 0.51561 0.00521 0.0
H1648 H 0.51372 0.48711 0.98529 0.0
C1649 C 0.61036 0.60053 0.98097 0.0
C1650 C 0.08835 0.61358 0.49267 0.0
C1651 C 0.09093 0.58515 0.50172 0.0
H1652 H 0.07724 0.619 0.47457 0.0
C1653 C 0.08339 0.53882 0.49922 0.0
H1654 H 0.09368 0.64941 0.49433 0.0
C1655 C 0.07326 0.52118 0.48791 0.0
C1656 C 0.07065 0.5496 0.47887 0.0
H1657 H 0.08436 0.51575 0.50602 0.0
H1658 H 0.06792 0.48534 0.48626 0.0
C1659 C 0.07822 0.59594 0.48136 0.0
C1660 C 0.55201 0.53646 0.48138 0.0
C1661 C 0.59918 0.574 0.479 0.0
H1662 H 0.49721 0.49989 0.49421 0.0
C1663 C 0.62775 0.6042 0.48809 0.0
H1664 H 0.52883 0.51312 0.47454 0.0
C1665 C 0.60942 0.59715 0.49934 0.0
C1666 C 0.56223 0.55965 0.50172 0.0
H1667 H 0.66422 0.63373 0.48652 0.0
H1668 H 0.6326 0.62052 0.50617 0.0
C1669 C 0.53368 0.52941 0.49263 0.0
C1670 C 0.54927 0.06483 0.49916 0.0
C1671 C 0.58767 0.05666 0.50179 0.0
H1672 H 0.51201 0.08094 0.48604 0.0
C1673 C 0.61877 0.05882 0.49284 0.0
H1674 H 0.52518 0.06418 0.50588 0.0
C1675 C 0.61171 0.06914 0.48149 0.0
C1676 C 0.57332 0.07731 0.47885 0.0
H1677 H 0.64897 0.05301 0.49459 0.0
H1678 H 0.63581 0.06979 0.47476 0.0
C1679 C 0.54221 0.07513 0.4878 0.0
C1680 C 0.2181 0.40242 0.31446 0.0
C1681 C 0.26468 0.41079 0.31181 0.0
H1682 H 0.16494 0.38628 0.32759 0.0
C1683 C 0.29386 0.4089 0.32076 0.0
H1684 H 0.19446 0.40281 0.30774 0.0
C1685 C 0.27674 0.39875 0.33213 0.0
C1686 C 0.23018 0.39045 0.33477 0.0
H1687 H 0.32989 0.41485 0.31899 0.0
H1688 H 0.30037 0.39837 0.33885 0.0
C1689 C 0.20098 0.39225 0.32582 0.0
C1690 C 0.74872 0.9308 0.33239 0.0
C1691 C 0.75832 0.8932 0.33482 0.0
H1692 H 0.7304 0.9673 0.31954 0.0
C1693 C 0.75629 0.86265 0.32577 0.0
H1694 H 0.74915 0.9544 0.3392 0.0
C1695 C 0.74485 0.86956 0.31451 0.0
C1696 C 0.73537 0.90724 0.31208 0.0
H1697 H 0.76314 0.83304 0.32738 0.0
H1698 H 0.74448 0.84601 0.30769 0.0
C1699 C 0.73725 0.93768 0.32114 0.0
C1700 C 0.27868 0.93017 0.31408 0.0
C1701 C 0.24016 0.88371 0.3116 0.0
H1702 H 0.3165 0.98376 0.32702 0.0
C1703 C 0.2094 0.85521 0.32065 0.0
H1704 H 0.3025 0.95329 0.30728 0.0
C1705 C 0.21694 0.87287 0.33196 0.0
C1706 C 0.25548 0.91932 0.33444 0.0
H1707 H 0.17911 0.81929 0.31901 0.0
H1708 H 0.19314 0.84974 0.33876 0.0
C1709 C 0.2862 0.94784 0.32538 0.0
C1710 C 0.7445 0.92878 0.81446 0.0
C1711 C 0.7355 0.8818 0.81213 0.0
H1712 H 0.76202 0.98346 0.82723 0.0
C1713 C 0.73738 0.85341 0.82128 0.0
H1714 H 0.74409 0.95181 0.80758 0.0
C1715 C 0.74839 0.87175 0.83252 0.0
C1716 C 0.75755 0.91878 0.83485 0.0
H1717 H 0.73088 0.81707 0.81976 0.0
H1718 H 0.74886 0.84872 0.8394 0.0
C1719 C 0.7555 0.94712 0.82571 0.0
C1720 C 0.20264 0.85756 0.82594 0.0
C1721 C 0.22903 0.89097 0.83474 0.0
H1722 H 0.199 0.83902 0.80804 0.0
C1723 C 0.2736 0.93203 0.83204 0.0
H1724 H 0.16827 0.8253 0.82777 0.0
C1725 C 0.2915 0.93948 0.82075 0.0
C1726 C 0.26508 0.90611 0.81195 0.0
H1727 H 0.29512 0.95804 0.83866 0.0
H1728 H 0.32586 0.97175 0.81893 0.0
C1729 C 0.22053 0.86502 0.81466 0.0
C1730 C 0.28009 0.43762 0.81587 0.0
C1731 C 0.23712 0.39849 0.81164 0.0
H1732 H 0.32512 0.47082 0.83059 0.0
C1733 C 0.20587 0.36185 0.81939 0.0
H1734 H 0.30477 0.46646 0.81015 0.0
C1735 C 0.21733 0.36432 0.83112 0.0
C1736 C 0.26031 0.40342 0.83536 0.0
H1737 H 0.17231 0.33109 0.81643 0.0
H1738 H 0.19263 0.33546 0.83684 0.0
C1739 C 0.29157 0.44009 0.82762 0.0
C1740 C 0.86667 0.71815 0.66016 0.0
C1741 C 0.89638 0.71717 0.6691 0.0
H1742 H 0.86005 0.72959 0.64214 0.0
C1743 C 0.94377 0.72791 0.66648 0.0
H1744 H 0.82999 0.71034 0.66191 0.0
C1745 C 0.96118 0.73963 0.65515 0.0
C1746 C 0.93149 0.74071 0.64623 0.0
H1747 H 0.9678 0.72827 0.67319 0.0
H1748 H 0.99785 0.74744 0.65339 0.0
C1749 C 0.88409 0.72992 0.64885 0.0
C1750 C 0.40738 0.27022 0.6551 0.0
C1751 C 0.40426 0.23964 0.64594 0.0
H1752 H 0.41988 0.28601 0.6732 0.0
C1753 C 0.41278 0.20121 0.64819 0.0
H1754 H 0.40141 0.30048 0.65363 0.0
C1755 C 0.42413 0.19345 0.65937 0.0
C1756 C 0.42698 0.22385 0.66855 0.0
H1757 H 0.41151 0.17755 0.64129 0.0
H1758 H 0.43005 0.16316 0.66083 0.0
C1759 C 0.4187 0.26244 0.66629 0.0
C1760 C 0.87434 0.18292 0.65503 0.0
C1761 C 0.90544 0.21205 0.64609 0.0
H1762 H 0.85761 0.17598 0.67312 0.0
C1763 C 0.94427 0.25805 0.64879 0.0
H1764 H 0.84383 0.14731 0.65323 0.0
C1765 C 0.9517 0.27469 0.66019 0.0
C1766 C 0.92054 0.24558 0.66912 0.0
H1767 H 0.96838 0.28162 0.64208 0.0
H1768 H 0.98222 0.31029 0.662 0.0
C1769 C 0.88175 0.19956 0.66642 0.0
C1770 C 0.41332 0.20746 0.1648 0.0
C1771 C 0.42328 0.2546 0.16732 0.0
H1772 H 0.39468 0.15331 0.15184 0.0
C1773 C 0.42174 0.28379 0.15832 0.0
H1774 H 0.41336 0.1838 0.17156 0.0
C1775 C 0.41031 0.26612 0.14702 0.0
C1776 C 0.40039 0.21898 0.14451 0.0
H1777 H 0.4289 0.32025 0.16 0.0
H1778 H 0.41027 0.28974 0.14025 0.0
C1779 C 0.40188 0.18979 0.15351 0.0
C1780 C 0.88677 0.20923 0.14837 0.0
C1781 C 0.93227 0.24938 0.14587 0.0
H1782 H 0.83375 0.16931 0.1613 0.0
C1783 C 0.95967 0.28089 0.15489 0.0
H1784 H 0.86448 0.18473 0.14159 0.0
C1785 C 0.94185 0.27242 0.1662 0.0
C1786 C 0.89632 0.23226 0.1687 0.0
H1787 H 0.99481 0.31241 0.15322 0.0
H1788 H 0.96412 0.29688 0.17299 0.0
C1789 C 0.86891 0.20084 0.15966 0.0
C1790 C 0.86051 0.7181 0.1535 0.0
C1791 C 0.89364 0.72668 0.14446 0.0
H1792 H 0.84595 0.7075 0.17168 0.0
C1793 C 0.93784 0.729 0.14703 0.0
H1794 H 0.8259 0.71581 0.15182 0.0
C1795 C 0.94903 0.72367 0.15844 0.0
C1796 C 0.91634 0.7162 0.1675 0.0
H1797 H 0.96382 0.73491 0.14026 0.0
H1798 H 0.98385 0.72648 0.16015 0.0
C1799 C 0.87175 0.71293 0.1649 0.0
C1800 C 0.58702 0.78914 0.03266 0.0
C1801 C 0.62411 0.83058 0.03809 0.0
H1802 H 0.56141 0.71652 0.02702 0.0
C1803 C 0.66677 0.83029 0.04136 0.0
H1804 H 0.55346 0.78757 0.03012 0.0
C1805 C 0.67143 0.78906 0.03957 0.0
C1806 C 0.63333 0.74706 0.03456 0.0
H1807 H 0.69639 0.86176 0.04544 0.0
H1808 H 0.70403 0.78949 0.0425 0.0
C1809 C 0.59152 0.74808 0.03095 0.0
C1810 C 0.31565 0.89362 0.04118 0.0
C1811 C 0.31484 0.85101 0.03744 0.0
H1812 H 0.35703 0.97131 0.04273 0.0
C1813 C 0.35555 0.85561 0.03153 0.0
H1814 H 0.2847 0.89151 0.04564 0.0
C1815 C 0.3966 0.90108 0.02985 0.0
C1816 C 0.39828 0.9435 0.03397 0.0
H1817 H 0.35665 0.82384 0.02862 0.0
H1818 H 0.42774 0.90277 0.02557 0.0
C1819 C 0.35687 0.93942 0.03941 0.0
C1820 C 0.24786 0.55237 0.03016 0.0
C1821 C 0.20499 0.51143 0.03404 0.0
H1822 H 0.32525 0.58922 0.02918 0.0
C1823 C 0.20852 0.47344 0.03931 0.0
H1824 H 0.24664 0.58236 0.02602 0.0
C1825 C 0.25414 0.47745 0.04113 0.0
C1826 C 0.29717 0.51935 0.03762 0.0
H1827 H 0.17629 0.44151 0.04244 0.0
H1828 H 0.25576 0.44801 0.04543 0.0
C1829 C 0.29316 0.55624 0.0319 0.0
C1830 C 0.80613 0.57822 0.44859 0.0
C1831 C 0.84701 0.61448 0.44278 0.0
H1832 H 0.73391 0.55335 0.45454 0.0
C1833 C 0.84645 0.65664 0.43919 0.0
H1834 H 0.80483 0.54507 0.45139 0.0
C1835 C 0.80534 0.66149 0.44102 0.0
C1836 C 0.76377 0.62406 0.44637 0.0
H1837 H 0.87754 0.6856 0.43481 0.0
H1838 H 0.8054 0.69355 0.43782 0.0
C1839 C 0.76518 0.5829 0.45034 0.0
C1840 C 0.56341 0.23273 0.451 0.0
C1841 C 0.52466 0.19149 0.44589 0.0
H1842 H 0.59963 0.30948 0.45334 0.0
C1843 C 0.49039 0.19717 0.4394 0.0
H1844 H 0.59023 0.22963 0.45617 0.0
C1845 C 0.49635 0.24356 0.43757 0.0
C1846 C 0.53651 0.28516 0.44227 0.0
H1847 H 0.4604 0.16618 0.43526 0.0
H1848 H 0.47057 0.24695 0.43207 0.0
C1849 C 0.56909 0.27875 0.44928 0.0
C1850 C 0.95266 0.34626 0.43981 0.0
C1851 C 0.95792 0.3858 0.44635 0.0
H1852 H 0.90336 0.27695 0.43244 0.0
C1853 C 0.91644 0.3828 0.45152 0.0
H1854 H 0.98384 0.34768 0.43563 0.0
C1855 C 0.87057 0.34238 0.4498 0.0
C1856 C 0.86456 0.30383 0.44273 0.0
H1857 H 0.91925 0.41242 0.45671 0.0
H1858 H 0.83964 0.34179 0.45389 0.0
C1859 C 0.90643 0.30576 0.43798 0.0
C1860 C 0.56596 0.39123 0.94996 0.0
C1861 C 0.52631 0.39326 0.94516 0.0
H1862 H 0.60268 0.35091 0.95214 0.0
C1863 C 0.49108 0.35275 0.93906 0.0
H1864 H 0.59355 0.42156 0.95483 0.0
C1865 C 0.49684 0.31216 0.93732 0.0
C1866 C 0.53778 0.31109 0.94172 0.0
H1867 H 0.46034 0.35334 0.93518 0.0
H1868 H 0.47019 0.28249 0.93213 0.0
C1869 C 0.57147 0.35075 0.94833 0.0
C1870 C 0.84503 0.24726 0.93855 0.0
C1871 C 0.84553 0.28968 0.94233 0.0
H1872 H 0.80421 0.16952 0.93702 0.0
C1873 C 0.80481 0.28467 0.94832 0.0
H1874 H 0.876 0.24967 0.93403 0.0
C1875 C 0.76406 0.23899 0.95005 0.0
C1876 C 0.76269 0.19675 0.9459 0.0
H1877 H 0.80344 0.31626 0.95126 0.0
H1878 H 0.7329 0.23701 0.95439 0.0
C1879 C 0.80412 0.20125 0.94037 0.0
C1880 C 0.90631 0.66382 0.93853 0.0
C1881 C 0.86335 0.62223 0.94221 0.0
H1882 H 0.98414 0.6996 0.93711 0.0
C1883 C 0.86752 0.58588 0.94816 0.0
H1884 H 0.90459 0.69287 0.93405 0.0
C1885 C 0.91286 0.58989 0.94994 0.0
C1886 C 0.95564 0.63045 0.94588 0.0
H1887 H 0.8355 0.55314 0.95103 0.0
H1888 H 0.91418 0.56027 0.95425 0.0
C1889 C 0.952 0.66799 0.94039 0.0
C1890 C 0.39624 0.55164 0.53037 0.0
C1891 C 0.39753 0.51039 0.53432 0.0
H1892 H 0.3567 0.58959 0.52933 0.0
C1893 C 0.35589 0.47296 0.53965 0.0
H1894 H 0.42757 0.5812 0.52619 0.0
C1895 C 0.3148 0.47787 0.54146 0.0
C1896 C 0.31436 0.52011 0.53789 0.0
H1897 H 0.35572 0.44083 0.54283 0.0
H1898 H 0.28364 0.44889 0.54582 0.0
C1899 C 0.35532 0.55639 0.5321 0.0
C1900 C 0.66524 0.89081 0.54299 0.0
C1901 C 0.62512 0.84922 0.53827 0.0
H1902 H 0.70111 0.96817 0.54533 0.0
C1903 C 0.59258 0.85564 0.53125 0.0
H1904 H 0.69099 0.88741 0.5485 0.0
C1905 C 0.59824 0.90165 0.52954 0.0
C1906 C 0.63692 0.94287 0.53468 0.0
H1907 H 0.56209 0.82492 0.52718 0.0
H1908 H 0.57144 0.90476 0.52437 0.0
C1909 C 0.67118 0.9372 0.54117 0.0
C1910 C 0.25488 0.82856 0.54273 0.0
C1911 C 0.29671 0.83053 0.53794 0.0
H1912 H 0.17746 0.78664 0.5451 0.0
C1913 C 0.29061 0.79209 0.53083 0.0
H1914 H 0.258 0.85728 0.54831 0.0
C1915 C 0.24471 0.75171 0.52909 0.0
C1916 C 0.20328 0.74865 0.5343 0.0
H1917 H 0.32151 0.79271 0.5267 0.0
H1918 H 0.24186 0.72217 0.52386 0.0
C1919 C 0.2086 0.7881 0.54088 0.0
C1920 C 0.26792 0.08562 0.36195 0.0
C1921 C 0.30654 0.08268 0.36707 0.0
H1922 H 0.23183 0.1265 0.35968 0.0
C1923 C 0.34082 0.12219 0.37361 0.0
H1924 H 0.24111 0.05601 0.35676 0.0
C1925 C 0.33492 0.16259 0.37549 0.0
C1926 C 0.29483 0.16444 0.3708 0.0
H1927 H 0.37069 0.1208 0.37775 0.0
H1928 H 0.36064 0.19136 0.38104 0.0
C1929 C 0.26231 0.12595 0.36372 0.0
C1930 C 1.0279 0.27191 0.37408 0.0
C1931 C 0.06758 0.27749 0.36752 0.0
H1932 H 0.95853 0.22224 0.38145 0.0
C1933 C 0.06477 0.23628 0.36229 0.0
H1934 H 1.02916 0.30288 0.3783 0.0
C1935 C 1.02441 0.19033 0.36399 0.0
C1936 C 0.98572 0.18397 0.37109 0.0
H1937 H 0.09449 0.23933 0.35707 0.0
H1938 H 1.02398 0.15961 0.35985 0.0
C1939 C 0.98745 0.22558 0.37589 0.0
C1940 C 0.87893 0.80714 0.37289 0.0
C1941 C 0.87454 0.84454 0.36756 0.0
H1942 H 0.92724 0.78301 0.37901 0.0
C1943 C 0.91695 0.88572 0.36358 0.0
H1944 H 0.84709 0.77505 0.3761 0.0
C1945 C 0.96263 0.89042 0.36527 0.0
C1946 C 0.9675 0.85415 0.37104 0.0
H1947 H 0.91507 0.91527 0.35939 0.0
H1948 H 0.99433 0.92357 0.36245 0.0
C1949 C 0.92495 0.812 0.37466 0.0
C1950 C 0.4689 0.99146 0.77296 0.0
C1951 C 0.42911 0.95614 0.77928 0.0
H1952 H 0.53961 1.01377 0.76595 0.0
C1953 C 0.43248 0.91733 0.78417 0.0
H1954 H 0.46741 1.02163 0.76902 0.0
C1955 C 0.47344 0.91262 0.78238 0.0
C1956 C 0.51241 0.9465 0.7756 0.0
H1957 H 0.4026 0.88942 0.78911 0.0
H1958 H 0.47347 0.88107 0.78591 0.0
C1959 C 0.51002 0.98657 0.77109 0.0
C1960 C 0.24619 0.61275 0.78422 0.0
C1961 C 0.20531 0.61706 0.78163 0.0
H1962 H 0.27463 0.5651 0.78688 0.0
C1963 C 0.15943 0.57458 0.78133 0.0
H1964 H 0.28209 0.64444 0.78445 0.0
C1965 C 0.1551 0.52875 0.78284 0.0
C1966 C 0.19664 0.52462 0.78453 0.0
H1967 H 0.1271 0.57666 0.7795 0.0
H1968 H 0.11982 0.49661 0.78186 0.0
C1969 C 0.24192 0.56716 0.7856 0.0
C1970 C 0.61867 0.67711 0.77331 0.0
C1971 C 0.62298 0.71665 0.77966 0.0
H1972 H 0.57053 0.60736 0.76602 0.0
C1973 C 0.581 0.71346 0.78457 0.0
H1974 H 0.65029 0.67872 0.76933 0.0
C1975 C 0.53551 0.67263 0.78279 0.0
C1976 C 0.53051 0.63395 0.77593 0.0
H1977 H 0.58314 0.74314 0.78961 0.0
H1978 H 0.50411 0.67175 0.78669 0.0
C1979 C 0.57286 0.63624 0.77142 0.0
C1980 C 0.23308 0.67597 0.28242 0.0
C1981 C 0.20006 0.63724 0.27548 0.0
H1982 H 0.25504 0.74633 0.28923 0.0
C1983 C 0.15999 0.63923 0.27083 0.0
H1984 H 0.26357 0.67534 0.28644 0.0
C1985 C 0.15453 0.67995 0.27264 0.0
C1986 C 0.18924 0.71963 0.27905 0.0
H1987 H 0.13389 0.61029 0.26538 0.0
H1988 H 0.12459 0.68137 0.26854 0.0
C1989 C 0.22791 0.71661 0.28412 0.0
C1990 C 0.46712 0.53037 0.27273 0.0
C1991 C 0.42632 0.525 0.27876 0.0
H1992 H 0.53753 0.57983 0.26581 0.0
C1993 C 0.42793 0.56658 0.28343 0.0
H1994 H 0.46688 0.49913 0.26895 0.0
C1995 C 0.46821 0.61254 0.28171 0.0
C1996 C 0.50814 0.61857 0.27517 0.0
H1997 H 0.39738 0.56381 0.28825 0.0
H1998 H 0.46769 0.64353 0.28541 0.0
C1999 C 0.50758 0.57671 0.27093 0.0
C2000 C 0.53306 0.91236 0.28163 0.0
C2001 C 0.52847 0.94858 0.27575 0.0
H2002 H 0.58032 0.88737 0.28765 0.0
C2003 C 0.57116 0.99059 0.27213 0.0
H2004 H 0.50124 0.87932 0.28444 0.0
C2005 C 0.61706 0.9953 0.27399 0.0
C2006 C 0.62115 0.95789 0.2794 0.0
H2007 H 0.56906 1.01953 0.2677 0.0
H2008 H 0.64902 0.02723 0.27076 0.0
C2009 C 0.57863 0.91691 0.2834 0.0
C2010 C 0.05961 0.87609 0.86128 0.0
C2011 C 0.06471 0.84053 0.86738 0.0
H2012 H 1.01732 0.91025 0.85827 0.0
C2013 C 1.02733 0.80945 0.87492 0.0
H2014 H 0.08757 0.90041 0.85533 0.0
C2015 C 0.9871 0.81579 0.87682 0.0
C2016 C 0.98328 0.85314 0.87114 0.0
H2017 H 1.03046 0.7821 0.87985 0.0
H2018 H 0.96018 0.79283 0.88313 0.0
C2019 C 1.01945 0.8821 0.86308 0.0
C2020 C 0.2537 0.23483 0.86002 0.0
C2021 C 0.29899 0.27612 0.86214 0.0
H2022 H 0.21142 0.15749 0.86007 0.0
C2023 C 0.3387 0.27006 0.86486 0.0
H2024 H 0.22247 0.23848 0.85787 0.0
C2025 C 0.33213 0.22333 0.86639 0.0
C2026 C 0.28579 0.18197 0.86515 0.0
H2027 H 0.37382 0.30127 0.86671 0.0
H2028 H 0.36265 0.21981 0.86928 0.0
C2029 C 0.24725 0.1884 0.86142 0.0
C2030 C 0.91458 0.08691 0.86254 0.0
C2031 C 0.8726 0.08422 0.86731 0.0
H2032 H 0.99155 0.1281 0.8605 0.0
C2033 C 0.87707 0.12417 0.87351 0.0
H2034 H 0.91237 0.05692 0.85761 0.0
C2035 C 0.92298 0.16495 0.87537 0.0
C2036 C 0.9653 0.16675 0.87099 0.0
H2037 H 0.84547 0.12298 0.87738 0.0
H2038 H 0.9254 0.19419 0.88064 0.0
C2039 C 0.96018 0.12763 0.86429 0.0
C2040 C 1.00482 0.44662 0.70855 0.0
C2041 C 0.96965 0.40652 0.70232 0.0
H2042 H 1.02597 0.51669 0.71565 0.0
C2043 C 0.93037 0.40914 0.69748 0.0
H2044 H 1.03527 0.44559 0.71247 0.0
C2045 C 0.92518 0.44979 0.69919 0.0
C2046 C 0.95882 0.48904 0.70592 0.0
H2047 H 0.90283 0.37914 0.69252 0.0
H2048 H 0.89427 0.45008 0.69533 0.0
C2049 C 0.99937 0.48737 0.71037 0.0
C2050 C 0.65103 0.55194 0.7091 0.0
C2051 C 0.65082 0.50959 0.70539 0.0
H2052 H 0.69166 0.62968 0.71067 0.0
C2053 C 0.69192 0.5147 0.69958 0.0
H2054 H 0.61977 0.54945 0.71349 0.0
C2055 C 0.73272 0.56039 0.69794 0.0
C2056 C 0.73377 0.60258 0.70202 0.0
H2057 H 0.6935 0.48315 0.69669 0.0
H2058 H 0.76414 0.56245 0.69373 0.0
C2059 C 0.69201 0.59799 0.70739 0.0
C2060 C 0.58246 0.20988 0.69686 0.0
C2061 C 0.53967 0.16938 0.70093 0.0
H2062 H 0.65984 0.2467 0.69584 0.0
C2063 C 0.54328 0.13195 0.70649 0.0
H2064 H 0.58115 0.23941 0.6925 0.0
C2065 C 0.58895 0.13622 0.70843 0.0
C2066 C 0.63191 0.17779 0.70475 0.0
H2067 H 0.5111 0.1004 0.70978 0.0
H2068 H 0.59065 0.1073 0.71298 0.0
C2069 C 0.6278 0.21399 0.69872 0.0
C2070 C 0.14008 0.25578 0.1163 0.0
C2071 C 0.1786 0.28873 0.10927 0.0
H2072 H 0.07009 0.2341 0.12338 0.0
C2073 C 0.17655 0.32894 0.10472 0.0
H2074 H 0.13987 0.22418 0.11987 0.0
C2075 C 0.1361 0.33476 0.10677 0.0
C2076 C 0.09663 0.30025 0.11332 0.0
H2077 H 0.20583 0.35546 0.09939 0.0
H2078 H 0.13474 0.3649 0.10278 0.0
C2079 C 0.09977 0.2614 0.11827 0.0
C2080 C 0.91653 0.95574 0.11433 0.0
C2081 C 0.87588 0.96163 0.11287 0.0
H2082 H 0.94334 0.90641 0.11613 0.0
C2083 C 0.82932 0.92016 0.11338 0.0
H2084 H 0.95291 0.98664 0.11391 0.0
C2085 C 0.82375 0.87376 0.11469 0.0
C2086 C 0.86465 0.86787 0.11541 0.0
H2087 H 0.79719 0.92345 0.11245 0.0
H2088 H 0.78758 0.84247 0.11452 0.0
C2089 C 0.91099 0.90955 0.11555 0.0
C2090 C 0.28346 1.01384 0.10622 0.0
C2091 C 0.2878 0.05384 0.11238 0.0
H2092 H 0.23531 0.94312 0.09939 0.0
C2093 C 0.24595 0.05047 0.11743 0.0
H2094 H 0.31494 1.0155 0.10215 0.0
C2095 C 0.20056 1.00909 0.11596 0.0
C2096 C 0.19543 0.96991 0.10928 0.0
H2097 H 0.24806 0.08044 0.12234 0.0
H2098 H 0.16931 1.00819 0.11995 0.0
C2099 C 0.23771 0.97237 0.10464 0.0
C2100 C 0.89788 1.00655 0.61707 0.0
C2101 C 0.86571 0.96823 0.60991 0.0
H2102 H 0.91905 0.07654 0.62401 0.0
C2103 C 0.82615 0.97047 0.605 0.0
H2104 H 0.92791 1.00571 0.62129 0.0
C2105 C 0.82047 1.01108 0.60677 0.0
C2106 C 0.85445 0.05041 0.6134 0.0
H2107 H 0.80071 0.94184 0.59938 0.0
H2108 H 0.79104 1.01276 0.60247 0.0
C2109 C 0.8925 0.04708 0.61873 0.0
C2110 C 0.17431 0.90871 0.60487 0.0
C2111 C 0.17556 0.95034 0.60952 0.0
H2112 H 0.13317 0.83128 0.60262 0.0
C2113 C 0.13651 0.94393 0.61648 0.0
H2114 H 0.20351 0.91208 0.59941 0.0
C2115 C 0.09633 0.8979 0.61822 0.0
C2116 C 0.09402 0.85661 0.61317 0.0
H2117 H 0.13655 0.97468 0.6205 0.0
H2118 H 0.06638 0.89482 0.62335 0.0
C2119 C 0.13402 0.86229 0.60672 0.0
C2120 C 0.28311 0.32691 0.60817 0.0
C2121 C 0.28755 0.28971 0.61359 0.0
H2122 H 0.23473 0.35069 0.60191 0.0
C2123 C 0.24519 0.2486 0.61762 0.0
H2124 H 0.31493 0.35892 0.60492 0.0
C2125 C 0.19948 0.24374 0.61587 0.0
C2126 C 0.19456 0.27976 0.60999 0.0
H2127 H 0.24713 0.21921 0.62187 0.0
H2128 H 0.1678 0.21062 0.61871 0.0
C2129 C 0.23707 0.32189 0.60634 0.0
C2130 C 0.69017 0.22676 0.19897 0.0
C2131 C 0.64853 0.18964 0.20436 0.0
H2132 H 0.76321 0.25262 0.19355 0.0
C2133 C 0.64883 0.14716 0.20778 0.0
H2134 H 0.69169 0.26018 0.19633 0.0
C2135 C 0.69032 0.14274 0.20617 0.0
C2136 C 0.73252 0.1809 0.20122 0.0
H2137 H 0.61719 0.11755 0.21184 0.0
H2138 H 0.68992 0.11031 0.20921 0.0
C2139 C 0.73147 0.22248 0.19744 0.0
C2140 C 1.00616 0.6073 0.20735 0.0
C2141 C 0.97253 0.6125 0.20047 0.0
H2142 H 1.02551 0.55806 0.2152 0.0
C2143 C 0.93486 0.57107 0.19515 0.0
H2144 H 1.03526 0.63846 0.21166 0.0
C2145 C 0.92942 0.52526 0.19707 0.0
C2146 C 0.96114 0.51926 0.2045 0.0
H2147 H 0.90857 0.57387 0.18969 0.0
H2148 H 0.89965 0.49435 0.19286 0.0
C2149 C 1.00041 0.56111 0.20938 0.0
C2150 C 0.57901 0.41966 0.19518 0.0
C2151 C 0.53754 0.417 0.20026 0.0
H2152 H 0.65592 0.46012 0.19297 0.0
C2153 C 0.54292 0.45657 0.2068 0.0
H2154 H 0.5761 0.39001 0.18998 0.0
C2155 C 0.58926 0.49677 0.20872 0.0
C2156 C 0.63109 0.49834 0.20407 0.0
H2157 H 0.51174 0.4554 0.21092 0.0
H2158 H 0.59242 0.52561 0.21427 0.0
C2159 C 0.62498 0.45978 0.19699 0.0
C2160 C 0.61142 0.45387 0.02258 0.0
C2161 C 0.60241 0.47064 0.03303 0.0
H2162 H 0.60038 0.39228 0.01263 0.0
C2163 C 0.57611 0.43681 0.04179 0.0
H2164 H 0.63137 0.47893 0.01563 0.0
C2165 C 0.55833 0.38735 0.04007 0.0
C2166 C 0.56613 0.37035 0.02951 0.0
H2167 H 0.56842 0.4484 0.04995 0.0
H2168 H 0.53724 0.36226 0.04691 0.0
C2169 C 0.59327 0.4042 0.02081 0.0
C2170 C 0.76181 0.21449 0.03833 0.0
C2171 C 0.77747 0.24971 0.02952 0.0
H2172 H 0.7019 0.1558 0.04699 0.0
C2173 C 0.74232 0.25318 0.0228 0.0
H2174 H 0.78788 0.21134 0.04378 0.0
C2175 C 0.69269 0.22117 0.02464 0.0
C2176 C 0.67714 0.18532 0.03331 0.0
H2177 H 0.75321 0.27981 0.01592 0.0
H2178 H 0.66661 0.22406 0.01914 0.0
C2179 C 0.71237 0.18287 0.04022 0.0
C2180 C 0.95894 0.57878 0.04135 0.0
C2181 C 0.96269 0.5484 0.03308 0.0
H2182 H 0.92623 0.62095 0.04607 0.0
C2183 C 0.93323 0.53566 0.02314 0.0
H2184 H 0.98113 0.5895 0.0491 0.0
C2185 C 0.90164 0.5539 0.02139 0.0
C2186 C 0.89859 0.58498 0.02958 0.0
H2187 H 0.93526 0.51244 0.01658 0.0
H2188 H 0.87957 0.54363 0.01362 0.0
C2189 C 0.92728 0.59675 0.03963 0.0
C2190 C 0.45236 0.56298 0.43827 0.0
C2191 C 0.486 0.59016 0.44697 0.0
H2192 H 0.3778 0.52324 0.43316 0.0
C2193 C 0.46885 0.59977 0.45729 0.0
H2194 H 0.46424 0.55481 0.43021 0.0
C2195 C 0.41906 0.5814 0.459 0.0
C2196 C 0.38539 0.55341 0.45037 0.0
H2197 H 0.49373 0.62041 0.46419 0.0
H2198 H 0.40689 0.58903 0.46708 0.0
C2199 C 0.40274 0.54498 0.43994 0.0
C2200 C 0.56664 0.88906 0.45887 0.0
C2201 C 0.59588 0.88424 0.45042 0.0
H2202 H 0.52657 0.92398 0.46384 0.0
C2203 C 0.60545 0.91082 0.44005 0.0
H2204 H 0.55809 0.86862 0.46688 0.0
C2205 C 0.58739 0.94238 0.4383 0.0
C2206 C 0.559 0.94801 0.44683 0.0
H2207 H 0.62815 0.9083 0.43341 0.0
H2208 H 0.5965 0.96306 0.43031 0.0
C2209 C 0.5482 0.92043 0.45707 0.0
C2210 C 0.2272 0.74881 0.44181 0.0
C2211 C 0.26252 0.76466 0.45057 0.0
H2212 H 0.16883 0.68874 0.43318 0.0
C2213 C 0.26659 0.72978 0.45725 0.0
H2214 H 0.22364 0.77472 0.43638 0.0
C2215 C 0.23501 0.68015 0.45542 0.0
C2216 C 0.19904 0.66439 0.44679 0.0
H2217 H 0.29335 0.74087 0.4641 0.0
H2218 H 0.2383 0.65423 0.4609 0.0
C2219 C 0.19602 0.69939 0.43991 0.0
C2220 C 0.58434 0.70334 0.93767 0.0
C2221 C 0.5578 0.66952 0.94641 0.0
H2222 H 0.62391 0.77794 0.93263 0.0
C2223 C 0.54901 0.68632 0.95689 0.0
H2224 H 0.59187 0.69171 0.9295 0.0
C2225 C 0.56766 0.73603 0.9587 0.0
C2226 C 0.59508 0.76988 0.95003 0.0
H2227 H 0.5289 0.66126 0.96382 0.0
H2228 H 0.56073 0.74799 0.9669 0.0
C2229 C 0.60262 0.75285 0.93945 0.0
C2230 C 0.41911 0.88633 0.95715 0.0
C2231 C 0.38403 0.88962 0.95036 0.0
H2232 H 0.49482 0.9155 0.96087 0.0
C2233 C 0.39981 0.92443 0.94146 0.0
H2234 H 0.40814 0.86001 0.96411 0.0
C2235 C 0.44929 0.95589 0.93955 0.0
C2236 C 0.48447 0.95369 0.94654 0.0
H2237 H 0.37382 0.92743 0.93594 0.0
H2238 H 0.45981 0.98266 0.93271 0.0
C2239 C 0.46879 0.91818 0.9553 0.0
C2240 C 0.22605 0.60384 0.95683 0.0
C2241 C 0.19675 0.5915 0.94687 0.0
H2242 H 0.27962 0.59555 0.9663 0.0
C2243 C 0.20068 0.5615 0.93851 0.0
H2244 H 0.22387 0.62676 0.96345 0.0
C2245 C 0.23239 0.54356 0.94016 0.0
C2246 C 0.26093 0.55495 0.95023 0.0
H2247 H 0.17863 0.55111 0.93074 0.0
H2248 H 0.23362 0.51969 0.93366 0.0
C2249 C 0.25767 0.5856 0.95851 0.0
C2250 C 0.70871 0.57101 0.54255 0.0
C2251 C 0.67502 0.54363 0.53388 0.0
H2252 H 0.78332 0.61098 0.54762 0.0
C2253 C 0.69213 0.53387 0.52356 0.0
H2254 H 0.69687 0.57931 0.55059 0.0
C2255 C 0.74192 0.5523 0.52184 0.0
C2256 C 0.77565 0.58051 0.53043 0.0
H2257 H 0.66722 0.51308 0.51669 0.0
H2258 H 0.75405 0.54454 0.51377 0.0
C2259 C 0.75834 0.58908 0.54086 0.0
C2260 C 0.61272 0.21359 0.52359 0.0
C2261 C 0.60213 0.18606 0.53384 0.0
H2262 H 0.60261 0.26531 0.51381 0.0
C2263 C 0.57386 0.1917 0.5424 0.0
H2264 H 0.63425 0.21003 0.5168 0.0
C2265 C 0.55572 0.22322 0.54068 0.0
C2266 C 0.5651 0.24974 0.53031 0.0
H2267 H 0.56491 0.17107 0.5504 0.0
H2268 H 0.53313 0.22575 0.54735 0.0
C2269 C 0.59421 0.24492 0.52183 0.0
C2270 C 0.96545 0.43483 0.54048 0.0
C2271 C 0.96236 0.46989 0.53364 0.0
H2272 H 0.93786 0.35947 0.54397 0.0
C2273 C 0.92634 0.4542 0.52503 0.0
H2274 H 0.99269 0.44541 0.5472 0.0
C2275 C 0.89474 0.40459 0.52318 0.0
C2276 C 0.89885 0.36965 0.52983 0.0
H2277 H 0.923 0.48018 0.51959 0.0
H2278 H 0.86791 0.39355 0.51635 0.0
C2279 C 0.93425 0.38542 0.53857 0.0
C2280 C 0.22599 0.72182 0.37365 0.0
C2281 C 0.23437 0.70441 0.36323 0.0
H2282 H 0.23594 0.78335 0.38332 0.0
C2283 C 0.26237 0.73795 0.35456 0.0
H2284 H 0.20425 0.69697 0.38046 0.0
C2285 C 0.28082 0.78771 0.35621 0.0
C2286 C 0.27127 0.80492 0.36653 0.0
H2287 H 0.26996 0.72571 0.34648 0.0
H2288 H 0.30148 0.81251 0.34929 0.0
C2289 C 0.24407 0.77141 0.37527 0.0
C2290 C 0.43074 0.54744 0.37184 0.0
C2291 C 0.44663 0.58253 0.36301 0.0
H2292 H 0.37062 0.4893 0.38056 0.0
C2293 C 0.41168 0.58639 0.3563 0.0
H2294 H 0.45667 0.54403 0.37729 0.0
C2295 C 0.36198 0.55484 0.35817 0.0
C2296 C 0.3462 0.51909 0.36687 0.0
H2297 H 0.42277 0.61296 0.34939 0.0
H2298 H 0.33602 0.55797 0.35267 0.0
C2299 C 0.38126 0.51629 0.37377 0.0
C2300 C 0.57129 0.88568 0.35479 0.0
C2301 C 0.56638 0.91483 0.36322 0.0
H2302 H 0.60633 0.84574 0.34983 0.0
C2303 C 0.5929 0.92436 0.37358 0.0
H2304 H 0.5509 0.87716 0.34677 0.0
C2305 C 0.62451 0.90634 0.37535 0.0
C2306 C 0.63025 0.87804 0.36682 0.0
H2307 H 0.5903 0.94698 0.38022 0.0
H2308 H 0.64516 0.91541 0.38333 0.0
C2309 C 0.60271 0.86729 0.35659 0.0
C2310 C 0.13145 0.92701 0.78958 0.0
C2311 C 0.14746 0.91272 0.77978 0.0
H2312 H 0.07061 0.92069 0.79908 0.0
C2313 C 0.11288 0.88132 0.77172 0.0
H2314 H 0.15709 0.95109 0.79596 0.0
C2315 C 0.06343 0.86395 0.77351 0.0
C2316 C 0.04731 0.87726 0.78345 0.0
H2317 H 0.12389 0.86951 0.76408 0.0
H2318 H 0.0377 0.83906 0.76726 0.0
C2319 C 0.08189 0.90929 0.79142 0.0
C2320 C 0.1996 0.19375 0.78309 0.0
C2321 C 0.24303 0.20192 0.77778 0.0
H2322 H 0.15128 0.2217 0.78628 0.0
C2323 C 0.26662 0.24104 0.77006 0.0
H2324 H 0.18051 0.16377 0.78905 0.0
C2325 C 0.24982 0.27357 0.76845 0.0
C2326 C 0.20885 0.26786 0.77446 0.0
H2327 H 0.29936 0.24767 0.76561 0.0
H2328 H 0.27064 0.30498 0.76297 0.0
C2329 C 0.18261 0.2266 0.78144 0.0
C2330 C 0.89232 0.07844 0.77428 0.0
C2331 C 0.92527 0.09541 0.78357 0.0
H2332 H 0.83657 1.01741 0.76536 0.0
C2333 C 0.92822 0.06148 0.79086 0.0
H2334 H 0.88986 0.10361 0.76836 0.0
C2335 C 0.89747 1.01158 0.78914 0.0
C2336 C 0.86357 0.99475 0.78002 0.0
H2337 H 0.95332 0.07352 0.79809 0.0
H2338 H 0.89959 0.98632 0.79509 0.0
C2339 C 0.86201 0.02886 0.77251 0.0
C2340 C 0.26389 0.03305 0.27257 0.0
C2341 C 0.22595 0.99805 0.27944 0.0
H2342 H 0.31163 0.1084 0.2691 0.0
C2343 C 0.20588 1.0138 0.2881 0.0
H2344 H 0.28033 1.02241 0.26582 0.0
C2345 C 0.22401 0.06341 0.28997 0.0
C2346 C 0.26289 0.0983 0.28331 0.0
H2347 H 0.17673 0.98786 0.29356 0.0
H2348 H 0.20845 0.07449 0.29685 0.0
C2349 C 0.28222 0.08248 0.27451 0.0
C2350 C 0.11539 0.27443 0.27135 0.0
C2351 C 0.14946 0.28068 0.27994 0.0
H2352 H 0.04062 0.23985 0.26642 0.0
C2353 C 0.13282 0.25366 0.29026 0.0
H2354 H 0.12684 0.29466 0.2633 0.0
C2355 C 0.0831 0.22224 0.29207 0.0
C2356 C 0.04899 0.21682 0.28356 0.0
H2357 H 0.15805 0.25771 0.29707 0.0
H2358 H 0.07132 0.20227 0.30015 0.0
C2359 C 0.06586 0.24283 0.27312 0.0
C2360 C 0.90269 0.87792 0.27293 0.0
C2361 C 0.92856 0.88631 0.28336 0.0
H2362 H 0.85082 0.8877 0.26324 0.0
C2363 C 0.92283 0.91415 0.29201 0.0
H2364 H 0.90595 0.85629 0.26613 0.0
C2365 C 0.89127 0.93244 0.29034 0.0
C2366 C 0.86443 0.92288 0.28002 0.0
H2367 H 0.9427 0.92174 0.30009 0.0
H2368 H 0.887 0.95298 0.29726 0.0
C2369 C 0.87092 0.89583 0.2713 0.0
C2370 C 0.3814 0.91813 0.87519 0.0
C2371 C 0.34708 0.88648 0.86712 0.0
H2372 H 0.45645 0.96099 0.87971 0.0
C2373 C 0.36344 0.87236 0.85736 0.0
H2374 H 0.37011 0.92982 0.8828 0.0
C2375 C 0.41311 0.8905 0.85556 0.0
C2376 C 0.44742 0.92278 0.86354 0.0
H2377 H 0.33801 0.8481 0.85096 0.0
H2378 H 0.42468 0.87924 0.84792 0.0
C2379 C 0.43094 0.93592 0.87344 0.0
C2380 C 0.29682 0.60632 0.86402 0.0
C2381 C 0.25411 0.59861 0.86962 0.0
H2382 H 0.34468 0.57808 0.86057 0.0
C2383 C 0.23173 0.56044 0.87763 0.0
H2384 H 0.31495 0.63557 0.85781 0.0
C2385 C 0.24882 0.52814 0.87923 0.0
C2386 C 0.28888 0.53325 0.87292 0.0
H2387 H 0.19958 0.55423 0.8823 0.0
H2388 H 0.22878 0.49724 0.88491 0.0
C2389 C 0.31412 0.57375 0.86565 0.0
C2390 C 0.5672 0.73952 0.85656 0.0
C2391 C 0.56993 0.70588 0.86401 0.0
H2392 H 0.59578 0.81451 0.85216 0.0
C2393 C 0.60224 0.72325 0.87342 0.0
H2394 H 0.5426 0.72719 0.84924 0.0
C2395 C 0.63224 0.77292 0.87514 0.0
C2396 C 0.63101 0.80673 0.86747 0.0
H2397 H 0.6045 0.69832 0.87946 0.0
H2398 H 0.65725 0.78467 0.88238 0.0
C2399 C 0.59763 0.7895 0.85824 0.0
C2400 C 0.87849 0.04408 0.70527 0.0
C2401 C 0.89809 0.02875 0.69644 0.0
H2402 H 0.88002 0.10357 0.71414 0.0
C2403 C 0.93722 0.06398 0.68989 0.0
H2404 H 0.84892 1.01788 0.7106 0.0
C2405 C 0.95527 0.11352 0.69191 0.0
C2406 C 0.93486 0.12875 0.70061 0.0
H2407 H 0.95303 0.05324 0.68301 0.0
H2408 H 0.98462 0.13979 0.68655 0.0
C2409 C 0.89671 0.09336 0.70736 0.0
C2410 C 0.04521 0.85323 0.70938 0.0
C2411 C 1.01093 0.84716 0.70086 0.0
H2412 H 0.12009 0.88799 0.71424 0.0
C2413 C 1.02735 0.87472 0.69061 0.0
H2414 H 1.03396 0.8326 0.71738 0.0
C2415 C 0.07701 0.90649 0.68879 0.0
C2416 C 0.11134 0.91175 0.69723 0.0
H2417 H 1.002 0.87089 0.68385 0.0
H2418 H 0.08856 0.92688 0.68076 0.0
C2419 C 0.0947 0.88518 0.7076 0.0
C2420 C 0.26265 0.18856 0.69199 0.0
C2421 C 0.29917 0.20911 0.70048 0.0
H2422 H 0.20334 0.19028 0.68355 0.0
C2423 C 0.30233 0.24713 0.70732 0.0
H2424 H 0.25924 0.15932 0.68655 0.0
C2425 C 0.27063 0.26499 0.70554 0.0
C2426 C 0.2347 0.24511 0.69693 0.0
H2427 H 0.32996 0.26391 0.71395 0.0
H2428 H 0.27426 0.29445 0.71093 0.0
C2429 C 0.23058 0.20623 0.69028 0.0
C2430 C 0.78187 0.22845 0.10486 0.0
C2431 C 0.81561 0.25834 0.11326 0.0
H2432 H 0.70719 0.18697 0.09991 0.0
C2433 C 0.79855 0.27073 0.12319 0.0
H2434 H 0.79368 0.21811 0.09712 0.0
C2435 C 0.74877 0.25261 0.12481 0.0
C2436 C 0.71501 0.22208 0.11649 0.0
H2437 H 0.82351 0.29353 0.12984 0.0
H2438 H 0.73668 0.26251 0.13258 0.0
C2439 C 0.73223 0.2107 0.10644 0.0
C2440 C 0.91746 0.56985 0.10193 0.0
C2441 C 0.90826 0.54459 0.11249 0.0
H2442 H 0.90882 0.62153 0.09183 0.0
C2443 C 0.878 0.54929 0.12067 0.0
H2444 H 0.94076 0.56731 0.09545 0.0
C2445 C 0.85926 0.58025 0.11854 0.0
C2446 C 0.87087 0.60759 0.10825 0.0
H2447 H 0.8696 0.52977 0.12882 0.0
H2448 H 0.83779 0.5846 0.12522 0.0
C2449 C 0.89916 0.60104 0.09986 0.0
C2450 C 0.55483 0.417 0.10533 0.0
C2451 C 0.58691 0.43541 0.11477 0.0
H2452 H 0.50032 0.35466 0.09653 0.0
C2453 C 0.58951 0.40249 0.1225 0.0
H2454 H 0.55267 0.44126 0.09906 0.0
C2455 C 0.55933 0.3523 0.12104 0.0
C2456 C 0.52629 0.33409 0.11175 0.0
H2457 H 0.61391 0.41555 0.12986 0.0
H2458 H 0.56116 0.3279 0.12732 0.0
C2459 C 0.52505 0.36715 0.10383 0.0
C2460 C 0.87272 0.34525 0.62287 0.0
C2461 C 0.89291 0.32953 0.61424 0.0
H2462 H 0.8752 0.40595 0.63161 0.0
C2463 C 0.93108 0.36457 0.60743 0.0
H2464 H 0.8434 0.31929 0.62829 0.0
C2465 C 0.94944 0.41398 0.60938 0.0
C2466 C 0.92995 0.42978 0.61814 0.0
H2467 H 0.94762 0.35396 0.60069 0.0
H2468 H 0.97899 0.4399 0.60401 0.0
C2469 C 0.89089 0.39488 0.62477 0.0
C2470 C 0.79991 0.5853 0.62434 0.0
C2471 C 0.8169 0.61258 0.61407 0.0
H2472 H 0.73808 0.53384 0.63413 0.0
C2473 C 0.78307 0.60668 0.60544 0.0
H2474 H 0.82493 0.58907 0.63118 0.0
C2475 C 0.73346 0.5752 0.60714 0.0
C2476 C 0.71624 0.54895 0.61753 0.0
H2477 H 0.79478 0.6271 0.59742 0.0
H2478 H 0.70843 0.57252 0.60041 0.0
C2479 C 0.7501 0.55401 0.62608 0.0
C2480 C 0.58992 0.24718 0.62558 0.0
C2481 C 0.59497 0.21856 0.61703 0.0
H2482 H 0.55479 0.28677 0.63073 0.0
C2483 C 0.56867 0.20965 0.60665 0.0
H2484 H 0.61015 0.25521 0.63361 0.0
C2485 C 0.53709 0.22777 0.60499 0.0
C2486 C 0.53122 0.25554 0.61363 0.0
H2487 H 0.57143 0.18744 0.59992 0.0
H2488 H 0.51658 0.2192 0.59699 0.0
C2489 C 0.55855 0.26566 0.62388 0.0
C2490 C 0.0444 0.24276 0.2088 0.0
C2491 C 1.01024 0.21456 0.20029 0.0
H2492 H 0.11928 0.28342 0.2136 0.0
C2493 C 1.02682 0.20403 0.19 0.0
H2494 H 1.033 0.25167 0.21683 0.0
C2495 C 0.07654 0.22251 0.18813 0.0
C2496 C 0.11072 0.25155 0.19656 0.0
H2497 H 1.00153 0.18254 0.18325 0.0
H2498 H 0.08826 0.21414 0.18008 0.0
C2499 C 0.09396 0.26089 0.20697 0.0
C2500 C 0.87594 0.88088 0.20435 0.0
C2501 C 0.89586 0.91678 0.19571 0.0
H2502 H 0.87702 0.82169 0.21282 0.0
C2503 C 0.93484 0.92083 0.18906 0.0
H2504 H 0.84644 0.87728 0.20974 0.0
C2505 C 0.95256 0.88879 0.19082 0.0
C2506 C 0.93198 0.85235 0.19934 0.0
H2507 H 0.95086 0.94802 0.18231 0.0
H2508 H 0.98189 0.89219 0.18539 0.0
C2509 C 0.89385 0.84924 0.20617 0.0
C2510 C 0.2357 0.07355 0.18728 0.0
C2511 C 0.22977 0.03978 0.19594 0.0
H2512 H 0.27174 0.14819 0.18205 0.0
C2513 C 0.25546 0.05692 0.2064 0.0
H2514 H 0.21599 0.06154 0.17919 0.0
C2515 C 0.28725 0.10642 0.20805 0.0
C2516 C 0.29396 0.14014 0.19931 0.0
H2517 H 0.25208 0.0319 0.2132 0.0
H2518 H 0.30721 0.11811 0.21612 0.0
C2519 C 0.26729 0.12323 0.18897 0.0
loop_
_geom_bond_atom_site_label_1
_geom_bond_atom_site_label_2
_geom_bond_distance
_geom_bond_site_symmetry_2
_ccdc_geom_bond_type
Dy0 O3 2.307 . S
Dy0 O5 2.395 1_545 S
Dy0 O6 2.379 1_545 S
Dy0 O8 2.339 . S
Dy0 O10 2.298 1_545 S
Dy0 O14 2.275 . S
Dy0 C22 2.738 1_545 S
Dy1 O4 2.298 . S
Dy1 O7 2.275 . S
Dy1 O9 2.307 . S
Dy1 O11 2.395 . S
Dy1 O12 2.379 . S
Dy1 O15 2.339 . S
Dy1 C31 2.738 . S
C2 O14 1.254 . S
C2 O15 1.257 . S
O3 Dy0 2.307 . S
O3 C13 1.266 . S
O4 Dy1 2.298 . S
O4 C13 1.236 . S
O5 Dy0 2.395 1_565 S
O5 C22 1.255 . S
O6 Dy0 2.379 1_565 S
O6 C22 1.249 . S
O7 Dy1 2.275 . S
O7 C23 1.254 . S
O8 Dy0 2.339 . S
O8 C23 1.257 . S
O9 Dy1 2.307 . S
O9 C24 1.266 1_545 S
O10 Dy0 2.298 1_565 S
O10 C24 1.236 . S
O11 Dy1 2.395 . S
O11 C31 1.255 . S
O12 Dy1 2.379 . S
O12 C31 1.249 . S
C13 O3 1.266 . S
C13 O4 1.236 . S
O14 Dy0 2.275 . S
O14 C2 1.254 . S
O15 Dy1 2.339 . S
O15 C2 1.257 . S
C16 C19 1.344 . S
C16 C20 1.328 . S
C16 C22 1.516 . S
C17 C18 1.304 . S
C17 C21 1.323 . S
C18 C17 1.304 . S
C18 C19 1.371 . S
C18 H32 0.930 . S
C19 C16 1.344 . S
C19 C18 1.371 . S
C19 H33 0.931 . S
C20 C16 1.328 . S
C20 C21 1.433 . S
C20 H34 0.931 . S
C21 C17 1.323 . S
C21 C20 1.433 . S
C21 H35 0.933 . S
C22 Dy0 2.738 1_565 S
C22 O5 1.255 . S
C22 O6 1.249 . S
C22 C16 1.516 . S
C23 O7 1.254 . S
C23 O8 1.257 . S
C24 O9 1.266 1_565 S
C24 O10 1.236 . S
C25 C28 1.344 . S
C25 C29 1.328 . S
C25 C31 1.516 . S
C26 C27 1.304 . S
C26 C30 1.323 . S
C27 C26 1.304 . S
C27 C28 1.371 . S
C27 H36 0.930 . S
C28 C25 1.344 . S
C28 C27 1.371 . S
C28 H37 0.931 . S
C29 C25 1.328 . S
C29 C30 1.433 . S
C29 H38 0.931 . S
C30 C26 1.323 . S
C30 C29 1.433 . S
C30 H39 0.933 . S
C31 Dy1 2.738 . S
C31 O11 1.255 . S
C31 O12 1.249 . S
C31 C25 1.516 . S
H32 C18 0.930 . S
H33 C19 0.931 . S
H34 C20 0.931 . S
H35 C21 0.933 . S
H36 C27 0.930 . S
H37 C28 0.931 . S
H38 C29 0.931 . S
H39 C30 0.933 . S
Dy40 O43 2.307 1_455 S
Dy40 O45 2.395 . S
Dy40 O46 2.379 . S
Dy40 O48 2.339 . S
Dy40 O50 2.298 . S
Dy40 O54 2.275 . S
Dy40 C62 2.738 . S
Dy41 O44 2.298 . S
Dy41 O47 2.275 1_655 S
Dy41 O49 2.307 1_655 S
Dy41 O51 2.395 . S
Dy41 O52 2.379 . S
Dy41 O55 2.339 1_655 S
Dy41 C71 2.738 . S
C42 O54 1.254 . S
C42 O55 1.257 . S
O43 Dy40 2.307 1_655 S
O43 C53 1.266 . S
O44 Dy41 2.298 . S
O44 C53 1.236 . S
O45 Dy40 2.395 . S
O45 C62 1.255 . S
O46 Dy40 2.379 . S
O46 C62 1.249 . S
O47 Dy41 2.275 1_455 S
O47 C63 1.254 . S
O48 Dy40 2.339 . S
O48 C63 1.257 . S
O49 Dy41 2.307 1_455 S
O49 C64 1.266 . S
O50 Dy40 2.298 . S
O50 C64 1.236 . S
O51 Dy41 2.395 . S
O51 C71 1.255 . S
O52 Dy41 2.379 . S
O52 C71 1.249 . S
C53 O43 1.266 . S
C53 O44 1.236 . S
O54 Dy40 2.275 . S
O54 C42 1.254 . S
O55 Dy41 2.339 1_455 S
O55 C42 1.257 . S
C56 C59 1.344 . S
C56 C60 1.328 . S
C56 C62 1.516 . S
C57 C58 1.304 . S
C57 C61 1.323 . S
C58 C57 1.304 . S
C58 C59 1.371 . S
C58 H72 0.930 . S
C59 C56 1.344 . S
C59 C58 1.371 . S
C59 H73 0.931 . S
C60 C56 1.328 . S
C60 C61 1.433 . S
C60 H74 0.931 . S
C61 C57 1.323 . S
C61 C60 1.433 . S
C61 H75 0.933 . S
C62 Dy40 2.738 . S
C62 O45 1.255 . S
C62 O46 1.249 . S
C62 C56 1.516 . S
C63 O47 1.254 . S
C63 O48 1.257 . S
C64 O49 1.266 . S
C64 O50 1.236 . S
C65 C68 1.344 . S
C65 C69 1.328 . S
C65 C71 1.516 . S
C66 C67 1.304 . S
C66 C70 1.323 . S
C67 C66 1.304 . S
C67 C68 1.371 . S
C67 H76 0.930 . S
C68 C65 1.344 . S
C68 C67 1.371 . S
C68 H77 0.931 . S
C69 C65 1.328 . S
C69 C70 1.433 . S
C69 H78 0.931 . S
C70 C66 1.323 . S
C70 C69 1.433 . S
C70 H79 0.933 . S
C71 Dy41 2.738 . S
C71 O51 1.255 . S
C71 O52 1.249 . S
C71 C65 1.516 . S
H72 C58 0.930 . S
H73 C59 0.931 . S
H74 C60 0.931 . S
H75 C61 0.933 . S
H76 C67 0.930 . S
H77 C68 0.931 . S
H78 C69 0.931 . S
H79 C70 0.933 . S
Dy80 O83 2.307 . S
Dy80 O85 2.395 . S
Dy80 O86 2.379 . S
Dy80 O88 2.339 . S
Dy80 O90 2.298 . S
Dy80 O94 2.275 . S
Dy80 C102 2.738 . S
Dy81 O84 2.298 . S
Dy81 O87 2.275 . S
Dy81 O89 2.307 . S
Dy81 O91 2.395 . S
Dy81 O92 2.379 . S
Dy81 O95 2.339 . S
Dy81 C111 2.738 . S
C82 O94 1.254 . S
C82 O95 1.257 . S
O83 Dy80 2.307 . S
O83 C93 1.266 . S
O84 Dy81 2.298 . S
O84 C93 1.236 . S
O85 Dy80 2.395 . S
O85 C102 1.255 . S
O86 Dy80 2.379 . S
O86 C102 1.249 . S
O87 Dy81 2.275 . S
O87 C103 1.254 . S
O88 Dy80 2.339 . S
O88 C103 1.257 . S
O89 Dy81 2.307 . S
O89 C104 1.266 . S
O90 Dy80 2.298 . S
O90 C104 1.236 . S
O91 Dy81 2.395 . S
O91 C111 1.255 . S
O92 Dy81 2.379 . S
O92 C111 1.249 . S
C93 O83 1.266 . S
C93 O84 1.236 . S
O94 Dy80 2.275 . S
O94 C82 1.254 . S
O95 Dy81 2.339 . S
O95 C82 1.257 . S
C96 C99 1.344 . S
C96 C100 1.328 . S
C96 C102 1.516 . S
C97 C98 1.304 . S
C97 C101 1.323 . S
C98 C97 1.304 . S
C98 C99 1.371 . S
C98 H112 0.930 . S
C99 C96 1.344 . S
C99 C98 1.371 . S
C99 H113 0.931 . S
C100 C96 1.328 . S
C100 C101 1.433 . S
C100 H114 0.931 . S
C101 C97 1.323 . S
C101 C100 1.433 . S
C101 H115 0.933 . S
C102 Dy80 2.738 . S
C102 O85 1.255 . S
C102 O86 1.249 . S
C102 C96 1.516 . S
C103 O87 1.254 . S
C103 O88 1.257 . S
C104 O89 1.266 . S
C104 O90 1.236 . S
C105 C108 1.344 . S
C105 C109 1.328 . S
C105 C111 1.516 . S
C106 C107 1.304 . S
C106 C110 1.323 . S
C107 C106 1.304 . S
C107 C108 1.371 . S
C107 H116 0.930 . S
C108 C105 1.344 . S
C108 C107 1.371 . S
C108 H117 0.931 . S
C109 C105 1.328 . S
C109 C110 1.433 . S
C109 H118 0.931 . S
C110 C106 1.323 . S
C110 C109 1.433 . S
C110 H119 0.933 . S
C111 Dy81 2.738 . S
C111 O91 1.255 . S
C111 O92 1.249 . S
C111 C105 1.516 . S
H112 C98 0.930 . S
H113 C99 0.931 . S
H114 C100 0.931 . S
H115 C101 0.933 . S
H116 C107 0.930 . S
H117 C108 0.931 . S
H118 C109 0.931 . S
H119 C110 0.933 . S
Dy120 O123 2.307 . S
Dy120 O125 2.395 1_455 S
Dy120 O126 2.379 1_455 S
Dy120 O128 2.339 . S
Dy120 O130 2.298 1_455 S
Dy120 O134 2.275 . S
Dy120 C142 2.738 1_455 S
Dy121 O124 2.298 . S
Dy121 O127 2.275 . S
Dy121 O129 2.307 . S
Dy121 O131 2.395 . S
Dy121 O132 2.379 . S
Dy121 O135 2.339 . S
Dy121 C151 2.738 . S
C122 O134 1.254 . S
C122 O135 1.257 . S
O123 Dy120 2.307 . S
O123 C133 1.266 . S
O124 Dy121 2.298 . S
O124 C133 1.236 . S
O125 Dy120 2.395 1_655 S
O125 C142 1.255 . S
O126 Dy120 2.379 1_655 S
O126 C142 1.249 . S
O127 Dy121 2.275 . S
O127 C143 1.254 . S
O128 Dy120 2.339 . S
O128 C143 1.257 . S
O129 Dy121 2.307 . S
O129 C144 1.266 1_455 S
O130 Dy120 2.298 1_655 S
O130 C144 1.236 . S
O131 Dy121 2.395 . S
O131 C151 1.255 . S
O132 Dy121 2.379 . S
O132 C151 1.249 . S
C133 O123 1.266 . S
C133 O124 1.236 . S
O134 Dy120 2.275 . S
O134 C122 1.254 . S
O135 Dy121 2.339 . S
O135 C122 1.257 . S
C136 C139 1.344 . S
C136 C140 1.328 . S
C136 C142 1.516 . S
C137 C138 1.304 . S
C137 C141 1.323 . S
C138 C137 1.304 . S
C138 C139 1.371 . S
C138 H152 0.930 . S
C139 C136 1.344 . S
C139 C138 1.371 . S
C139 H153 0.931 . S
C140 C136 1.328 . S
C140 C141 1.433 . S
C140 H154 0.931 . S
C141 C137 1.323 . S
C141 C140 1.433 . S
C141 H155 0.933 . S
C142 Dy120 2.738 1_655 S
C142 O125 1.255 . S
C142 O126 1.249 . S
C142 C136 1.516 . S
C143 O127 1.254 . S
C143 O128 1.257 . S
C144 O129 1.266 1_655 S
C144 O130 1.236 . S
C145 C148 1.344 . S
C145 C149 1.328 . S
C145 C151 1.516 . S
C146 C147 1.304 . S
C146 C150 1.323 . S
C147 C146 1.304 . S
C147 C148 1.371 . S
C147 H156 0.930 . S
C148 C145 1.344 . S
C148 C147 1.371 . S
C148 H157 0.931 . S
C149 C145 1.328 . S
C149 C150 1.433 . S
C149 H158 0.931 . S
C150 C146 1.323 . S
C150 C149 1.433 . S
C150 H159 0.933 . S
C151 Dy121 2.738 . S
C151 O131 1.255 . S
C151 O132 1.249 . S
C151 C145 1.516 . S
H152 C138 0.930 . S
H153 C139 0.931 . S
H154 C140 0.931 . S
H155 C141 0.933 . S
H156 C147 0.930 . S
H157 C148 0.931 . S
H158 C149 0.931 . S
H159 C150 0.933 . S
Dy160 O163 2.307 . S
Dy160 O165 2.395 . S
Dy160 O166 2.379 . S
Dy160 O168 2.339 . S
Dy160 O170 2.298 . S
Dy160 O174 2.275 . S
Dy160 C182 2.738 . S
Dy161 O164 2.298 . S
Dy161 O167 2.275 . S
Dy161 O169 2.307 . S
Dy161 O171 2.395 . S
Dy161 O172 2.379 . S
Dy161 O175 2.339 . S
Dy161 C191 2.738 . S
C162 O174 1.254 . S
C162 O175 1.257 . S
O163 Dy160 2.307 . S
O163 C173 1.266 . S
O164 Dy161 2.298 . S
O164 C173 1.236 . S
O165 Dy160 2.395 . S
O165 C182 1.255 . S
O166 Dy160 2.379 . S
O166 C182 1.249 . S
O167 Dy161 2.275 . S
O167 C183 1.254 . S
O168 Dy160 2.339 . S
O168 C183 1.257 . S
O169 Dy161 2.307 . S
O169 C184 1.266 . S
O170 Dy160 2.298 . S
O170 C184 1.236 . S
O171 Dy161 2.395 . S
O171 C191 1.255 . S
O172 Dy161 2.379 . S
O172 C191 1.249 . S
C173 O163 1.266 . S
C173 O164 1.236 . S
O174 Dy160 2.275 . S
O174 C162 1.254 . S
O175 Dy161 2.339 . S
O175 C162 1.257 . S
C176 C179 1.344 . S
C176 C180 1.328 . S
C176 C182 1.516 . S
C177 C178 1.304 . S
C177 C181 1.323 . S
C178 C177 1.304 . S
C178 C179 1.371 . S
C178 H192 0.930 . S
C179 C176 1.344 . S
C179 C178 1.371 . S
C179 H193 0.931 . S
C180 C176 1.328 . S
C180 C181 1.433 . S
C180 H194 0.931 . S
C181 C177 1.323 . S
C181 C180 1.433 . S
C181 H195 0.933 . S
C182 Dy160 2.738 . S
C182 O165 1.255 . S
C182 O166 1.249 . S
C182 C176 1.516 . S
C183 O167 1.254 . S
C183 O168 1.257 . S
C184 O169 1.266 . S
C184 O170 1.236 . S
C185 C188 1.344 . S
C185 C189 1.328 . S
C185 C191 1.516 . S
C186 C187 1.304 . S
C186 C190 1.323 . S
C187 C186 1.304 . S
C187 C188 1.371 . S
C187 H196 0.930 . S
C188 C185 1.344 . S
C188 C187 1.371 . S
C188 H197 0.931 . S
C189 C185 1.328 . S
C189 C190 1.433 . S
C189 H198 0.931 . S
C190 C186 1.323 . S
C190 C189 1.433 . S
C190 H199 0.933 . S
C191 Dy161 2.738 . S
C191 O171 1.255 . S
C191 O172 1.249 . S
C191 C185 1.516 . S
H192 C178 0.930 . S
H193 C179 0.931 . S
H194 C180 0.931 . S
H195 C181 0.933 . S
H196 C187 0.930 . S
H197 C188 0.931 . S
H198 C189 0.931 . S
H199 C190 0.933 . S
Dy200 O203 2.307 1_545 S
Dy200 O205 2.395 . S
Dy200 O206 2.379 . S
Dy200 O208 2.339 . S
Dy200 O210 2.298 . S
Dy200 O214 2.275 . S
Dy200 C222 2.738 . S
Dy201 O204 2.298 . S
Dy201 O207 2.275 1_565 S
Dy201 O209 2.307 1_565 S
Dy201 O211 2.395 . S
Dy201 O212 2.379 . S
Dy201 O215 2.339 1_565 S
Dy201 C231 2.738 . S
C202 O214 1.254 . S
C202 O215 1.257 . S
O203 Dy200 2.307 1_565 S
O203 C213 1.266 . S
O204 Dy201 2.298 . S
O204 C213 1.236 . S
O205 Dy200 2.395 . S
O205 C222 1.255 . S
O206 Dy200 2.379 . S
O206 C222 1.249 . S
O207 Dy201 2.275 1_545 S
O207 C223 1.254 . S
O208 Dy200 2.339 . S
O208 C223 1.257 . S
O209 Dy201 2.307 1_545 S
O209 C224 1.266 . S
O210 Dy200 2.298 . S
O210 C224 1.236 . S
O211 Dy201 2.395 . S
O211 C231 1.255 . S
O212 Dy201 2.379 . S
O212 C231 1.249 . S
C213 O203 1.266 . S
C213 O204 1.236 . S
O214 Dy200 2.275 . S
O214 C202 1.254 . S
O215 Dy201 2.339 1_545 S
O215 C202 1.257 . S
C216 C219 1.344 . S
C216 C220 1.328 . S
C216 C222 1.516 . S
C217 C218 1.304 . S
C217 C221 1.323 . S
C218 C217 1.304 . S
C218 C219 1.371 . S
C218 H232 0.930 . S
C219 C216 1.344 . S
C219 C218 1.371 . S
C219 H233 0.931 . S
C220 C216 1.328 . S
C220 C221 1.433 . S
C220 H234 0.931 . S
C221 C217 1.323 . S
C221 C220 1.433 . S
C221 H235 0.933 . S
C222 Dy200 2.738 . S
C222 O205 1.255 . S
C222 O206 1.249 . S
C222 C216 1.516 . S
C223 O207 1.254 . S
C223 O208 1.257 . S
C224 O209 1.266 . S
C224 O210 1.236 . S
C225 C228 1.344 . S
C225 C229 1.328 . S
C225 C231 1.516 . S
C226 C227 1.304 . S
C226 C230 1.323 . S
C227 C226 1.304 . S
C227 C228 1.371 . S
C227 H236 0.930 . S
C228 C225 1.344 . S
C228 C227 1.371 . S
C228 H237 0.931 . S
C229 C225 1.328 . S
C229 C230 1.433 . S
C229 H238 0.931 . S
C230 C226 1.323 . S
C230 C229 1.433 . S
C230 H239 0.933 . S
C231 Dy201 2.738 . S
C231 O211 1.255 . S
C231 O212 1.249 . S
C231 C225 1.516 . S
H232 C218 0.930 . S
H233 C219 0.931 . S
H234 C220 0.931 . S
H235 C221 0.933 . S
H236 C227 0.930 . S
H237 C228 0.931 . S
H238 C229 0.931 . S
H239 C230 0.933 . S
Dy240 O243 2.307 1_565 S
Dy240 O245 2.395 . S
Dy240 O246 2.379 . S
Dy240 O248 2.339 1_565 S
Dy240 O250 2.298 . S
Dy240 O254 2.275 1_565 S
Dy240 C262 2.738 . S
Dy241 O244 2.298 . S
Dy241 O247 2.275 . S
Dy241 O249 2.307 1_545 S
Dy241 O251 2.395 . S
Dy241 O252 2.379 . S
Dy241 O255 2.339 . S
Dy241 C271 2.738 . S
C242 O254 1.254 . S
C242 O255 1.257 . S
O243 Dy240 2.307 1_545 S
O243 C253 1.266 . S
O244 Dy241 2.298 . S
O244 C253 1.236 . S
O245 Dy240 2.395 . S
O245 C262 1.255 . S
O246 Dy240 2.379 . S
O246 C262 1.249 . S
O247 Dy241 2.275 . S
O247 C263 1.254 . S
O248 Dy240 2.339 1_545 S
O248 C263 1.257 . S
O249 Dy241 2.307 1_565 S
O249 C264 1.266 . S
O250 Dy240 2.298 . S
O250 C264 1.236 . S
O251 Dy241 2.395 . S
O251 C271 1.255 . S
O252 Dy241 2.379 . S
O252 C271 1.249 . S
C253 O243 1.266 . S
C253 O244 1.236 . S
O254 Dy240 2.275 1_545 S
O254 C242 1.254 . S
O255 Dy241 2.339 . S
O255 C242 1.257 . S
C256 C259 1.344 . S
C256 C260 1.328 . S
C256 C262 1.516 . S
C257 C258 1.304 . S
C257 C261 1.323 . S
C258 C257 1.304 . S
C258 C259 1.371 . S
C258 H272 0.930 . S
C259 C256 1.344 . S
C259 C258 1.371 . S
C259 H273 0.931 . S
C260 C256 1.328 . S
C260 C261 1.433 . S
C260 H274 0.931 . S
C261 C257 1.323 . S
C261 C260 1.433 . S
C261 H275 0.933 . S
C262 Dy240 2.738 . S
C262 O245 1.255 . S
C262 O246 1.249 . S
C262 C256 1.516 . S
C263 O247 1.254 . S
C263 O248 1.257 . S
C264 O249 1.266 . S
C264 O250 1.236 . S
C265 C268 1.344 . S
C265 C269 1.328 . S
C265 C271 1.516 . S
C266 C267 1.304 . S
C266 C270 1.323 . S
C267 C266 1.304 . S
C267 C268 1.371 . S
C267 H276 0.930 . S
C268 C265 1.344 . S
C268 C267 1.371 . S
C268 H277 0.931 . S
C269 C265 1.328 . S
C269 C270 1.433 . S
C269 H278 0.931 . S
C270 C266 1.323 . S
C270 C269 1.433 . S
C270 H279 0.933 . S
C271 Dy241 2.738 . S
C271 O251 1.255 . S
C271 O252 1.249 . S
C271 C265 1.516 . S
H272 C258 0.930 . S
H273 C259 0.931 . S
H274 C260 0.931 . S
H275 C261 0.933 . S
H276 C267 0.930 . S
H277 C268 0.931 . S
H278 C269 0.931 . S
H279 C270 0.933 . S
Dy280 O283 2.307 . S
Dy280 O285 2.395 . S
Dy280 O286 2.379 . S
Dy280 O288 2.339 . S
Dy280 O290 2.298 . S
Dy280 O294 2.275 . S
Dy280 C302 2.738 . S
Dy281 O284 2.298 1_455 S
Dy281 O287 2.275 . S
Dy281 O289 2.307 . S
Dy281 O291 2.395 1_455 S
Dy281 O292 2.379 1_455 S
Dy281 O295 2.339 . S
Dy281 C311 2.738 1_455 S
C282 O294 1.254 . S
C282 O295 1.257 . S
O283 Dy280 2.307 . S
O283 C293 1.266 1_455 S
O284 Dy281 2.298 1_655 S
O284 C293 1.236 . S
O285 Dy280 2.395 . S
O285 C302 1.255 . S
O286 Dy280 2.379 . S
O286 C302 1.249 . S
O287 Dy281 2.275 . S
O287 C303 1.254 . S
O288 Dy280 2.339 . S
O288 C303 1.257 . S
O289 Dy281 2.307 . S
O289 C304 1.266 . S
O290 Dy280 2.298 . S
O290 C304 1.236 . S
O291 Dy281 2.395 1_655 S
O291 C311 1.255 . S
O292 Dy281 2.379 1_655 S
O292 C311 1.249 . S
C293 O283 1.266 1_655 S
C293 O284 1.236 . S
O294 Dy280 2.275 . S
O294 C282 1.254 . S
O295 Dy281 2.339 . S
O295 C282 1.257 . S
C296 C299 1.344 . S
C296 C300 1.328 . S
C296 C302 1.516 . S
C297 C298 1.304 . S
C297 C301 1.323 . S
C298 C297 1.304 . S
C298 C299 1.371 . S
C298 H312 0.930 . S
C299 C296 1.344 . S
C299 C298 1.371 . S
C299 H313 0.931 . S
C300 C296 1.328 . S
C300 C301 1.433 . S
C300 H314 0.931 . S
C301 C297 1.323 . S
C301 C300 1.433 . S
C301 H315 0.933 . S
C302 Dy280 2.738 . S
C302 O285 1.255 . S
C302 O286 1.249 . S
C302 C296 1.516 . S
C303 O287 1.254 . S
C303 O288 1.257 . S
C304 O289 1.266 . S
C304 O290 1.236 . S
C305 C308 1.344 . S
C305 C309 1.328 . S
C305 C311 1.516 . S
C306 C307 1.304 . S
C306 C310 1.323 . S
C307 C306 1.304 . S
C307 C308 1.371 . S
C307 H316 0.930 . S
C308 C305 1.344 . S
C308 C307 1.371 . S
C308 H317 0.931 . S
C309 C305 1.328 . S
C309 C310 1.433 . S
C309 H318 0.931 . S
C310 C306 1.323 . S
C310 C309 1.433 . S
C310 H319 0.933 . S
C311 Dy281 2.738 1_655 S
C311 O291 1.255 . S
C311 O292 1.249 . S
C311 C305 1.516 . S
H312 C298 0.930 . S
H313 C299 0.931 . S
H314 C300 0.931 . S
H315 C301 0.933 . S
H316 C307 0.930 . S
H317 C308 0.931 . S
H318 C309 0.931 . S
H319 C310 0.933 . S
Dy320 O323 2.307 . S
Dy320 O325 2.395 . S
Dy320 O326 2.379 . S
Dy320 O328 2.339 . S
Dy320 O330 2.298 . S
Dy320 O334 2.275 . S
Dy320 C342 2.738 . S
Dy321 O324 2.298 . S
Dy321 O327 2.275 . S
Dy321 O329 2.307 . S
Dy321 O331 2.395 . S
Dy321 O332 2.379 . S
Dy321 O335 2.339 . S
Dy321 C351 2.738 . S
C322 O334 1.254 . S
C322 O335 1.257 . S
O323 Dy320 2.307 . S
O323 C333 1.266 . S
O324 Dy321 2.298 . S
O324 C333 1.236 . S
O325 Dy320 2.395 . S
O325 C342 1.255 . S
O326 Dy320 2.379 . S
O326 C342 1.249 . S
O327 Dy321 2.275 . S
O327 C343 1.254 . S
O328 Dy320 2.339 . S
O328 C343 1.257 . S
O329 Dy321 2.307 . S
O329 C344 1.266 . S
O330 Dy320 2.298 . S
O330 C344 1.236 . S
O331 Dy321 2.395 . S
O331 C351 1.255 . S
O332 Dy321 2.379 . S
O332 C351 1.249 . S
C333 O323 1.266 . S
C333 O324 1.236 . S
O334 Dy320 2.275 . S
O334 C322 1.254 . S
O335 Dy321 2.339 . S
O335 C322 1.257 . S
C336 C339 1.344 . S
C336 C340 1.328 . S
C336 C342 1.516 . S
C337 C338 1.304 . S
C337 C341 1.323 . S
C338 C337 1.304 . S
C338 C339 1.371 . S
C338 H352 0.930 . S
C339 C336 1.344 . S
C339 C338 1.371 . S
C339 H353 0.931 . S
C340 C336 1.328 . S
C340 C341 1.433 . S
C340 H354 0.931 . S
C341 C337 1.323 . S
C341 C340 1.433 . S
C341 H355 0.933 . S
C342 Dy320 2.738 . S
C342 O325 1.255 . S
C342 O326 1.249 . S
C342 C336 1.516 . S
C343 O327 1.254 . S
C343 O328 1.257 . S
C344 O329 1.266 . S
C344 O330 1.236 . S
C345 C348 1.344 . S
C345 C349 1.328 . S
C345 C351 1.516 . S
C346 C347 1.304 . S
C346 C350 1.323 . S
C347 C346 1.304 . S
C347 C348 1.371 . S
C347 H356 0.930 . S
C348 C345 1.344 . S
C348 C347 1.371 . S
C348 H357 0.931 . S
C349 C345 1.328 . S
C349 C350 1.433 . S
C349 H358 0.931 . S
C350 C346 1.323 . S
C350 C349 1.433 . S
C350 H359 0.933 . S
C351 Dy321 2.738 . S
C351 O331 1.255 . S
C351 O332 1.249 . S
C351 C345 1.516 . S
H352 C338 0.930 . S
H353 C339 0.931 . S
H354 C340 0.931 . S
H355 C341 0.933 . S
H356 C347 0.930 . S
H357 C348 0.931 . S
H358 C349 0.931 . S
H359 C350 0.933 . S
Dy360 O363 2.307 1_655 S
Dy360 O365 2.395 . S
Dy360 O366 2.379 . S
Dy360 O368 2.339 1_655 S
Dy360 O370 2.298 . S
Dy360 O374 2.275 1_655 S
Dy360 C382 2.738 . S
Dy361 O364 2.298 . S
Dy361 O367 2.275 . S
Dy361 O369 2.307 1_455 S
Dy361 O371 2.395 . S
Dy361 O372 2.379 . S
Dy361 O375 2.339 . S
Dy361 C391 2.738 . S
C362 O374 1.254 . S
C362 O375 1.257 . S
O363 Dy360 2.307 1_455 S
O363 C373 1.266 . S
O364 Dy361 2.298 . S
O364 C373 1.236 . S
O365 Dy360 2.395 . S
O365 C382 1.255 . S
O366 Dy360 2.379 . S
O366 C382 1.249 . S
O367 Dy361 2.275 . S
O367 C383 1.254 . S
O368 Dy360 2.339 1_455 S
O368 C383 1.257 . S
O369 Dy361 2.307 1_655 S
O369 C384 1.266 . S
O370 Dy360 2.298 . S
O370 C384 1.236 . S
O371 Dy361 2.395 . S
O371 C391 1.255 . S
O372 Dy361 2.379 . S
O372 C391 1.249 . S
C373 O363 1.266 . S
C373 O364 1.236 . S
O374 Dy360 2.275 1_455 S
O374 C362 1.254 . S
O375 Dy361 2.339 . S
O375 C362 1.257 . S
C376 C379 1.344 . S
C376 C380 1.328 . S
C376 C382 1.516 . S
C377 C378 1.304 . S
C377 C381 1.323 . S
C378 C377 1.304 . S
C378 C379 1.371 . S
C378 H392 0.930 . S
C379 C376 1.344 . S
C379 C378 1.371 . S
C379 H393 0.931 . S
C380 C376 1.328 . S
C380 C381 1.433 . S
C380 H394 0.931 . S
C381 C377 1.323 . S
C381 C380 1.433 . S
C381 H395 0.933 . S
C382 Dy360 2.738 . S
C382 O365 1.255 . S
C382 O366 1.249 . S
C382 C376 1.516 . S
C383 O367 1.254 . S
C383 O368 1.257 . S
C384 O369 1.266 . S
C384 O370 1.236 . S
C385 C388 1.344 . S
C385 C389 1.328 . S
C385 C391 1.516 . S
C386 C387 1.304 . S
C386 C390 1.323 . S
C387 C386 1.304 . S
C387 C388 1.371 . S
C387 H396 0.930 . S
C388 C385 1.344 . S
C388 C387 1.371 . S
C388 H397 0.931 . S
C389 C385 1.328 . S
C389 C390 1.433 . S
C389 H398 0.931 . S
C390 C386 1.323 . S
C390 C389 1.433 . S
C390 H399 0.933 . S
C391 Dy361 2.738 . S
C391 O371 1.255 . S
C391 O372 1.249 . S
C391 C385 1.516 . S
H392 C378 0.930 . S
H393 C379 0.931 . S
H394 C380 0.931 . S
H395 C381 0.933 . S
H396 C387 0.930 . S
H397 C388 0.931 . S
H398 C389 0.931 . S
H399 C390 0.933 . S
Dy400 O403 2.307 . S
Dy400 O405 2.395 . S
Dy400 O406 2.379 . S
Dy400 O408 2.339 . S
Dy400 O410 2.298 . S
Dy400 O414 2.275 . S
Dy400 C422 2.738 . S
Dy401 O404 2.298 . S
Dy401 O407 2.275 . S
Dy401 O409 2.307 . S
Dy401 O411 2.395 . S
Dy401 O412 2.379 . S
Dy401 O415 2.339 . S
Dy401 C431 2.738 . S
C402 O414 1.254 . S
C402 O415 1.257 . S
O403 Dy400 2.307 . S
O403 C413 1.266 . S
O404 Dy401 2.298 . S
O404 C413 1.236 . S
O405 Dy400 2.395 . S
O405 C422 1.255 . S
O406 Dy400 2.379 . S
O406 C422 1.249 . S
O407 Dy401 2.275 . S
O407 C423 1.254 . S
O408 Dy400 2.339 . S
O408 C423 1.257 . S
O409 Dy401 2.307 . S
O409 C424 1.266 . S
O410 Dy400 2.298 . S
O410 C424 1.236 . S
O411 Dy401 2.395 . S
O411 C431 1.255 . S
O412 Dy401 2.379 . S
O412 C431 1.249 . S
C413 O403 1.266 . S
C413 O404 1.236 . S
O414 Dy400 2.275 . S
O414 C402 1.254 . S
O415 Dy401 2.339 . S
O415 C402 1.257 . S
C416 C419 1.344 . S
C416 C420 1.328 . S
C416 C422 1.516 . S
C417 C418 1.304 . S
C417 C421 1.323 . S
C418 C417 1.304 . S
C418 C419 1.371 . S
C418 H432 0.930 . S
C419 C416 1.344 . S
C419 C418 1.371 . S
C419 H433 0.931 . S
C420 C416 1.328 . S
C420 C421 1.433 . S
C420 H434 0.931 . S
C421 C417 1.323 . S
C421 C420 1.433 . S
C421 H435 0.933 . S
C422 Dy400 2.738 . S
C422 O405 1.255 . S
C422 O406 1.249 . S
C422 C416 1.516 . S
C423 O407 1.254 . S
C423 O408 1.257 . S
C424 O409 1.266 . S
C424 O410 1.236 . S
C425 C428 1.344 . S
C425 C429 1.328 . S
C425 C431 1.516 . S
C426 C427 1.304 . S
C426 C430 1.323 . S
C427 C426 1.304 . S
C427 C428 1.371 . S
C427 H436 0.930 . S
C428 C425 1.344 . S
C428 C427 1.371 . S
C428 H437 0.931 . S
C429 C425 1.328 . S
C429 C430 1.433 . S
C429 H438 0.931 . S
C430 C426 1.323 . S
C430 C429 1.433 . S
C430 H439 0.933 . S
C431 Dy401 2.738 . S
C431 O411 1.255 . S
C431 O412 1.249 . S
C431 C425 1.516 . S
H432 C418 0.930 . S
H433 C419 0.931 . S
H434 C420 0.931 . S
H435 C421 0.933 . S
H436 C427 0.930 . S
H437 C428 0.931 . S
H438 C429 0.931 . S
H439 C430 0.933 . S
Dy440 O443 2.307 . S
Dy440 O445 2.395 . S
Dy440 O446 2.379 . S
Dy440 O448 2.339 . S
Dy440 O450 2.298 . S
Dy440 O454 2.275 . S
Dy440 C462 2.738 . S
Dy441 O444 2.298 1_545 S
Dy441 O447 2.275 . S
Dy441 O449 2.307 . S
Dy441 O451 2.395 1_545 S
Dy441 O452 2.379 1_545 S
Dy441 O455 2.339 . S
Dy441 C471 2.738 1_545 S
C442 O454 1.254 . S
C442 O455 1.257 . S
O443 Dy440 2.307 . S
O443 C453 1.266 1_545 S
O444 Dy441 2.298 1_565 S
O444 C453 1.236 . S
O445 Dy440 2.395 . S
O445 C462 1.255 . S
O446 Dy440 2.379 . S
O446 C462 1.249 . S
O447 Dy441 2.275 . S
O447 C463 1.254 . S
O448 Dy440 2.339 . S
O448 C463 1.257 . S
O449 Dy441 2.307 . S
O449 C464 1.266 . S
O450 Dy440 2.298 . S
O450 C464 1.236 . S
O451 Dy441 2.395 1_565 S
O451 C471 1.255 . S
O452 Dy441 2.379 1_565 S
O452 C471 1.249 . S
C453 O443 1.266 1_565 S
C453 O444 1.236 . S
O454 Dy440 2.275 . S
O454 C442 1.254 . S
O455 Dy441 2.339 . S
O455 C442 1.257 . S
C456 C459 1.344 . S
C456 C460 1.328 . S
C456 C462 1.516 . S
C457 C458 1.304 . S
C457 C461 1.323 . S
C458 C457 1.304 . S
C458 C459 1.371 . S
C458 H472 0.930 . S
C459 C456 1.344 . S
C459 C458 1.371 . S
C459 H473 0.931 . S
C460 C456 1.328 . S
C460 C461 1.433 . S
C460 H474 0.931 . S
C461 C457 1.323 . S
C461 C460 1.433 . S
C461 H475 0.933 . S
C462 Dy440 2.738 . S
C462 O445 1.255 . S
C462 O446 1.249 . S
C462 C456 1.516 . S
C463 O447 1.254 . S
C463 O448 1.257 . S
C464 O449 1.266 . S
C464 O450 1.236 . S
C465 C468 1.344 . S
C465 C469 1.328 . S
C465 C471 1.516 . S
C466 C467 1.304 . S
C466 C470 1.323 . S
C467 C466 1.304 . S
C467 C468 1.371 . S
C467 H476 0.930 . S
C468 C465 1.344 . S
C468 C467 1.371 . S
C468 H477 0.931 . S
C469 C465 1.328 . S
C469 C470 1.433 . S
C469 H478 0.931 . S
C470 C466 1.323 . S
C470 C469 1.433 . S
C470 H479 0.933 . S
C471 Dy441 2.738 1_565 S
C471 O451 1.255 . S
C471 O452 1.249 . S
C471 C465 1.516 . S
H472 C458 0.930 . S
H473 C459 0.931 . S
H474 C460 0.931 . S
H475 C461 0.933 . S
H476 C467 0.930 . S
H477 C468 0.931 . S
H478 C469 0.931 . S
H479 C470 0.933 . S
Dy480 O483 2.307 . S
Dy480 O485 2.395 . S
Dy480 O486 2.379 . S
Dy480 O488 2.339 . S
Dy480 O490 2.298 . S
Dy480 O494 2.275 . S
Dy480 C502 2.738 . S
Dy481 O484 2.298 . S
Dy481 O487 2.275 . S
Dy481 O489 2.307 . S
Dy481 O491 2.395 . S
Dy481 O492 2.379 . S
Dy481 O495 2.339 . S
Dy481 C511 2.738 . S
C482 O494 1.254 . S
C482 O495 1.257 . S
O483 Dy480 2.307 . S
O483 C493 1.266 . S
O484 Dy481 2.298 . S
O484 C493 1.236 . S
O485 Dy480 2.395 . S
O485 C502 1.255 . S
O486 Dy480 2.379 . S
O486 C502 1.249 . S
O487 Dy481 2.275 . S
O487 C503 1.254 . S
O488 Dy480 2.339 . S
O488 C503 1.257 . S
O489 Dy481 2.307 . S
O489 C504 1.266 . S
O490 Dy480 2.298 . S
O490 C504 1.236 . S
O491 Dy481 2.395 . S
O491 C511 1.255 . S
O492 Dy481 2.379 . S
O492 C511 1.249 . S
C493 O483 1.266 . S
C493 O484 1.236 . S
O494 Dy480 2.275 . S
O494 C482 1.254 . S
O495 Dy481 2.339 . S
O495 C482 1.257 . S
C496 C499 1.344 . S
C496 C500 1.328 . S
C496 C502 1.516 . S
C497 C498 1.304 . S
C497 C501 1.323 . S
C498 C497 1.304 . S
C498 C499 1.371 . S
C498 H512 0.930 . S
C499 C496 1.344 . S
C499 C498 1.371 . S
C499 H513 0.931 . S
C500 C496 1.328 . S
C500 C501 1.433 . S
C500 H514 0.931 . S
C501 C497 1.323 . S
C501 C500 1.433 . S
C501 H515 0.933 . S
C502 Dy480 2.738 . S
C502 O485 1.255 . S
C502 O486 1.249 . S
C502 C496 1.516 . S
C503 O487 1.254 . S
C503 O488 1.257 . S
C504 O489 1.266 . S
C504 O490 1.236 . S
C505 C508 1.344 . S
C505 C509 1.328 . S
C505 C511 1.516 . S
C506 C507 1.304 . S
C506 C510 1.323 . S
C507 C506 1.304 . S
C507 C508 1.371 . S
C507 H516 0.930 . S
C508 C505 1.344 . S
C508 C507 1.371 . S
C508 H517 0.931 . S
C509 C505 1.328 . S
C509 C510 1.433 . S
C509 H518 0.931 . S
C510 C506 1.323 . S
C510 C509 1.433 . S
C510 H519 0.933 . S
C511 Dy481 2.738 . S
C511 O491 1.255 . S
C511 O492 1.249 . S
C511 C505 1.516 . S
H512 C498 0.930 . S
H513 C499 0.931 . S
H514 C500 0.931 . S
H515 C501 0.933 . S
H516 C507 0.930 . S
H517 C508 0.931 . S
H518 C509 0.931 . S
H519 C510 0.933 . S
Dy520 O523 2.307 . S
Dy520 O525 2.395 . S
Dy520 O526 2.379 . S
Dy520 O528 2.339 . S
Dy520 O530 2.298 . S
Dy520 O534 2.275 . S
Dy520 C542 2.738 . S
Dy521 O524 2.298 . S
Dy521 O527 2.275 . S
Dy521 O529 2.307 . S
Dy521 O531 2.395 . S
Dy521 O532 2.379 . S
Dy521 O535 2.339 . S
Dy521 C551 2.738 . S
C522 O534 1.254 . S
C522 O535 1.257 . S
O523 Dy520 2.307 . S
O523 C533 1.266 . S
O524 Dy521 2.298 . S
O524 C533 1.236 . S
O525 Dy520 2.395 . S
O525 C542 1.255 . S
O526 Dy520 2.379 . S
O526 C542 1.249 . S
O527 Dy521 2.275 . S
O527 C543 1.254 . S
O528 Dy520 2.339 . S
O528 C543 1.257 . S
O529 Dy521 2.307 . S
O529 C544 1.266 . S
O530 Dy520 2.298 . S
O530 C544 1.236 . S
O531 Dy521 2.395 . S
O531 C551 1.255 . S
O532 Dy521 2.379 . S
O532 C551 1.249 . S
C533 O523 1.266 . S
C533 O524 1.236 . S
O534 Dy520 2.275 . S
O534 C522 1.254 . S
O535 Dy521 2.339 . S
O535 C522 1.257 . S
C536 C539 1.344 . S
C536 C540 1.328 . S
C536 C542 1.516 1_545 S
C537 C538 1.304 . S
C537 C541 1.323 . S
C538 C537 1.304 . S
C538 C539 1.371 . S
C538 H552 0.930 . S
C539 C536 1.344 . S
C539 C538 1.371 . S
C539 H553 0.931 . S
C540 C536 1.328 . S
C540 C541 1.433 . S
C540 H554 0.931 . S
C541 C537 1.323 . S
C541 C540 1.433 . S
C541 H555 0.933 . S
C542 Dy520 2.738 . S
C542 O525 1.255 . S
C542 O526 1.249 . S
C542 C536 1.516 1_565 S
C543 O527 1.254 . S
C543 O528 1.257 . S
C544 O529 1.266 . S
C544 O530 1.236 . S
C545 C548 1.344 . S
C545 C549 1.328 . S
C545 C551 1.516 . S
C546 C547 1.304 . S
C546 C550 1.323 . S
C547 C546 1.304 . S
C547 C548 1.371 . S
C547 H556 0.930 . S
C548 C545 1.344 . S
C548 C547 1.371 . S
C548 H557 0.931 . S
C549 C545 1.328 . S
C549 C550 1.433 . S
C549 H558 0.931 . S
C550 C546 1.323 . S
C550 C549 1.433 . S
C550 H559 0.933 . S
C551 Dy521 2.738 . S
C551 O531 1.255 . S
C551 O532 1.249 . S
C551 C545 1.516 . S
H552 C538 0.930 . S
H553 C539 0.931 . S
H554 C540 0.931 . S
H555 C541 0.933 . S
H556 C547 0.930 . S
H557 C548 0.931 . S
H558 C549 0.931 . S
H559 C550 0.933 . S
Dy560 O563 2.307 . S
Dy560 O565 2.395 . S
Dy560 O566 2.379 . S
Dy560 O568 2.339 . S
Dy560 O570 2.298 . S
Dy560 O574 2.275 . S
Dy560 C582 2.738 . S
Dy561 O564 2.298 . S
Dy561 O567 2.275 . S
Dy561 O569 2.307 . S
Dy561 O571 2.395 . S
Dy561 O572 2.379 . S
Dy561 O575 2.339 . S
Dy561 C591 2.738 . S
C562 O574 1.254 . S
C562 O575 1.257 . S
O563 Dy560 2.307 . S
O563 C573 1.266 . S
O564 Dy561 2.298 . S
O564 C573 1.236 . S
O565 Dy560 2.395 . S
O565 C582 1.255 . S
O566 Dy560 2.379 . S
O566 C582 1.249 . S
O567 Dy561 2.275 . S
O567 C583 1.254 . S
O568 Dy560 2.339 . S
O568 C583 1.257 . S
O569 Dy561 2.307 . S
O569 C584 1.266 . S
O570 Dy560 2.298 . S
O570 C584 1.236 . S
O571 Dy561 2.395 . S
O571 C591 1.255 . S
O572 Dy561 2.379 . S
O572 C591 1.249 . S
C573 O563 1.266 . S
C573 O564 1.236 . S
O574 Dy560 2.275 . S
O574 C562 1.254 . S
O575 Dy561 2.339 . S
O575 C562 1.257 . S
C576 C579 1.344 . S
C576 C580 1.328 . S
C576 C582 1.516 . S
C577 C578 1.304 1_655 S
C577 C581 1.323 . S
C578 C577 1.304 1_455 S
C578 C579 1.371 . S
C578 H592 0.930 1_455 S
C579 C576 1.344 . S
C579 C578 1.371 . S
C579 H593 0.931 . S
C580 C576 1.328 . S
C580 C581 1.433 1_455 S
C580 H594 0.931 . S
C581 C577 1.323 . S
C581 C580 1.433 1_655 S
C581 H595 0.933 . S
C582 Dy560 2.738 . S
C582 O565 1.255 . S
C582 O566 1.249 . S
C582 C576 1.516 . S
C583 O567 1.254 . S
C583 O568 1.257 . S
C584 O569 1.266 . S
C584 O570 1.236 . S
C585 C588 1.344 . S
C585 C589 1.328 . S
C585 C591 1.516 . S
C586 C587 1.304 . S
C586 C590 1.323 . S
C587 C586 1.304 . S
C587 C588 1.371 . S
C587 H596 0.930 . S
C588 C585 1.344 . S
C588 C587 1.371 . S
C588 H597 0.931 . S
C589 C585 1.328 . S
C589 C590 1.433 . S
C589 H598 0.931 . S
C590 C586 1.323 . S
C590 C589 1.433 . S
C590 H599 0.933 . S
C591 Dy561 2.738 . S
C591 O571 1.255 . S
C591 O572 1.249 . S
C591 C585 1.516 . S
H592 C578 0.930 1_655 S
H593 C579 0.931 . S
H594 C580 0.931 . S
H595 C581 0.933 . S
H596 C587 0.930 . S
H597 C588 0.931 . S
H598 C589 0.931 . S
H599 C590 0.933 . S
Dy600 O603 2.307 . S
Dy600 O605 2.395 . S
Dy600 O606 2.379 . S
Dy600 O608 2.339 . S
Dy600 O610 2.298 . S
Dy600 O614 2.275 . S
Dy600 C622 2.738 . S
Dy601 O604 2.298 . S
Dy601 O607 2.275 . S
Dy601 O609 2.307 . S
Dy601 O611 2.395 . S
Dy601 O612 2.379 . S
Dy601 O615 2.339 . S
Dy601 C631 2.738 . S
C602 O614 1.254 . S
C602 O615 1.257 . S
O603 Dy600 2.307 . S
O603 C613 1.266 . S
O604 Dy601 2.298 . S
O604 C613 1.236 . S
O605 Dy600 2.395 . S
O605 C622 1.255 . S
O606 Dy600 2.379 . S
O606 C622 1.249 . S
O607 Dy601 2.275 . S
O607 C623 1.254 . S
O608 Dy600 2.339 . S
O608 C623 1.257 . S
O609 Dy601 2.307 . S
O609 C624 1.266 . S
O610 Dy600 2.298 . S
O610 C624 1.236 . S
O611 Dy601 2.395 . S
O611 C631 1.255 . S
O612 Dy601 2.379 . S
O612 C631 1.249 . S
C613 O603 1.266 . S
C613 O604 1.236 . S
O614 Dy600 2.275 . S
O614 C602 1.254 . S
O615 Dy601 2.339 . S
O615 C602 1.257 . S
C616 C619 1.344 . S
C616 C620 1.328 . S
C616 C622 1.516 . S
C617 C618 1.304 . S
C617 C621 1.323 . S
C618 C617 1.304 . S
C618 C619 1.371 . S
C618 H632 0.930 . S
C619 C616 1.344 . S
C619 C618 1.371 . S
C619 H633 0.931 . S
C620 C616 1.328 . S
C620 C621 1.433 . S
C620 H634 0.931 . S
C621 C617 1.323 . S
C621 C620 1.433 . S
C621 H635 0.933 . S
C622 Dy600 2.738 . S
C622 O605 1.255 . S
C622 O606 1.249 . S
C622 C616 1.516 . S
C623 O607 1.254 . S
C623 O608 1.257 . S
C624 O609 1.266 . S
C624 O610 1.236 . S
C625 C628 1.344 . S
C625 C629 1.328 . S
C625 C631 1.516 . S
C626 C627 1.304 . S
C626 C630 1.323 . S
C627 C626 1.304 . S
C627 C628 1.371 . S
C627 H636 0.930 . S
C628 C625 1.344 . S
C628 C627 1.371 . S
C628 H637 0.931 . S
C629 C625 1.328 . S
C629 C630 1.433 . S
C629 H638 0.931 . S
C630 C626 1.323 . S
C630 C629 1.433 . S
C630 H639 0.933 . S
C631 Dy601 2.738 . S
C631 O611 1.255 . S
C631 O612 1.249 . S
C631 C625 1.516 . S
H632 C618 0.930 . S
H633 C619 0.931 . S
H634 C620 0.931 . S
H635 C621 0.933 . S
H636 C627 0.930 . S
H637 C628 0.931 . S
H638 C629 0.931 . S
H639 C630 0.933 . S
Dy640 O643 2.307 . S
Dy640 O645 2.395 . S
Dy640 O646 2.379 . S
Dy640 O648 2.339 . S
Dy640 O650 2.298 . S
Dy640 O654 2.275 . S
Dy640 C662 2.738 . S
Dy641 O644 2.298 . S
Dy641 O647 2.275 . S
Dy641 O649 2.307 . S
Dy641 O651 2.395 1_565 S
Dy641 O652 2.379 1_565 S
Dy641 O655 2.339 . S
Dy641 C671 2.738 1_565 S
C642 O654 1.254 . S
C642 O655 1.257 . S
O643 Dy640 2.307 . S
O643 C653 1.266 . S
O644 Dy641 2.298 . S
O644 C653 1.236 . S
O645 Dy640 2.395 . S
O645 C662 1.255 . S
O646 Dy640 2.379 . S
O646 C662 1.249 . S
O647 Dy641 2.275 . S
O647 C663 1.254 . S
O648 Dy640 2.339 . S
O648 C663 1.257 . S
O649 Dy641 2.307 . S
O649 C664 1.266 . S
O650 Dy640 2.298 . S
O650 C664 1.236 . S
O651 Dy641 2.395 1_545 S
O651 C671 1.255 . S
O652 Dy641 2.379 1_545 S
O652 C671 1.249 . S
C653 O643 1.266 . S
C653 O644 1.236 . S
O654 Dy640 2.275 . S
O654 C642 1.254 . S
O655 Dy641 2.339 . S
O655 C642 1.257 . S
C656 C659 1.344 . S
C656 C660 1.328 . S
C656 C662 1.516 . S
C657 C658 1.304 . S
C657 C661 1.323 . S
C658 C657 1.304 . S
C658 C659 1.371 . S
C658 H672 0.930 . S
C659 C656 1.344 . S
C659 C658 1.371 . S
C659 H673 0.931 . S
C660 C656 1.328 . S
C660 C661 1.433 . S
C660 H674 0.931 . S
C661 C657 1.323 . S
C661 C660 1.433 . S
C661 H675 0.933 . S
C662 Dy640 2.738 . S
C662 O645 1.255 . S
C662 O646 1.249 . S
C662 C656 1.516 . S
C663 O647 1.254 . S
C663 O648 1.257 . S
C664 O649 1.266 . S
C664 O650 1.236 . S
C665 C668 1.344 . S
C665 C669 1.328 . S
C665 C671 1.516 . S
C666 C667 1.304 . S
C666 C670 1.323 . S
C667 C666 1.304 . S
C667 C668 1.371 . S
C667 H676 0.930 . S
C668 C665 1.344 . S
C668 C667 1.371 . S
C668 H677 0.931 . S
C669 C665 1.328 . S
C669 C670 1.433 . S
C669 H678 0.931 . S
C670 C666 1.323 . S
C670 C669 1.433 . S
C670 H679 0.933 . S
C671 Dy641 2.738 1_545 S
C671 O651 1.255 . S
C671 O652 1.249 . S
C671 C665 1.516 . S
H672 C658 0.930 . S
H673 C659 0.931 . S
H674 C660 0.931 . S
H675 C661 0.933 . S
H676 C667 0.930 . S
H677 C668 0.931 . S
H678 C669 0.931 . S
H679 C670 0.933 . S
Dy680 O683 2.307 . S
Dy680 O685 2.395 . S
Dy680 O686 2.379 . S
Dy680 O688 2.339 . S
Dy680 O690 2.298 . S
Dy680 O694 2.275 . S
Dy680 C702 2.738 . S
Dy681 O684 2.298 . S
Dy681 O687 2.275 . S
Dy681 O689 2.307 . S
Dy681 O691 2.395 . S
Dy681 O692 2.379 . S
Dy681 O695 2.339 . S
Dy681 C711 2.738 . S
C682 O694 1.254 . S
C682 O695 1.257 . S
O683 Dy680 2.307 . S
O683 C693 1.266 . S
O684 Dy681 2.298 . S
O684 C693 1.236 . S
O685 Dy680 2.395 . S
O685 C702 1.255 . S
O686 Dy680 2.379 . S
O686 C702 1.249 . S
O687 Dy681 2.275 . S
O687 C703 1.254 . S
O688 Dy680 2.339 . S
O688 C703 1.257 . S
O689 Dy681 2.307 . S
O689 C704 1.266 . S
O690 Dy680 2.298 . S
O690 C704 1.236 . S
O691 Dy681 2.395 . S
O691 C711 1.255 . S
O692 Dy681 2.379 . S
O692 C711 1.249 . S
C693 O683 1.266 . S
C693 O684 1.236 . S
O694 Dy680 2.275 . S
O694 C682 1.254 . S
O695 Dy681 2.339 . S
O695 C682 1.257 . S
C696 C699 1.344 . S
C696 C700 1.328 . S
C696 C702 1.516 . S
C697 C698 1.304 . S
C697 C701 1.323 . S
C698 C697 1.304 . S
C698 C699 1.371 . S
C698 H712 0.930 . S
C699 C696 1.344 . S
C699 C698 1.371 . S
C699 H713 0.931 . S
C700 C696 1.328 . S
C700 C701 1.433 . S
C700 H714 0.931 . S
C701 C697 1.323 . S
C701 C700 1.433 . S
C701 H715 0.933 . S
C702 Dy680 2.738 . S
C702 O685 1.255 . S
C702 O686 1.249 . S
C702 C696 1.516 . S
C703 O687 1.254 . S
C703 O688 1.257 . S
C704 O689 1.266 . S
C704 O690 1.236 . S
C705 C708 1.344 1_455 S
C705 C709 1.328 1_455 S
C705 C711 1.516 . S
C706 C707 1.304 . S
C706 C710 1.323 . S
C707 C706 1.304 . S
C707 C708 1.371 . S
C707 H716 0.930 . S
C708 C705 1.344 1_655 S
C708 C707 1.371 . S
C708 H717 0.931 1_655 S
C709 C705 1.328 1_655 S
C709 C710 1.433 . S
C709 H718 0.931 . S
C710 C706 1.323 . S
C710 C709 1.433 . S
C710 H719 0.933 . S
C711 Dy681 2.738 . S
C711 O691 1.255 . S
C711 O692 1.249 . S
C711 C705 1.516 . S
H712 C698 0.930 . S
H713 C699 0.931 . S
H714 C700 0.931 . S
H715 C701 0.933 . S
H716 C707 0.930 . S
H717 C708 0.931 1_455 S
H718 C709 0.931 . S
H719 C710 0.933 . S
Dy720 O723 2.307 . S
Dy720 O725 2.395 . S
Dy720 O726 2.379 . S
Dy720 O728 2.339 . S
Dy720 O730 2.298 . S
Dy720 O734 2.275 . S
Dy720 C742 2.738 . S
Dy721 O724 2.298 . S
Dy721 O727 2.275 . S
Dy721 O729 2.307 . S
Dy721 O731 2.395 . S
Dy721 O732 2.379 . S
Dy721 O735 2.339 . S
Dy721 C751 2.738 . S
C722 O734 1.254 . S
C722 O735 1.257 . S
O723 Dy720 2.307 . S
O723 C733 1.266 . S
O724 Dy721 2.298 . S
O724 C733 1.236 . S
O725 Dy720 2.395 . S
O725 C742 1.255 . S
O726 Dy720 2.379 . S
O726 C742 1.249 . S
O727 Dy721 2.275 . S
O727 C743 1.254 . S
O728 Dy720 2.339 . S
O728 C743 1.257 . S
O729 Dy721 2.307 . S
O729 C744 1.266 . S
O730 Dy720 2.298 . S
O730 C744 1.236 . S
O731 Dy721 2.395 . S
O731 C751 1.255 . S
O732 Dy721 2.379 . S
O732 C751 1.249 . S
C733 O723 1.266 . S
C733 O724 1.236 . S
O734 Dy720 2.275 . S
O734 C722 1.254 . S
O735 Dy721 2.339 . S
O735 C722 1.257 . S
C736 C739 1.344 . S
C736 C740 1.328 . S
C736 C742 1.516 . S
C737 C738 1.304 . S
C737 C741 1.323 . S
C738 C737 1.304 . S
C738 C739 1.371 . S
C738 H752 0.930 . S
C739 C736 1.344 . S
C739 C738 1.371 . S
C739 H753 0.931 . S
C740 C736 1.328 . S
C740 C741 1.433 . S
C740 H754 0.931 . S
C741 C737 1.323 . S
C741 C740 1.433 . S
C741 H755 0.933 . S
C742 Dy720 2.738 . S
C742 O725 1.255 . S
C742 O726 1.249 . S
C742 C736 1.516 . S
C743 O727 1.254 . S
C743 O728 1.257 . S
C744 O729 1.266 . S
C744 O730 1.236 . S
C745 C748 1.344 . S
C745 C749 1.328 . S
C745 C751 1.516 . S
C746 C747 1.304 . S
C746 C750 1.323 . S
C747 C746 1.304 . S
C747 C748 1.371 . S
C747 H756 0.930 . S
C748 C745 1.344 . S
C748 C747 1.371 . S
C748 H757 0.931 . S
C749 C745 1.328 . S
C749 C750 1.433 . S
C749 H758 0.931 . S
C750 C746 1.323 . S
C750 C749 1.433 . S
C750 H759 0.933 . S
C751 Dy721 2.738 . S
C751 O731 1.255 . S
C751 O732 1.249 . S
C751 C745 1.516 . S
H752 C738 0.930 . S
H753 C739 0.931 . S
H754 C740 0.931 . S
H755 C741 0.933 . S
H756 C747 0.930 . S
H757 C748 0.931 . S
H758 C749 0.931 . S
H759 C750 0.933 . S
Dy760 O763 2.307 . S
Dy760 O765 2.395 1_565 S
Dy760 O766 2.379 1_565 S
Dy760 O768 2.339 . S
Dy760 O770 2.298 . S
Dy760 O774 2.275 . S
Dy760 C782 2.738 1_565 S
Dy761 O764 2.298 . S
Dy761 O767 2.275 . S
Dy761 O769 2.307 . S
Dy761 O771 2.395 . S
Dy761 O772 2.379 . S
Dy761 O775 2.339 . S
Dy761 C791 2.738 . S
C762 O774 1.254 . S
C762 O775 1.257 . S
O763 Dy760 2.307 . S
O763 C773 1.266 . S
O764 Dy761 2.298 . S
O764 C773 1.236 . S
O765 Dy760 2.395 1_545 S
O765 C782 1.255 . S
O766 Dy760 2.379 1_545 S
O766 C782 1.249 . S
O767 Dy761 2.275 . S
O767 C783 1.254 . S
O768 Dy760 2.339 . S
O768 C783 1.257 . S
O769 Dy761 2.307 . S
O769 C784 1.266 . S
O770 Dy760 2.298 . S
O770 C784 1.236 . S
O771 Dy761 2.395 . S
O771 C791 1.255 . S
O772 Dy761 2.379 . S
O772 C791 1.249 . S
C773 O763 1.266 . S
C773 O764 1.236 . S
O774 Dy760 2.275 . S
O774 C762 1.254 . S
O775 Dy761 2.339 . S
O775 C762 1.257 . S
C776 C779 1.344 . S
C776 C780 1.328 . S
C776 C782 1.516 . S
C777 C778 1.304 . S
C777 C781 1.323 . S
C778 C777 1.304 . S
C778 C779 1.371 . S
C778 H792 0.930 . S
C779 C776 1.344 . S
C779 C778 1.371 . S
C779 H793 0.931 . S
C780 C776 1.328 . S
C780 C781 1.433 . S
C780 H794 0.931 . S
C781 C777 1.323 . S
C781 C780 1.433 . S
C781 H795 0.933 . S
C782 Dy760 2.738 1_545 S
C782 O765 1.255 . S
C782 O766 1.249 . S
C782 C776 1.516 . S
C783 O767 1.254 . S
C783 O768 1.257 . S
C784 O769 1.266 . S
C784 O770 1.236 . S
C785 C788 1.344 . S
C785 C789 1.328 . S
C785 C791 1.516 . S
C786 C787 1.304 . S
C786 C790 1.323 . S
C787 C786 1.304 . S
C787 C788 1.371 . S
C787 H796 0.930 . S
C788 C785 1.344 . S
C788 C787 1.371 . S
C788 H797 0.931 . S
C789 C785 1.328 . S
C789 C790 1.433 . S
C789 H798 0.931 . S
C790 C786 1.323 . S
C790 C789 1.433 . S
C790 H799 0.933 . S
C791 Dy761 2.738 . S
C791 O771 1.255 . S
C791 O772 1.249 . S
C791 C785 1.516 . S
H792 C778 0.930 . S
H793 C779 0.931 . S
H794 C780 0.931 . S
H795 C781 0.933 . S
H796 C787 0.930 . S
H797 C788 0.931 . S
H798 C789 0.931 . S
H799 C790 0.933 . S
Dy800 O803 2.307 . S
Dy800 O805 2.395 . S
Dy800 O806 2.379 . S
Dy800 O808 2.339 . S
Dy800 O810 2.298 . S
Dy800 O814 2.275 . S
Dy800 C822 2.738 . S
Dy801 O804 2.298 . S
Dy801 O807 2.275 . S
Dy801 O809 2.307 . S
Dy801 O811 2.395 . S
Dy801 O812 2.379 . S
Dy801 O815 2.339 . S
Dy801 C831 2.738 . S
C802 O814 1.254 . S
C802 O815 1.257 . S
O803 Dy800 2.307 . S
O803 C813 1.266 . S
O804 Dy801 2.298 . S
O804 C813 1.236 . S
O805 Dy800 2.395 . S
O805 C822 1.255 . S
O806 Dy800 2.379 . S
O806 C822 1.249 . S
O807 Dy801 2.275 . S
O807 C823 1.254 . S
O808 Dy800 2.339 . S
O808 C823 1.257 . S
O809 Dy801 2.307 . S
O809 C824 1.266 . S
O810 Dy800 2.298 . S
O810 C824 1.236 . S
O811 Dy801 2.395 . S
O811 C831 1.255 . S
O812 Dy801 2.379 . S
O812 C831 1.249 . S
C813 O803 1.266 . S
C813 O804 1.236 . S
O814 Dy800 2.275 . S
O814 C802 1.254 . S
O815 Dy801 2.339 . S
O815 C802 1.257 . S
C816 C819 1.344 1_455 S
C816 C820 1.328 1_455 S
C816 C822 1.516 . S
C817 C818 1.304 . S
C817 C821 1.323 . S
C818 C817 1.304 . S
C818 C819 1.371 . S
C818 H832 0.930 . S
C819 C816 1.344 1_655 S
C819 C818 1.371 . S
C819 H833 0.931 1_655 S
C820 C816 1.328 1_655 S
C820 C821 1.433 . S
C820 H834 0.931 . S
C821 C817 1.323 . S
C821 C820 1.433 . S
C821 H835 0.933 . S
C822 Dy800 2.738 . S
C822 O805 1.255 . S
C822 O806 1.249 . S
C822 C816 1.516 . S
C823 O807 1.254 . S
C823 O808 1.257 . S
C824 O809 1.266 . S
C824 O810 1.236 . S
C825 C828 1.344 . S
C825 C829 1.328 . S
C825 C831 1.516 . S
C826 C827 1.304 . S
C826 C830 1.323 . S
C827 C826 1.304 . S
C827 C828 1.371 . S
C827 H836 0.930 . S
C828 C825 1.344 . S
C828 C827 1.371 . S
C828 H837 0.931 . S
C829 C825 1.328 . S
C829 C830 1.433 . S
C829 H838 0.931 . S
C830 C826 1.323 . S
C830 C829 1.433 . S
C830 H839 0.933 . S
C831 Dy801 2.738 . S
C831 O811 1.255 . S
C831 O812 1.249 . S
C831 C825 1.516 . S
H832 C818 0.930 . S
H833 C819 0.931 1_455 S
H834 C820 0.931 . S
H835 C821 0.933 . S
H836 C827 0.930 . S
H837 C828 0.931 . S
H838 C829 0.931 . S
H839 C830 0.933 . S
Dy840 O843 2.307 . S
Dy840 O845 2.395 . S
Dy840 O846 2.379 . S
Dy840 O848 2.339 . S
Dy840 O850 2.298 . S
Dy840 O854 2.275 . S
Dy840 C862 2.738 . S
Dy841 O844 2.298 . S
Dy841 O847 2.275 . S
Dy841 O849 2.307 . S
Dy841 O851 2.395 . S
Dy841 O852 2.379 . S
Dy841 O855 2.339 . S
Dy841 C871 2.738 . S
C842 O854 1.254 . S
C842 O855 1.257 . S
O843 Dy840 2.307 . S
O843 C853 1.266 . S
O844 Dy841 2.298 . S
O844 C853 1.236 . S
O845 Dy840 2.395 . S
O845 C862 1.255 . S
O846 Dy840 2.379 . S
O846 C862 1.249 . S
O847 Dy841 2.275 . S
O847 C863 1.254 . S
O848 Dy840 2.339 . S
O848 C863 1.257 . S
O849 Dy841 2.307 . S
O849 C864 1.266 . S
O850 Dy840 2.298 . S
O850 C864 1.236 . S
O851 Dy841 2.395 . S
O851 C871 1.255 . S
O852 Dy841 2.379 . S
O852 C871 1.249 . S
C853 O843 1.266 . S
C853 O844 1.236 . S
O854 Dy840 2.275 . S
O854 C842 1.254 . S
O855 Dy841 2.339 . S
O855 C842 1.257 . S
C856 C859 1.344 . S
C856 C860 1.328 . S
C856 C862 1.516 . S
C857 C858 1.304 . S
C857 C861 1.323 . S
C858 C857 1.304 . S
C858 C859 1.371 . S
C858 H872 0.930 . S
C859 C856 1.344 . S
C859 C858 1.371 . S
C859 H873 0.931 . S
C860 C856 1.328 . S
C860 C861 1.433 . S
C860 H874 0.931 . S
C861 C857 1.323 . S
C861 C860 1.433 . S
C861 H875 0.933 . S
C862 Dy840 2.738 . S
C862 O845 1.255 . S
C862 O846 1.249 . S
C862 C856 1.516 . S
C863 O847 1.254 . S
C863 O848 1.257 . S
C864 O849 1.266 . S
C864 O850 1.236 . S
C865 C868 1.344 . S
C865 C869 1.328 . S
C865 C871 1.516 . S
C866 C867 1.304 . S
C866 C870 1.323 . S
C867 C866 1.304 . S
C867 C868 1.371 . S
C867 H876 0.930 . S
C868 C865 1.344 . S
C868 C867 1.371 . S
C868 H877 0.931 . S
C869 C865 1.328 . S
C869 C870 1.433 . S
C869 H878 0.931 . S
C870 C866 1.323 . S
C870 C869 1.433 . S
C870 H879 0.933 . S
C871 Dy841 2.738 . S
C871 O851 1.255 . S
C871 O852 1.249 . S
C871 C865 1.516 . S
H872 C858 0.930 . S
H873 C859 0.931 . S
H874 C860 0.931 . S
H875 C861 0.933 . S
H876 C867 0.930 . S
H877 C868 0.931 . S
H878 C869 0.931 . S
H879 C870 0.933 . S
Dy880 O883 2.307 . S
Dy880 O885 2.395 . S
Dy880 O886 2.379 . S
Dy880 O888 2.339 . S
Dy880 O890 2.298 . S
Dy880 O894 2.275 . S
Dy880 C902 2.738 . S
Dy881 O884 2.298 . S
Dy881 O887 2.275 . S
Dy881 O889 2.307 . S
Dy881 O891 2.395 . S
Dy881 O892 2.379 . S
Dy881 O895 2.339 . S
Dy881 C911 2.738 . S
C882 O894 1.254 . S
C882 O895 1.257 . S
O883 Dy880 2.307 . S
O883 C893 1.266 . S
O884 Dy881 2.298 . S
O884 C893 1.236 . S
O885 Dy880 2.395 . S
O885 C902 1.255 . S
O886 Dy880 2.379 . S
O886 C902 1.249 . S
O887 Dy881 2.275 . S
O887 C903 1.254 . S
O888 Dy880 2.339 . S
O888 C903 1.257 . S
O889 Dy881 2.307 . S
O889 C904 1.266 . S
O890 Dy880 2.298 . S
O890 C904 1.236 . S
O891 Dy881 2.395 . S
O891 C911 1.255 . S
O892 Dy881 2.379 . S
O892 C911 1.249 . S
C893 O883 1.266 . S
C893 O884 1.236 . S
O894 Dy880 2.275 . S
O894 C882 1.254 . S
O895 Dy881 2.339 . S
O895 C882 1.257 . S
C896 C899 1.344 . S
C896 C900 1.328 . S
C896 C902 1.516 . S
C897 C898 1.304 . S
C897 C901 1.323 . S
C898 C897 1.304 . S
C898 C899 1.371 . S
C898 H912 0.930 . S
C899 C896 1.344 . S
C899 C898 1.371 . S
C899 H913 0.931 . S
C900 C896 1.328 . S
C900 C901 1.433 . S
C900 H914 0.931 . S
C901 C897 1.323 . S
C901 C900 1.433 . S
C901 H915 0.933 . S
C902 Dy880 2.738 . S
C902 O885 1.255 . S
C902 O886 1.249 . S
C902 C896 1.516 . S
C903 O887 1.254 . S
C903 O888 1.257 . S
C904 O889 1.266 . S
C904 O890 1.236 . S
C905 C908 1.344 . S
C905 C909 1.328 . S
C905 C911 1.516 1_545 S
C906 C907 1.304 . S
C906 C910 1.323 . S
C907 C906 1.304 . S
C907 C908 1.371 . S
C907 H916 0.930 . S
C908 C905 1.344 . S
C908 C907 1.371 . S
C908 H917 0.931 . S
C909 C905 1.328 . S
C909 C910 1.433 . S
C909 H918 0.931 . S
C910 C906 1.323 . S
C910 C909 1.433 . S
C910 H919 0.933 . S
C911 Dy881 2.738 . S
C911 O891 1.255 . S
C911 O892 1.249 . S
C911 C905 1.516 1_565 S
H912 C898 0.930 . S
H913 C899 0.931 . S
H914 C900 0.931 . S
H915 C901 0.933 . S
H916 C907 0.930 . S
H917 C908 0.931 . S
H918 C909 0.931 . S
H919 C910 0.933 . S
Dy920 O923 2.307 . S
Dy920 O925 2.395 . S
Dy920 O926 2.379 . S
Dy920 O928 2.339 . S
Dy920 O930 2.298 . S
Dy920 O934 2.275 . S
Dy920 C942 2.738 . S
Dy921 O924 2.298 . S
Dy921 O927 2.275 . S
Dy921 O929 2.307 . S
Dy921 O931 2.395 . S
Dy921 O932 2.379 . S
Dy921 O935 2.339 . S
Dy921 C951 2.738 . S
C922 O934 1.254 . S
C922 O935 1.257 . S
O923 Dy920 2.307 . S
O923 C933 1.266 . S
O924 Dy921 2.298 . S
O924 C933 1.236 . S
O925 Dy920 2.395 . S
O925 C942 1.255 . S
O926 Dy920 2.379 . S
O926 C942 1.249 . S
O927 Dy921 2.275 . S
O927 C943 1.254 . S
O928 Dy920 2.339 . S
O928 C943 1.257 . S
O929 Dy921 2.307 . S
O929 C944 1.266 . S
O930 Dy920 2.298 . S
O930 C944 1.236 . S
O931 Dy921 2.395 . S
O931 C951 1.255 . S
O932 Dy921 2.379 . S
O932 C951 1.249 . S
C933 O923 1.266 . S
C933 O924 1.236 . S
O934 Dy920 2.275 . S
O934 C922 1.254 . S
O935 Dy921 2.339 . S
O935 C922 1.257 . S
C936 C939 1.344 . S
C936 C940 1.328 . S
C936 C942 1.516 . S
C937 C938 1.304 . S
C937 C941 1.323 . S
C938 C937 1.304 . S
C938 C939 1.371 . S
C938 H952 0.930 . S
C939 C936 1.344 . S
C939 C938 1.371 . S
C939 H953 0.931 . S
C940 C936 1.328 . S
C940 C941 1.433 . S
C940 H954 0.931 . S
C941 C937 1.323 . S
C941 C940 1.433 . S
C941 H955 0.933 . S
C942 Dy920 2.738 . S
C942 O925 1.255 . S
C942 O926 1.249 . S
C942 C936 1.516 . S
C943 O927 1.254 . S
C943 O928 1.257 . S
C944 O929 1.266 . S
C944 O930 1.236 . S
C945 C948 1.344 . S
C945 C949 1.328 . S
C945 C951 1.516 . S
C946 C947 1.304 1_655 S
C946 C950 1.323 . S
C947 C946 1.304 1_455 S
C947 C948 1.371 . S
C947 H956 0.930 1_455 S
C948 C945 1.344 . S
C948 C947 1.371 . S
C948 H957 0.931 . S
C949 C945 1.328 . S
C949 C950 1.433 1_455 S
C949 H958 0.931 . S
C950 C946 1.323 . S
C950 C949 1.433 1_655 S
C950 H959 0.933 . S
C951 Dy921 2.738 . S
C951 O931 1.255 . S
C951 O932 1.249 . S
C951 C945 1.516 . S
H952 C938 0.930 . S
H953 C939 0.931 . S
H954 C940 0.931 . S
H955 C941 0.933 . S
H956 C947 0.930 1_655 S
H957 C948 0.931 . S
H958 C949 0.931 . S
H959 C950 0.933 . S
Dy960 O963 2.307 . S
Dy960 O965 2.395 . S
Dy960 O966 2.379 . S
Dy960 O968 2.339 . S
Dy960 O970 2.298 . S
Dy960 O974 2.275 . S
Dy960 C982 2.738 . S
Dy961 O964 2.298 . S
Dy961 O967 2.275 . S
Dy961 O969 2.307 . S
Dy961 O971 2.395 . S
Dy961 O972 2.379 . S
Dy961 O975 2.339 . S
Dy961 C991 2.738 . S
C962 O974 1.254 . S
C962 O975 1.257 . S
O963 Dy960 2.307 . S
O963 C973 1.266 . S
O964 Dy961 2.298 . S
O964 C973 1.236 . S
O965 Dy960 2.395 . S
O965 C982 1.255 . S
O966 Dy960 2.379 . S
O966 C982 1.249 . S
O967 Dy961 2.275 . S
O967 C983 1.254 . S
O968 Dy960 2.339 . S
O968 C983 1.257 . S
O969 Dy961 2.307 . S
O969 C984 1.266 . S
O970 Dy960 2.298 . S
O970 C984 1.236 . S
O971 Dy961 2.395 . S
O971 C991 1.255 . S
O972 Dy961 2.379 . S
O972 C991 1.249 . S
C973 O963 1.266 . S
C973 O964 1.236 . S
O974 Dy960 2.275 . S
O974 C962 1.254 . S
O975 Dy961 2.339 . S
O975 C962 1.257 . S
C976 C979 1.344 . S
C976 C980 1.328 . S
C976 C982 1.516 . S
C977 C978 1.304 . S
C977 C981 1.323 . S
C978 C977 1.304 . S
C978 C979 1.371 . S
C978 H992 0.930 . S
C979 C976 1.344 . S
C979 C978 1.371 . S
C979 H993 0.931 . S
C980 C976 1.328 . S
C980 C981 1.433 . S
C980 H994 0.931 . S
C981 C977 1.323 . S
C981 C980 1.433 . S
C981 H995 0.933 . S
C982 Dy960 2.738 . S
C982 O965 1.255 . S
C982 O966 1.249 . S
C982 C976 1.516 . S
C983 O967 1.254 . S
C983 O968 1.257 . S
C984 O969 1.266 . S
C984 O970 1.236 . S
C985 C988 1.344 . S
C985 C989 1.328 . S
C985 C991 1.516 . S
C986 C987 1.304 . S
C986 C990 1.323 . S
C987 C986 1.304 . S
C987 C988 1.371 . S
C987 H996 0.930 . S
C988 C985 1.344 . S
C988 C987 1.371 . S
C988 H997 0.931 . S
C989 C985 1.328 . S
C989 C990 1.433 . S
C989 H998 0.931 . S
C990 C986 1.323 . S
C990 C989 1.433 . S
C990 H999 0.933 . S
C991 Dy961 2.738 . S
C991 O971 1.255 . S
C991 O972 1.249 . S
C991 C985 1.516 . S
H992 C978 0.930 . S
H993 C979 0.931 . S
H994 C980 0.931 . S
H995 C981 0.933 . S
H996 C987 0.930 . S
H997 C988 0.931 . S
H998 C989 0.931 . S
H999 C990 0.933 . S
Dy1000 O1003 2.307 . S
Dy1000 O1005 2.395 . S
Dy1000 O1006 2.379 . S
Dy1000 O1008 2.339 . S
Dy1000 O1010 2.298 . S
Dy1000 O1014 2.275 . S
Dy1000 C1022 2.738 . S
Dy1001 O1004 2.298 . S
Dy1001 O1007 2.275 . S
Dy1001 O1009 2.307 . S
Dy1001 O1011 2.395 . S
Dy1001 O1012 2.379 . S
Dy1001 O1015 2.339 . S
Dy1001 C1031 2.738 . S
C1002 O1014 1.254 . S
C1002 O1015 1.257 . S
O1003 Dy1000 2.307 . S
O1003 C1013 1.266 . S
O1004 Dy1001 2.298 . S
O1004 C1013 1.236 . S
O1005 Dy1000 2.395 . S
O1005 C1022 1.255 . S
O1006 Dy1000 2.379 . S
O1006 C1022 1.249 . S
O1007 Dy1001 2.275 . S
O1007 C1023 1.254 . S
O1008 Dy1000 2.339 . S
O1008 C1023 1.257 . S
O1009 Dy1001 2.307 . S
O1009 C1024 1.266 . S
O1010 Dy1000 2.298 . S
O1010 C1024 1.236 . S
O1011 Dy1001 2.395 . S
O1011 C1031 1.255 . S
O1012 Dy1001 2.379 . S
O1012 C1031 1.249 . S
C1013 O1003 1.266 . S
C1013 O1004 1.236 . S
O1014 Dy1000 2.275 . S
O1014 C1002 1.254 . S
O1015 Dy1001 2.339 . S
O1015 C1002 1.257 . S
C1016 C1019 1.344 . S
C1016 C1020 1.328 . S
C1016 C1022 1.516 . S
C1017 C1018 1.304 . S
C1017 C1021 1.323 . S
C1018 C1017 1.304 . S
C1018 C1019 1.371 . S
C1018 H1032 0.930 . S
C1019 C1016 1.344 . S
C1019 C1018 1.371 . S
C1019 H1033 0.931 . S
C1020 C1016 1.328 . S
C1020 C1021 1.433 . S
C1020 H1034 0.931 . S
C1021 C1017 1.323 . S
C1021 C1020 1.433 . S
C1021 H1035 0.933 . S
C1022 Dy1000 2.738 . S
C1022 O1005 1.255 . S
C1022 O1006 1.249 . S
C1022 C1016 1.516 . S
C1023 O1007 1.254 . S
C1023 O1008 1.257 . S
C1024 O1009 1.266 . S
C1024 O1010 1.236 . S
C1025 C1028 1.344 1_545 S
C1025 C1029 1.328 1_545 S
C1025 C1031 1.516 . S
C1026 C1027 1.304 . S
C1026 C1030 1.323 . S
C1027 C1026 1.304 . S
C1027 C1028 1.371 . S
C1027 H1036 0.930 . S
C1028 C1025 1.344 1_565 S
C1028 C1027 1.371 . S
C1028 H1037 0.931 1_565 S
C1029 C1025 1.328 1_565 S
C1029 C1030 1.433 . S
C1029 H1038 0.931 . S
C1030 C1026 1.323 . S
C1030 C1029 1.433 . S
C1030 H1039 0.933 . S
C1031 Dy1001 2.738 . S
C1031 O1011 1.255 . S
C1031 O1012 1.249 . S
C1031 C1025 1.516 . S
H1032 C1018 0.930 . S
H1033 C1019 0.931 . S
H1034 C1020 0.931 . S
H1035 C1021 0.933 . S
H1036 C1027 0.930 . S
H1037 C1028 0.931 1_545 S
H1038 C1029 0.931 . S
H1039 C1030 0.933 . S
Dy1040 O1043 2.307 . S
Dy1040 O1045 2.395 . S
Dy1040 O1046 2.379 . S
Dy1040 O1048 2.339 . S
Dy1040 O1050 2.298 . S
Dy1040 O1054 2.275 . S
Dy1040 C1062 2.738 . S
Dy1041 O1044 2.298 . S
Dy1041 O1047 2.275 . S
Dy1041 O1049 2.307 . S
Dy1041 O1051 2.395 1_655 S
Dy1041 O1052 2.379 1_655 S
Dy1041 O1055 2.339 . S
Dy1041 C1071 2.738 1_655 S
C1042 O1054 1.254 . S
C1042 O1055 1.257 . S
O1043 Dy1040 2.307 . S
O1043 C1053 1.266 . S
O1044 Dy1041 2.298 . S
O1044 C1053 1.236 . S
O1045 Dy1040 2.395 . S
O1045 C1062 1.255 . S
O1046 Dy1040 2.379 . S
O1046 C1062 1.249 . S
O1047 Dy1041 2.275 . S
O1047 C1063 1.254 . S
O1048 Dy1040 2.339 . S
O1048 C1063 1.257 . S
O1049 Dy1041 2.307 . S
O1049 C1064 1.266 . S
O1050 Dy1040 2.298 . S
O1050 C1064 1.236 . S
O1051 Dy1041 2.395 1_455 S
O1051 C1071 1.255 . S
O1052 Dy1041 2.379 1_455 S
O1052 C1071 1.249 . S
C1053 O1043 1.266 . S
C1053 O1044 1.236 . S
O1054 Dy1040 2.275 . S
O1054 C1042 1.254 . S
O1055 Dy1041 2.339 . S
O1055 C1042 1.257 . S
C1056 C1059 1.344 . S
C1056 C1060 1.328 . S
C1056 C1062 1.516 . S
C1057 C1058 1.304 . S
C1057 C1061 1.323 . S
C1058 C1057 1.304 . S
C1058 C1059 1.371 . S
C1058 H1072 0.930 . S
C1059 C1056 1.344 . S
C1059 C1058 1.371 . S
C1059 H1073 0.931 . S
C1060 C1056 1.328 . S
C1060 C1061 1.433 . S
C1060 H1074 0.931 . S
C1061 C1057 1.323 . S
C1061 C1060 1.433 . S
C1061 H1075 0.933 . S
C1062 Dy1040 2.738 . S
C1062 O1045 1.255 . S
C1062 O1046 1.249 . S
C1062 C1056 1.516 . S
C1063 O1047 1.254 . S
C1063 O1048 1.257 . S
C1064 O1049 1.266 . S
C1064 O1050 1.236 . S
C1065 C1068 1.344 . S
C1065 C1069 1.328 . S
C1065 C1071 1.516 . S
C1066 C1067 1.304 . S
C1066 C1070 1.323 . S
C1067 C1066 1.304 . S
C1067 C1068 1.371 . S
C1067 H1076 0.930 . S
C1068 C1065 1.344 . S
C1068 C1067 1.371 . S
C1068 H1077 0.931 . S
C1069 C1065 1.328 . S
C1069 C1070 1.433 . S
C1069 H1078 0.931 . S
C1070 C1066 1.323 . S
C1070 C1069 1.433 . S
C1070 H1079 0.933 . S
C1071 Dy1041 2.738 1_455 S
C1071 O1051 1.255 . S
C1071 O1052 1.249 . S
C1071 C1065 1.516 . S
H1072 C1058 0.930 . S
H1073 C1059 0.931 . S
H1074 C1060 0.931 . S
H1075 C1061 0.933 . S
H1076 C1067 0.930 . S
H1077 C1068 0.931 . S
H1078 C1069 0.931 . S
H1079 C1070 0.933 . S
Dy1080 O1083 2.307 . S
Dy1080 O1085 2.395 . S
Dy1080 O1086 2.379 . S
Dy1080 O1088 2.339 . S
Dy1080 O1090 2.298 . S
Dy1080 O1094 2.275 . S
Dy1080 C1102 2.738 . S
Dy1081 O1084 2.298 . S
Dy1081 O1087 2.275 . S
Dy1081 O1089 2.307 . S
Dy1081 O1091 2.395 . S
Dy1081 O1092 2.379 . S
Dy1081 O1095 2.339 . S
Dy1081 C1111 2.738 . S
C1082 O1094 1.254 . S
C1082 O1095 1.257 . S
O1083 Dy1080 2.307 . S
O1083 C1093 1.266 . S
O1084 Dy1081 2.298 . S
O1084 C1093 1.236 . S
O1085 Dy1080 2.395 . S
O1085 C1102 1.255 . S
O1086 Dy1080 2.379 . S
O1086 C1102 1.249 . S
O1087 Dy1081 2.275 . S
O1087 C1103 1.254 . S
O1088 Dy1080 2.339 . S
O1088 C1103 1.257 . S
O1089 Dy1081 2.307 . S
O1089 C1104 1.266 . S
O1090 Dy1080 2.298 . S
O1090 C1104 1.236 . S
O1091 Dy1081 2.395 . S
O1091 C1111 1.255 . S
O1092 Dy1081 2.379 . S
O1092 C1111 1.249 . S
C1093 O1083 1.266 . S
C1093 O1084 1.236 . S
O1094 Dy1080 2.275 . S
O1094 C1082 1.254 . S
O1095 Dy1081 2.339 . S
O1095 C1082 1.257 . S
C1096 C1099 1.344 . S
C1096 C1100 1.328 . S
C1096 C1102 1.516 . S
C1097 C1098 1.304 . S
C1097 C1101 1.323 . S
C1098 C1097 1.304 . S
C1098 C1099 1.371 . S
C1098 H1112 0.930 . S
C1099 C1096 1.344 . S
C1099 C1098 1.371 . S
C1099 H1113 0.931 . S
C1100 C1096 1.328 . S
C1100 C1101 1.433 . S
C1100 H1114 0.931 . S
C1101 C1097 1.323 . S
C1101 C1100 1.433 . S
C1101 H1115 0.933 . S
C1102 Dy1080 2.738 . S
C1102 O1085 1.255 . S
C1102 O1086 1.249 . S
C1102 C1096 1.516 . S
C1103 O1087 1.254 . S
C1103 O1088 1.257 . S
C1104 O1089 1.266 . S
C1104 O1090 1.236 . S
C1105 C1108 1.344 . S
C1105 C1109 1.328 . S
C1105 C1111 1.516 . S
C1106 C1107 1.304 . S
C1106 C1110 1.323 . S
C1107 C1106 1.304 . S
C1107 C1108 1.371 . S
C1107 H1116 0.930 . S
C1108 C1105 1.344 . S
C1108 C1107 1.371 . S
C1108 H1117 0.931 . S
C1109 C1105 1.328 . S
C1109 C1110 1.433 . S
C1109 H1118 0.931 . S
C1110 C1106 1.323 . S
C1110 C1109 1.433 . S
C1110 H1119 0.933 . S
C1111 Dy1081 2.738 . S
C1111 O1091 1.255 . S
C1111 O1092 1.249 . S
C1111 C1105 1.516 . S
H1112 C1098 0.930 . S
H1113 C1099 0.931 . S
H1114 C1100 0.931 . S
H1115 C1101 0.933 . S
H1116 C1107 0.930 . S
H1117 C1108 0.931 . S
H1118 C1109 0.931 . S
H1119 C1110 0.933 . S
Dy1120 O1123 2.307 . S
Dy1120 O1125 2.395 . S
Dy1120 O1126 2.379 . S
Dy1120 O1128 2.339 . S
Dy1120 O1130 2.298 . S
Dy1120 O1134 2.275 . S
Dy1120 C1142 2.738 . S
Dy1121 O1124 2.298 . S
Dy1121 O1127 2.275 . S
Dy1121 O1129 2.307 . S
Dy1121 O1131 2.395 . S
Dy1121 O1132 2.379 . S
Dy1121 O1135 2.339 . S
Dy1121 C1151 2.738 . S
C1122 O1134 1.254 . S
C1122 O1135 1.257 . S
O1123 Dy1120 2.307 . S
O1123 C1133 1.266 . S
O1124 Dy1121 2.298 . S
O1124 C1133 1.236 . S
O1125 Dy1120 2.395 . S
O1125 C1142 1.255 . S
O1126 Dy1120 2.379 . S
O1126 C1142 1.249 . S
O1127 Dy1121 2.275 . S
O1127 C1143 1.254 . S
O1128 Dy1120 2.339 . S
O1128 C1143 1.257 . S
O1129 Dy1121 2.307 . S
O1129 C1144 1.266 . S
O1130 Dy1120 2.298 . S
O1130 C1144 1.236 . S
O1131 Dy1121 2.395 . S
O1131 C1151 1.255 . S
O1132 Dy1121 2.379 . S
O1132 C1151 1.249 . S
C1133 O1123 1.266 . S
C1133 O1124 1.236 . S
O1134 Dy1120 2.275 . S
O1134 C1122 1.254 . S
O1135 Dy1121 2.339 . S
O1135 C1122 1.257 . S
C1136 C1139 1.344 . S
C1136 C1140 1.328 . S
C1136 C1142 1.516 . S
C1137 C1138 1.304 1_565 S
C1137 C1141 1.323 . S
C1138 C1137 1.304 1_545 S
C1138 C1139 1.371 . S
C1138 H1152 0.930 1_545 S
C1139 C1136 1.344 . S
C1139 C1138 1.371 . S
C1139 H1153 0.931 . S
C1140 C1136 1.328 . S
C1140 C1141 1.433 1_545 S
C1140 H1154 0.931 . S
C1141 C1137 1.323 . S
C1141 C1140 1.433 1_565 S
C1141 H1155 0.933 . S
C1142 Dy1120 2.738 . S
C1142 O1125 1.255 . S
C1142 O1126 1.249 . S
C1142 C1136 1.516 . S
C1143 O1127 1.254 . S
C1143 O1128 1.257 . S
C1144 O1129 1.266 . S
C1144 O1130 1.236 . S
C1145 C1148 1.344 . S
C1145 C1149 1.328 . S
C1145 C1151 1.516 . S
C1146 C1147 1.304 . S
C1146 C1150 1.323 . S
C1147 C1146 1.304 . S
C1147 C1148 1.371 . S
C1147 H1156 0.930 . S
C1148 C1145 1.344 . S
C1148 C1147 1.371 . S
C1148 H1157 0.931 . S
C1149 C1145 1.328 . S
C1149 C1150 1.433 . S
C1149 H1158 0.931 . S
C1150 C1146 1.323 . S
C1150 C1149 1.433 . S
C1150 H1159 0.933 . S
C1151 Dy1121 2.738 . S
C1151 O1131 1.255 . S
C1151 O1132 1.249 . S
C1151 C1145 1.516 . S
H1152 C1138 0.930 1_565 S
H1153 C1139 0.931 . S
H1154 C1140 0.931 . S
H1155 C1141 0.933 . S
H1156 C1147 0.930 . S
H1157 C1148 0.931 . S
H1158 C1149 0.931 . S
H1159 C1150 0.933 . S
Dy1160 O1163 2.307 . S
Dy1160 O1165 2.395 . S
Dy1160 O1166 2.379 . S
Dy1160 O1168 2.339 . S
Dy1160 O1170 2.298 . S
Dy1160 O1174 2.275 . S
Dy1160 C1182 2.738 . S
Dy1161 O1164 2.298 . S
Dy1161 O1167 2.275 . S
Dy1161 O1169 2.307 . S
Dy1161 O1171 2.395 . S
Dy1161 O1172 2.379 . S
Dy1161 O1175 2.339 . S
Dy1161 C1191 2.738 . S
C1162 O1174 1.254 . S
C1162 O1175 1.257 . S
O1163 Dy1160 2.307 . S
O1163 C1173 1.266 . S
O1164 Dy1161 2.298 . S
O1164 C1173 1.236 . S
O1165 Dy1160 2.395 . S
O1165 C1182 1.255 . S
O1166 Dy1160 2.379 . S
O1166 C1182 1.249 . S
O1167 Dy1161 2.275 . S
O1167 C1183 1.254 . S
O1168 Dy1160 2.339 . S
O1168 C1183 1.257 . S
O1169 Dy1161 2.307 . S
O1169 C1184 1.266 . S
O1170 Dy1160 2.298 . S
O1170 C1184 1.236 . S
O1171 Dy1161 2.395 . S
O1171 C1191 1.255 . S
O1172 Dy1161 2.379 . S
O1172 C1191 1.249 . S
C1173 O1163 1.266 . S
C1173 O1164 1.236 . S
O1174 Dy1160 2.275 . S
O1174 C1162 1.254 . S
O1175 Dy1161 2.339 . S
O1175 C1162 1.257 . S
C1176 C1179 1.344 . S
C1176 C1180 1.328 . S
C1176 C1182 1.516 1_455 S
C1177 C1178 1.304 . S
C1177 C1181 1.323 . S
C1178 C1177 1.304 . S
C1178 C1179 1.371 . S
C1178 H1192 0.930 . S
C1179 C1176 1.344 . S
C1179 C1178 1.371 . S
C1179 H1193 0.931 . S
C1180 C1176 1.328 . S
C1180 C1181 1.433 . S
C1180 H1194 0.931 . S
C1181 C1177 1.323 . S
C1181 C1180 1.433 . S
C1181 H1195 0.933 . S
C1182 Dy1160 2.738 . S
C1182 O1165 1.255 . S
C1182 O1166 1.249 . S
C1182 C1176 1.516 1_655 S
C1183 O1167 1.254 . S
C1183 O1168 1.257 . S
C1184 O1169 1.266 . S
C1184 O1170 1.236 . S
C1185 C1188 1.344 . S
C1185 C1189 1.328 . S
C1185 C1191 1.516 . S
C1186 C1187 1.304 . S
C1186 C1190 1.323 . S
C1187 C1186 1.304 . S
C1187 C1188 1.371 . S
C1187 H1196 0.930 . S
C1188 C1185 1.344 . S
C1188 C1187 1.371 . S
C1188 H1197 0.931 . S
C1189 C1185 1.328 . S
C1189 C1190 1.433 . S
C1189 H1198 0.931 . S
C1190 C1186 1.323 . S
C1190 C1189 1.433 . S
C1190 H1199 0.933 . S
C1191 Dy1161 2.738 . S
C1191 O1171 1.255 . S
C1191 O1172 1.249 . S
C1191 C1185 1.516 . S
H1192 C1178 0.930 . S
H1193 C1179 0.931 . S
H1194 C1180 0.931 . S
H1195 C1181 0.933 . S
H1196 C1187 0.930 . S
H1197 C1188 0.931 . S
H1198 C1189 0.931 . S
H1199 C1190 0.933 . S
Dy1200 O1203 2.307 . S
Dy1200 O1205 2.395 . S
Dy1200 O1206 2.379 . S
Dy1200 O1208 2.339 . S
Dy1200 O1210 2.298 . S
Dy1200 O1214 2.275 . S
Dy1200 C1222 2.738 . S
Dy1201 O1204 2.298 . S
Dy1201 O1207 2.275 . S
Dy1201 O1209 2.307 . S
Dy1201 O1211 2.395 . S
Dy1201 O1212 2.379 . S
Dy1201 O1215 2.339 . S
Dy1201 C1231 2.738 . S
C1202 O1214 1.254 . S
C1202 O1215 1.257 . S
O1203 Dy1200 2.307 . S
O1203 C1213 1.266 . S
O1204 Dy1201 2.298 . S
O1204 C1213 1.236 . S
O1205 Dy1200 2.395 . S
O1205 C1222 1.255 . S
O1206 Dy1200 2.379 . S
O1206 C1222 1.249 . S
O1207 Dy1201 2.275 . S
O1207 C1223 1.254 . S
O1208 Dy1200 2.339 . S
O1208 C1223 1.257 . S
O1209 Dy1201 2.307 . S
O1209 C1224 1.266 . S
O1210 Dy1200 2.298 . S
O1210 C1224 1.236 . S
O1211 Dy1201 2.395 . S
O1211 C1231 1.255 . S
O1212 Dy1201 2.379 . S
O1212 C1231 1.249 . S
C1213 O1203 1.266 . S
C1213 O1204 1.236 . S
O1214 Dy1200 2.275 . S
O1214 C1202 1.254 . S
O1215 Dy1201 2.339 . S
O1215 C1202 1.257 . S
C1216 C1219 1.344 . S
C1216 C1220 1.328 . S
C1216 C1222 1.516 . S
C1217 C1218 1.304 . S
C1217 C1221 1.323 . S
C1218 C1217 1.304 . S
C1218 C1219 1.371 . S
C1218 H1232 0.930 . S
C1219 C1216 1.344 . S
C1219 C1218 1.371 . S
C1219 H1233 0.931 . S
C1220 C1216 1.328 . S
C1220 C1221 1.433 . S
C1220 H1234 0.931 . S
C1221 C1217 1.323 . S
C1221 C1220 1.433 . S
C1221 H1235 0.933 . S
C1222 Dy1200 2.738 . S
C1222 O1205 1.255 . S
C1222 O1206 1.249 . S
C1222 C1216 1.516 . S
C1223 O1207 1.254 . S
C1223 O1208 1.257 . S
C1224 O1209 1.266 . S
C1224 O1210 1.236 . S
C1225 C1228 1.344 . S
C1225 C1229 1.328 . S
C1225 C1231 1.516 . S
C1226 C1227 1.304 . S
C1226 C1230 1.323 . S
C1227 C1226 1.304 . S
C1227 C1228 1.371 . S
C1227 H1236 0.930 . S
C1228 C1225 1.344 . S
C1228 C1227 1.371 . S
C1228 H1237 0.931 . S
C1229 C1225 1.328 . S
C1229 C1230 1.433 . S
C1229 H1238 0.931 . S
C1230 C1226 1.323 . S
C1230 C1229 1.433 . S
C1230 H1239 0.933 . S
C1231 Dy1201 2.738 . S
C1231 O1211 1.255 . S
C1231 O1212 1.249 . S
C1231 C1225 1.516 . S
H1232 C1218 0.930 . S
H1233 C1219 0.931 . S
H1234 C1220 0.931 . S
H1235 C1221 0.933 . S
H1236 C1227 0.930 . S
H1237 C1228 0.931 . S
H1238 C1229 0.931 . S
H1239 C1230 0.933 . S
Dy1240 O1243 2.307 . S
Dy1240 O1245 2.395 . S
Dy1240 O1246 2.379 . S
Dy1240 O1248 2.339 . S
Dy1240 O1250 2.298 . S
Dy1240 O1254 2.275 . S
Dy1240 C1262 2.738 . S
Dy1241 O1244 2.298 . S
Dy1241 O1247 2.275 . S
Dy1241 O1249 2.307 . S
Dy1241 O1251 2.395 . S
Dy1241 O1252 2.379 . S
Dy1241 O1255 2.339 . S
Dy1241 C1271 2.738 . S
C1242 O1254 1.254 . S
C1242 O1255 1.257 . S
O1243 Dy1240 2.307 . S
O1243 C1253 1.266 . S
O1244 Dy1241 2.298 . S
O1244 C1253 1.236 . S
O1245 Dy1240 2.395 . S
O1245 C1262 1.255 . S
O1246 Dy1240 2.379 . S
O1246 C1262 1.249 . S
O1247 Dy1241 2.275 . S
O1247 C1263 1.254 . S
O1248 Dy1240 2.339 . S
O1248 C1263 1.257 . S
O1249 Dy1241 2.307 . S
O1249 C1264 1.266 . S
O1250 Dy1240 2.298 . S
O1250 C1264 1.236 . S
O1251 Dy1241 2.395 . S
O1251 C1271 1.255 . S
O1252 Dy1241 2.379 . S
O1252 C1271 1.249 . S
C1253 O1243 1.266 . S
C1253 O1244 1.236 . S
O1254 Dy1240 2.275 . S
O1254 C1242 1.254 . S
O1255 Dy1241 2.339 . S
O1255 C1242 1.257 . S
C1256 C1259 1.344 . S
C1256 C1260 1.328 . S
C1256 C1262 1.516 . S
C1257 C1258 1.304 . S
C1257 C1261 1.323 . S
C1258 C1257 1.304 . S
C1258 C1259 1.371 . S
C1258 H1272 0.930 . S
C1259 C1256 1.344 . S
C1259 C1258 1.371 . S
C1259 H1273 0.931 . S
C1260 C1256 1.328 . S
C1260 C1261 1.433 . S
C1260 H1274 0.931 . S
C1261 C1257 1.323 . S
C1261 C1260 1.433 . S
C1261 H1275 0.933 . S
C1262 Dy1240 2.738 . S
C1262 O1245 1.255 . S
C1262 O1246 1.249 . S
C1262 C1256 1.516 . S
C1263 O1247 1.254 . S
C1263 O1248 1.257 . S
C1264 O1249 1.266 . S
C1264 O1250 1.236 . S
C1265 C1268 1.344 . S
C1265 C1269 1.328 . S
C1265 C1271 1.516 . S
C1266 C1267 1.304 1_565 S
C1266 C1270 1.323 . S
C1267 C1266 1.304 1_545 S
C1267 C1268 1.371 . S
C1267 H1276 0.930 1_545 S
C1268 C1265 1.344 . S
C1268 C1267 1.371 . S
C1268 H1277 0.931 . S
C1269 C1265 1.328 . S
C1269 C1270 1.433 1_545 S
C1269 H1278 0.931 . S
C1270 C1266 1.323 . S
C1270 C1269 1.433 1_565 S
C1270 H1279 0.933 . S
C1271 Dy1241 2.738 . S
C1271 O1251 1.255 . S
C1271 O1252 1.249 . S
C1271 C1265 1.516 . S
H1272 C1258 0.930 . S
H1273 C1259 0.931 . S
H1274 C1260 0.931 . S
H1275 C1261 0.933 . S
H1276 C1267 0.930 1_565 S
H1277 C1268 0.931 . S
H1278 C1269 0.931 . S
H1279 C1270 0.933 . S
Dy1280 O1283 2.307 . S
Dy1280 O1285 2.395 . S
Dy1280 O1286 2.379 . S
Dy1280 O1288 2.339 . S
Dy1280 O1290 2.298 . S
Dy1280 O1294 2.275 . S
Dy1280 C1302 2.738 . S
Dy1281 O1284 2.298 . S
Dy1281 O1287 2.275 . S
Dy1281 O1289 2.307 . S
Dy1281 O1291 2.395 . S
Dy1281 O1292 2.379 . S
Dy1281 O1295 2.339 . S
Dy1281 C1311 2.738 . S
C1282 O1294 1.254 . S
C1282 O1295 1.257 . S
O1283 Dy1280 2.307 . S
O1283 C1293 1.266 . S
O1284 Dy1281 2.298 . S
O1284 C1293 1.236 . S
O1285 Dy1280 2.395 . S
O1285 C1302 1.255 . S
O1286 Dy1280 2.379 . S
O1286 C1302 1.249 . S
O1287 Dy1281 2.275 . S
O1287 C1303 1.254 . S
O1288 Dy1280 2.339 . S
O1288 C1303 1.257 . S
O1289 Dy1281 2.307 . S
O1289 C1304 1.266 . S
O1290 Dy1280 2.298 . S
O1290 C1304 1.236 . S
O1291 Dy1281 2.395 . S
O1291 C1311 1.255 . S
O1292 Dy1281 2.379 . S
O1292 C1311 1.249 . S
C1293 O1283 1.266 . S
C1293 O1284 1.236 . S
O1294 Dy1280 2.275 . S
O1294 C1282 1.254 . S
O1295 Dy1281 2.339 . S
O1295 C1282 1.257 . S
C1296 C1299 1.344 . S
C1296 C1300 1.328 . S
C1296 C1302 1.516 . S
C1297 C1298 1.304 . S
C1297 C1301 1.323 . S
C1298 C1297 1.304 . S
C1298 C1299 1.371 . S
C1298 H1312 0.930 . S
C1299 C1296 1.344 . S
C1299 C1298 1.371 . S
C1299 H1313 0.931 . S
C1300 C1296 1.328 . S
C1300 C1301 1.433 . S
C1300 H1314 0.931 . S
C1301 C1297 1.323 . S
C1301 C1300 1.433 . S
C1301 H1315 0.933 . S
C1302 Dy1280 2.738 . S
C1302 O1285 1.255 . S
C1302 O1286 1.249 . S
C1302 C1296 1.516 . S
C1303 O1287 1.254 . S
C1303 O1288 1.257 . S
C1304 O1289 1.266 . S
C1304 O1290 1.236 . S
C1305 C1308 1.344 . S
C1305 C1309 1.328 . S
C1305 C1311 1.516 1_455 S
C1306 C1307 1.304 . S
C1306 C1310 1.323 . S
C1307 C1306 1.304 . S
C1307 C1308 1.371 . S
C1307 H1316 0.930 . S
C1308 C1305 1.344 . S
C1308 C1307 1.371 . S
C1308 H1317 0.931 . S
C1309 C1305 1.328 . S
C1309 C1310 1.433 . S
C1309 H1318 0.931 . S
C1310 C1306 1.323 . S
C1310 C1309 1.433 . S
C1310 H1319 0.933 . S
C1311 Dy1281 2.738 . S
C1311 O1291 1.255 . S
C1311 O1292 1.249 . S
C1311 C1305 1.516 1_655 S
H1312 C1298 0.930 . S
H1313 C1299 0.931 . S
H1314 C1300 0.931 . S
H1315 C1301 0.933 . S
H1316 C1307 0.930 . S
H1317 C1308 0.931 . S
H1318 C1309 0.931 . S
H1319 C1310 0.933 . S
Dy1320 O1323 2.307 . S
Dy1320 O1325 2.395 . S
Dy1320 O1326 2.379 . S
Dy1320 O1328 2.339 . S
Dy1320 O1330 2.298 . S
Dy1320 O1334 2.275 . S
Dy1320 C1342 2.738 . S
Dy1321 O1324 2.298 . S
Dy1321 O1327 2.275 . S
Dy1321 O1329 2.307 . S
Dy1321 O1331 2.395 . S
Dy1321 O1332 2.379 . S
Dy1321 O1335 2.339 . S
Dy1321 C1351 2.738 . S
C1322 O1334 1.254 . S
C1322 O1335 1.257 . S
O1323 Dy1320 2.307 . S
O1323 C1333 1.266 . S
O1324 Dy1321 2.298 . S
O1324 C1333 1.236 . S
O1325 Dy1320 2.395 . S
O1325 C1342 1.255 . S
O1326 Dy1320 2.379 . S
O1326 C1342 1.249 . S
O1327 Dy1321 2.275 . S
O1327 C1343 1.254 . S
O1328 Dy1320 2.339 . S
O1328 C1343 1.257 . S
O1329 Dy1321 2.307 . S
O1329 C1344 1.266 . S
O1330 Dy1320 2.298 . S
O1330 C1344 1.236 . S
O1331 Dy1321 2.395 . S
O1331 C1351 1.255 . S
O1332 Dy1321 2.379 . S
O1332 C1351 1.249 . S
C1333 O1323 1.266 . S
C1333 O1324 1.236 . S
O1334 Dy1320 2.275 . S
O1334 C1322 1.254 . S
O1335 Dy1321 2.339 . S
O1335 C1322 1.257 . S
C1336 C1339 1.344 . S
C1336 C1340 1.328 . S
C1336 C1342 1.516 . S
C1337 C1338 1.304 . S
C1337 C1341 1.323 . S
C1338 C1337 1.304 . S
C1338 C1339 1.371 . S
C1338 H1352 0.930 . S
C1339 C1336 1.344 . S
C1339 C1338 1.371 . S
C1339 H1353 0.931 . S
C1340 C1336 1.328 . S
C1340 C1341 1.433 . S
C1340 H1354 0.931 . S
C1341 C1337 1.323 . S
C1341 C1340 1.433 . S
C1341 H1355 0.933 . S
C1342 Dy1320 2.738 . S
C1342 O1325 1.255 . S
C1342 O1326 1.249 . S
C1342 C1336 1.516 . S
C1343 O1327 1.254 . S
C1343 O1328 1.257 . S
C1344 O1329 1.266 . S
C1344 O1330 1.236 . S
C1345 C1348 1.344 . S
C1345 C1349 1.328 . S
C1345 C1351 1.516 . S
C1346 C1347 1.304 . S
C1346 C1350 1.323 . S
C1347 C1346 1.304 . S
C1347 C1348 1.371 . S
C1347 H1356 0.930 . S
C1348 C1345 1.344 . S
C1348 C1347 1.371 . S
C1348 H1357 0.931 . S
C1349 C1345 1.328 . S
C1349 C1350 1.433 . S
C1349 H1358 0.931 . S
C1350 C1346 1.323 . S
C1350 C1349 1.433 . S
C1350 H1359 0.933 . S
C1351 Dy1321 2.738 . S
C1351 O1331 1.255 . S
C1351 O1332 1.249 . S
C1351 C1345 1.516 . S
H1352 C1338 0.930 . S
H1353 C1339 0.931 . S
H1354 C1340 0.931 . S
H1355 C1341 0.933 . S
H1356 C1347 0.930 . S
H1357 C1348 0.931 . S
H1358 C1349 0.931 . S
H1359 C1350 0.933 . S
Dy1360 O1363 2.307 . S
Dy1360 O1365 2.395 . S
Dy1360 O1366 2.379 . S
Dy1360 O1368 2.339 . S
Dy1360 O1370 2.298 . S
Dy1360 O1374 2.275 . S
Dy1360 C1382 2.738 . S
Dy1361 O1364 2.298 . S
Dy1361 O1367 2.275 . S
Dy1361 O1369 2.307 . S
Dy1361 O1371 2.395 . S
Dy1361 O1372 2.379 . S
Dy1361 O1375 2.339 . S
Dy1361 C1391 2.738 . S
C1362 O1374 1.254 . S
C1362 O1375 1.257 . S
O1363 Dy1360 2.307 . S
O1363 C1373 1.266 . S
O1364 Dy1361 2.298 . S
O1364 C1373 1.236 . S
O1365 Dy1360 2.395 . S
O1365 C1382 1.255 . S
O1366 Dy1360 2.379 . S
O1366 C1382 1.249 . S
O1367 Dy1361 2.275 . S
O1367 C1383 1.254 . S
O1368 Dy1360 2.339 . S
O1368 C1383 1.257 . S
O1369 Dy1361 2.307 . S
O1369 C1384 1.266 . S
O1370 Dy1360 2.298 . S
O1370 C1384 1.236 . S
O1371 Dy1361 2.395 . S
O1371 C1391 1.255 . S
O1372 Dy1361 2.379 . S
O1372 C1391 1.249 . S
C1373 O1363 1.266 . S
C1373 O1364 1.236 . S
O1374 Dy1360 2.275 . S
O1374 C1362 1.254 . S
O1375 Dy1361 2.339 . S
O1375 C1362 1.257 . S
C1376 C1379 1.344 1_545 S
C1376 C1380 1.328 1_545 S
C1376 C1382 1.516 . S
C1377 C1378 1.304 . S
C1377 C1381 1.323 . S
C1378 C1377 1.304 . S
C1378 C1379 1.371 . S
C1378 H1392 0.930 . S
C1379 C1376 1.344 1_565 S
C1379 C1378 1.371 . S
C1379 H1393 0.931 1_565 S
C1380 C1376 1.328 1_565 S
C1380 C1381 1.433 . S
C1380 H1394 0.931 . S
C1381 C1377 1.323 . S
C1381 C1380 1.433 . S
C1381 H1395 0.933 . S
C1382 Dy1360 2.738 . S
C1382 O1365 1.255 . S
C1382 O1366 1.249 . S
C1382 C1376 1.516 . S
C1383 O1367 1.254 . S
C1383 O1368 1.257 . S
C1384 O1369 1.266 . S
C1384 O1370 1.236 . S
C1385 C1388 1.344 . S
C1385 C1389 1.328 . S
C1385 C1391 1.516 . S
C1386 C1387 1.304 . S
C1386 C1390 1.323 . S
C1387 C1386 1.304 . S
C1387 C1388 1.371 . S
C1387 H1396 0.930 . S
C1388 C1385 1.344 . S
C1388 C1387 1.371 . S
C1388 H1397 0.931 . S
C1389 C1385 1.328 . S
C1389 C1390 1.433 . S
C1389 H1398 0.931 . S
C1390 C1386 1.323 . S
C1390 C1389 1.433 . S
C1390 H1399 0.933 . S
C1391 Dy1361 2.738 . S
C1391 O1371 1.255 . S
C1391 O1372 1.249 . S
C1391 C1385 1.516 . S
H1392 C1378 0.930 . S
H1393 C1379 0.931 1_545 S
H1394 C1380 0.931 . S
H1395 C1381 0.933 . S
H1396 C1387 0.930 . S
H1397 C1388 0.931 . S
H1398 C1389 0.931 . S
H1399 C1390 0.933 . S
Dy1400 O1403 2.307 . S
Dy1400 O1405 2.395 1_655 S
Dy1400 O1406 2.379 1_655 S
Dy1400 O1408 2.339 . S
Dy1400 O1410 2.298 . S
Dy1400 O1414 2.275 . S
Dy1400 C1422 2.738 1_655 S
Dy1401 O1404 2.298 . S
Dy1401 O1407 2.275 . S
Dy1401 O1409 2.307 . S
Dy1401 O1411 2.395 . S
Dy1401 O1412 2.379 . S
Dy1401 O1415 2.339 . S
Dy1401 C1431 2.738 . S
C1402 O1414 1.254 . S
C1402 O1415 1.257 . S
O1403 Dy1400 2.307 . S
O1403 C1413 1.266 . S
O1404 Dy1401 2.298 . S
O1404 C1413 1.236 . S
O1405 Dy1400 2.395 1_455 S
O1405 C1422 1.255 . S
O1406 Dy1400 2.379 1_455 S
O1406 C1422 1.249 . S
O1407 Dy1401 2.275 . S
O1407 C1423 1.254 . S
O1408 Dy1400 2.339 . S
O1408 C1423 1.257 . S
O1409 Dy1401 2.307 . S
O1409 C1424 1.266 . S
O1410 Dy1400 2.298 . S
O1410 C1424 1.236 . S
O1411 Dy1401 2.395 . S
O1411 C1431 1.255 . S
O1412 Dy1401 2.379 . S
O1412 C1431 1.249 . S
C1413 O1403 1.266 . S
C1413 O1404 1.236 . S
O1414 Dy1400 2.275 . S
O1414 C1402 1.254 . S
O1415 Dy1401 2.339 . S
O1415 C1402 1.257 . S
C1416 C1419 1.344 . S
C1416 C1420 1.328 . S
C1416 C1422 1.516 . S
C1417 C1418 1.304 . S
C1417 C1421 1.323 . S
C1418 C1417 1.304 . S
C1418 C1419 1.371 . S
C1418 H1432 0.930 . S
C1419 C1416 1.344 . S
C1419 C1418 1.371 . S
C1419 H1433 0.931 . S
C1420 C1416 1.328 . S
C1420 C1421 1.433 . S
C1420 H1434 0.931 . S
C1421 C1417 1.323 . S
C1421 C1420 1.433 . S
C1421 H1435 0.933 . S
C1422 Dy1400 2.738 1_455 S
C1422 O1405 1.255 . S
C1422 O1406 1.249 . S
C1422 C1416 1.516 . S
C1423 O1407 1.254 . S
C1423 O1408 1.257 . S
C1424 O1409 1.266 . S
C1424 O1410 1.236 . S
C1425 C1428 1.344 . S
C1425 C1429 1.328 . S
C1425 C1431 1.516 . S
C1426 C1427 1.304 . S
C1426 C1430 1.323 . S
C1427 C1426 1.304 . S
C1427 C1428 1.371 . S
C1427 H1436 0.930 . S
C1428 C1425 1.344 . S
C1428 C1427 1.371 . S
C1428 H1437 0.931 . S
C1429 C1425 1.328 . S
C1429 C1430 1.433 . S
C1429 H1438 0.931 . S
C1430 C1426 1.323 . S
C1430 C1429 1.433 . S
C1430 H1439 0.933 . S
C1431 Dy1401 2.738 . S
C1431 O1411 1.255 . S
C1431 O1412 1.249 . S
C1431 C1425 1.516 . S
H1432 C1418 0.930 . S
H1433 C1419 0.931 . S
H1434 C1420 0.931 . S
H1435 C1421 0.933 . S
H1436 C1427 0.930 . S
H1437 C1428 0.931 . S
H1438 C1429 0.931 . S
H1439 C1430 0.933 . S
C1440 C1441 1.387 . S
C1440 H1444 0.950 . S
C1440 C1449 1.390 . S
C1441 C1440 1.387 . S
C1441 C1443 1.387 . S
H1442 C1449 0.950 . S
C1443 C1441 1.387 . S
C1443 C1445 1.390 . S
C1443 H1447 0.950 . S
H1444 C1440 0.950 . S
C1445 C1443 1.390 . S
C1445 C1446 1.387 . S
C1445 H1448 0.950 . S
C1446 C1445 1.387 . S
C1446 C1449 1.387 . S
H1447 C1443 0.950 . S
H1448 C1445 0.950 . S
C1449 C1440 1.390 . S
C1449 H1442 0.950 . S
C1449 C1446 1.387 . S
C1450 C1451 1.387 . S
C1450 H1454 0.950 . S
C1450 C1459 1.390 . S
C1451 C1450 1.387 . S
C1451 C1453 1.387 . S
H1452 C1459 0.950 . S
C1453 C1451 1.387 . S
C1453 C1455 1.390 1_655 S
C1453 H1457 0.950 1_655 S
H1454 C1450 0.950 . S
C1455 C1453 1.390 1_455 S
C1455 C1456 1.387 1_455 S
C1455 H1458 0.950 . S
C1456 C1455 1.387 1_655 S
C1456 C1459 1.387 . S
H1457 C1453 0.950 1_455 S
H1458 C1455 0.950 . S
C1459 C1450 1.390 . S
C1459 H1452 0.950 . S
C1459 C1456 1.387 . S
C1460 C1461 1.387 . S
C1460 H1464 0.950 . S
C1460 C1469 1.390 . S
C1461 C1460 1.387 . S
C1461 C1463 1.387 . S
H1462 C1469 0.950 . S
C1463 C1461 1.387 . S
C1463 C1465 1.390 . S
C1463 H1467 0.950 . S
H1464 C1460 0.950 . S
C1465 C1463 1.390 . S
C1465 C1466 1.387 . S
C1465 H1468 0.950 . S
C1466 C1465 1.387 . S
C1466 C1469 1.387 . S
H1467 C1463 0.950 . S
H1468 C1465 0.950 . S
C1469 C1460 1.390 . S
C1469 H1462 0.950 . S
C1469 C1466 1.387 . S
C1470 C1471 1.387 . S
C1470 H1474 0.950 . S
C1470 C1479 1.390 . S
C1471 C1470 1.387 . S
C1471 C1473 1.387 . S
H1472 C1479 0.950 . S
C1473 C1471 1.387 . S
C1473 C1475 1.390 . S
C1473 H1477 0.950 . S
H1474 C1470 0.950 . S
C1475 C1473 1.390 . S
C1475 C1476 1.387 . S
C1475 H1478 0.950 . S
C1476 C1475 1.387 . S
C1476 C1479 1.387 . S
H1477 C1473 0.950 . S
H1478 C1475 0.950 . S
C1479 C1470 1.390 . S
C1479 H1472 0.950 . S
C1479 C1476 1.387 . S
C1480 C1481 1.387 . S
C1480 H1484 0.950 . S
C1480 C1489 1.390 . S
C1481 C1480 1.387 . S
C1481 C1483 1.387 . S
H1482 C1489 0.950 . S
C1483 C1481 1.387 . S
C1483 C1485 1.390 . S
C1483 H1487 0.950 . S
H1484 C1480 0.950 . S
C1485 C1483 1.390 . S
C1485 C1486 1.387 . S
C1485 H1488 0.950 . S
C1486 C1485 1.387 . S
C1486 C1489 1.387 . S
H1487 C1483 0.950 . S
H1488 C1485 0.950 . S
C1489 C1480 1.390 . S
C1489 H1482 0.950 . S
C1489 C1486 1.387 . S
C1490 C1491 1.387 . S
C1490 H1494 0.950 . S
C1490 C1499 1.390 . S
C1491 C1490 1.387 . S
C1491 C1493 1.387 . S
H1492 C1499 0.950 1_545 S
C1493 C1491 1.387 . S
C1493 C1495 1.390 . S
C1493 H1497 0.950 . S
H1494 C1490 0.950 . S
C1495 C1493 1.390 . S
C1495 C1496 1.387 . S
C1495 H1498 0.950 . S
C1496 C1495 1.387 . S
C1496 C1499 1.387 . S
H1497 C1493 0.950 . S
H1498 C1495 0.950 . S
C1499 C1490 1.390 . S
C1499 H1492 0.950 1_565 S
C1499 C1496 1.387 . S
C1500 C1501 1.387 1_545 S
C1500 H1504 0.950 . S
C1500 C1509 1.390 1_545 S
C1501 C1500 1.387 1_565 S
C1501 C1503 1.387 . S
H1502 C1509 0.950 . S
C1503 C1501 1.387 . S
C1503 C1505 1.390 . S
C1503 H1507 0.950 . S
H1504 C1500 0.950 . S
C1505 C1503 1.390 . S
C1505 C1506 1.387 . S
C1505 H1508 0.950 . S
C1506 C1505 1.387 . S
C1506 C1509 1.387 . S
H1507 C1503 0.950 . S
H1508 C1505 0.950 . S
C1509 C1500 1.390 1_565 S
C1509 H1502 0.950 . S
C1509 C1506 1.387 . S
C1510 C1511 1.387 . S
C1510 H1514 0.950 . S
C1510 C1519 1.390 . S
C1511 C1510 1.387 . S
C1511 C1513 1.387 . S
H1512 C1519 0.950 . S
C1513 C1511 1.387 . S
C1513 C1515 1.390 . S
C1513 H1517 0.950 . S
H1514 C1510 0.950 . S
C1515 C1513 1.390 . S
C1515 C1516 1.387 . S
C1515 H1518 0.950 . S
C1516 C1515 1.387 . S
C1516 C1519 1.387 . S
H1517 C1513 0.950 . S
H1518 C1515 0.950 . S
C1519 C1510 1.390 . S
C1519 H1512 0.950 . S
C1519 C1516 1.387 . S
C1520 C1521 1.387 . S
C1520 H1524 0.950 . S
C1520 C1529 1.390 . S
C1521 C1520 1.387 . S
C1521 C1523 1.387 . S
H1522 C1529 0.950 . S
C1523 C1521 1.387 . S
C1523 C1525 1.390 . S
C1523 H1527 0.950 . S
H1524 C1520 0.950 . S
C1525 C1523 1.390 . S
C1525 C1526 1.387 . S
C1525 H1528 0.950 . S
C1526 C1525 1.387 . S
C1526 C1529 1.387 . S
H1527 C1523 0.950 . S
H1528 C1525 0.950 . S
C1529 C1520 1.390 . S
C1529 H1522 0.950 . S
C1529 C1526 1.387 . S
C1530 C1531 1.387 . S
C1530 H1534 0.950 . S
C1530 C1539 1.390 . S
C1531 C1530 1.387 . S
C1531 C1533 1.387 . S
H1532 C1539 0.950 . S
C1533 C1531 1.387 . S
C1533 C1535 1.390 1_655 S
C1533 H1537 0.948 1_655 S
H1534 C1530 0.950 . S
C1535 C1533 1.390 1_455 S
C1535 C1536 1.387 1_455 S
C1535 H1538 0.950 . S
C1536 C1535 1.387 1_655 S
C1536 C1539 1.387 . S
H1537 C1533 0.948 1_455 S
H1538 C1535 0.950 . S
C1539 C1530 1.390 . S
C1539 H1532 0.950 . S
C1539 C1536 1.387 . S
C1540 C1541 1.387 . S
C1540 H1544 0.950 . S
C1540 C1549 1.390 . S
C1541 C1540 1.387 . S
C1541 C1543 1.387 . S
H1542 C1549 0.950 . S
C1543 C1541 1.387 . S
C1543 C1545 1.390 . S
C1543 H1547 0.950 . S
H1544 C1540 0.950 . S
C1545 C1543 1.390 . S
C1545 C1546 1.387 . S
C1545 H1548 0.950 . S
C1546 C1545 1.387 . S
C1546 C1549 1.387 . S
H1547 C1543 0.950 . S
H1548 C1545 0.950 . S
C1549 C1540 1.390 . S
C1549 H1542 0.950 . S
C1549 C1546 1.387 . S
C1550 C1551 1.387 . S
C1550 H1554 0.950 . S
C1550 C1559 1.390 . S
C1551 C1550 1.387 . S
C1551 C1553 1.387 . S
H1552 C1559 0.950 . S
C1553 C1551 1.387 . S
C1553 C1555 1.390 . S
C1553 H1557 0.950 . S
H1554 C1550 0.950 . S
C1555 C1553 1.390 . S
C1555 C1556 1.387 . S
C1555 H1558 0.950 . S
C1556 C1555 1.387 . S
C1556 C1559 1.387 . S
H1557 C1553 0.950 . S
H1558 C1555 0.950 . S
C1559 C1550 1.390 . S
C1559 H1552 0.950 . S
C1559 C1556 1.387 . S
C1560 C1561 1.387 . S
C1560 H1564 0.950 . S
C1560 C1569 1.390 . S
C1561 C1560 1.387 . S
C1561 C1563 1.387 . S
H1562 C1569 0.950 . S
C1563 C1561 1.387 . S
C1563 C1565 1.390 . S
C1563 H1567 0.950 . S
H1564 C1560 0.950 . S
C1565 C1563 1.390 . S
C1565 C1566 1.387 . S
C1565 H1568 0.950 . S
C1566 C1565 1.387 . S
C1566 C1569 1.387 . S
H1567 C1563 0.950 . S
H1568 C1565 0.950 . S
C1569 C1560 1.390 . S
C1569 H1562 0.950 . S
C1569 C1566 1.387 . S
C1570 C1571 1.387 1_545 S
C1570 H1574 0.950 . S
C1570 C1579 1.390 . S
C1571 C1570 1.387 1_565 S
C1571 C1573 1.387 1_565 S
H1572 C1579 0.950 . S
C1573 C1571 1.387 1_545 S
C1573 C1575 1.390 . S
C1573 H1577 0.950 . S
H1574 C1570 0.950 . S
C1575 C1573 1.390 . S
C1575 C1576 1.387 . S
C1575 H1578 0.950 . S
C1576 C1575 1.387 . S
C1576 C1579 1.387 . S
H1577 C1573 0.950 . S
H1578 C1575 0.950 . S
C1579 C1570 1.390 . S
C1579 H1572 0.950 . S
C1579 C1576 1.387 . S
C1580 C1581 1.387 1_455 S
C1580 H1584 0.950 1_455 S
C1580 C1589 1.390 . S
C1581 C1580 1.387 1_655 S
C1581 C1583 1.387 1_655 S
H1582 C1589 0.950 . S
C1583 C1581 1.387 1_455 S
C1583 C1585 1.390 . S
C1583 H1587 0.950 . S
H1584 C1580 0.950 1_655 S
C1585 C1583 1.390 . S
C1585 C1586 1.387 . S
C1585 H1588 0.950 . S
C1586 C1585 1.387 . S
C1586 C1589 1.387 . S
H1587 C1583 0.950 . S
H1588 C1585 0.950 . S
C1589 C1580 1.390 . S
C1589 H1582 0.950 . S
C1589 C1586 1.387 . S
C1590 C1591 1.387 . S
C1590 H1594 0.950 . S
C1590 C1599 1.390 . S
C1591 C1590 1.387 . S
C1591 C1593 1.387 . S
H1592 C1599 0.950 . S
C1593 C1591 1.387 . S
C1593 C1595 1.390 . S
C1593 H1597 0.950 . S
H1594 C1590 0.950 . S
C1595 C1593 1.390 . S
C1595 C1596 1.387 . S
C1595 H1598 0.950 . S
C1596 C1595 1.387 . S
C1596 C1599 1.387 . S
H1597 C1593 0.950 . S
H1598 C1595 0.950 . S
C1599 C1590 1.390 . S
C1599 H1592 0.950 . S
C1599 C1596 1.387 . S
C1600 C1601 1.387 1_545 S
C1600 H1604 0.950 . S
C1600 C1609 1.390 . S
C1601 C1600 1.387 1_565 S
C1601 C1603 1.387 1_565 S
H1602 C1609 0.950 . S
C1603 C1601 1.387 1_545 S
C1603 C1605 1.390 . S
C1603 H1607 0.950 . S
H1604 C1600 0.950 . S
C1605 C1603 1.390 . S
C1605 C1606 1.387 . S
C1605 H1608 0.950 . S
C1606 C1605 1.387 . S
C1606 C1609 1.387 . S
H1607 C1603 0.950 . S
H1608 C1605 0.950 . S
C1609 C1600 1.390 . S
C1609 H1602 0.950 . S
C1609 C1606 1.387 . S
C1610 C1611 1.387 1_455 S
C1610 H1614 0.950 . S
C1610 C1619 1.390 . S
C1611 C1610 1.387 1_655 S
C1611 C1613 1.387 1_655 S
H1612 C1619 0.950 . S
C1613 C1611 1.387 1_455 S
C1613 C1615 1.390 . S
C1613 H1617 0.950 1_455 S
H1614 C1610 0.950 . S
C1615 C1613 1.390 . S
C1615 C1616 1.387 . S
C1615 H1618 0.950 . S
C1616 C1615 1.387 . S
C1616 C1619 1.387 . S
H1617 C1613 0.950 1_655 S
H1618 C1615 0.950 . S
C1619 C1610 1.390 . S
C1619 H1612 0.950 . S
C1619 C1616 1.387 . S
C1620 C1621 1.387 . S
C1620 H1624 0.950 . S
C1620 C1629 1.390 1_554 S
C1621 C1620 1.387 . S
C1621 C1623 1.387 . S
H1622 C1629 0.950 . S
C1623 C1621 1.387 . S
C1623 C1625 1.390 1_554 S
C1623 H1627 0.950 . S
H1624 C1620 0.950 . S
C1625 C1623 1.390 1_556 S
C1625 C1626 1.387 . S
C1625 H1628 0.950 . S
C1626 C1625 1.387 . S
C1626 C1629 1.387 . S
H1627 C1623 0.950 . S
H1628 C1625 0.950 . S
C1629 C1620 1.390 1_556 S
C1629 H1622 0.950 . S
C1629 C1626 1.387 . S
C1630 C1631 1.387 . S
C1630 H1634 0.950 1_455 S
C1630 C1639 1.390 1_556 S
C1631 C1630 1.387 . S
C1631 C1633 1.387 . S
H1632 C1639 0.950 . S
C1633 C1631 1.387 . S
C1633 C1635 1.390 1_556 S
C1633 H1637 0.950 . S
H1634 C1630 0.950 1_655 S
C1635 C1633 1.390 1_554 S
C1635 C1636 1.387 . S
C1635 H1638 0.950 . S
C1636 C1635 1.387 . S
C1636 C1639 1.387 . S
H1637 C1633 0.950 . S
H1638 C1635 0.950 . S
C1639 C1630 1.390 1_554 S
C1639 H1632 0.950 . S
C1639 C1636 1.387 . S
C1640 C1641 1.387 . S
C1640 H1644 0.950 . S
C1640 C1649 1.390 1_554 S
C1641 C1640 1.387 . S
C1641 C1643 1.387 . S
H1642 C1649 0.950 . S
C1643 C1641 1.387 . S
C1643 C1645 1.390 1_554 S
C1643 H1647 0.950 . S
H1644 C1640 0.950 . S
C1645 C1643 1.390 1_556 S
C1645 C1646 1.387 . S
C1645 H1648 0.950 . S
C1646 C1645 1.387 . S
C1646 C1649 1.387 . S
H1647 C1643 0.950 . S
H1648 C1645 0.950 . S
C1649 C1640 1.390 1_556 S
C1649 H1642 0.950 . S
C1649 C1646 1.387 . S
C1650 C1651 1.387 . S
C1650 H1654 0.950 . S
C1650 C1659 1.390 . S
C1651 C1650 1.387 . S
C1651 C1653 1.387 . S
H1652 C1659 0.950 . S
C1653 C1651 1.387 . S
C1653 C1655 1.390 . S
C1653 H1657 0.950 . S
H1654 C1650 0.950 . S
C1655 C1653 1.390 . S
C1655 C1656 1.387 . S
C1655 H1658 0.950 . S
C1656 C1655 1.387 . S
C1656 C1659 1.387 . S
H1657 C1653 0.950 . S
H1658 C1655 0.950 . S
C1659 C1650 1.390 . S
C1659 H1652 0.950 . S
C1659 C1656 1.387 . S
C1660 C1661 1.387 . S
C1660 H1664 0.950 . S
C1660 C1669 1.390 . S
C1661 C1660 1.387 . S
C1661 C1663 1.387 . S
H1662 C1669 0.950 . S
C1663 C1661 1.387 . S
C1663 C1665 1.390 . S
C1663 H1667 0.950 . S
H1664 C1660 0.950 . S
C1665 C1663 1.390 . S
C1665 C1666 1.387 . S
C1665 H1668 0.950 . S
C1666 C1665 1.387 . S
C1666 C1669 1.387 . S
H1667 C1663 0.950 . S
H1668 C1665 0.950 . S
C1669 C1660 1.390 . S
C1669 H1662 0.950 . S
C1669 C1666 1.387 . S
C1670 C1671 1.387 . S
C1670 H1674 0.950 1_545 S
C1670 C1679 1.390 . S
C1671 C1670 1.387 . S
C1671 C1673 1.387 . S
H1672 C1679 0.950 1_565 S
C1673 C1671 1.387 . S
C1673 C1675 1.390 . S
C1673 H1677 0.950 . S
H1674 C1670 0.950 1_565 S
C1675 C1673 1.390 . S
C1675 C1676 1.387 . S
C1675 H1678 0.950 . S
C1676 C1675 1.387 . S
C1676 C1679 1.387 . S
H1677 C1673 0.950 . S
H1678 C1675 0.950 . S
C1679 C1670 1.390 . S
C1679 H1672 0.950 1_545 S
C1679 C1676 1.387 . S
C1680 C1681 1.387 . S
C1680 H1684 0.950 . S
C1680 C1689 1.390 . S
C1681 C1680 1.387 . S
C1681 C1683 1.387 . S
H1682 C1689 0.950 . S
C1683 C1681 1.387 . S
C1683 C1685 1.390 . S
C1683 H1687 0.950 . S
H1684 C1680 0.950 . S
C1685 C1683 1.390 . S
C1685 C1686 1.387 . S
C1685 H1688 0.950 . S
C1686 C1685 1.387 . S
C1686 C1689 1.387 . S
H1687 C1683 0.950 . S
H1688 C1685 0.950 . S
C1689 C1680 1.390 . S
C1689 H1682 0.950 . S
C1689 C1686 1.387 . S
C1690 C1691 1.387 . S
C1690 H1694 0.950 . S
C1690 C1699 1.390 . S
C1691 C1690 1.387 . S
C1691 C1693 1.387 . S
H1692 C1699 0.950 . S
C1693 C1691 1.387 . S
C1693 C1695 1.390 . S
C1693 H1697 0.950 . S
H1694 C1690 0.950 . S
C1695 C1693 1.390 . S
C1695 C1696 1.387 . S
C1695 H1698 0.950 . S
C1696 C1695 1.387 . S
C1696 C1699 1.387 . S
H1697 C1693 0.950 . S
H1698 C1695 0.950 . S
C1699 C1690 1.390 . S
C1699 H1692 0.950 . S
C1699 C1696 1.387 . S
C1700 C1701 1.387 . S
C1700 H1704 0.950 . S
C1700 C1709 1.390 . S
C1701 C1700 1.387 . S
C1701 C1703 1.387 . S
H1702 C1709 0.950 . S
C1703 C1701 1.387 . S
C1703 C1705 1.390 . S
C1703 H1707 0.950 . S
H1704 C1700 0.950 . S
C1705 C1703 1.390 . S
C1705 C1706 1.387 . S
C1705 H1708 0.950 . S
C1706 C1705 1.387 . S
C1706 C1709 1.387 . S
H1707 C1703 0.950 . S
H1708 C1705 0.950 . S
C1709 C1700 1.390 . S
C1709 H1702 0.950 . S
C1709 C1706 1.387 . S
C1710 C1711 1.387 . S
C1710 H1714 0.950 . S
C1710 C1719 1.390 . S
C1711 C1710 1.387 . S
C1711 C1713 1.387 . S
H1712 C1719 0.950 . S
C1713 C1711 1.387 . S
C1713 C1715 1.390 . S
C1713 H1717 0.950 . S
H1714 C1710 0.950 . S
C1715 C1713 1.390 . S
C1715 C1716 1.387 . S
C1715 H1718 0.950 . S
C1716 C1715 1.387 . S
C1716 C1719 1.387 . S
H1717 C1713 0.950 . S
H1718 C1715 0.950 . S
C1719 C1710 1.390 . S
C1719 H1712 0.950 . S
C1719 C1716 1.387 . S
C1720 C1721 1.387 . S
C1720 H1724 0.950 . S
C1720 C1729 1.390 . S
C1721 C1720 1.387 . S
C1721 C1723 1.387 . S
H1722 C1729 0.950 . S
C1723 C1721 1.387 . S
C1723 C1725 1.390 . S
C1723 H1727 0.950 . S
H1724 C1720 0.950 . S
C1725 C1723 1.390 . S
C1725 C1726 1.387 . S
C1725 H1728 0.950 . S
C1726 C1725 1.387 . S
C1726 C1729 1.387 . S
H1727 C1723 0.950 . S
H1728 C1725 0.950 . S
C1729 C1720 1.390 . S
C1729 H1722 0.950 . S
C1729 C1726 1.387 . S
C1730 C1731 1.387 . S
C1730 H1734 0.950 . S
C1730 C1739 1.390 . S
C1731 C1730 1.387 . S
C1731 C1733 1.387 . S
H1732 C1739 0.950 . S
C1733 C1731 1.387 . S
C1733 C1735 1.390 . S
C1733 H1737 0.950 . S
H1734 C1730 0.950 . S
C1735 C1733 1.390 . S
C1735 C1736 1.387 . S
C1735 H1738 0.950 . S
C1736 C1735 1.387 . S
C1736 C1739 1.387 . S
H1737 C1733 0.950 . S
H1738 C1735 0.950 . S
C1739 C1730 1.390 . S
C1739 H1732 0.950 . S
C1739 C1736 1.387 . S
C1740 C1741 1.387 . S
C1740 H1744 0.950 . S
C1740 C1749 1.390 . S
C1741 C1740 1.387 . S
C1741 C1743 1.387 . S
H1742 C1749 0.950 . S
C1743 C1741 1.387 . S
C1743 C1745 1.390 . S
C1743 H1747 0.950 . S
H1744 C1740 0.950 . S
C1745 C1743 1.390 . S
C1745 C1746 1.387 . S
C1745 H1748 0.950 . S
C1746 C1745 1.387 . S
C1746 C1749 1.387 . S
H1747 C1743 0.950 . S
H1748 C1745 0.950 . S
C1749 C1740 1.390 . S
C1749 H1742 0.950 . S
C1749 C1746 1.387 . S
C1750 C1751 1.387 . S
C1750 H1754 0.950 . S
C1750 C1759 1.390 . S
C1751 C1750 1.387 . S
C1751 C1753 1.387 . S
H1752 C1759 0.950 . S
C1753 C1751 1.387 . S
C1753 C1755 1.390 . S
C1753 H1757 0.950 . S
H1754 C1750 0.950 . S
C1755 C1753 1.390 . S
C1755 C1756 1.387 . S
C1755 H1758 0.950 . S
C1756 C1755 1.387 . S
C1756 C1759 1.387 . S
H1757 C1753 0.950 . S
H1758 C1755 0.950 . S
C1759 C1750 1.390 . S
C1759 H1752 0.950 . S
C1759 C1756 1.387 . S
C1760 C1761 1.387 . S
C1760 H1764 0.950 . S
C1760 C1769 1.390 . S
C1761 C1760 1.387 . S
C1761 C1763 1.387 . S
H1762 C1769 0.950 . S
C1763 C1761 1.387 . S
C1763 C1765 1.390 . S
C1763 H1767 0.950 . S
H1764 C1760 0.950 . S
C1765 C1763 1.390 . S
C1765 C1766 1.387 . S
C1765 H1768 0.950 . S
C1766 C1765 1.387 . S
C1766 C1769 1.387 . S
H1767 C1763 0.950 . S
H1768 C1765 0.950 . S
C1769 C1760 1.390 . S
C1769 H1762 0.950 . S
C1769 C1766 1.387 . S
C1770 C1771 1.387 . S
C1770 H1774 0.950 . S
C1770 C1779 1.390 . S
C1771 C1770 1.387 . S
C1771 C1773 1.387 . S
H1772 C1779 0.950 . S
C1773 C1771 1.387 . S
C1773 C1775 1.390 . S
C1773 H1777 0.950 . S
H1774 C1770 0.950 . S
C1775 C1773 1.390 . S
C1775 C1776 1.387 . S
C1775 H1778 0.950 . S
C1776 C1775 1.387 . S
C1776 C1779 1.387 . S
H1777 C1773 0.950 . S
H1778 C1775 0.950 . S
C1779 C1770 1.390 . S
C1779 H1772 0.950 . S
C1779 C1776 1.387 . S
C1780 C1781 1.387 . S
C1780 H1784 0.950 . S
C1780 C1789 1.390 . S
C1781 C1780 1.387 . S
C1781 C1783 1.387 . S
H1782 C1789 0.950 . S
C1783 C1781 1.387 . S
C1783 C1785 1.390 . S
C1783 H1787 0.950 . S
H1784 C1780 0.950 . S
C1785 C1783 1.390 . S
C1785 C1786 1.387 . S
C1785 H1788 0.950 . S
C1786 C1785 1.387 . S
C1786 C1789 1.387 . S
H1787 C1783 0.950 . S
H1788 C1785 0.950 . S
C1789 C1780 1.390 . S
C1789 H1782 0.950 . S
C1789 C1786 1.387 . S
C1790 C1791 1.387 . S
C1790 H1794 0.950 . S
C1790 C1799 1.390 . S
C1791 C1790 1.387 . S
C1791 C1793 1.387 . S
H1792 C1799 0.950 . S
C1793 C1791 1.387 . S
C1793 C1795 1.390 . S
C1793 H1797 0.950 . S
H1794 C1790 0.950 . S
C1795 C1793 1.390 . S
C1795 C1796 1.387 . S
C1795 H1798 0.950 . S
C1796 C1795 1.387 . S
C1796 C1799 1.387 . S
H1797 C1793 0.950 . S
H1798 C1795 0.950 . S
C1799 C1790 1.390 . S
C1799 H1792 0.950 . S
C1799 C1796 1.387 . S
C1800 C1801 1.387 . S
C1800 H1804 0.950 . S
C1800 C1809 1.390 . S
C1801 C1800 1.387 . S
C1801 C1803 1.387 . S
H1802 C1809 0.950 . S
C1803 C1801 1.387 . S
C1803 C1805 1.390 . S
C1803 H1807 0.950 . S
H1804 C1800 0.950 . S
C1805 C1803 1.390 . S
C1805 C1806 1.387 . S
C1805 H1808 0.950 . S
C1806 C1805 1.387 . S
C1806 C1809 1.387 . S
H1807 C1803 0.950 . S
H1808 C1805 0.950 . S
C1809 C1800 1.390 . S
C1809 H1802 0.950 . S
C1809 C1806 1.387 . S
C1810 C1811 1.387 . S
C1810 H1814 0.950 . S
C1810 C1819 1.390 . S
C1811 C1810 1.387 . S
C1811 C1813 1.387 . S
H1812 C1819 0.950 . S
C1813 C1811 1.387 . S
C1813 C1815 1.390 . S
C1813 H1817 0.950 . S
H1814 C1810 0.950 . S
C1815 C1813 1.390 . S
C1815 C1816 1.387 . S
C1815 H1818 0.950 . S
C1816 C1815 1.387 . S
C1816 C1819 1.387 . S
H1817 C1813 0.950 . S
H1818 C1815 0.950 . S
C1819 C1810 1.390 . S
C1819 H1812 0.950 . S
C1819 C1816 1.387 . S
C1820 C1821 1.387 . S
C1820 H1824 0.950 . S
C1820 C1829 1.390 . S
C1821 C1820 1.387 . S
C1821 C1823 1.387 . S
H1822 C1829 0.950 . S
C1823 C1821 1.387 . S
C1823 C1825 1.390 . S
C1823 H1827 0.950 . S
H1824 C1820 0.950 . S
C1825 C1823 1.390 . S
C1825 C1826 1.387 . S
C1825 H1828 0.950 . S
C1826 C1825 1.387 . S
C1826 C1829 1.387 . S
H1827 C1823 0.950 . S
H1828 C1825 0.950 . S
C1829 C1820 1.390 . S
C1829 H1822 0.950 . S
C1829 C1826 1.387 . S
C1830 C1831 1.387 . S
C1830 H1834 0.950 . S
C1830 C1839 1.390 . S
C1831 C1830 1.387 . S
C1831 C1833 1.387 . S
H1832 C1839 0.950 . S
C1833 C1831 1.387 . S
C1833 C1835 1.390 . S
C1833 H1837 0.950 . S
H1834 C1830 0.950 . S
C1835 C1833 1.390 . S
C1835 C1836 1.387 . S
C1835 H1838 0.950 . S
C1836 C1835 1.387 . S
C1836 C1839 1.387 . S
H1837 C1833 0.950 . S
H1838 C1835 0.950 . S
C1839 C1830 1.390 . S
C1839 H1832 0.950 . S
C1839 C1836 1.387 . S
C1840 C1841 1.387 . S
C1840 H1844 0.950 . S
C1840 C1849 1.390 . S
C1841 C1840 1.387 . S
C1841 C1843 1.387 . S
H1842 C1849 0.950 . S
C1843 C1841 1.387 . S
C1843 C1845 1.390 . S
C1843 H1847 0.950 . S
H1844 C1840 0.950 . S
C1845 C1843 1.390 . S
C1845 C1846 1.387 . S
C1845 H1848 0.950 . S
C1846 C1845 1.387 . S
C1846 C1849 1.387 . S
H1847 C1843 0.950 . S
H1848 C1845 0.950 . S
C1849 C1840 1.390 . S
C1849 H1842 0.950 . S
C1849 C1846 1.387 . S
C1850 C1851 1.387 . S
C1850 H1854 0.950 . S
C1850 C1859 1.390 . S
C1851 C1850 1.387 . S
C1851 C1853 1.387 . S
H1852 C1859 0.950 . S
C1853 C1851 1.387 . S
C1853 C1855 1.390 . S
C1853 H1857 0.950 . S
H1854 C1850 0.950 . S
C1855 C1853 1.390 . S
C1855 C1856 1.387 . S
C1855 H1858 0.950 . S
C1856 C1855 1.387 . S
C1856 C1859 1.387 . S
H1857 C1853 0.950 . S
H1858 C1855 0.950 . S
C1859 C1850 1.390 . S
C1859 H1852 0.950 . S
C1859 C1856 1.387 . S
C1860 C1861 1.387 . S
C1860 H1864 0.950 . S
C1860 C1869 1.390 . S
C1861 C1860 1.387 . S
C1861 C1863 1.387 . S
H1862 C1869 0.950 . S
C1863 C1861 1.387 . S
C1863 C1865 1.390 . S
C1863 H1867 0.950 . S
H1864 C1860 0.950 . S
C1865 C1863 1.390 . S
C1865 C1866 1.387 . S
C1865 H1868 0.950 . S
C1866 C1865 1.387 . S
C1866 C1869 1.387 . S
H1867 C1863 0.950 . S
H1868 C1865 0.950 . S
C1869 C1860 1.390 . S
C1869 H1862 0.950 . S
C1869 C1866 1.387 . S
C1870 C1871 1.387 . S
C1870 H1874 0.950 . S
C1870 C1879 1.390 . S
C1871 C1870 1.387 . S
C1871 C1873 1.387 . S
H1872 C1879 0.950 . S
C1873 C1871 1.387 . S
C1873 C1875 1.390 . S
C1873 H1877 0.950 . S
H1874 C1870 0.950 . S
C1875 C1873 1.390 . S
C1875 C1876 1.387 . S
C1875 H1878 0.950 . S
C1876 C1875 1.387 . S
C1876 C1879 1.387 . S
H1877 C1873 0.950 . S
H1878 C1875 0.950 . S
C1879 C1870 1.390 . S
C1879 H1872 0.950 . S
C1879 C1876 1.387 . S
C1880 C1881 1.387 . S
C1880 H1884 0.950 . S
C1880 C1889 1.390 . S
C1881 C1880 1.387 . S
C1881 C1883 1.387 . S
H1882 C1889 0.950 . S
C1883 C1881 1.387 . S
C1883 C1885 1.390 . S
C1883 H1887 0.950 . S
H1884 C1880 0.950 . S
C1885 C1883 1.390 . S
C1885 C1886 1.387 . S
C1885 H1888 0.950 . S
C1886 C1885 1.387 . S
C1886 C1889 1.387 . S
H1887 C1883 0.950 . S
H1888 C1885 0.950 . S
C1889 C1880 1.390 . S
C1889 H1882 0.950 . S
C1889 C1886 1.387 . S
C1890 C1891 1.387 . S
C1890 H1894 0.950 . S
C1890 C1899 1.390 . S
C1891 C1890 1.387 . S
C1891 C1893 1.387 . S
H1892 C1899 0.950 . S
C1893 C1891 1.387 . S
C1893 C1895 1.390 . S
C1893 H1897 0.950 . S
H1894 C1890 0.950 . S
C1895 C1893 1.390 . S
C1895 C1896 1.387 . S
C1895 H1898 0.950 . S
C1896 C1895 1.387 . S
C1896 C1899 1.387 . S
H1897 C1893 0.950 . S
H1898 C1895 0.950 . S
C1899 C1890 1.390 . S
C1899 H1892 0.950 . S
C1899 C1896 1.387 . S
C1900 C1901 1.387 . S
C1900 H1904 0.950 . S
C1900 C1909 1.390 . S
C1901 C1900 1.387 . S
C1901 C1903 1.387 . S
H1902 C1909 0.950 . S
C1903 C1901 1.387 . S
C1903 C1905 1.390 . S
C1903 H1907 0.950 . S
H1904 C1900 0.950 . S
C1905 C1903 1.390 . S
C1905 C1906 1.387 . S
C1905 H1908 0.950 . S
C1906 C1905 1.387 . S
C1906 C1909 1.387 . S
H1907 C1903 0.950 . S
H1908 C1905 0.950 . S
C1909 C1900 1.390 . S
C1909 H1902 0.950 . S
C1909 C1906 1.387 . S
C1910 C1911 1.387 . S
C1910 H1914 0.950 . S
C1910 C1919 1.390 . S
C1911 C1910 1.387 . S
C1911 C1913 1.387 . S
H1912 C1919 0.950 . S
C1913 C1911 1.387 . S
C1913 C1915 1.390 . S
C1913 H1917 0.950 . S
H1914 C1910 0.950 . S
C1915 C1913 1.390 . S
C1915 C1916 1.387 . S
C1915 H1918 0.950 . S
C1916 C1915 1.387 . S
C1916 C1919 1.387 . S
H1917 C1913 0.950 . S
H1918 C1915 0.950 . S
C1919 C1910 1.390 . S
C1919 H1912 0.950 . S
C1919 C1916 1.387 . S
C1920 C1921 1.387 . S
C1920 H1924 0.950 1_545 S
C1920 C1929 1.390 . S
C1921 C1920 1.387 . S
C1921 C1923 1.387 . S
H1922 C1929 0.950 . S
C1923 C1921 1.387 . S
C1923 C1925 1.390 . S
C1923 H1927 0.950 . S
H1924 C1920 0.950 1_565 S
C1925 C1923 1.390 . S
C1925 C1926 1.387 . S
C1925 H1928 0.950 . S
C1926 C1925 1.387 . S
C1926 C1929 1.387 . S
H1927 C1923 0.950 . S
H1928 C1925 0.950 . S
C1929 C1920 1.390 . S
C1929 H1922 0.950 . S
C1929 C1926 1.387 . S
C1930 C1931 1.387 . S
C1930 H1934 0.950 . S
C1930 C1939 1.390 . S
C1931 C1930 1.387 . S
C1931 C1933 1.387 . S
H1932 C1939 0.950 . S
C1933 C1931 1.387 . S
C1933 C1935 1.390 . S
C1933 H1937 0.950 . S
H1934 C1930 0.950 . S
C1935 C1933 1.390 . S
C1935 C1936 1.387 . S
C1935 H1938 0.950 1_455 S
C1936 C1935 1.387 . S
C1936 C1939 1.387 . S
H1937 C1933 0.950 . S
H1938 C1935 0.950 1_655 S
C1939 C1930 1.390 . S
C1939 H1932 0.950 . S
C1939 C1936 1.387 . S
C1940 C1941 1.387 . S
C1940 H1944 0.950 . S
C1940 C1949 1.390 . S
C1941 C1940 1.387 . S
C1941 C1943 1.387 . S
H1942 C1949 0.950 . S
C1943 C1941 1.387 . S
C1943 C1945 1.390 . S
C1943 H1947 0.950 . S
H1944 C1940 0.950 . S
C1945 C1943 1.390 . S
C1945 C1946 1.387 . S
C1945 H1948 0.950 . S
C1946 C1945 1.387 . S
C1946 C1949 1.387 . S
H1947 C1943 0.950 . S
H1948 C1945 0.950 . S
C1949 C1940 1.390 . S
C1949 H1942 0.950 . S
C1949 C1946 1.387 . S
C1950 C1951 1.387 . S
C1950 H1954 0.950 . S
C1950 C1959 1.390 . S
C1951 C1950 1.387 . S
C1951 C1953 1.387 . S
H1952 C1959 0.950 . S
C1953 C1951 1.387 . S
C1953 C1955 1.390 . S
C1953 H1957 0.950 . S
H1954 C1950 0.950 . S
C1955 C1953 1.390 . S
C1955 C1956 1.387 . S
C1955 H1958 0.950 . S
C1956 C1955 1.387 . S
C1956 C1959 1.387 . S
H1957 C1953 0.950 . S
H1958 C1955 0.950 . S
C1959 C1950 1.390 . S
C1959 H1952 0.950 . S
C1959 C1956 1.387 . S
C1960 C1961 1.387 . S
C1960 H1964 0.950 . S
C1960 C1969 1.390 . S
C1961 C1960 1.387 . S
C1961 C1963 1.387 . S
H1962 C1969 0.950 . S
C1963 C1961 1.387 . S
C1963 C1965 1.390 . S
C1963 H1967 0.950 . S
H1964 C1960 0.950 . S
C1965 C1963 1.390 . S
C1965 C1966 1.387 . S
C1965 H1968 0.950 . S
C1966 C1965 1.387 . S
C1966 C1969 1.387 . S
H1967 C1963 0.950 . S
H1968 C1965 0.950 . S
C1969 C1960 1.390 . S
C1969 H1962 0.950 . S
C1969 C1966 1.387 . S
C1970 C1971 1.387 . S
C1970 H1974 0.950 . S
C1970 C1979 1.390 . S
C1971 C1970 1.387 . S
C1971 C1973 1.387 . S
H1972 C1979 0.950 . S
C1973 C1971 1.387 . S
C1973 C1975 1.390 . S
C1973 H1977 0.950 . S
H1974 C1970 0.950 . S
C1975 C1973 1.390 . S
C1975 C1976 1.387 . S
C1975 H1978 0.950 . S
C1976 C1975 1.387 . S
C1976 C1979 1.387 . S
H1977 C1973 0.950 . S
H1978 C1975 0.950 . S
C1979 C1970 1.390 . S
C1979 H1972 0.950 . S
C1979 C1976 1.387 . S
C1980 C1981 1.387 . S
C1980 H1984 0.950 . S
C1980 C1989 1.390 . S
C1981 C1980 1.387 . S
C1981 C1983 1.387 . S
H1982 C1989 0.950 . S
C1983 C1981 1.387 . S
C1983 C1985 1.390 . S
C1983 H1987 0.950 . S
H1984 C1980 0.950 . S
C1985 C1983 1.390 . S
C1985 C1986 1.387 . S
C1985 H1988 0.950 . S
C1986 C1985 1.387 . S
C1986 C1989 1.387 . S
H1987 C1983 0.950 . S
H1988 C1985 0.950 . S
C1989 C1980 1.390 . S
C1989 H1982 0.950 . S
C1989 C1986 1.387 . S
C1990 C1991 1.387 . S
C1990 H1994 0.950 . S
C1990 C1999 1.390 . S
C1991 C1990 1.387 . S
C1991 C1993 1.387 . S
H1992 C1999 0.950 . S
C1993 C1991 1.387 . S
C1993 C1995 1.390 . S
C1993 H1997 0.950 . S
H1994 C1990 0.950 . S
C1995 C1993 1.390 . S
C1995 C1996 1.387 . S
C1995 H1998 0.950 . S
C1996 C1995 1.387 . S
C1996 C1999 1.387 . S
H1997 C1993 0.950 . S
H1998 C1995 0.950 . S
C1999 C1990 1.390 . S
C1999 H1992 0.950 . S
C1999 C1996 1.387 . S
C2000 C2001 1.387 . S
C2000 H2004 0.950 . S
C2000 C2009 1.390 . S
C2001 C2000 1.387 . S
C2001 C2003 1.387 . S
H2002 C2009 0.950 . S
C2003 C2001 1.387 . S
C2003 C2005 1.390 . S
C2003 H2007 0.950 . S
H2004 C2000 0.950 . S
C2005 C2003 1.390 . S
C2005 C2006 1.387 . S
C2005 H2008 0.950 . S
C2006 C2005 1.387 . S
C2006 C2009 1.387 . S
H2007 C2003 0.950 . S
H2008 C2005 0.950 . S
C2009 C2000 1.390 . S
C2009 H2002 0.950 . S
C2009 C2006 1.387 . S
C2010 C2011 1.387 . S
C2010 H2014 0.950 . S
C2010 C2019 1.390 . S
C2011 C2010 1.387 . S
C2011 C2013 1.387 . S
H2012 C2019 0.950 . S
C2013 C2011 1.387 . S
C2013 C2015 1.390 1_455 S
C2013 H2017 0.950 . S
H2014 C2010 0.950 . S
C2015 C2013 1.390 1_655 S
C2015 C2016 1.387 1_655 S
C2015 H2018 0.950 . S
C2016 C2015 1.387 1_455 S
C2016 C2019 1.387 . S
H2017 C2013 0.950 . S
H2018 C2015 0.950 . S
C2019 C2010 1.390 . S
C2019 H2012 0.950 . S
C2019 C2016 1.387 . S
C2020 C2021 1.387 . S
C2020 H2024 0.950 . S
C2020 C2029 1.390 . S
C2021 C2020 1.387 . S
C2021 C2023 1.387 . S
H2022 C2029 0.950 . S
C2023 C2021 1.387 . S
C2023 C2025 1.390 . S
C2023 H2027 0.950 . S
H2024 C2020 0.950 . S
C2025 C2023 1.390 . S
C2025 C2026 1.387 . S
C2025 H2028 0.950 . S
C2026 C2025 1.387 . S
C2026 C2029 1.387 . S
H2027 C2023 0.950 . S
H2028 C2025 0.950 . S
C2029 C2020 1.390 . S
C2029 H2022 0.950 . S
C2029 C2026 1.387 . S
C2030 C2031 1.387 . S
C2030 H2034 0.950 1_545 S
C2030 C2039 1.390 . S
C2031 C2030 1.387 . S
C2031 C2033 1.387 . S
H2032 C2039 0.950 . S
C2033 C2031 1.387 . S
C2033 C2035 1.390 . S
C2033 H2037 0.950 . S
H2034 C2030 0.950 1_565 S
C2035 C2033 1.390 . S
C2035 C2036 1.387 . S
C2035 H2038 0.950 . S
C2036 C2035 1.387 . S
C2036 C2039 1.387 . S
H2037 C2033 0.950 . S
H2038 C2035 0.950 . S
C2039 C2030 1.390 . S
C2039 H2032 0.950 . S
C2039 C2036 1.387 . S
C2040 C2041 1.387 . S
C2040 H2044 0.950 . S
C2040 C2049 1.390 . S
C2041 C2040 1.387 . S
C2041 C2043 1.387 . S
H2042 C2049 0.950 . S
C2043 C2041 1.387 . S
C2043 C2045 1.390 . S
C2043 H2047 0.950 . S
H2044 C2040 0.950 . S
C2045 C2043 1.390 . S
C2045 C2046 1.387 . S
C2045 H2048 0.950 . S
C2046 C2045 1.387 . S
C2046 C2049 1.387 . S
H2047 C2043 0.950 . S
H2048 C2045 0.950 . S
C2049 C2040 1.390 . S
C2049 H2042 0.950 . S
C2049 C2046 1.387 . S
C2050 C2051 1.387 . S
C2050 H2054 0.950 . S
C2050 C2059 1.390 . S
C2051 C2050 1.387 . S
C2051 C2053 1.387 . S
H2052 C2059 0.950 . S
C2053 C2051 1.387 . S
C2053 C2055 1.390 . S
C2053 H2057 0.950 . S
H2054 C2050 0.950 . S
C2055 C2053 1.390 . S
C2055 C2056 1.387 . S
C2055 H2058 0.950 . S
C2056 C2055 1.387 . S
C2056 C2059 1.387 . S
H2057 C2053 0.950 . S
H2058 C2055 0.950 . S
C2059 C2050 1.390 . S
C2059 H2052 0.950 . S
C2059 C2056 1.387 . S
C2060 C2061 1.387 . S
C2060 H2064 0.950 . S
C2060 C2069 1.390 . S
C2061 C2060 1.387 . S
C2061 C2063 1.387 . S
H2062 C2069 0.950 . S
C2063 C2061 1.387 . S
C2063 C2065 1.390 . S
C2063 H2067 0.950 . S
H2064 C2060 0.950 . S
C2065 C2063 1.390 . S
C2065 C2066 1.387 . S
C2065 H2068 0.950 . S
C2066 C2065 1.387 . S
C2066 C2069 1.387 . S
H2067 C2063 0.950 . S
H2068 C2065 0.950 . S
C2069 C2060 1.390 . S
C2069 H2062 0.950 . S
C2069 C2066 1.387 . S
C2070 C2071 1.387 . S
C2070 H2074 0.950 . S
C2070 C2079 1.390 . S
C2071 C2070 1.387 . S
C2071 C2073 1.387 . S
H2072 C2079 0.944 1_655 S
C2073 C2071 1.387 . S
C2073 C2075 1.390 . S
C2073 H2077 0.950 . S
H2074 C2070 0.950 . S
C2075 C2073 1.390 . S
C2075 C2076 1.387 . S
C2075 H2078 0.950 . S
C2076 C2075 1.387 . S
C2076 C2079 1.387 . S
H2077 C2073 0.950 . S
H2078 C2075 0.950 . S
C2079 C2070 1.390 . S
C2079 H2072 0.944 1_455 S
C2079 C2076 1.387 . S
C2080 C2081 1.387 . S
C2080 H2084 0.950 . S
C2080 C2089 1.390 . S
C2081 C2080 1.387 . S
C2081 C2083 1.387 . S
H2082 C2089 0.950 . S
C2083 C2081 1.387 . S
C2083 C2085 1.390 . S
C2083 H2087 0.950 . S
H2084 C2080 0.950 . S
C2085 C2083 1.390 . S
C2085 C2086 1.387 . S
C2085 H2088 0.950 . S
C2086 C2085 1.387 . S
C2086 C2089 1.387 . S
H2087 C2083 0.950 . S
H2088 C2085 0.950 . S
C2089 C2080 1.390 . S
C2089 H2082 0.950 . S
C2089 C2086 1.387 . S
C2090 C2091 1.387 . S
C2090 H2094 0.950 . S
C2090 C2099 1.390 1_545 S
C2091 C2090 1.387 . S
C2091 C2093 1.387 . S
H2092 C2099 0.950 . S
C2093 C2091 1.387 . S
C2093 C2095 1.390 . S
C2093 H2097 0.950 . S
H2094 C2090 0.950 . S
C2095 C2093 1.390 . S
C2095 C2096 1.387 . S
C2095 H2098 0.950 . S
C2096 C2095 1.387 . S
C2096 C2099 1.387 1_545 S
H2097 C2093 0.950 . S
H2098 C2095 0.950 . S
C2099 C2090 1.390 1_565 S
C2099 H2092 0.950 . S
C2099 C2096 1.387 1_565 S
C2100 C2101 1.387 . S
C2100 H2104 0.950 1_545 S
C2100 C2109 1.390 . S
C2101 C2100 1.387 . S
C2101 C2103 1.387 . S
H2102 C2109 0.950 . S
C2103 C2101 1.387 . S
C2103 C2105 1.390 . S
C2103 H2107 0.950 . S
H2104 C2100 0.950 1_565 S
C2105 C2103 1.390 . S
C2105 C2106 1.387 . S
C2105 H2108 0.950 . S
C2106 C2105 1.387 . S
C2106 C2109 1.387 . S
H2107 C2103 0.950 . S
H2108 C2105 0.950 . S
C2109 C2100 1.390 . S
C2109 H2102 0.950 . S
C2109 C2106 1.387 . S
C2110 C2111 1.387 . S
C2110 H2114 0.950 . S
C2110 C2119 1.390 . S
C2111 C2110 1.387 . S
C2111 C2113 1.387 . S
H2112 C2119 0.950 . S
C2113 C2111 1.387 . S
C2113 C2115 1.390 . S
C2113 H2117 0.950 . S
H2114 C2110 0.950 . S
C2115 C2113 1.390 . S
C2115 C2116 1.387 . S
C2115 H2118 0.950 1_455 S
C2116 C2115 1.387 . S
C2116 C2119 1.387 . S
H2117 C2113 0.950 . S
H2118 C2115 0.950 1_655 S
C2119 C2110 1.390 . S
C2119 H2112 0.950 . S
C2119 C2116 1.387 . S
C2120 C2121 1.387 . S
C2120 H2124 0.950 . S
C2120 C2129 1.390 . S
C2121 C2120 1.387 . S
C2121 C2123 1.387 . S
H2122 C2129 0.950 . S
C2123 C2121 1.387 . S
C2123 C2125 1.390 . S
C2123 H2127 0.950 . S
H2124 C2120 0.950 . S
C2125 C2123 1.390 . S
C2125 C2126 1.387 . S
C2125 H2128 0.950 . S
C2126 C2125 1.387 . S
C2126 C2129 1.387 . S
H2127 C2123 0.950 . S
H2128 C2125 0.950 . S
C2129 C2120 1.390 . S
C2129 H2122 0.950 . S
C2129 C2126 1.387 . S
C2130 C2131 1.387 . S
C2130 H2134 0.950 . S
C2130 C2139 1.390 . S
C2131 C2130 1.387 . S
C2131 C2133 1.387 . S
H2132 C2139 0.950 . S
C2133 C2131 1.387 . S
C2133 C2135 1.390 . S
C2133 H2137 0.950 . S
H2134 C2130 0.950 . S
C2135 C2133 1.390 . S
C2135 C2136 1.387 . S
C2135 H2138 0.950 . S
C2136 C2135 1.387 . S
C2136 C2139 1.387 . S
H2137 C2133 0.950 . S
H2138 C2135 0.950 . S
C2139 C2130 1.390 . S
C2139 H2132 0.950 . S
C2139 C2136 1.387 . S
C2140 C2141 1.387 . S
C2140 H2144 0.950 . S
C2140 C2149 1.390 . S
C2141 C2140 1.387 . S
C2141 C2143 1.387 . S
H2142 C2149 0.950 . S
C2143 C2141 1.387 . S
C2143 C2145 1.390 . S
C2143 H2147 0.950 . S
H2144 C2140 0.950 . S
C2145 C2143 1.390 . S
C2145 C2146 1.387 . S
C2145 H2148 0.950 . S
C2146 C2145 1.387 . S
C2146 C2149 1.387 . S
H2147 C2143 0.950 . S
H2148 C2145 0.950 . S
C2149 C2140 1.390 . S
C2149 H2142 0.950 . S
C2149 C2146 1.387 . S
C2150 C2151 1.387 . S
C2150 H2154 0.950 . S
C2150 C2159 1.390 . S
C2151 C2150 1.387 . S
C2151 C2153 1.387 . S
H2152 C2159 0.950 . S
C2153 C2151 1.387 . S
C2153 C2155 1.390 . S
C2153 H2157 0.950 . S
H2154 C2150 0.950 . S
C2155 C2153 1.390 . S
C2155 C2156 1.387 . S
C2155 H2158 0.950 . S
C2156 C2155 1.387 . S
C2156 C2159 1.387 . S
H2157 C2153 0.950 . S
H2158 C2155 0.950 . S
C2159 C2150 1.390 . S
C2159 H2152 0.950 . S
C2159 C2156 1.387 . S
C2160 C2161 1.387 . S
C2160 H2164 0.950 . S
C2160 C2169 1.390 . S
C2161 C2160 1.387 . S
C2161 C2163 1.387 . S
H2162 C2169 0.950 . S
C2163 C2161 1.387 . S
C2163 C2165 1.390 . S
C2163 H2167 0.950 . S
H2164 C2160 0.950 . S
C2165 C2163 1.390 . S
C2165 C2166 1.387 . S
C2165 H2168 0.950 . S
C2166 C2165 1.387 . S
C2166 C2169 1.387 . S
H2167 C2163 0.950 . S
H2168 C2165 0.950 . S
C2169 C2160 1.390 . S
C2169 H2162 0.950 . S
C2169 C2166 1.387 . S
C2170 C2171 1.387 . S
C2170 H2174 0.950 . S
C2170 C2179 1.390 . S
C2171 C2170 1.387 . S
C2171 C2173 1.387 . S
H2172 C2179 0.950 . S
C2173 C2171 1.387 . S
C2173 C2175 1.390 . S
C2173 H2177 0.950 . S
H2174 C2170 0.950 . S
C2175 C2173 1.390 . S
C2175 C2176 1.387 . S
C2175 H2178 0.950 . S
C2176 C2175 1.387 . S
C2176 C2179 1.387 . S
H2177 C2173 0.950 . S
H2178 C2175 0.950 . S
C2179 C2170 1.390 . S
C2179 H2172 0.950 . S
C2179 C2176 1.387 . S
C2180 C2181 1.387 . S
C2180 H2184 0.950 . S
C2180 C2189 1.390 . S
C2181 C2180 1.387 . S
C2181 C2183 1.387 . S
H2182 C2189 0.950 . S
C2183 C2181 1.387 . S
C2183 C2185 1.390 . S
C2183 H2187 0.950 . S
H2184 C2180 0.950 . S
C2185 C2183 1.390 . S
C2185 C2186 1.387 . S
C2185 H2188 0.950 . S
C2186 C2185 1.387 . S
C2186 C2189 1.387 . S
H2187 C2183 0.950 . S
H2188 C2185 0.950 . S
C2189 C2180 1.390 . S
C2189 H2182 0.950 . S
C2189 C2186 1.387 . S
C2190 C2191 1.387 . S
C2190 H2194 0.950 . S
C2190 C2199 1.390 . S
C2191 C2190 1.387 . S
C2191 C2193 1.387 . S
H2192 C2199 0.950 . S
C2193 C2191 1.387 . S
C2193 C2195 1.390 . S
C2193 H2197 0.950 . S
H2194 C2190 0.950 . S
C2195 C2193 1.390 . S
C2195 C2196 1.387 . S
C2195 H2198 0.950 . S
C2196 C2195 1.387 . S
C2196 C2199 1.387 . S
H2197 C2193 0.950 . S
H2198 C2195 0.950 . S
C2199 C2190 1.390 . S
C2199 H2192 0.950 . S
C2199 C2196 1.387 . S
C2200 C2201 1.387 . S
C2200 H2204 0.950 . S
C2200 C2209 1.390 . S
C2201 C2200 1.387 . S
C2201 C2203 1.387 . S
H2202 C2209 0.950 . S
C2203 C2201 1.387 . S
C2203 C2205 1.390 . S
C2203 H2207 0.950 . S
H2204 C2200 0.950 . S
C2205 C2203 1.390 . S
C2205 C2206 1.387 . S
C2205 H2208 0.950 . S
C2206 C2205 1.387 . S
C2206 C2209 1.387 . S
H2207 C2203 0.950 . S
H2208 C2205 0.950 . S
C2209 C2200 1.390 . S
C2209 H2202 0.950 . S
C2209 C2206 1.387 . S
C2210 C2211 1.387 . S
C2210 H2214 0.950 . S
C2210 C2219 1.390 . S
C2211 C2210 1.387 . S
C2211 C2213 1.387 . S
H2212 C2219 0.950 . S
C2213 C2211 1.387 . S
C2213 C2215 1.390 . S
C2213 H2217 0.950 . S
H2214 C2210 0.950 . S
C2215 C2213 1.390 . S
C2215 C2216 1.387 . S
C2215 H2218 0.950 . S
C2216 C2215 1.387 . S
C2216 C2219 1.387 . S
H2217 C2213 0.950 . S
H2218 C2215 0.950 . S
C2219 C2210 1.390 . S
C2219 H2212 0.950 . S
C2219 C2216 1.387 . S
C2220 C2221 1.387 . S
C2220 H2224 0.950 . S
C2220 C2229 1.390 . S
C2221 C2220 1.387 . S
C2221 C2223 1.387 . S
H2222 C2229 0.950 . S
C2223 C2221 1.387 . S
C2223 C2225 1.390 . S
C2223 H2227 0.950 . S
H2224 C2220 0.950 . S
C2225 C2223 1.390 . S
C2225 C2226 1.387 . S
C2225 H2228 0.950 . S
C2226 C2225 1.387 . S
C2226 C2229 1.387 . S
H2227 C2223 0.950 . S
H2228 C2225 0.950 . S
C2229 C2220 1.390 . S
C2229 H2222 0.950 . S
C2229 C2226 1.387 . S
C2230 C2231 1.387 . S
C2230 H2234 0.950 . S
C2230 C2239 1.390 . S
C2231 C2230 1.387 . S
C2231 C2233 1.387 . S
H2232 C2239 0.950 . S
C2233 C2231 1.387 . S
C2233 C2235 1.390 . S
C2233 H2237 0.950 . S
H2234 C2230 0.950 . S
C2235 C2233 1.390 . S
C2235 C2236 1.387 . S
C2235 H2238 0.950 . S
C2236 C2235 1.387 . S
C2236 C2239 1.387 . S
H2237 C2233 0.950 . S
H2238 C2235 0.950 . S
C2239 C2230 1.390 . S
C2239 H2232 0.950 . S
C2239 C2236 1.387 . S
C2240 C2241 1.387 . S
C2240 H2244 0.950 . S
C2240 C2249 1.390 . S
C2241 C2240 1.387 . S
C2241 C2243 1.387 . S
H2242 C2249 0.950 . S
C2243 C2241 1.387 . S
C2243 C2245 1.390 . S
C2243 H2247 0.950 . S
H2244 C2240 0.950 . S
C2245 C2243 1.390 . S
C2245 C2246 1.387 . S
C2245 H2248 0.950 . S
C2246 C2245 1.387 . S
C2246 C2249 1.387 . S
H2247 C2243 0.950 . S
H2248 C2245 0.950 . S
C2249 C2240 1.390 . S
C2249 H2242 0.950 . S
C2249 C2246 1.387 . S
C2250 C2251 1.387 . S
C2250 H2254 0.950 . S
C2250 C2259 1.390 . S
C2251 C2250 1.387 . S
C2251 C2253 1.387 . S
H2252 C2259 0.950 . S
C2253 C2251 1.387 . S
C2253 C2255 1.390 . S
C2253 H2257 0.950 . S
H2254 C2250 0.950 . S
C2255 C2253 1.390 . S
C2255 C2256 1.387 . S
C2255 H2258 0.950 . S
C2256 C2255 1.387 . S
C2256 C2259 1.387 . S
H2257 C2253 0.950 . S
H2258 C2255 0.950 . S
C2259 C2250 1.390 . S
C2259 H2252 0.950 . S
C2259 C2256 1.387 . S
C2260 C2261 1.387 . S
C2260 H2264 0.950 . S
C2260 C2269 1.390 . S
C2261 C2260 1.387 . S
C2261 C2263 1.387 . S
H2262 C2269 0.950 . S
C2263 C2261 1.387 . S
C2263 C2265 1.390 . S
C2263 H2267 0.950 . S
H2264 C2260 0.950 . S
C2265 C2263 1.390 . S
C2265 C2266 1.387 . S
C2265 H2268 0.950 . S
C2266 C2265 1.387 . S
C2266 C2269 1.387 . S
H2267 C2263 0.950 . S
H2268 C2265 0.950 . S
C2269 C2260 1.390 . S
C2269 H2262 0.950 . S
C2269 C2266 1.387 . S
C2270 C2271 1.387 . S
C2270 H2274 0.950 . S
C2270 C2279 1.390 . S
C2271 C2270 1.387 . S
C2271 C2273 1.387 . S
H2272 C2279 0.950 . S
C2273 C2271 1.387 . S
C2273 C2275 1.390 . S
C2273 H2277 0.950 . S
H2274 C2270 0.950 . S
C2275 C2273 1.390 . S
C2275 C2276 1.387 . S
C2275 H2278 0.950 . S
C2276 C2275 1.387 . S
C2276 C2279 1.387 . S
H2277 C2273 0.950 . S
H2278 C2275 0.950 . S
C2279 C2270 1.390 . S
C2279 H2272 0.950 . S
C2279 C2276 1.387 . S
C2280 C2281 1.387 . S
C2280 H2284 0.950 . S
C2280 C2289 1.390 . S
C2281 C2280 1.387 . S
C2281 C2283 1.387 . S
H2282 C2289 0.950 . S
C2283 C2281 1.387 . S
C2283 C2285 1.390 . S
C2283 H2287 0.950 . S
H2284 C2280 0.950 . S
C2285 C2283 1.390 . S
C2285 C2286 1.387 . S
C2285 H2288 0.950 . S
C2286 C2285 1.387 . S
C2286 C2289 1.387 . S
H2287 C2283 0.950 . S
H2288 C2285 0.950 . S
C2289 C2280 1.390 . S
C2289 H2282 0.950 . S
C2289 C2286 1.387 . S
C2290 C2291 1.387 . S
C2290 H2294 0.950 . S
C2290 C2299 1.390 . S
C2291 C2290 1.387 . S
C2291 C2293 1.387 . S
H2292 C2299 0.950 . S
C2293 C2291 1.387 . S
C2293 C2295 1.390 . S
C2293 H2297 0.950 . S
H2294 C2290 0.950 . S
C2295 C2293 1.390 . S
C2295 C2296 1.387 . S
C2295 H2298 0.950 . S
C2296 C2295 1.387 . S
C2296 C2299 1.387 . S
H2297 C2293 0.950 . S
H2298 C2295 0.950 . S
C2299 C2290 1.390 . S
C2299 H2292 0.950 . S
C2299 C2296 1.387 . S
C2300 C2301 1.387 . S
C2300 H2304 0.950 . S
C2300 C2309 1.390 . S
C2301 C2300 1.387 . S
C2301 C2303 1.387 . S
H2302 C2309 0.950 . S
C2303 C2301 1.387 . S
C2303 C2305 1.390 . S
C2303 H2307 0.950 . S
H2304 C2300 0.950 . S
C2305 C2303 1.390 . S
C2305 C2306 1.387 . S
C2305 H2308 0.950 . S
C2306 C2305 1.387 . S
C2306 C2309 1.387 . S
H2307 C2303 0.950 . S
H2308 C2305 0.950 . S
C2309 C2300 1.390 . S
C2309 H2302 0.950 . S
C2309 C2306 1.387 . S
C2310 C2311 1.387 . S
C2310 H2314 0.950 . S
C2310 C2319 1.390 . S
C2311 C2310 1.387 . S
C2311 C2313 1.387 . S
H2312 C2319 0.950 . S
C2313 C2311 1.387 . S
C2313 C2315 1.390 . S
C2313 H2317 0.950 . S
H2314 C2310 0.950 . S
C2315 C2313 1.390 . S
C2315 C2316 1.387 . S
C2315 H2318 0.950 . S
C2316 C2315 1.387 . S
C2316 C2319 1.387 . S
H2317 C2313 0.950 . S
H2318 C2315 0.950 . S
C2319 C2310 1.390 . S
C2319 H2312 0.950 . S
C2319 C2316 1.387 . S
C2320 C2321 1.387 . S
C2320 H2324 0.950 . S
C2320 C2329 1.390 . S
C2321 C2320 1.387 . S
C2321 C2323 1.387 . S
H2322 C2329 0.950 . S
C2323 C2321 1.387 . S
C2323 C2325 1.390 . S
C2323 H2327 0.950 . S
H2324 C2320 0.950 . S
C2325 C2323 1.390 . S
C2325 C2326 1.387 . S
C2325 H2328 0.950 . S
C2326 C2325 1.387 . S
C2326 C2329 1.387 . S
H2327 C2323 0.950 . S
H2328 C2325 0.950 . S
C2329 C2320 1.390 . S
C2329 H2322 0.950 . S
C2329 C2326 1.387 . S
C2330 C2331 1.387 . S
C2330 H2334 0.950 . S
C2330 C2339 1.390 1_545 S
C2331 C2330 1.387 . S
C2331 C2333 1.387 . S
H2332 C2339 0.950 . S
C2333 C2331 1.387 . S
C2333 C2335 1.390 . S
C2333 H2337 0.950 . S
H2334 C2330 0.950 . S
C2335 C2333 1.390 . S
C2335 C2336 1.387 1_545 S
C2335 H2338 0.950 . S
C2336 C2335 1.387 1_565 S
C2336 C2339 1.387 . S
H2337 C2333 0.950 . S
H2338 C2335 0.950 . S
C2339 C2330 1.390 1_565 S
C2339 H2332 0.950 . S
C2339 C2336 1.387 . S
C2340 C2341 1.387 . S
C2340 H2344 0.950 . S
C2340 C2349 1.390 1_565 S
C2341 C2340 1.387 . S
C2341 C2343 1.387 1_565 S
H2342 C2349 0.950 . S
C2343 C2341 1.387 1_545 S
C2343 C2345 1.390 . S
C2343 H2347 0.950 1_545 S
H2344 C2340 0.950 . S
C2345 C2343 1.390 . S
C2345 C2346 1.387 . S
C2345 H2348 0.950 . S
C2346 C2345 1.387 . S
C2346 C2349 1.387 . S
H2347 C2343 0.950 1_565 S
H2348 C2345 0.950 . S
C2349 C2340 1.390 1_545 S
C2349 H2342 0.950 . S
C2349 C2346 1.387 . S
C2350 C2351 1.387 . S
C2350 H2354 0.950 . S
C2350 C2359 1.390 . S
C2351 C2350 1.387 . S
C2351 C2353 1.387 . S
H2352 C2359 0.950 . S
C2353 C2351 1.387 . S
C2353 C2355 1.390 . S
C2353 H2357 0.950 . S
H2354 C2350 0.950 . S
C2355 C2353 1.390 . S
C2355 C2356 1.387 . S
C2355 H2358 0.950 . S
C2356 C2355 1.387 . S
C2356 C2359 1.387 . S
H2357 C2353 0.950 . S
H2358 C2355 0.950 . S
C2359 C2350 1.390 . S
C2359 H2352 0.950 . S
C2359 C2356 1.387 . S
C2360 C2361 1.387 . S
C2360 H2364 0.950 . S
C2360 C2369 1.390 . S
C2361 C2360 1.387 . S
C2361 C2363 1.387 . S
H2362 C2369 0.950 . S
C2363 C2361 1.387 . S
C2363 C2365 1.390 . S
C2363 H2367 0.950 . S
H2364 C2360 0.950 . S
C2365 C2363 1.390 . S
C2365 C2366 1.387 . S
C2365 H2368 0.950 . S
C2366 C2365 1.387 . S
C2366 C2369 1.387 . S
H2367 C2363 0.950 . S
H2368 C2365 0.950 . S
C2369 C2360 1.390 . S
C2369 H2362 0.950 . S
C2369 C2366 1.387 . S
C2370 C2371 1.387 . S
C2370 H2374 0.950 . S
C2370 C2379 1.390 . S
C2371 C2370 1.387 . S
C2371 C2373 1.387 . S
H2372 C2379 0.950 . S
C2373 C2371 1.387 . S
C2373 C2375 1.390 . S
C2373 H2377 0.950 . S
H2374 C2370 0.950 . S
C2375 C2373 1.390 . S
C2375 C2376 1.387 . S
C2375 H2378 0.950 . S
C2376 C2375 1.387 . S
C2376 C2379 1.387 . S
H2377 C2373 0.950 . S
H2378 C2375 0.950 . S
C2379 C2370 1.390 . S
C2379 H2372 0.950 . S
C2379 C2376 1.387 . S
C2380 C2381 1.387 . S
C2380 H2384 0.950 . S
C2380 C2389 1.390 . S
C2381 C2380 1.387 . S
C2381 C2383 1.387 . S
H2382 C2389 0.950 . S
C2383 C2381 1.387 . S
C2383 C2385 1.390 . S
C2383 H2387 0.950 . S
H2384 C2380 0.950 . S
C2385 C2383 1.390 . S
C2385 C2386 1.387 . S
C2385 H2388 0.950 . S
C2386 C2385 1.387 . S
C2386 C2389 1.387 . S
H2387 C2383 0.950 . S
H2388 C2385 0.950 . S
C2389 C2380 1.390 . S
C2389 H2382 0.950 . S
C2389 C2386 1.387 . S
C2390 C2391 1.387 . S
C2390 H2394 0.950 . S
C2390 C2399 1.390 . S
C2391 C2390 1.387 . S
C2391 C2393 1.387 . S
H2392 C2399 0.950 . S
C2393 C2391 1.387 . S
C2393 C2395 1.390 . S
C2393 H2397 0.950 . S
H2394 C2390 0.950 . S
C2395 C2393 1.390 . S
C2395 C2396 1.387 . S
C2395 H2398 0.950 . S
C2396 C2395 1.387 . S
C2396 C2399 1.387 . S
H2397 C2393 0.950 . S
H2398 C2395 0.950 . S
C2399 C2390 1.390 . S
C2399 H2392 0.950 . S
C2399 C2396 1.387 . S
C2400 C2401 1.387 . S
C2400 H2404 0.950 . S
C2400 C2409 1.390 . S
C2401 C2400 1.387 . S
C2401 C2403 1.387 . S
H2402 C2409 0.950 . S
C2403 C2401 1.387 . S
C2403 C2405 1.390 . S
C2403 H2407 0.950 . S
H2404 C2400 0.950 . S
C2405 C2403 1.390 . S
C2405 C2406 1.387 . S
C2405 H2408 0.950 . S
C2406 C2405 1.387 . S
C2406 C2409 1.387 . S
H2407 C2403 0.950 . S
H2408 C2405 0.950 . S
C2409 C2400 1.390 . S
C2409 H2402 0.950 . S
C2409 C2406 1.387 . S
C2410 C2411 1.387 1_455 S
C2410 H2414 0.950 . S
C2410 C2419 1.390 . S
C2411 C2410 1.387 1_655 S
C2411 C2413 1.387 . S
H2412 C2419 0.950 . S
C2413 C2411 1.387 . S
C2413 C2415 1.390 1_655 S
C2413 H2417 0.950 . S
H2414 C2410 0.950 . S
C2415 C2413 1.390 1_455 S
C2415 C2416 1.387 . S
C2415 H2418 0.950 . S
C2416 C2415 1.387 . S
C2416 C2419 1.387 . S
H2417 C2413 0.950 . S
H2418 C2415 0.950 . S
C2419 C2410 1.390 . S
C2419 H2412 0.950 . S
C2419 C2416 1.387 . S
C2420 C2421 1.387 . S
C2420 H2424 0.950 . S
C2420 C2429 1.390 . S
C2421 C2420 1.387 . S
C2421 C2423 1.387 . S
H2422 C2429 0.950 . S
C2423 C2421 1.387 . S
C2423 C2425 1.390 . S
C2423 H2427 0.950 . S
H2424 C2420 0.950 . S
C2425 C2423 1.390 . S
C2425 C2426 1.387 . S
C2425 H2428 0.950 . S
C2426 C2425 1.387 . S
C2426 C2429 1.387 . S
H2427 C2423 0.950 . S
H2428 C2425 0.950 . S
C2429 C2420 1.390 . S
C2429 H2422 0.950 . S
C2429 C2426 1.387 . S
C2430 C2431 1.387 . S
C2430 H2434 0.950 . S
C2430 C2439 1.390 . S
C2431 C2430 1.387 . S
C2431 C2433 1.387 . S
H2432 C2439 0.950 . S
C2433 C2431 1.387 . S
C2433 C2435 1.390 . S
C2433 H2437 0.950 . S
H2434 C2430 0.950 . S
C2435 C2433 1.390 . S
C2435 C2436 1.387 . S
C2435 H2438 0.950 . S
C2436 C2435 1.387 . S
C2436 C2439 1.387 . S
H2437 C2433 0.950 . S
H2438 C2435 0.950 . S
C2439 C2430 1.390 . S
C2439 H2432 0.950 . S
C2439 C2436 1.387 . S
C2440 C2441 1.387 . S
C2440 H2444 0.950 . S
C2440 C2449 1.390 . S
C2441 C2440 1.387 . S
C2441 C2443 1.387 . S
H2442 C2449 0.950 . S
C2443 C2441 1.387 . S
C2443 C2445 1.390 . S
C2443 H2447 0.950 . S
H2444 C2440 0.950 . S
C2445 C2443 1.390 . S
C2445 C2446 1.387 . S
C2445 H2448 0.950 . S
C2446 C2445 1.387 . S
C2446 C2449 1.387 . S
H2447 C2443 0.950 . S
H2448 C2445 0.950 . S
C2449 C2440 1.390 . S
C2449 H2442 0.950 . S
C2449 C2446 1.387 . S
C2450 C2451 1.387 . S
C2450 H2454 0.950 . S
C2450 C2459 1.390 . S
C2451 C2450 1.387 . S
C2451 C2453 1.387 . S
H2452 C2459 0.950 . S
C2453 C2451 1.387 . S
C2453 C2455 1.390 . S
C2453 H2457 0.950 . S
H2454 C2450 0.950 . S
C2455 C2453 1.390 . S
C2455 C2456 1.387 . S
C2455 H2458 0.950 . S
C2456 C2455 1.387 . S
C2456 C2459 1.387 . S
H2457 C2453 0.950 . S
H2458 C2455 0.950 . S
C2459 C2450 1.390 . S
C2459 H2452 0.950 . S
C2459 C2456 1.387 . S
C2460 C2461 1.387 . S
C2460 H2464 0.950 . S
C2460 C2469 1.390 . S
C2461 C2460 1.387 . S
C2461 C2463 1.387 . S
H2462 C2469 0.950 . S
C2463 C2461 1.387 . S
C2463 C2465 1.390 . S
C2463 H2467 0.950 . S
H2464 C2460 0.950 . S
C2465 C2463 1.390 . S
C2465 C2466 1.387 . S
C2465 H2468 0.950 . S
C2466 C2465 1.387 . S
C2466 C2469 1.387 . S
H2467 C2463 0.950 . S
H2468 C2465 0.950 . S
C2469 C2460 1.390 . S
C2469 H2462 0.950 . S
C2469 C2466 1.387 . S
C2470 C2471 1.387 . S
C2470 H2474 0.950 . S
C2470 C2479 1.390 . S
C2471 C2470 1.387 . S
C2471 C2473 1.387 . S
H2472 C2479 0.950 . S
C2473 C2471 1.387 . S
C2473 C2475 1.390 . S
C2473 H2477 0.950 . S
H2474 C2470 0.950 . S
C2475 C2473 1.390 . S
C2475 C2476 1.387 . S
C2475 H2478 0.950 . S
C2476 C2475 1.387 . S
C2476 C2479 1.387 . S
H2477 C2473 0.950 . S
H2478 C2475 0.950 . S
C2479 C2470 1.390 . S
C2479 H2472 0.950 . S
C2479 C2476 1.387 . S
C2480 C2481 1.387 . S
C2480 H2484 0.950 . S
C2480 C2489 1.390 . S
C2481 C2480 1.387 . S
C2481 C2483 1.387 . S
H2482 C2489 0.950 . S
C2483 C2481 1.387 . S
C2483 C2485 1.390 . S
C2483 H2487 0.950 . S
H2484 C2480 0.950 . S
C2485 C2483 1.390 . S
C2485 C2486 1.387 . S
C2485 H2488 0.950 . S
C2486 C2485 1.387 . S
C2486 C2489 1.387 . S
H2487 C2483 0.950 . S
H2488 C2485 0.950 . S
C2489 C2480 1.390 . S
C2489 H2482 0.950 . S
C2489 C2486 1.387 . S
C2490 C2491 1.387 1_455 S
C2490 H2494 0.950 . S
C2490 C2499 1.390 . S
C2491 C2490 1.387 1_655 S
C2491 C2493 1.387 . S
H2492 C2499 0.950 . S
C2493 C2491 1.387 . S
C2493 C2495 1.390 1_655 S
C2493 H2497 0.950 . S
H2494 C2490 0.950 . S
C2495 C2493 1.390 1_455 S
C2495 C2496 1.387 . S
C2495 H2498 0.950 . S
C2496 C2495 1.387 . S
C2496 C2499 1.387 . S
H2497 C2493 0.950 . S
H2498 C2495 0.950 . S
C2499 C2490 1.390 . S
C2499 H2492 0.950 . S
C2499 C2496 1.387 . S
C2500 C2501 1.387 . S
C2500 H2504 0.950 . S
C2500 C2509 1.390 . S
C2501 C2500 1.387 . S
C2501 C2503 1.387 . S
H2502 C2509 0.950 . S
C2503 C2501 1.387 . S
C2503 C2505 1.390 . S
C2503 H2507 0.950 . S
H2504 C2500 0.950 . S
C2505 C2503 1.390 . S
C2505 C2506 1.387 . S
C2505 H2508 0.950 . S
C2506 C2505 1.387 . S
C2506 C2509 1.387 . S
H2507 C2503 0.950 . S
H2508 C2505 0.950 . S
C2509 C2500 1.390 . S
C2509 H2502 0.950 . S
C2509 C2506 1.387 . S
C2510 C2511 1.387 . S
C2510 H2514 0.950 . S
C2510 C2519 1.390 . S
C2511 C2510 1.387 . S
C2511 C2513 1.387 . S
H2512 C2519 0.950 . S
C2513 C2511 1.387 . S
C2513 C2515 1.390 . S
C2513 H2517 0.950 1_545 S
H2514 C2510 0.950 . S
C2515 C2513 1.390 . S
C2515 C2516 1.387 . S
C2515 H2518 0.950 . S
C2516 C2515 1.387 . S
C2516 C2519 1.387 . S
H2517 C2513 0.950 1_565 S
H2518 C2515 0.950 . S
C2519 C2510 1.390 . S
C2519 H2512 0.950 . S
C2519 C2516 1.387 . S
C1441 C1103 2.362 . S
C1446 C23 2.363 . S
C1451 C1143 2.363 . S
C1456 C63 2.363 1_655 S
C1461 C103 2.363 . S
C1466 C1183 2.363 . S
C1471 C143 2.362 . S
C1476 C503 2.363 . S
C1481 C183 2.364 . S
C1486 C543 2.364 . S
C1491 C583 2.361 . S
C1496 C223 2.361 1_565 S
C1501 C242 2.363 1_565 S
C1506 C842 2.362 . S
C1511 C882 2.363 . S
C1516 C282 2.363 . S
C1521 C322 2.363 . S
C1526 C922 2.363 . S
C1531 C1202 2.361 . S
C1536 C362 2.361 1_655 S
C1541 C402 2.362 . S
C1546 C1242 2.362 . S
C1551 C1282 2.361 . S
C1556 C442 2.361 . S
C1561 C983 2.362 . S
C1566 C623 2.362 . S
C1571 C663 2.361 . S
C1576 C1023 2.361 . S
C1581 C1063 2.362 . S
C1586 C703 2.363 . S
C1591 C722 2.363 . S
C1596 C1322 2.362 . S
C1601 C762 2.361 . S
C1606 C1362 2.361 . S
C1611 C1402 2.361 . S
C1616 C802 2.362 . S
C1621 C2 1.616 . S
C1626 C263 1.616 . S
C1631 C303 1.615 . S
C1636 C42 1.615 . S
C1641 C82 1.617 . S
C1646 C343 1.617 . S
C1651 C383 1.612 . S
C1656 C122 1.612 . S
C1661 C162 1.614 . S
C1666 C423 1.614 . S
C1671 C463 1.614 . S
C1676 C202 1.614 . S
C1681 C743 1.616 . S
C1686 C482 1.616 . S
C1691 C522 1.615 . S
C1696 C783 1.615 . S
C1701 C823 1.616 . S
C1706 C562 1.616 . S
C1711 C602 1.612 . S
C1716 C863 1.612 . S
C1721 C903 1.615 . S
C1726 C642 1.615 . S
C1731 C682 1.613 . S
C1736 C943 1.613 . S
C1741 C962 1.616 . S
C1746 C1223 1.616 . S
C1751 C1263 1.614 . S
C1756 C1002 1.614 . S
C1761 C1303 1.612 . S
C1766 C1042 1.612 . S
C1771 C1343 1.617 . S
C1776 C1082 1.617 . S
C1781 C1122 1.615 . S
C1786 C1383 1.615 . S
C1791 C1162 1.617 . S
C1796 C1423 1.617 . S
C1801 C17 1.765 . S
C1806 C104 1.773 . S
C1811 C57 1.762 . S
C1816 C24 1.770 . S
C1821 C64 1.774 . S
C1826 C97 1.765 . S
C1831 C137 1.765 . S
C1836 C184 1.773 . S
C1841 C224 1.773 . S
C1846 C177 1.765 . S
C1851 C144 1.772 . S
C1856 C217 1.763 . S
C1861 C333 1.772 . S
C1866 C266 1.763 . S
C1871 C306 1.764 . S
C1876 C253 1.773 . S
C1881 C346 1.765 . S
C1886 C293 1.773 . S
C1891 C413 1.771 . S
C1896 C386 1.762 . S
C1901 C426 1.764 . S
C1906 C453 1.772 . S
C1911 C466 1.763 . S
C1916 C373 1.772 . S
C1921 C584 1.772 1_545 S
C1926 C497 1.764 . S
C1931 C504 1.772 . S
C1936 C537 1.763 1_455 S
C1941 C544 1.771 . S
C1946 C577 1.762 . S
C1951 C664 1.770 . S
C1956 C617 1.762 . S
C1961 C657 1.764 . S
C1966 C704 1.773 . S
C1971 C624 1.772 . S
C1976 C697 1.764 . S
C1981 C746 1.763 . S
C1986 C813 1.771 . S
C1991 C733 1.772 . S
C1996 C786 1.763 . S
C2001 C826 1.762 . S
C2006 C773 1.771 . S
C2011 C893 1.771 . S
C2016 C866 1.763 1_455 S
C2021 C933 1.771 . S
C2026 C906 1.763 . S
C2031 C853 1.772 1_545 S
C2036 C946 1.764 . S
C2041 C1064 1.772 . S
C2046 C977 1.763 . S
C2051 C1017 1.763 . S
C2056 C984 1.771 . S
C2061 C1024 1.773 . S
C2066 C1057 1.765 . S
C2071 C1097 1.765 . S
C2076 C1144 1.773 1_455 S
C2081 C1137 1.765 . S
C2086 C1184 1.773 . S
C2091 C1104 1.772 . S
C2096 C1177 1.764 1_545 S
C2101 C1226 1.763 1_545 S
C2106 C1293 1.772 . S
C2111 C1266 1.764 . S
C2116 C1213 1.772 1_455 S
C2121 C1253 1.773 . S
C2126 C1306 1.765 . S
C2131 C1346 1.762 . S
C2136 C1373 1.771 . S
C2141 C1413 1.772 . S
C2146 C1386 1.763 . S
C2151 C1333 1.771 . S
C2156 C1426 1.763 . S
C2161 C93 1.280 . S
C2166 C26 1.279 . S
C2171 C66 1.282 . S
C2176 C13 1.284 . S
C2181 C53 1.284 . S
C2186 C106 1.283 . S
C2191 C173 1.285 . S
C2196 C146 1.283 . S
C2201 C186 1.280 . S
C2206 C213 1.281 . S
C2211 C226 1.281 . S
C2216 C133 1.283 . S
C2221 C344 1.281 . S
C2226 C257 1.279 . S
C2231 C297 1.281 . S
C2236 C264 1.282 . S
C2241 C304 1.284 . S
C2246 C337 1.283 . S
C2251 C424 1.281 . S
C2256 C377 1.279 . S
C2261 C464 1.284 . S
C2266 C417 1.283 . S
C2271 C384 1.282 . S
C2276 C457 1.281 . S
C2281 C506 1.283 . S
C2286 C573 1.284 . S
C2291 C546 1.281 . S
C2296 C493 1.282 . S
C2301 C586 1.278 . S
C2306 C533 1.280 . S
C2311 C653 1.280 . S
C2316 C626 1.278 1_455 S
C2321 C666 1.281 . S
C2326 C693 1.282 . S
C2331 C706 1.281 . S
C2336 C613 1.282 . S
C2341 C824 1.281 . S
C2346 C737 1.280 . S
C2351 C744 1.280 . S
C2356 C777 1.278 1_455 S
C2361 C817 1.278 . S
C2366 C784 1.280 . S
C2371 C904 1.280 . S
C2376 C857 1.278 . S
C2381 C897 1.282 . S
C2386 C944 1.283 . S
C2391 C937 1.283 . S
C2396 C864 1.284 . S
C2401 C986 1.282 1_545 S
C2406 C1053 1.283 . S
C2411 C973 1.285 . S
C2416 C1026 1.283 . S
C2421 C1013 1.281 . S
C2426 C1066 1.280 . S
C2431 C1133 1.284 . S
C2436 C1106 1.283 . S
C2441 C1146 1.282 . S
C2446 C1173 1.283 . S
C2451 C1186 1.281 . S
C2456 C1093 1.282 . S
C2461 C1304 1.282 . S
C2466 C1217 1.281 . S
C2471 C1224 1.284 . S
C2476 C1257 1.283 . S
C2481 C1297 1.283 . S
C2486 C1264 1.284 . S
C2491 C1384 1.281 . S
C2496 C1337 1.279 . S
C2501 C1377 1.280 . S
C2506 C1424 1.281 . S
C2511 C1417 1.282 1_545 S
C2516 C1344 1.283 . S
