# Generated by pormake.
# Topology umk, (4)-cn, num edge types: 1
# Building blocks:
#     Node 0, Type 0, BuildingBlock: KUFVIS_clean_sbu_0, # of connection points: 4
#     Node 1, Type 0, BuildingBlock: KUFVIS_clean_sbu_0, # of connection points: 4
#     Node 2, Type 0, BuildingBlock: KUFVIS_clean_sbu_0, # of connection points: 4
#     Node 3, Type 0, BuildingBlock: KUFVIS_clean_sbu_0, # of connection points: 4
#     Node 4, Type 0, BuildingBlock: KUFVIS_clean_sbu_0, # of connection points: 4
#     Node 5, Type 0, BuildingBlock: KUFVIS_clean_sbu_0, # of connection points: 4
#     Node 6, Type 0, BuildingBlock: KUFVIS_clean_sbu_0, # of connection points: 4
#     Node 7, Type 0, BuildingBlock: KUFVIS_clean_sbu_0, # of connection points: 4
#     Node 8, Type 0, BuildingBlock: KUFVIS_clean_sbu_0, # of connection points: 4
#     Node 9, Type 0, BuildingBlock: KUFVIS_clean_sbu_0, # of connection points: 4
#     Node 10, Type 0, BuildingBlock: KUFVIS_clean_sbu_0, # of connection points: 4
#     Node 11, Type 0, BuildingBlock: KUFVIS_clean_sbu_0, # of connection points: 4
#     Node 12, Type 0, BuildingBlock: KUFVIS_clean_sbu_0, # of connection points: 4
#     Node 13, Type 0, BuildingBlock: KUFVIS_clean_sbu_0, # of connection points: 4
#     Node 14, Type 0, BuildingBlock: KUFVIS_clean_sbu_0, # of connection points: 4
#     Node 15, Type 0, BuildingBlock: KUFVIS_clean_sbu_0, # of connection points: 4
#     Node 16, Type 0, BuildingBlock: KUFVIS_clean_sbu_0, # of connection points: 4
#     Node 17, Type 0, BuildingBlock: KUFVIS_clean_sbu_0, # of connection points: 4
#     Node 18, Type 0, BuildingBlock: KUFVIS_clean_sbu_0, # of connection points: 4
#     Node 19, Type 0, BuildingBlock: KUFVIS_clean_sbu_0, # of connection points: 4
#     Node 20, Type 0, BuildingBlock: KUFVIS_clean_sbu_0, # of connection points: 4
#     Node 21, Type 0, BuildingBlock: KUFVIS_clean_sbu_0, # of connection points: 4
#     Node 22, Type 0, BuildingBlock: KUFVIS_clean_sbu_0, # of connection points: 4
#     Node 23, Type 0, BuildingBlock: KUFVIS_clean_sbu_0, # of connection points: 4
#     Edge 24, Type (0, 0), None
#     Edge 25, Type (0, 0), None
#     Edge 26, Type (0, 0), None
#     Edge 27, Type (0, 0), None
#     Edge 28, Type (0, 0), None
#     Edge 29, Type (0, 0), None
#     Edge 30, Type (0, 0), None
#     Edge 31, Type (0, 0), None
#     Edge 32, Type (0, 0), None
#     Edge 33, Type (0, 0), None
#     Edge 34, Type (0, 0), None
#     Edge 35, Type (0, 0), None
#     Edge 36, Type (0, 0), None
#     Edge 37, Type (0, 0), None
#     Edge 38, Type (0, 0), None
#     Edge 39, Type (0, 0), None
#     Edge 40, Type (0, 0), None
#     Edge 41, Type (0, 0), None
#     Edge 42, Type (0, 0), None
#     Edge 43, Type (0, 0), None
#     Edge 44, Type (0, 0), None
#     Edge 45, Type (0, 0), None
#     Edge 46, Type (0, 0), None
#     Edge 47, Type (0, 0), None
#     Edge 48, Type (0, 0), None
#     Edge 49, Type (0, 0), None
#     Edge 50, Type (0, 0), None
#     Edge 51, Type (0, 0), None
#     Edge 52, Type (0, 0), None
#     Edge 53, Type (0, 0), None
#     Edge 54, Type (0, 0), None
#     Edge 55, Type (0, 0), None
#     Edge 56, Type (0, 0), None
#     Edge 57, Type (0, 0), None
#     Edge 58, Type (0, 0), None
#     Edge 59, Type (0, 0), None
#     Edge 60, Type (0, 0), None
#     Edge 61, Type (0, 0), None
#     Edge 62, Type (0, 0), None
#     Edge 63, Type (0, 0), None
#     Edge 64, Type (0, 0), None
#     Edge 65, Type (0, 0), None
#     Edge 66, Type (0, 0), None
#     Edge 67, Type (0, 0), None
#     Edge 68, Type (0, 0), None
#     Edge 69, Type (0, 0), None
#     Edge 70, Type (0, 0), None
#     Edge 71, Type (0, 0), None
# Relax obj value: 0.068
# Max RMSD: 0.066
# Mean RMSD: 0.066
data_MOF--net-umk--node1-KUFVIS_clean_sbu_0--edge1-none
_symmetry_space_group_name_H-M    P1
_symmetry_Int_Tables_number       1
_symmetry_cell_setting            triclinic
loop_
_symmetry_equiv_pos_as_xyz
'x, y, z'
_cell_length_a     29.718813
_cell_length_b     29.711282
_cell_length_c     20.508188
_cell_angle_alpha  89.158637
_cell_angle_beta   88.21469
_cell_angle_gamma 120.7413
loop_
_atom_site_label
_atom_site_type_symbol
_atom_site_fract_x
_atom_site_fract_y
_atom_site_fract_z
_atom_type_partial_charge
Mn0 Mn 0.36957 0.49134 0.04405 0.0
Mn1 Mn 0.48117 0.57782 0.12498 0.0
C2 C 0.43788 0.58427 0.00255 0.0
C3 C 0.29232 0.48707 -0.0155 0.0
C4 C 0.42757 0.45168 0.13814 0.0
O5 O 0.34194 0.50065 0.1335 0.0
O6 O 0.41485 0.5704 0.15086 0.0
C7 C 0.48055 0.67599 0.10046 0.0
N8 N 0.50732 0.65068 0.10931 0.0
C9 C 0.59002 0.73097 0.09203 0.0
C10 C 0.56344 0.75818 0.09111 0.0
C11 C 0.5085 0.7304 0.09106 0.0
C12 C 0.56019 0.67658 0.10159 0.0
H13 H 0.43824 0.6549 0.10106 0.0
C14 C 0.3747 0.53065 0.1733 0.0
O15 O 0.2899 0.44712 0.01456 0.0
O16 O 0.33768 0.52831 -0.01023 0.0
N17 N 0.54769 0.594 0.08857 0.0
C18 C 0.5613 0.56194 0.05959 0.0
C19 C 0.61245 0.58252 0.03427 0.0
C20 C 0.64918 0.63607 0.03678 0.0
C21 C 0.63337 0.66914 0.06287 0.0
C22 C 0.58152 0.6463 0.08778 0.0
H23 H 0.53422 0.52074 0.06006 0.0
O24 O 0.38912 0.56066 -0.01134 0.0
O25 O 0.44556 0.55723 0.04486 0.0
O26 O 0.3858 0.43842 0.10449 0.0
O27 O 0.46085 0.50107 0.14649 0.0
C28 C 0.66571 0.72401 0.06066 0.0
C29 C 0.64399 0.75515 0.07591 0.0
H30 H 0.58527 0.80021 0.08613 0.0
H31 H 0.48734 0.75076 0.08743 0.0
H32 H 0.62354 0.5567 0.01453 0.0
H33 H 0.68872 0.6514 0.0168 0.0
H34 H 0.70627 0.7426 0.04318 0.0
H35 H 0.668 0.79736 0.06941 0.0
Mn36 Mn 0.89079 0.35255 0.5343 0.0
Mn37 Mn 0.89817 0.45208 0.61726 0.0
C38 C 0.88504 0.42169 0.47441 0.0
C39 C 0.82564 0.26639 0.4913 0.0
C40 C 0.99473 0.44186 0.58153 0.0
O41 O 0.89557 0.33498 0.63627 0.0
O42 O 0.86049 0.38127 0.65584 0.0
C43 C 0.78473 0.41148 0.62171 0.0
N44 N 0.83477 0.45238 0.61916 0.0
C45 C 0.80665 0.51462 0.62484 0.0
C46 C 0.75502 0.47279 0.6364 0.0
C47 C 0.74363 0.42111 0.63114 0.0
C48 C 0.84576 0.50223 0.61627 0.0
H49 H 0.77692 0.37243 0.61509 0.0
C50 C 0.88133 0.3573 0.67886 0.0
O51 O 0.87477 0.28088 0.49529 0.0
O52 O 0.81393 0.29738 0.52071 0.0
N53 N 0.92863 0.52123 0.58044 0.0
C54 C 0.97101 0.54834 0.53871 0.0
C55 C 0.98194 0.59701 0.51221 0.0
C56 C 0.95052 0.61791 0.53027 0.0
C57 C 0.90655 0.58867 0.57235 0.0
C58 C 0.89569 0.53914 0.59407 0.0
H59 H 0.99518 0.53228 0.52464 0.0
O60 O 0.88599 0.38403 0.44663 0.0
O61 O 0.88393 0.4162 0.53675 0.0
O62 O 0.9728 0.40426 0.54074 0.0
O63 O 0.968 0.45675 0.6162 0.0
C64 C 0.87014 0.60425 0.58807 0.0
C65 C 0.82055 0.56741 0.61655 0.0
H66 H 0.72299 0.47902 0.6453 0.0
H67 H 0.70335 0.38919 0.63428 0.0
H68 H 1.01605 0.61972 0.48065 0.0
H69 H 0.95996 0.65588 0.51041 0.0
H70 H 0.87844 0.64322 0.57452 0.0
H71 H 0.79215 0.57921 0.62562 0.0
Mn72 Mn 0.56328 0.88495 0.01945 0.0
Mn73 Mn 0.48341 0.8949 0.12526 0.0
C74 C 0.49335 0.89651 -0.02572 0.0
C75 C 0.57249 0.81705 0.96217 0.0
C76 C 0.59475 0.98554 0.08267 0.0
O77 O 0.58737 0.87943 0.11789 0.0
O78 O 0.50685 0.84549 0.13337 0.0
C79 C 0.39922 0.78843 0.09823 0.0
N80 N 0.41428 0.83882 0.11199 0.0
C81 C 0.32639 0.82109 0.10597 0.0
C82 C 0.30961 0.76784 0.10105 0.0
C83 C 0.34615 0.75183 0.09267 0.0
C84 C 0.38 0.85579 0.11042 0.0
H85 H 0.42712 0.77571 0.09399 0.0
C86 C 0.5491 0.86108 0.16033 0.0
O87 O 0.61238 0.86329 -0.0288 0.0
O88 O 0.53015 0.809 -0.00758 0.0
N89 N 0.45415 0.93993 0.1258 0.0
C90 C 0.4751 0.98654 0.16053 0.0
C91 C 0.43986 1.00314 0.17854 0.0
C92 C 0.38694 0.97545 0.16265 0.0
C93 C 0.36589 0.92678 0.134 0.0
C94 C 0.39946 0.90816 0.11959 0.0
H95 H 0.48025 0.95978 0.13364 0.0
O96 O 0.52683 0.89117 0.93997 0.0
O97 O 0.5002 0.89357 0.03513 0.0
O98 O 0.60404 0.96426 0.03396 0.0
O99 O 0.55805 0.95861 0.12761 0.0
C100 C 0.31181 0.89344 0.12661 0.0
C101 C 0.29209 0.84062 0.11169 0.0
H102 H 0.26883 0.73826 0.10749 0.0
H103 H 0.33332 0.71108 0.08578 0.0
H104 H 0.45417 0.03839 0.20597 0.0
H105 H 0.36186 0.99045 0.17726 0.0
H106 H 0.28475 0.90703 0.13633 0.0
H107 H 0.25026 0.81482 0.10907 0.0
Mn108 Mn 0.67829 0.52735 0.54104 0.0
Mn109 Mn 0.55245 0.44931 0.61574 0.0
C110 C 0.60934 0.46418 0.48487 0.0
C111 C 0.76088 0.53958 0.48781 0.0
C112 C 0.59043 0.55676 0.55581 0.0
O113 O 0.69546 0.53891 0.64006 0.0
O114 O 0.61042 0.49654 0.67663 0.0
C115 C 0.54033 0.39025 0.7339 0.0
N116 N 0.54153 0.38896 0.65926 0.0
C117 C 0.49557 0.27542 0.64506 0.0
C118 C 0.49043 0.25381 0.72267 0.0
C119 C 0.50818 0.29525 0.78489 0.0
C120 C 0.51772 0.3389 0.61859 0.0
H121 H 0.54751 0.42642 0.75518 0.0
C122 C 0.66027 0.52387 0.68703 0.0
O123 O 0.75398 0.57861 0.49946 0.0
O124 O 0.72451 0.49633 0.5158 0.0
N125 N 0.49304 0.39566 0.56819 0.0
C126 C 0.45961 0.40291 0.52881 0.0
C127 C 0.41816 0.35702 0.50349 0.0
C128 C 0.40704 0.30741 0.51862 0.0
C129 C 0.44084 0.29989 0.55438 0.0
C130 C 0.48573 0.34404 0.57679 0.0
H131 H 0.48963 0.41718 0.56205 0.0
O132 O 0.65018 0.50277 0.45721 0.0
O133 O 0.60823 0.45871 0.54883 0.0
O134 O 0.63999 0.57259 0.54936 0.0
O135 O 0.55598 0.50963 0.57278 0.0
C136 C 0.42812 0.24857 0.56772 0.0
C137 C 0.45554 0.23663 0.61019 0.0
H138 H 0.46014 0.21384 0.73377 0.0
H139 H 0.50023 0.27951 0.83483 0.0
H140 H 0.39553 0.357 0.4655 0.0
H141 H 0.37315 0.2746 0.49788 0.0
H142 H 0.39355 0.21608 0.54773 0.0
H143 H 0.43666 0.19576 0.62532 0.0
Mn144 Mn 0.16858 0.69264 0.0334 0.0
Mn145 Mn 0.1264 0.57824 0.12101 0.0
C146 C 0.16167 0.61619 -0.01787 0.0
C147 C 0.24309 0.7752 -0.01967 0.0
C148 C 0.05191 0.61187 0.08138 0.0
O149 O 0.17905 0.71766 0.13364 0.0
O150 O 0.14477 0.63713 0.17791 0.0
C151 C 0.23849 0.61913 0.15254 0.0
N152 N 0.18848 0.57686 0.13941 0.0
C153 C 0.21845 0.51485 0.13057 0.0
C154 C 0.26837 0.55599 0.14411 0.0
C155 C 0.27819 0.60692 0.15338 0.0
C156 C 0.17913 0.52651 0.12581 0.0
H157 H 0.1989 0.60405 0.14666 0.0
C158 C 0.16196 0.68559 0.18455 0.0
O159 O 0.19695 0.76893 -0.00796 0.0
O160 O 0.24565 0.73563 0.00092 0.0
N161 N 0.10423 0.51417 0.07745 0.0
C162 C 0.06181 0.48689 0.04041 0.0
C163 C 0.04709 0.4357 0.02326 0.0
C164 C 0.07758 0.41414 0.04128 0.0
C165 C 0.12241 0.44389 0.07685 0.0
C166 C 0.13317 0.49324 0.09643 0.0
H167 H 0.03833 0.50341 0.02639 0.0
O168 O 0.15958 0.65237 0.94902 0.0
O169 O 0.16425 0.62397 0.04423 0.0
O170 O 0.08612 0.65663 0.05373 0.0
O171 O 0.06324 0.5787 0.10273 0.0
C172 C 0.15862 0.42805 0.0903 0.0
C173 C 0.2072 0.46398 0.11623 0.0
H174 H 0.30065 0.54985 0.14595 0.0
H175 H 0.31763 0.63778 0.16226 0.0
H176 H 1.01222 0.41278 -0.00355 0.0
H177 H 0.06695 0.3753 0.02606 0.0
H178 H 0.15117 0.38982 0.07667 0.0
H179 H 0.23632 0.45287 0.12216 0.0
Mn180 Mn 0.51915 0.16643 0.54444 0.0
Mn181 Mn 0.58984 0.12898 0.63603 0.0
C182 C 0.58777 0.1577 0.49343 0.0
C183 C 0.50686 0.23325 0.48327 0.0
C184 C 0.48476 0.0481 0.58568 0.0
O185 O 0.50381 0.17932 0.64402 0.0
O186 O 0.54573 0.14491 0.6907 0.0
C187 C 0.64937 0.23986 0.66583 0.0
N188 N 0.649 0.19503 0.65225 0.0
C189 C 0.74181 0.2373 0.65793 0.0
C190 C 0.7426 0.28246 0.67769 0.0
C191 C 0.69664 0.28464 0.67882 0.0
C192 C 0.69392 0.19525 0.64141 0.0
H193 H 0.61389 0.24132 0.66744 0.0
C194 C 0.51672 0.16415 0.69618 0.0
O195 O 0.4689 0.18591 0.49791 0.0
O196 O 0.54969 0.24363 0.51085 0.0
N197 N 0.63936 0.1098 0.60378 0.0
C198 C 0.6286 0.05813 0.60435 0.0
C199 C 0.67208 0.05123 0.60806 0.0
C200 C 0.72351 0.093 0.60998 0.0
C201 C 0.73275 0.14325 0.61827 0.0
C202 C 0.68999 0.15062 0.61825 0.0
H203 H 0.61618 0.08514 0.59604 0.0
O204 O 0.55259 0.16005 0.46163 0.0
O205 O 0.58407 0.16313 0.55582 0.0
O206 O 0.4741 0.08233 0.56171 0.0
O207 O 0.52756 0.06152 0.61425 0.0
C208 C 0.78132 0.18419 0.637 0.0
C209 C 0.78546 0.23084 0.65771 0.0
H210 H 0.77753 0.31516 0.69444 0.0
H211 H 0.69701 0.31944 0.69402 0.0
H212 H 0.66544 1.01227 0.61512 0.0
H213 H 0.75504 0.08492 0.61354 0.0
H214 H 0.81465 0.17889 0.64022 0.0
H215 H 0.82091 0.25887 0.67902 0.0
Mn216 Mn 0.55583 0.68776 0.88751 0.0
Mn217 Mn 0.4687 0.57649 0.82727 0.0
C218 C 0.48174 0.62519 0.9579 0.0
C219 C 0.57237 0.77421 0.92111 0.0
C220 C 0.58098 0.60078 0.85988 0.0
O221 O 0.57031 0.69611 0.781 0.0
O222 O 0.48891 0.63442 0.76598 0.0
C223 C 0.3826 0.58997 0.77049 0.0
N224 N 0.39489 0.55792 0.82233 0.0
C225 C 0.34874 0.45029 0.77719 0.0
C226 C 0.33198 0.46207 0.7066 0.0
C227 C 0.35278 0.56148 0.69939 0.0
C228 C 0.37764 0.49809 0.82894 0.0
H229 H 0.39857 0.63155 0.77563 0.0
C230 C 0.53422 0.66456 0.7423 0.0
O231 O 0.60942 0.76325 0.9174 0.0
O232 O 0.52993 0.73941 0.89564 0.0
N233 N 0.44724 0.52116 0.88808 0.0
C234 C 0.4698 0.51795 0.94382 0.0
C235 C 0.43418 0.47707 -0.0158 0.0
C236 C 0.38629 0.43392 0.96531 0.0
C237 C 0.3716 0.43515 0.90311 0.0
C238 C 0.39683 0.4843 0.87465 0.0
H239 H 0.47539 0.53705 0.89898 0.0
O240 O 0.52441 0.66206 -0.02034 0.0
O241 O 0.48371 0.6259 0.89489 0.0
O242 O 0.59297 0.64168 0.89326 0.0
O243 O 0.54173 0.58368 0.82261 0.0
C244 C 0.33504 0.39189 0.86868 0.0
C245 C 0.32824 0.39907 0.80248 0.0
H246 H 0.31197 0.42858 0.67527 0.0
H247 H 0.34611 0.58376 0.66199 0.0
H248 H 0.44915 0.48181 0.0296 0.0
H249 H 0.3623 0.40029 -0.00248 0.0
H250 H 0.31517 0.35288 0.89104 0.0
H251 H 0.30349 0.36573 0.77366 0.0
Mn252 Mn 0.87662 0.53398 0.3864 0.0
Mn253 Mn 0.91696 0.46326 0.29731 0.0
C254 C 0.88352 0.46482 0.43798 0.0
C255 C 0.80443 0.54122 0.44223 0.0
C256 C 0.99618 0.5702 0.34887 0.0
O257 O 0.86937 0.55359 0.28836 0.0
O258 O 0.9039 0.51017 0.24332 0.0
C259 C 0.8074 0.40257 0.25768 0.0
N260 N 0.8522 0.40401 0.27328 0.0
C261 C 0.81279 0.31181 0.25775 0.0
C262 C 0.76749 0.30996 0.23801 0.0
C263 C 0.76401 0.35499 0.24014 0.0
C264 C 0.85318 0.3594 0.27864 0.0
H265 H 0.8053 0.43744 0.2585 0.0
C266 C 0.88658 0.54114 0.23714 0.0
O267 O 0.85154 0.5811 0.43174 0.0
O268 O 0.79792 0.49994 0.41363 0.0
N269 N 0.9314 0.41088 0.33296 0.0
C270 C 0.97162 0.41493 0.3705 0.0
C271 C 0.97199 0.36771 0.38171 0.0
C272 C 0.93847 0.32106 0.35245 0.0
C273 C 0.89889 0.31766 0.31576 0.0
C274 C 0.89464 0.36208 0.30823 0.0
H275 H 0.95443 0.43353 0.34607 0.0
O276 O 0.88114 0.50051 0.46928 0.0
O277 O 0.87972 0.46848 0.37529 0.0
O278 O 0.96107 0.58033 0.37216 0.0
O279 O 0.98378 0.52577 0.32382 0.0
C280 C 0.86289 0.27126 0.28675 0.0
C281 C 0.82068 0.26911 0.25578 0.0
H282 H 0.73542 0.27479 0.21941 0.0
H283 H 0.72878 0.35262 0.22446 0.0
H284 H 0.99752 0.36541 0.41578 0.0
H285 H 0.94193 0.28696 0.36169 0.0
H286 H 0.86748 0.23735 0.28749 0.0
H287 H 0.79725 0.23606 0.22695 0.0
Mn288 Mn 0.37573 0.8954 0.89416 0.0
Mn289 Mn 0.49016 0.93407 0.80419 0.0
C290 C 0.4512 0.90213 0.94402 0.0
C291 C 0.29139 0.82239 0.94542 0.0
C292 C 0.45841 1.01102 0.84781 0.0
O293 O 0.3518 0.88526 0.79469 0.0
O294 O 0.4306 0.91098 0.74786 0.0
C295 C 0.45609 0.82167 0.77492 0.0
N296 N 0.49544 0.87321 0.78773 0.0
C297 C 0.56398 0.85122 0.7894 0.0
C298 C 0.52625 0.80023 0.77378 0.0
C299 C 0.47326 0.78558 0.76965 0.0
C300 C 0.54759 0.88699 0.79811 0.0
H301 H 0.46784 0.86076 0.78153 0.0
C302 C 0.38233 0.89557 0.74304 0.0
O303 O 0.29978 0.86944 0.93563 0.0
O304 O 0.32993 0.81796 0.92359 0.0
N305 N 0.55433 0.95988 0.84767 0.0
C306 C 0.57742 1.00013 0.88926 0.0
C307 C 0.62874 1.0174 0.90762 0.0
C308 C 0.65439 0.99105 0.88681 0.0
C309 C 0.62838 0.94743 0.84775 0.0
C310 C 0.57844 0.93373 0.82781 0.0
H311 H 0.55774 1.02042 0.90539 0.0
O312 O 0.41462 0.90361 -0.02201 0.0
O313 O 0.44371 0.89832 0.88194 0.0
O314 O 0.41424 0.97814 0.8779 0.0
O315 O 0.48831 0.99748 0.8198 0.0
C316 C 0.6485 0.91495 0.8314 0.0
C317 C 0.61606 0.86652 0.80252 0.0
H318 H 0.53703 0.77075 0.76779 0.0
H319 H 0.44452 0.74503 0.7618 0.0
H320 H 0.64888 0.05152 0.93667 0.0
H321 H 0.69345 1.00383 0.90257 0.0
H322 H 0.68739 0.925 0.84503 0.0
H323 H 0.63043 0.83999 0.79459 0.0
Mn324 Mn 0.50597 0.3546 0.38782 0.0
Mn325 Mn 0.58931 0.47198 0.30771 0.0
C326 C 0.57016 0.42623 0.44369 0.0
C327 C 0.50289 0.27414 0.43907 0.0
C328 C 0.47948 0.44593 0.35124 0.0
O329 O 0.49254 0.33069 0.29365 0.0
O330 O 0.54984 0.41114 0.25625 0.0
C331 C 0.65664 0.43225 0.26433 0.0
N332 N 0.65181 0.47183 0.2883 0.0
C333 C 0.74453 0.53118 0.27938 0.0
C334 C 0.74983 0.49113 0.2531 0.0
C335 C 0.70619 0.44137 0.24683 0.0
C336 C 0.69419 0.51895 0.2984 0.0
H337 H 0.62295 0.39541 0.25426 0.0
C338 C 0.51712 0.36343 0.24675 0.0
O339 O 0.46154 0.27701 0.42955 0.0
O340 O 0.54325 0.31326 0.41122 0.0
N341 N 0.63366 0.53676 0.35073 0.0
C342 C 0.62207 0.56456 0.39605 0.0
C343 C 0.66593 0.6111 0.41638 0.0
C344 C 0.7167 0.63172 0.3894 0.0
C345 C 0.72731 0.60251 0.34637 0.0
C346 C 0.6858 0.554 0.33011 0.0
H347 H 0.60911 0.53387 0.36364 0.0
O348 O 0.53241 0.38573 0.46967 0.0
O349 O 0.57379 0.42414 0.38134 0.0
O350 O 0.46258 0.39792 0.37462 0.0
O351 O 0.52603 0.47407 0.32706 0.0
C352 C 0.77801 0.61823 0.32182 0.0
C353 C 0.78635 0.58285 0.28641 0.0
H354 H 0.78643 0.49799 0.23524 0.0
H355 H 0.71002 0.41189 0.22227 0.0
H356 H 0.66124 0.63041 0.4572 0.0
H357 H 0.74815 0.66837 0.40655 0.0
H358 H 0.81079 0.65685 0.33076 0.0
H359 H 0.82474 0.59641 0.26469 0.0
Mn360 Mn 0.17967 0.50372 0.90186 0.0
Mn361 Mn 0.16947 0.58503 0.80045 0.0
C362 C 0.17067 0.57543 0.95067 0.0
C363 C 0.249 0.48978 0.94763 0.0
C364 C 0.077 0.47501 0.84619 0.0
O365 O 0.17852 0.47721 0.80341 0.0
O366 O 0.21504 0.5578 0.78345 0.0
C367 C 0.27938 0.66482 0.82002 0.0
N368 N 0.22926 0.65273 0.81042 0.0
C369 C 0.25321 0.74269 0.81584 0.0
C370 C 0.30595 0.75641 0.81791 0.0
C371 C 0.31882 0.71733 0.82348 0.0
C372 C 0.21569 0.68955 0.81395 0.0
H373 H 0.28958 0.63481 0.82271 0.0
C374 C 0.19517 0.51383 0.75919 0.0
O375 O 0.20042 0.45259 0.94529 0.0
O376 O 0.25791 0.53271 0.91848 0.0
N377 N 0.1284 0.61828 0.80751 0.0
C378 C 0.07949 0.59886 0.77949 0.0
C379 C 0.06442 0.63587 0.76658 0.0
C380 C 0.09589 0.68902 0.78037 0.0
C381 C 0.1467 0.70833 0.80068 0.0
C382 C 0.1634 0.67282 0.81057 0.0
H383 H 0.10677 0.5924 0.80221 0.0
O384 O 0.17732 0.54245 -0.0163 0.0
O385 O 0.17396 0.56867 0.88949 0.0
O386 O 0.09931 0.46567 0.89313 0.0
O387 O 0.10282 0.51231 0.80193 0.0
C388 C 0.18312 0.76208 0.80435 0.0
C389 C 0.23628 0.77919 0.81229 0.0
H390 H 0.33734 0.79663 0.8138 0.0
H391 H 0.35915 0.72767 0.82767 0.0
H392 H 1.02718 0.6227 0.74496 0.0
H393 H 0.08184 0.71547 0.76993 0.0
H394 H 0.17124 0.79071 0.79768 0.0
H395 H 0.2634 0.82057 0.81332 0.0
Mn396 Mn 0.70373 0.15526 0.39824 0.0
Mn397 Mn 0.60854 0.14948 0.31147 0.0
C398 C 0.63095 0.15543 0.45766 0.0
C399 C 0.78614 0.22456 0.4463 0.0
C400 C 0.61706 0.05211 0.34589 0.0
O401 O 0.72759 0.15705 0.29584 0.0
O402 O 0.68121 0.19158 0.28065 0.0
C403 C 0.64363 0.26203 0.31291 0.0
N404 N 0.60489 0.21108 0.31153 0.0
C405 C 0.53912 0.23406 0.30055 0.0
C406 C 0.57877 0.28677 0.29535 0.0
C407 C 0.63098 0.30105 0.30482 0.0
C408 C 0.5542 0.19711 0.30889 0.0
H409 H 0.6833 0.27228 0.32139 0.0
C410 C 0.70632 0.1729 0.25474 0.0
O411 O 0.77557 0.17662 0.44124 0.0
O412 O 0.75387 0.233 0.41597 0.0
N413 N 0.53812 0.11541 0.34235 0.0
C414 C 0.51401 0.07592 0.38774 0.0
C415 C 0.46812 0.06797 0.41946 0.0
C416 C 0.44249 0.09336 0.39666 0.0
C417 C 0.46789 0.13335 0.34917 0.0
C418 C 0.51825 0.14617 0.32758 0.0
H419 H 0.533 0.0556 0.40524 0.0
O420 O 0.66673 0.1519 0.48629 0.0
O421 O 0.63937 0.16037 0.39532 0.0
O422 O 0.6542 0.07344 0.38693 0.0
O423 O 0.60557 0.08008 0.30895 0.0
C424 C 0.44965 0.16697 0.33215 0.0
C425 C 0.48528 0.21698 0.3049 0.0
H426 H 0.56886 0.31649 0.2899 0.0
H427 H 0.66114 0.34173 0.30679 0.0
H428 H 0.45153 0.04045 0.45982 0.0
H429 H 0.4057 0.08504 0.42005 0.0
H430 H 0.40987 0.15683 0.34517 0.0
H431 H 0.4713 0.24314 0.29481 0.0
Mn432 Mn 0.69299 0.54109 0.90236 0.0
Mn433 Mn 0.5821 0.45166 0.84168 0.0
C434 C 0.62756 0.46975 -0.02416 0.0
C435 C 0.77852 0.55796 0.936 0.0
C436 C 0.609 0.56793 0.86511 0.0
O437 O 0.70347 0.55466 0.79628 0.0
O438 O 0.64247 0.47322 0.78178 0.0
C439 C 0.59553 0.36548 0.78126 0.0
N440 N 0.56385 0.37768 0.83503 0.0
C441 C 0.45664 0.33449 0.79002 0.0
C442 C 0.46834 0.31886 0.71828 0.0
C443 C 0.56712 0.33744 0.70896 0.0
C444 C 0.50406 0.36124 0.84246 0.0
H445 H 0.6369 0.38034 0.78612 0.0
C446 C 0.67217 0.51858 0.75769 0.0
O447 O 0.76839 0.59544 0.92962 0.0
O448 O 0.74316 0.51421 0.91352 0.0
N449 N 0.5262 0.42916 0.90027 0.0
C450 C 0.52027 0.45327 0.95036 0.0
C451 C 0.47993 0.4219 -0.00561 0.0
C452 C 0.43644 0.37422 -0.02388 0.0
C453 C 0.43993 0.35722 0.91556 0.0
C454 C 0.49042 0.38092 0.88862 0.0
H455 H 0.55031 0.49238 0.96102 0.0
O456 O 0.66602 0.51214 -0.00318 0.0
O457 O 0.62937 0.46954 0.91245 0.0
O458 O 0.64966 0.58114 0.89904 0.0
O459 O 0.58711 0.52332 0.83745 0.0
C460 C 0.39702 0.32184 0.88019 0.0
C461 C 0.40525 0.31512 0.8143 0.0
H462 H 0.4347 0.29966 0.68749 0.0
H463 H 0.58911 0.33077 0.67047 0.0
H464 H 0.48317 0.43923 0.03872 0.0
H465 H 0.40065 0.35291 0.00598 0.0
H466 H 0.35751 0.30373 0.90128 0.0
H467 H 0.3723 0.29188 0.78436 0.0
Mn468 Mn 0.15908 0.69701 0.39948 0.0
Mn469 Mn 0.15219 0.60125 0.31191 0.0
C470 C 0.15881 0.62418 0.45822 0.0
C471 C 0.23049 0.77974 0.44615 0.0
C472 C 0.05531 0.60926 0.34944 0.0
O473 O 0.16075 0.72054 0.297 0.0
O474 O 0.19461 0.67359 0.28058 0.0
C475 C 0.26414 0.63739 0.3159 0.0
N476 N 0.21365 0.59831 0.31145 0.0
C477 C 0.23773 0.53378 0.29772 0.0
C478 C 0.28998 0.57419 0.29383 0.0
C479 C 0.3037 0.62565 0.3072 0.0
C480 C 0.20022 0.5479 0.30688 0.0
H481 H 0.2735 0.67652 0.32703 0.0
C482 C 0.17679 0.69926 0.25521 0.0
O483 O 0.18273 0.76988 0.4429 0.0
O484 O 0.23747 0.74647 0.41517 0.0
N485 N 0.11828 0.53074 0.34208 0.0
C486 C 0.07905 0.50616 0.38813 0.0
C487 C 0.0717 0.46028 0.41842 0.0
C488 C 0.0976 0.4353 0.39383 0.0
C489 C 0.13732 0.46116 0.34578 0.0
C490 C 0.14939 0.51138 0.32547 0.0
H491 H 0.05847 0.52474 0.40708 0.0
O492 O 0.15592 0.66042 0.4875 0.0
O493 O 0.1631 0.63218 0.39595 0.0
O494 O 0.07696 0.64716 0.38993 0.0
O495 O 0.08306 0.59828 0.31052 0.0
C496 C 0.17169 0.44378 0.32741 0.0
C497 C 0.22174 0.4802 0.30048 0.0
H498 H 0.31977 0.56525 0.28674 0.0
H499 H 0.34429 0.65563 0.31134 0.0
H500 H 0.04428 0.44309 0.45909 0.0
H501 H 0.08992 0.39868 0.41632 0.0
H502 H 0.16223 0.4042 0.33963 0.0
H503 H 0.24901 0.46723 0.29023 0.0
Mn504 Mn 0.50957 0.17113 0.907 0.0
Mn505 Mn 0.59233 0.16171 0.80382 0.0
C506 C 0.58096 0.16222 0.95428 0.0
C507 C 0.49407 0.23979 0.95506 0.0
C508 C 0.48224 0.06908 0.84786 0.0
O509 O 0.48405 0.17017 0.80903 0.0
O510 O 0.56494 0.20681 0.78805 0.0
C511 C 0.67141 0.27126 0.82666 0.0
N512 N 0.65972 0.22144 0.81499 0.0
C513 C 0.74966 0.24557 0.82003 0.0
C514 C 0.76309 0.29817 0.82404 0.0
C515 C 0.7238 0.31076 0.83088 0.0
C516 C 0.69663 0.208 0.81744 0.0
H517 H 0.64119 0.28118 0.83026 0.0
C518 C 0.52084 0.18631 0.76462 0.0
O519 O 0.45735 0.19116 0.951 0.0
O520 O 0.53767 0.24924 0.92648 0.0
N521 N 0.62569 0.12076 0.80895 0.0
C522 C 0.60679 0.07266 0.77829 0.0
C523 C 0.64408 0.05812 0.76319 0.0
C524 C 0.69703 0.08931 0.77756 0.0
C525 C 0.71591 0.13953 0.80053 0.0
C526 C 0.68016 0.15585 0.81223 0.0
H527 H 0.59989 0.09908 0.80338 0.0
O528 O 0.5476 0.16838 -0.01182 0.0
O529 O 0.57471 0.16581 0.89325 0.0
O530 O 0.47228 0.09089 0.89568 0.0
O531 O 0.51993 0.09518 0.80398 0.0
C532 C 0.76955 0.17595 0.80494 0.0
C533 C 0.78635 0.22886 0.81518 0.0
H534 H 0.80325 0.32971 0.82005 0.0
H535 H 0.73393 0.35096 0.83647 0.0
H536 H 0.6313 1.02159 0.73934 0.0
H537 H 0.72373 0.0757 0.76544 0.0
H538 H 0.79836 0.16434 0.79703 0.0
H539 H 0.82765 0.25599 0.8168 0.0
Mn540 Mn 0.36246 0.5114 0.37627 0.0
Mn541 Mn 0.4827 0.58458 0.30153 0.0
C542 C 0.43258 0.57408 0.43196 0.0
C543 C 0.28148 0.50371 0.43039 0.0
C544 C 0.45369 0.48064 0.3537 0.0
O545 O 0.34256 0.50284 0.2819 0.0
O546 O 0.42473 0.52754 0.25364 0.0
C547 C 0.4337 0.64121 0.24949 0.0
N548 N 0.4777 0.64072 0.2632 0.0
C549 C 0.52964 0.7341 0.24566 0.0
C550 C 0.48501 0.73431 0.22716 0.0
C551 C 0.43676 0.68758 0.22922 0.0
C552 C 0.52321 0.68653 0.26771 0.0
H553 H 0.39675 0.60656 0.25389 0.0
C554 C 0.37839 0.51412 0.23856 0.0
O555 O 0.28497 0.46326 0.41564 0.0
O556 O 0.32028 0.54613 0.40535 0.0
N557 N 0.54585 0.64033 0.33671 0.0
C558 C 0.57839 0.63815 0.38007 0.0
C559 C 0.62393 0.68511 0.39636 0.0
C560 C 0.64031 0.73138 0.36064 0.0
C561 C 0.60776 0.73233 0.31446 0.0
C562 C 0.56012 0.68601 0.3048 0.0
H563 H 0.56466 0.60255 0.40846 0.0
O564 O 0.39135 0.5372 0.45822 0.0
O565 O 0.43254 0.57819 0.36937 0.0
O566 O 0.40373 0.46641 0.35718 0.0
O567 O 0.48867 0.52929 0.34527 0.0
C568 C 0.61908 0.77852 0.28092 0.0
C569 C 0.57991 0.7791 0.24563 0.0
H570 H 0.48729 0.76928 0.20912 0.0
H571 H 0.40271 0.68621 0.21114 0.0
H572 H 0.64537 0.68811 0.43868 0.0
H573 H 0.67581 0.76689 0.3728 0.0
H574 H 0.6566 0.81427 0.28459 0.0
H575 H 0.58935 0.81442 0.21938 0.0
Mn576 Mn 0.90308 0.36851 0.89699 0.0
Mn577 Mn 0.94152 0.48281 0.80858 0.0
C578 C 0.91193 0.44468 0.94882 0.0
C579 C 0.82893 0.2842 0.94831 0.0
C580 C 1.01881 0.45119 0.84809 0.0
O581 O 0.89167 0.3443 0.79737 0.0
O582 O 0.91839 0.42317 0.75152 0.0
C583 C 0.82892 0.44786 0.78088 0.0
N584 N 0.88017 0.48742 0.79435 0.0
C585 C 0.85711 0.55514 0.79913 0.0
C586 C 0.80638 0.51718 0.78321 0.0
C587 C 0.79243 0.46451 0.77688 0.0
C588 C 0.89337 0.53932 0.80613 0.0
H589 H 0.86799 0.45989 0.78754 0.0
C590 C 0.90236 0.37478 0.7461 0.0
O591 O 0.87572 0.29197 0.93708 0.0
O592 O 0.82546 0.32346 0.92829 0.0
N593 N 0.96725 0.54714 0.85262 0.0
C594 C 1.00816 0.57089 0.89277 0.0
C595 C 1.02517 0.62219 0.91172 0.0
C596 C 0.9979 0.64713 0.89315 0.0
C597 C 0.95364 0.62044 0.8557 0.0
C598 C 0.94028 0.5706 0.83486 0.0
H599 H 1.02915 0.55175 0.90724 0.0
O600 O 0.91304 0.40777 -0.01839 0.0
O601 O 0.90678 0.43684 0.88678 0.0
O602 O 0.98597 0.40686 0.87792 0.0
O603 O 1.0052 0.48133 0.82194 0.0
C604 C 0.92036 0.63983 0.84172 0.0
C605 C 0.87178 0.60695 0.81377 0.0
H606 H 0.77661 0.52754 0.77851 0.0
H607 H 0.7521 0.43558 0.76844 0.0
H608 H 0.05981 0.64288 0.93943 0.0
H609 H 1.01051 0.68619 0.9094 0.0
H610 H 0.93007 0.67858 0.85623 0.0
H611 H 0.84479 0.62083 0.80742 0.0
Mn612 Mn 0.54404 0.87361 0.3791 0.0
Mn613 Mn 0.47246 0.91267 0.29221 0.0
C614 C 0.47398 0.8796 0.43226 0.0
C615 C 0.5527 0.80277 0.43325 0.0
C616 C 0.57923 0.99283 0.34297 0.0
O617 O 0.56364 0.86524 0.28073 0.0
O618 O 0.51827 0.89742 0.2367 0.0
C619 C 0.41058 0.80207 0.25957 0.0
N620 N 0.41281 0.84808 0.27017 0.0
C621 C 0.32023 0.80816 0.25917 0.0
C622 C 0.31759 0.76154 0.24331 0.0
C623 C 0.36249 0.75791 0.24584 0.0
C624 C 0.36855 0.84977 0.27578 0.0
H625 H 0.44511 0.7995 0.26324 0.0
C626 C 0.54969 0.88046 0.22974 0.0
O627 O 0.59216 0.85008 0.4229 0.0
O628 O 0.51105 0.79538 0.40559 0.0
N629 N 0.42083 0.92824 0.3296 0.0
C630 C 0.42499 0.96772 0.3696 0.0
C631 C 0.37776 0.96806 0.38267 0.0
C632 C 0.33113 0.9353 0.35334 0.0
C633 C 0.32743 0.89597 0.31519 0.0
C634 C 0.37188 0.89193 0.30506 0.0
H635 H 0.44352 0.95093 0.34319 0.0
O636 O 0.50994 0.87778 0.46271 0.0
O637 O 0.47808 0.87602 0.36947 0.0
O638 O 0.58965 0.95811 0.36591 0.0
O639 O 0.53523 0.97982 0.31719 0.0
C640 C 0.2802 0.85891 0.28911 0.0
C641 C 0.27712 0.8154 0.25979 0.0
H642 H 0.2816 0.72816 0.22889 0.0
H643 H 0.35951 0.72152 0.23494 0.0
H644 H 0.37506 0.99244 0.4188 0.0
H645 H 0.29699 0.93846 0.36469 0.0
H646 H 0.24596 0.86293 0.29234 0.0
H647 H 0.2426 0.78988 0.23508 0.0
Mn648 Mn 0.49069 0.35775 0.05631 0.0
Mn649 Mn 0.57403 0.45334 0.15613 0.0
C650 C 0.5848 0.42755 0.02156 0.0
C651 C 0.48983 0.28233 -0.00664 0.0
C652 C 0.45085 0.41442 0.1475 0.0
O653 O 0.48561 0.31959 0.14664 0.0
O654 O 0.55929 0.38348 0.14695 0.0
C655 C 0.66924 0.45028 0.11405 0.0
N656 N 0.64693 0.47812 0.13534 0.0
C657 C 0.73078 0.5583 0.12933 0.0
C658 C 0.75404 0.53019 0.10922 0.0
C659 C 0.72329 0.47618 0.10005 0.0
C660 C 0.67653 0.53078 0.1406 0.0
H661 H 0.64623 0.40843 0.10858 0.0
C662 C 0.52281 0.34863 0.18054 0.0
O663 O 0.4482 0.2801 0.01872 0.0
O664 O 0.53082 0.32658 0.00485 0.0
N665 N 0.59635 0.52611 0.16869 0.0
C666 C 0.56785 0.54553 0.20187 0.0
C667 C 0.59696 0.59825 0.2187 0.0
C668 C 0.65124 0.62974 0.20613 0.0
C669 C 0.67925 0.60879 0.17707 0.0
C670 C 0.65148 0.55642 0.16025 0.0
H671 H 0.56956 0.51557 0.17891 0.0
O672 O 0.56232 0.37842 0.00852 0.0
O673 O 0.55762 0.43697 0.06432 0.0
O674 O 0.43663 0.37458 0.11023 0.0
O675 O 0.49622 0.43536 0.17413 0.0
C676 C 0.73398 0.63746 0.16604 0.0
C677 C 0.75975 0.61233 0.14095 0.0
H678 H 0.79578 0.55008 0.10268 0.0
H679 H 0.7412 0.45408 0.08483 0.0
H680 H 0.57611 0.61539 0.23971 0.0
H681 H 0.67116 0.6703 0.21992 0.0
H682 H 0.75661 0.67844 0.17767 0.0
H683 H 0.80197 0.63436 0.13307 0.0
Mn684 Mn 0.17207 0.51323 0.5411 0.0
Mn685 Mn 0.13459 0.5824 0.63697 0.0
C686 C 0.16141 0.58103 0.49281 0.0
C687 C 0.24001 0.50453 0.47724 0.0
C688 C 0.05387 0.47698 0.5866 0.0
O689 O 0.18649 0.49696 0.63868 0.0
O690 O 0.15281 0.53901 0.68847 0.0
C691 C 0.24603 0.64337 0.66171 0.0
N692 N 0.20055 0.64227 0.65114 0.0
C693 C 0.24256 0.73529 0.6544 0.0
C694 C 0.28847 0.73689 0.67137 0.0
C695 C 0.29105 0.69115 0.67212 0.0
C696 C 0.20011 0.68678 0.64061 0.0
H697 H 0.24783 0.60808 0.66292 0.0
C698 C 0.17205 0.50987 0.69199 0.0
O699 O 0.19332 0.46512 0.49152 0.0
O700 O 0.24912 0.54647 0.50669 0.0
N701 N 0.11386 0.6309 0.60705 0.0
C702 C 0.062 0.61962 0.60992 0.0
C703 C 0.05473 0.66289 0.61428 0.0
C704 C 0.09633 0.71459 0.61455 0.0
C705 C 0.14699 0.72448 0.62036 0.0
C706 C 0.15471 0.68195 0.61997 0.0
H707 H 0.08913 0.60741 0.60033 0.0
O708 O 0.16396 0.54614 0.45981 0.0
O709 O 0.16759 0.57734 0.55477 0.0
O710 O 0.08812 0.46691 0.56014 0.0
O711 O 0.06726 0.51942 0.61673 0.0
C712 C 0.1884 0.77377 0.63643 0.0
C713 C 0.23595 0.77888 0.65412 0.0
H714 H 0.32137 0.77221 0.68668 0.0
H715 H 0.32646 0.69217 0.68508 0.0
H716 H 1.01569 0.65594 0.62287 0.0
H717 H 0.08803 0.74599 0.61849 0.0
H718 H 0.18305 0.80712 0.63955 0.0
H719 H 0.26494 0.81532 0.67262 0.0
Mn720 Mn 0.69784 0.16034 0.03409 0.0
Mn721 Mn 0.58343 0.11833 0.12392 0.0
C722 C 0.62173 0.15353 -0.01543 0.0
C723 C 0.78094 0.23554 -0.01783 0.0
C724 C 0.61659 0.04332 0.08105 0.0
O725 O 0.72261 0.17055 0.1337 0.0
O726 O 0.64262 0.13904 0.18008 0.0
C727 C 0.62201 0.23081 0.15231 0.0
N728 N 0.58031 0.17979 0.14162 0.0
C729 C 0.51681 0.20748 0.13065 0.0
C730 C 0.55775 0.2586 0.13954 0.0
C731 C 0.60893 0.2699 0.15003 0.0
C732 C 0.52932 0.1686 0.12869 0.0
H733 H 0.60763 0.19111 0.14816 0.0
C734 C 0.69109 0.15582 0.18529 0.0
O735 O 0.77436 0.18919 -0.00792 0.0
O736 O 0.74119 0.23803 0.00398 0.0
N737 N 0.51961 0.09422 0.08038 0.0
C738 C 0.49467 0.05266 0.04103 0.0
C739 C 0.44336 0.03629 0.02354 0.0
C740 C 0.41975 0.06496 0.04254 0.0
C741 C 0.4477 0.10973 0.07921 0.0
C742 C 0.49704 0.1218 0.09976 0.0
H743 H 0.5129 0.03076 0.02596 0.0
O744 O 0.65818 0.152 0.95041 0.0
O745 O 0.6292 0.1557 0.04663 0.0
O746 O 0.66089 0.07734 0.0517 0.0
O747 O 0.58473 0.05525 0.10663 0.0
C748 C 0.4305 0.14512 0.09175 0.0
C749 C 0.46562 0.19465 0.11621 0.0
H750 H 0.55151 0.29065 0.13369 0.0
H751 H 0.63951 0.31017 0.15591 0.0
H752 H 0.42193 1.00155 -0.00422 0.0
H753 H 0.38096 0.0533 0.0267 0.0
H754 H 0.39221 0.13662 0.0775 0.0
H755 H 0.45369 0.22329 0.12039 0.0
Mn756 Mn 0.53813 0.67708 0.52924 0.0
Mn757 Mn 0.46059 0.54899 0.59259 0.0
C758 C 0.47131 0.61135 0.47312 0.0
C759 C 0.55148 0.76 0.47849 0.0
C760 C 0.56428 0.58761 0.53926 0.0
O761 O 0.55023 0.69236 0.62716 0.0
O762 O 0.51156 0.60561 0.65546 0.0
C763 C 0.40482 0.53319 0.72004 0.0
N764 N 0.40192 0.53394 0.64577 0.0
C765 C 0.28828 0.4902 0.63688 0.0
C766 C 0.26833 0.48628 0.71564 0.0
C767 C 0.31107 0.50331 0.77586 0.0
C768 C 0.35102 0.51122 0.60754 0.0
H769 H 0.44164 0.54093 0.73943 0.0
C770 C 0.53799 0.65532 0.67005 0.0
O771 O 0.5903 0.75264 0.48862 0.0
O772 O 0.50825 0.72421 0.50706 0.0
N773 N 0.40543 0.49213 0.54513 0.0
C774 C 0.41196 0.46343 0.49934 0.0
C775 C 0.36759 0.42132 0.47239 0.0
C776 C 0.31772 0.40698 0.49339 0.0
C777 C 0.31062 0.43788 0.53691 0.0
C778 C 0.35542 0.4815 0.56107 0.0
H779 H 0.45089 0.47546 0.48089 0.0
O780 O 0.51144 0.65065 0.44607 0.0
O781 O 0.4669 0.60813 0.5371 0.0
O782 O 0.58313 0.63768 0.53983 0.0
O783 O 0.516 0.55773 0.53178 0.0
C784 C 0.25958 0.42473 0.55492 0.0
C785 C 0.24868 0.45112 0.60168 0.0
H786 H 0.22819 0.45748 0.72824 0.0
H787 H 0.29665 0.49674 0.82666 0.0
H788 H 0.36971 0.40071 0.43129 0.0
H789 H 0.28474 0.3738 0.47194 0.0
H790 H 0.22658 0.39121 0.53401 0.0
H791 H 0.20816 0.43257 0.6187 0.0
Mn792 Mn 0.89302 0.5553 0.02789 0.0
Mn793 Mn 0.90963 0.48058 0.13196 0.0
C794 C 0.90749 0.48738 -0.01943 0.0
C795 C 0.82238 0.56021 -0.02478 0.0
C796 C 0.99469 0.5921 0.08725 0.0
O797 O 0.88602 0.57857 0.1265 0.0
O798 O 0.85507 0.49802 0.13986 0.0
C799 C 0.80898 0.38985 0.09905 0.0
N800 N 0.85908 0.40935 0.1175 0.0
C801 C 0.85149 0.32536 0.11001 0.0
C802 C 0.7982 0.3037 0.10108 0.0
C803 C 0.77723 0.33599 0.09092 0.0
C804 C 0.8811 0.37925 0.11705 0.0
H805 H 0.79283 0.41485 0.09341 0.0
C806 C 0.86806 0.53993 0.16772 0.0
O807 O 0.86792 0.60151 -0.01732 0.0
O808 O 0.81647 0.51855 0.00435 0.0
N809 N 0.96036 0.45811 0.13451 0.0
C810 C 1.0059 0.48306 0.17086 0.0
C811 C 1.02664 0.45198 0.19071 0.0
C812 C 1.00381 0.39905 0.17533 0.0
C813 C 0.95616 0.37381 0.14456 0.0
C814 C 0.93344 0.40327 0.12817 0.0
H815 H 0.97791 0.48482 0.1431 0.0
O816 O 0.8998 0.51943 0.94748 0.0
O817 O 0.9067 0.49534 0.04173 0.0
O818 O 0.97232 0.59946 0.03909 0.0
O819 O 0.96835 0.55764 0.13438 0.0
C820 C 0.9277 0.31938 0.136 0.0
C821 C 0.87545 0.2952 0.11708 0.0
H822 H 0.77265 0.26219 0.10658 0.0
H823 H 0.73609 0.3191 0.08174 0.0
H824 H 0.06141 0.46969 0.21894 0.0
H825 H 1.02186 0.37726 0.19127 0.0
H826 H 0.94464 0.29551 0.14691 0.0
H827 H 0.8531 0.25311 0.11225 0.0
Mn828 Mn 0.36042 0.88506 0.53141 0.0
Mn829 Mn 0.45999 0.89249 0.61245 0.0
C830 C 0.43015 0.88008 0.46964 0.0
C831 C 0.27368 0.8197 0.48951 0.0
C832 C 0.44962 0.98897 0.57971 0.0
O833 O 0.34269 0.8895 0.63403 0.0
O834 O 0.38898 0.8544 0.65103 0.0
C835 C 0.42007 0.77904 0.61607 0.0
N836 N 0.4607 0.82924 0.61272 0.0
C837 C 0.52358 0.80196 0.61751 0.0
C838 C 0.48209 0.7502 0.62927 0.0
C839 C 0.43021 0.7383 0.62498 0.0
C840 C 0.5107 0.84064 0.60931 0.0
H841 H 0.3808 0.77077 0.61083 0.0
C842 C 0.36489 0.87498 0.67553 0.0
O843 O 0.28834 0.86885 0.49442 0.0
O844 O 0.3051 0.80812 0.51701 0.0
N845 N 0.52939 0.92347 0.57531 0.0
C846 C 0.55662 0.96613 0.53437 0.0
C847 C 0.60537 0.9772 0.50701 0.0
C848 C 0.62646 0.94598 0.52403 0.0
C849 C 0.59728 0.902 0.56575 0.0
C850 C 0.54747 0.8907 0.58773 0.0
H851 H 0.54047 0.99019 0.5212 0.0
O852 O 0.39232 0.88077 0.44268 0.0
O853 O 0.42439 0.87857 0.53211 0.0
O854 O 0.41211 0.96714 0.53912 0.0
O855 O 0.46441 0.96216 0.61337 0.0
C856 C 0.61327 0.86604 0.58094 0.0
C857 C 0.57662 0.81644 0.60923 0.0
H858 H 0.48883 0.71854 0.63814 0.0
H859 H 0.39849 0.69796 0.62889 0.0
H860 H 0.62802 1.01126 0.4756 0.0
H861 H 0.66458 0.95564 0.50376 0.0
H862 H 0.65248 0.87473 0.5673 0.0
H863 H 0.58883 0.78847 0.61821 0.0
loop_
_geom_bond_atom_site_label_1
_geom_bond_atom_site_label_2
_geom_bond_distance
_geom_bond_site_symmetry_2
_ccdc_geom_bond_type
Mn0 O5 2.095 . S
Mn0 O15 2.162 . S
Mn0 O16 2.297 . S
Mn0 O24 2.385 1_554 S
Mn0 O25 2.209 . S
Mn0 O26 2.094 . S
Mn1 O6 2.121 . S
Mn1 N8 2.257 . S
Mn1 N17 2.282 . S
Mn1 O25 2.215 . S
Mn1 O27 2.117 . S
C2 O24 1.234 1_554 S
C2 O25 1.283 . S
C3 O15 1.281 . S
C3 O16 1.236 . S
C4 O26 1.240 . S
C4 O27 1.264 . S
O5 Mn0 2.095 . S
O5 C14 1.250 . S
O6 Mn1 2.121 . S
O6 C14 1.258 . S
C7 N8 1.326 . S
C7 C11 1.460 . S
C7 H13 0.929 . S
N8 Mn1 2.257 . S
N8 C7 1.326 . S
N8 C12 1.362 . S
C9 C10 1.258 . S
C9 C12 1.431 . S
C9 C29 1.449 . S
C10 C9 1.258 . S
C10 C11 1.477 . S
C10 H30 0.931 . S
C11 C7 1.460 . S
C11 C10 1.477 . S
C11 H31 0.930 . S
C12 N8 1.362 . S
C12 C9 1.431 . S
C12 C22 1.476 . S
H13 C7 0.929 . S
C14 O5 1.250 . S
C14 O6 1.258 . S
O15 Mn0 2.162 . S
O15 C3 1.281 . S
O16 Mn0 2.297 . S
O16 C3 1.236 . S
N17 Mn1 2.282 . S
N17 C18 1.328 . S
N17 C22 1.318 . S
C18 N17 1.328 . S
C18 C19 1.457 1_554 S
C18 H23 0.929 . S
C19 C18 1.457 1_556 S
C19 C20 1.291 . S
C19 H32 0.931 . S
C20 C19 1.291 . S
C20 C21 1.373 1_556 S
C20 H33 0.929 . S
C21 C20 1.373 1_554 S
C21 C22 1.396 . S
C21 C28 1.403 . S
C22 C12 1.476 . S
C22 N17 1.318 . S
C22 C21 1.396 . S
H23 C18 0.929 . S
O24 Mn0 2.385 1_556 S
O24 C2 1.234 1_556 S
O25 Mn0 2.209 . S
O25 Mn1 2.215 . S
O25 C2 1.283 . S
O26 Mn0 2.094 . S
O26 C4 1.240 . S
O27 Mn1 2.117 . S
O27 C4 1.264 . S
C28 C21 1.403 . S
C28 C29 1.399 . S
C28 H34 0.929 . S
C29 C9 1.449 . S
C29 C28 1.399 . S
C29 H35 0.930 . S
H30 C10 0.931 . S
H31 C11 0.930 . S
H32 C19 0.931 . S
H33 C20 0.929 . S
H34 C28 0.929 . S
H35 C29 0.930 . S
Mn36 O41 2.095 . S
Mn36 O51 2.162 . S
Mn36 O52 2.297 . S
Mn36 O60 2.385 . S
Mn36 O61 2.209 . S
Mn36 O62 2.094 . S
Mn37 O42 2.121 . S
Mn37 N44 2.257 . S
Mn37 N53 2.282 . S
Mn37 O61 2.215 . S
Mn37 O63 2.117 . S
C38 O60 1.234 . S
C38 O61 1.283 . S
C39 O51 1.281 . S
C39 O52 1.236 . S
C40 O62 1.240 . S
C40 O63 1.264 . S
O41 Mn36 2.095 . S
O41 C50 1.250 . S
O42 Mn37 2.121 . S
O42 C50 1.258 . S
C43 N44 1.326 . S
C43 C47 1.460 . S
C43 H49 0.929 . S
N44 Mn37 2.257 . S
N44 C43 1.326 . S
N44 C48 1.362 . S
C45 C46 1.258 . S
C45 C48 1.431 . S
C45 C65 1.449 . S
C46 C45 1.258 . S
C46 C47 1.477 . S
C46 H66 0.931 . S
C47 C43 1.460 . S
C47 C46 1.477 . S
C47 H67 0.930 . S
C48 N44 1.362 . S
C48 C45 1.431 . S
C48 C58 1.476 . S
H49 C43 0.929 . S
C50 O41 1.250 . S
C50 O42 1.258 . S
O51 Mn36 2.162 . S
O51 C39 1.281 . S
O52 Mn36 2.297 . S
O52 C39 1.236 . S
N53 Mn37 2.282 . S
N53 C54 1.328 . S
N53 C58 1.318 . S
C54 N53 1.328 . S
C54 C55 1.456 . S
C54 H59 0.929 . S
C55 C54 1.456 . S
C55 C56 1.298 . S
C55 H68 0.924 1_655 S
C56 C55 1.298 . S
C56 C57 1.373 . S
C56 H69 0.929 . S
C57 C56 1.373 . S
C57 C58 1.396 . S
C57 C64 1.403 . S
C58 C48 1.476 . S
C58 N53 1.318 . S
C58 C57 1.396 . S
H59 C54 0.929 . S
O60 Mn36 2.385 . S
O60 C38 1.234 . S
O61 Mn36 2.209 . S
O61 Mn37 2.215 . S
O61 C38 1.283 . S
O62 Mn36 2.094 . S
O62 C40 1.240 . S
O63 Mn37 2.117 . S
O63 C40 1.264 . S
C64 C57 1.403 . S
C64 C65 1.399 . S
C64 H70 0.929 . S
C65 C45 1.449 . S
C65 C64 1.399 . S
C65 H71 0.930 . S
H66 C46 0.931 . S
H67 C47 0.930 . S
H68 C55 0.924 1_455 S
H69 C56 0.929 . S
H70 C64 0.929 . S
H71 C65 0.930 . S
Mn72 O77 2.095 . S
Mn72 O87 2.162 . S
Mn72 O88 2.297 . S
Mn72 O96 2.385 1_554 S
Mn72 O97 2.209 . S
Mn72 O98 2.094 . S
Mn73 O78 2.121 . S
Mn73 N80 2.257 . S
Mn73 N89 2.282 . S
Mn73 O97 2.215 . S
Mn73 O99 2.117 . S
C74 O96 1.234 1_554 S
C74 O97 1.283 . S
C75 O87 1.281 . S
C75 O88 1.236 . S
C76 O98 1.240 . S
C76 O99 1.264 . S
O77 Mn72 2.095 . S
O77 C86 1.250 . S
O78 Mn73 2.121 . S
O78 C86 1.258 . S
C79 N80 1.326 . S
C79 C83 1.460 . S
C79 H85 0.929 . S
N80 Mn73 2.257 . S
N80 C79 1.326 . S
N80 C84 1.362 . S
C81 C82 1.258 . S
C81 C84 1.431 . S
C81 C101 1.449 . S
C82 C81 1.258 . S
C82 C83 1.477 . S
C82 H102 0.931 . S
C83 C79 1.460 . S
C83 C82 1.477 . S
C83 H103 0.930 . S
C84 N80 1.362 . S
C84 C81 1.431 . S
C84 C94 1.476 . S
H85 C79 0.929 . S
C86 O77 1.250 . S
C86 O78 1.258 . S
O87 Mn72 2.162 . S
O87 C75 1.281 . S
O88 Mn72 2.297 . S
O88 C75 1.236 . S
N89 Mn73 2.282 . S
N89 C90 1.328 . S
N89 C94 1.318 . S
C90 N89 1.328 . S
C90 C91 1.464 1_554 S
C90 H95 0.929 . S
C91 C90 1.464 1_556 S
C91 C92 1.288 . S
C91 H104 0.926 1_565 S
C92 C91 1.288 . S
C92 C93 1.373 1_556 S
C92 H105 0.929 . S
C93 C92 1.373 1_554 S
C93 C94 1.396 . S
C93 C100 1.403 . S
C94 C84 1.476 . S
C94 N89 1.318 . S
C94 C93 1.396 . S
H95 C90 0.929 . S
O96 Mn72 2.385 1_556 S
O96 C74 1.234 1_556 S
O97 Mn72 2.209 . S
O97 Mn73 2.215 . S
O97 C74 1.283 . S
O98 Mn72 2.094 . S
O98 C76 1.240 . S
O99 Mn73 2.117 . S
O99 C76 1.264 . S
C100 C93 1.403 . S
C100 C101 1.399 . S
C100 H106 0.929 . S
C101 C81 1.449 . S
C101 C100 1.399 . S
C101 H107 0.930 . S
H102 C82 0.931 . S
H103 C83 0.930 . S
H104 C91 0.926 1_545 S
H105 C92 0.929 . S
H106 C100 0.929 . S
H107 C101 0.930 . S
Mn108 O113 2.095 . S
Mn108 O123 2.162 . S
Mn108 O124 2.297 . S
Mn108 O132 2.385 . S
Mn108 O133 2.209 . S
Mn108 O134 2.094 . S
Mn109 O114 2.121 . S
Mn109 N116 2.257 . S
Mn109 N125 2.282 . S
Mn109 O133 2.215 . S
Mn109 O135 2.117 . S
C110 O132 1.234 . S
C110 O133 1.283 . S
C111 O123 1.281 . S
C111 O124 1.236 . S
C112 O134 1.240 . S
C112 O135 1.264 . S
O113 Mn108 2.095 . S
O113 C122 1.250 . S
O114 Mn109 2.121 . S
O114 C122 1.258 . S
C115 N116 1.326 . S
C115 C119 1.460 . S
C115 H121 0.929 . S
N116 Mn109 2.257 . S
N116 C115 1.326 . S
N116 C120 1.362 . S
C117 C118 1.258 . S
C117 C120 1.431 . S
C117 C137 1.449 . S
C118 C117 1.258 . S
C118 C119 1.477 . S
C118 H138 0.931 . S
C119 C115 1.460 . S
C119 C118 1.477 . S
C119 H139 0.930 . S
C120 N116 1.362 . S
C120 C117 1.431 . S
C120 C130 1.476 . S
H121 C115 0.929 . S
C122 O113 1.250 . S
C122 O114 1.258 . S
O123 Mn108 2.162 . S
O123 C111 1.281 . S
O124 Mn108 2.297 . S
O124 C111 1.236 . S
N125 Mn109 2.282 . S
N125 C126 1.328 . S
N125 C130 1.318 . S
C126 N125 1.328 . S
C126 C127 1.457 . S
C126 H131 0.929 . S
C127 C126 1.457 . S
C127 C128 1.291 . S
C127 H140 0.931 . S
C128 C127 1.291 . S
C128 C129 1.373 . S
C128 H141 0.929 . S
C129 C128 1.373 . S
C129 C130 1.396 . S
C129 C136 1.403 . S
C130 C120 1.476 . S
C130 N125 1.318 . S
C130 C129 1.396 . S
H131 C126 0.929 . S
O132 Mn108 2.385 . S
O132 C110 1.234 . S
O133 Mn108 2.209 . S
O133 Mn109 2.215 . S
O133 C110 1.283 . S
O134 Mn108 2.094 . S
O134 C112 1.240 . S
O135 Mn109 2.117 . S
O135 C112 1.264 . S
C136 C129 1.403 . S
C136 C137 1.399 . S
C136 H142 0.929 . S
C137 C117 1.449 . S
C137 C136 1.399 . S
C137 H143 0.930 . S
H138 C118 0.931 . S
H139 C119 0.930 . S
H140 C127 0.931 . S
H141 C128 0.929 . S
H142 C136 0.929 . S
H143 C137 0.930 . S
Mn144 O149 2.095 . S
Mn144 O159 2.162 . S
Mn144 O160 2.297 . S
Mn144 O168 2.385 1_554 S
Mn144 O169 2.209 . S
Mn144 O170 2.094 . S
Mn145 O150 2.121 . S
Mn145 N152 2.257 . S
Mn145 N161 2.282 . S
Mn145 O169 2.215 . S
Mn145 O171 2.117 . S
C146 O168 1.234 1_554 S
C146 O169 1.283 . S
C147 O159 1.281 . S
C147 O160 1.236 . S
C148 O170 1.240 . S
C148 O171 1.264 . S
O149 Mn144 2.095 . S
O149 C158 1.250 . S
O150 Mn145 2.121 . S
O150 C158 1.258 . S
C151 N152 1.326 . S
C151 C155 1.460 . S
C151 H157 0.929 . S
N152 Mn145 2.257 . S
N152 C151 1.326 . S
N152 C156 1.362 . S
C153 C154 1.258 . S
C153 C156 1.431 . S
C153 C173 1.449 . S
C154 C153 1.258 . S
C154 C155 1.477 . S
C154 H174 0.931 . S
C155 C151 1.460 . S
C155 C154 1.477 . S
C155 H175 0.930 . S
C156 N152 1.362 . S
C156 C153 1.431 . S
C156 C166 1.476 . S
H157 C151 0.929 . S
C158 O149 1.250 . S
C158 O150 1.258 . S
O159 Mn144 2.162 . S
O159 C147 1.281 . S
O160 Mn144 2.297 . S
O160 C147 1.236 . S
N161 Mn145 2.282 . S
N161 C162 1.328 . S
N161 C166 1.318 . S
C162 N161 1.328 . S
C162 C163 1.456 1_554 S
C162 H167 0.929 . S
C163 C162 1.456 1_556 S
C163 C164 1.298 . S
C163 H176 0.924 1_455 S
C164 C163 1.298 . S
C164 C165 1.373 1_556 S
C164 H177 0.929 . S
C165 C164 1.373 1_554 S
C165 C166 1.396 . S
C165 C172 1.403 . S
C166 C156 1.476 . S
C166 N161 1.318 . S
C166 C165 1.396 . S
H167 C162 0.929 . S
O168 Mn144 2.385 1_556 S
O168 C146 1.234 1_556 S
O169 Mn144 2.209 . S
O169 Mn145 2.215 . S
O169 C146 1.283 . S
O170 Mn144 2.094 . S
O170 C148 1.240 . S
O171 Mn145 2.117 . S
O171 C148 1.264 . S
C172 C165 1.403 . S
C172 C173 1.399 . S
C172 H178 0.929 . S
C173 C153 1.449 . S
C173 C172 1.399 . S
C173 H179 0.930 . S
H174 C154 0.931 . S
H175 C155 0.930 . S
H176 C163 0.924 1_655 S
H177 C164 0.929 . S
H178 C172 0.929 . S
H179 C173 0.930 . S
Mn180 O185 2.095 . S
Mn180 O195 2.162 . S
Mn180 O196 2.297 . S
Mn180 O204 2.385 . S
Mn180 O205 2.209 . S
Mn180 O206 2.094 . S
Mn181 O186 2.121 . S
Mn181 N188 2.257 . S
Mn181 N197 2.282 . S
Mn181 O205 2.215 . S
Mn181 O207 2.117 . S
C182 O204 1.234 . S
C182 O205 1.283 . S
C183 O195 1.281 . S
C183 O196 1.236 . S
C184 O206 1.240 . S
C184 O207 1.264 . S
O185 Mn180 2.095 . S
O185 C194 1.250 . S
O186 Mn181 2.121 . S
O186 C194 1.258 . S
C187 N188 1.326 . S
C187 C191 1.460 . S
C187 H193 0.929 . S
N188 Mn181 2.257 . S
N188 C187 1.326 . S
N188 C192 1.362 . S
C189 C190 1.258 . S
C189 C192 1.431 . S
C189 C209 1.449 . S
C190 C189 1.258 . S
C190 C191 1.477 . S
C190 H210 0.931 . S
C191 C187 1.460 . S
C191 C190 1.477 . S
C191 H211 0.930 . S
C192 N188 1.362 . S
C192 C189 1.431 . S
C192 C202 1.476 . S
H193 C187 0.929 . S
C194 O185 1.250 . S
C194 O186 1.258 . S
O195 Mn180 2.162 . S
O195 C183 1.281 . S
O196 Mn180 2.297 . S
O196 C183 1.236 . S
N197 Mn181 2.282 . S
N197 C198 1.328 . S
N197 C202 1.318 . S
C198 N197 1.328 . S
C198 C199 1.464 . S
C198 H203 0.929 . S
C199 C198 1.464 . S
C199 C200 1.288 . S
C199 H212 0.926 1_545 S
C200 C199 1.288 . S
C200 C201 1.373 . S
C200 H213 0.929 . S
C201 C200 1.373 . S
C201 C202 1.396 . S
C201 C208 1.403 . S
C202 C192 1.476 . S
C202 N197 1.318 . S
C202 C201 1.396 . S
H203 C198 0.929 . S
O204 Mn180 2.385 . S
O204 C182 1.234 . S
O205 Mn180 2.209 . S
O205 Mn181 2.215 . S
O205 C182 1.283 . S
O206 Mn180 2.094 . S
O206 C184 1.240 . S
O207 Mn181 2.117 . S
O207 C184 1.264 . S
C208 C201 1.403 . S
C208 C209 1.399 . S
C208 H214 0.929 . S
C209 C189 1.449 . S
C209 C208 1.399 . S
C209 H215 0.930 . S
H210 C190 0.931 . S
H211 C191 0.930 . S
H212 C199 0.926 1_565 S
H213 C200 0.929 . S
H214 C208 0.929 . S
H215 C209 0.930 . S
Mn216 O221 2.095 . S
Mn216 O231 2.162 . S
Mn216 O232 2.297 . S
Mn216 O240 2.385 1_556 S
Mn216 O241 2.209 . S
Mn216 O242 2.094 . S
Mn217 O222 2.121 . S
Mn217 N224 2.257 . S
Mn217 N233 2.282 . S
Mn217 O241 2.215 . S
Mn217 O243 2.117 . S
C218 O240 1.234 1_556 S
C218 O241 1.283 . S
C219 O231 1.281 . S
C219 O232 1.236 . S
C220 O242 1.240 . S
C220 O243 1.264 . S
O221 Mn216 2.095 . S
O221 C230 1.250 . S
O222 Mn217 2.121 . S
O222 C230 1.258 . S
C223 N224 1.326 . S
C223 C227 1.460 . S
C223 H229 0.929 . S
N224 Mn217 2.257 . S
N224 C223 1.326 . S
N224 C228 1.362 . S
C225 C226 1.258 . S
C225 C228 1.431 . S
C225 C245 1.449 . S
C226 C225 1.258 . S
C226 C227 1.477 . S
C226 H246 0.931 . S
C227 C223 1.460 . S
C227 C226 1.477 . S
C227 H247 0.930 . S
C228 N224 1.362 . S
C228 C225 1.431 . S
C228 C238 1.476 . S
H229 C223 0.929 . S
C230 O221 1.250 . S
C230 O222 1.258 . S
O231 Mn216 2.162 . S
O231 C219 1.281 . S
O232 Mn216 2.297 . S
O232 C219 1.236 . S
N233 Mn217 2.282 . S
N233 C234 1.328 . S
N233 C238 1.318 . S
C234 N233 1.328 . S
C234 C235 1.457 1_556 S
C234 H239 0.929 . S
C235 C234 1.457 1_554 S
C235 C236 1.291 . S
C235 H248 0.931 . S
C236 C235 1.291 . S
C236 C237 1.373 1_554 S
C236 H249 0.929 . S
C237 C236 1.373 1_556 S
C237 C238 1.396 . S
C237 C244 1.403 . S
C238 C228 1.476 . S
C238 N233 1.318 . S
C238 C237 1.396 . S
H239 C234 0.929 . S
O240 Mn216 2.385 1_554 S
O240 C218 1.234 1_554 S
O241 Mn216 2.209 . S
O241 Mn217 2.215 . S
O241 C218 1.283 . S
O242 Mn216 2.094 . S
O242 C220 1.240 . S
O243 Mn217 2.117 . S
O243 C220 1.264 . S
C244 C237 1.403 . S
C244 C245 1.399 . S
C244 H250 0.929 . S
C245 C225 1.449 . S
C245 C244 1.399 . S
C245 H251 0.930 . S
H246 C226 0.931 . S
H247 C227 0.930 . S
H248 C235 0.931 . S
H249 C236 0.929 . S
H250 C244 0.929 . S
H251 C245 0.930 . S
Mn252 O257 2.095 . S
Mn252 O267 2.162 . S
Mn252 O268 2.297 . S
Mn252 O276 2.385 . S
Mn252 O277 2.209 . S
Mn252 O278 2.094 . S
Mn253 O258 2.121 . S
Mn253 N260 2.257 . S
Mn253 N269 2.282 . S
Mn253 O277 2.215 . S
Mn253 O279 2.117 . S
C254 O276 1.234 . S
C254 O277 1.283 . S
C255 O267 1.281 . S
C255 O268 1.236 . S
C256 O278 1.240 . S
C256 O279 1.264 . S
O257 Mn252 2.095 . S
O257 C266 1.250 . S
O258 Mn253 2.121 . S
O258 C266 1.258 . S
C259 N260 1.326 . S
C259 C263 1.460 . S
C259 H265 0.929 . S
N260 Mn253 2.257 . S
N260 C259 1.326 . S
N260 C264 1.362 . S
C261 C262 1.258 . S
C261 C264 1.431 . S
C261 C281 1.449 . S
C262 C261 1.258 . S
C262 C263 1.477 . S
C262 H282 0.931 . S
C263 C259 1.460 . S
C263 C262 1.477 . S
C263 H283 0.930 . S
C264 N260 1.362 . S
C264 C261 1.431 . S
C264 C274 1.476 . S
H265 C259 0.929 . S
C266 O257 1.250 . S
C266 O258 1.258 . S
O267 Mn252 2.162 . S
O267 C255 1.281 . S
O268 Mn252 2.297 . S
O268 C255 1.236 . S
N269 Mn253 2.282 . S
N269 C270 1.328 . S
N269 C274 1.318 . S
C270 N269 1.328 . S
C270 C271 1.464 . S
C270 H275 0.929 . S
C271 C270 1.464 . S
C271 C272 1.288 . S
C271 H284 0.926 1_655 S
C272 C271 1.288 . S
C272 C273 1.373 . S
C272 H285 0.929 . S
C273 C272 1.373 . S
C273 C274 1.396 . S
C273 C280 1.403 . S
C274 C264 1.476 . S
C274 N269 1.318 . S
C274 C273 1.396 . S
H275 C270 0.929 . S
O276 Mn252 2.385 . S
O276 C254 1.234 . S
O277 Mn252 2.209 . S
O277 Mn253 2.215 . S
O277 C254 1.283 . S
O278 Mn252 2.094 . S
O278 C256 1.240 . S
O279 Mn253 2.117 . S
O279 C256 1.264 . S
C280 C273 1.403 . S
C280 C281 1.399 . S
C280 H286 0.929 . S
C281 C261 1.449 . S
C281 C280 1.399 . S
C281 H287 0.930 . S
H282 C262 0.931 . S
H283 C263 0.930 . S
H284 C271 0.926 1_455 S
H285 C272 0.929 . S
H286 C280 0.929 . S
H287 C281 0.930 . S
Mn288 O293 2.095 . S
Mn288 O303 2.162 . S
Mn288 O304 2.297 . S
Mn288 O312 2.385 1_556 S
Mn288 O313 2.209 . S
Mn288 O314 2.094 . S
Mn289 O294 2.121 . S
Mn289 N296 2.257 . S
Mn289 N305 2.282 . S
Mn289 O313 2.215 . S
Mn289 O315 2.117 . S
C290 O312 1.234 1_556 S
C290 O313 1.283 . S
C291 O303 1.281 . S
C291 O304 1.236 . S
C292 O314 1.240 . S
C292 O315 1.264 . S
O293 Mn288 2.095 . S
O293 C302 1.250 . S
O294 Mn289 2.121 . S
O294 C302 1.258 . S
C295 N296 1.326 . S
C295 C299 1.460 . S
C295 H301 0.929 . S
N296 Mn289 2.257 . S
N296 C295 1.326 . S
N296 C300 1.362 . S
C297 C298 1.258 . S
C297 C300 1.431 . S
C297 C317 1.449 . S
C298 C297 1.258 . S
C298 C299 1.477 . S
C298 H318 0.931 . S
C299 C295 1.460 . S
C299 C298 1.477 . S
C299 H319 0.930 . S
C300 N296 1.362 . S
C300 C297 1.431 . S
C300 C310 1.476 . S
H301 C295 0.929 . S
C302 O293 1.250 . S
C302 O294 1.258 . S
O303 Mn288 2.162 . S
O303 C291 1.281 . S
O304 Mn288 2.297 . S
O304 C291 1.236 . S
N305 Mn289 2.282 . S
N305 C306 1.328 . S
N305 C310 1.318 . S
C306 N305 1.328 . S
C306 C307 1.456 1_556 S
C306 H311 0.929 . S
C307 C306 1.456 1_554 S
C307 C308 1.298 . S
C307 H320 0.924 1_565 S
C308 C307 1.298 . S
C308 C309 1.373 1_554 S
C308 H321 0.929 . S
C309 C308 1.373 1_556 S
C309 C310 1.396 . S
C309 C316 1.403 . S
C310 C300 1.476 . S
C310 N305 1.318 . S
C310 C309 1.396 . S
H311 C306 0.929 . S
O312 Mn288 2.385 1_554 S
O312 C290 1.234 1_554 S
O313 Mn288 2.209 . S
O313 Mn289 2.215 . S
O313 C290 1.283 . S
O314 Mn288 2.094 . S
O314 C292 1.240 . S
O315 Mn289 2.117 . S
O315 C292 1.264 . S
C316 C309 1.403 . S
C316 C317 1.399 . S
C316 H322 0.929 . S
C317 C297 1.449 . S
C317 C316 1.399 . S
C317 H323 0.930 . S
H318 C298 0.931 . S
H319 C299 0.930 . S
H320 C307 0.924 1_545 S
H321 C308 0.929 . S
H322 C316 0.929 . S
H323 C317 0.930 . S
Mn324 O329 2.095 . S
Mn324 O339 2.162 . S
Mn324 O340 2.297 . S
Mn324 O348 2.385 . S
Mn324 O349 2.209 . S
Mn324 O350 2.094 . S
Mn325 O330 2.121 . S
Mn325 N332 2.257 . S
Mn325 N341 2.282 . S
Mn325 O349 2.215 . S
Mn325 O351 2.117 . S
C326 O348 1.234 . S
C326 O349 1.283 . S
C327 O339 1.281 . S
C327 O340 1.236 . S
C328 O350 1.240 . S
C328 O351 1.264 . S
O329 Mn324 2.095 . S
O329 C338 1.250 . S
O330 Mn325 2.121 . S
O330 C338 1.258 . S
C331 N332 1.326 . S
C331 C335 1.460 . S
C331 H337 0.929 . S
N332 Mn325 2.257 . S
N332 C331 1.326 . S
N332 C336 1.362 . S
C333 C334 1.258 . S
C333 C336 1.431 . S
C333 C353 1.449 . S
C334 C333 1.258 . S
C334 C335 1.477 . S
C334 H354 0.931 . S
C335 C331 1.460 . S
C335 C334 1.477 . S
C335 H355 0.930 . S
C336 N332 1.362 . S
C336 C333 1.431 . S
C336 C346 1.476 . S
H337 C331 0.929 . S
C338 O329 1.250 . S
C338 O330 1.258 . S
O339 Mn324 2.162 . S
O339 C327 1.281 . S
O340 Mn324 2.297 . S
O340 C327 1.236 . S
N341 Mn325 2.282 . S
N341 C342 1.328 . S
N341 C346 1.318 . S
C342 N341 1.328 . S
C342 C343 1.457 . S
C342 H347 0.929 . S
C343 C342 1.457 . S
C343 C344 1.291 . S
C343 H356 0.931 . S
C344 C343 1.291 . S
C344 C345 1.373 . S
C344 H357 0.929 . S
C345 C344 1.373 . S
C345 C346 1.396 . S
C345 C352 1.403 . S
C346 C336 1.476 . S
C346 N341 1.318 . S
C346 C345 1.396 . S
H347 C342 0.929 . S
O348 Mn324 2.385 . S
O348 C326 1.234 . S
O349 Mn324 2.209 . S
O349 Mn325 2.215 . S
O349 C326 1.283 . S
O350 Mn324 2.094 . S
O350 C328 1.240 . S
O351 Mn325 2.117 . S
O351 C328 1.264 . S
C352 C345 1.403 . S
C352 C353 1.399 . S
C352 H358 0.929 . S
C353 C333 1.449 . S
C353 C352 1.399 . S
C353 H359 0.930 . S
H354 C334 0.931 . S
H355 C335 0.930 . S
H356 C343 0.931 . S
H357 C344 0.929 . S
H358 C352 0.929 . S
H359 C353 0.930 . S
Mn360 O365 2.095 . S
Mn360 O375 2.162 . S
Mn360 O376 2.297 . S
Mn360 O384 2.385 1_556 S
Mn360 O385 2.209 . S
Mn360 O386 2.094 . S
Mn361 O366 2.121 . S
Mn361 N368 2.257 . S
Mn361 N377 2.282 . S
Mn361 O385 2.215 . S
Mn361 O387 2.117 . S
C362 O384 1.234 1_556 S
C362 O385 1.283 . S
C363 O375 1.281 . S
C363 O376 1.236 . S
C364 O386 1.240 . S
C364 O387 1.264 . S
O365 Mn360 2.095 . S
O365 C374 1.250 . S
O366 Mn361 2.121 . S
O366 C374 1.258 . S
C367 N368 1.326 . S
C367 C371 1.460 . S
C367 H373 0.929 . S
N368 Mn361 2.257 . S
N368 C367 1.326 . S
N368 C372 1.362 . S
C369 C370 1.258 . S
C369 C372 1.431 . S
C369 C389 1.449 . S
C370 C369 1.258 . S
C370 C371 1.477 . S
C370 H390 0.931 . S
C371 C367 1.460 . S
C371 C370 1.477 . S
C371 H391 0.930 . S
C372 N368 1.362 . S
C372 C369 1.431 . S
C372 C382 1.476 . S
H373 C367 0.929 . S
C374 O365 1.250 . S
C374 O366 1.258 . S
O375 Mn360 2.162 . S
O375 C363 1.281 . S
O376 Mn360 2.297 . S
O376 C363 1.236 . S
N377 Mn361 2.282 . S
N377 C378 1.328 . S
N377 C382 1.318 . S
C378 N377 1.328 . S
C378 C379 1.464 1_556 S
C378 H383 0.929 . S
C379 C378 1.464 1_554 S
C379 C380 1.288 . S
C379 H392 0.926 1_455 S
C380 C379 1.288 . S
C380 C381 1.373 1_554 S
C380 H393 0.929 . S
C381 C380 1.373 1_556 S
C381 C382 1.396 . S
C381 C388 1.403 . S
C382 C372 1.476 . S
C382 N377 1.318 . S
C382 C381 1.396 . S
H383 C378 0.929 . S
O384 Mn360 2.385 1_554 S
O384 C362 1.234 1_554 S
O385 Mn360 2.209 . S
O385 Mn361 2.215 . S
O385 C362 1.283 . S
O386 Mn360 2.094 . S
O386 C364 1.240 . S
O387 Mn361 2.117 . S
O387 C364 1.264 . S
C388 C381 1.403 . S
C388 C389 1.399 . S
C388 H394 0.929 . S
C389 C369 1.449 . S
C389 C388 1.399 . S
C389 H395 0.930 . S
H390 C370 0.931 . S
H391 C371 0.930 . S
H392 C379 0.926 1_655 S
H393 C380 0.929 . S
H394 C388 0.929 . S
H395 C389 0.930 . S
Mn396 O401 2.095 . S
Mn396 O411 2.162 . S
Mn396 O412 2.297 . S
Mn396 O420 2.385 . S
Mn396 O421 2.209 . S
Mn396 O422 2.094 . S
Mn397 O402 2.121 . S
Mn397 N404 2.257 . S
Mn397 N413 2.282 . S
Mn397 O421 2.215 . S
Mn397 O423 2.117 . S
C398 O420 1.234 . S
C398 O421 1.283 . S
C399 O411 1.281 . S
C399 O412 1.236 . S
C400 O422 1.240 . S
C400 O423 1.264 . S
O401 Mn396 2.095 . S
O401 C410 1.250 . S
O402 Mn397 2.121 . S
O402 C410 1.258 . S
C403 N404 1.326 . S
C403 C407 1.460 . S
C403 H409 0.929 . S
N404 Mn397 2.257 . S
N404 C403 1.326 . S
N404 C408 1.362 . S
C405 C406 1.258 . S
C405 C408 1.431 . S
C405 C425 1.449 . S
C406 C405 1.258 . S
C406 C407 1.477 . S
C406 H426 0.931 . S
C407 C403 1.460 . S
C407 C406 1.477 . S
C407 H427 0.930 . S
C408 N404 1.362 . S
C408 C405 1.431 . S
C408 C418 1.476 . S
H409 C403 0.929 . S
C410 O401 1.250 . S
C410 O402 1.258 . S
O411 Mn396 2.162 . S
O411 C399 1.281 . S
O412 Mn396 2.297 . S
O412 C399 1.236 . S
N413 Mn397 2.282 . S
N413 C414 1.328 . S
N413 C418 1.318 . S
C414 N413 1.328 . S
C414 C415 1.456 . S
C414 H419 0.929 . S
C415 C414 1.456 . S
C415 C416 1.298 . S
C415 H428 0.924 1_545 S
C416 C415 1.298 . S
C416 C417 1.373 . S
C416 H429 0.929 . S
C417 C416 1.373 . S
C417 C418 1.396 . S
C417 C424 1.403 . S
C418 C408 1.476 . S
C418 N413 1.318 . S
C418 C417 1.396 . S
H419 C414 0.929 . S
O420 Mn396 2.385 . S
O420 C398 1.234 . S
O421 Mn396 2.209 . S
O421 Mn397 2.215 . S
O421 C398 1.283 . S
O422 Mn396 2.094 . S
O422 C400 1.240 . S
O423 Mn397 2.117 . S
O423 C400 1.264 . S
C424 C417 1.403 . S
C424 C425 1.399 . S
C424 H430 0.929 . S
C425 C405 1.449 . S
C425 C424 1.399 . S
C425 H431 0.930 . S
H426 C406 0.931 . S
H427 C407 0.930 . S
H428 C415 0.924 1_565 S
H429 C416 0.929 . S
H430 C424 0.929 . S
H431 C425 0.930 . S
Mn432 O437 2.095 . S
Mn432 O447 2.162 . S
Mn432 O448 2.297 . S
Mn432 O456 2.385 1_556 S
Mn432 O457 2.209 . S
Mn432 O458 2.094 . S
Mn433 O438 2.121 . S
Mn433 N440 2.257 . S
Mn433 N449 2.282 . S
Mn433 O457 2.215 . S
Mn433 O459 2.117 . S
C434 O456 1.234 1_556 S
C434 O457 1.283 . S
C435 O447 1.281 . S
C435 O448 1.236 . S
C436 O458 1.240 . S
C436 O459 1.264 . S
O437 Mn432 2.095 . S
O437 C446 1.250 . S
O438 Mn433 2.121 . S
O438 C446 1.258 . S
C439 N440 1.326 . S
C439 C443 1.460 . S
C439 H445 0.929 . S
N440 Mn433 2.257 . S
N440 C439 1.326 . S
N440 C444 1.362 . S
C441 C442 1.258 . S
C441 C444 1.431 . S
C441 C461 1.449 . S
C442 C441 1.258 . S
C442 C443 1.477 . S
C442 H462 0.931 . S
C443 C439 1.460 . S
C443 C442 1.477 . S
C443 H463 0.930 . S
C444 N440 1.362 . S
C444 C441 1.431 . S
C444 C454 1.476 . S
H445 C439 0.929 . S
C446 O437 1.250 . S
C446 O438 1.258 . S
O447 Mn432 2.162 . S
O447 C435 1.281 . S
O448 Mn432 2.297 . S
O448 C435 1.236 . S
N449 Mn433 2.282 . S
N449 C450 1.328 . S
N449 C454 1.318 . S
C450 N449 1.328 . S
C450 C451 1.457 1_556 S
C450 H455 0.929 . S
C451 C450 1.457 1_554 S
C451 C452 1.291 . S
C451 H464 0.931 . S
C452 C451 1.291 . S
C452 C453 1.373 1_554 S
C452 H465 0.929 . S
C453 C452 1.373 1_556 S
C453 C454 1.396 . S
C453 C460 1.403 . S
C454 C444 1.476 . S
C454 N449 1.318 . S
C454 C453 1.396 . S
H455 C450 0.929 . S
O456 Mn432 2.385 1_554 S
O456 C434 1.234 1_554 S
O457 Mn432 2.209 . S
O457 Mn433 2.215 . S
O457 C434 1.283 . S
O458 Mn432 2.094 . S
O458 C436 1.240 . S
O459 Mn433 2.117 . S
O459 C436 1.264 . S
C460 C453 1.403 . S
C460 C461 1.399 . S
C460 H466 0.929 . S
C461 C441 1.449 . S
C461 C460 1.399 . S
C461 H467 0.930 . S
H462 C442 0.931 . S
H463 C443 0.930 . S
H464 C451 0.931 . S
H465 C452 0.929 . S
H466 C460 0.929 . S
H467 C461 0.930 . S
Mn468 O473 2.095 . S
Mn468 O483 2.162 . S
Mn468 O484 2.297 . S
Mn468 O492 2.385 . S
Mn468 O493 2.209 . S
Mn468 O494 2.094 . S
Mn469 O474 2.121 . S
Mn469 N476 2.257 . S
Mn469 N485 2.282 . S
Mn469 O493 2.215 . S
Mn469 O495 2.117 . S
C470 O492 1.234 . S
C470 O493 1.283 . S
C471 O483 1.281 . S
C471 O484 1.236 . S
C472 O494 1.240 . S
C472 O495 1.264 . S
O473 Mn468 2.095 . S
O473 C482 1.250 . S
O474 Mn469 2.121 . S
O474 C482 1.258 . S
C475 N476 1.326 . S
C475 C479 1.460 . S
C475 H481 0.929 . S
N476 Mn469 2.257 . S
N476 C475 1.326 . S
N476 C480 1.362 . S
C477 C478 1.258 . S
C477 C480 1.431 . S
C477 C497 1.449 . S
C478 C477 1.258 . S
C478 C479 1.477 . S
C478 H498 0.931 . S
C479 C475 1.460 . S
C479 C478 1.477 . S
C479 H499 0.930 . S
C480 N476 1.362 . S
C480 C477 1.431 . S
C480 C490 1.476 . S
H481 C475 0.929 . S
C482 O473 1.250 . S
C482 O474 1.258 . S
O483 Mn468 2.162 . S
O483 C471 1.281 . S
O484 Mn468 2.297 . S
O484 C471 1.236 . S
N485 Mn469 2.282 . S
N485 C486 1.328 . S
N485 C490 1.318 . S
C486 N485 1.328 . S
C486 C487 1.456 . S
C486 H491 0.929 . S
C487 C486 1.456 . S
C487 C488 1.298 . S
C487 H500 0.924 1_455 S
C488 C487 1.298 . S
C488 C489 1.373 . S
C488 H501 0.929 . S
C489 C488 1.373 . S
C489 C490 1.396 . S
C489 C496 1.403 . S
C490 C480 1.476 . S
C490 N485 1.318 . S
C490 C489 1.396 . S
H491 C486 0.929 . S
O492 Mn468 2.385 . S
O492 C470 1.234 . S
O493 Mn468 2.209 . S
O493 Mn469 2.215 . S
O493 C470 1.283 . S
O494 Mn468 2.094 . S
O494 C472 1.240 . S
O495 Mn469 2.117 . S
O495 C472 1.264 . S
C496 C489 1.403 . S
C496 C497 1.399 . S
C496 H502 0.929 . S
C497 C477 1.449 . S
C497 C496 1.399 . S
C497 H503 0.930 . S
H498 C478 0.931 . S
H499 C479 0.930 . S
H500 C487 0.924 1_655 S
H501 C488 0.929 . S
H502 C496 0.929 . S
H503 C497 0.930 . S
Mn504 O509 2.095 . S
Mn504 O519 2.162 . S
Mn504 O520 2.297 . S
Mn504 O528 2.385 1_556 S
Mn504 O529 2.209 . S
Mn504 O530 2.094 . S
Mn505 O510 2.121 . S
Mn505 N512 2.257 . S
Mn505 N521 2.282 . S
Mn505 O529 2.215 . S
Mn505 O531 2.117 . S
C506 O528 1.234 1_556 S
C506 O529 1.283 . S
C507 O519 1.281 . S
C507 O520 1.236 . S
C508 O530 1.240 . S
C508 O531 1.264 . S
O509 Mn504 2.095 . S
O509 C518 1.250 . S
O510 Mn505 2.121 . S
O510 C518 1.258 . S
C511 N512 1.326 . S
C511 C515 1.460 . S
C511 H517 0.929 . S
N512 Mn505 2.257 . S
N512 C511 1.326 . S
N512 C516 1.362 . S
C513 C514 1.258 . S
C513 C516 1.431 . S
C513 C533 1.449 . S
C514 C513 1.258 . S
C514 C515 1.477 . S
C514 H534 0.931 . S
C515 C511 1.460 . S
C515 C514 1.477 . S
C515 H535 0.930 . S
C516 N512 1.362 . S
C516 C513 1.431 . S
C516 C526 1.476 . S
H517 C511 0.929 . S
C518 O509 1.250 . S
C518 O510 1.258 . S
O519 Mn504 2.162 . S
O519 C507 1.281 . S
O520 Mn504 2.297 . S
O520 C507 1.236 . S
N521 Mn505 2.282 . S
N521 C522 1.328 . S
N521 C526 1.318 . S
C522 N521 1.328 . S
C522 C523 1.464 1_556 S
C522 H527 0.929 . S
C523 C522 1.464 1_554 S
C523 C524 1.288 . S
C523 H536 0.926 1_545 S
C524 C523 1.288 . S
C524 C525 1.373 1_554 S
C524 H537 0.929 . S
C525 C524 1.373 1_556 S
C525 C526 1.396 . S
C525 C532 1.403 . S
C526 C516 1.476 . S
C526 N521 1.318 . S
C526 C525 1.396 . S
H527 C522 0.929 . S
O528 Mn504 2.385 1_554 S
O528 C506 1.234 1_554 S
O529 Mn504 2.209 . S
O529 Mn505 2.215 . S
O529 C506 1.283 . S
O530 Mn504 2.094 . S
O530 C508 1.240 . S
O531 Mn505 2.117 . S
O531 C508 1.264 . S
C532 C525 1.403 . S
C532 C533 1.399 . S
C532 H538 0.929 . S
C533 C513 1.449 . S
C533 C532 1.399 . S
C533 H539 0.930 . S
H534 C514 0.931 . S
H535 C515 0.930 . S
H536 C523 0.926 1_565 S
H537 C524 0.929 . S
H538 C532 0.929 . S
H539 C533 0.930 . S
Mn540 O545 2.095 . S
Mn540 O555 2.162 . S
Mn540 O556 2.297 . S
Mn540 O564 2.385 . S
Mn540 O565 2.209 . S
Mn540 O566 2.094 . S
Mn541 O546 2.121 . S
Mn541 N548 2.257 . S
Mn541 N557 2.282 . S
Mn541 O565 2.215 . S
Mn541 O567 2.117 . S
C542 O564 1.234 . S
C542 O565 1.283 . S
C543 O555 1.281 . S
C543 O556 1.236 . S
C544 O566 1.240 . S
C544 O567 1.264 . S
O545 Mn540 2.095 . S
O545 C554 1.250 . S
O546 Mn541 2.121 . S
O546 C554 1.258 . S
C547 N548 1.326 . S
C547 C551 1.460 . S
C547 H553 0.929 . S
N548 Mn541 2.257 . S
N548 C547 1.326 . S
N548 C552 1.362 . S
C549 C550 1.258 . S
C549 C552 1.431 . S
C549 C569 1.449 . S
C550 C549 1.258 . S
C550 C551 1.477 . S
C550 H570 0.931 . S
C551 C547 1.460 . S
C551 C550 1.477 . S
C551 H571 0.930 . S
C552 N548 1.362 . S
C552 C549 1.431 . S
C552 C562 1.476 . S
H553 C547 0.929 . S
C554 O545 1.250 . S
C554 O546 1.258 . S
O555 Mn540 2.162 . S
O555 C543 1.281 . S
O556 Mn540 2.297 . S
O556 C543 1.236 . S
N557 Mn541 2.282 . S
N557 C558 1.328 . S
N557 C562 1.318 . S
C558 N557 1.328 . S
C558 C559 1.457 . S
C558 H563 0.929 . S
C559 C558 1.457 . S
C559 C560 1.291 . S
C559 H572 0.931 . S
C560 C559 1.291 . S
C560 C561 1.373 . S
C560 H573 0.929 . S
C561 C560 1.373 . S
C561 C562 1.396 . S
C561 C568 1.403 . S
C562 C552 1.476 . S
C562 N557 1.318 . S
C562 C561 1.396 . S
H563 C558 0.929 . S
O564 Mn540 2.385 . S
O564 C542 1.234 . S
O565 Mn540 2.209 . S
O565 Mn541 2.215 . S
O565 C542 1.283 . S
O566 Mn540 2.094 . S
O566 C544 1.240 . S
O567 Mn541 2.117 . S
O567 C544 1.264 . S
C568 C561 1.403 . S
C568 C569 1.399 . S
C568 H574 0.929 . S
C569 C549 1.449 . S
C569 C568 1.399 . S
C569 H575 0.930 . S
H570 C550 0.931 . S
H571 C551 0.930 . S
H572 C559 0.931 . S
H573 C560 0.929 . S
H574 C568 0.929 . S
H575 C569 0.930 . S
Mn576 O581 2.095 . S
Mn576 O591 2.162 . S
Mn576 O592 2.297 . S
Mn576 O600 2.385 1_556 S
Mn576 O601 2.209 . S
Mn576 O602 2.094 . S
Mn577 O582 2.121 . S
Mn577 N584 2.257 . S
Mn577 N593 2.282 . S
Mn577 O601 2.215 . S
Mn577 O603 2.117 . S
C578 O600 1.234 1_556 S
C578 O601 1.283 . S
C579 O591 1.281 . S
C579 O592 1.236 . S
C580 O602 1.240 . S
C580 O603 1.264 . S
O581 Mn576 2.095 . S
O581 C590 1.250 . S
O582 Mn577 2.121 . S
O582 C590 1.258 . S
C583 N584 1.326 . S
C583 C587 1.460 . S
C583 H589 0.929 . S
N584 Mn577 2.257 . S
N584 C583 1.326 . S
N584 C588 1.362 . S
C585 C586 1.258 . S
C585 C588 1.431 . S
C585 C605 1.449 . S
C586 C585 1.258 . S
C586 C587 1.477 . S
C586 H606 0.931 . S
C587 C583 1.460 . S
C587 C586 1.477 . S
C587 H607 0.930 . S
C588 N584 1.362 . S
C588 C585 1.431 . S
C588 C598 1.476 . S
H589 C583 0.929 . S
C590 O581 1.250 . S
C590 O582 1.258 . S
O591 Mn576 2.162 . S
O591 C579 1.281 . S
O592 Mn576 2.297 . S
O592 C579 1.236 . S
N593 Mn577 2.282 . S
N593 C594 1.328 . S
N593 C598 1.318 . S
C594 N593 1.328 . S
C594 C595 1.456 1_556 S
C594 H599 0.929 . S
C595 C594 1.456 1_554 S
C595 C596 1.298 . S
C595 H608 0.924 1_655 S
C596 C595 1.298 . S
C596 C597 1.373 1_554 S
C596 H609 0.929 . S
C597 C596 1.373 1_556 S
C597 C598 1.396 . S
C597 C604 1.403 . S
C598 C588 1.476 . S
C598 N593 1.318 . S
C598 C597 1.396 . S
H599 C594 0.929 . S
O600 Mn576 2.385 1_554 S
O600 C578 1.234 1_554 S
O601 Mn576 2.209 . S
O601 Mn577 2.215 . S
O601 C578 1.283 . S
O602 Mn576 2.094 . S
O602 C580 1.240 . S
O603 Mn577 2.117 . S
O603 C580 1.264 . S
C604 C597 1.403 . S
C604 C605 1.399 . S
C604 H610 0.929 . S
C605 C585 1.449 . S
C605 C604 1.399 . S
C605 H611 0.930 . S
H606 C586 0.931 . S
H607 C587 0.930 . S
H608 C595 0.924 1_455 S
H609 C596 0.929 . S
H610 C604 0.929 . S
H611 C605 0.930 . S
Mn612 O617 2.095 . S
Mn612 O627 2.162 . S
Mn612 O628 2.297 . S
Mn612 O636 2.385 . S
Mn612 O637 2.209 . S
Mn612 O638 2.094 . S
Mn613 O618 2.121 . S
Mn613 N620 2.257 . S
Mn613 N629 2.282 . S
Mn613 O637 2.215 . S
Mn613 O639 2.117 . S
C614 O636 1.234 . S
C614 O637 1.283 . S
C615 O627 1.281 . S
C615 O628 1.236 . S
C616 O638 1.240 . S
C616 O639 1.264 . S
O617 Mn612 2.095 . S
O617 C626 1.250 . S
O618 Mn613 2.121 . S
O618 C626 1.258 . S
C619 N620 1.326 . S
C619 C623 1.460 . S
C619 H625 0.929 . S
N620 Mn613 2.257 . S
N620 C619 1.326 . S
N620 C624 1.362 . S
C621 C622 1.258 . S
C621 C624 1.431 . S
C621 C641 1.449 . S
C622 C621 1.258 . S
C622 C623 1.477 . S
C622 H642 0.931 . S
C623 C619 1.460 . S
C623 C622 1.477 . S
C623 H643 0.930 . S
C624 N620 1.362 . S
C624 C621 1.431 . S
C624 C634 1.476 . S
H625 C619 0.929 . S
C626 O617 1.250 . S
C626 O618 1.258 . S
O627 Mn612 2.162 . S
O627 C615 1.281 . S
O628 Mn612 2.297 . S
O628 C615 1.236 . S
N629 Mn613 2.282 . S
N629 C630 1.328 . S
N629 C634 1.318 . S
C630 N629 1.328 . S
C630 C631 1.464 . S
C630 H635 0.929 . S
C631 C630 1.464 . S
C631 C632 1.288 . S
C631 H644 0.926 1_565 S
C632 C631 1.288 . S
C632 C633 1.373 . S
C632 H645 0.929 . S
C633 C632 1.373 . S
C633 C634 1.396 . S
C633 C640 1.403 . S
C634 C624 1.476 . S
C634 N629 1.318 . S
C634 C633 1.396 . S
H635 C630 0.929 . S
O636 Mn612 2.385 . S
O636 C614 1.234 . S
O637 Mn612 2.209 . S
O637 Mn613 2.215 . S
O637 C614 1.283 . S
O638 Mn612 2.094 . S
O638 C616 1.240 . S
O639 Mn613 2.117 . S
O639 C616 1.264 . S
C640 C633 1.403 . S
C640 C641 1.399 . S
C640 H646 0.929 . S
C641 C621 1.449 . S
C641 C640 1.399 . S
C641 H647 0.930 . S
H642 C622 0.931 . S
H643 C623 0.930 . S
H644 C631 0.926 1_545 S
H645 C632 0.929 . S
H646 C640 0.929 . S
H647 C641 0.930 . S
Mn648 O653 2.095 . S
Mn648 O663 2.162 . S
Mn648 O664 2.297 . S
Mn648 O672 2.385 1_554 S
Mn648 O673 2.209 . S
Mn648 O674 2.094 . S
Mn649 O654 2.121 . S
Mn649 N656 2.257 . S
Mn649 N665 2.282 . S
Mn649 O673 2.215 . S
Mn649 O675 2.117 . S
C650 O672 1.234 1_554 S
C650 O673 1.283 . S
C651 O663 1.281 . S
C651 O664 1.236 . S
C652 O674 1.240 . S
C652 O675 1.264 . S
O653 Mn648 2.095 . S
O653 C662 1.250 . S
O654 Mn649 2.121 . S
O654 C662 1.258 . S
C655 N656 1.326 . S
C655 C659 1.460 . S
C655 H661 0.929 . S
N656 Mn649 2.257 . S
N656 C655 1.326 . S
N656 C660 1.362 . S
C657 C658 1.258 . S
C657 C660 1.431 . S
C657 C677 1.449 . S
C658 C657 1.258 . S
C658 C659 1.477 . S
C658 H678 0.931 . S
C659 C655 1.460 . S
C659 C658 1.477 . S
C659 H679 0.930 . S
C660 N656 1.362 . S
C660 C657 1.431 . S
C660 C670 1.476 . S
H661 C655 0.929 . S
C662 O653 1.250 . S
C662 O654 1.258 . S
O663 Mn648 2.162 . S
O663 C651 1.281 . S
O664 Mn648 2.297 . S
O664 C651 1.236 . S
N665 Mn649 2.282 . S
N665 C666 1.328 . S
N665 C670 1.318 . S
C666 N665 1.328 . S
C666 C667 1.457 1_554 S
C666 H671 0.929 . S
C667 C666 1.457 1_556 S
C667 C668 1.291 . S
C667 H680 0.931 . S
C668 C667 1.291 . S
C668 C669 1.373 1_556 S
C668 H681 0.929 . S
C669 C668 1.373 1_554 S
C669 C670 1.396 . S
C669 C676 1.403 . S
C670 C660 1.476 . S
C670 N665 1.318 . S
C670 C669 1.396 . S
H671 C666 0.929 . S
O672 Mn648 2.385 1_556 S
O672 C650 1.234 1_556 S
O673 Mn648 2.209 . S
O673 Mn649 2.215 . S
O673 C650 1.283 . S
O674 Mn648 2.094 . S
O674 C652 1.240 . S
O675 Mn649 2.117 . S
O675 C652 1.264 . S
C676 C669 1.403 . S
C676 C677 1.399 . S
C676 H682 0.929 . S
C677 C657 1.449 . S
C677 C676 1.399 . S
C677 H683 0.930 . S
H678 C658 0.931 . S
H679 C659 0.930 . S
H680 C667 0.931 . S
H681 C668 0.929 . S
H682 C676 0.929 . S
H683 C677 0.930 . S
Mn684 O689 2.095 . S
Mn684 O699 2.162 . S
Mn684 O700 2.297 . S
Mn684 O708 2.385 . S
Mn684 O709 2.209 . S
Mn684 O710 2.094 . S
Mn685 O690 2.121 . S
Mn685 N692 2.257 . S
Mn685 N701 2.282 . S
Mn685 O709 2.215 . S
Mn685 O711 2.117 . S
C686 O708 1.234 . S
C686 O709 1.283 . S
C687 O699 1.281 . S
C687 O700 1.236 . S
C688 O710 1.240 . S
C688 O711 1.264 . S
O689 Mn684 2.095 . S
O689 C698 1.250 . S
O690 Mn685 2.121 . S
O690 C698 1.258 . S
C691 N692 1.326 . S
C691 C695 1.460 . S
C691 H697 0.929 . S
N692 Mn685 2.257 . S
N692 C691 1.326 . S
N692 C696 1.362 . S
C693 C694 1.258 . S
C693 C696 1.431 . S
C693 C713 1.449 . S
C694 C693 1.258 . S
C694 C695 1.477 . S
C694 H714 0.931 . S
C695 C691 1.460 . S
C695 C694 1.477 . S
C695 H715 0.930 . S
C696 N692 1.362 . S
C696 C693 1.431 . S
C696 C706 1.476 . S
H697 C691 0.929 . S
C698 O689 1.250 . S
C698 O690 1.258 . S
O699 Mn684 2.162 . S
O699 C687 1.281 . S
O700 Mn684 2.297 . S
O700 C687 1.236 . S
N701 Mn685 2.282 . S
N701 C702 1.328 . S
N701 C706 1.318 . S
C702 N701 1.328 . S
C702 C703 1.464 . S
C702 H707 0.929 . S
C703 C702 1.464 . S
C703 C704 1.288 . S
C703 H716 0.926 1_455 S
C704 C703 1.288 . S
C704 C705 1.373 . S
C704 H717 0.929 . S
C705 C704 1.373 . S
C705 C706 1.396 . S
C705 C712 1.403 . S
C706 C696 1.476 . S
C706 N701 1.318 . S
C706 C705 1.396 . S
H707 C702 0.929 . S
O708 Mn684 2.385 . S
O708 C686 1.234 . S
O709 Mn684 2.209 . S
O709 Mn685 2.215 . S
O709 C686 1.283 . S
O710 Mn684 2.094 . S
O710 C688 1.240 . S
O711 Mn685 2.117 . S
O711 C688 1.264 . S
C712 C705 1.403 . S
C712 C713 1.399 . S
C712 H718 0.929 . S
C713 C693 1.449 . S
C713 C712 1.399 . S
C713 H719 0.930 . S
H714 C694 0.931 . S
H715 C695 0.930 . S
H716 C703 0.926 1_655 S
H717 C704 0.929 . S
H718 C712 0.929 . S
H719 C713 0.930 . S
Mn720 O725 2.095 . S
Mn720 O735 2.162 . S
Mn720 O736 2.297 . S
Mn720 O744 2.385 1_554 S
Mn720 O745 2.209 . S
Mn720 O746 2.094 . S
Mn721 O726 2.121 . S
Mn721 N728 2.257 . S
Mn721 N737 2.282 . S
Mn721 O745 2.215 . S
Mn721 O747 2.117 . S
C722 O744 1.234 1_554 S
C722 O745 1.283 . S
C723 O735 1.281 . S
C723 O736 1.236 . S
C724 O746 1.240 . S
C724 O747 1.264 . S
O725 Mn720 2.095 . S
O725 C734 1.250 . S
O726 Mn721 2.121 . S
O726 C734 1.258 . S
C727 N728 1.326 . S
C727 C731 1.460 . S
C727 H733 0.929 . S
N728 Mn721 2.257 . S
N728 C727 1.326 . S
N728 C732 1.362 . S
C729 C730 1.258 . S
C729 C732 1.431 . S
C729 C749 1.449 . S
C730 C729 1.258 . S
C730 C731 1.477 . S
C730 H750 0.931 . S
C731 C727 1.460 . S
C731 C730 1.477 . S
C731 H751 0.930 . S
C732 N728 1.362 . S
C732 C729 1.431 . S
C732 C742 1.476 . S
H733 C727 0.929 . S
C734 O725 1.250 . S
C734 O726 1.258 . S
O735 Mn720 2.162 . S
O735 C723 1.281 . S
O736 Mn720 2.297 . S
O736 C723 1.236 . S
N737 Mn721 2.282 . S
N737 C738 1.328 . S
N737 C742 1.318 . S
C738 N737 1.328 . S
C738 C739 1.456 1_554 S
C738 H743 0.929 . S
C739 C738 1.456 1_556 S
C739 C740 1.298 . S
C739 H752 0.924 1_545 S
C740 C739 1.298 . S
C740 C741 1.373 1_556 S
C740 H753 0.929 . S
C741 C740 1.373 1_554 S
C741 C742 1.396 . S
C741 C748 1.403 . S
C742 C732 1.476 . S
C742 N737 1.318 . S
C742 C741 1.396 . S
H743 C738 0.929 . S
O744 Mn720 2.385 1_556 S
O744 C722 1.234 1_556 S
O745 Mn720 2.209 . S
O745 Mn721 2.215 . S
O745 C722 1.283 . S
O746 Mn720 2.094 . S
O746 C724 1.240 . S
O747 Mn721 2.117 . S
O747 C724 1.264 . S
C748 C741 1.403 . S
C748 C749 1.399 . S
C748 H754 0.929 . S
C749 C729 1.449 . S
C749 C748 1.399 . S
C749 H755 0.930 . S
H750 C730 0.931 . S
H751 C731 0.930 . S
H752 C739 0.924 1_565 S
H753 C740 0.929 . S
H754 C748 0.929 . S
H755 C749 0.930 . S
Mn756 O761 2.095 . S
Mn756 O771 2.162 . S
Mn756 O772 2.297 . S
Mn756 O780 2.385 . S
Mn756 O781 2.209 . S
Mn756 O782 2.094 . S
Mn757 O762 2.121 . S
Mn757 N764 2.257 . S
Mn757 N773 2.282 . S
Mn757 O781 2.215 . S
Mn757 O783 2.117 . S
C758 O780 1.234 . S
C758 O781 1.283 . S
C759 O771 1.281 . S
C759 O772 1.236 . S
C760 O782 1.240 . S
C760 O783 1.264 . S
O761 Mn756 2.095 . S
O761 C770 1.250 . S
O762 Mn757 2.121 . S
O762 C770 1.258 . S
C763 N764 1.326 . S
C763 C767 1.460 . S
C763 H769 0.929 . S
N764 Mn757 2.257 . S
N764 C763 1.326 . S
N764 C768 1.362 . S
C765 C766 1.258 . S
C765 C768 1.431 . S
C765 C785 1.449 . S
C766 C765 1.258 . S
C766 C767 1.477 . S
C766 H786 0.931 . S
C767 C763 1.460 . S
C767 C766 1.477 . S
C767 H787 0.930 . S
C768 N764 1.362 . S
C768 C765 1.431 . S
C768 C778 1.476 . S
H769 C763 0.929 . S
C770 O761 1.250 . S
C770 O762 1.258 . S
O771 Mn756 2.162 . S
O771 C759 1.281 . S
O772 Mn756 2.297 . S
O772 C759 1.236 . S
N773 Mn757 2.282 . S
N773 C774 1.328 . S
N773 C778 1.318 . S
C774 N773 1.328 . S
C774 C775 1.457 . S
C774 H779 0.929 . S
C775 C774 1.457 . S
C775 C776 1.291 . S
C775 H788 0.931 . S
C776 C775 1.291 . S
C776 C777 1.373 . S
C776 H789 0.929 . S
C777 C776 1.373 . S
C777 C778 1.396 . S
C777 C784 1.403 . S
C778 C768 1.476 . S
C778 N773 1.318 . S
C778 C777 1.396 . S
H779 C774 0.929 . S
O780 Mn756 2.385 . S
O780 C758 1.234 . S
O781 Mn756 2.209 . S
O781 Mn757 2.215 . S
O781 C758 1.283 . S
O782 Mn756 2.094 . S
O782 C760 1.240 . S
O783 Mn757 2.117 . S
O783 C760 1.264 . S
C784 C777 1.403 . S
C784 C785 1.399 . S
C784 H790 0.929 . S
C785 C765 1.449 . S
C785 C784 1.399 . S
C785 H791 0.930 . S
H786 C766 0.931 . S
H787 C767 0.930 . S
H788 C775 0.931 . S
H789 C776 0.929 . S
H790 C784 0.929 . S
H791 C785 0.930 . S
Mn792 O797 2.095 . S
Mn792 O807 2.162 . S
Mn792 O808 2.297 . S
Mn792 O816 2.385 1_554 S
Mn792 O817 2.209 . S
Mn792 O818 2.094 . S
Mn793 O798 2.121 . S
Mn793 N800 2.257 . S
Mn793 N809 2.282 . S
Mn793 O817 2.215 . S
Mn793 O819 2.117 . S
C794 O816 1.234 1_554 S
C794 O817 1.283 . S
C795 O807 1.281 . S
C795 O808 1.236 . S
C796 O818 1.240 . S
C796 O819 1.264 . S
O797 Mn792 2.095 . S
O797 C806 1.250 . S
O798 Mn793 2.121 . S
O798 C806 1.258 . S
C799 N800 1.326 . S
C799 C803 1.460 . S
C799 H805 0.929 . S
N800 Mn793 2.257 . S
N800 C799 1.326 . S
N800 C804 1.362 . S
C801 C802 1.258 . S
C801 C804 1.431 . S
C801 C821 1.449 . S
C802 C801 1.258 . S
C802 C803 1.477 . S
C802 H822 0.931 . S
C803 C799 1.460 . S
C803 C802 1.477 . S
C803 H823 0.930 . S
C804 N800 1.362 . S
C804 C801 1.431 . S
C804 C814 1.476 . S
H805 C799 0.929 . S
C806 O797 1.250 . S
C806 O798 1.258 . S
O807 Mn792 2.162 . S
O807 C795 1.281 . S
O808 Mn792 2.297 . S
O808 C795 1.236 . S
N809 Mn793 2.282 . S
N809 C810 1.328 . S
N809 C814 1.318 . S
C810 N809 1.328 . S
C810 C811 1.464 1_554 S
C810 H815 0.929 . S
C811 C810 1.464 1_556 S
C811 C812 1.288 . S
C811 H824 0.926 1_655 S
C812 C811 1.288 . S
C812 C813 1.373 1_556 S
C812 H825 0.929 . S
C813 C812 1.373 1_554 S
C813 C814 1.396 . S
C813 C820 1.403 . S
C814 C804 1.476 . S
C814 N809 1.318 . S
C814 C813 1.396 . S
H815 C810 0.929 . S
O816 Mn792 2.385 1_556 S
O816 C794 1.234 1_556 S
O817 Mn792 2.209 . S
O817 Mn793 2.215 . S
O817 C794 1.283 . S
O818 Mn792 2.094 . S
O818 C796 1.240 . S
O819 Mn793 2.117 . S
O819 C796 1.264 . S
C820 C813 1.403 . S
C820 C821 1.399 . S
C820 H826 0.929 . S
C821 C801 1.449 . S
C821 C820 1.399 . S
C821 H827 0.930 . S
H822 C802 0.931 . S
H823 C803 0.930 . S
H824 C811 0.926 1_455 S
H825 C812 0.929 . S
H826 C820 0.929 . S
H827 C821 0.930 . S
Mn828 O833 2.095 . S
Mn828 O843 2.162 . S
Mn828 O844 2.297 . S
Mn828 O852 2.385 . S
Mn828 O853 2.209 . S
Mn828 O854 2.094 . S
Mn829 O834 2.121 . S
Mn829 N836 2.257 . S
Mn829 N845 2.282 . S
Mn829 O853 2.215 . S
Mn829 O855 2.117 . S
C830 O852 1.234 . S
C830 O853 1.283 . S
C831 O843 1.281 . S
C831 O844 1.236 . S
C832 O854 1.240 . S
C832 O855 1.264 . S
O833 Mn828 2.095 . S
O833 C842 1.250 . S
O834 Mn829 2.121 . S
O834 C842 1.258 . S
C835 N836 1.326 . S
C835 C839 1.460 . S
C835 H841 0.929 . S
N836 Mn829 2.257 . S
N836 C835 1.326 . S
N836 C840 1.362 . S
C837 C838 1.258 . S
C837 C840 1.431 . S
C837 C857 1.449 . S
C838 C837 1.258 . S
C838 C839 1.477 . S
C838 H858 0.931 . S
C839 C835 1.460 . S
C839 C838 1.477 . S
C839 H859 0.930 . S
C840 N836 1.362 . S
C840 C837 1.431 . S
C840 C850 1.476 . S
H841 C835 0.929 . S
C842 O833 1.250 . S
C842 O834 1.258 . S
O843 Mn828 2.162 . S
O843 C831 1.281 . S
O844 Mn828 2.297 . S
O844 C831 1.236 . S
N845 Mn829 2.282 . S
N845 C846 1.328 . S
N845 C850 1.318 . S
C846 N845 1.328 . S
C846 C847 1.456 . S
C846 H851 0.929 . S
C847 C846 1.456 . S
C847 C848 1.298 . S
C847 H860 0.924 1_565 S
C848 C847 1.298 . S
C848 C849 1.373 . S
C848 H861 0.929 . S
C849 C848 1.373 . S
C849 C850 1.396 . S
C849 C856 1.403 . S
C850 C840 1.476 . S
C850 N845 1.318 . S
C850 C849 1.396 . S
H851 C846 0.929 . S
O852 Mn828 2.385 . S
O852 C830 1.234 . S
O853 Mn828 2.209 . S
O853 Mn829 2.215 . S
O853 C830 1.283 . S
O854 Mn828 2.094 . S
O854 C832 1.240 . S
O855 Mn829 2.117 . S
O855 C832 1.264 . S
C856 C849 1.403 . S
C856 C857 1.399 . S
C856 H862 0.929 . S
C857 C837 1.449 . S
C857 C856 1.399 . S
C857 H863 0.930 . S
H858 C838 0.931 . S
H859 C839 0.930 . S
H860 C847 0.924 1_545 S
H861 C848 0.929 . S
H862 C856 0.929 . S
H863 C857 0.930 . S
C14 C554 1.185 . S
C50 C590 1.185 . S
C626 C86 1.185 . S
C446 C122 1.185 . S
C482 C158 1.185 . S
C518 C194 1.185 . S
C770 C230 1.185 . S
C266 C806 1.185 . S
C842 C302 1.185 . S
C338 C662 1.185 . S
C698 C374 1.185 . S
C410 C734 1.185 . S
C363 C3 1.331 1_556 S
C399 C39 1.331 . S
C75 C219 1.331 1_554 S
C111 C255 1.331 . S
C291 C147 1.330 1_556 S
C183 C327 1.331 . S
C795 C435 1.331 1_554 S
C471 C831 1.331 . S
C507 C651 1.331 1_556 S
C687 C543 1.331 . S
C579 C723 1.330 1_556 S
C615 C759 1.331 . S
C4 C652 1.350 . S
C688 C40 1.350 1_455 S
C76 C724 1.350 1_565 S
C112 C760 1.350 . S
C796 C148 1.350 1_655 S
C184 C832 1.350 1_545 S
C220 C436 1.350 . S
C256 C472 1.350 1_655 S
C508 C292 1.350 1_545 S
C544 C328 1.350 . S
C364 C580 1.350 1_455 S
C616 C400 1.350 1_565 S
C218 C2 1.556 1_556 S
C38 C254 1.556 . S
C290 C74 1.556 1_556 S
C326 C110 1.556 . S
C362 C146 1.556 1_556 S
C182 C398 1.556 . S
C650 C434 1.556 1_554 S
C470 C686 1.556 . S
C722 C506 1.556 1_554 S
C758 C542 1.556 . S
C578 C794 1.556 1_556 S
C614 C830 1.556 . S
