# Generated by pormake.
# Topology une, (4)-cn, num edge types: 1
# Building blocks:
#     Node 0, Type 0, BuildingBlock: CEKHIL_clean_sbu_0, # of connection points: 4
#     Node 1, Type 0, BuildingBlock: CEKHIL_clean_sbu_0, # of connection points: 4
#     Node 2, Type 0, BuildingBlock: CEKHIL_clean_sbu_0, # of connection points: 4
#     Node 3, Type 0, BuildingBlock: CEKHIL_clean_sbu_0, # of connection points: 4
#     Node 4, Type 0, BuildingBlock: CEKHIL_clean_sbu_0, # of connection points: 4
#     Node 5, Type 0, BuildingBlock: CEKHIL_clean_sbu_0, # of connection points: 4
#     Node 6, Type 0, BuildingBlock: CEKHIL_clean_sbu_0, # of connection points: 4
#     Node 7, Type 0, BuildingBlock: CEKHIL_clean_sbu_0, # of connection points: 4
#     Node 8, Type 0, BuildingBlock: CEKHIL_clean_sbu_0, # of connection points: 4
#     Node 9, Type 0, BuildingBlock: CEKHIL_clean_sbu_0, # of connection points: 4
#     Node 10, Type 0, BuildingBlock: CEKHIL_clean_sbu_0, # of connection points: 4
#     Node 11, Type 0, BuildingBlock: CEKHIL_clean_sbu_0, # of connection points: 4
#     Node 12, Type 0, BuildingBlock: CEKHIL_clean_sbu_0, # of connection points: 4
#     Node 13, Type 0, BuildingBlock: CEKHIL_clean_sbu_0, # of connection points: 4
#     Node 14, Type 0, BuildingBlock: CEKHIL_clean_sbu_0, # of connection points: 4
#     Node 15, Type 0, BuildingBlock: CEKHIL_clean_sbu_0, # of connection points: 4
#     Node 16, Type 0, BuildingBlock: CEKHIL_clean_sbu_0, # of connection points: 4
#     Node 17, Type 0, BuildingBlock: CEKHIL_clean_sbu_0, # of connection points: 4
#     Edge 18, Type (0, 0), BuildingBlock: KIFKEQ_clean_linker_1, # of connection points: 2
#     Edge 19, Type (0, 0), BuildingBlock: KIFKEQ_clean_linker_1, # of connection points: 2
#     Edge 20, Type (0, 0), BuildingBlock: KIFKEQ_clean_linker_1, # of connection points: 2
#     Edge 21, Type (0, 0), BuildingBlock: KIFKEQ_clean_linker_1, # of connection points: 2
#     Edge 22, Type (0, 0), BuildingBlock: KIFKEQ_clean_linker_1, # of connection points: 2
#     Edge 23, Type (0, 0), BuildingBlock: KIFKEQ_clean_linker_1, # of connection points: 2
#     Edge 24, Type (0, 0), BuildingBlock: KIFKEQ_clean_linker_1, # of connection points: 2
#     Edge 25, Type (0, 0), BuildingBlock: KIFKEQ_clean_linker_1, # of connection points: 2
#     Edge 26, Type (0, 0), BuildingBlock: KIFKEQ_clean_linker_1, # of connection points: 2
#     Edge 27, Type (0, 0), BuildingBlock: KIFKEQ_clean_linker_1, # of connection points: 2
#     Edge 28, Type (0, 0), BuildingBlock: KIFKEQ_clean_linker_1, # of connection points: 2
#     Edge 29, Type (0, 0), BuildingBlock: KIFKEQ_clean_linker_1, # of connection points: 2
#     Edge 30, Type (0, 0), BuildingBlock: KIFKEQ_clean_linker_1, # of connection points: 2
#     Edge 31, Type (0, 0), BuildingBlock: KIFKEQ_clean_linker_1, # of connection points: 2
#     Edge 32, Type (0, 0), BuildingBlock: KIFKEQ_clean_linker_1, # of connection points: 2
#     Edge 33, Type (0, 0), BuildingBlock: KIFKEQ_clean_linker_1, # of connection points: 2
#     Edge 34, Type (0, 0), BuildingBlock: KIFKEQ_clean_linker_1, # of connection points: 2
#     Edge 35, Type (0, 0), BuildingBlock: KIFKEQ_clean_linker_1, # of connection points: 2
#     Edge 36, Type (0, 0), BuildingBlock: KIFKEQ_clean_linker_1, # of connection points: 2
#     Edge 37, Type (0, 0), BuildingBlock: KIFKEQ_clean_linker_1, # of connection points: 2
#     Edge 38, Type (0, 0), BuildingBlock: KIFKEQ_clean_linker_1, # of connection points: 2
#     Edge 39, Type (0, 0), BuildingBlock: KIFKEQ_clean_linker_1, # of connection points: 2
#     Edge 40, Type (0, 0), BuildingBlock: KIFKEQ_clean_linker_1, # of connection points: 2
#     Edge 41, Type (0, 0), BuildingBlock: KIFKEQ_clean_linker_1, # of connection points: 2
#     Edge 42, Type (0, 0), BuildingBlock: KIFKEQ_clean_linker_1, # of connection points: 2
#     Edge 43, Type (0, 0), BuildingBlock: KIFKEQ_clean_linker_1, # of connection points: 2
#     Edge 44, Type (0, 0), BuildingBlock: KIFKEQ_clean_linker_1, # of connection points: 2
#     Edge 45, Type (0, 0), BuildingBlock: KIFKEQ_clean_linker_1, # of connection points: 2
#     Edge 46, Type (0, 0), BuildingBlock: KIFKEQ_clean_linker_1, # of connection points: 2
#     Edge 47, Type (0, 0), BuildingBlock: KIFKEQ_clean_linker_1, # of connection points: 2
#     Edge 48, Type (0, 0), BuildingBlock: KIFKEQ_clean_linker_1, # of connection points: 2
#     Edge 49, Type (0, 0), BuildingBlock: KIFKEQ_clean_linker_1, # of connection points: 2
#     Edge 50, Type (0, 0), BuildingBlock: KIFKEQ_clean_linker_1, # of connection points: 2
#     Edge 51, Type (0, 0), BuildingBlock: KIFKEQ_clean_linker_1, # of connection points: 2
#     Edge 52, Type (0, 0), BuildingBlock: KIFKEQ_clean_linker_1, # of connection points: 2
#     Edge 53, Type (0, 0), BuildingBlock: KIFKEQ_clean_linker_1, # of connection points: 2
# Relax obj value: 0.261
# Max RMSD: 0.176
# Mean RMSD: 0.166
data_MOF--net-une--node1-CEKHIL_clean_sbu_0--edge1-KIFKEQ_clean_linker_1
_symmetry_space_group_name_H-M    P1
_symmetry_Int_Tables_number       1
_symmetry_cell_setting            triclinic
loop_
_symmetry_equiv_pos_as_xyz
'x, y, z'
_cell_length_a     38.765184
_cell_length_b     38.265687
_cell_length_c     52.692707
_cell_angle_alpha  90.150336
_cell_angle_beta   90.547184
_cell_angle_gamma 119.81555
loop_
_atom_site_label
_atom_site_type_symbol
_atom_site_fract_x
_atom_site_fract_y
_atom_site_fract_z
_atom_type_partial_charge
Co0 Co 0.39398 0.08453 0.07314 0.0
O1 O 0.42626 0.05874 0.07681 0.0
O2 O 0.42826 0.09564 0.04415 0.0
C3 C 0.39859 0.1111 0.11256 0.0
O4 O 0.36742 0.11638 0.06224 0.0
Co5 Co 0.31543 0.05573 0.10315 0.0
O6 O 0.31934 0.10612 0.08979 0.0
C7 C 0.31854 0.0054 0.06225 0.0
C8 C 0.43978 0.07213 0.05424 0.0
C9 C 0.34188 0.12506 0.07132 0.0
O10 O 0.35202 0.03475 0.0551 0.0
O11 O 0.301 0.00638 0.08245 0.0
O12 O 0.4276 0.12946 0.09656 0.0
O13 O 0.37205 0.07526 0.10568 0.0
Co14 Co 0.91276 0.30321 0.0675 0.0
O15 O 0.8755 0.28982 0.09529 0.0
O16 O 0.92386 0.27519 0.09401 0.0
C17 C 0.92929 0.36793 0.05937 0.0
O18 O 0.95725 0.31148 0.04379 0.0
Co19 Co 0.89646 0.32302 0.01289 0.0
O20 O 0.95251 0.33782 1.00675 0.0
C21 C 0.85304 0.23965 0.03111 0.0
C22 C 0.89286 0.27154 0.10562 0.0
C23 C 0.97121 0.32728 0.02208 0.0
O24 O 0.87473 0.24986 0.05131 0.0
O25 O 0.85542 0.26462 0.01418 0.0
O26 O 0.94581 0.35967 0.07836 0.0
O27 O 0.89985 0.33702 0.04865 0.0
Co28 Co 0.70406 0.61746 0.07196 0.0
O29 O 0.64733 0.59274 0.07793 0.0
O30 O 0.67396 0.57583 0.04673 0.0
C31 C 0.72798 0.62009 0.11196 0.0
O32 O 0.7599 0.63478 0.05955 0.0
Co33 Co 0.76356 0.70248 0.09433 0.0
O34 O 0.80431 0.69113 0.08038 0.0
C35 C 0.71062 0.69535 0.05205 0.0
C36 C 0.642 0.57176 0.05728 0.0
C37 C 0.79586 0.66206 0.06505 0.0
O38 O 0.69986 0.65786 0.04953 0.0
O39 O 0.73358 0.71775 0.06993 0.0
O40 O 0.71246 0.58658 0.09888 0.0
O41 O 0.72279 0.64793 0.10206 0.0
Co42 Co 0.60018 0.91511 0.93951 0.0
O43 O 0.5824 0.88171 0.90877 0.0
O44 O 0.64411 0.92926 0.91704 0.0
C45 C 0.5533 0.93348 0.94512 0.0
O46 O 0.63103 0.95603 0.96693 0.0
Co47 Co 0.55402 0.8903 0.99028 0.0
O48 O 0.59609 0.94412 1.00286 0.0
C49 C 0.59355 0.84685 0.97264 0.0
C50 C 0.61974 0.90007 0.90223 0.0
C51 C 0.62658 0.96566 0.9895 0.0
O52 O 0.61128 0.87408 0.95579 0.0
O53 O 0.56626 0.84546 0.98677 0.0
O54 O 0.58071 0.95121 0.92805 0.0
O55 O 0.55105 0.9012 0.95444 0.0
Co56 Co 0.08768 0.68407 0.94323 0.0
O57 O 0.12241 0.69711 0.91405 0.0
O58 O 0.07713 0.71552 0.91888 0.0
C59 C 0.06819 0.6178 0.94915 0.0
O60 O 0.0464 0.67745 0.96911 0.0
Co61 Co 0.10561 0.65813 0.99557 0.0
O62 O 0.05111 0.64668 1.00418 0.0
C63 C 0.15527 0.74109 0.97771 0.0
C64 C 0.1063 0.71783 0.90569 0.0
C65 C 0.03327 0.66057 0.99067 0.0
O66 O 0.1294 0.73522 0.96028 0.0
O67 O 0.15307 0.71293 0.99185 0.0
O68 O 0.05108 0.62808 0.93154 0.0
O69 O 0.09912 0.64749 0.95943 0.0
Co70 Co 0.31415 0.39567 0.9501 0.0
O71 O 0.30095 0.41569 0.91951 0.0
O72 O 0.28438 0.35237 0.92618 0.0
C73 C 0.37936 0.44279 0.95702 0.0
O74 O 0.32126 0.3621 0.97706 0.0
Co75 Co 0.33646 0.4406 1.00215 0.0
O76 O 0.34638 0.39682 0.01337 0.0
C77 C 0.25373 0.40185 0.98396 0.0
C78 C 0.28151 0.37824 0.91176 0.0
C79 C 0.33517 0.3654 0.99971 0.0
O80 O 0.26241 0.38553 0.96554 0.0
O81 O 0.2798 0.4274 0.99938 0.0
O82 O 0.36959 0.41498 0.93964 0.0
O83 O 0.34967 0.44464 0.96641 0.0
Co84 Co 0.06465 0.41948 0.40881 0.0
O85 O 0.0954 0.39197 0.41227 0.0
O86 O 0.09993 0.43107 0.3803 0.0
C87 C 0.06857 0.44452 0.44859 0.0
O88 O 0.04025 0.45363 0.3983 0.0
Co89 Co 0.98533 0.39156 0.4378 0.0
O90 O 0.98966 0.44179 0.4241 0.0
C91 C 0.98644 0.34401 0.39442 0.0
C92 C 0.11019 0.4064 0.3901 0.0
C93 C 0.0138 0.46169 0.40653 0.0
O94 O 0.02237 0.37119 0.38958 0.0
O95 O 0.96751 0.34515 0.41385 0.0
O96 O 0.09834 0.46281 0.43312 0.0
O97 O 0.04153 0.40926 0.44106 0.0
Co98 Co 0.58082 0.6397 0.40252 0.0
O99 O 0.54358 0.62607 0.43033 0.0
O100 O 0.59151 0.61085 0.42866 0.0
C101 C 0.59789 0.70464 0.39489 0.0
O102 O 0.62526 0.64816 0.37872 0.0
Co103 Co 0.56422 0.66016 0.34826 0.0
O104 O 0.62034 0.67501 0.34193 0.0
C105 C 0.51833 0.57739 0.36696 0.0
C106 C 0.56057 0.60722 0.44036 0.0
C107 C 0.63924 0.66447 0.35713 0.0
O108 O 0.54236 0.58681 0.38599 0.0
O109 O 0.52011 0.60303 0.35073 0.0
O110 O 0.6143 0.69595 0.41375 0.0
O111 O 0.56827 0.67402 0.38409 0.0
Co112 Co 0.36846 0.94566 0.40617 0.0
O113 O 0.31127 0.91763 0.41173 0.0
O114 O 0.34051 0.90525 0.38001 0.0
C115 C 0.39239 0.94753 0.44608 0.0
O116 O 0.42501 0.966 0.394 0.0
Co117 Co 0.42514 0.03027 0.43 0.0
O118 O 0.46764 0.02143 0.41627 0.0
C119 C 0.37265 0.02323 0.38745 0.0
C120 C 0.30754 0.89834 0.39054 0.0
C121 C 0.46049 0.9935 0.40029 0.0
O122 O 0.36245 0.98593 0.38464 0.0
O123 O 0.39528 0.04549 0.4055 0.0
O124 O 0.37835 0.91475 0.43234 0.0
O125 O 0.38567 0.97479 0.43687 0.0
Co126 Co 0.27373 0.25098 0.27514 0.0
O127 O 0.25549 0.22063 0.24321 0.0
O128 O 0.31789 0.26449 0.25302 0.0
C129 C 0.22918 0.2725 0.28137 0.0
O130 O 0.30569 0.28817 0.3039 0.0
Co131 Co 0.22617 0.22617 0.32537 0.0
O132 O 0.26929 0.27902 0.33866 0.0
C133 C 0.26221 0.17941 0.30675 0.0
C134 C 0.29299 0.23763 0.23717 0.0
C135 C 0.3015 0.29834 0.32638 0.0
O136 O 0.2807 0.20634 0.28984 0.0
O137 O 0.2362 0.17981 0.32134 0.0
O138 O 0.25788 0.29069 0.26516 0.0
O139 O 0.22486 0.23889 0.28976 0.0
Co140 Co 0.75242 0.01992 0.27756 0.0
O141 O 0.78524 0.03243 0.24736 0.0
O142 O 0.73954 0.04986 0.25357 0.0
C143 C 0.73446 0.95433 0.28439 0.0
O144 O 0.7125 0.0135 0.30433 0.0
Co145 Co 0.77509 0.99817 0.32967 0.0
O146 O 0.72078 0.98589 0.33979 0.0
C147 C 0.82087 0.08049 0.31044 0.0
C148 C 0.76807 0.05247 0.23956 0.0
C149 C 0.70128 0.99806 0.32642 0.0
O150 O 0.79394 0.07224 0.29336 0.0
O151 O 0.82098 0.05396 0.32512 0.0
O152 O 0.71616 0.96345 0.26696 0.0
O153 O 0.76583 0.98473 0.29382 0.0
Co154 Co 0.97934 0.72687 0.28509 0.0
O155 O 0.96774 0.74698 0.254 0.0
O156 O 0.94695 0.68302 0.26209 0.0
C157 C 0.04551 0.77096 0.2909 0.0
O158 O 0.98421 0.69322 0.31298 0.0
Co159 Co 1.00564 0.77491 0.33599 0.0
O160 O 0.01727 0.73193 0.34667 0.0
C161 C 0.92208 0.7383 0.3191 0.0
C162 C 0.94608 0.70934 0.24703 0.0
C163 C 1.00184 0.69856 0.33457 0.0
O164 O 0.92937 0.7212 0.30049 0.0
O165 O 0.94905 0.76298 0.33447 0.0
O166 O 0.03352 0.7416 0.27441 0.0
O167 O 0.01752 0.77592 0.30017 0.0
Co168 Co 0.72921 0.75142 0.74003 0.0
O169 O 0.7596 0.72364 0.74406 0.0
O170 O 0.76694 0.76489 0.71278 0.0
C171 C 0.7297 0.77389 0.78013 0.0
O172 O 0.70581 0.78637 0.72922 0.0
Co173 Co 0.64738 0.72175 0.76615 0.0
O174 O 0.65357 0.77338 0.75373 0.0
C175 C 0.65223 0.67723 0.72222 0.0
C176 C 0.77631 0.73953 0.72255 0.0
C177 C 0.67908 0.7943 0.73705 0.0
O178 O 0.68872 0.70438 0.71902 0.0
O179 O 0.63134 0.67733 0.74081 0.0
O180 O 0.76076 0.79307 0.76576 0.0
O181 O 0.70323 0.73914 0.77143 0.0
Co182 Co 0.25098 0.97252 0.7356 0.0
O183 O 0.21382 0.95762 0.76374 0.0
O184 O 0.26437 0.94639 0.76204 0.0
C185 C 0.26371 0.03596 0.72658 0.0
O186 O 0.29615 0.98293 0.71189 0.0
Co187 Co 0.23232 0.98869 0.68072 0.0
O188 O 0.28907 0.00631 0.6743 0.0
C189 C 0.19071 0.90657 0.70079 0.0
C190 C 0.23273 0.94069 0.7738 0.0
C191 C 0.30933 0.99825 0.68997 0.0
O192 O 0.2148 0.91809 0.71989 0.0
O193 O 0.19084 0.9307 0.68399 0.0
O194 O 0.2814 0.02983 0.74586 0.0
O195 O 0.23543 0.00364 0.71631 0.0
Co196 Co 0.03742 0.2801 0.73803 0.0
O197 O 0.98016 0.25019 0.74318 0.0
O198 O 0.01067 0.24131 0.71078 0.0
C199 C 0.06076 0.27986 0.77786 0.0
O200 O 0.09442 0.30309 0.72614 0.0
Co201 Co 0.09169 0.36324 0.76438 0.0
O202 O 0.13517 0.35476 0.75175 0.0
C203 C 0.03528 0.35578 0.72435 0.0
C204 C 0.97724 0.23262 0.72142 0.0
C205 C 0.12938 0.32908 0.73435 0.0
O206 O 0.03046 0.32114 0.71807 0.0
O207 O 0.05537 0.37565 0.74389 0.0
O208 O 0.04813 0.24822 0.76316 0.0
O209 O 0.05321 0.30694 0.76946 0.0
Co210 Co 0.94328 0.58531 0.61023 0.0
O211 O 0.92594 0.55661 0.57771 0.0
O212 O 0.9883 0.5977 0.5892 0.0
C213 C 0.90038 0.6093 0.61543 0.0
O214 O 0.97467 0.62048 0.6399 0.0
Co215 Co 0.89276 0.56179 0.65932 0.0
O216 O 0.93713 0.61279 0.67384 0.0
C217 C 0.9255 0.51143 0.64125 0.0
C218 C 0.96366 0.57233 0.57258 0.0
C219 C 0.9702 0.63059 0.66233 0.0
O220 O 0.94644 0.53833 0.62483 0.0
O221 O 0.89957 0.51351 0.65506 0.0
O222 O 0.9305 0.62737 0.60021 0.0
O223 O 0.89422 0.57496 0.62362 0.0
Co224 Co 0.41799 0.35232 0.61017 0.0
O225 O 0.44894 0.36389 0.57918 0.0
O226 O 0.40587 0.38417 0.5873 0.0
C227 C 0.39691 0.28603 0.6162 0.0
O228 O 0.38009 0.34714 0.63802 0.0
Co229 Co 0.44232 0.32868 0.6609 0.0
O230 O 0.39029 0.32034 0.67321 0.0
C231 C 0.48921 0.41114 0.64225 0.0
C232 C 0.43297 0.38553 0.5724 0.0
C233 C 0.37032 0.33265 0.66046 0.0
O234 O 0.46187 0.40354 0.62561 0.0
O235 O 0.48899 0.38416 0.65664 0.0
O236 O 0.37902 0.29696 0.59956 0.0
O237 O 0.42986 0.31499 0.62519 0.0
Co238 Co 0.64892 0.06159 0.61635 0.0
O239 O 0.63669 0.08079 0.58506 0.0
O240 O 0.61607 0.01711 0.59389 0.0
C241 C 0.71525 0.10563 0.62166 0.0
O242 O 0.65416 0.02863 0.64451 0.0
Co243 Co 0.6762 0.11075 0.66681 0.0
O244 O 0.68751 0.06773 0.67799 0.0
C245 C 0.59241 0.07415 0.65042 0.0
C246 C 0.61486 0.04294 0.57856 0.0
C247 C 0.67184 0.03418 0.66609 0.0
O248 O 0.59928 0.05647 0.63196 0.0
O249 O 0.61969 0.09916 0.66549 0.0
O250 O 0.70289 0.0759 0.60542 0.0
O251 O 0.68747 0.11095 0.63094 0.0
H252 H 0.46164 0.01645 0.06806 0.0
H253 H 0.46657 0.09109 1.00541 0.0
H254 H 0.48961 0.98473 0.0413 0.0
H255 H 0.49361 0.05881 0.97845 0.0
H256 H 0.57202 0.01303 0.94174 0.0
H257 H 0.54829 0.04892 0.9685 0.0
H258 H 0.47071 0.938 1.00703 0.0
H259 H 0.49498 0.9026 0.98069 0.0
C260 C 0.46908 0.02646 0.04866 0.0
C261 C 0.4618 0.05648 0.03903 0.0
C262 C 0.48473 0.00786 0.03312 0.0
C263 C 0.49356 0.01861 1.00741 0.0
C264 C 0.48758 0.04971 0.99809 0.0
C265 C 0.47194 0.06829 0.01363 0.0
C266 C 0.54946 0.9962 0.95566 0.0
C267 C 0.53533 0.95477 0.95888 0.0
C268 C 0.53585 0.01685 0.97114 0.0
C269 C 0.50771 0.99668 0.99032 0.0
C270 C 0.49297 0.955 0.99299 0.0
C271 C 0.50658 0.93447 0.97759 0.0
H272 H 0.8958 0.4042 0.03218 0.0
H273 H 0.00917 0.41713 0.05335 0.0
H274 H 0.92876 0.4628 1.0048 0.0
H275 H 0.04227 0.47333 0.02453 0.0
H276 H 0.09866 0.59472 0.98791 0.0
H277 H 0.06532 0.53769 0.01531 0.0
H278 H 0.95964 0.49126 0.96786 0.0
H279 H 0.9927 0.55151 0.94155 0.0
C280 C 0.92794 0.41991 0.03108 0.0
C281 C 0.94994 0.40665 0.04543 0.0
C282 C 0.94698 0.45321 0.01494 0.0
C283 C 0.98863 0.47356 1.01198 0.0
C284 C 0.01044 0.45987 0.02648 0.0
C285 C 0.99145 0.42737 0.04319 0.0
C286 C 0.06824 0.57245 0.98318 0.0
C287 C 0.04838 0.57822 0.96252 0.0
C288 C 0.04898 0.539 0.99894 0.0
C289 C 0.00928 0.50898 0.99426 0.0
C290 C 0.98983 0.5138 0.97276 0.0
C291 C 0.009 0.54814 0.95725 0.0
H292 H 0.44905 0.44372 0.94411 0.0
H293 H 0.40009 0.48827 1.00035 0.0
H294 H 0.51202 0.47438 0.96777 0.0
H295 H 0.4603 0.51487 0.02514 0.0
H296 H 0.58236 0.58962 0.05872 0.0
H297 H 0.52217 0.56158 0.03321 0.0
H298 H 0.55109 0.47565 1.00029 0.0
H299 H 0.61345 0.50682 0.02452 0.0
C300 C 0.45158 0.45984 0.96158 0.0
C301 C 0.41915 0.46328 0.9702 0.0
C302 C 0.48771 0.47709 0.97551 0.0
C303 C 0.49224 0.49753 0.99883 0.0
C304 C 0.45943 0.50068 1.0072 0.0
C305 C 0.42405 0.48463 0.99297 0.0
C306 C 0.57559 0.56437 0.04627 0.0
C307 C 0.60256 0.55016 0.04399 0.0
C308 C 0.54061 0.54788 0.0315 0.0
C309 C 0.5305 0.51553 0.01442 0.0
C310 C 0.55741 0.50081 0.01264 0.0
C311 C 0.59315 0.51829 0.02689 0.0
H312 H 0.13051 0.34938 0.40343 0.0
H313 H 0.13971 0.42775 0.34199 0.0
H314 H 0.15995 0.319 0.3768 0.0
H315 H 0.16827 0.39682 0.31514 0.0
H316 H 0.24891 0.35259 0.27948 0.0
H317 H 0.22364 0.38725 0.30618 0.0
H318 H 0.14297 0.27428 0.34154 0.0
H319 H 0.16863 0.24014 0.31531 0.0
C320 C 0.13916 0.36046 0.38433 0.0
C321 C 0.13268 0.39117 0.375 0.0
C322 C 0.15569 0.34266 0.36886 0.0
C323 C 0.16623 0.3549 0.3435 0.0
C324 C 0.16095 0.38659 0.3345 0.0
C325 C 0.14441 0.40438 0.34997 0.0
C326 C 0.22542 0.33511 0.29272 0.0
C327 C 0.21083 0.29345 0.29511 0.0
C328 C 0.2109 0.35501 0.30814 0.0
C329 C 0.1814 0.33386 0.32643 0.0
C330 C 0.16625 0.29201 0.32824 0.0
C331 C 0.18072 0.27222 0.31289 0.0
H332 H 0.5642 0.74045 0.36758 0.0
H333 H 0.67792 0.75505 0.38967 0.0
H334 H 0.59693 0.79926 0.34042 0.0
H335 H 0.71092 0.81185 0.36114 0.0
H336 H 0.76541 0.93368 0.32432 0.0
H337 H 0.73277 0.87655 0.35192 0.0
H338 H 0.6282 0.82667 0.30329 0.0
H339 H 0.66036 0.88658 0.27671 0.0
C340 C 0.59637 0.75658 0.36674 0.0
C341 C 0.61849 0.74364 0.38123 0.0
C342 C 0.61528 0.79001 0.35073 0.0
C343 C 0.65698 0.81091 0.34807 0.0
C344 C 0.67899 0.79775 0.36282 0.0
C345 C 0.66007 0.76498 0.37936 0.0
C346 C 0.73539 0.91063 0.3194 0.0
C347 C 0.71548 0.91523 0.29831 0.0
C348 C 0.71657 0.8772 0.33528 0.0
C349 C 0.67735 0.84626 0.33031 0.0
C350 C 0.65797 0.85 0.30842 0.0
C351 C 0.67664 0.88417 0.29279 0.0
H352 H 0.10373 0.74955 0.28763 0.0
H353 H 0.07776 0.83512 0.32354 0.0
H354 H 0.16569 0.77674 0.31235 0.0
H355 H 0.13978 0.863 0.34764 0.0
H356 H 0.23345 0.88181 0.40624 0.0
H357 H 0.17118 0.85013 0.38195 0.0
H358 H 0.231 0.83172 0.31894 0.0
H359 H 0.29283 0.86225 0.34357 0.0
C360 C 0.11154 0.77462 0.30046 0.0
C361 C 0.08565 0.79014 0.30348 0.0
C362 C 0.14717 0.79029 0.31473 0.0
C363 C 0.15801 0.82201 0.33239 0.0
C364 C 0.13239 0.83803 0.33482 0.0
C365 C 0.09684 0.8223 0.32069 0.0
C366 C 0.23321 0.87044 0.38736 0.0
C367 C 0.26836 0.87461 0.37699 0.0
C368 C 0.19746 0.85263 0.37321 0.0
C369 C 0.19571 0.83859 0.34815 0.0
C370 C 0.2307 0.84168 0.33814 0.0
C371 C 0.26639 0.85936 0.35233 0.0
H372 H 0.92313 0.69044 0.61557 0.0
H373 H 0.83604 0.57608 0.64623 0.0
H374 H 0.89675 0.72448 0.64201 0.0
H375 H 0.8095 0.6096 0.67218 0.0
H376 H 0.79406 0.6805 0.73531 0.0
H377 H 0.82506 0.6514 0.70899 0.0
H378 H 0.84119 0.73526 0.6494 0.0
H379 H 0.81093 0.76484 0.67597 0.0
C380 C 0.89797 0.67247 0.62759 0.0
C381 C 0.88177 0.63043 0.62866 0.0
C382 C 0.88283 0.692 0.64286 0.0
C383 C 0.85118 0.67003 0.65969 0.0
C384 C 0.83444 0.62788 0.66008 0.0
C385 C 0.84946 0.60849 0.64488 0.0
C386 C 0.80476 0.69319 0.71676 0.0
C387 C 0.7999 0.72513 0.7079 0.0
C388 C 0.82221 0.67615 0.70146 0.0
C389 C 0.83534 0.69044 0.67674 0.0
C390 C 0.8318 0.72343 0.66828 0.0
C391 C 0.8143 0.74043 0.68358 0.0
H392 H 0.31654 0.23437 0.62089 0.0
H393 H 0.43065 0.25091 0.64417 0.0
H394 H 0.28366 0.17676 0.6491 0.0
H395 H 0.3981 0.19224 0.67143 0.0
H396 H 0.33395 0.10712 0.73602 0.0
H397 H 0.3649 0.16702 0.70932 0.0
H398 H 0.26498 0.11065 0.65708 0.0
H399 H 0.23352 0.0525 0.68437 0.0
C400 C 0.33457 0.22499 0.63151 0.0
C401 C 0.37623 0.24705 0.63002 0.0
C402 C 0.31572 0.19185 0.64784 0.0
C403 C 0.33797 0.17943 0.66295 0.0
C404 C 0.37968 0.20104 0.66076 0.0
C405 C 0.39846 0.23446 0.64475 0.0
C406 C 0.31834 0.10795 0.71908 0.0
C407 C 0.28122 0.0748 0.71243 0.0
C408 C 0.33635 0.14214 0.70346 0.0
C409 C 0.31791 0.14401 0.6806 0.0
C410 C 0.28024 0.11112 0.67449 0.0
C411 C 0.26216 0.07734 0.6902 0.0
H412 H 0.77379 0.08466 0.61775 0.0
H413 H 0.74756 0.16937 0.65464 0.0
H414 H 0.836 0.11182 0.64227 0.0
H415 H 0.80966 0.19701 0.67864 0.0
H416 H 0.90267 0.21397 0.73726 0.0
H417 H 0.84059 0.18247 0.71279 0.0
H418 H 0.90158 0.16786 0.64902 0.0
H419 H 0.96341 0.19848 0.67378 0.0
C420 C 0.78156 0.10951 0.63076 0.0
C421 C 0.75552 0.12479 0.63411 0.0
C422 C 0.81732 0.12514 0.64492 0.0
C423 C 0.82806 0.1565 0.66285 0.0
C424 C 0.80232 0.17231 0.66559 0.0
C425 C 0.76671 0.15669 0.65154 0.0
C426 C 0.90277 0.20351 0.71816 0.0
C427 C 0.93826 0.20883 0.70762 0.0
C428 C 0.86711 0.18578 0.70392 0.0
C429 C 0.86574 0.1729 0.67861 0.0
C430 C 0.90104 0.17701 0.66841 0.0
C431 C 0.93671 0.19471 0.68267 0.0
H432 H 0.42807 0.19304 0.11887 0.0
H433 H 0.34418 0.0777 0.14996 0.0
H434 H 0.40199 0.22581 0.14667 0.0
H435 H 0.31851 0.11011 0.17773 0.0
H436 H 0.36917 0.27134 0.21998 0.0
H437 H 0.39654 0.24294 0.19022 0.0
H438 H 0.27879 0.14242 0.17616 0.0
H439 H 0.25147 0.17064 0.20642 0.0
C440 C 0.40474 0.17477 0.13202 0.0
C441 C 0.38846 0.1327 0.13223 0.0
C442 C 0.38952 0.19352 0.14789 0.0
C443 C 0.35754 0.17066 0.1643 0.0
C444 C 0.34237 0.12877 0.165 0.0
C445 C 0.35754 0.11016 0.14926 0.0
C446 C 0.34892 0.24346 0.21027 0.0
C447 C 0.30799 0.22331 0.21573 0.0
C448 C 0.36472 0.22715 0.19308 0.0
C449 C 0.34015 0.19 0.18087 0.0
C450 C 0.2989 0.17068 0.18553 0.0
C451 C 0.28305 0.18711 0.20268 0.0
H452 H 0.92858 0.24038 0.1359 0.0
H453 H 0.81639 0.23582 0.12309 0.0
H454 H 0.89798 0.18741 0.16741 0.0
H455 H 0.78503 0.18143 0.15364 0.0
H456 H 0.74568 0.10713 0.22587 0.0
H457 H 0.77603 0.16101 0.19525 0.0
H458 H 0.85658 0.11892 0.17373 0.0
H459 H 0.82718 0.06599 0.20556 0.0
C460 C 0.89733 0.22819 0.13993 0.0
C461 C 0.8751 0.24275 0.12708 0.0
C462 C 0.87951 0.19722 0.15782 0.0
C463 C 0.83863 0.17926 0.16317 0.0
C464 C 0.81662 0.1945 0.15055 0.0
C465 C 0.83463 0.22591 0.13293 0.0
C466 C 0.76961 0.10901 0.21444 0.0
C467 C 0.78379 0.08191 0.21824 0.0
C468 C 0.7871 0.1401 0.19667 0.0
C469 C 0.81917 0.145 0.18176 0.0
C470 C 0.83261 0.11705 0.18507 0.0
C471 C 0.81536 0.08616 0.20315 0.0
H472 H 0.93268 0.75605 0.21296 0.0
H473 H 0.89336 0.63229 0.23186 0.0
H474 H 0.88067 0.73346 0.18026 0.0
H475 H 0.84068 0.60969 0.2 0.0
H476 H 0.76706 0.57937 0.12615 0.0
H477 H 0.82181 0.60111 0.15685 0.0
H478 H 0.81154 0.7056 0.17545 0.0
H479 H 0.75799 0.68446 0.14429 0.0
C480 C 0.91317 0.72402 0.21003 0.0
C481 C 0.91745 0.69611 0.22509 0.0
C482 C 0.8829 0.71094 0.19143 0.0
C483 C 0.85579 0.66954 0.18744 0.0
C484 C 0.86094 0.64172 0.20211 0.0
C485 C 0.89128 0.65479 0.22056 0.0
C486 C 0.77622 0.60671 0.13704 0.0
C487 C 0.75794 0.63004 0.13277 0.0
C488 C 0.80776 0.61932 0.15469 0.0
C489 C 0.82177 0.65552 0.16869 0.0
C490 C 0.80258 0.67815 0.16476 0.0
C491 C 0.77137 0.66571 0.14704 0.0
H492 H 0.69661 0.93277 0.88653 0.0
H493 H 0.57907 0.83253 0.87174 0.0
H494 H 0.72474 0.90381 0.85792 0.0
H495 H 0.60711 0.80391 0.84236 0.0
H496 H 0.67138 0.73885 0.81521 0.0
H497 H 0.64488 0.77066 0.84287 0.0
H498 H 0.73321 0.88754 0.81579 0.0
H499 H 0.76033 0.8554 0.78848 0.0
C500 C 0.67655 0.90486 0.87678 0.0
C501 C 0.63542 0.88505 0.88156 0.0
C502 C 0.69281 0.8882 0.86022 0.0
C503 C 0.6685 0.85111 0.84783 0.0
C504 C 0.62709 0.83206 0.85188 0.0
C505 C 0.61081 0.84874 0.86852 0.0
C506 C 0.68561 0.77142 0.81544 0.0
C507 C 0.71829 0.7945 0.79973 0.0
C508 C 0.66998 0.78973 0.83109 0.0
C509 C 0.68631 0.83185 0.83149 0.0
C510 C 0.71984 0.85509 0.81628 0.0
C511 C 0.73563 0.83667 0.80065 0.0
H512 H 0.18221 0.75351 0.88759 0.0
H513 H 0.07066 0.75112 0.87711 0.0
H514 H 0.21355 0.80887 0.85789 0.0
H515 H 0.101 0.80476 0.846 0.0
H516 H 0.17123 0.92525 0.80642 0.0
H517 H 0.14124 0.87182 0.83793 0.0
H518 H 0.224 0.83179 0.81774 0.0
H519 H 0.25512 0.88642 0.78791 0.0
C520 C 0.16405 0.76409 0.87836 0.0
C521 C 0.1238 0.74751 0.88464 0.0
C522 C 0.18206 0.79607 0.86115 0.0
C523 C 0.1602 0.81207 0.84916 0.0
C524 C 0.11948 0.79445 0.85502 0.0
C525 C 0.10174 0.76304 0.87267 0.0
C526 C 0.18337 0.90541 0.80912 0.0
C527 C 0.21596 0.91064 0.79476 0.0
C528 C 0.16579 0.87418 0.82701 0.0
C529 C 0.17972 0.84665 0.83069 0.0
C530 C 0.21254 0.85236 0.81626 0.0
C531 C 0.23051 0.88393 0.79887 0.0
H532 H 0.23507 0.3011 0.89426 0.0
H533 H 0.26175 0.42293 0.87989 0.0
H534 H 0.18193 0.27603 0.86257 0.0
H535 H 0.20918 0.39797 0.84742 0.0
H536 H 0.08458 0.33974 0.81309 0.0
H537 H 0.13911 0.3634 0.84368 0.0
H538 H 0.16252 0.2694 0.81922 0.0
H539 H 0.10689 0.2451 0.78889 0.0
C540 C 0.23013 0.32273 0.88399 0.0
C541 C 0.25289 0.36418 0.88976 0.0
C542 C 0.19953 0.30824 0.86564 0.0
C543 C 0.19061 0.3347 0.85236 0.0
C544 C 0.21437 0.37638 0.85752 0.0
C545 C 0.24497 0.39088 0.87599 0.0
C546 C 0.10102 0.32374 0.81442 0.0
C547 C 0.09102 0.29027 0.79858 0.0
C548 C 0.13281 0.33771 0.83182 0.0
C549 C 0.156 0.31887 0.83392 0.0
C550 C 0.14537 0.28469 0.81844 0.0
C551 C 0.1133 0.27055 0.80103 0.0
H552 H 0.01283 0.41127 0.48525 0.0
H553 H 0.09972 0.52655 0.4556 0.0
H554 H 0.98754 0.44421 0.51289 0.0
H555 H 0.07402 0.55986 0.48325 0.0
H556 H 0.04033 0.60494 0.55649 0.0
H557 H 0.06763 0.57626 0.52687 0.0
H558 H 0.94929 0.47815 0.5108 0.0
H559 H 0.92201 0.50666 0.54087 0.0
C560 C 0.02692 0.44381 0.48485 0.0
C561 C 0.05855 0.46619 0.46826 0.0
C562 C 0.01198 0.46273 0.50051 0.0
C563 C 0.02811 0.50478 0.50015 0.0
C564 C 0.0608 0.52744 0.48419 0.0
C565 C 0.0758 0.50838 0.46842 0.0
C566 C 0.01996 0.57754 0.54637 0.0
C567 C 0.97885 0.55811 0.55121 0.0
C568 C 0.03572 0.56108 0.52927 0.0
C569 C 0.01091 0.52447 0.51656 0.0
C570 C 0.96954 0.50595 0.52057 0.0
C571 C 0.95374 0.52256 0.53761 0.0
H572 H 0.59485 0.57303 0.46926 0.0
H573 H 0.48454 0.57322 0.45848 0.0
H574 H 0.56338 0.51927 0.50018 0.0
H575 H 0.45229 0.51815 0.4885 0.0
H576 H 0.41303 0.44265 0.56041 0.0
H577 H 0.444 0.49698 0.53011 0.0
H578 H 0.5199 0.45074 0.50565 0.0
H579 H 0.48988 0.39724 0.53709 0.0
C580 C 0.56385 0.56174 0.47361 0.0
C581 C 0.54241 0.57785 0.4615 0.0
C582 C 0.5455 0.53033 0.49116 0.0
C583 C 0.50488 0.51352 0.49693 0.0
C584 C 0.48367 0.53029 0.48505 0.0
C585 C 0.5022 0.56209 0.46774 0.0
C586 C 0.43604 0.44371 0.5484 0.0
C587 C 0.44878 0.41527 0.55125 0.0
C588 C 0.45388 0.47505 0.53082 0.0
C589 C 0.48488 0.47892 0.51521 0.0
C590 C 0.49681 0.44965 0.51756 0.0
C591 C 0.47919 0.41846 0.53542 0.0
H592 H 0.56368 0.96541 0.56351 0.0
H593 H 0.59865 0.08831 0.54498 0.0
H594 H 0.51002 0.94127 0.53224 0.0
H595 H 0.54554 0.06417 0.51292 0.0
H596 H 0.42091 0.01109 0.47901 0.0
H597 H 0.47565 0.03382 0.50941 0.0
H598 H 0.49025 0.93253 0.48902 0.0
H599 H 0.43444 0.90923 0.45898 0.0
C600 C 0.56043 0.98741 0.55242 0.0
C601 C 0.5857 0.02894 0.55688 0.0
C602 C 0.52952 0.97345 0.53431 0.0
C603 C 0.52283 1.00055 0.51997 0.0
C604 C 0.54901 0.04218 0.52386 0.0
C605 C 0.57991 0.05616 0.54208 0.0
C606 C 0.43548 0.99335 0.48119 0.0
C607 C 0.42298 0.95813 0.46659 0.0
C608 C 0.46738 0.00674 0.49847 0.0
C609 C 0.48812 0.9855 0.50167 0.0
C610 C 0.47501 0.94968 0.4874 0.0
C611 C 0.44285 0.93616 0.47014 0.0
H612 H 0.26757 0.92985 0.07816 0.0
H613 H 0.326 0.99772 1.01113 0.0
H614 H 0.2347 0.86836 0.05276 0.0
H615 H 0.292 0.93553 0.9855 0.0
H616 H 0.16279 0.81256 0.96098 0.0
H617 H 0.20888 0.87997 0.9779 0.0
H618 H 0.26569 0.83023 0.02454 0.0
H619 H 0.22048 0.76334 1.00776 0.0
C620 C 0.27328 0.93163 0.05798 0.0
C621 C 0.29926 0.9685 0.04659 0.0
C622 C 0.25467 0.89646 0.04352 0.0
C623 C 0.26115 0.89752 0.01733 0.0
C624 C 0.28678 0.93427 1.00572 0.0
C625 C 0.30618 0.96958 0.02036 0.0
C626 C 0.18578 0.81618 0.97433 0.0
C627 C 0.18732 0.78249 0.98354 0.0
C628 C 0.21217 0.8547 0.98387 0.0
C629 C 0.24023 0.85977 1.00265 0.0
C630 C 0.24394 0.82674 1.0102 0.0
C631 C 0.21788 0.78849 1.00066 0.0
H632 H 0.00951 0.35458 0.97678 0.0
H633 H 0.02365 0.31681 0.05162 0.0
H634 H 0.07711 0.37061 0.9665 0.0
H635 H 0.09088 0.33268 0.04119 0.0
H636 H 0.22259 0.41805 0.02554 0.0
H637 H 0.15354 0.39754 0.03348 0.0
H638 H 0.11964 0.33744 0.96054 0.0
H639 H 0.18929 0.35815 0.95233 0.0
C640 C 0.02682 0.34937 0.99096 0.0
C641 C 0.01117 0.33461 0.01509 0.0
C642 C 0.06544 0.35836 0.98499 0.0
C643 C 0.08925 0.35311 1.0031 0.0
C644 C 0.07331 0.33748 0.02697 0.0
C645 C 0.0347 0.32823 0.03288 0.0
C646 C 0.20059 0.40056 1.01108 0.0
C647 C 0.21155 0.38973 0.98828 0.0
C648 C 0.16093 0.38855 0.01576 0.0
C649 C 0.13124 0.36566 0.99772 0.0
C650 C 0.14204 0.35519 0.97474 0.0
C651 C 0.18184 0.36692 0.97011 0.0
H652 H 0.64104 0.6572 0.02472 0.0
H653 H 0.74386 0.77419 0.03912 0.0
H654 H 0.61094 0.68885 0.99933 0.0
H655 H 0.71399 0.80551 0.01371 0.0
H656 H 0.66164 0.8504 0.95555 0.0
H657 H 0.68981 0.80878 0.969 0.0
H658 H 0.58592 0.7365 0.014 0.0
H659 H 0.55761 0.778 1.00073 0.0
C660 C 0.65753 0.68951 0.02203 0.0
C661 C 0.69462 0.71334 0.03407 0.0
C662 C 0.64026 0.70755 1.0076 0.0
C663 C 0.66019 0.74955 1.0046 0.0
C664 C 0.69818 0.77302 0.01549 0.0
C665 C 0.71511 0.75513 0.03022 0.0
C666 C 0.64442 0.82519 0.96794 0.0
C667 C 0.60768 0.81796 0.97746 0.0
C668 C 0.66061 0.80144 0.97562 0.0
C669 C 0.64014 0.76971 0.99266 0.0
C670 C 0.6022 0.76065 1.00073 0.0
C671 C 0.58618 0.78466 0.99329 0.0
H672 H 0.6668 0.98446 0.03506 0.0
H673 H 0.65515 0.03525 0.9647 0.0
H674 H 0.72455 0.04967 0.04696 0.0
H675 H 0.71068 0.10031 0.97684 0.0
H676 H 0.80508 0.18642 0.06664 0.0
H677 H 0.74886 0.11871 0.05877 0.0
H678 H 0.77974 0.12945 0.97936 0.0
H679 H 0.83386 0.19757 0.98708 0.0
C680 C 0.6762 0.00987 0.02248 0.0
C681 C 0.65722 0.00515 0.99891 0.0
C682 C 0.70913 0.04709 0.02921 0.0
C683 C 0.72289 0.07998 1.01255 0.0
C684 C 0.70198 0.07535 0.9897 0.0
C685 C 0.66988 0.03825 0.98283 0.0
C686 C 0.7998 0.1739 0.04759 0.0
C687 C 0.82309 0.19714 0.02732 0.0
C688 C 0.76777 0.13517 0.04309 0.0
C689 C 0.75916 0.11902 0.01832 0.0
C690 C 0.78452 0.1415 0.9985 0.0
C691 C 0.81574 0.18038 1.00288 0.0
H692 H 0.87069 0.7242 0.05744 0.0
H693 H 0.79643 0.59588 0.04555 0.0
H694 H 0.92644 0.7217 0.03834 0.0
H695 H 0.85282 0.59347 0.02664 0.0
H696 H 0.98311 0.61002 0.02685 0.0
H697 H 0.9236 0.60835 0.04364 0.0
H698 H 0.94138 0.70461 0.99335 0.0
H699 H 1.00043 0.70616 0.97636 0.0
C700 C 0.86628 0.69544 0.05077 0.0
C701 C 0.82917 0.66021 0.05298 0.0
C702 C 0.89814 0.6941 0.03973 0.0
C703 C 0.89381 0.65742 0.03103 0.0
C704 C 0.85685 0.62208 0.03331 0.0
C705 C 0.82463 0.62352 0.04397 0.0
C706 C 0.97422 0.63071 0.01933 0.0
C707 C 0.99659 0.65838 1.00039 0.0
C708 C 0.94007 0.62953 0.0288 0.0
C709 C 0.92811 0.65643 0.0198 0.0
C710 C 0.95017 0.68373 1.0007 0.0
C711 C 0.98387 0.68449 0.99094 0.0
H712 H 0.32349 0.29796 0.97446 0.0
H713 H 0.35132 0.35415 0.04884 0.0
H714 H 0.32449 0.23967 0.99183 0.0
H715 H 0.35264 0.29565 0.06612 0.0
H716 H 0.305 0.16403 0.091 0.0
H717 H 0.30401 0.22265 0.07376 0.0
H718 H 0.37388 0.22323 1.01024 0.0
H719 H 0.37459 0.16445 0.0272 0.0
C720 C 0.32995 0.29799 0.99451 0.0
C721 C 0.33725 0.33073 1.01028 0.0
C722 C 0.33071 0.26463 1.0044 0.0
C723 C 0.33858 0.26316 0.03031 0.0
C724 C 0.34607 0.29588 0.04611 0.0
C725 C 0.34558 0.32945 0.03618 0.0
C726 C 0.31986 0.17644 0.07324 0.0
C727 C 0.33971 0.15945 0.06041 0.0
C728 C 0.31961 0.21022 0.06353 0.0
C729 C 0.33894 0.22748 0.04072 0.0
C730 C 0.35845 0.2103 0.02776 0.0
C731 C 0.35895 0.17673 0.03754 0.0
H732 H 0.01883 0.31405 0.36067 0.0
H733 H 0.90663 0.29656 0.38821 0.0
H734 H 0.98297 0.25375 0.33376 0.0
H735 H 0.87129 0.23709 0.36134 0.0
H736 H 0.81583 0.14729 0.29892 0.0
H737 H 0.86032 0.21611 0.31378 0.0
H738 H 0.93834 0.17834 0.34741 0.0
H739 H 0.89383 0.10947 0.33283 0.0
C740 C 0.98662 0.29773 0.36069 0.0
C741 C 0.9655 0.30974 0.37669 0.0
C742 C 0.96622 0.26336 0.34535 0.0
C743 C 0.92448 0.24114 0.34542 0.0
C744 C 0.90347 0.25409 0.36067 0.0
C745 C 0.92375 0.28788 0.37625 0.0
C746 C 0.84295 0.15386 0.30894 0.0
C747 C 0.85107 0.12295 0.31511 0.0
C748 C 0.8683 0.19316 0.31745 0.0
C749 C 0.90247 0.20225 0.33185 0.0
C750 C 0.91226 0.17207 0.33623 0.0
C751 C 0.88662 0.13265 0.32807 0.0
H752 H 0.8573 0.69647 0.28757 0.0
H753 H 0.89214 0.75633 0.36073 0.0
H754 H 0.78818 0.6772 0.29591 0.0
H755 H 0.8233 0.73718 0.36885 0.0
H756 H 0.69246 0.65558 0.38689 0.0
H757 H 0.76019 0.67289 0.37671 0.0
H758 H 0.74588 0.70999 0.30189 0.0
H759 H 0.67778 0.69254 0.31194 0.0
C760 C 0.85031 0.70564 0.30537 0.0
C761 C 0.88033 0.72789 0.32351 0.0
C762 C 0.81076 0.69473 0.31006 0.0
C763 C 0.80037 0.70548 0.33308 0.0
C764 C 0.83037 0.72802 0.35107 0.0
C765 C 0.86988 0.73923 0.34632 0.0
C766 C 0.70351 0.66715 0.36818 0.0
C767 C 0.6796 0.67274 0.35026 0.0
C768 C 0.74245 0.67731 0.36243 0.0
C769 C 0.75838 0.69305 0.33858 0.0
C770 C 0.73428 0.69771 0.32039 0.0
C771 C 0.69533 0.68785 0.3262 0.0
H772 H 0.22395 0.11072 0.33489 0.0
H773 H 0.32823 0.1792 0.28911 0.0
H774 H 0.25011 0.06744 0.34847 0.0
H775 H 0.35425 0.13588 0.3029 0.0
H776 H 0.40668 0.10195 0.37427 0.0
H777 H 0.37781 0.13367 0.34831 0.0
H778 H 0.27369 0.01768 0.33431 0.0
H779 H 0.30291 0.98556 0.3602 0.0
C780 C 0.25205 0.11607 0.32733 0.0
C781 C 0.27434 0.14888 0.31129 0.0
C782 C 0.26684 0.09106 0.33496 0.0
C783 C 0.30433 0.09864 0.32689 0.0
C784 C 0.32539 0.12969 0.30952 0.0
C785 C 0.31041 0.15441 0.30164 0.0
C786 C 0.37789 0.08311 0.36536 0.0
C787 C 0.35687 0.04138 0.36942 0.0
C788 C 0.36154 0.10122 0.35031 0.0
C789 C 0.32358 0.07806 0.33932 0.0
C790 C 0.30302 0.03612 0.34262 0.0
C791 C 0.31976 0.01782 0.35735 0.0
H792 H 0.47824 0.54092 0.32342 0.0
H793 H 0.48786 0.5181 0.40281 0.0
H794 H 0.42682 0.47092 0.3174 0.0
H795 H 0.43568 0.44763 0.3966 0.0
H796 H 0.30256 0.3428 0.36794 0.0
H797 H 0.35691 0.40955 0.38086 0.0
H798 H 0.43041 0.40375 0.32191 0.0
H799 H 0.37719 0.33766 0.30918 0.0
C800 C 0.46931 0.521 0.33959 0.0
C801 C 0.48723 0.53492 0.36353 0.0
C802 C 0.44 0.48097 0.33612 0.0
C803 C 0.42764 0.45413 0.35654 0.0
C804 C 0.44485 0.46796 0.38063 0.0
C805 C 0.47477 0.50806 0.38407 0.0
C806 C 0.33062 0.35545 0.35814 0.0
C807 C 0.33529 0.33528 0.33725 0.0
C808 C 0.36161 0.39349 0.36555 0.0
C809 C 0.39736 0.41169 0.35205 0.0
C810 C 0.40282 0.39044 0.33232 0.0
C811 C 0.37224 0.35261 0.32505 0.0
H812 H 0.6531 0.94814 0.36365 0.0
H813 H 0.66688 0.04224 0.31247 0.0
H814 H 0.59312 0.94524 0.38079 0.0
H815 H 0.60754 0.03955 0.32983 0.0
H816 H 0.53489 0.05705 0.3936 0.0
H817 H 0.5921 0.05637 0.37524 0.0
H818 H 0.52129 0.92803 0.36284 0.0
H819 H 0.46349 0.92864 0.3809 0.0
C820 C 0.6434 0.96819 0.35611 0.0
C821 C 0.66479 0.99553 0.33679 0.0
C822 C 0.60901 0.96631 0.36578 0.0
C823 C 0.59594 0.99226 0.35662 0.0
C824 C 0.6172 0.01941 0.33728 0.0
C825 C 0.65106 0.02081 0.32732 0.0
C826 C 0.53144 0.02868 0.38692 0.0
C827 C 0.4947 0.9929 0.38862 0.0
C828 C 0.56413 0.02835 0.37635 0.0
C829 C 0.56098 0.99215 0.36768 0.0
C830 C 0.52441 0.95627 0.36952 0.0
C831 C 0.49139 0.9567 0.37967 0.0
H832 H 0.05624 0.70048 0.36884 0.0
H833 H 0.95148 0.61895 0.32524 0.0
H834 H 0.05951 0.64281 0.38623 0.0
H835 H 0.9546 0.56167 0.34286 0.0
H836 H 0.95048 0.47432 0.40583 0.0
H837 H 0.94793 0.53229 0.38871 0.0
H838 H 0.07046 0.58537 0.36615 0.0
H839 H 0.07306 0.52716 0.38295 0.0
C840 C 0.03383 0.67031 0.36313 0.0
C841 C 1.00359 0.66416 0.34573 0.0
C842 C 0.03586 0.63746 0.37293 0.0
C843 C 0.00727 0.598 0.36584 0.0
C844 C 0.97683 0.59185 0.3487 0.0
C845 C 0.9752 0.62462 0.33857 0.0
C846 C 0.97685 0.4983 0.39717 0.0
C847 C 0.01192 0.49617 0.39562 0.0
C848 C 0.97532 0.53134 0.38734 0.0
C849 C 0.00904 0.56315 0.37623 0.0
C850 C 0.04419 0.56125 0.37481 0.0
C851 C 0.04553 0.52785 0.38422 0.0
H852 H 0.49091 0.47886 0.62412 0.0
H853 H 0.55802 0.43942 0.67009 0.0
H854 H 0.53618 0.54834 0.63716 0.0
H855 H 0.60321 0.50897 0.68294 0.0
H856 H 0.57425 0.63564 0.70884 0.0
H857 H 0.54078 0.57514 0.68259 0.0
H858 H 0.65336 0.58174 0.66823 0.0
H859 H 0.68727 0.64311 0.69443 0.0
C860 C 0.51575 0.48502 0.63655 0.0
C861 C 0.52038 0.45351 0.64652 0.0
C862 C 0.54163 0.5248 0.64397 0.0
C863 C 0.57288 0.53381 0.66117 0.0
C864 C 0.57945 0.50279 0.66952 0.0
C865 C 0.55333 0.46294 0.66235 0.0
C866 C 0.59196 0.62457 0.69976 0.0
C867 C 0.63323 0.6437 0.70385 0.0
C868 C 0.57286 0.59019 0.68454 0.0
C869 C 0.59456 0.5739 0.67341 0.0
C870 C 0.63608 0.59384 0.67665 0.0
C871 C 0.65538 0.62884 0.69155 0.0
H872 H 0.52672 0.03017 0.61995 0.0
H873 H 0.56359 0.09491 0.69148 0.0
H874 H 0.45783 0.01108 0.62878 0.0
H875 H 0.49495 0.076 0.70006 0.0
H876 H 0.36479 0.99418 0.72031 0.0
H877 H 0.43267 0.01247 0.70981 0.0
H878 H 0.41476 0.04281 0.6338 0.0
H879 H 0.34649 0.02427 0.64417 0.0
C880 C 0.52024 0.04049 0.63749 0.0
C881 C 0.55077 0.06399 0.65504 0.0
C882 C 0.48079 0.02969 0.64246 0.0
C883 C 0.47101 0.04185 0.66518 0.0
C884 C 0.50153 0.06572 0.68255 0.0
C885 C 0.54094 0.07679 0.67752 0.0
C886 C 0.37512 0.00454 0.70129 0.0
C887 C 0.3501 0.00781 0.6831 0.0
C888 C 0.41415 0.01527 0.69535 0.0
C889 C 0.42909 0.02931 0.67104 0.0
C890 C 0.40396 0.03186 0.65266 0.0
C891 C 0.36491 0.02139 0.65865 0.0
H892 H 0.01874 0.34635 0.67321 0.0
H893 H 0.00782 0.40435 0.7407 0.0
H894 H 0.98715 0.37714 0.64799 0.0
H895 H 0.97573 0.4339 0.71581 0.0
H896 H 0.88472 0.44654 0.67195 0.0
H897 H 0.90768 0.40224 0.68847 0.0
H898 H 0.00968 0.45773 0.63978 0.0
H899 H 0.98709 0.50271 0.62313 0.0
C900 C 0.00935 0.36537 0.68262 0.0
C901 C 0.01586 0.37321 0.70885 0.0
C902 C 0.99142 0.38291 0.66824 0.0
C903 C 0.97881 0.40743 0.68011 0.0
C904 C 0.98484 0.41468 0.70633 0.0
C905 C 1.00347 0.39805 0.72051 0.0
C906 C 0.91163 0.44891 0.6643 0.0
C907 C 0.93462 0.47892 0.64669 0.0
C908 C 0.92462 0.42341 0.67374 0.0
C909 C 0.96061 0.42713 0.66559 0.0
C910 C 0.98176 0.45438 0.64626 0.0
C911 C 0.96887 0.48018 0.63686 0.0
H912 H 0.15845 0.85027 0.73831 0.0
H913 H 0.15558 0.86596 0.65723 0.0
H914 H 0.10612 0.77945 0.73346 0.0
H915 H 0.10421 0.79566 0.65252 0.0
H916 H 0.04733 0.6623 0.64892 0.0
H917 H 0.10311 0.72688 0.66181 0.0
H918 H 0.02859 0.74368 0.71502 0.0
H919 H 0.97184 0.67855 0.70193 0.0
C920 C 0.14697 0.83849 0.71949 0.0
C921 C 0.16103 0.86351 0.69811 0.0
C922 C 0.11701 0.79822 0.7168 0.0
C923 C 0.1015 0.78238 0.69265 0.0
C924 C 0.11604 0.80723 0.67132 0.0
C925 C 0.14528 0.84744 0.67403 0.0
C926 C 0.04275 0.67932 0.66365 0.0
C927 C 1.00492 0.66573 0.67403 0.0
C928 C 0.07478 0.71621 0.67105 0.0
C929 C 0.06981 0.74021 0.68909 0.0
C930 C 0.03297 0.72544 0.70107 0.0
C931 C 1.0006 0.68833 0.69356 0.0
H932 H 0.20549 0.36639 0.75319 0.0
H933 H 0.13235 0.29046 0.6913 0.0
H934 H 0.26297 0.36533 0.7357 0.0
H935 H 0.18996 0.28935 0.67395 0.0
H936 H 0.31276 0.34151 0.63608 0.0
H937 H 0.25423 0.3393 0.6542 0.0
H938 H 0.28715 0.31602 0.72811 0.0
H939 H 0.34612 0.31834 0.71002 0.0
C940 C 0.20166 0.34956 0.73582 0.0
C941 C 0.16434 0.32874 0.72354 0.0
C942 C 0.23453 0.34867 0.72596 0.0
C943 C 0.23092 0.32724 0.70349 0.0
C944 C 0.19366 0.30639 0.6912 0.0
C945 C 0.16066 0.30694 0.70119 0.0
C946 C 0.30764 0.3359 0.65621 0.0
C947 C 0.33431 0.33032 0.67163 0.0
C948 C 0.27389 0.33436 0.66653 0.0
C949 C 0.26615 0.32751 0.69255 0.0
C950 C 0.29261 0.3217 0.70801 0.0
C951 C 0.32624 0.32284 0.69763 0.0
H952 H 0.61669 0.80835 0.73625 0.0
H953 H 0.73989 0.86045 0.71489 0.0
H954 H 0.61567 0.86745 0.71987 0.0
H955 H 0.73877 0.9198 0.69875 0.0
H956 H 0.72569 0.03568 0.70076 0.0
H957 H 0.7282 0.97765 0.71832 0.0
H958 H 0.62351 0.89725 0.6745 0.0
H959 H 0.6211 0.95476 0.6568 0.0
C960 C 0.64354 0.83242 0.7281 0.0
C961 C 0.6783 0.82969 0.72671 0.0
C962 C 0.64289 0.86613 0.71871 0.0
C963 C 0.67716 0.89802 0.70815 0.0
C964 C 0.71208 0.89562 0.70699 0.0
C965 C 0.71256 0.86157 0.71601 0.0
C966 C 0.70316 0.00559 0.69501 0.0
C967 C 0.67319 0.9997 0.67746 0.0
C968 C 0.70476 0.97253 0.7049 0.0
C969 C 0.67599 0.93317 0.69773 0.0
C970 C 0.64584 0.92733 0.68043 0.0
C971 C 0.64463 0.96026 0.67024 0.0
loop_
_geom_bond_atom_site_label_1
_geom_bond_atom_site_label_2
_geom_bond_distance
_geom_bond_site_symmetry_2
_ccdc_geom_bond_type
Co0 O1 2.216 . S
Co0 O2 2.091 . S
Co0 O4 2.004 . S
Co0 O10 2.021 . S
Co0 O12 2.137 . S
Co0 O13 2.244 . S
O1 Co0 2.216 . S
O1 C8 1.247 . S
O2 Co0 2.091 . S
O2 C8 1.261 . S
C3 O12 1.247 . S
C3 O13 1.272 . S
O4 Co0 2.004 . S
O4 C9 1.259 . S
Co5 O6 2.061 . S
Co5 O11 2.052 1_545 S
Co5 O13 2.135 . S
O6 Co5 2.061 . S
O6 C9 1.235 . S
C7 O10 1.238 1_565 S
C7 O11 1.241 . S
C8 O1 1.247 . S
C8 O2 1.261 . S
C9 O4 1.259 . S
C9 O6 1.235 . S
O10 Co0 2.021 . S
O10 C7 1.238 1_545 S
O11 Co5 2.052 1_565 S
O11 C7 1.241 . S
O12 Co0 2.137 . S
O12 C3 1.247 . S
O13 Co0 2.244 . S
O13 C3 1.272 . S
O13 Co5 2.135 . S
Co14 O15 2.216 . S
Co14 O16 2.091 . S
Co14 O18 2.004 1_655 S
Co14 O24 2.021 . S
Co14 O26 2.137 . S
Co14 O27 2.244 . S
O15 Co14 2.216 . S
O15 C22 1.247 . S
O16 Co14 2.091 . S
O16 C22 1.261 . S
C17 O26 1.247 . S
C17 O27 1.272 . S
O18 Co14 2.004 1_455 S
O18 C23 1.259 . S
Co19 O20 2.058 1_656 S
Co19 O25 2.052 1_556 S
Co19 O27 2.135 1_556 S
O20 Co19 2.058 1_454 S
O20 C23 1.237 . S
C21 O24 1.238 . S
C21 O25 1.241 . S
C22 O15 1.247 . S
C22 O16 1.261 . S
C23 O18 1.259 . S
C23 O20 1.237 . S
O24 Co14 2.021 . S
O24 C21 1.238 . S
O25 Co19 2.052 1_554 S
O25 C21 1.241 . S
O26 Co14 2.137 . S
O26 C17 1.247 . S
O27 Co14 2.244 . S
O27 C17 1.272 . S
O27 Co19 2.135 1_554 S
Co28 O29 2.216 . S
Co28 O30 2.091 . S
Co28 O32 2.004 . S
Co28 O38 2.021 . S
Co28 O40 2.137 . S
Co28 O41 2.244 . S
O29 Co28 2.216 . S
O29 C36 1.247 . S
O30 Co28 2.091 . S
O30 C36 1.261 . S
C31 O40 1.247 . S
C31 O41 1.272 . S
O32 Co28 2.004 . S
O32 C37 1.259 . S
Co33 O34 2.061 . S
Co33 O39 2.052 . S
Co33 O41 2.135 . S
O34 Co33 2.061 . S
O34 C37 1.235 . S
C35 O38 1.238 . S
C35 O39 1.241 . S
C36 O29 1.247 . S
C36 O30 1.261 . S
C37 O32 1.259 . S
C37 O34 1.235 . S
O38 Co28 2.021 . S
O38 C35 1.238 . S
O39 Co33 2.052 . S
O39 C35 1.241 . S
O40 Co28 2.137 . S
O40 C31 1.247 . S
O41 Co28 2.244 . S
O41 C31 1.272 . S
O41 Co33 2.135 . S
Co42 O43 2.216 . S
Co42 O44 2.091 . S
Co42 O46 2.004 1_565 S
Co42 O52 2.021 . S
Co42 O54 2.137 . S
Co42 O55 2.244 . S
O43 Co42 2.216 . S
O43 C50 1.247 . S
O44 Co42 2.091 . S
O44 C50 1.261 . S
C45 O54 1.247 . S
C45 O55 1.272 . S
O46 Co42 2.004 1_545 S
O46 C51 1.259 . S
Co47 O48 2.063 1_565 S
Co47 O53 2.053 . S
Co47 O55 2.139 . S
O48 Co47 2.063 1_545 S
O48 C51 1.235 . S
C49 O52 1.238 . S
C49 O53 1.241 . S
C50 O43 1.247 . S
C50 O44 1.261 . S
C51 O46 1.259 . S
C51 O48 1.235 . S
O52 Co42 2.021 . S
O52 C49 1.238 . S
O53 Co47 2.053 . S
O53 C49 1.241 . S
O54 Co42 2.137 . S
O54 C45 1.247 . S
O55 Co42 2.244 . S
O55 C45 1.272 . S
O55 Co47 2.139 . S
Co56 O57 2.216 . S
Co56 O58 2.091 . S
Co56 O60 2.004 1_455 S
Co56 O66 2.021 . S
Co56 O68 2.137 . S
Co56 O69 2.244 . S
O57 Co56 2.216 . S
O57 C64 1.247 . S
O58 Co56 2.091 . S
O58 C64 1.261 . S
C59 O68 1.247 . S
C59 O69 1.272 . S
O60 Co56 2.004 1_655 S
O60 C65 1.259 . S
Co61 O62 2.061 1_454 S
Co61 O67 2.052 1_554 S
Co61 O69 2.135 1_554 S
O62 Co61 2.061 1_656 S
O62 C65 1.235 . S
C63 O66 1.238 . S
C63 O67 1.241 . S
C64 O57 1.247 . S
C64 O58 1.261 . S
C65 O60 1.259 . S
C65 O62 1.235 . S
O66 Co56 2.021 . S
O66 C63 1.238 . S
O67 Co61 2.052 1_556 S
O67 C63 1.241 . S
O68 Co56 2.137 . S
O68 C59 1.247 . S
O69 Co56 2.244 . S
O69 C59 1.272 . S
O69 Co61 2.135 1_556 S
Co70 O71 2.216 . S
Co70 O72 2.091 . S
Co70 O74 2.004 . S
Co70 O80 2.021 . S
Co70 O82 2.137 . S
Co70 O83 2.244 . S
O71 Co70 2.216 . S
O71 C78 1.247 . S
O72 Co70 2.091 . S
O72 C78 1.261 . S
C73 O82 1.247 . S
C73 O83 1.272 . S
O74 Co70 2.004 . S
O74 C79 1.259 . S
Co75 O76 2.055 1_554 S
Co75 O81 2.047 1_554 S
Co75 O83 2.118 1_554 S
O76 Co75 2.055 1_556 S
O76 C79 1.235 . S
C77 O80 1.238 . S
C77 O81 1.241 . S
C78 O71 1.247 . S
C78 O72 1.261 . S
C79 O74 1.259 . S
C79 O76 1.235 . S
O80 Co70 2.021 . S
O80 C77 1.238 . S
O81 Co75 2.047 1_556 S
O81 C77 1.241 . S
O82 Co70 2.137 . S
O82 C73 1.247 . S
O83 Co70 2.244 . S
O83 C73 1.272 . S
O83 Co75 2.118 1_556 S
Co84 O85 2.216 . S
Co84 O86 2.091 . S
Co84 O88 2.004 . S
Co84 O94 2.021 1_455 S
Co84 O96 2.137 . S
Co84 O97 2.244 1_455 S
O85 Co84 2.216 . S
O85 C92 1.247 . S
O86 Co84 2.091 . S
O86 C92 1.261 . S
C87 O96 1.247 . S
C87 O97 1.272 1_455 S
O88 Co84 2.004 . S
O88 C93 1.259 1_455 S
Co89 O90 2.061 . S
Co89 O95 2.052 . S
Co89 O97 2.135 . S
O90 Co89 2.061 . S
O90 C93 1.235 . S
C91 O94 1.238 . S
C91 O95 1.241 . S
C92 O85 1.247 . S
C92 O86 1.261 . S
C93 O88 1.259 1_655 S
C93 O90 1.235 . S
O94 Co84 2.021 1_655 S
O94 C91 1.238 . S
O95 Co89 2.052 . S
O95 C91 1.241 . S
O96 Co84 2.137 . S
O96 C87 1.247 . S
O97 Co84 2.244 1_655 S
O97 C87 1.272 1_655 S
O97 Co89 2.135 . S
Co98 O99 2.216 . S
Co98 O100 2.091 . S
Co98 O102 2.004 . S
Co98 O108 2.021 . S
Co98 O110 2.137 . S
Co98 O111 2.244 . S
O99 Co98 2.216 . S
O99 C106 1.247 . S
O100 Co98 2.091 . S
O100 C106 1.261 . S
C101 O110 1.247 . S
C101 O111 1.272 . S
O102 Co98 2.004 . S
O102 C107 1.259 . S
Co103 O104 2.061 . S
Co103 O109 2.052 . S
Co103 O111 2.135 . S
O104 Co103 2.061 . S
O104 C107 1.235 . S
C105 O108 1.238 . S
C105 O109 1.241 . S
C106 O99 1.247 . S
C106 O100 1.261 . S
C107 O102 1.259 . S
C107 O104 1.235 . S
O108 Co98 2.021 . S
O108 C105 1.238 . S
O109 Co103 2.052 . S
O109 C105 1.241 . S
O110 Co98 2.137 . S
O110 C101 1.247 . S
O111 Co98 2.244 . S
O111 C101 1.272 . S
O111 Co103 2.135 . S
Co112 O113 2.216 . S
Co112 O114 2.091 . S
Co112 O116 2.004 . S
Co112 O122 2.021 1_565 S
Co112 O124 2.137 . S
Co112 O125 2.244 1_565 S
O113 Co112 2.216 . S
O113 C120 1.247 . S
O114 Co112 2.091 . S
O114 C120 1.261 . S
C115 O124 1.247 . S
C115 O125 1.272 1_565 S
O116 Co112 2.004 . S
O116 C121 1.259 1_565 S
Co117 O118 2.061 . S
Co117 O123 2.052 . S
Co117 O125 2.135 . S
O118 Co117 2.061 . S
O118 C121 1.235 . S
C119 O122 1.238 . S
C119 O123 1.241 . S
C120 O113 1.247 . S
C120 O114 1.261 . S
C121 O116 1.259 1_545 S
C121 O118 1.235 . S
O122 Co112 2.021 1_545 S
O122 C119 1.238 . S
O123 Co117 2.052 . S
O123 C119 1.241 . S
O124 Co112 2.137 . S
O124 C115 1.247 . S
O125 Co112 2.244 1_545 S
O125 C115 1.272 1_545 S
O125 Co117 2.135 . S
Co126 O127 2.216 . S
Co126 O128 2.091 . S
Co126 O130 2.004 . S
Co126 O136 2.021 . S
Co126 O138 2.137 . S
Co126 O139 2.244 . S
O127 Co126 2.216 . S
O127 C134 1.247 . S
O128 Co126 2.091 . S
O128 C134 1.261 . S
C129 O138 1.247 . S
C129 O139 1.272 . S
O130 Co126 2.004 . S
O130 C135 1.259 . S
Co131 O132 2.061 . S
Co131 O137 2.052 . S
Co131 O139 2.135 . S
O132 Co131 2.061 . S
O132 C135 1.235 . S
C133 O136 1.238 . S
C133 O137 1.241 . S
C134 O127 1.247 . S
C134 O128 1.261 . S
C135 O130 1.259 . S
C135 O132 1.235 . S
O136 Co126 2.021 . S
O136 C133 1.238 . S
O137 Co131 2.052 . S
O137 C133 1.241 . S
O138 Co126 2.137 . S
O138 C129 1.247 . S
O139 Co126 2.244 . S
O139 C129 1.272 . S
O139 Co131 2.135 . S
Co140 O141 2.216 . S
Co140 O142 2.091 . S
Co140 O144 2.004 . S
Co140 O150 2.021 . S
Co140 O152 2.137 1_545 S
Co140 O153 2.244 . S
O141 Co140 2.216 . S
O141 C148 1.247 . S
O142 Co140 2.091 . S
O142 C148 1.261 . S
C143 O152 1.247 . S
C143 O153 1.272 1_565 S
O144 Co140 2.004 . S
O144 C149 1.259 . S
Co145 O146 2.061 . S
Co145 O151 2.052 . S
Co145 O153 2.135 . S
O146 Co145 2.061 . S
O146 C149 1.235 . S
C147 O150 1.238 . S
C147 O151 1.241 . S
C148 O141 1.247 . S
C148 O142 1.261 . S
C149 O144 1.259 . S
C149 O146 1.235 . S
O150 Co140 2.021 . S
O150 C147 1.238 . S
O151 Co145 2.052 . S
O151 C147 1.241 . S
O152 Co140 2.137 1_565 S
O152 C143 1.247 . S
O153 Co140 2.244 . S
O153 C143 1.272 1_545 S
O153 Co145 2.135 . S
Co154 O155 2.216 . S
Co154 O156 2.091 . S
Co154 O158 2.004 . S
Co154 O164 2.021 . S
Co154 O166 2.137 1_655 S
Co154 O167 2.244 . S
O155 Co154 2.216 . S
O155 C162 1.247 . S
O156 Co154 2.091 . S
O156 C162 1.261 . S
C157 O166 1.247 . S
C157 O167 1.272 1_455 S
O158 Co154 2.004 . S
O158 C163 1.259 . S
Co159 O160 2.061 . S
Co159 O165 2.052 . S
Co159 O167 2.135 . S
O160 Co159 2.061 . S
O160 C163 1.235 . S
C161 O164 1.238 . S
C161 O165 1.241 . S
C162 O155 1.247 . S
C162 O156 1.261 . S
C163 O158 1.259 . S
C163 O160 1.235 . S
O164 Co154 2.021 . S
O164 C161 1.238 . S
O165 Co159 2.052 . S
O165 C161 1.241 . S
O166 Co154 2.137 1_455 S
O166 C157 1.247 . S
O167 Co154 2.244 . S
O167 C157 1.272 1_655 S
O167 Co159 2.135 . S
Co168 O169 2.216 . S
Co168 O170 2.091 . S
Co168 O172 2.004 . S
Co168 O178 2.021 . S
Co168 O180 2.137 . S
Co168 O181 2.244 . S
O169 Co168 2.216 . S
O169 C176 1.247 . S
O170 Co168 2.091 . S
O170 C176 1.261 . S
C171 O180 1.247 . S
C171 O181 1.272 . S
O172 Co168 2.004 . S
O172 C177 1.259 . S
Co173 O174 2.061 . S
Co173 O179 2.052 . S
Co173 O181 2.135 . S
O174 Co173 2.061 . S
O174 C177 1.235 . S
C175 O178 1.238 . S
C175 O179 1.241 . S
C176 O169 1.247 . S
C176 O170 1.261 . S
C177 O172 1.259 . S
C177 O174 1.235 . S
O178 Co168 2.021 . S
O178 C175 1.238 . S
O179 Co173 2.052 . S
O179 C175 1.241 . S
O180 Co168 2.137 . S
O180 C171 1.247 . S
O181 Co168 2.244 . S
O181 C171 1.272 . S
O181 Co173 2.135 . S
Co182 O183 2.216 . S
Co182 O184 2.091 . S
Co182 O186 2.004 . S
Co182 O192 2.021 . S
Co182 O194 2.137 1_565 S
Co182 O195 2.244 . S
O183 Co182 2.216 . S
O183 C190 1.247 . S
O184 Co182 2.091 . S
O184 C190 1.261 . S
C185 O194 1.247 . S
C185 O195 1.272 1_545 S
O186 Co182 2.004 . S
O186 C191 1.259 . S
Co187 O188 2.061 . S
Co187 O193 2.052 . S
Co187 O195 2.135 . S
O188 Co187 2.061 . S
O188 C191 1.235 . S
C189 O192 1.238 . S
C189 O193 1.241 . S
C190 O183 1.247 . S
C190 O184 1.261 . S
C191 O186 1.259 . S
C191 O188 1.235 . S
O192 Co182 2.021 . S
O192 C189 1.238 . S
O193 Co187 2.052 . S
O193 C189 1.241 . S
O194 Co182 2.137 1_545 S
O194 C185 1.247 . S
O195 Co182 2.244 . S
O195 C185 1.272 1_565 S
O195 Co187 2.135 . S
Co196 O197 2.216 1_455 S
Co196 O198 2.091 1_455 S
Co196 O200 2.004 . S
Co196 O206 2.021 . S
Co196 O208 2.137 . S
Co196 O209 2.244 . S
O197 Co196 2.216 1_655 S
O197 C204 1.247 . S
O198 Co196 2.091 1_655 S
O198 C204 1.261 . S
C199 O208 1.247 . S
C199 O209 1.272 . S
O200 Co196 2.004 . S
O200 C205 1.259 . S
Co201 O202 2.061 . S
Co201 O207 2.052 . S
Co201 O209 2.135 . S
O202 Co201 2.061 . S
O202 C205 1.235 . S
C203 O206 1.238 . S
C203 O207 1.241 . S
C204 O197 1.247 . S
C204 O198 1.261 . S
C205 O200 1.259 . S
C205 O202 1.235 . S
O206 Co196 2.021 . S
O206 C203 1.238 . S
O207 Co201 2.052 . S
O207 C203 1.241 . S
O208 Co196 2.137 . S
O208 C199 1.247 . S
O209 Co196 2.244 . S
O209 C199 1.272 . S
O209 Co201 2.135 . S
Co210 O211 2.211 1_455 S
Co210 O212 2.098 . S
Co210 O214 2.013 . S
Co210 O220 2.036 . S
Co210 O222 2.118 1_455 S
Co210 O223 2.228 1_455 S
O211 Co210 2.211 1_655 S
O211 C218 1.247 . S
O212 Co210 2.098 . S
O212 C218 1.261 1_455 S
C213 O222 1.247 . S
C213 O223 1.272 . S
O214 Co210 2.013 . S
O214 C219 1.259 . S
Co215 O216 2.061 1_655 S
Co215 O221 2.052 . S
Co215 O223 2.135 . S
O216 Co215 2.061 1_455 S
O216 C219 1.235 . S
C217 O220 1.238 . S
C217 O221 1.241 1_455 S
C218 O211 1.247 . S
C218 O212 1.261 1_655 S
C219 O214 1.259 . S
C219 O216 1.235 . S
O220 Co210 2.036 . S
O220 C217 1.238 . S
O221 Co215 2.052 . S
O221 C217 1.241 1_655 S
O222 Co210 2.118 1_655 S
O222 C213 1.247 . S
O223 Co210 2.228 1_655 S
O223 C213 1.272 . S
O223 Co215 2.135 . S
Co224 O225 2.216 . S
Co224 O226 2.091 . S
Co224 O228 2.004 . S
Co224 O234 2.021 . S
Co224 O236 2.137 . S
Co224 O237 2.244 . S
O225 Co224 2.216 . S
O225 C232 1.247 . S
O226 Co224 2.091 . S
O226 C232 1.261 . S
C227 O236 1.247 . S
C227 O237 1.272 . S
O228 Co224 2.004 . S
O228 C233 1.259 . S
Co229 O230 2.061 . S
Co229 O235 2.052 . S
Co229 O237 2.135 . S
O230 Co229 2.061 . S
O230 C233 1.235 . S
C231 O234 1.238 . S
C231 O235 1.241 . S
C232 O225 1.247 . S
C232 O226 1.261 . S
C233 O228 1.259 . S
C233 O230 1.235 . S
O234 Co224 2.021 . S
O234 C231 1.238 . S
O235 Co229 2.052 . S
O235 C231 1.241 . S
O236 Co224 2.137 . S
O236 C227 1.247 . S
O237 Co224 2.244 . S
O237 C227 1.272 . S
O237 Co229 2.135 . S
Co238 O239 2.197 1_565 S
Co238 O240 2.094 . S
Co238 O242 2.027 . S
Co238 O248 2.018 . S
Co238 O250 2.134 1_565 S
Co238 O251 2.234 1_565 S
O239 Co238 2.197 1_545 S
O239 C246 1.247 . S
O240 Co238 2.094 . S
O240 C246 1.261 1_565 S
C241 O250 1.247 . S
C241 O251 1.272 . S
O242 Co238 2.027 . S
O242 C247 1.259 . S
Co243 O244 2.061 1_545 S
Co243 O249 2.052 . S
Co243 O251 2.135 . S
O244 Co243 2.061 1_565 S
O244 C247 1.235 . S
C245 O248 1.238 . S
C245 O249 1.241 1_565 S
C246 O239 1.247 . S
C246 O240 1.261 1_545 S
C247 O242 1.259 . S
C247 O244 1.235 . S
O248 Co238 2.018 . S
O248 C245 1.238 . S
O249 Co243 2.052 . S
O249 C245 1.241 1_545 S
O250 Co238 2.134 1_545 S
O250 C241 1.247 . S
O251 Co238 2.234 1_545 S
O251 C241 1.272 . S
O251 Co243 2.135 . S
H252 C260 0.950 . S
H253 C265 0.950 1_556 S
H254 C262 0.950 . S
H255 C264 0.950 . S
H256 C266 0.957 . S
H257 C268 0.950 . S
H258 C270 0.950 . S
H259 C271 0.950 . S
C260 H252 0.950 . S
C260 C261 1.386 1_565 S
C260 C262 1.391 . S
C261 C260 1.386 1_545 S
C261 C265 1.393 . S
C262 H254 0.950 . S
C262 C260 1.391 . S
C262 C263 1.403 . S
C263 C262 1.403 . S
C263 C264 1.387 1_564 S
C263 C269 1.498 1_554 S
C264 H255 0.950 . S
C264 C263 1.387 1_546 S
C264 C265 1.391 1_556 S
C265 H253 0.950 1_554 S
C265 C261 1.393 . S
C265 C264 1.391 1_554 S
C266 H256 0.957 . S
C266 C267 1.363 1_545 S
C266 C268 1.407 . S
C267 C266 1.363 1_565 S
C267 C271 1.393 . S
C268 H257 0.950 . S
C268 C266 1.407 . S
C268 C269 1.400 1_545 S
C269 C263 1.498 1_556 S
C269 C268 1.400 1_565 S
C269 C270 1.398 1_556 S
C270 H258 0.950 . S
C270 C269 1.398 1_554 S
C270 C271 1.391 1_554 S
C271 H259 0.950 . S
C271 C267 1.393 . S
C271 C270 1.391 1_556 S
H272 C280 0.973 . S
H273 C285 0.950 . S
H274 C282 0.950 1_455 S
H275 C284 0.950 . S
H276 C286 0.950 1_554 S
H277 C288 0.950 1_655 S
H278 C290 0.950 . S
H279 C291 0.950 . S
C280 H272 0.973 . S
C280 C281 1.386 . S
C280 C282 1.391 1_554 S
C281 C280 1.386 . S
C281 C285 1.393 . S
C282 H274 0.950 1_655 S
C282 C280 1.391 1_556 S
C282 C283 1.400 1_556 S
C283 C282 1.400 1_554 S
C283 C284 1.398 . S
C283 C289 1.491 1_654 S
C284 H275 0.950 . S
C284 C283 1.398 . S
C284 C285 1.391 . S
C285 H273 0.950 . S
C285 C281 1.393 . S
C285 C284 1.391 . S
C286 H276 0.950 1_556 S
C286 C287 1.386 . S
C286 C288 1.391 1_556 S
C287 C286 1.386 . S
C287 C291 1.393 . S
C288 H277 0.950 1_455 S
C288 C286 1.391 1_554 S
C288 C289 1.400 1_554 S
C289 C283 1.491 1_456 S
C289 C288 1.400 1_556 S
C289 C290 1.398 . S
C290 H278 0.950 . S
C290 C289 1.398 . S
C290 C291 1.391 . S
C291 H279 0.950 . S
C291 C287 1.393 . S
C291 C290 1.391 . S
H292 C300 0.950 . S
H293 C305 0.950 . S
H294 C302 0.950 . S
H295 C304 0.950 . S
H296 C306 0.950 . S
H297 C308 0.950 . S
H298 C310 0.950 . S
H299 C311 0.950 1_556 S
C300 H292 0.950 . S
C300 C301 1.386 . S
C300 C302 1.391 . S
C301 C300 1.386 . S
C301 C305 1.393 . S
C302 H294 0.950 . S
C302 C300 1.391 . S
C302 C303 1.400 . S
C303 C302 1.400 . S
C303 C304 1.398 1_556 S
C303 C309 1.491 1_556 S
C304 H295 0.950 . S
C304 C303 1.398 1_554 S
C304 C305 1.391 1_554 S
C305 H293 0.950 . S
C305 C301 1.393 . S
C305 C304 1.391 1_556 S
C306 H296 0.950 . S
C306 C307 1.386 . S
C306 C308 1.391 . S
C307 C306 1.386 . S
C307 C311 1.393 . S
C308 H297 0.950 . S
C308 C306 1.391 . S
C308 C309 1.400 . S
C309 C303 1.491 1_554 S
C309 C308 1.400 . S
C309 C310 1.398 1_554 S
C310 H298 0.950 . S
C310 C309 1.398 1_556 S
C310 C311 1.391 1_556 S
C311 H299 0.950 1_554 S
C311 C307 1.393 . S
C311 C310 1.391 1_554 S
H312 C320 0.950 . S
H313 C325 0.950 . S
H314 C322 0.950 . S
H315 C324 0.950 . S
H316 C326 0.950 . S
H317 C328 0.950 . S
H318 C330 0.950 . S
H319 C331 0.950 . S
C320 H312 0.950 . S
C320 C321 1.386 . S
C320 C322 1.391 . S
C321 C320 1.386 . S
C321 C325 1.393 . S
C322 H314 0.950 . S
C322 C320 1.391 . S
C322 C323 1.400 . S
C323 C322 1.400 . S
C323 C324 1.398 . S
C323 C329 1.491 . S
C324 H315 0.950 . S
C324 C323 1.398 . S
C324 C325 1.391 . S
C325 H313 0.950 . S
C325 C321 1.393 . S
C325 C324 1.391 . S
C326 H316 0.950 . S
C326 C327 1.386 . S
C326 C328 1.391 . S
C327 C326 1.386 . S
C327 C331 1.393 . S
C328 H317 0.950 . S
C328 C326 1.391 . S
C328 C329 1.400 . S
C329 C323 1.491 . S
C329 C328 1.400 . S
C329 C330 1.398 . S
C330 H318 0.950 . S
C330 C329 1.398 . S
C330 C331 1.391 . S
C331 H319 0.950 . S
C331 C327 1.393 . S
C331 C330 1.391 . S
H332 C340 0.950 . S
H333 C345 0.950 . S
H334 C342 0.950 . S
H335 C344 0.950 . S
H336 C346 0.950 . S
H337 C348 0.950 . S
H338 C350 0.950 . S
H339 C351 0.950 . S
C340 H332 0.950 . S
C340 C341 1.386 . S
C340 C342 1.391 . S
C341 C340 1.386 . S
C341 C345 1.393 . S
C342 H334 0.950 . S
C342 C340 1.391 . S
C342 C343 1.400 . S
C343 C342 1.400 . S
C343 C344 1.398 . S
C343 C349 1.491 . S
C344 H335 0.950 . S
C344 C343 1.398 . S
C344 C345 1.391 . S
C345 H333 0.950 . S
C345 C341 1.393 . S
C345 C344 1.391 . S
C346 H336 0.950 . S
C346 C347 1.386 . S
C346 C348 1.391 . S
C347 C346 1.386 . S
C347 C351 1.393 . S
C348 H337 0.950 . S
C348 C346 1.391 . S
C348 C349 1.400 . S
C349 C343 1.491 . S
C349 C348 1.400 . S
C349 C350 1.398 . S
C350 H338 0.950 . S
C350 C349 1.398 . S
C350 C351 1.391 . S
C351 H339 0.950 . S
C351 C347 1.393 . S
C351 C350 1.391 . S
H352 C360 0.950 . S
H353 C365 0.950 . S
H354 C362 0.950 . S
H355 C364 0.950 . S
H356 C366 0.950 . S
H357 C368 0.950 . S
H358 C370 0.950 . S
H359 C371 0.950 . S
C360 H352 0.950 . S
C360 C361 1.386 . S
C360 C362 1.391 . S
C361 C360 1.386 . S
C361 C365 1.393 . S
C362 H354 0.950 . S
C362 C360 1.391 . S
C362 C363 1.400 . S
C363 C362 1.400 . S
C363 C364 1.398 . S
C363 C369 1.491 . S
C364 H355 0.950 . S
C364 C363 1.398 . S
C364 C365 1.391 . S
C365 H353 0.950 . S
C365 C361 1.393 . S
C365 C364 1.391 . S
C366 H356 0.950 . S
C366 C367 1.386 . S
C366 C368 1.391 . S
C367 C366 1.386 . S
C367 C371 1.393 . S
C368 H357 0.950 . S
C368 C366 1.391 . S
C368 C369 1.400 . S
C369 C363 1.491 . S
C369 C368 1.400 . S
C369 C370 1.398 . S
C370 H358 0.950 . S
C370 C369 1.398 . S
C370 C371 1.391 . S
C371 H359 0.950 . S
C371 C367 1.393 . S
C371 C370 1.391 . S
H372 C380 0.950 . S
H373 C385 0.950 . S
H374 C382 0.950 . S
H375 C384 0.950 . S
H376 C386 0.950 . S
H377 C388 0.950 . S
H378 C390 0.950 . S
H379 C391 0.950 . S
C380 H372 0.950 . S
C380 C381 1.386 . S
C380 C382 1.391 . S
C381 C380 1.386 . S
C381 C385 1.393 . S
C382 H374 0.950 . S
C382 C380 1.391 . S
C382 C383 1.400 . S
C383 C382 1.400 . S
C383 C384 1.398 . S
C383 C389 1.491 . S
C384 H375 0.950 . S
C384 C383 1.398 . S
C384 C385 1.391 . S
C385 H373 0.950 . S
C385 C381 1.393 . S
C385 C384 1.391 . S
C386 H376 0.950 . S
C386 C387 1.386 . S
C386 C388 1.391 . S
C387 C386 1.386 . S
C387 C391 1.393 . S
C388 H377 0.950 . S
C388 C386 1.391 . S
C388 C389 1.400 . S
C389 C383 1.491 . S
C389 C388 1.400 . S
C389 C390 1.398 . S
C390 H378 0.950 . S
C390 C389 1.398 . S
C390 C391 1.391 . S
C391 H379 0.950 . S
C391 C387 1.393 . S
C391 C390 1.391 . S
H392 C400 0.950 . S
H393 C405 0.950 . S
H394 C402 0.950 . S
H395 C404 0.950 . S
H396 C406 0.950 . S
H397 C408 0.950 . S
H398 C410 0.950 . S
H399 C411 0.950 . S
C400 H392 0.950 . S
C400 C401 1.386 . S
C400 C402 1.391 . S
C401 C400 1.386 . S
C401 C405 1.393 . S
C402 H394 0.950 . S
C402 C400 1.391 . S
C402 C403 1.400 . S
C403 C402 1.400 . S
C403 C404 1.398 . S
C403 C409 1.491 . S
C404 H395 0.950 . S
C404 C403 1.398 . S
C404 C405 1.391 . S
C405 H393 0.950 . S
C405 C401 1.393 . S
C405 C404 1.391 . S
C406 H396 0.950 . S
C406 C407 1.386 . S
C406 C408 1.391 . S
C407 C406 1.386 . S
C407 C411 1.393 . S
C408 H397 0.950 . S
C408 C406 1.391 . S
C408 C409 1.400 . S
C409 C403 1.491 . S
C409 C408 1.400 . S
C409 C410 1.398 . S
C410 H398 0.950 . S
C410 C409 1.398 . S
C410 C411 1.391 . S
C411 H399 0.950 . S
C411 C407 1.393 . S
C411 C410 1.391 . S
H412 C420 0.950 . S
H413 C425 0.950 . S
H414 C422 0.950 . S
H415 C424 0.950 . S
H416 C426 0.950 . S
H417 C428 0.950 . S
H418 C430 0.950 . S
H419 C431 0.950 . S
C420 H412 0.950 . S
C420 C421 1.386 . S
C420 C422 1.391 . S
C421 C420 1.386 . S
C421 C425 1.393 . S
C422 H414 0.950 . S
C422 C420 1.391 . S
C422 C423 1.400 . S
C423 C422 1.400 . S
C423 C424 1.398 . S
C423 C429 1.491 . S
C424 H415 0.950 . S
C424 C423 1.398 . S
C424 C425 1.391 . S
C425 H413 0.950 . S
C425 C421 1.393 . S
C425 C424 1.391 . S
C426 H416 0.950 . S
C426 C427 1.386 . S
C426 C428 1.391 . S
C427 C426 1.386 . S
C427 C431 1.393 . S
C428 H417 0.950 . S
C428 C426 1.391 . S
C428 C429 1.400 . S
C429 C423 1.491 . S
C429 C428 1.400 . S
C429 C430 1.398 . S
C430 H418 0.950 . S
C430 C429 1.398 . S
C430 C431 1.391 . S
C431 H419 0.950 . S
C431 C427 1.393 . S
C431 C430 1.391 . S
H432 C440 0.950 . S
H433 C445 0.950 . S
H434 C442 0.950 . S
H435 C444 0.950 . S
H436 C446 0.950 . S
H437 C448 0.950 . S
H438 C450 0.950 . S
H439 C451 0.950 . S
C440 H432 0.950 . S
C440 C441 1.386 . S
C440 C442 1.391 . S
C441 C440 1.386 . S
C441 C445 1.393 . S
C442 H434 0.950 . S
C442 C440 1.391 . S
C442 C443 1.400 . S
C443 C442 1.400 . S
C443 C444 1.398 . S
C443 C449 1.491 . S
C444 H435 0.950 . S
C444 C443 1.398 . S
C444 C445 1.391 . S
C445 H433 0.950 . S
C445 C441 1.393 . S
C445 C444 1.391 . S
C446 H436 0.950 . S
C446 C447 1.386 . S
C446 C448 1.391 . S
C447 C446 1.386 . S
C447 C451 1.393 . S
C448 H437 0.950 . S
C448 C446 1.391 . S
C448 C449 1.400 . S
C449 C443 1.491 . S
C449 C448 1.400 . S
C449 C450 1.398 . S
C450 H438 0.950 . S
C450 C449 1.398 . S
C450 C451 1.391 . S
C451 H439 0.950 . S
C451 C447 1.393 . S
C451 C450 1.391 . S
H452 C460 0.950 . S
H453 C465 0.950 . S
H454 C462 0.950 . S
H455 C464 0.950 . S
H456 C466 0.950 . S
H457 C468 0.950 . S
H458 C470 0.950 . S
H459 C471 0.950 . S
C460 H452 0.950 . S
C460 C461 1.386 . S
C460 C462 1.391 . S
C461 C460 1.386 . S
C461 C465 1.393 . S
C462 H454 0.950 . S
C462 C460 1.391 . S
C462 C463 1.400 . S
C463 C462 1.400 . S
C463 C464 1.398 . S
C463 C469 1.491 . S
C464 H455 0.950 . S
C464 C463 1.398 . S
C464 C465 1.391 . S
C465 H453 0.950 . S
C465 C461 1.393 . S
C465 C464 1.391 . S
C466 H456 0.950 . S
C466 C467 1.386 . S
C466 C468 1.391 . S
C467 C466 1.386 . S
C467 C471 1.393 . S
C468 H457 0.950 . S
C468 C466 1.391 . S
C468 C469 1.400 . S
C469 C463 1.491 . S
C469 C468 1.400 . S
C469 C470 1.398 . S
C470 H458 0.950 . S
C470 C469 1.398 . S
C470 C471 1.391 . S
C471 H459 0.950 . S
C471 C467 1.393 . S
C471 C470 1.391 . S
H472 C480 0.950 . S
H473 C485 0.950 . S
H474 C482 0.950 . S
H475 C484 0.950 . S
H476 C486 0.950 . S
H477 C488 0.950 . S
H478 C490 0.950 . S
H479 C491 0.950 . S
C480 H472 0.950 . S
C480 C481 1.386 . S
C480 C482 1.391 . S
C481 C480 1.386 . S
C481 C485 1.393 . S
C482 H474 0.950 . S
C482 C480 1.391 . S
C482 C483 1.400 . S
C483 C482 1.400 . S
C483 C484 1.398 . S
C483 C489 1.491 . S
C484 H475 0.950 . S
C484 C483 1.398 . S
C484 C485 1.391 . S
C485 H473 0.950 . S
C485 C481 1.393 . S
C485 C484 1.391 . S
C486 H476 0.950 . S
C486 C487 1.386 . S
C486 C488 1.391 . S
C487 C486 1.386 . S
C487 C491 1.393 . S
C488 H477 0.950 . S
C488 C486 1.391 . S
C488 C489 1.400 . S
C489 C483 1.491 . S
C489 C488 1.400 . S
C489 C490 1.398 . S
C490 H478 0.950 . S
C490 C489 1.398 . S
C490 C491 1.391 . S
C491 H479 0.950 . S
C491 C487 1.393 . S
C491 C490 1.391 . S
H492 C500 0.950 . S
H493 C505 0.950 . S
H494 C502 0.950 . S
H495 C504 0.950 . S
H496 C506 0.950 . S
H497 C508 0.950 . S
H498 C510 0.950 . S
H499 C511 0.950 . S
C500 H492 0.950 . S
C500 C501 1.386 . S
C500 C502 1.391 . S
C501 C500 1.386 . S
C501 C505 1.393 . S
C502 H494 0.950 . S
C502 C500 1.391 . S
C502 C503 1.400 . S
C503 C502 1.400 . S
C503 C504 1.398 . S
C503 C509 1.491 . S
C504 H495 0.950 . S
C504 C503 1.398 . S
C504 C505 1.391 . S
C505 H493 0.950 . S
C505 C501 1.393 . S
C505 C504 1.391 . S
C506 H496 0.950 . S
C506 C507 1.386 . S
C506 C508 1.391 . S
C507 C506 1.386 . S
C507 C511 1.393 . S
C508 H497 0.950 . S
C508 C506 1.391 . S
C508 C509 1.400 . S
C509 C503 1.491 . S
C509 C508 1.400 . S
C509 C510 1.398 . S
C510 H498 0.950 . S
C510 C509 1.398 . S
C510 C511 1.391 . S
C511 H499 0.950 . S
C511 C507 1.393 . S
C511 C510 1.391 . S
H512 C520 0.950 . S
H513 C525 0.950 . S
H514 C522 0.950 . S
H515 C524 0.950 . S
H516 C526 0.950 . S
H517 C528 0.950 . S
H518 C530 0.950 . S
H519 C531 0.950 . S
C520 H512 0.950 . S
C520 C521 1.386 . S
C520 C522 1.391 . S
C521 C520 1.386 . S
C521 C525 1.393 . S
C522 H514 0.950 . S
C522 C520 1.391 . S
C522 C523 1.400 . S
C523 C522 1.400 . S
C523 C524 1.398 . S
C523 C529 1.491 . S
C524 H515 0.950 . S
C524 C523 1.398 . S
C524 C525 1.391 . S
C525 H513 0.950 . S
C525 C521 1.393 . S
C525 C524 1.391 . S
C526 H516 0.950 . S
C526 C527 1.386 . S
C526 C528 1.391 . S
C527 C526 1.386 . S
C527 C531 1.393 . S
C528 H517 0.950 . S
C528 C526 1.391 . S
C528 C529 1.400 . S
C529 C523 1.491 . S
C529 C528 1.400 . S
C529 C530 1.398 . S
C530 H518 0.950 . S
C530 C529 1.398 . S
C530 C531 1.391 . S
C531 H519 0.950 . S
C531 C527 1.393 . S
C531 C530 1.391 . S
H532 C540 0.950 . S
H533 C545 0.950 . S
H534 C542 0.950 . S
H535 C544 0.950 . S
H536 C546 0.950 . S
H537 C548 0.950 . S
H538 C550 0.950 . S
H539 C551 0.950 . S
C540 H532 0.950 . S
C540 C541 1.386 . S
C540 C542 1.391 . S
C541 C540 1.386 . S
C541 C545 1.393 . S
C542 H534 0.950 . S
C542 C540 1.391 . S
C542 C543 1.400 . S
C543 C542 1.400 . S
C543 C544 1.398 . S
C543 C549 1.491 . S
C544 H535 0.950 . S
C544 C543 1.398 . S
C544 C545 1.391 . S
C545 H533 0.950 . S
C545 C541 1.393 . S
C545 C544 1.391 . S
C546 H536 0.950 . S
C546 C547 1.386 . S
C546 C548 1.391 . S
C547 C546 1.386 . S
C547 C551 1.393 . S
C548 H537 0.950 . S
C548 C546 1.391 . S
C548 C549 1.400 . S
C549 C543 1.491 . S
C549 C548 1.400 . S
C549 C550 1.398 . S
C550 H538 0.950 . S
C550 C549 1.398 . S
C550 C551 1.391 . S
C551 H539 0.950 . S
C551 C547 1.393 . S
C551 C550 1.391 . S
H552 C560 0.950 . S
H553 C565 0.950 . S
H554 C562 0.950 . S
H555 C564 0.950 . S
H556 C566 0.950 . S
H557 C568 0.950 . S
H558 C570 0.950 . S
H559 C571 0.950 . S
C560 H552 0.950 . S
C560 C561 1.386 . S
C560 C562 1.391 . S
C561 C560 1.386 . S
C561 C565 1.393 . S
C562 H554 0.950 . S
C562 C560 1.391 . S
C562 C563 1.400 . S
C563 C562 1.400 . S
C563 C564 1.398 . S
C563 C569 1.491 1_455 S
C564 H555 0.950 . S
C564 C563 1.398 . S
C564 C565 1.391 . S
C565 H553 0.950 . S
C565 C561 1.393 . S
C565 C564 1.391 . S
C566 H556 0.950 . S
C566 C567 1.386 . S
C566 C568 1.391 . S
C567 C566 1.386 . S
C567 C571 1.393 . S
C568 H557 0.950 . S
C568 C566 1.391 . S
C568 C569 1.400 . S
C569 C563 1.491 1_655 S
C569 C568 1.400 . S
C569 C570 1.398 . S
C570 H558 0.950 . S
C570 C569 1.398 . S
C570 C571 1.391 . S
C571 H559 0.950 . S
C571 C567 1.393 . S
C571 C570 1.391 . S
H572 C580 0.950 . S
H573 C585 0.950 . S
H574 C582 0.950 . S
H575 C584 0.950 . S
H576 C586 0.950 . S
H577 C588 0.950 . S
H578 C590 0.950 . S
H579 C591 0.950 . S
C580 H572 0.950 . S
C580 C581 1.386 . S
C580 C582 1.391 . S
C581 C580 1.386 . S
C581 C585 1.393 . S
C582 H574 0.950 . S
C582 C580 1.391 . S
C582 C583 1.400 . S
C583 C582 1.400 . S
C583 C584 1.398 . S
C583 C589 1.491 . S
C584 H575 0.950 . S
C584 C583 1.398 . S
C584 C585 1.391 . S
C585 H573 0.950 . S
C585 C581 1.393 . S
C585 C584 1.391 . S
C586 H576 0.950 . S
C586 C587 1.386 . S
C586 C588 1.391 . S
C587 C586 1.386 . S
C587 C591 1.393 . S
C588 H577 0.950 . S
C588 C586 1.391 . S
C588 C589 1.400 . S
C589 C583 1.491 . S
C589 C588 1.400 . S
C589 C590 1.398 . S
C590 H578 0.950 . S
C590 C589 1.398 . S
C590 C591 1.391 . S
C591 H579 0.950 . S
C591 C587 1.393 . S
C591 C590 1.391 . S
H592 C600 0.950 . S
H593 C605 0.950 . S
H594 C602 0.950 . S
H595 C604 0.950 . S
H596 C606 0.950 . S
H597 C608 0.950 . S
H598 C610 0.950 . S
H599 C611 0.950 . S
C600 H592 0.950 . S
C600 C601 1.386 1_565 S
C600 C602 1.391 . S
C601 C600 1.386 1_545 S
C601 C605 1.393 . S
C602 H594 0.950 . S
C602 C600 1.391 . S
C602 C603 1.400 1_565 S
C603 C602 1.400 1_545 S
C603 C604 1.398 . S
C603 C609 1.491 1_545 S
C604 H595 0.950 . S
C604 C603 1.398 . S
C604 C605 1.391 . S
C605 H593 0.950 . S
C605 C601 1.393 . S
C605 C604 1.391 . S
C606 H596 0.950 . S
C606 C607 1.386 1_545 S
C606 C608 1.391 . S
C607 C606 1.386 1_565 S
C607 C611 1.393 . S
C608 H597 0.950 . S
C608 C606 1.391 . S
C608 C609 1.399 1_545 S
C609 C603 1.491 1_565 S
C609 C608 1.399 1_565 S
C609 C610 1.399 . S
C610 H598 0.950 . S
C610 C609 1.399 . S
C610 C611 1.391 . S
C611 H599 0.950 . S
C611 C607 1.393 . S
C611 C610 1.391 . S
H612 C620 0.950 . S
H613 C625 0.950 . S
H614 C622 0.950 . S
H615 C624 0.933 1_556 S
H616 C626 0.950 . S
H617 C628 0.950 . S
H618 C630 0.950 . S
H619 C631 0.950 . S
C620 H612 0.950 . S
C620 C621 1.386 . S
C620 C622 1.391 . S
C621 C620 1.386 . S
C621 C625 1.393 . S
C622 H614 0.950 . S
C622 C620 1.391 . S
C622 C623 1.400 . S
C623 C622 1.400 . S
C623 C624 1.398 . S
C623 C629 1.491 1_554 S
C624 H615 0.933 1_554 S
C624 C623 1.398 . S
C624 C625 1.391 . S
C625 H613 0.950 . S
C625 C621 1.393 . S
C625 C624 1.391 . S
C626 H616 0.950 . S
C626 C627 1.386 . S
C626 C628 1.391 . S
C627 C626 1.386 . S
C627 C631 1.393 . S
C628 H617 0.950 . S
C628 C626 1.391 . S
C628 C629 1.400 . S
C629 C623 1.491 1_556 S
C629 C628 1.400 . S
C629 C630 1.398 1_556 S
C630 H618 0.950 . S
C630 C629 1.398 1_554 S
C630 C631 1.391 1_554 S
C631 H619 0.950 . S
C631 C627 1.393 . S
C631 C630 1.391 1_556 S
H632 C640 0.950 . S
H633 C645 0.950 . S
H634 C642 0.966 . S
H635 C644 0.950 . S
H636 C646 0.950 . S
H637 C648 0.950 . S
H638 C650 0.950 . S
H639 C651 0.950 . S
C640 H632 0.950 . S
C640 C641 1.386 . S
C640 C642 1.382 1_554 S
C641 C640 1.386 . S
C641 C645 1.393 . S
C642 H634 0.966 . S
C642 C640 1.382 1_556 S
C642 C643 1.394 1_556 S
C643 C642 1.394 1_554 S
C643 C644 1.398 . S
C643 C649 1.491 1_554 S
C644 H635 0.950 . S
C644 C643 1.398 . S
C644 C645 1.391 . S
C645 H633 0.950 . S
C645 C641 1.393 . S
C645 C644 1.391 . S
C646 H636 0.950 . S
C646 C647 1.386 . S
C646 C648 1.391 1_556 S
C647 C646 1.386 . S
C647 C651 1.393 . S
C648 H637 0.950 . S
C648 C646 1.391 1_554 S
C648 C649 1.400 1_554 S
C649 C643 1.491 1_556 S
C649 C648 1.400 1_556 S
C649 C650 1.398 . S
C650 H638 0.950 . S
C650 C649 1.398 . S
C650 C651 1.391 . S
C651 H639 0.950 . S
C651 C647 1.393 . S
C651 C650 1.391 . S
H652 C660 0.950 1_556 S
H653 C665 0.950 . S
H654 C662 0.950 . S
H655 C664 0.950 . S
H656 C666 0.950 1_554 S
H657 C668 0.950 . S
H658 C670 0.950 . S
H659 C671 0.950 . S
C660 H652 0.950 1_554 S
C660 C661 1.386 . S
C660 C662 1.391 1_554 S
C661 C660 1.386 . S
C661 C665 1.393 . S
C662 H654 0.950 . S
C662 C660 1.391 1_556 S
C662 C663 1.400 1_556 S
C663 C662 1.400 1_554 S
C663 C664 1.398 . S
C663 C669 1.491 1_554 S
C664 H655 0.950 . S
C664 C663 1.398 . S
C664 C665 1.391 . S
C665 H653 0.950 . S
C665 C661 1.393 . S
C665 C664 1.391 . S
C666 H656 0.950 1_556 S
C666 C667 1.386 . S
C666 C668 1.391 1_556 S
C667 C666 1.386 . S
C667 C671 1.393 . S
C668 H657 0.950 . S
C668 C666 1.391 1_554 S
C668 C669 1.400 1_554 S
C669 C663 1.491 1_556 S
C669 C668 1.400 1_556 S
C669 C670 1.398 . S
C670 H658 0.950 . S
C670 C669 1.398 . S
C670 C671 1.391 . S
C671 H659 0.950 . S
C671 C667 1.393 . S
C671 C670 1.391 . S
H672 C680 0.950 . S
H673 C685 0.950 . S
H674 C682 0.950 . S
H675 C684 0.950 . S
H676 C686 0.950 . S
H677 C688 0.950 . S
H678 C690 0.950 . S
H679 C691 0.950 . S
C680 H672 0.950 . S
C680 C681 1.386 . S
C680 C682 1.391 . S
C681 C680 1.386 . S
C681 C685 1.393 . S
C682 H674 0.950 . S
C682 C680 1.391 . S
C682 C683 1.400 . S
C683 C682 1.400 . S
C683 C684 1.398 . S
C683 C689 1.491 1_556 S
C684 H675 0.950 . S
C684 C683 1.398 . S
C684 C685 1.391 . S
C685 H673 0.950 . S
C685 C681 1.393 . S
C685 C684 1.391 . S
C686 H676 0.950 . S
C686 C687 1.386 . S
C686 C688 1.391 . S
C687 C686 1.386 . S
C687 C691 1.393 . S
C688 H677 0.950 . S
C688 C686 1.391 . S
C688 C689 1.400 . S
C689 C683 1.491 1_554 S
C689 C688 1.400 . S
C689 C690 1.398 . S
C690 H678 0.950 . S
C690 C689 1.398 . S
C690 C691 1.391 . S
C691 H679 0.950 . S
C691 C687 1.393 . S
C691 C690 1.391 . S
H692 C700 0.950 . S
H693 C705 0.947 1_556 S
H694 C702 0.950 . S
H695 C704 0.950 . S
H696 C706 0.950 . S
H697 C708 0.950 . S
H698 C710 0.950 . S
H699 C711 0.950 1_554 S
C700 H692 0.950 . S
C700 C701 1.386 . S
C700 C702 1.391 . S
C701 C700 1.386 . S
C701 C705 1.397 . S
C702 H694 0.950 . S
C702 C700 1.391 . S
C702 C703 1.400 . S
C703 C702 1.400 . S
C703 C704 1.398 1_554 S
C703 C709 1.491 1_554 S
C704 H695 0.950 . S
C704 C703 1.398 1_556 S
C704 C705 1.389 1_556 S
C705 H693 0.947 1_554 S
C705 C701 1.397 . S
C705 C704 1.389 1_554 S
C706 H696 0.950 . S
C706 C707 1.386 . S
C706 C708 1.391 . S
C707 C706 1.386 . S
C707 C711 1.393 . S
C708 H697 0.950 . S
C708 C706 1.391 . S
C708 C709 1.400 . S
C709 C703 1.491 1_556 S
C709 C708 1.400 . S
C709 C710 1.398 1_556 S
C710 H698 0.950 . S
C710 C709 1.398 1_554 S
C710 C711 1.391 1_554 S
C711 H699 0.950 1_556 S
C711 C707 1.393 . S
C711 C710 1.391 1_556 S
H712 C720 0.950 . S
H713 C725 0.950 . S
H714 C722 0.950 . S
H715 C724 0.950 1_554 S
H716 C726 0.950 . S
H717 C728 0.950 . S
H718 C730 0.950 . S
H719 C731 0.950 1_556 S
C720 H712 0.950 . S
C720 C721 1.386 . S
C720 C722 1.391 . S
C721 C720 1.386 . S
C721 C725 1.393 . S
C722 H714 0.950 . S
C722 C720 1.391 . S
C722 C723 1.400 . S
C723 C722 1.400 . S
C723 C724 1.398 . S
C723 C729 1.491 1_556 S
C724 H715 0.950 1_556 S
C724 C723 1.398 . S
C724 C725 1.391 . S
C725 H713 0.950 . S
C725 C721 1.393 . S
C725 C724 1.391 . S
C726 H716 0.950 . S
C726 C727 1.386 . S
C726 C728 1.391 . S
C727 C726 1.386 . S
C727 C731 1.393 . S
C728 H717 0.950 . S
C728 C726 1.391 . S
C728 C729 1.400 . S
C729 C723 1.491 1_554 S
C729 C728 1.400 . S
C729 C730 1.398 1_554 S
C730 H718 0.950 . S
C730 C729 1.398 1_556 S
C730 C731 1.391 1_556 S
C731 H719 0.950 1_554 S
C731 C727 1.393 . S
C731 C730 1.391 1_554 S
H732 C740 0.950 . S
H733 C745 0.950 . S
H734 C742 0.950 . S
H735 C744 0.950 . S
H736 C746 0.950 . S
H737 C748 0.950 . S
H738 C750 0.950 . S
H739 C751 0.950 . S
C740 H732 0.950 . S
C740 C741 1.386 . S
C740 C742 1.391 . S
C741 C740 1.386 . S
C741 C745 1.393 . S
C742 H734 0.950 . S
C742 C740 1.391 . S
C742 C743 1.400 . S
C743 C742 1.400 . S
C743 C744 1.398 . S
C743 C749 1.491 . S
C744 H735 0.950 . S
C744 C743 1.398 . S
C744 C745 1.391 . S
C745 H733 0.950 . S
C745 C741 1.393 . S
C745 C744 1.391 . S
C746 H736 0.950 . S
C746 C747 1.386 . S
C746 C748 1.391 . S
C747 C746 1.386 . S
C747 C751 1.393 . S
C748 H737 0.950 . S
C748 C746 1.391 . S
C748 C749 1.400 . S
C749 C743 1.491 . S
C749 C748 1.400 . S
C749 C750 1.398 . S
C750 H738 0.950 . S
C750 C749 1.398 . S
C750 C751 1.391 . S
C751 H739 0.950 . S
C751 C747 1.393 . S
C751 C750 1.391 . S
H752 C760 0.950 . S
H753 C765 0.950 . S
H754 C762 0.950 . S
H755 C764 0.950 . S
H756 C766 0.950 . S
H757 C768 0.950 . S
H758 C770 0.950 . S
H759 C771 0.950 . S
C760 H752 0.950 . S
C760 C761 1.386 . S
C760 C762 1.391 . S
C761 C760 1.386 . S
C761 C765 1.393 . S
C762 H754 0.950 . S
C762 C760 1.391 . S
C762 C763 1.400 . S
C763 C762 1.400 . S
C763 C764 1.398 . S
C763 C769 1.491 . S
C764 H755 0.950 . S
C764 C763 1.398 . S
C764 C765 1.391 . S
C765 H753 0.950 . S
C765 C761 1.393 . S
C765 C764 1.391 . S
C766 H756 0.950 . S
C766 C767 1.386 . S
C766 C768 1.391 . S
C767 C766 1.386 . S
C767 C771 1.393 . S
C768 H757 0.950 . S
C768 C766 1.391 . S
C768 C769 1.400 . S
C769 C763 1.491 . S
C769 C768 1.400 . S
C769 C770 1.398 . S
C770 H758 0.950 . S
C770 C769 1.398 . S
C770 C771 1.391 . S
C771 H759 0.950 . S
C771 C767 1.393 . S
C771 C770 1.391 . S
H772 C780 0.950 . S
H773 C785 0.950 . S
H774 C782 0.950 . S
H775 C784 0.950 . S
H776 C786 0.950 . S
H777 C788 0.950 . S
H778 C790 0.950 . S
H779 C791 0.950 . S
C780 H772 0.950 . S
C780 C781 1.386 . S
C780 C782 1.391 . S
C781 C780 1.386 . S
C781 C785 1.393 . S
C782 H774 0.950 . S
C782 C780 1.391 . S
C782 C783 1.400 . S
C783 C782 1.400 . S
C783 C784 1.398 . S
C783 C789 1.491 . S
C784 H775 0.950 . S
C784 C783 1.398 . S
C784 C785 1.391 . S
C785 H773 0.950 . S
C785 C781 1.393 . S
C785 C784 1.391 . S
C786 H776 0.950 . S
C786 C787 1.386 . S
C786 C788 1.391 . S
C787 C786 1.386 . S
C787 C791 1.393 . S
C788 H777 0.950 . S
C788 C786 1.391 . S
C788 C789 1.400 . S
C789 C783 1.491 . S
C789 C788 1.400 . S
C789 C790 1.398 . S
C790 H778 0.950 . S
C790 C789 1.398 . S
C790 C791 1.391 . S
C791 H779 0.950 . S
C791 C787 1.393 . S
C791 C790 1.391 . S
H792 C800 0.950 . S
H793 C805 0.950 . S
H794 C802 0.950 . S
H795 C804 0.950 . S
H796 C806 0.950 . S
H797 C808 0.950 . S
H798 C810 0.950 . S
H799 C811 0.950 . S
C800 H792 0.950 . S
C800 C801 1.386 . S
C800 C802 1.391 . S
C801 C800 1.386 . S
C801 C805 1.393 . S
C802 H794 0.950 . S
C802 C800 1.391 . S
C802 C803 1.400 . S
C803 C802 1.400 . S
C803 C804 1.398 . S
C803 C809 1.491 . S
C804 H795 0.950 . S
C804 C803 1.398 . S
C804 C805 1.391 . S
C805 H793 0.950 . S
C805 C801 1.393 . S
C805 C804 1.391 . S
C806 H796 0.950 . S
C806 C807 1.386 . S
C806 C808 1.391 . S
C807 C806 1.386 . S
C807 C811 1.393 . S
C808 H797 0.950 . S
C808 C806 1.391 . S
C808 C809 1.400 . S
C809 C803 1.491 . S
C809 C808 1.400 . S
C809 C810 1.398 . S
C810 H798 0.950 . S
C810 C809 1.398 . S
C810 C811 1.391 . S
C811 H799 0.950 . S
C811 C807 1.393 . S
C811 C810 1.391 . S
H812 C820 0.950 1_565 S
H813 C825 0.950 . S
H814 C822 0.950 1_565 S
H815 C824 0.950 . S
H816 C826 0.950 . S
H817 C828 0.950 . S
H818 C830 0.950 . S
H819 C831 0.950 . S
C820 H812 0.950 1_545 S
C820 C821 1.386 . S
C820 C822 1.391 . S
C821 C820 1.386 . S
C821 C825 1.393 . S
C822 H814 0.950 1_545 S
C822 C820 1.391 . S
C822 C823 1.400 . S
C823 C822 1.400 . S
C823 C824 1.398 . S
C823 C829 1.491 . S
C824 H815 0.950 . S
C824 C823 1.398 . S
C824 C825 1.391 . S
C825 H813 0.950 . S
C825 C821 1.393 . S
C825 C824 1.391 . S
C826 H816 0.950 . S
C826 C827 1.386 . S
C826 C828 1.391 . S
C827 C826 1.386 . S
C827 C831 1.393 1_545 S
C828 H817 0.950 . S
C828 C826 1.391 . S
C828 C829 1.400 . S
C829 C823 1.491 . S
C829 C828 1.400 . S
C829 C830 1.398 1_545 S
C830 H818 0.950 . S
C830 C829 1.398 1_565 S
C830 C831 1.391 . S
C831 H819 0.950 . S
C831 C827 1.393 1_565 S
C831 C830 1.391 . S
H832 C840 0.950 . S
H833 C845 0.950 . S
H834 C842 0.950 . S
H835 C844 0.950 . S
H836 C846 0.950 . S
H837 C848 0.950 . S
H838 C850 0.950 1_455 S
H839 C851 0.950 1_455 S
C840 H832 0.950 . S
C840 C841 1.386 . S
C840 C842 1.391 . S
C841 C840 1.386 . S
C841 C845 1.393 . S
C842 H834 0.950 . S
C842 C840 1.391 . S
C842 C843 1.400 . S
C843 C842 1.400 . S
C843 C844 1.398 . S
C843 C849 1.491 . S
C844 H835 0.950 . S
C844 C843 1.398 . S
C844 C845 1.391 . S
C845 H833 0.950 . S
C845 C841 1.393 . S
C845 C844 1.391 . S
C846 H836 0.950 . S
C846 C847 1.386 . S
C846 C848 1.391 . S
C847 C846 1.386 . S
C847 C851 1.393 . S
C848 H837 0.950 . S
C848 C846 1.391 . S
C848 C849 1.400 . S
C849 C843 1.491 . S
C849 C848 1.400 . S
C849 C850 1.398 . S
C850 H838 0.950 1_655 S
C850 C849 1.398 . S
C850 C851 1.391 . S
C851 H839 0.950 1_655 S
C851 C847 1.393 . S
C851 C850 1.391 . S
H852 C860 0.950 . S
H853 C865 0.950 . S
H854 C862 0.950 . S
H855 C864 0.950 . S
H856 C866 0.950 . S
H857 C868 0.950 . S
H858 C870 0.950 . S
H859 C871 0.950 . S
C860 H852 0.950 . S
C860 C861 1.386 . S
C860 C862 1.391 . S
C861 C860 1.386 . S
C861 C865 1.393 . S
C862 H854 0.950 . S
C862 C860 1.391 . S
C862 C863 1.400 . S
C863 C862 1.400 . S
C863 C864 1.398 . S
C863 C869 1.491 . S
C864 H855 0.950 . S
C864 C863 1.398 . S
C864 C865 1.391 . S
C865 H853 0.950 . S
C865 C861 1.393 . S
C865 C864 1.391 . S
C866 H856 0.950 . S
C866 C867 1.386 . S
C866 C868 1.391 . S
C867 C866 1.386 . S
C867 C871 1.393 . S
C868 H857 0.950 . S
C868 C866 1.391 . S
C868 C869 1.400 . S
C869 C863 1.491 . S
C869 C868 1.400 . S
C869 C870 1.398 . S
C870 H858 0.950 . S
C870 C869 1.398 . S
C870 C871 1.391 . S
C871 H859 0.950 . S
C871 C867 1.393 . S
C871 C870 1.391 . S
H872 C880 0.950 . S
H873 C885 0.950 . S
H874 C882 0.950 . S
H875 C884 0.950 . S
H876 C886 0.950 1_545 S
H877 C888 0.950 . S
H878 C890 0.950 . S
H879 C891 0.950 . S
C880 H872 0.950 . S
C880 C881 1.386 . S
C880 C882 1.391 . S
C881 C880 1.386 . S
C881 C885 1.393 1_565 S
C882 H874 0.950 . S
C882 C880 1.391 . S
C882 C883 1.400 . S
C883 C882 1.400 . S
C883 C884 1.398 1_565 S
C883 C889 1.491 . S
C884 H875 0.950 . S
C884 C883 1.398 1_545 S
C884 C885 1.391 . S
C885 H873 0.950 . S
C885 C881 1.393 1_545 S
C885 C884 1.391 . S
C886 H876 0.950 1_565 S
C886 C887 1.386 . S
C886 C888 1.391 1_565 S
C887 C886 1.386 . S
C887 C891 1.393 . S
C888 H877 0.950 . S
C888 C886 1.391 1_545 S
C888 C889 1.400 1_545 S
C889 C883 1.491 . S
C889 C888 1.400 1_565 S
C889 C890 1.398 . S
C890 H878 0.950 . S
C890 C889 1.398 . S
C890 C891 1.391 . S
C891 H879 0.950 . S
C891 C887 1.393 . S
C891 C890 1.391 . S
H892 C900 0.950 . S
H893 C905 0.950 . S
H894 C902 0.950 . S
H895 C904 0.950 . S
H896 C906 0.950 . S
H897 C908 0.950 . S
H898 C910 0.950 . S
H899 C911 0.950 . S
C900 H892 0.950 . S
C900 C901 1.386 . S
C900 C902 1.391 . S
C901 C900 1.386 . S
C901 C905 1.393 1_455 S
C902 H894 0.950 . S
C902 C900 1.391 . S
C902 C903 1.400 . S
C903 C902 1.400 . S
C903 C904 1.398 1_455 S
C903 C909 1.491 . S
C904 H895 0.950 . S
C904 C903 1.398 1_655 S
C904 C905 1.391 . S
C905 H893 0.950 . S
C905 C901 1.393 1_655 S
C905 C904 1.391 . S
C906 H896 0.950 . S
C906 C907 1.386 1_655 S
C906 C908 1.391 . S
C907 C906 1.386 1_455 S
C907 C911 1.393 . S
C908 H897 0.950 . S
C908 C906 1.391 . S
C908 C909 1.400 1_655 S
C909 C903 1.491 . S
C909 C908 1.400 1_455 S
C909 C910 1.398 . S
C910 H898 0.950 . S
C910 C909 1.398 . S
C910 C911 1.391 . S
C911 H899 0.950 . S
C911 C907 1.393 . S
C911 C910 1.391 . S
H912 C920 0.950 . S
H913 C925 0.950 . S
H914 C922 0.950 . S
H915 C924 0.950 . S
H916 C926 0.950 . S
H917 C928 0.950 . S
H918 C930 0.950 . S
H919 C931 0.950 . S
C920 H912 0.950 . S
C920 C921 1.386 . S
C920 C922 1.391 . S
C921 C920 1.386 . S
C921 C925 1.393 . S
C922 H914 0.950 . S
C922 C920 1.391 . S
C922 C923 1.400 . S
C923 C922 1.400 . S
C923 C924 1.398 . S
C923 C929 1.491 . S
C924 H915 0.950 . S
C924 C923 1.398 . S
C924 C925 1.391 . S
C925 H913 0.950 . S
C925 C921 1.393 . S
C925 C924 1.391 . S
C926 H916 0.950 . S
C926 C927 1.386 . S
C926 C928 1.391 . S
C927 C926 1.386 . S
C927 C931 1.393 . S
C928 H917 0.950 . S
C928 C926 1.391 . S
C928 C929 1.400 . S
C929 C923 1.491 . S
C929 C928 1.400 . S
C929 C930 1.398 . S
C930 H918 0.950 . S
C930 C929 1.398 . S
C930 C931 1.391 . S
C931 H919 0.950 . S
C931 C927 1.393 . S
C931 C930 1.391 . S
H932 C940 0.950 . S
H933 C945 0.950 . S
H934 C942 0.950 . S
H935 C944 0.950 . S
H936 C946 0.950 . S
H937 C948 0.950 . S
H938 C950 0.950 . S
H939 C951 0.950 . S
C940 H932 0.950 . S
C940 C941 1.386 . S
C940 C942 1.391 . S
C941 C940 1.386 . S
C941 C945 1.393 . S
C942 H934 0.950 . S
C942 C940 1.391 . S
C942 C943 1.400 . S
C943 C942 1.400 . S
C943 C944 1.398 . S
C943 C949 1.491 . S
C944 H935 0.950 . S
C944 C943 1.398 . S
C944 C945 1.391 . S
C945 H933 0.950 . S
C945 C941 1.393 . S
C945 C944 1.391 . S
C946 H936 0.950 . S
C946 C947 1.386 . S
C946 C948 1.391 . S
C947 C946 1.386 . S
C947 C951 1.393 . S
C948 H937 0.950 . S
C948 C946 1.391 . S
C948 C949 1.400 . S
C949 C943 1.491 . S
C949 C948 1.400 . S
C949 C950 1.398 . S
C950 H938 0.950 . S
C950 C949 1.398 . S
C950 C951 1.391 . S
C951 H939 0.950 . S
C951 C947 1.393 . S
C951 C950 1.391 . S
H952 C960 0.950 . S
H953 C965 0.950 . S
H954 C962 0.950 . S
H955 C964 0.950 . S
H956 C966 0.950 . S
H957 C968 0.950 . S
H958 C970 0.950 . S
H959 C971 0.950 . S
C960 H952 0.950 . S
C960 C961 1.386 . S
C960 C962 1.391 . S
C961 C960 1.386 . S
C961 C965 1.393 . S
C962 H954 0.950 . S
C962 C960 1.391 . S
C962 C963 1.400 . S
C963 C962 1.400 . S
C963 C964 1.398 . S
C963 C969 1.491 . S
C964 H955 0.950 . S
C964 C963 1.398 . S
C964 C965 1.391 . S
C965 H953 0.950 . S
C965 C961 1.393 . S
C965 C964 1.391 . S
C966 H956 0.950 . S
C966 C967 1.386 . S
C966 C968 1.391 . S
C967 C966 1.386 . S
C967 C971 1.393 . S
C968 H957 0.950 . S
C968 C966 1.391 . S
C968 C969 1.400 . S
C969 C963 1.491 . S
C969 C968 1.400 . S
C969 C970 1.398 . S
C970 H958 0.950 . S
C970 C969 1.398 . S
C970 C971 1.391 . S
C971 H959 0.950 . S
C971 C967 1.393 . S
C971 C970 1.391 . S
C261 C8 2.110 . S
C267 C45 2.125 . S
C281 C17 2.080 . S
C287 C59 2.082 . S
C301 C73 2.054 . S
C307 C36 2.038 . S
C321 C92 2.104 . S
C327 C129 2.117 . S
C341 C101 2.084 . S
C347 C143 2.086 . S
C361 C157 2.052 . S
C367 C120 2.036 . S
C381 C213 2.128 . S
C387 C176 2.110 . S
C401 C227 2.085 . S
C407 C185 2.083 . S
C421 C241 2.055 . S
C427 C204 2.042 . S
C441 C3 1.698 . S
C447 C134 1.703 . S
C461 C22 1.681 . S
C467 C148 1.679 . S
C481 C162 1.671 . S
C487 C31 1.658 . S
C501 C50 1.697 . S
C507 C171 1.686 . S
C521 C64 1.679 . S
C527 C190 1.681 . S
C541 C78 1.652 . S
C547 C199 1.640 . S
C561 C87 1.704 . S
C567 C218 1.717 . S
C581 C106 1.678 . S
C587 C232 1.675 . S
C601 C246 1.650 . S
C607 C115 1.633 . S
C621 C7 0.474 . S
C627 C63 0.491 . S
C641 C23 0.480 . S
C647 C77 0.491 . S
C661 C35 0.495 . S
C667 C49 0.490 . S
C681 C51 0.550 . S
C687 C21 0.554 . S
C701 C37 0.555 . S
C707 C65 0.567 . S
C721 C79 0.539 . S
C727 C9 0.566 . S
C741 C91 0.537 . S
C747 C147 0.504 . S
C761 C161 0.451 . S
C767 C107 0.442 . S
C781 C133 0.486 . S
C787 C119 0.507 . S
C801 C105 0.515 . S
C807 C135 0.506 . S
C821 C149 0.548 . S
C827 C121 0.580 . S
C841 C163 0.550 . S
C847 C93 0.568 . S
C861 C231 0.497 . S
C867 C175 0.488 . S
C881 C245 0.449 . S
C887 C191 0.440 . S
C901 C203 0.485 . S
C907 C217 0.447 . S
C921 C189 0.527 . S
C927 C219 0.537 . S
C941 C205 0.543 . S
C947 C233 0.574 . S
C961 C177 0.564 . S
C967 C247 0.572 . S
