# Generated by pormake.
# Topology unn, (4)-cn, num edge types: 1
# Building blocks:
#     Node 0, Type 0, BuildingBlock: NAWXER_clean_sbu_0, # of connection points: 4
#     Node 1, Type 0, BuildingBlock: NAWXER_clean_sbu_0, # of connection points: 4
#     Node 2, Type 0, BuildingBlock: NAWXER_clean_sbu_0, # of connection points: 4
#     Node 3, Type 0, BuildingBlock: NAWXER_clean_sbu_0, # of connection points: 4
#     Node 4, Type 0, BuildingBlock: NAWXER_clean_sbu_0, # of connection points: 4
#     Node 5, Type 0, BuildingBlock: NAWXER_clean_sbu_0, # of connection points: 4
#     Node 6, Type 0, BuildingBlock: NAWXER_clean_sbu_0, # of connection points: 4
#     Node 7, Type 0, BuildingBlock: NAWXER_clean_sbu_0, # of connection points: 4
#     Node 8, Type 0, BuildingBlock: NAWXER_clean_sbu_0, # of connection points: 4
#     Node 9, Type 0, BuildingBlock: NAWXER_clean_sbu_0, # of connection points: 4
#     Node 10, Type 0, BuildingBlock: NAWXER_clean_sbu_0, # of connection points: 4
#     Node 11, Type 0, BuildingBlock: NAWXER_clean_sbu_0, # of connection points: 4
#     Node 12, Type 0, BuildingBlock: NAWXER_clean_sbu_0, # of connection points: 4
#     Node 13, Type 0, BuildingBlock: NAWXER_clean_sbu_0, # of connection points: 4
#     Node 14, Type 0, BuildingBlock: NAWXER_clean_sbu_0, # of connection points: 4
#     Node 15, Type 0, BuildingBlock: NAWXER_clean_sbu_0, # of connection points: 4
#     Node 16, Type 0, BuildingBlock: NAWXER_clean_sbu_0, # of connection points: 4
#     Node 17, Type 0, BuildingBlock: NAWXER_clean_sbu_0, # of connection points: 4
#     Edge 18, Type (0, 0), BuildingBlock: AJUNOK_clean_linker_0, # of connection points: 2
#     Edge 19, Type (0, 0), BuildingBlock: AJUNOK_clean_linker_0, # of connection points: 2
#     Edge 20, Type (0, 0), BuildingBlock: AJUNOK_clean_linker_0, # of connection points: 2
#     Edge 21, Type (0, 0), BuildingBlock: AJUNOK_clean_linker_0, # of connection points: 2
#     Edge 22, Type (0, 0), BuildingBlock: AJUNOK_clean_linker_0, # of connection points: 2
#     Edge 23, Type (0, 0), BuildingBlock: AJUNOK_clean_linker_0, # of connection points: 2
#     Edge 24, Type (0, 0), BuildingBlock: AJUNOK_clean_linker_0, # of connection points: 2
#     Edge 25, Type (0, 0), BuildingBlock: AJUNOK_clean_linker_0, # of connection points: 2
#     Edge 26, Type (0, 0), BuildingBlock: AJUNOK_clean_linker_0, # of connection points: 2
#     Edge 27, Type (0, 0), BuildingBlock: AJUNOK_clean_linker_0, # of connection points: 2
#     Edge 28, Type (0, 0), BuildingBlock: AJUNOK_clean_linker_0, # of connection points: 2
#     Edge 29, Type (0, 0), BuildingBlock: AJUNOK_clean_linker_0, # of connection points: 2
#     Edge 30, Type (0, 0), BuildingBlock: AJUNOK_clean_linker_0, # of connection points: 2
#     Edge 31, Type (0, 0), BuildingBlock: AJUNOK_clean_linker_0, # of connection points: 2
#     Edge 32, Type (0, 0), BuildingBlock: AJUNOK_clean_linker_0, # of connection points: 2
#     Edge 33, Type (0, 0), BuildingBlock: AJUNOK_clean_linker_0, # of connection points: 2
#     Edge 34, Type (0, 0), BuildingBlock: AJUNOK_clean_linker_0, # of connection points: 2
#     Edge 35, Type (0, 0), BuildingBlock: AJUNOK_clean_linker_0, # of connection points: 2
#     Edge 36, Type (0, 0), BuildingBlock: AJUNOK_clean_linker_0, # of connection points: 2
#     Edge 37, Type (0, 0), BuildingBlock: AJUNOK_clean_linker_0, # of connection points: 2
#     Edge 38, Type (0, 0), BuildingBlock: AJUNOK_clean_linker_0, # of connection points: 2
#     Edge 39, Type (0, 0), BuildingBlock: AJUNOK_clean_linker_0, # of connection points: 2
#     Edge 40, Type (0, 0), BuildingBlock: AJUNOK_clean_linker_0, # of connection points: 2
#     Edge 41, Type (0, 0), BuildingBlock: AJUNOK_clean_linker_0, # of connection points: 2
#     Edge 42, Type (0, 0), BuildingBlock: AJUNOK_clean_linker_0, # of connection points: 2
#     Edge 43, Type (0, 0), BuildingBlock: AJUNOK_clean_linker_0, # of connection points: 2
#     Edge 44, Type (0, 0), BuildingBlock: AJUNOK_clean_linker_0, # of connection points: 2
#     Edge 45, Type (0, 0), BuildingBlock: AJUNOK_clean_linker_0, # of connection points: 2
#     Edge 46, Type (0, 0), BuildingBlock: AJUNOK_clean_linker_0, # of connection points: 2
#     Edge 47, Type (0, 0), BuildingBlock: AJUNOK_clean_linker_0, # of connection points: 2
#     Edge 48, Type (0, 0), BuildingBlock: AJUNOK_clean_linker_0, # of connection points: 2
#     Edge 49, Type (0, 0), BuildingBlock: AJUNOK_clean_linker_0, # of connection points: 2
#     Edge 50, Type (0, 0), BuildingBlock: AJUNOK_clean_linker_0, # of connection points: 2
#     Edge 51, Type (0, 0), BuildingBlock: AJUNOK_clean_linker_0, # of connection points: 2
#     Edge 52, Type (0, 0), BuildingBlock: AJUNOK_clean_linker_0, # of connection points: 2
#     Edge 53, Type (0, 0), BuildingBlock: AJUNOK_clean_linker_0, # of connection points: 2
# Relax obj value: 0.039
# Max RMSD: 0.205
# Mean RMSD: 0.205
data_MOF--net-unn--node1-NAWXER_clean_sbu_0--edge1-AJUNOK_clean_linker_0
_symmetry_space_group_name_H-M    P1
_symmetry_Int_Tables_number       1
_symmetry_cell_setting            triclinic
loop_
_symmetry_equiv_pos_as_xyz
'x, y, z'
_cell_length_a     32.959258
_cell_length_b     32.921289
_cell_length_c     31.078076
_cell_angle_alpha  90.061723
_cell_angle_beta   89.971586
_cell_angle_gamma 120.03673
loop_
_atom_site_label
_atom_site_type_symbol
_atom_site_fract_x
_atom_site_fract_y
_atom_site_fract_z
_atom_type_partial_charge
C0 C 0.95207 0.7306 0.20472 0.0
C1 C 0.11166 0.81145 0.27161 0.0
O2 O 0.97447 0.77395 0.21524 0.0
Zn3 Zn 0.03209 0.77645 0.23777 0.0
O4 O 0.97027 0.7052 0.21315 0.0
Zn5 Zn 0.03188 0.71008 0.2386 0.0
O6 O 1.00995 0.67173 0.29023 0.0
O7 O 1.00983 0.73861 0.29588 0.0
O8 O 0.09345 0.7677 0.26363 0.0
O9 O 0.08956 0.83235 0.26012 0.0
O10 O 0.05522 0.76 0.18056 0.0
O11 O 0.05436 0.69287 0.18793 0.0
C12 C 1.00426 0.70083 0.31285 0.0
C13 C 0.06132 0.72763 0.16464 0.0
C14 C 0.34094 0.24181 0.20847 0.0
C15 C 0.25883 0.32039 0.27309 0.0
O16 O 0.29801 0.22081 0.2201 0.0
Zn17 Zn 0.29492 0.27617 0.24059 0.0
O18 O 0.36594 0.28602 0.2148 0.0
Zn19 Zn 0.35952 0.34312 0.23814 0.0
O20 O 0.39935 0.36472 0.28816 0.0
O21 O 0.33537 0.29576 0.29763 0.0
O22 O 0.302 0.34654 0.26356 0.0
O23 O 0.23875 0.27681 0.26355 0.0
O24 O 0.30808 0.31279 0.18169 0.0
O25 O 0.37408 0.38065 0.18692 0.0
C26 C 0.373 0.33039 0.31249 0.0
C27 C 0.33911 0.35134 0.16472 0.0
C28 C 0.74648 0.95184 0.27226 0.0
C29 C 0.82461 0.11146 0.20625 0.0
O30 O 0.78955 0.97554 0.26139 0.0
Zn31 Zn 0.78955 0.03166 0.23923 0.0
O32 O 0.71968 0.96863 0.26427 0.0
Zn33 Zn 0.72359 0.03045 0.23841 0.0
O34 O 0.68444 1.00722 0.18792 0.0
O35 O 0.75152 1.00793 0.18115 0.0
O36 O 0.78064 0.09336 0.21314 0.0
O37 O 0.84487 0.0889 0.21801 0.0
O38 O 0.77248 0.05392 0.2967 0.0
O39 O 0.70503 0.05206 0.28846 0.0
C40 C 0.71283 1.00084 0.16501 0.0
C41 C 0.73954 0.05933 0.31217 0.0
C42 C 1.00622 0.32832 0.81183 0.0
C43 C 0.06028 0.34797 0.66338 0.0
O44 O 1.0103 0.29439 0.79681 0.0
Zn45 Zn 0.03068 0.27435 0.74017 0.0
O46 O 1.01349 0.36246 0.78749 0.0
Zn47 Zn 0.03311 0.34181 0.73727 0.0
O48 O 0.96975 0.28472 0.71446 0.0
O49 O 0.97168 0.21911 0.71999 0.0
O50 O 0.05574 0.37839 0.68496 0.0
O51 O 0.05318 0.31003 0.68122 0.0
O52 O 0.08777 0.27553 0.76283 0.0
O53 O 0.09407 0.34523 0.76254 0.0
C54 C 0.95009 0.24049 0.70838 0.0
C55 C 0.11131 0.31923 0.77197 0.0
C56 C 0.73137 0.68721 0.81149 0.0
C57 C 0.71049 0.72126 0.66377 0.0
O58 O 0.76573 0.72517 0.79701 0.0
Zn59 Zn 0.78458 0.76586 0.7403 0.0
O60 O 0.6964 0.66163 0.78754 0.0
Zn61 Zn 0.71828 0.70196 0.73776 0.0
O62 O 0.77614 0.69558 0.71452 0.0
O63 O 0.84035 0.76434 0.72132 0.0
O64 O 0.68098 0.6868 0.68631 0.0
O65 O 0.74892 0.75253 0.68072 0.0
O66 O 0.78488 0.82195 0.76292 0.0
O67 O 0.71434 0.75979 0.76348 0.0
C68 C 0.82044 0.72161 0.70914 0.0
C69 C 0.74156 0.80306 0.77259 0.0
C70 C 0.32896 0.10966 0.70448 0.0
C71 C 0.25074 0.94922 0.76776 0.0
O72 O 0.35605 0.09309 0.71182 0.0
Zn73 Zn 0.35224 0.03095 0.73633 0.0
O74 O 0.28605 0.08563 0.71566 0.0
Zn75 Zn 0.28643 0.02938 0.73658 0.0
O76 O 0.32427 0.05117 0.79528 0.0
O77 O 0.39153 0.05273 0.78687 0.0
O78 O 0.23085 0.97238 0.75681 0.0
O79 O 0.29472 0.96703 0.76071 0.0
O80 O 0.37162 1.01182 0.68519 0.0
O81 O 0.30272 1.00731 0.67826 0.0
C82 C 0.36307 0.05783 0.81085 0.0
C83 C 0.33623 1.00324 0.6622 0.0
C84 C 0.61572 0.06071 0.54356 0.0
C85 C 0.77686 0.14716 0.60634 0.0
O86 O 0.63657 0.10353 0.55572 0.0
Zn87 Zn 0.69605 0.10837 0.57488 0.0
O88 O 0.63624 0.03685 0.54893 0.0
Zn89 Zn 0.70098 0.04526 0.57136 0.0
O90 O 0.68242 1.00413 0.62079 0.0
O91 O 0.67707 0.06766 0.63146 0.0
O92 O 0.7616 0.10407 0.59705 0.0
O93 O 0.75158 0.16529 0.59717 0.0
O94 O 0.71868 0.09651 0.51523 0.0
O95 O 0.72393 0.03221 0.51886 0.0
C96 C 0.67422 0.02992 0.64575 0.0
C97 C 0.72683 0.06641 0.49724 0.0
C98 C 0.0354 0.66108 0.64587 0.0
C99 C 0.99935 0.68136 0.49827 0.0
O100 O 0.06009 0.69647 0.62201 0.0
Zn101 Zn 1.02022 0.6738 0.57197 0.0
O102 O 0.99839 0.62569 0.631 0.0
Zn103 Zn 0.95742 0.60561 0.57402 0.0
O104 O 0.9626 0.55169 0.55321 0.0
O105 O 1.02929 0.61832 0.54813 0.0
O106 O 0.96929 0.64216 0.51497 0.0
O107 O 0.0334 0.71145 0.52088 0.0
O108 O 0.96149 0.6742 0.59818 0.0
O109 O 0.89998 0.60323 0.59755 0.0
C110 C 1.00551 0.57406 0.54155 0.0
C111 C 0.91864 0.64649 0.60786 0.0
C112 C 0.48738 0.44347 0.53822 0.0
C113 C 0.40642 0.28149 0.60046 0.0
O114 O 0.5076 0.42003 0.54715 0.0
Zn115 Zn 0.45201 0.36211 0.56913 0.0
O116 O 0.44395 0.42565 0.54703 0.0
Zn117 Zn 0.38679 0.36373 0.57117 0.0
O118 O 0.37088 0.38464 0.62337 0.0
O119 O 0.43691 0.38278 0.62835 0.0
O120 O 0.38123 0.30034 0.59377 0.0
O121 O 0.44953 0.3038 0.58929 0.0
O122 O 0.4121 0.34061 0.51219 0.0
O123 O 0.34761 0.34494 0.52053 0.0
C124 C 0.40513 0.38873 0.64572 0.0
C125 C 0.37416 0.3364 0.49708 0.0
C126 C 0.67283 0.65701 0.14372 0.0
C127 C 0.72802 0.68434 -0.00415 0.0
O128 O 0.67831 0.62424 0.1278 0.0
Zn129 Zn 0.6995 0.60742 0.06942 0.0
O130 O 0.67934 0.69151 0.12034 0.0
Zn131 Zn 0.70029 0.67347 0.06972 0.0
O132 O 0.63756 0.6165 0.04586 0.0
O133 O 0.64153 0.55189 0.04787 0.0
O134 O 0.72002 0.71173 0.01862 0.0
O135 O 0.7228 0.64624 0.01175 0.0
O136 O 0.75593 0.60779 0.0905 0.0
O137 O 0.76279 0.67777 0.09399 0.0
C138 C 0.6189 0.57268 0.03806 0.0
C139 C 0.77971 0.65093 0.10139 0.0
C140 C 0.4063 0.02945 0.14428 0.0
C141 C 0.38471 0.06453 -0.00384 0.0
O142 O 0.44018 0.06742 0.12916 0.0
Zn143 Zn 0.45924 0.10772 0.07232 0.0
O144 O 0.37163 1.00315 0.12021 0.0
Zn145 Zn 0.39199 0.04402 0.07022 0.0
O146 O 0.44847 0.03651 0.04571 0.0
O147 O 0.51379 0.10446 0.05138 0.0
O148 O 0.35437 0.0301 0.01827 0.0
O149 O 0.42306 0.09513 0.01359 0.0
O150 O 0.4609 0.16447 0.09488 0.0
O151 O 0.38996 0.1028 0.09673 0.0
C152 C 0.49261 0.06169 0.03915 0.0
C153 C 0.41783 0.14612 0.1054 0.0
C154 C 0.99618 0.44715 0.04219 0.0
C155 C 0.91647 0.28526 0.10447 0.0
O156 O 1.02167 0.42874 0.04912 0.0
Zn157 Zn 1.01711 0.36618 0.07181 0.0
O158 O 0.95287 0.42432 0.05265 0.0
Zn159 Zn 0.95084 0.36618 0.07308 0.0
O160 O 0.9898 0.38709 0.1306 0.0
O161 O 0.05641 0.38687 0.12267 0.0
O162 O 0.89547 0.30771 0.09451 0.0
O163 O 0.9601 0.30382 0.09608 0.0
O164 O 0.03371 0.34565 0.01958 0.0
O165 O 0.96694 0.346 0.01427 0.0
C166 C 1.02791 0.39229 0.14638 0.0
C167 C 0.99923 0.34078 -0.00291 0.0
C168 C 0.28505 0.3999 0.87334 0.0
C169 C 0.44582 0.48101 0.936 0.0
O170 O 0.30851 0.44306 0.8841 0.0
Zn171 Zn 0.36557 0.44453 0.90455 0.0
O172 O 0.30247 0.37349 0.88065 0.0
Zn173 Zn 0.36531 0.3788 0.90511 0.0
O174 O 0.34479 0.34071 0.95677 0.0
O175 O 0.34512 0.40776 0.96302 0.0
O176 O 0.42839 0.43709 0.9289 0.0
O177 O 0.42247 0.50069 0.92498 0.0
O178 O 0.38726 0.42774 0.84683 0.0
O179 O 0.38643 0.36064 0.85437 0.0
C180 C 0.33993 0.37005 0.97977 0.0
C181 C 0.39297 0.39513 0.83094 0.0
C182 C 0.66577 1.0057 0.83043 0.0
C183 C 0.69065 0.98161 0.98026 0.0
O184 O 0.6999 0.03489 0.85358 0.0
Zn185 Zn 0.68181 0.9971 0.90527 0.0
O186 O 0.63298 0.96792 0.8469 0.0
Zn187 Zn 0.61544 0.93095 0.90552 0.0
O188 O 0.5597 0.93395 0.9258 0.0
O189 O 0.62434 1.00266 0.9279 0.0
O190 O 0.65282 0.94875 0.9639 0.0
O191 O 0.71981 1.01548 0.95688 0.0
O192 O 0.68662 0.93907 0.88279 0.0
O193 O 0.61769 0.87474 0.8856 0.0
C194 C 0.58048 0.97757 0.93533 0.0
C195 C 0.66113 0.89511 0.87569 0.0
C196 C 0.1563 0.77563 0.86946 0.0
C197 C 0.07647 0.61541 0.934 0.0
O198 O 0.17659 0.75252 0.8793 0.0
Zn199 Zn 0.12081 0.69536 0.90192 0.0
O200 O 0.11304 0.75829 0.87883 0.0
Zn201 Zn 0.05596 0.69691 0.90442 0.0
O202 O 0.0408 0.7186 0.95679 0.0
O203 O 0.10651 0.71625 0.96156 0.0
O204 O 0.0503 0.63325 0.92742 0.0
O205 O 0.11935 0.63818 0.92226 0.0
O206 O 0.07982 0.67241 0.84533 0.0
O207 O 1.01606 0.6779 0.85415 0.0
C208 C 0.07496 0.72244 0.9791 0.0
C209 C 0.04183 0.66842 0.83053 0.0
C210 C 0.33981 0.99616 0.47748 0.0
C211 C 0.39352 1.0096 0.32959 0.0
O212 O 0.34203 0.96055 0.46435 0.0
Zn213 Zn 0.36257 0.93847 0.40866 0.0
O214 O 0.35041 0.03062 0.45243 0.0
Zn215 Zn 0.3678 1.00606 0.4037 0.0
O216 O 0.30256 0.94886 0.3812 0.0
O217 O 0.30415 0.88333 0.39026 0.0
O218 O 0.3912 0.0414 0.35096 0.0
O219 O 0.38504 0.97144 0.34799 0.0
O220 O 0.4175 0.93687 0.43201 0.0
O221 O 0.42815 1.00829 0.43054 0.0
C222 C 0.28287 0.90427 0.3767 0.0
C223 C 0.44297 0.98039 0.4408 0.0
C224 C 0.08646 0.48251 0.43821 0.0
C225 C 0.16468 0.40081 0.37343 0.0
O226 O 0.05957 0.43885 0.43021 0.0
Zn227 Zn 0.06348 0.3808 0.40453 0.0
O228 O 0.1295 0.5019 0.42727 0.0
Zn229 Zn 0.12922 0.44551 0.40547 0.0
O230 O 0.09151 0.43076 0.3469 0.0
O231 O 1.02443 0.36439 0.35419 0.0
O232 O 0.18477 0.44368 0.38521 0.0
O233 O 0.12062 0.37482 0.37984 0.0
O234 O 0.04423 0.34068 0.45441 0.0
O235 O 0.11148 0.40652 0.46333 0.0
C236 C 0.05275 0.39885 0.33098 0.0
C237 C 0.07824 0.36814 0.47854 0.0
C238 C 0.66486 0.77796 0.37372 0.0
C239 C 0.57881 0.6159 0.43497 0.0
O240 O 0.68909 0.75809 0.38051 0.0
Zn241 Zn 0.68143 0.69391 0.40346 0.0
O242 O 0.62166 0.75643 0.38449 0.0
Zn243 Zn 0.61707 0.69713 0.40434 0.0
O244 O 0.65488 0.71568 0.46224 0.0
O245 O 0.72004 0.71261 0.45501 0.0
O246 O 0.56018 0.64059 0.42508 0.0
O247 O 0.6223 0.63213 0.42706 0.0
O248 O 0.69713 0.67219 0.35138 0.0
O249 O 0.63183 0.67523 0.34588 0.0
C250 C 0.69196 0.71893 0.47849 0.0
C251 C 0.6631 0.66832 0.32879 0.0
C252 C 0.05786 0.75605 0.09119 0.0
C253 C 0.06938 0.72843 0.11774 0.0
C254 C 0.06005 0.75443 0.04629 0.0
C255 C 0.07496 0.72606 0.02632 0.0
H256 H 0.04545 0.77805 0.10504 0.0
H257 H 0.04985 0.77533 0.02713 0.0
S258 S 0.10918 0.64708 0.08055 0.0
N259 N 0.09606 0.67175 0.12037 0.0
N260 N 0.10134 0.66948 0.03595 0.0
C261 C 0.08755 0.69898 0.05231 0.0
C262 C 0.08446 0.69996 0.09803 0.0
C263 C 0.31217 0.32191 0.0467 0.0
C264 C 0.33677 0.36591 0.02693 0.0
C265 C 0.31161 0.31796 0.09156 0.0
C266 C 0.33658 0.3578 0.11807 0.0
H267 H 0.29355 0.29038 0.02743 0.0
H268 H 0.29276 0.28313 0.10542 0.0
S269 S 0.40731 0.4811 0.08163 0.0
N270 N 0.38679 0.45034 0.03695 0.0
N271 N 0.38628 0.44254 0.12119 0.0
C272 C 0.36108 0.40204 0.09864 0.0
C273 C 0.36102 0.40618 0.05306 0.0
C274 C 0.7446 1.00609 0.09128 0.0
C275 C 0.70535 0.99169 0.11841 0.0
C276 C 0.73983 1.00239 0.04649 0.0
C277 C 0.69555 0.98313 0.02737 0.0
H278 H 0.77963 0.02189 0.1046 0.0
H279 H 0.77093 1.01486 0.02676 0.0
S280 S 0.58168 0.93978 0.08376 0.0
N281 N 0.62088 0.95735 0.12277 0.0
N282 N 0.61151 0.94944 0.0386 0.0
C283 C 0.65586 0.96765 0.05408 0.0
C284 C 0.66085 0.97219 0.09962 0.0
C285 C 0.76183 0.05424 0.43085 0.0
C286 C 0.73264 0.06844 0.45024 0.0
C287 C 0.76542 0.05376 0.38604 0.0
C288 C 0.73905 0.06639 0.35903 0.0
H289 H 0.78175 0.04314 0.45039 0.0
H290 H 0.7878 0.04161 0.37256 0.0
S291 S 0.65687 0.1057 0.39449 0.0
N292 N 0.677 0.09582 0.43955 0.0
N293 N 0.68313 0.09388 0.35519 0.0
C294 C 0.71004 0.08109 0.37814 0.0
C295 C 0.70699 0.08238 0.4238 0.0
C296 C 0.97346 0.6481 0.42461 0.0
C297 C 0.99729 0.68788 0.45144 0.0
C298 C 0.97513 0.65224 0.37968 0.0
C299 C 0.99973 0.69637 0.36007 0.0
H300 H 0.95473 0.61319 0.4383 0.0
H301 H 0.95741 0.62076 0.36023 0.0
S302 S 0.0675 0.81147 0.41559 0.0
N303 N 0.04587 0.77271 0.45495 0.0
N304 N 0.04849 0.78084 0.37068 0.0
C305 C 1.02277 0.73655 0.3865 0.0
C306 C 1.02168 0.73222 0.43215 0.0
C307 C 0.35925 0.29253 0.42857 0.0
C308 C 0.36946 0.33387 0.45035 0.0
C309 C 0.36286 0.29219 0.38367 0.0
C310 C 0.37861 0.33358 0.35949 0.0
H311 H 0.34864 0.26046 0.44635 0.0
H312 H 0.35291 0.25924 0.36767 0.0
S313 S 0.41296 0.4516 0.40267 0.0
N314 N 0.39765 0.41739 0.44549 0.0
N315 N 0.40558 0.41723 0.3611 0.0
C316 C 0.39031 0.37545 0.3813 0.0
C317 C 0.38544 0.37545 0.4268 0.0
C318 C 1.01339 0.30362 0.88575 0.0
C319 C 1.00072 0.33008 0.85882 0.0
C320 C 1.01308 0.30718 0.93058 0.0
C321 C 0.99904 0.33645 0.95005 0.0
H322 H 1.02504 0.28087 0.87219 0.0
H323 H 1.0237 0.28683 0.95006 0.0
S324 S 0.96326 0.41362 0.8947 0.0
N325 N 0.97452 0.38707 0.85524 0.0
N326 N 0.97284 0.39308 0.93966 0.0
C327 C 0.98578 0.36274 0.92372 0.0
C328 C 0.98689 0.35974 0.87805 0.0
C329 C 0.69734 0.6916 0.92563 0.0
C330 C 0.73266 0.68949 0.94908 0.0
C331 C 0.69518 0.6871 0.8808 0.0
C332 C 0.72864 0.68103 0.85813 0.0
H333 H 0.67037 0.69525 0.94216 0.0
H334 H 0.6681 0.68995 0.86362 0.0
S335 S 0.82843 0.6742 0.90458 0.0
N336 N 0.80123 0.68021 0.94671 0.0
N337 N 0.79876 0.67458 0.86187 0.0
C338 C 0.76448 0.67958 0.88109 0.0
C339 C 0.766 0.68296 0.9268 0.0
C340 C 0.33592 0.04948 0.93008 0.0
C341 C 0.38001 0.06639 0.94911 0.0
C342 C 0.33131 0.04902 0.88524 0.0
C343 C 0.3705 0.06443 0.85783 0.0
H344 H 0.30481 0.03627 0.9499 0.0
H345 H 0.29638 0.03481 0.87201 0.0
S346 S 0.49376 0.11142 0.89202 0.0
N347 N 0.46385 0.09921 0.93738 0.0
N348 N 0.4548 0.0974 0.85318 0.0
C349 C 0.41484 0.08178 0.87655 0.0
C350 C 0.41968 0.083 0.92217 0.0
C351 C 0.37786 0.02739 0.59221 0.0
C352 C 0.33681 0.99782 0.61529 0.0
C353 C 0.37747 0.02893 0.5472 0.0
C354 C 0.33621 1.00058 0.52393 0.0
H355 H 0.41015 0.05048 0.60905 0.0
H356 H 0.40999 0.05145 0.53041 0.0
S357 S 0.22021 0.9157 0.56888 0.0
N358 N 0.25395 0.93931 0.61154 0.0
N359 N 0.25407 0.94071 0.52659 0.0
C360 C 0.29526 0.9702 0.54641 0.0
C361 C 0.29533 0.9693 0.59225 0.0
C362 C 0.09566 0.39601 0.59746 0.0
C363 C 0.06712 0.35221 0.6165 0.0
C364 C 0.10071 0.40019 0.55272 0.0
C365 C 0.07649 0.36084 0.52546 0.0
H366 H 0.11402 0.42721 0.61719 0.0
H367 H 0.12247 0.43494 0.53941 0.0
S368 S 0.99669 0.2383 0.5599 0.0
N369 N 1.0143 0.26851 0.60516 0.0
N370 N 1.02319 0.27677 0.52096 0.0
C371 C 0.04807 0.31679 0.54423 0.0
C372 C 0.04354 0.31238 0.5898 0.0
C373 C 0.74025 0.7466 0.5455 0.0
C374 C 0.69636 0.72152 0.52565 0.0
C375 C 0.74408 0.74772 0.59043 0.0
C376 C 0.70424 0.72287 0.61691 0.0
H377 H 0.77171 0.76543 0.52625 0.0
H378 H 0.77879 0.76711 0.60439 0.0
S379 S 0.58134 0.65033 0.58008 0.0
N380 N 0.61216 0.67066 0.53546 0.0
N381 N 0.61969 0.67223 0.61976 0.0
C382 C 0.66017 0.69757 0.59732 0.0
C383 C 0.65616 0.69704 0.5517 0.0
C384 C 0.38831 0.42269 0.75755 0.0
C385 C 0.40035 0.39546 0.78407 0.0
C386 C 0.39012 0.42075 0.71268 0.0
C387 C 0.4051 0.39241 0.69281 0.0
H388 H 0.37587 0.44467 0.77141 0.0
H389 H 0.37966 0.44142 0.69348 0.0
S390 S 0.44039 0.31429 0.74706 0.0
N391 N 0.4275 0.33917 0.78685 0.0
N392 N 0.43191 0.33615 0.70242 0.0
C393 C 0.41807 0.36563 0.71877 0.0
C394 C 0.41544 0.36699 0.76444 0.0
C395 C 0.68179 0.06015 0.72041 0.0
C396 C 0.66869 0.02159 0.69256 0.0
C397 C 0.68107 0.05507 0.76512 0.0
C398 C 0.66619 1.01108 0.78351 0.0
H399 H 0.69403 0.095 0.70765 0.0
H400 H 0.69198 0.08564 0.78536 0.0
S401 S 0.62893 0.89915 0.72536 0.0
N402 N 0.64115 0.93817 0.68687 0.0
N403 N 0.63871 0.92821 0.77107 0.0
C404 C 0.65253 0.97209 0.75623 0.0
C405 C 0.65408 0.97744 0.71068 0.0
C406 C 0.03949 0.70127 0.75985 0.0
C407 C 0.03512 0.66317 0.78389 0.0
C408 C 0.0431 0.7018 0.71492 0.0
C409 C 0.04167 0.6639 0.69271 0.0
H410 H 0.04166 0.73151 0.77597 0.0
H411 H 0.04554 0.73138 0.6974 0.0
S412 S 0.03101 0.55619 0.74109 0.0
N413 N 0.03117 0.58756 0.78272 0.0
N414 N 0.0351 0.58722 0.69785 0.0
C415 C 0.03694 0.62549 0.7164 0.0
C416 C 0.0345 0.62552 0.76217 0.0
C417 C 0.68121 0.63749 0.2625 0.0
C418 C 0.6623 0.66283 0.28172 0.0
C419 C 0.68254 0.63428 0.21767 0.0
C420 C 0.66597 0.65722 0.19055 0.0
H421 H 0.69527 0.62027 0.28217 0.0
H422 H 0.69823 0.61499 0.20422 0.0
S423 S 0.61358 0.72858 0.22515 0.0
N424 N 0.62636 0.71122 0.27039 0.0
N425 N 0.62981 0.70568 0.18613 0.0
C426 C 0.64673 0.68243 0.20938 0.0
C427 C 0.64463 0.68508 0.25498 0.0
C428 C 0.43256 0.06038 0.21832 0.0
C429 C 0.40534 0.0216 0.1912 0.0
C430 C 0.42913 0.05629 0.26313 0.0
C431 C 0.39926 1.01305 0.28252 0.0
H432 H 0.45557 0.09482 0.20493 0.0
H433 H 0.44972 0.08722 0.28269 0.0
S434 S 0.32107 0.90056 0.22662 0.0
N435 N 0.34774 0.9385 0.18732 0.0
N436 N 0.34205 0.93037 0.27174 0.0
C437 C 0.37273 0.97363 0.25601 0.0
C438 C 0.37555 0.97801 0.21029 0.0
C439 C 0.08363 0.42433 0.25674 0.0
C440 C 0.04479 0.39978 0.28438 0.0
C441 C 0.07822 0.42227 0.21197 0.0
C442 C 0.03368 0.39652 0.19341 0.0
H443 H 0.11881 0.44409 0.26967 0.0
H444 H 0.109 0.44074 0.19181 0.0
S445 S 0.92072 0.32627 0.25129 0.0
N446 N 0.96043 0.34908 0.2898 0.0
N447 N 0.9499 0.34571 0.20574 0.0
C448 C 0.99442 0.37255 0.22064 0.0
C449 C 1.00006 0.37405 0.26612 0.0
C450 C 0.21725 0.90436 0.33494 0.0
C451 C 0.23804 0.87917 0.35179 0.0
C452 C 0.177 0.88274 0.30872 0.0
C453 C 0.15575 0.83493 0.29787 0.0
H454 H 0.23239 0.94143 0.3417 0.0
H455 H 0.1625 0.90374 0.2969 0.0
S456 S 0.19554 0.75262 0.33437 0.0
N457 N 0.23347 0.80337 0.35612 0.0
N458 N 0.15855 0.76269 0.30712 0.0
C459 C 0.17607 0.80921 0.3148 0.0
C460 C 0.21687 0.83125 0.34163 0.0
C461 C 0.18691 0.31559 0.30741 0.0
C462 C 0.23514 0.3414 0.29843 0.0
C463 C 0.16488 0.33487 0.33219 0.0
C464 C 0.19004 0.38082 0.34934 0.0
H465 H 0.16587 0.28024 0.29511 0.0
H466 H 0.1275 0.31348 0.33755 0.0
S467 S 0.31772 0.46267 0.33727 0.0
N468 N 0.30787 0.41542 0.31028 0.0
N469 N 0.26632 0.45098 0.35643 0.0
C470 C 0.23838 0.4068 0.34112 0.0
C471 C 0.26089 0.38732 0.31584 0.0
C472 C 0.67907 0.88314 0.30924 0.0
C473 C 0.72689 0.90702 0.29722 0.0
C474 C 0.65956 0.84237 0.33471 0.0
C475 C 0.68689 0.82341 0.3495 0.0
H476 H 0.65618 0.89605 0.29902 0.0
H477 H 0.62258 0.82534 0.34241 0.0
S478 S 0.8142 0.8724 0.32769 0.0
N479 N 0.80108 0.90845 0.30254 0.0
N480 N 0.76498 0.8323 0.35026 0.0
C481 C 0.7349 0.84702 0.33785 0.0
C482 C 0.75468 0.88853 0.3118 0.0
C483 C 0.82466 0.17867 0.16728 0.0
C484 C 0.84954 0.15649 0.18154 0.0
C485 C 0.84599 0.21958 0.14192 0.0
C486 C 0.8932 0.24023 0.12941 0.0
H487 H 0.78807 0.16423 0.17555 0.0
H488 H 0.82525 0.23517 0.13223 0.0
S489 S 0.97448 0.19665 0.15865 0.0
N490 N 0.92437 0.15894 0.18146 0.0
N491 N 0.96453 0.23518 0.13401 0.0
C492 C 0.9186 0.21845 0.14361 0.0
C493 C 0.89684 0.17691 0.16956 0.0
C494 C 0.84775 0.71779 0.13973 0.0
C495 C 0.82451 0.67036 0.12626 0.0
C496 C 0.8882 0.73682 0.16561 0.0
C497 C 0.90738 0.70934 0.17938 0.0
H498 H 0.83447 0.74068 0.13049 0.0
H499 H 0.90464 0.77347 0.17464 0.0
S500 S 0.86039 0.58304 0.15298 0.0
N501 N 0.8242 0.59652 0.12868 0.0
N502 N 0.89966 0.63161 0.17712 0.0
C503 C 0.88451 0.66175 0.16606 0.0
C504 C 0.84339 0.6425 0.1396 0.0
C505 C 0.33336 0.17124 0.16903 0.0
C506 C 0.36178 0.2174 0.18398 0.0
C507 C 0.35173 0.14918 0.14315 0.0
C508 C 0.39946 0.17215 0.13089 0.0
H509 H 0.29638 0.15204 0.17688 0.0
H510 H 0.32803 0.11354 0.13278 0.0
S511 S 0.48947 0.29312 0.1621 0.0
N512 N 0.44085 0.28525 0.18495 0.0
N513 N 0.47485 0.24374 0.13646 0.0
C514 C 0.42838 0.21822 0.14579 0.0
C515 C 0.40974 0.24075 0.17224 0.0
C516 C 0.84667 0.14969 0.64203 0.0
C517 C 0.82162 0.17282 0.63131 0.0
C518 C 0.8872 0.17105 0.66778 0.0
C519 C 0.90476 0.21664 0.68409 0.0
H520 H 0.83484 0.11441 0.63061 0.0
H521 H 0.9052 0.15179 0.67442 0.0
S522 S 0.85231 0.29264 0.66621 0.0
N523 N 0.81756 0.24402 0.63956 0.0
N524 N 0.89328 0.28427 0.6878 0.0
C525 C 0.87999 0.24022 0.67374 0.0
C526 C 0.8387 0.2184 0.64744 0.0
C527 C 0.84491 0.64026 0.63946 0.0
C528 C 0.89384 0.66544 0.63431 0.0
C529 C 0.82177 0.65832 0.66436 0.0
C530 C 0.84653 0.70223 0.68543 0.0
H531 H 0.82421 0.60663 0.62374 0.0
H532 H 0.78393 0.6378 0.66648 0.0
S533 S 0.97562 0.78032 0.68571 0.0
N534 N 0.96666 0.7357 0.65496 0.0
N535 N 0.92313 0.769 0.70128 0.0
C536 C 0.89554 0.72717 0.68145 0.0
C537 C 0.91913 0.70896 0.65609 0.0
C538 C 0.39527 0.17832 0.66631 0.0
C539 C 0.34775 0.15423 0.67927 0.0
C540 C 0.41374 0.2185 0.64008 0.0
C541 C 0.38557 0.23656 0.62542 0.0
H542 H 0.41869 0.16596 0.67629 0.0
H543 H 0.45054 0.23576 0.63164 0.0
S544 S 0.25865 0.18678 0.64983 0.0
N545 N 0.27299 0.15176 0.67518 0.0
N546 N 0.30706 0.22668 0.62602 0.0
C547 C 0.33787 0.21276 0.63811 0.0
C548 C 0.31918 0.17192 0.66496 0.0
C549 C 0.25034 0.88335 0.80949 0.0
C550 C 0.22528 0.904 0.79205 0.0
C551 C 0.22823 0.84237 0.83472 0.0
C552 C 0.18002 0.82016 0.84387 0.0
H553 H 0.28768 0.8992 0.80405 0.0
H554 H 0.24919 0.82812 0.8472 0.0
S555 S 0.09768 0.85849 0.80429 0.0
N556 N 0.14909 0.8979 0.7848 0.0
N557 N 0.10745 0.82143 0.83184 0.0
C558 C 0.15439 0.84018 0.82617 0.0
C559 C 0.17696 0.88182 0.80043 0.0
C560 C 0.17591 0.3133 0.81015 0.0
C561 C 0.15624 0.34053 0.79694 0.0
C562 C 0.21681 0.33262 0.83547 0.0
C563 C 0.23993 0.38005 0.84895 0.0
H564 H 0.15958 0.27669 0.80103 0.0
H565 H 0.23054 0.30999 0.84428 0.0
S566 S 0.20262 0.46665 0.82391 0.0
N567 N 0.1633 0.41798 0.79995 0.0
N568 N 0.23948 0.45353 0.84735 0.0
C569 C 0.22051 0.40761 0.83624 0.0
C570 C 0.179 0.38811 0.81033 0.0
C571 C 0.6734 0.80643 0.80551 0.0
C572 C 0.72219 0.82822 0.79793 0.0
C573 C 0.65395 0.82727 0.83168 0.0
C574 C 0.68237 0.87087 0.85166 0.0
H575 H 0.64972 0.77273 0.79109 0.0
H576 H 0.61625 0.80936 0.83563 0.0
S577 S 0.8125 0.94203 0.84389 0.0
N578 N 0.79845 0.89561 0.81364 0.0
N579 N 0.76248 0.93466 0.86285 0.0
C580 C 0.73134 0.89286 0.84473 0.0
C581 C 0.75105 0.87169 0.8179 0.0
C582 C 0.55476 0.50414 0.49397 0.0
C583 C 0.51106 0.48867 0.51366 0.0
C584 C 0.5754 0.54435 0.46775 0.0
C585 C 0.55335 0.57105 0.45981 0.0
H586 H 0.57301 0.48474 0.49833 0.0
H587 H 0.60927 0.55463 0.45369 0.0
S588 S 0.43891 0.54649 0.50449 0.0
N589 N 0.44664 0.50422 0.5239 0.0
N590 N 0.48545 0.57917 0.47459 0.0
C591 C 0.50969 0.55608 0.47933 0.0
C592 C 0.48868 0.51524 0.50624 0.0
C593 C 0.55258 0.06685 0.50332 0.0
C594 C 0.57036 0.03894 0.51932 0.0
C595 C 0.51217 0.04763 0.47742 0.0
C596 C 0.48742 0.99951 0.46624 0.0
H597 H 0.57036 0.10409 0.51026 0.0
H598 H 0.5002 0.071 0.46624 0.0
S599 S 0.51856 0.91062 0.50051 0.0
N600 N 0.5593 0.95999 0.52247 0.0
N601 N 0.48373 0.92434 0.47398 0.0
C602 C 0.50463 0.9711 0.48221 0.0
C603 C 0.54584 0.99063 0.50864 0.0
C604 C 1.01972 0.4831 0.47703 0.0
C605 C 0.06706 0.50764 0.46357 0.0
C606 C 1.00046 0.50423 0.50296 0.0
C607 C 1.02754 0.55101 0.51676 0.0
H608 H 0.99702 0.44688 0.46765 0.0
H609 H 0.96383 0.48374 0.51183 0.0
S610 S 0.15362 0.63104 0.49109 0.0
N611 N 0.1406 0.58151 0.46652 0.0
N612 N 0.10489 0.62137 0.51507 0.0
C613 C 0.07509 0.57604 0.5037 0.0
C614 C 0.09465 0.55442 0.47721 0.0
C615 C 0.51671 0.48362 0.96935 0.0
C616 C 0.49061 0.50617 0.96087 0.0
C617 C 0.55719 0.50449 -0.00479 0.0
C618 C 0.57349 0.54889 0.01393 0.0
H619 H 0.5058 0.44929 0.95593 0.0
H620 H 0.57618 0.48588 -1e-05 0.0
S621 S 0.51693 0.62209 0.00366 0.0
N622 N 0.48357 0.575 0.97457 0.0
N623 N 0.55907 0.61421 0.02309 0.0
C624 C 0.54738 0.57163 0.00614 0.0
C625 C 0.50626 0.55039 0.97965 0.0
C626 C 0.5141 0.97179 0.98073 0.0
C627 C 0.55693 0.99955 0.95936 0.0
C628 C 0.4943 0.99217 0.00711 0.0
C629 C 0.51654 0.04121 0.0136 0.0
H630 H 0.49608 0.93394 0.97775 0.0
H631 H 0.46119 0.96908 0.0227 0.0
S632 S 0.62797 0.13004 0.96307 0.0
N633 N 0.61998 0.07934 0.94517 0.0
N634 N 0.58296 0.11699 -0.00516 0.0
C635 C 0.55909 0.06939 -0.00792 0.0
C636 C 0.57911 0.04878 0.96497 0.0
C637 C 1.00811 0.5437 0.96631 0.0
C638 C 0.05706 0.57152 0.96011 0.0
C639 C 0.98858 0.5047 -0.00593 0.0
C640 C 1.01713 0.49186 0.01711 0.0
H641 H 0.98445 0.5521 0.94953 0.0
H642 H 0.95079 0.48394 -0.00324 0.0
S643 S 0.14758 0.55466 0.01474 0.0
N644 N 0.13355 0.58422 0.98087 0.0
N645 N 0.09739 0.51166 0.03312 0.0
C646 C 0.06622 0.51985 0.01172 0.0
C647 C 0.086 0.55931 0.98322 0.0
loop_
_geom_bond_atom_site_label_1
_geom_bond_atom_site_label_2
_geom_bond_distance
_geom_bond_site_symmetry_2
_ccdc_geom_bond_type
C0 O2 1.247 . S
C0 O4 1.258 . S
C1 O8 1.247 . S
C1 O9 1.258 . S
O2 C0 1.247 . S
O2 Zn3 2.028 1_655 S
Zn3 O2 2.028 1_455 S
Zn3 O7 2.035 1_455 S
Zn3 O9 2.035 . S
Zn3 O10 2.028 . S
O4 C0 1.258 . S
O4 Zn5 2.035 1_655 S
Zn5 O4 2.035 1_455 S
Zn5 O6 2.028 1_455 S
Zn5 O8 2.028 . S
Zn5 O11 2.035 . S
O6 Zn5 2.028 1_655 S
O6 C12 1.247 . S
O7 Zn3 2.035 1_655 S
O7 C12 1.258 . S
O8 C1 1.247 . S
O8 Zn5 2.028 . S
O9 C1 1.258 . S
O9 Zn3 2.035 . S
O10 Zn3 2.028 . S
O10 C13 1.247 . S
O11 Zn5 2.035 . S
O11 C13 1.258 . S
C12 O6 1.247 . S
C12 O7 1.258 . S
C13 O10 1.247 . S
C13 O11 1.258 . S
C14 O16 1.247 . S
C14 O18 1.258 . S
C15 O22 1.247 . S
C15 O23 1.258 . S
O16 C14 1.247 . S
O16 Zn17 2.028 . S
Zn17 O16 2.028 . S
Zn17 O21 2.035 . S
Zn17 O23 2.035 . S
Zn17 O24 2.028 . S
O18 C14 1.258 . S
O18 Zn19 2.035 . S
Zn19 O18 2.035 . S
Zn19 O20 2.028 . S
Zn19 O22 2.028 . S
Zn19 O25 2.035 . S
O20 Zn19 2.028 . S
O20 C26 1.247 . S
O21 Zn17 2.035 . S
O21 C26 1.258 . S
O22 C15 1.247 . S
O22 Zn19 2.028 . S
O23 C15 1.258 . S
O23 Zn17 2.035 . S
O24 Zn17 2.028 . S
O24 C27 1.247 . S
O25 Zn19 2.035 . S
O25 C27 1.258 . S
C26 O20 1.247 . S
C26 O21 1.258 . S
C27 O24 1.247 . S
C27 O25 1.258 . S
C28 O30 1.247 . S
C28 O32 1.258 . S
C29 O36 1.247 . S
C29 O37 1.258 . S
O30 C28 1.247 . S
O30 Zn31 2.028 1_565 S
Zn31 O30 2.028 1_545 S
Zn31 O35 2.035 1_545 S
Zn31 O37 2.035 . S
Zn31 O38 2.028 . S
O32 C28 1.258 . S
O32 Zn33 2.035 1_565 S
Zn33 O32 2.035 1_545 S
Zn33 O34 2.028 1_545 S
Zn33 O36 2.028 . S
Zn33 O39 2.035 . S
O34 Zn33 2.028 1_565 S
O34 C40 1.247 . S
O35 Zn31 2.035 1_565 S
O35 C40 1.258 . S
O36 C29 1.247 . S
O36 Zn33 2.028 . S
O37 C29 1.258 . S
O37 Zn31 2.035 . S
O38 Zn31 2.028 . S
O38 C41 1.247 . S
O39 Zn33 2.035 . S
O39 C41 1.258 . S
C40 O34 1.247 . S
C40 O35 1.258 . S
C41 O38 1.247 . S
C41 O39 1.258 . S
C42 O44 1.247 . S
C42 O46 1.258 . S
C43 O50 1.247 . S
C43 O51 1.258 . S
O44 C42 1.247 . S
O44 Zn45 2.028 1_655 S
Zn45 O44 2.028 1_455 S
Zn45 O49 2.035 1_455 S
Zn45 O51 2.035 . S
Zn45 O52 2.028 . S
O46 C42 1.258 . S
O46 Zn47 2.035 1_655 S
Zn47 O46 2.035 1_455 S
Zn47 O48 2.028 1_455 S
Zn47 O50 2.028 . S
Zn47 O53 2.035 . S
O48 Zn47 2.028 1_655 S
O48 C54 1.247 . S
O49 Zn45 2.035 1_655 S
O49 C54 1.258 . S
O50 C43 1.247 . S
O50 Zn47 2.028 . S
O51 C43 1.258 . S
O51 Zn45 2.035 . S
O52 Zn45 2.028 . S
O52 C55 1.247 . S
O53 Zn47 2.035 . S
O53 C55 1.258 . S
C54 O48 1.247 . S
C54 O49 1.258 . S
C55 O52 1.247 . S
C55 O53 1.258 . S
C56 O58 1.247 . S
C56 O60 1.258 . S
C57 O64 1.247 . S
C57 O65 1.258 . S
O58 C56 1.247 . S
O58 Zn59 2.028 . S
Zn59 O58 2.028 . S
Zn59 O63 2.035 . S
Zn59 O65 2.035 . S
Zn59 O66 2.028 . S
O60 C56 1.258 . S
O60 Zn61 2.035 . S
Zn61 O60 2.035 . S
Zn61 O62 2.028 . S
Zn61 O64 2.028 . S
Zn61 O67 2.035 . S
O62 Zn61 2.028 . S
O62 C68 1.247 . S
O63 Zn59 2.035 . S
O63 C68 1.258 . S
O64 C57 1.247 . S
O64 Zn61 2.028 . S
O65 C57 1.258 . S
O65 Zn59 2.035 . S
O66 Zn59 2.028 . S
O66 C69 1.247 . S
O67 Zn61 2.035 . S
O67 C69 1.258 . S
C68 O62 1.247 . S
C68 O63 1.258 . S
C69 O66 1.247 . S
C69 O67 1.258 . S
C70 O72 1.247 . S
C70 O74 1.258 . S
C71 O78 1.247 . S
C71 O79 1.258 . S
O72 C70 1.247 . S
O72 Zn73 2.028 . S
Zn73 O72 2.028 . S
Zn73 O77 2.035 . S
Zn73 O79 2.035 1_545 S
Zn73 O80 2.028 1_545 S
O74 C70 1.258 . S
O74 Zn75 2.035 . S
Zn75 O74 2.035 . S
Zn75 O76 2.028 . S
Zn75 O78 2.028 1_545 S
Zn75 O81 2.035 1_545 S
O76 Zn75 2.028 . S
O76 C82 1.247 . S
O77 Zn73 2.035 . S
O77 C82 1.258 . S
O78 C71 1.247 . S
O78 Zn75 2.028 1_565 S
O79 C71 1.258 . S
O79 Zn73 2.035 1_565 S
O80 Zn73 2.028 1_565 S
O80 C83 1.247 . S
O81 Zn75 2.035 1_565 S
O81 C83 1.258 . S
C82 O76 1.247 . S
C82 O77 1.258 . S
C83 O80 1.247 . S
C83 O81 1.258 . S
C84 O86 1.247 . S
C84 O88 1.258 . S
C85 O92 1.247 . S
C85 O93 1.258 . S
O86 C84 1.247 . S
O86 Zn87 2.028 . S
Zn87 O86 2.028 . S
Zn87 O91 2.035 . S
Zn87 O93 2.035 . S
Zn87 O94 2.028 . S
O88 C84 1.258 . S
O88 Zn89 2.035 . S
Zn89 O88 2.035 . S
Zn89 O90 2.028 . S
Zn89 O92 2.028 . S
Zn89 O95 2.035 . S
O90 Zn89 2.028 . S
O90 C96 1.247 . S
O91 Zn87 2.035 . S
O91 C96 1.258 . S
O92 C85 1.247 . S
O92 Zn89 2.028 . S
O93 C85 1.258 . S
O93 Zn87 2.035 . S
O94 Zn87 2.028 . S
O94 C97 1.247 . S
O95 Zn89 2.035 . S
O95 C97 1.258 . S
C96 O90 1.247 . S
C96 O91 1.258 . S
C97 O94 1.247 . S
C97 O95 1.258 . S
C98 O100 1.247 . S
C98 O102 1.258 . S
C99 O106 1.247 . S
C99 O107 1.258 . S
O100 C98 1.247 . S
O100 Zn101 2.028 . S
Zn101 O100 2.028 . S
Zn101 O105 2.035 . S
Zn101 O107 2.035 . S
Zn101 O108 2.028 . S
O102 C98 1.258 . S
O102 Zn103 2.035 . S
Zn103 O102 2.035 . S
Zn103 O104 2.028 . S
Zn103 O106 2.028 . S
Zn103 O109 2.035 . S
O104 Zn103 2.028 . S
O104 C110 1.247 . S
O105 Zn101 2.035 . S
O105 C110 1.258 . S
O106 C99 1.247 . S
O106 Zn103 2.028 . S
O107 C99 1.258 . S
O107 Zn101 2.035 . S
O108 Zn101 2.028 . S
O108 C111 1.247 . S
O109 Zn103 2.035 . S
O109 C111 1.258 . S
C110 O104 1.247 . S
C110 O105 1.258 . S
C111 O108 1.247 . S
C111 O109 1.258 . S
C112 O114 1.247 . S
C112 O116 1.258 . S
C113 O120 1.247 . S
C113 O121 1.258 . S
O114 C112 1.247 . S
O114 Zn115 2.028 . S
Zn115 O114 2.028 . S
Zn115 O119 2.035 . S
Zn115 O121 2.035 . S
Zn115 O122 2.028 . S
O116 C112 1.258 . S
O116 Zn117 2.035 . S
Zn117 O116 2.035 . S
Zn117 O118 2.028 . S
Zn117 O120 2.028 . S
Zn117 O123 2.035 . S
O118 Zn117 2.028 . S
O118 C124 1.247 . S
O119 Zn115 2.035 . S
O119 C124 1.258 . S
O120 C113 1.247 . S
O120 Zn117 2.028 . S
O121 C113 1.258 . S
O121 Zn115 2.035 . S
O122 Zn115 2.028 . S
O122 C125 1.247 . S
O123 Zn117 2.035 . S
O123 C125 1.258 . S
C124 O118 1.247 . S
C124 O119 1.258 . S
C125 O122 1.247 . S
C125 O123 1.258 . S
C126 O128 1.247 . S
C126 O130 1.258 . S
C127 O134 1.247 . S
C127 O135 1.258 . S
O128 C126 1.247 . S
O128 Zn129 2.028 . S
Zn129 O128 2.028 . S
Zn129 O133 2.035 . S
Zn129 O135 2.035 . S
Zn129 O136 2.028 . S
O130 C126 1.258 . S
O130 Zn131 2.035 . S
Zn131 O130 2.035 . S
Zn131 O132 2.028 . S
Zn131 O134 2.028 . S
Zn131 O137 2.035 . S
O132 Zn131 2.028 . S
O132 C138 1.247 . S
O133 Zn129 2.035 . S
O133 C138 1.258 . S
O134 C127 1.247 . S
O134 Zn131 2.028 . S
O135 C127 1.258 . S
O135 Zn129 2.035 . S
O136 Zn129 2.028 . S
O136 C139 1.247 . S
O137 Zn131 2.035 . S
O137 C139 1.258 . S
C138 O132 1.247 . S
C138 O133 1.258 . S
C139 O136 1.247 . S
C139 O137 1.258 . S
C140 O142 1.247 . S
C140 O144 1.258 . S
C141 O148 1.247 . S
C141 O149 1.258 . S
O142 C140 1.247 . S
O142 Zn143 2.028 . S
Zn143 O142 2.028 . S
Zn143 O147 2.035 . S
Zn143 O149 2.035 . S
Zn143 O150 2.028 . S
O144 C140 1.258 . S
O144 Zn145 2.035 . S
Zn145 O144 2.035 . S
Zn145 O146 2.028 . S
Zn145 O148 2.028 . S
Zn145 O151 2.035 . S
O146 Zn145 2.028 . S
O146 C152 1.247 . S
O147 Zn143 2.035 . S
O147 C152 1.258 . S
O148 C141 1.247 . S
O148 Zn145 2.028 . S
O149 C141 1.258 . S
O149 Zn143 2.035 . S
O150 Zn143 2.028 . S
O150 C153 1.247 . S
O151 Zn145 2.035 . S
O151 C153 1.258 . S
C152 O146 1.247 . S
C152 O147 1.258 . S
C153 O150 1.247 . S
C153 O151 1.258 . S
C154 O156 1.247 . S
C154 O158 1.258 . S
C155 O162 1.247 . S
C155 O163 1.258 . S
O156 C154 1.247 . S
O156 Zn157 2.028 . S
Zn157 O156 2.028 . S
Zn157 O161 2.035 . S
Zn157 O163 2.035 . S
Zn157 O164 2.028 . S
O158 C154 1.258 . S
O158 Zn159 2.035 . S
Zn159 O158 2.035 . S
Zn159 O160 2.028 . S
Zn159 O162 2.028 . S
Zn159 O165 2.035 . S
O160 Zn159 2.028 . S
O160 C166 1.247 . S
O161 Zn157 2.035 . S
O161 C166 1.258 . S
O162 C155 1.247 . S
O162 Zn159 2.028 . S
O163 C155 1.258 . S
O163 Zn157 2.035 . S
O164 Zn157 2.028 . S
O164 C167 1.247 . S
O165 Zn159 2.035 . S
O165 C167 1.258 . S
C166 O160 1.247 . S
C166 O161 1.258 . S
C167 O164 1.247 . S
C167 O165 1.258 . S
C168 O170 1.247 . S
C168 O172 1.258 . S
C169 O176 1.247 . S
C169 O177 1.258 . S
O170 C168 1.247 . S
O170 Zn171 2.028 . S
Zn171 O170 2.028 . S
Zn171 O175 2.035 . S
Zn171 O177 2.035 . S
Zn171 O178 2.028 . S
O172 C168 1.258 . S
O172 Zn173 2.035 . S
Zn173 O172 2.035 . S
Zn173 O174 2.028 . S
Zn173 O176 2.028 . S
Zn173 O179 2.035 . S
O174 Zn173 2.028 . S
O174 C180 1.247 . S
O175 Zn171 2.035 . S
O175 C180 1.258 . S
O176 C169 1.247 . S
O176 Zn173 2.028 . S
O177 C169 1.258 . S
O177 Zn171 2.035 . S
O178 Zn171 2.028 . S
O178 C181 1.247 . S
O179 Zn173 2.035 . S
O179 C181 1.258 . S
C180 O174 1.247 . S
C180 O175 1.258 . S
C181 O178 1.247 . S
C181 O179 1.258 . S
C182 O184 1.247 . S
C182 O186 1.258 . S
C183 O190 1.247 . S
C183 O191 1.258 . S
O184 C182 1.247 . S
O184 Zn185 2.028 . S
Zn185 O184 2.028 . S
Zn185 O189 2.035 . S
Zn185 O191 2.035 . S
Zn185 O192 2.028 . S
O186 C182 1.258 . S
O186 Zn187 2.035 . S
Zn187 O186 2.035 . S
Zn187 O188 2.028 . S
Zn187 O190 2.028 . S
Zn187 O193 2.035 . S
O188 Zn187 2.028 . S
O188 C194 1.247 . S
O189 Zn185 2.035 . S
O189 C194 1.258 . S
O190 C183 1.247 . S
O190 Zn187 2.028 . S
O191 C183 1.258 . S
O191 Zn185 2.035 . S
O192 Zn185 2.028 . S
O192 C195 1.247 . S
O193 Zn187 2.035 . S
O193 C195 1.258 . S
C194 O188 1.247 . S
C194 O189 1.258 . S
C195 O192 1.247 . S
C195 O193 1.258 . S
C196 O198 1.247 . S
C196 O200 1.258 . S
C197 O204 1.247 . S
C197 O205 1.258 . S
O198 C196 1.247 . S
O198 Zn199 2.028 . S
Zn199 O198 2.028 . S
Zn199 O203 2.035 . S
Zn199 O205 2.035 . S
Zn199 O206 2.028 . S
O200 C196 1.258 . S
O200 Zn201 2.035 . S
Zn201 O200 2.035 . S
Zn201 O202 2.028 . S
Zn201 O204 2.028 . S
Zn201 O207 2.035 . S
O202 Zn201 2.028 . S
O202 C208 1.247 . S
O203 Zn199 2.035 . S
O203 C208 1.258 . S
O204 C197 1.247 . S
O204 Zn201 2.028 . S
O205 C197 1.258 . S
O205 Zn199 2.035 . S
O206 Zn199 2.028 . S
O206 C209 1.247 . S
O207 Zn201 2.035 . S
O207 C209 1.258 . S
C208 O202 1.247 . S
C208 O203 1.258 . S
C209 O206 1.247 . S
C209 O207 1.258 . S
C210 O212 1.247 . S
C210 O214 1.258 . S
C211 O218 1.247 . S
C211 O219 1.258 . S
O212 C210 1.247 . S
O212 Zn213 2.028 . S
Zn213 O212 2.028 . S
Zn213 O217 2.035 . S
Zn213 O219 2.035 . S
Zn213 O220 2.028 . S
O214 C210 1.258 . S
O214 Zn215 2.035 . S
Zn215 O214 2.035 . S
Zn215 O216 2.028 . S
Zn215 O218 2.028 . S
Zn215 O221 2.035 . S
O216 Zn215 2.028 . S
O216 C222 1.247 . S
O217 Zn213 2.035 . S
O217 C222 1.258 . S
O218 C211 1.247 . S
O218 Zn215 2.028 . S
O219 C211 1.258 . S
O219 Zn213 2.035 . S
O220 Zn213 2.028 . S
O220 C223 1.247 . S
O221 Zn215 2.035 . S
O221 C223 1.258 . S
C222 O216 1.247 . S
C222 O217 1.258 . S
C223 O220 1.247 . S
C223 O221 1.258 . S
C224 O226 1.247 . S
C224 O228 1.258 . S
C225 O232 1.247 . S
C225 O233 1.258 . S
O226 C224 1.247 . S
O226 Zn227 2.028 . S
Zn227 O226 2.028 . S
Zn227 O231 2.035 . S
Zn227 O233 2.035 . S
Zn227 O234 2.028 . S
O228 C224 1.258 . S
O228 Zn229 2.035 . S
Zn229 O228 2.035 . S
Zn229 O230 2.028 . S
Zn229 O232 2.028 . S
Zn229 O235 2.035 . S
O230 Zn229 2.028 . S
O230 C236 1.247 . S
O231 Zn227 2.035 . S
O231 C236 1.258 . S
O232 C225 1.247 . S
O232 Zn229 2.028 . S
O233 C225 1.258 . S
O233 Zn227 2.035 . S
O234 Zn227 2.028 . S
O234 C237 1.247 . S
O235 Zn229 2.035 . S
O235 C237 1.258 . S
C236 O230 1.247 . S
C236 O231 1.258 . S
C237 O234 1.247 . S
C237 O235 1.258 . S
C238 O240 1.247 . S
C238 O242 1.258 . S
C239 O246 1.247 . S
C239 O247 1.258 . S
O240 C238 1.247 . S
O240 Zn241 2.028 . S
Zn241 O240 2.028 . S
Zn241 O245 2.035 . S
Zn241 O247 2.035 . S
Zn241 O248 2.028 . S
O242 C238 1.258 . S
O242 Zn243 2.035 . S
Zn243 O242 2.035 . S
Zn243 O244 2.028 . S
Zn243 O246 2.028 . S
Zn243 O249 2.035 . S
O244 Zn243 2.028 . S
O244 C250 1.247 . S
O245 Zn241 2.035 . S
O245 C250 1.258 . S
O246 C239 1.247 . S
O246 Zn243 2.028 . S
O247 C239 1.258 . S
O247 Zn241 2.035 . S
O248 Zn241 2.028 . S
O248 C251 1.247 . S
O249 Zn243 2.035 . S
O249 C251 1.258 . S
C250 O244 1.247 . S
C250 O245 1.258 . S
C251 O248 1.247 . S
C251 O249 1.258 . S
C252 C253 1.369 . S
C252 C254 1.419 . S
C252 H256 0.930 . S
C253 C252 1.369 . S
C253 C262 1.429 . S
C254 C252 1.419 . S
C254 C255 1.363 . S
C254 H257 0.929 . S
C255 C254 1.363 . S
C255 C261 1.428 . S
H256 C252 0.930 . S
H257 C254 0.929 . S
S258 N259 1.613 1_655 S
S258 N260 1.610 1_655 S
N259 S258 1.613 1_455 S
N259 C262 1.350 . S
N260 S258 1.610 1_455 S
N260 C261 1.351 . S
C261 C255 1.428 . S
C261 N260 1.351 . S
C261 C262 1.434 . S
C262 C253 1.429 . S
C262 N259 1.350 . S
C262 C261 1.434 . S
C263 C264 1.369 . S
C263 C265 1.419 . S
C263 H267 0.930 . S
C264 C263 1.369 . S
C264 C273 1.429 . S
C265 C263 1.419 . S
C265 C266 1.363 . S
C265 H268 0.929 . S
C266 C265 1.363 . S
C266 C272 1.428 . S
H267 C263 0.930 . S
H268 C265 0.929 . S
S269 N270 1.613 . S
S269 N271 1.610 . S
N270 S269 1.613 . S
N270 C273 1.350 . S
N271 S269 1.610 . S
N271 C272 1.351 . S
C272 C266 1.428 . S
C272 N271 1.351 . S
C272 C273 1.434 . S
C273 C264 1.429 . S
C273 N270 1.350 . S
C273 C272 1.434 . S
C274 C275 1.369 . S
C274 C276 1.419 . S
C274 H278 0.930 1_565 S
C275 C274 1.369 . S
C275 C284 1.429 . S
C276 C274 1.419 . S
C276 C277 1.363 . S
C276 H279 0.929 . S
C277 C276 1.363 . S
C277 C283 1.428 . S
H278 C274 0.930 1_545 S
H279 C276 0.929 . S
S280 N281 1.613 . S
S280 N282 1.610 . S
N281 S280 1.613 . S
N281 C284 1.350 . S
N282 S280 1.610 . S
N282 C283 1.351 . S
C283 C277 1.428 . S
C283 N282 1.351 . S
C283 C284 1.434 . S
C284 C275 1.429 . S
C284 N281 1.350 . S
C284 C283 1.434 . S
C285 C286 1.369 . S
C285 C287 1.419 . S
C285 H289 0.930 . S
C286 C285 1.369 . S
C286 C295 1.429 . S
C287 C285 1.419 . S
C287 C288 1.363 . S
C287 H290 0.929 . S
C288 C287 1.363 . S
C288 C294 1.428 . S
H289 C285 0.930 . S
H290 C287 0.929 . S
S291 N292 1.613 . S
S291 N293 1.610 . S
N292 S291 1.613 . S
N292 C295 1.350 . S
N293 S291 1.610 . S
N293 C294 1.351 . S
C294 C288 1.428 . S
C294 N293 1.351 . S
C294 C295 1.434 . S
C295 C286 1.429 . S
C295 N292 1.350 . S
C295 C294 1.434 . S
C296 C297 1.369 . S
C296 C298 1.419 . S
C296 H300 0.930 . S
C297 C296 1.369 . S
C297 C306 1.429 . S
C298 C296 1.419 . S
C298 C299 1.363 . S
C298 H301 0.929 . S
C299 C298 1.363 . S
C299 C305 1.428 . S
H300 C296 0.930 . S
H301 C298 0.929 . S
S302 N303 1.613 . S
S302 N304 1.610 . S
N303 S302 1.613 . S
N303 C306 1.350 . S
N304 S302 1.610 . S
N304 C305 1.351 . S
C305 C299 1.428 . S
C305 N304 1.351 . S
C305 C306 1.434 . S
C306 C297 1.429 . S
C306 N303 1.350 . S
C306 C305 1.434 . S
C307 C308 1.369 . S
C307 C309 1.419 . S
C307 H311 0.930 . S
C308 C307 1.369 . S
C308 C317 1.429 . S
C309 C307 1.419 . S
C309 C310 1.363 . S
C309 H312 0.929 . S
C310 C309 1.363 . S
C310 C316 1.428 . S
H311 C307 0.930 . S
H312 C309 0.929 . S
S313 N314 1.613 . S
S313 N315 1.610 . S
N314 S313 1.613 . S
N314 C317 1.350 . S
N315 S313 1.610 . S
N315 C316 1.351 . S
C316 C310 1.428 . S
C316 N315 1.351 . S
C316 C317 1.434 . S
C317 C308 1.429 . S
C317 N314 1.350 . S
C317 C316 1.434 . S
C318 C319 1.369 . S
C318 C320 1.419 . S
C318 H322 0.930 1_655 S
C319 C318 1.369 . S
C319 C328 1.429 . S
C320 C318 1.419 . S
C320 C321 1.363 . S
C320 H323 0.929 . S
C321 C320 1.363 . S
C321 C327 1.428 . S
H322 C318 0.930 1_455 S
H323 C320 0.929 . S
S324 N325 1.613 . S
S324 N326 1.610 . S
N325 S324 1.613 . S
N325 C328 1.350 . S
N326 S324 1.610 . S
N326 C327 1.351 . S
C327 C321 1.428 . S
C327 N326 1.351 . S
C327 C328 1.434 . S
C328 C319 1.429 . S
C328 N325 1.350 . S
C328 C327 1.434 . S
C329 C330 1.369 . S
C329 C331 1.419 . S
C329 H333 0.930 . S
C330 C329 1.369 . S
C330 C339 1.429 . S
C331 C329 1.419 . S
C331 C332 1.363 . S
C331 H334 0.929 . S
C332 C331 1.363 . S
C332 C338 1.428 . S
H333 C329 0.930 . S
H334 C331 0.929 . S
S335 N336 1.613 . S
S335 N337 1.610 . S
N336 S335 1.613 . S
N336 C339 1.350 . S
N337 S335 1.610 . S
N337 C338 1.351 . S
C338 C332 1.428 . S
C338 N337 1.351 . S
C338 C339 1.434 . S
C339 C330 1.429 . S
C339 N336 1.350 . S
C339 C338 1.434 . S
C340 C341 1.369 . S
C340 C342 1.419 . S
C340 H344 0.930 . S
C341 C340 1.369 . S
C341 C350 1.429 . S
C342 C340 1.419 . S
C342 C343 1.363 . S
C342 H345 0.929 . S
C343 C342 1.363 . S
C343 C349 1.428 . S
H344 C340 0.930 . S
H345 C342 0.929 . S
S346 N347 1.613 . S
S346 N348 1.610 . S
N347 S346 1.613 . S
N347 C350 1.350 . S
N348 S346 1.610 . S
N348 C349 1.351 . S
C349 C343 1.428 . S
C349 N348 1.351 . S
C349 C350 1.434 . S
C350 C341 1.429 . S
C350 N347 1.350 . S
C350 C349 1.434 . S
C351 C352 1.369 . S
C351 C353 1.419 . S
C351 H355 0.930 . S
C352 C351 1.369 . S
C352 C361 1.429 . S
C353 C351 1.419 . S
C353 C354 1.363 . S
C353 H356 0.929 . S
C354 C353 1.363 . S
C354 C360 1.428 . S
H355 C351 0.930 . S
H356 C353 0.929 . S
S357 N358 1.613 . S
S357 N359 1.610 . S
N358 S357 1.613 . S
N358 C361 1.350 . S
N359 S357 1.610 . S
N359 C360 1.351 . S
C360 C354 1.428 . S
C360 N359 1.351 . S
C360 C361 1.434 . S
C361 C352 1.429 . S
C361 N358 1.350 . S
C361 C360 1.434 . S
C362 C363 1.369 . S
C362 C364 1.419 . S
C362 H366 0.930 . S
C363 C362 1.369 . S
C363 C372 1.429 . S
C364 C362 1.419 . S
C364 C365 1.363 . S
C364 H367 0.929 . S
C365 C364 1.363 . S
C365 C371 1.428 . S
H366 C362 0.930 . S
H367 C364 0.929 . S
S368 N369 1.613 . S
S368 N370 1.610 . S
N369 S368 1.613 . S
N369 C372 1.350 . S
N370 S368 1.610 . S
N370 C371 1.351 . S
C371 C365 1.428 . S
C371 N370 1.351 . S
C371 C372 1.434 . S
C372 C363 1.429 . S
C372 N369 1.350 . S
C372 C371 1.434 . S
C373 C374 1.369 . S
C373 C375 1.419 . S
C373 H377 0.930 . S
C374 C373 1.369 . S
C374 C383 1.429 . S
C375 C373 1.419 . S
C375 C376 1.363 . S
C375 H378 0.929 . S
C376 C375 1.363 . S
C376 C382 1.428 . S
H377 C373 0.930 . S
H378 C375 0.929 . S
S379 N380 1.613 . S
S379 N381 1.610 . S
N380 S379 1.613 . S
N380 C383 1.350 . S
N381 S379 1.610 . S
N381 C382 1.351 . S
C382 C376 1.428 . S
C382 N381 1.351 . S
C382 C383 1.434 . S
C383 C374 1.429 . S
C383 N380 1.350 . S
C383 C382 1.434 . S
C384 C385 1.369 . S
C384 C386 1.419 . S
C384 H388 0.930 . S
C385 C384 1.369 . S
C385 C394 1.429 . S
C386 C384 1.419 . S
C386 C387 1.363 . S
C386 H389 0.929 . S
C387 C386 1.363 . S
C387 C393 1.428 . S
H388 C384 0.930 . S
H389 C386 0.929 . S
S390 N391 1.613 . S
S390 N392 1.610 . S
N391 S390 1.613 . S
N391 C394 1.350 . S
N392 S390 1.610 . S
N392 C393 1.351 . S
C393 C387 1.428 . S
C393 N392 1.351 . S
C393 C394 1.434 . S
C394 C385 1.429 . S
C394 N391 1.350 . S
C394 C393 1.434 . S
C395 C396 1.369 . S
C395 C397 1.419 . S
C395 H399 0.930 . S
C396 C395 1.369 . S
C396 C405 1.429 1_545 S
C397 C395 1.419 . S
C397 C398 1.363 1_545 S
C397 H400 0.929 . S
C398 C397 1.363 1_565 S
C398 C404 1.428 . S
H399 C395 0.930 . S
H400 C397 0.929 . S
S401 N402 1.613 . S
S401 N403 1.610 . S
N402 S401 1.613 . S
N402 C405 1.350 . S
N403 S401 1.610 . S
N403 C404 1.351 . S
C404 C398 1.428 . S
C404 N403 1.351 . S
C404 C405 1.434 . S
C405 C396 1.429 1_565 S
C405 N402 1.350 . S
C405 C404 1.434 . S
C406 C407 1.369 . S
C406 C408 1.419 1_455 S
C406 H410 0.930 . S
C407 C406 1.369 . S
C407 C416 1.429 . S
C408 C406 1.419 1_655 S
C408 C409 1.363 . S
C408 H411 0.929 . S
C409 C408 1.363 . S
C409 C415 1.428 . S
H410 C406 0.930 . S
H411 C408 0.929 . S
S412 N413 1.613 . S
S412 N414 1.610 1_455 S
N413 S412 1.613 . S
N413 C416 1.350 . S
N414 S412 1.610 1_655 S
N414 C415 1.351 . S
C415 C409 1.428 . S
C415 N414 1.351 . S
C415 C416 1.434 1_655 S
C416 C407 1.429 . S
C416 N413 1.350 . S
C416 C415 1.434 1_455 S
C417 C418 1.369 . S
C417 C419 1.419 . S
C417 H421 0.930 . S
C418 C417 1.369 . S
C418 C427 1.429 . S
C419 C417 1.419 . S
C419 C420 1.363 . S
C419 H422 0.929 . S
C420 C419 1.363 . S
C420 C426 1.428 . S
H421 C417 0.930 . S
H422 C419 0.929 . S
S423 N424 1.613 . S
S423 N425 1.610 . S
N424 S423 1.613 . S
N424 C427 1.350 . S
N425 S423 1.610 . S
N425 C426 1.351 . S
C426 C420 1.428 . S
C426 N425 1.351 . S
C426 C427 1.434 . S
C427 C418 1.429 . S
C427 N424 1.350 . S
C427 C426 1.434 . S
C428 C429 1.369 . S
C428 C430 1.419 . S
C428 H432 0.930 . S
C429 C428 1.369 . S
C429 C438 1.429 1_545 S
C430 C428 1.419 . S
C430 C431 1.363 1_545 S
C430 H433 0.929 . S
C431 C430 1.363 1_565 S
C431 C437 1.428 . S
H432 C428 0.930 . S
H433 C430 0.929 . S
S434 N435 1.613 . S
S434 N436 1.610 . S
N435 S434 1.613 . S
N435 C438 1.350 . S
N436 S434 1.610 . S
N436 C437 1.351 . S
C437 C431 1.428 . S
C437 N436 1.351 . S
C437 C438 1.434 . S
C438 C429 1.429 1_565 S
C438 N435 1.350 . S
C438 C437 1.434 . S
C439 C440 1.369 . S
C439 C441 1.419 . S
C439 H443 0.930 . S
C440 C439 1.369 . S
C440 C449 1.429 . S
C441 C439 1.419 . S
C441 C442 1.363 1_455 S
C441 H444 0.929 . S
C442 C441 1.363 1_655 S
C442 C448 1.428 . S
H443 C439 0.930 . S
H444 C441 0.929 . S
S445 N446 1.623 . S
S445 N447 1.610 . S
N446 S445 1.623 . S
N446 C449 1.345 1_655 S
N447 S445 1.610 . S
N447 C448 1.351 . S
C448 C442 1.428 . S
C448 N447 1.351 . S
C448 C449 1.434 1_655 S
C449 C440 1.429 . S
C449 N446 1.345 1_455 S
C449 C448 1.434 1_455 S
C450 C451 1.369 . S
C450 C452 1.419 . S
C450 H454 0.930 . S
C451 C450 1.369 . S
C451 C460 1.429 . S
C452 C450 1.419 . S
C452 C453 1.363 . S
C452 H455 0.929 . S
C453 C452 1.363 . S
C453 C459 1.428 . S
H454 C450 0.930 . S
H455 C452 0.929 . S
S456 N457 1.613 . S
S456 N458 1.610 . S
N457 S456 1.613 . S
N457 C460 1.350 . S
N458 S456 1.610 . S
N458 C459 1.351 . S
C459 C453 1.428 . S
C459 N458 1.351 . S
C459 C460 1.434 . S
C460 C451 1.429 . S
C460 N457 1.350 . S
C460 C459 1.434 . S
C461 C462 1.369 . S
C461 C463 1.419 . S
C461 H465 0.930 . S
C462 C461 1.369 . S
C462 C471 1.429 . S
C463 C461 1.419 . S
C463 C464 1.363 . S
C463 H466 0.929 . S
C464 C463 1.363 . S
C464 C470 1.428 . S
H465 C461 0.930 . S
H466 C463 0.929 . S
S467 N468 1.613 . S
S467 N469 1.610 . S
N468 S467 1.613 . S
N468 C471 1.350 . S
N469 S467 1.610 . S
N469 C470 1.351 . S
C470 C464 1.428 . S
C470 N469 1.351 . S
C470 C471 1.434 . S
C471 C462 1.429 . S
C471 N468 1.350 . S
C471 C470 1.434 . S
C472 C473 1.369 . S
C472 C474 1.419 . S
C472 H476 0.930 . S
C473 C472 1.369 . S
C473 C482 1.429 . S
C474 C472 1.419 . S
C474 C475 1.363 . S
C474 H477 0.929 . S
C475 C474 1.363 . S
C475 C481 1.428 . S
H476 C472 0.930 . S
H477 C474 0.929 . S
S478 N479 1.613 . S
S478 N480 1.610 . S
N479 S478 1.613 . S
N479 C482 1.350 . S
N480 S478 1.610 . S
N480 C481 1.351 . S
C481 C475 1.428 . S
C481 N480 1.351 . S
C481 C482 1.434 . S
C482 C473 1.429 . S
C482 N479 1.350 . S
C482 C481 1.434 . S
C483 C484 1.369 . S
C483 C485 1.419 . S
C483 H487 0.930 . S
C484 C483 1.369 . S
C484 C493 1.429 . S
C485 C483 1.419 . S
C485 C486 1.363 . S
C485 H488 0.929 . S
C486 C485 1.363 . S
C486 C492 1.428 . S
H487 C483 0.930 . S
H488 C485 0.929 . S
S489 N490 1.613 . S
S489 N491 1.610 . S
N490 S489 1.613 . S
N490 C493 1.350 . S
N491 S489 1.610 . S
N491 C492 1.351 . S
C492 C486 1.428 . S
C492 N491 1.351 . S
C492 C493 1.434 . S
C493 C484 1.429 . S
C493 N490 1.350 . S
C493 C492 1.434 . S
C494 C495 1.369 . S
C494 C496 1.419 . S
C494 H498 0.930 . S
C495 C494 1.369 . S
C495 C504 1.429 . S
C496 C494 1.419 . S
C496 C497 1.363 . S
C496 H499 0.929 . S
C497 C496 1.363 . S
C497 C503 1.428 . S
H498 C494 0.930 . S
H499 C496 0.929 . S
S500 N501 1.613 . S
S500 N502 1.610 . S
N501 S500 1.613 . S
N501 C504 1.350 . S
N502 S500 1.610 . S
N502 C503 1.351 . S
C503 C497 1.428 . S
C503 N502 1.351 . S
C503 C504 1.434 . S
C504 C495 1.429 . S
C504 N501 1.350 . S
C504 C503 1.434 . S
C505 C506 1.369 . S
C505 C507 1.419 . S
C505 H509 0.930 . S
C506 C505 1.369 . S
C506 C515 1.429 . S
C507 C505 1.419 . S
C507 C508 1.363 . S
C507 H510 0.929 . S
C508 C507 1.363 . S
C508 C514 1.428 . S
H509 C505 0.930 . S
H510 C507 0.929 . S
S511 N512 1.613 . S
S511 N513 1.610 . S
N512 S511 1.613 . S
N512 C515 1.350 . S
N513 S511 1.610 . S
N513 C514 1.351 . S
C514 C508 1.428 . S
C514 N513 1.351 . S
C514 C515 1.434 . S
C515 C506 1.429 . S
C515 N512 1.350 . S
C515 C514 1.434 . S
C516 C517 1.369 . S
C516 C518 1.419 . S
C516 H520 0.930 . S
C517 C516 1.369 . S
C517 C526 1.429 . S
C518 C516 1.419 . S
C518 C519 1.363 . S
C518 H521 0.929 . S
C519 C518 1.363 . S
C519 C525 1.428 . S
H520 C516 0.930 . S
H521 C518 0.929 . S
S522 N523 1.613 . S
S522 N524 1.610 . S
N523 S522 1.613 . S
N523 C526 1.350 . S
N524 S522 1.610 . S
N524 C525 1.351 . S
C525 C519 1.428 . S
C525 N524 1.351 . S
C525 C526 1.434 . S
C526 C517 1.429 . S
C526 N523 1.350 . S
C526 C525 1.434 . S
C527 C528 1.369 . S
C527 C529 1.419 . S
C527 H531 0.930 . S
C528 C527 1.369 . S
C528 C537 1.429 . S
C529 C527 1.419 . S
C529 C530 1.363 . S
C529 H532 0.929 . S
C530 C529 1.363 . S
C530 C536 1.428 . S
H531 C527 0.930 . S
H532 C529 0.929 . S
S533 N534 1.613 . S
S533 N535 1.610 . S
N534 S533 1.613 . S
N534 C537 1.350 . S
N535 S533 1.610 . S
N535 C536 1.351 . S
C536 C530 1.428 . S
C536 N535 1.351 . S
C536 C537 1.434 . S
C537 C528 1.429 . S
C537 N534 1.350 . S
C537 C536 1.434 . S
C538 C539 1.369 . S
C538 C540 1.419 . S
C538 H542 0.930 . S
C539 C538 1.369 . S
C539 C548 1.429 . S
C540 C538 1.419 . S
C540 C541 1.363 . S
C540 H543 0.929 . S
C541 C540 1.363 . S
C541 C547 1.428 . S
H542 C538 0.930 . S
H543 C540 0.929 . S
S544 N545 1.613 . S
S544 N546 1.610 . S
N545 S544 1.613 . S
N545 C548 1.350 . S
N546 S544 1.610 . S
N546 C547 1.351 . S
C547 C541 1.428 . S
C547 N546 1.351 . S
C547 C548 1.434 . S
C548 C539 1.429 . S
C548 N545 1.350 . S
C548 C547 1.434 . S
C549 C550 1.369 . S
C549 C551 1.419 . S
C549 H553 0.930 . S
C550 C549 1.369 . S
C550 C559 1.429 . S
C551 C549 1.419 . S
C551 C552 1.363 . S
C551 H554 0.929 . S
C552 C551 1.363 . S
C552 C558 1.428 . S
H553 C549 0.930 . S
H554 C551 0.929 . S
S555 N556 1.613 . S
S555 N557 1.610 . S
N556 S555 1.613 . S
N556 C559 1.350 . S
N557 S555 1.610 . S
N557 C558 1.351 . S
C558 C552 1.428 . S
C558 N557 1.351 . S
C558 C559 1.434 . S
C559 C550 1.429 . S
C559 N556 1.350 . S
C559 C558 1.434 . S
C560 C561 1.369 . S
C560 C562 1.419 . S
C560 H564 0.930 . S
C561 C560 1.369 . S
C561 C570 1.429 . S
C562 C560 1.419 . S
C562 C563 1.363 . S
C562 H565 0.929 . S
C563 C562 1.363 . S
C563 C569 1.428 . S
H564 C560 0.930 . S
H565 C562 0.929 . S
S566 N567 1.613 . S
S566 N568 1.610 . S
N567 S566 1.613 . S
N567 C570 1.350 . S
N568 S566 1.610 . S
N568 C569 1.351 . S
C569 C563 1.428 . S
C569 N568 1.351 . S
C569 C570 1.434 . S
C570 C561 1.429 . S
C570 N567 1.350 . S
C570 C569 1.434 . S
C571 C572 1.369 . S
C571 C573 1.419 . S
C571 H575 0.930 . S
C572 C571 1.369 . S
C572 C581 1.429 . S
C573 C571 1.419 . S
C573 C574 1.363 . S
C573 H576 0.929 . S
C574 C573 1.363 . S
C574 C580 1.428 . S
H575 C571 0.930 . S
H576 C573 0.929 . S
S577 N578 1.613 . S
S577 N579 1.610 . S
N578 S577 1.613 . S
N578 C581 1.350 . S
N579 S577 1.610 . S
N579 C580 1.351 . S
C580 C574 1.428 . S
C580 N579 1.351 . S
C580 C581 1.434 . S
C581 C572 1.429 . S
C581 N578 1.350 . S
C581 C580 1.434 . S
C582 C583 1.369 . S
C582 C584 1.419 . S
C582 H586 0.930 . S
C583 C582 1.369 . S
C583 C592 1.429 . S
C584 C582 1.419 . S
C584 C585 1.363 . S
C584 H587 0.929 . S
C585 C584 1.363 . S
C585 C591 1.428 . S
H586 C582 0.930 . S
H587 C584 0.929 . S
S588 N589 1.613 . S
S588 N590 1.610 . S
N589 S588 1.613 . S
N589 C592 1.350 . S
N590 S588 1.610 . S
N590 C591 1.351 . S
C591 C585 1.428 . S
C591 N590 1.351 . S
C591 C592 1.434 . S
C592 C583 1.429 . S
C592 N589 1.350 . S
C592 C591 1.434 . S
C593 C594 1.369 . S
C593 C595 1.419 . S
C593 H597 0.930 . S
C594 C593 1.369 . S
C594 C603 1.429 1_545 S
C595 C593 1.419 . S
C595 C596 1.363 1_545 S
C595 H598 0.929 . S
C596 C595 1.363 1_565 S
C596 C602 1.428 . S
H597 C593 0.930 . S
H598 C595 0.929 . S
S599 N600 1.613 . S
S599 N601 1.610 . S
N600 S599 1.613 . S
N600 C603 1.350 . S
N601 S599 1.610 . S
N601 C602 1.351 . S
C602 C596 1.428 . S
C602 N601 1.351 . S
C602 C603 1.434 . S
C603 C594 1.429 1_565 S
C603 N600 1.350 . S
C603 C602 1.434 . S
C604 C605 1.369 1_655 S
C604 C606 1.419 . S
C604 H608 0.930 . S
C605 C604 1.369 1_455 S
C605 C614 1.429 . S
C606 C604 1.419 . S
C606 C607 1.363 . S
C606 H609 0.929 . S
C607 C606 1.363 . S
C607 C613 1.428 1_655 S
H608 C604 0.930 . S
H609 C606 0.929 . S
S610 N611 1.613 . S
S610 N612 1.610 . S
N611 S610 1.613 . S
N611 C614 1.350 . S
N612 S610 1.610 . S
N612 C613 1.351 . S
C613 C607 1.428 1_455 S
C613 N612 1.351 . S
C613 C614 1.434 . S
C614 C605 1.429 . S
C614 N611 1.350 . S
C614 C613 1.434 . S
C615 C616 1.369 . S
C615 C617 1.419 . S
C615 H619 0.930 . S
C616 C615 1.369 . S
C616 C625 1.429 1_556 S
C617 C615 1.419 . S
C617 C618 1.363 1_556 S
C617 H620 0.929 . S
C618 C617 1.363 1_554 S
C618 C624 1.428 . S
H619 C615 0.930 . S
H620 C617 0.929 . S
S621 N622 1.613 . S
S621 N623 1.610 . S
N622 S621 1.613 . S
N622 C625 1.350 . S
N623 S621 1.610 . S
N623 C624 1.351 . S
C624 C618 1.428 . S
C624 N623 1.351 . S
C624 C625 1.434 . S
C625 C616 1.429 1_554 S
C625 N622 1.350 . S
C625 C624 1.434 . S
C626 C627 1.369 1_554 S
C626 C628 1.419 . S
C626 H630 0.930 . S
C627 C626 1.369 1_556 S
C627 C636 1.429 1_565 S
C628 C626 1.419 . S
C628 C629 1.363 1_565 S
C628 H631 0.929 . S
C629 C628 1.363 1_545 S
C629 C635 1.428 1_554 S
H630 C626 0.930 . S
H631 C628 0.929 . S
S632 N633 1.613 . S
S632 N634 1.610 . S
N633 S632 1.613 . S
N633 C636 1.350 . S
N634 S632 1.610 . S
N634 C635 1.351 . S
C635 C629 1.428 1_556 S
C635 N634 1.351 . S
C635 C636 1.434 . S
C636 C627 1.429 1_545 S
C636 N633 1.350 . S
C636 C635 1.434 . S
C637 C638 1.369 . S
C637 C639 1.419 1_455 S
C637 H641 0.930 . S
C638 C637 1.369 . S
C638 C647 1.429 1_556 S
C639 C637 1.419 1_655 S
C639 C640 1.363 1_556 S
C639 H642 0.929 . S
C640 C639 1.363 1_554 S
C640 C646 1.428 1_655 S
H641 C637 0.930 . S
H642 C639 0.929 . S
S643 N644 1.613 . S
S643 N645 1.610 . S
N644 S643 1.613 . S
N644 C647 1.350 . S
N645 S643 1.610 . S
N645 C646 1.351 . S
C646 C640 1.428 1_455 S
C646 N645 1.351 . S
C646 C647 1.434 . S
C647 C638 1.429 1_554 S
C647 N644 1.350 . S
C647 C646 1.434 . S
C253 C13 1.882 . S
C255 C208 1.884 1_554 S
C264 C180 1.887 1_554 S
C266 C27 1.883 . S
C275 C40 1.882 . S
C277 C183 1.888 1_554 S
C286 C97 1.887 . S
C288 C41 1.884 . S
C297 C99 1.882 . S
C299 C12 1.886 . S
C308 C125 1.883 . S
C310 C26 1.882 . S
C319 C42 1.882 . S
C321 C167 1.886 1_556 S
C330 C127 1.884 1_556 S
C332 C56 1.886 . S
C341 C141 1.887 1_556 S
C343 C82 1.883 . S
C352 C83 1.884 . S
C354 C210 1.886 . S
C363 C43 1.885 . S
C365 C237 1.881 . S
C374 C250 1.890 . S
C376 C57 1.878 . S
C385 C181 1.885 . S
C387 C124 1.885 . S
C396 C96 1.878 . S
C398 C182 1.885 . S
C407 C209 1.889 . S
C409 C98 1.881 . S
C418 C251 1.884 . S
C420 C126 1.886 . S
C429 C140 1.882 . S
C431 C211 1.884 . S
C440 C236 1.883 . S
C442 C166 1.889 . S
C451 C222 1.550 . S
C453 C1 1.550 . S
C462 C15 1.549 . S
C464 C225 1.550 . S
C473 C28 1.550 . S
C475 C238 1.549 . S
C484 C29 1.550 . S
C486 C155 1.550 . S
C495 C139 1.549 . S
C497 C0 1.550 . S
C506 C14 1.549 . S
C508 C153 1.550 . S
C517 C85 1.550 . S
C519 C54 1.550 . S
C528 C111 1.550 . S
C530 C68 1.550 . S
C539 C70 1.550 . S
C541 C113 1.550 . S
C550 C71 1.549 . S
C552 C196 1.550 . S
C561 C55 1.550 . S
C563 C168 1.550 . S
C572 C69 1.549 . S
C574 C195 1.550 . S
C583 C112 1.550 . S
C585 C239 1.550 . S
C594 C84 1.550 . S
C596 C223 1.549 . S
C605 C224 1.549 . S
C607 C110 1.550 . S
C616 C169 1.549 . S
C618 C138 1.550 . S
C627 C194 1.550 . S
C629 C152 1.549 . S
C638 C197 1.549 . S
C640 C154 1.550 . S
