# Generated by pormake.
# Topology ukm, (4)-cn, num edge types: 1
# Building blocks:
#     Node 0, Type 0, BuildingBlock: QUQFOY_clean_sbu_1, # of connection points: 4
#     Node 1, Type 0, BuildingBlock: QUQFOY_clean_sbu_1, # of connection points: 4
#     Node 2, Type 0, BuildingBlock: QUQFOY_clean_sbu_1, # of connection points: 4
#     Node 3, Type 0, BuildingBlock: QUQFOY_clean_sbu_1, # of connection points: 4
#     Node 4, Type 0, BuildingBlock: QUQFOY_clean_sbu_1, # of connection points: 4
#     Node 5, Type 0, BuildingBlock: QUQFOY_clean_sbu_1, # of connection points: 4
#     Node 6, Type 0, BuildingBlock: QUQFOY_clean_sbu_1, # of connection points: 4
#     Node 7, Type 0, BuildingBlock: QUQFOY_clean_sbu_1, # of connection points: 4
#     Node 8, Type 0, BuildingBlock: QUQFOY_clean_sbu_1, # of connection points: 4
#     Node 9, Type 0, BuildingBlock: QUQFOY_clean_sbu_1, # of connection points: 4
#     Node 10, Type 0, BuildingBlock: QUQFOY_clean_sbu_1, # of connection points: 4
#     Node 11, Type 0, BuildingBlock: QUQFOY_clean_sbu_1, # of connection points: 4
#     Node 12, Type 0, BuildingBlock: QUQFOY_clean_sbu_1, # of connection points: 4
#     Node 13, Type 0, BuildingBlock: QUQFOY_clean_sbu_1, # of connection points: 4
#     Node 14, Type 0, BuildingBlock: QUQFOY_clean_sbu_1, # of connection points: 4
#     Node 15, Type 0, BuildingBlock: QUQFOY_clean_sbu_1, # of connection points: 4
#     Node 16, Type 0, BuildingBlock: QUQFOY_clean_sbu_1, # of connection points: 4
#     Node 17, Type 0, BuildingBlock: QUQFOY_clean_sbu_1, # of connection points: 4
#     Node 18, Type 0, BuildingBlock: QUQFOY_clean_sbu_1, # of connection points: 4
#     Node 19, Type 0, BuildingBlock: QUQFOY_clean_sbu_1, # of connection points: 4
#     Node 20, Type 0, BuildingBlock: QUQFOY_clean_sbu_1, # of connection points: 4
#     Node 21, Type 0, BuildingBlock: QUQFOY_clean_sbu_1, # of connection points: 4
#     Node 22, Type 0, BuildingBlock: QUQFOY_clean_sbu_1, # of connection points: 4
#     Node 23, Type 0, BuildingBlock: QUQFOY_clean_sbu_1, # of connection points: 4
#     Node 24, Type 0, BuildingBlock: QUQFOY_clean_sbu_1, # of connection points: 4
#     Node 25, Type 0, BuildingBlock: QUQFOY_clean_sbu_1, # of connection points: 4
#     Node 26, Type 0, BuildingBlock: QUQFOY_clean_sbu_1, # of connection points: 4
#     Node 27, Type 0, BuildingBlock: QUQFOY_clean_sbu_1, # of connection points: 4
#     Node 28, Type 0, BuildingBlock: QUQFOY_clean_sbu_1, # of connection points: 4
#     Node 29, Type 0, BuildingBlock: QUQFOY_clean_sbu_1, # of connection points: 4
#     Node 30, Type 0, BuildingBlock: QUQFOY_clean_sbu_1, # of connection points: 4
#     Node 31, Type 0, BuildingBlock: QUQFOY_clean_sbu_1, # of connection points: 4
#     Edge 32, Type (0, 0), BuildingBlock: TEMPAE_clean_linker_10, # of connection points: 2
#     Edge 33, Type (0, 0), BuildingBlock: TEMPAE_clean_linker_10, # of connection points: 2
#     Edge 34, Type (0, 0), BuildingBlock: TEMPAE_clean_linker_10, # of connection points: 2
#     Edge 35, Type (0, 0), BuildingBlock: TEMPAE_clean_linker_10, # of connection points: 2
#     Edge 36, Type (0, 0), BuildingBlock: TEMPAE_clean_linker_10, # of connection points: 2
#     Edge 37, Type (0, 0), BuildingBlock: TEMPAE_clean_linker_10, # of connection points: 2
#     Edge 38, Type (0, 0), BuildingBlock: TEMPAE_clean_linker_10, # of connection points: 2
#     Edge 39, Type (0, 0), BuildingBlock: TEMPAE_clean_linker_10, # of connection points: 2
#     Edge 40, Type (0, 0), BuildingBlock: TEMPAE_clean_linker_10, # of connection points: 2
#     Edge 41, Type (0, 0), BuildingBlock: TEMPAE_clean_linker_10, # of connection points: 2
#     Edge 42, Type (0, 0), BuildingBlock: TEMPAE_clean_linker_10, # of connection points: 2
#     Edge 43, Type (0, 0), BuildingBlock: TEMPAE_clean_linker_10, # of connection points: 2
#     Edge 44, Type (0, 0), BuildingBlock: TEMPAE_clean_linker_10, # of connection points: 2
#     Edge 45, Type (0, 0), BuildingBlock: TEMPAE_clean_linker_10, # of connection points: 2
#     Edge 46, Type (0, 0), BuildingBlock: TEMPAE_clean_linker_10, # of connection points: 2
#     Edge 47, Type (0, 0), BuildingBlock: TEMPAE_clean_linker_10, # of connection points: 2
#     Edge 48, Type (0, 0), BuildingBlock: TEMPAE_clean_linker_10, # of connection points: 2
#     Edge 49, Type (0, 0), BuildingBlock: TEMPAE_clean_linker_10, # of connection points: 2
#     Edge 50, Type (0, 0), BuildingBlock: TEMPAE_clean_linker_10, # of connection points: 2
#     Edge 51, Type (0, 0), BuildingBlock: TEMPAE_clean_linker_10, # of connection points: 2
#     Edge 52, Type (0, 0), BuildingBlock: TEMPAE_clean_linker_10, # of connection points: 2
#     Edge 53, Type (0, 0), BuildingBlock: TEMPAE_clean_linker_10, # of connection points: 2
#     Edge 54, Type (0, 0), BuildingBlock: TEMPAE_clean_linker_10, # of connection points: 2
#     Edge 55, Type (0, 0), BuildingBlock: TEMPAE_clean_linker_10, # of connection points: 2
#     Edge 56, Type (0, 0), BuildingBlock: TEMPAE_clean_linker_10, # of connection points: 2
#     Edge 57, Type (0, 0), BuildingBlock: TEMPAE_clean_linker_10, # of connection points: 2
#     Edge 58, Type (0, 0), BuildingBlock: TEMPAE_clean_linker_10, # of connection points: 2
#     Edge 59, Type (0, 0), BuildingBlock: TEMPAE_clean_linker_10, # of connection points: 2
#     Edge 60, Type (0, 0), BuildingBlock: TEMPAE_clean_linker_10, # of connection points: 2
#     Edge 61, Type (0, 0), BuildingBlock: TEMPAE_clean_linker_10, # of connection points: 2
#     Edge 62, Type (0, 0), BuildingBlock: TEMPAE_clean_linker_10, # of connection points: 2
#     Edge 63, Type (0, 0), BuildingBlock: TEMPAE_clean_linker_10, # of connection points: 2
#     Edge 64, Type (0, 0), BuildingBlock: TEMPAE_clean_linker_10, # of connection points: 2
#     Edge 65, Type (0, 0), BuildingBlock: TEMPAE_clean_linker_10, # of connection points: 2
#     Edge 66, Type (0, 0), BuildingBlock: TEMPAE_clean_linker_10, # of connection points: 2
#     Edge 67, Type (0, 0), BuildingBlock: TEMPAE_clean_linker_10, # of connection points: 2
#     Edge 68, Type (0, 0), BuildingBlock: TEMPAE_clean_linker_10, # of connection points: 2
#     Edge 69, Type (0, 0), BuildingBlock: TEMPAE_clean_linker_10, # of connection points: 2
#     Edge 70, Type (0, 0), BuildingBlock: TEMPAE_clean_linker_10, # of connection points: 2
#     Edge 71, Type (0, 0), BuildingBlock: TEMPAE_clean_linker_10, # of connection points: 2
#     Edge 72, Type (0, 0), BuildingBlock: TEMPAE_clean_linker_10, # of connection points: 2
#     Edge 73, Type (0, 0), BuildingBlock: TEMPAE_clean_linker_10, # of connection points: 2
#     Edge 74, Type (0, 0), BuildingBlock: TEMPAE_clean_linker_10, # of connection points: 2
#     Edge 75, Type (0, 0), BuildingBlock: TEMPAE_clean_linker_10, # of connection points: 2
#     Edge 76, Type (0, 0), BuildingBlock: TEMPAE_clean_linker_10, # of connection points: 2
#     Edge 77, Type (0, 0), BuildingBlock: TEMPAE_clean_linker_10, # of connection points: 2
#     Edge 78, Type (0, 0), BuildingBlock: TEMPAE_clean_linker_10, # of connection points: 2
#     Edge 79, Type (0, 0), BuildingBlock: TEMPAE_clean_linker_10, # of connection points: 2
#     Edge 80, Type (0, 0), BuildingBlock: TEMPAE_clean_linker_10, # of connection points: 2
#     Edge 81, Type (0, 0), BuildingBlock: TEMPAE_clean_linker_10, # of connection points: 2
#     Edge 82, Type (0, 0), BuildingBlock: TEMPAE_clean_linker_10, # of connection points: 2
#     Edge 83, Type (0, 0), BuildingBlock: TEMPAE_clean_linker_10, # of connection points: 2
#     Edge 84, Type (0, 0), BuildingBlock: TEMPAE_clean_linker_10, # of connection points: 2
#     Edge 85, Type (0, 0), BuildingBlock: TEMPAE_clean_linker_10, # of connection points: 2
#     Edge 86, Type (0, 0), BuildingBlock: TEMPAE_clean_linker_10, # of connection points: 2
#     Edge 87, Type (0, 0), BuildingBlock: TEMPAE_clean_linker_10, # of connection points: 2
#     Edge 88, Type (0, 0), BuildingBlock: TEMPAE_clean_linker_10, # of connection points: 2
#     Edge 89, Type (0, 0), BuildingBlock: TEMPAE_clean_linker_10, # of connection points: 2
#     Edge 90, Type (0, 0), BuildingBlock: TEMPAE_clean_linker_10, # of connection points: 2
#     Edge 91, Type (0, 0), BuildingBlock: TEMPAE_clean_linker_10, # of connection points: 2
#     Edge 92, Type (0, 0), BuildingBlock: TEMPAE_clean_linker_10, # of connection points: 2
#     Edge 93, Type (0, 0), BuildingBlock: TEMPAE_clean_linker_10, # of connection points: 2
#     Edge 94, Type (0, 0), BuildingBlock: TEMPAE_clean_linker_10, # of connection points: 2
#     Edge 95, Type (0, 0), BuildingBlock: TEMPAE_clean_linker_10, # of connection points: 2
# Relax obj value: 0.230
# Max RMSD: 0.208
# Mean RMSD: 0.208
data_MOF--net-ukm--node1-QUQFOY_clean_sbu_1--edge1-TEMPAE_clean_linker_10
_symmetry_space_group_name_H-M    P1
_symmetry_Int_Tables_number       1
_symmetry_cell_setting            triclinic
loop_
_symmetry_equiv_pos_as_xyz
'x, y, z'
_cell_length_a     31.332595
_cell_length_b     107.45384
_cell_length_c     40.051265
_cell_angle_alpha  89.942312
_cell_angle_beta   89.995165
_cell_angle_gamma 90.025203
loop_
_atom_site_label
_atom_site_type_symbol
_atom_site_fract_x
_atom_site_fract_y
_atom_site_fract_z
_atom_type_partial_charge
O0 O 0.13228 0.33724 0.32806 0.0
Cd1 Cd 0.16976 0.32273 0.30951 0.0
Cd2 Cd 0.08343 0.31711 0.28849 0.0
O3 O 0.06546 0.33146 0.31854 0.0
O4 O 0.22787 0.32947 0.31829 0.0
O5 O 0.20583 0.31172 0.33973 0.0
C6 C 0.23615 0.31972 0.33572 0.0
C7 C 0.0501 0.29785 0.28434 0.0
C8 C 0.09223 0.33918 0.33031 0.0
C9 C 0.1479 0.32182 0.23638 0.0
O10 O 0.10883 0.32249 0.2441 0.0
O11 O 0.17619 0.32022 0.25859 0.0
O12 O 0.03201 0.30783 0.2734 0.0
O13 O 0.08564 0.29896 0.30048 0.0
O14 O 0.12175 0.92722 0.30967 0.0
Cd15 Cd 0.09444 0.94392 0.29424 0.0
Cd16 Cd 0.18538 0.94404 0.27463 0.0
O17 O 0.19189 0.9296 0.30805 0.0
O18 O 0.03348 0.9387 0.29592 0.0
O19 O 0.05806 0.95413 0.32636 0.0
C20 C 0.02612 0.94738 0.31713 0.0
C21 C 0.23253 0.96051 0.26486 0.0
C22 C 0.15921 0.92313 0.31551 0.0
C23 C 0.11909 0.94419 0.22298 0.0
O24 O 0.15439 0.93942 0.23153 0.0
O25 O 0.09471 0.94896 0.24469 0.0
O26 O 0.24227 0.94923 0.25692 0.0
O27 O 0.19775 0.96227 0.28159 0.0
O28 O 0.12138 0.92185 0.90618 0.0
Cd29 Cd 0.14544 0.93893 0.92023 0.0
Cd30 Cd 0.065 0.94339 0.9088 0.0
O31 O 0.06492 0.92804 0.87784 0.0
O32 O 0.20734 0.93566 0.92705 0.0
O33 O 0.1831 0.94865 0.88871 0.0
C34 C 0.21515 0.94329 0.90299 0.0
C35 C 0.06519 0.96454 0.90214 0.0
C36 C 0.09035 0.91944 0.88678 0.0
C37 C 0.08888 0.94396 0.97721 0.0
O38 O 0.05932 0.9397 0.95882 0.0
O39 O 0.1253 0.94632 0.96482 0.0
O40 O 0.02972 0.9584 0.89964 0.0
O41 O 0.10066 0.95839 0.90232 0.0
O42 O 0.10321 0.32413 0.91488 0.0
Cd43 Cd 0.08494 0.30754 0.93709 0.0
Cd44 Cd 0.16547 0.30406 0.92369 0.0
O45 O 0.16073 0.31791 0.88817 0.0
O46 O 0.02285 0.31035 0.9453 0.0
O47 O 0.04658 0.29555 0.91204 0.0
C48 C 0.0146 0.30137 0.92505 0.0
C49 C 0.18217 0.28315 0.92155 0.0
C50 C 0.13325 0.32632 0.89431 0.0
C51 C 0.14564 0.30776 0.99305 0.0
O52 O 0.17319 0.31058 0.97114 0.0
O53 O 0.10879 0.30406 0.98424 0.0
O54 O 0.21123 0.29154 0.91684 0.0
O55 O 0.1427 0.2867 0.92302 0.0
O56 O 0.90683 0.69072 0.73394 0.0
Cd57 Cd 0.88461 0.69513 0.68752 0.0
Cd58 Cd 0.81079 0.6915 0.71458 0.0
O59 O 0.84605 0.69691 0.75571 0.0
O60 O 0.92305 0.70831 0.6701 0.0
O61 O 0.85676 0.71173 0.68765 0.0
C62 C 0.89356 0.71611 0.67877 0.0
C63 C 0.74021 0.698 0.70693 0.0
C64 C 0.88532 0.69417 0.75909 0.0
C65 C 0.84684 0.6718 0.66905 0.0
O66 O 0.82361 0.67424 0.69425 0.0
O67 O 0.87112 0.68018 0.65703 0.0
O68 O 0.75038 0.69024 0.73015 0.0
O69 O 0.77061 0.70259 0.68893 0.0
O70 O 0.78785 0.06852 0.74371 0.0
Cd71 Cd 0.75964 0.06317 0.70035 0.0
Cd72 Cd 0.84497 0.07003 0.67615 0.0
O73 O 0.8535 0.07246 0.72669 0.0
O74 O 0.7079 0.055 0.71905 0.0
O75 O 0.75823 0.04469 0.69201 0.0
C76 C 0.7241 0.04449 0.71016 0.0
C77 C 0.90904 0.06482 0.64871 0.0
C78 C 0.82596 0.07169 0.74981 0.0
C79 C 0.7653 0.08454 0.65295 0.0
O80 O 0.80537 0.08259 0.65245 0.0
O81 O 0.74032 0.07755 0.66962 0.0
O82 O 0.90213 0.07574 0.66054 0.0
O83 O 0.87878 0.05673 0.65142 0.0
O84 O 0.95285 0.06849 -0.00483 0.0
Cd85 Cd 0.97818 0.06216 0.03863 0.0
Cd86 Cd 0.89179 0.07002 0.06095 0.0
O87 O 0.88708 0.07318 0.01033 0.0
O88 O 0.03051 0.05428 0.0202 0.0
O89 O 0.97866 0.04352 0.04412 0.0
C90 C 0.01358 0.04364 0.02694 0.0
C91 C 0.82513 0.06519 0.0849 0.0
C92 C 0.9157 0.07226 0.98807 0.0
C93 C 0.97283 0.08261 0.08896 0.0
O94 O 0.93243 0.08136 0.08791 0.0
O95 O 0.99737 0.07563 0.07195 0.0
O96 O 0.83456 0.07623 0.07495 0.0
O97 O 0.85433 0.05677 0.08249 0.0
O98 O 0.90172 0.68499 0.00418 0.0
Cd99 Cd 0.86859 0.69229 0.04309 0.0
Cd100 Cd 0.95674 0.68951 0.06944 0.0
O101 O 0.96406 0.69268 0.01858 0.0
O102 O 0.81517 0.69727 0.0195 0.0
O103 O 0.85764 0.71078 0.04448 0.0
C104 C 0.82466 0.70867 0.02595 0.0
C105 C 0.02239 0.69199 0.09738 0.0
C106 C 0.93952 0.68803 -0.00325 0.0
C107 C 0.88 0.67236 0.09056 0.0
O108 O 0.91973 0.67474 0.08763 0.0
O109 O 0.852 0.67948 0.07794 0.0
O110 O 0.01483 0.68271 0.07809 0.0
O111 O 0.99205 0.69994 0.10177 0.0
O112 O 0.14129 0.82568 0.8196 0.0
Cd113 Cd 0.17084 0.80916 0.8059 0.0
Cd114 Cd 0.08072 0.80771 0.78286 0.0
O115 O 0.0718 0.8228 0.8134 0.0
O116 O 0.23081 0.81421 0.81517 0.0
O117 O 0.2013 0.79807 0.83977 0.0
C118 C 0.23444 0.805 0.83539 0.0
C119 C 0.02942 0.79227 0.77355 0.0
C120 C 0.10304 0.82953 0.82254 0.0
C121 C 0.15238 0.80856 0.73312 0.0
O122 O 0.11398 0.81125 0.73999 0.0
O123 O 0.17838 0.8055 0.75592 0.0
O124 O 0.02373 0.80355 0.7636 0.0
O125 O 0.06279 0.78996 0.79146 0.0
O126 O 0.12042 0.4199 0.80464 0.0
Cd127 Cd 0.10171 0.43771 0.79054 0.0
Cd128 Cd 0.18788 0.43749 0.78924 0.0
O129 O 0.18645 0.42275 0.82208 0.0
O130 O 0.03918 0.43501 0.78499 0.0
O131 O 0.0654 0.44794 0.82234 0.0
C132 C 0.03249 0.44277 0.80881 0.0
C133 C 0.22147 0.45658 0.78869 0.0
C134 C 0.15384 0.41578 0.81898 0.0
C135 C 0.14619 0.43906 0.72648 0.0
O136 O 0.17478 0.43278 0.74108 0.0
O137 O 0.11698 0.44419 0.74354 0.0
O138 O 0.24295 0.44642 0.78452 0.0
O139 O 0.1821 0.45573 0.79829 0.0
O140 O 0.10524 0.43206 0.38617 0.0
Cd141 Cd 0.13838 0.44693 0.40759 0.0
Cd142 Cd 0.04701 0.44839 0.42887 0.0
O143 O 0.03594 0.43541 0.39297 0.0
O144 O 0.19716 0.43995 0.40472 0.0
O145 O 0.17946 0.45741 0.37968 0.0
C146 C 0.20849 0.44936 0.38706 0.0
C147 C 0.00253 0.46482 0.4439 0.0
C148 C 0.06645 0.42897 0.38125 0.0
C149 C 0.11312 0.44479 0.47928 0.0
O150 O 0.07642 0.4414 0.46988 0.0
O151 O 0.13904 0.44964 0.45874 0.0
O152 O 0.99138 0.45341 0.44875 0.0
O153 O 0.03722 0.46689 0.42733 0.0
O154 O 0.13244 0.8324 0.41975 0.0
Cd155 Cd 0.11074 0.81536 0.43705 0.0
Cd156 Cd 0.18907 0.81056 0.41966 0.0
O157 O 0.18513 0.82575 0.38803 0.0
O158 O 0.06907 0.80555 0.4091 0.0
O159 O 0.04997 0.81852 0.44915 0.0
C160 C 0.03902 0.81085 0.42596 0.0
C161 C 0.1902 0.7893 0.41282 0.0
C162 C 0.16091 0.83452 0.3978 0.0
C163 C 0.17504 0.81026 0.48928 0.0
O164 O 0.20214 0.81446 0.46865 0.0
O165 O 0.13709 0.80802 0.47987 0.0
O166 O 0.22435 0.79584 0.40771 0.0
O167 O 0.15433 0.79512 0.4164 0.0
O168 O 0.97616 0.1835 0.26192 0.0
Cd169 Cd 0.98154 0.18943 0.21372 0.0
Cd170 Cd 0.90036 0.18071 0.20572 0.0
O171 O 0.9086 0.17808 0.25626 0.0
O172 O 0.02123 0.20383 0.21339 0.0
O173 O 0.95133 0.20545 0.20486 0.0
C174 C 0.98794 0.21078 0.20938 0.0
C175 C 0.83077 0.1862 0.18992 0.0
C176 C 0.94168 0.17937 0.27426 0.0
C177 C 0.97188 0.16828 0.16695 0.0
O178 O 0.9324 0.16885 0.1741 0.0
O179 O 0.99816 0.17604 0.17923 0.0
O180 O 0.83998 0.17525 0.2007 0.0
O181 O 0.86141 0.1942 0.18765 0.0
O182 O 0.87937 0.57024 0.23842 0.0
Cd183 Cd 0.8487 0.56338 0.19773 0.0
Cd184 Cd 0.93749 0.56459 0.17519 0.0
O185 O 0.94147 0.56188 0.22638 0.0
O186 O 0.79362 0.55813 0.21816 0.0
O187 O 0.83874 0.54492 0.19478 0.0
C188 C 0.8043 0.5468 0.21182 0.0
C189 C 0.0041 0.56079 0.15 0.0
C190 C 0.91629 0.56682 0.24727 0.0
C191 C 0.86637 0.58297 0.15057 0.0
O192 O 0.90527 0.57989 0.155 0.0
O193 O 0.8362 0.57643 0.1624 0.0
O194 O 0.99732 0.57029 0.16867 0.0
O195 O 0.97248 0.55337 0.14461 0.0
O196 O 0.90441 0.56583 0.51339 0.0
Cd197 Cd 0.88763 0.56076 0.56072 0.0
Cd198 Cd 0.80996 0.56371 0.53878 0.0
O199 O 0.8422 0.55905 0.49556 0.0
O200 O 0.92603 0.54684 0.5738 0.0
O201 O 0.85773 0.54452 0.56006 0.0
C202 C 0.89469 0.53958 0.56567 0.0
C203 C 0.74051 0.55647 0.54812 0.0
C204 C 0.88059 0.56223 0.48967 0.0
C205 C 0.84844 0.58335 0.58369 0.0
O206 O 0.82258 0.58078 0.56022 0.0
O207 O 0.87563 0.57527 0.59311 0.0
O208 O 0.74863 0.56475 0.5257 0.0
O209 O 0.77228 0.55188 0.56455 0.0
O210 O 0.82916 0.18765 0.52032 0.0
Cd211 Cd 0.80782 0.19391 0.56535 0.0
Cd212 Cd 0.88301 0.18399 0.58878 0.0
O213 O 0.89249 0.18168 0.53824 0.0
O214 O 0.76674 0.20742 0.55465 0.0
O215 O 0.83036 0.21075 0.57741 0.0
C216 C 0.79584 0.21515 0.56417 0.0
C217 C 0.94596 0.18855 0.61806 0.0
C218 C 0.86611 0.18334 0.51461 0.0
C219 C 0.79902 0.17226 0.61078 0.0
O220 O 0.83962 0.17224 0.61132 0.0
O221 O 0.77878 0.1807 0.59513 0.0
O222 O 0.9384 0.17768 0.60606 0.0
O223 O 0.91693 0.19696 0.61436 0.0
O224 O 0.62248 0.32083 0.83125 0.0
Cd225 Cd 0.64542 0.30349 0.81686 0.0
Cd226 Cd 0.5548 0.30301 0.81191 0.0
O227 O 0.55522 0.31751 0.8454 0.0
O228 O 0.70757 0.30751 0.81452 0.0
O229 O 0.68227 0.29332 0.84879 0.0
C230 C 0.71469 0.29938 0.83737 0.0
C231 C 0.50601 0.28682 0.80616 0.0
C232 C 0.58763 0.32463 0.84404 0.0
C233 C 0.60615 0.30283 0.75086 0.0
O234 O 0.5745 0.30783 0.76516 0.0
O235 O 0.63569 0.29797 0.76816 0.0
O236 O 0.49483 0.29824 0.80161 0.0
O237 O 0.54352 0.28472 0.81841 0.0
O238 O 0.60562 0.92081 0.81834 0.0
Cd239 Cd 0.58548 0.93808 0.80223 0.0
Cd240 Cd 0.66691 0.9416 0.81541 0.0
O241 O 0.6637 0.9261 0.84587 0.0
O242 O 0.52365 0.93547 0.79329 0.0
O243 O 0.54739 0.94831 0.83211 0.0
C244 C 0.51549 0.94321 0.81698 0.0
C245 C 0.66815 0.96277 0.8229 0.0
C246 C 0.63616 0.91793 0.83778 0.0
C247 C 0.64592 0.94257 0.74659 0.0
O248 O 0.67446 0.9381 0.76557 0.0
O249 O 0.60912 0.94507 0.75807 0.0
O250 O 0.70296 0.95636 0.82609 0.0
O251 O 0.63227 0.95685 0.82133 0.0
O252 O 0.63065 0.92861 0.4166 0.0
Cd253 Cd 0.65829 0.94544 0.43043 0.0
Cd254 Cd 0.56642 0.94672 0.44524 0.0
O255 O 0.56112 0.93201 0.41277 0.0
O256 O 0.71916 0.94008 0.42987 0.0
O257 O 0.69556 0.95523 0.3979 0.0
C258 C 0.72712 0.9485 0.40799 0.0
C259 C 0.51678 0.96272 0.45231 0.0
C260 C 0.59329 0.92496 0.40873 0.0
C261 C 0.62958 0.94658 0.5002 0.0
O262 O 0.59401 0.94244 0.49009 0.0
O263 O 0.65665 0.95079 0.4796 0.0
O264 O 0.5081 0.95142 0.46072 0.0
O265 O 0.55224 0.96477 0.43675 0.0
O266 O 0.63918 0.33308 0.41718 0.0
Cd267 Cd 0.61058 0.31661 0.43433 0.0
Cd268 Cd 0.70012 0.31631 0.45237 0.0
O269 O 0.70932 0.33061 0.42014 0.0
O270 O 0.55033 0.32231 0.43857 0.0
O271 O 0.56946 0.3076 0.40338 0.0
C272 C 0.53956 0.31431 0.4163 0.0
C273 C 0.73784 0.29807 0.45982 0.0
C274 C 0.67698 0.33697 0.4116 0.0
C275 C 0.64036 0.31478 0.50445 0.0
O276 O 0.67166 0.32141 0.4956 0.0
O277 O 0.61741 0.30958 0.48242 0.0
O278 O 0.75389 0.30866 0.46852 0.0
O279 O 0.70247 0.29803 0.44312 0.0
O280 O 0.4755 0.68376 0.24802 0.0
Cd281 Cd 0.47021 0.69019 0.20043 0.0
Cd282 Cd 0.38815 0.68244 0.20325 0.0
O283 O 0.4059 0.68119 0.25285 0.0
O284 O 0.50794 0.70501 0.19658 0.0
O285 O 0.43709 0.70602 0.19805 0.0
C286 C 0.47362 0.71165 0.19879 0.0
C287 C 0.31771 0.68862 0.19194 0.0
C288 C 0.44306 0.68125 0.26568 0.0
C289 C 0.44972 0.66876 0.15754 0.0
O290 O 0.41305 0.66938 0.17099 0.0
O291 O 0.47815 0.67687 0.16386 0.0
O292 O 0.32634 0.678 0.20515 0.0
O293 O 0.34925 0.69595 0.18532 0.0
O294 O 0.36269 0.06468 0.20766 0.0
Cd295 Cd 0.3695 0.05848 0.1598 0.0
Cd296 Cd 0.45011 0.06242 0.17312 0.0
O297 O 0.42643 0.05737 0.21927 0.0
O298 O 0.32409 0.04576 0.15327 0.0
O299 O 0.39295 0.04122 0.15887 0.0
C300 C 0.35361 0.03752 0.1579 0.0
C301 C 0.52165 0.05762 0.16141 0.0
C302 C 0.39 0.06108 0.22893 0.0
C303 C 0.39959 0.08115 0.13188 0.0
O304 O 0.42923 0.07913 0.15294 0.0
O305 O 0.37354 0.07248 0.12456 0.0
O306 O 0.51134 0.06586 0.18323 0.0
O307 O 0.49114 0.0518 0.14638 0.0
O308 O 0.35439 0.06534 0.49371 0.0
Cd309 Cd 0.3527 0.05941 0.54208 0.0
Cd310 Cd 0.27022 0.06297 0.53339 0.0
O311 O 0.28927 0.05839 0.48562 0.0
O312 O 0.4025 0.04812 0.54726 0.0
O313 O 0.33519 0.0416 0.54605 0.0
C314 C 0.37557 0.03902 0.54562 0.0
C315 C 0.20082 0.05745 0.54961 0.0
C316 C 0.32489 0.062 0.47401 0.0
C317 C 0.32291 0.0819 0.57201 0.0
O318 O 0.29112 0.07975 0.55307 0.0
O319 O 0.35066 0.07345 0.57684 0.0
O320 O 0.20789 0.0659 0.52751 0.0
O321 O 0.23341 0.0518 0.56226 0.0
O322 O 0.35557 0.69154 0.50644 0.0
Cd323 Cd 0.30959 0.69302 0.54234 0.0
Cd324 Cd 0.38962 0.68433 0.58022 0.0
O325 O 0.41201 0.68376 0.53207 0.0
O326 O 0.26183 0.69867 0.5129 0.0
O327 O 0.28955 0.71058 0.55205 0.0
C328 C 0.26416 0.70943 0.52682 0.0
C329 C 0.44593 0.68853 0.6174 0.0
C330 C 0.39361 0.68756 0.50583 0.0
C331 C 0.3064 0.66912 0.58333 0.0
O332 O 0.34433 0.67124 0.59329 0.0
O333 O 0.28742 0.67654 0.56342 0.0
O334 O 0.44132 0.67787 0.60337 0.0
O335 O 0.41686 0.69679 0.61195 0.0
O336 O 0.64005 0.83288 0.32938 0.0
Cd337 Cd 0.67024 0.8162 0.31772 0.0
Cd338 Cd 0.58281 0.81344 0.30119 0.0
O339 O 0.57163 0.82803 0.33311 0.0
O340 O 0.73059 0.82179 0.32164 0.0
O341 O 0.70457 0.80661 0.35242 0.0
C342 C 0.73672 0.81345 0.34411 0.0
C343 C 0.54427 0.79506 0.29569 0.0
C344 C 0.60182 0.83581 0.33682 0.0
C345 C 0.6454 0.81406 0.24728 0.0
O346 O 0.60942 0.81823 0.25632 0.0
O347 O 0.67191 0.8103 0.26892 0.0
O348 O 0.52834 0.8056 0.28656 0.0
O349 O 0.58036 0.79514 0.31137 0.0
O350 O 0.61592 0.42849 0.34167 0.0
Cd351 Cd 0.59113 0.44346 0.31493 0.0
Cd352 Cd 0.67543 0.44897 0.31819 0.0
O353 O 0.68059 0.43539 0.3536 0.0
O354 O 0.53042 0.43835 0.30915 0.0
O355 O 0.54883 0.45528 0.3366 0.0
C356 C 0.51906 0.44807 0.32555 0.0
C357 C 0.69055 0.46992 0.32057 0.0
C358 C 0.65178 0.42713 0.35616 0.0
C359 C 0.64438 0.44353 0.25229 0.0
O360 O 0.67724 0.44258 0.27049 0.0
O361 O 0.60807 0.44558 0.26529 0.0
O362 O 0.7208 0.46175 0.32153 0.0
O363 O 0.6514 0.46609 0.32208 0.0
O364 O 0.64633 0.41762 0.92006 0.0
Cd365 Cd 0.67366 0.43446 0.93455 0.0
Cd366 Cd 0.58659 0.43665 0.94624 0.0
O367 O 0.57807 0.42215 0.91364 0.0
O368 O 0.73523 0.43008 0.93063 0.0
O369 O 0.70634 0.4453 0.90159 0.0
C370 C 0.73979 0.43889 0.90924 0.0
C371 C 0.54942 0.45531 0.94909 0.0
C372 C 0.60887 0.41453 0.91085 0.0
C373 C 0.64338 0.43537 0.00385 0.0
O374 O 0.60817 0.43149 0.99238 0.0
O375 O 0.67201 0.43936 0.98423 0.0
O376 O 0.53168 0.44493 0.95753 0.0
O377 O 0.58696 0.45493 0.93567 0.0
O378 O 0.61283 0.82433 0.92763 0.0
Cd379 Cd 0.59769 0.80664 0.94456 0.0
Cd380 Cd 0.67935 0.80513 0.9315 0.0
O381 O 0.67202 0.82018 0.90026 0.0
O382 O 0.53571 0.80838 0.95469 0.0
O383 O 0.56003 0.79561 0.91606 0.0
C384 C 0.52787 0.8004 0.93158 0.0
C385 C 0.6971 0.78467 0.92241 0.0
C386 C 0.64256 0.82777 0.90805 0.0
C387 C 0.65775 0.80484 0.00099 0.0
O388 O 0.68516 0.80934 0.98106 0.0
O389 O 0.62201 0.80107 0.98996 0.0
O390 O 0.72584 0.79331 0.92062 0.0
O391 O 0.65743 0.78795 0.92481 0.0
O392 O 0.41035 0.1877 0.73071 0.0
Cd393 Cd 0.3853 0.19227 0.6855 0.0
Cd394 Cd 0.31184 0.18735 0.7143 0.0
O395 O 0.34879 0.19189 0.75509 0.0
O396 O 0.41897 0.20697 0.67033 0.0
O397 O 0.35307 0.20797 0.69069 0.0
C398 C 0.38821 0.21356 0.68278 0.0
C399 C 0.24185 0.19441 0.70722 0.0
C400 C 0.38889 0.19011 0.75676 0.0
C401 C 0.34723 0.16882 0.66539 0.0
O402 O 0.3246 0.17076 0.6912 0.0
O403 O 0.37109 0.17746 0.65399 0.0
O404 O 0.25119 0.18617 0.72951 0.0
O405 O 0.27272 0.1991 0.68996 0.0
O406 O 0.30728 0.56694 0.71684 0.0
Cd407 Cd 0.29355 0.55951 0.67136 0.0
Cd408 Cd 0.37525 0.56686 0.65508 0.0
O409 O 0.37573 0.56968 0.70596 0.0
O410 O 0.25133 0.54597 0.6796 0.0
O411 O 0.31911 0.54259 0.66596 0.0
C412 C 0.28269 0.53828 0.67598 0.0
C413 C 0.44219 0.56151 0.6328 0.0
C414 C 0.34457 0.5699 0.72622 0.0
C415 C 0.29958 0.58002 0.62226 0.0
O416 O 0.33957 0.57914 0.62713 0.0
O417 O 0.27397 0.57231 0.63578 0.0
O418 O 0.43417 0.57244 0.64413 0.0
O419 O 0.41173 0.55342 0.63359 0.0
O420 O 0.44179 0.5672 0.98066 0.0
Cd421 Cd 0.45014 0.56119 0.02845 0.0
Cd422 Cd 0.36768 0.56953 0.03831 0.0
O423 O 0.37415 0.57232 0.98768 0.0
O424 O 0.49438 0.54793 0.02659 0.0
O425 O 0.42583 0.54425 0.03682 0.0
C426 C 0.46374 0.54003 0.03076 0.0
C427 C 0.29853 0.56383 0.05495 0.0
C428 C 0.40675 0.57121 0.96909 0.0
C429 C 0.43961 0.58253 0.07518 0.0
O430 O 0.3999 0.58167 0.06913 0.0
O431 O 0.46602 0.5749 0.06244 0.0
O432 O 0.30725 0.5748 0.04409 0.0
O433 O 0.32946 0.55594 0.05702 0.0
O434 O 0.41732 0.19978 -0.00438 0.0
Cd435 Cd 0.37799 0.19617 0.03543 0.0
Cd436 Cd 0.47658 0.1902 0.05609 0.0
O437 O 0.4851 0.19676 0.00876 0.0
O438 O 0.32301 0.19847 0.01075 0.0
O439 O 0.34396 0.21122 0.05047 0.0
C440 C 0.31751 0.20873 0.02666 0.0
C441 C 0.54011 0.19144 0.08719 0.0
C442 C 0.45665 0.20005 0.9882 0.0
C443 C 0.4034 0.17048 0.0608 0.0
O444 O 0.44218 0.17399 0.06169 0.0
O445 O 0.37324 0.178 0.05369 0.0
O446 O 0.5353 0.1837 0.06309 0.0
O447 O 0.50802 0.19842 0.09474 0.0
C448 C 0.02743 0.40886 0.3838 0.0
C449 C 0.05781 0.41643 0.36798 0.0
C450 C 0.02638 0.39598 0.37803 0.0
C451 C 0.05557 0.39066 0.35517 0.0
C452 C 0.08372 0.39846 0.33697 0.0
C453 C 0.08504 0.41123 0.34406 0.0
C454 C 0.99658 0.38798 0.39848 0.0
C455 C 0.1143 0.39321 0.31148 0.0
C456 C 0.10053 0.35816 0.36545 0.0
C457 C 0.07743 0.35153 0.34143 0.0
C458 C 0.09165 0.37074 0.37173 0.0
C459 C 0.06 0.37691 0.35262 0.0
C460 C 0.03536 0.37011 0.32931 0.0
C461 C 0.04398 0.35743 0.32435 0.0
C462 C 0.11763 0.37756 0.39767 0.0
C463 C 1.0021 0.37641 0.30789 0.0
H464 H 0.00679 0.41283 0.40273 0.0
H465 H 0.10856 0.41709 0.33187 0.0
H466 H 0.9801 0.38105 0.38252 0.0
H467 H 0.01537 0.38273 0.4173 0.0
H468 H 0.97218 0.39361 0.41177 0.0
H469 H 0.12967 0.40063 0.29634 0.0
H470 H 0.13969 0.38785 0.32437 0.0
H471 H 0.09745 0.38671 0.29445 0.0
H472 H 0.12636 0.35359 0.37867 0.0
H473 H 0.02648 0.35236 0.30538 0.0
H474 H 0.09642 0.38299 0.41438 0.0
H475 H 0.13944 0.38423 0.38518 0.0
H476 H 0.13709 0.37111 0.41313 0.0
H477 H 0.9807 0.38227 0.32331 0.0
H478 H 0.9824 0.36959 0.29383 0.0
H479 H 0.01817 0.38264 0.2897 0.0
C480 C 0.20214 0.90597 0.34232 0.0
C481 C 0.1639 0.9102 0.32807 0.0
C482 C 0.20619 0.89358 0.3535 0.0
C483 C 0.17152 0.88522 0.34964 0.0
C484 C 0.13325 0.88941 0.33465 0.0
C485 C 0.12979 0.90184 0.3244 0.0
C486 C 0.24716 0.88951 0.37 0.0
C487 C 0.09568 0.88079 0.32964 0.0
C488 C 0.18467 0.85 0.35436 0.0
C489 C 0.16684 0.84745 0.38573 0.0
C490 C 0.18782 0.86232 0.34257 0.0
C491 C 0.17371 0.87228 0.36299 0.0
C492 C 0.1576 0.86975 0.39528 0.0
C493 C 0.15394 0.85739 0.40607 0.0
C494 C 0.20449 0.86463 0.30777 0.0
C495 C 0.14288 0.88008 0.41811 0.0
H496 H 0.22864 0.91236 0.34515 0.0
H497 H 0.1003 0.90495 0.31298 0.0
H498 H 0.24066 0.88668 0.39616 0.0
H499 H 0.26045 0.88128 0.35696 0.0
H500 H 0.27162 0.897 0.37014 0.0
H501 H 0.06926 0.88529 0.31561 0.0
H502 H 0.10585 0.87234 0.31587 0.0
H503 H 0.0832 0.8777 0.35422 0.0
H504 H 0.19477 0.84235 0.33861 0.0
H505 H 0.1408 0.8555 0.4306 0.0
H506 H 0.22998 0.87179 0.3082 0.0
H507 H 0.17833 0.86827 0.29184 0.0
H508 H 0.21733 0.85604 0.29609 0.0
H509 H 0.16774 0.8874 0.41997 0.0
H510 H 0.1354 0.87666 0.44364 0.0
H511 H 0.1138 0.88449 0.40765 0.0
C512 C 0.06796 0.903 0.84582 0.0
C513 C 0.08277 0.90634 0.87754 0.0
C514 C 0.06565 0.89039 0.83645 0.0
C515 C 0.07747 0.88103 0.85969 0.0
C516 C 0.0896 0.88441 0.89244 0.0
C517 C 0.0926 0.89702 0.9008 0.0
C518 C 0.05314 0.88713 0.80115 0.0
C519 C 0.10165 0.87475 0.91821 0.0
C520 C 0.05543 0.8467 0.84339 0.0
C521 C 0.09577 0.84258 0.83299 0.0
C522 C 0.04857 0.85926 0.85175 0.0
C523 C 0.08263 0.86788 0.84893 0.0
C524 C 0.12314 0.86377 0.8379 0.0
C525 C 0.1293 0.85118 0.83045 0.0
C526 C 0.00523 0.86327 0.86414 0.0
C527 C 0.16022 0.87267 0.83419 0.0
H528 H 0.06028 0.91022 0.82789 0.0
H529 H 0.10332 0.8996 0.9256 0.0
H530 H 0.08156 0.88365 0.78752 0.0
H531 H 0.029 0.87958 0.80102 0.0
H532 H 0.04013 0.89528 0.78741 0.0
H533 H 0.10495 0.87882 0.94357 0.0
H534 H 0.07738 0.86724 0.91912 0.0
H535 H 0.13252 0.87042 0.91124 0.0
H536 H 0.02936 0.8401 0.84527 0.0
H537 H 0.16043 0.84813 0.82193 0.0
H538 H 0.99292 0.87105 0.84867 0.0
H539 H 0.00794 0.86676 0.89012 0.0
H540 H 0.98166 0.85555 0.86368 0.0
H541 H 0.15096 0.88066 0.81819 0.0
H542 H 0.18877 0.86815 0.8231 0.0
H543 H 0.16917 0.87646 0.85898 0.0
C544 C 0.12607 0.39413 0.81448 0.0
C545 C 0.15493 0.4025 0.82913 0.0
C546 C 0.12572 0.38151 0.82324 0.0
C547 C 0.15443 0.37711 0.84779 0.0
C548 C 0.18419 0.38545 0.86238 0.0
C549 C 0.18438 0.39805 0.85261 0.0
C550 C 0.09386 0.37294 0.80671 0.0
C551 C 0.21482 0.38113 0.88905 0.0
C552 C 0.11501 0.3489 0.89563 0.0
C553 C 0.1384 0.33916 0.88112 0.0
C554 C 0.12096 0.36128 0.88564 0.0
C555 C 0.15051 0.36405 0.86 0.0
C556 C 0.17408 0.35429 0.84498 0.0
C557 C 0.16802 0.34195 0.85592 0.0
C558 C 0.0954 0.3714 0.90255 0.0
C559 C 0.20529 0.35687 0.81712 0.0
H560 H 0.10362 0.39743 0.79587 0.0
H561 H 0.20684 0.40446 0.86392 0.0
H562 H 0.11027 0.36461 0.79656 0.0
H563 H 0.07033 0.36963 0.82543 0.0
H564 H 0.07627 0.37758 0.78609 0.0
H565 H 0.23763 0.38855 0.89647 0.0
H566 H 0.19667 0.37816 0.91148 0.0
H567 H 0.23314 0.37295 0.8802 0.0
H568 H 0.09238 0.34691 0.9154 0.0
H569 H 0.18634 0.33449 0.84468 0.0
H570 H 0.0741 0.37597 0.88413 0.0
H571 H 0.1171 0.37866 0.91255 0.0
H572 H 0.07552 0.36778 0.92336 0.0
H573 H 0.18828 0.36107 0.79558 0.0
H574 H 0.22182 0.34831 0.80853 0.0
H575 H 0.22961 0.3637 0.82547 0.0
C576 C 0.81953 0.60499 0.58533 0.0
C577 C 0.84838 0.59612 0.59779 0.0
C578 C 0.8203 0.61734 0.59642 0.0
C579 C 0.85046 0.62097 0.62078 0.0
C580 C 0.87945 0.61208 0.63379 0.0
C581 C 0.87812 0.59974 0.62209 0.0
C582 C 0.78882 0.62653 0.58194 0.0
C583 C 0.91184 0.61561 0.66002 0.0
C584 C 0.87367 0.65562 0.62883 0.0
C585 C 0.84734 0.65892 0.65573 0.0
C586 C 0.87546 0.64326 0.61739 0.0
C587 C 0.85049 0.634 0.63333 0.0
C588 C 0.82393 0.63727 0.66047 0.0
C589 C 0.82258 0.64967 0.67124 0.0
C590 C 0.9039 0.64011 0.58817 0.0
C591 C 0.79678 0.62768 0.67812 0.0
H592 H 0.79643 0.60233 0.5665 0.0
H593 H 0.90062 0.59298 0.63176 0.0
H594 H 0.76833 0.63035 0.60206 0.0
H595 H 0.80612 0.63448 0.57052 0.0
H596 H 0.76795 0.62227 0.56266 0.0
H597 H 0.93231 0.60763 0.66742 0.0
H598 H 0.93256 0.62321 0.65055 0.0
H599 H 0.89532 0.61918 0.68256 0.0
H600 H 0.89301 0.66268 0.61678 0.0
H601 H 0.80222 0.65207 0.69214 0.0
H602 H 0.8844 0.63636 0.56737 0.0
H603 H 0.92698 0.63277 0.59542 0.0
H604 H 0.92195 0.64833 0.57893 0.0
H605 H 0.77358 0.62357 0.66034 0.0
H606 H 0.77884 0.63168 0.69949 0.0
H607 H 0.81712 0.61998 0.68748 0.0
C608 C 0.77301 0.10252 0.6144 0.0
C609 C 0.75009 0.09663 0.63994 0.0
C610 C 0.76942 0.11537 0.60912 0.0
C611 C 0.74269 0.12251 0.63025 0.0
C612 C 0.71594 0.11641 0.65358 0.0
C613 C 0.71977 0.10347 0.65803 0.0
C614 C 0.79768 0.12144 0.58326 0.0
C615 C 0.68663 0.12363 0.67629 0.0
C616 C 0.79615 0.15337 0.64663 0.0
C617 C 0.77652 0.16102 0.62284 0.0
C618 C 0.78262 0.14107 0.65147 0.0
C619 C 0.74897 0.13624 0.63168 0.0
C620 C 0.72634 0.14428 0.60996 0.0
C621 C 0.74027 0.15663 0.60591 0.0
C622 C 0.80702 0.13292 0.67559 0.0
C623 C 0.6901 0.13956 0.58864 0.0
H624 H 0.79621 0.09723 0.60018 0.0
H625 H 0.70203 0.09898 0.67791 0.0
H626 H 0.77945 0.12839 0.56855 0.0
H627 H 0.82414 0.12643 0.59594 0.0
H628 H 0.81173 0.11453 0.56582 0.0
H629 H 0.66138 0.11759 0.6871 0.0
H630 H 0.70552 0.12762 0.69713 0.0
H631 H 0.67131 0.13147 0.66282 0.0
H632 H 0.82393 0.15676 0.65999 0.0
H633 H 0.725 0.16249 0.58737 0.0
H634 H 0.82674 0.12617 0.6614 0.0
H635 H 0.78471 0.12752 0.69149 0.0
H636 H 0.82847 0.13843 0.69201 0.0
H637 H 0.70336 0.13458 0.56672 0.0
H638 H 0.66983 0.14731 0.57937 0.0
H639 H 0.6698 0.1329 0.60265 0.0
C640 C 0.96174 0.15164 0.12476 0.0
C641 C 0.98735 0.15715 0.14924 0.0
C642 C 0.96954 0.13945 0.11399 0.0
C643 C 0.00297 0.1325 0.12887 0.0
C644 C 0.03094 0.13836 0.15173 0.0
C645 C 0.02305 0.15072 0.1614 0.0
C646 C 0.93978 0.13369 0.08868 0.0
C647 C 0.06665 0.13127 0.16839 0.0
C648 C 0.96949 0.09882 0.13307 0.0
C649 C 0.98995 0.09391 0.10496 0.0
C650 C 0.9768 0.11113 0.14307 0.0
C651 C 0.00425 0.11879 0.12385 0.0
C652 C 0.02766 0.11357 0.09709 0.0
C653 C 0.02057 0.1011 0.08818 0.0
C654 C 0.95225 0.11621 0.1725 0.0
C655 C 0.0569 0.12142 0.07579 0.0
H656 H 0.9342 0.15664 0.11532 0.0
H657 H 0.04262 0.15493 0.18065 0.0
H658 H 0.95814 0.12856 0.06941 0.0
H659 H 0.9185 0.12691 0.10133 0.0
H660 H 0.91959 0.14078 0.07609 0.0
H661 H 0.09023 0.13763 0.18017 0.0
H662 H 0.05307 0.12519 0.18812 0.0
H663 H 0.08347 0.1252 0.1503 0.0
H664 H 0.9459 0.09324 0.1461 0.0
H665 H 0.03612 0.09736 0.06618 0.0
H666 H 0.92648 0.12243 0.1634 0.0
H667 H 0.97347 0.12181 0.18882 0.0
H668 H 0.93751 0.10869 0.18766 0.0
H669 H 0.03737 0.12715 0.05851 0.0
H670 H 0.07888 0.11561 0.06063 0.0
H671 H 0.07606 0.12788 0.09132 0.0
C672 C 0.8837 0.60065 0.11273 0.0
C673 C 0.85708 0.59543 0.13704 0.0
C674 C 0.88071 0.61331 0.10453 0.0
C675 C 0.8515 0.62098 0.12202 0.0
C676 C 0.82314 0.61561 0.14548 0.0
C677 C 0.82586 0.60283 0.15235 0.0
C678 C 0.91043 0.6186 0.07845 0.0
C679 C 0.79228 0.6235 0.1652 0.0
C680 C 0.8913 0.65417 0.12814 0.0
C681 C 0.86711 0.66006 0.10338 0.0
C682 C 0.88439 0.64161 0.13605 0.0
C683 C 0.85366 0.63471 0.11786 0.0
C684 C 0.82787 0.64076 0.09383 0.0
C685 C 0.8345 0.65345 0.08723 0.0
C686 C 0.91149 0.63558 0.16271 0.0
C687 C 0.79555 0.63368 0.07334 0.0
H688 H 0.9078 0.59491 0.10089 0.0
H689 H 0.80566 0.59883 0.17155 0.0
H690 H 0.89252 0.62456 0.06066 0.0
H691 H 0.93483 0.62453 0.09068 0.0
H692 H 0.9271 0.61119 0.06418 0.0
H693 H 0.76903 0.61776 0.17941 0.0
H694 H 0.81038 0.62933 0.18315 0.0
H695 H 0.77446 0.6299 0.14854 0.0
H696 H 0.91647 0.65929 0.14063 0.0
H697 H 0.81617 0.65795 0.0677 0.0
H698 H 0.93437 0.62904 0.15097 0.0
H699 H 0.89123 0.63012 0.18011 0.0
H700 H 0.92989 0.64254 0.17733 0.0
H701 H 0.81252 0.62739 0.05584 0.0
H702 H 0.77471 0.63998 0.05857 0.0
H703 H 0.77519 0.62778 0.08955 0.0
C704 C 0.62841 0.39211 0.91211 0.0
C705 C 0.60098 0.40149 0.90061 0.0
C706 C 0.62146 0.3796 0.90399 0.0
C707 C 0.58678 0.37637 0.8831 0.0
C708 C 0.55871 0.38577 0.87151 0.0
C709 C 0.56583 0.39824 0.88079 0.0
C710 C 0.65176 0.36986 0.91737 0.0
C711 C 0.52201 0.38271 0.84855 0.0
C712 C 0.60777 0.3467 0.83518 0.0
C713 C 0.58437 0.33789 0.85345 0.0
C714 C 0.60672 0.35934 0.84347 0.0
C715 C 0.58257 0.36328 0.87135 0.0
C716 C 0.55802 0.35448 0.88952 0.0
C717 C 0.55872 0.34186 0.88002 0.0
C718 C 0.63262 0.36843 0.82294 0.0
C719 C 0.5326 0.35831 0.91981 0.0
H720 H 0.65522 0.39452 0.92796 0.0
H721 H 0.54447 0.40546 0.87197 0.0
H722 H 0.63365 0.36224 0.92963 0.0
H723 H 0.67004 0.36568 0.89648 0.0
H724 H 0.6748 0.37377 0.93566 0.0
H725 H 0.50171 0.39096 0.84326 0.0
H726 H 0.53456 0.37908 0.82456 0.0
H727 H 0.50182 0.3753 0.85964 0.0
H728 H 0.627 0.34369 0.81417 0.0
H729 H 0.54052 0.33506 0.89407 0.0
H730 H 0.65954 0.37204 0.83809 0.0
H731 H 0.6127 0.37651 0.81557 0.0
H732 H 0.64588 0.36408 0.80002 0.0
H733 H 0.55471 0.36136 0.93985 0.0
H734 H 0.51257 0.35059 0.92958 0.0
H735 H 0.51169 0.36632 0.91378 0.0
C736 C 0.67394 0.84501 0.87325 0.0
C737 C 0.64422 0.84095 0.89709 0.0
C738 C 0.67608 0.85761 0.86381 0.0
C739 C 0.64818 0.86634 0.87886 0.0
C740 C 0.61864 0.86231 0.90329 0.0
C741 C 0.61684 0.84969 0.91191 0.0
C742 C 0.70759 0.86156 0.83733 0.0
C743 C 0.58846 0.87132 0.92005 0.0
C744 C 0.66926 0.90122 0.87358 0.0
C745 C 0.64036 0.90479 0.84861 0.0
C746 C 0.67287 0.88868 0.88337 0.0
C747 C 0.64738 0.87952 0.86749 0.0
C748 C 0.61885 0.88306 0.84184 0.0
C749 C 0.61552 0.89561 0.8329 0.0
C750 C 0.70328 0.88524 0.9111 0.0
C751 C 0.5913 0.8736 0.82411 0.0
H752 H 0.69532 0.83834 0.86179 0.0
H753 H 0.59404 0.8467 0.93063 0.0
H754 H 0.6902 0.86522 0.81528 0.0
H755 H 0.7281 0.86919 0.84685 0.0
H756 H 0.72833 0.85375 0.82912 0.0
H757 H 0.56926 0.86683 0.94003 0.0
H758 H 0.6066 0.87917 0.93112 0.0
H759 H 0.5663 0.87531 0.90129 0.0
H760 H 0.68864 0.90824 0.88574 0.0
H761 H 0.59341 0.89822 0.81329 0.0
H762 H 0.72558 0.87789 0.90254 0.0
H763 H 0.68513 0.88138 0.93252 0.0
H764 H 0.72217 0.89335 0.91992 0.0
H765 H 0.61141 0.86602 0.81382 0.0
H766 H 0.57259 0.87778 0.80338 0.0
H767 H 0.56873 0.8693 0.84208 0.0
C768 C 0.56199 0.85184 0.3702 0.0
C769 C 0.5928 0.84882 0.3462 0.0
C770 C 0.55611 0.86427 0.38034 0.0
C771 C 0.58075 0.87383 0.36532 0.0
C772 C 0.61005 0.87083 0.33968 0.0
C773 C 0.61615 0.85837 0.33083 0.0
C774 C 0.52526 0.86707 0.40825 0.0
C775 C 0.63628 0.88074 0.32244 0.0
C776 C 0.55563 0.90831 0.37586 0.0
C777 C 0.58756 0.91186 0.39841 0.0
C778 C 0.55195 0.89584 0.36544 0.0
C779 C 0.58007 0.88675 0.3787 0.0
C780 C 0.61092 0.89026 0.40271 0.0
C781 C 0.61466 0.90277 0.41187 0.0
C782 C 0.51933 0.89249 0.33923 0.0
C783 C 0.64095 0.88085 0.41805 0.0
H784 H 0.54386 0.84445 0.38199 0.0
H785 H 0.63942 0.85607 0.31177 0.0
H786 H 0.54335 0.86998 0.43076 0.0
H787 H 0.50399 0.8749 0.4013 0.0
H788 H 0.50534 0.85888 0.41484 0.0
H789 H 0.65366 0.87705 0.30039 0.0
H790 H 0.61555 0.88853 0.3142 0.0
H791 H 0.66001 0.88461 0.34018 0.0
H792 H 0.53456 0.91533 0.36555 0.0
H793 H 0.63885 0.90545 0.42985 0.0
H794 H 0.50017 0.88435 0.34739 0.0
H795 H 0.53592 0.8898 0.31584 0.0
H796 H 0.4974 0.90034 0.33366 0.0
H797 H 0.62282 0.87272 0.42757 0.0
H798 H 0.65986 0.88485 0.4389 0.0
H799 H 0.66342 0.8774 0.39876 0.0
C800 C 0.65907 0.35472 0.37418 0.0
C801 C 0.68256 0.34997 0.401 0.0
C802 C 0.65882 0.36754 0.36735 0.0
C803 C 0.68085 0.37579 0.38892 0.0
C804 C 0.70526 0.37097 0.41571 0.0
C805 C 0.70646 0.35807 0.42103 0.0
C806 C 0.63384 0.37227 0.3377 0.0
C807 C 0.72784 0.37946 0.43999 0.0
C808 C 0.69974 0.40884 0.35872 0.0
C809 C 0.66262 0.41481 0.36983 0.0
C810 C 0.70659 0.39616 0.36522 0.0
C811 C 0.67633 0.38947 0.38439 0.0
C812 C 0.64021 0.39572 0.39756 0.0
C813 C 0.63323 0.40826 0.38939 0.0
C814 C 0.74459 0.38976 0.34966 0.0
C815 C 0.60811 0.38903 0.41925 0.0
H816 H 0.64037 0.34842 0.35891 0.0
H817 H 0.72383 0.35436 0.44225 0.0
H818 H 0.60537 0.37745 0.34646 0.0
H819 H 0.65358 0.37881 0.32279 0.0
H820 H 0.62298 0.36458 0.32121 0.0
H821 H 0.74746 0.37422 0.45833 0.0
H822 H 0.74877 0.3861 0.42651 0.0
H823 H 0.70387 0.38504 0.45383 0.0
H824 H 0.72199 0.41387 0.34293 0.0
H825 H 0.60441 0.4129 0.39775 0.0
H826 H 0.73334 0.38296 0.33077 0.0
H827 H 0.76273 0.38448 0.36875 0.0
H828 H 0.76658 0.39645 0.33728 0.0
H829 H 0.58997 0.38224 0.40399 0.0
H830 H 0.58505 0.39556 0.43095 0.0
H831 H 0.62462 0.38375 0.43926 0.0
C832 C 0.4859 0.60126 0.07556 0.0
C833 C 0.45497 0.59395 0.09156 0.0
C834 C 0.49254 0.6137 0.08499 0.0
C835 C 0.46861 0.61875 0.11172 0.0
C836 C 0.44017 0.61101 0.12984 0.0
C837 C 0.43299 0.59877 0.11905 0.0
C838 C 0.52225 0.62169 0.06446 0.0
C839 C 0.41523 0.61589 0.15931 0.0
C840 C 0.49479 0.64995 0.15135 0.0
C841 C 0.46087 0.65725 0.1397 0.0
C842 C 0.49902 0.63747 0.14143 0.0
C843 C 0.46935 0.63237 0.11855 0.0
C844 C 0.43726 0.64009 0.10459 0.0
C845 C 0.43281 0.65237 0.11593 0.0
C846 C 0.53287 0.62951 0.15764 0.0
C847 C 0.40594 0.63516 0.07917 0.0
H848 H 0.50228 0.59759 0.05384 0.0
H849 H 0.40892 0.59312 0.13127 0.0
H850 H 0.50309 0.62812 0.04879 0.0
H851 H 0.54287 0.62748 0.08072 0.0
H852 H 0.54287 0.61603 0.04778 0.0
H853 H 0.39959 0.60828 0.17359 0.0
H854 H 0.43644 0.62115 0.17641 0.0
H855 H 0.39014 0.62238 0.15043 0.0
H856 H 0.51591 0.65368 0.17033 0.0
H857 H 0.40639 0.65802 0.10718 0.0
H858 H 0.54946 0.62369 0.13885 0.0
H859 H 0.51751 0.62311 0.17579 0.0
H860 H 0.55695 0.63519 0.17113 0.0
H861 H 0.38716 0.64274 0.06732 0.0
H862 H 0.3834 0.62865 0.09149 0.0
H863 H 0.4229 0.62991 0.05936 0.0
C864 C 0.35795 0.15305 0.08331 0.0
C865 C 0.39457 0.15711 0.06643 0.0
C866 C 0.35272 0.14038 0.09165 0.0
C867 C 0.38442 0.13164 0.08218 0.0
C868 C 0.41987 0.13565 0.0631 0.0
C869 C 0.42472 0.14832 0.05583 0.0
C870 C 0.31474 0.13651 0.11235 0.0
C871 C 0.45404 0.12666 0.0519 0.0
C872 C 0.41171 0.10397 0.13665 0.0
C873 C 0.3937 0.09399 0.11898 0.0
C874 C 0.40694 0.11627 0.12572 0.0
C875 C 0.38425 0.11873 0.09591 0.0
C876 C 0.36523 0.10875 0.07815 0.0
C877 C 0.36984 0.09647 0.09009 0.0
C878 C 0.42727 0.12661 0.14575 0.0
C879 C 0.3413 0.11101 0.04603 0.0
H880 H 0.33453 0.15982 0.09144 0.0
H881 H 0.45271 0.15139 0.04219 0.0
H882 H 0.2999 0.12797 0.10199 0.0
H883 H 0.32544 0.13431 0.13809 0.0
H884 H 0.29019 0.14395 0.11371 0.0
H885 H 0.47644 0.13094 0.03371 0.0
H886 H 0.47268 0.12348 0.07387 0.0
H887 H 0.43946 0.1183 0.0403 0.0
H888 H 0.42955 0.10218 0.15934 0.0
H889 H 0.35565 0.08882 0.07643 0.0
H890 H 0.40355 0.13401 0.15104 0.0
H891 H 0.45351 0.1309 0.13111 0.0
H892 H 0.44059 0.12325 0.16983 0.0
H893 H 0.31701 0.1184 0.04951 0.0
H894 H 0.32522 0.10246 0.03679 0.0
H895 H 0.36384 0.11431 0.02657 0.0
C896 C 0.30075 0.10416 0.57645 0.0
C897 C 0.32891 0.0946 0.58576 0.0
C898 C 0.30657 0.11639 0.5877 0.0
C899 C 0.3412 0.11917 0.60909 0.0
C900 C 0.36997 0.10961 0.61846 0.0
C901 C 0.36355 0.09743 0.60661 0.0
C902 C 0.27514 0.1263 0.57713 0.0
C903 C 0.40705 0.11221 0.64148 0.0
C904 C 0.3691 0.15343 0.62101 0.0
C905 C 0.34657 0.1562 0.65034 0.0
C906 C 0.36839 0.14133 0.60747 0.0
C907 C 0.34485 0.13184 0.62379 0.0
C908 C 0.32262 0.13457 0.65359 0.0
C909 C 0.32362 0.14668 0.66636 0.0
C910 C 0.39228 0.13875 0.57551 0.0
C911 C 0.29721 0.12472 0.67185 0.0
H912 H 0.27407 0.10213 0.56012 0.0
H913 H 0.38562 0.09014 0.61376 0.0
H914 H 0.25762 0.1298 0.59928 0.0
H915 H 0.29229 0.13432 0.56597 0.0
H916 H 0.25152 0.12279 0.55872 0.0
H917 H 0.42788 0.10395 0.64491 0.0
H918 H 0.4266 0.11998 0.6315 0.0
H919 H 0.39495 0.11516 0.66628 0.0
H920 H 0.38704 0.1607 0.60855 0.0
H921 H 0.3063 0.14864 0.68918 0.0
H922 H 0.3695 0.13589 0.55574 0.0
H923 H 0.41488 0.13092 0.57922 0.0
H924 H 0.41039 0.147 0.56657 0.0
H925 H 0.27088 0.12134 0.65572 0.0
H926 H 0.28326 0.12824 0.69553 0.0
H927 H 0.31783 0.11661 0.67766 0.0
C928 C 0.30368 0.64976 0.61763 0.0
C929 C 0.28764 0.65675 0.59087 0.0
C930 C 0.29493 0.637 0.62054 0.0
C931 C 0.26971 0.63103 0.59592 0.0
C932 C 0.25031 0.63825 0.5705 0.0
C933 C 0.2594 0.65106 0.56832 0.0
C934 C 0.31564 0.62975 0.64849 0.0
C935 C 0.22285 0.63231 0.544 0.0
C936 C 0.3103 0.59825 0.58494 0.0
C937 C 0.28362 0.59162 0.60671 0.0
C938 C 0.30346 0.61092 0.57853 0.0
C939 C 0.26929 0.61716 0.59453 0.0
C940 C 0.23954 0.61021 0.61357 0.0
C941 C 0.24696 0.59746 0.61935 0.0
C942 C 0.33548 0.61788 0.55738 0.0
C943 C 0.20232 0.61643 0.63063 0.0
H944 H 0.32513 0.65412 0.63537 0.0
H945 H 0.24688 0.65638 0.54751 0.0
H946 H 0.2919 0.62366 0.66098 0.0
H947 H 0.34099 0.62366 0.6381 0.0
H948 H 0.33026 0.63593 0.66755 0.0
H949 H 0.20282 0.6393 0.53087 0.0
H950 H 0.24366 0.62772 0.52527 0.0
H951 H 0.20181 0.62505 0.55487 0.0
H952 H 0.33847 0.59374 0.57488 0.0
H953 H 0.22623 0.59242 0.6363 0.0
H954 H 0.35585 0.62374 0.57371 0.0
H955 H 0.31901 0.62415 0.53955 0.0
H956 H 0.35647 0.61148 0.5431 0.0
H957 H 0.21375 0.62115 0.65358 0.0
H958 H 0.1774 0.60959 0.63789 0.0
H959 H 0.18775 0.62361 0.61429 0.0
C960 C 0.48261 0.30659 0.37729 0.0
C961 C 0.49428 0.3131 0.4062 0.0
C962 C 0.43986 0.3063 0.36655 0.0
C963 C 0.40817 0.31257 0.38537 0.0
C964 C 0.41958 0.31864 0.41539 0.0
C965 C 0.46245 0.31888 0.42533 0.0
C966 C 0.42892 0.29977 0.33432 0.0
C967 C 0.38679 0.32537 0.43633 0.0
C968 C 0.31221 0.3262 0.34092 0.0
C969 C 0.27975 0.31772 0.34904 0.0
C970 C 0.35415 0.32445 0.35204 0.0
C971 C 0.36407 0.31399 0.37206 0.0
C972 C 0.33156 0.30536 0.38039 0.0
C973 C 0.28971 0.3073 0.36868 0.0
C974 C 0.38783 0.33389 0.34253 0.0
C975 C 0.34094 0.29415 0.4019 0.0
H976 H 0.50703 0.30206 0.36247 0.0
H977 H 0.47111 0.3238 0.44795 0.0
H978 H 0.40137 0.29343 0.338 0.0
H979 H 0.41943 0.30676 0.3153 0.0
H980 H 0.45622 0.29432 0.32438 0.0
H981 H 0.40007 0.32857 0.46057 0.0
H982 H 0.37481 0.33361 0.42249 0.0
H983 H 0.35904 0.31923 0.44132 0.0
H984 H 0.30496 0.33425 0.32559 0.0
H985 H 0.26485 0.30068 0.37494 0.0
H986 H 0.41484 0.3292 0.3298 0.0
H987 H 0.40075 0.33838 0.36532 0.0
H988 H 0.3752 0.34126 0.32577 0.0
H989 H 0.36685 0.28853 0.39054 0.0
H990 H 0.31246 0.28812 0.40534 0.0
H991 H 0.35231 0.29721 0.4268 0.0
C992 C 0.94863 0.9422 0.31688 0.0
C993 C 0.98224 0.94935 0.32987 0.0
C994 C 0.90693 0.94345 0.32898 0.0
C995 C 0.89841 0.95205 0.35484 0.0
C996 C 0.93187 0.95958 0.36747 0.0
C997 C 0.97349 0.95814 0.3548 0.0
C998 C 0.87224 0.93522 0.31483 0.0
C999 C 0.92393 0.96886 0.39502 0.0
C1000 C 0.78063 0.95873 0.36994 0.0
C1001 C 0.77122 0.95018 0.39537 0.0
C1002 C 0.82239 0.95985 0.3573 0.0
C1003 C 0.85529 0.95224 0.37044 0.0
C1004 C 0.84613 0.94389 0.3968 0.0
C1005 C 0.80432 0.94296 0.40889 0.0
C1006 C 0.83102 0.96888 0.32922 0.0
C1007 C 0.88021 0.93557 0.41149 0.0
H1008 H 0.95493 0.93546 0.2974 0.0
H1009 H 0.99925 0.96375 0.36481 0.0
H1010 H 0.86055 0.92877 0.33447 0.0
H1011 H 0.8447 0.94093 0.30663 0.0
H1012 H 0.88353 0.92961 0.29329 0.0
H1013 H 0.9523 0.97478 0.39998 0.0
H1014 H 0.89656 0.97495 0.38855 0.0
H1015 H 0.91545 0.96386 0.41835 0.0
H1016 H 0.75528 0.96439 0.35951 0.0
H1017 H 0.79749 0.93639 0.42874 0.0
H1018 H 0.83911 0.96366 0.30619 0.0
H1019 H 0.85885 0.97484 0.33533 0.0
H1020 H 0.8031 0.97494 0.32391 0.0
H1021 H 0.89141 0.92889 0.39228 0.0
H1022 H 0.86851 0.93021 0.43339 0.0
H1023 H 0.90818 0.94119 0.41932 0.0
C1024 C 0.46155 0.95399 0.85308 0.0
C1025 C 0.47091 0.94553 0.82746 0.0
C1026 C 0.41965 0.95533 0.8651 0.0
C1027 C 0.3866 0.94794 0.85137 0.0
C1028 C 0.39563 0.93977 0.82462 0.0
C1029 C 0.4376 0.93871 0.81291 0.0
C1030 C 0.41108 0.96428 0.89335 0.0
C1031 C 0.36135 0.93167 0.8094 0.0
C1032 C 0.29271 0.93816 0.90482 0.0
C1033 C 0.25949 0.94536 0.8915 0.0
C1034 C 0.33448 0.93923 0.89269 0.0
C1035 C 0.34343 0.94781 0.86678 0.0
C1036 C 0.31044 0.95548 0.85412 0.0
C1037 C 0.26872 0.95412 0.86652 0.0
C1038 C 0.3687 0.93081 0.90672 0.0
C1039 C 0.31895 0.96485 0.8268 0.0
H1040 H 0.48708 0.95937 0.86429 0.0
H1041 H 0.44449 0.93218 0.79301 0.0
H1042 H 0.38309 0.97021 0.8875 0.0
H1043 H 0.40336 0.95898 0.91636 0.0
H1044 H 0.43895 0.97037 0.89857 0.0
H1045 H 0.37303 0.92641 0.78734 0.0
H1046 H 0.34974 0.9249 0.82829 0.0
H1047 H 0.33367 0.93741 0.80167 0.0
H1048 H 0.28591 0.93139 0.92418 0.0
H1049 H 0.24325 0.95978 0.85627 0.0
H1050 H 0.39635 0.9364 0.91535 0.0
H1051 H 0.38038 0.92447 0.88689 0.0
H1052 H 0.35697 0.92509 0.92795 0.0
H1053 H 0.34676 0.97075 0.83338 0.0
H1054 H 0.29098 0.97095 0.82207 0.0
H1055 H 0.32698 0.95991 0.80332 0.0
C1056 C 0.79218 0.30471 0.83738 0.0
C1057 C 0.75861 0.29753 0.85035 0.0
C1058 C 0.83362 0.30382 0.85032 0.0
C1059 C 0.84201 0.29547 0.87688 0.0
C1060 C 0.80864 0.28789 0.88946 0.0
C1061 C 0.76723 0.28903 0.8761 0.0
C1062 C 0.86815 0.31212 0.83622 0.0
C1063 C 0.81646 0.27882 0.91759 0.0
C1064 C 0.96039 0.28962 0.89114 0.0
C1065 C 0.96982 0.29852 0.91567 0.0
C1066 C 0.91836 0.28797 0.87955 0.0
C1067 C 0.88511 0.29545 0.89268 0.0
C1068 C 0.89417 0.30398 0.91863 0.0
C1069 C 0.93631 0.30539 0.92982 0.0
C1070 C 0.90992 0.27869 0.85208 0.0
C1071 C 0.85977 0.31216 0.93331 0.0
H1072 H 0.78597 0.31128 0.8174 0.0
H1073 H 0.74153 0.28342 0.88618 0.0
H1074 H 0.8796 0.3186 0.85584 0.0
H1075 H 0.89586 0.30646 0.82813 0.0
H1076 H 0.85684 0.3177 0.8146 0.0
H1077 H 0.78825 0.27283 0.92254 0.0
H1078 H 0.8442 0.27279 0.91173 0.0
H1079 H 0.8243 0.284 0.94074 0.0
H1080 H 0.98603 0.28422 0.88019 0.0
H1081 H 0.94316 0.31223 0.94896 0.0
H1082 H 0.90267 0.28371 0.82855 0.0
H1083 H 0.88172 0.27287 0.85822 0.0
H1084 H 0.93773 0.27249 0.84765 0.0
H1085 H 0.8486 0.31887 0.91413 0.0
H1086 H 0.87121 0.31748 0.95532 0.0
H1087 H 0.83185 0.30648 0.94092 0.0
C1088 C 0.66272 0.69678 0.72149 0.0
C1089 C 0.69476 0.70037 0.69897 0.0
C1090 C 0.61959 0.69672 0.71197 0.0
C1091 C 0.60834 0.70011 0.67896 0.0
C1092 C 0.64024 0.70459 0.65693 0.0
C1093 C 0.68307 0.70476 0.6673 0.0
C1094 C 0.58651 0.69215 0.73649 0.0
C1095 C 0.62972 0.70822 0.62144 0.0
C1096 C 0.51787 0.68237 0.63804 0.0
C1097 C 0.48538 0.69133 0.63647 0.0
C1098 C 0.55759 0.6851 0.65229 0.0
C1099 C 0.56506 0.69706 0.66586 0.0
C1100 C 0.53189 0.70602 0.66567 0.0
C1101 C 0.49244 0.70308 0.65074 0.0
C1102 C 0.59207 0.67526 0.6518 0.0
C1103 C 0.53844 0.71879 0.68046 0.0
H1104 H 0.67149 0.69351 0.74617 0.0
H1105 H 0.70764 0.70756 0.64977 0.0
H1106 H 0.55759 0.6981 0.73565 0.0
H1107 H 0.57667 0.68257 0.72969 0.0
H1108 H 0.59893 0.692 0.76247 0.0
H1109 H 0.65684 0.71298 0.60891 0.0
H1110 H 0.62163 0.69974 0.60696 0.0
H1111 H 0.6015 0.71443 0.62074 0.0
H1112 H 0.51282 0.67326 0.62712 0.0
H1113 H 0.46751 0.71005 0.64964 0.0
H1114 H 0.60334 0.67335 0.67755 0.0
H1115 H 0.61988 0.67865 0.63723 0.0
H1116 H 0.58092 0.66638 0.64062 0.0
H1117 H 0.55159 0.71802 0.7061 0.0
H1118 H 0.50832 0.72423 0.6814 0.0
H1119 H 0.56202 0.72402 0.66528 0.0
C1120 C 0.95808 0.05047 0.61706 0.0
C1121 C 0.95094 0.0618 0.63351 0.0
C1122 C 0.99802 0.04779 0.60258 0.0
C1123 C 0.03151 0.05662 0.6049 0.0
C1124 C 0.02457 0.06796 0.622 0.0
C1125 C 0.98445 0.07042 0.63592 0.0
C1126 C 0.0042 0.03564 0.58435 0.0
C1127 C 0.05943 0.07761 0.62527 0.0
C1128 C 0.14921 0.0495 0.59252 0.0
C1129 C 0.15676 0.05512 0.56146 0.0
C1130 C 0.10788 0.04917 0.60623 0.0
C1131 C 0.0734 0.05447 0.58825 0.0
C1132 C 0.08048 0.0593 0.55583 0.0
C1133 C 0.12206 0.05963 0.54293 0.0
C1134 C 0.10171 0.04396 0.64091 0.0
C1135 C 0.0446 0.06491 0.53563 0.0
H1136 H 0.93238 0.04375 0.61518 0.0
H1137 H 0.97942 0.07916 0.64881 0.0
H1138 H 0.01103 0.0375 0.55762 0.0
H1139 H 0.03211 0.03059 0.59468 0.0
H1140 H 0.97568 0.02953 0.58606 0.0
H1141 H 0.04939 0.08571 0.64059 0.0
H1142 H 0.08818 0.07341 0.63687 0.0
H1143 H 0.06879 0.08103 0.60017 0.0
H1144 H 0.17588 0.04599 0.60695 0.0
H1145 H 0.12759 0.06385 0.51871 0.0
H1146 H 0.07328 0.03782 0.64181 0.0
H1147 H 0.09609 0.05172 0.65864 0.0
H1148 H 0.12999 0.03862 0.64953 0.0
H1149 H 0.0164 0.05867 0.53565 0.0
H1150 H 0.05417 0.06672 0.50936 0.0
H1151 H 0.03467 0.07385 0.54706 0.0
C1152 C 0.59916 0.06 0.17417 0.0
C1153 C 0.5671 0.05563 0.15272 0.0
C1154 C 0.64223 0.05982 0.16462 0.0
C1155 C 0.65355 0.05533 0.13261 0.0
C1156 C 0.62159 0.05027 0.11156 0.0
C1157 C 0.5787 0.0504 0.12197 0.0
C1158 C 0.67529 0.06513 0.18806 0.0
C1159 C 0.63227 0.04548 0.07715 0.0
C1160 C 0.74915 0.07128 0.0933 0.0
C1161 C 0.78155 0.0624 0.09731 0.0
C1162 C 0.70736 0.06895 0.10407 0.0
C1163 C 0.69758 0.05747 0.1197 0.0
C1164 C 0.73004 0.04842 0.12385 0.0
C1165 C 0.77168 0.05096 0.1124 0.0
C1166 C 0.6737 0.07883 0.09887 0.0
C1167 C 0.72089 0.03615 0.14073 0.0
H1168 H 0.59046 0.06392 0.19816 0.0
H1169 H 0.55407 0.04702 0.10528 0.0
H1170 H 0.70318 0.05881 0.18994 0.0
H1171 H 0.68696 0.07416 0.17812 0.0
H1172 H 0.66227 0.06671 0.21351 0.0
H1173 H 0.60502 0.04045 0.0656 0.0
H1174 H 0.64099 0.05342 0.06077 0.0
H1175 H 0.66018 0.03915 0.07814 0.0
H1176 H 0.75632 0.08011 0.08142 0.0
H1177 H 0.79653 0.04405 0.11554 0.0
H1178 H 0.66129 0.08201 0.12337 0.0
H1179 H 0.64637 0.07492 0.08471 0.0
H1180 H 0.68615 0.08705 0.08511 0.0
H1181 H 0.71011 0.0378 0.16674 0.0
H1182 H 0.74931 0.02998 0.14132 0.0
H1183 H 0.69462 0.03125 0.12762 0.0
C1184 C 0.07233 0.702 0.13872 0.0
C1185 C 0.06495 0.69337 0.1131 0.0
C1186 C 0.11273 0.70293 0.15397 0.0
C1187 C 0.14645 0.69515 0.14302 0.0
C1188 C 0.13928 0.68665 0.11664 0.0
C1189 C 0.0987 0.68583 0.10218 0.0
C1190 C 0.11911 0.71202 0.18222 0.0
C1191 C 0.17436 0.67823 0.10397 0.0
C1192 C 0.26421 0.70102 0.15927 0.0
C1193 C 0.27313 0.69182 0.18312 0.0
C1194 C 0.22241 0.70279 0.14734 0.0
C1195 C 0.18884 0.69527 0.15987 0.0
C1196 C 0.19731 0.6866 0.18565 0.0
C1197 C 0.23935 0.68492 0.19678 0.0
C1198 C 0.21475 0.71209 0.11974 0.0
C1199 C 0.16242 0.67851 0.20004 0.0
H1200 H 0.04639 0.70786 0.14725 0.0
H1201 H 0.09345 0.67921 0.08219 0.0
H1202 H 0.12647 0.70687 0.20554 0.0
H1203 H 0.14674 0.71817 0.17692 0.0
H1204 H 0.09047 0.71789 0.18655 0.0
H1205 H 0.16411 0.67258 0.08217 0.0
H1206 H 0.20259 0.68383 0.0966 0.0
H1207 H 0.18463 0.67181 0.12413 0.0
H1208 H 0.29016 0.7064 0.14867 0.0
H1209 H 0.24594 0.6779 0.21555 0.0
H1210 H 0.18621 0.71784 0.12521 0.0
H1211 H 0.20849 0.70706 0.09605 0.0
H1212 H 0.24258 0.71835 0.11594 0.0
H1213 H 0.13402 0.68419 0.20639 0.0
H1214 H 0.17303 0.67346 0.22279 0.0
H1215 H 0.15234 0.67155 0.18116 0.0
C1216 C 0.44944 0.80273 0.94038 0.0
C1217 C 0.48322 0.7977 0.92176 0.0
C1218 C 0.40725 0.80208 0.92886 0.0
C1219 C 0.39856 0.79628 0.8979 0.0
C1220 C 0.43207 0.79037 0.8802 0.0
C1221 C 0.47408 0.79115 0.89235 0.0
C1222 C 0.37251 0.80846 0.94861 0.0
C1223 C 0.42407 0.78401 0.8472 0.0
C1224 C 0.28227 0.79198 0.872 0.0
C1225 C 0.27583 0.80256 0.85206 0.0
C1226 C 0.32222 0.78966 0.8869 0.0
C1227 C 0.35624 0.79815 0.88176 0.0
C1228 C 0.34976 0.80882 0.86169 0.0
C1229 C 0.30978 0.81088 0.84714 0.0
C1230 C 0.32806 0.77818 0.90814 0.0
C1231 C 0.38505 0.81816 0.85567 0.0
H1232 H 0.45611 0.80768 0.96337 0.0
H1233 H 0.49996 0.78717 0.87793 0.0
H1234 H 0.36273 0.8171 0.9355 0.0
H1235 H 0.34392 0.80242 0.95057 0.0
H1236 H 0.38322 0.81097 0.97417 0.0
H1237 H 0.45172 0.77827 0.83923 0.0
H1238 H 0.39536 0.77799 0.84866 0.0
H1239 H 0.41799 0.79114 0.82772 0.0
H1240 H 0.25624 0.78549 0.8758 0.0
H1241 H 0.30519 0.81909 0.83179 0.0
H1242 H 0.33697 0.78089 0.93393 0.0
H1243 H 0.35455 0.77245 0.89811 0.0
H1244 H 0.29872 0.77239 0.9092 0.0
H1245 H 0.39574 0.82218 0.87977 0.0
H1246 H 0.3749 0.8259 0.83905 0.0
H1247 H 0.41299 0.81349 0.84419 0.0
C1248 C 0.78886 0.45136 0.87229 0.0
C1249 C 0.78223 0.44136 0.89424 0.0
C1250 C 0.82919 0.45345 0.8578 0.0
C1251 C 0.86341 0.44529 0.86527 0.0
C1252 C 0.85695 0.43532 0.88784 0.0
C1253 C 0.81659 0.43351 0.90206 0.0
C1254 C 0.83502 0.46423 0.83405 0.0
C1255 C 0.89243 0.42634 0.89635 0.0
C1256 C 0.95403 0.43911 0.80509 0.0
C1257 C 0.98847 0.44498 0.82103 0.0
C1258 C 0.91264 0.43976 0.81823 0.0
C1259 C 0.90533 0.44649 0.84803 0.0
C1260 C 0.93944 0.45305 0.8632 0.0
C1261 C 0.98072 0.45219 0.84955 0.0
C1262 C 0.87725 0.4326 0.80126 0.0
C1263 C 0.9328 0.46042 0.89482 0.0
H1264 H 0.76254 0.45751 0.86629 0.0
H1265 H 0.81187 0.42578 0.91905 0.0
H1266 H 0.86276 0.46997 0.84177 0.0
H1267 H 0.84188 0.46067 0.80862 0.0
H1268 H 0.80629 0.47027 0.83282 0.0
H1269 H 0.88259 0.41935 0.91531 0.0
H1270 H 0.90273 0.42134 0.8735 0.0
H1271 H 0.92054 0.43148 0.90601 0.0
H1272 H 0.95958 0.4336 0.78285 0.0
H1273 H 0.0071 0.45682 0.86188 0.0
H1274 H 0.84889 0.43862 0.79763 0.0
H1275 H 0.86736 0.42469 0.81734 0.0
H1276 H 0.8872 0.42886 0.77662 0.0
H1277 H 0.90417 0.46644 0.8926 0.0
H1278 H 0.96083 0.46634 0.90088 0.0
H1279 H 0.92721 0.45395 0.91597 0.0
C1280 C 0.46008 0.45893 0.35648 0.0
C1281 C 0.47323 0.45056 0.33171 0.0
C1282 C 0.41656 0.46032 0.36434 0.0
C1283 C 0.38563 0.45327 0.34675 0.0
C1284 C 0.3987 0.44533 0.32052 0.0
C1285 C 0.44228 0.44402 0.31347 0.0
C1286 C 0.4039 0.46883 0.3926 0.0
C1287 C 0.36681 0.43772 0.30094 0.0
C1288 C 0.28461 0.44285 0.39056 0.0
C1289 C 0.25371 0.45082 0.37688 0.0
C1290 C 0.32769 0.44385 0.38165 0.0
C1291 C 0.3404 0.45297 0.35818 0.0
C1292 C 0.30956 0.46117 0.34451 0.0
C1293 C 0.26649 0.46003 0.35416 0.0
C1294 C 0.3595 0.43495 0.397 0.0
C1295 C 0.32193 0.47094 0.31922 0.0
H1296 H 0.48384 0.46404 0.37059 0.0
H1297 H 0.45215 0.43765 0.29397 0.0
H1298 H 0.3772 0.47497 0.38489 0.0
H1299 H 0.3925 0.46318 0.41402 0.0
H1300 H 0.43092 0.47471 0.40118 0.0
H1301 H 0.3816 0.43306 0.27906 0.0
H1302 H 0.35278 0.43047 0.31736 0.0
H1303 H 0.34027 0.44369 0.29205 0.0
H1304 H 0.27517 0.43577 0.40839 0.0
H1305 H 0.2428 0.46624 0.34358 0.0
H1306 H 0.38602 0.44021 0.40875 0.0
H1307 H 0.37359 0.42899 0.37727 0.0
H1308 H 0.34478 0.42883 0.41619 0.0
H1309 H 0.34811 0.47682 0.32916 0.0
H1310 H 0.29467 0.47703 0.31233 0.0
H1311 H 0.3341 0.46638 0.29628 0.0
C1312 C 0.81254 0.82005 0.34996 0.0
C1313 C 0.77969 0.81182 0.35892 0.0
C1314 C 0.85389 0.81866 0.36263 0.0
C1315 C 0.86289 0.80877 0.38488 0.0
C1316 C 0.82996 0.80041 0.39418 0.0
C1317 C 0.78861 0.80205 0.38111 0.0
C1318 C 0.888 0.82782 0.35218 0.0
C1319 C 0.83846 0.78975 0.41783 0.0
C1320 C 0.98127 0.80161 0.3904 0.0
C1321 C 0.99337 0.80882 0.41798 0.0
C1322 C 0.93832 0.80085 0.38048 0.0
C1323 C 0.90683 0.80747 0.39858 0.0
C1324 C 0.91858 0.81418 0.42755 0.0
C1325 C 0.96168 0.81477 0.43688 0.0
C1326 C 0.92703 0.79355 0.34954 0.0
C1327 C 0.88601 0.82135 0.44758 0.0
H1328 H 0.80601 0.82764 0.33286 0.0
H1329 H 0.76342 0.79563 0.38805 0.0
H1330 H 0.90102 0.83263 0.37447 0.0
H1331 H 0.91484 0.82283 0.34008 0.0
H1332 H 0.87577 0.83496 0.33453 0.0
H1333 H 0.8095 0.78403 0.42243 0.0
H1334 H 0.86384 0.78367 0.40753 0.0
H1335 H 0.85021 0.79338 0.44207 0.0
H1336 H 0.00552 0.79691 0.37579 0.0
H1337 H 0.97065 0.82028 0.45843 0.0
H1338 H 0.91821 0.80007 0.32919 0.0
H1339 H 0.89901 0.78749 0.35427 0.0
H1340 H 0.95398 0.78768 0.34079 0.0
H1341 H 0.87464 0.82943 0.43277 0.0
H1342 H 0.89934 0.82486 0.47149 0.0
H1343 H 0.85785 0.81544 0.45311 0.0
C1344 C 0.77761 0.19948 0.1594 0.0
C1345 C 0.78653 0.18918 0.17976 0.0
C1346 C 0.73628 0.20143 0.14672 0.0
C1347 C 0.70323 0.19295 0.15493 0.0
C1348 C 0.71159 0.18301 0.17717 0.0
C1349 C 0.75314 0.18121 0.18914 0.0
C1350 C 0.72863 0.21211 0.12298 0.0
C1351 C 0.67721 0.17383 0.18682 0.0
C1352 C 0.58675 0.19945 0.13364 0.0
C1353 C 0.58171 0.19233 0.10457 0.0
C1354 C 0.62642 0.20001 0.1501 0.0
C1355 C 0.6617 0.19338 0.13695 0.0
C1356 C 0.65687 0.18642 0.10722 0.0
C1357 C 0.61701 0.18595 0.09153 0.0
C1358 C 0.63038 0.20745 0.18188 0.0
C1359 C 0.69367 0.17925 0.09222 0.0
H1360 H 0.80326 0.20569 0.15218 0.0
H1361 H 0.75967 0.17333 0.20528 0.0
H1362 H 0.72392 0.20843 0.09737 0.0
H1363 H 0.69921 0.21723 0.12992 0.0
H1364 H 0.75583 0.21875 0.12254 0.0
H1365 H 0.68752 0.16756 0.20737 0.0
H1366 H 0.64786 0.17878 0.19474 0.0
H1367 H 0.66879 0.16803 0.16488 0.0
H1368 H 0.55962 0.20443 0.14378 0.0
H1369 H 0.61356 0.18051 0.06891 0.0
H1370 H 0.65727 0.21413 0.17991 0.0
H1371 H 0.63758 0.20112 0.20304 0.0
H1372 H 0.60074 0.21268 0.18774 0.0
H1373 H 0.72131 0.18553 0.08809 0.0
H1374 H 0.68515 0.17483 0.06806 0.0
H1375 H 0.70411 0.17186 0.10977 0.0
C1376 C 0.22061 0.56828 0.05438 0.0
C1377 C 0.25439 0.56071 0.06509 0.0
C1378 C 0.17898 0.5664 0.06607 0.0
C1379 C 0.1709 0.55681 0.08945 0.0
C1380 C 0.20441 0.54871 0.09908 0.0
C1381 C 0.24585 0.55071 0.0866 0.0
C1382 C 0.14413 0.57517 0.05482 0.0
C1383 C 0.19708 0.5384 0.12405 0.0
C1384 C 0.08199 0.56515 0.1492 0.0
C1385 C 0.04709 0.55869 0.13577 0.0
C1386 C 0.12279 0.56408 0.13529 0.0
C1387 C 0.12896 0.55646 0.10691 0.0
C1388 C 0.09422 0.54955 0.09385 0.0
C1389 C 0.05359 0.5507 0.10859 0.0
C1390 C 0.15897 0.57152 0.15025 0.0
C1391 C 0.09957 0.54138 0.06352 0.0
H1392 H 0.22687 0.57591 0.03733 0.0
H1393 H 0.27183 0.5448 0.09485 0.0
H1394 H 0.11544 0.56987 0.047 0.0
H1395 H 0.13462 0.58124 0.07593 0.0
H1396 H 0.15448 0.58118 0.03374 0.0
H1397 H 0.22458 0.5319 0.12539 0.0
H1398 H 0.19202 0.54249 0.14917 0.0
H1399 H 0.16794 0.53304 0.11764 0.0
H1400 H 0.07735 0.57121 0.17051 0.0
H1401 H 0.02673 0.54566 0.09818 0.0
H1402 H 0.16951 0.57876 0.13226 0.0
H1403 H 0.18675 0.56541 0.1553 0.0
H1404 H 0.14965 0.57618 0.1739 0.0
H1405 H 0.10545 0.54729 0.04125 0.0
H1406 H 0.07089 0.53556 0.05875 0.0
H1407 H 0.12766 0.5352 0.06651 0.0
C1408 C 0.66234 0.5576 0.53649 0.0
C1409 C 0.69581 0.55336 0.55678 0.0
C1410 C 0.61978 0.5568 0.54713 0.0
C1411 C 0.61049 0.55173 0.57896 0.0
C1412 C 0.64384 0.54657 0.59843 0.0
C1413 C 0.68617 0.54741 0.58703 0.0
C1414 C 0.58516 0.56227 0.52539 0.0
C1415 C 0.6353 0.54108 0.63248 0.0
C1416 C 0.5183 0.56722 0.62371 0.0
C1417 C 0.48524 0.55855 0.61971 0.0
C1418 C 0.55924 0.56494 0.61116 0.0
C1419 C 0.5675 0.55371 0.59388 0.0
C1420 C 0.53451 0.54481 0.59005 0.0
C1421 C 0.49368 0.54731 0.60314 0.0
C1422 C 0.59354 0.57467 0.61602 0.0
C1423 C 0.54216 0.53276 0.57167 0.0
H1424 H 0.6695 0.56207 0.51287 0.0
H1425 H 0.71185 0.54406 0.60279 0.0
H1426 H 0.55722 0.55594 0.52422 0.0
H1427 H 0.57414 0.57119 0.53635 0.0
H1428 H 0.59653 0.56411 0.49957 0.0
H1429 H 0.66305 0.53571 0.642 0.0
H1430 H 0.62836 0.5487 0.65037 0.0
H1431 H 0.60697 0.5349 0.63186 0.0
H1432 H 0.51222 0.57589 0.63669 0.0
H1433 H 0.46827 0.54057 0.59999 0.0
H1434 H 0.60445 0.57819 0.59139 0.0
H1435 H 0.6216 0.57051 0.62869 0.0
H1436 H 0.58226 0.58271 0.63106 0.0
H1437 H 0.5502 0.53476 0.54522 0.0
H1438 H 0.51387 0.52653 0.57232 0.0
H1439 H 0.56978 0.52777 0.58266 0.0
C1440 C 0.02039 0.18239 0.63209 0.0
C1441 C 0.9875 0.1912 0.63424 0.0
C1442 C 0.06059 0.18467 0.64603 0.0
C1443 C 0.06817 0.19601 0.66301 0.0
C1444 C 0.03504 0.20492 0.66566 0.0
C1445 C 0.99506 0.20245 0.65101 0.0
C1446 C 0.09512 0.17495 0.64229 0.0
C1447 C 0.04188 0.21704 0.68392 0.0
C1448 C 0.16389 0.19293 0.71992 0.0
C1449 C 0.19678 0.19727 0.6992 0.0
C1450 C 0.1211 0.19348 0.70964 0.0
C1451 C 0.1111 0.19831 0.67769 0.0
C1452 C 0.14384 0.20356 0.65777 0.0
C1453 C 0.18631 0.20305 0.66887 0.0
C1454 C 0.08707 0.18799 0.7319 0.0
C1455 C 0.13461 0.20875 0.62348 0.0
H1456 H 0.01497 0.17371 0.61901 0.0
H1457 H 0.96976 0.20929 0.65278 0.0
H1458 H 0.12321 0.17902 0.62941 0.0
H1459 H 0.10589 0.17176 0.66726 0.0
H1460 H 0.08418 0.16671 0.6279 0.0
H1461 H 0.01267 0.22289 0.68431 0.0
H1462 H 0.05185 0.21516 0.71003 0.0
H1463 H 0.06798 0.22239 0.6719 0.0
H1464 H 0.1717 0.18859 0.74359 0.0
H1465 H 0.21153 0.20646 0.65276 0.0
H1466 H 0.07686 0.17885 0.72175 0.0
H1467 H 0.05854 0.19409 0.73261 0.0
H1468 H 0.09871 0.18655 0.75782 0.0
H1469 H 0.12755 0.20097 0.60612 0.0
H1470 H 0.16205 0.21411 0.61333 0.0
H1471 H 0.10616 0.21488 0.62403 0.0
C1472 C 0.02935 0.2306 0.20778 0.0
C1473 C 0.99115 0.22434 0.2147 0.0
C1474 C 0.03539 0.24298 0.21788 0.0
C1475 C 0.00303 0.24908 0.23639 0.0
C1476 C 0.96386 0.2429 0.24255 0.0
C1477 C 0.95815 0.23065 0.23116 0.0
C1478 C 0.07702 0.24939 0.20974 0.0
C1479 C 0.92897 0.24896 0.26283 0.0
C1480 C 0.04426 0.27482 0.29295 0.0
C1481 C 0.03347 0.28548 0.27471 0.0
C1482 C 0.03269 0.26292 0.28151 0.0
C1483 C 0.01114 0.26167 0.25056 0.0
C1484 C 0.99944 0.27244 0.23241 0.0
C1485 C 0.01019 0.28422 0.24496 0.0
C1486 C 0.04459 0.25167 0.3021 0.0
C1487 C 0.97755 0.27152 0.1989 0.0
H1488 H 0.05488 0.22571 0.19506 0.0
H1489 H 0.92882 0.22576 0.23701 0.0
H1490 H 0.07088 0.25863 0.19835 0.0
H1491 H 0.09542 0.25096 0.23302 0.0
H1492 H 0.09701 0.24384 0.19233 0.0
H1493 H 0.89947 0.24323 0.26364 0.0
H1494 H 0.94035 0.25041 0.28878 0.0
H1495 H 0.92096 0.25824 0.25247 0.0
H1496 H 0.06221 0.27576 0.31595 0.0
H1497 H 0.00227 0.29244 0.23051 0.0
H1498 H 0.06908 0.24613 0.28874 0.0
H1499 H 0.01632 0.24558 0.30572 0.0
H1500 H 0.05747 0.25427 0.32698 0.0
H1501 H 0.99919 0.26691 0.18078 0.0
H1502 H 0.96852 0.28078 0.18881 0.0
H1503 H 0.94842 0.2657 0.20081 0.0
C1504 C 0.2834 0.96935 0.223 0.0
C1505 C 0.25739 0.97113 0.25116 0.0
C1506 C 0.3021 0.97949 0.20626 0.0
C1507 C 0.29551 0.9917 0.21837 0.0
C1508 C 0.27101 0.9935 0.24777 0.0
C1509 C 0.25178 0.98322 0.26355 0.0
C1510 C 0.32724 0.97715 0.17472 0.0
C1511 C 0.26412 0.00634 0.26204 0.0
C1512 C 0.36846 0.01809 0.19015 0.0
C1513 C 0.34187 0.02469 0.16817 0.0
C1514 C 0.35415 0.00722 0.20623 0.0
C1515 C 0.31261 0.00265 0.19957 0.0
C1516 C 0.28664 0.00886 0.17583 0.0
C1517 C 0.30134 0.01989 0.16079 0.0
C1518 C 0.38258 1.00105 0.23178 0.0
C1519 C 0.24263 0.00411 0.16726 0.0
H1520 H 0.28755 0.96006 0.21299 0.0
H1521 H 0.23175 0.98466 0.28526 0.0
H1522 H 0.31067 0.98153 0.15321 0.0
H1523 H 0.35929 0.98149 0.1765 0.0
H1524 H 0.33122 0.96707 0.16947 0.0
H1525 H 0.24738 0.00608 0.28648 0.0
H1526 H 0.29519 0.01115 0.26533 0.0
H1527 H 0.24488 0.012 0.24441 0.0
H1528 H 0.39954 0.02185 0.19646 0.0
H1529 H 0.28059 0.02497 0.14394 0.0
H1530 H 0.38575 0.99097 0.22641 0.0
H1531 H 0.36793 0.00192 0.2569 0.0
H1532 H 0.41496 0.00526 0.23254 0.0
H1533 H 0.24403 0.9941 0.16059 0.0
H1534 H 0.22808 0.00932 0.14616 0.0
H1535 H 0.22144 0.00499 0.18932 0.0
C1536 C 0.01654 0.02042 0.02103 0.0
C1537 C 0.02971 0.03225 0.01046 0.0
C1538 C 0.02636 0.00976 0.00217 0.0
C1539 C 0.04871 0.01104 0.97156 0.0
C1540 C 0.06312 0.02291 0.96131 0.0
C1541 C 0.05395 0.03334 0.9811 0.0
C1542 C 0.01169 0.99719 0.0145 0.0
C1543 C 0.08636 0.02471 0.92861 0.0
C1544 C 0.09776 0.98192 0.93411 0.0
C1545 C 0.06469 0.97765 0.91339 0.0
C1546 C 0.09342 0.9929 0.95269 0.0
C1547 C 0.05561 1.0 0.94973 0.0
C1548 C 0.02346 0.99623 0.92696 0.0
C1549 C 0.0281 0.98499 0.90942 0.0
C1550 C 0.128 0.99641 0.97722 0.0
C1551 C 0.98326 0.00377 0.92231 0.0
H1552 H 0.9978 0.01953 0.04366 0.0
H1553 H 0.06382 0.04247 0.97251 0.0
H1554 H 0.9871 0.99341 -0.00265 0.0
H1555 H 0.03878 0.99054 0.01465 0.0
H1556 H 0.99794 0.99765 0.04004 0.0
H1557 H 0.09712 0.03446 0.92496 0.0
H1558 H 0.11458 0.0185 0.92733 0.0
H1559 H 0.06499 0.02214 0.90762 0.0
H1560 H 0.12587 0.97619 0.93782 0.0
H1561 H 0.00239 0.9817 0.89361 0.0
H1562 H 0.11574 0.9953 0.00305 0.0
H1563 H 0.13725 0.0063 0.97408 0.0
H1564 H 0.15695 0.99053 0.97443 0.0
H1565 H 0.96384 0.0034 0.94545 0.0
H1566 H 0.96351 1.00029 0.90126 0.0
H1567 H 0.99128 0.01368 0.91761 0.0
C1568 C 0.26434 0.2159 0.98419 0.0
C1569 C 0.2866 0.21812 0.01406 0.0
C1570 C 0.24217 0.22548 0.96775 0.0
C1571 C 0.24184 0.23758 0.98164 0.0
C1572 C 0.26162 0.23967 0.01299 0.0
C1573 C 0.28392 0.22994 0.02876 0.0
C1574 C 0.22155 0.22282 0.93444 0.0
C1575 C 0.26134 0.25239 0.02899 0.0
C1576 C 0.23676 0.26626 0.92613 0.0
C1577 C 0.19467 0.2703 0.93101 0.0
C1578 C 0.25185 0.2553 0.94123 0.0
C1579 C 0.22438 0.24829 0.96214 0.0
C1580 C 0.18121 0.25195 0.9657 0.0
C1581 C 0.16679 0.26287 0.94991 0.0
C1582 C 0.29787 0.25159 0.93611 0.0
C1583 C 0.15089 0.24476 0.98778 0.0
H1584 H 0.26611 0.20681 0.97256 0.0
H1585 H 0.3009 0.23175 0.05182 0.0
H1586 H 0.18873 0.22668 0.9336 0.0
H1587 H 0.24014 0.22743 0.91434 0.0
H1588 H 0.22006 0.21269 0.92902 0.0
H1589 H 0.27422 0.2522 0.05483 0.0
H1590 H 0.28101 0.25888 0.01388 0.0
H1591 H 0.22841 0.25617 0.02966 0.0
H1592 H 0.25848 0.27193 0.91154 0.0
H1593 H 0.13432 0.26597 0.95412 0.0
H1594 H 0.2999 0.24171 0.92824 0.0
H1595 H 0.3155 0.25247 0.96002 0.0
H1596 H 0.31405 0.25744 0.91705 0.0
H1597 H 0.15235 0.23467 0.98205 0.0
H1598 H 0.11738 0.24797 0.98497 0.0
H1599 H 0.16047 0.24592 0.01426 0.0
C1600 C 0.88019 0.73619 0.70817 0.0
C1601 C 0.9047 0.72928 0.68544 0.0
C1602 C 0.8959 0.74728 0.72211 0.0
C1603 C 0.93676 0.75166 0.71264 0.0
C1604 C 0.96002 0.74528 0.68763 0.0
C1605 C 0.94386 0.73411 0.67451 0.0
C1606 C 0.87014 0.75376 0.74878 0.0
C1607 C 0.00325 0.74982 0.67621 0.0
C1608 C 0.97321 0.78441 0.7346 0.0
C1609 C 1.00135 0.78215 0.76124 0.0
C1610 C 0.95111 0.77463 0.71903 0.0
C1611 C 0.95676 0.76231 0.73066 0.0
C1612 C 0.98341 0.76005 0.75863 0.0
C1613 C 0.00566 0.76998 0.77342 0.0
C1614 C 0.92333 0.77743 0.68914 0.0
C1615 C 0.9896 0.74706 0.77223 0.0
H1616 H 0.85002 0.7325 0.71699 0.0
H1617 H 0.96294 0.72884 0.65692 0.0
H1618 H 0.88589 0.75244 0.77335 0.0
H1619 H 0.86866 0.76392 0.74396 0.0
H1620 H 0.83707 0.75008 0.75044 0.0
H1621 H 0.01502 0.74462 0.65409 0.0
H1622 H 1.00192 0.75986 0.66991 0.0
H1623 H 0.02669 0.74868 0.69675 0.0
H1624 H 0.96983 0.79377 0.72487 0.0
H1625 H 0.02724 0.76816 0.794 0.0
H1626 H 0.89124 0.77324 0.69237 0.0
H1627 H 0.93766 0.77321 0.66649 0.0
H1628 H 0.91959 0.78758 0.68484 0.0
H1629 H 0.95822 0.74267 0.77734 0.0
H1630 H 0.00875 0.74699 0.79557 0.0
H1631 H 0.00611 0.74124 0.75337 0.0
C1632 C 0.70725 0.98304 0.81815 0.0
C1633 C 0.67008 0.97604 0.81305 0.0
C1634 C 0.71288 0.99462 0.80234 0.0
C1635 C 0.68112 0.99911 0.78017 0.0
C1636 C 0.64284 0.9923 0.77598 0.0
C1637 C 0.63755 0.98095 0.79283 0.0
C1638 C 0.75361 1.0018 0.80826 0.0
C1639 C 0.6086 0.99659 0.75205 0.0
C1640 C 0.68424 0.03318 0.75469 0.0
C1641 C 0.70807 0.03274 0.72501 0.0
C1642 C 0.67488 0.02231 0.77273 0.0
C1643 C 0.68871 0.01066 0.76038 0.0
C1644 C 0.71083 0.01009 0.72952 0.0
C1645 C 0.72079 0.02116 0.71243 0.0
C1646 C 0.6519 0.02336 0.80575 0.0
C1647 C 0.72497 0.9978 0.71501 0.0
H1648 H 0.73257 0.97927 0.83358 0.0
H1649 H 0.60899 0.97552 0.78824 0.0
H1650 H 0.77294 0.00193 0.78505 0.0
H1651 H 0.74627 0.0116 0.81477 0.0
H1652 H 0.77317 0.99766 0.82857 0.0
H1653 H 0.57948 0.99071 0.75342 0.0
H1654 H 0.59958 0.00638 0.75723 0.0
H1655 H 0.6211 0.99625 0.72613 0.0
H1656 H 0.67471 0.0421 0.76485 0.0
H1657 H 0.73924 0.02077 0.68956 0.0
H1658 H 0.6731 0.02008 0.82614 0.0
H1659 H 0.62319 0.01732 0.80592 0.0
H1660 H 0.64192 0.03306 0.8113 0.0
H1661 H 0.74927 0.99349 0.73151 0.0
H1662 H 0.73887 0.99886 0.68965 0.0
H1663 H 0.69756 0.99128 0.7136 0.0
C1664 C 0.68363 0.76389 0.94787 0.0
C1665 C 0.71012 0.77165 0.92873 0.0
C1666 C 0.69937 0.75285 0.9621 0.0
C1667 C 0.74231 0.74936 0.95638 0.0
C1668 C 0.76804 0.75661 0.93472 0.0
C1669 C 0.7518 0.76775 0.92148 0.0
C1670 C 0.671 0.74548 0.9853 0.0
C1671 C 0.81357 0.753 0.92713 0.0
C1672 C 0.80259 0.73105 0.02263 0.0
C1673 C 0.80083 0.71894 0.00983 0.0
C1674 C 0.78262 0.74096 0.00591 0.0
C1675 C 0.7614 0.73876 0.97519 0.0
C1676 C 0.75932 0.72653 0.96228 0.0
C1677 C 0.77862 0.71675 0.97996 0.0
C1678 C 0.78473 0.75384 0.02089 0.0
C1679 C 0.73793 0.72384 0.92928 0.0
H1680 H 0.65152 0.76689 0.9539 0.0
H1681 H 0.77239 0.77371 0.90667 0.0
H1682 H 0.67189 0.73544 0.97891 0.0
H1683 H 0.68288 0.74642 0.01128 0.0
H1684 H 0.63733 0.7487 0.9845 0.0
H1685 H 0.8274 0.75868 0.90662 0.0
H1686 H 0.83348 0.75429 0.94977 0.0
H1687 H 0.81545 0.74303 0.9201 0.0
H1688 H 0.8197 0.73277 0.04569 0.0
H1689 H 0.77766 0.70742 0.96968 0.0
H1690 H 0.75211 0.75774 0.02344 0.0
H1691 H 0.80289 0.76012 0.00409 0.0
H1692 H 0.80029 0.75387 0.04581 0.0
H1693 H 0.7045 0.72722 0.92957 0.0
H1694 H 0.73784 0.71375 0.92323 0.0
H1695 H 0.75475 0.72889 0.909 0.0
C1696 C 0.31083 0.52056 0.70928 0.0
C1697 C 0.27872 0.52541 0.68866 0.0
C1698 C 0.30469 0.50939 0.72698 0.0
C1699 C 0.26615 0.50267 0.72292 0.0
C1700 C 0.23451 0.50723 0.70072 0.0
C1701 C 0.24075 0.51871 0.6845 0.0
C1702 C 0.33856 0.50512 0.75123 0.0
C1703 C 0.19374 0.50011 0.69456 0.0
C1704 C 0.26362 0.46839 0.74675 0.0
C1705 C 0.23836 0.46851 0.7757 0.0
C1706 C 0.27319 0.47943 0.72949 0.0
C1707 C 0.25857 0.49095 0.74216 0.0
C1708 C 0.23515 0.49119 0.77249 0.0
C1709 C 0.22445 0.47994 0.78849 0.0
C1710 C 0.29677 0.47865 0.69666 0.0
C1711 C 0.22039 0.50332 0.78755 0.0
H1712 H 0.33981 0.52589 0.71315 0.0
H1713 H 0.21579 0.52252 0.66877 0.0
H1714 H 0.32509 0.50487 0.77686 0.0
H1715 H 0.34904 0.49554 0.74511 0.0
H1716 H 0.36694 0.51132 0.7512 0.0
H1717 H 0.17425 0.50433 0.67433 0.0
H1718 H 0.20108 0.49033 0.68775 0.0
H1719 H 0.17432 0.49987 0.7177 0.0
H1720 H 0.27364 0.45956 0.7363 0.0
H1721 H 0.20467 0.48005 0.8107 0.0
H1722 H 0.32522 0.48479 0.69698 0.0
H1723 H 0.27572 0.48197 0.67621 0.0
H1724 H 0.30722 0.46902 0.6908 0.0
H1725 H 0.24734 0.51001 0.78895 0.0
H1726 H 0.20693 0.50204 0.81299 0.0
H1727 H 0.1955 0.50755 0.77146 0.0
C1728 C 0.9862 0.48747 0.4517 0.0
C1729 C 0.97937 0.47504 0.46083 0.0
C1730 C 0.96856 0.49725 0.47047 0.0
C1731 C 0.94444 0.49452 0.49955 0.0
C1732 C 0.93667 0.48198 0.50844 0.0
C1733 C 0.95381 0.4724 0.48877 0.0
C1734 C 0.97664 0.51051 0.45966 0.0
C1735 C 0.9118 0.47868 0.53952 0.0
C1736 C 0.94254 0.52096 0.56245 0.0
C1737 C 0.90317 0.52657 0.55537 0.0
C1738 C 0.95533 0.51007 0.54583 0.0
C1739 C 0.9285 0.50483 0.52106 0.0
C1740 C 0.88765 0.51001 0.51532 0.0
C1741 C 0.87528 0.52073 0.53284 0.0
C1742 C 0.99863 0.50459 0.55341 0.0
C1743 C 0.85825 0.50482 0.48889 0.0
H1744 H 0.00592 0.48956 0.43016 0.0
H1745 H 0.94879 0.46281 0.49625 0.0
H1746 H 0.946 0.51563 0.45761 0.0
H1747 H 0.99627 0.51534 0.47872 0.0
H1748 H 0.99347 0.51104 0.43529 0.0
H1749 H 0.90679 0.46849 0.54208 0.0
H1750 H 0.9292 0.48206 0.56187 0.0
H1751 H 0.88023 0.48334 0.53931 0.0
H1752 H 0.96424 0.52541 0.57982 0.0
H1753 H 0.84492 0.52504 0.52694 0.0
H1754 H 0.02025 0.50613 0.53185 0.0
H1755 H 0.99609 0.4944 0.5573 0.0
H1756 H 0.01337 0.50884 0.57591 0.0
H1757 H 0.87219 0.50657 0.46385 0.0
H1758 H 0.82603 0.50912 0.48979 0.0
H1759 H 0.85482 0.4946 0.49174 0.0
C1760 C 0.24784 0.73231 0.52485 0.0
C1761 C 0.24315 0.72038 0.51117 0.0
C1762 C 0.23441 0.74294 0.50721 0.0
C1763 C 0.21627 0.74161 0.47496 0.0
C1764 C 0.20952 0.72957 0.46177 0.0
C1765 C 0.22283 0.71911 0.48008 0.0
C1766 C 0.2414 0.75562 0.52246 0.0
C1767 C 0.1903 0.72774 0.42755 0.0
C1768 C 0.16036 0.77017 0.43961 0.0
C1769 C 0.19359 0.77594 0.42182 0.0
C1770 C 0.16668 0.75875 0.45604 0.0
C1771 C 0.20704 0.75287 0.45431 0.0
C1772 C 0.23966 0.75818 0.43434 0.0
C1773 C 0.23263 0.76968 0.41849 0.0
C1774 C 0.13106 0.75343 0.47706 0.0
C1775 C 0.2829 0.75209 0.43127 0.0
H1776 H 0.26342 0.73339 0.54884 0.0
H1777 H 0.21905 0.70994 0.46921 0.0
H1778 H 0.26549 0.76081 0.50765 0.0
H1779 H 0.21139 0.76109 0.52183 0.0
H1780 H 0.25266 0.75503 0.54872 0.0
H1781 H 0.18359 0.71779 0.42215 0.0
H1782 H 0.16018 0.73309 0.42516 0.0
H1783 H 0.21263 0.73132 0.4083 0.0
H1784 H 0.13015 0.77495 0.4426 0.0
H1785 H 0.25848 0.77405 0.40483 0.0
H1786 H 0.13932 0.75441 0.50387 0.0
H1787 H 0.12688 0.74336 0.47198 0.0
H1788 H 0.10022 0.75825 0.47254 0.0
H1789 H 0.29939 0.75235 0.45577 0.0
H1790 H 0.30345 0.75679 0.41249 0.0
H1791 H 0.27932 0.74217 0.42415 0.0
C1792 C 0.67234 0.48977 0.29183 0.0
C1793 C 0.70068 0.48295 0.31184 0.0
C1794 C 0.68534 0.50085 0.27617 0.0
C1795 C 0.7273 0.50534 0.28138 0.0
C1796 C 0.75486 0.49899 0.30367 0.0
C1797 C 0.74141 0.48777 0.31825 0.0
C1798 C 0.65521 0.50723 0.25224 0.0
C1799 C 0.79937 0.50369 0.31074 0.0
C1800 C 0.78471 0.52422 0.21477 0.0
C1801 C 0.78051 0.53635 0.22711 0.0
C1802 C 0.76597 0.5141 0.23151 0.0
C1803 C 0.74357 0.51614 0.26179 0.0
C1804 C 0.73855 0.5284 0.27398 0.0
C1805 C 0.75663 0.53837 0.25627 0.0
C1806 C 0.77112 0.50119 0.21725 0.0
C1807 C 0.71582 0.53094 0.30652 0.0
H1808 H 0.641 0.486 0.28641 0.0
H1809 H 0.76338 0.48252 0.33372 0.0
H1810 H 0.65339 0.51733 0.25766 0.0
H1811 H 0.66746 0.50622 0.22638 0.0
H1812 H 0.62251 0.50325 0.25332 0.0
H1813 H 0.81486 0.49852 0.33149 0.0
H1814 H 0.81938 0.50269 0.28806 0.0
H1815 H 0.79859 0.51373 0.31722 0.0
H1816 H 0.80309 0.52263 0.19225 0.0
H1817 H 0.75372 0.54772 0.26618 0.0
H1818 H 0.73956 0.49655 0.21525 0.0
H1819 H 0.79108 0.49547 0.23423 0.0
H1820 H 0.78632 0.5013 0.19219 0.0
H1821 H 0.68366 0.52662 0.30643 0.0
H1822 H 0.71235 0.54105 0.31151 0.0
H1823 H 0.73397 0.52667 0.32739 0.0
C1824 C 0.75237 0.23429 0.55529 0.0
C1825 C 0.7922 0.2284 0.55503 0.0
C1826 C 0.74708 0.24615 0.54111 0.0
C1827 C 0.78207 0.25198 0.525 0.0
C1828 C 0.82264 0.24618 0.52542 0.0
C1829 C 0.82737 0.23454 0.54098 0.0
C1830 C 0.7037 0.25225 0.54241 0.0
C1831 C 0.86042 0.2519 0.50774 0.0
C1832 C 0.74906 0.27501 0.45759 0.0
C1833 C 0.75526 0.2864 0.4738 0.0
C1834 C 0.75989 0.26374 0.47334 0.0
C1835 C 0.77558 0.26389 0.50657 0.0
C1836 C 0.78269 0.2754 0.52273 0.0
C1837 C 0.77314 0.28652 0.50592 0.0
C1838 C 0.75324 0.25167 0.45483 0.0
C1839 C 0.79789 0.27598 0.55848 0.0
H1840 H 0.72515 0.2295 0.56603 0.0
H1841 H 0.85802 0.22986 0.54018 0.0
H1842 H 0.70657 0.26195 0.55162 0.0
H1843 H 0.68988 0.25268 0.51694 0.0
H1844 H 0.68116 0.24711 0.55883 0.0
H1845 H 0.89027 0.24654 0.51188 0.0
H1846 H 0.85397 0.25228 0.48051 0.0
H1847 H 0.86552 0.2616 0.51628 0.0
H1848 H 0.7351 0.2749 0.43282 0.0
H1849 H 0.77721 0.29531 0.51881 0.0
H1850 H 0.72671 0.24638 0.46647 0.0
H1851 H 0.78231 0.2458 0.45647 0.0
H1852 H 0.74545 0.25321 0.42808 0.0
H1853 H 0.77317 0.27193 0.57511 0.0
H1854 H 0.80443 0.28567 0.56672 0.0
H1855 H 0.82731 0.27038 0.56176 0.0
C1856 C 0.4492 0.27929 0.76744 0.0
C1857 C 0.47989 0.27658 0.79197 0.0
C1858 C 0.43012 0.26981 0.74851 0.0
C1859 C 0.4412 0.25726 0.75471 0.0
C1860 C 0.4701 0.2544 0.78088 0.0
C1861 C 0.48952 0.2641 0.79892 0.0
C1862 C 0.39988 0.27328 0.72066 0.0
C1863 C 0.48172 0.2411 0.789 0.0
C1864 C 0.37176 0.23093 0.72195 0.0
C1865 C 0.39674 0.22627 0.69564 0.0
C1866 C 0.38525 0.24119 0.7409 0.0
C1867 C 0.4242 0.24715 0.7329 0.0
C1868 C 0.44797 0.24308 0.70484 0.0
C1869 C 0.4342 0.2326 0.68676 0.0
C1870 C 0.35924 0.2451 0.77086 0.0
C1871 C 0.4891 0.2494 0.69491 0.0
H1872 H 0.44179 0.28891 0.76162 0.0
H1873 H 0.51316 0.26193 0.8178 0.0
H1874 H 0.41436 0.27078 0.69628 0.0
H1875 H 0.36963 0.26798 0.72292 0.0
H1876 H 0.39236 0.28338 0.72045 0.0
H1877 H 0.50219 0.2404 0.81157 0.0
H1878 H 0.45244 0.23549 0.79313 0.0
H1879 H 0.49903 0.2369 0.76765 0.0
H1880 H 0.34302 0.22603 0.72935 0.0
H1881 H 0.45377 0.22904 0.66659 0.0
H1882 H 0.35387 0.2553 0.7707 0.0
H1883 H 0.37705 0.24283 0.79403 0.0
H1884 H 0.32778 0.24033 0.77182 0.0
H1885 H 0.48426 0.2596 0.69287 0.0
H1886 H 0.50163 0.24588 0.67074 0.0
H1887 H 0.51359 0.2478 0.71445 0.0
C1888 C 0.43247 0.02272 0.5457 0.0
C1889 C 0.39082 0.02635 0.53748 0.0
C1890 C 0.45017 0.01173 0.53269 0.0
C1891 C 0.42612 0.0044 0.51007 0.0
C1892 C 0.38354 0.00782 0.50255 0.0
C1893 C 0.36621 0.01867 0.51673 0.0
C1894 C 0.4952 0.0082 0.54222 0.0
C1895 C 0.35712 1.00044 0.47803 0.0
C1896 C 0.49261 0.98498 0.44991 0.0
C1897 C 0.48964 0.97311 0.46422 0.0
C1898 C 0.47065 0.99515 0.46381 0.0
C1899 C 0.44622 0.99348 0.49329 0.0
C1900 C 0.4425 0.98146 0.50745 0.0
C1901 C 0.46376 0.9714 0.49249 0.0
C1902 C 0.47445 0.00776 0.44739 0.0
C1903 C 0.4177 0.97931 0.53928 0.0
H1904 H 0.45164 0.02865 0.56164 0.0
H1905 H 0.33425 0.02154 0.5098 0.0
H1906 H 0.49637 0.99835 0.55054 0.0
H1907 H 0.51639 0.00907 0.52015 0.0
H1908 H 0.50805 0.01418 0.56248 0.0
H1909 H 0.32378 0.00391 0.47634 0.0
H1910 H 0.37189 1.00102 0.45289 0.0
H1911 H 0.3564 0.99048 0.48521 0.0
H1912 H 0.51254 0.98635 0.42809 0.0
H1913 H 0.46173 0.96228 0.50399 0.0
H1914 H 0.49201 0.01421 0.46408 0.0
H1915 H 0.44229 0.01179 0.44317 0.0
H1916 H 0.4915 0.0073 0.42311 0.0
H1917 H 0.4328 0.98456 0.56 0.0
H1918 H 0.41637 0.96931 0.54631 0.0
H1919 H 0.38461 0.98284 0.53663 0.0
C1920 C 0.49857 0.78327 0.25564 0.0
C1921 C 0.525 0.78324 0.28396 0.0
C1922 C 0.48603 0.77212 0.24023 0.0
C1923 C 0.49934 0.76062 0.25395 0.0
C1924 C 0.52391 0.76051 0.28369 0.0
C1925 C 0.53696 0.77182 0.29807 0.0
C1926 C 0.46062 0.77268 0.20823 0.0
C1927 C 0.53773 0.74843 0.29965 0.0
C1928 C 0.4453 0.73039 0.22803 0.0
C1929 C 0.47661 0.72499 0.2076 0.0
C1930 C 0.45175 0.74211 0.24276 0.0
C1931 C 0.48994 0.74873 0.23618 0.0
C1932 C 0.52035 0.74367 0.21378 0.0
C1933 C 0.51362 0.73178 0.20018 0.0
C1934 C 0.4189 0.74705 0.26693 0.0
C1935 C 0.56085 0.75059 0.20522 0.0
H1936 H 0.48958 0.79206 0.24431 0.0
H1937 H 0.55734 0.77173 0.31995 0.0
H1938 H 0.48046 0.76917 0.1873 0.0
H1939 H 0.4321 0.76659 0.20989 0.0
H1940 H 0.45007 0.78229 0.20217 0.0
H1941 H 0.55301 0.74991 0.32436 0.0
H1942 H 0.5099 0.74215 0.3029 0.0
H1943 H 0.56084 0.74362 0.28313 0.0
H1944 H 0.4169 0.72511 0.23428 0.0
H1945 H 0.5379 0.72764 0.18442 0.0
H1946 H 0.41006 0.75675 0.26046 0.0
H1947 H 0.43266 0.74722 0.29246 0.0
H1948 H 0.38949 0.74127 0.26735 0.0
H1949 H 0.55334 0.76024 0.19732 0.0
H1950 H 0.57913 0.74596 0.18498 0.0
H1951 H 0.58152 0.7512 0.22765 0.0
C1952 C 0.53973 0.47834 0.94219 0.0
C1953 C 0.52999 0.46729 0.95912 0.0
C1954 C 0.5253 0.48989 0.95423 0.0
C1955 C 0.50206 0.49042 0.9846 0.0
C1956 C 0.49167 0.47925 0.00149 0.0
C1957 C 0.50514 0.46782 0.98824 0.0
C1958 C 0.5358 0.50156 0.93487 0.0
C1959 C 0.46822 0.47941 0.03444 0.0
C1960 C 0.51063 0.52125 0.03074 0.0
C1961 C 0.47105 0.52671 0.02374 0.0
C1962 C 0.52035 0.50921 0.01943 0.0
C1963 C 0.49043 0.50269 -0.00055 0.0
C1964 C 0.45005 0.50809 0.99287 0.0
C1965 C 0.44059 0.51996 0.00561 0.0
C1966 C 0.56311 0.5036 0.02811 0.0
C1967 C 0.41776 0.50164 0.97091 0.0
H1968 H 0.55897 0.47796 0.91972 0.0
H1969 H 0.49812 0.45931 0.00174 0.0
H1970 H 0.50653 0.50719 0.93093 0.0
H1971 H 0.55853 0.50735 0.94932 0.0
H1972 H 0.55027 0.49947 0.91017 0.0
H1973 H 0.46117 0.46989 0.04378 0.0
H1974 H 0.4878 0.48433 0.05338 0.0
H1975 H 0.43776 0.48458 0.03205 0.0
H1976 H 0.53425 0.52649 0.04465 0.0
H1977 H 0.41026 0.52427 -0.00039 0.0
H1978 H 0.58279 0.50271 0.00521 0.0
H1979 H 0.55881 0.4941 0.03853 0.0
H1980 H 0.58095 0.50932 0.0465 0.0
H1981 H 0.43099 0.50061 0.94535 0.0
H1982 H 0.38721 0.50685 0.9693 0.0
H1983 H 0.41102 0.49215 0.98043 0.0
C1984 C 0.13452 0.32839 0.17813 0.0
C1985 C 0.15944 0.32171 0.20091 0.0
C1986 C 0.13973 0.32671 0.14379 0.0
C1987 C 0.16988 0.31792 0.13218 0.0
C1988 C 0.1971 0.31176 0.15502 0.0
C1989 C 0.19181 0.31383 0.18933 0.0
C1990 C 0.11083 0.3337 0.12009 0.0
C1991 C 0.22932 0.30225 0.1435 0.0
C1992 C 0.13219 0.30278 0.05268 0.0
C1993 C 0.15559 0.30933 0.02865 0.0
C1994 C 0.13864 0.30496 0.08672 0.0
C1995 C 0.16857 0.31409 0.09677 0.0
C1996 C 0.19359 0.32036 0.07268 0.0
C1997 C 0.18703 0.31782 0.03876 0.0
C1998 C 0.11196 0.2979 0.11183 0.0
C1999 C 0.2254 0.33025 0.08256 0.0
H2000 H 0.10984 0.33459 0.18723 0.0
H2001 H 0.21096 0.30864 0.20707 0.0
H2002 H 0.12951 0.3377 0.09914 0.0
H2003 H 0.08713 0.32717 0.10925 0.0
H2004 H 0.09329 0.34133 0.13277 0.0
H2005 H 0.2524 0.29982 0.16352 0.0
H2006 H 0.21238 0.29364 0.13584 0.0
H2007 H 0.24723 0.30569 0.12146 0.0
H2008 H 0.10832 0.29608 0.04486 0.0
H2009 H 0.20516 0.3229 0.02014 0.0
H2010 H 0.08913 0.30435 0.124 0.0
H2011 H 0.13255 0.29393 0.1317 0.0
H2012 H 0.09354 0.29022 0.10011 0.0
H2013 H 0.20805 0.3386 0.09157 0.0
H2014 H 0.24612 0.33306 0.06134 0.0
H2015 H 0.24587 0.32695 0.10334 0.0
C2016 C 0.05351 0.93829 0.03079 0.0
C2017 C 0.0822 0.9458 0.0131 0.0
C2018 C 0.05234 0.93865 0.06576 0.0
C2019 C 0.08011 0.94683 0.08296 0.0
C2020 C 0.10634 0.95519 0.06496 0.0
C2021 C 0.10728 0.95451 0.03016 0.0
C2022 C 0.02396 0.92962 0.08424 0.0
C2023 C 0.13582 0.9642 0.08245 0.0
C2024 C 0.07346 0.95198 0.17627 0.0
C2025 C 0.10681 0.94434 0.18752 0.0
C2026 C 0.06326 0.95263 0.14224 0.0
C2027 C 0.0868 0.94539 0.11925 0.0
C2028 C 0.11942 0.93734 0.13064 0.0
C2029 C 0.12916 0.93696 0.16465 0.0
C2030 C 0.0285 0.96137 0.13078 0.0
C2031 C 0.14499 0.92939 0.10679 0.0
H2032 H 0.03393 0.93162 0.01749 0.0
H2033 H 0.1288 0.96051 0.01631 0.0
H2034 H 0.04379 0.92205 0.09495 0.0
H2035 H 0.00748 0.9343 0.10528 0.0
H2036 H 0.99962 0.92538 0.06759 0.0
H2037 H 0.14935 0.97121 0.06499 0.0
H2038 H 0.11877 0.96914 0.10276 0.0
H2039 H 0.16261 0.95899 0.09399 0.0
H2040 H 0.05606 0.95769 0.19392 0.0
H2041 H 0.15463 0.93093 0.17328 0.0
H2042 H 0.00584 0.95647 0.11406 0.0
H2043 H 0.0428 0.9691 0.11619 0.0
H2044 H 0.01044 0.9654 0.15205 0.0
H2045 H 0.12333 0.92374 0.09098 0.0
H2046 H 0.16725 0.92302 0.11999 0.0
H2047 H 0.16391 0.93545 0.0899 0.0
C2048 C 0.88298 0.69971 0.81936 0.0
C2049 C 0.90535 0.69461 0.79238 0.0
C2050 C 0.89948 0.6991 0.85174 0.0
C2051 C 0.93927 0.69318 0.85723 0.0
C2052 C 0.96337 0.68876 0.82987 0.0
C2053 C 0.94606 0.68952 0.79765 0.0
C2054 C 0.87298 0.70408 0.8803 0.0
C2055 C 0.00608 0.68253 0.83477 0.0
C2056 C 0.97345 0.69753 0.94664 0.0
C2057 C 0.95173 0.68756 0.96144 0.0
C2058 C 0.97361 0.69893 0.91179 0.0
C2059 C 0.9518 0.6901 0.89187 0.0
C2060 C 0.93452 0.67925 0.90669 0.0
C2061 C 0.93451 0.67816 0.94141 0.0
C2062 C 0.99308 0.71049 0.89674 0.0
C2063 C 0.9117 0.66948 0.88628 0.0
H2064 H 0.85187 0.70387 0.81536 0.0
H2065 H 0.96376 0.68569 0.77681 0.0
H2066 H 0.86146 0.69622 0.89591 0.0
H2067 H 0.89256 0.7102 0.89649 0.0
H2068 H 0.84482 0.70944 0.87148 0.0
H2069 H 0.02459 0.68212 0.81114 0.0
H2070 H 0.02531 0.68747 0.85388 0.0
H2071 H 1.00102 0.67287 0.84374 0.0
H2072 H 0.98688 0.70478 0.96225 0.0
H2073 H 0.91829 0.67035 0.95304 0.0
H2074 H 0.96754 0.71742 0.89199 0.0
H2075 H 0.00865 0.7084 0.87251 0.0
H2076 H 0.01692 0.71476 0.91377 0.0
H2077 H 0.88052 0.67322 0.87775 0.0
H2078 H 0.90568 0.66086 0.90088 0.0
H2079 H 0.93049 0.66704 0.86376 0.0
C2080 C 0.81821 0.06706 0.80999 0.0
C2081 C 0.83853 0.07379 0.78463 0.0
C2082 C 0.8311 0.06825 0.84321 0.0
C2083 C 0.86427 0.07666 0.85125 0.0
C2084 C 0.88363 0.08392 0.82593 0.0
C2085 C 0.87099 0.08224 0.79265 0.0
C2086 C 0.81054 0.06008 0.86942 0.0
C2087 C 0.91823 0.09324 0.8339 0.0
C2088 C 0.87259 0.08282 0.94395 0.0
C2089 C 0.90509 0.07452 0.95288 0.0
C2090 C 0.86075 0.08428 0.91041 0.0
C2091 C 0.88097 0.07693 0.88573 0.0
C2092 C 0.91455 0.06878 0.89461 0.0
C2093 C 0.92661 0.06782 0.92808 0.0
C2094 C 0.82569 0.09332 0.90154 0.0
C2095 C 0.93605 0.06053 0.86912 0.0
H2096 H 0.79324 0.06047 0.80368 0.0
H2097 H 0.88631 0.08754 0.77296 0.0
H2098 H 0.83493 0.05387 0.88066 0.0
H2099 H 0.7972 0.06586 0.88982 0.0
H2100 H 0.78451 0.05422 0.85902 0.0
H2101 H 0.92636 0.09915 0.81204 0.0
H2102 H 0.9081 0.09933 0.85481 0.0
H2103 H 0.94748 0.08829 0.84206 0.0
H2104 H 0.85631 0.0881 0.96318 0.0
H2105 H 0.95162 0.06134 0.93502 0.0
H2106 H 0.79658 0.08812 0.89422 0.0
H2107 H 0.8353 0.09912 0.87986 0.0
H2108 H 0.81752 0.09954 0.92275 0.0
H2109 H 0.91242 0.05389 0.85867 0.0
H2110 H 0.9629 0.05512 0.87998 0.0
H2111 H 0.94846 0.06617 0.84807 0.0
C2112 C 0.20235 0.80228 0.68743 0.0
C2113 C 0.16643 0.80897 0.6981 0.0
C2114 C 0.21349 0.80191 0.65351 0.0
C2115 C 0.18825 0.80849 0.63012 0.0
C2116 C 0.15337 0.81578 0.6411 0.0
C2117 C 0.14275 0.81587 0.67493 0.0
C2118 C 0.25075 0.79401 0.64258 0.0
C2119 C 0.12595 0.82306 0.61693 0.0
C2120 C 0.21479 0.81614 0.54074 0.0
C2121 C 0.18642 0.80816 0.52432 0.0
C2122 C 0.21903 0.81565 0.57558 0.0
C2123 C 0.19472 0.80686 0.59384 0.0
C2124 C 0.1697 0.79793 0.57683 0.0
C2125 C 0.16552 0.79877 0.5422 0.0
C2126 C 0.24622 0.82526 0.59293 0.0
C2127 C 0.14405 0.78822 0.59536 0.0
H2128 H 0.22079 0.79697 0.70537 0.0
H2129 H 0.1154 0.82122 0.68319 0.0
H2130 H 0.23865 0.78543 0.63044 0.0
H2131 H 0.27058 0.79901 0.62395 0.0
H2132 H 0.27126 0.79126 0.66397 0.0
H2133 H 0.10233 0.82906 0.62989 0.0
H2134 H 0.14617 0.82903 0.60076 0.0
H2135 H 0.10836 0.81654 0.60045 0.0
H2136 H 0.23122 0.82334 0.52673 0.0
H2137 H 0.14436 0.79241 0.52923 0.0
H2138 H 0.26395 0.82108 0.61411 0.0
H2139 H 0.22532 0.83266 0.60322 0.0
H2140 H 0.26937 0.82966 0.57553 0.0
H2141 H 0.16341 0.78387 0.61539 0.0
H2142 H 0.1322 0.78079 0.57845 0.0
H2143 H 0.1161 0.79273 0.60735 0.0
C2144 C 0.17432 0.43309 0.67057 0.0
C2145 C 0.14717 0.44052 0.68997 0.0
C2146 C 0.17398 0.43396 0.6357 0.0
C2147 C 0.14609 0.44251 0.62012 0.0
C2148 C 0.12002 0.45042 0.63963 0.0
C2149 C 0.1207 0.44927 0.6744 0.0
C2150 C 0.20199 0.42534 0.61555 0.0
C2151 C 0.09019 0.45975 0.62374 0.0
C2152 C 0.1574 0.45069 0.52862 0.0
C2153 C 0.12455 0.44352 0.51471 0.0
C2154 C 0.16568 0.45026 0.563 0.0
C2155 C 0.1408 0.44236 0.58352 0.0
C2156 C 0.10886 0.43472 0.56934 0.0
C2157 C 0.10097 0.43544 0.53509 0.0
C2158 C 0.19981 0.45857 0.57751 0.0
C2159 C 0.08206 0.42606 0.59048 0.0
H2160 H 0.19501 0.42635 0.68255 0.0
H2161 H 0.10012 0.45516 0.68936 0.0
H2162 H 0.18175 0.41857 0.60189 0.0
H2163 H 0.22032 0.43067 0.59663 0.0
H2164 H 0.22476 0.42009 0.63147 0.0
H2165 H 0.07506 0.46596 0.64246 0.0
H2166 H 0.10765 0.46556 0.60534 0.0
H2167 H 0.0646 0.45477 0.61002 0.0
H2168 H 0.17563 0.45695 0.51287 0.0
H2169 H 0.07589 0.42977 0.52432 0.0
H2170 H 0.22203 0.45307 0.59324 0.0
H2171 H 0.18484 0.46566 0.59387 0.0
H2172 H 0.21849 0.46344 0.55786 0.0
H2173 H 0.10289 0.41989 0.60557 0.0
H2174 H 0.06043 0.42018 0.5752 0.0
H2175 H 0.0624 0.43157 0.60814 0.0
C2176 C 0.96272 0.18424 0.3326 0.0
C2177 C 0.93844 0.17711 0.31036 0.0
C2178 C 0.9544 0.18387 0.36694 0.0
C2179 C 0.92177 0.17596 0.37912 0.0
C2180 C 0.89972 0.16797 0.35701 0.0
C2181 C 0.90793 0.16876 0.32272 0.0
C2182 C 0.97806 0.19269 0.38971 0.0
C2183 C 0.86555 0.15917 0.36927 0.0
C2184 C 0.91218 0.17246 0.473 0.0
C2185 C 0.87926 0.1809 0.47998 0.0
C2186 C 0.92579 0.17047 0.44008 0.0
C2187 C 0.90669 0.17734 0.41391 0.0
C2188 C 0.87337 0.18584 0.42088 0.0
C2189 C 0.8597 0.1874 0.45383 0.0
C2190 C 0.96063 0.16111 0.4333 0.0
C2191 C 0.85272 0.1935 0.39364 0.0
H2192 H 0.98625 0.19072 0.32299 0.0
H2193 H 0.88953 0.16313 0.30548 0.0
H2194 H 0.95592 0.20008 0.39837 0.0
H2195 H 0.98991 0.18774 0.41217 0.0
H2196 H 0.00554 0.1972 0.377 0.0
H2197 H 0.85658 0.15222 0.34998 0.0
H2198 H 0.87637 0.15417 0.39199 0.0
H2199 H 0.8366 0.16454 0.37607 0.0
H2200 H 0.92711 0.16737 0.49326 0.0
H2201 H 0.83449 0.19401 0.45924 0.0
H2202 H 0.98893 0.16587 0.42263 0.0
H2203 H 0.94962 0.15422 0.41456 0.0
H2204 H 0.97057 0.15607 0.45624 0.0
H2205 H 0.87727 0.19916 0.38062 0.0
H2206 H 0.82773 0.19985 0.40344 0.0
H2207 H 0.83796 0.18729 0.37479 0.0
C2208 C 0.93505 0.56801 0.44673 0.0
C2209 C 0.89699 0.56189 0.45522 0.0
C2210 C 0.94855 0.5687 0.4134 0.0
C2211 C 0.92336 0.56311 0.38826 0.0
C2212 C 0.88646 0.55622 0.39701 0.0
C2213 C 0.87365 0.55574 0.4304 0.0
C2214 C 0.98821 0.57603 0.40494 0.0
C2215 C 0.859 0.54998 0.37088 0.0
C2216 C 0.90751 0.57652 0.30274 0.0
C2217 C 0.92728 0.56751 0.28286 0.0
C2218 C 0.90951 0.57583 0.33751 0.0
C2219 C 0.93145 0.56579 0.3526 0.0
C2220 C 0.95484 0.55733 0.33268 0.0
C2221 C 0.95263 0.55832 0.29778 0.0
C2222 C 0.88473 0.58519 0.35792 0.0
C2223 C 0.97892 0.54659 0.34799 0.0
H2224 H 0.95345 0.57268 0.46592 0.0
H2225 H 0.84467 0.55079 0.43692 0.0
H2226 H 0.00767 0.57109 0.38598 0.0
H2227 H 0.97891 0.58514 0.39411 0.0
H2228 H 0.00824 0.57778 0.42734 0.0
H2229 H 0.83389 0.544 0.38213 0.0
H2230 H 0.84322 0.55717 0.35527 0.0
H2231 H 0.87891 0.54418 0.35411 0.0
H2232 H 0.88853 0.58376 0.29109 0.0
H2233 H 0.96807 0.55137 0.28233 0.0
H2234 H 0.90424 0.58862 0.3791 0.0
H2235 H 0.85593 0.58064 0.36852 0.0
H2236 H 0.87431 0.59329 0.34273 0.0
H2237 H 0.99596 0.54953 0.37094 0.0
H2238 H 0.00234 0.54255 0.33023 0.0
H2239 H 0.95599 0.53918 0.35518 0.0
C2240 C 0.60731 0.30242 0.55047 0.0
C2241 C 0.63321 0.31234 0.54015 0.0
C2242 C 0.60206 0.29974 0.58447 0.0
C2243 C 0.62278 0.30727 0.60844 0.0
C2244 C 0.64875 0.31733 0.59815 0.0
C2245 C 0.65381 0.31971 0.56408 0.0
C2246 C 0.57446 0.28886 0.59475 0.0
C2247 C 0.6709 0.32566 0.62313 0.0
C2248 C 0.57921 0.3101 0.69582 0.0
C2249 C 0.60894 0.30312 0.71415 0.0
C2250 C 0.58257 0.31117 0.66115 0.0
C2251 C 0.61619 0.30502 0.64445 0.0
C2252 C 0.64533 0.29756 0.66255 0.0
C2253 C 0.64148 0.29674 0.69734 0.0
C2254 C 0.55113 0.3193 0.6426 0.0
C2255 C 0.68128 0.29076 0.64528 0.0
H2256 H 0.59166 0.29664 0.53199 0.0
H2257 H 0.6738 0.32741 0.55619 0.0
H2258 H 0.59317 0.28232 0.61041 0.0
H2259 H 0.54732 0.29218 0.61013 0.0
H2260 H 0.56157 0.28371 0.57293 0.0
H2261 H 0.69027 0.33303 0.6109 0.0
H2262 H 0.64692 0.33018 0.6395 0.0
H2263 H 0.69215 0.32005 0.63939 0.0
H2264 H 0.55389 0.31501 0.70861 0.0
H2265 H 0.66431 0.29123 0.7114 0.0
H2266 H 0.53642 0.31406 0.62173 0.0
H2267 H 0.56809 0.32739 0.63159 0.0
H2268 H 0.52532 0.32283 0.65908 0.0
H2269 H 0.66876 0.2852 0.62412 0.0
H2270 H 0.6988 0.28447 0.66253 0.0
H2271 H 0.70422 0.2976 0.6348 0.0
C2272 C 0.61443 0.93907 0.5576 0.0
C2273 C 0.63947 0.94632 0.53611 0.0
C2274 C 0.62234 0.93888 0.5919 0.0
C2275 C 0.65582 0.94623 0.60504 0.0
C2276 C 0.68189 0.95337 0.58348 0.0
C2277 C 0.67351 0.95329 0.54909 0.0
C2278 C 0.59408 0.93105 0.61417 0.0
C2279 C 0.71759 0.96139 0.59684 0.0
C2280 C 0.63211 0.95417 0.69435 0.0
C2281 C 0.65463 0.94482 0.71114 0.0
C2282 C 0.63526 0.95545 0.65975 0.0
C2283 C 0.66096 0.94701 0.64163 0.0
C2284 C 0.68619 0.93812 0.65871 0.0
C2285 C 0.68296 0.93719 0.69353 0.0
C2286 C 0.60855 0.96522 0.64243 0.0
C2287 C 0.71387 0.92897 0.6401 0.0
H2288 H 0.58843 0.93355 0.54764 0.0
H2289 H 0.69298 0.95889 0.5325 0.0
H2290 H 0.61381 0.92481 0.62997 0.0
H2291 H 0.57557 0.93716 0.63113 0.0
H2292 H 0.57127 0.92525 0.5997 0.0
H2293 H 0.73731 0.96547 0.57654 0.0
H2294 H 0.70402 0.96908 0.61193 0.0
H2295 H 0.73858 0.95588 0.61356 0.0
H2296 H 0.61092 0.96025 0.7082 0.0
H2297 H 0.70057 0.93001 0.70666 0.0
H2298 H 0.58133 0.96066 0.62958 0.0
H2299 H 0.62756 0.97016 0.62318 0.0
H2300 H 0.5956 0.97217 0.66026 0.0
H2301 H 0.69329 0.92189 0.62794 0.0
H2302 H 0.73651 0.92409 0.65699 0.0
H2303 H 0.73227 0.9337 0.62013 0.0
C2304 C 0.44243 0.67687 0.46589 0.0
C2305 C 0.41527 0.68683 0.4734 0.0
C2306 C 0.45637 0.6749 0.43301 0.0
C2307 C 0.44313 0.68321 0.4076 0.0
C2308 C 0.41886 0.69389 0.41581 0.0
C2309 C 0.4049 0.6955 0.44861 0.0
C2310 C 0.48231 0.66345 0.42512 0.0
C2311 C 0.40486 0.70313 0.38954 0.0
C2312 C 0.48292 0.68455 0.31883 0.0
C2313 C 0.44779 0.67947 0.30192 0.0
C2314 C 0.48378 0.68495 0.35381 0.0
C2315 C 0.4489 0.68004 0.37196 0.0
C2316 C 0.41538 0.67387 0.35501 0.0
C2317 C 0.41508 0.67375 0.32011 0.0
C2318 C 0.52009 0.69157 0.37105 0.0
C2319 C 0.37797 0.66831 0.37359 0.0
H2320 H 0.45044 0.67018 0.48517 0.0
H2321 H 0.38443 0.70332 0.45465 0.0
H2322 H 0.46123 0.65631 0.41376 0.0
H2323 H 0.50785 0.66559 0.40681 0.0
H2324 H 0.49703 0.6594 0.44791 0.0
H2325 H 0.39049 0.71162 0.40067 0.0
H2326 H 0.4323 0.70595 0.37375 0.0
H2327 H 0.3808 0.69873 0.37297 0.0
H2328 H 0.50843 0.68893 0.3048 0.0
H2329 H 0.38827 0.66962 0.30706 0.0
H2330 H 0.52969 0.6866 0.39414 0.0
H2331 H 0.50954 0.70104 0.37837 0.0
H2332 H 0.54837 0.6925 0.3545 0.0
H2333 H 0.38919 0.66263 0.39498 0.0
H2334 H 0.35784 0.66239 0.35721 0.0
H2335 H 0.35778 0.6759 0.38374 0.0
C2336 C 0.3086 0.0543 0.41679 0.0
C2337 C 0.33258 0.06202 0.43782 0.0
C2338 C 0.31697 0.05387 0.38247 0.0
C2339 C 0.34944 0.06152 0.369 0.0
C2340 C 0.3732 0.0695 0.39004 0.0
C2341 C 0.36474 0.06956 0.42433 0.0
C2342 C 0.2916 0.04509 0.36072 0.0
C2343 C 0.40758 0.07795 0.37635 0.0
C2344 C 0.40113 0.05322 0.2867 0.0
C2345 C 0.37923 0.06106 0.26463 0.0
C2346 C 0.39103 0.05307 0.32074 0.0
C2347 C 0.35895 0.06114 0.33289 0.0
C2348 C 0.33675 0.06908 0.31071 0.0
C2349 C 0.3469 0.06886 0.27669 0.0
C2350 C 0.41475 0.04431 0.3437 0.0
C2351 C 0.30287 0.07796 0.32301 0.0
H2352 H 0.28394 0.0484 0.42729 0.0
H2353 H 0.38313 0.07559 0.44057 0.0
H2354 H 0.27487 0.05037 0.34085 0.0
H2355 H 0.31344 0.03844 0.34817 0.0
H2356 H 0.26759 0.03971 0.37518 0.0
H2357 H 0.42211 0.08389 0.39599 0.0
H2358 H 0.43316 0.07231 0.36463 0.0
H2359 H 0.39411 0.08406 0.35664 0.0
H2360 H 0.42584 0.0471 0.27729 0.0
H2361 H 0.33007 0.07496 0.25961 0.0
H2362 H 0.39178 0.03834 0.35745 0.0
H2363 H 0.43288 0.04971 0.36254 0.0
H2364 H 0.4374 0.03823 0.32997 0.0
H2365 H 0.27715 0.07275 0.33592 0.0
H2366 H 0.28845 0.08347 0.30241 0.0
H2367 H 0.3169 0.08449 0.34146 0.0
C2368 C 0.64119 0.79702 0.0579 0.0
C2369 C 0.66578 0.80469 0.03715 0.0
C2370 C 0.64424 0.79792 0.09263 0.0
C2371 C 0.6721 0.80683 0.10678 0.0
C2372 C 0.69891 0.81407 0.08602 0.0
C2373 C 0.69562 0.81285 0.05128 0.0
C2374 C 0.61569 0.78988 0.11408 0.0
C2375 C 0.72886 0.8237 0.10033 0.0
C2376 C 0.6311 0.81971 0.18819 0.0
C2377 C 0.65531 0.81303 0.21148 0.0
C2378 C 0.63773 0.81816 0.15395 0.0
C2379 C 0.66894 0.80961 0.14282 0.0
C2380 C 0.69451 0.80313 0.16616 0.0
C2381 C 0.68754 0.80498 0.20037 0.0
C2382 C 0.61021 0.82536 0.12969 0.0
C2383 C 0.72781 0.79387 0.15506 0.0
H2384 H 0.6186 0.79055 0.04698 0.0
H2385 H 0.71477 0.81877 0.03525 0.0
H2386 H 0.63426 0.78552 0.13457 0.0
H2387 H 0.59061 0.79573 0.12572 0.0
H2388 H 0.59984 0.78241 0.09945 0.0
H2389 H 0.75156 0.8273 0.08132 0.0
H2390 H 0.71002 0.83164 0.11014 0.0
H2391 H 0.74729 0.81977 0.12151 0.0
H2392 H 0.60649 0.82604 0.19673 0.0
H2393 H 0.70629 0.79979 0.21836 0.0
H2394 H 0.5893 0.81884 0.11578 0.0
H2395 H 0.63047 0.83025 0.11111 0.0
H2396 H 0.58973 0.83233 0.14242 0.0
H2397 H 0.71187 0.78569 0.14364 0.0
H2398 H 0.74792 0.79058 0.17615 0.0
H2399 H 0.7488 0.79802 0.13572 0.0
C2400 C 0.62774 0.42743 0.06072 0.0
C2401 C 0.64981 0.43577 0.04013 0.0
C2402 C 0.63067 0.42828 0.09548 0.0
C2403 C 0.65542 0.43791 0.10979 0.0
C2404 C 0.67873 0.44616 0.08912 0.0
C2405 C 0.67603 0.44489 0.05438 0.0
C2406 C 0.60615 0.41915 0.11684 0.0
C2407 C 0.70478 0.45667 0.10363 0.0
C2408 C 0.61821 0.44816 0.1951 0.0
C2409 C 0.64827 0.44241 0.21587 0.0
C2410 C 0.62109 0.44709 0.16038 0.0
C2411 C 0.65423 0.43985 0.1463 0.0
C2412 C 0.68485 0.43409 0.16713 0.0
C2413 C 0.68177 0.43556 0.2018 0.0
C2414 C 0.58836 0.45357 0.13879 0.0
C2415 C 0.72006 0.42611 0.15288 0.0
H2416 H 0.60782 0.42029 0.04963 0.0
H2417 H 0.69292 0.45138 0.03837 0.0
H2418 H 0.6274 0.415 0.136 0.0
H2419 H 0.58015 0.42407 0.1302 0.0
H2420 H 0.59181 0.41152 0.10185 0.0
H2421 H 0.72327 0.46174 0.08424 0.0
H2422 H 0.68327 0.46337 0.11629 0.0
H2423 H 0.72727 0.45308 0.12273 0.0
H2424 H 0.59259 0.45358 0.206 0.0
H2425 H 0.70492 0.43108 0.21793 0.0
H2426 H 0.56917 0.44657 0.12506 0.0
H2427 H 0.60452 0.4595 0.11992 0.0
H2428 H 0.56633 0.45949 0.15362 0.0
H2429 H 0.70599 0.41802 0.13961 0.0
H2430 H 0.74208 0.42259 0.17247 0.0
H2431 H 0.73883 0.43147 0.1343 0.0
C2432 C 0.39174 0.1876 0.81796 0.0
C2433 C 0.4108 0.19186 0.78864 0.0
C2434 C 0.41022 0.19008 0.84897 0.0
C2435 C 0.44791 0.19738 0.85055 0.0
C2436 C 0.46759 0.20161 0.82087 0.0
C2437 C 0.44907 0.19861 0.79004 0.0
C2438 C 0.38851 0.18522 0.88009 0.0
C2439 C 0.50721 0.2096 0.82175 0.0
C2440 C 0.44534 0.21144 0.93538 0.0
C2441 C 0.46787 0.2024 0.95329 0.0
C2442 C 0.44391 0.21104 0.90051 0.0
C2443 C 0.46422 0.2011 0.8837 0.0
C2444 C 0.49153 0.19295 0.90146 0.0
C2445 C 0.49343 0.19381 0.93633 0.0
C2446 C 0.41592 0.22023 0.88222 0.0
C2447 C 0.5137 0.18223 0.88448 0.0
H2448 H 0.36216 0.18237 0.81661 0.0
H2449 H 0.46336 0.20201 0.76712 0.0
H2450 H 0.41175 0.18018 0.89604 0.0
H2451 H 0.37578 0.19312 0.89486 0.0
H2452 H 0.36167 0.17883 0.87423 0.0
H2453 H 0.51661 0.21291 0.7965 0.0
H2454 H 0.50203 0.2178 0.83806 0.0
H2455 H 0.53411 0.20424 0.83253 0.0
H2456 H 0.42604 0.21818 0.9487 0.0
H2457 H 0.51089 0.18683 0.95037 0.0
H2458 H 0.38446 0.21588 0.87709 0.0
H2459 H 0.43026 0.22291 0.85792 0.0
H2460 H 0.41045 0.22878 0.89723 0.0
H2461 H 0.49065 0.17447 0.88132 0.0
H2462 H 0.54102 0.17876 0.89953 0.0
H2463 H 0.52537 0.18489 0.85935 0.0
C2464 C 0.37356 0.58257 0.92162 0.0
C2465 C 0.40265 0.57367 0.9332 0.0
C2466 C 0.3658 0.58396 0.88738 0.0
C2467 C 0.38658 0.57595 0.86459 0.0
C2468 C 0.41725 0.56728 0.87612 0.0
C2469 C 0.42541 0.56638 0.91038 0.0
C2470 C 0.334 0.59359 0.87577 0.0
C2471 C 0.43933 0.55839 0.85259 0.0
C2472 C 0.32832 0.56658 0.78608 0.0
C2473 C 0.35251 0.57262 0.76157 0.0
C2474 C 0.33858 0.56783 0.81988 0.0
C2475 C 0.37301 0.57561 0.82926 0.0
C2476 C 0.39602 0.58229 0.8047 0.0
C2477 C 0.38593 0.58054 0.77095 0.0
C2478 C 0.31393 0.56033 0.84535 0.0
C2479 C 0.43198 0.59098 0.81401 0.0
H2480 H 0.35635 0.58829 0.93937 0.0
H2481 H 0.44775 0.55945 0.91944 0.0
H2482 H 0.34681 0.59884 0.8541 0.0
H2483 H 0.30429 0.58891 0.86747 0.0
H2484 H 0.32571 0.60028 0.89589 0.0
H2485 H 0.46408 0.55272 0.86537 0.0
H2486 H 0.41541 0.552 0.84146 0.0
H2487 H 0.45458 0.56355 0.83179 0.0
H2488 H 0.30268 0.56038 0.77873 0.0
H2489 H 0.40436 0.58529 0.75187 0.0
H2490 H 0.30022 0.56656 0.86463 0.0
H2491 H 0.33579 0.55378 0.85826 0.0
H2492 H 0.28757 0.5549 0.83389 0.0
H2493 H 0.42174 0.59736 0.83424 0.0
H2494 H 0.44302 0.59661 0.79239 0.0
H2495 H 0.4594 0.58552 0.82361 0.0
loop_
_geom_bond_atom_site_label_1
_geom_bond_atom_site_label_2
_geom_bond_distance
_geom_bond_site_symmetry_2
_ccdc_geom_bond_type
O0 Cd1 2.223 . S
O0 C8 1.315 . S
Cd1 O0 2.223 . S
Cd1 O4 2.297 . S
Cd1 O5 2.439 . S
Cd1 O11 2.240 . S
Cd2 O3 2.240 . S
Cd2 O10 2.223 . S
Cd2 O12 2.297 . S
Cd2 O13 2.439 . S
O3 Cd2 2.240 . S
O3 C8 1.279 . S
O4 Cd1 2.297 . S
O4 C6 1.247 . S
O5 Cd1 2.439 . S
O5 C6 1.208 . S
C6 O4 1.247 . S
C6 O5 1.208 . S
C7 O12 1.247 . S
C7 O13 1.208 . S
C8 O0 1.315 . S
C8 O3 1.279 . S
C9 O10 1.315 . S
C9 O11 1.279 . S
O10 Cd2 2.223 . S
O10 C9 1.315 . S
O11 Cd1 2.240 . S
O11 C9 1.279 . S
O12 Cd2 2.297 . S
O12 C7 1.247 . S
O13 Cd2 2.439 . S
O13 C7 1.208 . S
O14 Cd15 2.223 . S
O14 C22 1.315 . S
Cd15 O14 2.223 . S
Cd15 O18 2.297 . S
Cd15 O19 2.439 . S
Cd15 O25 2.240 . S
Cd16 O17 2.240 . S
Cd16 O24 2.223 . S
Cd16 O26 2.297 . S
Cd16 O27 2.439 . S
O17 Cd16 2.240 . S
O17 C22 1.279 . S
O18 Cd15 2.297 . S
O18 C20 1.247 . S
O19 Cd15 2.439 . S
O19 C20 1.208 . S
C20 O18 1.247 . S
C20 O19 1.208 . S
C21 O26 1.247 . S
C21 O27 1.208 . S
C22 O14 1.315 . S
C22 O17 1.279 . S
C23 O24 1.315 . S
C23 O25 1.279 . S
O24 Cd16 2.223 . S
O24 C23 1.315 . S
O25 Cd15 2.240 . S
O25 C23 1.279 . S
O26 Cd16 2.297 . S
O26 C21 1.247 . S
O27 Cd16 2.439 . S
O27 C21 1.208 . S
O28 Cd29 2.223 . S
O28 C36 1.315 . S
Cd29 O28 2.223 . S
Cd29 O32 2.297 . S
Cd29 O33 2.439 . S
Cd29 O39 2.240 . S
Cd30 O31 2.240 . S
Cd30 O38 2.223 . S
Cd30 O40 2.297 . S
Cd30 O41 2.439 . S
O31 Cd30 2.240 . S
O31 C36 1.279 . S
O32 Cd29 2.297 . S
O32 C34 1.247 . S
O33 Cd29 2.439 . S
O33 C34 1.208 . S
C34 O32 1.247 . S
C34 O33 1.208 . S
C35 O40 1.247 . S
C35 O41 1.208 . S
C36 O28 1.315 . S
C36 O31 1.279 . S
C37 O38 1.315 1_554 S
C37 O39 1.279 1_554 S
O38 Cd30 2.223 . S
O38 C37 1.315 1_556 S
O39 Cd29 2.240 . S
O39 C37 1.279 1_556 S
O40 Cd30 2.297 . S
O40 C35 1.247 . S
O41 Cd30 2.439 . S
O41 C35 1.208 . S
O42 Cd43 2.223 . S
O42 C50 1.315 . S
Cd43 O42 2.223 . S
Cd43 O46 2.297 . S
Cd43 O47 2.439 . S
Cd43 O53 2.240 . S
Cd44 O45 2.240 . S
Cd44 O52 2.223 . S
Cd44 O54 2.297 . S
Cd44 O55 2.439 . S
O45 Cd44 2.240 . S
O45 C50 1.279 . S
O46 Cd43 2.297 . S
O46 C48 1.247 . S
O47 Cd43 2.439 . S
O47 C48 1.208 . S
C48 O46 1.247 . S
C48 O47 1.208 . S
C49 O54 1.247 . S
C49 O55 1.208 . S
C50 O42 1.315 . S
C50 O45 1.279 . S
C51 O52 1.315 1_554 S
C51 O53 1.279 1_554 S
O52 Cd44 2.223 . S
O52 C51 1.315 1_556 S
O53 Cd43 2.240 . S
O53 C51 1.279 1_556 S
O54 Cd44 2.297 . S
O54 C49 1.247 . S
O55 Cd44 2.439 . S
O55 C49 1.208 . S
O56 Cd57 2.223 . S
O56 C64 1.315 . S
Cd57 O56 2.223 . S
Cd57 O60 2.297 . S
Cd57 O61 2.439 . S
Cd57 O67 2.240 . S
Cd58 O59 2.240 . S
Cd58 O66 2.223 . S
Cd58 O68 2.297 . S
Cd58 O69 2.439 . S
O59 Cd58 2.240 . S
O59 C64 1.279 . S
O60 Cd57 2.297 . S
O60 C62 1.247 . S
O61 Cd57 2.439 . S
O61 C62 1.208 . S
C62 O60 1.247 . S
C62 O61 1.208 . S
C63 O68 1.247 . S
C63 O69 1.208 . S
C64 O56 1.315 . S
C64 O59 1.279 . S
C65 O66 1.315 . S
C65 O67 1.279 . S
O66 Cd58 2.223 . S
O66 C65 1.315 . S
O67 Cd57 2.240 . S
O67 C65 1.279 . S
O68 Cd58 2.297 . S
O68 C63 1.247 . S
O69 Cd58 2.439 . S
O69 C63 1.208 . S
O70 Cd71 2.223 . S
O70 C78 1.315 . S
Cd71 O70 2.223 . S
Cd71 O74 2.297 . S
Cd71 O75 2.439 . S
Cd71 O81 2.240 . S
Cd72 O73 2.240 . S
Cd72 O80 2.223 . S
Cd72 O82 2.297 . S
Cd72 O83 2.439 . S
O73 Cd72 2.240 . S
O73 C78 1.279 . S
O74 Cd71 2.297 . S
O74 C76 1.247 . S
O75 Cd71 2.439 . S
O75 C76 1.208 . S
C76 O74 1.247 . S
C76 O75 1.208 . S
C77 O82 1.247 . S
C77 O83 1.208 . S
C78 O70 1.315 . S
C78 O73 1.279 . S
C79 O80 1.315 . S
C79 O81 1.279 . S
O80 Cd72 2.223 . S
O80 C79 1.315 . S
O81 Cd71 2.240 . S
O81 C79 1.279 . S
O82 Cd72 2.297 . S
O82 C77 1.247 . S
O83 Cd72 2.439 . S
O83 C77 1.208 . S
O84 Cd85 2.223 . S
O84 C92 1.315 1_554 S
Cd85 O84 2.223 . S
Cd85 O88 2.297 . S
Cd85 O89 2.439 . S
Cd85 O95 2.240 . S
Cd86 O87 2.240 . S
Cd86 O94 2.223 . S
Cd86 O96 2.297 . S
Cd86 O97 2.439 . S
O87 Cd86 2.240 . S
O87 C92 1.279 1_554 S
O88 Cd85 2.297 . S
O88 C90 1.247 . S
O89 Cd85 2.439 . S
O89 C90 1.208 . S
C90 O88 1.247 . S
C90 O89 1.208 . S
C91 O96 1.247 . S
C91 O97 1.208 . S
C92 O84 1.315 1_556 S
C92 O87 1.279 1_556 S
C93 O94 1.315 . S
C93 O95 1.279 . S
O94 Cd86 2.223 . S
O94 C93 1.315 . S
O95 Cd85 2.240 . S
O95 C93 1.279 . S
O96 Cd86 2.297 . S
O96 C91 1.247 . S
O97 Cd86 2.439 . S
O97 C91 1.208 . S
O98 Cd99 2.223 . S
O98 C106 1.315 1_554 S
Cd99 O98 2.223 . S
Cd99 O102 2.297 . S
Cd99 O103 2.439 . S
Cd99 O109 2.240 . S
Cd100 O101 2.240 . S
Cd100 O108 2.223 . S
Cd100 O110 2.297 . S
Cd100 O111 2.439 . S
O101 Cd100 2.240 . S
O101 C106 1.279 1_554 S
O102 Cd99 2.297 . S
O102 C104 1.247 . S
O103 Cd99 2.439 . S
O103 C104 1.208 . S
C104 O102 1.247 . S
C104 O103 1.208 . S
C105 O110 1.247 . S
C105 O111 1.208 . S
C106 O98 1.315 1_556 S
C106 O101 1.279 1_556 S
C107 O108 1.315 . S
C107 O109 1.279 . S
O108 Cd100 2.223 . S
O108 C107 1.315 . S
O109 Cd99 2.240 . S
O109 C107 1.279 . S
O110 Cd100 2.297 . S
O110 C105 1.247 . S
O111 Cd100 2.439 . S
O111 C105 1.208 . S
O112 Cd113 2.223 . S
O112 C120 1.315 . S
Cd113 O112 2.223 . S
Cd113 O116 2.297 . S
Cd113 O117 2.439 . S
Cd113 O123 2.240 . S
Cd114 O115 2.240 . S
Cd114 O122 2.223 . S
Cd114 O124 2.297 . S
Cd114 O125 2.439 . S
O115 Cd114 2.240 . S
O115 C120 1.279 . S
O116 Cd113 2.297 . S
O116 C118 1.247 . S
O117 Cd113 2.439 . S
O117 C118 1.208 . S
C118 O116 1.247 . S
C118 O117 1.208 . S
C119 O124 1.247 . S
C119 O125 1.208 . S
C120 O112 1.315 . S
C120 O115 1.279 . S
C121 O122 1.315 . S
C121 O123 1.279 . S
O122 Cd114 2.223 . S
O122 C121 1.315 . S
O123 Cd113 2.240 . S
O123 C121 1.279 . S
O124 Cd114 2.297 . S
O124 C119 1.247 . S
O125 Cd114 2.439 . S
O125 C119 1.208 . S
O126 Cd127 2.223 . S
O126 C134 1.315 . S
Cd127 O126 2.223 . S
Cd127 O130 2.297 . S
Cd127 O131 2.439 . S
Cd127 O137 2.240 . S
Cd128 O129 2.240 . S
Cd128 O136 2.223 . S
Cd128 O138 2.297 . S
Cd128 O139 2.439 . S
O129 Cd128 2.240 . S
O129 C134 1.279 . S
O130 Cd127 2.297 . S
O130 C132 1.247 . S
O131 Cd127 2.439 . S
O131 C132 1.208 . S
C132 O130 1.247 . S
C132 O131 1.208 . S
C133 O138 1.247 . S
C133 O139 1.208 . S
C134 O126 1.315 . S
C134 O129 1.279 . S
C135 O136 1.315 . S
C135 O137 1.279 . S
O136 Cd128 2.223 . S
O136 C135 1.315 . S
O137 Cd127 2.240 . S
O137 C135 1.279 . S
O138 Cd128 2.297 . S
O138 C133 1.247 . S
O139 Cd128 2.439 . S
O139 C133 1.208 . S
O140 Cd141 2.223 . S
O140 C148 1.315 . S
Cd141 O140 2.223 . S
Cd141 O144 2.297 . S
Cd141 O145 2.439 . S
Cd141 O151 2.240 . S
Cd142 O143 2.240 . S
Cd142 O150 2.223 . S
Cd142 O152 2.297 . S
Cd142 O153 2.439 . S
O143 Cd142 2.240 . S
O143 C148 1.279 . S
O144 Cd141 2.297 . S
O144 C146 1.247 . S
O145 Cd141 2.439 . S
O145 C146 1.208 . S
C146 O144 1.247 . S
C146 O145 1.208 . S
C147 O152 1.247 . S
C147 O153 1.208 . S
C148 O140 1.315 . S
C148 O143 1.279 . S
C149 O150 1.315 . S
C149 O151 1.279 . S
O150 Cd142 2.223 . S
O150 C149 1.315 . S
O151 Cd141 2.240 . S
O151 C149 1.279 . S
O152 Cd142 2.297 . S
O152 C147 1.247 . S
O153 Cd142 2.439 . S
O153 C147 1.208 . S
O154 Cd155 2.223 . S
O154 C162 1.315 . S
Cd155 O154 2.223 . S
Cd155 O158 2.297 . S
Cd155 O159 2.439 . S
Cd155 O165 2.240 . S
Cd156 O157 2.240 . S
Cd156 O164 2.223 . S
Cd156 O166 2.297 . S
Cd156 O167 2.439 . S
O157 Cd156 2.240 . S
O157 C162 1.279 . S
O158 Cd155 2.297 . S
O158 C160 1.247 . S
O159 Cd155 2.439 . S
O159 C160 1.208 . S
C160 O158 1.247 . S
C160 O159 1.208 . S
C161 O166 1.247 . S
C161 O167 1.208 . S
C162 O154 1.315 . S
C162 O157 1.279 . S
C163 O164 1.315 . S
C163 O165 1.279 . S
O164 Cd156 2.223 . S
O164 C163 1.315 . S
O165 Cd155 2.240 . S
O165 C163 1.279 . S
O166 Cd156 2.297 . S
O166 C161 1.247 . S
O167 Cd156 2.439 . S
O167 C161 1.208 . S
O168 Cd169 2.223 . S
O168 C176 1.315 . S
Cd169 O168 2.223 . S
Cd169 O172 2.297 . S
Cd169 O173 2.439 . S
Cd169 O179 2.240 . S
Cd170 O171 2.240 . S
Cd170 O178 2.223 . S
Cd170 O180 2.297 . S
Cd170 O181 2.439 . S
O171 Cd170 2.240 . S
O171 C176 1.279 . S
O172 Cd169 2.297 . S
O172 C174 1.247 . S
O173 Cd169 2.439 . S
O173 C174 1.208 . S
C174 O172 1.247 . S
C174 O173 1.208 . S
C175 O180 1.247 . S
C175 O181 1.208 . S
C176 O168 1.315 . S
C176 O171 1.279 . S
C177 O178 1.315 . S
C177 O179 1.279 . S
O178 Cd170 2.223 . S
O178 C177 1.315 . S
O179 Cd169 2.240 . S
O179 C177 1.279 . S
O180 Cd170 2.297 . S
O180 C175 1.247 . S
O181 Cd170 2.439 . S
O181 C175 1.208 . S
O182 Cd183 2.223 . S
O182 C190 1.315 . S
Cd183 O182 2.223 . S
Cd183 O186 2.297 . S
Cd183 O187 2.439 . S
Cd183 O193 2.240 . S
Cd184 O185 2.240 . S
Cd184 O192 2.223 . S
Cd184 O194 2.297 . S
Cd184 O195 2.439 . S
O185 Cd184 2.240 . S
O185 C190 1.279 . S
O186 Cd183 2.297 . S
O186 C188 1.247 . S
O187 Cd183 2.439 . S
O187 C188 1.208 . S
C188 O186 1.247 . S
C188 O187 1.208 . S
C189 O194 1.247 . S
C189 O195 1.208 . S
C190 O182 1.315 . S
C190 O185 1.279 . S
C191 O192 1.315 . S
C191 O193 1.279 . S
O192 Cd184 2.223 . S
O192 C191 1.315 . S
O193 Cd183 2.240 . S
O193 C191 1.279 . S
O194 Cd184 2.297 . S
O194 C189 1.247 . S
O195 Cd184 2.439 . S
O195 C189 1.208 . S
O196 Cd197 2.223 . S
O196 C204 1.315 . S
Cd197 O196 2.223 . S
Cd197 O200 2.297 . S
Cd197 O201 2.439 . S
Cd197 O207 2.240 . S
Cd198 O199 2.240 . S
Cd198 O206 2.223 . S
Cd198 O208 2.297 . S
Cd198 O209 2.439 . S
O199 Cd198 2.240 . S
O199 C204 1.279 . S
O200 Cd197 2.297 . S
O200 C202 1.247 . S
O201 Cd197 2.439 . S
O201 C202 1.208 . S
C202 O200 1.247 . S
C202 O201 1.208 . S
C203 O208 1.247 . S
C203 O209 1.208 . S
C204 O196 1.315 . S
C204 O199 1.279 . S
C205 O206 1.315 . S
C205 O207 1.279 . S
O206 Cd198 2.223 . S
O206 C205 1.315 . S
O207 Cd197 2.240 . S
O207 C205 1.279 . S
O208 Cd198 2.297 . S
O208 C203 1.247 . S
O209 Cd198 2.439 . S
O209 C203 1.208 . S
O210 Cd211 2.223 . S
O210 C218 1.315 . S
Cd211 O210 2.223 . S
Cd211 O214 2.297 . S
Cd211 O215 2.439 . S
Cd211 O221 2.240 . S
Cd212 O213 2.240 . S
Cd212 O220 2.223 . S
Cd212 O222 2.297 . S
Cd212 O223 2.439 . S
O213 Cd212 2.240 . S
O213 C218 1.279 . S
O214 Cd211 2.297 . S
O214 C216 1.247 . S
O215 Cd211 2.439 . S
O215 C216 1.208 . S
C216 O214 1.247 . S
C216 O215 1.208 . S
C217 O222 1.247 . S
C217 O223 1.208 . S
C218 O210 1.315 . S
C218 O213 1.279 . S
C219 O220 1.315 . S
C219 O221 1.279 . S
O220 Cd212 2.223 . S
O220 C219 1.315 . S
O221 Cd211 2.240 . S
O221 C219 1.279 . S
O222 Cd212 2.297 . S
O222 C217 1.247 . S
O223 Cd212 2.439 . S
O223 C217 1.208 . S
O224 Cd225 2.223 . S
O224 C232 1.315 . S
Cd225 O224 2.223 . S
Cd225 O228 2.297 . S
Cd225 O229 2.439 . S
Cd225 O235 2.240 . S
Cd226 O227 2.240 . S
Cd226 O234 2.223 . S
Cd226 O236 2.297 . S
Cd226 O237 2.439 . S
O227 Cd226 2.240 . S
O227 C232 1.279 . S
O228 Cd225 2.297 . S
O228 C230 1.247 . S
O229 Cd225 2.439 . S
O229 C230 1.208 . S
C230 O228 1.247 . S
C230 O229 1.208 . S
C231 O236 1.247 . S
C231 O237 1.208 . S
C232 O224 1.315 . S
C232 O227 1.279 . S
C233 O234 1.315 . S
C233 O235 1.279 . S
O234 Cd226 2.223 . S
O234 C233 1.315 . S
O235 Cd225 2.240 . S
O235 C233 1.279 . S
O236 Cd226 2.297 . S
O236 C231 1.247 . S
O237 Cd226 2.439 . S
O237 C231 1.208 . S
O238 Cd239 2.223 . S
O238 C246 1.315 . S
Cd239 O238 2.223 . S
Cd239 O242 2.297 . S
Cd239 O243 2.439 . S
Cd239 O249 2.240 . S
Cd240 O241 2.240 . S
Cd240 O248 2.223 . S
Cd240 O250 2.297 . S
Cd240 O251 2.439 . S
O241 Cd240 2.240 . S
O241 C246 1.279 . S
O242 Cd239 2.297 . S
O242 C244 1.247 . S
O243 Cd239 2.439 . S
O243 C244 1.208 . S
C244 O242 1.247 . S
C244 O243 1.208 . S
C245 O250 1.247 . S
C245 O251 1.208 . S
C246 O238 1.315 . S
C246 O241 1.279 . S
C247 O248 1.315 . S
C247 O249 1.279 . S
O248 Cd240 2.223 . S
O248 C247 1.315 . S
O249 Cd239 2.240 . S
O249 C247 1.279 . S
O250 Cd240 2.297 . S
O250 C245 1.247 . S
O251 Cd240 2.439 . S
O251 C245 1.208 . S
O252 Cd253 2.223 . S
O252 C260 1.315 . S
Cd253 O252 2.223 . S
Cd253 O256 2.297 . S
Cd253 O257 2.439 . S
Cd253 O263 2.240 . S
Cd254 O255 2.240 . S
Cd254 O262 2.223 . S
Cd254 O264 2.297 . S
Cd254 O265 2.439 . S
O255 Cd254 2.240 . S
O255 C260 1.279 . S
O256 Cd253 2.297 . S
O256 C258 1.247 . S
O257 Cd253 2.439 . S
O257 C258 1.208 . S
C258 O256 1.247 . S
C258 O257 1.208 . S
C259 O264 1.247 . S
C259 O265 1.208 . S
C260 O252 1.315 . S
C260 O255 1.279 . S
C261 O262 1.315 . S
C261 O263 1.279 . S
O262 Cd254 2.223 . S
O262 C261 1.315 . S
O263 Cd253 2.240 . S
O263 C261 1.279 . S
O264 Cd254 2.297 . S
O264 C259 1.247 . S
O265 Cd254 2.439 . S
O265 C259 1.208 . S
O266 Cd267 2.223 . S
O266 C274 1.315 . S
Cd267 O266 2.223 . S
Cd267 O270 2.297 . S
Cd267 O271 2.439 . S
Cd267 O277 2.240 . S
Cd268 O269 2.240 . S
Cd268 O276 2.223 . S
Cd268 O278 2.297 . S
Cd268 O279 2.439 . S
O269 Cd268 2.240 . S
O269 C274 1.279 . S
O270 Cd267 2.297 . S
O270 C272 1.247 . S
O271 Cd267 2.439 . S
O271 C272 1.208 . S
C272 O270 1.247 . S
C272 O271 1.208 . S
C273 O278 1.247 . S
C273 O279 1.208 . S
C274 O266 1.315 . S
C274 O269 1.279 . S
C275 O276 1.315 . S
C275 O277 1.279 . S
O276 Cd268 2.223 . S
O276 C275 1.315 . S
O277 Cd267 2.240 . S
O277 C275 1.279 . S
O278 Cd268 2.297 . S
O278 C273 1.247 . S
O279 Cd268 2.439 . S
O279 C273 1.208 . S
O280 Cd281 2.223 . S
O280 C288 1.315 . S
Cd281 O280 2.223 . S
Cd281 O284 2.297 . S
Cd281 O285 2.439 . S
Cd281 O291 2.240 . S
Cd282 O283 2.240 . S
Cd282 O290 2.223 . S
Cd282 O292 2.297 . S
Cd282 O293 2.439 . S
O283 Cd282 2.240 . S
O283 C288 1.279 . S
O284 Cd281 2.297 . S
O284 C286 1.247 . S
O285 Cd281 2.439 . S
O285 C286 1.208 . S
C286 O284 1.247 . S
C286 O285 1.208 . S
C287 O292 1.247 . S
C287 O293 1.208 . S
C288 O280 1.315 . S
C288 O283 1.279 . S
C289 O290 1.315 . S
C289 O291 1.279 . S
O290 Cd282 2.223 . S
O290 C289 1.315 . S
O291 Cd281 2.240 . S
O291 C289 1.279 . S
O292 Cd282 2.297 . S
O292 C287 1.247 . S
O293 Cd282 2.439 . S
O293 C287 1.208 . S
O294 Cd295 2.223 . S
O294 C302 1.315 . S
Cd295 O294 2.223 . S
Cd295 O298 2.297 . S
Cd295 O299 2.439 . S
Cd295 O305 2.240 . S
Cd296 O297 2.240 . S
Cd296 O304 2.223 . S
Cd296 O306 2.297 . S
Cd296 O307 2.439 . S
O297 Cd296 2.240 . S
O297 C302 1.279 . S
O298 Cd295 2.297 . S
O298 C300 1.247 . S
O299 Cd295 2.439 . S
O299 C300 1.208 . S
C300 O298 1.247 . S
C300 O299 1.208 . S
C301 O306 1.247 . S
C301 O307 1.208 . S
C302 O294 1.315 . S
C302 O297 1.279 . S
C303 O304 1.315 . S
C303 O305 1.279 . S
O304 Cd296 2.223 . S
O304 C303 1.315 . S
O305 Cd295 2.240 . S
O305 C303 1.279 . S
O306 Cd296 2.297 . S
O306 C301 1.247 . S
O307 Cd296 2.439 . S
O307 C301 1.208 . S
O308 Cd309 2.223 . S
O308 C316 1.315 . S
Cd309 O308 2.223 . S
Cd309 O312 2.297 . S
Cd309 O313 2.439 . S
Cd309 O319 2.240 . S
Cd310 O311 2.240 . S
Cd310 O318 2.223 . S
Cd310 O320 2.297 . S
Cd310 O321 2.439 . S
O311 Cd310 2.240 . S
O311 C316 1.279 . S
O312 Cd309 2.297 . S
O312 C314 1.247 . S
O313 Cd309 2.439 . S
O313 C314 1.208 . S
C314 O312 1.247 . S
C314 O313 1.208 . S
C315 O320 1.247 . S
C315 O321 1.208 . S
C316 O308 1.315 . S
C316 O311 1.279 . S
C317 O318 1.315 . S
C317 O319 1.279 . S
O318 Cd310 2.223 . S
O318 C317 1.315 . S
O319 Cd309 2.240 . S
O319 C317 1.279 . S
O320 Cd310 2.297 . S
O320 C315 1.247 . S
O321 Cd310 2.439 . S
O321 C315 1.208 . S
O322 Cd323 2.223 . S
O322 C330 1.315 . S
Cd323 O322 2.223 . S
Cd323 O326 2.297 . S
Cd323 O327 2.439 . S
Cd323 O333 2.240 . S
Cd324 O325 2.240 . S
Cd324 O332 2.223 . S
Cd324 O334 2.297 . S
Cd324 O335 2.439 . S
O325 Cd324 2.240 . S
O325 C330 1.279 . S
O326 Cd323 2.297 . S
O326 C328 1.247 . S
O327 Cd323 2.439 . S
O327 C328 1.208 . S
C328 O326 1.247 . S
C328 O327 1.208 . S
C329 O334 1.247 . S
C329 O335 1.208 . S
C330 O322 1.315 . S
C330 O325 1.279 . S
C331 O332 1.315 . S
C331 O333 1.279 . S
O332 Cd324 2.223 . S
O332 C331 1.315 . S
O333 Cd323 2.240 . S
O333 C331 1.279 . S
O334 Cd324 2.297 . S
O334 C329 1.247 . S
O335 Cd324 2.439 . S
O335 C329 1.208 . S
O336 Cd337 2.223 . S
O336 C344 1.315 . S
Cd337 O336 2.223 . S
Cd337 O340 2.297 . S
Cd337 O341 2.439 . S
Cd337 O347 2.240 . S
Cd338 O339 2.240 . S
Cd338 O346 2.223 . S
Cd338 O348 2.297 . S
Cd338 O349 2.439 . S
O339 Cd338 2.240 . S
O339 C344 1.279 . S
O340 Cd337 2.297 . S
O340 C342 1.247 . S
O341 Cd337 2.439 . S
O341 C342 1.208 . S
C342 O340 1.247 . S
C342 O341 1.208 . S
C343 O348 1.247 . S
C343 O349 1.208 . S
C344 O336 1.315 . S
C344 O339 1.279 . S
C345 O346 1.315 . S
C345 O347 1.279 . S
O346 Cd338 2.223 . S
O346 C345 1.315 . S
O347 Cd337 2.240 . S
O347 C345 1.279 . S
O348 Cd338 2.297 . S
O348 C343 1.247 . S
O349 Cd338 2.439 . S
O349 C343 1.208 . S
O350 Cd351 2.223 . S
O350 C358 1.315 . S
Cd351 O350 2.223 . S
Cd351 O354 2.297 . S
Cd351 O355 2.439 . S
Cd351 O361 2.240 . S
Cd352 O353 2.240 . S
Cd352 O360 2.223 . S
Cd352 O362 2.297 . S
Cd352 O363 2.439 . S
O353 Cd352 2.240 . S
O353 C358 1.279 . S
O354 Cd351 2.297 . S
O354 C356 1.247 . S
O355 Cd351 2.439 . S
O355 C356 1.208 . S
C356 O354 1.247 . S
C356 O355 1.208 . S
C357 O362 1.247 . S
C357 O363 1.208 . S
C358 O350 1.315 . S
C358 O353 1.279 . S
C359 O360 1.315 . S
C359 O361 1.279 . S
O360 Cd352 2.223 . S
O360 C359 1.315 . S
O361 Cd351 2.240 . S
O361 C359 1.279 . S
O362 Cd352 2.297 . S
O362 C357 1.247 . S
O363 Cd352 2.439 . S
O363 C357 1.208 . S
O364 Cd365 2.223 . S
O364 C372 1.315 . S
Cd365 O364 2.223 . S
Cd365 O368 2.297 . S
Cd365 O369 2.439 . S
Cd365 O375 2.240 . S
Cd366 O367 2.240 . S
Cd366 O374 2.223 . S
Cd366 O376 2.297 . S
Cd366 O377 2.439 . S
O367 Cd366 2.240 . S
O367 C372 1.279 . S
O368 Cd365 2.297 . S
O368 C370 1.247 . S
O369 Cd365 2.439 . S
O369 C370 1.208 . S
C370 O368 1.247 . S
C370 O369 1.208 . S
C371 O376 1.247 . S
C371 O377 1.208 . S
C372 O364 1.315 . S
C372 O367 1.279 . S
C373 O374 1.315 1_554 S
C373 O375 1.279 1_554 S
O374 Cd366 2.223 . S
O374 C373 1.315 1_556 S
O375 Cd365 2.240 . S
O375 C373 1.279 1_556 S
O376 Cd366 2.297 . S
O376 C371 1.247 . S
O377 Cd366 2.439 . S
O377 C371 1.208 . S
O378 Cd379 2.223 . S
O378 C386 1.315 . S
Cd379 O378 2.223 . S
Cd379 O382 2.297 . S
Cd379 O383 2.439 . S
Cd379 O389 2.240 . S
Cd380 O381 2.240 . S
Cd380 O388 2.223 . S
Cd380 O390 2.297 . S
Cd380 O391 2.439 . S
O381 Cd380 2.240 . S
O381 C386 1.279 . S
O382 Cd379 2.297 . S
O382 C384 1.247 . S
O383 Cd379 2.439 . S
O383 C384 1.208 . S
C384 O382 1.247 . S
C384 O383 1.208 . S
C385 O390 1.247 . S
C385 O391 1.208 . S
C386 O378 1.315 . S
C386 O381 1.279 . S
C387 O388 1.315 1_554 S
C387 O389 1.279 1_554 S
O388 Cd380 2.223 . S
O388 C387 1.315 1_556 S
O389 Cd379 2.240 . S
O389 C387 1.279 1_556 S
O390 Cd380 2.297 . S
O390 C385 1.247 . S
O391 Cd380 2.439 . S
O391 C385 1.208 . S
O392 Cd393 2.223 . S
O392 C400 1.315 . S
Cd393 O392 2.223 . S
Cd393 O396 2.297 . S
Cd393 O397 2.439 . S
Cd393 O403 2.240 . S
Cd394 O395 2.240 . S
Cd394 O402 2.223 . S
Cd394 O404 2.297 . S
Cd394 O405 2.439 . S
O395 Cd394 2.240 . S
O395 C400 1.279 . S
O396 Cd393 2.297 . S
O396 C398 1.247 . S
O397 Cd393 2.439 . S
O397 C398 1.208 . S
C398 O396 1.247 . S
C398 O397 1.208 . S
C399 O404 1.247 . S
C399 O405 1.208 . S
C400 O392 1.315 . S
C400 O395 1.279 . S
C401 O402 1.315 . S
C401 O403 1.279 . S
O402 Cd394 2.223 . S
O402 C401 1.315 . S
O403 Cd393 2.240 . S
O403 C401 1.279 . S
O404 Cd394 2.297 . S
O404 C399 1.247 . S
O405 Cd394 2.439 . S
O405 C399 1.208 . S
O406 Cd407 2.223 . S
O406 C414 1.315 . S
Cd407 O406 2.223 . S
Cd407 O410 2.297 . S
Cd407 O411 2.439 . S
Cd407 O417 2.240 . S
Cd408 O409 2.240 . S
Cd408 O416 2.223 . S
Cd408 O418 2.297 . S
Cd408 O419 2.439 . S
O409 Cd408 2.240 . S
O409 C414 1.279 . S
O410 Cd407 2.297 . S
O410 C412 1.247 . S
O411 Cd407 2.439 . S
O411 C412 1.208 . S
C412 O410 1.247 . S
C412 O411 1.208 . S
C413 O418 1.247 . S
C413 O419 1.208 . S
C414 O406 1.315 . S
C414 O409 1.279 . S
C415 O416 1.315 . S
C415 O417 1.279 . S
O416 Cd408 2.223 . S
O416 C415 1.315 . S
O417 Cd407 2.240 . S
O417 C415 1.279 . S
O418 Cd408 2.297 . S
O418 C413 1.247 . S
O419 Cd408 2.439 . S
O419 C413 1.208 . S
O420 Cd421 2.223 . S
O420 C428 1.315 1_554 S
Cd421 O420 2.223 . S
Cd421 O424 2.297 . S
Cd421 O425 2.439 . S
Cd421 O431 2.240 . S
Cd422 O423 2.240 . S
Cd422 O430 2.223 . S
Cd422 O432 2.297 . S
Cd422 O433 2.439 . S
O423 Cd422 2.240 . S
O423 C428 1.279 1_554 S
O424 Cd421 2.297 . S
O424 C426 1.247 . S
O425 Cd421 2.439 . S
O425 C426 1.208 . S
C426 O424 1.247 . S
C426 O425 1.208 . S
C427 O432 1.247 . S
C427 O433 1.208 . S
C428 O420 1.315 1_556 S
C428 O423 1.279 1_556 S
C429 O430 1.315 . S
C429 O431 1.279 . S
O430 Cd422 2.223 . S
O430 C429 1.315 . S
O431 Cd421 2.240 . S
O431 C429 1.279 . S
O432 Cd422 2.297 . S
O432 C427 1.247 . S
O433 Cd422 2.439 . S
O433 C427 1.208 . S
O434 Cd435 2.223 . S
O434 C442 1.315 1_554 S
Cd435 O434 2.223 . S
Cd435 O438 2.297 . S
Cd435 O439 2.439 . S
Cd435 O445 2.240 . S
Cd436 O437 2.240 . S
Cd436 O444 2.223 . S
Cd436 O446 2.297 . S
Cd436 O447 2.439 . S
O437 Cd436 2.240 . S
O437 C442 1.279 1_554 S
O438 Cd435 2.297 . S
O438 C440 1.247 . S
O439 Cd435 2.439 . S
O439 C440 1.208 . S
C440 O438 1.247 . S
C440 O439 1.208 . S
C441 O446 1.247 . S
C441 O447 1.208 . S
C442 O434 1.315 1_556 S
C442 O437 1.279 1_556 S
C443 O444 1.315 . S
C443 O445 1.279 . S
O444 Cd436 2.223 . S
O444 C443 1.315 . S
O445 Cd435 2.240 . S
O445 C443 1.279 . S
O446 Cd436 2.297 . S
O446 C441 1.247 . S
O447 Cd436 2.439 . S
O447 C441 1.208 . S
C448 C449 1.391 . S
C448 C450 1.394 . S
C448 H464 0.931 . S
C449 C448 1.391 . S
C449 C453 1.376 . S
C450 C448 1.394 . S
C450 C451 1.369 . S
C450 C454 1.531 . S
C451 C450 1.369 . S
C451 C452 1.410 . S
C451 C459 1.503 . S
C452 C451 1.410 . S
C452 C453 1.392 . S
C452 C455 1.511 . S
C453 C449 1.376 . S
C453 C452 1.392 . S
C453 H465 0.929 . S
C454 C450 1.531 . S
C454 H466 0.960 . S
C454 H467 0.962 . S
C454 H468 0.960 . S
C455 C452 1.511 . S
C455 H469 0.961 . S
C455 H470 0.961 . S
C455 H471 0.961 . S
C456 C457 1.370 . S
C456 C458 1.363 . S
C456 H472 0.931 . S
C457 C456 1.370 . S
C457 C461 1.408 . S
C458 C456 1.363 . S
C458 C459 1.370 . S
C458 C462 1.524 . S
C459 C451 1.503 . S
C459 C458 1.370 . S
C459 C460 1.403 . S
C460 C459 1.403 . S
C460 C461 1.404 . S
C460 C463 1.539 . S
C461 C457 1.408 . S
C461 C460 1.404 . S
C461 H473 0.930 . S
C462 C458 1.524 . S
C462 H474 0.956 . S
C462 H475 0.961 . S
C462 H476 0.961 . S
C463 C460 1.539 . S
C463 H477 0.958 . S
C463 H478 0.961 . S
C463 H479 0.960 . S
H464 C448 0.931 . S
H465 C453 0.929 . S
H466 C454 0.960 . S
H467 C454 0.962 . S
H468 C454 0.960 . S
H469 C455 0.961 . S
H470 C455 0.961 . S
H471 C455 0.961 . S
H472 C456 0.931 . S
H473 C461 0.930 . S
H474 C462 0.956 . S
H475 C462 0.961 . S
H476 C462 0.961 . S
H477 C463 0.958 . S
H478 C463 0.961 . S
H479 C463 0.960 . S
C480 C481 1.391 . S
C480 C482 1.394 . S
C480 H496 0.931 . S
C481 C480 1.391 . S
C481 C485 1.376 . S
C482 C480 1.394 . S
C482 C483 1.369 . S
C482 C486 1.531 . S
C483 C482 1.369 . S
C483 C484 1.410 . S
C483 C491 1.503 . S
C484 C483 1.410 . S
C484 C485 1.392 . S
C484 C487 1.511 . S
C485 C481 1.376 . S
C485 C484 1.392 . S
C485 H497 0.929 . S
C486 C482 1.531 . S
C486 H498 0.960 . S
C486 H499 0.962 . S
C486 H500 0.960 . S
C487 C484 1.511 . S
C487 H501 0.961 . S
C487 H502 0.961 . S
C487 H503 0.961 . S
C488 C489 1.370 . S
C488 C490 1.363 . S
C488 H504 0.931 . S
C489 C488 1.370 . S
C489 C493 1.408 . S
C490 C488 1.363 . S
C490 C491 1.370 . S
C490 C494 1.524 . S
C491 C483 1.503 . S
C491 C490 1.370 . S
C491 C492 1.403 . S
C492 C491 1.403 . S
C492 C493 1.404 . S
C492 C495 1.539 . S
C493 C489 1.408 . S
C493 C492 1.404 . S
C493 H505 0.930 . S
C494 C490 1.524 . S
C494 H506 0.956 . S
C494 H507 0.961 . S
C494 H508 0.961 . S
C495 C492 1.539 . S
C495 H509 0.958 . S
C495 H510 0.961 . S
C495 H511 0.960 . S
H496 C480 0.931 . S
H497 C485 0.929 . S
H498 C486 0.960 . S
H499 C486 0.962 . S
H500 C486 0.960 . S
H501 C487 0.961 . S
H502 C487 0.961 . S
H503 C487 0.961 . S
H504 C488 0.931 . S
H505 C493 0.930 . S
H506 C494 0.956 . S
H507 C494 0.961 . S
H508 C494 0.961 . S
H509 C495 0.958 . S
H510 C495 0.961 . S
H511 C495 0.960 . S
C512 C513 1.391 . S
C512 C514 1.394 . S
C512 H528 0.931 . S
C513 C512 1.391 . S
C513 C517 1.376 . S
C514 C512 1.394 . S
C514 C515 1.369 . S
C514 C518 1.531 . S
C515 C514 1.369 . S
C515 C516 1.410 . S
C515 C523 1.503 . S
C516 C515 1.410 . S
C516 C517 1.392 . S
C516 C519 1.511 . S
C517 C513 1.376 . S
C517 C516 1.392 . S
C517 H529 0.929 . S
C518 C514 1.531 . S
C518 H530 0.960 . S
C518 H531 0.962 . S
C518 H532 0.960 . S
C519 C516 1.511 . S
C519 H533 0.961 . S
C519 H534 0.961 . S
C519 H535 0.961 . S
C520 C521 1.370 . S
C520 C522 1.363 . S
C520 H536 0.931 . S
C521 C520 1.370 . S
C521 C525 1.408 . S
C522 C520 1.363 . S
C522 C523 1.370 . S
C522 C526 1.524 . S
C523 C515 1.503 . S
C523 C522 1.370 . S
C523 C524 1.403 . S
C524 C523 1.403 . S
C524 C525 1.404 . S
C524 C527 1.539 . S
C525 C521 1.408 . S
C525 C524 1.404 . S
C525 H537 0.930 . S
C526 C522 1.524 . S
C526 H538 0.956 . S
C526 H539 0.961 . S
C526 H540 0.961 . S
C527 C524 1.539 . S
C527 H541 0.958 . S
C527 H542 0.961 . S
C527 H543 0.960 . S
H528 C512 0.931 . S
H529 C517 0.929 . S
H530 C518 0.960 . S
H531 C518 0.962 . S
H532 C518 0.960 . S
H533 C519 0.961 . S
H534 C519 0.961 . S
H535 C519 0.961 . S
H536 C520 0.931 . S
H537 C525 0.930 . S
H538 C526 0.956 . S
H539 C526 0.961 . S
H540 C526 0.961 . S
H541 C527 0.958 . S
H542 C527 0.961 . S
H543 C527 0.960 . S
C544 C545 1.391 . S
C544 C546 1.394 . S
C544 H560 0.931 . S
C545 C544 1.391 . S
C545 C549 1.376 . S
C546 C544 1.394 . S
C546 C547 1.369 . S
C546 C550 1.531 . S
C547 C546 1.369 . S
C547 C548 1.410 . S
C547 C555 1.503 . S
C548 C547 1.410 . S
C548 C549 1.392 . S
C548 C551 1.511 . S
C549 C545 1.376 . S
C549 C548 1.392 . S
C549 H561 0.929 . S
C550 C546 1.531 . S
C550 H562 0.960 . S
C550 H563 0.962 . S
C550 H564 0.960 . S
C551 C548 1.511 . S
C551 H565 0.961 . S
C551 H566 0.961 . S
C551 H567 0.961 . S
C552 C553 1.370 . S
C552 C554 1.363 . S
C552 H568 0.931 . S
C553 C552 1.370 . S
C553 C557 1.408 . S
C554 C552 1.363 . S
C554 C555 1.370 . S
C554 C558 1.524 . S
C555 C547 1.503 . S
C555 C554 1.370 . S
C555 C556 1.403 . S
C556 C555 1.403 . S
C556 C557 1.404 . S
C556 C559 1.539 . S
C557 C553 1.408 . S
C557 C556 1.404 . S
C557 H569 0.930 . S
C558 C554 1.524 . S
C558 H570 0.956 . S
C558 H571 0.961 . S
C558 H572 0.961 . S
C559 C556 1.539 . S
C559 H573 0.958 . S
C559 H574 0.961 . S
C559 H575 0.960 . S
H560 C544 0.931 . S
H561 C549 0.929 . S
H562 C550 0.960 . S
H563 C550 0.962 . S
H564 C550 0.960 . S
H565 C551 0.961 . S
H566 C551 0.961 . S
H567 C551 0.961 . S
H568 C552 0.931 . S
H569 C557 0.930 . S
H570 C558 0.956 . S
H571 C558 0.961 . S
H572 C558 0.961 . S
H573 C559 0.958 . S
H574 C559 0.961 . S
H575 C559 0.960 . S
C576 C577 1.391 . S
C576 C578 1.394 . S
C576 H592 0.931 . S
C577 C576 1.391 . S
C577 C581 1.376 . S
C578 C576 1.394 . S
C578 C579 1.369 . S
C578 C582 1.531 . S
C579 C578 1.369 . S
C579 C580 1.410 . S
C579 C587 1.503 . S
C580 C579 1.410 . S
C580 C581 1.392 . S
C580 C583 1.511 . S
C581 C577 1.376 . S
C581 C580 1.392 . S
C581 H593 0.929 . S
C582 C578 1.531 . S
C582 H594 0.960 . S
C582 H595 0.962 . S
C582 H596 0.960 . S
C583 C580 1.511 . S
C583 H597 0.961 . S
C583 H598 0.961 . S
C583 H599 0.961 . S
C584 C585 1.370 . S
C584 C586 1.363 . S
C584 H600 0.931 . S
C585 C584 1.370 . S
C585 C589 1.408 . S
C586 C584 1.363 . S
C586 C587 1.370 . S
C586 C590 1.524 . S
C587 C579 1.503 . S
C587 C586 1.370 . S
C587 C588 1.403 . S
C588 C587 1.403 . S
C588 C589 1.404 . S
C588 C591 1.539 . S
C589 C585 1.408 . S
C589 C588 1.404 . S
C589 H601 0.930 . S
C590 C586 1.524 . S
C590 H602 0.956 . S
C590 H603 0.961 . S
C590 H604 0.961 . S
C591 C588 1.539 . S
C591 H605 0.958 . S
C591 H606 0.961 . S
C591 H607 0.960 . S
H592 C576 0.931 . S
H593 C581 0.929 . S
H594 C582 0.960 . S
H595 C582 0.962 . S
H596 C582 0.960 . S
H597 C583 0.961 . S
H598 C583 0.961 . S
H599 C583 0.961 . S
H600 C584 0.931 . S
H601 C589 0.930 . S
H602 C590 0.956 . S
H603 C590 0.961 . S
H604 C590 0.961 . S
H605 C591 0.958 . S
H606 C591 0.961 . S
H607 C591 0.960 . S
C608 C609 1.391 . S
C608 C610 1.394 . S
C608 H624 0.931 . S
C609 C608 1.391 . S
C609 C613 1.376 . S
C610 C608 1.394 . S
C610 C611 1.369 . S
C610 C614 1.531 . S
C611 C610 1.369 . S
C611 C612 1.410 . S
C611 C619 1.503 . S
C612 C611 1.410 . S
C612 C613 1.392 . S
C612 C615 1.511 . S
C613 C609 1.376 . S
C613 C612 1.392 . S
C613 H625 0.929 . S
C614 C610 1.531 . S
C614 H626 0.960 . S
C614 H627 0.962 . S
C614 H628 0.960 . S
C615 C612 1.511 . S
C615 H629 0.961 . S
C615 H630 0.961 . S
C615 H631 0.961 . S
C616 C617 1.370 . S
C616 C618 1.363 . S
C616 H632 0.931 . S
C617 C616 1.370 . S
C617 C621 1.408 . S
C618 C616 1.363 . S
C618 C619 1.370 . S
C618 C622 1.524 . S
C619 C611 1.503 . S
C619 C618 1.370 . S
C619 C620 1.403 . S
C620 C619 1.403 . S
C620 C621 1.404 . S
C620 C623 1.539 . S
C621 C617 1.408 . S
C621 C620 1.404 . S
C621 H633 0.930 . S
C622 C618 1.524 . S
C622 H634 0.956 . S
C622 H635 0.961 . S
C622 H636 0.961 . S
C623 C620 1.539 . S
C623 H637 0.958 . S
C623 H638 0.961 . S
C623 H639 0.960 . S
H624 C608 0.931 . S
H625 C613 0.929 . S
H626 C614 0.960 . S
H627 C614 0.962 . S
H628 C614 0.960 . S
H629 C615 0.961 . S
H630 C615 0.961 . S
H631 C615 0.961 . S
H632 C616 0.931 . S
H633 C621 0.930 . S
H634 C622 0.956 . S
H635 C622 0.961 . S
H636 C622 0.961 . S
H637 C623 0.958 . S
H638 C623 0.961 . S
H639 C623 0.960 . S
C640 C641 1.391 . S
C640 C642 1.394 . S
C640 H656 0.931 . S
C641 C640 1.391 . S
C641 C645 1.376 . S
C642 C640 1.394 . S
C642 C643 1.369 . S
C642 C646 1.531 . S
C643 C642 1.369 . S
C643 C644 1.410 . S
C643 C651 1.503 . S
C644 C643 1.410 . S
C644 C645 1.392 . S
C644 C647 1.511 . S
C645 C641 1.376 . S
C645 C644 1.392 . S
C645 H657 0.929 . S
C646 C642 1.531 . S
C646 H658 0.960 . S
C646 H659 0.962 . S
C646 H660 0.960 . S
C647 C644 1.511 . S
C647 H661 0.961 . S
C647 H662 0.961 . S
C647 H663 0.961 . S
C648 C649 1.370 . S
C648 C650 1.363 . S
C648 H664 0.931 . S
C649 C648 1.370 . S
C649 C653 1.408 . S
C650 C648 1.363 . S
C650 C651 1.370 . S
C650 C654 1.524 . S
C651 C643 1.503 . S
C651 C650 1.370 . S
C651 C652 1.403 . S
C652 C651 1.403 . S
C652 C653 1.404 . S
C652 C655 1.539 . S
C653 C649 1.408 . S
C653 C652 1.404 . S
C653 H665 0.930 . S
C654 C650 1.524 . S
C654 H666 0.956 . S
C654 H667 0.961 . S
C654 H668 0.961 . S
C655 C652 1.539 . S
C655 H669 0.958 . S
C655 H670 0.961 . S
C655 H671 0.960 . S
H656 C640 0.931 . S
H657 C645 0.929 . S
H658 C646 0.960 . S
H659 C646 0.962 . S
H660 C646 0.960 . S
H661 C647 0.961 . S
H662 C647 0.961 . S
H663 C647 0.961 . S
H664 C648 0.931 . S
H665 C653 0.930 . S
H666 C654 0.956 . S
H667 C654 0.961 . S
H668 C654 0.961 . S
H669 C655 0.958 . S
H670 C655 0.961 . S
H671 C655 0.960 . S
C672 C673 1.391 . S
C672 C674 1.394 . S
C672 H688 0.931 . S
C673 C672 1.391 . S
C673 C677 1.376 . S
C674 C672 1.394 . S
C674 C675 1.369 . S
C674 C678 1.531 . S
C675 C674 1.369 . S
C675 C676 1.410 . S
C675 C683 1.503 . S
C676 C675 1.410 . S
C676 C677 1.392 . S
C676 C679 1.511 . S
C677 C673 1.376 . S
C677 C676 1.392 . S
C677 H689 0.929 . S
C678 C674 1.531 . S
C678 H690 0.960 . S
C678 H691 0.962 . S
C678 H692 0.960 . S
C679 C676 1.511 . S
C679 H693 0.961 . S
C679 H694 0.961 . S
C679 H695 0.961 . S
C680 C681 1.370 . S
C680 C682 1.363 . S
C680 H696 0.931 . S
C681 C680 1.370 . S
C681 C685 1.408 . S
C682 C680 1.363 . S
C682 C683 1.370 . S
C682 C686 1.524 . S
C683 C675 1.503 . S
C683 C682 1.370 . S
C683 C684 1.403 . S
C684 C683 1.403 . S
C684 C685 1.404 . S
C684 C687 1.539 . S
C685 C681 1.408 . S
C685 C684 1.404 . S
C685 H697 0.930 . S
C686 C682 1.524 . S
C686 H698 0.956 . S
C686 H699 0.961 . S
C686 H700 0.961 . S
C687 C684 1.539 . S
C687 H701 0.958 . S
C687 H702 0.961 . S
C687 H703 0.960 . S
H688 C672 0.931 . S
H689 C677 0.929 . S
H690 C678 0.960 . S
H691 C678 0.962 . S
H692 C678 0.960 . S
H693 C679 0.961 . S
H694 C679 0.961 . S
H695 C679 0.961 . S
H696 C680 0.931 . S
H697 C685 0.930 . S
H698 C686 0.956 . S
H699 C686 0.961 . S
H700 C686 0.961 . S
H701 C687 0.958 . S
H702 C687 0.961 . S
H703 C687 0.960 . S
C704 C705 1.391 . S
C704 C706 1.394 . S
C704 H720 0.931 . S
C705 C704 1.391 . S
C705 C709 1.376 . S
C706 C704 1.394 . S
C706 C707 1.369 . S
C706 C710 1.531 . S
C707 C706 1.369 . S
C707 C708 1.410 . S
C707 C715 1.503 . S
C708 C707 1.410 . S
C708 C709 1.392 . S
C708 C711 1.511 . S
C709 C705 1.376 . S
C709 C708 1.392 . S
C709 H721 0.929 . S
C710 C706 1.531 . S
C710 H722 0.960 . S
C710 H723 0.962 . S
C710 H724 0.960 . S
C711 C708 1.511 . S
C711 H725 0.961 . S
C711 H726 0.961 . S
C711 H727 0.961 . S
C712 C713 1.370 . S
C712 C714 1.363 . S
C712 H728 0.931 . S
C713 C712 1.370 . S
C713 C717 1.408 . S
C714 C712 1.363 . S
C714 C715 1.370 . S
C714 C718 1.524 . S
C715 C707 1.503 . S
C715 C714 1.370 . S
C715 C716 1.403 . S
C716 C715 1.403 . S
C716 C717 1.404 . S
C716 C719 1.539 . S
C717 C713 1.408 . S
C717 C716 1.404 . S
C717 H729 0.930 . S
C718 C714 1.524 . S
C718 H730 0.956 . S
C718 H731 0.961 . S
C718 H732 0.961 . S
C719 C716 1.539 . S
C719 H733 0.958 . S
C719 H734 0.961 . S
C719 H735 0.960 . S
H720 C704 0.931 . S
H721 C709 0.929 . S
H722 C710 0.960 . S
H723 C710 0.962 . S
H724 C710 0.960 . S
H725 C711 0.961 . S
H726 C711 0.961 . S
H727 C711 0.961 . S
H728 C712 0.931 . S
H729 C717 0.930 . S
H730 C718 0.956 . S
H731 C718 0.961 . S
H732 C718 0.961 . S
H733 C719 0.958 . S
H734 C719 0.961 . S
H735 C719 0.960 . S
C736 C737 1.391 . S
C736 C738 1.394 . S
C736 H752 0.931 . S
C737 C736 1.391 . S
C737 C741 1.376 . S
C738 C736 1.394 . S
C738 C739 1.369 . S
C738 C742 1.531 . S
C739 C738 1.369 . S
C739 C740 1.410 . S
C739 C747 1.503 . S
C740 C739 1.410 . S
C740 C741 1.392 . S
C740 C743 1.511 . S
C741 C737 1.376 . S
C741 C740 1.392 . S
C741 H753 0.929 . S
C742 C738 1.531 . S
C742 H754 0.960 . S
C742 H755 0.962 . S
C742 H756 0.960 . S
C743 C740 1.511 . S
C743 H757 0.961 . S
C743 H758 0.961 . S
C743 H759 0.961 . S
C744 C745 1.370 . S
C744 C746 1.363 . S
C744 H760 0.931 . S
C745 C744 1.370 . S
C745 C749 1.408 . S
C746 C744 1.363 . S
C746 C747 1.370 . S
C746 C750 1.524 . S
C747 C739 1.503 . S
C747 C746 1.370 . S
C747 C748 1.403 . S
C748 C747 1.403 . S
C748 C749 1.404 . S
C748 C751 1.539 . S
C749 C745 1.408 . S
C749 C748 1.404 . S
C749 H761 0.930 . S
C750 C746 1.524 . S
C750 H762 0.956 . S
C750 H763 0.961 . S
C750 H764 0.961 . S
C751 C748 1.539 . S
C751 H765 0.958 . S
C751 H766 0.961 . S
C751 H767 0.960 . S
H752 C736 0.931 . S
H753 C741 0.929 . S
H754 C742 0.960 . S
H755 C742 0.962 . S
H756 C742 0.960 . S
H757 C743 0.961 . S
H758 C743 0.961 . S
H759 C743 0.961 . S
H760 C744 0.931 . S
H761 C749 0.930 . S
H762 C750 0.956 . S
H763 C750 0.961 . S
H764 C750 0.961 . S
H765 C751 0.958 . S
H766 C751 0.961 . S
H767 C751 0.960 . S
C768 C769 1.391 . S
C768 C770 1.394 . S
C768 H784 0.931 . S
C769 C768 1.391 . S
C769 C773 1.376 . S
C770 C768 1.394 . S
C770 C771 1.369 . S
C770 C774 1.531 . S
C771 C770 1.369 . S
C771 C772 1.410 . S
C771 C779 1.503 . S
C772 C771 1.410 . S
C772 C773 1.392 . S
C772 C775 1.511 . S
C773 C769 1.376 . S
C773 C772 1.392 . S
C773 H785 0.929 . S
C774 C770 1.531 . S
C774 H786 0.960 . S
C774 H787 0.962 . S
C774 H788 0.960 . S
C775 C772 1.511 . S
C775 H789 0.961 . S
C775 H790 0.961 . S
C775 H791 0.961 . S
C776 C777 1.370 . S
C776 C778 1.363 . S
C776 H792 0.931 . S
C777 C776 1.370 . S
C777 C781 1.408 . S
C778 C776 1.363 . S
C778 C779 1.370 . S
C778 C782 1.524 . S
C779 C771 1.503 . S
C779 C778 1.370 . S
C779 C780 1.403 . S
C780 C779 1.403 . S
C780 C781 1.404 . S
C780 C783 1.539 . S
C781 C777 1.408 . S
C781 C780 1.404 . S
C781 H793 0.930 . S
C782 C778 1.524 . S
C782 H794 0.956 . S
C782 H795 0.961 . S
C782 H796 0.961 . S
C783 C780 1.539 . S
C783 H797 0.958 . S
C783 H798 0.961 . S
C783 H799 0.960 . S
H784 C768 0.931 . S
H785 C773 0.929 . S
H786 C774 0.960 . S
H787 C774 0.962 . S
H788 C774 0.960 . S
H789 C775 0.961 . S
H790 C775 0.961 . S
H791 C775 0.961 . S
H792 C776 0.931 . S
H793 C781 0.930 . S
H794 C782 0.956 . S
H795 C782 0.961 . S
H796 C782 0.961 . S
H797 C783 0.958 . S
H798 C783 0.961 . S
H799 C783 0.960 . S
C800 C801 1.391 . S
C800 C802 1.394 . S
C800 H816 0.931 . S
C801 C800 1.391 . S
C801 C805 1.376 . S
C802 C800 1.394 . S
C802 C803 1.369 . S
C802 C806 1.531 . S
C803 C802 1.369 . S
C803 C804 1.410 . S
C803 C811 1.503 . S
C804 C803 1.410 . S
C804 C805 1.392 . S
C804 C807 1.511 . S
C805 C801 1.376 . S
C805 C804 1.392 . S
C805 H817 0.929 . S
C806 C802 1.531 . S
C806 H818 0.960 . S
C806 H819 0.962 . S
C806 H820 0.960 . S
C807 C804 1.511 . S
C807 H821 0.961 . S
C807 H822 0.961 . S
C807 H823 0.961 . S
C808 C809 1.370 . S
C808 C810 1.363 . S
C808 H824 0.931 . S
C809 C808 1.370 . S
C809 C813 1.408 . S
C810 C808 1.363 . S
C810 C811 1.370 . S
C810 C814 1.524 . S
C811 C803 1.503 . S
C811 C810 1.370 . S
C811 C812 1.403 . S
C812 C811 1.403 . S
C812 C813 1.404 . S
C812 C815 1.539 . S
C813 C809 1.408 . S
C813 C812 1.404 . S
C813 H825 0.930 . S
C814 C810 1.524 . S
C814 H826 0.956 . S
C814 H827 0.961 . S
C814 H828 0.961 . S
C815 C812 1.539 . S
C815 H829 0.958 . S
C815 H830 0.961 . S
C815 H831 0.960 . S
H816 C800 0.931 . S
H817 C805 0.929 . S
H818 C806 0.960 . S
H819 C806 0.962 . S
H820 C806 0.960 . S
H821 C807 0.961 . S
H822 C807 0.961 . S
H823 C807 0.961 . S
H824 C808 0.931 . S
H825 C813 0.930 . S
H826 C814 0.956 . S
H827 C814 0.961 . S
H828 C814 0.961 . S
H829 C815 0.958 . S
H830 C815 0.961 . S
H831 C815 0.960 . S
C832 C833 1.391 . S
C832 C834 1.394 . S
C832 H848 0.931 . S
C833 C832 1.391 . S
C833 C837 1.376 . S
C834 C832 1.394 . S
C834 C835 1.369 . S
C834 C838 1.531 . S
C835 C834 1.369 . S
C835 C836 1.410 . S
C835 C843 1.503 . S
C836 C835 1.410 . S
C836 C837 1.392 . S
C836 C839 1.511 . S
C837 C833 1.376 . S
C837 C836 1.392 . S
C837 H849 0.929 . S
C838 C834 1.531 . S
C838 H850 0.960 . S
C838 H851 0.962 . S
C838 H852 0.960 . S
C839 C836 1.511 . S
C839 H853 0.961 . S
C839 H854 0.961 . S
C839 H855 0.961 . S
C840 C841 1.370 . S
C840 C842 1.363 . S
C840 H856 0.931 . S
C841 C840 1.370 . S
C841 C845 1.408 . S
C842 C840 1.363 . S
C842 C843 1.370 . S
C842 C846 1.524 . S
C843 C835 1.503 . S
C843 C842 1.370 . S
C843 C844 1.403 . S
C844 C843 1.403 . S
C844 C845 1.404 . S
C844 C847 1.539 . S
C845 C841 1.408 . S
C845 C844 1.404 . S
C845 H857 0.930 . S
C846 C842 1.524 . S
C846 H858 0.956 . S
C846 H859 0.961 . S
C846 H860 0.961 . S
C847 C844 1.539 . S
C847 H861 0.958 . S
C847 H862 0.961 . S
C847 H863 0.960 . S
H848 C832 0.931 . S
H849 C837 0.929 . S
H850 C838 0.960 . S
H851 C838 0.962 . S
H852 C838 0.960 . S
H853 C839 0.961 . S
H854 C839 0.961 . S
H855 C839 0.961 . S
H856 C840 0.931 . S
H857 C845 0.930 . S
H858 C846 0.956 . S
H859 C846 0.961 . S
H860 C846 0.961 . S
H861 C847 0.958 . S
H862 C847 0.961 . S
H863 C847 0.960 . S
C864 C865 1.391 . S
C864 C866 1.394 . S
C864 H880 0.931 . S
C865 C864 1.391 . S
C865 C869 1.376 . S
C866 C864 1.394 . S
C866 C867 1.369 . S
C866 C870 1.531 . S
C867 C866 1.369 . S
C867 C868 1.410 . S
C867 C875 1.503 . S
C868 C867 1.410 . S
C868 C869 1.392 . S
C868 C871 1.511 . S
C869 C865 1.376 . S
C869 C868 1.392 . S
C869 H881 0.929 . S
C870 C866 1.531 . S
C870 H882 0.960 . S
C870 H883 0.962 . S
C870 H884 0.960 . S
C871 C868 1.511 . S
C871 H885 0.961 . S
C871 H886 0.961 . S
C871 H887 0.961 . S
C872 C873 1.370 . S
C872 C874 1.363 . S
C872 H888 0.931 . S
C873 C872 1.370 . S
C873 C877 1.408 . S
C874 C872 1.363 . S
C874 C875 1.370 . S
C874 C878 1.524 . S
C875 C867 1.503 . S
C875 C874 1.370 . S
C875 C876 1.403 . S
C876 C875 1.403 . S
C876 C877 1.404 . S
C876 C879 1.539 . S
C877 C873 1.408 . S
C877 C876 1.404 . S
C877 H889 0.930 . S
C878 C874 1.524 . S
C878 H890 0.956 . S
C878 H891 0.961 . S
C878 H892 0.961 . S
C879 C876 1.539 . S
C879 H893 0.958 . S
C879 H894 0.961 . S
C879 H895 0.960 . S
H880 C864 0.931 . S
H881 C869 0.929 . S
H882 C870 0.960 . S
H883 C870 0.962 . S
H884 C870 0.960 . S
H885 C871 0.961 . S
H886 C871 0.961 . S
H887 C871 0.961 . S
H888 C872 0.931 . S
H889 C877 0.930 . S
H890 C878 0.956 . S
H891 C878 0.961 . S
H892 C878 0.961 . S
H893 C879 0.958 . S
H894 C879 0.961 . S
H895 C879 0.960 . S
C896 C897 1.391 . S
C896 C898 1.394 . S
C896 H912 0.931 . S
C897 C896 1.391 . S
C897 C901 1.376 . S
C898 C896 1.394 . S
C898 C899 1.369 . S
C898 C902 1.531 . S
C899 C898 1.369 . S
C899 C900 1.410 . S
C899 C907 1.503 . S
C900 C899 1.410 . S
C900 C901 1.392 . S
C900 C903 1.511 . S
C901 C897 1.376 . S
C901 C900 1.392 . S
C901 H913 0.929 . S
C902 C898 1.531 . S
C902 H914 0.960 . S
C902 H915 0.962 . S
C902 H916 0.960 . S
C903 C900 1.511 . S
C903 H917 0.961 . S
C903 H918 0.961 . S
C903 H919 0.961 . S
C904 C905 1.370 . S
C904 C906 1.363 . S
C904 H920 0.931 . S
C905 C904 1.370 . S
C905 C909 1.408 . S
C906 C904 1.363 . S
C906 C907 1.370 . S
C906 C910 1.524 . S
C907 C899 1.503 . S
C907 C906 1.370 . S
C907 C908 1.403 . S
C908 C907 1.403 . S
C908 C909 1.404 . S
C908 C911 1.539 . S
C909 C905 1.408 . S
C909 C908 1.404 . S
C909 H921 0.930 . S
C910 C906 1.524 . S
C910 H922 0.956 . S
C910 H923 0.961 . S
C910 H924 0.961 . S
C911 C908 1.539 . S
C911 H925 0.958 . S
C911 H926 0.961 . S
C911 H927 0.960 . S
H912 C896 0.931 . S
H913 C901 0.929 . S
H914 C902 0.960 . S
H915 C902 0.962 . S
H916 C902 0.960 . S
H917 C903 0.961 . S
H918 C903 0.961 . S
H919 C903 0.961 . S
H920 C904 0.931 . S
H921 C909 0.930 . S
H922 C910 0.956 . S
H923 C910 0.961 . S
H924 C910 0.961 . S
H925 C911 0.958 . S
H926 C911 0.961 . S
H927 C911 0.960 . S
C928 C929 1.391 . S
C928 C930 1.394 . S
C928 H944 0.931 . S
C929 C928 1.391 . S
C929 C933 1.376 . S
C930 C928 1.394 . S
C930 C931 1.369 . S
C930 C934 1.531 . S
C931 C930 1.369 . S
C931 C932 1.410 . S
C931 C939 1.503 . S
C932 C931 1.410 . S
C932 C933 1.392 . S
C932 C935 1.511 . S
C933 C929 1.376 . S
C933 C932 1.392 . S
C933 H945 0.929 . S
C934 C930 1.531 . S
C934 H946 0.960 . S
C934 H947 0.962 . S
C934 H948 0.960 . S
C935 C932 1.511 . S
C935 H949 0.961 . S
C935 H950 0.961 . S
C935 H951 0.961 . S
C936 C937 1.370 . S
C936 C938 1.363 . S
C936 H952 0.931 . S
C937 C936 1.370 . S
C937 C941 1.408 . S
C938 C936 1.363 . S
C938 C939 1.370 . S
C938 C942 1.524 . S
C939 C931 1.503 . S
C939 C938 1.370 . S
C939 C940 1.403 . S
C940 C939 1.403 . S
C940 C941 1.404 . S
C940 C943 1.539 . S
C941 C937 1.408 . S
C941 C940 1.404 . S
C941 H953 0.930 . S
C942 C938 1.524 . S
C942 H954 0.956 . S
C942 H955 0.961 . S
C942 H956 0.961 . S
C943 C940 1.539 . S
C943 H957 0.958 . S
C943 H958 0.961 . S
C943 H959 0.960 . S
H944 C928 0.931 . S
H945 C933 0.929 . S
H946 C934 0.960 . S
H947 C934 0.962 . S
H948 C934 0.960 . S
H949 C935 0.961 . S
H950 C935 0.961 . S
H951 C935 0.961 . S
H952 C936 0.931 . S
H953 C941 0.930 . S
H954 C942 0.956 . S
H955 C942 0.961 . S
H956 C942 0.961 . S
H957 C943 0.958 . S
H958 C943 0.961 . S
H959 C943 0.960 . S
C960 C961 1.391 . S
C960 C962 1.394 . S
C960 H976 0.931 . S
C961 C960 1.391 . S
C961 C965 1.376 . S
C962 C960 1.394 . S
C962 C963 1.369 . S
C962 C966 1.531 . S
C963 C962 1.369 . S
C963 C964 1.410 . S
C963 C971 1.503 . S
C964 C963 1.410 . S
C964 C965 1.392 . S
C964 C967 1.511 . S
C965 C961 1.376 . S
C965 C964 1.392 . S
C965 H977 0.929 . S
C966 C962 1.531 . S
C966 H978 0.960 . S
C966 H979 0.962 . S
C966 H980 0.960 . S
C967 C964 1.511 . S
C967 H981 0.961 . S
C967 H982 0.961 . S
C967 H983 0.961 . S
C968 C969 1.370 . S
C968 C970 1.363 . S
C968 H984 0.931 . S
C969 C968 1.370 . S
C969 C973 1.408 . S
C970 C968 1.363 . S
C970 C971 1.370 . S
C970 C974 1.524 . S
C971 C963 1.503 . S
C971 C970 1.370 . S
C971 C972 1.403 . S
C972 C971 1.403 . S
C972 C973 1.404 . S
C972 C975 1.539 . S
C973 C969 1.408 . S
C973 C972 1.404 . S
C973 H985 0.930 . S
C974 C970 1.524 . S
C974 H986 0.956 . S
C974 H987 0.961 . S
C974 H988 0.961 . S
C975 C972 1.539 . S
C975 H989 0.958 . S
C975 H990 0.961 . S
C975 H991 0.960 . S
H976 C960 0.931 . S
H977 C965 0.929 . S
H978 C966 0.960 . S
H979 C966 0.962 . S
H980 C966 0.960 . S
H981 C967 0.961 . S
H982 C967 0.961 . S
H983 C967 0.961 . S
H984 C968 0.931 . S
H985 C973 0.930 . S
H986 C974 0.956 . S
H987 C974 0.961 . S
H988 C974 0.961 . S
H989 C975 0.958 . S
H990 C975 0.961 . S
H991 C975 0.960 . S
C992 C993 1.391 . S
C992 C994 1.394 . S
C992 H1008 0.931 . S
C993 C992 1.391 . S
C993 C997 1.376 . S
C994 C992 1.394 . S
C994 C995 1.369 . S
C994 C998 1.531 . S
C995 C994 1.369 . S
C995 C996 1.410 . S
C995 C1003 1.503 . S
C996 C995 1.410 . S
C996 C997 1.392 . S
C996 C999 1.511 . S
C997 C993 1.376 . S
C997 C996 1.392 . S
C997 H1009 0.929 . S
C998 C994 1.531 . S
C998 H1010 0.960 . S
C998 H1011 0.962 . S
C998 H1012 0.960 . S
C999 C996 1.511 . S
C999 H1013 0.961 . S
C999 H1014 0.961 . S
C999 H1015 0.961 . S
C1000 C1001 1.370 . S
C1000 C1002 1.363 . S
C1000 H1016 0.931 . S
C1001 C1000 1.370 . S
C1001 C1005 1.408 . S
C1002 C1000 1.363 . S
C1002 C1003 1.370 . S
C1002 C1006 1.524 . S
C1003 C995 1.503 . S
C1003 C1002 1.370 . S
C1003 C1004 1.403 . S
C1004 C1003 1.403 . S
C1004 C1005 1.404 . S
C1004 C1007 1.539 . S
C1005 C1001 1.408 . S
C1005 C1004 1.404 . S
C1005 H1017 0.930 . S
C1006 C1002 1.524 . S
C1006 H1018 0.956 . S
C1006 H1019 0.961 . S
C1006 H1020 0.961 . S
C1007 C1004 1.539 . S
C1007 H1021 0.958 . S
C1007 H1022 0.961 . S
C1007 H1023 0.960 . S
H1008 C992 0.931 . S
H1009 C997 0.929 . S
H1010 C998 0.960 . S
H1011 C998 0.962 . S
H1012 C998 0.960 . S
H1013 C999 0.961 . S
H1014 C999 0.961 . S
H1015 C999 0.961 . S
H1016 C1000 0.931 . S
H1017 C1005 0.930 . S
H1018 C1006 0.956 . S
H1019 C1006 0.961 . S
H1020 C1006 0.961 . S
H1021 C1007 0.958 . S
H1022 C1007 0.961 . S
H1023 C1007 0.960 . S
C1024 C1025 1.391 . S
C1024 C1026 1.394 . S
C1024 H1040 0.931 . S
C1025 C1024 1.391 . S
C1025 C1029 1.376 . S
C1026 C1024 1.394 . S
C1026 C1027 1.369 . S
C1026 C1030 1.531 . S
C1027 C1026 1.369 . S
C1027 C1028 1.410 . S
C1027 C1035 1.503 . S
C1028 C1027 1.410 . S
C1028 C1029 1.392 . S
C1028 C1031 1.511 . S
C1029 C1025 1.376 . S
C1029 C1028 1.392 . S
C1029 H1041 0.929 . S
C1030 C1026 1.531 . S
C1030 H1042 0.960 . S
C1030 H1043 0.962 . S
C1030 H1044 0.960 . S
C1031 C1028 1.511 . S
C1031 H1045 0.961 . S
C1031 H1046 0.961 . S
C1031 H1047 0.961 . S
C1032 C1033 1.370 . S
C1032 C1034 1.363 . S
C1032 H1048 0.931 . S
C1033 C1032 1.370 . S
C1033 C1037 1.408 . S
C1034 C1032 1.363 . S
C1034 C1035 1.370 . S
C1034 C1038 1.524 . S
C1035 C1027 1.503 . S
C1035 C1034 1.370 . S
C1035 C1036 1.403 . S
C1036 C1035 1.403 . S
C1036 C1037 1.404 . S
C1036 C1039 1.539 . S
C1037 C1033 1.408 . S
C1037 C1036 1.404 . S
C1037 H1049 0.930 . S
C1038 C1034 1.524 . S
C1038 H1050 0.956 . S
C1038 H1051 0.961 . S
C1038 H1052 0.961 . S
C1039 C1036 1.539 . S
C1039 H1053 0.958 . S
C1039 H1054 0.961 . S
C1039 H1055 0.960 . S
H1040 C1024 0.931 . S
H1041 C1029 0.929 . S
H1042 C1030 0.960 . S
H1043 C1030 0.962 . S
H1044 C1030 0.960 . S
H1045 C1031 0.961 . S
H1046 C1031 0.961 . S
H1047 C1031 0.961 . S
H1048 C1032 0.931 . S
H1049 C1037 0.930 . S
H1050 C1038 0.956 . S
H1051 C1038 0.961 . S
H1052 C1038 0.961 . S
H1053 C1039 0.958 . S
H1054 C1039 0.961 . S
H1055 C1039 0.960 . S
C1056 C1057 1.391 . S
C1056 C1058 1.394 . S
C1056 H1072 0.931 . S
C1057 C1056 1.391 . S
C1057 C1061 1.376 . S
C1058 C1056 1.394 . S
C1058 C1059 1.369 . S
C1058 C1062 1.531 . S
C1059 C1058 1.369 . S
C1059 C1060 1.410 . S
C1059 C1067 1.503 . S
C1060 C1059 1.410 . S
C1060 C1061 1.392 . S
C1060 C1063 1.511 . S
C1061 C1057 1.376 . S
C1061 C1060 1.392 . S
C1061 H1073 0.929 . S
C1062 C1058 1.531 . S
C1062 H1074 0.960 . S
C1062 H1075 0.962 . S
C1062 H1076 0.960 . S
C1063 C1060 1.511 . S
C1063 H1077 0.961 . S
C1063 H1078 0.961 . S
C1063 H1079 0.961 . S
C1064 C1065 1.370 . S
C1064 C1066 1.363 . S
C1064 H1080 0.931 . S
C1065 C1064 1.370 . S
C1065 C1069 1.408 . S
C1066 C1064 1.363 . S
C1066 C1067 1.370 . S
C1066 C1070 1.524 . S
C1067 C1059 1.503 . S
C1067 C1066 1.370 . S
C1067 C1068 1.403 . S
C1068 C1067 1.403 . S
C1068 C1069 1.404 . S
C1068 C1071 1.539 . S
C1069 C1065 1.408 . S
C1069 C1068 1.404 . S
C1069 H1081 0.930 . S
C1070 C1066 1.524 . S
C1070 H1082 0.956 . S
C1070 H1083 0.961 . S
C1070 H1084 0.961 . S
C1071 C1068 1.539 . S
C1071 H1085 0.958 . S
C1071 H1086 0.961 . S
C1071 H1087 0.960 . S
H1072 C1056 0.931 . S
H1073 C1061 0.929 . S
H1074 C1062 0.960 . S
H1075 C1062 0.962 . S
H1076 C1062 0.960 . S
H1077 C1063 0.961 . S
H1078 C1063 0.961 . S
H1079 C1063 0.961 . S
H1080 C1064 0.931 . S
H1081 C1069 0.930 . S
H1082 C1070 0.956 . S
H1083 C1070 0.961 . S
H1084 C1070 0.961 . S
H1085 C1071 0.958 . S
H1086 C1071 0.961 . S
H1087 C1071 0.960 . S
C1088 C1089 1.391 . S
C1088 C1090 1.394 . S
C1088 H1104 0.931 . S
C1089 C1088 1.391 . S
C1089 C1093 1.376 . S
C1090 C1088 1.394 . S
C1090 C1091 1.369 . S
C1090 C1094 1.531 . S
C1091 C1090 1.369 . S
C1091 C1092 1.410 . S
C1091 C1099 1.503 . S
C1092 C1091 1.410 . S
C1092 C1093 1.392 . S
C1092 C1095 1.511 . S
C1093 C1089 1.376 . S
C1093 C1092 1.392 . S
C1093 H1105 0.929 . S
C1094 C1090 1.531 . S
C1094 H1106 0.960 . S
C1094 H1107 0.962 . S
C1094 H1108 0.960 . S
C1095 C1092 1.511 . S
C1095 H1109 0.961 . S
C1095 H1110 0.961 . S
C1095 H1111 0.961 . S
C1096 C1097 1.370 . S
C1096 C1098 1.363 . S
C1096 H1112 0.931 . S
C1097 C1096 1.370 . S
C1097 C1101 1.408 . S
C1098 C1096 1.363 . S
C1098 C1099 1.370 . S
C1098 C1102 1.524 . S
C1099 C1091 1.503 . S
C1099 C1098 1.370 . S
C1099 C1100 1.403 . S
C1100 C1099 1.403 . S
C1100 C1101 1.404 . S
C1100 C1103 1.539 . S
C1101 C1097 1.408 . S
C1101 C1100 1.404 . S
C1101 H1113 0.930 . S
C1102 C1098 1.524 . S
C1102 H1114 0.956 . S
C1102 H1115 0.961 . S
C1102 H1116 0.961 . S
C1103 C1100 1.539 . S
C1103 H1117 0.958 . S
C1103 H1118 0.961 . S
C1103 H1119 0.960 . S
H1104 C1088 0.931 . S
H1105 C1093 0.929 . S
H1106 C1094 0.960 . S
H1107 C1094 0.962 . S
H1108 C1094 0.960 . S
H1109 C1095 0.961 . S
H1110 C1095 0.961 . S
H1111 C1095 0.961 . S
H1112 C1096 0.931 . S
H1113 C1101 0.930 . S
H1114 C1102 0.956 . S
H1115 C1102 0.961 . S
H1116 C1102 0.961 . S
H1117 C1103 0.958 . S
H1118 C1103 0.961 . S
H1119 C1103 0.960 . S
C1120 C1121 1.391 . S
C1120 C1122 1.394 . S
C1120 H1136 0.931 . S
C1121 C1120 1.391 . S
C1121 C1125 1.376 . S
C1122 C1120 1.394 . S
C1122 C1123 1.369 . S
C1122 C1126 1.531 . S
C1123 C1122 1.369 . S
C1123 C1124 1.410 . S
C1123 C1131 1.503 . S
C1124 C1123 1.410 . S
C1124 C1125 1.392 . S
C1124 C1127 1.511 . S
C1125 C1121 1.376 . S
C1125 C1124 1.392 . S
C1125 H1137 0.929 . S
C1126 C1122 1.531 . S
C1126 H1138 0.960 . S
C1126 H1139 0.962 . S
C1126 H1140 0.960 . S
C1127 C1124 1.511 . S
C1127 H1141 0.961 . S
C1127 H1142 0.961 . S
C1127 H1143 0.961 . S
C1128 C1129 1.370 . S
C1128 C1130 1.363 . S
C1128 H1144 0.931 . S
C1129 C1128 1.370 . S
C1129 C1133 1.408 . S
C1130 C1128 1.363 . S
C1130 C1131 1.370 . S
C1130 C1134 1.524 . S
C1131 C1123 1.503 . S
C1131 C1130 1.370 . S
C1131 C1132 1.403 . S
C1132 C1131 1.403 . S
C1132 C1133 1.404 . S
C1132 C1135 1.539 . S
C1133 C1129 1.408 . S
C1133 C1132 1.404 . S
C1133 H1145 0.930 . S
C1134 C1130 1.524 . S
C1134 H1146 0.956 . S
C1134 H1147 0.961 . S
C1134 H1148 0.961 . S
C1135 C1132 1.539 . S
C1135 H1149 0.958 . S
C1135 H1150 0.961 . S
C1135 H1151 0.960 . S
H1136 C1120 0.931 . S
H1137 C1125 0.929 . S
H1138 C1126 0.960 . S
H1139 C1126 0.962 . S
H1140 C1126 0.960 . S
H1141 C1127 0.961 . S
H1142 C1127 0.961 . S
H1143 C1127 0.961 . S
H1144 C1128 0.931 . S
H1145 C1133 0.930 . S
H1146 C1134 0.956 . S
H1147 C1134 0.961 . S
H1148 C1134 0.961 . S
H1149 C1135 0.958 . S
H1150 C1135 0.961 . S
H1151 C1135 0.960 . S
C1152 C1153 1.391 . S
C1152 C1154 1.394 . S
C1152 H1168 0.931 . S
C1153 C1152 1.391 . S
C1153 C1157 1.376 . S
C1154 C1152 1.394 . S
C1154 C1155 1.369 . S
C1154 C1158 1.531 . S
C1155 C1154 1.369 . S
C1155 C1156 1.410 . S
C1155 C1163 1.503 . S
C1156 C1155 1.410 . S
C1156 C1157 1.392 . S
C1156 C1159 1.511 . S
C1157 C1153 1.376 . S
C1157 C1156 1.392 . S
C1157 H1169 0.929 . S
C1158 C1154 1.531 . S
C1158 H1170 0.960 . S
C1158 H1171 0.962 . S
C1158 H1172 0.960 . S
C1159 C1156 1.511 . S
C1159 H1173 0.961 . S
C1159 H1174 0.961 . S
C1159 H1175 0.961 . S
C1160 C1161 1.370 . S
C1160 C1162 1.363 . S
C1160 H1176 0.931 . S
C1161 C1160 1.370 . S
C1161 C1165 1.408 . S
C1162 C1160 1.363 . S
C1162 C1163 1.370 . S
C1162 C1166 1.524 . S
C1163 C1155 1.503 . S
C1163 C1162 1.370 . S
C1163 C1164 1.403 . S
C1164 C1163 1.403 . S
C1164 C1165 1.404 . S
C1164 C1167 1.539 . S
C1165 C1161 1.408 . S
C1165 C1164 1.404 . S
C1165 H1177 0.930 . S
C1166 C1162 1.524 . S
C1166 H1178 0.956 . S
C1166 H1179 0.961 . S
C1166 H1180 0.961 . S
C1167 C1164 1.539 . S
C1167 H1181 0.958 . S
C1167 H1182 0.961 . S
C1167 H1183 0.960 . S
H1168 C1152 0.931 . S
H1169 C1157 0.929 . S
H1170 C1158 0.960 . S
H1171 C1158 0.962 . S
H1172 C1158 0.960 . S
H1173 C1159 0.961 . S
H1174 C1159 0.961 . S
H1175 C1159 0.961 . S
H1176 C1160 0.931 . S
H1177 C1165 0.930 . S
H1178 C1166 0.956 . S
H1179 C1166 0.961 . S
H1180 C1166 0.961 . S
H1181 C1167 0.958 . S
H1182 C1167 0.961 . S
H1183 C1167 0.960 . S
C1184 C1185 1.391 . S
C1184 C1186 1.394 . S
C1184 H1200 0.931 . S
C1185 C1184 1.391 . S
C1185 C1189 1.376 . S
C1186 C1184 1.394 . S
C1186 C1187 1.369 . S
C1186 C1190 1.531 . S
C1187 C1186 1.369 . S
C1187 C1188 1.410 . S
C1187 C1195 1.503 . S
C1188 C1187 1.410 . S
C1188 C1189 1.392 . S
C1188 C1191 1.511 . S
C1189 C1185 1.376 . S
C1189 C1188 1.392 . S
C1189 H1201 0.929 . S
C1190 C1186 1.531 . S
C1190 H1202 0.960 . S
C1190 H1203 0.962 . S
C1190 H1204 0.960 . S
C1191 C1188 1.511 . S
C1191 H1205 0.961 . S
C1191 H1206 0.961 . S
C1191 H1207 0.961 . S
C1192 C1193 1.370 . S
C1192 C1194 1.363 . S
C1192 H1208 0.931 . S
C1193 C1192 1.370 . S
C1193 C1197 1.408 . S
C1194 C1192 1.363 . S
C1194 C1195 1.370 . S
C1194 C1198 1.524 . S
C1195 C1187 1.503 . S
C1195 C1194 1.370 . S
C1195 C1196 1.403 . S
C1196 C1195 1.403 . S
C1196 C1197 1.404 . S
C1196 C1199 1.539 . S
C1197 C1193 1.408 . S
C1197 C1196 1.404 . S
C1197 H1209 0.930 . S
C1198 C1194 1.524 . S
C1198 H1210 0.956 . S
C1198 H1211 0.961 . S
C1198 H1212 0.961 . S
C1199 C1196 1.539 . S
C1199 H1213 0.958 . S
C1199 H1214 0.961 . S
C1199 H1215 0.960 . S
H1200 C1184 0.931 . S
H1201 C1189 0.929 . S
H1202 C1190 0.960 . S
H1203 C1190 0.962 . S
H1204 C1190 0.960 . S
H1205 C1191 0.961 . S
H1206 C1191 0.961 . S
H1207 C1191 0.961 . S
H1208 C1192 0.931 . S
H1209 C1197 0.930 . S
H1210 C1198 0.956 . S
H1211 C1198 0.961 . S
H1212 C1198 0.961 . S
H1213 C1199 0.958 . S
H1214 C1199 0.961 . S
H1215 C1199 0.960 . S
C1216 C1217 1.391 . S
C1216 C1218 1.394 . S
C1216 H1232 0.931 . S
C1217 C1216 1.391 . S
C1217 C1221 1.376 . S
C1218 C1216 1.394 . S
C1218 C1219 1.369 . S
C1218 C1222 1.531 . S
C1219 C1218 1.369 . S
C1219 C1220 1.410 . S
C1219 C1227 1.503 . S
C1220 C1219 1.410 . S
C1220 C1221 1.392 . S
C1220 C1223 1.511 . S
C1221 C1217 1.376 . S
C1221 C1220 1.392 . S
C1221 H1233 0.929 . S
C1222 C1218 1.531 . S
C1222 H1234 0.960 . S
C1222 H1235 0.962 . S
C1222 H1236 0.960 . S
C1223 C1220 1.511 . S
C1223 H1237 0.961 . S
C1223 H1238 0.961 . S
C1223 H1239 0.961 . S
C1224 C1225 1.370 . S
C1224 C1226 1.363 . S
C1224 H1240 0.931 . S
C1225 C1224 1.370 . S
C1225 C1229 1.408 . S
C1226 C1224 1.363 . S
C1226 C1227 1.370 . S
C1226 C1230 1.524 . S
C1227 C1219 1.503 . S
C1227 C1226 1.370 . S
C1227 C1228 1.403 . S
C1228 C1227 1.403 . S
C1228 C1229 1.404 . S
C1228 C1231 1.539 . S
C1229 C1225 1.408 . S
C1229 C1228 1.404 . S
C1229 H1241 0.930 . S
C1230 C1226 1.524 . S
C1230 H1242 0.956 . S
C1230 H1243 0.961 . S
C1230 H1244 0.961 . S
C1231 C1228 1.539 . S
C1231 H1245 0.958 . S
C1231 H1246 0.961 . S
C1231 H1247 0.960 . S
H1232 C1216 0.931 . S
H1233 C1221 0.929 . S
H1234 C1222 0.960 . S
H1235 C1222 0.962 . S
H1236 C1222 0.960 . S
H1237 C1223 0.961 . S
H1238 C1223 0.961 . S
H1239 C1223 0.961 . S
H1240 C1224 0.931 . S
H1241 C1229 0.930 . S
H1242 C1230 0.956 . S
H1243 C1230 0.961 . S
H1244 C1230 0.961 . S
H1245 C1231 0.958 . S
H1246 C1231 0.961 . S
H1247 C1231 0.960 . S
C1248 C1249 1.391 . S
C1248 C1250 1.394 . S
C1248 H1264 0.931 . S
C1249 C1248 1.391 . S
C1249 C1253 1.376 . S
C1250 C1248 1.394 . S
C1250 C1251 1.369 . S
C1250 C1254 1.531 . S
C1251 C1250 1.369 . S
C1251 C1252 1.410 . S
C1251 C1259 1.503 . S
C1252 C1251 1.410 . S
C1252 C1253 1.392 . S
C1252 C1255 1.511 . S
C1253 C1249 1.376 . S
C1253 C1252 1.392 . S
C1253 H1265 0.929 . S
C1254 C1250 1.531 . S
C1254 H1266 0.960 . S
C1254 H1267 0.962 . S
C1254 H1268 0.960 . S
C1255 C1252 1.511 . S
C1255 H1269 0.961 . S
C1255 H1270 0.961 . S
C1255 H1271 0.961 . S
C1256 C1257 1.370 . S
C1256 C1258 1.363 . S
C1256 H1272 0.931 . S
C1257 C1256 1.370 . S
C1257 C1261 1.408 . S
C1258 C1256 1.363 . S
C1258 C1259 1.370 . S
C1258 C1262 1.524 . S
C1259 C1251 1.503 . S
C1259 C1258 1.370 . S
C1259 C1260 1.403 . S
C1260 C1259 1.403 . S
C1260 C1261 1.404 . S
C1260 C1263 1.539 . S
C1261 C1257 1.408 . S
C1261 C1260 1.404 . S
C1261 H1273 0.930 . S
C1262 C1258 1.524 . S
C1262 H1274 0.956 . S
C1262 H1275 0.961 . S
C1262 H1276 0.961 . S
C1263 C1260 1.539 . S
C1263 H1277 0.958 . S
C1263 H1278 0.961 . S
C1263 H1279 0.960 . S
H1264 C1248 0.931 . S
H1265 C1253 0.929 . S
H1266 C1254 0.960 . S
H1267 C1254 0.962 . S
H1268 C1254 0.960 . S
H1269 C1255 0.961 . S
H1270 C1255 0.961 . S
H1271 C1255 0.961 . S
H1272 C1256 0.931 . S
H1273 C1261 0.930 . S
H1274 C1262 0.956 . S
H1275 C1262 0.961 . S
H1276 C1262 0.961 . S
H1277 C1263 0.958 . S
H1278 C1263 0.961 . S
H1279 C1263 0.960 . S
C1280 C1281 1.391 . S
C1280 C1282 1.394 . S
C1280 H1296 0.931 . S
C1281 C1280 1.391 . S
C1281 C1285 1.376 . S
C1282 C1280 1.394 . S
C1282 C1283 1.369 . S
C1282 C1286 1.531 . S
C1283 C1282 1.369 . S
C1283 C1284 1.410 . S
C1283 C1291 1.503 . S
C1284 C1283 1.410 . S
C1284 C1285 1.392 . S
C1284 C1287 1.511 . S
C1285 C1281 1.376 . S
C1285 C1284 1.392 . S
C1285 H1297 0.929 . S
C1286 C1282 1.531 . S
C1286 H1298 0.960 . S
C1286 H1299 0.962 . S
C1286 H1300 0.960 . S
C1287 C1284 1.511 . S
C1287 H1301 0.961 . S
C1287 H1302 0.961 . S
C1287 H1303 0.961 . S
C1288 C1289 1.370 . S
C1288 C1290 1.363 . S
C1288 H1304 0.931 . S
C1289 C1288 1.370 . S
C1289 C1293 1.408 . S
C1290 C1288 1.363 . S
C1290 C1291 1.370 . S
C1290 C1294 1.524 . S
C1291 C1283 1.503 . S
C1291 C1290 1.370 . S
C1291 C1292 1.403 . S
C1292 C1291 1.403 . S
C1292 C1293 1.404 . S
C1292 C1295 1.539 . S
C1293 C1289 1.408 . S
C1293 C1292 1.404 . S
C1293 H1305 0.930 . S
C1294 C1290 1.524 . S
C1294 H1306 0.956 . S
C1294 H1307 0.961 . S
C1294 H1308 0.961 . S
C1295 C1292 1.539 . S
C1295 H1309 0.958 . S
C1295 H1310 0.961 . S
C1295 H1311 0.960 . S
H1296 C1280 0.931 . S
H1297 C1285 0.929 . S
H1298 C1286 0.960 . S
H1299 C1286 0.962 . S
H1300 C1286 0.960 . S
H1301 C1287 0.961 . S
H1302 C1287 0.961 . S
H1303 C1287 0.961 . S
H1304 C1288 0.931 . S
H1305 C1293 0.930 . S
H1306 C1294 0.956 . S
H1307 C1294 0.961 . S
H1308 C1294 0.961 . S
H1309 C1295 0.958 . S
H1310 C1295 0.961 . S
H1311 C1295 0.960 . S
C1312 C1313 1.391 . S
C1312 C1314 1.394 . S
C1312 H1328 0.931 . S
C1313 C1312 1.391 . S
C1313 C1317 1.376 . S
C1314 C1312 1.394 . S
C1314 C1315 1.369 . S
C1314 C1318 1.531 . S
C1315 C1314 1.369 . S
C1315 C1316 1.410 . S
C1315 C1323 1.503 . S
C1316 C1315 1.410 . S
C1316 C1317 1.392 . S
C1316 C1319 1.511 . S
C1317 C1313 1.376 . S
C1317 C1316 1.392 . S
C1317 H1329 0.929 . S
C1318 C1314 1.531 . S
C1318 H1330 0.960 . S
C1318 H1331 0.962 . S
C1318 H1332 0.960 . S
C1319 C1316 1.511 . S
C1319 H1333 0.961 . S
C1319 H1334 0.961 . S
C1319 H1335 0.961 . S
C1320 C1321 1.370 . S
C1320 C1322 1.363 . S
C1320 H1336 0.931 . S
C1321 C1320 1.370 . S
C1321 C1325 1.408 . S
C1322 C1320 1.363 . S
C1322 C1323 1.370 . S
C1322 C1326 1.524 . S
C1323 C1315 1.503 . S
C1323 C1322 1.370 . S
C1323 C1324 1.403 . S
C1324 C1323 1.403 . S
C1324 C1325 1.404 . S
C1324 C1327 1.539 . S
C1325 C1321 1.408 . S
C1325 C1324 1.404 . S
C1325 H1337 0.930 . S
C1326 C1322 1.524 . S
C1326 H1338 0.956 . S
C1326 H1339 0.961 . S
C1326 H1340 0.961 . S
C1327 C1324 1.539 . S
C1327 H1341 0.958 . S
C1327 H1342 0.961 . S
C1327 H1343 0.960 . S
H1328 C1312 0.931 . S
H1329 C1317 0.929 . S
H1330 C1318 0.960 . S
H1331 C1318 0.962 . S
H1332 C1318 0.960 . S
H1333 C1319 0.961 . S
H1334 C1319 0.961 . S
H1335 C1319 0.961 . S
H1336 C1320 0.931 . S
H1337 C1325 0.930 . S
H1338 C1326 0.956 . S
H1339 C1326 0.961 . S
H1340 C1326 0.961 . S
H1341 C1327 0.958 . S
H1342 C1327 0.961 . S
H1343 C1327 0.960 . S
C1344 C1345 1.391 . S
C1344 C1346 1.394 . S
C1344 H1360 0.931 . S
C1345 C1344 1.391 . S
C1345 C1349 1.376 . S
C1346 C1344 1.394 . S
C1346 C1347 1.369 . S
C1346 C1350 1.531 . S
C1347 C1346 1.369 . S
C1347 C1348 1.410 . S
C1347 C1355 1.503 . S
C1348 C1347 1.410 . S
C1348 C1349 1.392 . S
C1348 C1351 1.511 . S
C1349 C1345 1.376 . S
C1349 C1348 1.392 . S
C1349 H1361 0.929 . S
C1350 C1346 1.531 . S
C1350 H1362 0.960 . S
C1350 H1363 0.962 . S
C1350 H1364 0.960 . S
C1351 C1348 1.511 . S
C1351 H1365 0.961 . S
C1351 H1366 0.961 . S
C1351 H1367 0.961 . S
C1352 C1353 1.370 . S
C1352 C1354 1.363 . S
C1352 H1368 0.931 . S
C1353 C1352 1.370 . S
C1353 C1357 1.408 . S
C1354 C1352 1.363 . S
C1354 C1355 1.370 . S
C1354 C1358 1.524 . S
C1355 C1347 1.503 . S
C1355 C1354 1.370 . S
C1355 C1356 1.403 . S
C1356 C1355 1.403 . S
C1356 C1357 1.404 . S
C1356 C1359 1.539 . S
C1357 C1353 1.408 . S
C1357 C1356 1.404 . S
C1357 H1369 0.930 . S
C1358 C1354 1.524 . S
C1358 H1370 0.956 . S
C1358 H1371 0.961 . S
C1358 H1372 0.961 . S
C1359 C1356 1.539 . S
C1359 H1373 0.958 . S
C1359 H1374 0.961 . S
C1359 H1375 0.960 . S
H1360 C1344 0.931 . S
H1361 C1349 0.929 . S
H1362 C1350 0.960 . S
H1363 C1350 0.962 . S
H1364 C1350 0.960 . S
H1365 C1351 0.961 . S
H1366 C1351 0.961 . S
H1367 C1351 0.961 . S
H1368 C1352 0.931 . S
H1369 C1357 0.930 . S
H1370 C1358 0.956 . S
H1371 C1358 0.961 . S
H1372 C1358 0.961 . S
H1373 C1359 0.958 . S
H1374 C1359 0.961 . S
H1375 C1359 0.960 . S
C1376 C1377 1.391 . S
C1376 C1378 1.394 . S
C1376 H1392 0.931 . S
C1377 C1376 1.391 . S
C1377 C1381 1.376 . S
C1378 C1376 1.394 . S
C1378 C1379 1.369 . S
C1378 C1382 1.531 . S
C1379 C1378 1.369 . S
C1379 C1380 1.410 . S
C1379 C1387 1.503 . S
C1380 C1379 1.410 . S
C1380 C1381 1.392 . S
C1380 C1383 1.511 . S
C1381 C1377 1.376 . S
C1381 C1380 1.392 . S
C1381 H1393 0.929 . S
C1382 C1378 1.531 . S
C1382 H1394 0.960 . S
C1382 H1395 0.962 . S
C1382 H1396 0.960 . S
C1383 C1380 1.511 . S
C1383 H1397 0.961 . S
C1383 H1398 0.961 . S
C1383 H1399 0.961 . S
C1384 C1385 1.370 . S
C1384 C1386 1.363 . S
C1384 H1400 0.931 . S
C1385 C1384 1.370 . S
C1385 C1389 1.408 . S
C1386 C1384 1.363 . S
C1386 C1387 1.370 . S
C1386 C1390 1.524 . S
C1387 C1379 1.503 . S
C1387 C1386 1.370 . S
C1387 C1388 1.403 . S
C1388 C1387 1.403 . S
C1388 C1389 1.404 . S
C1388 C1391 1.539 . S
C1389 C1385 1.408 . S
C1389 C1388 1.404 . S
C1389 H1401 0.930 . S
C1390 C1386 1.524 . S
C1390 H1402 0.956 . S
C1390 H1403 0.961 . S
C1390 H1404 0.961 . S
C1391 C1388 1.539 . S
C1391 H1405 0.958 . S
C1391 H1406 0.961 . S
C1391 H1407 0.960 . S
H1392 C1376 0.931 . S
H1393 C1381 0.929 . S
H1394 C1382 0.960 . S
H1395 C1382 0.962 . S
H1396 C1382 0.960 . S
H1397 C1383 0.961 . S
H1398 C1383 0.961 . S
H1399 C1383 0.961 . S
H1400 C1384 0.931 . S
H1401 C1389 0.930 . S
H1402 C1390 0.956 . S
H1403 C1390 0.961 . S
H1404 C1390 0.961 . S
H1405 C1391 0.958 . S
H1406 C1391 0.961 . S
H1407 C1391 0.960 . S
C1408 C1409 1.391 . S
C1408 C1410 1.394 . S
C1408 H1424 0.931 . S
C1409 C1408 1.391 . S
C1409 C1413 1.376 . S
C1410 C1408 1.394 . S
C1410 C1411 1.369 . S
C1410 C1414 1.531 . S
C1411 C1410 1.369 . S
C1411 C1412 1.410 . S
C1411 C1419 1.503 . S
C1412 C1411 1.410 . S
C1412 C1413 1.392 . S
C1412 C1415 1.511 . S
C1413 C1409 1.376 . S
C1413 C1412 1.392 . S
C1413 H1425 0.929 . S
C1414 C1410 1.531 . S
C1414 H1426 0.960 . S
C1414 H1427 0.962 . S
C1414 H1428 0.960 . S
C1415 C1412 1.511 . S
C1415 H1429 0.961 . S
C1415 H1430 0.961 . S
C1415 H1431 0.961 . S
C1416 C1417 1.370 . S
C1416 C1418 1.363 . S
C1416 H1432 0.931 . S
C1417 C1416 1.370 . S
C1417 C1421 1.408 . S
C1418 C1416 1.363 . S
C1418 C1419 1.370 . S
C1418 C1422 1.524 . S
C1419 C1411 1.503 . S
C1419 C1418 1.370 . S
C1419 C1420 1.403 . S
C1420 C1419 1.403 . S
C1420 C1421 1.404 . S
C1420 C1423 1.539 . S
C1421 C1417 1.408 . S
C1421 C1420 1.404 . S
C1421 H1433 0.930 . S
C1422 C1418 1.524 . S
C1422 H1434 0.956 . S
C1422 H1435 0.961 . S
C1422 H1436 0.961 . S
C1423 C1420 1.539 . S
C1423 H1437 0.958 . S
C1423 H1438 0.961 . S
C1423 H1439 0.960 . S
H1424 C1408 0.931 . S
H1425 C1413 0.929 . S
H1426 C1414 0.960 . S
H1427 C1414 0.962 . S
H1428 C1414 0.960 . S
H1429 C1415 0.961 . S
H1430 C1415 0.961 . S
H1431 C1415 0.961 . S
H1432 C1416 0.931 . S
H1433 C1421 0.930 . S
H1434 C1422 0.956 . S
H1435 C1422 0.961 . S
H1436 C1422 0.961 . S
H1437 C1423 0.958 . S
H1438 C1423 0.961 . S
H1439 C1423 0.960 . S
C1440 C1441 1.391 . S
C1440 C1442 1.394 . S
C1440 H1456 0.931 . S
C1441 C1440 1.391 . S
C1441 C1445 1.376 . S
C1442 C1440 1.394 . S
C1442 C1443 1.369 . S
C1442 C1446 1.531 . S
C1443 C1442 1.369 . S
C1443 C1444 1.410 . S
C1443 C1451 1.503 . S
C1444 C1443 1.410 . S
C1444 C1445 1.392 . S
C1444 C1447 1.511 . S
C1445 C1441 1.376 . S
C1445 C1444 1.392 . S
C1445 H1457 0.929 . S
C1446 C1442 1.531 . S
C1446 H1458 0.960 . S
C1446 H1459 0.962 . S
C1446 H1460 0.960 . S
C1447 C1444 1.511 . S
C1447 H1461 0.961 . S
C1447 H1462 0.961 . S
C1447 H1463 0.961 . S
C1448 C1449 1.370 . S
C1448 C1450 1.363 . S
C1448 H1464 0.931 . S
C1449 C1448 1.370 . S
C1449 C1453 1.408 . S
C1450 C1448 1.363 . S
C1450 C1451 1.370 . S
C1450 C1454 1.524 . S
C1451 C1443 1.503 . S
C1451 C1450 1.370 . S
C1451 C1452 1.403 . S
C1452 C1451 1.403 . S
C1452 C1453 1.404 . S
C1452 C1455 1.539 . S
C1453 C1449 1.408 . S
C1453 C1452 1.404 . S
C1453 H1465 0.930 . S
C1454 C1450 1.524 . S
C1454 H1466 0.956 . S
C1454 H1467 0.961 . S
C1454 H1468 0.961 . S
C1455 C1452 1.539 . S
C1455 H1469 0.958 . S
C1455 H1470 0.961 . S
C1455 H1471 0.960 . S
H1456 C1440 0.931 . S
H1457 C1445 0.929 . S
H1458 C1446 0.960 . S
H1459 C1446 0.962 . S
H1460 C1446 0.960 . S
H1461 C1447 0.961 . S
H1462 C1447 0.961 . S
H1463 C1447 0.961 . S
H1464 C1448 0.931 . S
H1465 C1453 0.930 . S
H1466 C1454 0.956 . S
H1467 C1454 0.961 . S
H1468 C1454 0.961 . S
H1469 C1455 0.958 . S
H1470 C1455 0.961 . S
H1471 C1455 0.960 . S
C1472 C1473 1.391 . S
C1472 C1474 1.394 1_655 S
C1472 H1488 0.931 1_655 S
C1473 C1472 1.391 . S
C1473 C1477 1.376 . S
C1474 C1472 1.394 1_455 S
C1474 C1475 1.369 1_455 S
C1474 C1478 1.531 . S
C1475 C1474 1.369 1_655 S
C1475 C1476 1.410 . S
C1475 C1483 1.503 1_655 S
C1476 C1475 1.410 . S
C1476 C1477 1.392 . S
C1476 C1479 1.511 . S
C1477 C1473 1.376 . S
C1477 C1476 1.392 . S
C1477 H1489 0.929 . S
C1478 C1474 1.531 . S
C1478 H1490 0.960 . S
C1478 H1491 0.962 . S
C1478 H1492 0.960 . S
C1479 C1476 1.511 . S
C1479 H1493 0.961 . S
C1479 H1494 0.961 . S
C1479 H1495 0.961 . S
C1480 C1481 1.370 . S
C1480 C1482 1.363 . S
C1480 H1496 0.931 . S
C1481 C1480 1.370 . S
C1481 C1485 1.408 . S
C1482 C1480 1.363 . S
C1482 C1483 1.370 . S
C1482 C1486 1.524 . S
C1483 C1475 1.503 1_455 S
C1483 C1482 1.370 . S
C1483 C1484 1.403 . S
C1484 C1483 1.403 . S
C1484 C1485 1.404 . S
C1484 C1487 1.539 . S
C1485 C1481 1.408 . S
C1485 C1484 1.404 . S
C1485 H1497 0.930 . S
C1486 C1482 1.524 . S
C1486 H1498 0.956 . S
C1486 H1499 0.961 1_455 S
C1486 H1500 0.961 . S
C1487 C1484 1.539 . S
C1487 H1501 0.958 . S
C1487 H1502 0.959 1_455 S
C1487 H1503 0.960 1_455 S
H1488 C1472 0.931 1_455 S
H1489 C1477 0.929 . S
H1490 C1478 0.960 . S
H1491 C1478 0.962 . S
H1492 C1478 0.960 . S
H1493 C1479 0.961 . S
H1494 C1479 0.961 . S
H1495 C1479 0.961 . S
H1496 C1480 0.931 . S
H1497 C1485 0.930 . S
H1498 C1486 0.956 . S
H1499 C1486 0.961 1_655 S
H1500 C1486 0.961 . S
H1501 C1487 0.958 . S
H1502 C1487 0.959 1_655 S
H1503 C1487 0.960 1_655 S
C1504 C1505 1.391 . S
C1504 C1506 1.394 . S
C1504 H1520 0.931 . S
C1505 C1504 1.391 . S
C1505 C1509 1.376 . S
C1506 C1504 1.394 . S
C1506 C1507 1.369 . S
C1506 C1510 1.531 . S
C1507 C1506 1.369 . S
C1507 C1508 1.410 . S
C1507 C1515 1.503 1_565 S
C1508 C1507 1.410 . S
C1508 C1509 1.392 . S
C1508 C1511 1.511 1_565 S
C1509 C1505 1.376 . S
C1509 C1508 1.392 . S
C1509 H1521 0.929 . S
C1510 C1506 1.531 . S
C1510 H1522 0.960 . S
C1510 H1523 0.962 . S
C1510 H1524 0.960 . S
C1511 C1508 1.511 1_545 S
C1511 H1525 0.961 . S
C1511 H1526 0.961 . S
C1511 H1527 0.961 . S
C1512 C1513 1.370 . S
C1512 C1514 1.363 . S
C1512 H1528 0.931 . S
C1513 C1512 1.370 . S
C1513 C1517 1.408 . S
C1514 C1512 1.363 . S
C1514 C1515 1.370 . S
C1514 C1518 1.524 . S
C1515 C1507 1.503 1_545 S
C1515 C1514 1.370 . S
C1515 C1516 1.403 . S
C1516 C1515 1.403 . S
C1516 C1517 1.404 . S
C1516 C1519 1.539 . S
C1517 C1513 1.408 . S
C1517 C1516 1.404 . S
C1517 H1529 0.930 . S
C1518 C1514 1.524 . S
C1518 H1530 0.956 1_545 S
C1518 H1531 0.961 . S
C1518 H1532 0.961 . S
C1519 C1516 1.539 . S
C1519 H1533 0.958 1_545 S
C1519 H1534 0.961 . S
C1519 H1535 0.938 1_545 S
H1520 C1504 0.931 . S
H1521 C1509 0.929 . S
H1522 C1510 0.960 . S
H1523 C1510 0.962 . S
H1524 C1510 0.960 . S
H1525 C1511 0.961 . S
H1526 C1511 0.961 . S
H1527 C1511 0.961 . S
H1528 C1512 0.931 . S
H1529 C1517 0.930 . S
H1530 C1518 0.956 1_565 S
H1531 C1518 0.961 . S
H1532 C1518 0.961 . S
H1533 C1519 0.958 1_565 S
H1534 C1519 0.961 . S
H1535 C1519 0.938 1_565 S
C1536 C1537 1.391 . S
C1536 C1538 1.394 . S
C1536 H1552 0.931 . S
C1537 C1536 1.391 . S
C1537 C1541 1.376 . S
C1538 C1536 1.394 . S
C1538 C1539 1.369 . S
C1538 C1542 1.531 1_545 S
C1539 C1538 1.369 . S
C1539 C1540 1.410 1_554 S
C1539 C1547 1.503 1_644 S
C1540 C1539 1.410 1_556 S
C1540 C1541 1.392 1_556 S
C1540 C1543 1.511 . S
C1541 C1537 1.376 . S
C1541 C1540 1.392 1_554 S
C1541 H1553 0.929 1_554 S
C1542 C1538 1.531 1_565 S
C1542 H1554 0.960 . S
C1542 H1555 0.962 . S
C1542 H1556 0.960 . S
C1543 C1540 1.511 . S
C1543 H1557 0.961 . S
C1543 H1558 0.961 1_655 S
C1543 H1559 0.961 . S
C1544 C1545 1.370 . S
C1544 C1546 1.363 . S
C1544 H1560 0.931 . S
C1545 C1544 1.370 . S
C1545 C1549 1.408 . S
C1546 C1544 1.363 . S
C1546 C1547 1.370 . S
C1546 C1550 1.524 1_566 S
C1547 C1539 1.503 1_466 S
C1547 C1546 1.370 . S
C1547 C1548 1.403 1_455 S
C1548 C1547 1.403 1_655 S
C1548 C1549 1.404 1_655 S
C1548 C1551 1.539 . S
C1549 C1545 1.408 . S
C1549 C1548 1.404 1_455 S
C1549 H1561 0.930 1_455 S
C1550 C1546 1.524 1_544 S
C1550 H1562 0.956 . S
C1550 H1563 0.961 . S
C1550 H1564 0.961 . S
C1551 C1548 1.539 . S
C1551 H1565 0.958 . S
C1551 H1566 0.961 . S
C1551 H1567 0.960 . S
H1552 C1536 0.931 . S
H1553 C1541 0.929 1_556 S
H1554 C1542 0.960 . S
H1555 C1542 0.962 . S
H1556 C1542 0.960 . S
H1557 C1543 0.961 . S
H1558 C1543 0.961 1_455 S
H1559 C1543 0.961 . S
H1560 C1544 0.931 . S
H1561 C1549 0.930 1_655 S
H1562 C1550 0.956 . S
H1563 C1550 0.961 . S
H1564 C1550 0.961 . S
H1565 C1551 0.958 . S
H1566 C1551 0.961 . S
H1567 C1551 0.960 . S
C1568 C1569 1.391 . S
C1568 C1570 1.394 1_554 S
C1568 H1584 0.931 . S
C1569 C1568 1.391 . S
C1569 C1573 1.376 . S
C1570 C1568 1.394 1_556 S
C1570 C1571 1.369 1_556 S
C1570 C1574 1.531 . S
C1571 C1570 1.369 1_554 S
C1571 C1572 1.410 . S
C1571 C1579 1.503 1_554 S
C1572 C1571 1.410 . S
C1572 C1573 1.392 . S
C1572 C1575 1.511 . S
C1573 C1569 1.376 . S
C1573 C1572 1.392 . S
C1573 H1585 0.929 . S
C1574 C1570 1.531 . S
C1574 H1586 0.960 . S
C1574 H1587 0.962 . S
C1574 H1588 0.960 . S
C1575 C1572 1.511 . S
C1575 H1589 0.961 . S
C1575 H1590 0.961 . S
C1575 H1591 0.961 . S
C1576 C1577 1.370 . S
C1576 C1578 1.363 . S
C1576 H1592 0.931 . S
C1577 C1576 1.370 . S
C1577 C1581 1.408 . S
C1578 C1576 1.363 . S
C1578 C1579 1.370 . S
C1578 C1582 1.524 . S
C1579 C1571 1.503 1_556 S
C1579 C1578 1.370 . S
C1579 C1580 1.403 1_556 S
C1580 C1579 1.403 1_554 S
C1580 C1581 1.404 1_554 S
C1580 C1583 1.539 . S
C1581 C1577 1.408 . S
C1581 C1580 1.404 1_556 S
C1581 H1593 0.930 . S
C1582 C1578 1.524 . S
C1582 H1594 0.956 . S
C1582 H1595 0.961 . S
C1582 H1596 0.961 . S
C1583 C1580 1.539 . S
C1583 H1597 0.958 . S
C1583 H1598 0.961 . S
C1583 H1599 0.960 . S
H1584 C1568 0.931 . S
H1585 C1573 0.929 . S
H1586 C1574 0.960 . S
H1587 C1574 0.962 . S
H1588 C1574 0.960 . S
H1589 C1575 0.961 . S
H1590 C1575 0.961 . S
H1591 C1575 0.961 . S
H1592 C1576 0.931 . S
H1593 C1581 0.930 . S
H1594 C1582 0.956 . S
H1595 C1582 0.961 . S
H1596 C1582 0.961 . S
H1597 C1583 0.958 . S
H1598 C1583 0.961 . S
H1599 C1583 0.960 . S
C1600 C1601 1.391 . S
C1600 C1602 1.394 . S
C1600 H1616 0.931 . S
C1601 C1600 1.391 . S
C1601 C1605 1.376 . S
C1602 C1600 1.394 . S
C1602 C1603 1.369 . S
C1602 C1606 1.531 . S
C1603 C1602 1.369 . S
C1603 C1604 1.410 1_655 S
C1603 C1611 1.503 1_655 S
C1604 C1603 1.410 1_455 S
C1604 C1605 1.392 1_455 S
C1604 C1607 1.511 . S
C1605 C1601 1.376 . S
C1605 C1604 1.392 1_655 S
C1605 H1617 0.929 1_655 S
C1606 C1602 1.531 . S
C1606 H1618 0.960 . S
C1606 H1619 0.962 . S
C1606 H1620 0.960 . S
C1607 C1604 1.511 . S
C1607 H1621 0.961 . S
C1607 H1622 0.961 . S
C1607 H1623 0.961 . S
C1608 C1609 1.370 . S
C1608 C1610 1.363 . S
C1608 H1624 0.931 . S
C1609 C1608 1.370 . S
C1609 C1613 1.408 . S
C1610 C1608 1.363 . S
C1610 C1611 1.370 . S
C1610 C1614 1.524 . S
C1611 C1603 1.503 1_455 S
C1611 C1610 1.370 . S
C1611 C1612 1.403 . S
C1612 C1611 1.403 . S
C1612 C1613 1.404 . S
C1612 C1615 1.539 . S
C1613 C1609 1.408 . S
C1613 C1612 1.404 . S
C1613 H1625 0.930 . S
C1614 C1610 1.524 . S
C1614 H1626 0.956 1_455 S
C1614 H1627 0.961 . S
C1614 H1628 0.961 . S
C1615 C1612 1.539 . S
C1615 H1629 0.958 1_455 S
C1615 H1630 0.961 . S
C1615 H1631 0.960 . S
H1616 C1600 0.931 . S
H1617 C1605 0.929 1_455 S
H1618 C1606 0.960 . S
H1619 C1606 0.962 . S
H1620 C1606 0.960 . S
H1621 C1607 0.961 . S
H1622 C1607 0.961 . S
H1623 C1607 0.961 . S
H1624 C1608 0.931 . S
H1625 C1613 0.930 . S
H1626 C1614 0.956 1_655 S
H1627 C1614 0.961 . S
H1628 C1614 0.961 . S
H1629 C1615 0.958 1_655 S
H1630 C1615 0.961 . S
H1631 C1615 0.960 . S
C1632 C1633 1.391 . S
C1632 C1634 1.394 . S
C1632 H1648 0.931 . S
C1633 C1632 1.391 . S
C1633 C1637 1.376 . S
C1634 C1632 1.394 . S
C1634 C1635 1.369 . S
C1634 C1638 1.531 . S
C1635 C1634 1.369 . S
C1635 C1636 1.410 . S
C1635 C1643 1.503 1_565 S
C1636 C1635 1.410 . S
C1636 C1637 1.392 . S
C1636 C1639 1.511 1_565 S
C1637 C1633 1.376 . S
C1637 C1636 1.392 . S
C1637 H1649 0.929 . S
C1638 C1634 1.531 . S
C1638 H1650 0.960 . S
C1638 H1651 0.962 . S
C1638 H1652 0.960 . S
C1639 C1636 1.511 1_545 S
C1639 H1653 0.961 . S
C1639 H1654 0.961 . S
C1639 H1655 0.961 . S
C1640 C1641 1.370 . S
C1640 C1642 1.363 . S
C1640 H1656 0.931 . S
C1641 C1640 1.370 . S
C1641 C1645 1.408 . S
C1642 C1640 1.363 . S
C1642 C1643 1.370 . S
C1642 C1646 1.524 . S
C1643 C1635 1.503 1_545 S
C1643 C1642 1.370 . S
C1643 C1644 1.403 . S
C1644 C1643 1.403 . S
C1644 C1645 1.404 . S
C1644 C1647 1.539 1_545 S
C1645 C1641 1.408 . S
C1645 C1644 1.404 . S
C1645 H1657 0.930 . S
C1646 C1642 1.524 . S
C1646 H1658 0.956 . S
C1646 H1659 0.961 . S
C1646 H1660 0.961 . S
C1647 C1644 1.539 1_565 S
C1647 H1661 0.958 . S
C1647 H1662 0.987 . S
C1647 H1663 0.960 . S
H1648 C1632 0.931 . S
H1649 C1637 0.929 . S
H1650 C1638 0.960 . S
H1651 C1638 0.962 . S
H1652 C1638 0.960 . S
H1653 C1639 0.961 . S
H1654 C1639 0.961 . S
H1655 C1639 0.961 . S
H1656 C1640 0.931 . S
H1657 C1645 0.930 . S
H1658 C1646 0.956 . S
H1659 C1646 0.961 . S
H1660 C1646 0.961 . S
H1661 C1647 0.958 . S
H1662 C1647 0.987 . S
H1663 C1647 0.960 . S
C1664 C1665 1.391 . S
C1664 C1666 1.394 1_556 S
C1664 H1680 0.931 1_556 S
C1665 C1664 1.391 . S
C1665 C1669 1.376 . S
C1666 C1664 1.394 1_554 S
C1666 C1667 1.369 1_554 S
C1666 C1670 1.531 . S
C1667 C1666 1.369 1_556 S
C1667 C1668 1.410 . S
C1667 C1675 1.503 1_556 S
C1668 C1667 1.410 . S
C1668 C1669 1.392 . S
C1668 C1671 1.511 . S
C1669 C1665 1.376 . S
C1669 C1668 1.392 . S
C1669 H1681 0.929 . S
C1670 C1666 1.531 . S
C1670 H1682 0.960 . S
C1670 H1683 0.962 . S
C1670 H1684 0.960 . S
C1671 C1668 1.511 . S
C1671 H1685 0.961 . S
C1671 H1686 0.961 . S
C1671 H1687 0.961 . S
C1672 C1673 1.370 . S
C1672 C1674 1.363 . S
C1672 H1688 0.931 . S
C1673 C1672 1.370 . S
C1673 C1677 1.408 . S
C1674 C1672 1.363 . S
C1674 C1675 1.370 . S
C1674 C1678 1.524 . S
C1675 C1667 1.503 1_554 S
C1675 C1674 1.370 . S
C1675 C1676 1.404 . S
C1676 C1675 1.404 . S
C1676 C1677 1.408 . S
C1676 C1679 1.533 1_554 S
C1677 C1673 1.408 . S
C1677 C1676 1.408 . S
C1677 H1689 0.930 . S
C1678 C1674 1.524 . S
C1678 H1690 0.956 . S
C1678 H1691 0.961 . S
C1678 H1692 0.961 . S
C1679 C1676 1.533 1_556 S
C1679 H1693 0.958 . S
C1679 H1694 0.961 . S
C1679 H1695 0.960 . S
H1680 C1664 0.931 1_554 S
H1681 C1669 0.929 . S
H1682 C1670 0.960 . S
H1683 C1670 0.962 . S
H1684 C1670 0.960 . S
H1685 C1671 0.961 . S
H1686 C1671 0.961 . S
H1687 C1671 0.961 . S
H1688 C1672 0.931 . S
H1689 C1677 0.930 . S
H1690 C1678 0.956 . S
H1691 C1678 0.961 . S
H1692 C1678 0.961 . S
H1693 C1679 0.958 . S
H1694 C1679 0.961 . S
H1695 C1679 0.960 . S
C1696 C1697 1.391 . S
C1696 C1698 1.394 . S
C1696 H1712 0.931 . S
C1697 C1696 1.391 . S
C1697 C1701 1.376 . S
C1698 C1696 1.394 . S
C1698 C1699 1.369 . S
C1698 C1702 1.531 . S
C1699 C1698 1.369 . S
C1699 C1700 1.410 . S
C1699 C1707 1.503 . S
C1700 C1699 1.410 . S
C1700 C1701 1.392 . S
C1700 C1703 1.511 . S
C1701 C1697 1.376 . S
C1701 C1700 1.392 . S
C1701 H1713 0.929 . S
C1702 C1698 1.531 . S
C1702 H1714 0.960 . S
C1702 H1715 0.962 . S
C1702 H1716 0.960 . S
C1703 C1700 1.511 . S
C1703 H1717 0.961 . S
C1703 H1718 0.961 . S
C1703 H1719 0.961 . S
C1704 C1705 1.370 . S
C1704 C1706 1.363 . S
C1704 H1720 0.931 . S
C1705 C1704 1.370 . S
C1705 C1709 1.408 . S
C1706 C1704 1.363 . S
C1706 C1707 1.370 . S
C1706 C1710 1.524 . S
C1707 C1699 1.503 . S
C1707 C1706 1.370 . S
C1707 C1708 1.403 . S
C1708 C1707 1.403 . S
C1708 C1709 1.404 . S
C1708 C1711 1.539 . S
C1709 C1705 1.408 . S
C1709 C1708 1.404 . S
C1709 H1721 0.930 . S
C1710 C1706 1.524 . S
C1710 H1722 0.956 . S
C1710 H1723 0.961 . S
C1710 H1724 0.961 . S
C1711 C1708 1.539 . S
C1711 H1725 0.958 . S
C1711 H1726 0.961 . S
C1711 H1727 0.960 . S
H1712 C1696 0.931 . S
H1713 C1701 0.929 . S
H1714 C1702 0.960 . S
H1715 C1702 0.962 . S
H1716 C1702 0.960 . S
H1717 C1703 0.961 . S
H1718 C1703 0.961 . S
H1719 C1703 0.961 . S
H1720 C1704 0.931 . S
H1721 C1709 0.930 . S
H1722 C1710 0.956 . S
H1723 C1710 0.961 . S
H1724 C1710 0.961 . S
H1725 C1711 0.958 . S
H1726 C1711 0.961 . S
H1727 C1711 0.960 . S
C1728 C1729 1.391 . S
C1728 C1730 1.394 . S
C1728 H1744 0.931 . S
C1729 C1728 1.391 . S
C1729 C1733 1.376 . S
C1730 C1728 1.394 . S
C1730 C1731 1.369 . S
C1730 C1734 1.531 . S
C1731 C1730 1.369 . S
C1731 C1732 1.410 . S
C1731 C1739 1.503 1_455 S
C1732 C1731 1.410 . S
C1732 C1733 1.392 . S
C1732 C1735 1.511 1_455 S
C1733 C1729 1.376 . S
C1733 C1732 1.392 . S
C1733 H1745 0.929 . S
C1734 C1730 1.531 . S
C1734 H1746 0.960 1_455 S
C1734 H1747 0.962 . S
C1734 H1748 0.960 . S
C1735 C1732 1.511 1_655 S
C1735 H1749 0.961 . S
C1735 H1750 0.961 . S
C1735 H1751 0.961 . S
C1736 C1737 1.370 . S
C1736 C1738 1.363 1_655 S
C1736 H1752 0.931 1_655 S
C1737 C1736 1.370 . S
C1737 C1741 1.408 . S
C1738 C1736 1.363 1_455 S
C1738 C1739 1.370 1_455 S
C1738 C1742 1.524 . S
C1739 C1731 1.503 1_655 S
C1739 C1738 1.370 1_655 S
C1739 C1740 1.403 . S
C1740 C1739 1.403 . S
C1740 C1741 1.404 . S
C1740 C1743 1.539 . S
C1741 C1737 1.408 . S
C1741 C1740 1.404 . S
C1741 H1753 0.930 . S
C1742 C1738 1.524 . S
C1742 H1754 0.956 . S
C1742 H1755 0.961 . S
C1742 H1756 0.961 . S
C1743 C1740 1.539 . S
C1743 H1757 0.958 . S
C1743 H1758 0.961 . S
C1743 H1759 0.960 . S
H1744 C1728 0.931 . S
H1745 C1733 0.929 . S
H1746 C1734 0.960 1_655 S
H1747 C1734 0.962 . S
H1748 C1734 0.960 . S
H1749 C1735 0.961 . S
H1750 C1735 0.961 . S
H1751 C1735 0.961 . S
H1752 C1736 0.931 1_455 S
H1753 C1741 0.930 . S
H1754 C1742 0.956 . S
H1755 C1742 0.961 . S
H1756 C1742 0.961 . S
H1757 C1743 0.958 . S
H1758 C1743 0.961 . S
H1759 C1743 0.960 . S
C1760 C1761 1.391 . S
C1760 C1762 1.394 . S
C1760 H1776 0.931 . S
C1761 C1760 1.391 . S
C1761 C1765 1.376 . S
C1762 C1760 1.394 . S
C1762 C1763 1.369 . S
C1762 C1766 1.531 . S
C1763 C1762 1.369 . S
C1763 C1764 1.410 . S
C1763 C1771 1.503 . S
C1764 C1763 1.410 . S
C1764 C1765 1.392 . S
C1764 C1767 1.511 . S
C1765 C1761 1.376 . S
C1765 C1764 1.392 . S
C1765 H1777 0.929 . S
C1766 C1762 1.531 . S
C1766 H1778 0.960 . S
C1766 H1779 0.962 . S
C1766 H1780 0.960 . S
C1767 C1764 1.511 . S
C1767 H1781 0.961 . S
C1767 H1782 0.961 . S
C1767 H1783 0.961 . S
C1768 C1769 1.370 . S
C1768 C1770 1.363 . S
C1768 H1784 0.931 . S
C1769 C1768 1.370 . S
C1769 C1773 1.408 . S
C1770 C1768 1.363 . S
C1770 C1771 1.370 . S
C1770 C1774 1.524 . S
C1771 C1763 1.503 . S
C1771 C1770 1.370 . S
C1771 C1772 1.403 . S
C1772 C1771 1.403 . S
C1772 C1773 1.404 . S
C1772 C1775 1.539 . S
C1773 C1769 1.408 . S
C1773 C1772 1.404 . S
C1773 H1785 0.930 . S
C1774 C1770 1.524 . S
C1774 H1786 0.956 . S
C1774 H1787 0.961 . S
C1774 H1788 0.961 . S
C1775 C1772 1.539 . S
C1775 H1789 0.958 . S
C1775 H1790 0.961 . S
C1775 H1791 0.960 . S
H1776 C1760 0.931 . S
H1777 C1765 0.929 . S
H1778 C1766 0.960 . S
H1779 C1766 0.962 . S
H1780 C1766 0.960 . S
H1781 C1767 0.961 . S
H1782 C1767 0.961 . S
H1783 C1767 0.961 . S
H1784 C1768 0.931 . S
H1785 C1773 0.930 . S
H1786 C1774 0.956 . S
H1787 C1774 0.961 . S
H1788 C1774 0.961 . S
H1789 C1775 0.958 . S
H1790 C1775 0.961 . S
H1791 C1775 0.960 . S
C1792 C1793 1.391 . S
C1792 C1794 1.394 . S
C1792 H1808 0.931 . S
C1793 C1792 1.391 . S
C1793 C1797 1.376 . S
C1794 C1792 1.394 . S
C1794 C1795 1.369 . S
C1794 C1798 1.531 . S
C1795 C1794 1.369 . S
C1795 C1796 1.410 . S
C1795 C1803 1.503 . S
C1796 C1795 1.410 . S
C1796 C1797 1.392 . S
C1796 C1799 1.511 . S
C1797 C1793 1.376 . S
C1797 C1796 1.392 . S
C1797 H1809 0.929 . S
C1798 C1794 1.531 . S
C1798 H1810 0.960 . S
C1798 H1811 0.962 . S
C1798 H1812 0.960 . S
C1799 C1796 1.511 . S
C1799 H1813 0.961 . S
C1799 H1814 0.961 . S
C1799 H1815 0.961 . S
C1800 C1801 1.370 . S
C1800 C1802 1.363 . S
C1800 H1816 0.931 . S
C1801 C1800 1.370 . S
C1801 C1805 1.408 . S
C1802 C1800 1.363 . S
C1802 C1803 1.370 . S
C1802 C1806 1.524 . S
C1803 C1795 1.503 . S
C1803 C1802 1.370 . S
C1803 C1804 1.403 . S
C1804 C1803 1.403 . S
C1804 C1805 1.404 . S
C1804 C1807 1.539 . S
C1805 C1801 1.408 . S
C1805 C1804 1.404 . S
C1805 H1817 0.930 . S
C1806 C1802 1.524 . S
C1806 H1818 0.956 . S
C1806 H1819 0.961 . S
C1806 H1820 0.961 . S
C1807 C1804 1.539 . S
C1807 H1821 0.958 . S
C1807 H1822 0.961 . S
C1807 H1823 0.960 . S
H1808 C1792 0.931 . S
H1809 C1797 0.929 . S
H1810 C1798 0.960 . S
H1811 C1798 0.962 . S
H1812 C1798 0.960 . S
H1813 C1799 0.961 . S
H1814 C1799 0.961 . S
H1815 C1799 0.961 . S
H1816 C1800 0.931 . S
H1817 C1805 0.930 . S
H1818 C1806 0.956 . S
H1819 C1806 0.961 . S
H1820 C1806 0.961 . S
H1821 C1807 0.958 . S
H1822 C1807 0.961 . S
H1823 C1807 0.960 . S
C1824 C1825 1.391 . S
C1824 C1826 1.394 . S
C1824 H1840 0.931 . S
C1825 C1824 1.391 . S
C1825 C1829 1.376 . S
C1826 C1824 1.394 . S
C1826 C1827 1.369 . S
C1826 C1830 1.531 . S
C1827 C1826 1.369 . S
C1827 C1828 1.410 . S
C1827 C1835 1.503 . S
C1828 C1827 1.410 . S
C1828 C1829 1.392 . S
C1828 C1831 1.511 . S
C1829 C1825 1.376 . S
C1829 C1828 1.392 . S
C1829 H1841 0.929 . S
C1830 C1826 1.531 . S
C1830 H1842 0.960 . S
C1830 H1843 0.962 . S
C1830 H1844 0.960 . S
C1831 C1828 1.511 . S
C1831 H1845 0.961 . S
C1831 H1846 0.961 . S
C1831 H1847 0.961 . S
C1832 C1833 1.370 . S
C1832 C1834 1.363 . S
C1832 H1848 0.931 . S
C1833 C1832 1.370 . S
C1833 C1837 1.408 . S
C1834 C1832 1.363 . S
C1834 C1835 1.370 . S
C1834 C1838 1.524 . S
C1835 C1827 1.503 . S
C1835 C1834 1.370 . S
C1835 C1836 1.403 . S
C1836 C1835 1.403 . S
C1836 C1837 1.404 . S
C1836 C1839 1.539 . S
C1837 C1833 1.408 . S
C1837 C1836 1.404 . S
C1837 H1849 0.930 . S
C1838 C1834 1.524 . S
C1838 H1850 0.956 . S
C1838 H1851 0.961 . S
C1838 H1852 0.961 . S
C1839 C1836 1.539 . S
C1839 H1853 0.958 . S
C1839 H1854 0.961 . S
C1839 H1855 0.960 . S
H1840 C1824 0.931 . S
H1841 C1829 0.929 . S
H1842 C1830 0.960 . S
H1843 C1830 0.962 . S
H1844 C1830 0.960 . S
H1845 C1831 0.961 . S
H1846 C1831 0.961 . S
H1847 C1831 0.961 . S
H1848 C1832 0.931 . S
H1849 C1837 0.930 . S
H1850 C1838 0.956 . S
H1851 C1838 0.961 . S
H1852 C1838 0.961 . S
H1853 C1839 0.958 . S
H1854 C1839 0.961 . S
H1855 C1839 0.960 . S
C1856 C1857 1.391 . S
C1856 C1858 1.394 . S
C1856 H1872 0.931 . S
C1857 C1856 1.391 . S
C1857 C1861 1.376 . S
C1858 C1856 1.394 . S
C1858 C1859 1.369 . S
C1858 C1862 1.531 . S
C1859 C1858 1.369 . S
C1859 C1860 1.410 . S
C1859 C1867 1.503 . S
C1860 C1859 1.410 . S
C1860 C1861 1.392 . S
C1860 C1863 1.511 . S
C1861 C1857 1.376 . S
C1861 C1860 1.392 . S
C1861 H1873 0.929 . S
C1862 C1858 1.531 . S
C1862 H1874 0.960 . S
C1862 H1875 0.962 . S
C1862 H1876 0.960 . S
C1863 C1860 1.511 . S
C1863 H1877 0.961 . S
C1863 H1878 0.961 . S
C1863 H1879 0.961 . S
C1864 C1865 1.370 . S
C1864 C1866 1.363 . S
C1864 H1880 0.931 . S
C1865 C1864 1.370 . S
C1865 C1869 1.408 . S
C1866 C1864 1.363 . S
C1866 C1867 1.370 . S
C1866 C1870 1.524 . S
C1867 C1859 1.503 . S
C1867 C1866 1.370 . S
C1867 C1868 1.403 . S
C1868 C1867 1.403 . S
C1868 C1869 1.404 . S
C1868 C1871 1.539 . S
C1869 C1865 1.408 . S
C1869 C1868 1.404 . S
C1869 H1881 0.930 . S
C1870 C1866 1.524 . S
C1870 H1882 0.956 . S
C1870 H1883 0.961 . S
C1870 H1884 0.961 . S
C1871 C1868 1.539 . S
C1871 H1885 0.958 . S
C1871 H1886 0.961 . S
C1871 H1887 0.960 . S
H1872 C1856 0.931 . S
H1873 C1861 0.929 . S
H1874 C1862 0.960 . S
H1875 C1862 0.962 . S
H1876 C1862 0.960 . S
H1877 C1863 0.961 . S
H1878 C1863 0.961 . S
H1879 C1863 0.961 . S
H1880 C1864 0.931 . S
H1881 C1869 0.930 . S
H1882 C1870 0.956 . S
H1883 C1870 0.961 . S
H1884 C1870 0.961 . S
H1885 C1871 0.958 . S
H1886 C1871 0.961 . S
H1887 C1871 0.960 . S
C1888 C1889 1.391 . S
C1888 C1890 1.394 . S
C1888 H1904 0.931 . S
C1889 C1888 1.391 . S
C1889 C1893 1.376 . S
C1890 C1888 1.394 . S
C1890 C1891 1.369 . S
C1890 C1894 1.531 . S
C1891 C1890 1.369 . S
C1891 C1892 1.410 . S
C1891 C1899 1.503 1_545 S
C1892 C1891 1.410 . S
C1892 C1893 1.392 . S
C1892 C1895 1.511 . S
C1893 C1889 1.376 . S
C1893 C1892 1.392 . S
C1893 H1905 0.929 . S
C1894 C1890 1.531 . S
C1894 H1906 0.960 1_545 S
C1894 H1907 0.962 . S
C1894 H1908 0.960 . S
C1895 C1892 1.511 . S
C1895 H1909 0.961 . S
C1895 H1910 0.944 1_545 S
C1895 H1911 0.961 1_545 S
C1896 C1897 1.370 . S
C1896 C1898 1.363 . S
C1896 H1912 0.931 . S
C1897 C1896 1.370 . S
C1897 C1901 1.408 . S
C1898 C1896 1.363 . S
C1898 C1899 1.370 . S
C1898 C1902 1.524 1_565 S
C1899 C1891 1.503 1_565 S
C1899 C1898 1.370 . S
C1899 C1900 1.403 . S
C1900 C1899 1.403 . S
C1900 C1901 1.404 . S
C1900 C1903 1.539 . S
C1901 C1897 1.408 . S
C1901 C1900 1.404 . S
C1901 H1913 0.930 . S
C1902 C1898 1.524 1_545 S
C1902 H1914 0.956 . S
C1902 H1915 0.961 . S
C1902 H1916 0.961 . S
C1903 C1900 1.539 . S
C1903 H1917 0.958 . S
C1903 H1918 0.961 . S
C1903 H1919 0.960 . S
H1904 C1888 0.931 . S
H1905 C1893 0.929 . S
H1906 C1894 0.960 1_565 S
H1907 C1894 0.962 . S
H1908 C1894 0.960 . S
H1909 C1895 0.961 . S
H1910 C1895 0.944 1_565 S
H1911 C1895 0.961 1_565 S
H1912 C1896 0.931 . S
H1913 C1901 0.930 . S
H1914 C1902 0.956 . S
H1915 C1902 0.961 . S
H1916 C1902 0.961 . S
H1917 C1903 0.958 . S
H1918 C1903 0.961 . S
H1919 C1903 0.960 . S
C1920 C1921 1.391 . S
C1920 C1922 1.394 . S
C1920 H1936 0.931 . S
C1921 C1920 1.391 . S
C1921 C1925 1.376 . S
C1922 C1920 1.394 . S
C1922 C1923 1.369 . S
C1922 C1926 1.531 . S
C1923 C1922 1.369 . S
C1923 C1924 1.410 . S
C1923 C1931 1.503 . S
C1924 C1923 1.410 . S
C1924 C1925 1.392 . S
C1924 C1927 1.511 . S
C1925 C1921 1.376 . S
C1925 C1924 1.392 . S
C1925 H1937 0.929 . S
C1926 C1922 1.531 . S
C1926 H1938 0.960 . S
C1926 H1939 0.962 . S
C1926 H1940 0.960 . S
C1927 C1924 1.511 . S
C1927 H1941 0.961 . S
C1927 H1942 0.961 . S
C1927 H1943 0.961 . S
C1928 C1929 1.370 . S
C1928 C1930 1.363 . S
C1928 H1944 0.931 . S
C1929 C1928 1.370 . S
C1929 C1933 1.408 . S
C1930 C1928 1.363 . S
C1930 C1931 1.370 . S
C1930 C1934 1.524 . S
C1931 C1923 1.503 . S
C1931 C1930 1.370 . S
C1931 C1932 1.403 . S
C1932 C1931 1.403 . S
C1932 C1933 1.404 . S
C1932 C1935 1.539 . S
C1933 C1929 1.408 . S
C1933 C1932 1.404 . S
C1933 H1945 0.930 . S
C1934 C1930 1.524 . S
C1934 H1946 0.956 . S
C1934 H1947 0.961 . S
C1934 H1948 0.961 . S
C1935 C1932 1.539 . S
C1935 H1949 0.958 . S
C1935 H1950 0.961 . S
C1935 H1951 0.960 . S
H1936 C1920 0.931 . S
H1937 C1925 0.929 . S
H1938 C1926 0.960 . S
H1939 C1926 0.962 . S
H1940 C1926 0.960 . S
H1941 C1927 0.961 . S
H1942 C1927 0.961 . S
H1943 C1927 0.961 . S
H1944 C1928 0.931 . S
H1945 C1933 0.930 . S
H1946 C1934 0.956 . S
H1947 C1934 0.961 . S
H1948 C1934 0.961 . S
H1949 C1935 0.958 . S
H1950 C1935 0.961 . S
H1951 C1935 0.960 . S
C1952 C1953 1.391 . S
C1952 C1954 1.394 . S
C1952 H1968 0.931 . S
C1953 C1952 1.391 . S
C1953 C1957 1.376 . S
C1954 C1952 1.394 . S
C1954 C1955 1.369 . S
C1954 C1958 1.531 . S
C1955 C1954 1.369 . S
C1955 C1956 1.410 1_556 S
C1955 C1963 1.503 1_556 S
C1956 C1955 1.410 1_554 S
C1956 C1957 1.392 1_554 S
C1956 C1959 1.511 . S
C1957 C1953 1.376 . S
C1957 C1956 1.392 1_556 S
C1957 H1969 0.929 1_556 S
C1958 C1954 1.531 . S
C1958 H1970 0.960 . S
C1958 H1971 0.962 . S
C1958 H1972 0.960 . S
C1959 C1956 1.511 . S
C1959 H1973 0.961 . S
C1959 H1974 0.961 . S
C1959 H1975 0.961 . S
C1960 C1961 1.370 . S
C1960 C1962 1.363 . S
C1960 H1976 0.931 . S
C1961 C1960 1.370 . S
C1961 C1965 1.408 . S
C1962 C1960 1.363 . S
C1962 C1963 1.370 . S
C1962 C1966 1.524 . S
C1963 C1955 1.503 1_554 S
C1963 C1962 1.370 . S
C1963 C1964 1.403 . S
C1964 C1963 1.403 . S
C1964 C1965 1.404 . S
C1964 C1967 1.539 1_554 S
C1965 C1961 1.408 . S
C1965 C1964 1.404 . S
C1965 H1977 0.930 . S
C1966 C1962 1.524 . S
C1966 H1978 0.956 1_554 S
C1966 H1979 0.961 . S
C1966 H1980 0.961 . S
C1967 C1964 1.539 1_556 S
C1967 H1981 0.958 . S
C1967 H1982 0.961 1_556 S
C1967 H1983 0.960 . S
H1968 C1952 0.931 . S
H1969 C1957 0.929 1_554 S
H1970 C1958 0.960 . S
H1971 C1958 0.962 . S
H1972 C1958 0.960 . S
H1973 C1959 0.961 . S
H1974 C1959 0.961 . S
H1975 C1959 0.961 . S
H1976 C1960 0.931 . S
H1977 C1965 0.930 . S
H1978 C1966 0.956 1_556 S
H1979 C1966 0.961 . S
H1980 C1966 0.961 . S
H1981 C1967 0.958 . S
H1982 C1967 0.961 1_554 S
H1983 C1967 0.960 . S
C1984 C1985 1.391 . S
C1984 C1986 1.394 . S
C1984 H2000 0.931 . S
C1985 C1984 1.391 . S
C1985 C1989 1.376 . S
C1986 C1984 1.394 . S
C1986 C1987 1.369 . S
C1986 C1990 1.531 . S
C1987 C1986 1.369 . S
C1987 C1988 1.410 . S
C1987 C1995 1.503 . S
C1988 C1987 1.410 . S
C1988 C1989 1.392 . S
C1988 C1991 1.511 . S
C1989 C1985 1.376 . S
C1989 C1988 1.392 . S
C1989 H2001 0.929 . S
C1990 C1986 1.531 . S
C1990 H2002 0.960 . S
C1990 H2003 0.962 . S
C1990 H2004 0.960 . S
C1991 C1988 1.511 . S
C1991 H2005 0.961 . S
C1991 H2006 0.961 . S
C1991 H2007 0.961 . S
C1992 C1993 1.370 . S
C1992 C1994 1.363 . S
C1992 H2008 0.931 . S
C1993 C1992 1.370 . S
C1993 C1997 1.408 . S
C1994 C1992 1.363 . S
C1994 C1995 1.370 . S
C1994 C1998 1.524 . S
C1995 C1987 1.503 . S
C1995 C1994 1.370 . S
C1995 C1996 1.403 . S
C1996 C1995 1.403 . S
C1996 C1997 1.404 . S
C1996 C1999 1.539 . S
C1997 C1993 1.408 . S
C1997 C1996 1.404 . S
C1997 H2009 0.930 . S
C1998 C1994 1.524 . S
C1998 H2010 0.956 . S
C1998 H2011 0.961 . S
C1998 H2012 0.961 . S
C1999 C1996 1.539 . S
C1999 H2013 0.958 . S
C1999 H2014 0.961 . S
C1999 H2015 0.960 . S
H2000 C1984 0.931 . S
H2001 C1989 0.929 . S
H2002 C1990 0.960 . S
H2003 C1990 0.962 . S
H2004 C1990 0.960 . S
H2005 C1991 0.961 . S
H2006 C1991 0.961 . S
H2007 C1991 0.961 . S
H2008 C1992 0.931 . S
H2009 C1997 0.930 . S
H2010 C1998 0.956 . S
H2011 C1998 0.961 . S
H2012 C1998 0.961 . S
H2013 C1999 0.958 . S
H2014 C1999 0.961 . S
H2015 C1999 0.960 . S
C2016 C2017 1.391 . S
C2016 C2018 1.394 . S
C2016 H2032 0.931 . S
C2017 C2016 1.391 . S
C2017 C2021 1.376 . S
C2018 C2016 1.394 . S
C2018 C2019 1.369 . S
C2018 C2022 1.531 . S
C2019 C2018 1.369 . S
C2019 C2020 1.410 . S
C2019 C2027 1.503 . S
C2020 C2019 1.410 . S
C2020 C2021 1.392 . S
C2020 C2023 1.511 . S
C2021 C2017 1.376 . S
C2021 C2020 1.392 . S
C2021 H2033 0.929 . S
C2022 C2018 1.531 . S
C2022 H2034 0.960 . S
C2022 H2035 0.962 . S
C2022 H2036 0.960 . S
C2023 C2020 1.511 . S
C2023 H2037 0.961 . S
C2023 H2038 0.961 . S
C2023 H2039 0.961 . S
C2024 C2025 1.370 . S
C2024 C2026 1.363 . S
C2024 H2040 0.931 . S
C2025 C2024 1.370 . S
C2025 C2029 1.408 . S
C2026 C2024 1.363 . S
C2026 C2027 1.370 . S
C2026 C2030 1.524 . S
C2027 C2019 1.503 . S
C2027 C2026 1.370 . S
C2027 C2028 1.403 . S
C2028 C2027 1.403 . S
C2028 C2029 1.404 . S
C2028 C2031 1.539 . S
C2029 C2025 1.408 . S
C2029 C2028 1.404 . S
C2029 H2041 0.930 . S
C2030 C2026 1.524 . S
C2030 H2042 0.956 . S
C2030 H2043 0.961 . S
C2030 H2044 0.961 . S
C2031 C2028 1.539 . S
C2031 H2045 0.958 . S
C2031 H2046 0.961 . S
C2031 H2047 0.960 . S
H2032 C2016 0.931 . S
H2033 C2021 0.929 . S
H2034 C2022 0.960 . S
H2035 C2022 0.962 . S
H2036 C2022 0.960 . S
H2037 C2023 0.961 . S
H2038 C2023 0.961 . S
H2039 C2023 0.961 . S
H2040 C2024 0.931 . S
H2041 C2029 0.930 . S
H2042 C2030 0.956 . S
H2043 C2030 0.961 . S
H2044 C2030 0.961 . S
H2045 C2031 0.958 . S
H2046 C2031 0.961 . S
H2047 C2031 0.960 . S
C2048 C2049 1.391 . S
C2048 C2050 1.394 . S
C2048 H2064 0.931 . S
C2049 C2048 1.391 . S
C2049 C2053 1.376 . S
C2050 C2048 1.394 . S
C2050 C2051 1.369 . S
C2050 C2054 1.531 . S
C2051 C2050 1.369 . S
C2051 C2052 1.410 . S
C2051 C2059 1.503 . S
C2052 C2051 1.410 . S
C2052 C2053 1.392 . S
C2052 C2055 1.511 . S
C2053 C2049 1.376 . S
C2053 C2052 1.392 . S
C2053 H2065 0.929 . S
C2054 C2050 1.531 . S
C2054 H2066 0.960 . S
C2054 H2067 0.962 . S
C2054 H2068 0.960 . S
C2055 C2052 1.511 . S
C2055 H2069 0.961 . S
C2055 H2070 0.961 . S
C2055 H2071 0.961 . S
C2056 C2057 1.370 . S
C2056 C2058 1.363 . S
C2056 H2072 0.931 . S
C2057 C2056 1.370 . S
C2057 C2061 1.408 . S
C2058 C2056 1.363 . S
C2058 C2059 1.370 . S
C2058 C2062 1.524 . S
C2059 C2051 1.503 . S
C2059 C2058 1.370 . S
C2059 C2060 1.403 . S
C2060 C2059 1.403 . S
C2060 C2061 1.404 . S
C2060 C2063 1.539 . S
C2061 C2057 1.408 . S
C2061 C2060 1.404 . S
C2061 H2073 0.930 . S
C2062 C2058 1.524 . S
C2062 H2074 0.956 . S
C2062 H2075 0.961 . S
C2062 H2076 0.961 . S
C2063 C2060 1.539 . S
C2063 H2077 0.958 . S
C2063 H2078 0.961 . S
C2063 H2079 0.960 . S
H2064 C2048 0.931 . S
H2065 C2053 0.929 . S
H2066 C2054 0.960 . S
H2067 C2054 0.962 . S
H2068 C2054 0.960 . S
H2069 C2055 0.961 . S
H2070 C2055 0.961 . S
H2071 C2055 0.961 . S
H2072 C2056 0.931 . S
H2073 C2061 0.930 . S
H2074 C2062 0.956 . S
H2075 C2062 0.961 . S
H2076 C2062 0.961 . S
H2077 C2063 0.958 . S
H2078 C2063 0.961 . S
H2079 C2063 0.960 . S
C2080 C2081 1.391 . S
C2080 C2082 1.394 . S
C2080 H2096 0.931 . S
C2081 C2080 1.391 . S
C2081 C2085 1.376 . S
C2082 C2080 1.394 . S
C2082 C2083 1.369 . S
C2082 C2086 1.531 . S
C2083 C2082 1.369 . S
C2083 C2084 1.410 . S
C2083 C2091 1.503 . S
C2084 C2083 1.410 . S
C2084 C2085 1.392 . S
C2084 C2087 1.511 . S
C2085 C2081 1.376 . S
C2085 C2084 1.392 . S
C2085 H2097 0.929 . S
C2086 C2082 1.531 . S
C2086 H2098 0.960 . S
C2086 H2099 0.962 . S
C2086 H2100 0.960 . S
C2087 C2084 1.511 . S
C2087 H2101 0.961 . S
C2087 H2102 0.961 . S
C2087 H2103 0.961 . S
C2088 C2089 1.370 . S
C2088 C2090 1.363 . S
C2088 H2104 0.931 . S
C2089 C2088 1.370 . S
C2089 C2093 1.408 . S
C2090 C2088 1.363 . S
C2090 C2091 1.370 . S
C2090 C2094 1.524 . S
C2091 C2083 1.503 . S
C2091 C2090 1.370 . S
C2091 C2092 1.403 . S
C2092 C2091 1.403 . S
C2092 C2093 1.404 . S
C2092 C2095 1.539 . S
C2093 C2089 1.408 . S
C2093 C2092 1.404 . S
C2093 H2105 0.930 . S
C2094 C2090 1.524 . S
C2094 H2106 0.956 . S
C2094 H2107 0.961 . S
C2094 H2108 0.961 . S
C2095 C2092 1.539 . S
C2095 H2109 0.958 . S
C2095 H2110 0.961 . S
C2095 H2111 0.960 . S
H2096 C2080 0.931 . S
H2097 C2085 0.929 . S
H2098 C2086 0.960 . S
H2099 C2086 0.962 . S
H2100 C2086 0.960 . S
H2101 C2087 0.961 . S
H2102 C2087 0.961 . S
H2103 C2087 0.961 . S
H2104 C2088 0.931 . S
H2105 C2093 0.930 . S
H2106 C2094 0.956 . S
H2107 C2094 0.961 . S
H2108 C2094 0.961 . S
H2109 C2095 0.958 . S
H2110 C2095 0.961 . S
H2111 C2095 0.960 . S
C2112 C2113 1.391 . S
C2112 C2114 1.394 . S
C2112 H2128 0.931 . S
C2113 C2112 1.391 . S
C2113 C2117 1.376 . S
C2114 C2112 1.394 . S
C2114 C2115 1.369 . S
C2114 C2118 1.531 . S
C2115 C2114 1.369 . S
C2115 C2116 1.410 . S
C2115 C2123 1.503 . S
C2116 C2115 1.410 . S
C2116 C2117 1.392 . S
C2116 C2119 1.511 . S
C2117 C2113 1.376 . S
C2117 C2116 1.392 . S
C2117 H2129 0.929 . S
C2118 C2114 1.531 . S
C2118 H2130 0.960 . S
C2118 H2131 0.962 . S
C2118 H2132 0.960 . S
C2119 C2116 1.511 . S
C2119 H2133 0.961 . S
C2119 H2134 0.961 . S
C2119 H2135 0.961 . S
C2120 C2121 1.370 . S
C2120 C2122 1.363 . S
C2120 H2136 0.931 . S
C2121 C2120 1.370 . S
C2121 C2125 1.408 . S
C2122 C2120 1.363 . S
C2122 C2123 1.370 . S
C2122 C2126 1.524 . S
C2123 C2115 1.503 . S
C2123 C2122 1.370 . S
C2123 C2124 1.403 . S
C2124 C2123 1.403 . S
C2124 C2125 1.404 . S
C2124 C2127 1.539 . S
C2125 C2121 1.408 . S
C2125 C2124 1.404 . S
C2125 H2137 0.930 . S
C2126 C2122 1.524 . S
C2126 H2138 0.956 . S
C2126 H2139 0.961 . S
C2126 H2140 0.961 . S
C2127 C2124 1.539 . S
C2127 H2141 0.958 . S
C2127 H2142 0.961 . S
C2127 H2143 0.960 . S
H2128 C2112 0.931 . S
H2129 C2117 0.929 . S
H2130 C2118 0.960 . S
H2131 C2118 0.962 . S
H2132 C2118 0.960 . S
H2133 C2119 0.961 . S
H2134 C2119 0.961 . S
H2135 C2119 0.961 . S
H2136 C2120 0.931 . S
H2137 C2125 0.930 . S
H2138 C2126 0.956 . S
H2139 C2126 0.961 . S
H2140 C2126 0.961 . S
H2141 C2127 0.958 . S
H2142 C2127 0.961 . S
H2143 C2127 0.960 . S
C2144 C2145 1.391 . S
C2144 C2146 1.394 . S
C2144 H2160 0.931 . S
C2145 C2144 1.391 . S
C2145 C2149 1.376 . S
C2146 C2144 1.394 . S
C2146 C2147 1.369 . S
C2146 C2150 1.531 . S
C2147 C2146 1.369 . S
C2147 C2148 1.410 . S
C2147 C2155 1.503 . S
C2148 C2147 1.410 . S
C2148 C2149 1.392 . S
C2148 C2151 1.511 . S
C2149 C2145 1.376 . S
C2149 C2148 1.392 . S
C2149 H2161 0.929 . S
C2150 C2146 1.531 . S
C2150 H2162 0.960 . S
C2150 H2163 0.962 . S
C2150 H2164 0.960 . S
C2151 C2148 1.511 . S
C2151 H2165 0.961 . S
C2151 H2166 0.961 . S
C2151 H2167 0.961 . S
C2152 C2153 1.370 . S
C2152 C2154 1.363 . S
C2152 H2168 0.931 . S
C2153 C2152 1.370 . S
C2153 C2157 1.408 . S
C2154 C2152 1.363 . S
C2154 C2155 1.370 . S
C2154 C2158 1.524 . S
C2155 C2147 1.503 . S
C2155 C2154 1.370 . S
C2155 C2156 1.403 . S
C2156 C2155 1.403 . S
C2156 C2157 1.404 . S
C2156 C2159 1.539 . S
C2157 C2153 1.408 . S
C2157 C2156 1.404 . S
C2157 H2169 0.930 . S
C2158 C2154 1.524 . S
C2158 H2170 0.956 . S
C2158 H2171 0.961 . S
C2158 H2172 0.961 . S
C2159 C2156 1.539 . S
C2159 H2173 0.958 . S
C2159 H2174 0.961 . S
C2159 H2175 0.960 . S
H2160 C2144 0.931 . S
H2161 C2149 0.929 . S
H2162 C2150 0.960 . S
H2163 C2150 0.962 . S
H2164 C2150 0.960 . S
H2165 C2151 0.961 . S
H2166 C2151 0.961 . S
H2167 C2151 0.961 . S
H2168 C2152 0.931 . S
H2169 C2157 0.930 . S
H2170 C2158 0.956 . S
H2171 C2158 0.961 . S
H2172 C2158 0.961 . S
H2173 C2159 0.958 . S
H2174 C2159 0.961 . S
H2175 C2159 0.960 . S
C2176 C2177 1.391 . S
C2176 C2178 1.394 . S
C2176 H2192 0.931 . S
C2177 C2176 1.391 . S
C2177 C2181 1.376 . S
C2178 C2176 1.394 . S
C2178 C2179 1.369 . S
C2178 C2182 1.531 . S
C2179 C2178 1.369 . S
C2179 C2180 1.410 . S
C2179 C2187 1.503 . S
C2180 C2179 1.410 . S
C2180 C2181 1.392 . S
C2180 C2183 1.511 . S
C2181 C2177 1.376 . S
C2181 C2180 1.392 . S
C2181 H2193 0.929 . S
C2182 C2178 1.531 . S
C2182 H2194 0.960 . S
C2182 H2195 0.962 . S
C2182 H2196 0.960 . S
C2183 C2180 1.511 . S
C2183 H2197 0.961 . S
C2183 H2198 0.961 . S
C2183 H2199 0.961 . S
C2184 C2185 1.370 . S
C2184 C2186 1.363 . S
C2184 H2200 0.931 . S
C2185 C2184 1.370 . S
C2185 C2189 1.408 . S
C2186 C2184 1.363 . S
C2186 C2187 1.370 . S
C2186 C2190 1.524 . S
C2187 C2179 1.503 . S
C2187 C2186 1.370 . S
C2187 C2188 1.403 . S
C2188 C2187 1.403 . S
C2188 C2189 1.404 . S
C2188 C2191 1.539 . S
C2189 C2185 1.408 . S
C2189 C2188 1.404 . S
C2189 H2201 0.930 . S
C2190 C2186 1.524 . S
C2190 H2202 0.956 . S
C2190 H2203 0.961 . S
C2190 H2204 0.961 . S
C2191 C2188 1.539 . S
C2191 H2205 0.958 . S
C2191 H2206 0.961 . S
C2191 H2207 0.960 . S
H2192 C2176 0.931 . S
H2193 C2181 0.929 . S
H2194 C2182 0.960 . S
H2195 C2182 0.962 . S
H2196 C2182 0.960 . S
H2197 C2183 0.961 . S
H2198 C2183 0.961 . S
H2199 C2183 0.961 . S
H2200 C2184 0.931 . S
H2201 C2189 0.930 . S
H2202 C2190 0.956 . S
H2203 C2190 0.961 . S
H2204 C2190 0.961 . S
H2205 C2191 0.958 . S
H2206 C2191 0.961 . S
H2207 C2191 0.960 . S
C2208 C2209 1.391 . S
C2208 C2210 1.394 . S
C2208 H2224 0.931 . S
C2209 C2208 1.391 . S
C2209 C2213 1.376 . S
C2210 C2208 1.394 . S
C2210 C2211 1.369 . S
C2210 C2214 1.531 . S
C2211 C2210 1.369 . S
C2211 C2212 1.410 . S
C2211 C2219 1.503 . S
C2212 C2211 1.410 . S
C2212 C2213 1.392 . S
C2212 C2215 1.511 . S
C2213 C2209 1.376 . S
C2213 C2212 1.392 . S
C2213 H2225 0.929 . S
C2214 C2210 1.531 . S
C2214 H2226 0.960 . S
C2214 H2227 0.962 . S
C2214 H2228 0.960 . S
C2215 C2212 1.511 . S
C2215 H2229 0.961 . S
C2215 H2230 0.961 . S
C2215 H2231 0.961 . S
C2216 C2217 1.370 . S
C2216 C2218 1.363 . S
C2216 H2232 0.931 . S
C2217 C2216 1.370 . S
C2217 C2221 1.408 . S
C2218 C2216 1.363 . S
C2218 C2219 1.370 . S
C2218 C2222 1.524 . S
C2219 C2211 1.503 . S
C2219 C2218 1.370 . S
C2219 C2220 1.403 . S
C2220 C2219 1.403 . S
C2220 C2221 1.404 . S
C2220 C2223 1.539 . S
C2221 C2217 1.408 . S
C2221 C2220 1.404 . S
C2221 H2233 0.930 . S
C2222 C2218 1.524 . S
C2222 H2234 0.956 . S
C2222 H2235 0.961 . S
C2222 H2236 0.961 . S
C2223 C2220 1.539 . S
C2223 H2237 0.958 . S
C2223 H2238 0.961 . S
C2223 H2239 0.960 . S
H2224 C2208 0.931 . S
H2225 C2213 0.929 . S
H2226 C2214 0.960 . S
H2227 C2214 0.962 . S
H2228 C2214 0.960 . S
H2229 C2215 0.961 . S
H2230 C2215 0.961 . S
H2231 C2215 0.961 . S
H2232 C2216 0.931 . S
H2233 C2221 0.930 . S
H2234 C2222 0.956 . S
H2235 C2222 0.961 . S
H2236 C2222 0.961 . S
H2237 C2223 0.958 . S
H2238 C2223 0.961 . S
H2239 C2223 0.960 . S
C2240 C2241 1.391 . S
C2240 C2242 1.394 . S
C2240 H2256 0.931 . S
C2241 C2240 1.391 . S
C2241 C2245 1.376 . S
C2242 C2240 1.394 . S
C2242 C2243 1.369 . S
C2242 C2246 1.531 . S
C2243 C2242 1.369 . S
C2243 C2244 1.410 . S
C2243 C2251 1.503 . S
C2244 C2243 1.410 . S
C2244 C2245 1.392 . S
C2244 C2247 1.511 . S
C2245 C2241 1.376 . S
C2245 C2244 1.392 . S
C2245 H2257 0.929 . S
C2246 C2242 1.531 . S
C2246 H2258 0.960 . S
C2246 H2259 0.962 . S
C2246 H2260 0.960 . S
C2247 C2244 1.511 . S
C2247 H2261 0.961 . S
C2247 H2262 0.961 . S
C2247 H2263 0.961 . S
C2248 C2249 1.370 . S
C2248 C2250 1.363 . S
C2248 H2264 0.931 . S
C2249 C2248 1.370 . S
C2249 C2253 1.408 . S
C2250 C2248 1.363 . S
C2250 C2251 1.370 . S
C2250 C2254 1.524 . S
C2251 C2243 1.503 . S
C2251 C2250 1.370 . S
C2251 C2252 1.403 . S
C2252 C2251 1.403 . S
C2252 C2253 1.404 . S
C2252 C2255 1.539 . S
C2253 C2249 1.408 . S
C2253 C2252 1.404 . S
C2253 H2265 0.930 . S
C2254 C2250 1.524 . S
C2254 H2266 0.956 . S
C2254 H2267 0.961 . S
C2254 H2268 0.961 . S
C2255 C2252 1.539 . S
C2255 H2269 0.958 . S
C2255 H2270 0.961 . S
C2255 H2271 0.960 . S
H2256 C2240 0.931 . S
H2257 C2245 0.929 . S
H2258 C2246 0.960 . S
H2259 C2246 0.962 . S
H2260 C2246 0.960 . S
H2261 C2247 0.961 . S
H2262 C2247 0.961 . S
H2263 C2247 0.961 . S
H2264 C2248 0.931 . S
H2265 C2253 0.930 . S
H2266 C2254 0.956 . S
H2267 C2254 0.961 . S
H2268 C2254 0.961 . S
H2269 C2255 0.958 . S
H2270 C2255 0.961 . S
H2271 C2255 0.960 . S
C2272 C2273 1.391 . S
C2272 C2274 1.394 . S
C2272 H2288 0.931 . S
C2273 C2272 1.391 . S
C2273 C2277 1.376 . S
C2274 C2272 1.394 . S
C2274 C2275 1.369 . S
C2274 C2278 1.531 . S
C2275 C2274 1.369 . S
C2275 C2276 1.410 . S
C2275 C2283 1.503 . S
C2276 C2275 1.410 . S
C2276 C2277 1.392 . S
C2276 C2279 1.511 . S
C2277 C2273 1.376 . S
C2277 C2276 1.392 . S
C2277 H2289 0.929 . S
C2278 C2274 1.531 . S
C2278 H2290 0.960 . S
C2278 H2291 0.962 . S
C2278 H2292 0.960 . S
C2279 C2276 1.511 . S
C2279 H2293 0.961 . S
C2279 H2294 0.961 . S
C2279 H2295 0.961 . S
C2280 C2281 1.370 . S
C2280 C2282 1.363 . S
C2280 H2296 0.931 . S
C2281 C2280 1.370 . S
C2281 C2285 1.408 . S
C2282 C2280 1.363 . S
C2282 C2283 1.370 . S
C2282 C2286 1.524 . S
C2283 C2275 1.503 . S
C2283 C2282 1.370 . S
C2283 C2284 1.403 . S
C2284 C2283 1.403 . S
C2284 C2285 1.404 . S
C2284 C2287 1.539 . S
C2285 C2281 1.408 . S
C2285 C2284 1.404 . S
C2285 H2297 0.930 . S
C2286 C2282 1.524 . S
C2286 H2298 0.956 . S
C2286 H2299 0.961 . S
C2286 H2300 0.961 . S
C2287 C2284 1.539 . S
C2287 H2301 0.958 . S
C2287 H2302 0.961 . S
C2287 H2303 0.960 . S
H2288 C2272 0.931 . S
H2289 C2277 0.929 . S
H2290 C2278 0.960 . S
H2291 C2278 0.962 . S
H2292 C2278 0.960 . S
H2293 C2279 0.961 . S
H2294 C2279 0.961 . S
H2295 C2279 0.961 . S
H2296 C2280 0.931 . S
H2297 C2285 0.930 . S
H2298 C2286 0.956 . S
H2299 C2286 0.961 . S
H2300 C2286 0.961 . S
H2301 C2287 0.958 . S
H2302 C2287 0.961 . S
H2303 C2287 0.960 . S
C2304 C2305 1.391 . S
C2304 C2306 1.394 . S
C2304 H2320 0.931 . S
C2305 C2304 1.391 . S
C2305 C2309 1.376 . S
C2306 C2304 1.394 . S
C2306 C2307 1.369 . S
C2306 C2310 1.531 . S
C2307 C2306 1.369 . S
C2307 C2308 1.410 . S
C2307 C2315 1.503 . S
C2308 C2307 1.410 . S
C2308 C2309 1.392 . S
C2308 C2311 1.511 . S
C2309 C2305 1.376 . S
C2309 C2308 1.392 . S
C2309 H2321 0.929 . S
C2310 C2306 1.531 . S
C2310 H2322 0.960 . S
C2310 H2323 0.962 . S
C2310 H2324 0.960 . S
C2311 C2308 1.511 . S
C2311 H2325 0.961 . S
C2311 H2326 0.961 . S
C2311 H2327 0.961 . S
C2312 C2313 1.370 . S
C2312 C2314 1.363 . S
C2312 H2328 0.931 . S
C2313 C2312 1.370 . S
C2313 C2317 1.408 . S
C2314 C2312 1.363 . S
C2314 C2315 1.370 . S
C2314 C2318 1.524 . S
C2315 C2307 1.503 . S
C2315 C2314 1.370 . S
C2315 C2316 1.403 . S
C2316 C2315 1.403 . S
C2316 C2317 1.404 . S
C2316 C2319 1.539 . S
C2317 C2313 1.408 . S
C2317 C2316 1.404 . S
C2317 H2329 0.930 . S
C2318 C2314 1.524 . S
C2318 H2330 0.956 . S
C2318 H2331 0.961 . S
C2318 H2332 0.961 . S
C2319 C2316 1.539 . S
C2319 H2333 0.958 . S
C2319 H2334 0.961 . S
C2319 H2335 0.960 . S
H2320 C2304 0.931 . S
H2321 C2309 0.929 . S
H2322 C2310 0.960 . S
H2323 C2310 0.962 . S
H2324 C2310 0.960 . S
H2325 C2311 0.961 . S
H2326 C2311 0.961 . S
H2327 C2311 0.961 . S
H2328 C2312 0.931 . S
H2329 C2317 0.930 . S
H2330 C2318 0.956 . S
H2331 C2318 0.961 . S
H2332 C2318 0.961 . S
H2333 C2319 0.958 . S
H2334 C2319 0.961 . S
H2335 C2319 0.960 . S
C2336 C2337 1.391 . S
C2336 C2338 1.394 . S
C2336 H2352 0.931 . S
C2337 C2336 1.391 . S
C2337 C2341 1.376 . S
C2338 C2336 1.394 . S
C2338 C2339 1.369 . S
C2338 C2342 1.531 . S
C2339 C2338 1.369 . S
C2339 C2340 1.410 . S
C2339 C2347 1.503 . S
C2340 C2339 1.410 . S
C2340 C2341 1.392 . S
C2340 C2343 1.511 . S
C2341 C2337 1.376 . S
C2341 C2340 1.392 . S
C2341 H2353 0.929 . S
C2342 C2338 1.531 . S
C2342 H2354 0.960 . S
C2342 H2355 0.962 . S
C2342 H2356 0.960 . S
C2343 C2340 1.511 . S
C2343 H2357 0.961 . S
C2343 H2358 0.961 . S
C2343 H2359 0.961 . S
C2344 C2345 1.370 . S
C2344 C2346 1.363 . S
C2344 H2360 0.931 . S
C2345 C2344 1.370 . S
C2345 C2349 1.408 . S
C2346 C2344 1.363 . S
C2346 C2347 1.370 . S
C2346 C2350 1.524 . S
C2347 C2339 1.503 . S
C2347 C2346 1.370 . S
C2347 C2348 1.403 . S
C2348 C2347 1.403 . S
C2348 C2349 1.404 . S
C2348 C2351 1.539 . S
C2349 C2345 1.408 . S
C2349 C2348 1.404 . S
C2349 H2361 0.930 . S
C2350 C2346 1.524 . S
C2350 H2362 0.956 . S
C2350 H2363 0.961 . S
C2350 H2364 0.961 . S
C2351 C2348 1.539 . S
C2351 H2365 0.958 . S
C2351 H2366 0.961 . S
C2351 H2367 0.960 . S
H2352 C2336 0.931 . S
H2353 C2341 0.929 . S
H2354 C2342 0.960 . S
H2355 C2342 0.962 . S
H2356 C2342 0.960 . S
H2357 C2343 0.961 . S
H2358 C2343 0.961 . S
H2359 C2343 0.961 . S
H2360 C2344 0.931 . S
H2361 C2349 0.930 . S
H2362 C2350 0.956 . S
H2363 C2350 0.961 . S
H2364 C2350 0.961 . S
H2365 C2351 0.958 . S
H2366 C2351 0.961 . S
H2367 C2351 0.960 . S
C2368 C2369 1.391 . S
C2368 C2370 1.394 . S
C2368 H2384 0.931 . S
C2369 C2368 1.391 . S
C2369 C2373 1.376 . S
C2370 C2368 1.394 . S
C2370 C2371 1.369 . S
C2370 C2374 1.531 . S
C2371 C2370 1.369 . S
C2371 C2372 1.410 . S
C2371 C2379 1.503 . S
C2372 C2371 1.410 . S
C2372 C2373 1.392 . S
C2372 C2375 1.511 . S
C2373 C2369 1.376 . S
C2373 C2372 1.392 . S
C2373 H2385 0.929 . S
C2374 C2370 1.531 . S
C2374 H2386 0.960 . S
C2374 H2387 0.962 . S
C2374 H2388 0.960 . S
C2375 C2372 1.511 . S
C2375 H2389 0.961 . S
C2375 H2390 0.961 . S
C2375 H2391 0.961 . S
C2376 C2377 1.370 . S
C2376 C2378 1.363 . S
C2376 H2392 0.931 . S
C2377 C2376 1.370 . S
C2377 C2381 1.408 . S
C2378 C2376 1.363 . S
C2378 C2379 1.370 . S
C2378 C2382 1.524 . S
C2379 C2371 1.503 . S
C2379 C2378 1.370 . S
C2379 C2380 1.403 . S
C2380 C2379 1.403 . S
C2380 C2381 1.404 . S
C2380 C2383 1.539 . S
C2381 C2377 1.408 . S
C2381 C2380 1.404 . S
C2381 H2393 0.930 . S
C2382 C2378 1.524 . S
C2382 H2394 0.956 . S
C2382 H2395 0.961 . S
C2382 H2396 0.961 . S
C2383 C2380 1.539 . S
C2383 H2397 0.958 . S
C2383 H2398 0.961 . S
C2383 H2399 0.960 . S
H2384 C2368 0.931 . S
H2385 C2373 0.929 . S
H2386 C2374 0.960 . S
H2387 C2374 0.962 . S
H2388 C2374 0.960 . S
H2389 C2375 0.961 . S
H2390 C2375 0.961 . S
H2391 C2375 0.961 . S
H2392 C2376 0.931 . S
H2393 C2381 0.930 . S
H2394 C2382 0.956 . S
H2395 C2382 0.961 . S
H2396 C2382 0.961 . S
H2397 C2383 0.958 . S
H2398 C2383 0.961 . S
H2399 C2383 0.960 . S
C2400 C2401 1.391 . S
C2400 C2402 1.394 . S
C2400 H2416 0.931 . S
C2401 C2400 1.391 . S
C2401 C2405 1.376 . S
C2402 C2400 1.394 . S
C2402 C2403 1.369 . S
C2402 C2406 1.531 . S
C2403 C2402 1.369 . S
C2403 C2404 1.410 . S
C2403 C2411 1.503 . S
C2404 C2403 1.410 . S
C2404 C2405 1.392 . S
C2404 C2407 1.511 . S
C2405 C2401 1.376 . S
C2405 C2404 1.392 . S
C2405 H2417 0.929 . S
C2406 C2402 1.531 . S
C2406 H2418 0.960 . S
C2406 H2419 0.962 . S
C2406 H2420 0.960 . S
C2407 C2404 1.511 . S
C2407 H2421 0.961 . S
C2407 H2422 0.961 . S
C2407 H2423 0.961 . S
C2408 C2409 1.370 . S
C2408 C2410 1.363 . S
C2408 H2424 0.931 . S
C2409 C2408 1.370 . S
C2409 C2413 1.408 . S
C2410 C2408 1.363 . S
C2410 C2411 1.370 . S
C2410 C2414 1.524 . S
C2411 C2403 1.503 . S
C2411 C2410 1.370 . S
C2411 C2412 1.403 . S
C2412 C2411 1.403 . S
C2412 C2413 1.404 . S
C2412 C2415 1.539 . S
C2413 C2409 1.408 . S
C2413 C2412 1.404 . S
C2413 H2425 0.930 . S
C2414 C2410 1.524 . S
C2414 H2426 0.956 . S
C2414 H2427 0.961 . S
C2414 H2428 0.961 . S
C2415 C2412 1.539 . S
C2415 H2429 0.958 . S
C2415 H2430 0.961 . S
C2415 H2431 0.960 . S
H2416 C2400 0.931 . S
H2417 C2405 0.929 . S
H2418 C2406 0.960 . S
H2419 C2406 0.962 . S
H2420 C2406 0.960 . S
H2421 C2407 0.961 . S
H2422 C2407 0.961 . S
H2423 C2407 0.961 . S
H2424 C2408 0.931 . S
H2425 C2413 0.930 . S
H2426 C2414 0.956 . S
H2427 C2414 0.961 . S
H2428 C2414 0.961 . S
H2429 C2415 0.958 . S
H2430 C2415 0.961 . S
H2431 C2415 0.960 . S
C2432 C2433 1.391 . S
C2432 C2434 1.394 . S
C2432 H2448 0.931 . S
C2433 C2432 1.391 . S
C2433 C2437 1.376 . S
C2434 C2432 1.394 . S
C2434 C2435 1.369 . S
C2434 C2438 1.531 . S
C2435 C2434 1.369 . S
C2435 C2436 1.410 . S
C2435 C2443 1.503 . S
C2436 C2435 1.410 . S
C2436 C2437 1.392 . S
C2436 C2439 1.511 . S
C2437 C2433 1.376 . S
C2437 C2436 1.392 . S
C2437 H2449 0.929 . S
C2438 C2434 1.531 . S
C2438 H2450 0.960 . S
C2438 H2451 0.962 . S
C2438 H2452 0.960 . S
C2439 C2436 1.511 . S
C2439 H2453 0.961 . S
C2439 H2454 0.961 . S
C2439 H2455 0.961 . S
C2440 C2441 1.370 . S
C2440 C2442 1.363 . S
C2440 H2456 0.931 . S
C2441 C2440 1.370 . S
C2441 C2445 1.408 . S
C2442 C2440 1.363 . S
C2442 C2443 1.370 . S
C2442 C2446 1.524 . S
C2443 C2435 1.503 . S
C2443 C2442 1.370 . S
C2443 C2444 1.403 . S
C2444 C2443 1.403 . S
C2444 C2445 1.404 . S
C2444 C2447 1.539 . S
C2445 C2441 1.408 . S
C2445 C2444 1.404 . S
C2445 H2457 0.930 . S
C2446 C2442 1.524 . S
C2446 H2458 0.956 . S
C2446 H2459 0.961 . S
C2446 H2460 0.961 . S
C2447 C2444 1.539 . S
C2447 H2461 0.958 . S
C2447 H2462 0.961 . S
C2447 H2463 0.960 . S
H2448 C2432 0.931 . S
H2449 C2437 0.929 . S
H2450 C2438 0.960 . S
H2451 C2438 0.962 . S
H2452 C2438 0.960 . S
H2453 C2439 0.961 . S
H2454 C2439 0.961 . S
H2455 C2439 0.961 . S
H2456 C2440 0.931 . S
H2457 C2445 0.930 . S
H2458 C2446 0.956 . S
H2459 C2446 0.961 . S
H2460 C2446 0.961 . S
H2461 C2447 0.958 . S
H2462 C2447 0.961 . S
H2463 C2447 0.960 . S
C2464 C2465 1.391 . S
C2464 C2466 1.394 . S
C2464 H2480 0.931 . S
C2465 C2464 1.391 . S
C2465 C2469 1.376 . S
C2466 C2464 1.394 . S
C2466 C2467 1.369 . S
C2466 C2470 1.531 . S
C2467 C2466 1.369 . S
C2467 C2468 1.410 . S
C2467 C2475 1.503 . S
C2468 C2467 1.410 . S
C2468 C2469 1.392 . S
C2468 C2471 1.511 . S
C2469 C2465 1.376 . S
C2469 C2468 1.392 . S
C2469 H2481 0.929 . S
C2470 C2466 1.531 . S
C2470 H2482 0.960 . S
C2470 H2483 0.962 . S
C2470 H2484 0.960 . S
C2471 C2468 1.511 . S
C2471 H2485 0.961 . S
C2471 H2486 0.961 . S
C2471 H2487 0.961 . S
C2472 C2473 1.370 . S
C2472 C2474 1.363 . S
C2472 H2488 0.931 . S
C2473 C2472 1.370 . S
C2473 C2477 1.408 . S
C2474 C2472 1.363 . S
C2474 C2475 1.370 . S
C2474 C2478 1.524 . S
C2475 C2467 1.503 . S
C2475 C2474 1.370 . S
C2475 C2476 1.403 . S
C2476 C2475 1.403 . S
C2476 C2477 1.404 . S
C2476 C2479 1.539 . S
C2477 C2473 1.408 . S
C2477 C2476 1.404 . S
C2477 H2489 0.930 . S
C2478 C2474 1.524 . S
C2478 H2490 0.956 . S
C2478 H2491 0.961 . S
C2478 H2492 0.961 . S
C2479 C2476 1.539 . S
C2479 H2493 0.958 . S
C2479 H2494 0.961 . S
C2479 H2495 0.960 . S
H2480 C2464 0.931 . S
H2481 C2469 0.929 . S
H2482 C2470 0.960 . S
H2483 C2470 0.962 . S
H2484 C2470 0.960 . S
H2485 C2471 0.961 . S
H2486 C2471 0.961 . S
H2487 C2471 0.961 . S
H2488 C2472 0.931 . S
H2489 C2477 0.930 . S
H2490 C2478 0.956 . S
H2491 C2478 0.961 . S
H2492 C2478 0.961 . S
H2493 C2479 0.958 . S
H2494 C2479 0.961 . S
H2495 C2479 0.960 . S
C449 C148 1.362 . S
C457 C8 1.380 . S
C481 C22 1.352 . S
C489 C162 1.375 . S
C513 C36 1.348 . S
C521 C120 1.373 . S
C545 C134 1.410 . S
C553 C50 1.391 . S
C577 C205 1.346 . S
C585 C65 1.376 . S
C609 C79 1.382 . S
C617 C219 1.391 . S
C641 C177 1.389 . S
C649 C93 1.393 . S
C673 C191 1.383 . S
C681 C107 1.391 . S
C705 C372 1.391 . S
C713 C232 1.379 . S
C737 C386 1.352 . S
C745 C246 1.376 . S
C769 C344 1.345 . S
C777 C260 1.371 . S
C801 C274 1.367 . S
C809 C358 1.369 . S
C833 C429 1.360 . S
C841 C289 1.365 . S
C865 C443 1.405 . S
C873 C303 1.382 . S
C897 C317 1.343 . S
C905 C401 1.373 . S
C929 C331 1.388 . S
C937 C415 1.392 . S
C961 C272 1.324 . S
C969 C6 1.295 . S
C993 C20 1.294 1_655 S
C1001 C258 1.272 . S
C1025 C244 1.299 . S
C1033 C34 1.306 . S
C1057 C230 1.285 . S
C1065 C48 1.274 1_655 S
C1089 C63 1.333 . S
C1097 C329 1.281 . S
C1121 C77 1.245 1_455 S
C1129 C315 1.297 . S
C1153 C301 1.328 . S
C1161 C91 1.286 . S
C1185 C105 1.274 1_455 S
C1193 C287 1.282 . S
C1217 C384 1.334 . S
C1225 C118 1.279 . S
C1249 C370 1.288 . S
C1257 C132 1.308 1_655 S
C1281 C356 1.316 . S
C1289 C146 1.299 . S
C1313 C342 1.320 . S
C1321 C160 1.271 1_655 S
C1345 C175 1.280 . S
C1353 C441 1.280 . S
C1377 C427 1.299 . S
C1385 C189 1.301 1_455 S
C1409 C203 1.312 . S
C1417 C413 1.295 . S
C1441 C217 1.301 1_455 S
C1449 C399 1.300 . S
C1473 C174 1.470 . S
C1481 C7 1.436 . S
C1505 C21 1.434 . S
C1513 C300 1.450 . S
C1537 C90 1.458 . S
C1545 C35 1.445 . S
C1569 C440 1.441 . S
C1577 C49 1.448 . S
C1601 C62 1.418 . S
C1609 C119 1.460 . S
C1633 C245 1.421 . S
C1641 C76 1.456 . S
C1665 C385 1.474 . S
C1673 C104 1.435 . S
C1697 C412 1.424 . S
C1705 C133 1.458 . S
C1729 C147 1.435 . S
C1737 C202 1.454 . S
C1761 C328 1.434 . S
C1769 C161 1.454 . S
C1793 C357 1.464 . S
C1801 C188 1.441 . S
C1825 C216 1.474 . S
C1833 C273 1.435 . S
C1857 C231 1.424 . S
C1865 C398 1.455 . S
C1889 C314 1.474 . S
C1897 C259 1.436 . S
C1921 C343 1.428 . S
C1929 C286 1.453 . S
C1953 C371 1.427 . S
C1961 C426 1.457 . S
C1985 C9 1.097 . S
C1993 C51 1.094 . S
C2017 C37 1.118 . S
C2025 C23 1.105 . S
C2049 C64 1.100 . S
C2057 C106 1.100 . S
C2081 C78 1.080 . S
C2089 C92 1.091 . S
C2113 C121 1.079 . S
C2121 C163 1.092 . S
C2145 C135 1.117 . S
C2153 C149 1.104 . S
C2177 C176 1.065 . S
C2185 C218 1.084 . S
C2209 C204 1.065 . S
C2217 C190 1.084 . S
C2241 C275 1.065 . S
C2249 C233 1.085 . S
C2273 C261 1.116 . S
C2281 C247 1.106 . S
C2305 C330 1.116 . S
C2313 C288 1.104 . S
C2337 C316 1.118 . S
C2345 C302 1.105 . S
C2369 C387 1.071 . S
C2377 C345 1.088 . S
C2401 C373 1.102 . S
C2409 C359 1.097 . S
C2433 C400 1.113 . S
C2441 C442 1.102 . S
C2465 C428 1.118 . S
C2473 C414 1.105 . S
