# Generated by pormake.
# Topology utc, (3)-cn, num edge types: 1
# Building blocks:
#     Node 0, Type 0, BuildingBlock: OLANEW_clean_sbu_2, # of connection points: 3
#     Node 1, Type 0, BuildingBlock: OLANEW_clean_sbu_2, # of connection points: 3
#     Node 2, Type 0, BuildingBlock: OLANEW_clean_sbu_2, # of connection points: 3
#     Node 3, Type 0, BuildingBlock: OLANEW_clean_sbu_2, # of connection points: 3
#     Node 4, Type 0, BuildingBlock: OLANEW_clean_sbu_2, # of connection points: 3
#     Node 5, Type 0, BuildingBlock: OLANEW_clean_sbu_2, # of connection points: 3
#     Node 6, Type 0, BuildingBlock: OLANEW_clean_sbu_2, # of connection points: 3
#     Node 7, Type 0, BuildingBlock: OLANEW_clean_sbu_2, # of connection points: 3
#     Node 8, Type 0, BuildingBlock: OLANEW_clean_sbu_2, # of connection points: 3
#     Node 9, Type 0, BuildingBlock: OLANEW_clean_sbu_2, # of connection points: 3
#     Node 10, Type 0, BuildingBlock: OLANEW_clean_sbu_2, # of connection points: 3
#     Node 11, Type 0, BuildingBlock: OLANEW_clean_sbu_2, # of connection points: 3
#     Node 12, Type 0, BuildingBlock: OLANEW_clean_sbu_2, # of connection points: 3
#     Node 13, Type 0, BuildingBlock: OLANEW_clean_sbu_2, # of connection points: 3
#     Node 14, Type 0, BuildingBlock: OLANEW_clean_sbu_2, # of connection points: 3
#     Node 15, Type 0, BuildingBlock: OLANEW_clean_sbu_2, # of connection points: 3
#     Node 16, Type 0, BuildingBlock: OLANEW_clean_sbu_2, # of connection points: 3
#     Node 17, Type 0, BuildingBlock: OLANEW_clean_sbu_2, # of connection points: 3
#     Node 18, Type 0, BuildingBlock: OLANEW_clean_sbu_2, # of connection points: 3
#     Node 19, Type 0, BuildingBlock: OLANEW_clean_sbu_2, # of connection points: 3
#     Node 20, Type 0, BuildingBlock: OLANEW_clean_sbu_2, # of connection points: 3
#     Node 21, Type 0, BuildingBlock: OLANEW_clean_sbu_2, # of connection points: 3
#     Node 22, Type 0, BuildingBlock: OLANEW_clean_sbu_2, # of connection points: 3
#     Node 23, Type 0, BuildingBlock: OLANEW_clean_sbu_2, # of connection points: 3
#     Node 24, Type 0, BuildingBlock: OLANEW_clean_sbu_2, # of connection points: 3
#     Node 25, Type 0, BuildingBlock: OLANEW_clean_sbu_2, # of connection points: 3
#     Node 26, Type 0, BuildingBlock: OLANEW_clean_sbu_2, # of connection points: 3
#     Node 27, Type 0, BuildingBlock: OLANEW_clean_sbu_2, # of connection points: 3
#     Node 28, Type 0, BuildingBlock: OLANEW_clean_sbu_2, # of connection points: 3
#     Node 29, Type 0, BuildingBlock: OLANEW_clean_sbu_2, # of connection points: 3
#     Node 30, Type 0, BuildingBlock: OLANEW_clean_sbu_2, # of connection points: 3
#     Node 31, Type 0, BuildingBlock: OLANEW_clean_sbu_2, # of connection points: 3
#     Node 32, Type 0, BuildingBlock: OLANEW_clean_sbu_2, # of connection points: 3
#     Node 33, Type 0, BuildingBlock: OLANEW_clean_sbu_2, # of connection points: 3
#     Node 34, Type 0, BuildingBlock: OLANEW_clean_sbu_2, # of connection points: 3
#     Node 35, Type 0, BuildingBlock: OLANEW_clean_sbu_2, # of connection points: 3
#     Node 36, Type 0, BuildingBlock: OLANEW_clean_sbu_2, # of connection points: 3
#     Node 37, Type 0, BuildingBlock: OLANEW_clean_sbu_2, # of connection points: 3
#     Node 38, Type 0, BuildingBlock: OLANEW_clean_sbu_2, # of connection points: 3
#     Node 39, Type 0, BuildingBlock: OLANEW_clean_sbu_2, # of connection points: 3
#     Node 40, Type 0, BuildingBlock: OLANEW_clean_sbu_2, # of connection points: 3
#     Node 41, Type 0, BuildingBlock: OLANEW_clean_sbu_2, # of connection points: 3
#     Node 42, Type 0, BuildingBlock: OLANEW_clean_sbu_2, # of connection points: 3
#     Node 43, Type 0, BuildingBlock: OLANEW_clean_sbu_2, # of connection points: 3
#     Node 44, Type 0, BuildingBlock: OLANEW_clean_sbu_2, # of connection points: 3
#     Node 45, Type 0, BuildingBlock: OLANEW_clean_sbu_2, # of connection points: 3
#     Node 46, Type 0, BuildingBlock: OLANEW_clean_sbu_2, # of connection points: 3
#     Node 47, Type 0, BuildingBlock: OLANEW_clean_sbu_2, # of connection points: 3
#     Edge 48, Type (0, 0), BuildingBlock: OJICUG_clean_linker_0, # of connection points: 2
#     Edge 49, Type (0, 0), BuildingBlock: OJICUG_clean_linker_0, # of connection points: 2
#     Edge 50, Type (0, 0), BuildingBlock: OJICUG_clean_linker_0, # of connection points: 2
#     Edge 51, Type (0, 0), BuildingBlock: OJICUG_clean_linker_0, # of connection points: 2
#     Edge 52, Type (0, 0), BuildingBlock: OJICUG_clean_linker_0, # of connection points: 2
#     Edge 53, Type (0, 0), BuildingBlock: OJICUG_clean_linker_0, # of connection points: 2
#     Edge 54, Type (0, 0), BuildingBlock: OJICUG_clean_linker_0, # of connection points: 2
#     Edge 55, Type (0, 0), BuildingBlock: OJICUG_clean_linker_0, # of connection points: 2
#     Edge 56, Type (0, 0), BuildingBlock: OJICUG_clean_linker_0, # of connection points: 2
#     Edge 57, Type (0, 0), BuildingBlock: OJICUG_clean_linker_0, # of connection points: 2
#     Edge 58, Type (0, 0), BuildingBlock: OJICUG_clean_linker_0, # of connection points: 2
#     Edge 59, Type (0, 0), BuildingBlock: OJICUG_clean_linker_0, # of connection points: 2
#     Edge 60, Type (0, 0), BuildingBlock: OJICUG_clean_linker_0, # of connection points: 2
#     Edge 61, Type (0, 0), BuildingBlock: OJICUG_clean_linker_0, # of connection points: 2
#     Edge 62, Type (0, 0), BuildingBlock: OJICUG_clean_linker_0, # of connection points: 2
#     Edge 63, Type (0, 0), BuildingBlock: OJICUG_clean_linker_0, # of connection points: 2
#     Edge 64, Type (0, 0), BuildingBlock: OJICUG_clean_linker_0, # of connection points: 2
#     Edge 65, Type (0, 0), BuildingBlock: OJICUG_clean_linker_0, # of connection points: 2
#     Edge 66, Type (0, 0), BuildingBlock: OJICUG_clean_linker_0, # of connection points: 2
#     Edge 67, Type (0, 0), BuildingBlock: OJICUG_clean_linker_0, # of connection points: 2
#     Edge 68, Type (0, 0), BuildingBlock: OJICUG_clean_linker_0, # of connection points: 2
#     Edge 69, Type (0, 0), BuildingBlock: OJICUG_clean_linker_0, # of connection points: 2
#     Edge 70, Type (0, 0), BuildingBlock: OJICUG_clean_linker_0, # of connection points: 2
#     Edge 71, Type (0, 0), BuildingBlock: OJICUG_clean_linker_0, # of connection points: 2
#     Edge 72, Type (0, 0), BuildingBlock: OJICUG_clean_linker_0, # of connection points: 2
#     Edge 73, Type (0, 0), BuildingBlock: OJICUG_clean_linker_0, # of connection points: 2
#     Edge 74, Type (0, 0), BuildingBlock: OJICUG_clean_linker_0, # of connection points: 2
#     Edge 75, Type (0, 0), BuildingBlock: OJICUG_clean_linker_0, # of connection points: 2
#     Edge 76, Type (0, 0), BuildingBlock: OJICUG_clean_linker_0, # of connection points: 2
#     Edge 77, Type (0, 0), BuildingBlock: OJICUG_clean_linker_0, # of connection points: 2
#     Edge 78, Type (0, 0), BuildingBlock: OJICUG_clean_linker_0, # of connection points: 2
#     Edge 79, Type (0, 0), BuildingBlock: OJICUG_clean_linker_0, # of connection points: 2
#     Edge 80, Type (0, 0), BuildingBlock: OJICUG_clean_linker_0, # of connection points: 2
#     Edge 81, Type (0, 0), BuildingBlock: OJICUG_clean_linker_0, # of connection points: 2
#     Edge 82, Type (0, 0), BuildingBlock: OJICUG_clean_linker_0, # of connection points: 2
#     Edge 83, Type (0, 0), BuildingBlock: OJICUG_clean_linker_0, # of connection points: 2
#     Edge 84, Type (0, 0), BuildingBlock: OJICUG_clean_linker_0, # of connection points: 2
#     Edge 85, Type (0, 0), BuildingBlock: OJICUG_clean_linker_0, # of connection points: 2
#     Edge 86, Type (0, 0), BuildingBlock: OJICUG_clean_linker_0, # of connection points: 2
#     Edge 87, Type (0, 0), BuildingBlock: OJICUG_clean_linker_0, # of connection points: 2
#     Edge 88, Type (0, 0), BuildingBlock: OJICUG_clean_linker_0, # of connection points: 2
#     Edge 89, Type (0, 0), BuildingBlock: OJICUG_clean_linker_0, # of connection points: 2
#     Edge 90, Type (0, 0), BuildingBlock: OJICUG_clean_linker_0, # of connection points: 2
#     Edge 91, Type (0, 0), BuildingBlock: OJICUG_clean_linker_0, # of connection points: 2
#     Edge 92, Type (0, 0), BuildingBlock: OJICUG_clean_linker_0, # of connection points: 2
#     Edge 93, Type (0, 0), BuildingBlock: OJICUG_clean_linker_0, # of connection points: 2
#     Edge 94, Type (0, 0), BuildingBlock: OJICUG_clean_linker_0, # of connection points: 2
#     Edge 95, Type (0, 0), BuildingBlock: OJICUG_clean_linker_0, # of connection points: 2
#     Edge 96, Type (0, 0), BuildingBlock: OJICUG_clean_linker_0, # of connection points: 2
#     Edge 97, Type (0, 0), BuildingBlock: OJICUG_clean_linker_0, # of connection points: 2
#     Edge 98, Type (0, 0), BuildingBlock: OJICUG_clean_linker_0, # of connection points: 2
#     Edge 99, Type (0, 0), BuildingBlock: OJICUG_clean_linker_0, # of connection points: 2
#     Edge 100, Type (0, 0), BuildingBlock: OJICUG_clean_linker_0, # of connection points: 2
#     Edge 101, Type (0, 0), BuildingBlock: OJICUG_clean_linker_0, # of connection points: 2
#     Edge 102, Type (0, 0), BuildingBlock: OJICUG_clean_linker_0, # of connection points: 2
#     Edge 103, Type (0, 0), BuildingBlock: OJICUG_clean_linker_0, # of connection points: 2
#     Edge 104, Type (0, 0), BuildingBlock: OJICUG_clean_linker_0, # of connection points: 2
#     Edge 105, Type (0, 0), BuildingBlock: OJICUG_clean_linker_0, # of connection points: 2
#     Edge 106, Type (0, 0), BuildingBlock: OJICUG_clean_linker_0, # of connection points: 2
#     Edge 107, Type (0, 0), BuildingBlock: OJICUG_clean_linker_0, # of connection points: 2
#     Edge 108, Type (0, 0), BuildingBlock: OJICUG_clean_linker_0, # of connection points: 2
#     Edge 109, Type (0, 0), BuildingBlock: OJICUG_clean_linker_0, # of connection points: 2
#     Edge 110, Type (0, 0), BuildingBlock: OJICUG_clean_linker_0, # of connection points: 2
#     Edge 111, Type (0, 0), BuildingBlock: OJICUG_clean_linker_0, # of connection points: 2
#     Edge 112, Type (0, 0), BuildingBlock: OJICUG_clean_linker_0, # of connection points: 2
#     Edge 113, Type (0, 0), BuildingBlock: OJICUG_clean_linker_0, # of connection points: 2
#     Edge 114, Type (0, 0), BuildingBlock: OJICUG_clean_linker_0, # of connection points: 2
#     Edge 115, Type (0, 0), BuildingBlock: OJICUG_clean_linker_0, # of connection points: 2
#     Edge 116, Type (0, 0), BuildingBlock: OJICUG_clean_linker_0, # of connection points: 2
#     Edge 117, Type (0, 0), BuildingBlock: OJICUG_clean_linker_0, # of connection points: 2
#     Edge 118, Type (0, 0), BuildingBlock: OJICUG_clean_linker_0, # of connection points: 2
#     Edge 119, Type (0, 0), BuildingBlock: OJICUG_clean_linker_0, # of connection points: 2
# Relax obj value: 0.000
# Max RMSD: 0.028
# Mean RMSD: 0.028
data_MOF--net-utc--node1-OLANEW_clean_sbu_2--edge1-OJICUG_clean_linker_0
_symmetry_space_group_name_H-M    P1
_symmetry_Int_Tables_number       1
_symmetry_cell_setting            triclinic
loop_
_symmetry_equiv_pos_as_xyz
'x, y, z'
_cell_length_a     62.826122
_cell_length_b     62.546876
_cell_length_c     62.582251
_cell_angle_alpha  89.989504
_cell_angle_beta   90.029121
_cell_angle_gamma 90.061667
loop_
_atom_site_label
_atom_site_type_symbol
_atom_site_fract_x
_atom_site_fract_y
_atom_site_fract_z
_atom_type_partial_charge
O0 O 0.04459 0.13026 0.26512 0.0
Cd1 Cd 0.06233 0.1476 0.29536 0.0
O2 O 0.03873 0.1608 0.24877 0.0
Cd3 Cd 0.05043 0.18039 0.27504 0.0
O4 O 0.03725 0.20701 0.293 0.0
C5 C 0.01827 0.20439 0.29954 0.0
O6 O 0.00938 0.1855 0.29724 0.0
C7 C 0.03725 0.14056 0.2492 0.0
C8 C 0.08769 0.12005 0.31948 0.0
O9 O 0.0677 0.1218 0.32317 0.0
O10 O 0.09565 0.13115 0.30423 0.0
O11 O 0.09928 0.77715 0.54033 0.0
Cd12 Cd 0.0828 0.79773 0.56925 0.0
O13 O 0.08774 0.79738 0.51402 0.0
Cd14 Cd 0.06539 0.81198 0.5362 0.0
O15 O 0.03577 0.80038 0.55022 0.0
C16 C 0.03539 0.78044 0.55425 0.0
O17 O 0.05278 0.76922 0.55115 0.0
C18 C 0.09872 0.7816 0.52048 0.0
C19 C 0.10727 0.83181 0.58441 0.0
O20 O 0.10964 0.81288 0.5919 0.0
O21 O 0.09359 0.83456 0.56945 0.0
O22 O 0.42514 0.84939 0.752 0.0
Cd23 Cd 0.39741 0.83327 0.77419 0.0
O24 O 0.44594 0.82114 0.7527 0.0
Cd25 Cd 0.42832 0.80201 0.77577 0.0
O26 O 0.44293 0.77434 0.79093 0.0
C27 C 0.46223 0.77724 0.79634 0.0
O28 O 0.47035 0.79654 0.79456 0.0
C29 C 0.442 0.8399 0.74605 0.0
C30 C 0.38489 0.8608 0.80687 0.0
O31 O 0.39735 0.84507 0.81078 0.0
O32 O 0.37831 0.86342 0.78767 0.0
O33 O 0.38288 0.19077 0.02022 0.0
Cd34 Cd 0.40215 0.17181 0.04837 0.0
O35 O 0.40984 0.19176 -0.00212 0.0
Cd36 Cd 0.43182 0.17988 0.022 0.0
O37 O 0.45818 0.19455 0.03913 0.0
C38 C 0.45482 0.21356 0.04549 0.0
O39 O 0.43562 0.2216 0.04331 0.0
C40 C 0.39051 0.19589 0.0021 0.0
C41 C 0.37498 0.14643 0.07286 0.0
O42 O 0.37776 0.16626 0.07723 0.0
O43 O 0.38508 0.13859 0.05689 0.0
O44 O 0.0477 0.85525 0.21829 0.0
Cd45 Cd 0.06375 0.8372 0.18758 0.0
O46 O 0.03523 0.8249 0.23084 0.0
Cd47 Cd 0.04508 0.80511 0.20398 0.0
O48 O 0.03061 0.77781 0.18809 0.0
C49 C 0.01109 0.78007 0.18324 0.0
O50 O 0.00228 0.79895 0.18578 0.0
C51 C 0.03753 0.845 0.23258 0.0
C52 C 0.08996 0.86372 0.16325 0.0
O53 O 0.06985 0.86286 0.15983 0.0
O54 O 0.09763 0.85216 0.17831 0.0
O55 O 0.38069 0.79605 0.46206 0.0
Cd56 Cd 0.39975 0.81248 0.43218 0.0
O57 O 0.40834 0.79632 0.48359 0.0
Cd58 Cd 0.42978 0.80674 0.45834 0.0
O59 O 0.4563 0.7925 0.4412 0.0
C60 C 0.45357 0.77321 0.43539 0.0
O61 O 0.43473 0.76446 0.43807 0.0
C62 C 0.38884 0.7921 0.48025 0.0
C63 C 0.37433 0.84037 0.40856 0.0
O64 O 0.37453 0.82028 0.40454 0.0
O65 O 0.38608 0.84726 0.42385 0.0
O66 O 0.43406 0.13029 0.71673 0.0
Cd67 Cd 0.41754 0.14717 0.68554 0.0
O68 O 0.4585 0.15551 0.71718 0.0
Cd69 Cd 0.44865 0.17452 0.68979 0.0
O70 O 0.46194 0.20418 0.67741 0.0
C71 C 0.48212 0.20464 0.676 0.0
O72 O 0.49283 0.18702 0.67988 0.0
C73 C 0.45055 0.1386 0.72512 0.0
C74 C 0.3866 0.12257 0.66489 0.0
O75 O 0.40636 0.12065 0.6602 0.0
O76 O 0.3815 0.13581 0.67967 0.0
O77 O 0.11091 0.19825 0.94133 0.0
Cd78 Cd 0.09388 0.17419 0.91566 0.0
O79 O 0.0796 0.19895 0.95665 0.0
Cd80 Cd 0.05705 0.21563 0.97701 0.0
O81 O 0.03237 0.2395 0.98161 0.0
C82 C 0.02073 0.2428 0.96534 0.0
O83 O 0.0242 0.23161 0.94792 0.0
C84 C 0.09873 0.20543 0.95582 0.0
C85 C 0.11945 0.14185 0.8991 0.0
O86 O 0.1191 0.16045 0.89051 0.0
O87 O 0.10809 0.13873 0.91583 0.0
O88 O 0.26391 0.05299 0.13287 0.0
Cd89 Cd 0.29453 0.06847 0.15144 0.0
O90 O 0.2529 0.03723 0.16225 0.0
Cd91 Cd 0.27976 0.04615 0.18239 0.0
O92 O 0.29531 0.03083 0.20942 0.0
C93 C 0.29955 0.01112 0.20692 0.0
O94 O 0.29652 0.00251 0.188 0.0
C95 C 0.25039 0.04135 0.14254 0.0
C96 C 0.31988 0.09381 0.12503 0.0
O97 O 0.3226 0.07353 0.12605 0.0
O98 O 0.30505 0.10209 0.13639 0.0
O99 O 0.18395 0.01336 0.38469 0.0
Cd100 Cd 0.16616 0.04375 0.40162 0.0
O101 O 0.21045 0.01615 0.40751 0.0
Cd102 Cd 0.19952 0.043 0.42667 0.0
O103 O 0.21243 0.05595 0.45624 0.0
C104 C 0.23257 0.0579 0.45664 0.0
O105 O 0.24333 0.05418 0.43902 0.0
C106 C 0.2018 0.00684 0.39169 0.0
C107 C 0.14074 0.06727 0.37359 0.0
O108 O 0.16071 0.0711 0.37536 0.0
O109 O 0.13281 0.05217 0.38494 0.0
O110 O 0.19393 0.95815 0.6327 0.0
Cd111 Cd 0.1651 0.93741 0.64916 0.0
O112 O 0.22007 0.93697 0.64255 0.0
Cd113 Cd 0.19836 0.92126 0.66466 0.0
O114 O 0.18671 0.93186 0.69571 0.0
C115 C 0.18311 0.95183 0.69701 0.0
O116 O 0.18503 0.96356 0.6797 0.0
C117 C 0.21363 0.95342 0.63255 0.0
C118 C 0.14936 0.9034 0.62491 0.0
O119 O 0.14207 0.92239 0.62252 0.0
O120 O 0.16446 0.90059 0.6384 0.0
O121 O 0.31527 0.97056 0.88638 0.0
Cd122 Cd 0.34275 0.94833 0.90275 0.0
O123 O 0.29565 0.9738 0.9153 0.0
Cd124 Cd 0.31264 0.9513 0.93561 0.0
O125 O 0.29725 0.93786 0.96374 0.0
C126 C 0.27785 0.93278 0.96085 0.0
O127 O 0.27002 0.93382 0.9414 0.0
C128 C 0.29919 0.97839 0.89586 0.0
C129 C 0.35792 0.91918 0.87274 0.0
O130 O 0.34472 0.91324 0.88718 0.0
O131 O 0.36417 0.93868 0.87272 0.0
O132 O 0.2727 0.94447 0.35148 0.0
Cd133 Cd 0.30075 0.92623 0.33146 0.0
O134 O 0.2472 0.93809 0.32828 0.0
Cd135 Cd 0.27025 0.92588 0.30539 0.0
O136 O 0.28759 0.93894 0.27829 0.0
C137 C 0.29497 0.95769 0.28089 0.0
O138 O 0.29349 0.96655 0.29988 0.0
C139 C 0.25325 0.94594 0.34599 0.0
C140 C 0.32408 0.89832 0.35714 0.0
O141 O 0.32896 0.91819 0.35591 0.0
O142 O 0.30811 0.89165 0.34625 0.0
O143 O 0.27043 0.03402 0.60028 0.0
Cd144 Cd 0.2922 0.06322 0.58582 0.0
O145 O 0.29016 0.00784 0.58777 0.0
Cd146 Cd 0.306 0.03082 0.56702 0.0
O147 O 0.2955 0.04638 0.53766 0.0
C148 C 0.27581 0.05107 0.53711 0.0
O149 O 0.26424 0.04773 0.55426 0.0
C150 C 0.27432 0.01412 0.59871 0.0
C151 C 0.32241 0.07987 0.61407 0.0
O152 O 0.30323 0.08683 0.61391 0.0
O153 O 0.32723 0.06474 0.60114 0.0
O154 O 0.216 0.02611 0.85707 0.0
Cd155 Cd 0.18442 0.03829 0.83782 0.0
O156 O 0.23458 0.02141 0.8277 0.0
Cd157 Cd 0.20787 0.02708 0.80629 0.0
O158 O 0.19186 0.01438 0.77818 0.0
C159 C 0.1883 -0.00564 0.77805 0.0
O160 O 0.19272 0.9832 0.79527 0.0
C161 C 0.23337 0.02107 0.84796 0.0
C162 C 0.16458 0.07224 0.85867 0.0
O163 O 0.16008 0.0528 0.86336 0.0
O164 O 0.1785 0.07563 0.84408 0.0
O165 O 0.18689 0.97076 0.10331 0.0
Cd166 Cd 0.1709 0.9407 0.08411 0.0
O167 O 0.19395 0.98877 0.07399 0.0
Cd168 Cd 0.18528 0.96255 0.05283 0.0
O169 O 0.20133 0.94474 0.0277 0.0
C170 C 0.22055 0.93975 0.03165 0.0
O171 O 0.22825 0.94376 0.05077 0.0
C172 C 0.19414 0.98745 0.09424 0.0
C173 C 0.14457 0.91614 0.11031 0.0
O174 O 0.16462 0.91252 0.10926 0.0
O175 O 0.13697 0.93141 0.09899 0.0
O176 O 0.12774 0.29191 0.00554 0.0
Cd177 Cd 0.14073 0.32249 0.02649 0.0
O178 O 0.13444 0.26776 0.03022 0.0
Cd179 Cd 0.15572 0.29047 0.04568 0.0
O180 O 0.18707 0.30323 0.03771 0.0
C181 C 0.1901 0.30658 0.0179 0.0
O182 O 0.1742 0.30357 0.00461 0.0
C183 C 0.12665 0.2727 0.01213 0.0
C184 C 0.1144 0.3353 0.06016 0.0
O185 O 0.11174 0.34264 0.04122 0.0
O186 O 0.12924 0.32156 0.06311 0.0
O187 O 0.62834 0.21932 0.93709 0.0
Cd188 Cd 0.64623 0.18825 0.92154 0.0
O189 O 0.65703 0.22758 0.95548 0.0
Cd190 Cd 0.67671 0.20056 0.94604 0.0
O191 O 0.70504 0.18469 0.95815 0.0
C192 C 0.70466 0.17942 0.97777 0.0
O193 O 0.68685 0.18183 0.9885 0.0
C194 C 0.63793 0.23158 0.95016 0.0
C195 C 0.62034 0.16404 0.89452 0.0
O196 O 0.62041 0.16084 0.91475 0.0
O197 O 0.63235 0.17886 0.88709 0.0
O198 O 0.01845 0.37512 0.18216 0.0
Cd199 Cd 0.04932 0.39254 0.16575 0.0
O200 O 0.00912 0.40546 0.19722 0.0
Cd201 Cd 0.03606 0.42469 0.18666 0.0
O202 O 0.05278 0.45304 0.19787 0.0
C203 C 0.05871 0.45267 0.21729 0.0
O204 O 0.05646 0.43484 0.22816 0.0
C205 C 0.00569 0.38572 0.19385 0.0
C206 C 0.06771 0.37085 0.13141 0.0
O207 O 0.07349 0.36699 0.15068 0.0
O208 O 0.05288 0.38461 0.12844 0.0
O209 O 0.85147 0.77578 0.44371 0.0
Cd210 Cd 0.83182 0.804 0.42528 0.0
O211 O 0.82746 0.7507 0.43867 0.0
Cd212 Cd 0.80461 0.7741 0.42706 0.0
O213 O 0.77729 0.79036 0.44087 0.0
C214 C 0.77975 0.79672 0.46001 0.0
O215 O 0.79866 0.79496 0.46884 0.0
C216 C 0.84554 0.75643 0.44576 0.0
C217 C 0.85811 0.82686 0.39755 0.0
O218 O 0.85666 0.83195 0.41733 0.0
O219 O 0.84707 0.81096 0.39086 0.0
O220 O 0.96297 0.10849 0.18489 0.0
Cd221 Cd 0.93175 0.09071 0.16953 0.0
O222 O 0.97473 0.07765 0.19691 0.0
Cd223 Cd 0.94733 0.05844 0.18754 0.0
O224 O 0.93109 0.0311 0.20151 0.0
C225 C 0.92646 0.03289 0.2212 0.0
O226 O 0.92946 0.05144 0.23058 0.0
C227 C 0.97707 0.09771 0.19474 0.0
C228 C 0.91063 0.11314 0.13735 0.0
O229 O 0.90573 0.11578 0.15706 0.0
O230 O 0.92587 0.10026 0.13292 0.0
O231 O 0.35327 0.72271 0.54888 0.0
Cd232 Cd 0.33616 0.69185 0.56577 0.0
O233 O 0.32537 0.72735 0.52817 0.0
Cd234 Cd 0.30634 0.70012 0.53835 0.0
O235 O 0.27769 0.68619 0.52465 0.0
C236 C 0.27784 0.68426 0.50443 0.0
O237 O 0.2955 0.68862 0.49404 0.0
C238 C 0.34377 0.73316 0.53429 0.0
C239 C 0.36346 0.66756 0.59127 0.0
O240 O 0.36203 0.6642 0.57111 0.0
O241 O 0.35217 0.68259 0.59933 0.0
O242 O 0.01892 0.6081 0.30231 0.0
Cd243 Cd 0.051 0.59115 0.31665 0.0
O244 O 0.01015 0.57829 0.28588 0.0
Cd245 Cd 0.03799 0.55949 0.29461 0.0
O246 O 0.05456 0.53154 0.28234 0.0
C247 C 0.05925 0.53205 0.26259 0.0
O248 O 0.05593 0.54982 0.2519 0.0
C249 C 0.00614 0.59765 0.29048 0.0
C250 C 0.07234 0.61492 0.34773 0.0
O251 O 0.07619 0.61772 0.32781 0.0
O252 O 0.05812 0.60115 0.35292 0.0
O253 O 0.44562 0.38501 0.7757 0.0
Cd254 Cd 0.41728 0.40107 0.79728 0.0
O255 O 0.47217 0.39588 0.79589 0.0
Cd256 Cd 0.45046 0.4182 0.81124 0.0
O257 O 0.4362 0.4481 0.80043 0.0
C258 C 0.43178 0.44875 0.7806 0.0
O259 O 0.43471 0.43146 0.76906 0.0
C260 C 0.46544 0.38529 0.77992 0.0
C261 C 0.40005 0.37346 0.82777 0.0
O262 O 0.39293 0.37384 0.80857 0.0
O263 O 0.41554 0.38596 0.83249 0.0
O264 O 0.54073 0.63411 0.77477 0.0
Cd265 Cd 0.5594 0.65393 0.80276 0.0
O266 O 0.54338 0.65932 0.75046 0.0
Cd267 Cd 0.55417 0.68235 0.77416 0.0
O268 O 0.53815 0.70886 0.78987 0.0
C269 C 0.51875 0.70544 0.79457 0.0
O270 O 0.51091 0.68618 0.79153 0.0
C271 C 0.53757 0.64061 0.75577 0.0
C272 C 0.58732 0.62766 0.8254 0.0
O273 O 0.56769 0.62915 0.83074 0.0
O274 O 0.59378 0.63863 0.80935 0.0
O275 O 0.59961 0.29682 0.01966 0.0
Cd276 Cd 0.58043 0.31446 0.0487 0.0
O277 O 0.57126 0.29344 -0.00064 0.0
Cd278 Cd 0.5497 0.30414 0.02439 0.0
O279 O 0.52318 0.28909 0.04091 0.0
C280 C 0.52642 0.26993 0.04685 0.0
O281 O 0.54563 0.26191 0.04475 0.0
C282 C 0.59111 0.29089 0.00219 0.0
C283 C 0.60673 0.34151 0.07237 0.0
O284 O 0.60528 0.32157 0.07686 0.0
O285 O 0.59575 0.34866 0.05665 0.0
O286 O 0.94024 0.3523 0.26578 0.0
Cd287 Cd 0.92286 0.33463 0.29601 0.0
O288 O 0.94456 0.32224 0.24814 0.0
Cd289 Cd 0.93336 0.30231 0.27437 0.0
O290 O 0.94662 0.27582 0.29251 0.0
C291 C 0.96555 0.27851 0.29916 0.0
O292 O 0.97442 0.29741 0.29683 0.0
C293 C 0.94668 0.3424 0.24924 0.0
C294 C 0.8966 0.36183 0.31946 0.0
O295 O 0.91656 0.36051 0.32349 0.0
O296 O 0.88908 0.3504 0.30422 0.0
O297 O 0.8841 0.68688 0.51315 0.0
Cd298 Cd 0.90072 0.66899 0.54364 0.0
O299 O 0.90754 0.71297 0.51505 0.0
Cd300 Cd 0.9266 0.70211 0.54198 0.0
O301 O 0.95566 0.71534 0.55559 0.0
C302 C 0.95574 0.73554 0.55788 0.0
O303 O 0.93811 0.74616 0.55401 0.0
C304 C 0.89143 0.7045 0.50615 0.0
C305 C 0.87219 0.64393 0.56696 0.0
O306 O 0.87425 0.66397 0.57074 0.0
O307 O 0.88352 0.63575 0.55203 0.0
O308 O 0.5202 0.34869 0.69992 0.0
Cd309 Cd 0.54149 0.33308 0.67109 0.0
O310 O 0.54041 0.33732 0.72627 0.0
Cd311 Cd 0.55552 0.31536 0.70397 0.0
O312 O 0.54495 0.28584 0.68869 0.0
C313 C 0.52522 0.28519 0.68417 0.0
O314 O 0.51358 0.30228 0.68766 0.0
C315 C 0.52451 0.34807 0.71979 0.0
C316 C 0.57245 0.36062 0.65475 0.0
O317 O 0.55338 0.36075 0.64747 0.0
O318 O 0.57683 0.34763 0.66998 0.0
O319 O 0.88357 0.29449 0.97289 0.0
Cd320 Cd 0.90151 0.32284 0.95271 0.0
O321 O 0.89082 0.30727 0.00483 0.0
Cd322 Cd 0.91603 0.3268 0.99117 0.0
O323 O 0.94781 0.31488 0.98389 0.0
C324 C 0.94861 0.29931 0.97087 0.0
O325 O 0.93099 0.29293 0.96155 0.0
C326 C 0.88148 0.29358 -0.0069 0.0
C327 C 0.87378 0.34561 0.92637 0.0
O328 O 0.8817 0.32774 0.92033 0.0
O329 O 0.87886 0.35268 0.94491 0.0
O330 O 0.93781 0.63251 0.22239 0.0
Cd331 Cd 0.91932 0.65079 0.19323 0.0
O332 O 0.94074 0.66152 0.24198 0.0
Cd333 Cd 0.92833 0.68211 0.21686 0.0
O334 O 0.94042 0.7084 0.19763 0.0
C335 C 0.95889 0.70567 0.18981 0.0
O336 O 0.96795 0.68686 0.19189 0.0
C337 C 0.94388 0.64162 0.23952 0.0
C338 C 0.89455 0.62317 0.16859 0.0
O339 O 0.91443 0.62573 0.16473 0.0
O340 O 0.8864 0.6336 0.1842 0.0
O341 O 0.60186 0.68515 0.47177 0.0
Cd342 Cd 0.58334 0.66776 0.44208 0.0
O343 O 0.57203 0.6983 0.4845 0.0
Cd344 Cd 0.5518 0.6873 0.45845 0.0
O345 O 0.52482 0.70076 0.44134 0.0
C346 C 0.52727 0.71987 0.43487 0.0
O347 O 0.54613 0.72878 0.43677 0.0
C348 C 0.59207 0.69599 0.48585 0.0
C349 C 0.61028 0.64294 0.41687 0.0
O350 O 0.60817 0.66303 0.41345 0.0
O351 O 0.59974 0.6346 0.43231 0.0
O352 O 0.76189 0.54908 0.62993 0.0
Cd353 Cd 0.79224 0.56686 0.64691 0.0
O354 O 0.74931 0.5386 0.66099 0.0
Cd355 Cd 0.77593 0.55035 0.67996 0.0
O356 O 0.79426 0.5388 0.70708 0.0
C357 C 0.80118 0.51978 0.70552 0.0
O358 O 0.79891 0.50972 0.68722 0.0
C359 C 0.74771 0.53941 0.64077 0.0
C360 C 0.81673 0.59174 0.61922 0.0
O361 O 0.82011 0.57163 0.62119 0.0
O362 O 0.80156 0.60003 0.63011 0.0
O363 O 0.68812 0.51939 0.88044 0.0
Cd364 Cd 0.67309 0.55045 0.89883 0.0
O365 O 0.69121 0.50088 0.91013 0.0
Cd366 Cd 0.68171 0.52736 0.93057 0.0
O367 O 0.69543 0.54515 0.95708 0.0
C368 C 0.71464 0.55106 0.95463 0.0
O369 O 0.72371 0.54813 0.93594 0.0
C370 C 0.69341 0.50224 0.89 0.0
C371 C 0.64521 0.57447 0.87379 0.0
O372 O 0.66533 0.57783 0.87321 0.0
O373 O 0.6383 0.55957 0.88604 0.0
O374 O 0.71503 0.43963 0.13016 0.0
Cd375 Cd 0.68406 0.4248 0.14869 0.0
O376 O 0.73324 0.44367 0.15988 0.0
Cd377 Cd 0.70683 0.43452 0.18046 0.0
O378 O 0.68974 0.44866 0.20715 0.0
C379 C 0.68398 0.46797 0.20459 0.0
O380 O 0.68657 0.47684 0.18573 0.0
C381 C 0.73202 0.4453 0.13969 0.0
C382 C 0.65971 0.39773 0.12305 0.0
O383 O 0.65659 0.41798 0.12303 0.0
O384 O 0.67446 0.3903 0.1351 0.0
O385 O 0.79954 0.46995 0.37995 0.0
Cd386 Cd 0.8155 0.4391 0.39787 0.0
O387 O 0.78633 0.48199 0.41015 0.0
Cd388 Cd 0.79609 0.455 0.42984 0.0
O389 O 0.78355 0.43749 0.45711 0.0
C390 C 0.76431 0.43138 0.45551 0.0
O391 O 0.75448 0.43394 0.43714 0.0
C392 C 0.78904 0.48401 0.39014 0.0
C393 C 0.8418 0.41502 0.37128 0.0
O394 O 0.8217 0.41157 0.37201 0.0
O395 O 0.84944 0.42999 0.383 0.0
O396 O 0.76317 0.43376 0.8573 0.0
Cd397 Cd 0.79481 0.41767 0.84112 0.0
O398 O 0.75449 0.44905 0.8269 0.0
Cd399 Cd 0.78196 0.43846 0.80852 0.0
O400 O 0.79888 0.45139 0.78109 0.0
C401 C 0.80405 0.47099 0.78251 0.0
O402 O 0.80112 0.48086 0.80082 0.0
C403 C 0.75063 0.44552 0.8465 0.0
C404 C 0.81934 0.39404 0.8698 0.0
O405 O 0.82122 0.4144 0.86854 0.0
O406 O 0.80571 0.38483 0.85763 0.0
O407 O 0.80085 0.51374 0.10473 0.0
Cd408 Cd 0.81826 0.54398 0.08712 0.0
O409 O 0.78723 0.50268 0.07431 0.0
Cd410 Cd 0.79848 0.52926 0.05485 0.0
O411 O 0.7855 0.54636 0.02754 0.0
C412 C 0.76639 0.55268 0.0296 0.0
O413 O 0.75717 0.55071 0.04835 0.0
C414 C 0.7897 0.50032 0.09432 0.0
C415 C 0.84297 0.56868 0.11473 0.0
O416 O 0.82294 0.57202 0.11277 0.0
O417 O 0.85128 0.55352 0.10378 0.0
O418 O 0.71865 0.54944 0.35369 0.0
Cd419 Cd 0.68872 0.56628 0.33522 0.0
O420 O 0.73557 0.54242 0.32378 0.0
Cd421 Cd 0.70965 0.55301 0.30324 0.0
O422 O 0.69197 0.5398 0.27642 0.0
C423 C 0.68518 0.52081 0.27891 0.0
O424 O 0.68717 0.51181 0.29778 0.0
C425 C 0.73477 0.54183 0.34405 0.0
C426 C 0.66385 0.5912 0.3624 0.0
O427 O 0.66056 0.57106 0.36053 0.0
O428 O 0.67898 0.59955 0.35147 0.0
O429 O 0.68453 0.46442 0.60874 0.0
Cd430 Cd 0.66947 0.43285 0.59118 0.0
O431 O 0.69241 0.47919 0.57785 0.0
Cd432 Cd 0.68277 0.45208 0.55827 0.0
O433 O 0.69574 0.43532 0.53075 0.0
C434 C 0.71516 0.42984 0.53226 0.0
O435 O 0.72492 0.43246 0.55065 0.0
C436 C 0.69225 0.47997 0.59813 0.0
C437 C 0.63785 0.41168 0.61431 0.0
O438 O 0.65758 0.40728 0.61713 0.0
O439 O 0.63311 0.42638 0.60085 0.0
O440 O 0.6306 0.76991 0.54643 0.0
Cd441 Cd 0.6499 0.80038 0.56151 0.0
O442 O 0.66002 0.75221 0.53956 0.0
Cd443 Cd 0.68129 0.77836 0.54812 0.0
O444 O 0.70838 0.79398 0.53311 0.0
C445 C 0.70594 0.79872 0.51351 0.0
O446 O 0.68709 0.79599 0.50479 0.0
C447 C 0.63983 0.75324 0.53942 0.0
C448 C 0.62624 0.82284 0.59178 0.0
O449 O 0.62499 0.82746 0.57186 0.0
O450 O 0.63858 0.80751 0.59735 0.0
O451 O 0.13546 0.70275 0.46406 0.0
Cd452 Cd 0.1513 0.67437 0.44226 0.0
O453 O 0.14639 0.7295 0.44404 0.0
Cd454 Cd 0.16846 0.70766 0.42851 0.0
O455 O 0.19808 0.69321 0.43958 0.0
C456 C 0.19845 0.68856 0.45937 0.0
O457 O 0.18107 0.69136 0.47069 0.0
C458 C 0.13585 0.72269 0.45998 0.0
C459 C 0.12363 0.6571 0.41194 0.0
O460 O 0.1242 0.64987 0.4311 0.0
O461 O 0.13597 0.67272 0.40718 0.0
O462 O 0.52619 0.87669 0.69868 0.0
Cd463 Cd 0.55773 0.89542 0.68546 0.0
O464 O 0.5058 0.90517 0.69694 0.0
Cd465 Cd 0.53231 0.92673 0.69063 0.0
O466 O 0.54658 0.9544 0.70615 0.0
C467 C 0.54982 0.95253 0.72612 0.0
O468 O 0.54646 0.93386 0.73516 0.0
C469 C 0.50801 0.88536 0.70081 0.0
C470 C 0.57952 0.87145 0.65491 0.0
O471 O 0.58356 0.86937 0.67488 0.0
O472 O 0.56514 0.88489 0.64938 0.0
O473 O 0.35267 0.26874 0.93816 0.0
Cd474 Cd 0.33493 0.30028 0.92334 0.0
O475 O 0.3262 0.26405 0.96069 0.0
Cd476 Cd 0.30654 0.2913 0.95197 0.0
O477 O 0.27673 0.30537 0.96264 0.0
C478 C 0.27448 0.30728 0.98274 0.0
O479 O 0.29065 0.30258 -0.00479 0.0
C480 C 0.34404 0.25814 0.95319 0.0
C481 C 0.35828 0.322 0.89218 0.0
O482 O 0.36081 0.32614 0.91208 0.0
O483 O 0.34496 0.30733 0.88704 0.0
O484 O 0.46939 0.60163 0.68739 0.0
Cd485 Cd 0.43874 0.58476 0.67011 0.0
O486 O 0.46829 0.57798 0.7134 0.0
Cd487 Cd 0.44122 0.55881 0.70317 0.0
O488 O 0.42814 0.5295 0.71655 0.0
C489 C 0.42651 0.52922 0.7368 0.0
O490 O 0.43067 0.54683 0.74748 0.0
C491 C 0.47685 0.59424 0.70477 0.0
C492 C 0.41549 0.61292 0.64454 0.0
O493 O 0.41178 0.61129 0.66462 0.0
O494 O 0.43031 0.60134 0.63657 0.0
O495 O 0.84597 0.20099 0.02335 0.0
Cd496 Cd 0.83345 0.16691 0.03799 0.0
O497 O 0.83252 0.22061 0.04918 0.0
Cd498 Cd 0.81207 0.19392 0.05804 0.0
O499 O 0.78348 0.1798 0.04416 0.0
C500 C 0.78348 0.17836 0.02389 0.0
O501 O 0.80078 0.18375 0.01341 0.0
C502 C 0.84372 0.21909 0.03234 0.0
C503 C 0.85994 0.15129 0.07023 0.0
O504 O 0.8632 0.14653 0.05058 0.0
O505 O 0.8442 0.16355 0.07462 0.0
O506 O 0.51956 0.10178 0.79187 0.0
Cd507 Cd 0.54749 0.08295 0.81156 0.0
O508 O 0.49591 0.076 0.79451 0.0
Cd509 Cd 0.51935 0.05404 0.80768 0.0
O510 O 0.53664 0.02635 0.79586 0.0
C511 C 0.54425 0.02826 0.77714 0.0
O512 O 0.54303 0.04695 0.76762 0.0
C513 C 0.50092 0.09466 0.78826 0.0
C514 C 0.57041 0.11015 0.83845 0.0
O515 O 0.57553 0.10795 0.81875 0.0
O516 O 0.5544 0.09952 0.84543 0.0
O517 O 0.96613 0.88163 0.29663 0.0
Cd518 Cd 0.93597 0.90059 0.31254 0.0
O519 O 0.98396 0.91135 0.29096 0.0
Cd520 Cd 0.95825 0.93209 0.3016 0.0
O521 O 0.93958 0.95894 0.28998 0.0
C522 C 0.93178 0.95689 0.27135 0.0
O523 O 0.93352 0.93832 0.26168 0.0
C524 C 0.98271 0.89112 0.28979 0.0
C525 C 0.91164 0.87552 0.34014 0.0
O526 O 0.90809 0.87552 0.31997 0.0
O527 O 0.92686 0.8872 0.34723 0.0
C528 C -0.00253 0.13078 0.20479 0.0
C529 C -0.00501 0.10848 0.20579 0.0
H530 H 0.01306 0.15841 0.21749 0.0
C531 C 0.00856 0.09665 0.21925 0.0
H532 H 0.9874 0.14034 0.1945 0.0
C533 C 0.02317 0.10699 0.23253 0.0
C534 C 0.02469 0.12939 0.23255 0.0
H535 H 0.00721 0.07942 0.22033 0.0
H536 H 0.03264 0.09747 0.24343 0.0
C537 C 0.01223 0.14112 0.21797 0.0
C538 C 0.12176 0.73149 0.49613 0.0
C539 C 0.12587 0.73789 0.47502 0.0
H540 H 0.11053 0.74039 0.52707 0.0
C541 C 0.12149 0.7591 0.469 0.0
H542 H 0.12519 0.71534 0.50136 0.0
C543 C 0.11285 0.7735 0.48378 0.0
C544 C 0.10893 0.76706 0.50495 0.0
H545 H 0.1246 0.76451 0.45286 0.0
H546 H 0.10931 0.78966 0.47867 0.0
C547 C 0.11359 0.74594 0.51096 0.0
C548 C 0.49251 0.85133 0.71508 0.0
C549 C 0.49 0.87302 0.70983 0.0
H550 H 0.47933 0.82387 0.73049 0.0
C551 C 0.47075 0.88325 0.71503 0.0
H552 H 0.50708 0.84293 0.71123 0.0
C553 C 0.4548 0.87233 0.72617 0.0
C554 C 0.45777 0.85093 0.73232 0.0
H555 H 0.46825 0.89995 0.71118 0.0
H556 H 0.44045 0.88086 0.73053 0.0
C557 C 0.47658 0.84042 0.72618 0.0
C558 C 0.34504 0.22833 0.97975 0.0
C559 C 0.35512 0.23984 0.96329 0.0
H560 H 0.34821 0.20523 0.00471 0.0
C561 C 0.37622 0.23472 0.95793 0.0
H562 H 0.3287 0.23164 0.98415 0.0
C563 C 0.38741 0.21939 0.96973 0.0
C564 C 0.37772 0.20896 0.98714 0.0
H565 H 0.38438 0.24319 0.94525 0.0
H566 H 0.40397 0.21652 0.96587 0.0
C567 C 0.35622 0.2131 0.99155 0.0
C568 C 0.01475 0.88994 0.26598 0.0
C569 C -0.00068 0.87904 0.27813 0.0
H570 H 0.039 0.88776 0.24205 0.0
C571 C -0.00148 0.85663 0.2771 0.0
H572 H 0.01586 0.90722 0.26645 0.0
C573 C 0.01191 0.84548 0.26321 0.0
C574 C 0.02626 0.85651 0.2499 0.0
H575 H 0.98695 0.84773 0.28636 0.0
H576 H 0.01023 0.82827 0.26218 0.0
C577 C 0.02802 0.8788 0.25194 0.0
C578 C 0.34389 0.76161 0.50623 0.0
C579 C 0.35451 0.75091 0.52289 0.0
H580 H 0.34631 0.78319 0.47985 0.0
C581 C 0.37585 0.75612 0.52713 0.0
H582 H 0.32736 0.7582 0.50265 0.0
C583 C 0.38671 0.77064 0.51406 0.0
C584 C 0.37645 0.78014 0.49645 0.0
H585 H 0.38445 0.74829 0.53993 0.0
H586 H 0.40344 0.77354 0.51711 0.0
C587 C 0.35474 0.776 0.49313 0.0
C588 C 0.49151 0.12777 0.76805 0.0
C589 C 0.48607 0.10704 0.77468 0.0
H590 H 0.4845 0.15399 0.74744 0.0
C591 C 0.46749 0.09753 0.76641 0.0
H592 H 0.50561 0.13564 0.7742 0.0
C593 C 0.45534 0.10806 0.75088 0.0
C594 C 0.46153 0.1283 0.74338 0.0
H595 H 0.46282 0.08156 0.77121 0.0
H596 H 0.4416 0.1 0.74419 0.0
C597 C 0.47939 0.13828 0.75262 0.0
C598 C 0.11621 0.24062 0.96208 0.0
C599 C 0.10594 0.2225 0.9703 0.0
H600 H 0.13016 0.27112 0.96896 0.0
C601 C 0.10197 0.22113 0.99234 0.0
H602 H 0.11929 0.24204 0.94511 0.0
C603 C 0.10858 0.23751 0.00605 0.0
C604 C 0.1186 0.2558 -0.0022 0.0
H605 H 0.09404 0.20724 -0.00104 0.0
H606 H 0.10575 0.23594 0.02306 0.0
C607 C 0.1222 0.25729 0.97568 0.0
C608 C 0.21991 0.01558 0.14101 0.0
C609 C 0.23311 0.03049 0.13059 0.0
H610 H 0.19709 0.9904 0.13773 0.0
C611 C 0.23106 0.03313 0.10839 0.0
H612 H 0.22091 0.01326 0.15813 0.0
C613 C 0.21726 0.02005 0.09669 0.0
C614 C 0.20531 0.004 0.10695 0.0
H615 H 0.24086 0.04458 0.09989 0.0
H616 H 0.21684 0.02179 0.07948 0.0
C617 C 0.20621 0.00245 0.12931 0.0
C618 C 0.24496 0.96676 0.37897 0.0
C619 C 0.23842 0.95888 0.35902 0.0
H620 H 0.23848 0.98784 0.40494 0.0
C621 C 0.21859 0.96536 0.35078 0.0
H622 H 0.26004 0.96199 0.38587 0.0
C623 C 0.20617 0.98037 0.36172 0.0
C624 C 0.21335 0.98913 0.38111 0.0
H625 H 0.21308 0.95957 0.33543 0.0
H626 H 0.19137 0.98567 0.3546 0.0
C627 C 0.23257 0.98167 0.38989 0.0
C628 C 0.26501 0.97692 0.61083 0.0
C629 C 0.25919 -0.00159 0.60776 0.0
H630 H 0.25515 0.94573 0.62118 0.0
C631 C 0.2382 0.00467 0.61223 0.0
H632 H 0.28105 0.97161 0.60738 0.0
C633 C 0.22331 0.98983 0.61954 0.0
C634 C 0.22914 0.96842 0.62295 0.0
H635 H 0.23312 0.02104 0.60979 0.0
H636 H 0.20731 -0.00472 0.62296 0.0
C637 C 0.25017 0.9621 0.6186 0.0
C638 C 0.27008 0.00564 0.85041 0.0
C639 C 0.25148 0.01282 0.86065 0.0
H640 H 0.29979 0.98923 0.85347 0.0
C641 C 0.24967 0.01032 0.88288 0.0
H642 H 0.27205 0.00741 0.8333 0.0
C643 C 0.26558 -0.00014 0.89443 0.0
C644 C 0.28367 0.99169 0.88402 0.0
H645 H 0.23561 0.01575 0.89128 0.0
H646 H 0.26335 -0.0024 0.91145 0.0
C647 C 0.28601 -0.00481 0.86197 0.0
C648 C 0.60479 0.25292 0.95715 0.0
C649 C 0.62655 0.24932 0.96089 0.0
H650 H 0.57653 0.26917 0.9671 0.0
C651 C 0.63702 0.26162 0.97653 0.0
H652 H 0.59628 0.24383 0.94514 0.0
C653 C 0.62572 0.27607 0.98915 0.0
C654 C 0.6037 0.27866 0.98637 0.0
H655 H 0.65383 0.25944 0.97971 0.0
H656 H 0.6341 0.28455 0.00169 0.0
C657 C 0.59349 0.26749 0.96973 0.0
C658 C 0.97038 0.34237 0.217 0.0
C659 C 0.95892 0.35385 0.23255 0.0
H660 H -0.00584 0.3434 0.19249 0.0
C661 C 0.96115 0.37617 0.23339 0.0
H662 H 0.96898 0.32515 0.21587 0.0
C663 C 0.9755 0.38662 0.21991 0.0
C664 C 0.98806 0.37498 0.20538 0.0
H665 H 0.95245 0.38551 0.24504 0.0
H666 H 0.97739 0.40375 0.2216 0.0
C667 C 0.98486 0.35282 0.2036 0.0
C668 C 0.85014 0.7217 0.46537 0.0
C669 C 0.85856 0.7414 0.45852 0.0
H670 H 0.85389 0.69448 0.48587 0.0
C671 C 0.87876 0.74765 0.46583 0.0
H672 H 0.83461 0.7164 0.46001 0.0
C673 C 0.88974 0.73513 0.4806 0.0
C674 C 0.88079 0.71607 0.48848 0.0
H675 H 0.8858 0.76263 0.46075 0.0
H676 H 0.90498 0.74083 0.48638 0.0
C677 C 0.86115 0.70915 0.48024 0.0
C678 C 0.95993 0.60762 0.25305 0.0
C679 C 0.95694 0.62975 0.25525 0.0
H680 H 0.97755 0.5801 0.26268 0.0
C681 C 0.96846 0.64078 0.2711 0.0
H682 H 0.9512 0.59862 0.24114 0.0
C683 C 0.98377 0.63017 0.2834 0.0
C684 C 0.98773 0.60831 0.28019 0.0
H685 H 0.96649 0.65784 0.27326 0.0
H686 H -0.0069 0.63931 0.29474 0.0
C687 C 0.97509 0.59701 0.26543 0.0
C688 C 0.48881 0.3626 0.72919 0.0
C689 C 0.50984 0.35809 0.73529 0.0
H690 H 0.45826 0.37417 0.73861 0.0
C691 C 0.51616 0.36215 0.75647 0.0
H692 H 0.48336 0.35943 0.71307 0.0
C693 C 0.50173 0.37084 0.77115 0.0
C694 C 0.48063 0.37514 0.76502 0.0
H695 H 0.53226 0.35874 0.76164 0.0
H696 H 0.50706 0.3741 0.78729 0.0
C697 C 0.47433 0.37083 0.74392 0.0
C698 C 0.51815 0.6069 0.74685 0.0
C699 C 0.52484 0.62745 0.7408 0.0
H700 H 0.49795 0.5803 0.74016 0.0
C701 C 0.5173 0.6361 0.72146 0.0
H702 H 0.52375 0.59969 0.76155 0.0
C703 C 0.50234 0.62497 0.70914 0.0
C704 C 0.49468 0.60498 0.71594 0.0
H705 H 0.52218 0.65189 0.71631 0.0
H706 H 0.49617 0.6324 0.69479 0.0
C707 C 0.50327 0.59581 0.73458 0.0
C708 C 0.85874 0.23819 0.00074 0.0
C709 C 0.85303 0.23841 0.02244 0.0
H710 H 0.87164 0.25559 0.97437 0.0
C711 C 0.85572 0.25734 0.03423 0.0
H712 H 0.85662 0.22392 0.99116 0.0
C713 C 0.86453 0.27552 0.02462 0.0
C714 C 0.87038 0.27521 0.00294 0.0
H715 H 0.85136 0.25801 0.05096 0.0
H716 H 0.8669 0.28975 0.0342 0.0
C717 C 0.86714 0.25643 0.99106 0.0
C718 C 0.63781 0.72011 0.517 0.0
C719 C 0.62738 0.73616 0.52878 0.0
H720 H 0.63485 0.69475 0.49422 0.0
C721 C 0.60505 0.73699 0.52835 0.0
H722 H 0.65501 0.71894 0.51704 0.0
C723 C 0.59349 0.723 0.51536 0.0
C724 C 0.60403 0.70799 0.50237 0.0
H725 H 0.59652 0.74903 0.53735 0.0
H726 H 0.57635 0.72471 0.51472 0.0
C727 C 0.62626 0.70623 0.50387 0.0
C728 C 0.71758 0.51314 0.64186 0.0
C729 C 0.73074 0.52696 0.62997 0.0
H730 H 0.695 0.48749 0.64117 0.0
C731 C 0.72895 0.52703 0.60761 0.0
H732 H 0.71843 0.51275 0.65914 0.0
C733 C 0.71537 0.51262 0.59731 0.0
C734 C 0.7034 0.49772 0.60916 0.0
H735 H 0.73872 0.53757 0.59798 0.0
H736 H 0.7151 0.51248 0.58001 0.0
C737 C 0.70412 0.49862 0.63156 0.0
C738 C 0.72119 0.47244 0.84553 0.0
C739 C 0.73301 0.45719 0.85705 0.0
H740 H 0.69927 0.49856 0.84686 0.0
C741 C 0.7293 0.45496 0.87907 0.0
H742 H 0.72348 0.47448 0.8285 0.0
C743 C 0.71524 0.46872 0.88958 0.0
C744 C 0.70472 0.48508 0.87831 0.0
H745 H 0.738 0.44328 0.88839 0.0
H746 H 0.71356 0.46726 0.90674 0.0
C747 C 0.70727 0.48629 0.85605 0.0
C748 C 0.76248 0.47106 0.0944 0.0
C749 C 0.77758 0.48339 0.10557 0.0
H750 H 0.7363 0.44924 0.09638 0.0
C751 C 0.77933 0.48083 0.1278 0.0
H752 H 0.76078 0.47249 0.07724 0.0
C753 C 0.76535 0.46731 0.13877 0.0
C754 C 0.74923 0.45622 0.12774 0.0
H755 H 0.79088 0.48996 0.13687 0.0
H756 H 0.76651 0.46647 0.15602 0.0
C757 C 0.7484 0.4577 0.10537 0.0
C758 C 0.75061 0.52906 0.37849 0.0
C759 C 0.75129 0.52998 0.35608 0.0
H760 H 0.76225 0.51406 0.40685 0.0
C761 C 0.76647 0.51757 0.34518 0.0
H762 H 0.73924 0.53852 0.3874 0.0
C763 C 0.77962 0.50339 0.35633 0.0
C764 C 0.77794 0.50145 0.37862 0.0
H765 H 0.7675 0.51796 0.32791 0.0
H766 H 0.79041 0.49332 0.34736 0.0
C767 C 0.76385 0.515 0.38964 0.0
C768 C 0.10487 0.07873 0.36031 0.0
C769 C 0.12717 0.08021 0.35921 0.0
H770 H 0.07491 0.09022 0.34873 0.0
C771 C 0.13637 0.09452 0.34455 0.0
H772 H 0.09729 0.06788 0.37146 0.0
C773 C 0.12355 0.10718 0.33138 0.0
C774 C 0.10125 0.10598 0.33277 0.0
H775 H 0.1535 0.096 0.34327 0.0
H776 H 0.13113 0.11815 0.32036 0.0
C777 C 0.09205 0.09156 0.34732 0.0
C778 C 0.11413 0.87118 0.58766 0.0
C779 C 0.11927 0.8501 0.59347 0.0
H780 H 0.11959 0.90455 0.59302 0.0
C781 C 0.13529 0.8467 0.60878 0.0
H782 H 0.10188 0.87435 0.5759 0.0
C783 C 0.14555 0.86402 0.6185 0.0
C784 C 0.13988 0.88511 0.61324 0.0
H785 H 0.13969 0.83065 0.61355 0.0
H786 H 0.15752 0.86084 0.63054 0.0
C787 C 0.12427 0.8885 0.5975 0.0
C788 C 0.37498 0.86831 0.84484 0.0
C789 C 0.37836 0.87566 0.82391 0.0
H790 H 0.36525 0.87636 0.87673 0.0
C791 C 0.37526 0.89739 0.81926 0.0
H792 H 0.37721 0.85159 0.84877 0.0
C793 C 0.3691 0.9116 0.83532 0.0
C794 C 0.36524 0.90419 0.85613 0.0
H795 H 0.37785 0.90344 0.80325 0.0
H796 H 0.36689 0.92831 0.83134 0.0
C797 C 0.3681 0.88241 0.86077 0.0
C798 C 0.3607 0.11063 0.08372 0.0
C799 C 0.36063 0.13298 0.08594 0.0
H800 H 0.34799 0.08071 0.09442 0.0
C801 C 0.34682 0.14237 0.10089 0.0
H802 H 0.37118 0.10291 0.07235 0.0
C803 C 0.33338 0.12966 0.11338 0.0
C804 C 0.33365 0.10729 0.11137 0.0
H805 H 0.34633 0.15956 0.10293 0.0
H806 H 0.32296 0.13738 0.1248 0.0
C807 C 0.34744 0.0979 0.09639 0.0
C808 C 0.10834 0.90483 0.12273 0.0
C809 C 0.1306 0.90297 0.12409 0.0
H810 H 0.07806 0.89383 0.13393 0.0
C811 C 0.13937 0.88829 0.13863 0.0
H812 H 0.10108 0.91597 0.11166 0.0
C813 C 0.12618 0.87573 0.15152 0.0
C814 C 0.10392 0.87742 0.14999 0.0
H815 H 0.15646 0.88651 0.1401 0.0
H816 H 0.13344 0.86452 0.16252 0.0
C817 C 0.09515 0.89211 0.13547 0.0
C818 C 0.34592 0.84728 0.38131 0.0
C819 C 0.36115 0.85521 0.39574 0.0
H820 H 0.32213 0.85468 0.35795 0.0
C821 C 0.36388 0.87743 0.39759 0.0
H822 H 0.3434 0.83024 0.37956 0.0
C823 C 0.35183 0.89143 0.38507 0.0
C824 C 0.33663 0.88351 0.3706 0.0
H825 H 0.37551 0.88404 0.40854 0.0
H826 H 0.35442 0.90847 0.38675 0.0
C827 C 0.3337 0.86129 0.36896 0.0
C828 C 0.33289 0.10498 0.64349 0.0
C829 C 0.33871 0.08966 0.62814 0.0
H830 H 0.3434 0.12722 0.66727 0.0
C831 C 0.36034 0.08447 0.62575 0.0
H832 H 0.31635 0.10929 0.64579 0.0
C833 C 0.37587 0.09485 0.63798 0.0
C834 C 0.37008 0.11052 0.65299 0.0
H835 H 0.36536 0.07273 0.61407 0.0
H836 H 0.39243 0.0908 0.63544 0.0
C837 C 0.3484 0.11523 0.65584 0.0
C838 C 0.12952 0.10319 0.89695 0.0
C839 C 0.1319 0.12424 0.88947 0.0
H840 H 0.13787 0.07026 0.89303 0.0
C841 C 0.14563 0.12815 0.87217 0.0
H842 H 0.11903 0.09963 0.91022 0.0
C843 C 0.15652 0.11131 0.86238 0.0
C844 C 0.15376 0.09019 0.86956 0.0
H845 H 0.14783 0.1442 0.86605 0.0
H846 H 0.16682 0.11482 0.84895 0.0
C847 C 0.14026 0.08634 0.88705 0.0
C848 C 0.0736 0.36652 0.09203 0.0
C849 C 0.07852 0.3605 0.1131 0.0
H850 H 0.08103 0.3633 0.0588 0.0
C851 C 0.09457 0.34523 0.11652 0.0
H852 H 0.06131 0.37823 0.08883 0.0
C853 C 0.10584 0.33662 0.09928 0.0
C854 C 0.10136 0.34314 0.07826 0.0
H855 H 0.09872 0.3402 0.13255 0.0
H856 H 0.11838 0.32519 0.10251 0.0
C857 C 0.08492 0.35797 0.0748 0.0
C858 C 0.59809 0.13842 0.84435 0.0
C859 C 0.58279 0.12433 0.85276 0.0
H860 H 0.62179 0.16216 0.85092 0.0
C861 C 0.57963 0.12373 0.87498 0.0
H862 H 0.60086 0.13931 0.82729 0.0
C863 C 0.59175 0.1367 0.88854 0.0
C864 C 0.60712 0.15072 0.88014 0.0
H865 H 0.56798 0.11303 0.88196 0.0
H866 H 0.58909 0.1357 0.90561 0.0
C867 C 0.61004 0.15156 0.85789 0.0
C868 C 0.88663 0.85408 0.39091 0.0
C869 C 0.87205 0.83903 0.38287 0.0
H870 H 0.9107 0.87724 0.38375 0.0
C871 C 0.87085 0.83582 0.36068 0.0
H872 H 0.88799 0.85687 0.40794 0.0
C873 C 0.88375 0.84762 0.3468 0.0
C874 C 0.8983 0.8627 0.35484 0.0
H875 H 0.85977 0.82435 0.35398 0.0
H876 H 0.88232 0.84491 0.32977 0.0
C877 C 0.89969 0.86571 0.37705 0.0
C878 C 0.89078 0.12897 0.08237 0.0
C879 C 0.87361 0.14246 0.08738 0.0
H880 H 0.91601 0.10926 0.09417 0.0
C881 C 0.8693 0.14695 0.10895 0.0
H882 H 0.89457 0.12523 0.06591 0.0
C883 C 0.88159 0.13779 0.12517 0.0
C884 C 0.89849 0.12394 0.12017 0.0
H885 H 0.85622 0.15732 0.11336 0.0
H886 H 0.87764 0.14131 0.14164 0.0
C887 C 0.90309 0.11983 0.09858 0.0
C888 C 0.40434 0.62647 0.60854 0.0
C889 C 0.40274 0.62743 0.63092 0.0
H890 H 0.39312 0.6383 0.57846 0.0
C891 C 0.38852 0.6421 0.64015 0.0
H892 H 0.41512 0.61533 0.60093 0.0
C893 C 0.37604 0.65539 0.62728 0.0
C894 C 0.37735 0.65415 0.60489 0.0
H895 H 0.38695 0.64328 0.65735 0.0
H896 H 0.36513 0.6664 0.63489 0.0
C897 C 0.3917 0.63961 0.59566 0.0
C898 C 0.09488 0.63134 0.40147 0.0
C899 C 0.10962 0.64723 0.39565 0.0
H900 H 0.07143 0.60884 0.39096 0.0
C901 C 0.11134 0.65305 0.37402 0.0
H902 H 0.09311 0.62653 0.41801 0.0
C903 C 0.09898 0.64281 0.35849 0.0
C904 C 0.08453 0.62664 0.36427 0.0
H905 H 0.12254 0.66523 0.36901 0.0
H906 H 0.10095 0.6474 0.34192 0.0
C907 C 0.08241 0.62122 0.38597 0.0
C908 C 0.37462 0.34442 0.83834 0.0
C909 C 0.39023 0.35947 0.84413 0.0
H910 H 0.35245 0.32067 0.84892 0.0
C911 C 0.39585 0.36147 0.86578 0.0
H912 H 0.36997 0.34243 0.82179 0.0
C913 C 0.38571 0.34909 0.88136 0.0
C914 C 0.36984 0.3343 0.8756 0.0
H915 H 0.40782 0.37291 0.87077 0.0
H916 H 0.39016 0.35127 0.89794 0.0
C917 C 0.3646 0.33192 0.85389 0.0
C918 C 0.59434 0.59943 0.85293 0.0
C919 C 0.60211 0.61376 0.83748 0.0
H920 H 0.60181 0.57565 0.87635 0.0
C921 C 0.62416 0.61479 0.83381 0.0
H922 H 0.57743 0.59821 0.85609 0.0
C923 C 0.63815 0.60197 0.84553 0.0
C924 C 0.63038 0.58769 0.86103 0.0
H925 H 0.63066 0.62568 0.82203 0.0
H926 H 0.65507 0.60327 0.84245 0.0
C927 C 0.60831 0.58645 0.8645 0.0
C928 C 0.61955 0.37815 0.08226 0.0
C929 C 0.62054 0.35588 0.08507 0.0
H930 H 0.63106 0.40884 0.09212 0.0
C931 C 0.63473 0.34747 0.10026 0.0
H932 H 0.60877 0.38513 0.0707 0.0
C933 C 0.64763 0.36105 0.11242 0.0
C934 C 0.64646 0.38333 0.10979 0.0
H935 H 0.63591 0.33038 0.10278 0.0
H936 H 0.65835 0.35407 0.12404 0.0
C937 C 0.6323 0.39174 0.09456 0.0
C938 C 0.87807 0.40333 0.35946 0.0
C939 C 0.85583 0.40185 0.35759 0.0
H940 H 0.90839 0.39178 0.34899 0.0
C941 C 0.84711 0.3874 0.34277 0.0
H942 H 0.88529 0.41428 0.37075 0.0
C943 C 0.86035 0.37462 0.33017 0.0
C944 C 0.88259 0.37587 0.33228 0.0
H945 H 0.83003 0.38592 0.34091 0.0
H946 H 0.85313 0.36357 0.31899 0.0
C947 C 0.89131 0.3904 0.34702 0.0
C948 C 0.82929 0.6275 0.60627 0.0
C949 C 0.83031 0.60508 0.60521 0.0
H950 H 0.8418 0.65735 0.59514 0.0
C951 C 0.84483 0.59555 0.59105 0.0
H952 H 0.8183 0.63534 0.61704 0.0
C953 C 0.85818 0.60817 0.57835 0.0
C954 C 0.85745 0.63058 0.57973 0.0
H955 H 0.84597 0.57831 0.58982 0.0
H956 H 0.8693 0.60033 0.56772 0.0
C957 C 0.8428 0.64012 0.59375 0.0
C958 C 0.5995 0.40235 0.62018 0.0
C959 C 0.62102 0.39956 0.62563 0.0
H960 H 0.5673 0.39223 0.62505 0.0
C961 C 0.62635 0.38447 0.64141 0.0
H962 H 0.59485 0.41383 0.60809 0.0
C963 C 0.61053 0.37217 0.65122 0.0
C964 C 0.58906 0.37456 0.64536 0.0
H965 H 0.64278 0.38197 0.64601 0.0
H966 H 0.61519 0.36047 0.6631 0.0
C967 C 0.5837 0.38993 0.62988 0.0
C968 C 0.84909 0.34781 0.89501 0.0
C969 C 0.85942 0.35787 0.91222 0.0
H970 H 0.82802 0.3513 0.86831 0.0
C971 C 0.85615 0.37983 0.91559 0.0
H972 H 0.85125 0.33088 0.89206 0.0
C973 C 0.84314 0.39158 0.90179 0.0
C974 C 0.83278 0.38152 0.88461 0.0
H975 H 0.86396 0.38803 0.92868 0.0
H976 H 0.84112 0.40854 0.90464 0.0
C977 C 0.83573 0.35948 0.88147 0.0
C978 C 0.85904 0.60935 0.15664 0.0
C979 C 0.88136 0.60883 0.15523 0.0
H980 H 0.82941 0.5972 0.14486 0.0
C981 C 0.89095 0.59469 0.14069 0.0
H982 H 0.85118 0.6201 0.16766 0.0
C983 C 0.87849 0.58141 0.12778 0.0
C984 C 0.85616 0.58218 0.12894 0.0
H985 H 0.90811 0.59386 0.13926 0.0
H986 H 0.88636 0.57076 0.11666 0.0
C987 C 0.84657 0.59627 0.14354 0.0
C988 C 0.6235 0.60728 0.4044 0.0
C989 C 0.62429 0.62971 0.40323 0.0
H990 H 0.63526 0.57753 0.39232 0.0
C991 C 0.63839 0.63937 0.38871 0.0
H992 H 0.61277 0.59936 0.4154 0.0
C993 C 0.65142 0.62687 0.37563 0.0
C994 C 0.65044 0.60444 0.37661 0.0
H995 H 0.63941 0.65661 0.38746 0.0
H996 H 0.66209 0.63479 0.36457 0.0
C997 C 0.63635 0.59478 0.39114 0.0
C998 C 0.58807 0.86253 0.61681 0.0
C999 C 0.59122 0.85881 0.63873 0.0
H1000 H 0.59668 0.85415 0.58479 0.0
C1001 C 0.60577 0.84298 0.64507 0.0
H1002 H 0.57697 0.87462 0.61139 0.0
C1003 C 0.61699 0.83118 0.62982 0.0
C1004 C 0.61399 0.83503 0.6079 0.0
H1005 H 0.60854 0.83968 0.66184 0.0
H1006 H 0.62814 0.81915 0.63525 0.0
C1007 C 0.59938 0.85081 0.60156 0.0
C1008 C 0.96976 0.23926 0.3057 0.0
C1009 C 0.97883 0.25977 0.30459 0.0
H1010 H 0.97521 0.20554 0.30542 0.0
C1011 C 0.0011 0.26183 0.30574 0.0
H1012 H 0.95265 0.23715 0.30513 0.0
C1013 C 0.01406 0.2437 0.30575 0.0
C1014 C 0.00499 0.22318 0.30478 0.0
H1015 H 0.00861 0.27742 0.30517 0.0
H1016 H 0.03117 0.2458 0.30521 0.0
C1017 C 0.98272 0.22113 0.30588 0.0
C1018 C -0.00421 0.78067 0.55916 0.0
C1019 C 0.01511 0.76938 0.559 0.0
H1020 H 0.96181 0.77879 0.55922 0.0
C1021 C 0.0147 0.74702 0.56135 0.0
H1022 H -0.00443 0.79791 0.55754 0.0
C1023 C -0.00465 0.73605 0.56229 0.0
C1024 C 0.97601 0.74721 0.56091 0.0
H1025 H 0.02931 0.73785 0.56151 0.0
H1026 H -0.00441 0.71875 0.56309 0.0
C1027 C 0.97643 0.76968 0.56012 0.0
C1028 C 0.46833 0.73783 0.80009 0.0
C1029 C 0.47641 0.75878 0.8003 0.0
H1030 H 0.47544 0.70445 0.79846 0.0
C1031 C 0.49854 0.76184 0.80179 0.0
H1032 H 0.45136 0.73492 0.79915 0.0
C1033 C 0.51238 0.74438 0.80126 0.0
C1034 C 0.50434 0.7235 0.79937 0.0
H1035 H 0.5053 0.77777 0.80218 0.0
H1036 H 0.52937 0.74733 0.80128 0.0
C1037 C 0.48217 0.72035 0.7997 0.0
C1038 C 0.4874 0.26381 0.05227 0.0
C1039 C 0.50821 0.25564 0.05145 0.0
H1040 H 0.4541 0.25681 0.05143 0.0
C1041 C 0.51119 0.23338 0.05228 0.0
H1042 H 0.48457 0.28089 0.05191 0.0
C1043 C 0.49372 0.21955 0.05185 0.0
C1044 C 0.47294 0.22774 0.05076 0.0
H1045 H 0.52703 0.22656 0.0519 0.0
H1046 H 0.49656 0.20249 0.05119 0.0
C1047 C 0.46993 0.24998 0.05201 0.0
C1048 C 0.97525 0.76294 0.18026 0.0
C1049 C -0.00246 0.76104 0.17971 0.0
H1050 H 0.94541 0.7468 0.18375 0.0
C1051 C 0.00663 0.74055 0.17873 0.0
H1052 H 0.96771 0.7785 0.1808 0.0
C1053 C -0.00621 0.72236 0.18027 0.0
C1054 C 0.97167 0.72434 0.183 0.0
H1055 H 0.02374 0.73855 0.17803 0.0
H1056 H 0.0014 0.70684 0.18075 0.0
C1057 C 0.96243 0.74476 0.18198 0.0
C1058 C 0.47 0.73727 0.42967 0.0
C1059 C 0.47215 0.75964 0.43025 0.0
H1060 H 0.48585 0.70701 0.4305 0.0
C1061 C 0.49258 0.76865 0.42866 0.0
H1062 H 0.45446 0.7298 0.43064 0.0
C1063 C 0.51057 0.75555 0.42843 0.0
C1064 C 0.50848 0.73322 0.42995 0.0
H1065 H 0.49475 0.78583 0.4288 0.0
H1066 H 0.52613 0.76304 0.42843 0.0
C1067 C 0.488 0.72418 0.4296 0.0
C1068 C 0.49265 0.26412 0.67498 0.0
C1069 C 0.51478 0.26482 0.67827 0.0
H1070 H 0.46494 0.24454 0.67143 0.0
C1071 C 0.52636 0.24562 0.67788 0.0
H1072 H 0.48327 0.27864 0.67496 0.0
C1073 C 0.51582 0.22604 0.6758 0.0
C1074 C 0.49351 0.22528 0.67409 0.0
H1075 H 0.54345 0.24563 0.68019 0.0
H1076 H 0.5251 0.21148 0.67658 0.0
C1077 C 0.48211 0.24455 0.67292 0.0
C1078 C 0.98441 0.28742 0.98386 0.0
C1079 C 0.96822 0.2866 0.96837 0.0
H1080 H 0.01365 0.27395 -0.00478 0.0
C1081 C 0.97004 0.27207 0.95136 0.0
H1082 H 0.98338 0.29838 -0.00279 0.0
C1083 C 0.98739 0.25824 0.95014 0.0
C1084 C 0.00314 0.25842 0.96608 0.0
H1085 H 0.95783 0.27112 0.93917 0.0
H1086 H 0.98813 0.24699 0.937 0.0
C1087 C 0.00165 0.27333 0.98281 0.0
C1088 C 0.3036 0.99305 0.26434 0.0
C1089 C 0.3009 0.97083 0.26216 0.0
H1090 H 0.30547 0.02332 0.2485 0.0
C1091 C 0.30129 0.96181 0.24161 0.0
H1092 H 0.30359 0.0005 0.27996 0.0
C1093 C 0.30252 0.97491 0.22356 0.0
C1094 C 0.30321 -0.00273 0.22573 0.0
H1095 H 0.29951 0.94473 0.2394 0.0
H1096 H 0.30161 0.96752 0.20794 0.0
C1097 C 0.30467 0.00616 0.24629 0.0
C1098 C 0.24314 0.05979 0.51604 0.0
C1099 C 0.26531 0.05678 0.51673 0.0
H1100 H 0.21536 0.06275 0.49648 0.0
C1101 C 0.27686 0.05713 0.49752 0.0
H1102 H 0.23377 0.05982 0.53057 0.0
C1103 C 0.26628 0.05887 0.47795 0.0
C1104 C 0.24394 0.06025 0.47721 0.0
H1105 H 0.29397 0.05503 0.49752 0.0
H1106 H 0.27555 0.05806 0.46339 0.0
C1107 C 0.23256 0.06149 0.49648 0.0
C1108 C 0.18006 -0.00489 0.73893 0.0
C1109 C 0.18298 0.98335 0.75782 0.0
H1110 H 0.1775 -0.00567 0.7049 0.0
C1111 C 0.18303 0.96088 0.75675 0.0
H1112 H 0.17974 0.01243 0.73922 0.0
C1113 C 0.1818 0.95047 0.73703 0.0
C1114 C 0.18046 0.96233 0.71801 0.0
H1115 H 0.18507 0.95133 0.77104 0.0
H1116 H 0.18294 0.93319 0.73664 0.0
C1117 C 0.17878 0.98471 0.71924 0.0
C1118 C 0.22721 0.93077 -0.00676 0.0
C1119 C 0.23504 0.93357 0.01408 0.0
H1120 H 0.23466 0.92795 0.96005 0.0
C1121 C 0.25715 0.93284 0.01753 0.0
H1122 H 0.21026 0.93103 0.99007 0.0
C1123 C 0.27118 0.93118 0.00029 0.0
C1124 C 0.26336 0.93009 0.97929 0.0
H1125 H 0.26371 0.93474 0.03342 0.0
H1126 H 0.28813 0.93185 0.00336 0.0
C1127 C 0.24123 0.92899 0.97602 0.0
C1128 C 0.21482 0.31313 0.98733 0.0
C1129 C 0.21172 0.31053 0.00943 0.0
H1130 H 0.2371 0.31441 0.96155 0.0
C1131 C 0.22959 0.30966 0.02291 0.0
H1132 H 0.20139 0.31408 0.97652 0.0
C1133 C 0.25012 0.30987 0.01429 0.0
C1134 C 0.25315 0.31096 0.99205 0.0
H1135 H 0.22775 0.3078 0.04001 0.0
H1136 H 0.26354 0.30818 0.02502 0.0
C1137 C 0.23532 0.31335 0.97873 0.0
C1138 C 0.74424 0.17496 0.9783 0.0
C1139 C 0.72473 0.17481 0.98925 0.0
H1140 H 0.77816 0.17591 0.98069 0.0
C1141 C 0.72481 0.17273 0.01163 0.0
H1142 H 0.74474 0.17634 0.96105 0.0
C1143 C 0.74401 0.17252 0.02293 0.0
C1144 C 0.76348 0.17438 0.01205 0.0
H1145 H 0.71005 0.17238 0.02055 0.0
H1146 H 0.74352 0.17203 0.04022 0.0
C1147 C 0.76342 0.17473 0.98958 0.0
C1148 C 0.06536 0.47313 0.25097 0.0
C1149 C 0.06364 0.47287 0.22857 0.0
H1150 H 0.0655 0.49215 0.27939 0.0
C1151 C 0.06399 0.49236 0.21742 0.0
H1152 H 0.06536 0.45839 0.26005 0.0
C1153 C 0.06418 0.51174 0.22853 0.0
C1154 C 0.06391 0.51198 0.251 0.0
H1155 H 0.06293 0.49271 0.20015 0.0
H1156 H 0.06324 0.52647 0.21948 0.0
C1157 C 0.06543 0.4925 0.26209 0.0
C1158 C 0.74516 0.80407 0.50877 0.0
C1159 C 0.72469 0.80285 0.49982 0.0
H1160 H 0.77871 0.80347 0.50313 0.0
C1161 C 0.72255 0.80297 0.47745 0.0
H1162 H 0.74735 0.80424 0.52594 0.0
C1163 C 0.74054 0.80239 0.46435 0.0
C1164 C 0.76101 0.80183 0.47337 0.0
H1165 H 0.70699 0.80225 0.47002 0.0
H1166 H 0.73836 0.80127 0.44721 0.0
C1167 C 0.76315 0.80364 0.49566 0.0
C1168 C 0.92474 -0.0038 0.26898 0.0
C1169 C 0.92531 0.97604 0.2591 0.0
H1170 H 0.92421 0.03009 0.2647 0.0
C1171 C 0.92246 0.97476 0.23685 0.0
H1172 H 0.92661 -0.00229 0.28612 0.0
C1173 C 0.92122 -0.00666 0.22452 0.0
C1174 C 0.92264 0.01354 0.23425 0.0
H1175 H 0.92259 0.95946 0.22875 0.0
H1176 H 0.9204 0.99185 0.2073 0.0
C1177 C 0.92334 0.01477 0.25667 0.0
C1178 C 0.25739 0.6828 0.47012 0.0
C1179 C 0.2577 0.68124 0.49254 0.0
H1180 H 0.23837 0.68621 0.44193 0.0
C1181 C 0.23833 0.67918 0.50354 0.0
H1182 H 0.27205 0.68424 0.46113 0.0
C1183 C 0.21903 0.68028 0.49252 0.0
C1184 C 0.21871 0.68349 0.47028 0.0
H1185 H 0.23801 0.67775 0.52079 0.0
H1186 H 0.20438 0.67962 0.50161 0.0
C1187 C 0.23807 0.68394 0.45909 0.0
C1188 C 0.42359 0.46987 0.74771 0.0
C1189 C 0.42665 0.46923 0.76996 0.0
H1190 H 0.42089 0.48935 0.71975 0.0
C1191 C 0.4268 0.48851 0.78147 0.0
H1192 H 0.42318 0.45529 0.73838 0.0
C1193 C 0.42543 0.50807 0.77075 0.0
C1194 C 0.42392 0.50872 0.74833 0.0
H1195 H 0.42897 0.48855 0.79864 0.0
H1196 H 0.42659 0.52267 0.77999 0.0
C1197 C 0.42225 0.48942 0.737 0.0
C1198 C 0.80973 0.47334 0.74299 0.0
C1199 C 0.80848 0.48352 0.76296 0.0
H1200 H 0.80881 0.47693 0.70904 0.0
C1201 C 0.80859 0.50598 0.76374 0.0
H1202 H 0.80994 0.45606 0.74185 0.0
C1203 C 0.80781 0.51797 0.74492 0.0
C1204 C 0.80705 0.5077 0.72497 0.0
H1205 H 0.80788 0.51435 0.77888 0.0
H1206 H 0.80654 0.5352 0.74608 0.0
C1207 C 0.8091 0.48533 0.72416 0.0
C1208 C 0.71843 0.55828 -0.00621 0.0
C1209 C 0.72777 0.55656 0.97347 0.0
H1210 H 0.72341 0.55885 0.02757 0.0
C1211 C 0.75007 0.55732 0.97174 0.0
H1212 H 0.70129 0.55802 -0.00436 0.0
C1213 C 0.76278 0.55766 0.99007 0.0
C1214 C 0.75342 0.5574 0.01045 0.0
H1215 H 0.75779 0.55626 0.95631 0.0
H1216 H 0.77991 0.55687 0.98825 0.0
C1217 C 0.73114 0.55878 0.0121 0.0
C1218 C 0.67909 0.5168 0.23958 0.0
C1219 C 0.67975 0.50762 0.26006 0.0
H1220 H 0.67948 0.51139 0.20586 0.0
C1221 C 0.67804 0.48529 0.26203 0.0
H1222 H 0.6801 0.53397 0.23752 0.0
C1223 C 0.67783 0.47231 0.24387 0.0
C1224 C 0.67916 0.48144 0.2234 0.0
H1225 H 0.67827 0.47771 0.27759 0.0
H1226 H 0.67787 0.45512 0.24593 0.0
C1227 C 0.67871 0.50383 0.22141 0.0
C1228 C 0.7176 0.42428 0.49271 0.0
C1229 C 0.72764 0.42524 0.51276 0.0
H1230 H 0.7214 0.42508 0.45878 0.0
C1231 C 0.74999 0.42457 0.51369 0.0
H1232 H 0.70041 0.42451 0.49146 0.0
C1233 C 0.76205 0.42503 0.49494 0.0
C1234 C 0.75198 0.42601 0.47492 0.0
H1235 H 0.75824 0.42506 0.52888 0.0
H1236 H 0.77923 0.42582 0.49621 0.0
C1237 C 0.72966 0.4246 0.47397 0.0
C1238 C 0.55152 0.9703 0.76189 0.0
C1239 C 0.55298 0.97177 0.73951 0.0
H1240 H 0.54778 0.98707 0.79144 0.0
C1241 C 0.55488 0.99206 0.73007 0.0
H1242 H 0.55024 0.9549 0.7697 0.0
C1243 C 0.55358 0.01052 0.74257 0.0
C1244 C 0.55023 0.00904 0.76474 0.0
H1245 H 0.55626 -0.00625 0.7129 0.0
H1246 H 0.55398 0.02592 0.73466 0.0
C1247 C 0.55009 0.98875 0.77438 0.0
loop_
_geom_bond_atom_site_label_1
_geom_bond_atom_site_label_2
_geom_bond_distance
_geom_bond_site_symmetry_2
_ccdc_geom_bond_type
O0 Cd1 2.300 . S
O0 C7 1.275 . S
Cd1 O0 2.300 . S
Cd1 O9 2.381 . S
Cd1 O10 2.378 . S
O2 Cd3 2.385 . S
O2 C7 1.255 . S
Cd3 O2 2.385 . S
Cd3 O4 2.317 . S
O4 Cd3 2.317 . S
O4 C5 1.232 . S
C5 O4 1.232 . S
C5 O6 1.218 . S
O6 C5 1.218 . S
C7 O0 1.275 . S
C7 O2 1.255 . S
C8 O9 1.258 . S
C8 O10 1.256 . S
O9 Cd1 2.381 . S
O9 C8 1.258 . S
O10 Cd1 2.378 . S
O10 C8 1.256 . S
O11 Cd12 2.300 . S
O11 C18 1.275 . S
Cd12 O11 2.300 . S
Cd12 O20 2.381 . S
Cd12 O21 2.378 . S
O13 Cd14 2.385 . S
O13 C18 1.255 . S
Cd14 O13 2.385 . S
Cd14 O15 2.317 . S
O15 Cd14 2.317 . S
O15 C16 1.232 . S
C16 O15 1.232 . S
C16 O17 1.218 . S
O17 C16 1.218 . S
C18 O11 1.275 . S
C18 O13 1.255 . S
C19 O20 1.258 . S
C19 O21 1.256 . S
O20 Cd12 2.381 . S
O20 C19 1.258 . S
O21 Cd12 2.378 . S
O21 C19 1.256 . S
O22 Cd23 2.300 . S
O22 C29 1.275 . S
Cd23 O22 2.300 . S
Cd23 O31 2.381 . S
Cd23 O32 2.378 . S
O24 Cd25 2.385 . S
O24 C29 1.255 . S
Cd25 O24 2.385 . S
Cd25 O26 2.317 . S
O26 Cd25 2.317 . S
O26 C27 1.232 . S
C27 O26 1.232 . S
C27 O28 1.218 . S
O28 C27 1.218 . S
C29 O22 1.275 . S
C29 O24 1.255 . S
C30 O31 1.258 . S
C30 O32 1.256 . S
O31 Cd23 2.381 . S
O31 C30 1.258 . S
O32 Cd23 2.378 . S
O32 C30 1.256 . S
O33 Cd34 2.300 . S
O33 C40 1.275 . S
Cd34 O33 2.300 . S
Cd34 O42 2.381 . S
Cd34 O43 2.378 . S
O35 Cd36 2.385 . S
O35 C40 1.255 . S
Cd36 O35 2.385 . S
Cd36 O37 2.317 . S
O37 Cd36 2.317 . S
O37 C38 1.232 . S
C38 O37 1.232 . S
C38 O39 1.218 . S
O39 C38 1.218 . S
C40 O33 1.275 . S
C40 O35 1.255 . S
C41 O42 1.258 . S
C41 O43 1.256 . S
O42 Cd34 2.381 . S
O42 C41 1.258 . S
O43 Cd34 2.378 . S
O43 C41 1.256 . S
O44 Cd45 2.300 . S
O44 C51 1.275 . S
Cd45 O44 2.300 . S
Cd45 O53 2.381 . S
Cd45 O54 2.378 . S
O46 Cd47 2.385 . S
O46 C51 1.255 . S
Cd47 O46 2.385 . S
Cd47 O48 2.317 . S
O48 Cd47 2.317 . S
O48 C49 1.232 . S
C49 O48 1.232 . S
C49 O50 1.218 . S
O50 C49 1.218 . S
C51 O44 1.275 . S
C51 O46 1.255 . S
C52 O53 1.258 . S
C52 O54 1.256 . S
O53 Cd45 2.381 . S
O53 C52 1.258 . S
O54 Cd45 2.378 . S
O54 C52 1.256 . S
O55 Cd56 2.300 . S
O55 C62 1.275 . S
Cd56 O55 2.300 . S
Cd56 O64 2.381 . S
Cd56 O65 2.378 . S
O57 Cd58 2.385 . S
O57 C62 1.255 . S
Cd58 O57 2.385 . S
Cd58 O59 2.317 . S
O59 Cd58 2.317 . S
O59 C60 1.232 . S
C60 O59 1.232 . S
C60 O61 1.218 . S
O61 C60 1.218 . S
C62 O55 1.275 . S
C62 O57 1.255 . S
C63 O64 1.258 . S
C63 O65 1.256 . S
O64 Cd56 2.381 . S
O64 C63 1.258 . S
O65 Cd56 2.378 . S
O65 C63 1.256 . S
O66 Cd67 2.300 . S
O66 C73 1.275 . S
Cd67 O66 2.300 . S
Cd67 O75 2.381 . S
Cd67 O76 2.378 . S
O68 Cd69 2.385 . S
O68 C73 1.255 . S
Cd69 O68 2.385 . S
Cd69 O70 2.317 . S
O70 Cd69 2.317 . S
O70 C71 1.232 . S
C71 O70 1.232 . S
C71 O72 1.218 . S
O72 C71 1.218 . S
C73 O66 1.275 . S
C73 O68 1.255 . S
C74 O75 1.258 . S
C74 O76 1.256 . S
O75 Cd67 2.381 . S
O75 C74 1.258 . S
O76 Cd67 2.378 . S
O76 C74 1.256 . S
O77 Cd78 2.300 . S
O77 C84 1.275 . S
Cd78 O77 2.300 . S
Cd78 O86 2.381 . S
Cd78 O87 2.378 . S
O79 Cd80 2.385 . S
O79 C84 1.255 . S
Cd80 O79 2.385 . S
Cd80 O81 2.317 . S
O81 Cd80 2.317 . S
O81 C82 1.232 . S
C82 O81 1.232 . S
C82 O83 1.218 . S
O83 C82 1.218 . S
C84 O77 1.275 . S
C84 O79 1.255 . S
C85 O86 1.258 . S
C85 O87 1.256 . S
O86 Cd78 2.381 . S
O86 C85 1.258 . S
O87 Cd78 2.378 . S
O87 C85 1.256 . S
O88 Cd89 2.300 . S
O88 C95 1.275 . S
Cd89 O88 2.300 . S
Cd89 O97 2.381 . S
Cd89 O98 2.378 . S
O90 Cd91 2.385 . S
O90 C95 1.255 . S
Cd91 O90 2.385 . S
Cd91 O92 2.317 . S
O92 Cd91 2.317 . S
O92 C93 1.232 . S
C93 O92 1.232 . S
C93 O94 1.218 . S
O94 C93 1.218 . S
C95 O88 1.275 . S
C95 O90 1.255 . S
C96 O97 1.258 . S
C96 O98 1.256 . S
O97 Cd89 2.381 . S
O97 C96 1.258 . S
O98 Cd89 2.378 . S
O98 C96 1.256 . S
O99 Cd100 2.300 . S
O99 C106 1.275 . S
Cd100 O99 2.300 . S
Cd100 O108 2.381 . S
Cd100 O109 2.378 . S
O101 Cd102 2.385 . S
O101 C106 1.255 . S
Cd102 O101 2.385 . S
Cd102 O103 2.317 . S
O103 Cd102 2.317 . S
O103 C104 1.232 . S
C104 O103 1.232 . S
C104 O105 1.218 . S
O105 C104 1.218 . S
C106 O99 1.275 . S
C106 O101 1.255 . S
C107 O108 1.258 . S
C107 O109 1.256 . S
O108 Cd100 2.381 . S
O108 C107 1.258 . S
O109 Cd100 2.378 . S
O109 C107 1.256 . S
O110 Cd111 2.300 . S
O110 C117 1.275 . S
Cd111 O110 2.300 . S
Cd111 O119 2.381 . S
Cd111 O120 2.378 . S
O112 Cd113 2.385 . S
O112 C117 1.255 . S
Cd113 O112 2.385 . S
Cd113 O114 2.317 . S
O114 Cd113 2.317 . S
O114 C115 1.232 . S
C115 O114 1.232 . S
C115 O116 1.218 . S
O116 C115 1.218 . S
C117 O110 1.275 . S
C117 O112 1.255 . S
C118 O119 1.258 . S
C118 O120 1.256 . S
O119 Cd111 2.381 . S
O119 C118 1.258 . S
O120 Cd111 2.378 . S
O120 C118 1.256 . S
O121 Cd122 2.300 . S
O121 C128 1.275 . S
Cd122 O121 2.300 . S
Cd122 O130 2.381 . S
Cd122 O131 2.378 . S
O123 Cd124 2.385 . S
O123 C128 1.255 . S
Cd124 O123 2.385 . S
Cd124 O125 2.317 . S
O125 Cd124 2.317 . S
O125 C126 1.232 . S
C126 O125 1.232 . S
C126 O127 1.218 . S
O127 C126 1.218 . S
C128 O121 1.275 . S
C128 O123 1.255 . S
C129 O130 1.258 . S
C129 O131 1.256 . S
O130 Cd122 2.381 . S
O130 C129 1.258 . S
O131 Cd122 2.378 . S
O131 C129 1.256 . S
O132 Cd133 2.300 . S
O132 C139 1.275 . S
Cd133 O132 2.300 . S
Cd133 O141 2.381 . S
Cd133 O142 2.378 . S
O134 Cd135 2.385 . S
O134 C139 1.255 . S
Cd135 O134 2.385 . S
Cd135 O136 2.317 . S
O136 Cd135 2.317 . S
O136 C137 1.232 . S
C137 O136 1.232 . S
C137 O138 1.218 . S
O138 C137 1.218 . S
C139 O132 1.275 . S
C139 O134 1.255 . S
C140 O141 1.258 . S
C140 O142 1.256 . S
O141 Cd133 2.381 . S
O141 C140 1.258 . S
O142 Cd133 2.378 . S
O142 C140 1.256 . S
O143 Cd144 2.300 . S
O143 C150 1.275 . S
Cd144 O143 2.300 . S
Cd144 O152 2.381 . S
Cd144 O153 2.378 . S
O145 Cd146 2.385 . S
O145 C150 1.255 . S
Cd146 O145 2.385 . S
Cd146 O147 2.317 . S
O147 Cd146 2.317 . S
O147 C148 1.232 . S
C148 O147 1.232 . S
C148 O149 1.218 . S
O149 C148 1.218 . S
C150 O143 1.275 . S
C150 O145 1.255 . S
C151 O152 1.258 . S
C151 O153 1.256 . S
O152 Cd144 2.381 . S
O152 C151 1.258 . S
O153 Cd144 2.378 . S
O153 C151 1.256 . S
O154 Cd155 2.300 . S
O154 C161 1.275 . S
Cd155 O154 2.300 . S
Cd155 O163 2.381 . S
Cd155 O164 2.378 . S
O156 Cd157 2.385 . S
O156 C161 1.255 . S
Cd157 O156 2.385 . S
Cd157 O158 2.317 . S
O158 Cd157 2.317 . S
O158 C159 1.232 . S
C159 O158 1.232 . S
C159 O160 1.218 . S
O160 C159 1.218 . S
C161 O154 1.275 . S
C161 O156 1.255 . S
C162 O163 1.258 . S
C162 O164 1.256 . S
O163 Cd155 2.381 . S
O163 C162 1.258 . S
O164 Cd155 2.378 . S
O164 C162 1.256 . S
O165 Cd166 2.300 . S
O165 C172 1.275 . S
Cd166 O165 2.300 . S
Cd166 O174 2.381 . S
Cd166 O175 2.378 . S
O167 Cd168 2.385 . S
O167 C172 1.255 . S
Cd168 O167 2.385 . S
Cd168 O169 2.317 . S
O169 Cd168 2.317 . S
O169 C170 1.232 . S
C170 O169 1.232 . S
C170 O171 1.218 . S
O171 C170 1.218 . S
C172 O165 1.275 . S
C172 O167 1.255 . S
C173 O174 1.258 . S
C173 O175 1.256 . S
O174 Cd166 2.381 . S
O174 C173 1.258 . S
O175 Cd166 2.378 . S
O175 C173 1.256 . S
O176 Cd177 2.300 . S
O176 C183 1.275 . S
Cd177 O176 2.300 . S
Cd177 O185 2.381 . S
Cd177 O186 2.378 . S
O178 Cd179 2.385 . S
O178 C183 1.255 . S
Cd179 O178 2.385 . S
Cd179 O180 2.317 . S
O180 Cd179 2.317 . S
O180 C181 1.232 . S
C181 O180 1.232 . S
C181 O182 1.218 . S
O182 C181 1.218 . S
C183 O176 1.275 . S
C183 O178 1.255 . S
C184 O185 1.258 . S
C184 O186 1.256 . S
O185 Cd177 2.381 . S
O185 C184 1.258 . S
O186 Cd177 2.378 . S
O186 C184 1.256 . S
O187 Cd188 2.300 . S
O187 C194 1.275 . S
Cd188 O187 2.300 . S
Cd188 O196 2.381 . S
Cd188 O197 2.378 . S
O189 Cd190 2.385 . S
O189 C194 1.255 . S
Cd190 O189 2.385 . S
Cd190 O191 2.317 . S
O191 Cd190 2.317 . S
O191 C192 1.232 . S
C192 O191 1.232 . S
C192 O193 1.218 . S
O193 C192 1.218 . S
C194 O187 1.275 . S
C194 O189 1.255 . S
C195 O196 1.258 . S
C195 O197 1.256 . S
O196 Cd188 2.381 . S
O196 C195 1.258 . S
O197 Cd188 2.378 . S
O197 C195 1.256 . S
O198 Cd199 2.300 . S
O198 C205 1.275 . S
Cd199 O198 2.300 . S
Cd199 O207 2.381 . S
Cd199 O208 2.378 . S
O200 Cd201 2.385 . S
O200 C205 1.255 . S
Cd201 O200 2.385 . S
Cd201 O202 2.317 . S
O202 Cd201 2.317 . S
O202 C203 1.232 . S
C203 O202 1.232 . S
C203 O204 1.218 . S
O204 C203 1.218 . S
C205 O198 1.275 . S
C205 O200 1.255 . S
C206 O207 1.258 . S
C206 O208 1.256 . S
O207 Cd199 2.381 . S
O207 C206 1.258 . S
O208 Cd199 2.378 . S
O208 C206 1.256 . S
O209 Cd210 2.300 . S
O209 C216 1.275 . S
Cd210 O209 2.300 . S
Cd210 O218 2.381 . S
Cd210 O219 2.378 . S
O211 Cd212 2.385 . S
O211 C216 1.255 . S
Cd212 O211 2.385 . S
Cd212 O213 2.317 . S
O213 Cd212 2.317 . S
O213 C214 1.232 . S
C214 O213 1.232 . S
C214 O215 1.218 . S
O215 C214 1.218 . S
C216 O209 1.275 . S
C216 O211 1.255 . S
C217 O218 1.258 . S
C217 O219 1.256 . S
O218 Cd210 2.381 . S
O218 C217 1.258 . S
O219 Cd210 2.378 . S
O219 C217 1.256 . S
O220 Cd221 2.300 . S
O220 C227 1.275 . S
Cd221 O220 2.300 . S
Cd221 O229 2.381 . S
Cd221 O230 2.378 . S
O222 Cd223 2.385 . S
O222 C227 1.255 . S
Cd223 O222 2.385 . S
Cd223 O224 2.317 . S
O224 Cd223 2.317 . S
O224 C225 1.232 . S
C225 O224 1.232 . S
C225 O226 1.218 . S
O226 C225 1.218 . S
C227 O220 1.275 . S
C227 O222 1.255 . S
C228 O229 1.258 . S
C228 O230 1.256 . S
O229 Cd221 2.381 . S
O229 C228 1.258 . S
O230 Cd221 2.378 . S
O230 C228 1.256 . S
O231 Cd232 2.300 . S
O231 C238 1.275 . S
Cd232 O231 2.300 . S
Cd232 O240 2.381 . S
Cd232 O241 2.378 . S
O233 Cd234 2.385 . S
O233 C238 1.255 . S
Cd234 O233 2.385 . S
Cd234 O235 2.317 . S
O235 Cd234 2.317 . S
O235 C236 1.232 . S
C236 O235 1.232 . S
C236 O237 1.218 . S
O237 C236 1.218 . S
C238 O231 1.275 . S
C238 O233 1.255 . S
C239 O240 1.258 . S
C239 O241 1.256 . S
O240 Cd232 2.381 . S
O240 C239 1.258 . S
O241 Cd232 2.378 . S
O241 C239 1.256 . S
O242 Cd243 2.300 . S
O242 C249 1.275 . S
Cd243 O242 2.300 . S
Cd243 O251 2.381 . S
Cd243 O252 2.378 . S
O244 Cd245 2.385 . S
O244 C249 1.255 . S
Cd245 O244 2.385 . S
Cd245 O246 2.317 . S
O246 Cd245 2.317 . S
O246 C247 1.232 . S
C247 O246 1.232 . S
C247 O248 1.218 . S
O248 C247 1.218 . S
C249 O242 1.275 . S
C249 O244 1.255 . S
C250 O251 1.258 . S
C250 O252 1.256 . S
O251 Cd243 2.381 . S
O251 C250 1.258 . S
O252 Cd243 2.378 . S
O252 C250 1.256 . S
O253 Cd254 2.300 . S
O253 C260 1.275 . S
Cd254 O253 2.300 . S
Cd254 O262 2.381 . S
Cd254 O263 2.378 . S
O255 Cd256 2.385 . S
O255 C260 1.255 . S
Cd256 O255 2.385 . S
Cd256 O257 2.317 . S
O257 Cd256 2.317 . S
O257 C258 1.232 . S
C258 O257 1.232 . S
C258 O259 1.218 . S
O259 C258 1.218 . S
C260 O253 1.275 . S
C260 O255 1.255 . S
C261 O262 1.258 . S
C261 O263 1.256 . S
O262 Cd254 2.381 . S
O262 C261 1.258 . S
O263 Cd254 2.378 . S
O263 C261 1.256 . S
O264 Cd265 2.300 . S
O264 C271 1.275 . S
Cd265 O264 2.300 . S
Cd265 O273 2.381 . S
Cd265 O274 2.378 . S
O266 Cd267 2.385 . S
O266 C271 1.255 . S
Cd267 O266 2.385 . S
Cd267 O268 2.317 . S
O268 Cd267 2.317 . S
O268 C269 1.232 . S
C269 O268 1.232 . S
C269 O270 1.218 . S
O270 C269 1.218 . S
C271 O264 1.275 . S
C271 O266 1.255 . S
C272 O273 1.258 . S
C272 O274 1.256 . S
O273 Cd265 2.381 . S
O273 C272 1.258 . S
O274 Cd265 2.378 . S
O274 C272 1.256 . S
O275 Cd276 2.300 . S
O275 C282 1.275 . S
Cd276 O275 2.300 . S
Cd276 O284 2.381 . S
Cd276 O285 2.378 . S
O277 Cd278 2.385 . S
O277 C282 1.255 . S
Cd278 O277 2.385 . S
Cd278 O279 2.317 . S
O279 Cd278 2.317 . S
O279 C280 1.232 . S
C280 O279 1.232 . S
C280 O281 1.218 . S
O281 C280 1.218 . S
C282 O275 1.275 . S
C282 O277 1.255 . S
C283 O284 1.258 . S
C283 O285 1.256 . S
O284 Cd276 2.381 . S
O284 C283 1.258 . S
O285 Cd276 2.378 . S
O285 C283 1.256 . S
O286 Cd287 2.300 . S
O286 C293 1.275 . S
Cd287 O286 2.300 . S
Cd287 O295 2.381 . S
Cd287 O296 2.378 . S
O288 Cd289 2.385 . S
O288 C293 1.255 . S
Cd289 O288 2.385 . S
Cd289 O290 2.317 . S
O290 Cd289 2.317 . S
O290 C291 1.232 . S
C291 O290 1.232 . S
C291 O292 1.218 . S
O292 C291 1.218 . S
C293 O286 1.275 . S
C293 O288 1.255 . S
C294 O295 1.258 . S
C294 O296 1.256 . S
O295 Cd287 2.381 . S
O295 C294 1.258 . S
O296 Cd287 2.378 . S
O296 C294 1.256 . S
O297 Cd298 2.300 . S
O297 C304 1.275 . S
Cd298 O297 2.300 . S
Cd298 O306 2.381 . S
Cd298 O307 2.378 . S
O299 Cd300 2.385 . S
O299 C304 1.255 . S
Cd300 O299 2.385 . S
Cd300 O301 2.317 . S
O301 Cd300 2.317 . S
O301 C302 1.232 . S
C302 O301 1.232 . S
C302 O303 1.218 . S
O303 C302 1.218 . S
C304 O297 1.275 . S
C304 O299 1.255 . S
C305 O306 1.258 . S
C305 O307 1.256 . S
O306 Cd298 2.381 . S
O306 C305 1.258 . S
O307 Cd298 2.378 . S
O307 C305 1.256 . S
O308 Cd309 2.300 . S
O308 C315 1.275 . S
Cd309 O308 2.300 . S
Cd309 O317 2.381 . S
Cd309 O318 2.378 . S
O310 Cd311 2.385 . S
O310 C315 1.255 . S
Cd311 O310 2.385 . S
Cd311 O312 2.317 . S
O312 Cd311 2.317 . S
O312 C313 1.232 . S
C313 O312 1.232 . S
C313 O314 1.218 . S
O314 C313 1.218 . S
C315 O308 1.275 . S
C315 O310 1.255 . S
C316 O317 1.258 . S
C316 O318 1.256 . S
O317 Cd309 2.381 . S
O317 C316 1.258 . S
O318 Cd309 2.378 . S
O318 C316 1.256 . S
O319 Cd320 2.300 . S
O319 C326 1.275 . S
Cd320 O319 2.300 . S
Cd320 O328 2.381 . S
Cd320 O329 2.378 . S
O321 Cd322 2.385 . S
O321 C326 1.255 . S
Cd322 O321 2.385 . S
Cd322 O323 2.317 . S
O323 Cd322 2.317 . S
O323 C324 1.232 . S
C324 O323 1.232 . S
C324 O325 1.218 . S
O325 C324 1.218 . S
C326 O319 1.275 . S
C326 O321 1.255 . S
C327 O328 1.258 . S
C327 O329 1.256 . S
O328 Cd320 2.381 . S
O328 C327 1.258 . S
O329 Cd320 2.378 . S
O329 C327 1.256 . S
O330 Cd331 2.300 . S
O330 C337 1.275 . S
Cd331 O330 2.300 . S
Cd331 O339 2.381 . S
Cd331 O340 2.378 . S
O332 Cd333 2.385 . S
O332 C337 1.255 . S
Cd333 O332 2.385 . S
Cd333 O334 2.317 . S
O334 Cd333 2.317 . S
O334 C335 1.232 . S
C335 O334 1.232 . S
C335 O336 1.218 . S
O336 C335 1.218 . S
C337 O330 1.275 . S
C337 O332 1.255 . S
C338 O339 1.258 . S
C338 O340 1.256 . S
O339 Cd331 2.381 . S
O339 C338 1.258 . S
O340 Cd331 2.378 . S
O340 C338 1.256 . S
O341 Cd342 2.300 . S
O341 C348 1.275 . S
Cd342 O341 2.300 . S
Cd342 O350 2.381 . S
Cd342 O351 2.378 . S
O343 Cd344 2.385 . S
O343 C348 1.255 . S
Cd344 O343 2.385 . S
Cd344 O345 2.317 . S
O345 Cd344 2.317 . S
O345 C346 1.232 . S
C346 O345 1.232 . S
C346 O347 1.218 . S
O347 C346 1.218 . S
C348 O341 1.275 . S
C348 O343 1.255 . S
C349 O350 1.258 . S
C349 O351 1.256 . S
O350 Cd342 2.381 . S
O350 C349 1.258 . S
O351 Cd342 2.378 . S
O351 C349 1.256 . S
O352 Cd353 2.300 . S
O352 C359 1.275 . S
Cd353 O352 2.300 . S
Cd353 O361 2.381 . S
Cd353 O362 2.378 . S
O354 Cd355 2.385 . S
O354 C359 1.255 . S
Cd355 O354 2.385 . S
Cd355 O356 2.317 . S
O356 Cd355 2.317 . S
O356 C357 1.232 . S
C357 O356 1.232 . S
C357 O358 1.218 . S
O358 C357 1.218 . S
C359 O352 1.275 . S
C359 O354 1.255 . S
C360 O361 1.258 . S
C360 O362 1.256 . S
O361 Cd353 2.381 . S
O361 C360 1.258 . S
O362 Cd353 2.378 . S
O362 C360 1.256 . S
O363 Cd364 2.300 . S
O363 C370 1.275 . S
Cd364 O363 2.300 . S
Cd364 O372 2.381 . S
Cd364 O373 2.378 . S
O365 Cd366 2.385 . S
O365 C370 1.255 . S
Cd366 O365 2.385 . S
Cd366 O367 2.317 . S
O367 Cd366 2.317 . S
O367 C368 1.232 . S
C368 O367 1.232 . S
C368 O369 1.218 . S
O369 C368 1.218 . S
C370 O363 1.275 . S
C370 O365 1.255 . S
C371 O372 1.258 . S
C371 O373 1.256 . S
O372 Cd364 2.381 . S
O372 C371 1.258 . S
O373 Cd364 2.378 . S
O373 C371 1.256 . S
O374 Cd375 2.300 . S
O374 C381 1.275 . S
Cd375 O374 2.300 . S
Cd375 O383 2.381 . S
Cd375 O384 2.378 . S
O376 Cd377 2.385 . S
O376 C381 1.255 . S
Cd377 O376 2.385 . S
Cd377 O378 2.317 . S
O378 Cd377 2.317 . S
O378 C379 1.232 . S
C379 O378 1.232 . S
C379 O380 1.218 . S
O380 C379 1.218 . S
C381 O374 1.275 . S
C381 O376 1.255 . S
C382 O383 1.258 . S
C382 O384 1.256 . S
O383 Cd375 2.381 . S
O383 C382 1.258 . S
O384 Cd375 2.378 . S
O384 C382 1.256 . S
O385 Cd386 2.300 . S
O385 C392 1.275 . S
Cd386 O385 2.300 . S
Cd386 O394 2.381 . S
Cd386 O395 2.378 . S
O387 Cd388 2.385 . S
O387 C392 1.255 . S
Cd388 O387 2.385 . S
Cd388 O389 2.317 . S
O389 Cd388 2.317 . S
O389 C390 1.232 . S
C390 O389 1.232 . S
C390 O391 1.218 . S
O391 C390 1.218 . S
C392 O385 1.275 . S
C392 O387 1.255 . S
C393 O394 1.258 . S
C393 O395 1.256 . S
O394 Cd386 2.381 . S
O394 C393 1.258 . S
O395 Cd386 2.378 . S
O395 C393 1.256 . S
O396 Cd397 2.300 . S
O396 C403 1.275 . S
Cd397 O396 2.300 . S
Cd397 O405 2.381 . S
Cd397 O406 2.378 . S
O398 Cd399 2.385 . S
O398 C403 1.255 . S
Cd399 O398 2.385 . S
Cd399 O400 2.317 . S
O400 Cd399 2.317 . S
O400 C401 1.232 . S
C401 O400 1.232 . S
C401 O402 1.218 . S
O402 C401 1.218 . S
C403 O396 1.275 . S
C403 O398 1.255 . S
C404 O405 1.258 . S
C404 O406 1.256 . S
O405 Cd397 2.381 . S
O405 C404 1.258 . S
O406 Cd397 2.378 . S
O406 C404 1.256 . S
O407 Cd408 2.300 . S
O407 C414 1.275 . S
Cd408 O407 2.300 . S
Cd408 O416 2.381 . S
Cd408 O417 2.378 . S
O409 Cd410 2.385 . S
O409 C414 1.255 . S
Cd410 O409 2.385 . S
Cd410 O411 2.317 . S
O411 Cd410 2.317 . S
O411 C412 1.232 . S
C412 O411 1.232 . S
C412 O413 1.218 . S
O413 C412 1.218 . S
C414 O407 1.275 . S
C414 O409 1.255 . S
C415 O416 1.258 . S
C415 O417 1.256 . S
O416 Cd408 2.381 . S
O416 C415 1.258 . S
O417 Cd408 2.378 . S
O417 C415 1.256 . S
O418 Cd419 2.300 . S
O418 C425 1.275 . S
Cd419 O418 2.300 . S
Cd419 O427 2.381 . S
Cd419 O428 2.378 . S
O420 Cd421 2.385 . S
O420 C425 1.255 . S
Cd421 O420 2.385 . S
Cd421 O422 2.317 . S
O422 Cd421 2.317 . S
O422 C423 1.232 . S
C423 O422 1.232 . S
C423 O424 1.218 . S
O424 C423 1.218 . S
C425 O418 1.275 . S
C425 O420 1.255 . S
C426 O427 1.258 . S
C426 O428 1.256 . S
O427 Cd419 2.381 . S
O427 C426 1.258 . S
O428 Cd419 2.378 . S
O428 C426 1.256 . S
O429 Cd430 2.300 . S
O429 C436 1.275 . S
Cd430 O429 2.300 . S
Cd430 O438 2.381 . S
Cd430 O439 2.378 . S
O431 Cd432 2.385 . S
O431 C436 1.255 . S
Cd432 O431 2.385 . S
Cd432 O433 2.317 . S
O433 Cd432 2.317 . S
O433 C434 1.232 . S
C434 O433 1.232 . S
C434 O435 1.218 . S
O435 C434 1.218 . S
C436 O429 1.275 . S
C436 O431 1.255 . S
C437 O438 1.258 . S
C437 O439 1.256 . S
O438 Cd430 2.381 . S
O438 C437 1.258 . S
O439 Cd430 2.378 . S
O439 C437 1.256 . S
O440 Cd441 2.300 . S
O440 C447 1.275 . S
Cd441 O440 2.300 . S
Cd441 O449 2.381 . S
Cd441 O450 2.378 . S
O442 Cd443 2.385 . S
O442 C447 1.255 . S
Cd443 O442 2.385 . S
Cd443 O444 2.317 . S
O444 Cd443 2.317 . S
O444 C445 1.232 . S
C445 O444 1.232 . S
C445 O446 1.218 . S
O446 C445 1.218 . S
C447 O440 1.275 . S
C447 O442 1.255 . S
C448 O449 1.258 . S
C448 O450 1.256 . S
O449 Cd441 2.381 . S
O449 C448 1.258 . S
O450 Cd441 2.378 . S
O450 C448 1.256 . S
O451 Cd452 2.300 . S
O451 C458 1.275 . S
Cd452 O451 2.300 . S
Cd452 O460 2.381 . S
Cd452 O461 2.378 . S
O453 Cd454 2.385 . S
O453 C458 1.255 . S
Cd454 O453 2.385 . S
Cd454 O455 2.317 . S
O455 Cd454 2.317 . S
O455 C456 1.232 . S
C456 O455 1.232 . S
C456 O457 1.218 . S
O457 C456 1.218 . S
C458 O451 1.275 . S
C458 O453 1.255 . S
C459 O460 1.258 . S
C459 O461 1.256 . S
O460 Cd452 2.381 . S
O460 C459 1.258 . S
O461 Cd452 2.378 . S
O461 C459 1.256 . S
O462 Cd463 2.300 . S
O462 C469 1.275 . S
Cd463 O462 2.300 . S
Cd463 O471 2.381 . S
Cd463 O472 2.378 . S
O464 Cd465 2.385 . S
O464 C469 1.255 . S
Cd465 O464 2.385 . S
Cd465 O466 2.317 . S
O466 Cd465 2.317 . S
O466 C467 1.232 . S
C467 O466 1.232 . S
C467 O468 1.218 . S
O468 C467 1.218 . S
C469 O462 1.275 . S
C469 O464 1.255 . S
C470 O471 1.258 . S
C470 O472 1.256 . S
O471 Cd463 2.381 . S
O471 C470 1.258 . S
O472 Cd463 2.378 . S
O472 C470 1.256 . S
O473 Cd474 2.300 . S
O473 C480 1.275 . S
Cd474 O473 2.300 . S
Cd474 O482 2.381 . S
Cd474 O483 2.378 . S
O475 Cd476 2.385 . S
O475 C480 1.255 . S
Cd476 O475 2.385 . S
Cd476 O477 2.317 . S
O477 Cd476 2.317 . S
O477 C478 1.232 . S
C478 O477 1.232 . S
C478 O479 1.218 . S
O479 C478 1.218 . S
C480 O473 1.275 . S
C480 O475 1.255 . S
C481 O482 1.258 . S
C481 O483 1.256 . S
O482 Cd474 2.381 . S
O482 C481 1.258 . S
O483 Cd474 2.378 . S
O483 C481 1.256 . S
O484 Cd485 2.300 . S
O484 C491 1.275 . S
Cd485 O484 2.300 . S
Cd485 O493 2.381 . S
Cd485 O494 2.378 . S
O486 Cd487 2.385 . S
O486 C491 1.255 . S
Cd487 O486 2.385 . S
Cd487 O488 2.317 . S
O488 Cd487 2.317 . S
O488 C489 1.232 . S
C489 O488 1.232 . S
C489 O490 1.218 . S
O490 C489 1.218 . S
C491 O484 1.275 . S
C491 O486 1.255 . S
C492 O493 1.258 . S
C492 O494 1.256 . S
O493 Cd485 2.381 . S
O493 C492 1.258 . S
O494 Cd485 2.378 . S
O494 C492 1.256 . S
O495 Cd496 2.300 . S
O495 C502 1.275 . S
Cd496 O495 2.300 . S
Cd496 O504 2.381 . S
Cd496 O505 2.378 . S
O497 Cd498 2.385 . S
O497 C502 1.255 . S
Cd498 O497 2.385 . S
Cd498 O499 2.317 . S
O499 Cd498 2.317 . S
O499 C500 1.232 . S
C500 O499 1.232 . S
C500 O501 1.218 . S
O501 C500 1.218 . S
C502 O495 1.275 . S
C502 O497 1.255 . S
C503 O504 1.258 . S
C503 O505 1.256 . S
O504 Cd496 2.381 . S
O504 C503 1.258 . S
O505 Cd496 2.378 . S
O505 C503 1.256 . S
O506 Cd507 2.300 . S
O506 C513 1.275 . S
Cd507 O506 2.300 . S
Cd507 O515 2.381 . S
Cd507 O516 2.378 . S
O508 Cd509 2.385 . S
O508 C513 1.255 . S
Cd509 O508 2.385 . S
Cd509 O510 2.317 . S
O510 Cd509 2.317 . S
O510 C511 1.232 . S
C511 O510 1.232 . S
C511 O512 1.218 . S
O512 C511 1.218 . S
C513 O506 1.275 . S
C513 O508 1.255 . S
C514 O515 1.258 . S
C514 O516 1.256 . S
O515 Cd507 2.381 . S
O515 C514 1.258 . S
O516 Cd507 2.378 . S
O516 C514 1.256 . S
O517 Cd518 2.300 . S
O517 C524 1.275 . S
Cd518 O517 2.300 . S
Cd518 O526 2.381 . S
Cd518 O527 2.378 . S
O519 Cd520 2.385 . S
O519 C524 1.255 . S
Cd520 O519 2.385 . S
Cd520 O521 2.317 . S
O521 Cd520 2.317 . S
O521 C522 1.232 . S
C522 O521 1.232 . S
C522 O523 1.218 . S
O523 C522 1.218 . S
C524 O517 1.275 . S
C524 O519 1.255 . S
C525 O526 1.258 . S
C525 O527 1.256 . S
O526 Cd518 2.381 . S
O526 C525 1.258 . S
O527 Cd518 2.378 . S
O527 C525 1.256 . S
C528 C529 1.387 . S
C528 H532 0.951 . S
C528 C537 1.390 1_655 S
C529 C528 1.387 . S
C529 C531 1.387 . S
H530 C537 0.950 . S
C531 C529 1.387 . S
C531 C533 1.390 . S
C531 H535 0.950 . S
H532 C528 0.951 . S
C533 C531 1.390 . S
C533 C534 1.387 1_655 S
C533 H536 0.950 . S
C534 C533 1.387 1_455 S
C534 C537 1.387 . S
H535 C531 0.950 . S
H536 C533 0.950 . S
C537 C528 1.390 1_455 S
C537 H530 0.950 . S
C537 C534 1.387 . S
C538 C539 1.387 . S
C538 H542 0.950 . S
C538 C547 1.390 . S
C539 C538 1.387 . S
C539 C541 1.387 . S
H540 C547 0.950 . S
C541 C539 1.387 . S
C541 C543 1.390 . S
C541 H545 0.950 . S
H542 C538 0.950 . S
C543 C541 1.390 . S
C543 C544 1.387 . S
C543 H546 0.950 . S
C544 C543 1.387 . S
C544 C547 1.387 . S
H545 C541 0.950 . S
H546 C543 0.950 . S
C547 C538 1.390 . S
C547 H540 0.950 . S
C547 C544 1.387 . S
C548 C549 1.387 . S
C548 H552 0.950 . S
C548 C557 1.390 . S
C549 C548 1.387 . S
C549 C551 1.387 . S
H550 C557 0.950 . S
C551 C549 1.387 . S
C551 C553 1.390 . S
C551 H555 0.950 . S
H552 C548 0.950 . S
C553 C551 1.390 . S
C553 C554 1.387 . S
C553 H556 0.950 . S
C554 C553 1.387 . S
C554 C557 1.387 . S
H555 C551 0.950 . S
H556 C553 0.950 . S
C557 C548 1.390 . S
C557 H550 0.950 . S
C557 C554 1.387 . S
C558 C559 1.387 . S
C558 H562 0.950 . S
C558 C567 1.374 1_556 S
C559 C558 1.387 . S
C559 C561 1.387 1_556 S
H560 C567 0.949 . S
C561 C559 1.387 1_554 S
C561 C563 1.390 . S
C561 H565 0.950 . S
H562 C558 0.950 . S
C563 C561 1.390 . S
C563 C564 1.387 . S
C563 H566 0.950 . S
C564 C563 1.387 . S
C564 C567 1.405 . S
H565 C561 0.950 . S
H566 C563 0.950 . S
C567 C558 1.374 1_554 S
C567 H560 0.949 . S
C567 C564 1.405 . S
C568 C569 1.387 . S
C568 H572 0.950 . S
C568 C577 1.390 1_655 S
C569 C568 1.387 . S
C569 C571 1.387 . S
H570 C577 0.950 . S
C571 C569 1.387 . S
C571 C573 1.390 1_655 S
C571 H575 0.950 . S
H572 C568 0.950 . S
C573 C571 1.390 1_455 S
C573 C574 1.387 . S
C573 H576 0.950 . S
C574 C573 1.387 . S
C574 C577 1.387 . S
H575 C571 0.950 . S
H576 C573 0.950 . S
C577 C568 1.390 1_455 S
C577 H570 0.950 . S
C577 C574 1.387 . S
C578 C579 1.387 . S
C578 H582 0.950 . S
C578 C587 1.390 . S
C579 C578 1.387 . S
C579 C581 1.387 . S
H580 C587 0.950 . S
C581 C579 1.387 . S
C581 C583 1.390 . S
C581 H585 0.950 . S
H582 C578 0.950 . S
C583 C581 1.390 . S
C583 C584 1.387 . S
C583 H586 0.950 . S
C584 C583 1.387 . S
C584 C587 1.387 . S
H585 C581 0.950 . S
H586 C583 0.950 . S
C587 C578 1.390 . S
C587 H580 0.950 . S
C587 C584 1.387 . S
C588 C589 1.387 . S
C588 H592 0.950 . S
C588 C597 1.390 . S
C589 C588 1.387 . S
C589 C591 1.387 . S
H590 C597 0.950 . S
C591 C589 1.387 . S
C591 C593 1.390 . S
C591 H595 0.950 . S
H592 C588 0.950 . S
C593 C591 1.390 . S
C593 C594 1.387 . S
C593 H596 0.950 . S
C594 C593 1.387 . S
C594 C597 1.387 . S
H595 C591 0.950 . S
H596 C593 0.950 . S
C597 C588 1.390 . S
C597 H590 0.950 . S
C597 C594 1.387 . S
C598 C599 1.387 . S
C598 H602 0.950 . S
C598 C607 1.390 . S
C599 C598 1.387 . S
C599 C601 1.387 1_556 S
H600 C607 0.950 . S
C601 C599 1.387 1_554 S
C601 C603 1.390 . S
C601 H605 0.950 . S
H602 C598 0.950 . S
C603 C601 1.390 . S
C603 C604 1.387 . S
C603 H606 0.950 . S
C604 C603 1.387 . S
C604 C607 1.387 1_554 S
H605 C601 0.950 . S
H606 C603 0.950 . S
C607 C598 1.390 . S
C607 H600 0.950 . S
C607 C604 1.387 1_556 S
C608 C609 1.387 1_565 S
C608 H612 0.950 . S
C608 C617 1.390 . S
C609 C608 1.387 1_545 S
C609 C611 1.387 . S
H610 C617 0.950 . S
C611 C609 1.387 . S
C611 C613 1.390 . S
C611 H615 0.950 . S
H612 C608 0.950 . S
C613 C611 1.390 . S
C613 C614 1.387 1_545 S
C613 H616 0.950 . S
C614 C613 1.387 1_565 S
C614 C617 1.387 . S
H615 C611 0.950 . S
H616 C613 0.950 . S
C617 C608 1.390 . S
C617 H610 0.950 . S
C617 C614 1.387 . S
C618 C619 1.387 . S
C618 H622 0.950 . S
C618 C627 1.390 . S
C619 C618 1.387 . S
C619 C621 1.387 1_565 S
H620 C627 0.950 . S
C621 C619 1.387 1_545 S
C621 C623 1.390 . S
C621 H625 0.950 . S
H622 C618 0.950 . S
C623 C621 1.390 . S
C623 C624 1.387 . S
C623 H626 0.950 . S
C624 C623 1.387 . S
C624 C627 1.387 1_545 S
H625 C621 0.950 . S
H626 C623 0.950 . S
C627 C618 1.390 . S
C627 H620 0.950 . S
C627 C624 1.387 1_565 S
C628 C629 1.387 1_565 S
C628 H632 0.950 . S
C628 C637 1.390 . S
C629 C628 1.387 1_545 S
C629 C631 1.387 . S
H630 C637 0.950 . S
C631 C629 1.387 . S
C631 C633 1.390 . S
C631 H635 0.950 . S
H632 C628 0.950 . S
C633 C631 1.390 . S
C633 C634 1.387 1_545 S
C633 H636 0.950 . S
C634 C633 1.387 1_565 S
C634 C637 1.387 . S
H635 C631 0.950 . S
H636 C633 0.950 . S
C637 C628 1.390 . S
C637 H630 0.950 . S
C637 C634 1.387 . S
C638 C639 1.387 1_565 S
C638 H642 0.950 . S
C638 C647 1.390 . S
C639 C638 1.387 1_545 S
C639 C641 1.387 . S
H640 C647 0.950 . S
C641 C639 1.387 . S
C641 C643 1.390 . S
C641 H645 0.950 . S
H642 C638 0.950 . S
C643 C641 1.390 . S
C643 C644 1.387 1_545 S
C643 H646 0.950 . S
C644 C643 1.387 1_565 S
C644 C647 1.387 . S
H645 C641 0.950 . S
H646 C643 0.950 . S
C647 C638 1.390 . S
C647 H640 0.950 . S
C647 C644 1.387 . S
C648 C649 1.384 . S
C648 H652 0.948 . S
C648 C657 1.394 1_556 S
C649 C648 1.384 . S
C649 C651 1.387 . S
H650 C657 0.950 . S
C651 C649 1.387 . S
C651 C653 1.390 1_556 S
C651 H655 0.950 . S
H652 C648 0.948 . S
C653 C651 1.390 1_554 S
C653 C654 1.387 . S
C653 H656 0.950 . S
C654 C653 1.387 . S
C654 C657 1.387 . S
H655 C651 0.950 . S
H656 C653 0.950 . S
C657 C648 1.394 1_554 S
C657 H650 0.950 . S
C657 C654 1.387 . S
C658 C659 1.387 1_455 S
C658 H662 0.950 . S
C658 C667 1.390 . S
C659 C658 1.387 1_655 S
C659 C661 1.387 . S
H660 C667 0.950 . S
C661 C659 1.387 . S
C661 C663 1.390 . S
C661 H665 0.950 . S
H662 C658 0.950 . S
C663 C661 1.390 . S
C663 C664 1.387 1_655 S
C663 H666 0.950 . S
C664 C663 1.387 1_455 S
C664 C667 1.387 . S
H665 C661 0.950 . S
H666 C663 0.950 . S
C667 C658 1.390 . S
C667 H660 0.950 . S
C667 C664 1.387 . S
C668 C669 1.387 . S
C668 H672 0.950 . S
C668 C677 1.390 . S
C669 C668 1.387 . S
C669 C671 1.387 . S
H670 C677 0.950 . S
C671 C669 1.387 . S
C671 C673 1.390 . S
C671 H675 0.950 . S
H672 C668 0.950 . S
C673 C671 1.390 . S
C673 C674 1.387 . S
C673 H676 0.950 . S
C674 C673 1.387 . S
C674 C677 1.387 . S
H675 C671 0.950 . S
H676 C673 0.950 . S
C677 C668 1.390 . S
C677 H670 0.950 . S
C677 C674 1.387 . S
C678 C679 1.387 . S
C678 H682 0.950 . S
C678 C687 1.390 . S
C679 C678 1.387 . S
C679 C681 1.387 1_655 S
H680 C687 0.950 . S
C681 C679 1.387 1_455 S
C681 C683 1.390 . S
C681 H685 0.950 . S
H682 C678 0.950 . S
C683 C681 1.390 . S
C683 C684 1.387 . S
C683 H686 0.950 . S
C684 C683 1.387 . S
C684 C687 1.387 1_455 S
H685 C681 0.950 . S
H686 C683 0.950 . S
C687 C678 1.390 . S
C687 H680 0.950 . S
C687 C684 1.387 1_655 S
C688 C689 1.387 . S
C688 H692 0.950 . S
C688 C697 1.390 . S
C689 C688 1.387 . S
C689 C691 1.387 . S
H690 C697 0.950 . S
C691 C689 1.387 . S
C691 C693 1.390 . S
C691 H695 0.950 . S
H692 C688 0.950 . S
C693 C691 1.390 . S
C693 C694 1.387 . S
C693 H696 0.950 . S
C694 C693 1.387 . S
C694 C697 1.387 . S
H695 C691 0.950 . S
H696 C693 0.950 . S
C697 C688 1.390 . S
C697 H690 0.950 . S
C697 C694 1.387 . S
C698 C699 1.387 . S
C698 H702 0.950 . S
C698 C707 1.390 . S
C699 C698 1.387 . S
C699 C701 1.387 . S
H700 C707 0.950 . S
C701 C699 1.387 . S
C701 C703 1.390 . S
C701 H705 0.950 . S
H702 C698 0.950 . S
C703 C701 1.390 . S
C703 C704 1.387 . S
C703 H706 0.950 . S
C704 C703 1.387 . S
C704 C707 1.387 . S
H705 C701 0.950 . S
H706 C703 0.950 . S
C707 C698 1.390 . S
C707 H700 0.950 . S
C707 C704 1.387 . S
C708 C709 1.387 1_556 S
C708 H712 0.950 . S
C708 C717 1.390 . S
C709 C708 1.387 1_554 S
C709 C711 1.387 . S
H710 C717 0.950 . S
C711 C709 1.387 . S
C711 C713 1.390 . S
C711 H715 0.950 . S
H712 C708 0.950 . S
C713 C711 1.390 . S
C713 C714 1.387 1_554 S
C713 H716 0.950 . S
C714 C713 1.387 1_556 S
C714 C717 1.387 . S
H715 C711 0.950 . S
H716 C713 0.950 . S
C717 C708 1.390 . S
C717 H710 0.950 . S
C717 C714 1.387 . S
C718 C719 1.387 . S
C718 H722 0.950 . S
C718 C727 1.390 . S
C719 C718 1.387 . S
C719 C721 1.387 . S
H720 C727 0.950 . S
C721 C719 1.387 . S
C721 C723 1.390 . S
C721 H725 0.950 . S
H722 C718 0.950 . S
C723 C721 1.390 . S
C723 C724 1.387 . S
C723 H726 0.950 . S
C724 C723 1.387 . S
C724 C727 1.387 . S
H725 C721 0.950 . S
H726 C723 0.950 . S
C727 C718 1.390 . S
C727 H720 0.950 . S
C727 C724 1.387 . S
C728 C729 1.387 . S
C728 H732 0.950 . S
C728 C737 1.390 . S
C729 C728 1.387 . S
C729 C731 1.387 . S
H730 C737 0.950 . S
C731 C729 1.387 . S
C731 C733 1.390 . S
C731 H735 0.950 . S
H732 C728 0.950 . S
C733 C731 1.390 . S
C733 C734 1.387 . S
C733 H736 0.950 . S
C734 C733 1.387 . S
C734 C737 1.387 . S
H735 C731 0.950 . S
H736 C733 0.950 . S
C737 C728 1.390 . S
C737 H730 0.950 . S
C737 C734 1.387 . S
C738 C739 1.387 . S
C738 H742 0.950 . S
C738 C747 1.390 . S
C739 C738 1.387 . S
C739 C741 1.387 . S
H740 C747 0.950 . S
C741 C739 1.387 . S
C741 C743 1.390 . S
C741 H745 0.950 . S
H742 C738 0.950 . S
C743 C741 1.390 . S
C743 C744 1.387 . S
C743 H746 0.950 . S
C744 C743 1.387 . S
C744 C747 1.387 . S
H745 C741 0.950 . S
H746 C743 0.950 . S
C747 C738 1.390 . S
C747 H740 0.950 . S
C747 C744 1.387 . S
C748 C749 1.387 . S
C748 H752 0.950 . S
C748 C757 1.390 . S
C749 C748 1.387 . S
C749 C751 1.387 . S
H750 C757 0.950 . S
C751 C749 1.387 . S
C751 C753 1.390 . S
C751 H755 0.950 . S
H752 C748 0.950 . S
C753 C751 1.390 . S
C753 C754 1.387 . S
C753 H756 0.950 . S
C754 C753 1.387 . S
C754 C757 1.387 . S
H755 C751 0.950 . S
H756 C753 0.950 . S
C757 C748 1.390 . S
C757 H750 0.950 . S
C757 C754 1.387 . S
C758 C759 1.387 . S
C758 H762 0.950 . S
C758 C767 1.390 . S
C759 C758 1.387 . S
C759 C761 1.387 . S
H760 C767 0.950 . S
C761 C759 1.387 . S
C761 C763 1.390 . S
C761 H765 0.950 . S
H762 C758 0.950 . S
C763 C761 1.390 . S
C763 C764 1.387 . S
C763 H766 0.950 . S
C764 C763 1.387 . S
C764 C767 1.387 . S
H765 C761 0.950 . S
H766 C763 0.950 . S
C767 C758 1.390 . S
C767 H760 0.950 . S
C767 C764 1.387 . S
C768 C769 1.387 . S
C768 H772 0.950 . S
C768 C777 1.390 . S
C769 C768 1.387 . S
C769 C771 1.387 . S
H770 C777 0.950 . S
C771 C769 1.387 . S
C771 C773 1.390 . S
C771 H775 0.950 . S
H772 C768 0.950 . S
C773 C771 1.390 . S
C773 C774 1.387 . S
C773 H776 0.950 . S
C774 C773 1.387 . S
C774 C777 1.387 . S
H775 C771 0.950 . S
H776 C773 0.950 . S
C777 C768 1.390 . S
C777 H770 0.950 . S
C777 C774 1.387 . S
C778 C779 1.387 . S
C778 H782 0.950 . S
C778 C787 1.390 . S
C779 C778 1.387 . S
C779 C781 1.387 . S
H780 C787 0.950 . S
C781 C779 1.387 . S
C781 C783 1.390 . S
C781 H785 0.950 . S
H782 C778 0.950 . S
C783 C781 1.390 . S
C783 C784 1.387 . S
C783 H786 0.950 . S
C784 C783 1.387 . S
C784 C787 1.387 . S
H785 C781 0.950 . S
H786 C783 0.950 . S
C787 C778 1.390 . S
C787 H780 0.950 . S
C787 C784 1.387 . S
C788 C789 1.387 . S
C788 H792 0.950 . S
C788 C797 1.390 . S
C789 C788 1.387 . S
C789 C791 1.387 . S
H790 C797 0.950 . S
C791 C789 1.387 . S
C791 C793 1.390 . S
C791 H795 0.950 . S
H792 C788 0.950 . S
C793 C791 1.390 . S
C793 C794 1.387 . S
C793 H796 0.950 . S
C794 C793 1.387 . S
C794 C797 1.387 . S
H795 C791 0.950 . S
H796 C793 0.950 . S
C797 C788 1.390 . S
C797 H790 0.950 . S
C797 C794 1.387 . S
C798 C799 1.387 . S
C798 H802 0.950 . S
C798 C807 1.390 . S
C799 C798 1.387 . S
C799 C801 1.387 . S
H800 C807 0.950 . S
C801 C799 1.387 . S
C801 C803 1.390 . S
C801 H805 0.950 . S
H802 C798 0.950 . S
C803 C801 1.390 . S
C803 C804 1.387 . S
C803 H806 0.950 . S
C804 C803 1.387 . S
C804 C807 1.387 . S
H805 C801 0.950 . S
H806 C803 0.950 . S
C807 C798 1.390 . S
C807 H800 0.950 . S
C807 C804 1.387 . S
C808 C809 1.387 . S
C808 H812 0.950 . S
C808 C817 1.390 . S
C809 C808 1.387 . S
C809 C811 1.387 . S
H810 C817 0.950 . S
C811 C809 1.387 . S
C811 C813 1.390 . S
C811 H815 0.950 . S
H812 C808 0.950 . S
C813 C811 1.390 . S
C813 C814 1.387 . S
C813 H816 0.950 . S
C814 C813 1.387 . S
C814 C817 1.387 . S
H815 C811 0.950 . S
H816 C813 0.950 . S
C817 C808 1.390 . S
C817 H810 0.950 . S
C817 C814 1.387 . S
C818 C819 1.387 . S
C818 H822 0.950 . S
C818 C827 1.390 . S
C819 C818 1.387 . S
C819 C821 1.387 . S
H820 C827 0.950 . S
C821 C819 1.387 . S
C821 C823 1.390 . S
C821 H825 0.950 . S
H822 C818 0.950 . S
C823 C821 1.390 . S
C823 C824 1.387 . S
C823 H826 0.950 . S
C824 C823 1.387 . S
C824 C827 1.387 . S
H825 C821 0.950 . S
H826 C823 0.950 . S
C827 C818 1.390 . S
C827 H820 0.950 . S
C827 C824 1.387 . S
C828 C829 1.387 . S
C828 H832 0.950 . S
C828 C837 1.390 . S
C829 C828 1.387 . S
C829 C831 1.387 . S
H830 C837 0.950 . S
C831 C829 1.387 . S
C831 C833 1.390 . S
C831 H835 0.950 . S
H832 C828 0.950 . S
C833 C831 1.390 . S
C833 C834 1.387 . S
C833 H836 0.950 . S
C834 C833 1.387 . S
C834 C837 1.387 . S
H835 C831 0.950 . S
H836 C833 0.950 . S
C837 C828 1.390 . S
C837 H830 0.950 . S
C837 C834 1.387 . S
C838 C839 1.387 . S
C838 H842 0.950 . S
C838 C847 1.390 . S
C839 C838 1.387 . S
C839 C841 1.387 . S
H840 C847 0.950 . S
C841 C839 1.387 . S
C841 C843 1.390 . S
C841 H845 0.950 . S
H842 C838 0.950 . S
C843 C841 1.390 . S
C843 C844 1.387 . S
C843 H846 0.950 . S
C844 C843 1.387 . S
C844 C847 1.387 . S
H845 C841 0.950 . S
H846 C843 0.950 . S
C847 C838 1.390 . S
C847 H840 0.950 . S
C847 C844 1.387 . S
C848 C849 1.387 . S
C848 H852 0.950 . S
C848 C857 1.390 . S
C849 C848 1.387 . S
C849 C851 1.387 . S
H850 C857 0.950 . S
C851 C849 1.387 . S
C851 C853 1.390 . S
C851 H855 0.950 . S
H852 C848 0.950 . S
C853 C851 1.390 . S
C853 C854 1.387 . S
C853 H856 0.950 . S
C854 C853 1.387 . S
C854 C857 1.387 . S
H855 C851 0.950 . S
H856 C853 0.950 . S
C857 C848 1.390 . S
C857 H850 0.950 . S
C857 C854 1.387 . S
C858 C859 1.387 . S
C858 H862 0.950 . S
C858 C867 1.390 . S
C859 C858 1.387 . S
C859 C861 1.387 . S
H860 C867 0.950 . S
C861 C859 1.387 . S
C861 C863 1.390 . S
C861 H865 0.950 . S
H862 C858 0.950 . S
C863 C861 1.390 . S
C863 C864 1.387 . S
C863 H866 0.950 . S
C864 C863 1.387 . S
C864 C867 1.387 . S
H865 C861 0.950 . S
H866 C863 0.950 . S
C867 C858 1.390 . S
C867 H860 0.950 . S
C867 C864 1.387 . S
C868 C869 1.387 . S
C868 H872 0.950 . S
C868 C877 1.390 . S
C869 C868 1.387 . S
C869 C871 1.387 . S
H870 C877 0.950 . S
C871 C869 1.387 . S
C871 C873 1.390 . S
C871 H875 0.950 . S
H872 C868 0.950 . S
C873 C871 1.390 . S
C873 C874 1.387 . S
C873 H876 0.950 . S
C874 C873 1.387 . S
C874 C877 1.387 . S
H875 C871 0.950 . S
H876 C873 0.950 . S
C877 C868 1.390 . S
C877 H870 0.950 . S
C877 C874 1.387 . S
C878 C879 1.387 . S
C878 H882 0.950 . S
C878 C887 1.390 . S
C879 C878 1.387 . S
C879 C881 1.387 . S
H880 C887 0.950 . S
C881 C879 1.387 . S
C881 C883 1.390 . S
C881 H885 0.950 . S
H882 C878 0.950 . S
C883 C881 1.390 . S
C883 C884 1.387 . S
C883 H886 0.950 . S
C884 C883 1.387 . S
C884 C887 1.387 . S
H885 C881 0.950 . S
H886 C883 0.950 . S
C887 C878 1.390 . S
C887 H880 0.950 . S
C887 C884 1.387 . S
C888 C889 1.387 . S
C888 H892 0.950 . S
C888 C897 1.390 . S
C889 C888 1.387 . S
C889 C891 1.387 . S
H890 C897 0.950 . S
C891 C889 1.387 . S
C891 C893 1.390 . S
C891 H895 0.950 . S
H892 C888 0.950 . S
C893 C891 1.390 . S
C893 C894 1.387 . S
C893 H896 0.950 . S
C894 C893 1.387 . S
C894 C897 1.387 . S
H895 C891 0.950 . S
H896 C893 0.950 . S
C897 C888 1.390 . S
C897 H890 0.950 . S
C897 C894 1.387 . S
C898 C899 1.387 . S
C898 H902 0.950 . S
C898 C907 1.390 . S
C899 C898 1.387 . S
C899 C901 1.387 . S
H900 C907 0.950 . S
C901 C899 1.387 . S
C901 C903 1.390 . S
C901 H905 0.950 . S
H902 C898 0.950 . S
C903 C901 1.390 . S
C903 C904 1.387 . S
C903 H906 0.950 . S
C904 C903 1.387 . S
C904 C907 1.387 . S
H905 C901 0.950 . S
H906 C903 0.950 . S
C907 C898 1.390 . S
C907 H900 0.950 . S
C907 C904 1.387 . S
C908 C909 1.387 . S
C908 H912 0.950 . S
C908 C917 1.390 . S
C909 C908 1.387 . S
C909 C911 1.387 . S
H910 C917 0.950 . S
C911 C909 1.387 . S
C911 C913 1.390 . S
C911 H915 0.950 . S
H912 C908 0.950 . S
C913 C911 1.390 . S
C913 C914 1.387 . S
C913 H916 0.950 . S
C914 C913 1.387 . S
C914 C917 1.387 . S
H915 C911 0.950 . S
H916 C913 0.950 . S
C917 C908 1.390 . S
C917 H910 0.950 . S
C917 C914 1.387 . S
C918 C919 1.387 . S
C918 H922 0.950 . S
C918 C927 1.390 . S
C919 C918 1.387 . S
C919 C921 1.387 . S
H920 C927 0.950 . S
C921 C919 1.387 . S
C921 C923 1.390 . S
C921 H925 0.950 . S
H922 C918 0.950 . S
C923 C921 1.390 . S
C923 C924 1.387 . S
C923 H926 0.950 . S
C924 C923 1.387 . S
C924 C927 1.387 . S
H925 C921 0.950 . S
H926 C923 0.950 . S
C927 C918 1.390 . S
C927 H920 0.950 . S
C927 C924 1.387 . S
C928 C929 1.387 . S
C928 H932 0.950 . S
C928 C937 1.390 . S
C929 C928 1.387 . S
C929 C931 1.387 . S
H930 C937 0.950 . S
C931 C929 1.387 . S
C931 C933 1.390 . S
C931 H935 0.950 . S
H932 C928 0.950 . S
C933 C931 1.390 . S
C933 C934 1.387 . S
C933 H936 0.950 . S
C934 C933 1.387 . S
C934 C937 1.387 . S
H935 C931 0.950 . S
H936 C933 0.950 . S
C937 C928 1.390 . S
C937 H930 0.950 . S
C937 C934 1.387 . S
C938 C939 1.387 . S
C938 H942 0.950 . S
C938 C947 1.390 . S
C939 C938 1.387 . S
C939 C941 1.387 . S
H940 C947 0.950 . S
C941 C939 1.387 . S
C941 C943 1.390 . S
C941 H945 0.950 . S
H942 C938 0.950 . S
C943 C941 1.390 . S
C943 C944 1.387 . S
C943 H946 0.950 . S
C944 C943 1.387 . S
C944 C947 1.387 . S
H945 C941 0.950 . S
H946 C943 0.950 . S
C947 C938 1.390 . S
C947 H940 0.950 . S
C947 C944 1.387 . S
C948 C949 1.387 . S
C948 H952 0.950 . S
C948 C957 1.390 . S
C949 C948 1.387 . S
C949 C951 1.387 . S
H950 C957 0.950 . S
C951 C949 1.387 . S
C951 C953 1.390 . S
C951 H955 0.950 . S
H952 C948 0.950 . S
C953 C951 1.390 . S
C953 C954 1.387 . S
C953 H956 0.950 . S
C954 C953 1.387 . S
C954 C957 1.387 . S
H955 C951 0.950 . S
H956 C953 0.950 . S
C957 C948 1.390 . S
C957 H950 0.950 . S
C957 C954 1.387 . S
C958 C959 1.387 . S
C958 H962 0.950 . S
C958 C967 1.390 . S
C959 C958 1.387 . S
C959 C961 1.387 . S
H960 C967 0.950 . S
C961 C959 1.387 . S
C961 C963 1.390 . S
C961 H965 0.950 . S
H962 C958 0.950 . S
C963 C961 1.390 . S
C963 C964 1.387 . S
C963 H966 0.950 . S
C964 C963 1.387 . S
C964 C967 1.387 . S
H965 C961 0.950 . S
H966 C963 0.950 . S
C967 C958 1.390 . S
C967 H960 0.950 . S
C967 C964 1.387 . S
C968 C969 1.387 . S
C968 H972 0.950 . S
C968 C977 1.390 . S
C969 C968 1.387 . S
C969 C971 1.387 . S
H970 C977 0.950 . S
C971 C969 1.387 . S
C971 C973 1.390 . S
C971 H975 0.950 . S
H972 C968 0.950 . S
C973 C971 1.390 . S
C973 C974 1.387 . S
C973 H976 0.950 . S
C974 C973 1.387 . S
C974 C977 1.387 . S
H975 C971 0.950 . S
H976 C973 0.950 . S
C977 C968 1.390 . S
C977 H970 0.950 . S
C977 C974 1.387 . S
C978 C979 1.387 . S
C978 H982 0.950 . S
C978 C987 1.390 . S
C979 C978 1.387 . S
C979 C981 1.387 . S
H980 C987 0.950 . S
C981 C979 1.387 . S
C981 C983 1.390 . S
C981 H985 0.950 . S
H982 C978 0.950 . S
C983 C981 1.390 . S
C983 C984 1.387 . S
C983 H986 0.950 . S
C984 C983 1.387 . S
C984 C987 1.387 . S
H985 C981 0.950 . S
H986 C983 0.950 . S
C987 C978 1.390 . S
C987 H980 0.950 . S
C987 C984 1.387 . S
C988 C989 1.387 . S
C988 H992 0.950 . S
C988 C997 1.390 . S
C989 C988 1.387 . S
C989 C991 1.387 . S
H990 C997 0.950 . S
C991 C989 1.387 . S
C991 C993 1.390 . S
C991 H995 0.950 . S
H992 C988 0.950 . S
C993 C991 1.390 . S
C993 C994 1.387 . S
C993 H996 0.950 . S
C994 C993 1.387 . S
C994 C997 1.387 . S
H995 C991 0.950 . S
H996 C993 0.950 . S
C997 C988 1.390 . S
C997 H990 0.950 . S
C997 C994 1.387 . S
C998 C999 1.387 . S
C998 H1002 0.950 . S
C998 C1007 1.390 . S
C999 C998 1.387 . S
C999 C1001 1.387 . S
H1000 C1007 0.950 . S
C1001 C999 1.387 . S
C1001 C1003 1.390 . S
C1001 H1005 0.950 . S
H1002 C998 0.950 . S
C1003 C1001 1.390 . S
C1003 C1004 1.387 . S
C1003 H1006 0.950 . S
C1004 C1003 1.387 . S
C1004 C1007 1.387 . S
H1005 C1001 0.950 . S
H1006 C1003 0.950 . S
C1007 C998 1.390 . S
C1007 H1000 0.950 . S
C1007 C1004 1.387 . S
C1008 C1009 1.387 . S
C1008 H1012 0.950 . S
C1008 C1017 1.390 1_655 S
C1009 C1008 1.387 . S
C1009 C1011 1.387 . S
H1010 C1017 0.950 . S
C1011 C1009 1.387 . S
C1011 C1013 1.390 1_655 S
C1011 H1015 0.950 . S
H1012 C1008 0.950 . S
C1013 C1011 1.390 1_455 S
C1013 C1014 1.387 . S
C1013 H1016 0.950 . S
C1014 C1013 1.387 . S
C1014 C1017 1.387 . S
H1015 C1011 0.950 . S
H1016 C1013 0.950 . S
C1017 C1008 1.390 1_455 S
C1017 H1010 0.950 . S
C1017 C1014 1.387 . S
C1018 C1019 1.387 . S
C1018 H1022 0.950 . S
C1018 C1027 1.390 1_455 S
C1019 C1018 1.387 . S
C1019 C1021 1.387 . S
H1020 C1027 0.950 . S
C1021 C1019 1.387 . S
C1021 C1023 1.390 1_455 S
C1021 H1025 0.950 . S
H1022 C1018 0.950 . S
C1023 C1021 1.390 1_655 S
C1023 C1024 1.387 . S
C1023 H1026 0.950 . S
C1024 C1023 1.387 . S
C1024 C1027 1.387 . S
H1025 C1021 0.950 . S
H1026 C1023 0.950 . S
C1027 C1018 1.390 1_655 S
C1027 H1020 0.950 . S
C1027 C1024 1.387 . S
C1028 C1029 1.387 . S
C1028 H1032 0.950 . S
C1028 C1037 1.390 . S
C1029 C1028 1.387 . S
C1029 C1031 1.387 . S
H1030 C1037 0.950 . S
C1031 C1029 1.387 . S
C1031 C1033 1.390 . S
C1031 H1035 0.950 . S
H1032 C1028 0.950 . S
C1033 C1031 1.390 . S
C1033 C1034 1.387 . S
C1033 H1036 0.950 . S
C1034 C1033 1.387 . S
C1034 C1037 1.387 . S
H1035 C1031 0.950 . S
H1036 C1033 0.950 . S
C1037 C1028 1.390 . S
C1037 H1030 0.950 . S
C1037 C1034 1.387 . S
C1038 C1039 1.387 . S
C1038 H1042 0.950 . S
C1038 C1047 1.390 . S
C1039 C1038 1.387 . S
C1039 C1041 1.387 . S
H1040 C1047 0.950 . S
C1041 C1039 1.387 . S
C1041 C1043 1.390 . S
C1041 H1045 0.950 . S
H1042 C1038 0.950 . S
C1043 C1041 1.390 . S
C1043 C1044 1.387 . S
C1043 H1046 0.950 . S
C1044 C1043 1.387 . S
C1044 C1047 1.387 . S
H1045 C1041 0.950 . S
H1046 C1043 0.950 . S
C1047 C1038 1.390 . S
C1047 H1040 0.950 . S
C1047 C1044 1.387 . S
C1048 C1049 1.387 . S
C1048 H1052 0.950 . S
C1048 C1057 1.390 1_455 S
C1049 C1048 1.387 . S
C1049 C1051 1.387 . S
H1050 C1057 0.950 . S
C1051 C1049 1.387 . S
C1051 C1053 1.390 1_455 S
C1051 H1055 0.950 . S
H1052 C1048 0.950 . S
C1053 C1051 1.390 1_655 S
C1053 C1054 1.387 . S
C1053 H1056 0.950 . S
C1054 C1053 1.387 . S
C1054 C1057 1.387 . S
H1055 C1051 0.950 . S
H1056 C1053 0.950 . S
C1057 C1048 1.390 1_655 S
C1057 H1050 0.950 . S
C1057 C1054 1.387 . S
C1058 C1059 1.387 . S
C1058 H1062 0.950 . S
C1058 C1067 1.390 . S
C1059 C1058 1.387 . S
C1059 C1061 1.387 . S
H1060 C1067 0.950 . S
C1061 C1059 1.387 . S
C1061 C1063 1.390 . S
C1061 H1065 0.950 . S
H1062 C1058 0.950 . S
C1063 C1061 1.390 . S
C1063 C1064 1.387 . S
C1063 H1066 0.950 . S
C1064 C1063 1.387 . S
C1064 C1067 1.387 . S
H1065 C1061 0.950 . S
H1066 C1063 0.950 . S
C1067 C1058 1.390 . S
C1067 H1060 0.950 . S
C1067 C1064 1.387 . S
C1068 C1069 1.387 . S
C1068 H1072 0.950 . S
C1068 C1077 1.390 . S
C1069 C1068 1.387 . S
C1069 C1071 1.387 . S
H1070 C1077 0.950 . S
C1071 C1069 1.387 . S
C1071 C1073 1.390 . S
C1071 H1075 0.950 . S
H1072 C1068 0.950 . S
C1073 C1071 1.390 . S
C1073 C1074 1.387 . S
C1073 H1076 0.950 . S
C1074 C1073 1.387 . S
C1074 C1077 1.387 . S
H1075 C1071 0.950 . S
H1076 C1073 0.950 . S
C1077 C1068 1.390 . S
C1077 H1070 0.950 . S
C1077 C1074 1.387 . S
C1078 C1079 1.387 . S
C1078 H1082 0.950 . S
C1078 C1087 1.390 1_655 S
C1079 C1078 1.387 . S
C1079 C1081 1.387 . S
H1080 C1087 0.950 . S
C1081 C1079 1.387 . S
C1081 C1083 1.390 1_655 S
C1081 H1085 0.950 . S
H1082 C1078 0.950 . S
C1083 C1081 1.390 1_455 S
C1083 C1084 1.387 . S
C1083 H1086 0.950 . S
C1084 C1083 1.387 . S
C1084 C1087 1.387 . S
H1085 C1081 0.950 . S
H1086 C1083 0.950 . S
C1087 C1078 1.390 1_455 S
C1087 H1080 0.950 . S
C1087 C1084 1.387 . S
C1088 C1089 1.387 . S
C1088 H1092 0.950 . S
C1088 C1097 1.390 1_565 S
C1089 C1088 1.387 . S
C1089 C1091 1.387 . S
H1090 C1097 0.950 . S
C1091 C1089 1.387 . S
C1091 C1093 1.390 1_565 S
C1091 H1095 0.950 . S
H1092 C1088 0.950 . S
C1093 C1091 1.390 1_545 S
C1093 C1094 1.387 . S
C1093 H1096 0.950 . S
C1094 C1093 1.387 . S
C1094 C1097 1.387 . S
H1095 C1091 0.950 . S
H1096 C1093 0.950 . S
C1097 C1088 1.390 1_545 S
C1097 H1090 0.950 . S
C1097 C1094 1.387 . S
C1098 C1099 1.387 . S
C1098 H1102 0.950 . S
C1098 C1107 1.390 . S
C1099 C1098 1.387 . S
C1099 C1101 1.387 . S
H1100 C1107 0.950 . S
C1101 C1099 1.387 . S
C1101 C1103 1.390 . S
C1101 H1105 0.950 . S
H1102 C1098 0.950 . S
C1103 C1101 1.390 . S
C1103 C1104 1.387 . S
C1103 H1106 0.950 . S
C1104 C1103 1.387 . S
C1104 C1107 1.387 . S
H1105 C1101 0.950 . S
H1106 C1103 0.950 . S
C1107 C1098 1.390 . S
C1107 H1100 0.950 . S
C1107 C1104 1.387 . S
C1108 C1109 1.387 . S
C1108 H1112 0.950 . S
C1108 C1117 1.390 1_545 S
C1109 C1108 1.387 . S
C1109 C1111 1.387 . S
H1110 C1117 0.950 . S
C1111 C1109 1.387 . S
C1111 C1113 1.390 1_545 S
C1111 H1115 0.950 . S
H1112 C1108 0.950 . S
C1113 C1111 1.390 1_565 S
C1113 C1114 1.387 . S
C1113 H1116 0.950 . S
C1114 C1113 1.387 . S
C1114 C1117 1.387 . S
H1115 C1111 0.950 . S
H1116 C1113 0.950 . S
C1117 C1108 1.390 1_565 S
C1117 H1110 0.950 . S
C1117 C1114 1.387 . S
C1118 C1119 1.387 . S
C1118 H1122 0.950 . S
C1118 C1127 1.390 1_554 S
C1119 C1118 1.387 . S
C1119 C1121 1.387 . S
H1120 C1127 0.950 . S
C1121 C1119 1.387 . S
C1121 C1123 1.390 1_554 S
C1121 H1125 0.950 . S
H1122 C1118 0.950 . S
C1123 C1121 1.390 1_556 S
C1123 C1124 1.387 . S
C1123 H1126 0.950 . S
C1124 C1123 1.387 . S
C1124 C1127 1.387 . S
H1125 C1121 0.950 . S
H1126 C1123 0.950 . S
C1127 C1118 1.390 1_556 S
C1127 H1120 0.950 . S
C1127 C1124 1.387 . S
C1128 C1129 1.387 . S
C1128 H1132 0.950 . S
C1128 C1137 1.390 1_554 S
C1129 C1128 1.387 . S
C1129 C1131 1.387 . S
H1130 C1137 0.950 . S
C1131 C1129 1.387 . S
C1131 C1133 1.390 1_554 S
C1131 H1135 0.950 . S
H1132 C1128 0.950 . S
C1133 C1131 1.390 1_556 S
C1133 C1134 1.387 . S
C1133 H1136 0.950 . S
C1134 C1133 1.387 . S
C1134 C1137 1.387 . S
H1135 C1131 0.950 . S
H1136 C1133 0.950 . S
C1137 C1128 1.390 1_556 S
C1137 H1130 0.950 . S
C1137 C1134 1.387 . S
C1138 C1139 1.387 . S
C1138 H1142 0.950 . S
C1138 C1147 1.390 1_556 S
C1139 C1138 1.387 . S
C1139 C1141 1.387 . S
H1140 C1147 0.950 . S
C1141 C1139 1.387 . S
C1141 C1143 1.390 1_556 S
C1141 H1145 0.950 . S
H1142 C1138 0.950 . S
C1143 C1141 1.390 1_554 S
C1143 C1144 1.387 . S
C1143 H1146 0.950 . S
C1144 C1143 1.387 . S
C1144 C1147 1.387 . S
H1145 C1141 0.950 . S
H1146 C1143 0.950 . S
C1147 C1138 1.390 1_554 S
C1147 H1140 0.950 . S
C1147 C1144 1.387 . S
C1148 C1149 1.387 . S
C1148 H1152 0.950 . S
C1148 C1157 1.390 . S
C1149 C1148 1.387 . S
C1149 C1151 1.387 . S
H1150 C1157 0.950 . S
C1151 C1149 1.387 . S
C1151 C1153 1.390 . S
C1151 H1155 0.950 . S
H1152 C1148 0.950 . S
C1153 C1151 1.390 . S
C1153 C1154 1.387 . S
C1153 H1156 0.950 . S
C1154 C1153 1.387 . S
C1154 C1157 1.387 . S
H1155 C1151 0.950 . S
H1156 C1153 0.950 . S
C1157 C1148 1.390 . S
C1157 H1150 0.950 . S
C1157 C1154 1.387 . S
C1158 C1159 1.387 . S
C1158 H1162 0.950 . S
C1158 C1167 1.390 . S
C1159 C1158 1.387 . S
C1159 C1161 1.387 . S
H1160 C1167 0.950 . S
C1161 C1159 1.387 . S
C1161 C1163 1.390 . S
C1161 H1165 0.950 . S
H1162 C1158 0.950 . S
C1163 C1161 1.390 . S
C1163 C1164 1.387 . S
C1163 H1166 0.950 . S
C1164 C1163 1.387 . S
C1164 C1167 1.387 . S
H1165 C1161 0.950 . S
H1166 C1163 0.950 . S
C1167 C1158 1.390 . S
C1167 H1160 0.950 . S
C1167 C1164 1.387 . S
C1168 C1169 1.387 . S
C1168 H1172 0.950 . S
C1168 C1177 1.390 1_565 S
C1169 C1168 1.387 . S
C1169 C1171 1.387 . S
H1170 C1177 0.950 . S
C1171 C1169 1.387 . S
C1171 C1173 1.390 1_565 S
C1171 H1175 0.950 . S
H1172 C1168 0.950 . S
C1173 C1171 1.390 1_545 S
C1173 C1174 1.387 . S
C1173 H1176 0.950 . S
C1174 C1173 1.387 . S
C1174 C1177 1.387 . S
H1175 C1171 0.950 . S
H1176 C1173 0.950 . S
C1177 C1168 1.390 1_545 S
C1177 H1170 0.950 . S
C1177 C1174 1.387 . S
C1178 C1179 1.387 . S
C1178 H1182 0.950 . S
C1178 C1187 1.390 . S
C1179 C1178 1.387 . S
C1179 C1181 1.387 . S
H1180 C1187 0.950 . S
C1181 C1179 1.387 . S
C1181 C1183 1.390 . S
C1181 H1185 0.950 . S
H1182 C1178 0.950 . S
C1183 C1181 1.390 . S
C1183 C1184 1.387 . S
C1183 H1186 0.950 . S
C1184 C1183 1.387 . S
C1184 C1187 1.387 . S
H1185 C1181 0.950 . S
H1186 C1183 0.950 . S
C1187 C1178 1.390 . S
C1187 H1180 0.950 . S
C1187 C1184 1.387 . S
C1188 C1189 1.387 . S
C1188 H1192 0.950 . S
C1188 C1197 1.390 . S
C1189 C1188 1.387 . S
C1189 C1191 1.387 . S
H1190 C1197 0.950 . S
C1191 C1189 1.387 . S
C1191 C1193 1.390 . S
C1191 H1195 0.950 . S
H1192 C1188 0.950 . S
C1193 C1191 1.390 . S
C1193 C1194 1.387 . S
C1193 H1196 0.950 . S
C1194 C1193 1.387 . S
C1194 C1197 1.387 . S
H1195 C1191 0.950 . S
H1196 C1193 0.950 . S
C1197 C1188 1.390 . S
C1197 H1190 0.950 . S
C1197 C1194 1.387 . S
C1198 C1199 1.387 . S
C1198 H1202 0.950 . S
C1198 C1207 1.390 . S
C1199 C1198 1.387 . S
C1199 C1201 1.387 . S
H1200 C1207 0.950 . S
C1201 C1199 1.387 . S
C1201 C1203 1.390 . S
C1201 H1205 0.950 . S
H1202 C1198 0.950 . S
C1203 C1201 1.390 . S
C1203 C1204 1.387 . S
C1203 H1206 0.950 . S
C1204 C1203 1.387 . S
C1204 C1207 1.387 . S
H1205 C1201 0.950 . S
H1206 C1203 0.950 . S
C1207 C1198 1.390 . S
C1207 H1200 0.950 . S
C1207 C1204 1.387 . S
C1208 C1209 1.387 . S
C1208 H1212 0.950 . S
C1208 C1217 1.390 1_556 S
C1209 C1208 1.387 . S
C1209 C1211 1.387 . S
H1210 C1217 0.950 . S
C1211 C1209 1.387 . S
C1211 C1213 1.390 1_556 S
C1211 H1215 0.950 . S
H1212 C1208 0.950 . S
C1213 C1211 1.390 1_554 S
C1213 C1214 1.387 . S
C1213 H1216 0.950 . S
C1214 C1213 1.387 . S
C1214 C1217 1.387 . S
H1215 C1211 0.950 . S
H1216 C1213 0.950 . S
C1217 C1208 1.390 1_554 S
C1217 H1210 0.950 . S
C1217 C1214 1.387 . S
C1218 C1219 1.387 . S
C1218 H1222 0.950 . S
C1218 C1227 1.390 . S
C1219 C1218 1.387 . S
C1219 C1221 1.387 . S
H1220 C1227 0.950 . S
C1221 C1219 1.387 . S
C1221 C1223 1.390 . S
C1221 H1225 0.950 . S
H1222 C1218 0.950 . S
C1223 C1221 1.390 . S
C1223 C1224 1.387 . S
C1223 H1226 0.950 . S
C1224 C1223 1.387 . S
C1224 C1227 1.387 . S
H1225 C1221 0.950 . S
H1226 C1223 0.950 . S
C1227 C1218 1.390 . S
C1227 H1220 0.950 . S
C1227 C1224 1.387 . S
C1228 C1229 1.387 . S
C1228 H1232 0.950 . S
C1228 C1237 1.390 . S
C1229 C1228 1.387 . S
C1229 C1231 1.387 . S
H1230 C1237 0.950 . S
C1231 C1229 1.387 . S
C1231 C1233 1.390 . S
C1231 H1235 0.950 . S
H1232 C1228 0.950 . S
C1233 C1231 1.390 . S
C1233 C1234 1.387 . S
C1233 H1236 0.950 . S
C1234 C1233 1.387 . S
C1234 C1237 1.387 . S
H1235 C1231 0.950 . S
H1236 C1233 0.950 . S
C1237 C1228 1.390 . S
C1237 H1230 0.950 . S
C1237 C1234 1.387 . S
C1238 C1239 1.387 . S
C1238 H1242 0.950 . S
C1238 C1247 1.390 1_565 S
C1239 C1238 1.387 . S
C1239 C1241 1.387 . S
H1240 C1247 0.950 . S
C1241 C1239 1.387 . S
C1241 C1243 1.390 1_565 S
C1241 H1245 0.950 . S
H1242 C1238 0.950 . S
C1243 C1241 1.390 1_545 S
C1243 C1244 1.387 . S
C1243 H1246 0.950 . S
C1244 C1243 1.387 . S
C1244 C1247 1.387 . S
H1245 C1241 0.950 . S
H1246 C1243 0.950 . S
C1247 C1238 1.390 1_545 S
C1247 H1240 0.950 . S
C1247 C1244 1.387 . S
C529 C227 1.471 . S
C534 C7 1.472 . S
C539 C458 1.470 . S
C544 C18 1.470 . S
C549 C469 1.471 . S
C554 C29 1.472 . S
C559 C480 1.472 . S
C564 C40 1.471 . S
C569 C524 1.472 . S
C574 C51 1.470 . S
C579 C238 1.472 . S
C584 C62 1.470 . S
C589 C513 1.470 . S
C594 C73 1.472 . S
C599 C84 1.470 . S
C604 C183 1.471 . S
C609 C95 1.471 . S
C614 C172 1.470 . S
C619 C139 1.470 . S
C624 C106 1.472 . S
C629 C150 1.472 . S
C634 C117 1.471 . S
C639 C161 1.471 . S
C644 C128 1.470 . S
C649 C194 1.469 . S
C654 C282 1.471 . S
C659 C293 1.472 . S
C664 C205 1.470 . S
C669 C216 1.472 . S
C674 C304 1.471 . S
C679 C337 1.470 . S
C684 C249 1.472 . S
C689 C315 1.471 . S
C694 C260 1.470 . S
C699 C271 1.470 . S
C704 C491 1.471 . S
C709 C502 1.470 . S
C714 C326 1.470 . S
C719 C447 1.472 . S
C724 C348 1.471 . S
C729 C359 1.472 . S
C734 C436 1.470 . S
C739 C403 1.472 . S
C744 C370 1.470 . S
C749 C414 1.472 . S
C754 C381 1.470 . S
C759 C425 1.471 . S
C764 C392 1.472 . S
C769 C107 1.527 . S
C774 C8 1.527 . S
C779 C19 1.526 . S
C784 C118 1.527 . S
C789 C30 1.527 . S
C794 C129 1.527 . S
C799 C41 1.527 . S
C804 C96 1.527 . S
C809 C173 1.526 . S
C814 C52 1.527 . S
C819 C63 1.527 . S
C824 C140 1.527 . S
C829 C151 1.527 . S
C834 C74 1.527 . S
C839 C85 1.527 . S
C844 C162 1.527 . S
C849 C206 1.527 . S
C854 C184 1.527 . S
C859 C514 1.527 . S
C864 C195 1.526 . S
C869 C217 1.527 . S
C874 C525 1.527 . S
C879 C503 1.527 . S
C884 C228 1.527 . S
C889 C492 1.527 . S
C894 C239 1.527 . S
C899 C459 1.527 . S
C904 C250 1.527 . S
C909 C261 1.527 . S
C914 C481 1.526 . S
C919 C272 1.527 . S
C924 C371 1.527 . S
C929 C283 1.527 . S
C934 C382 1.527 . S
C939 C393 1.527 . S
C944 C294 1.527 . S
C949 C360 1.527 . S
C954 C305 1.527 . S
C959 C437 1.527 . S
C964 C316 1.527 . S
C969 C327 1.527 . S
C974 C404 1.527 . S
C979 C338 1.527 . S
C984 C415 1.527 . S
C989 C349 1.527 . S
C994 C426 1.527 . S
C999 C470 1.527 . S
C1004 C448 1.527 . S
C1009 C291 1.334 . S
C1014 C5 1.334 . S
C1019 C16 1.336 . S
C1024 C302 1.336 . S
C1029 C27 1.336 . S
C1034 C269 1.336 . S
C1039 C280 1.334 . S
C1044 C38 1.334 . S
C1049 C49 1.334 . S
C1054 C335 1.334 . S
C1059 C60 1.334 . S
C1064 C346 1.335 . S
C1069 C313 1.334 . S
C1074 C71 1.334 . S
C1079 C324 1.334 . S
C1084 C82 1.334 . S
C1089 C137 1.336 . S
C1094 C93 1.336 . S
C1099 C148 1.334 . S
C1104 C104 1.334 . S
C1109 C159 1.334 . S
C1114 C115 1.334 . S
C1119 C170 1.334 . S
C1124 C126 1.334 . S
C1129 C181 1.336 . S
C1134 C478 1.336 . S
C1139 C192 1.334 . S
C1144 C500 1.334 . S
C1149 C203 1.336 . S
C1154 C247 1.336 . S
C1159 C445 1.334 . S
C1164 C214 1.334 . S
C1169 C522 1.334 . S
C1174 C225 1.334 . S
C1179 C236 1.336 . S
C1184 C456 1.336 . S
C1189 C258 1.334 . S
C1194 C489 1.335 . S
C1199 C401 1.336 . S
C1204 C357 1.336 . S
C1209 C368 1.336 . S
C1214 C412 1.336 . S
C1219 C423 1.334 . S
C1224 C379 1.334 . S
C1229 C434 1.335 . S
C1234 C390 1.334 . S
C1239 C467 1.334 . S
C1244 C511 1.334 . S
