# Generated by pormake.
# Topology sml, (6)-cn, num edge types: 1
# Building blocks:
#     Node 0, Type 0, BuildingBlock: KUMBUR_clean_sbu_0, # of connection points: 6
#     Node 1, Type 0, BuildingBlock: KUMBUR_clean_sbu_0, # of connection points: 6
#     Node 2, Type 0, BuildingBlock: KUMBUR_clean_sbu_0, # of connection points: 6
#     Node 3, Type 0, BuildingBlock: KUMBUR_clean_sbu_0, # of connection points: 6
#     Node 4, Type 0, BuildingBlock: KUMBUR_clean_sbu_0, # of connection points: 6
#     Node 5, Type 0, BuildingBlock: KUMBUR_clean_sbu_0, # of connection points: 6
#     Edge 6, Type (0, 0), BuildingBlock: UVAHIK_clean_linker_0, # of connection points: 2
#     Edge 7, Type (0, 0), BuildingBlock: UVAHIK_clean_linker_0, # of connection points: 2
#     Edge 8, Type (0, 0), BuildingBlock: UVAHIK_clean_linker_0, # of connection points: 2
#     Edge 9, Type (0, 0), BuildingBlock: UVAHIK_clean_linker_0, # of connection points: 2
#     Edge 10, Type (0, 0), BuildingBlock: UVAHIK_clean_linker_0, # of connection points: 2
#     Edge 11, Type (0, 0), BuildingBlock: UVAHIK_clean_linker_0, # of connection points: 2
#     Edge 12, Type (0, 0), BuildingBlock: UVAHIK_clean_linker_0, # of connection points: 2
#     Edge 13, Type (0, 0), BuildingBlock: UVAHIK_clean_linker_0, # of connection points: 2
#     Edge 14, Type (0, 0), BuildingBlock: UVAHIK_clean_linker_0, # of connection points: 2
#     Edge 15, Type (0, 0), BuildingBlock: UVAHIK_clean_linker_0, # of connection points: 2
#     Edge 16, Type (0, 0), BuildingBlock: UVAHIK_clean_linker_0, # of connection points: 2
#     Edge 17, Type (0, 0), BuildingBlock: UVAHIK_clean_linker_0, # of connection points: 2
#     Edge 18, Type (0, 0), BuildingBlock: UVAHIK_clean_linker_0, # of connection points: 2
#     Edge 19, Type (0, 0), BuildingBlock: UVAHIK_clean_linker_0, # of connection points: 2
#     Edge 20, Type (0, 0), BuildingBlock: UVAHIK_clean_linker_0, # of connection points: 2
#     Edge 21, Type (0, 0), BuildingBlock: UVAHIK_clean_linker_0, # of connection points: 2
#     Edge 22, Type (0, 0), BuildingBlock: UVAHIK_clean_linker_0, # of connection points: 2
#     Edge 23, Type (0, 0), BuildingBlock: UVAHIK_clean_linker_0, # of connection points: 2
# Relax obj value: 0.025
# Max RMSD: 0.145
# Mean RMSD: 0.145
data_MOF--net-sml--node1-KUMBUR_clean_sbu_0--edge1-UVAHIK_clean_linker_0
_symmetry_space_group_name_H-M    P1
_symmetry_Int_Tables_number       1
_symmetry_cell_setting            triclinic
loop_
_symmetry_equiv_pos_as_xyz
'x, y, z'
_cell_length_a     44.362241
_cell_length_b     44.332677
_cell_length_c     28.593688
_cell_angle_alpha  90.090827
_cell_angle_beta   90.045476
_cell_angle_gamma 120.06504
loop_
_atom_site_label
_atom_site_type_symbol
_atom_site_fract_x
_atom_site_fract_y
_atom_site_fract_z
_atom_type_partial_charge
Tb0 Tb 0.18949 0.42707 0.96936 0.0
C1 C 0.30598 0.41156 0.05966 0.0
C2 C 0.28574 0.35029 0.0491 0.0
C3 C 0.34788 0.39183 0.05153 0.0
C4 C 0.27901 0.37798 0.0546 0.0
C5 C 0.34076 0.41887 0.06001 0.0
C6 C 0.32035 0.35753 0.04595 0.0
C7 C 0.35814 0.47771 0.08359 0.0
N8 N 0.29783 0.43661 0.06865 0.0
C9 C 0.32314 0.46902 0.08287 0.0
C10 C 0.36708 0.45271 0.07115 0.0
Tb11 Tb 0.24012 0.42072 0.06542 0.0
N12 N 0.24613 0.37225 0.05886 0.0
C13 C 0.21877 0.33883 0.06195 0.0
C14 C 0.2576 0.31618 0.04898 0.0
C15 C 0.22404 0.31042 0.05645 0.0
H16 H 0.31647 0.48859 0.0921 0.0
H17 H 0.20213 0.2841 0.05763 0.0
H18 H 0.32609 0.33668 0.04108 0.0
H19 H 0.37817 0.5037 0.09356 0.0
H20 H 0.19257 0.3337 0.06722 0.0
H21 H 0.21843 0.56102 0.97225 0.0
H22 H 0.26161 0.29415 0.04472 0.0
H23 H 0.11525 0.35425 0.94831 0.0
H24 H 0.23225 0.51395 0.96598 0.0
H25 H 0.05266 0.33519 0.9446 0.0
H26 H 0.37445 0.39693 0.05098 0.0
H27 H 0.15734 0.54697 0.98176 0.0
H28 H 0.09373 0.50132 0.98347 0.0
H29 H 0.39416 0.45943 0.07194 0.0
H30 H 0.04835 0.43963 0.97513 0.0
N31 N 0.1796 0.47311 0.97374 0.0
C32 C 0.20543 0.50718 0.97011 0.0
C33 C 0.16324 0.52608 0.97922 0.0
C34 C 0.13667 0.49119 0.97939 0.0
C35 C 0.19772 0.5341 0.97366 0.0
C36 C 0.14585 0.46506 0.97624 0.0
H37 H 0.0328 0.37752 0.95924 0.0
N38 N 0.13081 0.40682 0.96575 0.0
C39 C 0.07145 0.36209 0.95252 0.0
C40 C 0.12045 0.4306 0.97172 0.0
C41 C 0.107 0.37303 0.9546 0.0
C42 C 0.06033 0.38604 0.96095 0.0
C43 C 0.08499 0.42092 0.97004 0.0
O44 O 0.17696 0.40179 0.90382 0.0
O45 O 0.21976 0.40526 0.99592 0.0
O46 O 0.2777 0.44993 1.00972 0.0
O47 O 0.24501 0.46689 0.96334 0.0
O48 O 0.1777 0.37326 0.95667 0.0
O49 O 0.20988 0.45747 0.90888 0.0
O50 O 0.25372 0.44625 0.1308 0.0
O51 O 0.21081 0.4436 0.03858 0.0
O52 O 0.15371 0.40334 0.02766 0.0
O53 O 0.1836 0.38244 0.07213 0.0
O54 O 0.25366 0.47481 0.07808 0.0
O55 O 0.21897 0.39096 0.12632 0.0
C56 C 0.20399 0.37523 0.97832 0.0
C57 C 0.17585 0.43532 0.84053 0.0
C58 C 0.16819 0.43545 0.7558 0.0
C59 C 0.18508 0.43121 0.79493 0.0
C60 C 0.14187 0.44384 0.76324 0.0
C61 C 0.14968 0.44383 0.84699 0.0
C62 C 0.13275 0.44798 0.80853 0.0
C63 C 0.27471 0.46842 0.97528 0.0
C64 C 0.19395 0.43088 0.88078 0.0
C65 C 0.07549 0.44655 0.97577 0.0
C66 C 0.10133 0.48166 0.98055 0.0
C67 C 0.228 0.47378 0.05577 0.0
C68 C 0.25392 0.41227 0.19398 0.0
C69 C 0.24524 0.41656 0.23982 0.0
C70 C 0.26206 0.41172 0.27855 0.0
C71 C 0.28779 0.40261 0.27048 0.0
C72 C 0.27945 0.40294 0.18686 0.0
C73 C 0.29634 0.39826 0.22494 0.0
C74 C 0.15496 0.38354 0.0614 0.0
C75 C 0.236 0.41748 0.15416 0.0
H76 H 0.20519 0.42441 0.79002 0.0
H77 H 0.12871 0.44781 0.73401 0.0
H78 H 0.14244 0.44747 0.88161 0.0
H79 H 0.11263 0.45465 0.81383 0.0
H80 H 0.22562 0.42396 0.24522 0.0
H81 H 0.30089 0.39822 0.2994 0.0
H82 H 0.28622 0.39911 0.152 0.0
H83 H 0.31599 0.391 0.21916 0.0
Tb84 Tb 0.76367 0.18734 0.30663 0.0
C85 C 0.89577 0.30659 0.39837 0.0
C86 C 0.93796 0.28769 0.39021 0.0
C87 C 0.95735 0.34958 0.39267 0.0
C88 C 0.90319 0.28014 0.39443 0.0
C89 C 0.92273 0.34168 0.39889 0.0
C90 C 0.96495 0.32259 0.38826 0.0
C91 C 0.8796 0.35801 0.41654 0.0
N92 N 0.86211 0.2977 0.40487 0.0
C93 C 0.85387 0.32276 0.4161 0.0
C94 C 0.91415 0.36758 0.40722 0.0
Tb95 Tb 0.82119 0.23947 0.40171 0.0
N96 N 0.87631 0.24691 0.39664 0.0
C97 C 0.88287 0.21987 0.39827 0.0
C98 C 0.94454 0.25999 0.38911 0.0
C99 C 0.91689 0.22594 0.39382 0.0
H100 H 0.82724 0.31567 0.4233 0.0
H101 H 0.92171 0.20431 0.39389 0.0
H102 H 0.99181 0.32895 0.38453 0.0
H103 H 0.87276 0.37776 0.42415 0.0
H104 H 0.86201 0.19332 0.40161 0.0
H105 H 0.65916 0.21675 0.30538 0.0
H106 H 0.97085 0.26462 0.38569 0.0
H107 H 0.76218 0.11213 0.29621 0.0
H108 H 0.71997 0.23027 0.29948 0.0
H109 H 0.71859 0.04938 0.30017 0.0
H110 H 0.97845 0.37639 0.39245 0.0
H111 H 0.61199 0.156 0.31806 0.0
H112 H 0.59386 0.09252 0.32513 0.0
H113 H 0.93408 0.39487 0.40789 0.0
H114 H 0.60999 0.04682 0.32329 0.0
N115 N 0.70792 0.17778 0.31005 0.0
C116 C 0.69983 0.20358 0.30484 0.0
C117 C 0.63873 0.16176 0.31553 0.0
C118 C 0.64693 0.13517 0.31794 0.0
C119 C 0.66527 0.19605 0.30823 0.0
C120 C 0.68215 0.14416 0.31466 0.0
H121 H 0.65647 0.03044 0.31337 0.0
N122 N 0.7252 0.12855 0.30806 0.0
C123 C 0.71052 0.06859 0.30412 0.0
C124 C 0.69109 0.11856 0.31344 0.0
C125 C 0.73513 0.10415 0.3017 0.0
C126 C 0.67548 0.058 0.31168 0.0
C127 C 0.66529 0.08309 0.31577 0.0
O128 O 0.77351 0.17099 0.24211 0.0
O129 O 0.81597 0.21828 0.33254 0.0
O130 O 0.82902 0.27627 0.34534 0.0
O131 O 0.77983 0.24276 0.29803 0.0
O132 O 0.80608 0.17615 0.29365 0.0
O133 O 0.75445 0.20718 0.24489 0.0
O134 O 0.80844 0.25245 0.46688 0.0
O135 O 0.76885 0.21008 0.37481 0.0
O136 O 0.75138 0.15402 0.36775 0.0
O137 O 0.80431 0.1832 0.40732 0.0
O138 O 0.78086 0.25331 0.41328 0.0
O139 O 0.82903 0.21786 0.46284 0.0
C140 C 0.83051 0.20296 0.31456 0.0
C141 C 0.7399 0.17116 0.17802 0.0
C142 C 0.73029 0.16535 0.09333 0.0
C143 C 0.75208 0.18182 0.1322 0.0
C144 C 0.69613 0.13793 0.10131 0.0
C145 C 0.70577 0.14386 0.18502 0.0
C146 C 0.68405 0.12734 0.14682 0.0
C147 C 0.80768 0.27266 0.31041 0.0
C148 C 0.76311 0.18901 0.21792 0.0
C149 C 0.63024 0.07393 0.32105 0.0
C150 C 0.62106 0.09995 0.32214 0.0
C151 C 0.7561 0.22771 0.39097 0.0
C152 C 0.84158 0.25205 0.53114 0.0
C153 C 0.82848 0.24174 0.5767 0.0
C154 C 0.84978 0.25803 0.61606 0.0
C155 C 0.88427 0.28503 0.60882 0.0
C156 C 0.87608 0.2788 0.52495 0.0
C157 C 0.89723 0.29525 0.56362 0.0
C158 C 0.77349 0.15504 0.39958 0.0
C159 C 0.81905 0.2345 0.49052 0.0
H160 H 0.77836 0.20325 0.12694 0.0
H161 H 0.67883 0.12429 0.07235 0.0
H162 H 0.6959 0.13531 0.21986 0.0
H163 H 0.65775 0.10618 0.15248 0.0
H164 H 0.80193 0.2207 0.58139 0.0
H165 H 0.90119 0.29856 0.63815 0.0
H166 H 0.88672 0.28693 0.49036 0.0
H167 H 0.92381 0.31602 0.55853 0.0
Tb168 Tb 0.5754 0.76173 0.63385 0.0
C169 C 0.59097 0.89458 0.72105 0.0
C170 C 0.65226 0.93631 0.71272 0.0
C171 C 0.61006 0.95602 0.71138 0.0
C172 C 0.62482 0.9017 0.71793 0.0
C173 C 0.58313 0.92167 0.71918 0.0
C174 C 0.64462 0.96334 0.70812 0.0
C175 C 0.52349 0.87934 0.73781 0.0
N176 N 0.56594 0.86119 0.72913 0.0
C177 C 0.5327 0.85345 0.73965 0.0
C178 C 0.54871 0.91354 0.72682 0.0
Tb179 Tb 0.58293 0.82008 0.72888 0.0
N180 N 0.63094 0.87484 0.72277 0.0
C181 C 0.66443 0.8813 0.72642 0.0
C182 C 0.6865 0.94278 0.71377 0.0
C183 C 0.69261 0.91522 0.72154 0.0
H184 H 0.513 0.82701 0.7478 0.0
H185 H 0.71902 0.92 0.72335 0.0
H186 H 0.6653 0.99005 0.70341 0.0
H187 H 0.49695 0.87289 0.74483 0.0
H188 H 0.66982 0.86041 0.73187 0.0
H189 H 0.44356 0.65313 0.64514 0.0
H190 H 0.70835 0.96898 0.70981 0.0
H191 H 0.64914 0.76323 0.60877 0.0
H192 H 0.48863 0.71457 0.63644 0.0
H193 H 0.67024 0.72148 0.60316 0.0
H194 H 0.60457 0.9772 0.70924 0.0
H195 H 0.4602 0.60776 0.65212 0.0
H196 H 0.50749 0.59216 0.64963 0.0
H197 H 0.54157 0.93359 0.72566 0.0
H198 H 0.56935 0.61073 0.63735 0.0
N199 N 0.53108 0.70494 0.64028 0.0
C200 C 0.49657 0.69533 0.63934 0.0
C201 C 0.48024 0.63484 0.64849 0.0
C202 C 0.51542 0.6445 0.64594 0.0
C203 C 0.47076 0.66035 0.64436 0.0
C204 C 0.54042 0.68015 0.64152 0.0
H205 H 0.63015 0.65887 0.61874 0.0
N206 N 0.5975 0.72488 0.62811 0.0
C207 C 0.64338 0.71241 0.61233 0.0
C208 C 0.57493 0.69047 0.63477 0.0
C209 C 0.63124 0.73604 0.61551 0.0
C210 C 0.6207 0.67711 0.62126 0.0
C211 C 0.58586 0.66565 0.63208 0.0
O212 O 0.59806 0.77464 0.56678 0.0
O213 O 0.59754 0.81416 0.65964 0.0
O214 O 0.55462 0.82785 0.67124 0.0
O215 O 0.53382 0.77491 0.63171 0.0
O216 O 0.62855 0.80434 0.61842 0.0
O217 O 0.54262 0.75082 0.57544 0.0
O218 O 0.55761 0.81009 0.79411 0.0
O219 O 0.56016 0.76723 0.70381 0.0
O220 O 0.60114 0.75123 0.69116 0.0
O221 O 0.62156 0.80225 0.73557 0.0
O222 O 0.52931 0.77949 0.74305 0.0
O223 O 0.6126 0.82886 0.79005 0.0
C224 C 0.62709 0.82861 0.64095 0.0
C225 C 0.56274 0.73934 0.50486 0.0
C226 C 0.56028 0.73135 0.41986 0.0
C227 C 0.56577 0.75266 0.45936 0.0
C228 C 0.55207 0.69662 0.42688 0.0
C229 C 0.55434 0.70463 0.51083 0.0
C230 C 0.54914 0.68346 0.47201 0.0
C231 C 0.53337 0.80406 0.64071 0.0
C232 C 0.56814 0.7619 0.54561 0.0
C233 C 0.56145 0.63022 0.63879 0.0
C234 C 0.52625 0.61966 0.64582 0.0
C235 C 0.53031 0.75441 0.72194 0.0
C236 C 0.59225 0.84377 0.85756 0.0
C237 C 0.58918 0.83117 0.90348 0.0
C238 C 0.59511 0.85319 0.94229 0.0
C239 C 0.60395 0.88799 0.9341 0.0
C240 C 0.60124 0.87854 0.85039 0.0
C241 C 0.60699 0.90047 0.88851 0.0
C242 C 0.62103 0.77274 0.72465 0.0
C243 C 0.58623 0.82033 0.8177 0.0
H244 H 0.57183 0.7794 0.45483 0.0
H245 H 0.54828 0.67967 0.39744 0.0
H246 H 0.5517 0.69384 0.54536 0.0
H247 H 0.54281 0.65671 0.47693 0.0
H248 H 0.58268 0.80438 0.90888 0.0
H249 H 0.60813 0.90551 0.96297 0.0
H250 H 0.60388 0.88875 0.81544 0.0
H251 H 0.61378 0.92727 0.88271 0.0
Tb252 Tb 0.8124 0.5756 0.97583 0.0
C253 C 0.69396 0.58942 0.06691 0.0
C254 C 0.7132 0.65063 0.0584 0.0
C255 C 0.65128 0.60831 0.06066 0.0
C256 C 0.72053 0.62327 0.06287 0.0
C257 C 0.65896 0.58146 0.06716 0.0
C258 C 0.6784 0.64288 0.05621 0.0
C259 C 0.64228 0.52188 0.08498 0.0
N260 N 0.70263 0.56451 0.07364 0.0
C261 C 0.67745 0.53124 0.08478 0.0
C262 C 0.63293 0.54701 0.07548 0.0
Tb263 Tb 0.76074 0.58159 0.07077 0.0
N264 N 0.75367 0.62947 0.0654 0.0
C265 C 0.78083 0.66307 0.06715 0.0
C266 C 0.74104 0.68489 0.05736 0.0
C267 C 0.77498 0.69114 0.06243 0.0
H268 H 0.68437 0.5116 0.09208 0.0
H269 H 0.7967 0.71759 0.06258 0.0
H270 H 0.67221 0.66349 0.05228 0.0
H271 H 0.62243 0.49532 0.09254 0.0
H272 H 0.8073 0.66861 0.07077 0.0
H273 H 0.78139 0.44105 0.97165 0.0
H274 H 0.73657 0.70667 0.05376 0.0
H275 H 0.88806 0.64904 0.96679 0.0
H276 H 0.76858 0.48887 0.96727 0.0
H277 H 0.95058 0.66752 0.97076 0.0
H278 H 0.62454 0.60273 0.06025 0.0
H279 H 0.84191 0.45388 0.98384 0.0
H280 H 0.90552 0.49872 0.99153 0.0
H281 H 0.6057 0.53977 0.07596 0.0
H282 H 0.9517 0.56045 0.99104 0.0
N283 N 0.82125 0.5289 0.97821 0.0
C284 C 0.79517 0.49512 0.97246 0.0
C285 C 0.83646 0.4751 0.98198 0.0
C286 C 0.86332 0.50979 0.98508 0.0
C287 C 0.8023 0.46777 0.97496 0.0
C288 C 0.85474 0.53637 0.98266 0.0
H289 H 0.96879 0.62366 0.98272 0.0
N290 N 0.87102 0.59533 0.97755 0.0
C291 C 0.93115 0.64024 0.9742 0.0
C292 C 0.88061 0.57086 0.98221 0.0
C293 C 0.89571 0.62966 0.97178 0.0
C294 C 0.94133 0.61541 0.98107 0.0
C295 C 0.91594 0.58014 0.98446 0.0
O296 O 0.82897 0.60223 0.91172 0.0
O297 O 0.78191 0.59744 1.00166 0.0
O298 O 0.72385 0.55292 1.01414 0.0
O299 O 0.75688 0.5366 0.96715 0.0
O300 O 0.82429 0.62951 0.96332 0.0
O301 O 0.79238 0.547 0.91362 0.0
O302 O 0.7478 0.5561 0.13602 0.0
O303 O 0.78949 0.55808 0.04383 0.0
O304 O 0.84572 0.59625 0.03724 0.0
O305 O 0.81711 0.62065 0.0765 0.0
O306 O 0.7466 0.52731 0.08303 0.0
O307 O 0.78246 0.61136 0.13178 0.0
C308 C 0.79756 0.62738 0.98392 0.0
C309 C 0.8286 0.56871 0.84716 0.0
C310 C 0.83569 0.56697 0.76245 0.0
C311 C 0.81891 0.57173 0.8013 0.0
C312 C 0.86223 0.55897 0.77048 0.0
C313 C 0.8551 0.56076 0.85419 0.0
C314 C 0.87179 0.55591 0.81601 0.0
C315 C 0.7272 0.53498 0.97927 0.0
C316 C 0.81078 0.57399 0.88707 0.0
C317 C 0.9247 0.5539 0.98889 0.0
C318 C 0.89841 0.51875 0.9892 0.0
C319 C 0.77183 0.52781 0.0604 0.0
C320 C 0.74832 0.58995 0.19999 0.0
C321 C 0.75741 0.58548 0.24555 0.0
C322 C 0.74084 0.59006 0.28479 0.0
C323 C 0.71506 0.59922 0.27749 0.0
C324 C 0.72267 0.5992 0.19367 0.0
C325 C 0.70612 0.60375 0.23225 0.0
C326 C 0.84504 0.61763 0.06894 0.0
C327 C 0.7658 0.58482 0.15954 0.0
H328 H 0.79863 0.57824 0.79598 0.0
H329 H 0.87531 0.55458 0.74154 0.0
H330 H 0.86287 0.55824 0.88903 0.0
H331 H 0.89216 0.54964 0.82172 0.0
H332 H 0.77708 0.57807 0.25033 0.0
H333 H 0.70216 0.60347 0.30679 0.0
H334 H 0.71551 0.60303 0.15905 0.0
H335 H 0.68639 0.61098 0.22709 0.0
Tb336 Tb 0.24016 0.81665 0.30059 0.0
C337 C 0.10813 0.69623 0.3864 0.0
C338 C 0.06566 0.71483 0.37904 0.0
C339 C 0.04689 0.65308 0.37688 0.0
C340 C 0.10046 0.72257 0.38387 0.0
C341 C 0.08144 0.66107 0.38428 0.0
C342 C 0.03901 0.67996 0.37421 0.0
C343 C 0.12459 0.6447 0.4018 0.0
N344 N 0.14171 0.70518 0.39408 0.0
C345 C 0.15008 0.68001 0.40379 0.0
C346 C 0.09018 0.63515 0.39129 0.0
Tb347 Tb 0.18217 0.76356 0.39424 0.0
N348 N 0.12699 0.75576 0.389 0.0
C349 C 0.12 0.7824 0.39343 0.0
C350 C 0.05866 0.74225 0.38075 0.0
C351 C 0.08589 0.7761 0.38888 0.0
H352 H 0.17665 0.68711 0.41157 0.0
H353 H 0.08071 0.79745 0.39125 0.0
H354 H 0.01216 0.67348 0.3698 0.0
H355 H 0.13152 0.62488 0.40829 0.0
H356 H 0.14061 0.80881 0.39918 0.0
H357 H 0.34788 0.79198 0.30192 0.0
H358 H 0.03231 0.73746 0.37709 0.0
H359 H 0.23883 0.89052 0.29008 0.0
H360 H 0.28655 0.77634 0.29516 0.0
H361 H 0.28074 0.95361 0.29396 0.0
H362 H 0.02601 0.62623 0.37456 0.0
H363 H 0.39358 0.85347 0.31404 0.0
H364 H 0.40959 0.91644 0.3201 0.0
H365 H 0.07045 0.6078 0.38997 0.0
H366 H 0.39136 0.96056 0.31739 0.0
N367 N 0.29669 0.82834 0.30463 0.0
C368 C 0.30597 0.80333 0.30023 0.0
C369 C 0.36657 0.84676 0.31112 0.0
C370 C 0.35719 0.87252 0.31276 0.0
C371 C 0.34087 0.81206 0.30414 0.0
C372 C 0.32164 0.86232 0.309 0.0
H373 H 0.34335 0.9747 0.3071 0.0
N374 N 0.27717 0.87581 0.3017 0.0
C375 C 0.28975 0.93514 0.29786 0.0
C376 C 0.31155 0.88701 0.30718 0.0
C377 C 0.26607 0.89932 0.29549 0.0
C378 C 0.32506 0.94695 0.30537 0.0
C379 C 0.33644 0.92279 0.30954 0.0
O380 O 0.22898 0.83102 0.23548 0.0
O381 O 0.18782 0.78548 0.32588 0.0
O382 O 0.17442 0.72826 0.33535 0.0
O383 O 0.22637 0.76176 0.29419 0.0
O384 O 0.1974 0.82737 0.28714 0.0
O385 O 0.25004 0.79662 0.23943 0.0
O386 O 0.19355 0.7487 0.45892 0.0
O387 O 0.23471 0.79365 0.36865 0.0
O388 O 0.25189 0.84968 0.36194 0.0
O389 O 0.19913 0.81991 0.40182 0.0
O390 O 0.2228 0.75021 0.4065 0.0
O391 O 0.17393 0.78421 0.4561 0.0
C392 C 0.17318 0.80079 0.30838 0.0
C393 C 0.26287 0.83134 0.17161 0.0
C394 C 0.27094 0.83834 0.08673 0.0
C395 C 0.24978 0.82146 0.12586 0.0
C396 C 0.30548 0.86515 0.09443 0.0
C397 C 0.29732 0.85813 0.17827 0.0
C398 C 0.31847 0.8749 0.13984 0.0
C399 C 0.19759 0.73176 0.30316 0.0
C400 C 0.2402 0.81346 0.21185 0.0
C401 C 0.3718 0.93319 0.31516 0.0
C402 C 0.38217 0.90808 0.31676 0.0
C403 C 0.24764 0.77628 0.38517 0.0
C404 C 0.16057 0.74901 0.52342 0.0
C405 C 0.17381 0.75855 0.56917 0.0
C406 C 0.15258 0.74178 0.60829 0.0
C407 C 0.11786 0.71539 0.60059 0.0
C408 C 0.12592 0.7227 0.51675 0.0
C409 C 0.10472 0.706 0.55518 0.0
C410 C 0.22982 0.84832 0.39407 0.0
C411 C 0.18328 0.76674 0.48317 0.0
H412 H 0.223 0.80097 0.12084 0.0
H413 H 0.32269 0.87832 0.06532 0.0
H414 H 0.30787 0.86604 0.21306 0.0
H415 H 0.3451 0.89548 0.14525 0.0
H416 H 0.20072 0.7787 0.57419 0.0
H417 H 0.10061 0.70231 0.6297 0.0
H418 H 0.11523 0.71512 0.48194 0.0
H419 H 0.07794 0.68577 0.54978 0.0
Tb420 Tb 0.42549 0.23921 0.63919 0.0
C421 C 0.41225 0.1066 0.72462 0.0
C422 C 0.3512 0.0643 0.71518 0.0
C423 C 0.39404 0.0454 0.71425 0.0
C424 C 0.37829 0.09902 0.72105 0.0
C425 C 0.4206 0.07987 0.72259 0.0
C426 C 0.35934 0.03762 0.7105 0.0
C427 C 0.47996 0.12278 0.74198 0.0
N428 N 0.43686 0.14009 0.73324 0.0
C429 C 0.47023 0.1483 0.74393 0.0
C430 C 0.45513 0.08847 0.73058 0.0
Tb431 Tb 0.41914 0.18063 0.73312 0.0
N432 N 0.3717 0.12555 0.72624 0.0
C433 C 0.33804 0.1186 0.72969 0.0
C434 C 0.3168 0.05737 0.71579 0.0
C435 C 0.31019 0.08457 0.72399 0.0
H436 H 0.48965 0.17481 0.75239 0.0
H437 H 0.28365 0.07943 0.72554 0.0
H438 H 0.33895 0.01081 0.70539 0.0
H439 H 0.50659 0.1296 0.74921 0.0
H440 H 0.33232 0.13924 0.73549 0.0
H441 H 0.55761 0.34786 0.63985 0.0
H442 H 0.2952 0.03107 0.71128 0.0
H443 H 0.34975 0.23699 0.62911 0.0
H444 H 0.51217 0.28626 0.63459 0.0
H445 H 0.32821 0.2785 0.63202 0.0
H446 H 0.39991 0.02448 0.71203 0.0
H447 H 0.54141 0.39335 0.65002 0.0
H448 H 0.49413 0.40885 0.65512 0.0
H449 H 0.46267 0.06871 0.72932 0.0
H450 H 0.43163 0.39 0.65263 0.0
N451 N 0.47006 0.29602 0.64267 0.0
C452 C 0.50443 0.30557 0.63867 0.0
C453 C 0.52122 0.36621 0.64766 0.0
C454 C 0.486 0.35651 0.64916 0.0
C455 C 0.53045 0.34063 0.64178 0.0
C456 C 0.46081 0.32081 0.64615 0.0
H457 H 0.36952 0.34142 0.64355 0.0
N458 N 0.40289 0.27583 0.63968 0.0
C459 C 0.35579 0.28782 0.63565 0.0
C460 C 0.42593 0.31037 0.6444 0.0
C461 C 0.36816 0.26435 0.63382 0.0
C462 C 0.37917 0.3233 0.64226 0.0
C463 C 0.4148 0.33506 0.64614 0.0
O464 O 0.40042 0.22783 0.57363 0.0
O465 O 0.40371 0.18666 0.66429 0.0
O466 O 0.44763 0.17343 0.67517 0.0
O467 O 0.46681 0.22576 0.63458 0.0
O468 O 0.37194 0.19669 0.62513 0.0
O469 O 0.45583 0.24868 0.57861 0.0
O470 O 0.44416 0.19114 0.79871 0.0
O471 O 0.44244 0.23314 0.70742 0.0
O472 O 0.40461 0.25132 0.70046 0.0
O473 O 0.38015 0.19809 0.73943 0.0
O474 O 0.47283 0.22137 0.74821 0.0
O475 O 0.38912 0.17184 0.79389 0.0
C476 C 0.37386 0.17223 0.64635 0.0
C477 C 0.4346 0.26144 0.51001 0.0
C478 C 0.43757 0.26972 0.42505 0.0
C479 C 0.43244 0.24847 0.46439 0.0
C480 C 0.44469 0.30409 0.43238 0.0
C481 C 0.44177 0.29576 0.51628 0.0
C482 C 0.44675 0.31692 0.47763 0.0
C483 C 0.46797 0.197 0.64383 0.0
C484 C 0.42936 0.23884 0.55052 0.0
C485 C 0.43962 0.37059 0.65091 0.0
C486 C 0.4752 0.38131 0.65239 0.0
C487 C 0.47224 0.24613 0.72576 0.0
C488 C 0.40952 0.15754 0.8619 0.0
C489 C 0.41224 0.17024 0.90779 0.0
C490 C 0.40656 0.14844 0.94668 0.0
C491 C 0.39834 0.11379 0.93859 0.0
C492 C 0.40115 0.12292 0.85483 0.0
C493 C 0.39565 0.10122 0.89304 0.0
C494 C 0.38325 0.22915 0.73201 0.0
C495 C 0.41542 0.18074 0.82191 0.0
H496 H 0.42723 0.22201 0.45966 0.0
H497 H 0.44821 0.321 0.40308 0.0
H498 H 0.44349 0.30619 0.55094 0.0
H499 H 0.45215 0.34337 0.48276 0.0
H500 H 0.41829 0.19691 0.91308 0.0
H501 H 0.39439 0.09645 0.9675 0.0
H502 H 0.39885 0.11266 0.81989 0.0
H503 H 0.38935 0.07454 0.88733 0.0
C504 C 0.37391 0.27632 0.76307 0.0
C505 C 0.36296 0.24063 0.76052 0.0
C506 C 0.35508 0.28803 0.78872 0.0
C507 C 0.28733 0.2628 0.88054 0.0
H508 H 0.28454 0.34275 0.83085 0.0
C509 C 0.20211 0.32097 0.94973 0.0
C510 C 0.22143 0.35686 0.9594 0.0
C511 C 0.21802 0.30401 0.92846 0.0
C512 C 0.28519 0.32047 0.84518 0.0
H513 H 0.32382 0.1892 0.7837 0.0
H514 H 0.29004 0.20962 0.82779 0.0
H515 H 0.31335 0.31756 0.78664 0.0
H516 H 0.27205 0.40335 0.95244 0.0
H517 H 0.29957 0.37401 0.91486 0.0
H518 H 0.25808 0.26565 0.93871 0.0
C519 C 0.31364 0.22862 0.81039 0.0
C520 C 0.30188 0.30609 0.82004 0.0
C521 C 0.33287 0.21686 0.78497 0.0
C522 C 0.25671 0.37558 0.9467 0.0
C523 C 0.27242 0.35883 0.92485 0.0
C524 C 0.27004 0.27695 0.90543 0.0
C525 C 0.32437 0.26439 0.81216 0.0
C526 C 0.30391 0.27754 0.83776 0.0
C527 C 0.25318 0.32298 0.91516 0.0
C528 C 0.26943 0.3063 0.88827 0.0
H529 H 0.39732 0.29551 0.74547 0.0
H530 H 0.3649 0.31582 0.79032 0.0
H531 H 0.28853 0.241 0.89547 0.0
H532 H 0.17471 0.30613 0.95856 0.0
H533 H 0.2026 0.2764 0.92091 0.0
C534 C 0.12258 0.34347 0.12883 0.0
C535 C 0.12283 0.36249 0.08932 0.0
C536 C 0.09239 0.32542 0.15614 0.0
C537 C 0.00688 0.3213 0.17629 0.0
H538 H 0.98392 0.23669 0.24344 0.0
C539 C 0.88492 0.25717 0.29029 0.0
C540 C 0.8664 0.22085 0.29545 0.0
C541 C 0.91794 0.27402 0.27024 0.0
C542 C 0.98961 0.26003 0.22442 0.0
H543 H 0.09122 0.37725 0.04821 0.0
H544 H 0.03869 0.34378 0.09201 0.0
H545 H 0.03699 0.26537 0.19703 0.0
H546 H 0.86718 0.17337 0.28086 0.0
H547 H 0.92393 0.20243 0.24223 0.0
H548 H 0.95871 0.31492 0.19998 0.0
C549 C 0.06186 0.34369 0.10367 0.0
C550 C 0.02051 0.2769 0.19833 0.0
C551 C 0.09209 0.36243 0.07749 0.0
C552 C 0.88123 0.20154 0.27827 0.0
C553 C 0.91397 0.21833 0.25654 0.0
C554 C 0.97575 0.30405 0.20111 0.0
C555 C 0.0616 0.32551 0.14409 0.0
C556 C 0.02946 0.3077 0.17355 0.0
C557 C 0.93275 0.25492 0.25185 0.0
C558 C 0.96654 0.27319 0.2258 0.0
H559 H 0.14585 0.34311 0.13935 0.0
H560 H 0.09353 0.31212 0.18722 0.0
H561 H 0.01301 0.34544 0.1591 0.0
H562 H 0.87406 0.27289 0.3016 0.0
H563 H 0.93159 0.30219 0.26892 0.0
C564 C 0.78674 0.11802 0.45298 0.0
C565 C 0.76241 0.12356 0.42857 0.0
C566 C 0.7756 0.08803 0.48031 0.0
C567 C 0.74032 0.00893 0.50604 0.0
H568 H 0.66686 0.98586 0.59653 0.0
C569 C 0.68164 0.88168 0.61506 0.0
C570 C 0.64566 0.86479 0.62334 0.0
C571 C 0.69906 0.91537 0.59626 0.0
C572 C 0.6871 0.99163 0.57108 0.0
H573 H 0.7073 0.10224 0.41433 0.0
H574 H 0.68807 0.05064 0.46262 0.0
H575 H 0.69123 0.04056 0.55349 0.0
H576 H 0.59925 0.86871 0.61466 0.0
H577 H 0.62902 0.92667 0.58147 0.0
H578 H 0.73506 0.95932 0.5215 0.0
C579 C 0.71569 0.06927 0.46034 0.0
C580 C 0.7012 0.02311 0.54671 0.0
C581 C 0.72679 0.09874 0.43243 0.0
C582 C 0.62717 0.88158 0.61076 0.0
C583 C 0.64441 0.91499 0.5916 0.0
C584 C 0.72579 0.9771 0.52984 0.0
C585 C 0.73992 0.06357 0.48451 0.0
C586 C 0.72756 0.03182 0.51347 0.0
C587 C 0.68063 0.93249 0.58417 0.0
C588 C 0.69851 0.96772 0.56208 0.0
H589 H 0.81435 0.13665 0.45064 0.0
H590 H 0.79477 0.08417 0.49867 0.0
H591 H 0.76048 0.01498 0.48034 0.0
H592 H 0.69634 0.86894 0.6237 0.0
H593 H 0.72697 0.92799 0.59139 0.0
C594 C 0.66007 0.78016 0.79346 0.0
C595 C 0.64252 0.76217 0.75258 0.0
C596 C 0.67793 0.76802 0.82119 0.0
C597 C 0.68276 0.68701 0.84021 0.0
H598 H 0.76527 0.748 0.9122 0.0
C599 C 0.74384 0.62815 0.95845 0.0
C600 C 0.78008 0.64569 0.96443 0.0
C601 C 0.72749 0.64456 0.93755 0.0
C602 C 0.74249 0.73055 0.89189 0.0
H603 H 0.63068 0.71748 0.70907 0.0
H604 H 0.66358 0.6983 0.75421 0.0
H605 H 0.7376 0.7729 0.86449 0.0
H606 H 0.82793 0.69385 0.95085 0.0
H607 H 0.79973 0.72204 0.91119 0.0
H608 H 0.68862 0.64494 0.86438 0.0
C609 C 0.6626 0.72091 0.76643 0.0
C610 C 0.72624 0.74486 0.865 0.0
C611 C 0.64414 0.73245 0.73964 0.0
C612 C 0.79981 0.67991 0.94757 0.0
C613 C 0.78353 0.69614 0.92522 0.0
C614 C 0.69934 0.67286 0.86604 0.0
C615 C 0.67908 0.7379 0.80829 0.0
C616 C 0.69624 0.72325 0.83845 0.0
C617 C 0.74705 0.67852 0.91945 0.0
C618 C 0.72943 0.69429 0.89247 0.0
H619 H 0.65924 0.80305 0.80481 0.0
H620 H 0.68998 0.78173 0.85332 0.0
H621 H 0.65923 0.6692 0.82148 0.0
H622 H 0.72781 0.60155 0.96958 0.0
H623 H 0.69935 0.63021 0.93525 0.0
C624 C 0.11975 0.80184 0.28269 0.0
C625 C 0.13705 0.78305 0.29029 0.0
C626 C 0.08599 0.78529 0.26388 0.0
C627 C 0.01033 0.69654 0.23827 0.0
H628 H 0.98533 0.74596 0.14865 0.0
C629 C 0.88259 0.66843 0.12167 0.0
C630 C 0.87675 0.63826 0.09764 0.0
C631 C 0.91284 0.68758 0.14858 0.0
C632 C 0.99184 0.73199 0.17403 0.0
H633 H 0.1337 0.73304 0.28032 0.0
H634 H 0.0757 0.70443 0.24727 0.0
H635 H 0.04124 0.77686 0.18942 0.0
H636 H 0.89785 0.60429 0.08364 0.0
H637 H 0.94996 0.63723 0.13114 0.0
H638 H 0.9616 0.65128 0.2209 0.0
C639 C 0.08712 0.73142 0.25789 0.0
C640 C 0.02382 0.74969 0.1976 0.0
C641 C 0.12058 0.74786 0.27699 0.0
C642 C 0.90157 0.62749 0.10146 0.0
C643 C 0.93134 0.6462 0.12893 0.0
C644 C 0.9787 0.67879 0.21416 0.0
C645 C 0.0692 0.74979 0.25121 0.0
C646 C 0.0338 0.73203 0.22942 0.0
C647 C 0.93734 0.67644 0.15272 0.0
C648 C 0.96938 0.69619 0.18129 0.0
H649 H 0.13219 0.8292 0.29193 0.0
H650 H 0.07304 0.8003 0.25954 0.0
H651 H 0.01656 0.68223 0.26342 0.0
H652 H 0.86398 0.6774 0.11936 0.0
H653 H 0.91688 0.71082 0.16665 0.0
C654 C 0.37461 0.12031 0.61329 0.0
C655 C 0.35566 0.13639 0.62712 0.0
C656 C 0.35803 0.08795 0.59095 0.0
C657 C 0.27655 0.00777 0.57114 0.0
H658 H 0.31695 0.00679 0.45136 0.0
C659 C 0.21723 0.8856 0.4485 0.0
C660 C 0.24108 0.87995 0.42309 0.0
C661 C 0.22876 0.91638 0.47454 0.0
C662 C 0.30555 0.00629 0.48501 0.0
H663 H 0.30464 0.13155 0.62777 0.0
H664 H 0.27523 0.0741 0.58924 0.0
H665 H 0.34175 0.06041 0.49666 0.0
H666 H 0.2959 0.90145 0.40703 0.0
H667 H 0.31584 0.95382 0.45289 0.0
H668 H 0.24107 0.95323 0.56032 0.0
C669 C 0.30291 0.0866 0.59631 0.0
C670 C 0.3197 0.03716 0.5108 0.0
C671 C 0.31969 0.11938 0.6181 0.0
C672 C 0.27664 0.90517 0.42532 0.0
C673 C 0.28812 0.93549 0.45157 0.0
C674 C 0.26263 0.97654 0.54559 0.0
C675 C 0.32212 0.07092 0.58183 0.0
C676 C 0.30562 0.03816 0.55426 0.0
C677 C 0.2644 0.9419 0.47603 0.0
C678 C 0.2773 0.97529 0.50241 0.0
H679 H 0.40244 0.1331 0.61831 0.0
H680 H 0.37343 0.07642 0.58006 0.0
H681 H 0.26531 0.00795 0.60469 0.0
H682 H 0.18967 0.86661 0.44755 0.0
H683 H 0.20968 0.92044 0.4927 0.0
C684 C 0.21326 0.44557 0.69483 0.0
C685 C 0.17809 0.43163 0.70729 0.0
C686 C 0.22252 0.44332 0.6487 0.0
C687 C 0.18911 0.431 0.52735 0.0
H688 H 0.263 0.41098 0.50073 0.0
C689 C 0.21755 0.4021 0.34008 0.0
C690 C 0.25259 0.41561 0.32727 0.0
C691 C 0.20863 0.40452 0.38632 0.0
C692 C 0.24258 0.41702 0.50753 0.0
H693 H 0.12505 0.40324 0.6812 0.0
H694 H 0.14116 0.39928 0.60094 0.0
H695 H 0.24722 0.41371 0.58167 0.0
H696 H 0.30578 0.44328 0.35289 0.0
H697 H 0.29026 0.44764 0.43337 0.0
H698 H 0.18448 0.43435 0.45326 0.0
C699 C 0.16165 0.41259 0.6266 0.0
C700 C 0.23352 0.41856 0.55398 0.0
C701 C 0.15241 0.41484 0.67266 0.0
C702 C 0.2785 0.43206 0.3617 0.0
C703 C 0.2696 0.43452 0.40789 0.0
C704 C 0.19819 0.42949 0.48091 0.0
C705 C 0.19683 0.42705 0.61391 0.0
C706 C 0.20662 0.4255 0.56449 0.0
C707 C 0.23453 0.42057 0.42089 0.0
C708 C 0.22502 0.42244 0.47038 0.0
H709 H 0.23373 0.45907 0.72047 0.0
H710 H 0.24988 0.45509 0.64006 0.0
H711 H 0.16867 0.437 0.53415 0.0
H712 H 0.19691 0.38884 0.3146 0.0
H713 H 0.18134 0.39307 0.39517 0.0
C714 C 0.72102 0.17806 1.01041 0.0
C715 C 0.74299 0.17641 0.04458 0.0
C716 C 0.73237 0.1872 0.96425 0.0
C717 C 0.81202 0.23024 0.89112 0.0
H718 H 0.74803 0.17984 0.78989 0.0
C719 C 0.85784 0.24514 0.69932 0.0
C720 C 0.83642 0.24711 0.66458 0.0
C721 C 0.84606 0.23633 0.74534 0.0
C722 C 0.76613 0.19446 0.8177 0.0
H723 H 0.79428 0.18319 0.05669 0.0
H724 H 0.8141 0.19914 0.97622 0.0
H725 H 0.72863 0.16547 0.87072 0.0
H726 H 0.78554 0.24103 0.65126 0.0
H727 H 0.76491 0.22555 0.73162 0.0
H728 H 0.84954 0.25917 0.83812 0.0
C729 C 0.78818 0.19377 0.98527 0.0
C730 C 0.75499 0.18622 0.86412 0.0
C731 C 0.77682 0.18463 0.03148 0.0
C732 C 0.8026 0.23939 0.67695 0.0
C733 C 0.79079 0.23054 0.72308 0.0
C734 C 0.82315 0.23845 0.84472 0.0
C735 C 0.76602 0.19497 0.95096 0.0
C736 C 0.77782 0.20396 0.90148 0.0
C737 C 0.81249 0.22918 0.75796 0.0
C738 C 0.80039 0.22061 0.80738 0.0
H739 H 0.69502 0.17252 0.01939 0.0
H740 H 0.71482 0.18848 0.93904 0.0
H741 H 0.83015 0.24485 0.91891 0.0
H742 H 0.88377 0.25022 0.69091 0.0
H743 H 0.86324 0.23483 0.771 0.0
C744 C 0.53939 0.72399 0.33651 0.0
C745 C 0.56307 0.74498 0.37139 0.0
C746 C 0.54274 0.73594 0.29051 0.0
C747 C 0.5835 0.81615 0.2182 0.0
H748 H 0.56772 0.75147 0.11702 0.0
C749 C 0.61578 0.86138 0.02589 0.0
C750 C 0.59208 0.84016 0.99117 0.0
C751 C 0.61241 0.84975 0.07209 0.0
C752 C 0.57184 0.76979 0.14479 0.0
H753 H 0.60877 0.79527 0.38499 0.0
H754 H 0.61465 0.81618 0.30468 0.0
H755 H 0.56138 0.73175 0.19779 0.0
H756 H 0.54615 0.78989 0.97819 0.0
H757 H 0.54028 0.76958 0.05874 0.0
H758 H 0.59398 0.85421 0.16515 0.0
C759 C 0.59321 0.79053 0.31307 0.0
C760 C 0.56819 0.75847 0.1912 0.0
C761 C 0.58984 0.77855 0.35918 0.0
C762 C 0.56515 0.80677 1.00382 0.0
C763 C 0.56177 0.79513 0.05008 0.0
C764 C 0.58715 0.82748 0.17177 0.0
C765 C 0.56987 0.76925 0.27802 0.0
C766 C 0.57392 0.78147 0.22856 0.0
C767 C 0.58525 0.81655 0.08491 0.0
C768 C 0.58136 0.80445 0.13441 0.0
H769 H 0.51804 0.69826 0.3448 0.0
H770 H 0.52384 0.7191 0.26476 0.0
H771 H 0.58762 0.83447 0.24598 0.0
H772 H 0.63723 0.88698 0.01731 0.0
H773 H 0.63136 0.86671 0.09771 0.0
C774 C 0.85124 0.58647 0.67894 0.0
C775 C 0.82565 0.57011 0.71366 0.0
C776 C 0.84192 0.58836 0.63276 0.0
C777 C 0.76992 0.58232 0.55995 0.0
H778 H 0.81904 0.56679 0.45912 0.0
C779 C 0.72468 0.56919 0.36769 0.0
C780 C 0.75049 0.58576 0.33329 0.0
C781 C 0.7337 0.56655 0.41377 0.0
C782 C 0.8053 0.57157 0.4868 0.0
H783 H 0.77004 0.54295 0.72674 0.0
H784 H 0.75375 0.54628 0.64615 0.0
H785 H 0.83489 0.56409 0.54003 0.0
H786 H 0.80612 0.61237 0.32057 0.0
H787 H 0.8219 0.60781 0.40097 0.0
H788 H 0.74038 0.58988 0.50674 0.0
C789 C 0.78112 0.55802 0.65481 0.0
C790 C 0.81439 0.57003 0.53327 0.0
C791 C 0.79046 0.55612 0.70107 0.0
C792 C 0.78555 0.59907 0.34601 0.0
C793 C 0.79459 0.59646 0.39217 0.0
C794 C 0.76083 0.58388 0.51349 0.0
C795 C 0.80673 0.57397 0.61997 0.0
C796 C 0.79686 0.57543 0.57047 0.0
C797 C 0.76879 0.58042 0.42676 0.0
C798 C 0.7784 0.57854 0.47627 0.0
H799 H 0.87862 0.5981 0.68752 0.0
H800 H 0.86238 0.60144 0.60711 0.0
H801 H 0.7562 0.58713 0.58763 0.0
H802 H 0.69738 0.55808 0.35896 0.0
H803 H 0.71309 0.5534 0.4392 0.0
C804 C 0.15703 0.72607 0.69167 0.0
C805 C 0.16624 0.75173 0.65702 0.0
C806 C 0.16853 0.73532 0.73785 0.0
C807 C 0.23482 0.80757 0.81095 0.0
H808 H 0.17057 0.75783 0.9118 0.0
C809 C 0.26636 0.85367 1.00321 0.0
C810 C 0.25738 0.82814 0.03799 0.0
C811 C 0.25495 0.84425 0.95705 0.0
C812 C 0.189 0.77174 0.88413 0.0
H813 H 0.195 0.80738 0.64412 0.0
H814 H 0.21505 0.82353 0.72465 0.0
H815 H 0.15192 0.74181 0.8309 0.0
H816 H 0.22907 0.77251 0.05111 0.0
H817 H 0.2091 0.75604 0.97059 0.0
H818 H 0.27188 0.83754 0.86418 0.0
C819 C 0.19924 0.79615 0.71596 0.0
C820 C 0.1783 0.76254 0.83763 0.0
C821 C 0.18775 0.78689 0.6697 0.0
C822 C 0.23615 0.7929 0.02544 0.0
C823 C 0.22471 0.78346 0.97919 0.0
C824 C 0.24551 0.81678 0.85744 0.0
C825 C 0.18957 0.7705 0.75076 0.0
C826 C 0.20106 0.78032 0.80037 0.0
C827 C 0.23418 0.809 0.94427 0.0
C828 C 0.22274 0.79903 0.8947 0.0
H829 H 0.14105 0.6987 0.68306 0.0
H830 H 0.16112 0.71478 0.76339 0.0
H831 H 0.25327 0.8215 0.78329 0.0
H832 H 0.2821 0.8811 1.01171 0.0
H833 H 0.26218 0.86468 0.9314 0.0
C834 C 0.4588 0.27782 0.34183 0.0
C835 C 0.43538 0.25633 0.37645 0.0
C836 C 0.45593 0.26602 0.29572 0.0
C837 C 0.41722 0.18579 0.22273 0.0
H838 H 0.43172 0.25 0.1218 0.0
C839 C 0.38576 0.14012 0.03019 0.0
C840 C 0.40925 0.16156 0.99557 0.0
C841 C 0.38889 0.15177 0.07641 0.0
C842 C 0.42797 0.23181 0.1495 0.0
H843 H 0.39061 0.20532 0.38942 0.0
H844 H 0.38556 0.18471 0.30899 0.0
H845 H 0.43746 0.26963 0.20267 0.0
H846 H 0.45449 0.21231 0.98285 0.0
H847 H 0.4599 0.23269 0.06343 0.0
H848 H 0.40766 0.14795 0.16952 0.0
C849 C 0.40646 0.21063 0.31765 0.0
C850 C 0.43128 0.24309 0.19599 0.0
C851 C 0.40935 0.22244 0.36385 0.0
C852 C 0.43566 0.19523 1.00837 0.0
C853 C 0.43878 0.20692 0.05466 0.0
C854 C 0.41389 0.1745 0.17624 0.0
C855 C 0.42955 0.23237 0.28285 0.0
C856 C 0.42598 0.22025 0.23328 0.0
C857 C 0.41556 0.18525 0.08939 0.0
C858 C 0.4192 0.19735 0.13897 0.0
H859 H 0.47959 0.30382 0.3504 0.0
H860 H 0.47464 0.28326 0.2702 0.0
H861 H 0.41347 0.1676 0.25043 0.0
H862 H 0.36468 0.11429 0.02151 0.0
H863 H 0.37011 0.13461 0.10193 0.0
C864 C 0.17986 0.48326 0.08473 0.0
C865 C 0.21451 0.49673 0.07009 0.0
C866 C 0.16915 0.50539 0.10439 0.0
C867 C 0.19328 0.59774 0.1144 0.0
H868 H 0.15592 0.57581 0.24029 0.0
C869 C 0.21837 0.70436 0.24481 0.0
C870 C 0.19196 0.70109 0.27515 0.0
C871 C 0.21355 0.67669 0.21657 0.0
C872 C 0.1656 0.58202 0.2048 0.0
H873 H 0.26504 0.54329 0.06462 0.0
H874 H 0.24632 0.58198 0.09769 0.0
H875 H 0.16029 0.53163 0.1938 0.0
H876 H 0.13951 0.66565 0.29938 0.0
H877 H 0.1313 0.6166 0.25012 0.0
H878 H 0.1998 0.64835 0.12564 0.0
C879 C 0.22729 0.55458 0.09367 0.0
C880 C 0.1681 0.55674 0.17819 0.0
C881 C 0.23806 0.53248 0.0749 0.0
C882 C 0.16054 0.66899 0.27683 0.0
C883 C 0.15578 0.64096 0.24851 0.0
C884 C 0.19065 0.62283 0.14077 0.0
C885 C 0.1929 0.54126 0.10928 0.0
C886 C 0.18325 0.56488 0.13345 0.0
C887 C 0.18217 0.64475 0.21763 0.0
C888 C 0.17818 0.61578 0.18699 0.0
H889 H 0.16143 0.45561 0.08252 0.0
H890 H 0.14254 0.49446 0.11631 0.0
H891 H 0.20454 0.60451 0.07972 0.0
H892 H 0.24306 0.72843 0.24253 0.0
H893 H 0.23475 0.68028 0.1941 0.0
C894 C 0.69848 0.18066 0.42183 0.0
C895 C 0.71983 0.21484 0.40541 0.0
C896 C 0.66751 0.17174 0.44577 0.0
C897 C 0.63639 0.21504 0.52292 0.0
H898 H 0.54236 0.13801 0.50499 0.0
C899 C 0.52052 0.22071 0.59304 0.0
C900 C 0.49466 0.19251 0.61853 0.0
C901 C 0.5461 0.21769 0.56903 0.0
C902 C 0.56866 0.15921 0.51087 0.0
H903 H 0.72506 0.26584 0.39893 0.0
H904 H 0.67117 0.25036 0.44018 0.0
H905 H 0.58991 0.1429 0.45501 0.0
H906 H 0.47487 0.13839 0.63719 0.0
H907 H 0.52028 0.13313 0.59453 0.0
H908 H 0.61561 0.23199 0.57768 0.0
C909 C 0.67823 0.23048 0.43485 0.0
C910 C 0.59572 0.16208 0.48223 0.0
C911 C 0.70892 0.2393 0.41106 0.0
C912 C 0.49472 0.16077 0.6185 0.0
C913 C 0.52046 0.15764 0.59384 0.0
C914 C 0.60964 0.21215 0.55136 0.0
C915 C 0.65797 0.1971 0.45415 0.0
C916 C 0.62958 0.19076 0.48707 0.0
C917 C 0.54665 0.18635 0.56943 0.0
C918 C 0.5753 0.18493 0.54467 0.0
H919 H 0.70669 0.16153 0.41883 0.0
H920 H 0.65235 0.14584 0.46036 0.0
H921 H 0.66243 0.23692 0.52823 0.0
H922 H 0.52135 0.24549 0.59162 0.0
H923 H 0.56556 0.24007 0.54986 0.0
C924 C 0.33933 0.50937 0.96687 0.0
C925 C 0.3058 0.49201 0.94723 0.0
C926 C 0.36795 0.5333 0.94041 0.0
C927 C 0.39745 0.56319 0.8186 0.0
H928 H 0.45554 0.65342 0.87661 0.0
C929 C 0.52108 0.69674 0.75067 0.0
C930 C 0.50762 0.7183 0.73781 0.0
C931 C 0.49973 0.66489 0.77319 0.0
C932 C 0.43993 0.62811 0.86033 0.0
H933 H 0.27635 0.48493 0.88353 0.0
H934 H 0.32589 0.52656 0.83769 0.0
H935 H 0.4123 0.60504 0.92363 0.0
H936 H 0.46171 0.72362 0.73769 0.0
H937 H 0.42454 0.66806 0.77691 0.0
H938 H 0.42427 0.58725 0.7547 0.0
C939 C 0.33026 0.52176 0.8735 0.0
C940 C 0.41525 0.6004 0.88717 0.0
C941 C 0.30172 0.49817 0.90005 0.0
C942 C 0.4725 0.70721 0.74677 0.0
C943 C 0.4513 0.67557 0.76912 0.0
C944 C 0.42229 0.59096 0.79179 0.0
C945 C 0.36366 0.54005 0.89352 0.0
C946 C 0.3931 0.56783 0.8664 0.0
C947 C 0.4649 0.65455 0.78329 0.0
C948 C 0.44317 0.62373 0.81238 0.0
H949 H 0.34336 0.50551 1.00301 0.0
H950 H 0.39338 0.54686 0.95683 0.0
H951 H 0.38101 0.53833 0.80168 0.0
H952 H 0.54829 0.7051 0.74516 0.0
H953 H 0.51067 0.64903 0.78426 0.0
C954 C 0.81546 0.30003 0.23257 0.0
C955 C 0.81548 0.30311 0.28138 0.0
C956 C 0.81886 0.32699 0.20387 0.0
C957 C 0.83754 0.4195 0.20428 0.0
H958 H 0.77859 0.38786 0.09411 0.0
C959 C 0.81861 0.51542 0.08704 0.0
C960 C 0.78405 0.50354 0.07324 0.0
C961 C 0.828 0.49223 0.10635 0.0
C962 C 0.79514 0.39723 0.12477 0.0
H963 H 0.8198 0.33683 0.33878 0.0
H964 H 0.82429 0.38363 0.28885 0.0
H965 H 0.78461 0.34607 0.14162 0.0
H966 H 0.73224 0.45863 0.06926 0.0
H967 H 0.74817 0.41838 0.10336 0.0
H968 H 0.84599 0.47042 0.18881 0.0
C969 C 0.82278 0.36091 0.27242 0.0
C970 C 0.79908 0.37324 0.15183 0.0
C971 C 0.82013 0.33409 0.3012 0.0
C972 C 0.75921 0.46822 0.07873 0.0
C973 C 0.76847 0.44514 0.09807 0.0
C974 C 0.83324 0.44351 0.17742 0.0
C975 C 0.8214 0.35739 0.22327 0.0
C976 C 0.81989 0.38385 0.19246 0.0
C977 C 0.80286 0.45686 0.11287 0.0
C978 C 0.81135 0.43252 0.13787 0.0
H979 H 0.81232 0.27645 0.21654 0.0
H980 H 0.81876 0.32358 0.16636 0.0
H981 H 0.85427 0.42886 0.23476 0.0
H982 H 0.83807 0.54272 0.08449 0.0
H983 H 0.85477 0.50213 0.117 0.0
C984 C 0.30524 0.82342 0.41636 0.0
C985 C 0.28392 0.78921 0.3998 0.0
C986 C 0.33608 0.83231 0.44079 0.0
C987 C 0.36584 0.78934 0.51976 0.0
H988 H 0.46102 0.86359 0.50083 0.0
C989 C 0.47923 0.78017 0.59293 0.0
C990 C 0.50657 0.80879 0.61614 0.0
C991 C 0.45386 0.78361 0.56893 0.0
C992 C 0.43442 0.84319 0.50701 0.0
H993 H 0.27867 0.73818 0.3934 0.0
H994 H 0.33226 0.7536 0.43563 0.0
H995 H 0.41421 0.85957 0.44995 0.0
H996 H 0.52901 0.86389 0.6313 0.0
H997 H 0.48401 0.8699 0.58866 0.0
H998 H 0.38552 0.77232 0.57577 0.0
C999 C 0.32531 0.77352 0.42997 0.0
C1000 C 0.40778 0.84083 0.47786 0.0
C1001 C 0.29479 0.76474 0.40565 0.0
C1002 C 0.50804 0.84124 0.61426 0.0
C1003 C 0.48252 0.84477 0.58962 0.0
C1004 C 0.39218 0.79177 0.54875 0.0
C1005 C 0.34548 0.8069 0.44946 0.0
C1006 C 0.37347 0.81309 0.48307 0.0
C1007 C 0.45499 0.81577 0.56713 0.0
C1008 C 0.42692 0.81791 0.54171 0.0
H1009 H 0.29708 0.84257 0.41315 0.0
H1010 H 0.35121 0.85822 0.45555 0.0
H1011 H 0.33946 0.76818 0.52522 0.0
H1012 H 0.47716 0.7548 0.59321 0.0
H1013 H 0.43335 0.76093 0.55129 0.0
C1014 C 0.66565 0.4864 0.96895 0.0
C1015 C 0.69678 0.51283 0.94975 0.0
C1016 C 0.63884 0.46267 0.93958 0.0
C1017 C 0.62679 0.42794 0.81818 0.0
H1018 H 0.52952 0.37753 0.85396 0.0
C1019 C 0.53183 0.29329 0.74361 0.0
C1020 C 0.49655 0.28278 0.73797 0.0
C1021 C 0.55492 0.3257 0.76301 0.0
C1022 C 0.55647 0.39175 0.8429 0.0
H1023 H 0.72373 0.53703 0.8855 0.0
H1024 H 0.67663 0.49711 0.83434 0.0
H1025 H 0.57105 0.42694 0.90098 0.0
H1026 H 0.45745 0.29768 0.74872 0.0
H1027 H 0.49806 0.3551 0.78145 0.0
H1028 H 0.61224 0.39327 0.75978 0.0
C1029 C 0.67309 0.49337 0.87176 0.0
C1030 C 0.58045 0.4198 0.87037 0.0
C1031 C 0.70003 0.51648 0.90103 0.0
C1032 C 0.48472 0.30555 0.75144 0.0
C1033 C 0.50793 0.3382 0.77086 0.0
C1034 C 0.60283 0.40027 0.79053 0.0
C1035 C 0.64254 0.46537 0.89048 0.0
C1036 C 0.61612 0.4378 0.859 0.0
C1037 C 0.54323 0.3484 0.77772 0.0
C1038 C 0.56752 0.38113 0.80319 0.0
H1039 H 0.66278 0.48292 1.00646 0.0
H1040 H 0.61598 0.44133 0.95549 0.0
H1041 H 0.65396 0.44065 0.80829 0.0
H1042 H 0.54137 0.27584 0.73436 0.0
H1043 H 0.58165 0.33216 0.76853 0.0
loop_
_geom_bond_atom_site_label_1
_geom_bond_atom_site_label_2
_geom_bond_distance
_geom_bond_site_symmetry_2
_ccdc_geom_bond_type
Tb0 N31 2.660 . S
Tb0 N38 2.600 . S
Tb0 O44 2.546 . S
Tb0 O45 2.610 . S
Tb0 O47 2.320 . S
Tb0 O48 2.552 . S
Tb0 O49 2.413 . S
Tb0 O51 2.362 1_556 S
Tb0 O52 2.425 . S
Tb0 C64 2.833 . S
C1 C4 1.432 . S
C1 C5 1.414 . S
C1 N8 1.359 . S
C2 C4 1.417 . S
C2 C6 1.432 . S
C2 C14 1.410 . S
C3 C5 1.444 . S
C3 C6 1.317 . S
C3 H26 0.929 . S
C4 C1 1.432 . S
C4 C2 1.417 . S
C4 N12 1.360 . S
C5 C1 1.414 . S
C5 C3 1.444 . S
C5 C10 1.385 . S
C6 C2 1.432 . S
C6 C3 1.317 . S
C6 H18 0.930 . S
C7 C9 1.392 . S
C7 C10 1.370 . S
C7 H19 0.931 . S
N8 C1 1.359 . S
N8 C9 1.327 . S
N8 Tb11 2.600 . S
C9 C7 1.392 . S
C9 N8 1.327 . S
C9 H16 0.930 . S
C10 C5 1.385 . S
C10 C7 1.370 . S
C10 H29 0.930 . S
Tb11 N8 2.600 . S
Tb11 N12 2.660 . S
Tb11 O45 2.362 1_554 S
Tb11 O46 2.421 . S
Tb11 O50 2.546 . S
Tb11 O51 2.610 . S
Tb11 O53 2.320 . S
Tb11 O54 2.552 . S
Tb11 O55 2.413 . S
Tb11 C75 2.833 . S
N12 C4 1.360 . S
N12 Tb11 2.660 . S
N12 C13 1.305 . S
C13 N12 1.305 . S
C13 C15 1.407 . S
C13 H20 0.930 . S
C14 C2 1.410 . S
C14 C15 1.345 . S
C14 H22 0.930 . S
C15 C13 1.407 . S
C15 C14 1.345 . S
C15 H17 0.930 . S
H16 C9 0.930 . S
H17 C15 0.930 . S
H18 C6 0.930 . S
H19 C7 0.931 . S
H20 C13 0.930 . S
H21 C35 0.930 . S
H22 C14 0.930 . S
H23 C41 0.930 . S
H24 C32 0.930 . S
H25 C39 0.931 . S
H26 C3 0.929 . S
H27 C33 0.930 . S
H28 C66 0.930 . S
H29 C10 0.930 . S
H30 C65 0.929 . S
N31 Tb0 2.660 . S
N31 C32 1.305 . S
N31 C36 1.360 . S
C32 H24 0.930 . S
C32 N31 1.305 . S
C32 C35 1.407 . S
C33 H27 0.930 . S
C33 C34 1.410 . S
C33 C35 1.345 . S
C34 C33 1.410 . S
C34 C36 1.417 . S
C34 C66 1.432 . S
C35 H21 0.930 . S
C35 C32 1.407 . S
C35 C33 1.345 . S
C36 N31 1.360 . S
C36 C34 1.417 . S
C36 C40 1.432 . S
H37 C42 0.930 . S
N38 Tb0 2.600 . S
N38 C40 1.359 . S
N38 C41 1.327 . S
C39 H25 0.931 . S
C39 C41 1.392 . S
C39 C42 1.370 . S
C40 C36 1.432 . S
C40 N38 1.359 . S
C40 C43 1.414 . S
C41 H23 0.930 . S
C41 N38 1.327 . S
C41 C39 1.392 . S
C42 H37 0.930 . S
C42 C39 1.370 . S
C42 C43 1.385 . S
C43 C40 1.414 . S
C43 C42 1.385 . S
C43 C65 1.444 . S
O44 Tb0 2.546 . S
O44 C64 1.251 . S
O45 Tb0 2.610 . S
O45 Tb11 2.362 1_556 S
O45 C56 1.283 . S
O46 Tb11 2.421 . S
O46 C63 1.262 1_554 S
O47 Tb0 2.320 . S
O47 C63 1.260 . S
O48 Tb0 2.552 . S
O48 C56 1.243 . S
O49 Tb0 2.413 . S
O49 C64 1.256 . S
O50 Tb11 2.546 . S
O50 C75 1.251 . S
O51 Tb0 2.362 1_554 S
O51 Tb11 2.610 . S
O51 C67 1.283 . S
O52 Tb0 2.425 . S
O52 C74 1.256 1_556 S
O53 Tb11 2.320 . S
O53 C74 1.260 . S
O54 Tb11 2.552 . S
O54 C67 1.243 . S
O55 Tb11 2.413 . S
O55 C75 1.256 . S
C56 O45 1.283 . S
C56 O48 1.243 . S
C57 C59 1.382 . S
C57 C61 1.393 . S
C57 C64 1.500 . S
C58 C59 1.400 . S
C58 C60 1.384 . S
C59 C57 1.382 . S
C59 C58 1.400 . S
C59 H76 0.930 . S
C60 C58 1.384 . S
C60 C62 1.392 . S
C60 H77 0.931 . S
C61 C57 1.393 . S
C61 C62 1.401 . S
C61 H78 0.930 . S
C62 C60 1.392 . S
C62 C61 1.401 . S
C62 H79 0.930 . S
C63 O46 1.262 1_556 S
C63 O47 1.260 . S
C64 Tb0 2.833 . S
C64 O44 1.251 . S
C64 O49 1.256 . S
C64 C57 1.500 . S
C65 H30 0.929 . S
C65 C43 1.444 . S
C65 C66 1.317 . S
C66 H28 0.930 . S
C66 C34 1.432 . S
C66 C65 1.317 . S
C67 O51 1.283 . S
C67 O54 1.243 . S
C68 C69 1.382 . S
C68 C72 1.393 . S
C68 C75 1.500 . S
C69 C68 1.382 . S
C69 C70 1.400 . S
C69 H80 0.930 . S
C70 C69 1.400 . S
C70 C71 1.384 . S
C71 C70 1.384 . S
C71 C73 1.392 . S
C71 H81 0.931 . S
C72 C68 1.393 . S
C72 C73 1.401 . S
C72 H82 0.930 . S
C73 C71 1.392 . S
C73 C72 1.401 . S
C73 H83 0.930 . S
C74 O52 1.256 1_554 S
C74 O53 1.260 . S
C75 Tb11 2.833 . S
C75 O50 1.251 . S
C75 O55 1.256 . S
C75 C68 1.500 . S
H76 C59 0.930 . S
H77 C60 0.931 . S
H78 C61 0.930 . S
H79 C62 0.930 . S
H80 C69 0.930 . S
H81 C71 0.931 . S
H82 C72 0.930 . S
H83 C73 0.930 . S
Tb84 N115 2.660 . S
Tb84 N122 2.600 . S
Tb84 O128 2.546 . S
Tb84 O129 2.610 . S
Tb84 O131 2.320 . S
Tb84 O132 2.552 . S
Tb84 O133 2.413 . S
Tb84 O135 2.362 . S
Tb84 O136 2.421 . S
Tb84 C148 2.833 . S
C85 C88 1.432 . S
C85 C89 1.414 . S
C85 N92 1.359 . S
C86 C88 1.417 . S
C86 C90 1.432 . S
C86 C98 1.410 . S
C87 C89 1.444 . S
C87 C90 1.317 . S
C87 H110 0.929 . S
C88 C85 1.432 . S
C88 C86 1.417 . S
C88 N96 1.360 . S
C89 C85 1.414 . S
C89 C87 1.444 . S
C89 C94 1.385 . S
C90 C86 1.432 . S
C90 C87 1.317 . S
C90 H102 0.930 . S
C91 C93 1.392 . S
C91 C94 1.370 . S
C91 H103 0.931 . S
N92 C85 1.359 . S
N92 C93 1.327 . S
N92 Tb95 2.600 . S
C93 C91 1.392 . S
C93 N92 1.327 . S
C93 H100 0.930 . S
C94 C89 1.385 . S
C94 C91 1.370 . S
C94 H113 0.930 . S
Tb95 N92 2.600 . S
Tb95 N96 2.660 . S
Tb95 O129 2.362 . S
Tb95 O130 2.421 . S
Tb95 O134 2.546 . S
Tb95 O135 2.610 . S
Tb95 O137 2.320 . S
Tb95 O138 2.552 . S
Tb95 O139 2.413 . S
Tb95 C159 2.833 . S
N96 C88 1.360 . S
N96 Tb95 2.660 . S
N96 C97 1.305 . S
C97 N96 1.305 . S
C97 C99 1.407 . S
C97 H104 0.930 . S
C98 C86 1.410 . S
C98 C99 1.345 . S
C98 H106 0.930 . S
C99 C97 1.407 . S
C99 C98 1.345 . S
C99 H101 0.930 . S
H100 C93 0.930 . S
H101 C99 0.930 . S
H102 C90 0.930 . S
H103 C91 0.931 . S
H104 C97 0.930 . S
H105 C119 0.930 . S
H106 C98 0.930 . S
H107 C125 0.930 . S
H108 C116 0.930 . S
H109 C123 0.931 . S
H110 C87 0.929 . S
H111 C117 0.930 . S
H112 C150 0.930 . S
H113 C94 0.930 . S
H114 C149 0.929 . S
N115 Tb84 2.660 . S
N115 C116 1.305 . S
N115 C120 1.360 . S
C116 H108 0.930 . S
C116 N115 1.305 . S
C116 C119 1.407 . S
C117 H111 0.930 . S
C117 C118 1.410 . S
C117 C119 1.345 . S
C118 C117 1.410 . S
C118 C120 1.417 . S
C118 C150 1.432 . S
C119 H105 0.930 . S
C119 C116 1.407 . S
C119 C117 1.345 . S
C120 N115 1.360 . S
C120 C118 1.417 . S
C120 C124 1.432 . S
H121 C126 0.930 . S
N122 Tb84 2.600 . S
N122 C124 1.359 . S
N122 C125 1.327 . S
C123 H109 0.931 . S
C123 C125 1.392 . S
C123 C126 1.370 . S
C124 C120 1.432 . S
C124 N122 1.359 . S
C124 C127 1.414 . S
C125 H107 0.930 . S
C125 N122 1.327 . S
C125 C123 1.392 . S
C126 H121 0.930 . S
C126 C123 1.370 . S
C126 C127 1.385 . S
C127 C124 1.414 . S
C127 C126 1.385 . S
C127 C149 1.444 . S
O128 Tb84 2.546 . S
O128 C148 1.251 . S
O129 Tb84 2.610 . S
O129 Tb95 2.362 . S
O129 C140 1.283 . S
O130 Tb95 2.421 . S
O130 C147 1.262 . S
O131 Tb84 2.320 . S
O131 C147 1.260 . S
O132 Tb84 2.552 . S
O132 C140 1.243 . S
O133 Tb84 2.413 . S
O133 C148 1.256 . S
O134 Tb95 2.546 . S
O134 C159 1.251 . S
O135 Tb84 2.362 . S
O135 Tb95 2.610 . S
O135 C151 1.283 . S
O136 Tb84 2.421 . S
O136 C158 1.262 . S
O137 Tb95 2.320 . S
O137 C158 1.260 . S
O138 Tb95 2.552 . S
O138 C151 1.243 . S
O139 Tb95 2.413 . S
O139 C159 1.256 . S
C140 O129 1.283 . S
C140 O132 1.243 . S
C141 C143 1.382 . S
C141 C145 1.393 . S
C141 C148 1.500 . S
C142 C143 1.400 . S
C142 C144 1.384 . S
C143 C141 1.382 . S
C143 C142 1.400 . S
C143 H160 0.930 . S
C144 C142 1.384 . S
C144 C146 1.392 . S
C144 H161 0.931 . S
C145 C141 1.393 . S
C145 C146 1.401 . S
C145 H162 0.930 . S
C146 C144 1.392 . S
C146 C145 1.401 . S
C146 H163 0.930 . S
C147 O130 1.262 . S
C147 O131 1.260 . S
C148 Tb84 2.833 . S
C148 O128 1.251 . S
C148 O133 1.256 . S
C148 C141 1.500 . S
C149 H114 0.929 . S
C149 C127 1.444 . S
C149 C150 1.317 . S
C150 H112 0.930 . S
C150 C118 1.432 . S
C150 C149 1.317 . S
C151 O135 1.283 . S
C151 O138 1.243 . S
C152 C153 1.382 . S
C152 C156 1.393 . S
C152 C159 1.500 . S
C153 C152 1.382 . S
C153 C154 1.400 . S
C153 H164 0.930 . S
C154 C153 1.400 . S
C154 C155 1.384 . S
C155 C154 1.384 . S
C155 C157 1.392 . S
C155 H165 0.931 . S
C156 C152 1.393 . S
C156 C157 1.401 . S
C156 H166 0.930 . S
C157 C155 1.392 . S
C157 C156 1.401 . S
C157 H167 0.930 . S
C158 O136 1.262 . S
C158 O137 1.260 . S
C159 Tb95 2.833 . S
C159 O134 1.251 . S
C159 O139 1.256 . S
C159 C152 1.500 . S
H160 C143 0.930 . S
H161 C144 0.931 . S
H162 C145 0.930 . S
H163 C146 0.930 . S
H164 C153 0.930 . S
H165 C155 0.931 . S
H166 C156 0.930 . S
H167 C157 0.930 . S
Tb168 N199 2.660 . S
Tb168 N206 2.600 . S
Tb168 O212 2.546 . S
Tb168 O213 2.610 . S
Tb168 O215 2.320 . S
Tb168 O216 2.552 . S
Tb168 O217 2.413 . S
Tb168 O219 2.362 . S
Tb168 O220 2.421 . S
Tb168 C232 2.833 . S
C169 C172 1.432 . S
C169 C173 1.414 . S
C169 N176 1.359 . S
C170 C172 1.417 . S
C170 C174 1.432 . S
C170 C182 1.410 . S
C171 C173 1.444 . S
C171 C174 1.317 . S
C171 H194 0.929 . S
C172 C169 1.432 . S
C172 C170 1.417 . S
C172 N180 1.360 . S
C173 C169 1.414 . S
C173 C171 1.444 . S
C173 C178 1.385 . S
C174 C170 1.432 . S
C174 C171 1.317 . S
C174 H186 0.930 . S
C175 C177 1.392 . S
C175 C178 1.370 . S
C175 H187 0.931 . S
N176 C169 1.359 . S
N176 C177 1.327 . S
N176 Tb179 2.600 . S
C177 C175 1.392 . S
C177 N176 1.327 . S
C177 H184 0.930 . S
C178 C173 1.385 . S
C178 C175 1.370 . S
C178 H197 0.930 . S
Tb179 N176 2.600 . S
Tb179 N180 2.660 . S
Tb179 O213 2.362 . S
Tb179 O214 2.421 . S
Tb179 O218 2.546 . S
Tb179 O219 2.610 . S
Tb179 O221 2.320 . S
Tb179 O222 2.552 . S
Tb179 O223 2.413 . S
Tb179 C243 2.833 . S
N180 C172 1.360 . S
N180 Tb179 2.660 . S
N180 C181 1.305 . S
C181 N180 1.305 . S
C181 C183 1.407 . S
C181 H188 0.930 . S
C182 C170 1.410 . S
C182 C183 1.345 . S
C182 H190 0.930 . S
C183 C181 1.407 . S
C183 C182 1.345 . S
C183 H185 0.930 . S
H184 C177 0.930 . S
H185 C183 0.930 . S
H186 C174 0.930 . S
H187 C175 0.931 . S
H188 C181 0.930 . S
H189 C203 0.930 . S
H190 C182 0.930 . S
H191 C209 0.930 . S
H192 C200 0.930 . S
H193 C207 0.931 . S
H194 C171 0.929 . S
H195 C201 0.930 . S
H196 C234 0.930 . S
H197 C178 0.930 . S
H198 C233 0.929 . S
N199 Tb168 2.660 . S
N199 C200 1.305 . S
N199 C204 1.360 . S
C200 H192 0.930 . S
C200 N199 1.305 . S
C200 C203 1.407 . S
C201 H195 0.930 . S
C201 C202 1.410 . S
C201 C203 1.345 . S
C202 C201 1.410 . S
C202 C204 1.417 . S
C202 C234 1.432 . S
C203 H189 0.930 . S
C203 C200 1.407 . S
C203 C201 1.345 . S
C204 N199 1.360 . S
C204 C202 1.417 . S
C204 C208 1.432 . S
H205 C210 0.930 . S
N206 Tb168 2.600 . S
N206 C208 1.359 . S
N206 C209 1.327 . S
C207 H193 0.931 . S
C207 C209 1.392 . S
C207 C210 1.370 . S
C208 C204 1.432 . S
C208 N206 1.359 . S
C208 C211 1.414 . S
C209 H191 0.930 . S
C209 N206 1.327 . S
C209 C207 1.392 . S
C210 H205 0.930 . S
C210 C207 1.370 . S
C210 C211 1.385 . S
C211 C208 1.414 . S
C211 C210 1.385 . S
C211 C233 1.444 . S
O212 Tb168 2.546 . S
O212 C232 1.251 . S
O213 Tb168 2.610 . S
O213 Tb179 2.362 . S
O213 C224 1.283 . S
O214 Tb179 2.421 . S
O214 C231 1.262 . S
O215 Tb168 2.320 . S
O215 C231 1.260 . S
O216 Tb168 2.552 . S
O216 C224 1.243 . S
O217 Tb168 2.413 . S
O217 C232 1.256 . S
O218 Tb179 2.546 . S
O218 C243 1.251 . S
O219 Tb168 2.362 . S
O219 Tb179 2.610 . S
O219 C235 1.283 . S
O220 Tb168 2.421 . S
O220 C242 1.262 . S
O221 Tb179 2.320 . S
O221 C242 1.260 . S
O222 Tb179 2.552 . S
O222 C235 1.243 . S
O223 Tb179 2.413 . S
O223 C243 1.256 . S
C224 O213 1.283 . S
C224 O216 1.243 . S
C225 C227 1.382 . S
C225 C229 1.393 . S
C225 C232 1.500 . S
C226 C227 1.400 . S
C226 C228 1.384 . S
C227 C225 1.382 . S
C227 C226 1.400 . S
C227 H244 0.930 . S
C228 C226 1.384 . S
C228 C230 1.392 . S
C228 H245 0.931 . S
C229 C225 1.393 . S
C229 C230 1.401 . S
C229 H246 0.930 . S
C230 C228 1.392 . S
C230 C229 1.401 . S
C230 H247 0.930 . S
C231 O214 1.262 . S
C231 O215 1.260 . S
C232 Tb168 2.833 . S
C232 O212 1.251 . S
C232 O217 1.256 . S
C232 C225 1.500 . S
C233 H198 0.929 . S
C233 C211 1.444 . S
C233 C234 1.317 . S
C234 H196 0.930 . S
C234 C202 1.432 . S
C234 C233 1.317 . S
C235 O219 1.283 . S
C235 O222 1.243 . S
C236 C237 1.382 . S
C236 C240 1.393 . S
C236 C243 1.500 . S
C237 C236 1.382 . S
C237 C238 1.400 . S
C237 H248 0.930 . S
C238 C237 1.400 . S
C238 C239 1.384 . S
C239 C238 1.384 . S
C239 C241 1.392 . S
C239 H249 0.931 . S
C240 C236 1.393 . S
C240 C241 1.401 . S
C240 H250 0.930 . S
C241 C239 1.392 . S
C241 C240 1.401 . S
C241 H251 0.930 . S
C242 O220 1.262 . S
C242 O221 1.260 . S
C243 Tb179 2.833 . S
C243 O218 1.251 . S
C243 O223 1.256 . S
C243 C236 1.500 . S
H244 C227 0.930 . S
H245 C228 0.931 . S
H246 C229 0.930 . S
H247 C230 0.930 . S
H248 C237 0.930 . S
H249 C239 0.931 . S
H250 C240 0.930 . S
H251 C241 0.930 . S
Tb252 N283 2.660 . S
Tb252 N290 2.600 . S
Tb252 O296 2.546 . S
Tb252 O297 2.610 . S
Tb252 O299 2.320 . S
Tb252 O300 2.552 . S
Tb252 O301 2.413 . S
Tb252 O303 2.362 1_556 S
Tb252 O304 2.425 . S
Tb252 C316 2.833 . S
C253 C256 1.432 . S
C253 C257 1.414 . S
C253 N260 1.359 . S
C254 C256 1.417 . S
C254 C258 1.432 . S
C254 C266 1.410 . S
C255 C257 1.444 . S
C255 C258 1.317 . S
C255 H278 0.929 . S
C256 C253 1.432 . S
C256 C254 1.417 . S
C256 N264 1.360 . S
C257 C253 1.414 . S
C257 C255 1.444 . S
C257 C262 1.385 . S
C258 C254 1.432 . S
C258 C255 1.317 . S
C258 H270 0.930 . S
C259 C261 1.392 . S
C259 C262 1.370 . S
C259 H271 0.931 . S
N260 C253 1.359 . S
N260 C261 1.327 . S
N260 Tb263 2.600 . S
C261 C259 1.392 . S
C261 N260 1.327 . S
C261 H268 0.930 . S
C262 C257 1.385 . S
C262 C259 1.370 . S
C262 H281 0.930 . S
Tb263 N260 2.600 . S
Tb263 N264 2.660 . S
Tb263 O297 2.362 1_554 S
Tb263 O298 2.421 . S
Tb263 O302 2.546 . S
Tb263 O303 2.610 . S
Tb263 O305 2.320 . S
Tb263 O306 2.552 . S
Tb263 O307 2.413 . S
Tb263 C327 2.833 . S
N264 C256 1.360 . S
N264 Tb263 2.660 . S
N264 C265 1.305 . S
C265 N264 1.305 . S
C265 C267 1.407 . S
C265 H272 0.930 . S
C266 C254 1.410 . S
C266 C267 1.345 . S
C266 H274 0.930 . S
C267 C265 1.407 . S
C267 C266 1.345 . S
C267 H269 0.930 . S
H268 C261 0.930 . S
H269 C267 0.930 . S
H270 C258 0.930 . S
H271 C259 0.931 . S
H272 C265 0.930 . S
H273 C287 0.930 . S
H274 C266 0.930 . S
H275 C293 0.930 . S
H276 C284 0.930 . S
H277 C291 0.931 . S
H278 C255 0.929 . S
H279 C285 0.930 . S
H280 C318 0.930 . S
H281 C262 0.930 . S
H282 C317 0.929 . S
N283 Tb252 2.660 . S
N283 C284 1.305 . S
N283 C288 1.360 . S
C284 H276 0.930 . S
C284 N283 1.305 . S
C284 C287 1.407 . S
C285 H279 0.930 . S
C285 C286 1.410 . S
C285 C287 1.345 . S
C286 C285 1.410 . S
C286 C288 1.417 . S
C286 C318 1.432 . S
C287 H273 0.930 . S
C287 C284 1.407 . S
C287 C285 1.345 . S
C288 N283 1.360 . S
C288 C286 1.417 . S
C288 C292 1.432 . S
H289 C294 0.930 . S
N290 Tb252 2.600 . S
N290 C292 1.359 . S
N290 C293 1.327 . S
C291 H277 0.931 . S
C291 C293 1.392 . S
C291 C294 1.370 . S
C292 C288 1.432 . S
C292 N290 1.359 . S
C292 C295 1.414 . S
C293 H275 0.930 . S
C293 N290 1.327 . S
C293 C291 1.392 . S
C294 H289 0.930 . S
C294 C291 1.370 . S
C294 C295 1.385 . S
C295 C292 1.414 . S
C295 C294 1.385 . S
C295 C317 1.444 . S
O296 Tb252 2.546 . S
O296 C316 1.251 . S
O297 Tb252 2.610 . S
O297 Tb263 2.362 1_556 S
O297 C308 1.283 . S
O298 Tb263 2.421 . S
O298 C315 1.262 1_554 S
O299 Tb252 2.320 . S
O299 C315 1.260 . S
O300 Tb252 2.552 . S
O300 C308 1.243 . S
O301 Tb252 2.413 . S
O301 C316 1.256 . S
O302 Tb263 2.546 . S
O302 C327 1.251 . S
O303 Tb252 2.362 1_554 S
O303 Tb263 2.610 . S
O303 C319 1.283 . S
O304 Tb252 2.425 . S
O304 C326 1.256 1_556 S
O305 Tb263 2.320 . S
O305 C326 1.260 . S
O306 Tb263 2.552 . S
O306 C319 1.243 . S
O307 Tb263 2.413 . S
O307 C327 1.256 . S
C308 O297 1.283 . S
C308 O300 1.243 . S
C309 C311 1.382 . S
C309 C313 1.393 . S
C309 C316 1.500 . S
C310 C311 1.400 . S
C310 C312 1.384 . S
C311 C309 1.382 . S
C311 C310 1.400 . S
C311 H328 0.930 . S
C312 C310 1.384 . S
C312 C314 1.392 . S
C312 H329 0.931 . S
C313 C309 1.393 . S
C313 C314 1.401 . S
C313 H330 0.930 . S
C314 C312 1.392 . S
C314 C313 1.401 . S
C314 H331 0.930 . S
C315 O298 1.262 1_556 S
C315 O299 1.260 . S
C316 Tb252 2.833 . S
C316 O296 1.251 . S
C316 O301 1.256 . S
C316 C309 1.500 . S
C317 H282 0.929 . S
C317 C295 1.444 . S
C317 C318 1.317 . S
C318 H280 0.930 . S
C318 C286 1.432 . S
C318 C317 1.317 . S
C319 O303 1.283 . S
C319 O306 1.243 . S
C320 C321 1.382 . S
C320 C324 1.393 . S
C320 C327 1.500 . S
C321 C320 1.382 . S
C321 C322 1.400 . S
C321 H332 0.930 . S
C322 C321 1.400 . S
C322 C323 1.384 . S
C323 C322 1.384 . S
C323 C325 1.392 . S
C323 H333 0.931 . S
C324 C320 1.393 . S
C324 C325 1.401 . S
C324 H334 0.930 . S
C325 C323 1.392 . S
C325 C324 1.401 . S
C325 H335 0.930 . S
C326 O304 1.256 1_554 S
C326 O305 1.260 . S
C327 Tb263 2.833 . S
C327 O302 1.251 . S
C327 O307 1.256 . S
C327 C320 1.500 . S
H328 C311 0.930 . S
H329 C312 0.931 . S
H330 C313 0.930 . S
H331 C314 0.930 . S
H332 C321 0.930 . S
H333 C323 0.931 . S
H334 C324 0.930 . S
H335 C325 0.930 . S
Tb336 N367 2.660 . S
Tb336 N374 2.600 . S
Tb336 O380 2.546 . S
Tb336 O381 2.610 . S
Tb336 O383 2.320 . S
Tb336 O384 2.552 . S
Tb336 O385 2.413 . S
Tb336 O387 2.362 . S
Tb336 O388 2.421 . S
Tb336 C400 2.833 . S
C337 C340 1.432 . S
C337 C341 1.414 . S
C337 N344 1.359 . S
C338 C340 1.417 . S
C338 C342 1.432 . S
C338 C350 1.410 . S
C339 C341 1.444 . S
C339 C342 1.317 . S
C339 H362 0.929 . S
C340 C337 1.432 . S
C340 C338 1.417 . S
C340 N348 1.360 . S
C341 C337 1.414 . S
C341 C339 1.444 . S
C341 C346 1.385 . S
C342 C338 1.432 . S
C342 C339 1.317 . S
C342 H354 0.930 . S
C343 C345 1.392 . S
C343 C346 1.370 . S
C343 H355 0.931 . S
N344 C337 1.359 . S
N344 C345 1.327 . S
N344 Tb347 2.600 . S
C345 C343 1.392 . S
C345 N344 1.327 . S
C345 H352 0.930 . S
C346 C341 1.385 . S
C346 C343 1.370 . S
C346 H365 0.930 . S
Tb347 N344 2.600 . S
Tb347 N348 2.660 . S
Tb347 O381 2.362 . S
Tb347 O382 2.421 . S
Tb347 O386 2.546 . S
Tb347 O387 2.610 . S
Tb347 O389 2.320 . S
Tb347 O390 2.552 . S
Tb347 O391 2.413 . S
Tb347 C411 2.833 . S
N348 C340 1.360 . S
N348 Tb347 2.660 . S
N348 C349 1.305 . S
C349 N348 1.305 . S
C349 C351 1.407 . S
C349 H356 0.930 . S
C350 C338 1.410 . S
C350 C351 1.345 . S
C350 H358 0.930 . S
C351 C349 1.407 . S
C351 C350 1.345 . S
C351 H353 0.930 . S
H352 C345 0.930 . S
H353 C351 0.930 . S
H354 C342 0.930 . S
H355 C343 0.931 . S
H356 C349 0.930 . S
H357 C371 0.930 . S
H358 C350 0.930 . S
H359 C377 0.930 . S
H360 C368 0.930 . S
H361 C375 0.931 . S
H362 C339 0.929 . S
H363 C369 0.930 . S
H364 C402 0.930 . S
H365 C346 0.930 . S
H366 C401 0.929 . S
N367 Tb336 2.660 . S
N367 C368 1.305 . S
N367 C372 1.360 . S
C368 H360 0.930 . S
C368 N367 1.305 . S
C368 C371 1.407 . S
C369 H363 0.930 . S
C369 C370 1.410 . S
C369 C371 1.345 . S
C370 C369 1.410 . S
C370 C372 1.417 . S
C370 C402 1.432 . S
C371 H357 0.930 . S
C371 C368 1.407 . S
C371 C369 1.345 . S
C372 N367 1.360 . S
C372 C370 1.417 . S
C372 C376 1.432 . S
H373 C378 0.930 . S
N374 Tb336 2.600 . S
N374 C376 1.359 . S
N374 C377 1.327 . S
C375 H361 0.931 . S
C375 C377 1.392 . S
C375 C378 1.370 . S
C376 C372 1.432 . S
C376 N374 1.359 . S
C376 C379 1.414 . S
C377 H359 0.930 . S
C377 N374 1.327 . S
C377 C375 1.392 . S
C378 H373 0.930 . S
C378 C375 1.370 . S
C378 C379 1.385 . S
C379 C376 1.414 . S
C379 C378 1.385 . S
C379 C401 1.444 . S
O380 Tb336 2.546 . S
O380 C400 1.251 . S
O381 Tb336 2.610 . S
O381 Tb347 2.362 . S
O381 C392 1.283 . S
O382 Tb347 2.421 . S
O382 C399 1.262 . S
O383 Tb336 2.320 . S
O383 C399 1.260 . S
O384 Tb336 2.552 . S
O384 C392 1.243 . S
O385 Tb336 2.413 . S
O385 C400 1.256 . S
O386 Tb347 2.546 . S
O386 C411 1.251 . S
O387 Tb336 2.362 . S
O387 Tb347 2.610 . S
O387 C403 1.283 . S
O388 Tb336 2.421 . S
O388 C410 1.262 . S
O389 Tb347 2.320 . S
O389 C410 1.260 . S
O390 Tb347 2.552 . S
O390 C403 1.243 . S
O391 Tb347 2.413 . S
O391 C411 1.256 . S
C392 O381 1.283 . S
C392 O384 1.243 . S
C393 C395 1.382 . S
C393 C397 1.393 . S
C393 C400 1.500 . S
C394 C395 1.400 . S
C394 C396 1.384 . S
C395 C393 1.382 . S
C395 C394 1.400 . S
C395 H412 0.930 . S
C396 C394 1.384 . S
C396 C398 1.392 . S
C396 H413 0.931 . S
C397 C393 1.393 . S
C397 C398 1.401 . S
C397 H414 0.930 . S
C398 C396 1.392 . S
C398 C397 1.401 . S
C398 H415 0.930 . S
C399 O382 1.262 . S
C399 O383 1.260 . S
C400 Tb336 2.833 . S
C400 O380 1.251 . S
C400 O385 1.256 . S
C400 C393 1.500 . S
C401 H366 0.929 . S
C401 C379 1.444 . S
C401 C402 1.317 . S
C402 H364 0.930 . S
C402 C370 1.432 . S
C402 C401 1.317 . S
C403 O387 1.283 . S
C403 O390 1.243 . S
C404 C405 1.382 . S
C404 C408 1.393 . S
C404 C411 1.500 . S
C405 C404 1.382 . S
C405 C406 1.400 . S
C405 H416 0.930 . S
C406 C405 1.400 . S
C406 C407 1.384 . S
C407 C406 1.384 . S
C407 C409 1.392 . S
C407 H417 0.931 . S
C408 C404 1.393 . S
C408 C409 1.401 . S
C408 H418 0.930 . S
C409 C407 1.392 . S
C409 C408 1.401 . S
C409 H419 0.930 . S
C410 O388 1.262 . S
C410 O389 1.260 . S
C411 Tb347 2.833 . S
C411 O386 1.251 . S
C411 O391 1.256 . S
C411 C404 1.500 . S
H412 C395 0.930 . S
H413 C396 0.931 . S
H414 C397 0.930 . S
H415 C398 0.930 . S
H416 C405 0.930 . S
H417 C407 0.931 . S
H418 C408 0.930 . S
H419 C409 0.930 . S
Tb420 N451 2.660 . S
Tb420 N458 2.600 . S
Tb420 O464 2.546 . S
Tb420 O465 2.610 . S
Tb420 O467 2.320 . S
Tb420 O468 2.552 . S
Tb420 O469 2.413 . S
Tb420 O471 2.362 . S
Tb420 O472 2.421 . S
Tb420 C484 2.833 . S
C421 C424 1.432 . S
C421 C425 1.414 . S
C421 N428 1.359 . S
C422 C424 1.417 . S
C422 C426 1.432 . S
C422 C434 1.410 . S
C423 C425 1.444 . S
C423 C426 1.317 . S
C423 H446 0.929 . S
C424 C421 1.432 . S
C424 C422 1.417 . S
C424 N432 1.360 . S
C425 C421 1.414 . S
C425 C423 1.444 . S
C425 C430 1.385 . S
C426 C422 1.432 . S
C426 C423 1.317 . S
C426 H438 0.930 . S
C427 C429 1.392 . S
C427 C430 1.370 . S
C427 H439 0.931 . S
N428 C421 1.359 . S
N428 C429 1.327 . S
N428 Tb431 2.600 . S
C429 C427 1.392 . S
C429 N428 1.327 . S
C429 H436 0.930 . S
C430 C425 1.385 . S
C430 C427 1.370 . S
C430 H449 0.930 . S
Tb431 N428 2.600 . S
Tb431 N432 2.660 . S
Tb431 O465 2.362 . S
Tb431 O466 2.421 . S
Tb431 O470 2.546 . S
Tb431 O471 2.610 . S
Tb431 O473 2.320 . S
Tb431 O474 2.552 . S
Tb431 O475 2.413 . S
Tb431 C495 2.833 . S
N432 C424 1.360 . S
N432 Tb431 2.660 . S
N432 C433 1.305 . S
C433 N432 1.305 . S
C433 C435 1.407 . S
C433 H440 0.930 . S
C434 C422 1.410 . S
C434 C435 1.345 . S
C434 H442 0.930 . S
C435 C433 1.407 . S
C435 C434 1.345 . S
C435 H437 0.930 . S
H436 C429 0.930 . S
H437 C435 0.930 . S
H438 C426 0.930 . S
H439 C427 0.931 . S
H440 C433 0.930 . S
H441 C455 0.930 . S
H442 C434 0.930 . S
H443 C461 0.930 . S
H444 C452 0.930 . S
H445 C459 0.931 . S
H446 C423 0.929 . S
H447 C453 0.930 . S
H448 C486 0.930 . S
H449 C430 0.930 . S
H450 C485 0.929 . S
N451 Tb420 2.660 . S
N451 C452 1.305 . S
N451 C456 1.360 . S
C452 H444 0.930 . S
C452 N451 1.305 . S
C452 C455 1.407 . S
C453 H447 0.930 . S
C453 C454 1.410 . S
C453 C455 1.345 . S
C454 C453 1.410 . S
C454 C456 1.417 . S
C454 C486 1.432 . S
C455 H441 0.930 . S
C455 C452 1.407 . S
C455 C453 1.345 . S
C456 N451 1.360 . S
C456 C454 1.417 . S
C456 C460 1.432 . S
H457 C462 0.930 . S
N458 Tb420 2.600 . S
N458 C460 1.359 . S
N458 C461 1.327 . S
C459 H445 0.931 . S
C459 C461 1.392 . S
C459 C462 1.370 . S
C460 C456 1.432 . S
C460 N458 1.359 . S
C460 C463 1.414 . S
C461 H443 0.930 . S
C461 N458 1.327 . S
C461 C459 1.392 . S
C462 H457 0.930 . S
C462 C459 1.370 . S
C462 C463 1.385 . S
C463 C460 1.414 . S
C463 C462 1.385 . S
C463 C485 1.444 . S
O464 Tb420 2.546 . S
O464 C484 1.251 . S
O465 Tb420 2.610 . S
O465 Tb431 2.362 . S
O465 C476 1.283 . S
O466 Tb431 2.421 . S
O466 C483 1.262 . S
O467 Tb420 2.320 . S
O467 C483 1.260 . S
O468 Tb420 2.552 . S
O468 C476 1.243 . S
O469 Tb420 2.413 . S
O469 C484 1.256 . S
O470 Tb431 2.546 . S
O470 C495 1.251 . S
O471 Tb420 2.362 . S
O471 Tb431 2.610 . S
O471 C487 1.283 . S
O472 Tb420 2.421 . S
O472 C494 1.262 . S
O473 Tb431 2.320 . S
O473 C494 1.260 . S
O474 Tb431 2.552 . S
O474 C487 1.243 . S
O475 Tb431 2.413 . S
O475 C495 1.256 . S
C476 O465 1.283 . S
C476 O468 1.243 . S
C477 C479 1.382 . S
C477 C481 1.393 . S
C477 C484 1.500 . S
C478 C479 1.400 . S
C478 C480 1.384 . S
C479 C477 1.382 . S
C479 C478 1.400 . S
C479 H496 0.930 . S
C480 C478 1.384 . S
C480 C482 1.392 . S
C480 H497 0.931 . S
C481 C477 1.393 . S
C481 C482 1.401 . S
C481 H498 0.930 . S
C482 C480 1.392 . S
C482 C481 1.401 . S
C482 H499 0.930 . S
C483 O466 1.262 . S
C483 O467 1.260 . S
C484 Tb420 2.833 . S
C484 O464 1.251 . S
C484 O469 1.256 . S
C484 C477 1.500 . S
C485 H450 0.929 . S
C485 C463 1.444 . S
C485 C486 1.317 . S
C486 H448 0.930 . S
C486 C454 1.432 . S
C486 C485 1.317 . S
C487 O471 1.283 . S
C487 O474 1.243 . S
C488 C489 1.382 . S
C488 C492 1.393 . S
C488 C495 1.500 . S
C489 C488 1.382 . S
C489 C490 1.400 . S
C489 H500 0.930 . S
C490 C489 1.400 . S
C490 C491 1.384 . S
C491 C490 1.384 . S
C491 C493 1.392 . S
C491 H501 0.931 . S
C492 C488 1.393 . S
C492 C493 1.401 . S
C492 H502 0.930 . S
C493 C491 1.392 . S
C493 C492 1.401 . S
C493 H503 0.930 . S
C494 O472 1.262 . S
C494 O473 1.260 . S
C495 Tb431 2.833 . S
C495 O470 1.251 . S
C495 O475 1.256 . S
C495 C488 1.500 . S
H496 C479 0.930 . S
H497 C480 0.931 . S
H498 C481 0.930 . S
H499 C482 0.930 . S
H500 C489 0.930 . S
H501 C491 0.931 . S
H502 C492 0.930 . S
H503 C493 0.930 . S
C504 C505 1.349 . S
C504 C506 1.327 . S
C504 H529 0.950 . S
C505 C504 1.349 . S
C505 C521 1.349 . S
C506 C504 1.327 . S
C506 C525 1.429 . S
C506 H530 0.950 . S
C507 C524 1.574 . S
C507 C526 1.368 . S
C507 H531 0.949 . S
H508 C512 0.949 . S
C509 C510 1.349 . S
C509 C511 1.327 . S
C509 H532 0.950 . S
C510 C509 1.349 . S
C510 C522 1.349 . S
C511 C509 1.327 . S
C511 C527 1.429 . S
C511 H533 0.950 . S
C512 H508 0.949 . S
C512 C520 1.574 . S
C512 C528 1.368 . S
H513 C521 0.950 . S
H514 C519 0.950 . S
H515 C520 0.949 . S
H516 C522 0.950 . S
H517 C523 0.950 . S
H518 C524 0.949 . S
C519 H514 0.950 . S
C519 C521 1.327 . S
C519 C525 1.429 . S
C520 C512 1.574 . S
C520 H515 0.949 . S
C520 C526 1.368 . S
C521 C505 1.349 . S
C521 H513 0.950 . S
C521 C519 1.327 . S
C522 C510 1.349 . S
C522 H516 0.950 . S
C522 C523 1.327 . S
C523 H517 0.950 . S
C523 C522 1.327 . S
C523 C527 1.429 . S
C524 C507 1.574 . S
C524 H518 0.949 . S
C524 C528 1.368 . S
C525 C506 1.429 . S
C525 C519 1.429 . S
C525 C526 1.523 . S
C526 C507 1.368 . S
C526 C520 1.368 . S
C526 C525 1.523 . S
C527 C511 1.429 . S
C527 C523 1.429 . S
C527 C528 1.523 . S
C528 C512 1.368 . S
C528 C524 1.368 . S
C528 C527 1.523 . S
H529 C504 0.950 . S
H530 C506 0.950 . S
H531 C507 0.949 . S
H532 C509 0.950 . S
H533 C511 0.950 . S
C534 C535 1.349 . S
C534 C536 1.327 . S
C534 H559 0.950 . S
C535 C534 1.349 . S
C535 C551 1.349 . S
C536 C534 1.327 . S
C536 C555 1.429 . S
C536 H560 0.950 . S
C537 C554 1.574 . S
C537 C556 1.368 1_655 S
C537 H561 0.949 . S
H538 C542 0.949 . S
C539 C540 1.349 . S
C539 C541 1.327 . S
C539 H562 0.950 . S
C540 C539 1.349 . S
C540 C552 1.349 . S
C541 C539 1.327 . S
C541 C557 1.429 . S
C541 H563 0.950 . S
C542 H538 0.949 . S
C542 C550 1.574 1_655 S
C542 C558 1.368 . S
H543 C551 0.950 . S
H544 C549 0.950 . S
H545 C550 0.949 . S
H546 C552 0.950 . S
H547 C553 0.950 . S
H548 C554 0.949 . S
C549 H544 0.950 . S
C549 C551 1.327 . S
C549 C555 1.429 . S
C550 C542 1.574 1_455 S
C550 H545 0.949 . S
C550 C556 1.368 . S
C551 C535 1.349 . S
C551 H543 0.950 . S
C551 C549 1.327 . S
C552 C540 1.349 . S
C552 H546 0.950 . S
C552 C553 1.327 . S
C553 H547 0.950 . S
C553 C552 1.327 . S
C553 C557 1.429 . S
C554 C537 1.574 . S
C554 H548 0.949 . S
C554 C558 1.368 . S
C555 C536 1.429 . S
C555 C549 1.429 . S
C555 C556 1.523 . S
C556 C537 1.368 1_455 S
C556 C550 1.368 . S
C556 C555 1.523 . S
C557 C541 1.429 . S
C557 C553 1.429 . S
C557 C558 1.523 . S
C558 C542 1.368 . S
C558 C554 1.368 . S
C558 C557 1.523 . S
H559 C534 0.950 . S
H560 C536 0.950 . S
H561 C537 0.949 . S
H562 C539 0.950 . S
H563 C541 0.950 . S
C564 C565 1.349 . S
C564 C566 1.327 . S
C564 H589 0.950 . S
C565 C564 1.349 . S
C565 C581 1.349 . S
C566 C564 1.327 . S
C566 C585 1.429 . S
C566 H590 0.950 . S
C567 C584 1.574 1_545 S
C567 C586 1.368 . S
C567 H591 0.949 . S
H568 C572 0.949 . S
C569 C570 1.349 . S
C569 C571 1.327 . S
C569 H592 0.950 . S
C570 C569 1.349 . S
C570 C582 1.349 . S
C571 C569 1.327 . S
C571 C587 1.429 . S
C571 H593 0.950 . S
C572 H568 0.949 . S
C572 C580 1.574 1_565 S
C572 C588 1.368 . S
H573 C581 0.950 . S
H574 C579 0.950 . S
H575 C580 0.949 . S
H576 C582 0.950 . S
H577 C583 0.950 . S
H578 C584 0.949 . S
C579 H574 0.950 . S
C579 C581 1.327 . S
C579 C585 1.429 . S
C580 C572 1.574 1_545 S
C580 H575 0.949 . S
C580 C586 1.368 . S
C581 C565 1.349 . S
C581 H573 0.950 . S
C581 C579 1.327 . S
C582 C570 1.349 . S
C582 H576 0.950 . S
C582 C583 1.327 . S
C583 H577 0.950 . S
C583 C582 1.327 . S
C583 C587 1.429 . S
C584 C567 1.574 1_565 S
C584 H578 0.949 . S
C584 C588 1.368 . S
C585 C566 1.429 . S
C585 C579 1.429 . S
C585 C586 1.523 . S
C586 C567 1.368 . S
C586 C580 1.368 . S
C586 C585 1.523 . S
C587 C571 1.429 . S
C587 C583 1.429 . S
C587 C588 1.523 . S
C588 C572 1.368 . S
C588 C584 1.368 . S
C588 C587 1.523 . S
H589 C564 0.950 . S
H590 C566 0.950 . S
H591 C567 0.949 . S
H592 C569 0.950 . S
H593 C571 0.950 . S
C594 C595 1.349 . S
C594 C596 1.327 . S
C594 H619 0.950 . S
C595 C594 1.349 . S
C595 C611 1.349 . S
C596 C594 1.327 . S
C596 C615 1.429 . S
C596 H620 0.950 . S
C597 C614 1.574 . S
C597 C616 1.368 . S
C597 H621 0.949 . S
H598 C602 0.949 . S
C599 C600 1.349 . S
C599 C601 1.327 . S
C599 H622 0.950 . S
C600 C599 1.349 . S
C600 C612 1.349 . S
C601 C599 1.327 . S
C601 C617 1.429 . S
C601 H623 0.950 . S
C602 H598 0.949 . S
C602 C610 1.574 . S
C602 C618 1.368 . S
H603 C611 0.950 . S
H604 C609 0.950 . S
H605 C610 0.949 . S
H606 C612 0.950 . S
H607 C613 0.950 . S
H608 C614 0.949 . S
C609 H604 0.950 . S
C609 C611 1.327 . S
C609 C615 1.429 . S
C610 C602 1.574 . S
C610 H605 0.949 . S
C610 C616 1.368 . S
C611 C595 1.349 . S
C611 H603 0.950 . S
C611 C609 1.327 . S
C612 C600 1.349 . S
C612 H606 0.950 . S
C612 C613 1.327 . S
C613 H607 0.950 . S
C613 C612 1.327 . S
C613 C617 1.429 . S
C614 C597 1.574 . S
C614 H608 0.949 . S
C614 C618 1.368 . S
C615 C596 1.429 . S
C615 C609 1.429 . S
C615 C616 1.523 . S
C616 C597 1.368 . S
C616 C610 1.368 . S
C616 C615 1.523 . S
C617 C601 1.429 . S
C617 C613 1.429 . S
C617 C618 1.523 . S
C618 C602 1.368 . S
C618 C614 1.368 . S
C618 C617 1.523 . S
H619 C594 0.950 . S
H620 C596 0.950 . S
H621 C597 0.949 . S
H622 C599 0.950 . S
H623 C601 0.950 . S
C624 C625 1.349 . S
C624 C626 1.327 . S
C624 H649 0.950 . S
C625 C624 1.349 . S
C625 C641 1.349 . S
C626 C624 1.327 . S
C626 C645 1.429 . S
C626 H650 0.950 . S
C627 C644 1.574 1_455 S
C627 C646 1.368 . S
C627 H651 0.949 . S
H628 C632 0.949 . S
C629 C630 1.349 . S
C629 C631 1.327 . S
C629 H652 0.950 . S
C630 C629 1.349 . S
C630 C642 1.349 . S
C631 C629 1.327 . S
C631 C647 1.429 . S
C631 H653 0.950 . S
C632 H628 0.949 . S
C632 C640 1.574 1_655 S
C632 C648 1.368 . S
H633 C641 0.950 . S
H634 C639 0.950 . S
H635 C640 0.949 . S
H636 C642 0.950 . S
H637 C643 0.950 . S
H638 C644 0.949 . S
C639 H634 0.950 . S
C639 C641 1.327 . S
C639 C645 1.429 . S
C640 C632 1.574 1_455 S
C640 H635 0.949 . S
C640 C646 1.368 . S
C641 C625 1.349 . S
C641 H633 0.950 . S
C641 C639 1.327 . S
C642 C630 1.349 . S
C642 H636 0.950 . S
C642 C643 1.327 . S
C643 H637 0.950 . S
C643 C642 1.327 . S
C643 C647 1.429 . S
C644 C627 1.574 1_655 S
C644 H638 0.949 . S
C644 C648 1.368 . S
C645 C626 1.429 . S
C645 C639 1.429 . S
C645 C646 1.523 . S
C646 C627 1.368 . S
C646 C640 1.368 . S
C646 C645 1.523 . S
C647 C631 1.429 . S
C647 C643 1.429 . S
C647 C648 1.523 . S
C648 C632 1.368 . S
C648 C644 1.368 . S
C648 C647 1.523 . S
H649 C624 0.950 . S
H650 C626 0.950 . S
H651 C627 0.949 . S
H652 C629 0.950 . S
H653 C631 0.950 . S
C654 C655 1.349 . S
C654 C656 1.327 . S
C654 H679 0.950 . S
C655 C654 1.349 . S
C655 C671 1.349 . S
C656 C654 1.327 . S
C656 C675 1.429 . S
C656 H680 0.950 . S
C657 C674 1.574 1_545 S
C657 C676 1.368 . S
C657 H681 0.949 . S
H658 C662 0.947 1_565 S
C659 C660 1.349 . S
C659 C661 1.327 . S
C659 H682 0.950 . S
C660 C659 1.349 . S
C660 C672 1.349 . S
C661 C659 1.327 . S
C661 C677 1.429 . S
C661 H683 0.950 . S
C662 H658 0.947 1_545 S
C662 C670 1.579 . S
C662 C678 1.366 1_545 S
H663 C671 0.950 . S
H664 C669 0.950 . S
H665 C670 0.949 . S
H666 C672 0.950 . S
H667 C673 0.950 . S
H668 C674 0.949 . S
C669 H664 0.950 . S
C669 C671 1.327 . S
C669 C675 1.429 . S
C670 C662 1.579 . S
C670 H665 0.949 . S
C670 C676 1.368 . S
C671 C655 1.349 . S
C671 H663 0.950 . S
C671 C669 1.327 . S
C672 C660 1.349 . S
C672 H666 0.950 . S
C672 C673 1.327 . S
C673 H667 0.950 . S
C673 C672 1.327 . S
C673 C677 1.429 . S
C674 C657 1.574 1_565 S
C674 H668 0.949 . S
C674 C678 1.368 . S
C675 C656 1.429 . S
C675 C669 1.429 . S
C675 C676 1.523 . S
C676 C657 1.368 . S
C676 C670 1.368 . S
C676 C675 1.523 . S
C677 C661 1.429 . S
C677 C673 1.429 . S
C677 C678 1.523 . S
C678 C662 1.366 1_565 S
C678 C674 1.368 . S
C678 C677 1.523 . S
H679 C654 0.950 . S
H680 C656 0.950 . S
H681 C657 0.949 . S
H682 C659 0.950 . S
H683 C661 0.950 . S
C684 C685 1.349 . S
C684 C686 1.327 . S
C684 H709 0.950 . S
C685 C684 1.349 . S
C685 C701 1.349 . S
C686 C684 1.327 . S
C686 C705 1.429 . S
C686 H710 0.950 . S
C687 C704 1.574 . S
C687 C706 1.368 . S
C687 H711 0.949 . S
H688 C692 0.949 . S
C689 C690 1.349 . S
C689 C691 1.327 . S
C689 H712 0.950 . S
C690 C689 1.349 . S
C690 C702 1.349 . S
C691 C689 1.327 . S
C691 C707 1.429 . S
C691 H713 0.950 . S
C692 H688 0.949 . S
C692 C700 1.574 . S
C692 C708 1.368 . S
H693 C701 0.950 . S
H694 C699 0.950 . S
H695 C700 0.949 . S
H696 C702 0.950 . S
H697 C703 0.950 . S
H698 C704 0.949 . S
C699 H694 0.950 . S
C699 C701 1.327 . S
C699 C705 1.429 . S
C700 C692 1.574 . S
C700 H695 0.949 . S
C700 C706 1.368 . S
C701 C685 1.349 . S
C701 H693 0.950 . S
C701 C699 1.327 . S
C702 C690 1.349 . S
C702 H696 0.950 . S
C702 C703 1.327 . S
C703 H697 0.950 . S
C703 C702 1.327 . S
C703 C707 1.429 . S
C704 C687 1.574 . S
C704 H698 0.949 . S
C704 C708 1.368 . S
C705 C686 1.429 . S
C705 C699 1.429 . S
C705 C706 1.523 . S
C706 C687 1.368 . S
C706 C700 1.368 . S
C706 C705 1.523 . S
C707 C691 1.429 . S
C707 C703 1.429 . S
C707 C708 1.523 . S
C708 C692 1.368 . S
C708 C704 1.368 . S
C708 C707 1.523 . S
H709 C684 0.950 . S
H710 C686 0.950 . S
H711 C687 0.949 . S
H712 C689 0.950 . S
H713 C691 0.950 . S
C714 C715 1.349 1_556 S
C714 C716 1.327 . S
C714 H739 0.950 1_556 S
C715 C714 1.349 1_554 S
C715 C731 1.349 . S
C716 C714 1.327 . S
C716 C735 1.429 . S
C716 H740 0.950 . S
C717 C734 1.574 . S
C717 C736 1.368 . S
C717 H741 0.949 . S
H718 C722 0.949 . S
C719 C720 1.349 . S
C719 C721 1.327 . S
C719 H742 0.950 . S
C720 C719 1.349 . S
C720 C732 1.349 . S
C721 C719 1.327 . S
C721 C737 1.429 . S
C721 H743 0.950 . S
C722 H718 0.949 . S
C722 C730 1.574 . S
C722 C738 1.368 . S
H723 C731 0.950 . S
H724 C729 0.950 . S
H725 C730 0.949 . S
H726 C732 0.950 . S
H727 C733 0.950 . S
H728 C734 0.949 . S
C729 H724 0.950 . S
C729 C731 1.327 1_556 S
C729 C735 1.429 . S
C730 C722 1.574 . S
C730 H725 0.949 . S
C730 C736 1.368 . S
C731 C715 1.349 . S
C731 H723 0.950 . S
C731 C729 1.327 1_554 S
C732 C720 1.349 . S
C732 H726 0.950 . S
C732 C733 1.327 . S
C733 H727 0.950 . S
C733 C732 1.327 . S
C733 C737 1.429 . S
C734 C717 1.574 . S
C734 H728 0.949 . S
C734 C738 1.368 . S
C735 C716 1.429 . S
C735 C729 1.429 . S
C735 C736 1.523 . S
C736 C717 1.368 . S
C736 C730 1.368 . S
C736 C735 1.523 . S
C737 C721 1.429 . S
C737 C733 1.429 . S
C737 C738 1.523 . S
C738 C722 1.368 . S
C738 C734 1.368 . S
C738 C737 1.523 . S
H739 C714 0.950 1_554 S
H740 C716 0.950 . S
H741 C717 0.949 . S
H742 C719 0.950 . S
H743 C721 0.950 . S
C744 C745 1.349 . S
C744 C746 1.327 . S
C744 H769 0.950 . S
C745 C744 1.349 . S
C745 C761 1.349 . S
C746 C744 1.327 . S
C746 C765 1.429 . S
C746 H770 0.950 . S
C747 C764 1.574 . S
C747 C766 1.368 . S
C747 H771 0.949 . S
H748 C752 0.949 . S
C749 C750 1.349 1_554 S
C749 C751 1.327 . S
C749 H772 0.950 1_554 S
C750 C749 1.349 1_556 S
C750 C762 1.349 1_556 S
C751 C749 1.327 . S
C751 C767 1.429 . S
C751 H773 0.950 . S
C752 H748 0.949 . S
C752 C760 1.574 . S
C752 C768 1.368 . S
H753 C761 0.950 . S
H754 C759 0.950 . S
H755 C760 0.949 . S
H756 C762 0.950 1_556 S
H757 C763 0.950 . S
H758 C764 0.949 . S
C759 H754 0.950 . S
C759 C761 1.327 . S
C759 C765 1.429 . S
C760 C752 1.574 . S
C760 H755 0.949 . S
C760 C766 1.368 . S
C761 C745 1.349 . S
C761 H753 0.950 . S
C761 C759 1.327 . S
C762 C750 1.349 1_554 S
C762 H756 0.950 1_554 S
C762 C763 1.327 . S
C763 H757 0.950 . S
C763 C762 1.327 . S
C763 C767 1.429 . S
C764 C747 1.574 . S
C764 H758 0.949 . S
C764 C768 1.368 . S
C765 C746 1.429 . S
C765 C759 1.429 . S
C765 C766 1.523 . S
C766 C747 1.368 . S
C766 C760 1.368 . S
C766 C765 1.523 . S
C767 C751 1.429 . S
C767 C763 1.429 . S
C767 C768 1.523 . S
C768 C752 1.368 . S
C768 C764 1.368 . S
C768 C767 1.523 . S
H769 C744 0.950 . S
H770 C746 0.950 . S
H771 C747 0.949 . S
H772 C749 0.950 1_556 S
H773 C751 0.950 . S
C774 C775 1.349 . S
C774 C776 1.327 . S
C774 H799 0.950 . S
C775 C774 1.349 . S
C775 C791 1.349 . S
C776 C774 1.327 . S
C776 C795 1.429 . S
C776 H800 0.950 . S
C777 C794 1.574 . S
C777 C796 1.368 . S
C777 H801 0.949 . S
H778 C782 0.949 . S
C779 C780 1.349 . S
C779 C781 1.327 . S
C779 H802 0.950 . S
C780 C779 1.349 . S
C780 C792 1.349 . S
C781 C779 1.327 . S
C781 C797 1.429 . S
C781 H803 0.950 . S
C782 H778 0.949 . S
C782 C790 1.574 . S
C782 C798 1.368 . S
H783 C791 0.950 . S
H784 C789 0.950 . S
H785 C790 0.949 . S
H786 C792 0.950 . S
H787 C793 0.950 . S
H788 C794 0.949 . S
C789 H784 0.950 . S
C789 C791 1.327 . S
C789 C795 1.429 . S
C790 C782 1.574 . S
C790 H785 0.949 . S
C790 C796 1.368 . S
C791 C775 1.349 . S
C791 H783 0.950 . S
C791 C789 1.327 . S
C792 C780 1.349 . S
C792 H786 0.950 . S
C792 C793 1.327 . S
C793 H787 0.950 . S
C793 C792 1.327 . S
C793 C797 1.429 . S
C794 C777 1.574 . S
C794 H788 0.949 . S
C794 C798 1.368 . S
C795 C776 1.429 . S
C795 C789 1.429 . S
C795 C796 1.523 . S
C796 C777 1.368 . S
C796 C790 1.368 . S
C796 C795 1.523 . S
C797 C781 1.429 . S
C797 C793 1.429 . S
C797 C798 1.523 . S
C798 C782 1.368 . S
C798 C794 1.368 . S
C798 C797 1.523 . S
H799 C774 0.950 . S
H800 C776 0.950 . S
H801 C777 0.949 . S
H802 C779 0.950 . S
H803 C781 0.950 . S
C804 C805 1.349 . S
C804 C806 1.327 . S
C804 H829 0.950 . S
C805 C804 1.349 . S
C805 C821 1.349 . S
C806 C804 1.327 . S
C806 C825 1.429 . S
C806 H830 0.950 . S
C807 C824 1.574 . S
C807 C826 1.368 . S
C807 H831 0.949 . S
H808 C812 0.949 . S
C809 C810 1.349 1_556 S
C809 C811 1.327 . S
C809 H832 0.950 1_556 S
C810 C809 1.349 1_554 S
C810 C822 1.349 . S
C811 C809 1.327 . S
C811 C827 1.429 . S
C811 H833 0.950 . S
C812 H808 0.949 . S
C812 C820 1.574 . S
C812 C828 1.368 . S
H813 C821 0.950 . S
H814 C819 0.950 . S
H815 C820 0.949 . S
H816 C822 0.950 . S
H817 C823 0.950 . S
H818 C824 0.949 . S
C819 H814 0.950 . S
C819 C821 1.327 . S
C819 C825 1.429 . S
C820 C812 1.574 . S
C820 H815 0.949 . S
C820 C826 1.368 . S
C821 C805 1.349 . S
C821 H813 0.950 . S
C821 C819 1.327 . S
C822 C810 1.349 . S
C822 H816 0.950 . S
C822 C823 1.327 1_554 S
C823 H817 0.950 . S
C823 C822 1.327 1_556 S
C823 C827 1.429 . S
C824 C807 1.574 . S
C824 H818 0.949 . S
C824 C828 1.368 . S
C825 C806 1.429 . S
C825 C819 1.429 . S
C825 C826 1.523 . S
C826 C807 1.368 . S
C826 C820 1.368 . S
C826 C825 1.523 . S
C827 C811 1.429 . S
C827 C823 1.429 . S
C827 C828 1.523 . S
C828 C812 1.368 . S
C828 C824 1.368 . S
C828 C827 1.523 . S
H829 C804 0.950 . S
H830 C806 0.950 . S
H831 C807 0.949 . S
H832 C809 0.950 1_554 S
H833 C811 0.950 . S
C834 C835 1.349 . S
C834 C836 1.327 . S
C834 H859 0.950 . S
C835 C834 1.349 . S
C835 C851 1.349 . S
C836 C834 1.327 . S
C836 C855 1.429 . S
C836 H860 0.950 . S
C837 C854 1.574 . S
C837 C856 1.368 . S
C837 H861 0.949 . S
H838 C842 0.949 . S
C839 C840 1.349 1_554 S
C839 C841 1.327 . S
C839 H862 0.950 1_554 S
C840 C839 1.349 1_556 S
C840 C852 1.349 1_556 S
C841 C839 1.327 . S
C841 C857 1.429 . S
C841 H863 0.950 . S
C842 H838 0.949 . S
C842 C850 1.574 . S
C842 C858 1.368 . S
H843 C851 0.950 . S
H844 C849 0.950 . S
H845 C850 0.949 . S
H846 C852 0.950 1_556 S
H847 C853 0.950 . S
H848 C854 0.949 . S
C849 H844 0.950 . S
C849 C851 1.327 . S
C849 C855 1.429 . S
C850 C842 1.574 . S
C850 H845 0.949 . S
C850 C856 1.368 . S
C851 C835 1.349 . S
C851 H843 0.950 . S
C851 C849 1.327 . S
C852 C840 1.349 1_554 S
C852 H846 0.950 1_554 S
C852 C853 1.327 . S
C853 H847 0.950 . S
C853 C852 1.327 . S
C853 C857 1.429 . S
C854 C837 1.574 . S
C854 H848 0.949 . S
C854 C858 1.368 . S
C855 C836 1.429 . S
C855 C849 1.429 . S
C855 C856 1.523 . S
C856 C837 1.368 . S
C856 C850 1.368 . S
C856 C855 1.523 . S
C857 C841 1.429 . S
C857 C853 1.429 . S
C857 C858 1.523 . S
C858 C842 1.368 . S
C858 C854 1.368 . S
C858 C857 1.523 . S
H859 C834 0.950 . S
H860 C836 0.950 . S
H861 C837 0.949 . S
H862 C839 0.950 1_556 S
H863 C841 0.950 . S
C864 C865 1.349 . S
C864 C866 1.327 . S
C864 H889 0.950 . S
C865 C864 1.349 . S
C865 C881 1.349 . S
C866 C864 1.327 . S
C866 C885 1.429 . S
C866 H890 0.950 . S
C867 C884 1.574 . S
C867 C886 1.368 . S
C867 H891 0.949 . S
H868 C872 0.949 . S
C869 C870 1.349 . S
C869 C871 1.327 . S
C869 H892 0.950 . S
C870 C869 1.349 . S
C870 C882 1.349 . S
C871 C869 1.327 . S
C871 C887 1.429 . S
C871 H893 0.950 . S
C872 H868 0.949 . S
C872 C880 1.574 . S
C872 C888 1.368 . S
H873 C881 0.950 . S
H874 C879 0.950 . S
H875 C880 0.949 . S
H876 C882 0.950 . S
H877 C883 0.950 . S
H878 C884 0.949 . S
C879 H874 0.950 . S
C879 C881 1.327 . S
C879 C885 1.429 . S
C880 C872 1.574 . S
C880 H875 0.949 . S
C880 C886 1.368 . S
C881 C865 1.349 . S
C881 H873 0.950 . S
C881 C879 1.327 . S
C882 C870 1.349 . S
C882 H876 0.950 . S
C882 C883 1.327 . S
C883 H877 0.950 . S
C883 C882 1.327 . S
C883 C887 1.429 . S
C884 C867 1.574 . S
C884 H878 0.949 . S
C884 C888 1.368 . S
C885 C866 1.429 . S
C885 C879 1.429 . S
C885 C886 1.523 . S
C886 C867 1.368 . S
C886 C880 1.368 . S
C886 C885 1.523 . S
C887 C871 1.429 . S
C887 C883 1.429 . S
C887 C888 1.523 . S
C888 C872 1.368 . S
C888 C884 1.368 . S
C888 C887 1.523 . S
H889 C864 0.950 . S
H890 C866 0.950 . S
H891 C867 0.949 . S
H892 C869 0.950 . S
H893 C871 0.950 . S
C894 C895 1.349 . S
C894 C896 1.327 . S
C894 H919 0.950 . S
C895 C894 1.349 . S
C895 C911 1.349 . S
C896 C894 1.327 . S
C896 C915 1.429 . S
C896 H920 0.950 . S
C897 C914 1.574 . S
C897 C916 1.368 . S
C897 H921 0.949 . S
H898 C902 0.949 . S
C899 C900 1.349 . S
C899 C901 1.327 . S
C899 H922 0.950 . S
C900 C899 1.349 . S
C900 C912 1.349 . S
C901 C899 1.327 . S
C901 C917 1.429 . S
C901 H923 0.950 . S
C902 H898 0.949 . S
C902 C910 1.574 . S
C902 C918 1.368 . S
H903 C911 0.950 . S
H904 C909 0.950 . S
H905 C910 0.949 . S
H906 C912 0.950 . S
H907 C913 0.950 . S
H908 C914 0.949 . S
C909 H904 0.950 . S
C909 C911 1.327 . S
C909 C915 1.429 . S
C910 C902 1.574 . S
C910 H905 0.949 . S
C910 C916 1.368 . S
C911 C895 1.349 . S
C911 H903 0.950 . S
C911 C909 1.327 . S
C912 C900 1.349 . S
C912 H906 0.950 . S
C912 C913 1.327 . S
C913 H907 0.950 . S
C913 C912 1.327 . S
C913 C917 1.429 . S
C914 C897 1.574 . S
C914 H908 0.949 . S
C914 C918 1.368 . S
C915 C896 1.429 . S
C915 C909 1.429 . S
C915 C916 1.523 . S
C916 C897 1.368 . S
C916 C910 1.368 . S
C916 C915 1.523 . S
C917 C901 1.429 . S
C917 C913 1.429 . S
C917 C918 1.523 . S
C918 C902 1.368 . S
C918 C914 1.368 . S
C918 C917 1.523 . S
H919 C894 0.950 . S
H920 C896 0.950 . S
H921 C897 0.949 . S
H922 C899 0.950 . S
H923 C901 0.950 . S
C924 C925 1.349 . S
C924 C926 1.327 . S
C924 H949 0.950 . S
C925 C924 1.349 . S
C925 C941 1.349 . S
C926 C924 1.327 . S
C926 C945 1.429 . S
C926 H950 0.950 . S
C927 C944 1.574 . S
C927 C946 1.368 . S
C927 H951 0.949 . S
H928 C932 0.949 . S
C929 C930 1.349 . S
C929 C931 1.327 . S
C929 H952 0.950 . S
C930 C929 1.349 . S
C930 C942 1.349 . S
C931 C929 1.327 . S
C931 C947 1.429 . S
C931 H953 0.950 . S
C932 H928 0.949 . S
C932 C940 1.574 . S
C932 C948 1.368 . S
H933 C941 0.950 . S
H934 C939 0.950 . S
H935 C940 0.949 . S
H936 C942 0.950 . S
H937 C943 0.950 . S
H938 C944 0.949 . S
C939 H934 0.950 . S
C939 C941 1.327 . S
C939 C945 1.429 . S
C940 C932 1.574 . S
C940 H935 0.949 . S
C940 C946 1.368 . S
C941 C925 1.349 . S
C941 H933 0.950 . S
C941 C939 1.327 . S
C942 C930 1.349 . S
C942 H936 0.950 . S
C942 C943 1.327 . S
C943 H937 0.950 . S
C943 C942 1.327 . S
C943 C947 1.429 . S
C944 C927 1.574 . S
C944 H938 0.949 . S
C944 C948 1.368 . S
C945 C926 1.429 . S
C945 C939 1.429 . S
C945 C946 1.523 . S
C946 C927 1.368 . S
C946 C940 1.368 . S
C946 C945 1.523 . S
C947 C931 1.429 . S
C947 C943 1.429 . S
C947 C948 1.523 . S
C948 C932 1.368 . S
C948 C944 1.368 . S
C948 C947 1.523 . S
H949 C924 0.950 . S
H950 C926 0.950 . S
H951 C927 0.949 . S
H952 C929 0.950 . S
H953 C931 0.950 . S
C954 C955 1.349 . S
C954 C956 1.327 . S
C954 H979 0.950 . S
C955 C954 1.349 . S
C955 C971 1.349 . S
C956 C954 1.327 . S
C956 C975 1.429 . S
C956 H980 0.950 . S
C957 C974 1.574 . S
C957 C976 1.368 . S
C957 H981 0.949 . S
H958 C962 0.949 . S
C959 C960 1.349 . S
C959 C961 1.327 . S
C959 H982 0.950 . S
C960 C959 1.349 . S
C960 C972 1.349 . S
C961 C959 1.327 . S
C961 C977 1.429 . S
C961 H983 0.950 . S
C962 H958 0.949 . S
C962 C970 1.574 . S
C962 C978 1.368 . S
H963 C971 0.950 . S
H964 C969 0.950 . S
H965 C970 0.949 . S
H966 C972 0.950 . S
H967 C973 0.950 . S
H968 C974 0.949 . S
C969 H964 0.950 . S
C969 C971 1.327 . S
C969 C975 1.429 . S
C970 C962 1.574 . S
C970 H965 0.949 . S
C970 C976 1.368 . S
C971 C955 1.349 . S
C971 H963 0.950 . S
C971 C969 1.327 . S
C972 C960 1.349 . S
C972 H966 0.950 . S
C972 C973 1.327 . S
C973 H967 0.950 . S
C973 C972 1.327 . S
C973 C977 1.429 . S
C974 C957 1.574 . S
C974 H968 0.949 . S
C974 C978 1.368 . S
C975 C956 1.429 . S
C975 C969 1.429 . S
C975 C976 1.523 . S
C976 C957 1.368 . S
C976 C970 1.368 . S
C976 C975 1.523 . S
C977 C961 1.429 . S
C977 C973 1.429 . S
C977 C978 1.523 . S
C978 C962 1.368 . S
C978 C974 1.368 . S
C978 C977 1.523 . S
H979 C954 0.950 . S
H980 C956 0.950 . S
H981 C957 0.949 . S
H982 C959 0.950 . S
H983 C961 0.950 . S
C984 C985 1.349 . S
C984 C986 1.327 . S
C984 H1009 0.950 . S
C985 C984 1.349 . S
C985 C1001 1.349 . S
C986 C984 1.327 . S
C986 C1005 1.429 . S
C986 H1010 0.950 . S
C987 C1004 1.574 . S
C987 C1006 1.368 . S
C987 H1011 0.949 . S
H988 C992 0.949 . S
C989 C990 1.349 . S
C989 C991 1.327 . S
C989 H1012 0.950 . S
C990 C989 1.349 . S
C990 C1002 1.349 . S
C991 C989 1.327 . S
C991 C1007 1.429 . S
C991 H1013 0.950 . S
C992 H988 0.949 . S
C992 C1000 1.574 . S
C992 C1008 1.368 . S
H993 C1001 0.950 . S
H994 C999 0.950 . S
H995 C1000 0.949 . S
H996 C1002 0.950 . S
H997 C1003 0.950 . S
H998 C1004 0.949 . S
C999 H994 0.950 . S
C999 C1001 1.327 . S
C999 C1005 1.429 . S
C1000 C992 1.574 . S
C1000 H995 0.949 . S
C1000 C1006 1.368 . S
C1001 C985 1.349 . S
C1001 H993 0.950 . S
C1001 C999 1.327 . S
C1002 C990 1.349 . S
C1002 H996 0.950 . S
C1002 C1003 1.327 . S
C1003 H997 0.950 . S
C1003 C1002 1.327 . S
C1003 C1007 1.429 . S
C1004 C987 1.574 . S
C1004 H998 0.949 . S
C1004 C1008 1.368 . S
C1005 C986 1.429 . S
C1005 C999 1.429 . S
C1005 C1006 1.523 . S
C1006 C987 1.368 . S
C1006 C1000 1.368 . S
C1006 C1005 1.523 . S
C1007 C991 1.429 . S
C1007 C1003 1.429 . S
C1007 C1008 1.523 . S
C1008 C992 1.368 . S
C1008 C1004 1.368 . S
C1008 C1007 1.523 . S
H1009 C984 0.950 . S
H1010 C986 0.950 . S
H1011 C987 0.949 . S
H1012 C989 0.950 . S
H1013 C991 0.950 . S
C1014 C1015 1.349 . S
C1014 C1016 1.327 . S
C1014 H1039 0.950 . S
C1015 C1014 1.349 . S
C1015 C1031 1.349 . S
C1016 C1014 1.327 . S
C1016 C1035 1.429 . S
C1016 H1040 0.950 . S
C1017 C1034 1.574 . S
C1017 C1036 1.368 . S
C1017 H1041 0.949 . S
H1018 C1022 0.949 . S
C1019 C1020 1.349 . S
C1019 C1021 1.327 . S
C1019 H1042 0.950 . S
C1020 C1019 1.349 . S
C1020 C1032 1.349 . S
C1021 C1019 1.327 . S
C1021 C1037 1.429 . S
C1021 H1043 0.950 . S
C1022 H1018 0.949 . S
C1022 C1030 1.574 . S
C1022 C1038 1.368 . S
H1023 C1031 0.950 . S
H1024 C1029 0.950 . S
H1025 C1030 0.949 . S
H1026 C1032 0.950 . S
H1027 C1033 0.950 . S
H1028 C1034 0.949 . S
C1029 H1024 0.950 . S
C1029 C1031 1.327 . S
C1029 C1035 1.429 . S
C1030 C1022 1.574 . S
C1030 H1025 0.949 . S
C1030 C1036 1.368 . S
C1031 C1015 1.349 . S
C1031 H1023 0.950 . S
C1031 C1029 1.327 . S
C1032 C1020 1.349 . S
C1032 H1026 0.950 . S
C1032 C1033 1.327 . S
C1033 H1027 0.950 . S
C1033 C1032 1.327 . S
C1033 C1037 1.429 . S
C1034 C1017 1.574 . S
C1034 H1028 0.949 . S
C1034 C1038 1.368 . S
C1035 C1016 1.429 . S
C1035 C1029 1.429 . S
C1035 C1036 1.523 . S
C1036 C1017 1.368 . S
C1036 C1030 1.368 . S
C1036 C1035 1.523 . S
C1037 C1021 1.429 . S
C1037 C1033 1.429 . S
C1037 C1038 1.523 . S
C1038 C1022 1.368 . S
C1038 C1034 1.368 . S
C1038 C1037 1.523 . S
H1039 C1014 0.950 . S
H1040 C1016 0.950 . S
H1041 C1017 0.949 . S
H1042 C1019 0.950 . S
H1043 C1021 0.950 . S
C505 C494 1.431 . S
C510 C56 1.394 . S
C535 C74 1.432 . S
C540 C140 1.394 . S
C565 C158 1.431 . S
C570 C224 1.394 . S
C595 C242 1.431 . S
C600 C308 1.394 . S
C625 C392 1.394 . S
C630 C326 1.432 . S
C655 C476 1.394 . S
C660 C410 1.431 . S
C685 C58 1.313 . S
C690 C70 1.313 . S
C715 C142 1.313 . S
C720 C154 1.313 . S
C745 C226 1.313 . S
C750 C238 1.313 . S
C775 C310 1.313 . S
C780 C322 1.313 . S
C805 C406 1.313 . S
C810 C394 1.313 . S
C835 C478 1.313 . S
C840 C490 1.313 . S
C865 C67 1.308 . S
C870 C399 1.348 . S
C895 C151 1.308 . S
C900 C483 1.348 . S
C925 C63 1.348 . S
C930 C235 1.308 . S
C955 C147 1.348 . S
C960 C319 1.308 . S
C985 C403 1.308 . S
C990 C231 1.348 . S
C1015 C315 1.348 . S
C1020 C487 1.308 . S
