# Generated by pormake.
# Topology whw, (6)-cn, num edge types: 1
# Building blocks:
#     Node 0, Type 0, BuildingBlock: LEVNOQ01_clean_sbu_1, # of connection points: 6
#     Node 1, Type 0, BuildingBlock: LEVNOQ01_clean_sbu_1, # of connection points: 6
#     Node 2, Type 0, BuildingBlock: LEVNOQ01_clean_sbu_1, # of connection points: 6
#     Node 3, Type 0, BuildingBlock: LEVNOQ01_clean_sbu_1, # of connection points: 6
#     Node 4, Type 0, BuildingBlock: LEVNOQ01_clean_sbu_1, # of connection points: 6
#     Node 5, Type 0, BuildingBlock: LEVNOQ01_clean_sbu_1, # of connection points: 6
#     Node 6, Type 0, BuildingBlock: LEVNOQ01_clean_sbu_1, # of connection points: 6
#     Node 7, Type 0, BuildingBlock: LEVNOQ01_clean_sbu_1, # of connection points: 6
#     Node 8, Type 0, BuildingBlock: LEVNOQ01_clean_sbu_1, # of connection points: 6
#     Node 9, Type 0, BuildingBlock: LEVNOQ01_clean_sbu_1, # of connection points: 6
#     Node 10, Type 0, BuildingBlock: LEVNOQ01_clean_sbu_1, # of connection points: 6
#     Node 11, Type 0, BuildingBlock: LEVNOQ01_clean_sbu_1, # of connection points: 6
#     Node 12, Type 0, BuildingBlock: LEVNOQ01_clean_sbu_1, # of connection points: 6
#     Node 13, Type 0, BuildingBlock: LEVNOQ01_clean_sbu_1, # of connection points: 6
#     Node 14, Type 0, BuildingBlock: LEVNOQ01_clean_sbu_1, # of connection points: 6
#     Node 15, Type 0, BuildingBlock: LEVNOQ01_clean_sbu_1, # of connection points: 6
#     Edge 16, Type (0, 0), BuildingBlock: OJICUG_clean_linker_0, # of connection points: 2
#     Edge 17, Type (0, 0), BuildingBlock: OJICUG_clean_linker_0, # of connection points: 2
#     Edge 18, Type (0, 0), BuildingBlock: OJICUG_clean_linker_0, # of connection points: 2
#     Edge 19, Type (0, 0), BuildingBlock: OJICUG_clean_linker_0, # of connection points: 2
#     Edge 20, Type (0, 0), BuildingBlock: OJICUG_clean_linker_0, # of connection points: 2
#     Edge 21, Type (0, 0), BuildingBlock: OJICUG_clean_linker_0, # of connection points: 2
#     Edge 22, Type (0, 0), BuildingBlock: OJICUG_clean_linker_0, # of connection points: 2
#     Edge 23, Type (0, 0), BuildingBlock: OJICUG_clean_linker_0, # of connection points: 2
#     Edge 24, Type (0, 0), BuildingBlock: OJICUG_clean_linker_0, # of connection points: 2
#     Edge 25, Type (0, 0), BuildingBlock: OJICUG_clean_linker_0, # of connection points: 2
#     Edge 26, Type (0, 0), BuildingBlock: OJICUG_clean_linker_0, # of connection points: 2
#     Edge 27, Type (0, 0), BuildingBlock: OJICUG_clean_linker_0, # of connection points: 2
#     Edge 28, Type (0, 0), BuildingBlock: OJICUG_clean_linker_0, # of connection points: 2
#     Edge 29, Type (0, 0), BuildingBlock: OJICUG_clean_linker_0, # of connection points: 2
#     Edge 30, Type (0, 0), BuildingBlock: OJICUG_clean_linker_0, # of connection points: 2
#     Edge 31, Type (0, 0), BuildingBlock: OJICUG_clean_linker_0, # of connection points: 2
#     Edge 32, Type (0, 0), BuildingBlock: OJICUG_clean_linker_0, # of connection points: 2
#     Edge 33, Type (0, 0), BuildingBlock: OJICUG_clean_linker_0, # of connection points: 2
#     Edge 34, Type (0, 0), BuildingBlock: OJICUG_clean_linker_0, # of connection points: 2
#     Edge 35, Type (0, 0), BuildingBlock: OJICUG_clean_linker_0, # of connection points: 2
#     Edge 36, Type (0, 0), BuildingBlock: OJICUG_clean_linker_0, # of connection points: 2
#     Edge 37, Type (0, 0), BuildingBlock: OJICUG_clean_linker_0, # of connection points: 2
#     Edge 38, Type (0, 0), BuildingBlock: OJICUG_clean_linker_0, # of connection points: 2
#     Edge 39, Type (0, 0), BuildingBlock: OJICUG_clean_linker_0, # of connection points: 2
#     Edge 40, Type (0, 0), BuildingBlock: OJICUG_clean_linker_0, # of connection points: 2
#     Edge 41, Type (0, 0), BuildingBlock: OJICUG_clean_linker_0, # of connection points: 2
#     Edge 42, Type (0, 0), BuildingBlock: OJICUG_clean_linker_0, # of connection points: 2
#     Edge 43, Type (0, 0), BuildingBlock: OJICUG_clean_linker_0, # of connection points: 2
#     Edge 44, Type (0, 0), BuildingBlock: OJICUG_clean_linker_0, # of connection points: 2
#     Edge 45, Type (0, 0), BuildingBlock: OJICUG_clean_linker_0, # of connection points: 2
#     Edge 46, Type (0, 0), BuildingBlock: OJICUG_clean_linker_0, # of connection points: 2
#     Edge 47, Type (0, 0), BuildingBlock: OJICUG_clean_linker_0, # of connection points: 2
#     Edge 48, Type (0, 0), BuildingBlock: OJICUG_clean_linker_0, # of connection points: 2
#     Edge 49, Type (0, 0), BuildingBlock: OJICUG_clean_linker_0, # of connection points: 2
#     Edge 50, Type (0, 0), BuildingBlock: OJICUG_clean_linker_0, # of connection points: 2
#     Edge 51, Type (0, 0), BuildingBlock: OJICUG_clean_linker_0, # of connection points: 2
#     Edge 52, Type (0, 0), BuildingBlock: OJICUG_clean_linker_0, # of connection points: 2
#     Edge 53, Type (0, 0), BuildingBlock: OJICUG_clean_linker_0, # of connection points: 2
#     Edge 54, Type (0, 0), BuildingBlock: OJICUG_clean_linker_0, # of connection points: 2
#     Edge 55, Type (0, 0), BuildingBlock: OJICUG_clean_linker_0, # of connection points: 2
#     Edge 56, Type (0, 0), BuildingBlock: OJICUG_clean_linker_0, # of connection points: 2
#     Edge 57, Type (0, 0), BuildingBlock: OJICUG_clean_linker_0, # of connection points: 2
#     Edge 58, Type (0, 0), BuildingBlock: OJICUG_clean_linker_0, # of connection points: 2
#     Edge 59, Type (0, 0), BuildingBlock: OJICUG_clean_linker_0, # of connection points: 2
#     Edge 60, Type (0, 0), BuildingBlock: OJICUG_clean_linker_0, # of connection points: 2
#     Edge 61, Type (0, 0), BuildingBlock: OJICUG_clean_linker_0, # of connection points: 2
#     Edge 62, Type (0, 0), BuildingBlock: OJICUG_clean_linker_0, # of connection points: 2
#     Edge 63, Type (0, 0), BuildingBlock: OJICUG_clean_linker_0, # of connection points: 2
# Relax obj value: 0.530
# Max RMSD: 0.236
# Mean RMSD: 0.236
data_MOF--net-whw--node1-LEVNOQ01_clean_sbu_1--edge1-OJICUG_clean_linker_0
_symmetry_space_group_name_H-M    P1
_symmetry_Int_Tables_number       1
_symmetry_cell_setting            triclinic
loop_
_symmetry_equiv_pos_as_xyz
'x, y, z'
_cell_length_a     37.051721
_cell_length_b     36.849979
_cell_length_c     17.958279
_cell_angle_alpha  90.030144
_cell_angle_beta   89.981714
_cell_angle_gamma 90.006183
loop_
_atom_site_label
_atom_site_type_symbol
_atom_site_fract_x
_atom_site_fract_y
_atom_site_fract_z
_atom_type_partial_charge
O0 O 0.05387 0.04289 0.31477 0.0
Mg1 Mg -0.00013 0.03357 0.27994 0.0
O2 O 0.06368 0.09023 0.24027 0.0
Mg3 Mg 0.01817 0.10454 0.15888 0.0
O4 O -0.00132 0.04759 0.17152 0.0
O5 O 0.98406 0.99212 0.20804 0.0
O6 O 0.97339 0.1222 0.07154 0.0
O7 O 0.05356 0.08853 0.04738 0.0
Mg8 Mg 0.05952 0.15379 0.06948 0.0
O9 O 0.03843 0.16364 0.1699 0.0
O10 O 0.01296 0.14835 0.99476 0.0
O11 O 0.10183 0.11569 0.08339 0.0
O12 O 0.07289 0.20358 0.10909 0.0
C13 C 0.96205 0.10366 0.3141 0.0
C14 C 0.07375 0.06874 0.29201 0.0
C15 C 0.98851 0.01543 0.15544 0.0
C16 C 0.98086 0.13751 0.00897 0.0
C17 C 0.08626 0.09778 0.03341 0.0
C18 C 0.05333 0.19539 0.16615 0.0
O19 O 0.96284 0.06976 0.32628 0.0
O20 O 0.98055 0.11884 0.26199 0.0
O21 O 0.0781 0.83655 0.29525 0.0
Mg22 Mg 0.04833 0.78865 0.31064 0.0
O23 O 0.12928 0.80558 0.29528 0.0
Mg24 Mg 0.12268 0.76416 0.40191 0.0
O25 O 0.06325 0.7736 0.41162 0.0
O26 O 0.00639 0.7855 0.39033 0.0
O27 O 0.11549 0.72483 0.50228 0.0
O28 O 0.13156 0.81244 0.48314 0.0
Mg29 Mg 0.19268 0.75521 0.52192 0.0
O30 O 0.18239 0.75198 0.4107 0.0
O31 O 0.16286 0.71488 0.57573 0.0
O32 O 0.18117 0.80856 0.5529 0.0
O33 O 0.2372 0.74334 0.46002 0.0
C34 C 0.08827 0.71594 0.25813 0.0
C35 C 0.10979 0.83213 0.27062 0.0
C36 C 0.03048 0.77283 0.43503 0.0
C37 C 0.13036 0.70915 0.55778 0.0
C38 C 0.15338 0.82563 0.53134 0.0
C39 C 0.21617 0.74488 0.40288 0.0
O40 O 0.06459 0.74076 0.24836 0.0
O41 O 0.11131 0.71721 0.31207 0.0
O42 O 0.44107 0.93042 0.8101 0.0
Mg43 Mg 0.49263 0.94371 0.76739 0.0
O44 O 0.43391 0.88164 0.73803 0.0
Mg45 Mg 0.47696 0.87183 0.64775 0.0
O46 O 0.49024 0.93092 0.6576 0.0
O47 O 0.50287 0.98675 0.69625 0.0
O48 O 0.51862 0.85671 0.54901 0.0
O49 O 0.43206 0.8816 0.55099 0.0
Mg50 Mg 0.44149 0.79991 0.56129 0.0
O51 O 0.46519 0.81337 0.6553 0.0
O52 O 0.48643 0.81418 0.48772 0.0
O53 O 0.3963 0.83482 0.56824 0.0
O54 O 0.4502 0.75686 0.63879 0.0
C55 C 0.53878 0.87845 0.79142 0.0
C56 C 0.4232 0.90263 0.79022 0.0
C57 C 0.4976 0.96405 0.64275 0.0
C58 C 0.51441 0.83445 0.49369 0.0
C59 C 0.40238 0.86477 0.53631 0.0
C60 C 0.46747 0.78053 0.6776 0.0
O61 O 0.53474 0.91162 0.80819 0.0
O62 O 0.52017 0.86279 0.74048 0.0
O63 O 0.31079 0.19392 0.057 0.0
Mg64 Mg 0.3003 0.24509 0.00875 0.0
O65 O 0.35956 0.18442 0.98728 0.0
Mg66 Mg 0.37237 0.22733 0.89846 0.0
O67 O 0.31329 0.24217 0.89823 0.0
O68 O 0.25805 0.25567 0.93931 0.0
O69 O 0.39054 0.26917 0.80246 0.0
O70 O 0.36492 0.18241 0.80014 0.0
Mg71 Mg 0.44564 0.1917 0.82161 0.0
O72 O 0.43044 0.21437 0.91616 0.0
O73 O 0.43546 0.23769 0.74789 0.0
O74 O 0.41125 0.14612 0.81833 0.0
O75 O 0.4863 0.19652 0.90412 0.0
C76 C 0.36314 0.29024 0.04058 0.0
C77 C 0.33788 0.1748 0.03884 0.0
C78 C 0.28019 0.25044 0.88486 0.0
C79 C 0.41476 0.2655 0.75098 0.0
C80 C 0.3815 0.15242 0.78641 0.0
C81 C 0.46261 0.21398 0.9425 0.0
O82 O 0.32963 0.28811 0.05316 0.0
O83 O 0.37896 0.27026 0.99233 0.0
O84 O 0.05685 0.9436 0.69837 0.0
Mg85 Mg 0.00359 0.95241 0.73422 0.0
O86 O 0.06359 0.89316 0.76597 0.0
Mg87 Mg 0.02089 0.88191 0.85702 0.0
O88 O 0.00465 0.94022 0.84418 0.0
O89 O 0.98856 -0.00514 0.80413 0.0
O90 O 0.98139 0.86722 0.95745 0.0
O91 O 0.06485 0.89272 0.95455 0.0
Mg92 Mg 0.06073 0.81093 0.94243 0.0
O93 O 0.03384 0.8237 0.85162 0.0
O94 O 0.01738 0.82761 0.01841 0.0
O95 O 0.10245 0.84924 0.92626 0.0
O96 O 0.04797 0.76725 0.86763 0.0
C97 C 0.96209 0.88278 0.70952 0.0
C98 C 0.07465 0.91551 0.71642 0.0
C99 C -0.00498 0.97284 0.85821 0.0
C100 C 0.98854 0.84688 0.01433 0.0
C101 C 0.09443 0.87558 0.9682 0.0
C102 C 0.02892 0.79074 0.83221 0.0
O103 O 0.96693 0.91522 0.68802 0.0
O104 O 0.97842 0.86926 0.76586 0.0
O105 O 0.30936 0.80092 0.95711 0.0
Mg106 Mg 0.29587 0.74822 0.99278 0.0
O107 O 0.35832 0.80493 0.02891 0.0
Mg108 Mg 0.36536 0.76016 0.11821 0.0
O109 O 0.30643 0.74811 0.10383 0.0
O110 O 0.25165 0.73665 0.05951 0.0
O111 O 0.37431 0.71455 0.21481 0.0
O112 O 0.35724 0.80612 0.21622 0.0
Mg113 Mg 0.44064 0.77731 0.21404 0.0
O114 O 0.42412 0.77223 0.10984 0.0
O115 O 0.42853 0.72664 0.26425 0.0
O116 O 0.41283 0.82214 0.25188 0.0
O117 O 0.4807 0.78465 0.13532 0.0
C118 C 0.36027 0.70021 0.97014 0.0
C119 C 0.33777 0.81737 0.97771 0.0
C120 C 0.27303 0.74115 0.11535 0.0
C121 C 0.40044 0.70691 0.25992 0.0
C122 C 0.379 0.8269 0.25338 0.0
C123 C 0.45635 0.77775 0.08579 0.0
O124 O 0.32882 0.70769 0.94695 0.0
O125 O 0.37437 0.71615 0.02652 0.0
O126 O 0.44046 0.06277 0.20226 0.0
Mg127 Mg 0.49185 0.04566 0.23596 0.0
O128 O 0.43689 0.10965 0.28066 0.0
Mg129 Mg 0.48184 0.11107 0.3712 0.0
O130 O 0.49158 0.05191 0.34727 0.0
O131 O 0.49961 -0.0021 0.29412 0.0
O132 O 0.52885 0.11457 0.4694 0.0
O133 O 0.43539 0.10006 0.46114 0.0
Mg134 Mg 0.47845 0.17469 0.49079 0.0
O135 O 0.47272 0.17069 0.37918 0.0
O136 O 0.5349 0.17396 0.48469 0.0
O137 O 0.45879 0.13089 0.55475 0.0
O138 O 0.43678 0.20579 0.44148 0.0
C139 C 0.54129 0.11038 0.22386 0.0
C140 C 0.42446 0.09087 0.22638 0.0
C141 C 0.49704 0.01768 0.35305 0.0
C142 C 0.54662 0.14209 0.49568 0.0
C143 C 0.43514 0.10942 0.52987 0.0
C144 C 0.44712 0.19415 0.37742 0.0
O145 O 0.53439 0.07872 0.19983 0.0
O146 O 0.52491 0.12396 0.28029 0.0
O147 O 0.07344 0.14691 0.70241 0.0
Mg148 Mg 0.04197 0.19456 0.69135 0.0
O149 O 0.12398 0.17887 0.71266 0.0
Mg150 Mg 0.11999 0.22332 0.61108 0.0
O151 O 0.06284 0.21321 0.5985 0.0
O152 O 0.00487 0.20742 0.60281 0.0
O153 O 0.11276 0.2674 0.51714 0.0
O154 O 0.12879 0.1763 0.52438 0.0
Mg155 Mg 0.18575 0.23244 0.49328 0.0
O156 O 0.18065 0.23545 0.60746 0.0
O157 O 0.15833 0.274 0.43823 0.0
O158 O 0.17778 0.18018 0.45394 0.0
O159 O 0.23271 0.24338 0.54372 0.0
C160 C 0.08139 0.26511 0.75968 0.0
C161 C 0.104 0.1517 0.73268 0.0
C162 C 0.03247 0.22098 0.56937 0.0
C163 C 0.12727 0.2829 0.46084 0.0
C164 C 0.14992 0.16321 0.47471 0.0
C165 C 0.21496 0.24232 0.60557 0.0
O166 O 0.05804 0.2395 0.76293 0.0
O167 O 0.10555 0.26675 0.70753 0.0
O168 O 0.82572 0.28708 0.45534 0.0
Mg169 Mg 0.81252 0.23817 0.5091 0.0
O170 O 0.86876 0.30259 0.53597 0.0
Mg171 Mg 0.87593 0.26284 0.63489 0.0
O172 O 0.81687 0.24768 0.61967 0.0
O173 O 0.76511 0.23158 0.56504 0.0
O174 O 0.8863 0.22042 0.74066 0.0
O175 O 0.86159 0.31351 0.71522 0.0
Mg176 Mg 0.94133 0.28197 0.74499 0.0
O177 O 0.93455 0.27805 0.63324 0.0
O178 O 0.945 0.22672 0.76678 0.0
O179 O 0.9004 0.30547 0.80745 0.0
O180 O 0.9666 0.3219 0.68012 0.0
C181 C 0.87716 0.19136 0.50935 0.0
C182 C 0.85011 0.30874 0.47739 0.0
C183 C 0.78296 0.24013 0.62421 0.0
C184 C 0.91556 0.20941 0.77359 0.0
C185 C 0.87382 0.322 0.77979 0.0
C186 C 0.95412 0.30635 0.6214 0.0
O187 O 0.84461 0.19308 0.48837 0.0
O188 O 0.89092 0.21464 0.55441 0.0
O189 O 0.60906 0.6431 0.18501 0.0
Mg190 Mg 0.56954 0.68367 0.20119 0.0
O191 O 0.6466 0.68611 0.21264 0.0
Mg192 Mg 0.63214 0.72844 0.11297 0.0
O193 O 0.57455 0.70881 0.10383 0.0
O194 O 0.52355 0.68185 0.13303 0.0
O195 O 0.61894 0.77122 0.02067 0.0
O196 O 0.64556 0.68678 0.02169 0.0
Mg197 Mg 0.70007 0.75184 0.99256 0.0
O198 O 0.68976 0.74824 0.10348 0.0
O199 O 0.66556 0.79212 0.95424 0.0
O200 O 0.6915 0.69985 0.94636 0.0
O201 O 0.74297 0.76603 0.05818 0.0
C202 C 0.59322 0.76135 0.26787 0.0
C203 C 0.63473 0.65392 0.22502 0.0
C204 C 0.54164 0.70149 0.08693 0.0
C205 C 0.63241 0.79234 0.97119 0.0
C206 C 0.66623 0.67891 0.96712 0.0
C207 C 0.72229 0.75922 0.11426 0.0
O208 O 0.57778 0.73042 0.27541 0.0
O209 O 0.61325 0.76866 0.21075 0.0
O210 O 0.58025 0.3077 0.72135 0.0
Mg211 Mg 0.54696 0.27029 0.77477 0.0
O212 O 0.63216 0.30738 0.78637 0.0
Mg213 Mg 0.62129 0.26306 0.88376 0.0
O214 O 0.56409 0.27741 0.87784 0.0
O215 O 0.50859 0.29087 0.8502 0.0
O216 O 0.60773 0.22004 0.97605 0.0
O217 O 0.62494 0.30947 0.97163 0.0
Mg218 Mg 0.68576 0.2528 0.01748 0.0
O219 O 0.67985 0.25156 0.90571 0.0
O220 O 0.653 0.21104 0.05646 0.0
O221 O 0.67103 0.30514 0.0507 0.0
O222 O 0.73294 0.24305 0.96126 0.0
C223 C 0.58898 0.20033 0.75447 0.0
C224 C 0.61182 0.31977 0.73357 0.0
C225 C 0.5336 0.28953 0.9001 0.0
C226 C 0.62177 0.20378 0.03206 0.0
C227 C 0.64381 0.322 0.02555 0.0
C228 C 0.71384 0.24526 0.90141 0.0
O229 O 0.55778 0.21468 0.75446 0.0
O230 O 0.61571 0.21525 0.7894 0.0
O231 O 0.81513 0.69004 0.54479 0.0
Mg232 Mg 0.81224 0.74354 0.50772 0.0
O233 O 0.86384 0.68303 0.47471 0.0
Mg234 Mg 0.87613 0.7256 0.38346 0.0
O235 O 0.81872 0.74675 0.39554 0.0
O236 O 0.76784 0.76256 0.45581 0.0
O237 O 0.89313 0.76906 0.28684 0.0
O238 O 0.85885 0.68131 0.2891 0.0
Mg239 Mg 0.94849 0.69618 0.28511 0.0
O240 O 0.93146 0.70156 0.38945 0.0
O241 O 0.94665 0.74995 0.24328 0.0
O242 O 0.91065 0.66126 0.23925 0.0
O243 O 0.98433 0.67759 0.36729 0.0
C244 C 0.88033 0.78533 0.52932 0.0
C245 C 0.84243 0.67175 0.52538 0.0
C246 C 0.78599 0.75875 0.39495 0.0
C247 C 0.9215 0.77343 0.24569 0.0
C248 C 0.87656 0.66003 0.24502 0.0
C249 C 0.96096 0.68833 0.41585 0.0
O250 O 0.84892 0.77912 0.55383 0.0
O251 O 0.89324 0.76936 0.47174 0.0
O252 O 0.56134 0.56923 0.80242 0.0
Mg253 Mg 0.50929 0.5532 0.77303 0.0
O254 O 0.56135 0.61829 0.72966 0.0
Mg255 Mg 0.51542 0.61995 0.6403 0.0
O256 O 0.50634 0.5607 0.66207 0.0
O257 O 0.49981 0.50615 0.71322 0.0
O258 O 0.46857 0.624 0.54307 0.0
O259 O 0.56166 0.61115 0.5475 0.0
Mg260 Mg 0.51935 0.69011 0.52428 0.0
O261 O 0.52426 0.67847 0.6323 0.0
O262 O 0.4628 0.68357 0.52524 0.0
O263 O 0.54573 0.6508 0.45963 0.0
O264 O 0.55743 0.72098 0.58673 0.0
C265 C 0.4578 0.61687 0.7907 0.0
C266 C 0.57566 0.5986 0.78055 0.0
C267 C 0.50044 0.52662 0.65509 0.0
C268 C 0.45117 0.65147 0.51568 0.0
C269 C 0.56606 0.62561 0.48282 0.0
C270 C 0.54895 0.70201 0.64429 0.0
O271 O 0.46804 0.58625 0.81527 0.0
O272 O 0.47147 0.63132 0.73207 0.0
O273 O 0.93742 0.43414 0.3106 0.0
Mg274 Mg 0.99052 0.44566 0.27419 0.0
O275 O 0.93385 0.38658 0.2352 0.0
Mg276 Mg 0.97641 0.37838 0.14438 0.0
O277 O -0.00779 0.43612 0.16246 0.0
O278 O 0.00356 0.49057 0.20955 0.0
O279 O 0.01708 0.36331 0.04447 0.0
O280 O 0.9321 0.39273 0.04859 0.0
Mg281 Mg 0.93655 0.30907 0.05177 0.0
O282 O 0.96 0.32195 0.14528 0.0
O283 O 0.98342 0.32216 0.98214 0.0
O284 O 0.89434 0.34731 0.06348 0.0
O285 O 0.94306 0.26612 0.1313 0.0
C286 C 0.03652 0.37837 0.29208 0.0
C287 C 0.92119 0.40588 0.288 0.0
C288 C 0.00081 0.46936 0.15277 0.0
C289 C 0.01212 0.3414 0.98886 0.0
C290 C 0.90164 0.37746 0.03351 0.0
C291 C 0.96047 0.28968 0.17006 0.0
O292 O 0.02972 0.40998 0.31663 0.0
O293 O 0.02019 0.36496 0.23536 0.0
O294 O 0.54329 0.43872 0.19295 0.0
Mg295 Mg 0.49228 0.44923 0.24208 0.0
O296 O 0.55528 0.39156 0.26657 0.0
Mg297 Mg 0.51555 0.38003 0.36184 0.0
O298 O 0.49829 0.43832 0.35211 0.0
O299 O 0.48133 0.49268 0.31204 0.0
O300 O 0.47825 0.36307 0.46478 0.0
O301 O 0.5613 0.39284 0.45373 0.0
Mg302 Mg 0.55964 0.31167 0.44493 0.0
O303 O 0.531 0.32277 0.3556 0.0
O304 O 0.51604 0.3246 0.524 0.0
O305 O 0.60029 0.35095 0.4243 0.0
O306 O 0.54933 0.26737 0.37049 0.0
C307 C 0.4501 0.3804 0.22603 0.0
C308 C 0.56329 0.41232 0.21211 0.0
C309 C 0.48958 0.47128 0.36616 0.0
C310 C 0.48617 0.34224 0.52053 0.0
C311 C 0.59244 0.37823 0.46363 0.0
C312 C 0.52893 0.28973 0.33512 0.0
O313 O 0.45155 0.41365 0.20807 0.0
O314 O 0.47096 0.3664 0.27509 0.0
O315 O 0.94563 0.56317 0.69992 0.0
Mg316 Mg -0.00335 0.5487 0.74137 0.0
O317 O 0.93691 0.61026 0.77641 0.0
Mg318 Mg 0.97721 0.61419 0.87508 0.0
O319 O 0.99115 0.55582 0.85148 0.0
O320 O 0.00611 0.50225 0.80451 0.0
O321 O 0.02059 0.62088 0.981 0.0
O322 O 0.92631 0.59968 0.95225 0.0
Mg323 Mg 0.96138 0.67327 0.99728 0.0
O324 O 0.96442 0.67303 0.88425 0.0
O325 O 0.01651 0.67972 0.00925 0.0
O326 O 0.94605 0.62522 0.05394 0.0
O327 O 0.92128 0.70289 0.93908 0.0
C328 C 0.04281 0.6171 0.73962 0.0
C329 C 0.92755 0.59065 0.72074 0.0
C330 C -0.00124 0.52226 0.86138 0.0
C331 C 0.03312 0.64972 0.01398 0.0
C332 C 0.92338 0.60506 0.02224 0.0
C333 C 0.93798 0.69539 0.87817 0.0
O334 O 0.03784 0.58531 0.71423 0.0
O335 O 0.02379 0.63016 0.79306 0.0
C336 C 0.11699 0.13904 0.94039 0.0
C337 C 0.09707 0.1069 0.95462 0.0
H338 H 0.13526 0.17814 0.86006 0.0
C339 C 0.08501 0.08684 0.89298 0.0
H340 H 0.12638 0.15587 0.98591 0.0
C341 C 0.09103 0.09954 0.81988 0.0
C342 C 0.10875 0.13294 0.80618 0.0
H343 H 0.06976 0.06209 0.90126 0.0
H344 H 0.07973 0.08426 0.77392 0.0
C345 C 0.12259 0.15189 0.86761 0.0
C346 C 0.13666 0.83378 0.14137 0.0
C347 C 0.11731 0.85107 0.19841 0.0
H348 H 0.14556 0.82876 0.02415 0.0
C349 C 0.09682 0.88216 0.17951 0.0
H350 H 0.15247 0.80974 0.15321 0.0
C351 C 0.09194 0.89268 0.10495 0.0
C352 C 0.10788 0.87272 0.04703 0.0
H353 H 0.08172 0.89648 0.22203 0.0
H354 H 0.07343 0.91462 0.09263 0.0
C355 C 0.13224 0.84465 0.06682 0.0
C356 C 0.3462 0.83759 0.37183 0.0
C357 C 0.36745 0.85172 0.31422 0.0
H358 H 0.33977 0.83218 0.48959 0.0
C359 C 0.39072 0.88104 0.33135 0.0
H360 H 0.32794 0.81523 0.36103 0.0
C361 C 0.39905 0.88963 0.4056 0.0
C362 C 0.38302 0.87006 0.46387 0.0
H363 H 0.40721 0.89295 0.28789 0.0
H364 H 0.42117 0.90809 0.4166 0.0
C365 C 0.35368 0.84698 0.44607 0.0
C366 C 0.3672 0.15005 0.6499 0.0
C367 C 0.37579 0.1316 0.71602 0.0
H368 H 0.37822 0.15496 0.53321 0.0
C369 C 0.3916 0.09685 0.70993 0.0
H370 H 0.3551 0.17679 0.6521 0.0
C371 C 0.40546 0.0846 0.64167 0.0
C372 C 0.40287 0.10641 0.57798 0.0
H373 H 0.39821 0.08163 0.75971 0.0
H374 H 0.4228 0.06091 0.6414 0.0
C375 C 0.38038 0.13728 0.58123 0.0
C376 C 0.91187 0.80593 0.12452 0.0
C377 C 0.92715 0.80547 0.1964 0.0
H378 H 0.91905 0.82069 0.00927 0.0
C379 C 0.95793 0.82695 0.2092 0.0
H380 H 0.88887 0.78882 0.11214 0.0
C381 C 0.97541 0.84479 0.15033 0.0
C382 C 0.96248 0.84194 0.07692 0.0
H383 H 0.97095 0.82649 0.26322 0.0
H384 H 0.00114 0.85778 0.16107 0.0
C385 C 0.92931 0.82413 0.06531 0.0
C386 C 0.90714 0.18747 0.90423 0.0
C387 C 0.91684 0.17973 0.82992 0.0
H388 H 0.91947 0.1795 0.02048 0.0
C389 C 0.94153 0.15134 0.81754 0.0
H390 H 0.88918 0.20995 0.91605 0.0
C391 C 0.95938 0.13444 0.87718 0.0
C392 C 0.95274 0.14502 0.95117 0.0
H393 H 0.95039 0.14528 0.76137 0.0
H394 H 0.98089 0.11541 0.865 0.0
C395 C 0.92484 0.1702 0.96432 0.0
C396 C 0.61237 0.17867 0.63223 0.0
C397 C 0.59368 0.17077 0.69839 0.0
H398 H 0.61246 0.17421 0.51306 0.0
C399 C 0.56807 0.14243 0.69653 0.0
H400 H 0.63181 0.20064 0.63116 0.0
C401 C 0.55739 0.12661 0.62858 0.0
C402 C 0.5715 0.13942 0.56082 0.0
H403 H 0.55282 0.1359 0.74625 0.0
H404 H 0.53421 0.10866 0.62848 0.0
C405 C 0.6012 0.16337 0.56411 0.0
C406 C 0.53785 0.83469 0.36199 0.0
C407 C 0.54372 0.8272 0.43803 0.0
H408 H 0.55027 0.82093 0.24821 0.0
C409 C 0.57159 0.80279 0.4563 0.0
H410 H 0.5159 0.85241 0.34571 0.0
C411 C 0.59071 0.784 0.40025 0.0
C412 C 0.58316 0.7897 0.32421 0.0
H413 H 0.57612 0.79544 0.51396 0.0
H414 H 0.60949 0.76291 0.41651 0.0
C415 C 0.5576 0.81655 0.30591 0.0
C416 C 0.63838 0.66147 0.36417 0.0
C417 C 0.63447 0.63854 0.30219 0.0
H418 H 0.62057 0.67337 0.4749 0.0
C419 C 0.61855 0.60407 0.31375 0.0
H420 H 0.65032 0.68814 0.35801 0.0
C421 C 0.60057 0.59595 0.38063 0.0
C422 C 0.59947 0.62154 0.43824 0.0
H423 H 0.61551 0.58543 0.26751 0.0
H424 H 0.58375 0.57193 0.38328 0.0
C425 C 0.62132 0.6528 0.43172 0.0
C426 C 0.64606 0.34148 0.62358 0.0
C427 C 0.62244 0.34933 0.68229 0.0
H428 H 0.65607 0.3466 0.50677 0.0
C429 C 0.59695 0.3774 0.67212 0.0
H430 H 0.66579 0.31996 0.6293 0.0
C431 C 0.59013 0.39163 0.60109 0.0
C432 C 0.60941 0.37864 0.53927 0.0
H433 H 0.57824 0.384 0.71654 0.0
H434 H 0.56682 0.409 0.5936 0.0
C435 C 0.63992 0.35647 0.5528 0.0
C436 C 0.84884 0.36627 0.95053 0.0
C437 C 0.88233 0.3839 0.96164 0.0
H438 H 0.81798 0.33231 0.87741 0.0
C439 C 0.90171 0.39469 0.89822 0.0
H440 H 0.83256 0.35842 0.998 0.0
C441 C 0.89193 0.38116 0.82783 0.0
C442 C 0.86392 0.35534 0.82087 0.0
H443 H 0.92727 0.4087 0.90392 0.0
H444 H 0.91074 0.385 0.78226 0.0
C445 C 0.83998 0.35158 0.88075 0.0
C446 C 0.87288 0.59894 0.19373 0.0
C447 C 0.85956 0.63476 0.19134 0.0
H448 H 0.90521 0.55957 0.13657 0.0
C449 C 0.85155 0.64926 0.12086 0.0
H450 H 0.8788 0.58658 0.2471 0.0
C451 C 0.86583 0.633 0.05637 0.0
C452 C 0.88854 0.60246 0.06226 0.0
H453 H 0.84085 0.67655 0.11648 0.0
H454 H 0.86521 0.64839 1.00497 0.0
C455 C 0.88825 0.58328 0.12983 0.0
C456 C 0.46734 0.33964 0.65497 0.0
C457 C 0.45906 0.33333 0.57954 0.0
H458 H 0.45792 0.32464 0.76909 0.0
C459 C 0.43036 0.30956 0.56318 0.0
H460 H 0.48986 0.35701 0.66954 0.0
C461 C 0.41268 0.29018 0.62036 0.0
C462 C 0.42259 0.29476 0.69552 0.0
H463 H 0.42401 0.30318 0.50575 0.0
H464 H 0.39327 0.26945 0.60527 0.0
C465 C 0.44904 0.32098 0.71215 0.0
C466 C 0.43794 0.63547 0.38397 0.0
C467 C 0.42502 0.64814 0.4529 0.0
H468 H 0.43927 0.64416 0.26574 0.0
C469 C 0.39469 0.67128 0.45232 0.0
H470 H 0.46167 0.61831 0.38207 0.0
C471 C 0.38135 0.6857 0.38515 0.0
C472 C 0.39832 0.67767 0.31708 0.0
H473 H 0.38444 0.68213 0.50428 0.0
H474 H 0.36132 0.7071 0.38781 0.0
C475 C 0.42504 0.65043 0.31686 0.0
C476 C 0.10287 0.69236 0.13145 0.0
C477 C 0.08798 0.68594 0.20225 0.0
H478 H 0.09825 0.68336 0.0138 0.0
C479 C 0.0628 0.65754 0.20944 0.0
H480 H 0.12167 0.71456 0.12359 0.0
C481 C 0.04965 0.63911 0.1461 0.0
C482 C 0.06083 0.64925 0.07406 0.0
H483 H 0.05014 0.65246 0.26282 0.0
H484 H 0.02694 0.62087 0.15287 0.0
C485 C 0.08957 0.67415 0.06824 0.0
C486 C 0.0839 0.28657 0.8921 0.0
C487 C 0.07679 0.29435 0.81669 0.0
H488 H 0.07009 0.29688 1.00659 0.0
C489 C 0.05418 0.32404 0.80069 0.0
H490 H 0.10017 0.26318 0.90653 0.0
C491 C 0.0364 0.34306 0.85823 0.0
C492 C 0.0412 0.33331 0.93342 0.0
H493 H 0.04715 0.33004 0.74346 0.0
H494 H 0.01629 0.36314 0.84347 0.0
C495 C 0.06659 0.30598 0.94967 0.0
C496 C 0.02433 0.28639 0.19655 0.0
C497 C 0.98921 0.27753 0.21943 0.0
H498 H 0.07594 0.26558 0.16802 0.0
C499 C 0.9836 0.24567 0.26027 0.0
H500 H 0.02941 0.31019 0.16289 0.0
C501 C 0.00996 0.21871 0.25832 0.0
C502 C 0.04135 0.22445 0.21624 0.0
H503 H 0.95683 0.2387 0.27993 0.0
H504 H 0.00259 0.19169 0.27563 0.0
C505 C 0.05101 0.26 0.19751 0.0
C506 C 0.00842 0.68405 0.5062 0.0
C507 C 0.9718 0.692 0.49536 0.0
H508 H 0.05783 0.7066 0.4713 0.0
C509 C 0.96026 0.72424 0.52893 0.0
H510 H 0.01823 0.65705 0.49333 0.0
C511 C 0.98369 0.75412 0.52493 0.0
C512 C 0.01861 0.74874 0.49574 0.0
H513 H 0.93202 0.72824 0.54065 0.0
H514 H 0.97288 0.78119 0.53112 0.0
C515 C 0.03229 0.71304 0.49627 0.0
C516 C 0.52276 0.71136 0.7663 0.0
C517 C 0.55205 0.71916 0.71909 0.0
H518 H 0.46715 0.72604 0.78237 0.0
C519 C 0.5612 0.75603 0.71437 0.0
H520 H 0.51793 0.68372 0.78415 0.0
C521 C 0.53226 0.7801 0.70669 0.0
C522 C 0.49718 0.76827 0.72513 0.0
H523 H 0.58683 0.76383 0.69005 0.0
H524 H 0.53666 0.80507 0.67641 0.0
C525 C 0.49347 0.73543 0.76449 0.0
C526 C 0.48851 0.30544 0.9887 0.0
C527 C 0.52451 0.29475 0.98001 0.0
H528 H 0.43814 0.28312 0.95866 0.0
C529 C 0.53446 0.26495 0.02384 0.0
H530 H 0.48019 0.33178 0.96805 0.0
C531 C 0.50964 0.23624 0.02831 0.0
C532 C 0.47517 0.24121 0.99651 0.0
H533 H 0.56253 0.26008 0.03617 0.0
H534 H 0.51928 0.20937 0.04243 0.0
C535 C 0.46329 0.27723 0.98587 0.0
C536 C -0.00502 0.74706 0.75523 0.0
C537 C -0.00524 0.77856 0.79899 0.0
H538 H 0.9732 0.69364 0.74339 0.0
C539 C 0.9632 0.78727 0.83833 0.0
H540 H 0.01828 0.74073 0.72138 0.0
C541 C 0.93674 0.76084 0.84937 0.0
C542 C 0.94307 0.72527 0.82402 0.0
H543 H 0.96169 0.81191 0.87098 0.0
H544 H 0.91585 0.76636 0.89008 0.0
C545 C 0.96882 0.72031 0.76723 0.0
C546 C 0.53072 0.75742 0.01536 0.0
C547 C 0.52256 0.72069 0.02734 0.0
H548 H 0.50902 0.81017 0.99817 0.0
C549 C 0.4887 0.70782 1.00382 0.0
H550 H 0.55569 0.76883 0.03466 0.0
C551 C 0.46143 0.73313 0.98925 0.0
C552 C 0.46792 0.76934 0.00875 0.0
H553 H 0.48187 0.67932 0.00805 0.0
H554 H 0.43438 0.7236 0.9824 0.0
C555 C 0.50314 0.78139 0.99527 0.0
C556 C 0.43721 0.25645 0.33419 0.0
C557 C 0.44725 0.22078 0.31544 0.0
H558 H 0.45921 0.3084 0.36045 0.0
C559 C 0.47455 0.21658 0.26155 0.0
H560 H 0.41419 0.2613 0.37011 0.0
C561 C 0.50036 0.24404 0.25421 0.0
C562 C 0.49694 0.27565 0.29699 0.0
H563 H 0.48103 0.18991 0.23995 0.0
H564 H 0.52541 0.23833 0.22566 0.0
C565 C 0.46321 0.28373 0.32873 0.0
C566 C -0.00314 0.25611 0.47993 0.0
C567 C 0.02751 0.25426 0.52533 0.0
H568 H 0.94285 0.27722 0.478 0.0
C569 C 0.03838 0.2864 0.56083 0.0
H570 H 0.99104 0.23403 0.44248 0.0
C571 C 0.01382 0.31478 0.56858 0.0
C572 C 0.97734 0.30705 0.55421 0.0
H573 H 0.06219 0.28711 0.59553 0.0
H574 H 0.0212 0.33682 0.60555 0.0
C575 C 0.97016 0.28172 0.49743 0.0
C576 C 0.02156 0.99079 0.05181 0.0
C577 C 0.98908 0.00397 0.08019 0.0
H578 H 0.04855 0.97048 0.95566 0.0
C579 C 0.9585 0.0081 0.03569 0.0
H580 H 0.04536 0.98839 0.0866 0.0
C581 C 0.96046 -0.00147 0.96124 0.0
C582 C -0.00714 0.98471 0.93329 0.0
H583 H 0.93352 0.01869 0.05839 0.0
H584 H 0.93683 0.00119 0.9261 0.0
C585 C 0.02339 0.98086 0.97801 0.0
C586 C 0.25507 0.76982 0.30823 0.0
C587 C 0.23128 0.7426 0.33049 0.0
H588 H 0.28673 0.79062 0.21908 0.0
C589 C 0.22141 0.71429 0.28306 0.0
H590 H 0.26199 0.7921 0.34504 0.0
C591 C 0.23557 0.71332 0.21179 0.0
C592 C 0.25934 0.74069 0.18944 0.0
H593 H 0.20299 0.6932 0.30119 0.0
H594 H 0.22818 0.69144 0.17444 0.0
C595 C 0.26914 0.76889 0.2373 0.0
C596 C 0.5291 0.00667 0.46853 0.0
C597 C 0.4985 0.00151 0.42454 0.0
H598 H 0.5526 -0.00207 0.57571 0.0
C599 C 0.46811 0.98327 0.45096 0.0
H600 H 0.55252 0.02097 0.44734 0.0
C601 C 0.46816 0.97027 0.52298 0.0
C602 C 0.49852 0.97593 0.56755 0.0
H603 H 0.44421 0.98007 0.41676 0.0
H604 H 0.44429 0.95693 0.54466 0.0
C605 C 0.52908 0.99384 0.5408 0.0
C606 C 0.27962 0.22658 0.75817 0.0
C607 C 0.2671 0.25193 0.81 0.0
H608 H 0.27176 0.20365 0.65025 0.0
C609 C 0.23921 0.27604 0.79241 0.0
H610 H 0.30059 0.20734 0.77224 0.0
C611 C 0.22251 0.27354 0.72387 0.0
C612 C 0.23411 0.2472 0.6735 0.0
H613 H 0.22971 0.29592 0.83237 0.0
H614 H 0.20029 0.29155 0.71063 0.0
C615 C 0.26312 0.2243 0.68941 0.0
C616 C 0.76178 0.2649 0.81909 0.0
C617 C 0.731 0.24386 0.83066 0.0
H618 H 0.80213 0.28072 0.74168 0.0
C619 C 0.71657 0.2221 0.77448 0.0
H620 H 0.77239 0.28233 0.8625 0.0
C621 C 0.73365 0.22086 0.70613 0.0
C622 C 0.76481 0.24166 0.69462 0.0
H623 H 0.69272 0.20571 0.78401 0.0
H624 H 0.72289 0.20336 0.66297 0.0
C625 C 0.77862 0.26394 0.75075 0.0
C626 C 0.74163 0.73566 0.30951 0.0
C627 C 0.76763 0.76178 0.32614 0.0
H628 H 0.70749 0.71404 0.2257 0.0
C629 C 0.77775 0.78834 0.27502 0.0
H630 H 0.7346 0.71456 0.34903 0.0
C631 C 0.76184 0.78842 0.20539 0.0
C632 C 0.73632 0.76171 0.18804 0.0
H633 H 0.79812 0.80839 0.28861 0.0
H634 H 0.76979 0.80872 0.16494 0.0
C635 C 0.72607 0.73552 0.24 0.0
C636 C 0.52262 0.48738 0.55729 0.0
C637 C 0.49631 0.5113 0.58302 0.0
H638 H 0.54149 0.45714 0.4643 0.0
C639 C 0.4674 0.52209 0.53835 0.0
H640 H 0.54549 0.47989 0.59167 0.0
C641 C 0.46473 0.50857 0.46669 0.0
C642 C 0.49117 0.48463 0.44076 0.0
H643 H 0.44715 0.54083 0.55889 0.0
H644 H 0.44229 0.51666 0.43176 0.0
C645 C 0.52019 0.47426 0.4856 0.0
C646 C 0.02617 0.48296 0.95577 0.0
C647 C -0.00069 0.5076 0.93497 0.0
H648 H 0.04789 0.45148 0.04537 0.0
C649 C 0.97327 0.5194 0.98562 0.0
H650 H 0.04637 0.47378 0.91637 0.0
C651 C 0.97471 0.50768 0.05831 0.0
C652 C 0.00182 0.48363 0.07942 0.0
H653 H 0.9516 0.53711 0.96853 0.0
H654 H 0.95419 0.51647 0.09739 0.0
C655 C 0.02729 0.4707 0.02859 0.0
C656 C 0.09777 0.08051 0.41788 0.0
C657 C 0.10304 0.08147 0.34033 0.0
H658 H 0.10817 0.10683 0.52208 0.0
C659 C 0.12994 0.10397 0.31063 0.0
H660 H 0.07703 0.06351 0.44224 0.0
C661 C 0.14813 0.1283 0.35661 0.0
C662 C 0.13898 0.13094 0.43243 0.0
H663 H 0.13436 0.10525 0.25102 0.0
H664 H 0.1666 0.14745 0.33123 0.0
C665 C 0.11521 0.10558 0.46356 0.0
C666 C 0.11745 0.88219 0.54336 0.0
C667 C 0.14246 0.85778 0.57353 0.0
H668 H 0.07689 0.92167 0.56679 0.0
C669 C 0.15152 0.86005 0.64942 0.0
H670 H 0.11038 0.88111 0.48484 0.0
C671 C 0.13181 0.88252 0.69649 0.0
C672 C 0.1038 0.90369 0.66754 0.0
H673 H 0.17092 0.84162 0.67402 0.0
H674 H 0.13623 0.88089 0.75606 0.0
C675 C 0.09853 0.90552 0.59019 0.0
C676 C 0.37507 0.87288 0.96194 0.0
C677 C 0.35114 0.84734 0.93179 0.0
H678 H 0.41612 0.91204 0.93927 0.0
C679 C 0.34559 0.84622 0.85444 0.0
H680 H 0.37963 0.87423 0.02148 0.0
C681 C 0.36699 0.86714 0.80741 0.0
C682 C 0.39346 0.89008 0.83735 0.0
H683 H 0.32736 0.8266 0.82981 0.0
H684 H 0.36475 0.86334 0.74773 0.0
C685 C 0.39578 0.89458 0.91488 0.0
C686 C 0.37133 0.1318 0.21265 0.0
C687 C 0.39414 0.10516 0.1827 0.0
H688 H 0.33374 0.17424 0.18916 0.0
C689 C 0.39146 0.09625 0.10673 0.0
H690 H 0.3727 0.13891 0.27114 0.0
C691 C 0.36973 0.11682 0.05979 0.0
C692 C 0.34969 0.1458 0.08862 0.0
H693 H 0.40863 0.0757 0.08209 0.0
H694 H 0.37082 0.11195 1.00029 0.0
C695 C 0.34881 0.15174 0.16586 0.0
C696 C 0.92187 0.8381 0.54031 0.0
C697 C 0.90257 0.80976 0.57348 0.0
H698 H 0.95566 0.88437 0.55878 0.0
C699 C 0.90187 0.8063 0.65127 0.0
H700 H 0.9221 0.84142 0.48036 0.0
C701 C 0.92043 0.8308 0.6957 0.0
C702 C 0.9401 0.85892 0.66303 0.0
H703 H 0.88674 0.78468 0.67775 0.0
H704 H 0.91889 0.82818 0.75555 0.0
C705 C 0.94047 0.86276 0.58507 0.0
C706 C 0.93472 0.17744 0.44738 0.0
C707 C 0.90047 0.16595 0.46918 0.0
H708 H 0.98126 0.16696 0.38051 0.0
C709 C 0.88677 0.13307 0.44165 0.0
H710 H 0.94504 0.20255 0.46876 0.0
C711 C 0.90691 0.11275 0.39087 0.0
C712 C 0.94046 0.12563 0.36554 0.0
H713 H 0.86026 0.12358 0.45805 0.0
H714 H 0.89596 0.08741 0.37018 0.0
C715 C 0.95461 0.15767 0.39556 0.0
C716 C 0.5995 0.14248 0.06446 0.0
C717 C 0.59992 0.17984 0.07776 0.0
H718 H 0.5812 0.09066 0.10199 0.0
C719 C 0.58398 0.19394 0.14225 0.0
H720 H 0.61304 0.13117 0.01625 0.0
C721 C 0.56661 0.17097 0.19221 0.0
C722 C 0.56468 0.13362 0.17793 0.0
H723 H 0.58532 0.22273 0.15428 0.0
H724 H 0.55421 0.18248 0.24138 0.0
C725 C 0.58184 0.11945 0.11415 0.0
C726 C 0.55446 0.82108 0.85392 0.0
C727 C 0.5635 0.85689 0.83669 0.0
H728 H 0.57202 0.77123 0.90183 0.0
C729 C 0.59507 0.87222 0.86642 0.0
H730 H 0.52893 0.80974 0.83683 0.0
C731 C 0.61756 0.85137 0.91178 0.0
C732 C 0.60861 0.81514 0.92698 0.0
H733 H 0.60227 0.90013 0.85469 0.0
H734 H 0.64181 0.8634 0.93476 0.0
C735 C 0.57782 0.7998 0.8953 0.0
C736 C 0.62841 0.64011 0.79318 0.0
C737 C 0.60667 0.61251 0.82267 0.0
H738 H 0.66647 0.68203 0.81678 0.0
C739 C 0.61161 0.60156 0.89702 0.0
H740 H 0.62531 0.64878 0.73589 0.0
C741 C 0.63466 0.62091 0.94356 0.0
C742 C 0.65374 0.65077 0.91578 0.0
H743 H 0.59529 0.5802 0.92122 0.0
H744 H 0.63529 0.61444 1.00242 0.0
C745 C 0.65226 0.65881 0.83932 0.0
C746 C 0.58453 0.39948 0.08434 0.0
C747 C 0.59154 0.39991 0.16119 0.0
H748 H 0.59563 0.37359 0.9801 0.0
C749 C 0.62089 0.38033 0.18944 0.0
H750 H 0.56181 0.41425 0.06145 0.0
C751 C 0.64057 0.35758 0.1428 0.0
C752 C 0.6305 0.35346 0.06773 0.0
H753 H 0.62668 0.3803 0.2486 0.0
H754 H 0.66136 0.34074 0.16737 0.0
C755 C 0.60363 0.37599 0.03792 0.0
C756 C 0.89457 0.39454 0.41227 0.0
C757 C 0.89307 0.38958 0.33476 0.0
H758 H 0.88243 0.37191 0.51909 0.0
C759 C 0.87117 0.36203 0.30522 0.0
H760 H 0.91131 0.41554 0.43655 0.0
C761 C 0.85439 0.33731 0.35251 0.0
C762 C 0.8598 0.33956 0.42977 0.0
H763 H 0.86956 0.35772 0.2456 0.0
H764 H 0.8399 0.31469 0.32814 0.0
C765 C 0.87842 0.36935 0.45955 0.0
C766 C 0.87186 0.62689 0.70037 0.0
C767 C 0.8983 0.60333 0.67248 0.0
H768 H 0.83172 0.6663 0.67406 0.0
C769 C 0.90003 0.59644 0.59557 0.0
H770 H 0.86986 0.63232 0.75954 0.0
C771 C 0.87875 0.61635 0.54656 0.0
C772 C 0.85487 0.64256 0.57414 0.0
H773 H 0.92016 0.57827 0.57265 0.0
H774 H 0.883 0.6133 0.48717 0.0
C775 C 0.84986 0.64605 0.65141 0.0
C776 C 0.39448 0.37078 0.151 0.0
C777 C 0.42622 0.35689 0.18286 0.0
H778 H 0.3494 0.36012 0.07928 0.0
C779 C 0.43682 0.32125 0.16727 0.0
H780 H 0.38603 0.39845 0.16163 0.0
C781 C 0.41568 0.29938 0.12208 0.0
C782 C 0.38469 0.31351 0.0885 0.0
H783 H 0.46214 0.31074 0.18743 0.0
H784 H 0.42365 0.27145 0.11304 0.0
C785 C 0.37368 0.34907 0.1041 0.0
C786 C 0.38296 0.68087 0.84638 0.0
C787 C 0.38279 0.67643 0.92415 0.0
H788 H 0.40771 0.66603 0.74272 0.0
C789 C 0.40638 0.6516 0.95721 0.0
H790 H 0.36516 0.70031 0.81995 0.0
C791 C 0.4301 0.63163 0.91309 0.0
C792 C 0.43123 0.63692 0.83546 0.0
H793 H 0.40681 0.64806 0.01711 0.0
H794 H 0.44842 0.61288 0.9401 0.0
C795 C 0.4074 0.6616 0.80235 0.0
C796 C 0.08828 0.70068 0.66306 0.0
C797 C 0.10887 0.68564 0.60534 0.0
H798 H 0.05242 0.69019 0.75414 0.0
C799 C 0.11025 0.64807 0.59581 0.0
H800 H 0.08757 0.72979 0.67152 0.0
C801 C 0.09 0.6256 0.64208 0.0
C802 C 0.06831 0.64049 0.69891 0.0
H803 H 0.12659 0.63618 0.55208 0.0
H804 H 0.09079 0.59661 0.6322 0.0
C805 C 0.0684 0.67816 0.71018 0.0
C806 C 0.0847 0.33106 0.29804 0.0
C807 C 0.06214 0.35594 0.33429 0.0
H808 H 0.12315 0.28806 0.31047 0.0
C809 C 0.06367 0.35899 0.41225 0.0
H810 H 0.08515 0.32943 0.23788 0.0
C811 C 0.08592 0.33606 0.45353 0.0
C812 C 0.10662 0.30955 0.41759 0.0
H813 H 0.04695 0.37847 0.44151 0.0
H814 H 0.08677 0.33887 0.51351 0.0
C815 C 0.10677 0.30792 0.33944 0.0
loop_
_geom_bond_atom_site_label_1
_geom_bond_atom_site_label_2
_geom_bond_distance
_geom_bond_site_symmetry_2
_ccdc_geom_bond_type
O0 Mg1 1.990 . S
O0 C14 1.253 . S
Mg1 O0 1.990 . S
Mg1 O4 2.180 . S
Mg1 O5 2.117 . S
Mg1 O19 2.030 1_455 S
O2 Mg3 2.072 . S
O2 C14 1.260 . S
Mg3 O2 2.072 . S
Mg3 O4 2.099 . S
Mg3 O6 2.079 1_455 S
Mg3 O7 2.072 . S
Mg3 O9 2.099 . S
Mg3 O20 2.079 1_455 S
O4 Mg1 2.180 . S
O4 Mg3 2.099 . S
O4 C15 1.279 . S
O5 Mg1 2.117 . S
O5 C15 1.250 . S
O6 Mg3 2.079 1_655 S
O6 C16 1.264 1_554 S
O7 Mg3 2.072 . S
O7 C17 1.260 1_554 S
Mg8 O9 2.180 1_556 S
Mg8 O10 2.030 1_455 S
Mg8 O11 1.990 . S
Mg8 O12 2.117 1_556 S
O9 Mg3 2.099 . S
O9 Mg8 2.180 1_554 S
O9 C18 1.279 . S
O10 Mg8 2.030 1_655 S
O10 C16 1.248 . S
O11 Mg8 1.990 . S
O11 C17 1.253 . S
O12 Mg8 2.117 1_554 S
O12 C18 1.250 . S
C13 O19 1.248 . S
C13 O20 1.264 . S
C14 O0 1.253 . S
C14 O2 1.260 . S
C15 O4 1.279 . S
C15 O5 1.250 . S
C16 O6 1.264 1_556 S
C16 O10 1.248 . S
C17 O7 1.260 1_556 S
C17 O11 1.253 . S
C18 O9 1.279 . S
C18 O12 1.250 . S
O19 Mg1 2.030 1_655 S
O19 C13 1.248 . S
O20 Mg3 2.079 1_655 S
O20 C13 1.264 . S
O21 Mg22 1.990 . S
O21 C35 1.253 . S
Mg22 O21 1.990 . S
Mg22 O25 2.180 . S
Mg22 O26 2.117 . S
Mg22 O40 2.030 . S
O23 Mg24 2.072 . S
O23 C35 1.260 . S
Mg24 O23 2.072 . S
Mg24 O25 2.099 . S
Mg24 O27 2.079 . S
Mg24 O28 2.072 . S
Mg24 O30 2.099 . S
Mg24 O41 2.079 . S
O25 Mg22 2.180 . S
O25 Mg24 2.099 . S
O25 C36 1.279 . S
O26 Mg22 2.117 . S
O26 C36 1.250 . S
O27 Mg24 2.079 . S
O27 C37 1.264 . S
O28 Mg24 2.072 . S
O28 C38 1.260 . S
Mg29 O30 2.180 . S
Mg29 O31 2.030 . S
Mg29 O32 1.990 . S
Mg29 O33 2.117 . S
O30 Mg24 2.099 . S
O30 Mg29 2.180 . S
O30 C39 1.279 . S
O31 Mg29 2.030 . S
O31 C37 1.248 . S
O32 Mg29 1.990 . S
O32 C38 1.253 . S
O33 Mg29 2.117 . S
O33 C39 1.250 . S
C34 O40 1.248 . S
C34 O41 1.264 . S
C35 O21 1.253 . S
C35 O23 1.260 . S
C36 O25 1.279 . S
C36 O26 1.250 . S
C37 O27 1.264 . S
C37 O31 1.248 . S
C38 O28 1.260 . S
C38 O32 1.253 . S
C39 O30 1.279 . S
C39 O33 1.250 . S
O40 Mg22 2.030 . S
O40 C34 1.248 . S
O41 Mg24 2.079 . S
O41 C34 1.264 . S
O42 Mg43 1.990 . S
O42 C56 1.253 . S
Mg43 O42 1.990 . S
Mg43 O46 2.180 . S
Mg43 O47 2.117 . S
Mg43 O61 2.030 . S
O44 Mg45 2.072 . S
O44 C56 1.260 . S
Mg45 O44 2.072 . S
Mg45 O46 2.099 . S
Mg45 O48 2.079 . S
Mg45 O49 2.072 . S
Mg45 O51 2.099 . S
Mg45 O62 2.079 . S
O46 Mg43 2.180 . S
O46 Mg45 2.099 . S
O46 C57 1.279 . S
O47 Mg43 2.117 . S
O47 C57 1.250 . S
O48 Mg45 2.079 . S
O48 C58 1.264 . S
O49 Mg45 2.072 . S
O49 C59 1.260 . S
Mg50 O51 2.180 . S
Mg50 O52 2.030 . S
Mg50 O53 1.990 . S
Mg50 O54 2.117 . S
O51 Mg45 2.099 . S
O51 Mg50 2.180 . S
O51 C60 1.279 . S
O52 Mg50 2.030 . S
O52 C58 1.248 . S
O53 Mg50 1.990 . S
O53 C59 1.253 . S
O54 Mg50 2.117 . S
O54 C60 1.250 . S
C55 O61 1.248 . S
C55 O62 1.264 . S
C56 O42 1.253 . S
C56 O44 1.260 . S
C57 O46 1.279 . S
C57 O47 1.250 . S
C58 O48 1.264 . S
C58 O52 1.248 . S
C59 O49 1.260 . S
C59 O53 1.253 . S
C60 O51 1.279 . S
C60 O54 1.250 . S
O61 Mg43 2.030 . S
O61 C55 1.248 . S
O62 Mg45 2.079 . S
O62 C55 1.264 . S
O63 Mg64 1.990 . S
O63 C77 1.253 . S
Mg64 O63 1.990 . S
Mg64 O67 2.180 1_554 S
Mg64 O68 2.117 1_554 S
Mg64 O82 2.030 . S
O65 Mg66 2.072 . S
O65 C77 1.260 1_556 S
Mg66 O65 2.072 . S
Mg66 O67 2.099 . S
Mg66 O69 2.079 . S
Mg66 O70 2.072 . S
Mg66 O72 2.099 . S
Mg66 O83 2.079 . S
O67 Mg64 2.180 1_556 S
O67 Mg66 2.099 . S
O67 C78 1.279 . S
O68 Mg64 2.117 1_556 S
O68 C78 1.250 . S
O69 Mg66 2.079 . S
O69 C79 1.264 . S
O70 Mg66 2.072 . S
O70 C80 1.260 . S
Mg71 O72 2.180 . S
Mg71 O73 2.030 . S
Mg71 O74 1.990 . S
Mg71 O75 2.117 . S
O72 Mg66 2.099 . S
O72 Mg71 2.180 . S
O72 C81 1.279 . S
O73 Mg71 2.030 . S
O73 C79 1.248 . S
O74 Mg71 1.990 . S
O74 C80 1.253 . S
O75 Mg71 2.117 . S
O75 C81 1.250 . S
C76 O82 1.248 . S
C76 O83 1.264 1_554 S
C77 O63 1.253 . S
C77 O65 1.260 1_554 S
C78 O67 1.279 . S
C78 O68 1.250 . S
C79 O69 1.264 . S
C79 O73 1.248 . S
C80 O70 1.260 . S
C80 O74 1.253 . S
C81 O72 1.279 . S
C81 O75 1.250 . S
O82 Mg64 2.030 . S
O82 C76 1.248 . S
O83 Mg66 2.079 . S
O83 C76 1.264 1_556 S
O84 Mg85 1.990 . S
O84 C98 1.253 . S
Mg85 O84 1.990 . S
Mg85 O88 2.180 . S
Mg85 O89 2.117 . S
Mg85 O103 2.030 1_455 S
O86 Mg87 2.072 . S
O86 C98 1.260 . S
Mg87 O86 2.072 . S
Mg87 O88 2.099 . S
Mg87 O90 2.079 1_455 S
Mg87 O91 2.072 . S
Mg87 O93 2.099 . S
Mg87 O104 2.079 1_455 S
O88 Mg85 2.180 . S
O88 Mg87 2.099 . S
O88 C99 1.279 . S
O89 Mg85 2.117 . S
O89 C99 1.250 . S
O90 Mg87 2.079 1_655 S
O90 C100 1.264 1_556 S
O91 Mg87 2.072 . S
O91 C101 1.260 1_556 S
Mg92 O93 2.180 1_554 S
Mg92 O94 2.030 1_455 S
Mg92 O95 1.990 . S
Mg92 O96 2.117 1_554 S
O93 Mg87 2.099 . S
O93 Mg92 2.180 1_556 S
O93 C102 1.279 . S
O94 Mg92 2.030 1_655 S
O94 C100 1.248 . S
O95 Mg92 1.990 . S
O95 C101 1.253 . S
O96 Mg92 2.117 1_556 S
O96 C102 1.250 . S
C97 O103 1.248 . S
C97 O104 1.264 . S
C98 O84 1.253 . S
C98 O86 1.260 . S
C99 O88 1.279 . S
C99 O89 1.250 . S
C100 O90 1.264 1_554 S
C100 O94 1.248 . S
C101 O91 1.260 1_554 S
C101 O95 1.253 . S
C102 O93 1.279 . S
C102 O96 1.250 . S
O103 Mg85 2.030 1_655 S
O103 C97 1.248 . S
O104 Mg87 2.079 1_655 S
O104 C97 1.264 . S
O105 Mg106 1.990 . S
O105 C119 1.253 . S
Mg106 O105 1.990 . S
Mg106 O109 2.180 1_556 S
Mg106 O110 2.117 1_556 S
Mg106 O124 2.030 . S
O107 Mg108 2.072 . S
O107 C119 1.260 1_554 S
Mg108 O107 2.072 . S
Mg108 O109 2.099 . S
Mg108 O111 2.079 . S
Mg108 O112 2.072 . S
Mg108 O114 2.099 . S
Mg108 O125 2.079 . S
O109 Mg106 2.180 1_554 S
O109 Mg108 2.099 . S
O109 C120 1.279 . S
O110 Mg106 2.117 1_554 S
O110 C120 1.250 . S
O111 Mg108 2.079 . S
O111 C121 1.264 . S
O112 Mg108 2.072 . S
O112 C122 1.260 . S
Mg113 O114 2.180 . S
Mg113 O115 2.030 . S
Mg113 O116 1.990 . S
Mg113 O117 2.117 . S
O114 Mg108 2.099 . S
O114 Mg113 2.180 . S
O114 C123 1.279 . S
O115 Mg113 2.030 . S
O115 C121 1.248 . S
O116 Mg113 1.990 . S
O116 C122 1.253 . S
O117 Mg113 2.117 . S
O117 C123 1.250 . S
C118 O124 1.248 . S
C118 O125 1.264 1_556 S
C119 O105 1.253 . S
C119 O107 1.260 1_556 S
C120 O109 1.279 . S
C120 O110 1.250 . S
C121 O111 1.264 . S
C121 O115 1.248 . S
C122 O112 1.260 . S
C122 O116 1.253 . S
C123 O114 1.279 . S
C123 O117 1.250 . S
O124 Mg106 2.030 . S
O124 C118 1.248 . S
O125 Mg108 2.079 . S
O125 C118 1.264 1_554 S
O126 Mg127 1.990 . S
O126 C140 1.253 . S
Mg127 O126 1.990 . S
Mg127 O130 2.180 . S
Mg127 O131 2.117 . S
Mg127 O145 2.030 . S
O128 Mg129 2.072 . S
O128 C140 1.260 . S
Mg129 O128 2.072 . S
Mg129 O130 2.099 . S
Mg129 O132 2.079 . S
Mg129 O133 2.072 . S
Mg129 O135 2.099 . S
Mg129 O146 2.079 . S
O130 Mg127 2.180 . S
O130 Mg129 2.099 . S
O130 C141 1.279 . S
O131 Mg127 2.117 . S
O131 C141 1.250 . S
O132 Mg129 2.079 . S
O132 C142 1.264 . S
O133 Mg129 2.072 . S
O133 C143 1.260 . S
Mg134 O135 2.180 . S
Mg134 O136 2.030 . S
Mg134 O137 1.990 . S
Mg134 O138 2.117 . S
O135 Mg129 2.099 . S
O135 Mg134 2.180 . S
O135 C144 1.279 . S
O136 Mg134 2.030 . S
O136 C142 1.248 . S
O137 Mg134 1.990 . S
O137 C143 1.253 . S
O138 Mg134 2.117 . S
O138 C144 1.250 . S
C139 O145 1.248 . S
C139 O146 1.264 . S
C140 O126 1.253 . S
C140 O128 1.260 . S
C141 O130 1.279 . S
C141 O131 1.250 . S
C142 O132 1.264 . S
C142 O136 1.248 . S
C143 O133 1.260 . S
C143 O137 1.253 . S
C144 O135 1.279 . S
C144 O138 1.250 . S
O145 Mg127 2.030 . S
O145 C139 1.248 . S
O146 Mg129 2.079 . S
O146 C139 1.264 . S
O147 Mg148 1.990 . S
O147 C161 1.253 . S
Mg148 O147 1.990 . S
Mg148 O151 2.180 . S
Mg148 O152 2.117 . S
Mg148 O166 2.030 . S
O149 Mg150 2.072 . S
O149 C161 1.260 . S
Mg150 O149 2.072 . S
Mg150 O151 2.099 . S
Mg150 O153 2.079 . S
Mg150 O154 2.072 . S
Mg150 O156 2.099 . S
Mg150 O167 2.079 . S
O151 Mg148 2.180 . S
O151 Mg150 2.099 . S
O151 C162 1.279 . S
O152 Mg148 2.117 . S
O152 C162 1.250 . S
O153 Mg150 2.079 . S
O153 C163 1.264 . S
O154 Mg150 2.072 . S
O154 C164 1.260 . S
Mg155 O156 2.180 . S
Mg155 O157 2.030 . S
Mg155 O158 1.990 . S
Mg155 O159 2.117 . S
O156 Mg150 2.099 . S
O156 Mg155 2.180 . S
O156 C165 1.279 . S
O157 Mg155 2.030 . S
O157 C163 1.248 . S
O158 Mg155 1.990 . S
O158 C164 1.253 . S
O159 Mg155 2.117 . S
O159 C165 1.250 . S
C160 O166 1.248 . S
C160 O167 1.264 . S
C161 O147 1.253 . S
C161 O149 1.260 . S
C162 O151 1.279 . S
C162 O152 1.250 . S
C163 O153 1.264 . S
C163 O157 1.248 . S
C164 O154 1.260 . S
C164 O158 1.253 . S
C165 O156 1.279 . S
C165 O159 1.250 . S
O166 Mg148 2.030 . S
O166 C160 1.248 . S
O167 Mg150 2.079 . S
O167 C160 1.264 . S
O168 Mg169 1.990 . S
O168 C182 1.253 . S
Mg169 O168 1.990 . S
Mg169 O172 2.180 . S
Mg169 O173 2.117 . S
Mg169 O187 2.030 . S
O170 Mg171 2.072 . S
O170 C182 1.260 . S
Mg171 O170 2.072 . S
Mg171 O172 2.099 . S
Mg171 O174 2.079 . S
Mg171 O175 2.072 . S
Mg171 O177 2.099 . S
Mg171 O188 2.079 . S
O172 Mg169 2.180 . S
O172 Mg171 2.099 . S
O172 C183 1.279 . S
O173 Mg169 2.117 . S
O173 C183 1.250 . S
O174 Mg171 2.079 . S
O174 C184 1.264 . S
O175 Mg171 2.072 . S
O175 C185 1.260 . S
Mg176 O177 2.180 . S
Mg176 O178 2.030 . S
Mg176 O179 1.990 . S
Mg176 O180 2.117 . S
O177 Mg171 2.099 . S
O177 Mg176 2.180 . S
O177 C186 1.279 . S
O178 Mg176 2.030 . S
O178 C184 1.248 . S
O179 Mg176 1.990 . S
O179 C185 1.253 . S
O180 Mg176 2.117 . S
O180 C186 1.250 . S
C181 O187 1.248 . S
C181 O188 1.264 . S
C182 O168 1.253 . S
C182 O170 1.260 . S
C183 O172 1.279 . S
C183 O173 1.250 . S
C184 O174 1.264 . S
C184 O178 1.248 . S
C185 O175 1.260 . S
C185 O179 1.253 . S
C186 O177 1.279 . S
C186 O180 1.250 . S
O187 Mg169 2.030 . S
O187 C181 1.248 . S
O188 Mg171 2.079 . S
O188 C181 1.264 . S
O189 Mg190 1.990 . S
O189 C203 1.253 . S
Mg190 O189 1.990 . S
Mg190 O193 2.180 . S
Mg190 O194 2.117 . S
Mg190 O208 2.030 . S
O191 Mg192 2.072 . S
O191 C203 1.260 . S
Mg192 O191 2.072 . S
Mg192 O193 2.099 . S
Mg192 O195 2.079 . S
Mg192 O196 2.072 . S
Mg192 O198 2.099 . S
Mg192 O209 2.079 . S
O193 Mg190 2.180 . S
O193 Mg192 2.099 . S
O193 C204 1.279 . S
O194 Mg190 2.117 . S
O194 C204 1.250 . S
O195 Mg192 2.079 . S
O195 C205 1.264 1_554 S
O196 Mg192 2.072 . S
O196 C206 1.260 1_554 S
Mg197 O198 2.180 1_556 S
Mg197 O199 2.030 . S
Mg197 O200 1.990 . S
Mg197 O201 2.117 1_556 S
O198 Mg192 2.099 . S
O198 Mg197 2.180 1_554 S
O198 C207 1.279 . S
O199 Mg197 2.030 . S
O199 C205 1.248 . S
O200 Mg197 1.990 . S
O200 C206 1.253 . S
O201 Mg197 2.117 1_554 S
O201 C207 1.250 . S
C202 O208 1.248 . S
C202 O209 1.264 . S
C203 O189 1.253 . S
C203 O191 1.260 . S
C204 O193 1.279 . S
C204 O194 1.250 . S
C205 O195 1.264 1_556 S
C205 O199 1.248 . S
C206 O196 1.260 1_556 S
C206 O200 1.253 . S
C207 O198 1.279 . S
C207 O201 1.250 . S
O208 Mg190 2.030 . S
O208 C202 1.248 . S
O209 Mg192 2.079 . S
O209 C202 1.264 . S
O210 Mg211 1.990 . S
O210 C224 1.253 . S
Mg211 O210 1.990 . S
Mg211 O214 2.180 . S
Mg211 O215 2.117 . S
Mg211 O229 2.030 . S
O212 Mg213 2.072 . S
O212 C224 1.260 . S
Mg213 O212 2.072 . S
Mg213 O214 2.099 . S
Mg213 O216 2.079 . S
Mg213 O217 2.072 . S
Mg213 O219 2.099 . S
Mg213 O230 2.079 . S
O214 Mg211 2.180 . S
O214 Mg213 2.099 . S
O214 C225 1.279 . S
O215 Mg211 2.117 . S
O215 C225 1.250 . S
O216 Mg213 2.079 . S
O216 C226 1.264 1_556 S
O217 Mg213 2.072 . S
O217 C227 1.260 1_556 S
Mg218 O219 2.180 1_554 S
Mg218 O220 2.030 . S
Mg218 O221 1.990 . S
Mg218 O222 2.117 1_554 S
O219 Mg213 2.099 . S
O219 Mg218 2.180 1_556 S
O219 C228 1.279 . S
O220 Mg218 2.030 . S
O220 C226 1.248 . S
O221 Mg218 1.990 . S
O221 C227 1.253 . S
O222 Mg218 2.117 1_556 S
O222 C228 1.250 . S
C223 O229 1.248 . S
C223 O230 1.264 . S
C224 O210 1.253 . S
C224 O212 1.260 . S
C225 O214 1.279 . S
C225 O215 1.250 . S
C226 O216 1.264 1_554 S
C226 O220 1.248 . S
C227 O217 1.260 1_554 S
C227 O221 1.253 . S
C228 O219 1.279 . S
C228 O222 1.250 . S
O229 Mg211 2.030 . S
O229 C223 1.248 . S
O230 Mg213 2.079 . S
O230 C223 1.264 . S
O231 Mg232 1.990 . S
O231 C245 1.253 . S
Mg232 O231 1.990 . S
Mg232 O235 2.180 . S
Mg232 O236 2.117 . S
Mg232 O250 2.030 . S
O233 Mg234 2.072 . S
O233 C245 1.260 . S
Mg234 O233 2.072 . S
Mg234 O235 2.099 . S
Mg234 O237 2.079 . S
Mg234 O238 2.072 . S
Mg234 O240 2.099 . S
Mg234 O251 2.079 . S
O235 Mg232 2.180 . S
O235 Mg234 2.099 . S
O235 C246 1.279 . S
O236 Mg232 2.117 . S
O236 C246 1.250 . S
O237 Mg234 2.079 . S
O237 C247 1.264 . S
O238 Mg234 2.072 . S
O238 C248 1.260 . S
Mg239 O240 2.180 . S
Mg239 O241 2.030 . S
Mg239 O242 1.990 . S
Mg239 O243 2.117 . S
O240 Mg234 2.099 . S
O240 Mg239 2.180 . S
O240 C249 1.279 . S
O241 Mg239 2.030 . S
O241 C247 1.248 . S
O242 Mg239 1.990 . S
O242 C248 1.253 . S
O243 Mg239 2.117 . S
O243 C249 1.250 . S
C244 O250 1.248 . S
C244 O251 1.264 . S
C245 O231 1.253 . S
C245 O233 1.260 . S
C246 O235 1.279 . S
C246 O236 1.250 . S
C247 O237 1.264 . S
C247 O241 1.248 . S
C248 O238 1.260 . S
C248 O242 1.253 . S
C249 O240 1.279 . S
C249 O243 1.250 . S
O250 Mg232 2.030 . S
O250 C244 1.248 . S
O251 Mg234 2.079 . S
O251 C244 1.264 . S
O252 Mg253 1.990 . S
O252 C266 1.253 . S
Mg253 O252 1.990 . S
Mg253 O256 2.180 . S
Mg253 O257 2.117 . S
Mg253 O271 2.030 . S
O254 Mg255 2.072 . S
O254 C266 1.260 . S
Mg255 O254 2.072 . S
Mg255 O256 2.099 . S
Mg255 O258 2.079 . S
Mg255 O259 2.072 . S
Mg255 O261 2.099 . S
Mg255 O272 2.079 . S
O256 Mg253 2.180 . S
O256 Mg255 2.099 . S
O256 C267 1.279 . S
O257 Mg253 2.117 . S
O257 C267 1.250 . S
O258 Mg255 2.079 . S
O258 C268 1.264 . S
O259 Mg255 2.072 . S
O259 C269 1.260 . S
Mg260 O261 2.180 . S
Mg260 O262 2.030 . S
Mg260 O263 1.990 . S
Mg260 O264 2.117 . S
O261 Mg255 2.099 . S
O261 Mg260 2.180 . S
O261 C270 1.279 . S
O262 Mg260 2.030 . S
O262 C268 1.248 . S
O263 Mg260 1.990 . S
O263 C269 1.253 . S
O264 Mg260 2.117 . S
O264 C270 1.250 . S
C265 O271 1.248 . S
C265 O272 1.264 . S
C266 O252 1.253 . S
C266 O254 1.260 . S
C267 O256 1.279 . S
C267 O257 1.250 . S
C268 O258 1.264 . S
C268 O262 1.248 . S
C269 O259 1.260 . S
C269 O263 1.253 . S
C270 O261 1.279 . S
C270 O264 1.250 . S
O271 Mg253 2.030 . S
O271 C265 1.248 . S
O272 Mg255 2.079 . S
O272 C265 1.264 . S
O273 Mg274 1.990 1_655 S
O273 C287 1.253 . S
Mg274 O273 1.990 1_455 S
Mg274 O277 2.180 . S
Mg274 O278 2.117 1_455 S
Mg274 O292 2.030 . S
O275 Mg276 2.072 1_655 S
O275 C287 1.260 . S
Mg276 O275 2.072 1_455 S
Mg276 O277 2.099 . S
Mg276 O279 2.079 . S
Mg276 O280 2.072 1_455 S
Mg276 O282 2.099 . S
Mg276 O293 2.079 . S
O277 Mg274 2.180 . S
O277 Mg276 2.099 . S
O277 C288 1.279 1_455 S
O278 Mg274 2.117 1_655 S
O278 C288 1.250 . S
O279 Mg276 2.079 . S
O279 C289 1.264 1_554 S
O280 Mg276 2.072 1_655 S
O280 C290 1.260 1_554 S
Mg281 O282 2.180 1_556 S
Mg281 O283 2.030 . S
Mg281 O284 1.990 1_455 S
Mg281 O285 2.117 1_456 S
O282 Mg276 2.099 . S
O282 Mg281 2.180 1_554 S
O282 C291 1.279 1_455 S
O283 Mg281 2.030 . S
O283 C289 1.248 . S
O284 Mg281 1.990 1_655 S
O284 C290 1.253 . S
O285 Mg281 2.117 1_654 S
O285 C291 1.250 . S
C286 O292 1.248 . S
C286 O293 1.264 . S
C287 O273 1.253 . S
C287 O275 1.260 . S
C288 O277 1.279 1_655 S
C288 O278 1.250 . S
C289 O279 1.264 1_556 S
C289 O283 1.248 . S
C290 O280 1.260 1_556 S
C290 O284 1.253 . S
C291 O282 1.279 1_655 S
C291 O285 1.250 . S
O292 Mg274 2.030 . S
O292 C286 1.248 . S
O293 Mg276 2.079 . S
O293 C286 1.264 . S
O294 Mg295 1.990 . S
O294 C308 1.253 . S
Mg295 O294 1.990 . S
Mg295 O298 2.180 . S
Mg295 O299 2.117 . S
Mg295 O313 2.030 . S
O296 Mg297 2.072 . S
O296 C308 1.260 . S
Mg297 O296 2.072 . S
Mg297 O298 2.099 . S
Mg297 O300 2.079 . S
Mg297 O301 2.072 . S
Mg297 O303 2.099 . S
Mg297 O314 2.079 . S
O298 Mg295 2.180 . S
O298 Mg297 2.099 . S
O298 C309 1.279 . S
O299 Mg295 2.117 . S
O299 C309 1.250 . S
O300 Mg297 2.079 . S
O300 C310 1.264 . S
O301 Mg297 2.072 . S
O301 C311 1.260 . S
Mg302 O303 2.180 . S
Mg302 O304 2.030 . S
Mg302 O305 1.990 . S
Mg302 O306 2.117 . S
O303 Mg297 2.099 . S
O303 Mg302 2.180 . S
O303 C312 1.279 . S
O304 Mg302 2.030 . S
O304 C310 1.248 . S
O305 Mg302 1.990 . S
O305 C311 1.253 . S
O306 Mg302 2.117 . S
O306 C312 1.250 . S
C307 O313 1.248 . S
C307 O314 1.264 . S
C308 O294 1.253 . S
C308 O296 1.260 . S
C309 O298 1.279 . S
C309 O299 1.250 . S
C310 O300 1.264 . S
C310 O304 1.248 . S
C311 O301 1.260 . S
C311 O305 1.253 . S
C312 O303 1.279 . S
C312 O306 1.250 . S
O313 Mg295 2.030 . S
O313 C307 1.248 . S
O314 Mg297 2.079 . S
O314 C307 1.264 . S
O315 Mg316 1.990 1_655 S
O315 C329 1.253 . S
Mg316 O315 1.990 1_455 S
Mg316 O319 2.180 . S
Mg316 O320 2.117 1_455 S
Mg316 O334 2.030 . S
O317 Mg318 2.072 1_655 S
O317 C329 1.260 . S
Mg318 O317 2.072 1_455 S
Mg318 O319 2.099 . S
Mg318 O321 2.079 . S
Mg318 O322 2.072 1_455 S
Mg318 O324 2.099 . S
Mg318 O335 2.079 . S
O319 Mg316 2.180 . S
O319 Mg318 2.099 . S
O319 C330 1.279 1_455 S
O320 Mg316 2.117 1_655 S
O320 C330 1.250 . S
O321 Mg318 2.079 . S
O321 C331 1.264 1_556 S
O322 Mg318 2.072 1_655 S
O322 C332 1.260 1_556 S
Mg323 O324 2.180 1_554 S
Mg323 O325 2.030 . S
Mg323 O326 1.990 1_455 S
Mg323 O327 2.117 1_454 S
O324 Mg318 2.099 . S
O324 Mg323 2.180 1_556 S
O324 C333 1.279 1_455 S
O325 Mg323 2.030 . S
O325 C331 1.248 . S
O326 Mg323 1.990 1_655 S
O326 C332 1.253 . S
O327 Mg323 2.117 1_656 S
O327 C333 1.250 . S
C328 O334 1.248 . S
C328 O335 1.264 . S
C329 O315 1.253 . S
C329 O317 1.260 . S
C330 O319 1.279 1_655 S
C330 O320 1.250 . S
C331 O321 1.264 1_554 S
C331 O325 1.248 . S
C332 O322 1.260 1_554 S
C332 O326 1.253 . S
C333 O324 1.279 1_655 S
C333 O327 1.250 . S
O334 Mg316 2.030 . S
O334 C328 1.248 . S
O335 Mg318 2.079 . S
O335 C328 1.264 . S
C336 C337 1.387 . S
C336 H340 0.950 . S
C336 C345 1.390 . S
C337 C336 1.387 . S
C337 C339 1.387 . S
H338 C345 0.950 . S
C339 C337 1.387 . S
C339 C341 1.390 . S
C339 H343 0.950 . S
H340 C336 0.950 . S
C341 C339 1.390 . S
C341 C342 1.387 . S
C341 H344 0.950 . S
C342 C341 1.387 . S
C342 C345 1.387 . S
H343 C339 0.950 . S
H344 C341 0.950 . S
C345 C336 1.390 . S
C345 H338 0.950 . S
C345 C342 1.387 . S
C346 C347 1.387 . S
C346 H350 0.950 . S
C346 C355 1.390 . S
C347 C346 1.387 . S
C347 C349 1.387 . S
H348 C355 0.950 . S
C349 C347 1.387 . S
C349 C351 1.390 . S
C349 H353 0.950 . S
H350 C346 0.950 . S
C351 C349 1.390 . S
C351 C352 1.387 . S
C351 H354 0.950 . S
C352 C351 1.387 . S
C352 C355 1.387 . S
H353 C349 0.950 . S
H354 C351 0.950 . S
C355 C346 1.390 . S
C355 H348 0.950 . S
C355 C352 1.387 . S
C356 C357 1.387 . S
C356 H360 0.950 . S
C356 C365 1.390 . S
C357 C356 1.387 . S
C357 C359 1.387 . S
H358 C365 0.950 . S
C359 C357 1.387 . S
C359 C361 1.390 . S
C359 H363 0.950 . S
H360 C356 0.950 . S
C361 C359 1.390 . S
C361 C362 1.387 . S
C361 H364 0.950 . S
C362 C361 1.387 . S
C362 C365 1.387 . S
H363 C359 0.950 . S
H364 C361 0.950 . S
C365 C356 1.390 . S
C365 H358 0.950 . S
C365 C362 1.387 . S
C366 C367 1.387 . S
C366 H370 0.950 . S
C366 C375 1.390 . S
C367 C366 1.387 . S
C367 C369 1.387 . S
H368 C375 0.950 . S
C369 C367 1.387 . S
C369 C371 1.390 . S
C369 H373 0.950 . S
H370 C366 0.950 . S
C371 C369 1.390 . S
C371 C372 1.387 . S
C371 H374 0.950 . S
C372 C371 1.387 . S
C372 C375 1.387 . S
H373 C369 0.950 . S
H374 C371 0.950 . S
C375 C366 1.390 . S
C375 H368 0.950 . S
C375 C372 1.387 . S
C376 C377 1.387 . S
C376 H380 0.950 . S
C376 C385 1.390 . S
C377 C376 1.387 . S
C377 C379 1.387 . S
H378 C385 0.950 . S
C379 C377 1.387 . S
C379 C381 1.390 . S
C379 H383 0.950 . S
H380 C376 0.950 . S
C381 C379 1.390 . S
C381 C382 1.387 . S
C381 H384 0.950 . S
C382 C381 1.387 . S
C382 C385 1.387 . S
H383 C379 0.950 . S
H384 C381 0.950 . S
C385 C376 1.390 . S
C385 H378 0.950 . S
C385 C382 1.387 . S
C386 C387 1.387 . S
C386 H390 0.950 . S
C386 C395 1.390 . S
C387 C386 1.387 . S
C387 C389 1.387 . S
H388 C395 0.950 . S
C389 C387 1.387 . S
C389 C391 1.390 . S
C389 H393 0.950 . S
H390 C386 0.950 . S
C391 C389 1.390 . S
C391 C392 1.387 . S
C391 H394 0.950 . S
C392 C391 1.387 . S
C392 C395 1.387 . S
H393 C389 0.950 . S
H394 C391 0.950 . S
C395 C386 1.390 . S
C395 H388 0.950 . S
C395 C392 1.387 . S
C396 C397 1.387 . S
C396 H400 0.950 . S
C396 C405 1.390 . S
C397 C396 1.387 . S
C397 C399 1.387 . S
H398 C405 0.950 . S
C399 C397 1.387 . S
C399 C401 1.390 . S
C399 H403 0.950 . S
H400 C396 0.950 . S
C401 C399 1.390 . S
C401 C402 1.387 . S
C401 H404 0.950 . S
C402 C401 1.387 . S
C402 C405 1.387 . S
H403 C399 0.950 . S
H404 C401 0.950 . S
C405 C396 1.390 . S
C405 H398 0.950 . S
C405 C402 1.387 . S
C406 C407 1.387 . S
C406 H410 0.950 . S
C406 C415 1.390 . S
C407 C406 1.387 . S
C407 C409 1.387 . S
H408 C415 0.950 . S
C409 C407 1.387 . S
C409 C411 1.390 . S
C409 H413 0.950 . S
H410 C406 0.950 . S
C411 C409 1.390 . S
C411 C412 1.387 . S
C411 H414 0.950 . S
C412 C411 1.387 . S
C412 C415 1.387 . S
H413 C409 0.950 . S
H414 C411 0.950 . S
C415 C406 1.390 . S
C415 H408 0.950 . S
C415 C412 1.387 . S
C416 C417 1.387 . S
C416 H420 0.950 . S
C416 C425 1.390 . S
C417 C416 1.387 . S
C417 C419 1.387 . S
H418 C425 0.950 . S
C419 C417 1.387 . S
C419 C421 1.390 . S
C419 H423 0.950 . S
H420 C416 0.950 . S
C421 C419 1.390 . S
C421 C422 1.387 . S
C421 H424 0.950 . S
C422 C421 1.387 . S
C422 C425 1.387 . S
H423 C419 0.950 . S
H424 C421 0.950 . S
C425 C416 1.390 . S
C425 H418 0.950 . S
C425 C422 1.387 . S
C426 C427 1.387 . S
C426 H430 0.950 . S
C426 C435 1.390 . S
C427 C426 1.387 . S
C427 C429 1.387 . S
H428 C435 0.950 . S
C429 C427 1.387 . S
C429 C431 1.390 . S
C429 H433 0.950 . S
H430 C426 0.950 . S
C431 C429 1.390 . S
C431 C432 1.387 . S
C431 H434 0.950 . S
C432 C431 1.387 . S
C432 C435 1.387 . S
H433 C429 0.950 . S
H434 C431 0.950 . S
C435 C426 1.390 . S
C435 H428 0.950 . S
C435 C432 1.387 . S
C436 C437 1.387 . S
C436 H440 0.950 . S
C436 C445 1.390 . S
C437 C436 1.387 . S
C437 C439 1.387 . S
H438 C445 0.950 . S
C439 C437 1.387 . S
C439 C441 1.390 . S
C439 H443 0.950 . S
H440 C436 0.950 . S
C441 C439 1.390 . S
C441 C442 1.387 . S
C441 H444 0.950 . S
C442 C441 1.387 . S
C442 C445 1.387 . S
H443 C439 0.950 . S
H444 C441 0.950 . S
C445 C436 1.390 . S
C445 H438 0.950 . S
C445 C442 1.387 . S
C446 C447 1.387 . S
C446 H450 0.950 . S
C446 C455 1.390 . S
C447 C446 1.387 . S
C447 C449 1.387 . S
H448 C455 0.950 . S
C449 C447 1.387 . S
C449 C451 1.390 . S
C449 H453 0.950 . S
H450 C446 0.950 . S
C451 C449 1.390 . S
C451 C452 1.387 . S
C451 H454 0.950 . S
C452 C451 1.387 . S
C452 C455 1.387 . S
H453 C449 0.950 . S
H454 C451 0.950 . S
C455 C446 1.390 . S
C455 H448 0.950 . S
C455 C452 1.387 . S
C456 C457 1.387 . S
C456 H460 0.950 . S
C456 C465 1.390 . S
C457 C456 1.387 . S
C457 C459 1.387 . S
H458 C465 0.950 . S
C459 C457 1.387 . S
C459 C461 1.390 . S
C459 H463 0.950 . S
H460 C456 0.950 . S
C461 C459 1.390 . S
C461 C462 1.387 . S
C461 H464 0.950 . S
C462 C461 1.387 . S
C462 C465 1.387 . S
H463 C459 0.950 . S
H464 C461 0.950 . S
C465 C456 1.390 . S
C465 H458 0.950 . S
C465 C462 1.387 . S
C466 C467 1.387 . S
C466 H470 0.950 . S
C466 C475 1.390 . S
C467 C466 1.387 . S
C467 C469 1.387 . S
H468 C475 0.950 . S
C469 C467 1.387 . S
C469 C471 1.390 . S
C469 H473 0.950 . S
H470 C466 0.950 . S
C471 C469 1.390 . S
C471 C472 1.387 . S
C471 H474 0.950 . S
C472 C471 1.387 . S
C472 C475 1.387 . S
H473 C469 0.950 . S
H474 C471 0.950 . S
C475 C466 1.390 . S
C475 H468 0.950 . S
C475 C472 1.387 . S
C476 C477 1.387 . S
C476 H480 0.950 . S
C476 C485 1.390 . S
C477 C476 1.387 . S
C477 C479 1.387 . S
H478 C485 0.950 . S
C479 C477 1.387 . S
C479 C481 1.390 . S
C479 H483 0.950 . S
H480 C476 0.950 . S
C481 C479 1.390 . S
C481 C482 1.387 . S
C481 H484 0.950 . S
C482 C481 1.387 . S
C482 C485 1.387 . S
H483 C479 0.950 . S
H484 C481 0.950 . S
C485 C476 1.390 . S
C485 H478 0.950 . S
C485 C482 1.387 . S
C486 C487 1.387 . S
C486 H490 0.950 . S
C486 C495 1.390 . S
C487 C486 1.387 . S
C487 C489 1.387 . S
H488 C495 0.950 . S
C489 C487 1.387 . S
C489 C491 1.390 . S
C489 H493 0.950 . S
H490 C486 0.950 . S
C491 C489 1.390 . S
C491 C492 1.387 . S
C491 H494 0.950 . S
C492 C491 1.387 . S
C492 C495 1.387 . S
H493 C489 0.950 . S
H494 C491 0.950 . S
C495 C486 1.390 . S
C495 H488 0.950 . S
C495 C492 1.387 . S
C496 C497 1.387 . S
C496 H500 0.950 . S
C496 C505 1.390 1_655 S
C497 C496 1.387 . S
C497 C499 1.387 . S
H498 C505 0.950 . S
C499 C497 1.387 . S
C499 C501 1.390 1_655 S
C499 H503 0.950 . S
H500 C496 0.950 . S
C501 C499 1.390 1_455 S
C501 C502 1.387 . S
C501 H504 0.950 . S
C502 C501 1.387 . S
C502 C505 1.387 . S
H503 C499 0.950 . S
H504 C501 0.950 . S
C505 C496 1.390 1_455 S
C505 H498 0.950 . S
C505 C502 1.387 . S
C506 C507 1.387 . S
C506 H510 0.950 . S
C506 C515 1.390 1_655 S
C507 C506 1.387 . S
C507 C509 1.387 . S
H508 C515 0.950 . S
C509 C507 1.387 . S
C509 C511 1.390 1_655 S
C509 H513 0.950 . S
H510 C506 0.950 . S
C511 C509 1.390 1_455 S
C511 C512 1.387 . S
C511 H514 0.950 . S
C512 C511 1.387 . S
C512 C515 1.387 . S
H513 C509 0.950 . S
H514 C511 0.950 . S
C515 C506 1.390 1_455 S
C515 H508 0.950 . S
C515 C512 1.387 . S
C516 C517 1.387 . S
C516 H520 0.950 . S
C516 C525 1.390 . S
C517 C516 1.387 . S
C517 C519 1.387 . S
H518 C525 0.950 . S
C519 C517 1.387 . S
C519 C521 1.390 . S
C519 H523 0.950 . S
H520 C516 0.950 . S
C521 C519 1.390 . S
C521 C522 1.387 . S
C521 H524 0.950 . S
C522 C521 1.387 . S
C522 C525 1.387 . S
H523 C519 0.950 . S
H524 C521 0.950 . S
C525 C516 1.390 . S
C525 H518 0.950 . S
C525 C522 1.387 . S
C526 C527 1.387 . S
C526 H530 0.950 . S
C526 C535 1.390 . S
C527 C526 1.387 . S
C527 C529 1.387 . S
H528 C535 0.950 . S
C529 C527 1.387 . S
C529 C531 1.390 . S
C529 H533 0.950 1_556 S
H530 C526 0.950 . S
C531 C529 1.390 . S
C531 C532 1.387 . S
C531 H534 0.950 1_556 S
C532 C531 1.387 . S
C532 C535 1.387 . S
H533 C529 0.950 1_554 S
H534 C531 0.950 1_554 S
C535 C526 1.390 . S
C535 H528 0.950 . S
C535 C532 1.387 . S
C536 C537 1.387 . S
C536 H540 0.950 . S
C536 C545 1.379 1_455 S
C537 C536 1.387 . S
C537 C539 1.387 . S
H538 C545 0.956 . S
C539 C537 1.387 . S
C539 C541 1.379 1_455 S
C539 H543 0.950 . S
H540 C536 0.950 . S
C541 C539 1.379 1_655 S
C541 C542 1.393 . S
C541 H544 0.956 . S
C542 C541 1.393 . S
C542 C545 1.393 . S
H543 C539 0.950 . S
H544 C541 0.956 . S
C545 C536 1.379 1_655 S
C545 H538 0.956 . S
C545 C542 1.393 . S
C546 C547 1.387 . S
C546 H550 0.950 1_554 S
C546 C555 1.390 . S
C547 C546 1.387 . S
C547 C549 1.387 . S
H548 C555 0.950 1_556 S
C549 C547 1.387 . S
C549 C551 1.390 . S
C549 H553 0.950 . S
H550 C546 0.950 1_556 S
C551 C549 1.390 . S
C551 C552 1.387 . S
C551 H554 0.950 . S
C552 C551 1.387 . S
C552 C555 1.387 . S
H553 C549 0.950 . S
H554 C551 0.950 . S
C555 C546 1.390 . S
C555 H548 0.950 1_554 S
C555 C552 1.387 . S
C556 C557 1.387 . S
C556 H560 0.950 . S
C556 C565 1.390 . S
C557 C556 1.387 . S
C557 C559 1.387 . S
H558 C565 0.950 . S
C559 C557 1.387 . S
C559 C561 1.390 . S
C559 H563 0.950 . S
H560 C556 0.950 . S
C561 C559 1.390 . S
C561 C562 1.387 . S
C561 H564 0.950 . S
C562 C561 1.387 . S
C562 C565 1.387 . S
H563 C559 0.950 . S
H564 C561 0.950 . S
C565 C556 1.390 . S
C565 H558 0.950 . S
C565 C562 1.387 . S
C566 C567 1.387 . S
C566 H570 0.950 . S
C566 C575 1.390 1_455 S
C567 C566 1.387 . S
C567 C569 1.387 . S
H568 C575 0.950 . S
C569 C567 1.387 . S
C569 C571 1.390 1_455 S
C569 H573 0.950 . S
H570 C566 0.950 . S
C571 C569 1.390 1_655 S
C571 C572 1.387 . S
C571 H574 0.950 . S
C572 C571 1.387 . S
C572 C575 1.387 . S
H573 C569 0.950 . S
H574 C571 0.950 . S
C575 C566 1.390 1_655 S
C575 H568 0.950 . S
C575 C572 1.387 . S
C576 C577 1.387 . S
C576 H580 0.950 . S
C576 C585 1.390 1_544 S
C577 C576 1.387 . S
C577 C579 1.387 1_455 S
H578 C585 0.950 . S
C579 C577 1.387 1_655 S
C579 C581 1.390 1_544 S
C579 H583 0.950 . S
H580 C576 0.950 . S
C581 C579 1.390 1_566 S
C581 C582 1.387 1_655 S
C581 H584 0.950 . S
C582 C581 1.387 1_455 S
C582 C585 1.387 . S
H583 C579 0.950 . S
H584 C581 0.950 . S
C585 C576 1.390 1_566 S
C585 H578 0.950 . S
C585 C582 1.387 . S
C586 C587 1.387 . S
C586 H590 0.950 . S
C586 C595 1.390 . S
C587 C586 1.387 . S
C587 C589 1.387 . S
H588 C595 0.950 . S
C589 C587 1.387 . S
C589 C591 1.390 . S
C589 H593 0.950 . S
H590 C586 0.950 . S
C591 C589 1.390 . S
C591 C592 1.387 . S
C591 H594 0.950 . S
C592 C591 1.387 . S
C592 C595 1.387 . S
H593 C589 0.950 . S
H594 C591 0.950 . S
C595 C586 1.390 . S
C595 H588 0.950 . S
C595 C592 1.387 . S
C596 C597 1.387 . S
C596 H600 0.950 . S
C596 C605 1.390 1_545 S
C597 C596 1.387 . S
C597 C599 1.387 . S
H598 C605 0.950 . S
C599 C597 1.387 . S
C599 C601 1.390 1_545 S
C599 H603 0.950 . S
H600 C596 0.950 . S
C601 C599 1.390 1_565 S
C601 C602 1.387 . S
C601 H604 0.950 . S
C602 C601 1.387 . S
C602 C605 1.387 . S
H603 C599 0.950 . S
H604 C601 0.950 . S
C605 C596 1.390 1_565 S
C605 H598 0.950 . S
C605 C602 1.387 . S
C606 C607 1.387 . S
C606 H610 0.950 . S
C606 C615 1.390 . S
C607 C606 1.387 . S
C607 C609 1.387 . S
H608 C615 0.950 . S
C609 C607 1.387 . S
C609 C611 1.390 . S
C609 H613 0.950 . S
H610 C606 0.950 . S
C611 C609 1.390 . S
C611 C612 1.387 . S
C611 H614 0.950 . S
C612 C611 1.387 . S
C612 C615 1.387 . S
H613 C609 0.950 . S
H614 C611 0.950 . S
C615 C606 1.390 . S
C615 H608 0.950 . S
C615 C612 1.387 . S
C616 C617 1.387 . S
C616 H620 0.950 . S
C616 C625 1.390 . S
C617 C616 1.387 . S
C617 C619 1.387 . S
H618 C625 0.950 . S
C619 C617 1.387 . S
C619 C621 1.390 . S
C619 H623 0.950 . S
H620 C616 0.950 . S
C621 C619 1.390 . S
C621 C622 1.387 . S
C621 H624 0.950 . S
C622 C621 1.387 . S
C622 C625 1.387 . S
H623 C619 0.950 . S
H624 C621 0.950 . S
C625 C616 1.390 . S
C625 H618 0.950 . S
C625 C622 1.387 . S
C626 C627 1.387 . S
C626 H630 0.950 . S
C626 C635 1.390 . S
C627 C626 1.387 . S
C627 C629 1.387 . S
H628 C635 0.950 . S
C629 C627 1.387 . S
C629 C631 1.390 . S
C629 H633 0.950 . S
H630 C626 0.950 . S
C631 C629 1.390 . S
C631 C632 1.387 . S
C631 H634 0.950 . S
C632 C631 1.387 . S
C632 C635 1.387 . S
H633 C629 0.950 . S
H634 C631 0.950 . S
C635 C626 1.390 . S
C635 H628 0.950 . S
C635 C632 1.387 . S
C636 C637 1.387 . S
C636 H640 0.950 . S
C636 C645 1.390 . S
C637 C636 1.387 . S
C637 C639 1.387 . S
H638 C645 0.950 . S
C639 C637 1.387 . S
C639 C641 1.390 . S
C639 H643 0.950 . S
H640 C636 0.950 . S
C641 C639 1.390 . S
C641 C642 1.387 . S
C641 H644 0.950 . S
C642 C641 1.387 . S
C642 C645 1.387 . S
H643 C639 0.950 . S
H644 C641 0.950 . S
C645 C636 1.390 . S
C645 H638 0.950 . S
C645 C642 1.387 . S
C646 C647 1.387 1_455 S
C646 H650 0.950 . S
C646 C655 1.390 1_556 S
C647 C646 1.387 1_655 S
C647 C649 1.387 . S
H648 C655 0.950 . S
C649 C647 1.387 . S
C649 C651 1.390 1_556 S
C649 H653 0.950 . S
H650 C646 0.950 . S
C651 C649 1.390 1_554 S
C651 C652 1.387 . S
C651 H654 0.950 . S
C652 C651 1.387 . S
C652 C655 1.387 1_655 S
H653 C649 0.950 . S
H654 C651 0.950 . S
C655 C646 1.390 1_554 S
C655 H648 0.950 . S
C655 C652 1.387 1_455 S
C656 C657 1.387 . S
C656 H660 0.950 . S
C656 C665 1.390 . S
C657 C656 1.387 . S
C657 C659 1.387 . S
H658 C665 0.950 . S
C659 C657 1.387 . S
C659 C661 1.390 . S
C659 H663 0.950 . S
H660 C656 0.950 . S
C661 C659 1.390 . S
C661 C662 1.387 . S
C661 H664 0.950 . S
C662 C661 1.387 . S
C662 C665 1.387 . S
H663 C659 0.950 . S
H664 C661 0.950 . S
C665 C656 1.390 . S
C665 H658 0.950 . S
C665 C662 1.387 . S
C666 C667 1.387 . S
C666 H670 0.950 . S
C666 C675 1.390 . S
C667 C666 1.387 . S
C667 C669 1.387 . S
H668 C675 0.950 . S
C669 C667 1.387 . S
C669 C671 1.390 . S
C669 H673 0.950 . S
H670 C666 0.950 . S
C671 C669 1.390 . S
C671 C672 1.387 . S
C671 H674 0.950 . S
C672 C671 1.387 . S
C672 C675 1.387 . S
H673 C669 0.950 . S
H674 C671 0.950 . S
C675 C666 1.390 . S
C675 H668 0.950 . S
C675 C672 1.387 . S
C676 C677 1.387 . S
C676 H680 0.950 . S
C676 C685 1.390 . S
C677 C676 1.387 . S
C677 C679 1.387 . S
H678 C685 0.950 . S
C679 C677 1.387 . S
C679 C681 1.390 . S
C679 H683 0.950 . S
H680 C676 0.950 . S
C681 C679 1.390 . S
C681 C682 1.387 . S
C681 H684 0.950 . S
C682 C681 1.387 . S
C682 C685 1.387 . S
H683 C679 0.950 . S
H684 C681 0.950 . S
C685 C676 1.390 . S
C685 H678 0.950 . S
C685 C682 1.387 . S
C686 C687 1.387 . S
C686 H690 0.950 . S
C686 C695 1.390 . S
C687 C686 1.387 . S
C687 C689 1.387 . S
H688 C695 0.950 . S
C689 C687 1.387 . S
C689 C691 1.390 . S
C689 H693 0.950 . S
H690 C686 0.950 . S
C691 C689 1.390 . S
C691 C692 1.387 . S
C691 H694 0.950 . S
C692 C691 1.387 . S
C692 C695 1.387 . S
H693 C689 0.950 . S
H694 C691 0.950 . S
C695 C686 1.390 . S
C695 H688 0.950 . S
C695 C692 1.387 . S
C696 C697 1.387 . S
C696 H700 0.950 . S
C696 C705 1.390 . S
C697 C696 1.387 . S
C697 C699 1.387 . S
H698 C705 0.950 . S
C699 C697 1.387 . S
C699 C701 1.390 . S
C699 H703 0.950 . S
H700 C696 0.950 . S
C701 C699 1.390 . S
C701 C702 1.387 . S
C701 H704 0.950 . S
C702 C701 1.387 . S
C702 C705 1.387 . S
H703 C699 0.950 . S
H704 C701 0.950 . S
C705 C696 1.390 . S
C705 H698 0.950 . S
C705 C702 1.387 . S
C706 C707 1.387 . S
C706 H710 0.950 . S
C706 C715 1.390 . S
C707 C706 1.387 . S
C707 C709 1.387 . S
H708 C715 0.950 . S
C709 C707 1.387 . S
C709 C711 1.390 . S
C709 H713 0.950 . S
H710 C706 0.950 . S
C711 C709 1.390 . S
C711 C712 1.387 . S
C711 H714 0.950 . S
C712 C711 1.387 . S
C712 C715 1.387 . S
H713 C709 0.950 . S
H714 C711 0.950 . S
C715 C706 1.390 . S
C715 H708 0.950 . S
C715 C712 1.387 . S
C716 C717 1.387 . S
C716 H720 0.950 . S
C716 C725 1.390 . S
C717 C716 1.387 . S
C717 C719 1.387 . S
H718 C725 0.950 . S
C719 C717 1.387 . S
C719 C721 1.390 . S
C719 H723 0.950 . S
H720 C716 0.950 . S
C721 C719 1.390 . S
C721 C722 1.387 . S
C721 H724 0.950 . S
C722 C721 1.387 . S
C722 C725 1.387 . S
H723 C719 0.950 . S
H724 C721 0.950 . S
C725 C716 1.390 . S
C725 H718 0.950 . S
C725 C722 1.387 . S
C726 C727 1.387 . S
C726 H730 0.950 . S
C726 C735 1.390 . S
C727 C726 1.387 . S
C727 C729 1.387 . S
H728 C735 0.950 . S
C729 C727 1.387 . S
C729 C731 1.390 . S
C729 H733 0.950 . S
H730 C726 0.950 . S
C731 C729 1.390 . S
C731 C732 1.387 . S
C731 H734 0.950 . S
C732 C731 1.387 . S
C732 C735 1.387 . S
H733 C729 0.950 . S
H734 C731 0.950 . S
C735 C726 1.390 . S
C735 H728 0.950 . S
C735 C732 1.387 . S
C736 C737 1.387 . S
C736 H740 0.950 . S
C736 C745 1.390 . S
C737 C736 1.387 . S
C737 C739 1.387 . S
H738 C745 0.950 . S
C739 C737 1.387 . S
C739 C741 1.390 . S
C739 H743 0.950 . S
H740 C736 0.950 . S
C741 C739 1.390 . S
C741 C742 1.387 . S
C741 H744 0.950 . S
C742 C741 1.387 . S
C742 C745 1.387 . S
H743 C739 0.950 . S
H744 C741 0.950 . S
C745 C736 1.390 . S
C745 H738 0.950 . S
C745 C742 1.387 . S
C746 C747 1.387 . S
C746 H750 0.950 . S
C746 C755 1.390 . S
C747 C746 1.387 . S
C747 C749 1.387 . S
H748 C755 0.950 . S
C749 C747 1.387 . S
C749 C751 1.390 . S
C749 H753 0.950 . S
H750 C746 0.950 . S
C751 C749 1.390 . S
C751 C752 1.387 . S
C751 H754 0.950 . S
C752 C751 1.387 . S
C752 C755 1.387 . S
H753 C749 0.950 . S
H754 C751 0.950 . S
C755 C746 1.390 . S
C755 H748 0.950 . S
C755 C752 1.387 . S
C756 C757 1.387 . S
C756 H760 0.950 . S
C756 C765 1.390 . S
C757 C756 1.387 . S
C757 C759 1.387 . S
H758 C765 0.950 . S
C759 C757 1.387 . S
C759 C761 1.390 . S
C759 H763 0.950 . S
H760 C756 0.950 . S
C761 C759 1.390 . S
C761 C762 1.387 . S
C761 H764 0.950 . S
C762 C761 1.387 . S
C762 C765 1.387 . S
H763 C759 0.950 . S
H764 C761 0.950 . S
C765 C756 1.390 . S
C765 H758 0.950 . S
C765 C762 1.387 . S
C766 C767 1.387 . S
C766 H770 0.950 . S
C766 C775 1.390 . S
C767 C766 1.387 . S
C767 C769 1.387 . S
H768 C775 0.950 . S
C769 C767 1.387 . S
C769 C771 1.390 . S
C769 H773 0.950 . S
H770 C766 0.950 . S
C771 C769 1.390 . S
C771 C772 1.387 . S
C771 H774 0.950 . S
C772 C771 1.387 . S
C772 C775 1.387 . S
H773 C769 0.950 . S
H774 C771 0.950 . S
C775 C766 1.390 . S
C775 H768 0.950 . S
C775 C772 1.387 . S
C776 C777 1.387 . S
C776 H780 0.950 . S
C776 C785 1.390 . S
C777 C776 1.387 . S
C777 C779 1.387 . S
H778 C785 0.950 . S
C779 C777 1.387 . S
C779 C781 1.390 . S
C779 H783 0.950 . S
H780 C776 0.950 . S
C781 C779 1.390 . S
C781 C782 1.387 . S
C781 H784 0.950 . S
C782 C781 1.387 . S
C782 C785 1.387 . S
H783 C779 0.950 . S
H784 C781 0.950 . S
C785 C776 1.390 . S
C785 H778 0.950 . S
C785 C782 1.387 . S
C786 C787 1.387 . S
C786 H790 0.950 . S
C786 C795 1.390 . S
C787 C786 1.387 . S
C787 C789 1.387 . S
H788 C795 0.950 . S
C789 C787 1.387 . S
C789 C791 1.390 . S
C789 H793 0.950 . S
H790 C786 0.950 . S
C791 C789 1.390 . S
C791 C792 1.387 . S
C791 H794 0.950 . S
C792 C791 1.387 . S
C792 C795 1.387 . S
H793 C789 0.950 . S
H794 C791 0.950 . S
C795 C786 1.390 . S
C795 H788 0.950 . S
C795 C792 1.387 . S
C796 C797 1.387 . S
C796 H800 0.950 . S
C796 C805 1.390 . S
C797 C796 1.387 . S
C797 C799 1.387 . S
H798 C805 0.950 . S
C799 C797 1.387 . S
C799 C801 1.390 . S
C799 H803 0.950 . S
H800 C796 0.950 . S
C801 C799 1.390 . S
C801 C802 1.387 . S
C801 H804 0.950 . S
C802 C801 1.387 . S
C802 C805 1.387 . S
H803 C799 0.950 . S
H804 C801 0.950 . S
C805 C796 1.390 . S
C805 H798 0.950 . S
C805 C802 1.387 . S
C806 C807 1.387 . S
C806 H810 0.950 . S
C806 C815 1.390 . S
C807 C806 1.387 . S
C807 C809 1.387 . S
H808 C815 0.950 . S
C809 C807 1.387 . S
C809 C811 1.390 . S
C809 H813 0.950 . S
H810 C806 0.950 . S
C811 C809 1.390 . S
C811 C812 1.387 . S
C811 H814 0.950 . S
C812 C811 1.387 . S
C812 C815 1.387 . S
H813 C809 0.950 . S
H814 C811 0.950 . S
C815 C806 1.390 . S
C815 H808 0.950 . S
C815 C812 1.387 . S
C337 C17 1.453 . S
C342 C161 1.453 . S
C347 C35 1.453 . S
C352 C101 1.453 . S
C357 C122 1.454 . S
C362 C59 1.450 . S
C367 C80 1.454 . S
C372 C143 1.451 . S
C377 C247 1.306 . S
C382 C100 1.306 . S
C387 C184 1.303 . S
C392 C16 1.308 . S
C397 C223 1.303 . S
C402 C142 1.308 . S
C407 C58 1.304 . S
C412 C202 1.307 . S
C417 C203 1.454 . S
C422 C269 1.452 . S
C427 C224 1.453 . S
C432 C311 1.450 . S
C437 C290 1.449 . S
C442 C185 1.454 . S
C447 C248 1.450 . S
C452 C332 1.453 . S
C457 C310 1.304 . S
C462 C79 1.307 . S
C467 C268 1.303 . S
C472 C121 1.308 . S
C477 C34 1.303 . S
C482 C331 1.308 . S
C487 C160 1.303 . S
C492 C289 1.308 . S
C497 C291 0.726 . S
C502 C18 0.726 . S
C507 C249 0.726 . S
C512 C36 0.726 . S
C517 C270 0.724 . S
C522 C60 0.724 . S
C527 C225 0.726 . S
C532 C81 0.726 . S
C537 C102 0.724 . S
C542 C333 0.724 . S
C547 C204 0.724 . S
C552 C123 0.724 . S
C557 C144 0.726 . S
C562 C312 0.726 . S
C567 C162 0.724 . S
C572 C186 0.724 . S
C577 C15 1.354 . S
C582 C99 1.354 . S
C587 C39 1.354 . S
C592 C120 1.354 . S
C597 C141 1.351 . S
C602 C57 1.351 . S
C607 C78 1.354 . S
C612 C165 1.354 . S
C617 C228 1.353 . S
C622 C183 1.353 . S
C627 C246 1.353 . S
C632 C207 1.353 . S
C637 C267 1.354 . S
C642 C309 1.354 . S
C647 C330 1.351 . S
C652 C288 1.351 . S
C657 C14 1.575 . S
C662 C164 1.575 . S
C667 C38 1.576 . S
C672 C98 1.575 . S
C677 C119 1.575 . S
C682 C56 1.575 . S
C687 C140 1.576 . S
C692 C77 1.575 . S
C697 C244 1.476 . S
C702 C97 1.477 . S
C707 C181 1.476 . S
C712 C13 1.476 . S
C717 C226 1.477 . S
C722 C139 1.478 . S
C727 C55 1.475 . S
C732 C205 1.476 . S
C737 C266 1.576 . S
C742 C206 1.576 . S
C747 C308 1.575 . S
C752 C227 1.576 . S
C757 C287 1.575 . S
C762 C182 1.575 . S
C767 C329 1.576 . S
C772 C245 1.576 . S
C777 C307 1.477 . S
C782 C76 1.477 . S
C787 C118 1.477 . S
C792 C265 1.476 . S
C797 C37 1.477 . S
C802 C328 1.475 . S
C807 C286 1.475 . S
C812 C163 1.477 . S
