# Generated by pormake.
# Topology wjf, (4)-cn, num edge types: 1
# Building blocks:
#     Node 0, Type 0, BuildingBlock: QUQFOY_clean_sbu_3, # of connection points: 4
#     Node 1, Type 0, BuildingBlock: QUQFOY_clean_sbu_3, # of connection points: 4
#     Node 2, Type 0, BuildingBlock: QUQFOY_clean_sbu_3, # of connection points: 4
#     Node 3, Type 0, BuildingBlock: QUQFOY_clean_sbu_3, # of connection points: 4
#     Node 4, Type 0, BuildingBlock: QUQFOY_clean_sbu_3, # of connection points: 4
#     Node 5, Type 0, BuildingBlock: QUQFOY_clean_sbu_3, # of connection points: 4
#     Node 6, Type 0, BuildingBlock: QUQFOY_clean_sbu_3, # of connection points: 4
#     Node 7, Type 0, BuildingBlock: QUQFOY_clean_sbu_3, # of connection points: 4
#     Node 8, Type 0, BuildingBlock: QUQFOY_clean_sbu_3, # of connection points: 4
#     Node 9, Type 0, BuildingBlock: QUQFOY_clean_sbu_3, # of connection points: 4
#     Node 10, Type 0, BuildingBlock: QUQFOY_clean_sbu_3, # of connection points: 4
#     Node 11, Type 0, BuildingBlock: QUQFOY_clean_sbu_3, # of connection points: 4
#     Edge 12, Type (0, 0), BuildingBlock: ZUJKAS_clean_linker_0, # of connection points: 2
#     Edge 13, Type (0, 0), BuildingBlock: ZUJKAS_clean_linker_0, # of connection points: 2
#     Edge 14, Type (0, 0), BuildingBlock: ZUJKAS_clean_linker_0, # of connection points: 2
#     Edge 15, Type (0, 0), BuildingBlock: ZUJKAS_clean_linker_0, # of connection points: 2
#     Edge 16, Type (0, 0), BuildingBlock: ZUJKAS_clean_linker_0, # of connection points: 2
#     Edge 17, Type (0, 0), BuildingBlock: ZUJKAS_clean_linker_0, # of connection points: 2
#     Edge 18, Type (0, 0), BuildingBlock: ZUJKAS_clean_linker_0, # of connection points: 2
#     Edge 19, Type (0, 0), BuildingBlock: ZUJKAS_clean_linker_0, # of connection points: 2
#     Edge 20, Type (0, 0), BuildingBlock: ZUJKAS_clean_linker_0, # of connection points: 2
#     Edge 21, Type (0, 0), BuildingBlock: ZUJKAS_clean_linker_0, # of connection points: 2
#     Edge 22, Type (0, 0), BuildingBlock: ZUJKAS_clean_linker_0, # of connection points: 2
#     Edge 23, Type (0, 0), BuildingBlock: ZUJKAS_clean_linker_0, # of connection points: 2
#     Edge 24, Type (0, 0), BuildingBlock: ZUJKAS_clean_linker_0, # of connection points: 2
#     Edge 25, Type (0, 0), BuildingBlock: ZUJKAS_clean_linker_0, # of connection points: 2
#     Edge 26, Type (0, 0), BuildingBlock: ZUJKAS_clean_linker_0, # of connection points: 2
#     Edge 27, Type (0, 0), BuildingBlock: ZUJKAS_clean_linker_0, # of connection points: 2
#     Edge 28, Type (0, 0), BuildingBlock: ZUJKAS_clean_linker_0, # of connection points: 2
#     Edge 29, Type (0, 0), BuildingBlock: ZUJKAS_clean_linker_0, # of connection points: 2
#     Edge 30, Type (0, 0), BuildingBlock: ZUJKAS_clean_linker_0, # of connection points: 2
#     Edge 31, Type (0, 0), BuildingBlock: ZUJKAS_clean_linker_0, # of connection points: 2
#     Edge 32, Type (0, 0), BuildingBlock: ZUJKAS_clean_linker_0, # of connection points: 2
#     Edge 33, Type (0, 0), BuildingBlock: ZUJKAS_clean_linker_0, # of connection points: 2
#     Edge 34, Type (0, 0), BuildingBlock: ZUJKAS_clean_linker_0, # of connection points: 2
#     Edge 35, Type (0, 0), BuildingBlock: ZUJKAS_clean_linker_0, # of connection points: 2
# Relax obj value: 0.107
# Max RMSD: 0.137
# Mean RMSD: 0.137
data_MOF--net-wjf--node1-QUQFOY_clean_sbu_3--edge1-ZUJKAS_clean_linker_0
_symmetry_space_group_name_H-M    P1
_symmetry_Int_Tables_number       1
_symmetry_cell_setting            triclinic
loop_
_symmetry_equiv_pos_as_xyz
'x, y, z'
_cell_length_a     66.802159
_cell_length_b     66.797707
_cell_length_c     35.933967
_cell_angle_alpha  89.939176
_cell_angle_beta   90.064012
_cell_angle_gamma 120.01237
loop_
_atom_site_label
_atom_site_type_symbol
_atom_site_fract_x
_atom_site_fract_y
_atom_site_fract_z
_atom_type_partial_charge
C0 C 0.33143 0.35858 0.12696 0.0
O1 O 0.33819 0.34988 0.10195 0.0
Cd2 Cd 0.34295 0.35883 0.03727 0.0
O3 O 0.32638 0.37418 0.11896 0.0
Cd4 Cd 0.32642 0.39484 0.06119 0.0
C5 C 0.38384 0.41608 0.04481 0.0
O6 O 0.30916 0.36048 0.02221 0.0
O7 O 0.32083 0.39279 -0.00626 0.0
O8 O 0.29246 0.39694 0.08018 0.0
C9 C 0.31025 0.37094 -0.00772 0.0
O10 O 0.37861 0.39605 0.03314 0.0
C11 C 0.30088 0.41804 0.07109 0.0
O12 O 0.36844 0.41985 0.05843 0.0
O13 O 0.32194 0.4288 0.06121 0.0
C14 C 0.9692 0.32779 0.48132 0.0
O15 O 0.98761 0.33686 0.46209 0.0
Cd16 Cd 0.99183 0.34847 0.39874 0.0
O17 O 0.95005 0.32396 0.46721 0.0
Cd18 Cd 0.93666 0.32962 0.4054 0.0
C19 C 0.9733 0.38792 0.40593 0.0
O20 O 0.95925 0.31702 0.37013 0.0
O21 O 0.94188 0.33074 0.33765 0.0
O22 O 0.90014 0.29375 0.41367 0.0
C23 C 0.95427 0.32132 0.33832 0.0
O24 O 0.98961 0.38379 0.39927 0.0
C25 C 0.88756 0.30194 0.40288 0.0
O26 O 0.95271 0.37146 0.41125 0.0
O27 O 0.89777 0.32342 0.3957 0.0
C28 C 0.65169 0.97253 0.79643 0.0
O29 O 0.65973 0.98807 0.77146 0.0
Cd30 Cd 0.64669 0.98419 0.70891 0.0
O31 O 0.63487 0.95233 0.78938 0.0
Cd32 Cd 0.61073 0.93269 0.73378 0.0
C33 C 0.59093 0.97034 0.72707 0.0
O34 O 0.64256 0.94822 0.69004 0.0
O35 O 0.60872 0.93206 0.66548 0.0
O36 O 0.60824 0.89594 0.7492 0.0
C37 C 0.63032 0.94094 0.66101 0.0
O38 O 0.61009 0.98426 0.71158 0.0
C39 C 0.58667 0.88379 0.74293 0.0
O40 O 0.58737 0.95117 0.74042 0.0
O41 O 0.57608 0.89465 0.73553 0.0
C42 C 0.67521 0.65152 0.12734 0.0
O43 O 0.66904 0.66085 0.10242 0.0
Cd44 Cd 0.66434 0.65245 0.0374 0.0
O45 O 0.67977 0.63564 0.11911 0.0
Cd46 Cd 0.67968 0.615 0.06157 0.0
C47 C 0.62244 0.59554 0.04432 0.0
O48 O 0.69717 0.64912 0.02221 0.0
O49 O 0.68592 0.61684 -0.00582 0.0
O50 O 0.71261 0.61115 0.08117 0.0
C51 C 0.6959 0.63866 -0.00775 0.0
O52 O 0.62806 0.61577 0.03306 0.0
C53 C 0.70296 0.58971 0.07368 0.0
O54 O 0.63758 0.59124 0.05764 0.0
O55 O 0.68191 0.57982 0.06374 0.0
C56 C 0.02538 0.68126 0.47385 0.0
O57 O 0.0097 0.67443 0.44915 0.0
Cd58 Cd 0.01273 0.66633 0.38553 0.0
O59 O 0.04561 0.68504 0.46586 0.0
Cd60 Cd 0.06639 0.68332 0.40969 0.0
C61 C 0.02905 0.62544 0.39973 0.0
O62 O 0.04875 0.69814 0.36733 0.0
O63 O 0.06988 0.68618 0.34172 0.0
O64 O 0.10166 0.71827 0.42758 0.0
C65 C 0.05749 0.69548 0.33791 0.0
O66 O 0.01406 0.63047 0.38817 0.0
C67 C 0.11491 0.71007 0.42162 0.0
O68 O 0.04891 0.64119 0.41067 0.0
O69 O 0.10526 0.68877 0.41326 0.0
C70 C 0.34442 0.01735 0.7899 0.0
O71 O 0.33786 0.0032 0.76293 0.0
Cd72 Cd 0.35391 0.01187 0.70199 0.0
O73 O 0.36096 0.0381 0.78589 0.0
Cd74 Cd 0.387 0.06136 0.73431 0.0
C75 C 0.40928 0.02615 0.72407 0.0
O76 O 0.3569 0.04812 0.68752 0.0
O77 O 0.39168 0.06586 0.66649 0.0
O78 O 0.3867 0.09599 0.75444 0.0
C79 C 0.3703 0.05756 0.66023 0.0
O80 O 0.39098 0.01284 0.70594 0.0
C81 C 0.40825 0.10949 0.74992 0.0
O82 O 0.41157 0.04416 0.7401 0.0
O83 O 0.42019 0.10015 0.74168 0.0
C84 C 0.6367 0.66874 0.51236 0.0
O85 O 0.64628 0.66118 0.53441 0.0
Cd86 Cd 0.63983 0.65452 0.5995 0.0
O87 O 0.62152 0.6735 0.52406 0.0
Cd88 Cd 0.60295 0.67142 0.58504 0.0
C89 C 0.58248 0.61363 0.59533 0.0
O90 O 0.63847 0.68747 0.62083 0.0
O91 O 0.60736 0.67421 0.65301 0.0
O92 O 0.60022 0.70574 0.57124 0.0
C93 C 0.62923 0.68474 0.65247 0.0
O94 O 0.60289 0.61867 0.6045 0.0
C95 C 0.57934 0.69696 0.58174 0.0
O96 O 0.57818 0.62931 0.58476 0.0
O97 O 0.56899 0.67576 0.59085 0.0
C98 C 0.96865 0.63718 0.85566 0.0
O99 O 0.98564 0.6455 0.87808 0.0
Cd100 Cd 0.98475 0.63654 0.94246 0.0
O101 O 0.94849 0.62187 0.86631 0.0
Cd102 Cd 0.93119 0.60083 0.92521 0.0
C103 C 0.96768 0.57937 0.93266 0.0
O104 O 0.95042 0.63497 0.96396 0.0
O105 O 0.93224 0.60286 -0.00639 0.0
O106 O 0.89482 0.59939 0.91096 0.0
C107 C 0.94361 0.62473 -0.00517 0.0
O108 O 0.98282 0.59914 0.9448 0.0
C109 C 0.88213 0.57837 0.92042 0.0
O110 O 0.94821 0.57583 0.92075 0.0
O111 O 0.89238 0.56736 0.92918 0.0
C112 C 0.32097 0.97222 0.16777 0.0
O113 O 0.33116 0.99148 0.18468 0.0
Cd114 Cd 0.34674 0.99797 0.24584 0.0
O115 O 0.31816 0.95382 0.18337 0.0
Cd116 Cd 0.32738 0.94348 0.24496 0.0
C117 C 0.38525 0.97859 0.23512 0.0
O118 O 0.31673 0.96756 0.28106 0.0
O119 O 0.33371 0.95239 0.31122 0.0
O120 O 0.29089 0.90709 0.24411 0.0
C121 C 0.32322 0.96376 0.31201 0.0
O122 O 0.38191 0.99544 0.24154 0.0
C123 C 0.29943 0.8947 0.25411 0.0
O124 O 0.36829 0.95803 0.23267 0.0
O125 O 0.32126 0.90482 0.25749 0.0
C126 C 0.34849 0.3201 0.51196 0.0
O127 O 0.33844 0.32739 0.53347 0.0
Cd128 Cd 0.3444 0.33484 0.59856 0.0
O129 O 0.3638 0.31571 0.52437 0.0
Cd130 Cd 0.38173 0.31772 0.58594 0.0
C131 C 0.402 0.37558 0.59501 0.0
O132 O 0.34628 0.30256 0.62172 0.0
O133 O 0.37748 0.3157 0.65371 0.0
O134 O 0.38427 0.28309 0.57478 0.0
C135 C 0.35563 0.30575 0.65338 0.0
O136 O 0.3815 0.37065 0.60325 0.0
C137 C 0.40529 0.29213 0.58481 0.0
O138 O 0.4064 0.35981 0.58545 0.0
O139 O 0.41578 0.31358 0.59223 0.0
C140 C 0.02137 0.3392 0.86155 0.0
O141 O 0.00697 0.33183 0.88824 0.0
Cd142 Cd 0.01382 0.34476 0.9514 0.0
O143 O 0.04214 0.35547 0.86657 0.0
Cd144 Cd 0.06478 0.38012 0.91975 0.0
C145 C 0.02769 0.40047 0.93406 0.0
O146 O 0.05052 0.34907 0.96543 0.0
O147 O 0.07111 0.38356 0.98692 0.0
O148 O 0.10093 0.38265 0.90009 0.0
C149 C 0.06063 0.36202 -0.00701 0.0
O150 O 0.01433 0.38158 0.95077 0.0
C151 C 0.11297 0.40443 0.90451 0.0
O152 O 0.04601 0.40356 0.91801 0.0
O153 O 0.10208 0.41494 0.91222 0.0
C154 C 0.68042 0.02713 0.17726 0.0
O155 O 0.67179 0.00965 0.19865 0.0
Cd156 Cd 0.65977 0.00868 0.2611 0.0
O157 O 0.68362 0.04663 0.18858 0.0
Cd158 Cd 0.67766 0.06255 0.24747 0.0
C159 C 0.61968 0.02569 0.24585 0.0
O160 O 0.69099 0.04252 0.28788 0.0
O161 O 0.67465 0.05916 0.3154 0.0
O162 O 0.7133 0.09911 0.23755 0.0
C163 C 0.68567 0.04835 0.31809 0.0
O164 O 0.62387 0.0099 0.25615 0.0
C165 C 0.70458 0.11172 0.24507 0.0
O166 O 0.63611 0.04603 0.23887 0.0
O167 O 0.68299 0.1014 0.2513 0.0
H168 H 0.31654 0.37175 0.18849 0.0
H169 H 0.31661 0.36011 0.25322 0.0
H170 H 0.34354 0.31649 0.21811 0.0
H171 H 0.34351 0.32781 0.15356 0.0
H172 H 0.29517 0.30863 0.28351 0.0
H173 H 0.39035 0.36712 0.29769 0.0
H174 H 0.37337 0.37244 0.26414 0.0
H175 H 0.37957 0.34958 0.25644 0.0
C176 C 0.32233 0.35957 0.19449 0.0
C177 C 0.33016 0.35084 0.16588 0.0
C178 C 0.32229 0.35291 0.23139 0.0
C179 C 0.33018 0.33758 0.24013 0.0
C180 C 0.33747 0.32841 0.2117 0.0
H181 H 0.36653 0.30574 0.45635 0.0
H182 H 0.36002 0.30601 0.38932 0.0
C183 C 0.33743 0.33494 0.17487 0.0
C184 C 0.33182 0.33191 0.27918 0.0
H185 H 0.37052 0.34446 0.34955 0.0
C186 C 0.31159 0.31636 0.29806 0.0
C187 C 0.35336 0.34187 0.29759 0.0
C188 C 0.37548 0.35878 0.27818 0.0
C189 C 0.31234 0.31061 0.3354 0.0
C190 C 0.33383 0.32116 0.35427 0.0
C191 C 0.3541 0.33634 0.33497 0.0
C192 C 0.33561 0.31819 0.39467 0.0
C193 C 0.29018 0.29321 0.35415 0.0
C194 C 0.32393 0.3248 0.41976 0.0
C195 C 0.32752 0.32458 0.45791 0.0
C196 C 0.34313 0.31805 0.47175 0.0
C197 C 0.35441 0.31088 0.4466 0.0
C198 C 0.35071 0.31101 0.40833 0.0
H199 H 0.27731 0.28131 0.33356 0.0
H200 H 0.29329 0.28281 0.37503 0.0
H201 H 0.28252 0.30248 0.36859 0.0
H202 H 0.31267 0.33097 0.4098 0.0
H203 H 0.31858 0.33027 0.47644 0.0
H204 H 0.93337 0.30401 0.53034 0.0
H205 H 0.93626 0.29635 0.59631 0.0
H206 H 0.01059 0.33168 0.58714 0.0
H207 H 0.00792 0.33885 0.52151 0.0
H208 H 0.99336 0.2917 0.62818 0.0
H209 H 0.95685 0.34631 0.67539 0.0
H210 H 0.93875 0.32263 0.64524 0.0
H211 H 0.96531 0.34622 0.62779 0.0
C212 C 0.9503 0.31005 0.5424 0.0
C213 C 0.97042 0.32222 0.52076 0.0
C214 C 0.95192 0.30571 0.58006 0.0
C215 C 0.97366 0.31374 0.59664 0.0
C216 C 0.99365 0.32532 0.57485 0.0
H217 H 0.04711 0.34908 0.79787 0.0
H218 H 0.03274 0.33737 0.73445 0.0
C219 C 0.99206 0.32949 0.53732 0.0
C220 C 0.97609 0.31126 0.63699 0.0
H221 H 0.97048 0.33125 0.72138 0.0
C222 C 0.98807 0.30006 0.64866 0.0
C223 C 0.96916 0.3222 0.66357 0.0
C224 C 0.95696 0.33518 0.65253 0.0
C225 C 0.99413 0.30031 0.68609 0.0
C226 C 0.98809 0.31212 0.71227 0.0
C227 C 0.97503 0.32221 0.70102 0.0
C228 C 0.99693 0.3162 0.75076 0.0
C229 C 0.0074 0.28846 0.69723 0.0
C230 C 0.98152 0.30803 0.78077 0.0
C231 C 0.98964 0.31469 0.81701 0.0
C232 C 0.01331 0.32991 0.82375 0.0
C233 C 0.0288 0.33738 0.79364 0.0
C234 C 0.02065 0.33058 0.75742 0.0
H235 H 0.00524 0.27515 0.67658 0.0
H236 H 0.02608 0.3015 0.69893 0.0
H237 H 0.00176 0.28016 0.72497 0.0
H238 H 0.96313 0.29706 0.77603 0.0
H239 H 0.97723 0.30858 0.83956 0.0
H240 H 0.63728 0.9453 0.85893 0.0
H241 H 0.6504 0.95735 0.92296 0.0
H242 H 0.7005 0.02535 0.88412 0.0
H243 H 0.6877 0.01364 0.82016 0.0
H244 H 0.70256 0.98461 0.95559 0.0
H245 H 0.64987 0.02822 0.95751 0.0
H246 H 0.64324 0.00444 0.92647 0.0
H247 H 0.66797 0.03229 0.91781 0.0
C248 C 0.65134 0.9627 0.86391 0.0
C249 C 0.66124 0.97859 0.8345 0.0
C250 C 0.65884 0.9695 0.90043 0.0
C251 C 0.67629 0.99221 0.90794 0.0
C252 C 0.68699 0.00776 0.87862 0.0
H253 H 0.70027 0.0604 0.12315 0.0
H254 H 0.70473 0.0544 0.05717 0.0
C255 C 0.67956 0.00101 0.84216 0.0
C256 C 0.68164 0.00034 0.94662 0.0
H257 H 0.66902 0.02895 0.01251 0.0
C258 C 0.69543 0.99445 0.96813 0.0
C259 C 0.67247 0.01339 0.9624 0.0
C260 C 0.65747 0.01998 0.94009 0.0
C261 C 0.69997 0.00099 0.00566 0.0
C262 C 0.68994 0.01319 0.02196 0.0
C263 C 0.67677 0.01968 -8e-05 0.0
C264 C 0.69084 0.01749 0.06243 0.0
C265 C 0.7154 0.99474 0.02741 0.0
C266 C 0.6818 0.99878 0.08721 0.0
C267 C 0.67933 0.00214 0.12479 0.0
C268 C 0.6855 0.02426 0.13826 0.0
C269 C 0.69526 0.04314 0.11362 0.0
C270 C 0.69788 0.03976 0.07597 0.0
H271 H 0.72794 0.99334 0.00887 0.0
H272 H 0.72511 0.00769 0.04941 0.0
H273 H 0.70463 0.97765 0.04084 0.0
H274 H 0.67564 0.98136 0.07724 0.0
H275 H 0.67171 0.98719 0.14295 0.0
H276 H 0.66257 0.68165 0.15493 0.0
H277 H 0.65963 0.69005 0.22009 0.0
H278 H 0.68554 0.64529 0.25394 0.0
H279 H 0.68854 0.63662 0.18868 0.0
H280 H 0.63137 0.65287 0.27249 0.0
H281 H 0.72317 0.70656 0.31615 0.0
H282 H 0.71412 0.70374 0.26809 0.0
H283 H 0.71603 0.68071 0.29047 0.0
C284 C 0.66797 0.6738 0.17612 0.0
C285 C 0.67568 0.65834 0.16659 0.0
C286 C 0.66628 0.67867 0.21332 0.0
C287 C 0.67253 0.66842 0.24159 0.0
C288 C 0.68094 0.65358 0.23232 0.0
H289 H 0.66303 0.65396 0.4771 0.0
H290 H 0.67188 0.65624 0.41102 0.0
C291 C 0.68252 0.64857 0.19507 0.0
C292 C 0.66821 0.67153 0.28077 0.0
H293 H 0.6949 0.69287 0.36401 0.0
C294 C 0.64521 0.66181 0.29254 0.0
C295 C 0.68638 0.68315 0.30655 0.0
C296 C 0.71136 0.69432 0.2948 0.0
C297 C 0.6398 0.66262 0.32996 0.0
C298 C 0.65797 0.67402 0.35597 0.0
C299 C 0.68103 0.68423 0.34394 0.0
C300 C 0.65341 0.67403 0.39619 0.0
C301 C 0.61471 0.65034 0.34151 0.0
C302 C 0.64038 0.68364 0.40984 0.0
C303 C 0.63502 0.68214 0.44771 0.0
C304 C 0.64292 0.67129 0.47251 0.0
C305 C 0.65662 0.6624 0.45879 0.0
C306 C 0.66176 0.66372 0.42101 0.0
H307 H 0.60331 0.63794 0.31996 0.0
H308 H 0.61216 0.64078 0.368 0.0
H309 H 0.60914 0.66327 0.34583 0.0
H310 H 0.63421 0.69212 0.39119 0.0
H311 H 0.62465 0.68937 0.45749 0.0
H312 H 0.93637 0.62914 0.80182 0.0
H313 H 0.94359 0.64122 0.73653 0.0
H314 H 0.01709 0.6746 0.75595 0.0
H315 H 0.01013 0.66326 0.82119 0.0
H316 H 0.00547 0.70069 0.71207 0.0
H317 H 0.96397 0.61001 0.66108 0.0
H318 H 0.94552 0.6165 0.6886 0.0
H319 H 0.97038 0.61733 0.70959 0.0
C320 C 0.95406 0.63912 0.79218 0.0
C321 C 0.97267 0.64505 0.81657 0.0
C322 C 0.95815 0.64594 0.75489 0.0
C323 C 0.98087 0.65844 0.74136 0.0
C324 C -0.00057 0.66493 0.76587 0.0
H325 H 0.0536 0.69418 0.53514 0.0
H326 H 0.04198 0.69193 0.60025 0.0
C327 C 0.9954 0.65835 0.80314 0.0
C328 C 0.98554 0.66407 0.70141 0.0
H329 H 0.97851 0.63941 0.61581 0.0
C330 C -0.00053 0.68732 0.69095 0.0
C331 C 0.97777 0.64654 0.67404 0.0
C332 C 0.96376 0.62118 0.6838 0.0
C333 C 0.00606 0.69349 0.65377 0.0
C334 C 0.99851 0.67594 0.62664 0.0
C335 C 0.98412 0.65278 0.63688 0.0
C336 C 0.00625 0.68087 0.58764 0.0
C337 C 0.0211 0.71865 0.64372 0.0
C338 C 0.99002 0.67562 0.55924 0.0
C339 C 0.99654 0.67684 0.52211 0.0
C340 C 0.0194 0.68307 0.5128 0.0
C341 C 0.03587 0.68929 0.54137 0.0
C342 C 0.02931 0.68815 0.57855 0.0
H343 H 0.02118 0.73023 0.66597 0.0
H344 H 0.03912 0.72242 0.63956 0.0
H345 H 0.01517 0.72265 0.61733 0.0
H346 H 0.97212 0.66984 0.56588 0.0
H347 H 0.98343 0.67202 0.50083 0.0
H348 H 0.3258 0.00848 0.12619 0.0
H349 H 0.31753 0.00862 0.06047 0.0
H350 H 0.29023 0.93492 0.0553 0.0
H351 H 0.29904 0.93466 0.12143 0.0
H352 H 0.32263 0.95718 0.00441 0.0
H353 H 0.26169 0.98995 -0.00304 0.0
H354 H 0.28584 0.00856 0.02572 0.0
H355 H 0.26691 0.97897 0.03965 0.0
C356 C 0.31766 0.99217 0.11137 0.0
C357 C 0.31329 0.97157 0.129 0.0
C358 C 0.31265 0.99226 0.07379 0.0
C359 C 0.30284 0.97172 0.05312 0.0
C360 C 0.29757 0.95092 0.07091 0.0
H361 H 0.31046 0.97379 0.80886 0.0
H362 H 0.29508 0.95943 0.87098 0.0
C363 C 0.3027 0.95083 0.10862 0.0
C364 C 0.30153 0.97288 0.01218 0.0
H365 H 0.28746 0.99886 0.94326 0.0
C366 C 0.31435 0.96565 0.99084 0.0
C367 C 0.2907 0.98393 -0.00546 0.0
C368 C 0.27532 0.99054 0.01548 0.0
C369 C 0.31818 0.97086 0.95287 0.0
C370 C 0.30882 0.98346 0.93594 0.0
C371 C 0.29477 0.98939 0.9566 0.0
C372 C 0.31549 0.99253 0.89788 0.0
C373 C 0.33346 0.9642 0.9316 0.0
C374 C 0.33156 0.01602 0.89262 0.0
C375 C 0.3405 0.02432 0.85726 0.0
C376 C 0.33341 0.00921 0.82666 0.0
C377 C 0.31643 0.98587 0.83188 0.0
C378 C 0.30756 0.9776 0.86728 0.0
H379 H 0.34119 0.95642 0.94984 0.0
H380 H 0.32312 0.95145 0.90972 0.0
H381 H 0.34762 0.9796 0.91757 0.0
H382 H 0.33786 0.02774 0.91613 0.0
H383 H 0.35343 0.0424 0.85416 0.0
H384 H 0.14239 0.44917 0.925 0.0
H385 H 0.18144 0.46448 0.94978 0.0
H386 H 0.17965 0.40103 0.92034 0.0
H387 H 0.14077 0.38568 0.89532 0.0
H388 H 0.18758 0.44278 0.00974 0.0
H389 H 0.24612 0.4491 0.89619 0.0
H390 H 0.21892 0.44799 0.88756 0.0
H391 H 0.21975 0.42179 0.89551 0.0
C392 C 0.15064 0.4388 0.92249 0.0
C393 C 0.13838 0.41609 0.90856 0.0
C394 C 0.17294 0.44758 0.93681 0.0
C395 C 0.18345 0.43391 0.93694 0.0
C396 C 0.17204 0.41204 0.92002 0.0
H397 H 0.25467 0.39815 0.0852 0.0
H398 H 0.22828 0.409 0.05693 0.0
C399 C 0.14973 0.40323 0.9058 0.0
C400 C 0.20431 0.4406 0.95984 0.0
H401 H 0.25621 0.44246 0.95815 0.0
C402 C 0.20287 0.44331 -0.00165 0.0
C403 C 0.22435 0.44158 0.94501 0.0
C404 C 0.2275 0.4402 0.90372 0.0
C405 C 0.22014 0.44514 0.02269 0.0
C406 C 0.23916 0.44398 0.00814 0.0
C407 C 0.24149 0.44313 0.96939 0.0
C408 C 0.25525 0.44066 0.0323 0.0
C409 C 0.21746 0.4475 0.06386 0.0
C410 C 0.27921 0.45523 0.02892 0.0
C411 C 0.29439 0.44904 0.04512 0.0
C412 C 0.28578 0.42799 0.06447 0.0
C413 C 0.26185 0.41447 0.07051 0.0
C414 C 0.24671 0.42071 0.05442 0.0
H415 H 0.20719 0.45611 0.06919 0.0
H416 H 0.20811 0.43003 0.0766 0.0
H417 H 0.23452 0.45751 0.07778 0.0
H418 H 0.28613 0.47068 0.01192 0.0
H419 H 0.31274 0.45986 0.03996 0.0
H420 H 0.85823 0.31341 0.3681 0.0
H421 H 0.82025 0.28667 0.34169 0.0
H422 H 0.82364 0.22913 0.3893 0.0
H423 H 0.86137 0.25564 0.41597 0.0
H424 H 0.8148 0.25441 0.2898 0.0
H425 H 0.75681 0.21093 0.40877 0.0
H426 H 0.78363 0.23799 0.41358 0.0
H427 H 0.78354 0.21097 0.41375 0.0
C428 C 0.85056 0.29511 0.3739 0.0
C429 C 0.86285 0.2866 0.39396 0.0
C430 C 0.82889 0.27987 0.35869 0.0
C431 C 0.81905 0.25594 0.36374 0.0
C432 C 0.83068 0.24755 0.38566 0.0
H433 H 0.75117 0.13805 0.23501 0.0
H434 H 0.77644 0.17693 0.25877 0.0
C435 C 0.85234 0.26274 0.40074 0.0
C436 C 0.79839 0.23948 0.34222 0.0
H437 H 0.74738 0.18891 0.35123 0.0
C438 C 0.79976 0.24038 0.30319 0.0
C439 C 0.77862 0.22142 0.35961 0.0
C440 C 0.77544 0.2204 0.40125 0.0
C441 C 0.78277 0.22266 0.28125 0.0
C442 C 0.76416 0.20345 0.29887 0.0
C443 C 0.76182 0.20352 0.3377 0.0
C444 C 0.74861 0.18193 0.27839 0.0
C445 C 0.78532 0.22431 0.23949 0.0
C446 C 0.72453 0.17191 0.28101 0.0
C447 C 0.70999 0.14957 0.26752 0.0
C448 C 0.71936 0.13681 0.25162 0.0
C449 C 0.74342 0.14744 0.24703 0.0
C450 C 0.75791 0.16975 0.26042 0.0
H451 H 0.79487 0.24263 0.23022 0.0
H452 H 0.79538 0.21605 0.23051 0.0
H453 H 0.76823 0.21542 0.2254 0.0
H454 H 0.71703 0.18098 0.29495 0.0
H455 H 0.69152 0.14185 0.27153 0.0
H456 H 0.54273 0.85435 0.71858 0.0
H457 H 0.52809 0.81521 0.69455 0.0
H458 H 0.59097 0.8174 0.72937 0.0
H459 H 0.60559 0.85629 0.75373 0.0
H460 H 0.55014 0.80798 0.63724 0.0
H461 H 0.54304 0.75139 0.75446 0.0
H462 H 0.54409 0.77871 0.76125 0.0
H463 H 0.57037 0.77771 0.75534 0.0
C464 C 0.5531 0.84618 0.72231 0.0
C465 C 0.57542 0.85849 0.73776 0.0
C466 C 0.54472 0.82383 0.70845 0.0
C467 C 0.55839 0.81335 0.71026 0.0
C468 C 0.57991 0.82494 0.72827 0.0
H469 H 0.5982 0.74311 0.56815 0.0
H470 H 0.586 0.76873 0.59515 0.0
C471 C 0.58832 0.84727 0.74205 0.0
C472 C 0.55212 0.7922 0.68848 0.0
H473 H 0.55149 0.74096 0.69388 0.0
C474 C 0.54982 0.79302 0.64972 0.0
C475 C 0.55132 0.77254 0.70471 0.0
C476 C 0.55209 0.76992 0.74629 0.0
C477 C 0.54871 0.77561 0.62656 0.0
C478 C 0.55028 0.75712 0.64258 0.0
C479 C 0.55058 0.7553 0.68151 0.0
C480 C 0.5547 0.74124 0.61986 0.0
C481 C 0.5467 0.77762 0.58508 0.0
C482 C 0.54091 0.71722 0.62403 0.0
C483 C 0.54792 0.70249 0.60866 0.0
C484 C 0.56899 0.71161 0.58928 0.0
C485 C 0.58187 0.73554 0.58286 0.0
C486 C 0.57484 0.75023 0.59815 0.0
H487 H 0.5374 0.78708 0.57851 0.0
H488 H 0.56428 0.78753 0.57291 0.0
H489 H 0.53752 0.76035 0.57162 0.0
H490 H 0.52536 0.70995 0.64079 0.0
H491 H 0.5376 0.68411 0.61412 0.0
H492 H 0.68794 0.54563 0.04966 0.0
H493 H 0.71214 0.5303 0.02722 0.0
H494 H 0.77303 0.59227 0.06423 0.0
H495 H 0.74903 0.60757 0.08706 0.0
H496 H 0.74235 0.55216 0.97109 0.0
H497 H 0.7895 0.54332 0.09026 0.0
H498 H 0.76351 0.54501 0.09603 0.0
H499 H 0.79116 0.57095 0.0909 0.0
C500 C 0.70643 0.55564 0.05424 0.0
C501 C 0.7166 0.57793 0.06982 0.0
C502 C 0.72023 0.54686 0.04129 0.0
C503 C 0.74438 0.56009 0.04411 0.0
C504 C 0.75442 0.58154 0.06235 0.0
H505 H 0.85594 0.59832 0.90593 0.0
H506 H 0.81798 0.58684 0.93173 0.0
C507 C 0.74065 0.59034 0.07527 0.0
C508 C 0.75926 0.55353 0.02299 0.0
H509 H 0.80914 0.55164 0.03033 0.0
C510 C 0.75662 0.55143 0.98414 0.0
C511 C 0.77765 0.55221 0.03995 0.0
C512 C 0.78047 0.55274 0.08164 0.0
C513 C 0.77299 0.54999 0.96162 0.0
C514 C 0.79262 0.55103 0.97839 0.0
C515 C 0.79422 0.55113 0.01739 0.0
C516 C 0.81306 0.55509 0.9564 0.0
C517 C 0.76953 0.54823 0.92002 0.0
C518 C 0.82271 0.54081 0.96094 0.0
C519 C 0.84452 0.54739 0.94624 0.0
C520 C 0.85712 0.56853 0.9272 0.0
C521 C 0.84667 0.58194 0.92041 0.0
C522 C 0.82488 0.57532 0.93501 0.0
H523 H 0.75085 0.53934 0.91281 0.0
H524 H 0.77774 0.56589 0.90796 0.0
H525 H 0.77742 0.53876 0.90697 0.0
H526 H 0.8139 0.52518 0.97747 0.0
H527 H 0.85211 0.53669 0.95199 0.0
H528 H 0.13964 0.75673 0.43197 0.0
H529 H 0.17806 0.78296 0.40739 0.0
H530 H 0.18582 0.72485 0.37641 0.0
H531 H 0.14707 0.69834 0.40036 0.0
H532 H 0.22356 0.79155 0.41473 0.0
H533 H 0.1854 0.75436 0.27631 0.0
H534 H 0.16791 0.74804 0.31756 0.0
H535 H 0.18521 0.73468 0.31064 0.0
C536 C 0.14973 0.74948 0.42092 0.0
C537 C 0.14012 0.72545 0.41738 0.0
C538 C 0.17172 0.76452 0.40687 0.0
C539 C 0.18448 0.7558 0.38919 0.0
C540 C 0.17599 0.73188 0.38923 0.0
H541 H 0.31255 0.86567 0.28566 0.0
H542 H 0.28731 0.82855 0.31616 0.0
C543 C 0.15391 0.71678 0.40317 0.0
C544 C 0.20494 0.77169 0.3668 0.0
H545 H 0.22177 0.7877 0.27679 0.0
C546 C 0.2235 0.7905 0.38461 0.0
C547 C 0.20458 0.77031 0.32744 0.0
C548 C 0.18469 0.75089 0.30667 0.0
C549 C 0.24112 0.80863 0.36407 0.0
C550 C 0.24025 0.80766 0.32471 0.0
C551 C 0.22239 0.78825 0.30696 0.0
C552 C 0.25561 0.82803 0.3017 0.0
C553 C 0.25962 0.82939 0.38456 0.0
C554 C 0.24603 0.83931 0.28181 0.0
C555 C 0.26032 0.86035 0.26418 0.0
C556 C 0.28447 0.87048 0.2661 0.0
C557 C 0.29399 0.85835 0.28385 0.0
C558 C 0.27964 0.83724 0.30151 0.0
H559 H 0.25584 0.82885 0.41477 0.0
H560 H 0.27643 0.82998 0.38141 0.0
H561 H 0.26149 0.8456 0.3727 0.0
H562 H 0.2275 0.8324 0.28148 0.0
H563 H 0.25244 0.8692 0.25061 0.0
H564 H 0.38575 0.1337 0.75975 0.0
H565 H 0.39769 0.17201 0.73485 0.0
H566 H 0.4643 0.18083 0.70624 0.0
H567 H 0.45234 0.1422 0.73053 0.0
H568 H 0.43403 0.21777 0.7422 0.0
H569 H 0.43505 0.1795 0.60493 0.0
H570 H 0.42367 0.16211 0.64628 0.0
H571 H 0.45436 0.17975 0.64003 0.0
C572 C 0.4032 0.14403 0.74923 0.0
C573 C 0.41791 0.13472 0.74636 0.0
C574 C 0.41 0.16595 0.73496 0.0
C575 C 0.43162 0.17893 0.71775 0.0
C576 C 0.44734 0.17081 0.71865 0.0
H577 H 0.44807 0.30604 0.6143 0.0
H578 H 0.46085 0.28119 0.64349 0.0
C579 C 0.44052 0.1488 0.73282 0.0
C580 C 0.43608 0.19921 0.6949 0.0
H581 H 0.43751 0.21564 0.60442 0.0
C582 C 0.43532 0.21764 0.71213 0.0
C583 C 0.43749 0.19874 0.65559 0.0
C584 C 0.43754 0.17895 0.63541 0.0
C585 C 0.4347 0.23502 0.69105 0.0
C586 C 0.43525 0.23408 0.65171 0.0
C587 C 0.43728 0.21634 0.63456 0.0
C588 C 0.43024 0.24923 0.62811 0.0
C589 C 0.43183 0.25332 0.71097 0.0
C590 C 0.40957 0.23942 0.60768 0.0
C591 C 0.40232 0.25351 0.59068 0.0
C592 C 0.41564 0.27767 0.59389 0.0
C593 C 0.43734 0.28747 0.61156 0.0
C594 C 0.4446 0.27332 0.62852 0.0
H595 H 0.4281 0.24944 0.74107 0.0
H596 H 0.44799 0.27024 0.70834 0.0
H597 H 0.41758 0.25502 0.6983 0.0
H598 H 0.39831 0.22083 0.60681 0.0
H599 H 0.38559 0.24542 0.57713 0.0
H600 H 0.31173 0.29857 0.65931 0.0
H601 H 0.29382 0.30347 0.71544 0.0
H602 H 0.35236 0.31339 0.78051 0.0
H603 H 0.37053 0.30885 0.72465 0.0
H604 H 0.28433 0.28355 0.79362 0.0
H605 H 0.35118 0.37621 0.78047 0.0
H606 H 0.34405 0.35581 0.74292 0.0
H607 H 0.36251 0.35683 0.78021 0.0
C608 C 0.32051 0.30123 0.68574 0.0
C609 C 0.34272 0.30381 0.68762 0.0
C610 C 0.31023 0.30395 0.7177 0.0
C611 C 0.32199 0.30909 0.75174 0.0
C612 C 0.3432 0.30963 0.75424 0.0
H613 H 0.30354 0.32813 0.97694 0.0
H614 H 0.2997 0.31107 0.91558 0.0
C615 C 0.35356 0.3071 0.72236 0.0
C616 C 0.31397 0.31709 0.78347 0.0
H617 H 0.33072 0.36457 0.83764 0.0
C618 C 0.29419 0.30131 0.80315 0.0
C619 C 0.32656 0.34041 0.79495 0.0
C620 C 0.34713 0.35839 0.77336 0.0
C621 C 0.28748 0.30805 0.83566 0.0
C622 C 0.30121 0.33097 0.8488 0.0
C623 C 0.32019 0.34697 0.8277 0.0
C624 C 0.29805 0.33848 0.88594 0.0
C625 C 0.26595 0.29053 0.85571 0.0
C626 C 0.29824 0.3595 0.88981 0.0
C627 C 0.30116 0.36963 0.92479 0.0
C628 C 0.30362 0.35872 0.95644 0.0
C629 C 0.30164 0.33687 0.95293 0.0
C630 C 0.29916 0.32695 0.91788 0.0
H631 H 0.25317 0.27776 0.8359 0.0
H632 H 0.27056 0.28088 0.87585 0.0
H633 H 0.25771 0.29891 0.8711 0.0
H634 H 0.29747 0.36871 0.86551 0.0
H635 H 0.30239 0.38638 0.92688 0.0
H636 H 0.98992 0.31245 0.33426 0.0
H637 H 0.01285 0.31561 0.27912 0.0
H638 H 0.96801 0.32986 0.21157 0.0
H639 H 0.94529 0.3272 0.26652 0.0
H640 H 0.00261 0.29389 0.20797 0.0
H641 H 0.03251 0.3875 0.19982 0.0
H642 H 0.01801 0.37024 0.24022 0.0
H643 H 0.00158 0.36998 0.20032 0.0
C644 C 0.98479 0.31597 0.30755 0.0
C645 C 0.96608 0.31998 0.30467 0.0
C646 C 0.99787 0.31772 0.27616 0.0
C647 C 0.99234 0.32343 0.24162 0.0
C648 C 0.97277 0.32591 0.23827 0.0
H649 H 0.02469 0.32119 0.01706 0.0
H650 H 0.01274 0.31009 0.08134 0.0
C651 C 0.9598 0.32434 0.2696 0.0
C652 C 0.00776 0.32839 0.20944 0.0
H653 H 0.03843 0.3704 0.14572 0.0
C654 C 0.01076 0.31067 0.19451 0.0
C655 C 0.01893 0.35052 0.1928 0.0
C656 C 0.01783 0.37072 0.20934 0.0
C657 C 0.02351 0.31416 0.16172 0.0
C658 C 0.03296 0.33573 0.14328 0.0
C659 C 0.03109 0.35379 0.15965 0.0
C660 C 0.04279 0.33959 0.10534 0.0
C661 C 0.02648 0.29465 0.14708 0.0
C662 C 0.06376 0.35976 0.09732 0.0
C663 C 0.07024 0.3665 0.06052 0.0
C664 C 0.05601 0.35298 0.03121 0.0
C665 C 0.036 0.33187 0.03917 0.0
C666 C 0.02929 0.32538 0.07598 0.0
H667 H 0.0267 0.28372 0.17022 0.0
H668 H 0.01162 0.28347 0.12883 0.0
H669 H 0.04268 0.30118 0.13078 0.0
H670 H 0.07442 0.37099 0.11955 0.0
H671 H 0.08588 0.38277 0.055 0.0
H672 H 0.60874 0.93598 0.59439 0.0
H673 H 0.62703 0.95188 0.53458 0.0
H674 H 0.69425 0.97603 0.58369 0.0
H675 H 0.67606 0.96061 0.64398 0.0
H676 H 0.69177 0.01004 0.54933 0.0
H677 H 0.65826 0.93522 0.45462 0.0
H678 H 0.63494 0.93517 0.47931 0.0
H679 H 0.6565 0.93199 0.50463 0.0
C680 C 0.62738 0.94424 0.5923 0.0
C681 C 0.64099 0.94727 0.62387 0.0
C682 C 0.63781 0.95313 0.55801 0.0
C683 C 0.66199 0.96487 0.55462 0.0
C684 C 0.67556 0.96691 0.58573 0.0
H685 H 0.70615 0.02245 0.33096 0.0
H686 H 0.70678 0.00397 0.38943 0.0
C687 C 0.66515 0.95814 0.6201 0.0
C688 C 0.6729 0.97763 0.52005 0.0
H689 H 0.66864 0.97227 0.42573 0.0
C690 C 0.6872 0.00172 0.5223 0.0
C691 C 0.66734 0.96676 0.48485 0.0
C692 C 0.65362 0.94082 0.48075 0.0
C693 C 0.69447 0.01541 0.49017 0.0
C694 C 0.6868 0.00471 0.45511 0.0
C695 C 0.67418 0.98049 0.45273 0.0
C696 C 0.68931 0.01821 0.42115 0.0
C697 C 0.70963 0.04124 0.49418 0.0
C698 C 0.67945 0.03246 0.41981 0.0
C699 C 0.67909 0.04304 0.38658 0.0
C700 C 0.68833 0.0393 0.35401 0.0
C701 C 0.69884 0.02559 0.35564 0.0
C702 C 0.69925 0.01505 0.38897 0.0
H703 H 0.72054 0.04568 0.51957 0.0
H704 H 0.72103 0.04895 0.46961 0.0
H705 H 0.69855 0.04918 0.49698 0.0
H706 H 0.67116 0.03464 0.44412 0.0
H707 H 0.67082 0.05347 0.38614 0.0
H708 H 0.67448 0.69621 0.6586 0.0
H709 H 0.69437 0.69525 0.71525 0.0
H710 H 0.63445 0.68097 0.78031 0.0
H711 H 0.61427 0.68149 0.72384 0.0
H712 H 0.70397 0.71734 0.78905 0.0
H713 H 0.64212 0.62283 0.78934 0.0
H714 H 0.64595 0.64093 0.74959 0.0
H715 H 0.62858 0.64023 0.78829 0.0
C716 C 0.66571 0.69332 0.68507 0.0
C717 C 0.64266 0.68843 0.68683 0.0
C718 C 0.67713 0.69288 0.71734 0.0
C719 C 0.66567 0.68767 0.75164 0.0
C720 C 0.64339 0.68472 0.75386 0.0
H721 H 0.69846 0.6798 0.97675 0.0
H722 H 0.69727 0.69458 0.91519 0.0
C723 C 0.6319 0.68498 0.72164 0.0
C724 C 0.67565 0.68241 0.78418 0.0
H725 H 0.66529 0.63841 0.84315 0.0
C726 C 0.69573 0.70008 0.80085 0.0
C727 C 0.66514 0.65973 0.79867 0.0
C728 C 0.64439 0.63976 0.78038 0.0
C729 C 0.70499 0.69579 0.83299 0.0
C730 C 0.69358 0.67338 0.84881 0.0
C731 C 0.67406 0.6556 0.83106 0.0
C732 C 0.70009 0.66798 0.8852 0.0
C733 C 0.7268 0.71524 0.84962 0.0
C734 C 0.70246 0.64833 0.88887 0.0
C735 C 0.70248 0.63949 0.92401 0.0
C736 C 0.70044 0.65036 0.956 0.0
C737 C 0.70011 0.67113 0.95247 0.0
C738 C 0.69966 0.67973 0.91727 0.0
H739 H 0.73758 0.72801 0.82801 0.0
H740 H 0.72214 0.72442 0.87054 0.0
H741 H 0.73725 0.7087 0.86357 0.0
H742 H 0.70281 0.63899 0.86446 0.0
H743 H 0.70298 0.62356 0.92608 0.0
H744 H 0.07762 0.69789 0.2711 0.0
H745 H 0.06061 0.69463 0.20957 0.0
H746 H 0.00135 0.69324 0.26019 0.0
H747 H 0.0187 0.69745 0.32153 0.0
H748 H 0.02231 0.65696 0.19177 0.0
H749 H 0.00886 0.73132 0.16937 0.0
H750 H 0.0279 0.73124 0.20503 0.0
H751 H 0.99721 0.71737 0.21308 0.0
C752 C 0.06127 0.69756 0.26894 0.0
C753 C 0.04934 0.69768 0.30096 0.0
C754 C 0.05161 0.69575 0.23384 0.0
C755 C 0.02976 0.6938 0.23029 0.0
C756 C 0.01845 0.69527 0.26215 0.0
H757 H 0.93095 0.60783 0.0652 0.0
H758 H 0.95074 0.62661 0.12307 0.0
C759 C 0.02829 0.69747 0.29724 0.0
C760 C 0.01729 0.6864 0.19447 0.0
H761 H 0.98545 0.69741 0.13202 0.0
C762 C 0.01453 0.66601 0.17848 0.0
C763 C 0.00718 0.69823 0.17713 0.0
C764 C 0.01064 0.72088 0.19186 0.0
C765 C 0.00157 0.65685 0.14607 0.0
C766 C 0.99042 0.66796 0.12987 0.0
C767 C 0.99365 0.68871 0.1451 0.0
C768 C 0.97594 0.65841 0.0964 0.0
C769 C 0.00012 0.63542 0.12935 0.0
C770 C 0.98277 0.67067 0.06281 0.0
C771 C 0.97135 0.66011 0.02983 0.0
C772 C 0.95305 0.6371 0.03009 0.0
C773 C 0.94523 0.62546 0.06417 0.0
C774 C 0.95651 0.63612 0.09716 0.0
H775 H 0.01438 0.63275 0.13928 0.0
H776 H 0.98353 0.62007 0.13762 0.0
H777 H 0.00077 0.63639 0.09849 0.0
H778 H 0.99767 0.68795 0.06181 0.0
H779 H 0.97764 0.66956 0.00396 0.0
H780 H 0.33601 0.95867 0.38164 0.0
H781 H 0.33469 0.9779 0.43841 0.0
H782 H 0.30436 0.01193 0.37771 0.0
H783 H 0.30585 0.99287 0.32036 0.0
H784 H 0.34188 0.04186 0.42069 0.0
H785 H 0.28046 0.96676 0.50432 0.0
H786 H 0.30232 0.96191 0.4846 0.0
H787 H 0.28269 0.96533 0.45438 0.0
C788 C 0.32883 0.97004 0.38039 0.0
C789 C 0.32106 0.9743 0.34661 0.0
C790 C 0.3279 0.98086 0.4129 0.0
C791 C 0.31903 0.99597 0.41227 0.0
C792 C 0.31104 0.00012 0.3787 0.0
H793 H 0.32589 0.0432 0.63974 0.0
H794 H 0.30959 0.03333 0.57704 0.0
C795 C 0.31192 0.98924 0.34607 0.0
C796 C 0.32006 0.0087 0.44637 0.0
H797 H 0.30937 -5e-05 0.53918 0.0
C798 C 0.33429 0.03283 0.44653 0.0
C799 C 0.30964 0.99698 0.47976 0.0
C800 C 0.29271 0.97133 0.48069 0.0
C801 C 0.34022 0.04525 0.48 0.0
C802 C 0.33206 0.03307 0.5139 0.0
C803 C 0.31597 0.00929 0.51324 0.0
C804 C 0.34232 0.04363 0.55017 0.0
C805 C 0.35586 0.07112 0.47877 0.0
C806 C 0.3662 0.05321 0.55571 0.0
C807 C 0.37556 0.05898 0.5914 0.0
C808 C 0.36111 0.05484 0.6222 0.0
C809 C 0.33739 0.04636 0.61647 0.0
C810 C 0.32807 0.04082 0.5807 0.0
H811 H 0.3528 0.07846 0.45305 0.0
H812 H 0.35327 0.07967 0.5033 0.0
H813 H 0.37414 0.07522 0.47829 0.0
H814 H 0.37745 0.05493 0.53277 0.0
H815 H 0.3939 0.06548 0.59502 0.0
H816 H 0.42077 0.41472 0.01483 0.0
H817 H 0.4612 0.44552 0.01413 0.0
H818 H 0.44274 0.49105 0.07011 0.0
H819 H 0.40221 0.46032 0.07124 0.0
H820 H 0.48092 0.49072 0.98275 0.0
H821 H 0.49452 0.4923 0.13562 0.0
H822 H 0.47025 0.46859 0.11245 0.0
H823 H 0.47021 0.49503 0.12128 0.0
C824 C 0.42525 0.43127 0.02702 0.0
C825 C 0.40823 0.435 0.04329 0.0
C826 C 0.44837 0.44885 0.02652 0.0
C827 C 0.45494 0.47041 0.04248 0.0
C828 C 0.43802 0.47438 0.05818 0.0
H829 H 0.58559 0.5982 0.01686 0.0
H830 H 0.54503 0.56771 0.01553 0.0
C831 C 0.41486 0.45682 0.05862 0.0
C832 C 0.47955 0.48873 0.04257 0.0
H833 H 0.5252 0.52122 0.10004 0.0
C834 C 0.49064 0.49742 0.00835 0.0
C835 C 0.49217 0.49716 0.07604 0.0
C836 C 0.48131 0.48771 0.11348 0.0
C837 C 0.51404 0.51459 0.00672 0.0
C838 C 0.52652 0.5234 0.04023 0.0
C839 C 0.5155 0.51451 0.07443 0.0
C840 C 0.55113 0.54174 0.04043 0.0
C841 C 0.52533 0.52289 0.96919 0.0
C842 C 0.56792 0.53731 0.05543 0.0
C843 C 0.59112 0.5547 0.05636 0.0
C844 C 0.59793 0.57691 0.04253 0.0
C845 C 0.58099 0.58127 0.02759 0.0
C846 C 0.5578 0.56385 0.02663 0.0
H847 H 0.51509 0.51067 0.94662 0.0
H848 H 0.52679 0.53984 0.96291 0.0
H849 H 0.54301 0.52526 0.9691 0.0
H850 H 0.56305 0.52035 0.06635 0.0
H851 H 0.60368 0.55074 0.06814 0.0
H852 H 0.0579 0.60812 0.41316 0.0
H853 H 0.04783 0.56751 0.41424 0.0
H854 H 0.97668 0.54671 0.39101 0.0
H855 H 0.98664 0.58717 0.38895 0.0
H856 H 0.01792 0.53233 0.45917 0.0
H857 H 0.98974 0.51174 0.31211 0.0
H858 H 0.00528 0.54101 0.32936 0.0
H859 H 0.97468 0.52338 0.33726 0.0
C860 C 0.04013 0.59491 0.40809 0.0
C861 C 0.02311 0.60091 0.40068 0.0
C862 C 0.0344 0.57172 0.40875 0.0
C863 C 0.01159 0.55411 0.40203 0.0
C864 C 0.99451 0.56003 0.39529 0.0
H865 H 0.94262 0.40386 0.40794 0.0
H866 H 0.95161 0.44422 0.40848 0.0
C867 C 0.00023 0.58319 0.39433 0.0
C868 C 0.00555 0.52954 0.40295 0.0
H869 H 0.98167 0.47991 0.35147 0.0
C870 C 0.0101 0.5209 0.43557 0.0
C871 C 0.99534 0.51466 0.37209 0.0
C872 C 0.99117 0.52319 0.3356 0.0
C873 C 0.00446 0.4977 0.43829 0.0
C874 C 0.9941 0.48286 0.40758 0.0
C875 C 0.98947 0.4914 0.37503 0.0
C876 C 0.98867 0.45854 0.40826 0.0
C877 C 0.00937 0.4891 0.47406 0.0
C878 C 0.00658 0.45339 0.40771 0.0
C879 C 0.00155 0.43044 0.40714 0.0
C880 C 0.97848 0.41221 0.40723 0.0
C881 C 0.96056 0.41748 0.408 0.0
C882 C 0.96563 0.44049 0.40826 0.0
H883 H 0.01335 0.50147 0.49734 0.0
H884 H 0.99438 0.47213 0.48201 0.0
H885 H 0.02447 0.48665 0.46996 0.0
H886 H 0.02446 0.46716 0.40729 0.0
H887 H 0.01578 0.42702 0.40657 0.0
H888 H 0.58575 0.00114 0.68406 0.0
H889 H 0.55499 0.01072 0.68733 0.0
H890 H 0.52443 0.96378 0.7798 0.0
H891 H 0.55458 0.95331 0.77549 0.0
H892 H 0.49235 0.95821 0.7335 0.0
H893 H 0.54729 0.05203 0.75803 0.0
H894 H 0.55548 0.04361 0.71599 0.0
H895 H 0.55857 0.03253 0.76009 0.0
C896 C 0.57255 0.99296 0.70523 0.0
C897 C 0.57262 0.97653 0.72961 0.0
C898 C 0.55507 0.9986 0.70728 0.0
C899 C 0.53768 0.98841 0.7344 0.0
C900 C 0.53773 0.97198 0.75877 0.0
H901 H 0.44352 0.04102 0.7763 0.0
H902 H 0.47391 0.03088 0.78136 0.0
C903 C 0.55496 0.966 0.75627 0.0
C904 C 0.51887 0.99409 0.73625 0.0
H905 H 0.50837 0.03911 0.73829 0.0
C906 C 0.49587 0.9759 0.73495 0.0
C907 C 0.52338 0.01713 0.73893 0.0
C908 C 0.54752 0.03739 0.74377 0.0
C909 C 0.4773 0.98012 0.73519 0.0
C910 C 0.48187 0.00323 0.73522 0.0
C911 C 0.50485 0.0214 0.73764 0.0
C912 C 0.46314 0.00899 0.73247 0.0
C913 C 0.45302 0.9597 0.73604 0.0
C914 C 0.44715 0.00032 0.70308 0.0
C915 C 0.42954 0.00575 0.70054 0.0
C916 C 0.42796 0.02047 0.72677 0.0
C917 C 0.44432 0.02964 0.75564 0.0
C918 C 0.46168 0.02385 0.75857 0.0
H919 H 0.45259 0.9443 0.74871 0.0
H920 H 0.44119 0.96366 0.75196 0.0
H921 H 0.44644 0.95508 0.70714 0.0
H922 H 0.44838 0.98949 0.68187 0.0
H923 H 0.41737 0.99868 0.67769 0.0
H924 H 0.58455 0.57637 0.62209 0.0
H925 H 0.55383 0.53589 0.62235 0.0
H926 H 0.5072 0.55488 0.57153 0.0
H927 H 0.53782 0.59549 0.57102 0.0
H928 H 0.50841 0.51618 0.65618 0.0
H929 H 0.5056 0.50355 0.50288 0.0
H930 H 0.52983 0.52728 0.52613 0.0
H931 H 0.50369 0.52811 0.5185 0.0
C932 C 0.56778 0.57199 0.61093 0.0
C933 C 0.56368 0.58919 0.59636 0.0
C934 C 0.55026 0.54885 0.61118 0.0
C935 C 0.5284 0.54244 0.59658 0.0
C936 C 0.5241 0.55951 0.58245 0.0
H937 H 0.39975 0.41308 0.61995 0.0
H938 H 0.43075 0.45343 0.62115 0.0
C939 C 0.54158 0.5827 0.58235 0.0
C940 C 0.51008 0.51786 0.59636 0.0
H941 H 0.47709 0.4726 0.53855 0.0
C942 C 0.50154 0.50661 0.63051 0.0
C943 C 0.50143 0.50546 0.56278 0.0
C944 C 0.51068 0.51658 0.52542 0.0
C945 C 0.48422 0.48326 0.63196 0.0
C946 C 0.47521 0.471 0.59837 0.0
C947 C 0.484 0.48215 0.56422 0.0
C948 C 0.45658 0.44654 0.59808 0.0
C949 C 0.47588 0.47178 0.66936 0.0
C950 C 0.46083 0.4294 0.58422 0.0
C951 C 0.44317 0.40629 0.58349 0.0
C952 C 0.42088 0.39999 0.59628 0.0
C953 C 0.4167 0.4173 0.60995 0.0
C954 C 0.43441 0.44036 0.61083 0.0
H955 H 0.48793 0.48203 0.69213 0.0
H956 H 0.45877 0.46999 0.67541 0.0
H957 H 0.47377 0.45421 0.66931 0.0
H958 H 0.47786 0.43391 0.5741 0.0
H959 H 0.44696 0.39343 0.57267 0.0
H960 H 0.99849 0.57468 0.97619 0.0
H961 H 0.00806 0.54389 0.97426 0.0
H962 H 0.95951 0.51115 0.88439 0.0
H963 H 0.949 0.54136 0.88752 0.0
H964 H 0.95588 0.47995 0.93104 0.0
H965 H 0.04885 0.53685 0.90177 0.0
H966 H 0.04084 0.54513 0.94412 0.0
H967 H 0.02861 0.54723 0.90054 0.0
C968 C 0.98987 0.56092 0.95599 0.0
C969 C 0.97311 0.56048 0.93183 0.0
C970 C 0.99551 0.54344 0.95468 0.0
C971 C 0.98501 0.52554 0.92846 0.0
C972 C 0.96798 0.52488 0.90468 0.0
H973 H 0.0412 0.43498 0.88266 0.0
H974 H 0.02978 0.46448 0.87919 0.0
C975 C 0.96197 0.54213 0.90649 0.0
C976 C 0.99137 0.5072 0.92653 0.0
H977 H 0.03746 0.49845 0.92215 0.0
C978 C 0.97371 0.484 0.92872 0.0
C979 C 0.01458 0.5124 0.92268 0.0
C980 C 0.03424 0.53675 0.91671 0.0
C981 C 0.97864 0.4659 0.92816 0.0
C982 C 0.00198 0.47119 0.92691 0.0
C983 C 0.01959 0.49437 0.92373 0.0
C984 C 0.00858 0.45303 0.92884 0.0
C985 C 0.95871 0.44134 0.92814 0.0
C986 C 0.00076 0.43696 0.95816 0.0
C987 C 0.00688 0.41981 0.95975 0.0
C988 C 0.02152 0.41883 0.93266 0.0
C989 C 0.02993 0.43534 0.90397 0.0
C990 C 0.02339 0.45219 0.90195 0.0
H991 H 0.94283 0.4403 0.91635 0.0
H992 H 0.96282 0.42975 0.91185 0.0
H993 H 0.95479 0.43491 0.95721 0.0
H994 H 0.99001 0.43773 0.97999 0.0
H995 H 0.0004 0.40751 0.98248 0.0
H996 H 0.60392 0.05589 0.23331 0.0
H997 H 0.56374 0.04697 0.22917 0.0
H998 H 0.54041 0.97456 0.24491 0.0
H999 H 0.58045 0.98331 0.24993 0.0
H1000 H 0.52916 0.01916 0.18038 0.0
H1001 H 0.50495 0.98658 0.32494 0.0
H1002 H 0.53459 0.00212 0.30937 0.0
H1003 H 0.51659 0.97193 0.29862 0.0
C1004 C 0.59025 0.03806 0.23597 0.0
C1005 C 0.5954 0.02033 0.24229 0.0
C1006 C 0.56731 0.033 0.23355 0.0
C1007 C 0.54911 0.01017 0.2374 0.0
C1008 C 0.55419 0.99237 0.24278 0.0
H1009 H 0.39951 0.94667 0.23159 0.0
H1010 H 0.43927 0.95409 0.22945 0.0
C1011 C 0.5771 0.99741 0.24545 0.0
C1012 C 0.52483 0.00497 0.23559 0.0
H1013 H 0.47446 0.98151 0.28498 0.0
C1014 C 0.51721 0.011 0.20328 0.0
C1015 C 0.5093 0.99434 0.26555 0.0
C1016 C 0.51678 0.98856 0.30172 0.0
C1017 C 0.49436 0.00643 0.19997 0.0
C1018 C 0.47888 0.99572 0.22985 0.0
C1019 C 0.48642 0.98959 0.26206 0.0
C1020 C 0.4549 0.99131 0.2288 0.0
C1021 C 0.48685 0.01283 0.16446 0.0
C1022 C 0.45063 0.00983 0.22918 0.0
C1023 C 0.42798 0.00569 0.23061 0.0
C1024 C 0.40919 0.98293 0.23167 0.0
C1025 C 0.41356 0.9644 0.2307 0.0
C1026 C 0.43625 0.96858 0.22951 0.0
H1027 H 0.4992 0.01628 0.14135 0.0
H1028 H 0.46944 0.99884 0.15586 0.0
H1029 H 0.48581 0.0287 0.1692 0.0
H1030 H 0.46485 0.0275 0.22918 0.0
H1031 H 0.42524 0.02036 0.23134 0.0
loop_
_geom_bond_atom_site_label_1
_geom_bond_atom_site_label_2
_geom_bond_distance
_geom_bond_site_symmetry_2
_ccdc_geom_bond_type
C0 O1 1.306 . S
C0 O3 1.160 . S
O1 C0 1.306 . S
O1 Cd2 2.228 . S
Cd2 O1 2.228 . S
Cd2 O6 2.273 . S
Cd2 O10 2.277 . S
O3 C0 1.160 . S
O3 Cd4 2.203 . S
Cd4 O3 2.203 . S
Cd4 O6 2.411 . S
Cd4 O7 2.333 1_554 S
Cd4 O8 2.352 . S
Cd4 O12 2.277 . S
Cd4 O13 2.356 . S
C5 O10 1.209 . S
C5 O12 1.226 . S
O6 Cd2 2.273 . S
O6 Cd4 2.411 . S
O6 C9 1.323 1_554 S
O7 Cd4 2.333 1_556 S
O7 C9 1.213 . S
O8 Cd4 2.352 . S
O8 C11 1.258 . S
C9 O6 1.323 1_556 S
C9 O7 1.213 . S
O10 Cd2 2.277 . S
O10 C5 1.209 . S
C11 O8 1.258 . S
C11 O13 1.282 . S
O12 Cd4 2.277 . S
O12 C5 1.226 . S
O13 Cd4 2.356 . S
O13 C11 1.282 . S
C14 O15 1.306 . S
C14 O17 1.160 . S
O15 C14 1.306 . S
O15 Cd16 2.228 1_655 S
Cd16 O15 2.228 1_455 S
Cd16 O20 2.273 1_455 S
Cd16 O24 2.277 1_455 S
O17 C14 1.160 . S
O17 Cd18 2.203 . S
Cd18 O17 2.203 . S
Cd18 O20 2.411 . S
Cd18 O21 2.333 . S
Cd18 O22 2.352 . S
Cd18 O26 2.277 . S
Cd18 O27 2.356 . S
C19 O24 1.209 . S
C19 O26 1.226 . S
O20 Cd16 2.273 1_655 S
O20 Cd18 2.411 . S
O20 C23 1.320 . S
O21 Cd18 2.333 . S
O21 C23 1.214 . S
O22 Cd18 2.352 . S
O22 C25 1.258 . S
C23 O20 1.320 . S
C23 O21 1.214 . S
O24 Cd16 2.277 1_655 S
O24 C19 1.209 . S
C25 O22 1.258 . S
C25 O27 1.282 . S
O26 Cd18 2.277 . S
O26 C19 1.226 . S
O27 Cd18 2.356 . S
O27 C25 1.282 . S
C28 O29 1.306 . S
C28 O31 1.160 . S
O29 C28 1.306 . S
O29 Cd30 2.228 1_565 S
Cd30 O29 2.228 1_545 S
Cd30 O34 2.273 1_545 S
Cd30 O38 2.277 1_545 S
O31 C28 1.160 . S
O31 Cd32 2.203 . S
Cd32 O31 2.203 . S
Cd32 O34 2.411 . S
Cd32 O35 2.333 . S
Cd32 O36 2.352 . S
Cd32 O40 2.277 . S
Cd32 O41 2.356 . S
C33 O38 1.209 . S
C33 O40 1.226 . S
O34 Cd30 2.273 1_565 S
O34 Cd32 2.411 . S
O34 C37 1.320 . S
O35 Cd32 2.333 . S
O35 C37 1.214 . S
O36 Cd32 2.352 . S
O36 C39 1.258 . S
C37 O34 1.320 . S
C37 O35 1.214 . S
O38 Cd30 2.277 1_565 S
O38 C33 1.209 . S
C39 O36 1.258 . S
C39 O41 1.282 . S
O40 Cd32 2.277 . S
O40 C33 1.226 . S
O41 Cd32 2.356 . S
O41 C39 1.282 . S
C42 O43 1.306 . S
C42 O45 1.160 . S
O43 C42 1.306 . S
O43 Cd44 2.228 . S
Cd44 O43 2.228 . S
Cd44 O48 2.273 . S
Cd44 O52 2.277 . S
O45 C42 1.160 . S
O45 Cd46 2.203 . S
Cd46 O45 2.203 . S
Cd46 O48 2.411 . S
Cd46 O49 2.333 1_554 S
Cd46 O50 2.352 . S
Cd46 O54 2.277 . S
Cd46 O55 2.356 . S
C47 O52 1.209 . S
C47 O54 1.226 . S
O48 Cd44 2.273 . S
O48 Cd46 2.411 . S
O48 C51 1.323 1_554 S
O49 Cd46 2.333 1_556 S
O49 C51 1.213 . S
O50 Cd46 2.352 . S
O50 C53 1.258 . S
C51 O48 1.323 1_556 S
C51 O49 1.213 . S
O52 Cd44 2.277 . S
O52 C47 1.209 . S
C53 O50 1.258 . S
C53 O55 1.282 . S
O54 Cd46 2.277 . S
O54 C47 1.226 . S
O55 Cd46 2.356 . S
O55 C53 1.282 . S
C56 O57 1.306 . S
C56 O59 1.160 . S
O57 C56 1.306 . S
O57 Cd58 2.228 1_455 S
Cd58 O57 2.228 1_655 S
Cd58 O62 2.273 1_655 S
Cd58 O66 2.277 1_655 S
O59 C56 1.160 . S
O59 Cd60 2.203 . S
Cd60 O59 2.203 . S
Cd60 O62 2.411 . S
Cd60 O63 2.333 . S
Cd60 O64 2.352 . S
Cd60 O68 2.277 . S
Cd60 O69 2.356 . S
C61 O66 1.209 . S
C61 O68 1.226 . S
O62 Cd58 2.273 1_455 S
O62 Cd60 2.411 . S
O62 C65 1.320 . S
O63 Cd60 2.333 . S
O63 C65 1.214 . S
O64 Cd60 2.352 . S
O64 C67 1.258 . S
C65 O62 1.320 . S
C65 O63 1.214 . S
O66 Cd58 2.277 1_455 S
O66 C61 1.209 . S
C67 O64 1.258 . S
C67 O69 1.282 . S
O68 Cd60 2.277 . S
O68 C61 1.226 . S
O69 Cd60 2.356 . S
O69 C67 1.282 . S
C70 O71 1.306 . S
C70 O73 1.160 . S
O71 C70 1.306 . S
O71 Cd72 2.228 1_545 S
Cd72 O71 2.228 1_565 S
Cd72 O76 2.273 1_565 S
Cd72 O80 2.277 1_565 S
O73 C70 1.160 . S
O73 Cd74 2.203 . S
Cd74 O73 2.203 . S
Cd74 O76 2.411 . S
Cd74 O77 2.333 . S
Cd74 O78 2.352 . S
Cd74 O82 2.277 . S
Cd74 O83 2.356 . S
C75 O80 1.209 . S
C75 O82 1.226 . S
O76 Cd72 2.273 1_545 S
O76 Cd74 2.411 . S
O76 C79 1.320 . S
O77 Cd74 2.333 . S
O77 C79 1.214 . S
O78 Cd74 2.352 . S
O78 C81 1.258 . S
C79 O76 1.320 . S
C79 O77 1.214 . S
O80 Cd72 2.277 1_545 S
O80 C75 1.209 . S
C81 O78 1.258 . S
C81 O83 1.282 . S
O82 Cd74 2.277 . S
O82 C75 1.226 . S
O83 Cd74 2.356 . S
O83 C81 1.282 . S
C84 O85 1.306 . S
C84 O87 1.160 . S
O85 C84 1.306 . S
O85 Cd86 2.228 . S
Cd86 O85 2.228 . S
Cd86 O90 2.273 . S
Cd86 O94 2.277 . S
O87 C84 1.160 . S
O87 Cd88 2.203 . S
Cd88 O87 2.203 . S
Cd88 O90 2.411 . S
Cd88 O91 2.333 . S
Cd88 O92 2.352 . S
Cd88 O96 2.277 . S
Cd88 O97 2.356 . S
C89 O94 1.209 . S
C89 O96 1.226 . S
O90 Cd86 2.273 . S
O90 Cd88 2.411 . S
O90 C93 1.320 . S
O91 Cd88 2.333 . S
O91 C93 1.214 . S
O92 Cd88 2.352 . S
O92 C95 1.258 . S
C93 O90 1.320 . S
C93 O91 1.214 . S
O94 Cd86 2.277 . S
O94 C89 1.209 . S
C95 O92 1.258 . S
C95 O97 1.282 . S
O96 Cd88 2.277 . S
O96 C89 1.226 . S
O97 Cd88 2.356 . S
O97 C95 1.282 . S
C98 O99 1.306 . S
C98 O101 1.160 . S
O99 C98 1.306 . S
O99 Cd100 2.228 1_655 S
Cd100 O99 2.228 1_455 S
Cd100 O104 2.273 1_455 S
Cd100 O108 2.277 1_455 S
O101 C98 1.160 . S
O101 Cd102 2.203 . S
Cd102 O101 2.203 . S
Cd102 O104 2.411 . S
Cd102 O105 2.333 1_556 S
Cd102 O106 2.352 . S
Cd102 O110 2.277 . S
Cd102 O111 2.356 . S
C103 O108 1.209 . S
C103 O110 1.226 . S
O104 Cd100 2.273 1_655 S
O104 Cd102 2.411 . S
O104 C107 1.323 1_556 S
O105 Cd102 2.333 1_554 S
O105 C107 1.213 . S
O106 Cd102 2.352 . S
O106 C109 1.258 . S
C107 O104 1.323 1_554 S
C107 O105 1.213 . S
O108 Cd100 2.277 1_655 S
O108 C103 1.209 . S
C109 O106 1.258 . S
C109 O111 1.282 . S
O110 Cd102 2.277 . S
O110 C103 1.226 . S
O111 Cd102 2.356 . S
O111 C109 1.282 . S
C112 O113 1.306 . S
C112 O115 1.160 . S
O113 C112 1.306 . S
O113 Cd114 2.228 1_565 S
Cd114 O113 2.228 1_545 S
Cd114 O118 2.273 1_545 S
Cd114 O122 2.277 1_545 S
O115 C112 1.160 . S
O115 Cd116 2.203 . S
Cd116 O115 2.203 . S
Cd116 O118 2.411 . S
Cd116 O119 2.333 . S
Cd116 O120 2.352 . S
Cd116 O124 2.277 . S
Cd116 O125 2.356 . S
C117 O122 1.209 . S
C117 O124 1.226 . S
O118 Cd114 2.273 1_565 S
O118 Cd116 2.411 . S
O118 C121 1.320 . S
O119 Cd116 2.333 . S
O119 C121 1.214 . S
O120 Cd116 2.352 . S
O120 C123 1.258 . S
C121 O118 1.320 . S
C121 O119 1.214 . S
O122 Cd114 2.277 1_565 S
O122 C117 1.209 . S
C123 O120 1.258 . S
C123 O125 1.282 . S
O124 Cd116 2.277 . S
O124 C117 1.226 . S
O125 Cd116 2.356 . S
O125 C123 1.282 . S
C126 O127 1.306 . S
C126 O129 1.160 . S
O127 C126 1.306 . S
O127 Cd128 2.228 . S
Cd128 O127 2.228 . S
Cd128 O132 2.273 . S
Cd128 O136 2.277 . S
O129 C126 1.160 . S
O129 Cd130 2.203 . S
Cd130 O129 2.203 . S
Cd130 O132 2.411 . S
Cd130 O133 2.333 . S
Cd130 O134 2.352 . S
Cd130 O138 2.277 . S
Cd130 O139 2.356 . S
C131 O136 1.209 . S
C131 O138 1.226 . S
O132 Cd128 2.273 . S
O132 Cd130 2.411 . S
O132 C135 1.320 . S
O133 Cd130 2.333 . S
O133 C135 1.214 . S
O134 Cd130 2.352 . S
O134 C137 1.258 . S
C135 O132 1.320 . S
C135 O133 1.214 . S
O136 Cd128 2.277 . S
O136 C131 1.209 . S
C137 O134 1.258 . S
C137 O139 1.282 . S
O138 Cd130 2.277 . S
O138 C131 1.226 . S
O139 Cd130 2.356 . S
O139 C137 1.282 . S
C140 O141 1.306 . S
C140 O143 1.160 . S
O141 C140 1.306 . S
O141 Cd142 2.228 1_455 S
Cd142 O141 2.228 1_655 S
Cd142 O146 2.273 1_655 S
Cd142 O150 2.277 1_655 S
O143 C140 1.160 . S
O143 Cd144 2.203 . S
Cd144 O143 2.203 . S
Cd144 O146 2.411 . S
Cd144 O147 2.333 1_556 S
Cd144 O148 2.352 . S
Cd144 O152 2.277 . S
Cd144 O153 2.356 . S
C145 O150 1.209 . S
C145 O152 1.226 . S
O146 Cd142 2.273 1_455 S
O146 Cd144 2.411 . S
O146 C149 1.323 1_556 S
O147 Cd144 2.333 1_554 S
O147 C149 1.213 . S
O148 Cd144 2.352 . S
O148 C151 1.258 . S
C149 O146 1.323 1_554 S
C149 O147 1.213 . S
O150 Cd142 2.277 1_455 S
O150 C145 1.209 . S
C151 O148 1.258 . S
C151 O153 1.282 . S
O152 Cd144 2.277 . S
O152 C145 1.226 . S
O153 Cd144 2.356 . S
O153 C151 1.282 . S
C154 O155 1.306 . S
C154 O157 1.160 . S
O155 C154 1.306 . S
O155 Cd156 2.228 1_545 S
Cd156 O155 2.228 1_565 S
Cd156 O160 2.273 1_565 S
Cd156 O164 2.277 1_565 S
O157 C154 1.160 . S
O157 Cd158 2.203 . S
Cd158 O157 2.203 . S
Cd158 O160 2.411 . S
Cd158 O161 2.333 . S
Cd158 O162 2.352 . S
Cd158 O166 2.277 . S
Cd158 O167 2.356 . S
C159 O164 1.209 . S
C159 O166 1.226 . S
O160 Cd156 2.273 1_545 S
O160 Cd158 2.411 . S
O160 C163 1.320 . S
O161 Cd158 2.333 . S
O161 C163 1.214 . S
O162 Cd158 2.352 . S
O162 C165 1.258 . S
C163 O160 1.320 . S
C163 O161 1.214 . S
O164 Cd156 2.277 1_545 S
O164 C159 1.209 . S
C165 O162 1.258 . S
C165 O167 1.282 . S
O166 Cd158 2.277 . S
O166 C159 1.226 . S
O167 Cd158 2.356 . S
O167 C165 1.282 . S
H168 C176 0.929 . S
H169 C178 0.930 . S
H170 C180 0.930 . S
H171 C183 0.929 . S
H172 C186 0.930 . S
H173 C188 0.960 . S
H174 C188 0.960 . S
H175 C188 0.960 . S
C176 H168 0.929 . S
C176 C177 1.377 . S
C176 C178 1.384 . S
C177 C176 1.377 . S
C177 C183 1.390 . S
C178 H169 0.930 . S
C178 C176 1.384 . S
C178 C179 1.372 . S
C179 C178 1.372 . S
C179 C180 1.400 . S
C179 C184 1.490 . S
C180 H170 0.930 . S
C180 C179 1.400 . S
C180 C183 1.386 . S
H181 C197 0.930 . S
H182 C198 0.931 . S
C183 H171 0.929 . S
C183 C177 1.390 . S
C183 C180 1.386 . S
C184 C179 1.490 . S
C184 C186 1.395 . S
C184 C187 1.403 . S
H185 C191 0.930 . S
C186 H172 0.930 . S
C186 C184 1.395 . S
C186 C189 1.403 . S
C187 C184 1.403 . S
C187 C188 1.524 . S
C187 C191 1.400 . S
C188 H173 0.960 . S
C188 H174 0.960 . S
C188 H175 0.960 . S
C188 C187 1.524 . S
C189 C186 1.403 . S
C189 C190 1.392 . S
C189 C193 1.495 . S
C190 C189 1.392 . S
C190 C191 1.385 . S
C190 C192 1.478 . S
C191 H185 0.930 . S
C191 C187 1.400 . S
C191 C190 1.385 . S
C192 C190 1.478 . S
C192 C194 1.381 . S
C192 C198 1.383 . S
C193 C189 1.495 . S
C193 H199 0.959 . S
C193 H200 0.961 . S
C193 H201 0.960 . S
C194 C192 1.381 . S
C194 C195 1.394 . S
C194 H202 0.930 . S
C195 C194 1.394 . S
C195 C196 1.383 . S
C195 H203 0.929 . S
C196 C195 1.383 . S
C196 C197 1.377 . S
C197 H181 0.930 . S
C197 C196 1.377 . S
C197 C198 1.379 . S
C198 H182 0.931 . S
C198 C192 1.383 . S
C198 C197 1.379 . S
H199 C193 0.959 . S
H200 C193 0.961 . S
H201 C193 0.960 . S
H202 C194 0.930 . S
H203 C195 0.929 . S
H204 C212 0.929 . S
H205 C214 0.930 . S
H206 C216 0.930 . S
H207 C219 0.928 1_455 S
H208 C222 0.912 . S
H209 C224 0.960 . S
H210 C224 0.960 . S
H211 C224 0.960 . S
C212 H204 0.929 . S
C212 C213 1.377 . S
C212 C214 1.384 . S
C213 C212 1.377 . S
C213 C219 1.392 . S
C214 H205 0.930 . S
C214 C212 1.384 . S
C214 C215 1.372 . S
C215 C214 1.372 . S
C215 C216 1.400 1_655 S
C215 C220 1.490 . S
C216 H206 0.930 . S
C216 C215 1.400 1_455 S
C216 C219 1.385 1_455 S
H217 C233 0.930 . S
H218 C234 0.931 . S
C219 H207 0.928 1_655 S
C219 C213 1.392 . S
C219 C216 1.385 1_655 S
C220 C215 1.490 . S
C220 C222 1.424 . S
C220 C223 1.403 . S
H221 C227 0.938 . S
C222 H208 0.912 . S
C222 C220 1.424 . S
C222 C225 1.394 1_655 S
C223 C220 1.403 . S
C223 C224 1.524 . S
C223 C227 1.404 . S
C224 H209 0.960 . S
C224 H210 0.960 . S
C224 H211 0.960 . S
C224 C223 1.524 . S
C225 C222 1.394 1_455 S
C225 C226 1.392 . S
C225 C229 1.495 . S
C226 C225 1.392 . S
C226 C227 1.375 1_455 S
C226 C228 1.478 . S
C227 H221 0.938 . S
C227 C223 1.404 . S
C227 C226 1.375 1_655 S
C228 C226 1.478 . S
C228 C230 1.381 1_455 S
C228 C234 1.383 . S
C229 C225 1.495 . S
C229 H235 0.959 . S
C229 H236 0.961 . S
C229 H237 0.960 1_455 S
C230 C228 1.381 1_655 S
C230 C231 1.402 . S
C230 H238 0.930 . S
C231 C230 1.402 . S
C231 C232 1.356 1_655 S
C231 H239 0.952 . S
C232 C231 1.356 1_455 S
C232 C233 1.377 . S
C233 H217 0.930 . S
C233 C232 1.377 . S
C233 C234 1.379 . S
C234 H218 0.931 . S
C234 C228 1.383 . S
C234 C233 1.379 . S
H235 C229 0.959 . S
H236 C229 0.961 . S
H237 C229 0.960 1_655 S
H238 C230 0.930 . S
H239 C231 0.952 . S
H240 C248 0.929 . S
H241 C250 0.930 . S
H242 C252 0.925 1_545 S
H243 C255 0.933 1_545 S
H244 C258 0.930 . S
H245 C260 0.960 . S
H246 C260 0.960 . S
H247 C260 0.960 . S
C248 H240 0.929 . S
C248 C249 1.377 . S
C248 C250 1.384 . S
C249 C248 1.377 . S
C249 C255 1.390 . S
C250 H241 0.930 . S
C250 C248 1.384 . S
C250 C251 1.372 . S
C251 C250 1.372 . S
C251 C252 1.398 . S
C251 C256 1.490 . S
C252 H242 0.925 1_565 S
C252 C251 1.398 . S
C252 C255 1.393 . S
H253 C269 0.930 . S
H254 C270 0.931 . S
C255 H243 0.933 1_565 S
C255 C249 1.390 . S
C255 C252 1.393 . S
C256 C251 1.490 . S
C256 C258 1.395 . S
C256 C259 1.403 1_565 S
H257 C263 0.930 . S
C258 H244 0.930 . S
C258 C256 1.395 . S
C258 C261 1.403 1_556 S
C259 C256 1.403 1_545 S
C259 C260 1.524 . S
C259 C263 1.400 1_556 S
C260 H245 0.960 . S
C260 H246 0.960 . S
C260 H247 0.960 . S
C260 C259 1.524 . S
C261 C258 1.403 1_554 S
C261 C262 1.390 . S
C261 C265 1.495 . S
C262 C261 1.390 . S
C262 C263 1.387 1_565 S
C262 C264 1.478 1_565 S
C263 H257 0.930 . S
C263 C259 1.400 1_554 S
C263 C262 1.387 1_545 S
C264 C262 1.478 1_545 S
C264 C266 1.381 1_545 S
C264 C270 1.383 . S
C265 C261 1.495 . S
C265 H271 0.959 . S
C265 H272 0.961 . S
C265 H273 0.960 . S
C266 C264 1.381 1_565 S
C266 C267 1.394 1_565 S
C266 H274 0.930 . S
C267 C266 1.394 1_545 S
C267 C268 1.383 . S
C267 H275 0.929 . S
C268 C267 1.383 . S
C268 C269 1.377 . S
C269 H253 0.930 . S
C269 C268 1.377 . S
C269 C270 1.379 . S
C270 H254 0.931 . S
C270 C264 1.383 . S
C270 C269 1.379 . S
H271 C265 0.959 . S
H272 C265 0.961 . S
H273 C265 0.960 . S
H274 C266 0.930 . S
H275 C267 0.929 . S
H276 C284 0.929 . S
H277 C286 0.930 . S
H278 C288 0.930 . S
H279 C291 0.929 . S
H280 C294 0.930 . S
H281 C296 0.960 . S
H282 C296 0.960 . S
H283 C296 0.960 . S
C284 H276 0.929 . S
C284 C285 1.377 . S
C284 C286 1.384 . S
C285 C284 1.377 . S
C285 C291 1.390 . S
C286 H277 0.930 . S
C286 C284 1.384 . S
C286 C287 1.372 . S
C287 C286 1.372 . S
C287 C288 1.400 . S
C287 C292 1.490 . S
C288 H278 0.930 . S
C288 C287 1.400 . S
C288 C291 1.386 . S
H289 C305 0.930 . S
H290 C306 0.931 . S
C291 H279 0.929 . S
C291 C285 1.390 . S
C291 C288 1.386 . S
C292 C287 1.490 . S
C292 C294 1.395 . S
C292 C295 1.403 . S
H293 C299 0.930 . S
C294 H280 0.930 . S
C294 C292 1.395 . S
C294 C297 1.403 . S
C295 C292 1.403 . S
C295 C296 1.524 . S
C295 C299 1.400 . S
C296 H281 0.960 . S
C296 H282 0.960 . S
C296 H283 0.960 . S
C296 C295 1.524 . S
C297 C294 1.403 . S
C297 C298 1.392 . S
C297 C301 1.495 . S
C298 C297 1.392 . S
C298 C299 1.385 . S
C298 C300 1.478 . S
C299 H293 0.930 . S
C299 C295 1.400 . S
C299 C298 1.385 . S
C300 C298 1.478 . S
C300 C302 1.381 . S
C300 C306 1.383 . S
C301 C297 1.495 . S
C301 H307 0.959 . S
C301 H308 0.961 . S
C301 H309 0.960 . S
C302 C300 1.381 . S
C302 C303 1.394 . S
C302 H310 0.930 . S
C303 C302 1.394 . S
C303 C304 1.383 . S
C303 H311 0.929 . S
C304 C303 1.383 . S
C304 C305 1.377 . S
C305 H289 0.930 . S
C305 C304 1.377 . S
C305 C306 1.379 . S
C306 H290 0.931 . S
C306 C300 1.383 . S
C306 C305 1.379 . S
H307 C301 0.959 . S
H308 C301 0.961 . S
H309 C301 0.960 . S
H310 C302 0.930 . S
H311 C303 0.929 . S
H312 C320 0.929 . S
H313 C322 0.930 . S
H314 C324 0.930 . S
H315 C327 0.929 . S
H316 C330 0.930 . S
H317 C332 0.960 . S
H318 C332 0.960 . S
H319 C332 0.960 . S
C320 H312 0.929 . S
C320 C321 1.377 . S
C320 C322 1.384 . S
C321 C320 1.377 . S
C321 C327 1.390 . S
C322 H313 0.930 . S
C322 C320 1.384 . S
C322 C323 1.372 . S
C323 C322 1.372 . S
C323 C324 1.400 . S
C323 C328 1.490 . S
C324 H314 0.930 . S
C324 C323 1.400 . S
C324 C327 1.386 . S
H325 C341 0.930 . S
H326 C342 0.931 . S
C327 H315 0.929 . S
C327 C321 1.390 . S
C327 C324 1.386 . S
C328 C323 1.490 . S
C328 C330 1.395 1_655 S
C328 C331 1.403 . S
H329 C335 0.930 . S
C330 H316 0.930 . S
C330 C328 1.395 1_455 S
C330 C333 1.403 . S
C331 C328 1.403 . S
C331 C332 1.524 . S
C331 C335 1.400 . S
C332 H317 0.960 . S
C332 H318 0.960 . S
C332 H319 0.960 . S
C332 C331 1.524 . S
C333 C330 1.403 . S
C333 C334 1.392 . S
C333 C337 1.495 . S
C334 C333 1.392 . S
C334 C335 1.385 1_455 S
C334 C336 1.478 . S
C335 H329 0.930 . S
C335 C331 1.400 . S
C335 C334 1.385 1_655 S
C336 C334 1.478 . S
C336 C338 1.381 . S
C336 C342 1.383 . S
C337 C333 1.495 . S
C337 H343 0.959 . S
C337 H344 0.961 . S
C337 H345 0.960 . S
C338 C336 1.381 . S
C338 C339 1.394 . S
C338 H346 0.930 . S
C339 C338 1.394 . S
C339 C340 1.383 . S
C339 H347 0.929 . S
C340 C339 1.383 . S
C340 C341 1.377 . S
C341 H325 0.930 . S
C341 C340 1.377 . S
C341 C342 1.379 . S
C342 H326 0.931 . S
C342 C336 1.383 . S
C342 C341 1.379 . S
H343 C337 0.959 . S
H344 C337 0.961 . S
H345 C337 0.960 . S
H346 C338 0.930 . S
H347 C339 0.929 . S
H348 C356 0.929 . S
H349 C358 0.930 . S
H350 C360 0.930 . S
H351 C363 0.929 . S
H352 C366 0.930 . S
H353 C368 0.960 . S
H354 C368 0.960 . S
H355 C368 0.960 . S
C356 H348 0.929 . S
C356 C357 1.377 . S
C356 C358 1.384 . S
C357 C356 1.377 . S
C357 C363 1.390 . S
C358 H349 0.930 . S
C358 C356 1.384 . S
C358 C359 1.372 . S
C359 C358 1.372 . S
C359 C360 1.400 . S
C359 C364 1.490 . S
C360 H350 0.930 . S
C360 C359 1.400 . S
C360 C363 1.386 . S
H361 C377 0.930 . S
H362 C378 0.931 . S
C363 H351 0.929 . S
C363 C357 1.390 . S
C363 C360 1.386 . S
C364 C359 1.490 . S
C364 C366 1.395 . S
C364 C367 1.403 1_565 S
H365 C371 0.930 . S
C366 H352 0.930 . S
C366 C364 1.395 . S
C366 C369 1.403 1_554 S
C367 C364 1.403 1_545 S
C367 C368 1.524 . S
C367 C371 1.400 1_554 S
C368 H353 0.960 . S
C368 H354 0.960 . S
C368 H355 0.960 . S
C368 C367 1.524 . S
C369 C366 1.403 1_556 S
C369 C370 1.339 1_565 S
C369 C373 1.495 . S
C370 C369 1.339 1_545 S
C370 C371 1.433 . S
C370 C372 1.488 . S
C371 H365 0.930 . S
C371 C367 1.400 1_556 S
C371 C370 1.433 . S
C372 C370 1.488 . S
C372 C374 1.381 . S
C372 C378 1.383 . S
C373 C369 1.495 . S
C373 H379 0.959 . S
C373 H380 0.961 . S
C373 H381 0.960 . S
C374 C372 1.381 . S
C374 C375 1.394 . S
C374 H382 0.930 . S
C375 C374 1.394 . S
C375 C376 1.383 . S
C375 H383 0.929 . S
C376 C375 1.383 . S
C376 C377 1.377 . S
C377 H361 0.930 . S
C377 C376 1.377 . S
C377 C378 1.379 . S
C378 H362 0.931 . S
C378 C372 1.383 . S
C378 C377 1.379 . S
H379 C373 0.959 . S
H380 C373 0.961 . S
H381 C373 0.960 . S
H382 C374 0.930 . S
H383 C375 0.929 . S
H384 C392 0.929 . S
H385 C394 0.930 1_554 S
H386 C396 0.930 . S
H387 C399 0.929 . S
H388 C402 0.930 . S
H389 C404 0.960 . S
H390 C404 0.960 . S
H391 C404 0.960 . S
C392 H384 0.929 . S
C392 C393 1.377 . S
C392 C394 1.384 . S
C393 C392 1.377 . S
C393 C399 1.390 . S
C394 H385 0.930 1_556 S
C394 C392 1.384 . S
C394 C395 1.372 . S
C395 C394 1.372 . S
C395 C396 1.400 . S
C395 C400 1.490 . S
C396 H386 0.930 . S
C396 C395 1.400 . S
C396 C399 1.386 . S
H397 C413 0.930 . S
H398 C414 0.931 . S
C399 H387 0.929 . S
C399 C393 1.390 . S
C399 C396 1.386 . S
C400 C395 1.490 . S
C400 C402 1.395 1_556 S
C400 C403 1.403 . S
H401 C407 0.930 . S
C402 H388 0.930 . S
C402 C400 1.395 1_554 S
C402 C405 1.403 . S
C403 C400 1.403 . S
C403 C404 1.524 . S
C403 C407 1.400 . S
C404 H389 0.960 . S
C404 H390 0.960 . S
C404 H391 0.960 . S
C404 C403 1.524 . S
C405 C402 1.403 . S
C405 C406 1.392 . S
C405 C409 1.495 . S
C406 C405 1.392 . S
C406 C407 1.385 1_554 S
C406 C408 1.478 . S
C407 H401 0.930 . S
C407 C403 1.400 . S
C407 C406 1.385 1_556 S
C408 C406 1.478 . S
C408 C410 1.381 . S
C408 C414 1.383 . S
C409 C405 1.495 . S
C409 H415 0.959 . S
C409 H416 0.961 . S
C409 H417 0.960 . S
C410 C408 1.381 . S
C410 C411 1.394 . S
C410 H418 0.930 . S
C411 C410 1.394 . S
C411 C412 1.383 . S
C411 H419 0.929 . S
C412 C411 1.383 . S
C412 C413 1.377 . S
C413 H397 0.930 . S
C413 C412 1.377 . S
C413 C414 1.379 . S
C414 H398 0.931 . S
C414 C408 1.383 . S
C414 C413 1.379 . S
H415 C409 0.959 . S
H416 C409 0.961 . S
H417 C409 0.960 . S
H418 C410 0.930 . S
H419 C411 0.929 . S
H420 C428 0.929 . S
H421 C430 0.930 . S
H422 C432 0.930 . S
H423 C435 0.929 . S
H424 C438 0.930 . S
H425 C440 0.960 . S
H426 C440 0.960 . S
H427 C440 0.960 . S
C428 H420 0.929 . S
C428 C429 1.377 . S
C428 C430 1.384 . S
C429 C428 1.377 . S
C429 C435 1.390 . S
C430 H421 0.930 . S
C430 C428 1.384 . S
C430 C431 1.372 . S
C431 C430 1.372 . S
C431 C432 1.400 . S
C431 C436 1.490 . S
C432 H422 0.930 . S
C432 C431 1.400 . S
C432 C435 1.386 . S
H433 C449 0.930 . S
H434 C450 0.931 . S
C435 H423 0.929 . S
C435 C429 1.390 . S
C435 C432 1.386 . S
C436 C431 1.490 . S
C436 C438 1.395 . S
C436 C439 1.403 . S
H437 C443 0.930 . S
C438 H424 0.930 . S
C438 C436 1.395 . S
C438 C441 1.403 . S
C439 C436 1.403 . S
C439 C440 1.524 . S
C439 C443 1.400 . S
C440 H425 0.960 . S
C440 H426 0.960 . S
C440 H427 0.960 . S
C440 C439 1.524 . S
C441 C438 1.403 . S
C441 C442 1.392 . S
C441 C445 1.495 . S
C442 C441 1.392 . S
C442 C443 1.385 . S
C442 C444 1.478 . S
C443 H437 0.930 . S
C443 C439 1.400 . S
C443 C442 1.385 . S
C444 C442 1.478 . S
C444 C446 1.381 . S
C444 C450 1.383 . S
C445 C441 1.495 . S
C445 H451 0.959 . S
C445 H452 0.961 . S
C445 H453 0.960 . S
C446 C444 1.381 . S
C446 C447 1.394 . S
C446 H454 0.930 . S
C447 C446 1.394 . S
C447 C448 1.383 . S
C447 H455 0.929 . S
C448 C447 1.383 . S
C448 C449 1.377 . S
C449 H433 0.930 . S
C449 C448 1.377 . S
C449 C450 1.379 . S
C450 H434 0.931 . S
C450 C444 1.383 . S
C450 C449 1.379 . S
H451 C445 0.959 . S
H452 C445 0.961 . S
H453 C445 0.960 . S
H454 C446 0.930 . S
H455 C447 0.929 . S
H456 C464 0.929 . S
H457 C466 0.930 . S
H458 C468 0.930 . S
H459 C471 0.929 . S
H460 C474 0.930 . S
H461 C476 0.960 . S
H462 C476 0.960 . S
H463 C476 0.960 . S
C464 H456 0.929 . S
C464 C465 1.377 . S
C464 C466 1.384 . S
C465 C464 1.377 . S
C465 C471 1.390 . S
C466 H457 0.930 . S
C466 C464 1.384 . S
C466 C467 1.372 . S
C467 C466 1.372 . S
C467 C468 1.400 . S
C467 C472 1.490 . S
C468 H458 0.930 . S
C468 C467 1.400 . S
C468 C471 1.386 . S
H469 C485 0.930 . S
H470 C486 0.931 . S
C471 H459 0.929 . S
C471 C465 1.390 . S
C471 C468 1.386 . S
C472 C467 1.490 . S
C472 C474 1.395 . S
C472 C475 1.403 . S
H473 C479 0.930 . S
C474 H460 0.930 . S
C474 C472 1.395 . S
C474 C477 1.403 . S
C475 C472 1.403 . S
C475 C476 1.524 . S
C475 C479 1.400 . S
C476 H461 0.960 . S
C476 H462 0.960 . S
C476 H463 0.960 . S
C476 C475 1.524 . S
C477 C474 1.403 . S
C477 C478 1.392 . S
C477 C481 1.495 . S
C478 C477 1.392 . S
C478 C479 1.385 . S
C478 C480 1.478 . S
C479 H473 0.930 . S
C479 C475 1.400 . S
C479 C478 1.385 . S
C480 C478 1.478 . S
C480 C482 1.381 . S
C480 C486 1.383 . S
C481 C477 1.495 . S
C481 H487 0.959 . S
C481 H488 0.961 . S
C481 H489 0.960 . S
C482 C480 1.381 . S
C482 C483 1.394 . S
C482 H490 0.930 . S
C483 C482 1.394 . S
C483 C484 1.383 . S
C483 H491 0.929 . S
C484 C483 1.383 . S
C484 C485 1.377 . S
C485 H469 0.930 . S
C485 C484 1.377 . S
C485 C486 1.379 . S
C486 H470 0.931 . S
C486 C480 1.383 . S
C486 C485 1.379 . S
H487 C481 0.959 . S
H488 C481 0.961 . S
H489 C481 0.960 . S
H490 C482 0.930 . S
H491 C483 0.929 . S
H492 C500 0.929 . S
H493 C502 0.930 1_556 S
H494 C504 0.930 . S
H495 C507 0.929 . S
H496 C510 0.930 . S
H497 C512 0.960 . S
H498 C512 0.960 . S
H499 C512 0.960 . S
C500 H492 0.929 . S
C500 C501 1.377 . S
C500 C502 1.384 . S
C501 C500 1.377 . S
C501 C507 1.390 . S
C502 H493 0.930 1_554 S
C502 C500 1.384 . S
C502 C503 1.372 . S
C503 C502 1.372 . S
C503 C504 1.400 . S
C503 C508 1.490 . S
C504 H494 0.930 . S
C504 C503 1.400 . S
C504 C507 1.386 . S
H505 C521 0.930 . S
H506 C522 0.931 . S
C507 H495 0.929 . S
C507 C501 1.390 . S
C507 C504 1.386 . S
C508 C503 1.490 . S
C508 C510 1.395 1_554 S
C508 C511 1.403 . S
H509 C515 0.930 . S
C510 H496 0.930 . S
C510 C508 1.395 1_556 S
C510 C513 1.403 . S
C511 C508 1.403 . S
C511 C512 1.524 . S
C511 C515 1.400 . S
C512 H497 0.960 . S
C512 H498 0.960 . S
C512 H499 0.960 . S
C512 C511 1.524 . S
C513 C510 1.403 . S
C513 C514 1.392 . S
C513 C517 1.495 . S
C514 C513 1.392 . S
C514 C515 1.385 1_556 S
C514 C516 1.478 . S
C515 H509 0.930 . S
C515 C511 1.400 . S
C515 C514 1.385 1_554 S
C516 C514 1.478 . S
C516 C518 1.381 . S
C516 C522 1.383 . S
C517 C513 1.495 . S
C517 H523 0.959 . S
C517 H524 0.961 . S
C517 H525 0.960 . S
C518 C516 1.381 . S
C518 C519 1.394 . S
C518 H526 0.930 . S
C519 C518 1.394 . S
C519 C520 1.383 . S
C519 H527 0.929 . S
C520 C519 1.383 . S
C520 C521 1.377 . S
C521 H505 0.930 . S
C521 C520 1.377 . S
C521 C522 1.379 . S
C522 H506 0.931 . S
C522 C516 1.383 . S
C522 C521 1.379 . S
H523 C517 0.959 . S
H524 C517 0.961 . S
H525 C517 0.960 . S
H526 C518 0.930 . S
H527 C519 0.929 . S
H528 C536 0.929 . S
H529 C538 0.930 . S
H530 C540 0.930 . S
H531 C543 0.929 . S
H532 C546 0.930 . S
H533 C548 0.960 . S
H534 C548 0.960 . S
H535 C548 0.960 . S
C536 H528 0.929 . S
C536 C537 1.377 . S
C536 C538 1.384 . S
C537 C536 1.377 . S
C537 C543 1.390 . S
C538 H529 0.930 . S
C538 C536 1.384 . S
C538 C539 1.372 . S
C539 C538 1.372 . S
C539 C540 1.400 . S
C539 C544 1.490 . S
C540 H530 0.930 . S
C540 C539 1.400 . S
C540 C543 1.386 . S
H541 C557 0.930 . S
H542 C558 0.931 . S
C543 H531 0.929 . S
C543 C537 1.390 . S
C543 C540 1.386 . S
C544 C539 1.490 . S
C544 C546 1.395 . S
C544 C547 1.403 . S
H545 C551 0.930 . S
C546 H532 0.930 . S
C546 C544 1.395 . S
C546 C549 1.403 . S
C547 C544 1.403 . S
C547 C548 1.524 . S
C547 C551 1.400 . S
C548 H533 0.960 . S
C548 H534 0.960 . S
C548 H535 0.960 . S
C548 C547 1.524 . S
C549 C546 1.403 . S
C549 C550 1.392 . S
C549 C553 1.495 . S
C550 C549 1.392 . S
C550 C551 1.385 . S
C550 C552 1.478 . S
C551 H545 0.930 . S
C551 C547 1.400 . S
C551 C550 1.385 . S
C552 C550 1.478 . S
C552 C554 1.381 . S
C552 C558 1.383 . S
C553 C549 1.495 . S
C553 H559 0.959 . S
C553 H560 0.961 . S
C553 H561 0.960 . S
C554 C552 1.381 . S
C554 C555 1.394 . S
C554 H562 0.930 . S
C555 C554 1.394 . S
C555 C556 1.383 . S
C555 H563 0.929 . S
C556 C555 1.383 . S
C556 C557 1.377 . S
C557 H541 0.930 . S
C557 C556 1.377 . S
C557 C558 1.379 . S
C558 H542 0.931 . S
C558 C552 1.383 . S
C558 C557 1.379 . S
H559 C553 0.959 . S
H560 C553 0.961 . S
H561 C553 0.960 . S
H562 C554 0.930 . S
H563 C555 0.929 . S
H564 C572 0.929 . S
H565 C574 0.930 . S
H566 C576 0.930 . S
H567 C579 0.929 . S
H568 C582 0.930 . S
H569 C584 0.960 . S
H570 C584 0.960 . S
H571 C584 0.960 . S
C572 H564 0.929 . S
C572 C573 1.377 . S
C572 C574 1.384 . S
C573 C572 1.377 . S
C573 C579 1.390 . S
C574 H565 0.930 . S
C574 C572 1.384 . S
C574 C575 1.372 . S
C575 C574 1.372 . S
C575 C576 1.400 . S
C575 C580 1.490 . S
C576 H566 0.930 . S
C576 C575 1.400 . S
C576 C579 1.386 . S
H577 C593 0.930 . S
H578 C594 0.931 . S
C579 H567 0.929 . S
C579 C573 1.390 . S
C579 C576 1.386 . S
C580 C575 1.490 . S
C580 C582 1.395 . S
C580 C583 1.403 . S
H581 C587 0.930 . S
C582 H568 0.930 . S
C582 C580 1.395 . S
C582 C585 1.403 . S
C583 C580 1.403 . S
C583 C584 1.524 . S
C583 C587 1.400 . S
C584 H569 0.960 . S
C584 H570 0.960 . S
C584 H571 0.960 . S
C584 C583 1.524 . S
C585 C582 1.403 . S
C585 C586 1.392 . S
C585 C589 1.495 . S
C586 C585 1.392 . S
C586 C587 1.385 . S
C586 C588 1.478 . S
C587 H581 0.930 . S
C587 C583 1.400 . S
C587 C586 1.385 . S
C588 C586 1.478 . S
C588 C590 1.381 . S
C588 C594 1.383 . S
C589 C585 1.495 . S
C589 H595 0.959 . S
C589 H596 0.961 . S
C589 H597 0.960 . S
C590 C588 1.381 . S
C590 C591 1.394 . S
C590 H598 0.930 . S
C591 C590 1.394 . S
C591 C592 1.383 . S
C591 H599 0.929 . S
C592 C591 1.383 . S
C592 C593 1.377 . S
C593 H577 0.930 . S
C593 C592 1.377 . S
C593 C594 1.379 . S
C594 H578 0.931 . S
C594 C588 1.383 . S
C594 C593 1.379 . S
H595 C589 0.959 . S
H596 C589 0.961 . S
H597 C589 0.960 . S
H598 C590 0.930 . S
H599 C591 0.929 . S
H600 C608 0.929 . S
H601 C610 0.930 . S
H602 C612 0.930 . S
H603 C615 0.929 . S
H604 C618 0.930 . S
H605 C620 0.960 . S
H606 C620 0.960 . S
H607 C620 0.960 . S
C608 H600 0.929 . S
C608 C609 1.377 . S
C608 C610 1.384 . S
C609 C608 1.377 . S
C609 C615 1.390 . S
C610 H601 0.930 . S
C610 C608 1.384 . S
C610 C611 1.372 . S
C611 C610 1.372 . S
C611 C612 1.400 . S
C611 C616 1.490 . S
C612 H602 0.930 . S
C612 C611 1.400 . S
C612 C615 1.386 . S
H613 C629 0.930 . S
H614 C630 0.931 . S
C615 H603 0.929 . S
C615 C609 1.390 . S
C615 C612 1.386 . S
C616 C611 1.490 . S
C616 C618 1.395 . S
C616 C619 1.403 . S
H617 C623 0.930 . S
C618 H604 0.930 . S
C618 C616 1.395 . S
C618 C621 1.403 . S
C619 C616 1.403 . S
C619 C620 1.524 . S
C619 C623 1.400 . S
C620 H605 0.960 . S
C620 H606 0.960 . S
C620 H607 0.960 . S
C620 C619 1.524 . S
C621 C618 1.403 . S
C621 C622 1.392 . S
C621 C625 1.495 . S
C622 C621 1.392 . S
C622 C623 1.385 . S
C622 C624 1.478 . S
C623 H617 0.930 . S
C623 C619 1.400 . S
C623 C622 1.385 . S
C624 C622 1.478 . S
C624 C626 1.381 . S
C624 C630 1.383 . S
C625 C621 1.495 . S
C625 H631 0.959 . S
C625 H632 0.961 . S
C625 H633 0.960 . S
C626 C624 1.381 . S
C626 C627 1.394 . S
C626 H634 0.930 . S
C627 C626 1.394 . S
C627 C628 1.383 . S
C627 H635 0.929 . S
C628 C627 1.383 . S
C628 C629 1.377 . S
C629 H613 0.930 . S
C629 C628 1.377 . S
C629 C630 1.379 . S
C630 H614 0.931 . S
C630 C624 1.383 . S
C630 C629 1.379 . S
H631 C625 0.959 . S
H632 C625 0.961 . S
H633 C625 0.960 . S
H634 C626 0.930 . S
H635 C627 0.929 . S
H636 C644 0.929 . S
H637 C646 0.930 . S
H638 C648 0.930 . S
H639 C651 0.929 . S
H640 C654 0.930 . S
H641 C656 0.960 . S
H642 C656 0.960 . S
H643 C656 0.960 . S
C644 H636 0.929 . S
C644 C645 1.377 1_455 S
C644 C646 1.384 . S
C645 C644 1.377 1_655 S
C645 C651 1.390 . S
C646 H637 0.930 . S
C646 C644 1.384 . S
C646 C647 1.372 1_455 S
C647 C646 1.372 1_655 S
C647 C648 1.400 . S
C647 C652 1.490 . S
C648 H638 0.930 . S
C648 C647 1.400 . S
C648 C651 1.386 . S
H649 C665 0.930 . S
H650 C666 0.931 . S
C651 H639 0.929 . S
C651 C645 1.390 . S
C651 C648 1.386 . S
C652 C647 1.490 . S
C652 C654 1.395 . S
C652 C655 1.403 1_655 S
H653 C659 0.930 . S
C654 H640 0.930 . S
C654 C652 1.395 . S
C654 C657 1.403 . S
C655 C652 1.403 1_455 S
C655 C656 1.524 . S
C655 C659 1.400 . S
C656 H641 0.960 . S
C656 H642 0.960 . S
C656 H643 0.960 . S
C656 C655 1.524 . S
C657 C654 1.403 . S
C657 C658 1.392 1_655 S
C657 C661 1.495 . S
C658 C657 1.392 1_455 S
C658 C659 1.385 . S
C658 C660 1.478 . S
C659 H653 0.930 . S
C659 C655 1.400 . S
C659 C658 1.385 . S
C660 C658 1.478 . S
C660 C662 1.381 . S
C660 C666 1.383 1_455 S
C661 C657 1.495 . S
C661 H667 0.959 . S
C661 H668 0.961 . S
C661 H669 0.963 1_655 S
C662 C660 1.381 . S
C662 C663 1.394 . S
C662 H670 0.930 . S
C663 C662 1.394 . S
C663 C664 1.383 . S
C663 H671 0.929 . S
C664 C663 1.383 . S
C664 C665 1.377 1_455 S
C665 H649 0.930 . S
C665 C664 1.377 1_655 S
C665 C666 1.379 . S
C666 H650 0.931 . S
C666 C660 1.383 1_655 S
C666 C665 1.379 . S
H667 C661 0.959 . S
H668 C661 0.961 . S
H669 C661 0.963 1_455 S
H670 C662 0.930 . S
H671 C663 0.929 . S
H672 C680 0.929 . S
H673 C682 0.930 . S
H674 C684 0.931 . S
H675 C687 0.929 1_545 S
H676 C690 0.930 . S
H677 C692 0.960 . S
H678 C692 0.960 . S
H679 C692 0.960 . S
C680 H672 0.929 . S
C680 C681 1.377 . S
C680 C682 1.384 . S
C681 C680 1.377 . S
C681 C687 1.390 . S
C682 H673 0.930 . S
C682 C680 1.384 . S
C682 C683 1.372 . S
C683 C682 1.372 . S
C683 C684 1.401 1_565 S
C683 C688 1.490 . S
C684 H674 0.931 . S
C684 C683 1.401 1_545 S
C684 C687 1.384 1_545 S
H685 C701 0.930 . S
H686 C702 0.931 . S
C687 H675 0.929 1_565 S
C687 C681 1.390 . S
C687 C684 1.384 1_565 S
C688 C683 1.490 . S
C688 C690 1.395 1_565 S
C688 C691 1.403 . S
H689 C695 0.930 . S
C690 H676 0.930 . S
C690 C688 1.395 1_545 S
C690 C693 1.403 . S
C691 C688 1.403 . S
C691 C692 1.524 . S
C691 C695 1.400 . S
C692 H677 0.960 . S
C692 H678 0.960 . S
C692 H679 0.960 . S
C692 C691 1.524 . S
C693 C690 1.403 . S
C693 C694 1.392 . S
C693 C697 1.495 . S
C694 C693 1.392 . S
C694 C695 1.385 1_545 S
C694 C696 1.478 . S
C695 H689 0.930 . S
C695 C691 1.400 . S
C695 C694 1.385 1_565 S
C696 C694 1.478 . S
C696 C698 1.380 1_545 S
C696 C702 1.383 . S
C697 C693 1.495 . S
C697 H703 0.959 . S
C697 H704 0.961 . S
C697 H705 0.960 . S
C698 C696 1.380 1_565 S
C698 C699 1.392 1_565 S
C698 H706 0.937 . S
C699 C698 1.392 1_545 S
C699 C700 1.383 . S
C699 H707 0.929 1_545 S
C700 C699 1.383 . S
C700 C701 1.377 . S
C701 H685 0.930 . S
C701 C700 1.377 . S
C701 C702 1.379 . S
C702 H686 0.931 . S
C702 C696 1.383 . S
C702 C701 1.379 . S
H703 C697 0.959 . S
H704 C697 0.961 . S
H705 C697 0.960 . S
H706 C698 0.937 . S
H707 C699 0.929 1_565 S
H708 C716 0.929 . S
H709 C718 0.930 . S
H710 C720 0.930 . S
H711 C723 0.929 . S
H712 C726 0.930 . S
H713 C728 0.960 . S
H714 C728 0.960 . S
H715 C728 0.960 . S
C716 H708 0.929 . S
C716 C717 1.377 . S
C716 C718 1.384 . S
C717 C716 1.377 . S
C717 C723 1.390 . S
C718 H709 0.930 . S
C718 C716 1.384 . S
C718 C719 1.372 . S
C719 C718 1.372 . S
C719 C720 1.400 . S
C719 C724 1.490 . S
C720 H710 0.930 . S
C720 C719 1.400 . S
C720 C723 1.386 . S
H721 C737 0.930 . S
H722 C738 0.931 . S
C723 H711 0.929 . S
C723 C717 1.390 . S
C723 C720 1.386 . S
C724 C719 1.490 . S
C724 C726 1.395 . S
C724 C727 1.403 . S
H725 C731 0.930 . S
C726 H712 0.930 . S
C726 C724 1.395 . S
C726 C729 1.403 . S
C727 C724 1.403 . S
C727 C728 1.524 . S
C727 C731 1.400 . S
C728 H713 0.960 . S
C728 H714 0.960 . S
C728 H715 0.960 . S
C728 C727 1.524 . S
C729 C726 1.403 . S
C729 C730 1.392 . S
C729 C733 1.495 . S
C730 C729 1.392 . S
C730 C731 1.385 . S
C730 C732 1.478 . S
C731 H725 0.930 . S
C731 C727 1.400 . S
C731 C730 1.385 . S
C732 C730 1.478 . S
C732 C734 1.381 . S
C732 C738 1.383 . S
C733 C729 1.495 . S
C733 H739 0.959 . S
C733 H740 0.961 . S
C733 H741 0.960 . S
C734 C732 1.381 . S
C734 C735 1.394 . S
C734 H742 0.930 . S
C735 C734 1.394 . S
C735 C736 1.383 . S
C735 H743 0.929 . S
C736 C735 1.383 . S
C736 C737 1.377 . S
C737 H721 0.930 . S
C737 C736 1.377 . S
C737 C738 1.379 . S
C738 H722 0.931 . S
C738 C732 1.383 . S
C738 C737 1.379 . S
H739 C733 0.959 . S
H740 C733 0.961 . S
H741 C733 0.960 . S
H742 C734 0.930 . S
H743 C735 0.929 . S
H744 C752 0.929 . S
H745 C754 0.930 . S
H746 C756 0.930 . S
H747 C759 0.929 . S
H748 C762 0.930 . S
H749 C764 0.960 . S
H750 C764 0.960 1_455 S
H751 C764 0.960 . S
C752 H744 0.929 . S
C752 C753 1.377 . S
C752 C754 1.384 . S
C753 C752 1.377 . S
C753 C759 1.390 1_455 S
C754 H745 0.930 . S
C754 C752 1.384 . S
C754 C755 1.372 . S
C755 C754 1.372 . S
C755 C756 1.400 1_455 S
C755 C760 1.490 . S
C756 H746 0.930 . S
C756 C755 1.400 1_655 S
C756 C759 1.386 . S
H757 C773 0.930 . S
H758 C774 0.931 . S
C759 H747 0.929 . S
C759 C753 1.390 1_655 S
C759 C756 1.386 . S
C760 C755 1.490 . S
C760 C762 1.395 . S
C760 C763 1.403 1_455 S
H761 C767 0.930 . S
C762 H748 0.930 . S
C762 C760 1.395 . S
C762 C765 1.403 . S
C763 C760 1.403 1_655 S
C763 C764 1.524 . S
C763 C767 1.400 . S
C764 H749 0.960 . S
C764 H750 0.960 1_655 S
C764 H751 0.960 . S
C764 C763 1.524 . S
C765 C762 1.403 . S
C765 C766 1.392 1_455 S
C765 C769 1.495 . S
C766 C765 1.392 1_655 S
C766 C767 1.385 . S
C766 C768 1.478 . S
C767 H761 0.930 . S
C767 C763 1.400 . S
C767 C766 1.385 . S
C768 C766 1.478 . S
C768 C770 1.381 1_655 S
C768 C774 1.383 . S
C769 C765 1.495 . S
C769 H775 0.959 . S
C769 H776 0.947 1_455 S
C769 H777 0.960 . S
C770 C768 1.381 1_455 S
C770 C771 1.394 . S
C770 H778 0.930 . S
C771 C770 1.394 . S
C771 C772 1.383 1_455 S
C771 H779 0.929 . S
C772 C771 1.383 1_655 S
C772 C773 1.377 . S
C773 H757 0.930 . S
C773 C772 1.377 . S
C773 C774 1.379 . S
C774 H758 0.931 . S
C774 C768 1.383 . S
C774 C773 1.379 . S
H775 C769 0.959 . S
H776 C769 0.947 1_655 S
H777 C769 0.960 . S
H778 C770 0.930 . S
H779 C771 0.929 . S
H780 C788 0.929 . S
H781 C790 0.930 . S
H782 C792 0.930 . S
H783 C795 0.929 . S
H784 C798 0.930 . S
H785 C800 0.960 . S
H786 C800 0.960 . S
H787 C800 0.960 . S
C788 H780 0.929 . S
C788 C789 1.377 . S
C788 C790 1.384 . S
C789 C788 1.377 . S
C789 C795 1.390 . S
C790 H781 0.930 . S
C790 C788 1.384 . S
C790 C791 1.372 . S
C791 C790 1.372 . S
C791 C792 1.400 . S
C791 C796 1.490 . S
C792 H782 0.930 . S
C792 C791 1.400 . S
C792 C795 1.386 . S
H793 C809 0.930 . S
H794 C810 0.931 . S
C795 H783 0.929 . S
C795 C789 1.390 . S
C795 C792 1.386 . S
C796 C791 1.490 . S
C796 C798 1.395 1_565 S
C796 C799 1.403 . S
H797 C803 0.930 . S
C798 H784 0.930 . S
C798 C796 1.395 1_545 S
C798 C801 1.403 . S
C799 C796 1.403 . S
C799 C800 1.524 . S
C799 C803 1.400 . S
C800 H785 0.960 . S
C800 H786 0.960 . S
C800 H787 0.960 . S
C800 C799 1.524 . S
C801 C798 1.403 . S
C801 C802 1.392 . S
C801 C805 1.495 . S
C802 C801 1.392 . S
C802 C803 1.385 1_545 S
C802 C804 1.478 . S
C803 H797 0.930 . S
C803 C799 1.400 . S
C803 C802 1.385 1_565 S
C804 C802 1.478 . S
C804 C806 1.381 . S
C804 C810 1.383 . S
C805 C801 1.495 . S
C805 H811 0.959 . S
C805 H812 0.961 . S
C805 H813 0.960 . S
C806 C804 1.381 . S
C806 C807 1.394 . S
C806 H814 0.930 . S
C807 C806 1.394 . S
C807 C808 1.383 . S
C807 H815 0.929 . S
C808 C807 1.383 . S
C808 C809 1.377 . S
C809 H793 0.930 . S
C809 C808 1.377 . S
C809 C810 1.379 . S
C810 H794 0.931 . S
C810 C804 1.383 . S
C810 C809 1.379 . S
H811 C805 0.959 . S
H812 C805 0.961 . S
H813 C805 0.960 . S
H814 C806 0.930 . S
H815 C807 0.929 . S
H816 C824 0.929 . S
H817 C826 0.930 . S
H818 C828 0.930 . S
H819 C831 0.929 . S
H820 C834 0.930 . S
H821 C836 0.960 . S
H822 C836 0.960 . S
H823 C836 0.960 . S
C824 H816 0.929 . S
C824 C825 1.377 . S
C824 C826 1.384 . S
C825 C824 1.377 . S
C825 C831 1.390 . S
C826 H817 0.930 . S
C826 C824 1.384 . S
C826 C827 1.372 . S
C827 C826 1.372 . S
C827 C828 1.400 . S
C827 C832 1.490 . S
C828 H818 0.930 . S
C828 C827 1.400 . S
C828 C831 1.386 . S
H829 C845 0.930 . S
H830 C846 0.931 . S
C831 H819 0.929 . S
C831 C825 1.390 . S
C831 C828 1.386 . S
C832 C827 1.490 . S
C832 C834 1.395 . S
C832 C835 1.403 . S
H833 C839 0.930 . S
C834 H820 0.930 . S
C834 C832 1.395 . S
C834 C837 1.403 . S
C835 C832 1.403 . S
C835 C836 1.524 . S
C835 C839 1.400 . S
C836 H821 0.960 . S
C836 H822 0.960 . S
C836 H823 0.960 . S
C836 C835 1.524 . S
C837 C834 1.403 . S
C837 C838 1.392 . S
C837 C841 1.495 . S
C838 C837 1.392 . S
C838 C839 1.385 . S
C838 C840 1.478 . S
C839 H833 0.930 . S
C839 C835 1.400 . S
C839 C838 1.385 . S
C840 C838 1.478 . S
C840 C842 1.381 . S
C840 C846 1.383 . S
C841 C837 1.495 . S
C841 H847 0.959 1_554 S
C841 H848 0.961 . S
C841 H849 0.960 1_554 S
C842 C840 1.381 . S
C842 C843 1.394 . S
C842 H850 0.930 . S
C843 C842 1.394 . S
C843 C844 1.383 . S
C843 H851 0.929 . S
C844 C843 1.383 . S
C844 C845 1.377 . S
C845 H829 0.930 . S
C845 C844 1.377 . S
C845 C846 1.379 . S
C846 H830 0.931 . S
C846 C840 1.383 . S
C846 C845 1.379 . S
H847 C841 0.959 1_556 S
H848 C841 0.961 . S
H849 C841 0.960 1_556 S
H850 C842 0.930 . S
H851 C843 0.929 . S
H852 C860 0.929 . S
H853 C862 0.930 . S
H854 C864 0.930 . S
H855 C867 0.929 1_655 S
H856 C870 0.930 . S
H857 C872 0.960 1_655 S
H858 C872 0.960 . S
H859 C872 0.960 1_655 S
C860 H852 0.929 . S
C860 C861 1.377 . S
C860 C862 1.384 . S
C861 C860 1.377 . S
C861 C867 1.390 . S
C862 H853 0.930 . S
C862 C860 1.384 . S
C862 C863 1.372 . S
C863 C862 1.372 . S
C863 C864 1.400 1_455 S
C863 C868 1.490 . S
C864 H854 0.930 . S
C864 C863 1.400 1_655 S
C864 C867 1.386 1_655 S
H865 C881 0.930 . S
H866 C882 0.931 . S
C867 H855 0.929 1_455 S
C867 C861 1.390 . S
C867 C864 1.386 1_455 S
C868 C863 1.490 . S
C868 C870 1.395 . S
C868 C871 1.403 . S
H869 C875 0.930 . S
C870 H856 0.930 . S
C870 C868 1.395 . S
C870 C873 1.403 . S
C871 C868 1.403 . S
C871 C872 1.517 . S
C871 C875 1.408 1_455 S
C872 H857 0.960 1_455 S
C872 H858 0.960 . S
C872 H859 0.960 1_455 S
C872 C871 1.517 . S
C873 C870 1.403 . S
C873 C874 1.392 1_455 S
C873 C877 1.495 . S
C874 C873 1.392 1_655 S
C874 C875 1.385 . S
C874 C876 1.478 . S
C875 H869 0.930 . S
C875 C871 1.408 1_655 S
C875 C874 1.385 . S
C876 C874 1.478 . S
C876 C878 1.381 1_655 S
C876 C882 1.383 . S
C877 C873 1.495 . S
C877 H883 0.959 . S
C877 H884 0.961 1_455 S
C877 H885 0.960 . S
C878 C876 1.381 1_455 S
C878 C879 1.394 1_455 S
C878 H886 0.930 . S
C879 C878 1.394 1_655 S
C879 C880 1.383 . S
C879 H887 0.929 1_655 S
C880 C879 1.383 . S
C880 C881 1.377 . S
C881 H865 0.930 . S
C881 C880 1.377 . S
C881 C882 1.379 . S
C882 H866 0.931 . S
C882 C876 1.383 . S
C882 C881 1.379 . S
H883 C877 0.959 . S
H884 C877 0.961 1_655 S
H885 C877 0.960 . S
H886 C878 0.930 . S
H887 C879 0.929 1_455 S
H888 C896 0.929 . S
H889 C898 0.930 . S
H890 C900 0.930 . S
H891 C903 0.929 . S
H892 C906 0.930 . S
H893 C908 0.960 . S
H894 C908 0.960 . S
H895 C908 0.960 . S
C896 H888 0.929 . S
C896 C897 1.377 . S
C896 C898 1.384 . S
C897 C896 1.377 . S
C897 C903 1.390 . S
C898 H889 0.930 . S
C898 C896 1.384 . S
C898 C899 1.372 . S
C899 C898 1.372 . S
C899 C900 1.400 . S
C899 C904 1.490 . S
C900 H890 0.930 . S
C900 C899 1.400 . S
C900 C903 1.386 . S
H901 C917 0.930 . S
H902 C918 0.931 . S
C903 H891 0.929 . S
C903 C897 1.390 . S
C903 C900 1.386 . S
C904 C899 1.490 . S
C904 C906 1.395 . S
C904 C907 1.403 1_565 S
H905 C911 0.930 . S
C906 H892 0.930 . S
C906 C904 1.395 . S
C906 C909 1.403 . S
C907 C904 1.403 1_545 S
C907 C908 1.524 . S
C907 C911 1.400 . S
C908 H893 0.960 . S
C908 H894 0.960 . S
C908 H895 0.960 . S
C908 C907 1.524 . S
C909 C906 1.403 . S
C909 C910 1.392 1_565 S
C909 C913 1.495 . S
C910 C909 1.392 1_545 S
C910 C911 1.385 . S
C910 C912 1.478 . S
C911 H905 0.930 . S
C911 C907 1.400 . S
C911 C910 1.385 . S
C912 C910 1.478 . S
C912 C914 1.381 . S
C912 C918 1.383 . S
C913 C909 1.495 . S
C913 H919 0.959 . S
C913 H920 0.961 . S
C913 H921 0.960 . S
C914 C912 1.381 . S
C914 C915 1.394 . S
C914 H922 0.930 . S
C915 C914 1.394 . S
C915 C916 1.383 . S
C915 H923 0.929 . S
C916 C915 1.383 . S
C916 C917 1.377 . S
C917 H901 0.930 . S
C917 C916 1.377 . S
C917 C918 1.379 . S
C918 H902 0.931 . S
C918 C912 1.383 . S
C918 C917 1.379 . S
H919 C913 0.959 . S
H920 C913 0.961 . S
H921 C913 0.960 . S
H922 C914 0.930 . S
H923 C915 0.929 . S
H924 C932 0.929 . S
H925 C934 0.930 . S
H926 C936 0.930 . S
H927 C939 0.929 . S
H928 C942 0.930 . S
H929 C944 0.960 . S
H930 C944 0.960 . S
H931 C944 0.960 . S
C932 H924 0.929 . S
C932 C933 1.377 . S
C932 C934 1.384 . S
C933 C932 1.377 . S
C933 C939 1.390 . S
C934 H925 0.930 . S
C934 C932 1.384 . S
C934 C935 1.372 . S
C935 C934 1.372 . S
C935 C936 1.400 . S
C935 C940 1.490 . S
C936 H926 0.930 . S
C936 C935 1.400 . S
C936 C939 1.386 . S
H937 C953 0.930 . S
H938 C954 0.931 . S
C939 H927 0.929 . S
C939 C933 1.390 . S
C939 C936 1.386 . S
C940 C935 1.490 . S
C940 C942 1.395 . S
C940 C943 1.403 . S
H941 C947 0.930 . S
C942 H928 0.930 . S
C942 C940 1.395 . S
C942 C945 1.403 . S
C943 C940 1.403 . S
C943 C944 1.524 . S
C943 C947 1.400 . S
C944 H929 0.960 . S
C944 H930 0.960 . S
C944 H931 0.960 . S
C944 C943 1.524 . S
C945 C942 1.403 . S
C945 C946 1.392 . S
C945 C949 1.495 . S
C946 C945 1.392 . S
C946 C947 1.385 . S
C946 C948 1.478 . S
C947 H941 0.930 . S
C947 C943 1.400 . S
C947 C946 1.385 . S
C948 C946 1.478 . S
C948 C950 1.381 . S
C948 C954 1.383 . S
C949 C945 1.495 . S
C949 H955 0.959 . S
C949 H956 0.961 . S
C949 H957 0.960 . S
C950 C948 1.381 . S
C950 C951 1.394 . S
C950 H958 0.930 . S
C951 C950 1.394 . S
C951 C952 1.383 . S
C951 H959 0.929 . S
C952 C951 1.383 . S
C952 C953 1.377 . S
C953 H937 0.930 . S
C953 C952 1.377 . S
C953 C954 1.379 . S
C954 H938 0.931 . S
C954 C948 1.383 . S
C954 C953 1.379 . S
H955 C949 0.959 . S
H956 C949 0.961 . S
H957 C949 0.960 . S
H958 C950 0.930 . S
H959 C951 0.929 . S
H960 C968 0.929 . S
H961 C970 0.930 . S
H962 C972 0.930 . S
H963 C975 0.929 . S
H964 C978 0.930 . S
H965 C980 0.960 . S
H966 C980 0.960 . S
H967 C980 0.960 . S
C968 H960 0.929 . S
C968 C969 1.377 . S
C968 C970 1.384 . S
C969 C968 1.377 . S
C969 C975 1.390 . S
C970 H961 0.930 . S
C970 C968 1.384 . S
C970 C971 1.372 . S
C971 C970 1.372 . S
C971 C972 1.400 . S
C971 C976 1.490 . S
C972 H962 0.930 . S
C972 C971 1.400 . S
C972 C975 1.386 . S
H973 C989 0.930 . S
H974 C990 0.931 . S
C975 H963 0.929 . S
C975 C969 1.390 . S
C975 C972 1.386 . S
C976 C971 1.490 . S
C976 C978 1.395 . S
C976 C979 1.403 1_655 S
H977 C983 0.930 . S
C978 H964 0.930 . S
C978 C976 1.395 . S
C978 C981 1.403 . S
C979 C976 1.403 1_455 S
C979 C980 1.524 . S
C979 C983 1.400 . S
C980 H965 0.960 . S
C980 H966 0.960 . S
C980 H967 0.960 . S
C980 C979 1.524 . S
C981 C978 1.403 . S
C981 C982 1.392 1_655 S
C981 C985 1.495 . S
C982 C981 1.392 1_455 S
C982 C983 1.385 . S
C982 C984 1.478 . S
C983 H977 0.930 . S
C983 C979 1.400 . S
C983 C982 1.385 . S
C984 C982 1.478 . S
C984 C986 1.381 . S
C984 C990 1.383 . S
C985 C981 1.495 . S
C985 H991 0.959 . S
C985 H992 0.961 . S
C985 H993 0.960 . S
C986 C984 1.381 . S
C986 C987 1.394 . S
C986 H994 0.930 . S
C987 C986 1.394 . S
C987 C988 1.383 . S
C987 H995 0.929 . S
C988 C987 1.383 . S
C988 C989 1.377 . S
C989 H973 0.930 . S
C989 C988 1.377 . S
C989 C990 1.379 . S
C990 H974 0.931 . S
C990 C984 1.383 . S
C990 C989 1.379 . S
H991 C985 0.959 . S
H992 C985 0.961 . S
H993 C985 0.960 . S
H994 C986 0.930 . S
H995 C987 0.929 . S
H996 C1004 0.929 . S
H997 C1006 0.930 . S
H998 C1008 0.930 . S
H999 C1011 0.929 1_565 S
H1000 C1014 0.930 . S
H1001 C1016 0.960 . S
H1002 C1016 0.960 . S
H1003 C1016 0.960 . S
C1004 H996 0.929 . S
C1004 C1005 1.377 . S
C1004 C1006 1.384 . S
C1005 C1004 1.377 . S
C1005 C1011 1.390 . S
C1006 H997 0.930 . S
C1006 C1004 1.384 . S
C1006 C1007 1.372 . S
C1007 C1006 1.372 . S
C1007 C1008 1.400 1_545 S
C1007 C1012 1.490 . S
C1008 H998 0.930 . S
C1008 C1007 1.400 1_565 S
C1008 C1011 1.386 1_565 S
H1009 C1025 0.930 . S
H1010 C1026 0.931 . S
C1011 H999 0.929 1_545 S
C1011 C1005 1.390 . S
C1011 C1008 1.386 1_545 S
C1012 C1007 1.490 . S
C1012 C1014 1.395 . S
C1012 C1015 1.403 1_545 S
H1013 C1019 0.930 . S
C1014 H1000 0.930 . S
C1014 C1012 1.395 . S
C1014 C1017 1.403 . S
C1015 C1012 1.403 1_565 S
C1015 C1016 1.524 . S
C1015 C1019 1.400 . S
C1016 H1001 0.960 . S
C1016 H1002 0.960 . S
C1016 H1003 0.960 . S
C1016 C1015 1.524 . S
C1017 C1014 1.403 . S
C1017 C1018 1.392 1_545 S
C1017 C1021 1.495 . S
C1018 C1017 1.392 1_565 S
C1018 C1019 1.385 . S
C1018 C1020 1.478 . S
C1019 H1013 0.930 . S
C1019 C1015 1.400 . S
C1019 C1018 1.385 . S
C1020 C1018 1.478 . S
C1020 C1022 1.381 1_565 S
C1020 C1026 1.383 . S
C1021 C1017 1.495 . S
C1021 H1027 0.959 . S
C1021 H1028 0.961 . S
C1021 H1029 0.960 . S
C1022 C1020 1.381 1_545 S
C1022 C1023 1.394 1_545 S
C1022 H1030 0.930 . S
C1023 C1022 1.394 1_565 S
C1023 C1024 1.383 . S
C1023 H1031 0.929 1_565 S
C1024 C1023 1.383 . S
C1024 C1025 1.377 . S
C1025 H1009 0.930 . S
C1025 C1024 1.377 . S
C1025 C1026 1.379 . S
C1026 H1010 0.931 . S
C1026 C1020 1.383 . S
C1026 C1025 1.379 . S
H1027 C1021 0.959 . S
H1028 C1021 0.961 . S
H1029 C1021 0.960 . S
H1030 C1022 0.930 . S
H1031 C1023 0.929 1_545 S
C177 C0 1.474 . S
C196 C126 1.484 . S
C213 C14 1.476 . S
C232 C140 1.490 . S
C249 C28 1.474 . S
C268 C154 1.475 . S
C285 C42 1.480 . S
C304 C84 1.461 . S
C321 C98 1.480 . S
C340 C56 1.480 . S
C357 C112 1.475 . S
C376 C70 1.466 . S
C393 C151 1.540 . S
C412 C11 1.551 . S
C429 C25 1.538 . S
C448 C165 1.551 . S
C465 C39 1.540 . S
C484 C95 1.551 . S
C501 C53 1.540 . S
C520 C109 1.551 . S
C537 C67 1.540 . S
C556 C123 1.524 . S
C573 C81 1.538 . S
C592 C137 1.531 . S
C609 C135 0.513 . S
C628 C9 0.566 . S
C645 C23 0.512 . S
C664 C149 0.555 . S
C681 C37 0.482 . S
C700 C163 0.434 . S
C717 C93 0.513 . S
C736 C51 0.564 . S
C753 C65 0.491 . S
C772 C107 0.489 . S
C789 C121 0.482 . S
C808 C79 0.423 . S
C825 C5 1.508 . S
C844 C47 1.500 . S
C861 C61 1.510 . S
C880 C19 1.507 . S
C897 C33 1.508 . S
C916 C75 1.500 . S
C933 C89 1.508 . S
C952 C131 1.504 . S
C969 C103 1.508 . S
C988 C145 1.500 . S
C1005 C159 1.509 . S
C1024 C117 1.502 . S
