# Generated by pormake.
# Topology zff, (5)-cn, num edge types: 1
# Building blocks:
#     Node 0, Type 0, BuildingBlock: XOMCOT_clean_sbu_1, # of connection points: 5
#     Node 1, Type 0, BuildingBlock: XOMCOT_clean_sbu_1, # of connection points: 5
#     Node 2, Type 0, BuildingBlock: XOMCOT_clean_sbu_1, # of connection points: 5
#     Node 3, Type 0, BuildingBlock: XOMCOT_clean_sbu_1, # of connection points: 5
#     Node 4, Type 0, BuildingBlock: XOMCOT_clean_sbu_1, # of connection points: 5
#     Node 5, Type 0, BuildingBlock: XOMCOT_clean_sbu_1, # of connection points: 5
#     Node 6, Type 0, BuildingBlock: XOMCOT_clean_sbu_1, # of connection points: 5
#     Node 7, Type 0, BuildingBlock: XOMCOT_clean_sbu_1, # of connection points: 5
#     Node 8, Type 0, BuildingBlock: XOMCOT_clean_sbu_1, # of connection points: 5
#     Node 9, Type 0, BuildingBlock: XOMCOT_clean_sbu_1, # of connection points: 5
#     Node 10, Type 0, BuildingBlock: XOMCOT_clean_sbu_1, # of connection points: 5
#     Node 11, Type 0, BuildingBlock: XOMCOT_clean_sbu_1, # of connection points: 5
#     Node 12, Type 0, BuildingBlock: XOMCOT_clean_sbu_1, # of connection points: 5
#     Node 13, Type 0, BuildingBlock: XOMCOT_clean_sbu_1, # of connection points: 5
#     Node 14, Type 0, BuildingBlock: XOMCOT_clean_sbu_1, # of connection points: 5
#     Node 15, Type 0, BuildingBlock: XOMCOT_clean_sbu_1, # of connection points: 5
#     Edge 16, Type (0, 0), BuildingBlock: OJICUG_clean_linker_0, # of connection points: 2
#     Edge 17, Type (0, 0), BuildingBlock: OJICUG_clean_linker_0, # of connection points: 2
#     Edge 18, Type (0, 0), BuildingBlock: OJICUG_clean_linker_0, # of connection points: 2
#     Edge 19, Type (0, 0), BuildingBlock: OJICUG_clean_linker_0, # of connection points: 2
#     Edge 20, Type (0, 0), BuildingBlock: OJICUG_clean_linker_0, # of connection points: 2
#     Edge 21, Type (0, 0), BuildingBlock: OJICUG_clean_linker_0, # of connection points: 2
#     Edge 22, Type (0, 0), BuildingBlock: OJICUG_clean_linker_0, # of connection points: 2
#     Edge 23, Type (0, 0), BuildingBlock: OJICUG_clean_linker_0, # of connection points: 2
#     Edge 24, Type (0, 0), BuildingBlock: OJICUG_clean_linker_0, # of connection points: 2
#     Edge 25, Type (0, 0), BuildingBlock: OJICUG_clean_linker_0, # of connection points: 2
#     Edge 26, Type (0, 0), BuildingBlock: OJICUG_clean_linker_0, # of connection points: 2
#     Edge 27, Type (0, 0), BuildingBlock: OJICUG_clean_linker_0, # of connection points: 2
#     Edge 28, Type (0, 0), BuildingBlock: OJICUG_clean_linker_0, # of connection points: 2
#     Edge 29, Type (0, 0), BuildingBlock: OJICUG_clean_linker_0, # of connection points: 2
#     Edge 30, Type (0, 0), BuildingBlock: OJICUG_clean_linker_0, # of connection points: 2
#     Edge 31, Type (0, 0), BuildingBlock: OJICUG_clean_linker_0, # of connection points: 2
#     Edge 32, Type (0, 0), BuildingBlock: OJICUG_clean_linker_0, # of connection points: 2
#     Edge 33, Type (0, 0), BuildingBlock: OJICUG_clean_linker_0, # of connection points: 2
#     Edge 34, Type (0, 0), BuildingBlock: OJICUG_clean_linker_0, # of connection points: 2
#     Edge 35, Type (0, 0), BuildingBlock: OJICUG_clean_linker_0, # of connection points: 2
#     Edge 36, Type (0, 0), BuildingBlock: OJICUG_clean_linker_0, # of connection points: 2
#     Edge 37, Type (0, 0), BuildingBlock: OJICUG_clean_linker_0, # of connection points: 2
#     Edge 38, Type (0, 0), BuildingBlock: OJICUG_clean_linker_0, # of connection points: 2
#     Edge 39, Type (0, 0), BuildingBlock: OJICUG_clean_linker_0, # of connection points: 2
#     Edge 40, Type (0, 0), BuildingBlock: OJICUG_clean_linker_0, # of connection points: 2
#     Edge 41, Type (0, 0), BuildingBlock: OJICUG_clean_linker_0, # of connection points: 2
#     Edge 42, Type (0, 0), BuildingBlock: OJICUG_clean_linker_0, # of connection points: 2
#     Edge 43, Type (0, 0), BuildingBlock: OJICUG_clean_linker_0, # of connection points: 2
#     Edge 44, Type (0, 0), BuildingBlock: OJICUG_clean_linker_0, # of connection points: 2
#     Edge 45, Type (0, 0), BuildingBlock: OJICUG_clean_linker_0, # of connection points: 2
#     Edge 46, Type (0, 0), BuildingBlock: OJICUG_clean_linker_0, # of connection points: 2
#     Edge 47, Type (0, 0), BuildingBlock: OJICUG_clean_linker_0, # of connection points: 2
#     Edge 48, Type (0, 0), BuildingBlock: OJICUG_clean_linker_0, # of connection points: 2
#     Edge 49, Type (0, 0), BuildingBlock: OJICUG_clean_linker_0, # of connection points: 2
#     Edge 50, Type (0, 0), BuildingBlock: OJICUG_clean_linker_0, # of connection points: 2
#     Edge 51, Type (0, 0), BuildingBlock: OJICUG_clean_linker_0, # of connection points: 2
#     Edge 52, Type (0, 0), BuildingBlock: OJICUG_clean_linker_0, # of connection points: 2
#     Edge 53, Type (0, 0), BuildingBlock: OJICUG_clean_linker_0, # of connection points: 2
#     Edge 54, Type (0, 0), BuildingBlock: OJICUG_clean_linker_0, # of connection points: 2
#     Edge 55, Type (0, 0), BuildingBlock: OJICUG_clean_linker_0, # of connection points: 2
# Relax obj value: 0.148
# Max RMSD: 0.189
# Mean RMSD: 0.189
data_MOF--net-zff--node1-XOMCOT_clean_sbu_1--edge1-OJICUG_clean_linker_0
_symmetry_space_group_name_H-M    P1
_symmetry_Int_Tables_number       1
_symmetry_cell_setting            triclinic
loop_
_symmetry_equiv_pos_as_xyz
'x, y, z'
_cell_length_a     28.537771
_cell_length_b     28.76649
_cell_length_c     48.854805
_cell_angle_alpha  89.945958
_cell_angle_beta   89.678453
_cell_angle_gamma 89.998524
loop_
_atom_site_label
_atom_site_type_symbol
_atom_site_fract_x
_atom_site_fract_y
_atom_site_fract_z
_atom_type_partial_charge
C0 C 0.89525 0.2804 0.46988 0.0
C1 C 0.89863 0.2737 0.49762 0.0
N2 N 0.94414 0.27581 0.50479 0.0
N3 N 0.93835 0.28628 0.45901 0.0
C4 C 0.96754 0.28357 0.48083 0.0
H5 H 0.86293 0.28317 0.45859 0.0
Co6 Co 0.94846 0.30471 0.42218 0.0
C7 C 0.0231 0.24699 0.39926 0.0
O8 O -0.00106 0.2457 0.37647 0.0
N9 N 0.9586 0.32678 0.38503 0.0
C10 C 0.95156 0.34879 0.34134 0.0
C11 C 0.93021 0.32636 0.36295 0.0
C12 C -0.00291 0.35053 0.37591 0.0
N13 N -0.00612 0.36417 0.34933 0.0
O14 O 0.98084 0.35712 0.43456 0.0
H15 H 0.89569 0.31152 0.36201 0.0
H16 H 0.02719 0.35744 0.38863 0.0
O17 O 0.00696 0.26873 0.42018 0.0
C18 C 0.95227 0.38976 0.43999 0.0
O19 O 0.9071 0.38133 0.43839 0.0
N20 N 0.91217 0.25335 0.41089 0.0
C21 C 0.84602 0.18295 0.40374 0.0
C22 C 0.8912 0.17245 0.41292 0.0
C23 C 0.92366 0.20822 0.41667 0.0
C24 C 0.86757 0.26413 0.40326 0.0
C25 C 0.83435 0.22941 0.39873 0.0
H26 H 0.9569 0.19959 0.42577 0.0
H27 H 0.85704 0.30017 0.40189 0.0
H28 H 0.00497 0.28887 0.47921 0.0
H29 H 0.86925 0.27012 0.51153 0.0
H30 H 0.93614 0.35432 0.32142 0.0
H31 H 0.90107 0.13698 0.41764 0.0
H32 H 0.79924 0.23895 0.39255 0.0
C33 C 0.68525 0.89198 0.45127 0.0
C34 C 0.69023 0.8939 0.47914 0.0
N35 N 0.6902 0.93881 0.48702 0.0
N36 N 0.68258 0.93537 0.44102 0.0
C37 C 0.6854 0.96333 0.46332 0.0
H38 H 0.68116 0.86056 0.43944 0.0
Co39 Co 0.66787 0.94661 0.40395 0.0
C40 C 0.7198 0.02991 0.38578 0.0
O41 O 0.72241 0.01227 0.36105 0.0
N42 N 0.64959 0.95665 0.36642 0.0
C43 C 0.63594 0.94917 0.32166 0.0
C44 C 0.65964 0.93142 0.34381 0.0
C45 C 0.61924 -0.01036 0.35709 0.0
N46 N 0.61027 -0.01406 0.32989 0.0
O47 O 0.61201 0.97448 0.41524 0.0
H48 H 0.68239 0.90158 0.34298 0.0
H49 H 0.60417 0.01623 0.37006 0.0
O50 O 0.69936 0.00728 0.40503 0.0
C51 C 0.57907 0.9459 0.4199 0.0
O52 O 0.58706 0.90121 0.41682 0.0
N53 N 0.72355 0.9154 0.39407 0.0
C54 C 0.79669 0.85254 0.40174 0.0
C55 C 0.80376 0.90023 0.40557 0.0
C56 C 0.76669 0.93107 0.40193 0.0
C57 C 0.71722 0.86945 0.38815 0.0
C58 C 0.75358 0.83738 0.39153 0.0
H59 H 0.77194 0.96623 0.40873 0.0
H60 H 0.68238 0.85672 0.3838 0.0
H61 H 0.68212 0.00073 0.4622 0.0
H62 H 0.69089 0.86404 0.49259 0.0
H63 H 0.63693 0.93507 0.30115 0.0
H64 H 0.83663 0.91317 0.41354 0.0
H65 H 0.74657 0.80068 0.38878 0.0
C66 C 0.0796 0.6862 0.46782 0.0
C67 C 0.08162 0.68588 0.49596 0.0
N68 N 0.03983 0.67183 0.50599 0.0
N69 N 0.03641 0.6734 0.45962 0.0
C70 C 0.01362 0.66327 0.48338 0.0
H71 H 0.10826 0.69495 0.45419 0.0
Co72 Co 0.01688 0.66607 0.42241 0.0
C73 C 0.93654 0.72696 0.44429 0.0
O74 O 0.95154 0.73274 0.46939 0.0
N75 N -0.00329 0.65743 0.38524 0.0
C76 C 0.96407 0.67523 0.34515 0.0
C77 C 0.98643 0.69249 0.36785 0.0
C78 C 0.98021 0.61882 0.37221 0.0
N79 N 0.95998 0.62885 0.3478 0.0
O80 O 0.98539 0.61137 0.43251 0.0
H81 H -0.00832 0.72897 0.37219 0.0
H82 H 0.97959 0.5845 0.38127 0.0
O83 O 0.96015 0.70269 0.42729 0.0
C84 C 0.01475 0.57838 0.43496 0.0
O85 O 0.05936 0.58706 0.43046 0.0
N86 N 0.05166 0.71925 0.41248 0.0
C87 C 0.11727 0.78973 0.40374 0.0
C88 C 0.07812 0.79721 0.42057 0.0
C89 C 0.04569 0.76159 0.42466 0.0
C90 C 0.089 0.71161 0.39552 0.0
C91 C 0.12202 0.74664 0.39059 0.0
H92 H 0.01771 0.76744 0.43904 0.0
H93 H 0.09412 0.67756 0.38662 0.0
H94 H 0.97802 0.65044 0.48392 0.0
H95 H 0.11202 0.69493 0.50793 0.0
H96 H 0.94949 0.69561 0.32861 0.0
H97 H 0.07309 0.8301 0.43097 0.0
H98 H 0.15197 0.73945 0.37755 0.0
C99 C 0.28114 0.0709 0.45959 0.0
C100 C 0.27739 0.06717 0.48751 0.0
N101 N 0.28312 0.02228 0.49461 0.0
N102 N 0.28852 0.02854 0.44856 0.0
C103 C 0.28988 -0.00047 0.47049 0.0
H104 H 0.28104 0.10314 0.44825 0.0
Co105 Co 0.30418 0.01928 0.41119 0.0
C106 C 0.2458 0.94321 0.39046 0.0
O107 O 0.24278 0.96592 0.3672 0.0
N108 N 0.32364 0.01053 0.37346 0.0
C109 C 0.34599 0.02106 0.3299 0.0
C110 C 0.32252 0.0401 0.35189 0.0
C111 C 0.34831 0.97347 0.36354 0.0
N112 N 0.36248 0.97907 0.33715 0.0
O113 O 0.35801 -0.01262 0.4219 0.0
H114 H 0.30668 0.074 0.35164 0.0
H115 H 0.35688 0.94332 0.37579 0.0
O116 O 0.26895 0.96067 0.41037 0.0
C117 C 0.39172 0.01465 0.42712 0.0
O118 O 0.38438 0.05974 0.42613 0.0
N119 N 0.25091 0.05447 0.4016 0.0
C120 C 0.17862 0.11978 0.40023 0.0
C121 C 0.16972 0.07395 0.40833 0.0
C122 C 0.20639 0.04186 0.4091 0.0
C123 C 0.26011 0.09936 0.3943 0.0
C124 C 0.22428 0.13228 0.3927 0.0
H125 H 0.19926 0.00814 0.41783 0.0
H126 H 0.296 0.11058 0.39159 0.0
H127 H 0.29753 0.9628 0.46879 0.0
H128 H 0.27359 0.09598 0.50157 0.0
H129 H 0.35047 0.03712 0.31001 0.0
H130 H 0.13494 0.06338 0.41483 0.0
H131 H 0.23266 0.16782 0.38719 0.0
C132 C 0.92855 0.67276 0.65345 0.0
C133 C 0.93191 0.67315 0.62545 0.0
N134 N 0.97751 0.67129 0.61831 0.0
N135 N 0.97177 0.67118 0.66443 0.0
C136 C 0.00113 0.67036 0.64241 0.0
H137 H 0.89625 0.67157 0.66507 0.0
Co138 Co 0.98054 0.66155 0.70238 0.0
C139 C 0.06527 0.71367 0.71919 0.0
O140 O 0.04735 0.7174 0.74387 0.0
N141 N 0.98803 0.64838 0.74116 0.0
C142 C 0.97839 0.64372 0.78655 0.0
C143 C 0.96366 0.66504 0.76287 0.0
C144 C 0.01747 0.61653 0.75271 0.0
N145 N 0.01235 0.61291 0.78034 0.0
O146 O 0.00639 0.60309 0.69444 0.0
H147 H 0.93661 0.6911 0.76209 0.0
H148 H 0.04252 0.59638 0.74102 0.0
O149 O 0.04279 0.69182 0.70051 0.0
C150 C 0.97296 0.57394 0.69282 0.0
O151 O 0.92983 0.58875 0.69657 0.0
N152 N 0.95 0.71862 0.70891 0.0
C153 C 0.88915 0.79453 0.70465 0.0
C154 C 0.93708 0.79938 0.69877 0.0
C155 C 0.96677 0.76087 0.70055 0.0
C156 C 0.90359 0.71353 0.71507 0.0
C157 C 0.87265 0.75102 0.71332 0.0
H158 H 0.00213 0.76476 0.69311 0.0
H159 H 0.89001 0.67937 0.71994 0.0
H160 H 0.03876 0.66664 0.644 0.0
H161 H 0.90276 0.6739 0.61137 0.0
H162 H 0.96408 0.64994 0.80677 0.0
H163 H 0.95108 0.83203 0.69128 0.0
H164 H 0.83594 0.74567 0.71808 0.0
C165 C 0.31573 0.91036 0.6405 0.0
C166 C 0.30998 0.91213 0.61268 0.0
N167 N 0.30272 0.95664 0.60528 0.0
N168 N 0.31163 0.95341 0.65114 0.0
C169 C 0.30372 0.98111 0.62911 0.0
H170 H 0.32401 0.87954 0.65217 0.0
Co171 Co 0.3243 0.96468 0.68849 0.0
C172 C 0.25513 0.03155 0.70916 0.0
O173 O 0.25428 0.00648 0.73161 0.0
N174 N 0.34051 0.97541 0.72655 0.0
C175 C 0.35396 0.9685 0.77142 0.0
C176 C 0.33359 0.94842 0.74894 0.0
C177 C 0.36538 0.01213 0.73654 0.0
N178 N 0.37442 0.00861 0.76375 0.0
O179 O 0.37731 0.00153 0.67779 0.0
H180 H 0.31448 0.91624 0.74969 0.0
H181 H 0.3774 0.0407 0.72394 0.0
O182 O 0.28167 0.01941 0.68906 0.0
C183 C 0.41019 0.97169 0.67604 0.0
O184 O 0.40073 0.92805 0.68179 0.0
N185 N 0.27471 0.92335 0.69749 0.0
C186 C 0.21038 0.85008 0.70156 0.0
C187 C 0.19634 0.89387 0.69199 0.0
C188 C 0.22915 0.9299 0.68977 0.0
C189 C 0.28925 0.88017 0.70533 0.0
C190 C 0.25755 0.84349 0.70831 0.0
H191 H 0.21817 0.9621 0.68045 0.0
H192 H 0.32614 0.87386 0.70874 0.0
H193 H 0.30093 0.01856 0.63037 0.0
H194 H 0.31164 0.8827 0.59892 0.0
H195 H 0.35302 0.95459 0.792 0.0
H196 H 0.16039 0.90009 0.68601 0.0
H197 H 0.27013 0.80983 0.71497 0.0
C198 C 0.05954 0.27774 0.65131 0.0
C199 C 0.05747 0.27468 0.62328 0.0
N200 N 0.01217 0.27554 0.61568 0.0
N201 N 0.01578 0.28013 0.66179 0.0
C202 C 0.98752 0.2787 0.63952 0.0
H203 H 0.09124 0.27962 0.66325 0.0
Co204 Co 0.00329 0.2915 0.69934 0.0
C205 C 0.92226 0.23314 0.71476 0.0
O206 O 0.94297 0.22465 0.73815 0.0
N207 N -0.00919 0.30594 0.73778 0.0
C208 C -0.00744 0.31118 0.7835 0.0
C209 C 0.0107 0.28901 0.76083 0.0
C210 C 0.96012 0.33847 0.7476 0.0
N211 N 0.96074 0.34275 0.77532 0.0
O212 O 0.97506 0.34809 0.68963 0.0
H213 H 0.03609 0.26135 0.76176 0.0
H214 H 0.93786 0.35918 0.73458 0.0
O215 O 0.94293 0.25839 0.69675 0.0
C216 C 0.00801 0.37785 0.68812 0.0
O217 O 0.05129 0.36365 0.69186 0.0
N218 N 0.03724 0.23734 0.70784 0.0
C219 C 0.10772 0.16968 0.70781 0.0
C220 C 0.06273 0.15932 0.69797 0.0
C221 C 0.02783 0.19381 0.69808 0.0
C222 C 0.08099 0.24788 0.71704 0.0
C223 C 0.11628 0.21443 0.71784 0.0
H224 H -0.0054 0.18638 0.68854 0.0
H225 H 0.08916 0.28332 0.72265 0.0
H226 H 0.94979 0.28207 0.64069 0.0
H227 H 0.08726 0.27252 0.60954 0.0
H228 H 0.00174 0.30367 0.80449 0.0
H229 H 0.05496 0.12526 0.68973 0.0
H230 H 0.15075 0.2242 0.72502 0.0
C231 C 0.6405 0.03345 0.63539 0.0
C232 C 0.64313 0.03357 0.60737 0.0
N233 N 0.66977 -0.00264 0.59914 0.0
N234 N 0.66537 -0.00244 0.64532 0.0
C235 C 0.68261 0.97577 0.62278 0.0
H236 H 0.62072 0.05753 0.64792 0.0
Co237 Co 0.6647 -0.01347 0.68324 0.0
C238 C 0.75919 0.94822 0.69583 0.0
O239 O 0.76686 0.98302 0.71252 0.0
N240 N 0.65952 0.9752 0.72243 0.0
C241 C 0.66416 0.97608 0.76822 0.0
C242 C 0.68241 -0.00656 0.74414 0.0
C243 C 0.62723 0.94677 0.73451 0.0
N244 N 0.62907 0.94663 0.76226 0.0
O245 O 0.63039 0.93121 0.67628 0.0
H246 H 0.71026 0.01871 0.74314 0.0
H247 H 0.60153 0.92733 0.7232 0.0
O248 O 0.72131 0.94677 0.68185 0.0
C249 C 0.59045 0.92048 0.66675 0.0
O250 O 0.58194 0.87636 0.66194 0.0
N251 N 0.70111 0.04196 0.68798 0.0
C252 C 0.75994 0.11948 0.69326 0.0
C253 C 0.76993 0.08463 0.6742 0.0
C254 C 0.74011 0.04666 0.67173 0.0
C255 C 0.68801 0.07787 0.70462 0.0
C256 C 0.71779 0.11639 0.70827 0.0
H257 H 0.7497 0.01983 0.65731 0.0
H258 H 0.65546 0.07583 0.71602 0.0
H259 H 0.70355 0.9445 0.62381 0.0
H260 H 0.62517 0.05786 0.59418 0.0
H261 H 0.67602 0.98492 0.78855 0.0
H262 H 0.80185 0.08542 0.6621 0.0
H263 H 0.70823 0.14316 0.72284 0.0
C264 C 0.40944 0.78918 0.96259 0.0
C265 C 0.41372 0.78527 0.99046 0.0
N266 N 0.45956 0.78657 0.99695 0.0
N267 N 0.45228 0.79248 0.95101 0.0
C268 C 0.48226 0.79113 0.97251 0.0
H269 H 0.3768 0.79154 0.95158 0.0
Co270 Co 0.46144 0.80517 0.91334 0.0
C271 C 0.53671 0.74477 0.89368 0.0
O272 O 0.51289 0.73983 0.87095 0.0
N273 N 0.47057 0.82094 0.87512 0.0
C274 C 0.4639 0.83173 0.82997 0.0
C275 C 0.44298 0.81368 0.85306 0.0
C276 C 0.50801 0.8444 0.86445 0.0
N277 N 0.50496 0.8511 0.83702 0.0
O278 O 0.4927 0.8598 0.92264 0.0
H279 H 0.40964 0.7963 0.85299 0.0
H280 H 0.53756 0.85558 0.87656 0.0
O281 O 0.52029 0.7699 0.91315 0.0
C282 C 0.46204 0.89139 0.92586 0.0
O283 O 0.41755 0.88034 0.92345 0.0
N284 N 0.42595 0.75222 0.90521 0.0
C285 C 0.35954 0.68162 0.90238 0.0
C286 C 0.4051 0.67205 0.91127 0.0
C287 C 0.43774 0.70803 0.9129 0.0
C288 C 0.38112 0.7622 0.89774 0.0
C289 C 0.34767 0.72723 0.89538 0.0
H290 H 0.47128 0.70062 0.92197 0.0
H291 H 0.37083 0.79799 0.89458 0.0
H292 H 0.51981 0.79474 0.97026 0.0
H293 H 0.38484 0.78395 1.00488 0.0
H294 H 0.44943 0.83118 0.80954 0.0
H295 H 0.415 0.63731 0.91758 0.0
H296 H 0.31227 0.73615 0.88944 0.0
C297 C 0.24216 0.46088 0.97269 0.0
C298 C 0.24833 0.46381 1.00053 0.0
N299 N 0.20607 0.46814 1.01251 0.0
N300 N 0.19596 0.46247 0.96665 0.0
C301 C 0.17498 0.46745 0.9916 0.0
H302 H 0.27025 0.45944 0.95786 0.0
Co303 Co 0.1695 0.46194 0.93046 0.0
C304 C 0.22187 0.53561 0.8998 0.0
O305 O 0.21354 0.51636 0.87595 0.0
N306 N 0.14195 0.46265 0.8946 0.0
C307 C 0.11812 0.445 0.85244 0.0
C308 C 0.14089 0.42888 0.87547 0.0
C309 C 0.1182 0.49849 0.88279 0.0
N310 N 0.10406 0.48918 0.85685 0.0
O311 O 0.11954 0.499 0.94256 0.0
H312 H 0.156 0.39468 0.87783 0.0
H313 H 0.11345 0.53175 0.89273 0.0
O314 O 0.20706 0.51661 0.92188 0.0
C315 C 0.08753 0.46995 0.94879 0.0
O316 O 0.09831 0.42553 0.94946 0.0
N317 N 0.21617 0.42008 0.91912 0.0
C318 C 0.27912 0.34657 0.91356 0.0
C319 C 0.29128 0.39143 0.90472 0.0
C320 C 0.25922 0.42786 0.90761 0.0
C321 C 0.20327 0.37634 0.92677 0.0
C322 C 0.23406 0.33906 0.92412 0.0
H323 H 0.27072 0.46217 0.90215 0.0
H324 H 0.16923 0.37072 0.93598 0.0
H325 H 0.13766 0.47133 0.99459 0.0
H326 H 0.2816 0.46505 1.01105 0.0
H327 H 0.11246 0.42532 0.8339 0.0
H328 H 0.32573 0.39857 0.89629 0.0
H329 H 0.22334 0.30511 0.93144 0.0
C330 C 0.57342 0.17075 0.96142 0.0
C331 C 0.57228 0.17341 0.98954 0.0
N332 N 0.52775 0.18123 0.99758 0.0
N333 N 0.52976 0.17656 0.9516 0.0
C334 C 0.50262 0.18316 0.97415 0.0
H335 H 0.60407 0.1643 0.94887 0.0
Co336 Co 0.51399 0.17117 0.91432 0.0
C337 C 0.41562 0.19802 0.91387 0.0
O338 O 0.40497 0.15723 0.90356 0.0
N339 N 0.49732 0.16504 0.87657 0.0
C340 C 0.46908 0.1821 0.83533 0.0
C341 C 0.48688 0.20003 0.85926 0.0
C342 C 0.48583 0.12608 0.86237 0.0
N343 N 0.46789 0.13528 0.83721 0.0
O344 O 0.48336 0.11519 0.92247 0.0
H345 H 0.48952 0.23656 0.86425 0.0
H346 H 0.48861 0.09162 0.8709 0.0
O347 O 0.45792 0.20722 0.9201 0.0
C348 C 0.51407 0.08324 0.92381 0.0
O349 O 0.55813 0.09394 0.91898 0.0
N350 N 0.54861 0.22447 0.907 0.0
C351 C 0.62015 0.29021 0.90778 0.0
C352 C 0.57769 0.29837 0.92167 0.0
C353 C 0.54227 0.26497 0.92105 0.0
C354 C 0.58832 0.21703 0.89209 0.0
C355 C 0.62441 0.24971 0.89195 0.0
H356 H 0.51176 0.26985 0.9339 0.0
H357 H 0.59331 0.18413 0.88176 0.0
H358 H 0.46502 0.18793 0.97351 0.0
H359 H 0.60201 0.17005 1.00307 0.0
H360 H 0.456 0.20263 0.81848 0.0
H361 H 0.57299 0.32869 0.93452 0.0
H362 H 0.65613 0.2423 0.8805 0.0
C363 C 0.79827 0.57102 0.9698 0.0
C364 C 0.79545 0.56928 0.99796 0.0
N365 N 0.79598 0.52436 1.006 0.0
N366 N 0.80027 0.52744 0.9598 0.0
C367 C 0.79899 0.49979 0.98231 0.0
H368 H 0.7997 0.60215 0.95738 0.0
Co369 Co 0.80837 0.51059 0.92261 0.0
C370 C 0.77806 0.41369 0.92299 0.0
O371 O 0.8203 0.39993 0.91589 0.0
N372 N 0.81702 0.49168 0.885 0.0
C373 C 0.79989 0.46354 0.84367 0.0
C374 C 0.78224 0.48446 0.86686 0.0
C375 C 0.85572 0.47438 0.87204 0.0
N376 N 0.84629 0.4567 0.84681 0.0
O377 O 0.8638 0.48029 0.93234 0.0
H378 H 0.74555 0.49123 0.87081 0.0
H379 H 0.88989 0.47288 0.88139 0.0
O380 O 0.77026 0.45643 0.92792 0.0
C381 C 0.89441 0.51249 0.93312 0.0
O382 O 0.88197 0.55489 0.92617 0.0
N383 N 0.75564 0.54552 0.91366 0.0
C384 C 0.68635 0.61242 0.9067 0.0
C385 C 0.67815 0.5734 0.92327 0.0
C386 C 0.71337 0.54022 0.92652 0.0
C387 C 0.7641 0.58298 0.8973 0.0
C388 C 0.72963 0.61661 0.89321 0.0
H389 H 0.70759 0.5118 0.94061 0.0
H390 H 0.79841 0.58757 0.88817 0.0
H391 H 0.80076 0.46229 0.98123 0.0
H392 H 0.79455 0.59911 1.01142 0.0
H393 H 0.77922 0.45171 0.82654 0.0
H394 H 0.6451 0.56898 0.93397 0.0
H395 H 0.73742 0.64654 0.88051 0.0
C396 C 0.46362 0.24504 0.14894 0.0
C397 C 0.46797 0.25094 0.12105 0.0
N398 N 0.47424 0.20896 0.10953 0.0
N399 N 0.46628 0.19932 0.15527 0.0
C400 C 0.47314 0.17841 0.13062 0.0
H401 H 0.46016 0.27287 0.16365 0.0
Co402 Co 0.46558 0.1723 0.19118 0.0
C403 C 0.54744 0.21719 0.21991 0.0
O404 O 0.53394 0.20312 0.24426 0.0
N405 N 0.46587 0.14377 0.22669 0.0
C406 C 0.44806 0.11807 0.2686 0.0
C407 C 0.43336 0.14511 0.24685 0.0
C408 C 0.49929 0.11456 0.23656 0.0
N409 N 0.48986 0.0989 0.2622 0.0
O410 O 0.49959 0.12113 0.17801 0.0
H411 H 0.40085 0.16432 0.24589 0.0
H412 H 0.53114 0.10653 0.22545 0.0
O413 O 0.52321 0.20699 0.19878 0.0
C414 C 0.46904 0.09023 0.1726 0.0
O415 O 0.42448 0.10168 0.174 0.0
N416 N 0.42678 0.22069 0.20364 0.0
C417 C 0.35982 0.28952 0.21328 0.0
C418 C 0.40507 0.29325 0.2242 0.0
C419 C 0.43809 0.25841 0.2192 0.0
C420 C 0.38245 0.2156 0.19383 0.0
C421 C 0.34849 0.24972 0.19822 0.0
H422 H 0.4726 0.26299 0.22732 0.0
H423 H 0.37387 0.18531 0.18175 0.0
H424 H 0.47809 0.14148 0.12793 0.0
H425 H 0.46866 0.28379 0.11023 0.0
H426 H 0.429 0.11273 0.28755 0.0
H427 H 0.41542 0.32357 0.23582 0.0
H428 H 0.31379 0.24504 0.18979 0.0
C429 C 0.7961 0.40911 0.15309 0.0
C430 C 0.79401 0.4111 0.12495 0.0
N431 N 0.79562 0.45604 0.11708 0.0
N432 N 0.79877 0.45257 0.16323 0.0
C433 C 0.79838 0.48046 0.1408 0.0
H434 H 0.7964 0.37785 0.1654 0.0
Co435 Co 0.80671 0.4681 0.20061 0.0
C436 C 0.77673 0.5652 0.20071 0.0
O437 O 0.81887 0.57865 0.20794 0.0
N438 N 0.81528 0.48528 0.23836 0.0
C439 C 0.79758 0.51363 0.27965 0.0
C440 C 0.78008 0.49335 0.25635 0.0
C441 C 0.85421 0.50084 0.25167 0.0
N442 N 0.84425 0.51865 0.27678 0.0
O443 O 0.86172 0.49944 0.19126 0.0
H444 H 0.74334 0.48782 0.25214 0.0
H445 H 0.88868 0.50256 0.24243 0.0
O446 O 0.76853 0.52244 0.19606 0.0
C447 C 0.8935 0.46869 0.18893 0.0
O448 O 0.88212 0.42481 0.19254 0.0
N449 N 0.75418 0.43252 0.2094 0.0
C450 C 0.68605 0.3638 0.21488 0.0
C451 C 0.67664 0.4048 0.20029 0.0
C452 C 0.71134 0.43875 0.19765 0.0
C453 C 0.76355 0.39364 0.22429 0.0
C454 C 0.72984 0.35893 0.22748 0.0
H455 H 0.70472 0.46851 0.18475 0.0
H456 H 0.79825 0.38856 0.23259 0.0
H457 H 0.8017 0.51789 0.14186 0.0
H458 H 0.79152 0.38151 0.11139 0.0
H459 H 0.7771 0.52593 0.2969 0.0
H460 H 0.64321 0.41005 0.19037 0.0
H461 H 0.73886 0.32759 0.23856 0.0
C462 C 0.57562 0.80173 0.14329 0.0
C463 C 0.57447 0.79751 0.11522 0.0
N464 N 0.52936 0.79574 0.10722 0.0
N465 N 0.53146 0.8025 0.15323 0.0
C466 C 0.50401 0.79879 0.13076 0.0
H467 H 0.60674 0.80474 0.1557 0.0
Co468 Co 0.51487 0.81213 0.19037 0.0
C469 C 0.41697 0.78177 0.19083 0.0
O470 O 0.40275 0.82432 0.19595 0.0
N471 N 0.49683 0.82235 0.22792 0.0
C472 C 0.47188 0.8078 0.27044 0.0
C473 C 0.49141 0.78899 0.24714 0.0
C474 C 0.47984 0.86135 0.24033 0.0
N475 N 0.46401 0.85346 0.26623 0.0
O476 O 0.48356 0.86658 0.17996 0.0
H477 H 0.49916 0.75256 0.24412 0.0
H478 H 0.47668 0.89447 0.23006 0.0
O479 O 0.46023 0.77362 0.18655 0.0
C480 C 0.51538 0.89749 0.178 0.0
O481 O 0.55885 0.88576 0.1835 0.0
N482 N 0.55065 0.7606 0.19991 0.0
C483 C 0.62136 0.6944 0.20462 0.0
C484 C 0.57992 0.68426 0.19041 0.0
C485 C 0.54493 0.71791 0.18825 0.0
C486 C 0.58966 0.77055 0.2147 0.0
C487 C 0.62525 0.73773 0.21761 0.0
H488 H 0.51507 0.71083 0.17541 0.0
H489 H 0.59419 0.80503 0.2231 0.0
H490 H 0.46612 0.79986 0.13162 0.0
H491 H 0.60468 0.79584 0.10177 0.0
H492 H 0.46319 0.78863 0.28883 0.0
H493 H 0.57565 0.65173 0.17958 0.0
H494 H 0.65618 0.74689 0.22915 0.0
C495 C 0.18152 0.57176 0.15916 0.0
C496 C 0.18358 0.56797 0.13116 0.0
N497 N 0.18796 0.52275 0.12461 0.0
N498 N 0.18463 0.52916 0.17056 0.0
C499 C 0.18878 0.49979 0.1489 0.0
H500 H 0.17573 0.60353 0.17048 0.0
Co501 Co 0.17232 0.51906 0.20819 0.0
C502 C 0.236 0.44694 0.22693 0.0
O503 O 0.24217 0.47249 0.24888 0.0
N504 N 0.15634 0.50862 0.2465 0.0
C505 C 0.14311 0.51386 0.2916 0.0
C506 C 0.16516 0.53375 0.2693 0.0
C507 C 0.12884 0.47323 0.25602 0.0
N508 N 0.11984 0.4757 0.28332 0.0
O509 O 0.11809 0.4873 0.19843 0.0
H510 H 0.18608 0.56485 0.27027 0.0
H511 H 0.11549 0.44595 0.24302 0.0
O512 O 0.209 0.46145 0.20788 0.0
C513 C 0.08647 0.51811 0.19591 0.0
O514 O 0.09742 0.56183 0.20039 0.0
N515 N 0.22475 0.55589 0.21633 0.0
C516 C 0.29014 0.62806 0.21168 0.0
C517 C 0.30182 0.58247 0.20388 0.0
C518 C 0.26853 0.54699 0.20612 0.0
C519 C 0.21307 0.59979 0.2243 0.0
C520 C 0.24548 0.63599 0.2229 0.0
H521 H 0.27673 0.51373 0.19708 0.0
H522 H 0.17722 0.60756 0.22996 0.0
H523 H 0.18952 0.4623 0.1508 0.0
H524 H 0.181 0.5963 0.11664 0.0
H525 H 0.14331 0.52752 0.31222 0.0
H526 H 0.33514 0.57471 0.19423 0.0
H527 H 0.23466 0.67035 0.22936 0.0
C528 C 0.03188 0.49393 0.43945 0.0
C529 C -0.00081 0.53046 0.44005 0.0
H530 H 0.04263 0.42044 0.4392 0.0
C531 C 0.95152 0.52039 0.44382 0.0
H532 H 0.06896 0.50069 0.4368 0.0
C533 C 0.9365 0.47437 0.44539 0.0
C534 C 0.96891 0.43777 0.44308 0.0
H535 H 0.92564 0.54791 0.44462 0.0
H536 H 0.89929 0.46755 0.44726 0.0
C537 C 0.01685 0.44794 0.44091 0.0
C538 C 0.52326 0.01063 0.42885 0.0
C539 C 0.53155 0.96284 0.42571 0.0
H540 H 0.47218 0.06452 0.43221 0.0
C541 C 0.49364 0.93176 0.42623 0.0
H542 H 0.55192 0.03534 0.42879 0.0
C543 C 0.44794 0.94847 0.42813 0.0
C544 C 0.43955 -0.00351 0.42964 0.0
H545 H 0.49907 0.89468 0.42404 0.0
H546 H 0.41921 0.9239 0.4273 0.0
C547 C 0.47761 0.02732 0.43087 0.0
C548 C 0.03599 0.45959 0.6851 0.0
C549 C -0.00155 0.42793 0.68601 0.0
H550 H 0.0574 0.53077 0.68655 0.0
C551 C 0.95241 0.4448 0.68713 0.0
H552 H 0.07193 0.44758 0.68409 0.0
C553 C 0.94417 0.49252 0.6885 0.0
C554 C 0.98183 0.52407 0.68881 0.0
H555 H 0.92285 0.4212 0.68786 0.0
H556 H 0.90828 0.50453 0.69008 0.0
C557 C 0.02776 0.50725 0.68652 0.0
C558 C 0.52086 0.94653 0.64125 0.0
C559 C 0.55197 0.95418 0.66293 0.0
H560 H 0.44963 0.94909 0.62804 0.0
C561 C 0.53793 0.98338 0.68452 0.0
H562 H 0.53097 0.92452 0.62422 0.0
C563 C 0.49084 -0.00293 0.68687 0.0
C564 C 0.45815 0.98271 0.66723 0.0
H565 H 0.56133 -0.00945 0.7013 0.0
H566 H 0.47904 0.01342 0.70566 0.0
C567 C 0.4743 0.96089 0.64333 0.0
C568 C 0.44095 0.97493 0.93013 0.0
C569 C 0.47561 0.94028 0.92877 0.0
H570 H 0.426 0.04775 0.92965 0.0
C571 C 0.52298 0.95305 0.92815 0.0
H572 H 0.40409 0.96602 0.93078 0.0
C573 C 0.53545 -0.0002 0.92758 0.0
C574 C 0.50073 0.03444 0.92755 0.0
H575 H 0.55039 0.92703 0.92721 0.0
H576 H 0.57229 0.00867 0.92632 0.0
C577 C 0.45343 0.02171 0.92949 0.0
C578 C 0.95657 0.4591 0.94985 0.0
C579 C 0.94323 0.50306 0.94039 0.0
H580 H 0.01317 0.41461 0.96082 0.0
C581 C 0.97728 0.53801 0.93711 0.0
H582 H 0.93091 0.43181 0.95293 0.0
C583 C 0.02439 0.52826 0.9416 0.0
C584 C 0.03803 0.48347 0.94951 0.0
H585 H 0.96784 0.57246 0.93007 0.0
H586 H 0.05017 0.55509 0.93757 0.0
C587 C 0.00363 0.44943 0.9545 0.0
C588 C 0.45775 0.9603 0.16817 0.0
C589 C 0.5041 0.94641 0.17268 0.0
H590 H 0.41043 0.01722 0.16401 0.0
C591 C 0.53971 0.98014 0.17382 0.0
H592 H 0.42974 0.93498 0.16695 0.0
C593 C 0.52875 0.0272 0.17224 0.0
C594 C 0.48203 0.0412 0.16937 0.0
H595 H 0.57592 0.97038 0.17704 0.0
H596 H 0.55657 0.05252 0.17448 0.0
C597 C 0.44681 0.00739 0.16643 0.0
C598 C 0.95625 0.52851 0.18709 0.0
C599 C 0.94295 0.48165 0.18661 0.0
H600 H 0.0126 0.5768 0.19028 0.0
C601 C 0.97753 0.44686 0.18643 0.0
H602 H 0.93027 0.55598 0.18711 0.0
C603 C 0.02463 0.4587 0.1884 0.0
C604 C 0.03774 0.50548 0.19048 0.0
H605 H 0.9682 0.41038 0.18584 0.0
H606 H 0.05052 0.4312 0.18927 0.0
C607 C 0.00336 0.54035 0.189 0.0
C608 C 0.02469 0.39053 0.30395 0.0
C609 C 0.02719 0.39075 0.33281 0.0
H610 H 0.05103 0.41691 0.26587 0.0
C611 C 0.06203 0.41845 0.34495 0.0
H612 H -0.00097 0.36935 0.29357 0.0
C613 C 0.09266 0.44555 0.32882 0.0
C614 C 0.08956 0.44593 0.29996 0.0
H615 H 0.0652 0.42002 0.36698 0.0
H616 H 0.11878 0.46626 0.33912 0.0
C617 C 0.05519 0.41762 0.28785 0.0
C618 C 0.55507 0.04204 0.26777 0.0
C619 C 0.51931 0.06958 0.27934 0.0
H620 H 0.61197 -0.00484 0.27431 0.0
C621 C 0.51372 0.0685 0.30806 0.0
H622 H 0.56035 0.04105 0.24584 0.0
C623 C 0.54333 0.04137 0.32461 0.0
C624 C 0.57948 0.0143 0.31299 0.0
H625 H 0.48688 0.08916 0.31794 0.0
H626 H 0.53756 0.04144 0.34651 0.0
C627 C 0.58462 0.01504 0.28426 0.0
C628 C 0.85769 0.58743 0.30611 0.0
C629 C 0.87431 0.54566 0.29466 0.0
H630 H 0.87184 0.64626 0.3317 0.0
C631 C 0.91987 0.53087 0.30157 0.0
H632 H 0.82302 0.60004 0.30112 0.0
C633 C 0.94771 0.55714 0.31978 0.0
C634 C 0.93098 0.59932 0.33077 0.0
H635 H 0.93359 0.49876 0.29321 0.0
H636 H 0.9826 0.54516 0.32476 0.0
C637 C 0.8857 0.614 0.3236 0.0
C638 C 0.44258 0.93398 0.28103 0.0
C639 C 0.4398 0.88545 0.28468 0.0
H640 H 0.42115 0.00151 0.29488 0.0
C641 C 0.41212 0.86872 0.30667 0.0
H642 H 0.46395 0.94861 0.26482 0.0
C643 C 0.38772 0.89924 0.3241 0.0
C644 C 0.38975 0.94756 0.32007 0.0
H645 H 0.40821 0.83185 0.31023 0.0
H646 H 0.36616 0.88482 0.3403 0.0
C647 C 0.4179 0.96449 0.29839 0.0
C648 C 0.05846 0.56122 0.84644 0.0
C649 C 0.08103 0.52037 0.8375 0.0
H650 H 0.02023 0.62249 0.83579 0.0
C651 C 0.08099 0.51103 0.8091 0.0
H652 H 0.0571 0.56989 0.86796 0.0
C653 C 0.0591 0.54129 0.79042 0.0
C654 C 0.03639 0.58203 0.79942 0.0
H655 H 0.09823 0.48044 0.80107 0.0
H656 H 0.05953 0.53227 0.76893 0.0
C657 C 0.03667 0.59144 0.82779 0.0
C658 C 0.42929 0.11803 0.79233 0.0
C659 C 0.4469 0.10278 0.81782 0.0
H660 H 0.39246 0.10085 0.75551 0.0
C661 C 0.442 0.05521 0.82421 0.0
H662 H 0.4325 0.1539 0.78607 0.0
C663 C 0.41928 0.02459 0.80632 0.0
C664 C 0.40035 0.04019 0.78134 0.0
H665 H 0.45505 0.04119 0.84321 0.0
H666 H 0.41659 -0.01155 0.81225 0.0
C667 C 0.40639 0.0873 0.77445 0.0
C668 C 0.91903 0.41054 0.83756 0.0
C669 C 0.87703 0.43075 0.82832 0.0
H670 H 0.97847 0.36791 0.82832 0.0
C671 C 0.86451 0.42313 0.80075 0.0
H672 H 0.93027 0.4152 0.85848 0.0
C673 C 0.89202 0.39513 0.78336 0.0
C674 C 0.93326 0.37374 0.79283 0.0
H675 H 0.83308 0.43855 0.79245 0.0
H676 H 0.88021 0.38956 0.76263 0.0
C677 C 0.94662 0.38264 0.82015 0.0
C678 C 0.56661 0.91052 0.82773 0.0
C679 C 0.53781 0.87407 0.81865 0.0
H680 H 0.61706 0.96265 0.81722 0.0
C681 C 0.54049 0.86129 0.79086 0.0
H682 H 0.56515 0.92167 0.84888 0.0
C683 C 0.57052 0.88454 0.77261 0.0
C684 C 0.59881 0.92169 0.78143 0.0
H685 H 0.5195 0.83289 0.78316 0.0
H686 H 0.57155 0.87295 0.75158 0.0
C687 C 0.59649 0.9341 0.8094 0.0
C688 C 0.09334 0.212 0.37719 0.0
C689 C 0.06594 0.21861 0.40086 0.0
H690 H 0.151 0.17584 0.35864 0.0
C691 C 0.07724 0.19427 0.42484 0.0
H692 H 0.08526 0.23044 0.35845 0.0
C693 C 0.11415 0.1622 0.42471 0.0
C694 C 0.14085 0.15491 0.40081 0.0
H695 H 0.05634 0.19849 0.44325 0.0
H696 H 0.12166 0.14281 0.4432 0.0
C697 C 0.13082 0.18084 0.37726 0.0
C698 C 0.80118 0.11398 0.42126 0.0
C699 C 0.81083 0.14574 0.40007 0.0
H700 H 0.7634 0.05288 0.43363 0.0
C701 C 0.78739 0.14122 0.37506 0.0
H702 H 0.81857 0.1171 0.44082 0.0
C703 C 0.75645 0.10435 0.37084 0.0
C704 C 0.74757 0.07191 0.39175 0.0
H705 H 0.79426 0.16531 0.35845 0.0
H706 H 0.74009 0.1007 0.35099 0.0
C707 C 0.76935 0.07762 0.41724 0.0
C708 C 0.88002 0.75008 0.4074 0.0
C709 C 0.89795 0.75639 0.43396 0.0
H710 H 0.8337 0.77567 0.37627 0.0
C711 C 0.88109 0.79346 0.44988 0.0
H712 H 0.8922 0.72172 0.39464 0.0
C713 C 0.84833 0.82443 0.43922 0.0
C714 C 0.8313 0.81889 0.41249 0.0
H715 H 0.89402 0.79938 0.47038 0.0
H716 H 0.8362 0.85282 0.45198 0.0
C717 C 0.84667 0.78089 0.39684 0.0
C718 C 0.17055 0.85022 0.42358 0.0
C719 C 0.15328 0.82655 0.40054 0.0
H720 H 0.2142 0.90521 0.43856 0.0
C721 C 0.16946 0.83935 0.37444 0.0
H722 H 0.15905 0.84062 0.44399 0.0
C723 C 0.2007 0.87643 0.37133 0.0
C724 C 0.21696 0.90098 0.39429 0.0
H725 H 0.1567 0.82176 0.35636 0.0
H726 H 0.21151 0.88639 0.35086 0.0
C727 C 0.20238 0.88688 0.42051 0.0
C728 C 0.17371 0.78645 0.72927 0.0
C729 C 0.17613 0.81148 0.70462 0.0
H730 H 0.13675 0.73559 0.753 0.0
C731 C 0.14478 0.80027 0.68348 0.0
H732 H 0.19735 0.79434 0.7459 0.0
C733 C 0.11064 0.76572 0.68732 0.0
C734 C 0.10666 0.74263 0.71259 0.0
H735 H 0.14625 0.81871 0.66416 0.0
H736 H 0.08587 0.75892 0.67108 0.0
C737 C 0.13908 0.75277 0.73329 0.0
C738 C 0.20948 0.09511 0.73094 0.0
C739 C 0.22099 0.07011 0.70714 0.0
H740 H 0.16485 0.14582 0.74974 0.0
C741 C 0.19539 0.07843 0.68314 0.0
H742 H 0.22841 0.08917 0.74979 0.0
C743 C 0.15798 0.11028 0.68331 0.0
C744 C 0.14629 0.13488 0.70732 0.0
H745 H 0.20306 0.05907 0.66464 0.0
H746 H 0.13832 0.11584 0.66469 0.0
C747 C 0.17295 0.12738 0.73097 0.0
C748 C 0.81019 0.16459 0.72569 0.0
C749 C 0.79592 0.15581 0.69874 0.0
H750 H 0.86129 0.19569 0.75178 0.0
C751 C 0.82091 0.17688 0.67706 0.0
H752 H 0.79205 0.14858 0.7428 0.0
C753 C 0.86075 0.20401 0.68217 0.0
C754 C 0.87675 0.21013 0.70906 0.0
H755 H 0.8106 0.17097 0.65604 0.0
H756 H 0.8802 0.21829 0.66501 0.0
C757 C 0.85025 0.1912 0.73077 0.0
C758 C 0.86912 0.87892 0.7096 0.0
C759 C 0.85643 0.83423 0.70086 0.0
H760 H 0.84866 0.9498 0.71453 0.0
C761 C 0.81237 0.82789 0.68854 0.0
H762 H 0.90267 0.88498 0.71922 0.0
C763 C 0.78126 0.86528 0.68567 0.0
C764 C 0.7935 0.9096 0.69531 0.0
H765 H 0.8019 0.79397 0.68116 0.0
H766 H 0.74718 0.85916 0.67671 0.0
C767 C 0.83803 0.91607 0.70694 0.0
C768 C 0.60269 0.69825 0.87469 0.0
C769 C 0.57832 0.71524 0.89767 0.0
H770 H 0.65597 0.65245 0.8596 0.0
C771 C 0.59126 0.70002 0.92387 0.0
H772 H 0.59345 0.70948 0.85425 0.0
C773 C 0.6267 0.66681 0.92688 0.0
C774 C 0.65017 0.64893 0.90378 0.0
H775 H 0.57281 0.71234 0.9419 0.0
H776 H 0.63555 0.65484 0.94723 0.0
C777 C 0.63847 0.66567 0.87773 0.0
C778 C 0.31578 0.61704 0.92518 0.0
C779 C 0.3236 0.64483 0.90196 0.0
H780 H 0.27652 0.56109 0.94291 0.0
C781 C 0.29642 0.63784 0.87849 0.0
H782 H 0.33601 0.62228 0.94362 0.0
C783 C 0.26271 0.60274 0.87799 0.0
C784 C 0.25508 0.57465 0.90112 0.0
H785 H 0.30187 0.65897 0.86038 0.0
H786 H 0.24275 0.59745 0.85945 0.0
C787 C 0.28148 0.58245 0.92485 0.0
C788 C 0.334 0.22711 0.90606 0.0
C789 C 0.38004 0.23536 0.91488 0.0
H790 H 0.26616 0.25597 0.89828 0.0
C791 C 0.39252 0.28043 0.92325 0.0
H792 H 0.3233 0.19286 0.89935 0.0
C793 C 0.3599 0.31654 0.92247 0.0
C794 C 0.314 0.30839 0.91345 0.0
H795 H 0.42763 0.28805 0.9302 0.0
H796 H 0.37048 0.35075 0.92932 0.0
C797 C 0.30128 0.26324 0.9054 0.0
C798 C 0.74467 0.33359 0.91804 0.0
C799 C 0.73779 0.38171 0.92046 0.0
H800 H 0.713 0.26692 0.91267 0.0
C801 C 0.69204 0.39958 0.9185 0.0
H802 H 0.77949 0.3188 0.91943 0.0
C803 C 0.65407 0.37008 0.91397 0.0
C804 C 0.6608 0.32189 0.91154 0.0
H805 H 0.68552 0.43657 0.91977 0.0
H806 H 0.6195 0.3852 0.91201 0.0
C807 C 0.70657 0.30397 0.9138 0.0
C808 C 0.59323 0.27675 0.19339 0.0
C809 C 0.5851 0.25242 0.21791 0.0
H810 H 0.63155 0.33094 0.1732 0.0
C811 C 0.61111 0.26436 0.24124 0.0
H812 H 0.57374 0.2685 0.17506 0.0
C813 C 0.64384 0.30039 0.24024 0.0
C814 C 0.65131 0.3254 0.2159 0.0
H815 H 0.6057 0.24637 0.26049 0.0
H816 H 0.66265 0.30928 0.25871 0.0
C817 C 0.62594 0.31291 0.19241 0.0
C818 C 0.65352 0.61309 0.20494 0.0
C819 C 0.66139 0.66129 0.20423 0.0
H820 H 0.68358 0.54516 0.20424 0.0
C821 C 0.70782 0.67761 0.20208 0.0
H822 H 0.61839 0.59924 0.20702 0.0
C823 C 0.74537 0.64648 0.20079 0.0
C824 C 0.73728 0.59838 0.20122 0.0
H825 H 0.71523 0.71447 0.20089 0.0
H826 H 0.78067 0.66008 0.19918 0.0
C827 C 0.69097 0.58203 0.20332 0.0
C828 C 0.30541 0.71158 0.19849 0.0
C829 C 0.32278 0.66756 0.20612 0.0
H830 H 0.32144 0.7821 0.18766 0.0
C831 C 0.37159 0.66142 0.20766 0.0
H832 H 0.26817 0.71754 0.19631 0.0
C833 C 0.40206 0.69817 0.20182 0.0
C834 C 0.38454 0.74221 0.19471 0.0
H835 H 0.38641 0.6284 0.21381 0.0
H836 H 0.4394 0.69234 0.2037 0.0
C837 C 0.33592 0.74857 0.19314 0.0
C838 C 0.29136 0.38804 0.24564 0.0
C839 C 0.2644 0.40428 0.2236 0.0
H840 H 0.34187 0.33883 0.25979 0.0
C841 C 0.26694 0.38077 0.19845 0.0
H842 H 0.2899 0.40501 0.26542 0.0
C843 C 0.2971 0.34272 0.19523 0.0
C844 C 0.32521 0.32755 0.21709 0.0
H845 H 0.24667 0.39249 0.18108 0.0
H846 H 0.29953 0.32617 0.17537 0.0
C847 C 0.32138 0.35019 0.24242 0.0
C848 C 0.93454 0.25669 0.55438 0.0
C849 C 0.96212 0.27445 0.53263 0.0
H850 H 0.92845 0.24329 0.59753 0.0
C851 C 0.00665 0.29231 0.53897 0.0
H852 H 0.90044 0.24175 0.55058 0.0
C853 C 0.02279 0.29276 0.56608 0.0
C854 C -0.00507 0.27551 0.58777 0.0
H855 H 0.02887 0.30684 0.52314 0.0
H856 H 0.05695 0.3075 0.57005 0.0
C857 C 0.95055 0.2575 0.5815 0.0
C858 C 0.66903 0.01445 0.54903 0.0
C859 C 0.67903 0.98388 0.5709 0.0
H860 H 0.66418 0.02456 0.50575 0.0
C861 C 0.69652 0.93955 0.56437 0.0
H862 H 0.65677 0.0494 0.55281 0.0
C863 C 0.70187 0.92563 0.53701 0.0
C864 C 0.68942 0.95533 0.51517 0.0
H865 H 0.70509 0.91493 0.5803 0.0
H866 H 0.71525 0.8911 0.53314 0.0
C867 C 0.67389 0.00036 0.52168 0.0
C868 C 0.03844 0.68853 0.58309 0.0
C869 C -0.00457 0.66834 0.59051 0.0
H870 H 0.0859 0.70646 0.55081 0.0
C871 C 0.96859 0.64717 0.56986 0.0
H872 H 0.05982 0.70535 0.59841 0.0
C873 C 0.9835 0.64737 0.54248 0.0
C874 C 0.02576 0.66901 0.53469 0.0
H875 H 0.93569 0.63038 0.57485 0.0
H876 H 0.96149 0.63065 0.52749 0.0
C877 C 0.0533 0.68909 0.55559 0.0
C878 C 0.31717 0.94852 0.55526 0.0
C879 C 0.29768 0.97346 0.57743 0.0
H880 H 0.32813 0.94416 0.51192 0.0
C881 C 0.27244 0.01418 0.5717 0.0
H882 H 0.33753 0.91738 0.55877 0.0
C883 C 0.26679 0.02943 0.5446 0.0
C884 C 0.28658 0.00466 0.52241 0.0
H885 H 0.25643 0.0339 0.58813 0.0
H886 H 0.24658 0.06066 0.5411 0.0
C887 C 0.31168 0.96383 0.5282 0.0
C888 C 0.4518 0.77002 1.04682 0.0
C889 C 0.47852 0.78696 1.02453 0.0
H890 H 0.44671 0.75943 0.09018 0.0
C891 C 0.5229 0.80595 1.03008 0.0
H892 H 0.41792 0.7542 1.04356 0.0
C893 C 0.53956 0.80864 0.05706 0.0
C894 C 0.51232 0.79254 0.07932 0.0
H895 H 0.54442 0.81981 1.0137 0.0
H896 H 0.57346 0.82435 0.06048 0.0
C897 C 0.46831 0.77299 0.07374 0.0
C898 C 0.15915 0.52325 0.07689 0.0
C899 C 0.18859 0.50424 0.09707 0.0
H900 H 0.14099 0.52609 1.03433 0.0
C901 C 0.22118 0.47012 0.08924 0.0
H902 H 0.13352 0.54944 0.08236 0.0
C903 C 0.22596 0.45726 0.06159 0.0
C904 C 0.1975 0.47743 1.04127 0.0
H905 H 0.24442 0.4551 0.10429 0.0
H906 H 0.25254 0.43211 1.05599 0.0
C907 C 0.16319 0.50968 1.04941 0.0
C908 C 0.51789 0.16535 0.07387 0.0
C909 C 0.48499 0.19965 0.08107 0.0
H910 H 0.55742 0.1329 1.04166 0.0
C911 C 0.46454 0.22623 0.06006 0.0
H912 H 0.53456 0.14458 0.08953 0.0
C913 C 0.47718 0.21908 1.03254 0.0
C914 C 0.51136 0.18594 1.02551 0.0
H915 H 0.43891 0.25273 0.06496 0.0
H916 H 0.46147 0.24053 1.01686 0.0
C917 C 0.53124 0.15892 1.04648 0.0
C918 C 0.78015 0.53519 1.05593 0.0
C919 C 0.79547 0.50695 1.03401 0.0
H920 H 0.76793 0.5414 0.09917 0.0
C921 C 0.81094 0.46168 1.04018 0.0
H922 H 0.76729 0.56997 1.05223 0.0
C923 C 0.8111 0.44526 0.06725 0.0
C924 C 0.79587 0.47351 0.08913 0.0
H925 H 0.82373 0.43894 1.02419 0.0
H926 H 0.82395 0.41047 0.07101 0.0
C927 C 0.78049 0.51878 0.08304 0.0
loop_
_geom_bond_atom_site_label_1
_geom_bond_atom_site_label_2
_geom_bond_distance
_geom_bond_site_symmetry_2
_ccdc_geom_bond_type
C0 C1 1.351 . S
C0 N3 1.368 1_655 S
C0 H5 0.931 . S
C1 C0 1.351 . S
C1 N2 1.373 1_655 S
C1 H29 0.930 . S
N2 C1 1.373 1_455 S
N2 C4 1.340 . S
N3 C0 1.368 1_455 S
N3 C4 1.321 . S
N3 Co6 2.135 . S
C4 N2 1.340 . S
C4 N3 1.321 . S
C4 H28 0.930 . S
H5 C0 0.931 . S
Co6 N3 2.135 . S
Co6 N9 2.121 . S
Co6 O14 2.055 . S
Co6 O17 2.039 . S
Co6 N20 2.140 1_455 S
C7 O8 1.227 . S
C7 O17 1.265 . S
O8 C7 1.227 . S
N9 Co6 2.121 . S
N9 C11 1.375 . S
N9 C12 1.313 . S
C10 C11 1.338 . S
C10 N13 1.377 . S
C10 H30 0.930 . S
C11 N9 1.375 . S
C11 C10 1.338 . S
C11 H15 0.931 . S
C12 N9 1.313 . S
C12 N13 1.344 . S
C12 H16 0.930 . S
N13 C10 1.377 . S
N13 C12 1.344 . S
O14 Co6 2.055 . S
O14 C18 1.253 . S
H15 C11 0.931 . S
H16 C12 0.930 . S
O17 Co6 2.039 . S
O17 C7 1.265 . S
C18 O14 1.253 . S
C18 O19 1.227 1_455 S
O19 C18 1.227 1_655 S
N20 Co6 2.140 1_655 S
N20 C23 1.346 . S
N20 C24 1.345 . S
C21 C22 1.387 . S
C21 C25 1.391 . S
C22 C21 1.387 . S
C22 C23 1.369 . S
C22 H31 0.929 . S
C23 N20 1.346 . S
C23 C22 1.369 . S
C23 H26 0.928 . S
C24 N20 1.345 . S
C24 C25 1.371 . S
C24 H27 0.931 . S
C25 C21 1.391 . S
C25 C24 1.371 . S
C25 H32 0.930 . S
H26 C23 0.928 . S
H27 C24 0.931 . S
H28 C4 0.930 . S
H29 C1 0.930 . S
H30 C10 0.930 . S
H31 C22 0.929 . S
H32 C25 0.930 . S
C33 C34 1.351 . S
C33 N36 1.368 1_565 S
C33 H38 0.931 . S
C34 C33 1.351 . S
C34 N35 1.373 1_565 S
C34 H62 0.930 . S
N35 C34 1.373 1_545 S
N35 C37 1.340 . S
N36 C33 1.368 1_545 S
N36 C37 1.321 . S
N36 Co39 2.135 . S
C37 N35 1.340 . S
C37 N36 1.321 . S
C37 H61 0.930 . S
H38 C33 0.931 . S
Co39 N36 2.135 . S
Co39 N42 2.121 . S
Co39 O47 2.055 . S
Co39 O50 2.039 . S
Co39 N53 2.140 1_545 S
C40 O41 1.227 . S
C40 O50 1.265 . S
O41 C40 1.227 . S
N42 Co39 2.121 . S
N42 C44 1.375 . S
N42 C45 1.313 . S
C43 C44 1.338 . S
C43 N46 1.377 . S
C43 H63 0.930 . S
C44 N42 1.375 . S
C44 C43 1.338 . S
C44 H48 0.931 . S
C45 N42 1.313 . S
C45 N46 1.344 . S
C45 H49 0.930 . S
N46 C43 1.377 . S
N46 C45 1.344 . S
O47 Co39 2.055 . S
O47 C51 1.253 . S
H48 C44 0.931 . S
H49 C45 0.930 . S
O50 Co39 2.039 . S
O50 C40 1.265 . S
C51 O47 1.253 . S
C51 O52 1.227 1_545 S
O52 C51 1.227 1_565 S
N53 Co39 2.140 1_565 S
N53 C56 1.346 . S
N53 C57 1.345 . S
C54 C55 1.387 . S
C54 C58 1.391 . S
C55 C54 1.387 . S
C55 C56 1.369 . S
C55 H64 0.929 . S
C56 N53 1.346 . S
C56 C55 1.369 . S
C56 H59 0.928 . S
C57 N53 1.345 . S
C57 C58 1.371 . S
C57 H60 0.931 . S
C58 C54 1.391 . S
C58 C57 1.371 . S
C58 H65 0.930 . S
H59 C56 0.928 . S
H60 C57 0.931 . S
H61 C37 0.930 . S
H62 C34 0.930 . S
H63 C43 0.930 . S
H64 C55 0.929 . S
H65 C58 0.930 . S
C66 C67 1.351 . S
C66 N69 1.368 1_455 S
C66 H71 0.931 . S
C67 C66 1.351 . S
C67 N68 1.373 1_455 S
C67 H95 0.930 . S
N68 C67 1.373 1_655 S
N68 C70 1.340 . S
N69 C66 1.368 1_655 S
N69 C70 1.321 . S
N69 Co72 2.135 . S
C70 N68 1.340 . S
C70 N69 1.321 . S
C70 H94 0.930 . S
H71 C66 0.931 . S
Co72 N69 2.135 . S
Co72 N75 2.121 . S
Co72 O80 2.055 . S
Co72 O83 2.039 . S
Co72 N86 2.140 1_655 S
C73 O74 1.227 . S
C73 O83 1.265 . S
O74 C73 1.227 . S
N75 Co72 2.121 . S
N75 C77 1.375 . S
N75 C78 1.313 . S
C76 C77 1.338 . S
C76 N79 1.377 . S
C76 H96 0.930 . S
C77 N75 1.375 . S
C77 C76 1.338 . S
C77 H81 0.931 . S
C78 N75 1.313 . S
C78 N79 1.344 . S
C78 H82 0.930 . S
N79 C76 1.377 . S
N79 C78 1.344 . S
O80 Co72 2.055 . S
O80 C84 1.253 . S
H81 C77 0.931 . S
H82 C78 0.930 . S
O83 Co72 2.039 . S
O83 C73 1.265 . S
C84 O80 1.253 . S
C84 O85 1.227 1_655 S
O85 C84 1.227 1_455 S
N86 Co72 2.140 1_455 S
N86 C89 1.346 . S
N86 C90 1.345 . S
C87 C88 1.387 . S
C87 C91 1.391 . S
C88 C87 1.387 . S
C88 C89 1.369 . S
C88 H97 0.929 . S
C89 N86 1.346 . S
C89 C88 1.369 . S
C89 H92 0.928 . S
C90 N86 1.345 . S
C90 C91 1.371 . S
C90 H93 0.931 . S
C91 C87 1.391 . S
C91 C90 1.371 . S
C91 H98 0.930 . S
H92 C89 0.928 . S
H93 C90 0.931 . S
H94 C70 0.930 . S
H95 C67 0.930 . S
H96 C76 0.930 . S
H97 C88 0.929 . S
H98 C91 0.930 . S
C99 C100 1.351 . S
C99 N102 1.368 1_545 S
C99 H104 0.931 . S
C100 C99 1.351 . S
C100 N101 1.373 1_545 S
C100 H128 0.930 . S
N101 C100 1.373 1_565 S
N101 C103 1.340 . S
N102 C99 1.368 1_565 S
N102 C103 1.321 . S
N102 Co105 2.135 . S
C103 N101 1.340 . S
C103 N102 1.321 . S
C103 H127 0.930 . S
H104 C99 0.931 . S
Co105 N102 2.135 . S
Co105 N108 2.121 . S
Co105 O113 2.055 . S
Co105 O116 2.039 . S
Co105 N119 2.140 1_565 S
C106 O107 1.227 . S
C106 O116 1.265 . S
O107 C106 1.227 . S
N108 Co105 2.121 . S
N108 C110 1.375 . S
N108 C111 1.313 . S
C109 C110 1.338 . S
C109 N112 1.377 . S
C109 H129 0.930 . S
C110 N108 1.375 . S
C110 C109 1.338 . S
C110 H114 0.931 . S
C111 N108 1.313 . S
C111 N112 1.344 . S
C111 H115 0.930 . S
N112 C109 1.377 . S
N112 C111 1.344 . S
O113 Co105 2.055 . S
O113 C117 1.253 . S
H114 C110 0.931 . S
H115 C111 0.930 . S
O116 Co105 2.039 . S
O116 C106 1.265 . S
C117 O113 1.253 . S
C117 O118 1.227 1_565 S
O118 C117 1.227 1_545 S
N119 Co105 2.140 1_545 S
N119 C122 1.346 . S
N119 C123 1.345 . S
C120 C121 1.387 . S
C120 C124 1.391 . S
C121 C120 1.387 . S
C121 C122 1.369 . S
C121 H130 0.929 . S
C122 N119 1.346 . S
C122 C121 1.369 . S
C122 H125 0.928 . S
C123 N119 1.345 . S
C123 C124 1.371 . S
C123 H126 0.931 . S
C124 C120 1.391 . S
C124 C123 1.371 . S
C124 H131 0.930 . S
H125 C122 0.928 . S
H126 C123 0.931 . S
H127 C103 0.930 . S
H128 C100 0.930 . S
H129 C109 0.930 . S
H130 C121 0.929 . S
H131 C124 0.930 . S
C132 C133 1.351 . S
C132 N135 1.368 1_655 S
C132 H137 0.931 . S
C133 C132 1.351 . S
C133 N134 1.373 1_655 S
C133 H161 0.930 . S
N134 C133 1.373 1_455 S
N134 C136 1.340 . S
N135 C132 1.368 1_455 S
N135 C136 1.321 . S
N135 Co138 2.135 . S
C136 N134 1.340 . S
C136 N135 1.321 . S
C136 H160 0.930 . S
H137 C132 0.931 . S
Co138 N135 2.135 . S
Co138 N141 2.121 . S
Co138 O146 2.055 . S
Co138 O149 2.039 . S
Co138 N152 2.140 1_455 S
C139 O140 1.227 . S
C139 O149 1.265 . S
O140 C139 1.227 . S
N141 Co138 2.121 . S
N141 C143 1.375 . S
N141 C144 1.313 . S
C142 C143 1.338 . S
C142 N145 1.377 . S
C142 H162 0.930 . S
C143 N141 1.375 . S
C143 C142 1.338 . S
C143 H147 0.931 . S
C144 N141 1.313 . S
C144 N145 1.344 . S
C144 H148 0.930 . S
N145 C142 1.377 . S
N145 C144 1.344 . S
O146 Co138 2.055 . S
O146 C150 1.253 . S
H147 C143 0.931 . S
H148 C144 0.930 . S
O149 Co138 2.039 . S
O149 C139 1.265 . S
C150 O146 1.253 . S
C150 O151 1.227 1_455 S
O151 C150 1.227 1_655 S
N152 Co138 2.140 1_655 S
N152 C155 1.346 . S
N152 C156 1.345 . S
C153 C154 1.387 . S
C153 C157 1.391 . S
C154 C153 1.387 . S
C154 C155 1.369 . S
C154 H163 0.929 . S
C155 N152 1.346 . S
C155 C154 1.369 . S
C155 H158 0.928 . S
C156 N152 1.345 . S
C156 C157 1.371 . S
C156 H159 0.931 . S
C157 C153 1.391 . S
C157 C156 1.371 . S
C157 H164 0.930 . S
H158 C155 0.928 . S
H159 C156 0.931 . S
H160 C136 0.930 . S
H161 C133 0.930 . S
H162 C142 0.930 . S
H163 C154 0.929 . S
H164 C157 0.930 . S
C165 C166 1.351 . S
C165 N168 1.368 1_565 S
C165 H170 0.931 . S
C166 C165 1.351 . S
C166 N167 1.373 1_565 S
C166 H194 0.930 . S
N167 C166 1.373 1_545 S
N167 C169 1.340 . S
N168 C165 1.368 1_545 S
N168 C169 1.321 . S
N168 Co171 2.135 . S
C169 N167 1.340 . S
C169 N168 1.321 . S
C169 H193 0.930 . S
H170 C165 0.931 . S
Co171 N168 2.135 . S
Co171 N174 2.121 . S
Co171 O179 2.055 . S
Co171 O182 2.039 . S
Co171 N185 2.140 1_545 S
C172 O173 1.227 . S
C172 O182 1.265 . S
O173 C172 1.227 . S
N174 Co171 2.121 . S
N174 C176 1.375 . S
N174 C177 1.313 . S
C175 C176 1.338 . S
C175 N178 1.377 . S
C175 H195 0.930 . S
C176 N174 1.375 . S
C176 C175 1.338 . S
C176 H180 0.931 . S
C177 N174 1.313 . S
C177 N178 1.344 . S
C177 H181 0.930 . S
N178 C175 1.377 . S
N178 C177 1.344 . S
O179 Co171 2.055 . S
O179 C183 1.253 . S
H180 C176 0.931 . S
H181 C177 0.930 . S
O182 Co171 2.039 . S
O182 C172 1.265 . S
C183 O179 1.253 . S
C183 O184 1.227 1_545 S
O184 C183 1.227 1_565 S
N185 Co171 2.140 1_565 S
N185 C188 1.346 . S
N185 C189 1.345 . S
C186 C187 1.387 . S
C186 C190 1.391 . S
C187 C186 1.387 . S
C187 C188 1.369 . S
C187 H196 0.929 . S
C188 N185 1.346 . S
C188 C187 1.369 . S
C188 H191 0.928 . S
C189 N185 1.345 . S
C189 C190 1.371 . S
C189 H192 0.931 . S
C190 C186 1.391 . S
C190 C189 1.371 . S
C190 H197 0.930 . S
H191 C188 0.928 . S
H192 C189 0.931 . S
H193 C169 0.930 . S
H194 C166 0.930 . S
H195 C175 0.930 . S
H196 C187 0.929 . S
H197 C190 0.930 . S
C198 C199 1.351 . S
C198 N201 1.368 1_455 S
C198 H203 0.931 . S
C199 C198 1.351 . S
C199 N200 1.373 1_455 S
C199 H227 0.930 . S
N200 C199 1.373 1_655 S
N200 C202 1.340 . S
N201 C198 1.368 1_655 S
N201 C202 1.321 . S
N201 Co204 2.135 . S
C202 N200 1.340 . S
C202 N201 1.321 . S
C202 H226 0.930 . S
H203 C198 0.931 . S
Co204 N201 2.135 . S
Co204 N207 2.121 . S
Co204 O212 2.055 . S
Co204 O215 2.039 . S
Co204 N218 2.140 1_655 S
C205 O206 1.227 . S
C205 O215 1.265 . S
O206 C205 1.227 . S
N207 Co204 2.121 . S
N207 C209 1.375 . S
N207 C210 1.313 . S
C208 C209 1.338 . S
C208 N211 1.377 . S
C208 H228 0.930 . S
C209 N207 1.375 . S
C209 C208 1.338 . S
C209 H213 0.931 . S
C210 N207 1.313 . S
C210 N211 1.344 . S
C210 H214 0.930 . S
N211 C208 1.377 . S
N211 C210 1.344 . S
O212 Co204 2.055 . S
O212 C216 1.253 . S
H213 C209 0.931 . S
H214 C210 0.930 . S
O215 Co204 2.039 . S
O215 C205 1.265 . S
C216 O212 1.253 . S
C216 O217 1.227 1_655 S
O217 C216 1.227 1_455 S
N218 Co204 2.140 1_455 S
N218 C221 1.346 . S
N218 C222 1.345 . S
C219 C220 1.387 . S
C219 C223 1.391 . S
C220 C219 1.387 . S
C220 C221 1.369 . S
C220 H229 0.929 . S
C221 N218 1.346 . S
C221 C220 1.369 . S
C221 H224 0.928 . S
C222 N218 1.345 . S
C222 C223 1.371 . S
C222 H225 0.931 . S
C223 C219 1.391 . S
C223 C222 1.371 . S
C223 H230 0.930 . S
H224 C221 0.928 . S
H225 C222 0.931 . S
H226 C202 0.930 . S
H227 C199 0.930 . S
H228 C208 0.930 . S
H229 C220 0.929 . S
H230 C223 0.930 . S
C231 C232 1.351 . S
C231 N234 1.368 1_545 S
C231 H236 0.931 . S
C232 C231 1.351 . S
C232 N233 1.373 1_545 S
C232 H260 0.930 . S
N233 C232 1.373 1_565 S
N233 C235 1.340 . S
N234 C231 1.368 1_565 S
N234 C235 1.321 . S
N234 Co237 2.135 . S
C235 N233 1.340 . S
C235 N234 1.321 . S
C235 H259 0.930 . S
H236 C231 0.931 . S
Co237 N234 2.135 . S
Co237 N240 2.121 . S
Co237 O245 2.055 . S
Co237 O248 2.039 . S
Co237 N251 2.140 1_565 S
C238 O239 1.227 . S
C238 O248 1.265 . S
O239 C238 1.227 . S
N240 Co237 2.121 . S
N240 C242 1.375 . S
N240 C243 1.313 . S
C241 C242 1.338 . S
C241 N244 1.377 . S
C241 H261 0.930 . S
C242 N240 1.375 . S
C242 C241 1.338 . S
C242 H246 0.931 . S
C243 N240 1.313 . S
C243 N244 1.344 . S
C243 H247 0.930 . S
N244 C241 1.377 . S
N244 C243 1.344 . S
O245 Co237 2.055 . S
O245 C249 1.253 . S
H246 C242 0.931 . S
H247 C243 0.930 . S
O248 Co237 2.039 . S
O248 C238 1.265 . S
C249 O245 1.253 . S
C249 O250 1.227 1_565 S
O250 C249 1.227 1_545 S
N251 Co237 2.140 1_545 S
N251 C254 1.346 . S
N251 C255 1.345 . S
C252 C253 1.387 . S
C252 C256 1.391 . S
C253 C252 1.387 . S
C253 C254 1.369 . S
C253 H262 0.929 . S
C254 N251 1.346 . S
C254 C253 1.369 . S
C254 H257 0.928 . S
C255 N251 1.345 . S
C255 C256 1.371 . S
C255 H258 0.931 . S
C256 C252 1.391 . S
C256 C255 1.371 . S
C256 H263 0.930 . S
H257 C254 0.928 . S
H258 C255 0.931 . S
H259 C235 0.930 . S
H260 C232 0.930 . S
H261 C241 0.930 . S
H262 C253 0.929 . S
H263 C256 0.930 . S
C264 C265 1.351 . S
C264 N267 1.368 . S
C264 H269 0.931 . S
C265 C264 1.351 . S
C265 N266 1.373 . S
C265 H293 0.930 . S
N266 C265 1.373 . S
N266 C268 1.340 . S
N267 C264 1.368 . S
N267 C268 1.321 . S
N267 Co270 2.135 . S
C268 N266 1.340 . S
C268 N267 1.321 . S
C268 H292 0.930 . S
H269 C264 0.931 . S
Co270 N267 2.135 . S
Co270 N273 2.121 . S
Co270 O278 2.055 . S
Co270 O281 2.039 . S
Co270 N284 2.140 . S
C271 O272 1.227 . S
C271 O281 1.265 . S
O272 C271 1.227 . S
N273 Co270 2.121 . S
N273 C275 1.375 . S
N273 C276 1.313 . S
C274 C275 1.338 . S
C274 N277 1.377 . S
C274 H294 0.930 . S
C275 N273 1.375 . S
C275 C274 1.338 . S
C275 H279 0.931 . S
C276 N273 1.313 . S
C276 N277 1.344 . S
C276 H280 0.930 . S
N277 C274 1.377 . S
N277 C276 1.344 . S
O278 Co270 2.055 . S
O278 C282 1.253 . S
H279 C275 0.931 . S
H280 C276 0.930 . S
O281 Co270 2.039 . S
O281 C271 1.265 . S
C282 O278 1.253 . S
C282 O283 1.227 . S
O283 C282 1.227 . S
N284 Co270 2.140 . S
N284 C287 1.346 . S
N284 C288 1.345 . S
C285 C286 1.387 . S
C285 C289 1.391 . S
C286 C285 1.387 . S
C286 C287 1.369 . S
C286 H295 0.929 . S
C287 N284 1.346 . S
C287 C286 1.369 . S
C287 H290 0.928 . S
C288 N284 1.345 . S
C288 C289 1.371 . S
C288 H291 0.931 . S
C289 C285 1.391 . S
C289 C288 1.371 . S
C289 H296 0.930 . S
H290 C287 0.928 . S
H291 C288 0.931 . S
H292 C268 0.930 . S
H293 C265 0.930 . S
H294 C274 0.930 . S
H295 C286 0.929 . S
H296 C289 0.930 . S
C297 C298 1.351 . S
C297 N300 1.368 . S
C297 H302 0.931 . S
C298 C297 1.351 . S
C298 N299 1.373 . S
C298 H326 0.930 . S
N299 C298 1.373 . S
N299 C301 1.340 . S
N300 C297 1.368 . S
N300 C301 1.321 . S
N300 Co303 2.135 . S
C301 N299 1.340 . S
C301 N300 1.321 . S
C301 H325 0.930 . S
H302 C297 0.931 . S
Co303 N300 2.135 . S
Co303 N306 2.121 . S
Co303 O311 2.055 . S
Co303 O314 2.039 . S
Co303 N317 2.140 . S
C304 O305 1.227 . S
C304 O314 1.265 . S
O305 C304 1.227 . S
N306 Co303 2.121 . S
N306 C308 1.375 . S
N306 C309 1.313 . S
C307 C308 1.338 . S
C307 N310 1.377 . S
C307 H327 0.930 . S
C308 N306 1.375 . S
C308 C307 1.338 . S
C308 H312 0.931 . S
C309 N306 1.313 . S
C309 N310 1.344 . S
C309 H313 0.930 . S
N310 C307 1.377 . S
N310 C309 1.344 . S
O311 Co303 2.055 . S
O311 C315 1.253 . S
H312 C308 0.931 . S
H313 C309 0.930 . S
O314 Co303 2.039 . S
O314 C304 1.265 . S
C315 O311 1.253 . S
C315 O316 1.227 . S
O316 C315 1.227 . S
N317 Co303 2.140 . S
N317 C320 1.346 . S
N317 C321 1.345 . S
C318 C319 1.387 . S
C318 C322 1.391 . S
C319 C318 1.387 . S
C319 C320 1.369 . S
C319 H328 0.929 . S
C320 N317 1.346 . S
C320 C319 1.369 . S
C320 H323 0.928 . S
C321 N317 1.345 . S
C321 C322 1.371 . S
C321 H324 0.931 . S
C322 C318 1.391 . S
C322 C321 1.371 . S
C322 H329 0.930 . S
H323 C320 0.928 . S
H324 C321 0.931 . S
H325 C301 0.930 . S
H326 C298 0.930 . S
H327 C307 0.930 . S
H328 C319 0.929 . S
H329 C322 0.930 . S
C330 C331 1.351 . S
C330 N333 1.368 . S
C330 H335 0.931 . S
C331 C330 1.351 . S
C331 N332 1.373 . S
C331 H359 0.930 . S
N332 C331 1.373 . S
N332 C334 1.340 . S
N333 C330 1.368 . S
N333 C334 1.321 . S
N333 Co336 2.135 . S
C334 N332 1.340 . S
C334 N333 1.321 . S
C334 H358 0.930 . S
H335 C330 0.931 . S
Co336 N333 2.135 . S
Co336 N339 2.121 . S
Co336 O344 2.055 . S
Co336 O347 2.039 . S
Co336 N350 2.140 . S
C337 O338 1.227 . S
C337 O347 1.265 . S
O338 C337 1.227 . S
N339 Co336 2.121 . S
N339 C341 1.375 . S
N339 C342 1.313 . S
C340 C341 1.338 . S
C340 N343 1.377 . S
C340 H360 0.930 . S
C341 N339 1.375 . S
C341 C340 1.338 . S
C341 H345 0.931 . S
C342 N339 1.313 . S
C342 N343 1.344 . S
C342 H346 0.930 . S
N343 C340 1.377 . S
N343 C342 1.344 . S
O344 Co336 2.055 . S
O344 C348 1.253 . S
H345 C341 0.931 . S
H346 C342 0.930 . S
O347 Co336 2.039 . S
O347 C337 1.265 . S
C348 O344 1.253 . S
C348 O349 1.227 . S
O349 C348 1.227 . S
N350 Co336 2.140 . S
N350 C353 1.346 . S
N350 C354 1.345 . S
C351 C352 1.387 . S
C351 C355 1.391 . S
C352 C351 1.387 . S
C352 C353 1.369 . S
C352 H361 0.929 . S
C353 N350 1.346 . S
C353 C352 1.369 . S
C353 H356 0.928 . S
C354 N350 1.345 . S
C354 C355 1.371 . S
C354 H357 0.931 . S
C355 C351 1.391 . S
C355 C354 1.371 . S
C355 H362 0.930 . S
H356 C353 0.928 . S
H357 C354 0.931 . S
H358 C334 0.930 . S
H359 C331 0.930 . S
H360 C340 0.930 . S
H361 C352 0.929 . S
H362 C355 0.930 . S
C363 C364 1.351 . S
C363 N366 1.368 . S
C363 H368 0.931 . S
C364 C363 1.351 . S
C364 N365 1.373 . S
C364 H392 0.930 . S
N365 C364 1.373 . S
N365 C367 1.340 . S
N366 C363 1.368 . S
N366 C367 1.321 . S
N366 Co369 2.135 . S
C367 N365 1.340 . S
C367 N366 1.321 . S
C367 H391 0.930 . S
H368 C363 0.931 . S
Co369 N366 2.135 . S
Co369 N372 2.121 . S
Co369 O377 2.055 . S
Co369 O380 2.039 . S
Co369 N383 2.140 . S
C370 O371 1.227 . S
C370 O380 1.265 . S
O371 C370 1.227 . S
N372 Co369 2.121 . S
N372 C374 1.375 . S
N372 C375 1.313 . S
C373 C374 1.338 . S
C373 N376 1.377 . S
C373 H393 0.930 . S
C374 N372 1.375 . S
C374 C373 1.338 . S
C374 H378 0.931 . S
C375 N372 1.313 . S
C375 N376 1.344 . S
C375 H379 0.930 . S
N376 C373 1.377 . S
N376 C375 1.344 . S
O377 Co369 2.055 . S
O377 C381 1.253 . S
H378 C374 0.931 . S
H379 C375 0.930 . S
O380 Co369 2.039 . S
O380 C370 1.265 . S
C381 O377 1.253 . S
C381 O382 1.227 . S
O382 C381 1.227 . S
N383 Co369 2.140 . S
N383 C386 1.346 . S
N383 C387 1.345 . S
C384 C385 1.387 . S
C384 C388 1.391 . S
C385 C384 1.387 . S
C385 C386 1.369 . S
C385 H394 0.929 . S
C386 N383 1.346 . S
C386 C385 1.369 . S
C386 H389 0.928 . S
C387 N383 1.345 . S
C387 C388 1.371 . S
C387 H390 0.931 . S
C388 C384 1.391 . S
C388 C387 1.371 . S
C388 H395 0.930 . S
H389 C386 0.928 . S
H390 C387 0.931 . S
H391 C367 0.930 . S
H392 C364 0.930 . S
H393 C373 0.930 . S
H394 C385 0.929 . S
H395 C388 0.930 . S
C396 C397 1.351 . S
C396 N399 1.368 . S
C396 H401 0.931 . S
C397 C396 1.351 . S
C397 N398 1.373 . S
C397 H425 0.930 . S
N398 C397 1.373 . S
N398 C400 1.340 . S
N399 C396 1.368 . S
N399 C400 1.321 . S
N399 Co402 2.135 . S
C400 N398 1.340 . S
C400 N399 1.321 . S
C400 H424 0.930 . S
H401 C396 0.931 . S
Co402 N399 2.135 . S
Co402 N405 2.121 . S
Co402 O410 2.055 . S
Co402 O413 2.039 . S
Co402 N416 2.140 . S
C403 O404 1.227 . S
C403 O413 1.265 . S
O404 C403 1.227 . S
N405 Co402 2.121 . S
N405 C407 1.375 . S
N405 C408 1.313 . S
C406 C407 1.338 . S
C406 N409 1.377 . S
C406 H426 0.930 . S
C407 N405 1.375 . S
C407 C406 1.338 . S
C407 H411 0.931 . S
C408 N405 1.313 . S
C408 N409 1.344 . S
C408 H412 0.930 . S
N409 C406 1.377 . S
N409 C408 1.344 . S
O410 Co402 2.055 . S
O410 C414 1.253 . S
H411 C407 0.931 . S
H412 C408 0.930 . S
O413 Co402 2.039 . S
O413 C403 1.265 . S
C414 O410 1.253 . S
C414 O415 1.227 . S
O415 C414 1.227 . S
N416 Co402 2.140 . S
N416 C419 1.346 . S
N416 C420 1.345 . S
C417 C418 1.387 . S
C417 C421 1.391 . S
C418 C417 1.387 . S
C418 C419 1.369 . S
C418 H427 0.929 . S
C419 N416 1.346 . S
C419 C418 1.369 . S
C419 H422 0.928 . S
C420 N416 1.345 . S
C420 C421 1.371 . S
C420 H423 0.931 . S
C421 C417 1.391 . S
C421 C420 1.371 . S
C421 H428 0.930 . S
H422 C419 0.928 . S
H423 C420 0.931 . S
H424 C400 0.930 . S
H425 C397 0.930 . S
H426 C406 0.930 . S
H427 C418 0.929 . S
H428 C421 0.930 . S
C429 C430 1.351 . S
C429 N432 1.368 . S
C429 H434 0.931 . S
C430 C429 1.351 . S
C430 N431 1.373 . S
C430 H458 0.930 . S
N431 C430 1.373 . S
N431 C433 1.340 . S
N432 C429 1.368 . S
N432 C433 1.321 . S
N432 Co435 2.135 . S
C433 N431 1.340 . S
C433 N432 1.321 . S
C433 H457 0.930 . S
H434 C429 0.931 . S
Co435 N432 2.135 . S
Co435 N438 2.121 . S
Co435 O443 2.055 . S
Co435 O446 2.039 . S
Co435 N449 2.140 . S
C436 O437 1.227 . S
C436 O446 1.265 . S
O437 C436 1.227 . S
N438 Co435 2.121 . S
N438 C440 1.375 . S
N438 C441 1.313 . S
C439 C440 1.338 . S
C439 N442 1.377 . S
C439 H459 0.930 . S
C440 N438 1.375 . S
C440 C439 1.338 . S
C440 H444 0.931 . S
C441 N438 1.313 . S
C441 N442 1.344 . S
C441 H445 0.930 . S
N442 C439 1.377 . S
N442 C441 1.344 . S
O443 Co435 2.055 . S
O443 C447 1.253 . S
H444 C440 0.931 . S
H445 C441 0.930 . S
O446 Co435 2.039 . S
O446 C436 1.265 . S
C447 O443 1.253 . S
C447 O448 1.227 . S
O448 C447 1.227 . S
N449 Co435 2.140 . S
N449 C452 1.346 . S
N449 C453 1.345 . S
C450 C451 1.387 . S
C450 C454 1.391 . S
C451 C450 1.387 . S
C451 C452 1.369 . S
C451 H460 0.929 . S
C452 N449 1.346 . S
C452 C451 1.369 . S
C452 H455 0.928 . S
C453 N449 1.345 . S
C453 C454 1.371 . S
C453 H456 0.931 . S
C454 C450 1.391 . S
C454 C453 1.371 . S
C454 H461 0.930 . S
H455 C452 0.928 . S
H456 C453 0.931 . S
H457 C433 0.930 . S
H458 C430 0.930 . S
H459 C439 0.930 . S
H460 C451 0.929 . S
H461 C454 0.930 . S
C462 C463 1.351 . S
C462 N465 1.368 . S
C462 H467 0.931 . S
C463 C462 1.351 . S
C463 N464 1.373 . S
C463 H491 0.930 . S
N464 C463 1.373 . S
N464 C466 1.340 . S
N465 C462 1.368 . S
N465 C466 1.321 . S
N465 Co468 2.135 . S
C466 N464 1.340 . S
C466 N465 1.321 . S
C466 H490 0.930 . S
H467 C462 0.931 . S
Co468 N465 2.135 . S
Co468 N471 2.121 . S
Co468 O476 2.055 . S
Co468 O479 2.039 . S
Co468 N482 2.140 . S
C469 O470 1.227 . S
C469 O479 1.265 . S
O470 C469 1.227 . S
N471 Co468 2.121 . S
N471 C473 1.375 . S
N471 C474 1.313 . S
C472 C473 1.338 . S
C472 N475 1.377 . S
C472 H492 0.930 . S
C473 N471 1.375 . S
C473 C472 1.338 . S
C473 H477 0.931 . S
C474 N471 1.313 . S
C474 N475 1.344 . S
C474 H478 0.930 . S
N475 C472 1.377 . S
N475 C474 1.344 . S
O476 Co468 2.055 . S
O476 C480 1.253 . S
H477 C473 0.931 . S
H478 C474 0.930 . S
O479 Co468 2.039 . S
O479 C469 1.265 . S
C480 O476 1.253 . S
C480 O481 1.227 . S
O481 C480 1.227 . S
N482 Co468 2.140 . S
N482 C485 1.346 . S
N482 C486 1.345 . S
C483 C484 1.387 . S
C483 C487 1.391 . S
C484 C483 1.387 . S
C484 C485 1.369 . S
C484 H493 0.929 . S
C485 N482 1.346 . S
C485 C484 1.369 . S
C485 H488 0.928 . S
C486 N482 1.345 . S
C486 C487 1.371 . S
C486 H489 0.931 . S
C487 C483 1.391 . S
C487 C486 1.371 . S
C487 H494 0.930 . S
H488 C485 0.928 . S
H489 C486 0.931 . S
H490 C466 0.930 . S
H491 C463 0.930 . S
H492 C472 0.930 . S
H493 C484 0.929 . S
H494 C487 0.930 . S
C495 C496 1.351 . S
C495 N498 1.368 . S
C495 H500 0.931 . S
C496 C495 1.351 . S
C496 N497 1.373 . S
C496 H524 0.930 . S
N497 C496 1.373 . S
N497 C499 1.340 . S
N498 C495 1.368 . S
N498 C499 1.321 . S
N498 Co501 2.135 . S
C499 N497 1.340 . S
C499 N498 1.321 . S
C499 H523 0.930 . S
H500 C495 0.931 . S
Co501 N498 2.135 . S
Co501 N504 2.121 . S
Co501 O509 2.055 . S
Co501 O512 2.039 . S
Co501 N515 2.140 . S
C502 O503 1.227 . S
C502 O512 1.265 . S
O503 C502 1.227 . S
N504 Co501 2.121 . S
N504 C506 1.375 . S
N504 C507 1.313 . S
C505 C506 1.338 . S
C505 N508 1.377 . S
C505 H525 0.930 . S
C506 N504 1.375 . S
C506 C505 1.338 . S
C506 H510 0.931 . S
C507 N504 1.313 . S
C507 N508 1.344 . S
C507 H511 0.930 . S
N508 C505 1.377 . S
N508 C507 1.344 . S
O509 Co501 2.055 . S
O509 C513 1.253 . S
H510 C506 0.931 . S
H511 C507 0.930 . S
O512 Co501 2.039 . S
O512 C502 1.265 . S
C513 O509 1.253 . S
C513 O514 1.227 . S
O514 C513 1.227 . S
N515 Co501 2.140 . S
N515 C518 1.346 . S
N515 C519 1.345 . S
C516 C517 1.387 . S
C516 C520 1.391 . S
C517 C516 1.387 . S
C517 C518 1.369 . S
C517 H526 0.929 . S
C518 N515 1.346 . S
C518 C517 1.369 . S
C518 H521 0.928 . S
C519 N515 1.345 . S
C519 C520 1.371 . S
C519 H522 0.931 . S
C520 C516 1.391 . S
C520 C519 1.371 . S
C520 H527 0.930 . S
H521 C518 0.928 . S
H522 C519 0.931 . S
H523 C499 0.930 . S
H524 C496 0.930 . S
H525 C505 0.930 . S
H526 C517 0.929 . S
H527 C520 0.930 . S
C528 C529 1.387 . S
C528 H532 0.950 . S
C528 C537 1.390 1_655 S
C529 C528 1.387 . S
C529 C531 1.387 . S
H530 C537 0.950 . S
C531 C529 1.387 . S
C531 C533 1.390 1_655 S
C531 H535 0.950 . S
H532 C528 0.950 . S
C533 C531 1.390 1_455 S
C533 C534 1.387 . S
C533 H536 0.950 . S
C534 C533 1.387 . S
C534 C537 1.387 . S
H535 C531 0.950 . S
H536 C533 0.950 . S
C537 C528 1.390 1_455 S
C537 H530 0.950 . S
C537 C534 1.387 . S
C538 C539 1.387 . S
C538 H542 0.950 . S
C538 C547 1.390 1_545 S
C539 C538 1.387 . S
C539 C541 1.387 . S
H540 C547 0.950 . S
C541 C539 1.387 . S
C541 C543 1.390 1_545 S
C541 H545 0.950 . S
H542 C538 0.950 . S
C543 C541 1.390 1_565 S
C543 C544 1.387 . S
C543 H546 0.950 . S
C544 C543 1.387 . S
C544 C547 1.387 . S
H545 C541 0.950 . S
H546 C543 0.950 . S
C547 C538 1.390 1_565 S
C547 H540 0.950 . S
C547 C544 1.387 . S
C548 C549 1.387 . S
C548 H552 0.950 . S
C548 C557 1.390 1_655 S
C549 C548 1.387 . S
C549 C551 1.387 . S
H550 C557 0.950 . S
C551 C549 1.387 . S
C551 C553 1.390 1_655 S
C551 H555 0.950 . S
H552 C548 0.950 . S
C553 C551 1.390 1_455 S
C553 C554 1.387 . S
C553 H556 0.950 . S
C554 C553 1.387 . S
C554 C557 1.387 . S
H555 C551 0.950 . S
H556 C553 0.950 . S
C557 C548 1.390 1_455 S
C557 H550 0.950 . S
C557 C554 1.387 . S
C558 C559 1.387 . S
C558 H562 0.950 . S
C558 C567 1.390 1_565 S
C559 C558 1.387 . S
C559 C561 1.387 . S
H560 C567 0.950 . S
C561 C559 1.387 . S
C561 C563 1.390 1_565 S
C561 H565 0.950 . S
H562 C558 0.950 . S
C563 C561 1.390 1_545 S
C563 C564 1.387 . S
C563 H566 0.950 . S
C564 C563 1.387 . S
C564 C567 1.387 . S
H565 C561 0.950 . S
H566 C563 0.950 . S
C567 C558 1.390 1_545 S
C567 H560 0.950 . S
C567 C564 1.387 . S
C568 C569 1.387 . S
C568 H572 0.950 . S
C568 C577 1.390 1_565 S
C569 C568 1.387 . S
C569 C571 1.387 . S
H570 C577 0.950 . S
C571 C569 1.387 . S
C571 C573 1.390 1_565 S
C571 H575 0.950 . S
H572 C568 0.950 . S
C573 C571 1.390 1_545 S
C573 C574 1.387 . S
C573 H576 0.950 . S
C574 C573 1.387 . S
C574 C577 1.387 . S
H575 C571 0.950 . S
H576 C573 0.950 . S
C577 C568 1.390 1_545 S
C577 H570 0.950 . S
C577 C574 1.387 . S
C578 C579 1.387 . S
C578 H582 0.950 . S
C578 C587 1.390 1_655 S
C579 C578 1.387 . S
C579 C581 1.387 . S
H580 C587 0.950 . S
C581 C579 1.387 . S
C581 C583 1.390 1_655 S
C581 H585 0.950 . S
H582 C578 0.950 . S
C583 C581 1.390 1_455 S
C583 C584 1.387 . S
C583 H586 0.950 . S
C584 C583 1.387 . S
C584 C587 1.387 . S
H585 C581 0.950 . S
H586 C583 0.950 . S
C587 C578 1.390 1_455 S
C587 H580 0.950 . S
C587 C584 1.387 . S
C588 C589 1.387 . S
C588 H592 0.950 . S
C588 C597 1.390 1_565 S
C589 C588 1.387 . S
C589 C591 1.387 . S
H590 C597 0.950 . S
C591 C589 1.387 . S
C591 C593 1.390 1_565 S
C591 H595 0.950 . S
H592 C588 0.950 . S
C593 C591 1.390 1_545 S
C593 C594 1.387 . S
C593 H596 0.950 . S
C594 C593 1.387 . S
C594 C597 1.387 . S
H595 C591 0.950 . S
H596 C593 0.950 . S
C597 C588 1.390 1_545 S
C597 H590 0.950 . S
C597 C594 1.387 . S
C598 C599 1.387 . S
C598 H602 0.950 . S
C598 C607 1.390 1_655 S
C599 C598 1.387 . S
C599 C601 1.387 . S
H600 C607 0.950 . S
C601 C599 1.387 . S
C601 C603 1.390 1_655 S
C601 H605 0.950 . S
H602 C598 0.950 . S
C603 C601 1.390 1_455 S
C603 C604 1.387 . S
C603 H606 0.950 . S
C604 C603 1.387 . S
C604 C607 1.387 . S
H605 C601 0.950 . S
H606 C603 0.950 . S
C607 C598 1.390 1_455 S
C607 H600 0.950 . S
C607 C604 1.387 . S
C608 C609 1.387 . S
C608 H612 0.950 . S
C608 C617 1.390 . S
C609 C608 1.387 . S
C609 C611 1.387 . S
H610 C617 0.950 . S
C611 C609 1.387 . S
C611 C613 1.390 . S
C611 H615 0.950 . S
H612 C608 0.950 . S
C613 C611 1.390 . S
C613 C614 1.387 . S
C613 H616 0.950 . S
C614 C613 1.387 . S
C614 C617 1.387 . S
H615 C611 0.950 . S
H616 C613 0.950 . S
C617 C608 1.390 . S
C617 H610 0.950 . S
C617 C614 1.387 . S
C618 C619 1.387 . S
C618 H622 0.950 . S
C618 C627 1.390 . S
C619 C618 1.387 . S
C619 C621 1.387 . S
H620 C627 0.950 . S
C621 C619 1.387 . S
C621 C623 1.390 . S
C621 H625 0.950 . S
H622 C618 0.950 . S
C623 C621 1.390 . S
C623 C624 1.387 . S
C623 H626 0.950 . S
C624 C623 1.387 . S
C624 C627 1.387 . S
H625 C621 0.950 . S
H626 C623 0.950 . S
C627 C618 1.390 . S
C627 H620 0.950 . S
C627 C624 1.387 . S
C628 C629 1.387 . S
C628 H632 0.950 . S
C628 C637 1.390 . S
C629 C628 1.387 . S
C629 C631 1.387 . S
H630 C637 0.950 . S
C631 C629 1.387 . S
C631 C633 1.390 . S
C631 H635 0.950 . S
H632 C628 0.950 . S
C633 C631 1.390 . S
C633 C634 1.387 . S
C633 H636 0.950 . S
C634 C633 1.387 . S
C634 C637 1.387 . S
H635 C631 0.950 . S
H636 C633 0.950 . S
C637 C628 1.390 . S
C637 H630 0.950 . S
C637 C634 1.387 . S
C638 C639 1.387 . S
C638 H642 0.950 . S
C638 C647 1.390 . S
C639 C638 1.387 . S
C639 C641 1.387 . S
H640 C647 0.950 . S
C641 C639 1.387 . S
C641 C643 1.390 . S
C641 H645 0.950 . S
H642 C638 0.950 . S
C643 C641 1.390 . S
C643 C644 1.387 . S
C643 H646 0.950 . S
C644 C643 1.387 . S
C644 C647 1.387 . S
H645 C641 0.950 . S
H646 C643 0.950 . S
C647 C638 1.390 . S
C647 H640 0.950 . S
C647 C644 1.387 . S
C648 C649 1.387 . S
C648 H652 0.950 . S
C648 C657 1.390 . S
C649 C648 1.387 . S
C649 C651 1.387 . S
H650 C657 0.950 . S
C651 C649 1.387 . S
C651 C653 1.390 . S
C651 H655 0.950 . S
H652 C648 0.950 . S
C653 C651 1.390 . S
C653 C654 1.387 . S
C653 H656 0.950 . S
C654 C653 1.387 . S
C654 C657 1.387 . S
H655 C651 0.950 . S
H656 C653 0.950 . S
C657 C648 1.390 . S
C657 H650 0.950 . S
C657 C654 1.387 . S
C658 C659 1.387 . S
C658 H662 0.950 . S
C658 C667 1.390 . S
C659 C658 1.387 . S
C659 C661 1.387 . S
H660 C667 0.950 . S
C661 C659 1.387 . S
C661 C663 1.390 . S
C661 H665 0.950 . S
H662 C658 0.950 . S
C663 C661 1.390 . S
C663 C664 1.387 . S
C663 H666 0.950 . S
C664 C663 1.387 . S
C664 C667 1.387 . S
H665 C661 0.950 . S
H666 C663 0.950 . S
C667 C658 1.390 . S
C667 H660 0.950 . S
C667 C664 1.387 . S
C668 C669 1.387 . S
C668 H672 0.950 . S
C668 C677 1.390 . S
C669 C668 1.387 . S
C669 C671 1.387 . S
H670 C677 0.950 . S
C671 C669 1.387 . S
C671 C673 1.390 . S
C671 H675 0.950 . S
H672 C668 0.950 . S
C673 C671 1.390 . S
C673 C674 1.387 . S
C673 H676 0.950 . S
C674 C673 1.387 . S
C674 C677 1.387 . S
H675 C671 0.950 . S
H676 C673 0.950 . S
C677 C668 1.390 . S
C677 H670 0.950 . S
C677 C674 1.387 . S
C678 C679 1.387 . S
C678 H682 0.950 . S
C678 C687 1.390 . S
C679 C678 1.387 . S
C679 C681 1.387 . S
H680 C687 0.950 . S
C681 C679 1.387 . S
C681 C683 1.390 . S
C681 H685 0.950 . S
H682 C678 0.950 . S
C683 C681 1.390 . S
C683 C684 1.387 . S
C683 H686 0.950 . S
C684 C683 1.387 . S
C684 C687 1.387 . S
H685 C681 0.950 . S
H686 C683 0.950 . S
C687 C678 1.390 . S
C687 H680 0.950 . S
C687 C684 1.387 . S
C688 C689 1.387 . S
C688 H692 0.950 . S
C688 C697 1.390 . S
C689 C688 1.387 . S
C689 C691 1.387 . S
H690 C697 0.950 . S
C691 C689 1.387 . S
C691 C693 1.390 . S
C691 H695 0.950 . S
H692 C688 0.950 . S
C693 C691 1.390 . S
C693 C694 1.387 . S
C693 H696 0.950 . S
C694 C693 1.387 . S
C694 C697 1.387 . S
H695 C691 0.950 . S
H696 C693 0.950 . S
C697 C688 1.390 . S
C697 H690 0.950 . S
C697 C694 1.387 . S
C698 C699 1.387 . S
C698 H702 0.950 . S
C698 C707 1.390 . S
C699 C698 1.387 . S
C699 C701 1.387 . S
H700 C707 0.950 . S
C701 C699 1.387 . S
C701 C703 1.390 . S
C701 H705 0.950 . S
H702 C698 0.950 . S
C703 C701 1.390 . S
C703 C704 1.387 . S
C703 H706 0.950 . S
C704 C703 1.387 . S
C704 C707 1.387 . S
H705 C701 0.950 . S
H706 C703 0.950 . S
C707 C698 1.390 . S
C707 H700 0.950 . S
C707 C704 1.387 . S
C708 C709 1.387 . S
C708 H712 0.950 . S
C708 C717 1.390 . S
C709 C708 1.387 . S
C709 C711 1.387 . S
H710 C717 0.950 . S
C711 C709 1.387 . S
C711 C713 1.390 . S
C711 H715 0.950 . S
H712 C708 0.950 . S
C713 C711 1.390 . S
C713 C714 1.387 . S
C713 H716 0.950 . S
C714 C713 1.387 . S
C714 C717 1.387 . S
H715 C711 0.950 . S
H716 C713 0.950 . S
C717 C708 1.390 . S
C717 H710 0.950 . S
C717 C714 1.387 . S
C718 C719 1.387 . S
C718 H722 0.950 . S
C718 C727 1.390 . S
C719 C718 1.387 . S
C719 C721 1.387 . S
H720 C727 0.950 . S
C721 C719 1.387 . S
C721 C723 1.390 . S
C721 H725 0.950 . S
H722 C718 0.950 . S
C723 C721 1.390 . S
C723 C724 1.387 . S
C723 H726 0.950 . S
C724 C723 1.387 . S
C724 C727 1.387 . S
H725 C721 0.950 . S
H726 C723 0.950 . S
C727 C718 1.390 . S
C727 H720 0.950 . S
C727 C724 1.387 . S
C728 C729 1.387 . S
C728 H732 0.950 . S
C728 C737 1.390 . S
C729 C728 1.387 . S
C729 C731 1.387 . S
H730 C737 0.950 . S
C731 C729 1.387 . S
C731 C733 1.390 . S
C731 H735 0.950 . S
H732 C728 0.950 . S
C733 C731 1.390 . S
C733 C734 1.387 . S
C733 H736 0.950 . S
C734 C733 1.387 . S
C734 C737 1.387 . S
H735 C731 0.950 . S
H736 C733 0.950 . S
C737 C728 1.390 . S
C737 H730 0.950 . S
C737 C734 1.387 . S
C738 C739 1.387 . S
C738 H742 0.950 . S
C738 C747 1.390 . S
C739 C738 1.387 . S
C739 C741 1.387 . S
H740 C747 0.950 . S
C741 C739 1.387 . S
C741 C743 1.390 . S
C741 H745 0.950 . S
H742 C738 0.950 . S
C743 C741 1.390 . S
C743 C744 1.387 . S
C743 H746 0.950 . S
C744 C743 1.387 . S
C744 C747 1.387 . S
H745 C741 0.950 . S
H746 C743 0.950 . S
C747 C738 1.390 . S
C747 H740 0.950 . S
C747 C744 1.387 . S
C748 C749 1.387 . S
C748 H752 0.950 . S
C748 C757 1.390 . S
C749 C748 1.387 . S
C749 C751 1.387 . S
H750 C757 0.950 . S
C751 C749 1.387 . S
C751 C753 1.390 . S
C751 H755 0.950 . S
H752 C748 0.950 . S
C753 C751 1.390 . S
C753 C754 1.387 . S
C753 H756 0.950 . S
C754 C753 1.387 . S
C754 C757 1.387 . S
H755 C751 0.950 . S
H756 C753 0.950 . S
C757 C748 1.390 . S
C757 H750 0.950 . S
C757 C754 1.387 . S
C758 C759 1.387 . S
C758 H762 0.950 . S
C758 C767 1.390 . S
C759 C758 1.387 . S
C759 C761 1.387 . S
H760 C767 0.950 . S
C761 C759 1.387 . S
C761 C763 1.390 . S
C761 H765 0.950 . S
H762 C758 0.950 . S
C763 C761 1.390 . S
C763 C764 1.387 . S
C763 H766 0.950 . S
C764 C763 1.387 . S
C764 C767 1.387 . S
H765 C761 0.950 . S
H766 C763 0.950 . S
C767 C758 1.390 . S
C767 H760 0.950 . S
C767 C764 1.387 . S
C768 C769 1.387 . S
C768 H772 0.950 . S
C768 C777 1.390 . S
C769 C768 1.387 . S
C769 C771 1.387 . S
H770 C777 0.950 . S
C771 C769 1.387 . S
C771 C773 1.390 . S
C771 H775 0.950 . S
H772 C768 0.950 . S
C773 C771 1.390 . S
C773 C774 1.387 . S
C773 H776 0.950 . S
C774 C773 1.387 . S
C774 C777 1.387 . S
H775 C771 0.950 . S
H776 C773 0.950 . S
C777 C768 1.390 . S
C777 H770 0.950 . S
C777 C774 1.387 . S
C778 C779 1.387 . S
C778 H782 0.950 . S
C778 C787 1.390 . S
C779 C778 1.387 . S
C779 C781 1.387 . S
H780 C787 0.950 . S
C781 C779 1.387 . S
C781 C783 1.390 . S
C781 H785 0.950 . S
H782 C778 0.950 . S
C783 C781 1.390 . S
C783 C784 1.387 . S
C783 H786 0.950 . S
C784 C783 1.387 . S
C784 C787 1.387 . S
H785 C781 0.950 . S
H786 C783 0.950 . S
C787 C778 1.390 . S
C787 H780 0.950 . S
C787 C784 1.387 . S
C788 C789 1.387 . S
C788 H792 0.950 . S
C788 C797 1.390 . S
C789 C788 1.387 . S
C789 C791 1.387 . S
H790 C797 0.950 . S
C791 C789 1.387 . S
C791 C793 1.390 . S
C791 H795 0.950 . S
H792 C788 0.950 . S
C793 C791 1.390 . S
C793 C794 1.387 . S
C793 H796 0.950 . S
C794 C793 1.387 . S
C794 C797 1.387 . S
H795 C791 0.950 . S
H796 C793 0.950 . S
C797 C788 1.390 . S
C797 H790 0.950 . S
C797 C794 1.387 . S
C798 C799 1.387 . S
C798 H802 0.950 . S
C798 C807 1.390 . S
C799 C798 1.387 . S
C799 C801 1.387 . S
H800 C807 0.950 . S
C801 C799 1.387 . S
C801 C803 1.390 . S
C801 H805 0.950 . S
H802 C798 0.950 . S
C803 C801 1.390 . S
C803 C804 1.387 . S
C803 H806 0.950 . S
C804 C803 1.387 . S
C804 C807 1.387 . S
H805 C801 0.950 . S
H806 C803 0.950 . S
C807 C798 1.390 . S
C807 H800 0.950 . S
C807 C804 1.387 . S
C808 C809 1.387 . S
C808 H812 0.950 . S
C808 C817 1.390 . S
C809 C808 1.387 . S
C809 C811 1.387 . S
H810 C817 0.950 . S
C811 C809 1.387 . S
C811 C813 1.390 . S
C811 H815 0.950 . S
H812 C808 0.950 . S
C813 C811 1.390 . S
C813 C814 1.387 . S
C813 H816 0.950 . S
C814 C813 1.387 . S
C814 C817 1.387 . S
H815 C811 0.950 . S
H816 C813 0.950 . S
C817 C808 1.390 . S
C817 H810 0.950 . S
C817 C814 1.387 . S
C818 C819 1.387 . S
C818 H822 0.950 . S
C818 C827 1.390 . S
C819 C818 1.387 . S
C819 C821 1.387 . S
H820 C827 0.950 . S
C821 C819 1.387 . S
C821 C823 1.390 . S
C821 H825 0.950 . S
H822 C818 0.950 . S
C823 C821 1.390 . S
C823 C824 1.387 . S
C823 H826 0.950 . S
C824 C823 1.387 . S
C824 C827 1.387 . S
H825 C821 0.950 . S
H826 C823 0.950 . S
C827 C818 1.390 . S
C827 H820 0.950 . S
C827 C824 1.387 . S
C828 C829 1.387 . S
C828 H832 0.950 . S
C828 C837 1.390 . S
C829 C828 1.387 . S
C829 C831 1.387 . S
H830 C837 0.950 . S
C831 C829 1.387 . S
C831 C833 1.390 . S
C831 H835 0.950 . S
H832 C828 0.950 . S
C833 C831 1.390 . S
C833 C834 1.387 . S
C833 H836 0.950 . S
C834 C833 1.387 . S
C834 C837 1.387 . S
H835 C831 0.950 . S
H836 C833 0.950 . S
C837 C828 1.390 . S
C837 H830 0.950 . S
C837 C834 1.387 . S
C838 C839 1.387 . S
C838 H842 0.950 . S
C838 C847 1.390 . S
C839 C838 1.387 . S
C839 C841 1.387 . S
H840 C847 0.950 . S
C841 C839 1.387 . S
C841 C843 1.390 . S
C841 H845 0.950 . S
H842 C838 0.950 . S
C843 C841 1.390 . S
C843 C844 1.387 . S
C843 H846 0.950 . S
C844 C843 1.387 . S
C844 C847 1.387 . S
H845 C841 0.950 . S
H846 C843 0.950 . S
C847 C838 1.390 . S
C847 H840 0.950 . S
C847 C844 1.387 . S
C848 C849 1.387 . S
C848 H852 0.950 . S
C848 C857 1.390 1_455 S
C849 C848 1.387 . S
C849 C851 1.387 . S
H850 C857 0.950 . S
C851 C849 1.387 . S
C851 C853 1.390 1_455 S
C851 H855 0.950 . S
H852 C848 0.950 . S
C853 C851 1.390 1_655 S
C853 C854 1.387 . S
C853 H856 0.950 . S
C854 C853 1.387 . S
C854 C857 1.387 . S
H855 C851 0.950 . S
H856 C853 0.950 . S
C857 C848 1.390 1_655 S
C857 H850 0.950 . S
C857 C854 1.387 . S
C858 C859 1.387 . S
C858 H862 0.950 . S
C858 C867 1.390 1_565 S
C859 C858 1.387 . S
C859 C861 1.387 . S
H860 C867 0.950 . S
C861 C859 1.387 . S
C861 C863 1.390 1_565 S
C861 H865 0.950 . S
H862 C858 0.950 . S
C863 C861 1.390 1_545 S
C863 C864 1.387 . S
C863 H866 0.950 . S
C864 C863 1.387 . S
C864 C867 1.387 . S
H865 C861 0.950 . S
H866 C863 0.950 . S
C867 C858 1.390 1_545 S
C867 H860 0.950 . S
C867 C864 1.387 . S
C868 C869 1.387 . S
C868 H872 0.950 . S
C868 C877 1.390 1_455 S
C869 C868 1.387 . S
C869 C871 1.387 . S
H870 C877 0.950 . S
C871 C869 1.387 . S
C871 C873 1.390 1_455 S
C871 H875 0.950 . S
H872 C868 0.950 . S
C873 C871 1.390 1_655 S
C873 C874 1.387 . S
C873 H876 0.950 . S
C874 C873 1.387 . S
C874 C877 1.387 . S
H875 C871 0.950 . S
H876 C873 0.950 . S
C877 C868 1.390 1_655 S
C877 H870 0.950 . S
C877 C874 1.387 . S
C878 C879 1.387 . S
C878 H882 0.950 . S
C878 C887 1.390 1_545 S
C879 C878 1.387 . S
C879 C881 1.387 . S
H880 C887 0.950 . S
C881 C879 1.387 . S
C881 C883 1.390 1_545 S
C881 H885 0.950 . S
H882 C878 0.950 . S
C883 C881 1.390 1_565 S
C883 C884 1.387 . S
C883 H886 0.950 . S
C884 C883 1.387 . S
C884 C887 1.387 . S
H885 C881 0.950 . S
H886 C883 0.950 . S
C887 C878 1.390 1_565 S
C887 H880 0.950 . S
C887 C884 1.387 . S
C888 C889 1.387 . S
C888 H892 0.950 . S
C888 C897 1.390 1_556 S
C889 C888 1.387 . S
C889 C891 1.387 . S
H890 C897 0.950 . S
C891 C889 1.387 . S
C891 C893 1.390 1_556 S
C891 H895 0.950 . S
H892 C888 0.950 . S
C893 C891 1.390 1_554 S
C893 C894 1.387 . S
C893 H896 0.950 . S
C894 C893 1.387 . S
C894 C897 1.387 . S
H895 C891 0.950 . S
H896 C893 0.950 . S
C897 C888 1.390 1_554 S
C897 H890 0.950 . S
C897 C894 1.387 . S
C898 C899 1.387 . S
C898 H902 0.950 . S
C898 C907 1.390 1_554 S
C899 C898 1.387 . S
C899 C901 1.387 . S
H900 C907 0.950 . S
C901 C899 1.387 . S
C901 C903 1.390 1_554 S
C901 H905 0.950 . S
H902 C898 0.950 . S
C903 C901 1.390 1_556 S
C903 C904 1.387 . S
C903 H906 0.950 . S
C904 C903 1.387 . S
C904 C907 1.387 . S
H905 C901 0.950 . S
H906 C903 0.950 . S
C907 C898 1.390 1_556 S
C907 H900 0.950 . S
C907 C904 1.387 . S
C908 C909 1.387 . S
C908 H912 0.950 . S
C908 C917 1.390 1_554 S
C909 C908 1.387 . S
C909 C911 1.387 . S
H910 C917 0.950 . S
C911 C909 1.387 . S
C911 C913 1.390 1_554 S
C911 H915 0.950 . S
H912 C908 0.950 . S
C913 C911 1.390 1_556 S
C913 C914 1.387 . S
C913 H916 0.950 . S
C914 C913 1.387 . S
C914 C917 1.387 . S
H915 C911 0.950 . S
H916 C913 0.950 . S
C917 C908 1.390 1_556 S
C917 H910 0.950 . S
C917 C914 1.387 . S
C918 C919 1.387 . S
C918 H922 0.950 . S
C918 C927 1.390 1_556 S
C919 C918 1.387 . S
C919 C921 1.387 . S
H920 C927 0.950 . S
C921 C919 1.387 . S
C921 C923 1.390 1_556 S
C921 H925 0.950 . S
H922 C918 0.950 . S
C923 C921 1.390 1_554 S
C923 C924 1.387 . S
C923 H926 0.950 . S
C924 C923 1.387 . S
C924 C927 1.387 . S
H925 C921 0.950 . S
H926 C923 0.950 . S
C927 C918 1.390 1_554 S
C927 H920 0.950 . S
C927 C924 1.387 . S
C529 C84 0.719 . S
C534 C18 0.719 . S
C539 C51 0.716 . S
C544 C117 0.716 . S
C549 C216 0.716 . S
C554 C150 0.716 . S
C559 C249 0.716 . S
C564 C183 0.716 . S
C569 C282 0.716 . S
C574 C348 0.716 . S
C579 C381 0.716 . S
C584 C315 0.716 . S
C589 C480 0.716 . S
C594 C414 0.716 . S
C599 C447 0.716 . S
C604 C513 0.716 . S
C609 N13 1.738 . S
C614 N508 1.740 . S
C619 N409 1.740 . S
C624 N46 1.739 . S
C629 N442 1.738 . S
C634 N79 1.738 . S
C639 N475 1.740 . S
C644 N112 1.737 . S
C649 N310 1.739 . S
C654 N145 1.737 . S
C659 N343 1.738 . S
C664 N178 1.740 . S
C669 N376 1.739 . S
C674 N211 1.738 . S
C679 N277 1.740 . S
C684 N244 1.738 . S
C689 C7 1.475 . S
C694 C120 1.465 . S
C699 C21 1.464 . S
C704 C40 1.476 . S
C709 C73 1.475 . S
C714 C54 1.466 . S
C719 C87 1.464 . S
C724 C106 1.477 . S
C729 C186 1.465 . S
C734 C139 1.474 . S
C739 C172 1.475 . S
C744 C219 1.465 . S
C749 C252 1.465 . S
C754 C205 1.474 . S
C759 C153 1.465 . S
C764 C238 1.475 . S
C769 C271 1.475 . S
C774 C384 1.465 . S
C779 C285 1.465 . S
C784 C304 1.477 . S
C789 C337 1.474 . S
C794 C318 1.464 . S
C799 C370 1.476 . S
C804 C351 1.463 . S
C809 C403 1.477 . S
C814 C450 1.464 . S
C819 C483 1.466 . S
C824 C436 1.475 . S
C829 C516 1.463 . S
C834 C469 1.475 . S
C839 C502 1.475 . S
C844 C417 1.465 . S
C849 N2 1.543 . S
C854 N200 1.543 . S
C859 N233 1.544 . S
C864 N35 1.544 . S
C869 N134 1.543 . S
C874 N68 1.543 . S
C879 N167 1.544 . S
C884 N101 1.544 . S
C889 N266 1.544 . S
C894 N464 1.544 . S
C899 N497 1.544 . S
C904 N299 1.544 . S
C909 N398 1.543 . S
C914 N332 1.543 . S
C919 N365 1.544 . S
C924 N431 1.544 . S
