# Generated by pormake.
# Topology ecf, (8)-cn, num edge types: 1
# Building blocks:
#     Node 0, Type 0, BuildingBlock: TAGTUT_clean_sbu_1, # of connection points: 8
#     Node 1, Type 0, BuildingBlock: TAGTUT_clean_sbu_1, # of connection points: 8
#     Node 2, Type 0, BuildingBlock: TAGTUT_clean_sbu_1, # of connection points: 8
#     Node 3, Type 0, BuildingBlock: TAGTUT_clean_sbu_1, # of connection points: 8
#     Node 4, Type 0, BuildingBlock: TAGTUT_clean_sbu_1, # of connection points: 8
#     Node 5, Type 0, BuildingBlock: TAGTUT_clean_sbu_1, # of connection points: 8
#     Edge 6, Type (0, 0), BuildingBlock: XUDNAN_clean_linker_2, # of connection points: 2
#     Edge 7, Type (0, 0), BuildingBlock: XUDNAN_clean_linker_2, # of connection points: 2
#     Edge 8, Type (0, 0), BuildingBlock: XUDNAN_clean_linker_2, # of connection points: 2
#     Edge 9, Type (0, 0), BuildingBlock: XUDNAN_clean_linker_2, # of connection points: 2
#     Edge 10, Type (0, 0), BuildingBlock: XUDNAN_clean_linker_2, # of connection points: 2
#     Edge 11, Type (0, 0), BuildingBlock: XUDNAN_clean_linker_2, # of connection points: 2
#     Edge 12, Type (0, 0), BuildingBlock: XUDNAN_clean_linker_2, # of connection points: 2
#     Edge 13, Type (0, 0), BuildingBlock: XUDNAN_clean_linker_2, # of connection points: 2
#     Edge 14, Type (0, 0), BuildingBlock: XUDNAN_clean_linker_2, # of connection points: 2
#     Edge 15, Type (0, 0), BuildingBlock: XUDNAN_clean_linker_2, # of connection points: 2
#     Edge 16, Type (0, 0), BuildingBlock: XUDNAN_clean_linker_2, # of connection points: 2
#     Edge 17, Type (0, 0), BuildingBlock: XUDNAN_clean_linker_2, # of connection points: 2
#     Edge 18, Type (0, 0), BuildingBlock: XUDNAN_clean_linker_2, # of connection points: 2
#     Edge 19, Type (0, 0), BuildingBlock: XUDNAN_clean_linker_2, # of connection points: 2
#     Edge 20, Type (0, 0), BuildingBlock: XUDNAN_clean_linker_2, # of connection points: 2
#     Edge 21, Type (0, 0), BuildingBlock: XUDNAN_clean_linker_2, # of connection points: 2
#     Edge 22, Type (0, 0), BuildingBlock: XUDNAN_clean_linker_2, # of connection points: 2
#     Edge 23, Type (0, 0), BuildingBlock: XUDNAN_clean_linker_2, # of connection points: 2
#     Edge 24, Type (0, 0), BuildingBlock: XUDNAN_clean_linker_2, # of connection points: 2
#     Edge 25, Type (0, 0), BuildingBlock: XUDNAN_clean_linker_2, # of connection points: 2
#     Edge 26, Type (0, 0), BuildingBlock: XUDNAN_clean_linker_2, # of connection points: 2
#     Edge 27, Type (0, 0), BuildingBlock: XUDNAN_clean_linker_2, # of connection points: 2
#     Edge 28, Type (0, 0), BuildingBlock: XUDNAN_clean_linker_2, # of connection points: 2
#     Edge 29, Type (0, 0), BuildingBlock: XUDNAN_clean_linker_2, # of connection points: 2
# Relax obj value: 0.208
# Max RMSD: 0.207
# Mean RMSD: 0.189
data_MOF--net-ecf--node1-TAGTUT_clean_sbu_1--edge1-XUDNAN_clean_linker_2
_symmetry_space_group_name_H-M    P1
_symmetry_Int_Tables_number       1
_symmetry_cell_setting            triclinic
loop_
_symmetry_equiv_pos_as_xyz
'x, y, z'
_cell_length_a     34.991473
_cell_length_b     35.174121
_cell_length_c     27.451777
_cell_angle_alpha  97.26209
_cell_angle_beta   90.341932
_cell_angle_gamma 120.34334
loop_
_atom_site_label
_atom_site_type_symbol
_atom_site_fract_x
_atom_site_fract_y
_atom_site_fract_z
_atom_type_partial_charge
C0 C -0.00093 0.18696 0.18946 0.0
C1 C 0.0758 0.3123 0.13883 0.0
C2 C 0.21899 0.30028 0.16707 0.0
Mg3 Mg 0.05983 0.28408 0.2408 0.0
O4 O 0.09928 0.26295 0.23663 0.0
Mg5 Mg 0.10785 0.242 0.16819 0.0
Mg6 Mg 0.16029 0.31054 0.25987 0.0
O7 O 0.22097 0.35959 0.28231 0.0
Mg8 Mg 0.27003 0.35236 0.27322 0.0
Mg9 Mg 0.21187 0.3798 0.35077 0.0
C10 C 0.10215 0.31823 0.35189 0.0
C11 C 0.15835 0.40308 0.27445 0.0
O12 O 0.03127 0.1875 0.1662 0.0
O13 O 0.00363 0.2204 0.21903 0.0
O14 O 0.08894 0.28452 0.12899 0.0
O15 O 0.06649 0.32092 0.18199 0.0
O16 O 0.07166 0.31034 0.31909 0.0
O17 O 0.13785 0.31795 0.33982 0.0
C18 C 0.15397 0.21623 0.25034 0.0
O19 O 0.17245 0.25548 0.27494 0.0
O20 O 0.1286 0.20434 0.21077 0.0
O21 O 0.2847 0.44103 0.35099 0.0
O22 O 0.31829 0.42163 0.29117 0.0
O23 O 0.2396 0.34076 0.38612 0.0
C24 C 0.31765 0.45041 0.32427 0.0
O25 O 0.27338 0.3182 0.33094 0.0
O26 O 0.25423 0.31925 0.19682 0.0
C27 C 0.26052 0.32024 0.37408 0.0
O28 O 0.18278 0.299 0.18032 0.0
O29 O 0.14602 0.36586 0.2468 0.0
O30 O 0.1836 0.41562 0.31413 0.0
C31 C 0.84704 0.31968 0.68373 0.0
C32 C 0.91071 0.24497 0.62785 0.0
C33 C 0.75933 0.09977 0.67292 0.0
Mg34 Mg 0.89936 0.28171 0.73157 0.0
O35 O 0.8415 0.2339 0.73152 0.0
Mg36 Mg 0.805 0.20779 0.66659 0.0
Mg37 Mg 0.83071 0.17882 0.75734 0.0
O38 O 0.81967 0.1237 0.78307 0.0
Mg39 Mg 0.76265 0.07475 0.78123 0.0
Mg40 Mg 0.85637 0.14873 0.84728 0.0
C41 C 0.90369 0.25681 0.83984 0.0
C42 C 0.92091 0.17404 0.75736 0.0
O43 O 0.81758 0.28006 0.6633 0.0
O44 O 0.88064 0.32754 0.71143 0.0
O45 O 0.86811 0.22412 0.61997 0.0
O46 O 0.93006 0.26614 0.67025 0.0
O47 O 0.91987 0.28368 0.80791 0.0
O48 O 0.86805 0.2183 0.83089 0.0
C49 C 0.73792 0.17938 0.75616 0.0
O50 O 0.76488 0.17262 0.78037 0.0
O51 O 0.7458 0.19202 0.71361 0.0
O52 O 0.84202 0.0762 0.8518 0.0
O53 O 0.78179 0.02912 0.79916 0.0
O54 O 0.79523 0.13027 0.89343 0.0
C55 C 0.81329 0.03685 0.83007 0.0
O56 O 0.73218 0.08335 0.84632 0.0
O57 O 0.74291 0.07283 0.70483 0.0
C58 C 0.75287 0.10429 0.88836 0.0
O59 O 0.79382 0.13899 0.68361 0.0
O60 O 0.89621 0.18418 0.73406 0.0
O61 O 0.91265 0.16134 0.79962 0.0
C62 C 0.48787 0.84104 0.1916 0.0
C63 C 0.62471 0.91985 0.15001 0.0
C64 C 0.63681 0.77597 0.17879 0.0
Mg65 Mg 0.58037 0.90096 0.248 0.0
O66 O 0.57953 0.84732 0.24281 0.0
Mg67 Mg 0.56722 0.81239 0.17511 0.0
Mg68 Mg 0.63217 0.84488 0.26673 0.0
O69 O 0.6843 0.84184 0.29062 0.0
Mg70 Mg 0.67861 0.78617 0.28666 0.0
Mg71 Mg 0.70061 0.87935 0.35695 0.0
C72 C 0.63276 0.9178 0.35189 0.0
C73 C 0.72113 0.9408 0.26909 0.0
O74 O 0.50269 0.81716 0.1693 0.0
O75 O 0.51175 0.8745 0.2249 0.0
O76 O 0.60725 0.87764 0.13637 0.0
O77 O 0.62009 0.93541 0.19256 0.0
O78 O 0.61221 0.9282 0.32216 0.0
O79 O 0.63618 0.88289 0.34234 0.0
C80 C 0.54404 0.74729 0.26035 0.0
O81 O 0.57989 0.77731 0.28604 0.0
O82 O 0.53268 0.75245 0.21807 0.0
O83 O 0.76393 0.8726 0.36057 0.0
O84 O 0.74647 0.80996 0.30839 0.0
O85 O 0.66827 0.8177 0.40021 0.0
C86 C 0.77357 0.84415 0.33908 0.0
O87 O 0.64299 0.75509 0.34667 0.0
O88 O 0.65334 0.76233 0.20956 0.0
C89 C 0.64953 0.77507 0.39078 0.0
O90 O 0.63023 0.80847 0.19171 0.0
O91 O 0.6841 0.91145 0.2453 0.0
O92 O 0.73318 0.93632 0.31122 0.0
C93 C 0.93578 0.75768 0.69321 0.0
C94 C 0.84791 0.62601 0.62823 0.0
C95 C 0.71583 0.6541 0.66001 0.0
Mg96 Mg 0.87793 0.67082 0.73572 0.0
O97 O 0.83937 0.69347 0.73592 0.0
Mg98 Mg 0.82456 0.70511 0.67027 0.0
Mg99 Mg 0.7783 0.65078 0.75061 0.0
O100 O 0.71742 0.60577 0.76236 0.0
Mg101 Mg 0.67023 0.61582 0.75483 0.0
Mg102 Mg 0.72824 0.5891 0.82572 0.0
C103 C 0.83989 0.64891 0.84142 0.0
C104 C 0.77317 0.55381 0.74239 0.0
O105 O 0.90052 0.75338 0.67221 0.0
O106 O 0.93475 0.7307 0.72118 0.0
O107 O 0.83378 0.65259 0.62442 0.0
O108 O 0.86468 0.62502 0.66901 0.0
O109 O 0.86925 0.65387 0.81076 0.0
O110 O 0.80394 0.64854 0.82855 0.0
C111 C 0.79335 0.75088 0.7591 0.0
O112 O 0.77458 0.71442 0.77793 0.0
O113 O 0.81359 0.75434 0.71967 0.0
O114 O 0.65295 0.53026 0.81172 0.0
O115 O 0.61827 0.55012 0.75992 0.0
O116 O 0.70649 0.63539 0.86966 0.0
C117 C 0.61831 0.52182 0.78493 0.0
O118 O 0.67547 0.6591 0.81891 0.0
O119 O 0.68153 0.64024 0.68471 0.0
C120 C 0.68905 0.65883 0.86193 0.0
O121 O 0.75109 0.65456 0.67507 0.0
O122 O 0.78628 0.58994 0.72415 0.0
O123 O 0.75039 0.5455 0.77998 0.0
C124 C 0.16357 0.94811 0.21007 0.0
C125 C 0.19054 0.85568 0.13195 0.0
C126 C 0.02778 0.72779 0.14779 0.0
Mg127 Mg 0.18624 0.88054 0.24083 0.0
O128 O 0.12374 0.84964 0.23839 0.0
Mg129 Mg 0.09248 0.83933 0.1724 0.0
Mg130 Mg 0.10132 0.78769 0.24742 0.0
O131 O 0.08285 0.72607 0.25443 0.0
Mg132 Mg 0.02668 0.67651 0.2359 0.0
Mg133 Mg 0.1158 0.73534 0.31866 0.0
C134 C 0.17482 0.84566 0.34417 0.0
C135 C 0.1878 0.77589 0.23838 0.0
O136 O 0.12699 0.91644 0.18659 0.0
O137 O 0.19116 0.94142 0.23268 0.0
O138 O 0.15069 0.84767 0.12712 0.0
O139 O 0.21031 0.86375 0.17446 0.0
O140 O 0.1997 0.87266 0.31531 0.0
O141 O 0.13599 0.81158 0.32863 0.0
C142 C 0.02238 0.8098 0.2574 0.0
O143 O 0.03921 0.78848 0.27431 0.0
O144 O 0.0372 0.83056 0.22042 0.0
O145 O 0.09771 0.6614 0.29945 0.0
O146 O 0.04259 0.62551 0.23855 0.0
O147 O 0.04948 0.71141 0.3568 0.0
C148 C 0.0716 0.62671 0.26835 0.0
O149 O -0.00793 0.67736 0.29887 0.0
O150 O 0.00981 0.69159 0.16672 0.0
C151 C 0.0076 0.69084 0.34389 0.0
O152 O 0.06303 0.76342 0.16901 0.0
O153 O 0.16424 0.78974 0.21996 0.0
O154 O 0.1773 0.75602 0.27621 0.0
C155 C 0.15566 0.12231 0.67849 0.0
C156 C 0.29001 0.1938 0.6548 0.0
C157 C 0.29237 0.03898 0.66699 0.0
Mg158 Mg 0.24221 0.1693 0.74747 0.0
O159 O 0.23802 0.11371 0.73439 0.0
Mg160 Mg 0.22543 0.08199 0.66136 0.0
Mg161 Mg 0.29139 0.11082 0.76166 0.0
O162 O 0.34294 0.10735 0.78418 0.0
Mg163 Mg 0.34192 0.05334 0.77308 0.0
Mg164 Mg 0.35776 0.14089 0.85283 0.0
C165 C 0.2792 0.17307 0.85705 0.0
C166 C 0.38062 0.21047 0.77464 0.0
O167 O 0.16778 0.09748 0.65294 0.0
O168 O 0.17765 0.14928 0.71753 0.0
O169 O 0.27239 0.15189 0.6416 0.0
O170 O 0.28429 0.20982 0.69656 0.0
O171 O 0.26075 0.18534 0.8269 0.0
O172 O 0.29209 0.14503 0.84201 0.0
C173 C 0.20681 0.03895 0.75844 0.0
O174 O 0.24026 0.04205 0.78091 0.0
O175 O 0.21301 0.07485 0.74345 0.0
O176 O 0.42369 0.13726 0.85146 0.0
O177 O 0.41176 0.08239 0.79004 0.0
O178 O 0.32396 0.07565 0.88772 0.0
C179 C 0.4373 0.11487 0.82353 0.0
O180 O 0.30739 0.01672 0.83093 0.0
O181 O 0.3132 0.02883 0.69672 0.0
C182 C 0.30737 0.03366 0.87483 0.0
O183 O 0.28487 0.07113 0.68065 0.0
O184 O 0.34523 0.18243 0.74641 0.0
O185 O 0.39005 0.20135 0.81503 0.0
H186 H 0.19951 0.49391 0.28474 0.0
H187 H 0.07164 0.37304 0.25003 0.0
H188 H 0.0366 0.41694 0.23769 0.0
H189 H 0.15681 0.55064 0.35946 0.0
H190 H 0.19414 0.60476 0.34292 0.0
H191 H 0.21097 0.56397 0.3407 0.0
H192 H 0.22681 0.5706 0.24912 0.0
H193 H 0.21047 0.6118 0.25118 0.0
H194 H 0.18377 0.56259 0.20543 0.0
H195 H 0.01491 0.47375 0.2328 0.0
H196 H 0.00688 0.54006 0.2403 0.0
H197 H 0.14709 0.62454 0.28837 0.0
C198 C 0.16439 0.47686 0.27314 0.0
C199 C 0.13872 0.4299 0.26419 0.0
C200 C 0.09249 0.40862 0.25191 0.0
C201 C 0.07214 0.43344 0.24625 0.0
C202 C 0.09837 0.47966 0.25469 0.0
C203 C 0.14339 0.50127 0.26843 0.0
C204 C 0.16301 0.55119 0.28002 0.0
C205 C 0.18236 0.56865 0.33398 0.0
C206 C 0.19808 0.57547 0.24429 0.0
C207 C 0.12187 0.55407 0.27109 0.0
C208 C 0.08511 0.51247 0.25585 0.0
C209 C 0.04339 0.50655 0.24477 0.0
C210 C 0.03915 0.54432 0.24915 0.0
C211 C 0.07626 0.58719 0.26531 0.0
C212 C 0.11805 0.59203 0.2766 0.0
H213 H 0.48642 0.12101 0.74621 0.0
H214 H 0.49552 0.141 0.90582 0.0
H215 H 0.5744 0.15994 0.90697 0.0
H216 H 0.55303 0.07221 0.72782 0.0
H217 H 0.57896 0.10034 0.67649 0.0
H218 H 0.52396 0.08876 0.68902 0.0
H219 H 0.54995 0.17255 0.69366 0.0
H220 H 0.60501 0.18437 0.68083 0.0
H221 H 0.59705 0.21327 0.73524 0.0
H222 H 0.65129 0.1709 0.88867 0.0
H223 H 0.72069 0.18167 0.85382 0.0
H224 H 0.66085 0.16001 0.70657 0.0
C225 C 0.50504 0.12942 0.78146 0.0
C226 C 0.48497 0.12906 0.82598 0.0
C227 C 0.51047 0.14106 0.87138 0.0
C228 C 0.55512 0.15166 0.87227 0.0
C229 C 0.57375 0.15106 0.82745 0.0
C230 C 0.54958 0.14105 0.78296 0.0
C231 C 0.57713 0.14389 0.73983 0.0
C232 C 0.55707 0.0986 0.70634 0.0
C233 C 0.58261 0.18072 0.71069 0.0
C234 C 0.62056 0.1562 0.76673 0.0
C235 C 0.61804 0.15981 0.81722 0.0
C236 C 0.6537 0.16879 0.84925 0.0
C237 C 0.69292 0.17468 0.82912 0.0
C238 C 0.69637 0.17223 0.77751 0.0
C239 C 0.65955 0.16284 0.7462 0.0
H240 H 0.35731 0.49216 0.24741 0.0
H241 H 0.35863 0.51404 0.40653 0.0
H242 H 0.41977 0.59243 0.4083 0.0
H243 H 0.47439 0.56125 0.23622 0.0
H244 H 0.46641 0.58165 0.18231 0.0
H245 H 0.42527 0.52711 0.19452 0.0
H246 H 0.36462 0.5486 0.191 0.0
H247 H 0.40552 0.60317 0.17872 0.0
H248 H 0.37232 0.59747 0.23028 0.0
H249 H 0.48292 0.66806 0.39134 0.0
H250 H 0.5353 0.73634 0.35747 0.0
H251 H 0.48624 0.66499 0.20908 0.0
C252 C 0.37085 0.5133 0.28274 0.0
C253 C 0.35403 0.49706 0.32698 0.0
C254 C 0.37149 0.52595 0.37234 0.0
C255 C 0.4062 0.57033 0.37361 0.0
C256 C 0.42216 0.58524 0.3291 0.0
C257 C 0.40443 0.55764 0.28449 0.0
C258 C 0.42493 0.58212 0.24156 0.0
C259 C 0.44919 0.56182 0.21192 0.0
C260 C 0.38975 0.58289 0.20846 0.0
C261 C 0.4573 0.62795 0.2688 0.0
C262 C 0.45586 0.62903 0.31928 0.0
C263 C 0.48391 0.66762 0.35189 0.0
C264 C 0.51363 0.70617 0.33232 0.0
C265 C 0.51438 0.70601 0.28066 0.0
C266 C 0.48595 0.66626 0.2487 0.0
H267 H 0.76997 0.3231 0.68294 0.0
H268 H 0.9125 0.40352 0.6759 0.0
H269 H 0.90707 0.47111 0.68192 0.0
H270 H 0.73914 0.39213 0.61583 0.0
H271 H 0.69589 0.38482 0.65565 0.0
H272 H 0.7095 0.34169 0.64274 0.0
H273 H 0.72256 0.34426 0.7363 0.0
H274 H 0.70948 0.38765 0.74949 0.0
H275 H 0.76187 0.39639 0.77334 0.0
H276 H 0.88907 0.53025 0.70185 0.0
H277 H 0.85842 0.57795 0.7296 0.0
H278 H 0.72663 0.4618 0.7212 0.0
C279 C 0.79968 0.35479 0.68083 0.0
C280 C 0.84163 0.35809 0.67823 0.0
C281 C 0.88006 0.40028 0.67745 0.0
C282 C 0.87729 0.43884 0.68084 0.0
C283 C 0.83582 0.43482 0.68513 0.0
C284 C 0.79753 0.39394 0.68473 0.0
C285 C 0.75787 0.39977 0.69436 0.0
C286 C 0.72357 0.37833 0.64946 0.0
C287 C 0.73672 0.3809 0.74115 0.0
C288 C 0.78018 0.45026 0.7016 0.0
C289 C 0.8251 0.46961 0.69561 0.0
C290 C 0.85366 0.51558 0.70448 0.0
C291 C 0.83587 0.54259 0.71923 0.0
C292 C 0.78986 0.52392 0.72402 0.0
C293 C 0.76171 0.47702 0.71584 0.0
H294 H 0.27034 0.84966 0.25098 0.0
H295 H 0.19457 0.71376 0.17641 0.0
H296 H 0.26346 0.71939 0.14575 0.0
H297 H 0.35627 0.89391 0.15904 0.0
H298 H 0.39987 0.92874 0.20712 0.0
H299 H 0.34387 0.91649 0.21528 0.0
H300 H 0.34539 0.88636 0.29631 0.0
H301 H 0.40109 0.89818 0.28822 0.0
H302 H 0.35812 0.84257 0.29517 0.0
H303 H 0.34112 0.73691 0.13172 0.0
H304 H 0.42135 0.76337 0.13817 0.0
H305 H 0.44692 0.88752 0.22412 0.0
C306 C 0.26837 0.82176 0.22684 0.0
C307 C 0.22753 0.78161 0.21495 0.0
C308 C 0.22578 0.74499 0.1849 0.0
C309 C 0.26463 0.74797 0.16734 0.0
C310 C 0.30482 0.78782 0.1804 0.0
C311 C 0.30694 0.82414 0.20937 0.0
C312 C 0.35463 0.86125 0.22265 0.0
C313 C 0.36422 0.90254 0.19964 0.0
C314 C 0.36542 0.87273 0.27891 0.0
C315 C 0.37902 0.83941 0.19857 0.0
C316 C 0.34974 0.79749 0.17342 0.0
C317 C 0.36441 0.76995 0.15069 0.0
C318 C 0.41012 0.78529 0.15457 0.0
C319 C 0.4406 0.82755 0.18164 0.0
C320 C 0.42464 0.85515 0.20293 0.0
H321 H 0.46736 0.26404 0.8096 0.0
H322 H 0.36552 0.25962 0.71436 0.0
H323 H 0.41564 0.33866 0.70622 0.0
H324 H 0.5057 0.36974 0.87563 0.0
H325 H 0.56354 0.38594 0.87974 0.0
H326 H 0.52128 0.328 0.87445 0.0
H327 H 0.5543 0.30957 0.79699 0.0
H328 H 0.59723 0.36737 0.8025 0.0
H329 H 0.56253 0.33961 0.74577 0.0
H330 H 0.4743 0.41979 0.71558 0.0
H331 H 0.53974 0.49508 0.73307 0.0
H332 H 0.60451 0.44646 0.8218 0.0
C333 C 0.45562 0.2794 0.78643 0.0
C334 C 0.41203 0.25551 0.76278 0.0
C335 C 0.39843 0.27693 0.7326 0.0
C336 C 0.42676 0.32198 0.72805 0.0
C337 C 0.4688 0.34485 0.75348 0.0
C338 C 0.4835 0.32406 0.78133 0.0
C339 C 0.52983 0.35618 0.80575 0.0
C340 C 0.53007 0.36019 0.86224 0.0
C341 C 0.56293 0.34236 0.7866 0.0
C342 C 0.5386 0.39878 0.78827 0.0
C343 C 0.50294 0.39143 0.75817 0.0
C344 C 0.50261 0.4258 0.73857 0.0
C345 C 0.54004 0.4686 0.74903 0.0
C346 C 0.57763 0.47693 0.7788 0.0
C347 C 0.57649 0.4414 0.79902 0.0
H348 H 0.09455 0.12967 0.24612 0.0
H349 H 0.23328 0.22874 0.28539 0.0
H350 H 0.25066 0.16868 0.28545 0.0
H351 H 0.09083 0.03871 0.31105 0.0
H352 H 0.05403 -0.00311 0.26125 0.0
H353 H 0.05141 0.04669 0.27791 0.0
H354 H 0.0624 0.06143 0.18754 0.0
H355 H 0.06703 0.01298 0.17074 0.0
H356 H 0.11114 0.06675 0.15981 0.0
H357 H 0.25446 0.09969 0.26372 0.0
H358 H 0.24316 0.02506 0.23503 0.0
H359 H 0.10186 0.97287 0.20595 0.0
C360 C 0.12822 0.13849 0.25688 0.0
C361 C 0.16272 0.1832 0.26578 0.0
C362 C 0.20654 0.1943 0.2792 0.0
C363 C 0.21662 0.1605 0.27895 0.0
C364 C 0.18221 0.11648 0.26588 0.0
C365 C 0.13864 0.10539 0.25641 0.0
C366 C 0.10863 0.05653 0.23731 0.0
C367 C 0.07421 0.03334 0.27409 0.0
C368 C 0.08602 0.04905 0.18581 0.0
C369 C 0.14248 0.04218 0.23503 0.0
C370 C 0.18457 0.07696 0.25219 0.0
C371 C 0.22153 0.07198 0.25125 0.0
C372 C 0.21484 0.02973 0.23435 0.0
C373 C 0.17162 -0.00653 0.21827 0.0
C374 C 0.13528 0.0001 0.21761 0.0
H375 H 0.93827 0.10779 0.75911 0.0
H376 H -0.01738 0.23122 0.7012 0.0
H377 H 0.03973 0.22116 0.65778 0.0
H378 H 0.04332 0.12552 0.78669 0.0
H379 H 0.02732 0.06771 0.77189 0.0
H380 H -0.01313 0.08221 0.79145 0.0
H381 H 0.93666 0.03494 0.71181 0.0
H382 H -0.02235 0.02114 0.69151 0.0
H383 H 0.95824 0.04657 0.65259 0.0
H384 H 0.09531 0.20089 0.62745 0.0
H385 H 0.15286 0.17981 0.62466 0.0
H386 H 0.0725 0.07018 0.70361 0.0
C387 C 0.95975 0.13247 0.73679 0.0
C388 C 0.95583 0.16988 0.73236 0.0
C389 C -0.01529 0.20185 0.70376 0.0
C390 C 0.01693 0.19622 0.67895 0.0
C391 C 0.01925 0.15825 0.68308 0.0
C392 C -0.00825 0.12724 0.71191 0.0
C393 C 0.00426 0.09231 0.71555 0.0
C394 C 0.01619 0.09198 0.76957 0.0
C395 C 0.96698 0.046 0.6914 0.0
C396 C 0.04449 0.10952 0.68591 0.0
C397 C 0.05177 0.14681 0.66619 0.0
C398 C 0.08945 0.17122 0.64166 0.0
C399 C 0.12171 0.15878 0.63977 0.0
C400 C 0.116 0.12258 0.6625 0.0
C401 C 0.07633 0.09666 0.68408 0.0
H402 H 0.95238 0.15866 0.26706 0.0
H403 H 0.94841 0.1228 0.10937 0.0
H404 H 0.8716 0.05834 0.11054 0.0
H405 H 0.89616 0.04874 0.29597 0.0
H406 H 0.86856 0.06184 0.34478 0.0
H407 H 0.92162 0.10449 0.32936 0.0
H408 H 0.88756 0.15347 0.31644 0.0
H409 H 0.83408 0.11046 0.33077 0.0
H410 H 0.83971 0.13166 0.27317 0.0
H411 H 0.79374 -0.0016 0.13124 0.0
H412 H 0.7291 0.94305 0.16995 0.0
H413 H 0.78816 0.02085 0.31375 0.0
C414 C 0.9354 0.1373 0.2326 0.0
C415 C 0.95585 0.14565 0.18802 0.0
C416 C 0.93308 0.11664 0.14388 0.0
C417 C 0.88945 0.08042 0.14425 0.0
C418 C 0.8698 0.074 0.18906 0.0
C419 C 0.89261 0.10143 0.23245 0.0
C420 C 0.86596 0.08695 0.27639 0.0
C421 C 0.88946 0.07476 0.31379 0.0
C422 C 0.85626 0.12277 0.30059 0.0
C423 C 0.82435 0.04648 0.25138 0.0
C424 C 0.82654 0.03973 0.20092 0.0
C425 C 0.79187 0.00347 0.17067 0.0
C426 C 0.75514 0.97244 0.19293 0.0
C427 C 0.75386 0.9778 0.24486 0.0
C428 C 0.78829 0.01598 0.274 0.0
H429 H 0.86045 0.00432 0.78286 0.0
H430 H 0.76734 -0.01967 0.89444 0.0
H431 H 0.75662 0.90509 0.89515 0.0
H432 H 0.80036 0.90212 0.71373 0.0
H433 H 0.84663 0.89615 0.69527 0.0
H434 H 0.85407 0.95078 0.7109 0.0
H435 H 0.91772 0.97234 0.77678 0.0
H436 H 0.91121 0.91798 0.76069 0.0
H437 H 0.90822 0.93761 0.82366 0.0
H438 H 0.74904 0.82848 0.87491 0.0
H439 H 0.74691 0.75941 0.837 0.0
H440 H 0.84297 0.83482 0.73683 0.0
C441 C 0.83951 -0.01611 0.80904 0.0
C442 C 0.81586 -0.00181 0.83983 0.0
C443 C 0.78679 0.97008 0.87186 0.0
C444 C 0.78035 0.92732 0.87224 0.0
C445 C 0.80313 0.91337 0.84012 0.0
C446 C 0.83252 0.94113 0.80948 0.0
C447 C 0.84916 0.91696 0.77458 0.0
C448 C 0.83678 0.91648 0.72046 0.0
C449 C 0.89957 0.93744 0.78455 0.0
C450 C 0.82358 0.87096 0.7892 0.0
C451 C 0.79763 0.86939 0.82745 0.0
C452 C 0.76968 0.82953 0.84531 0.0
C453 C 0.76843 0.79041 0.82344 0.0
C454 C 0.79438 0.79146 0.7837 0.0
C455 C 0.82243 0.83253 0.76697 0.0
H456 H 0.8422 0.88211 0.28355 0.0
H457 H 0.80023 0.814 0.41068 0.0
H458 H 0.86456 0.80248 0.40878 0.0
H459 H 0.8668 0.81052 0.21993 0.0
H460 H 0.91449 0.8504 0.19228 0.0
H461 H 0.87219 0.86273 0.21026 0.0
H462 H 0.93039 0.93564 0.26556 0.0
H463 H -0.02679 0.92428 0.24628 0.0
H464 H 0.96656 0.93366 0.31093 0.0
H465 H 0.92606 0.78727 0.38327 0.0
H466 H -0.017 0.77614 0.34123 0.0
H467 H -0.01835 0.85312 0.23002 0.0
C468 C 0.84818 0.86705 0.31254 0.0
C469 C 0.81763 0.85025 0.34825 0.0
C470 C 0.82452 0.8284 0.38416 0.0
C471 C 0.86067 0.82143 0.38305 0.0
C472 C 0.88932 0.83661 0.34576 0.0
C473 C 0.88388 0.85979 0.31173 0.0
C474 C 0.91574 0.86823 0.27205 0.0
C475 C 0.89079 0.84667 0.22064 0.0
C476 C 0.94842 0.91843 0.27385 0.0
C477 C 0.93886 0.84488 0.28795 0.0
C478 C 0.9237 0.82712 0.33068 0.0
C479 C 0.93877 0.80181 0.35029 0.0
C480 C -0.0292 0.79532 0.32598 0.0
C481 C -0.01305 0.81381 0.28239 0.0
C482 C -0.02962 0.83867 0.2634 0.0
H483 H 0.1756 0.95712 0.78725 0.0
H484 H 0.15503 0.02326 0.6755 0.0
H485 H 0.09225 0.95281 0.63633 0.0
H486 H 0.13195 0.84394 0.70771 0.0
H487 H 0.10427 0.81501 0.75793 0.0
H488 H 0.1554 0.86798 0.77025 0.0
H489 H 0.11683 0.89896 0.82917 0.0
H490 H 0.06569 0.84644 0.8171 0.0
H491 H 0.06704 0.89669 0.80676 0.0
H492 H 0.02527 0.88091 0.61738 0.0
H493 H 0.95488 0.81179 0.62295 0.0
H494 H 0.01416 0.79053 0.74852 0.0
C495 C 0.15868 0.95622 0.75358 0.0
C496 C 0.17102 -0.00448 0.73372 0.0
C497 C 0.14713 -0.00637 0.6908 0.0
C498 C 0.11131 0.95352 0.66798 0.0
C499 C 0.09923 0.9155 0.68888 0.0
C500 C 0.1219 0.91631 0.73088 0.0
C501 C 0.09723 0.87242 0.75055 0.0
C502 C 0.1238 0.84842 0.74633 0.0
C503 C 0.08602 0.87906 0.80403 0.0
C504 C 0.05596 0.8483 0.71494 0.0
C505 C 0.0586 0.87327 0.67876 0.0
C506 C 0.02297 0.86043 0.64479 0.0
C507 C -0.01697 0.82137 0.64851 0.0
C508 C -0.02087 0.79597 0.68619 0.0
C509 C 0.01644 0.80901 0.71889 0.0
H510 H 0.18204 0.2146 0.11108 0.0
H511 H 0.27496 0.35479 0.10837 0.0
H512 H 0.30548 0.33572 0.03498 0.0
H513 H 0.25351 0.17416 0.07283 0.0
H514 H 0.21273 0.12503 0.03261 0.0
H515 H 0.19555 0.14844 0.08404 0.0
H516 H 0.14163 0.15524 0.0258 0.0
H517 H 0.15764 0.13057 0.97443 0.0
H518 H 0.16226 0.18387 0.97337 0.0
H519 H 0.33139 0.30255 0.96668 0.0
H520 H 0.33908 0.25799 0.89463 0.0
H521 H 0.2274 0.13828 0.93408 0.0
C522 C 0.20757 0.24122 0.09379 0.0
C523 C 0.22544 0.28652 0.11525 0.0
C524 C 0.26005 0.32008 0.09229 0.0
C525 C 0.2781 0.30952 0.05084 0.0
C526 C 0.26124 0.26489 0.03176 0.0
C527 C 0.22577 0.23117 0.05124 0.0
C528 C 0.21354 0.18602 0.02183 0.0
C529 C 0.21916 0.15668 0.05481 0.0
C530 C 0.16594 0.16253 0.99739 0.0
C531 C 0.24784 0.19985 0.98336 0.0
C532 C 0.27552 0.24556 0.99076 0.0
C533 C 0.30983 0.2667 0.96051 0.0
C534 C 0.31455 0.24098 0.92002 0.0
C535 C 0.28513 0.19436 0.90936 0.0
C536 C 0.25176 0.17351 0.94227 0.0
H537 H 0.92636 0.29164 0.54956 0.0
H538 H 0.96019 0.20522 0.6132 0.0
H539 H 0.02021 0.22255 0.55705 0.0
H540 H 0.94309 0.25835 0.42267 0.0
H541 H 0.96365 0.3131 0.40635 0.0
H542 H 0.92466 0.29419 0.45272 0.0
H543 H -0.02024 0.36416 0.51384 0.0
H544 H 0.0194 0.38259 0.46799 0.0
H545 H 0.03528 0.37518 0.52707 0.0
H546 H 0.07956 0.25283 0.4949 0.0
H547 H 0.12182 0.28018 0.4225 0.0
H548 H 0.04586 0.3428 0.39515 0.0
C549 C 0.94595 0.2758 0.55101 0.0
C550 C 0.93945 0.24784 0.58682 0.0
C551 C 0.96585 0.22796 0.58753 0.0
C552 C -0.00018 0.23748 0.55543 0.0
C553 C 0.00672 0.26664 0.52188 0.0
C554 C -0.02039 0.28448 0.5185 0.0
C555 C -0.00759 0.31291 0.47741 0.0
C556 C 0.95366 0.29347 0.43742 0.0
C557 C 0.00761 0.3616 0.49782 0.0
C558 C 0.03099 0.30853 0.45843 0.0
C559 C 0.03926 0.28228 0.48502 0.0
C560 C 0.07316 0.2733 0.4738 0.0
C561 C 0.0976 0.2896 0.43294 0.0
C562 C 0.08774 0.31414 0.40316 0.0
C563 C 0.05479 0.32469 0.4174 0.0
H564 H 0.61769 0.9085 0.04729 0.0
H565 H 0.68818 0.0067 0.17688 0.0
H566 H 0.72349 0.06541 0.12464 0.0
H567 H 0.70873 0.95795 0.96685 0.0
H568 H 0.67194 0.94499 0.91322 0.0
H569 H 0.65328 0.91014 0.96082 0.0
H570 H 0.5861 0.92192 0.96874 0.0
H571 H 0.60504 0.95759 0.92186 0.0
H572 H 0.59567 0.97774 0.98163 0.0
H573 H 0.75067 0.11448 0.05906 0.0
H574 H 0.77385 0.14859 0.98309 0.0
H575 H 0.68453 0.02029 0.89556 0.0
C576 C 0.64105 0.94222 0.0645 0.0
C577 C 0.64988 0.95284 0.11637 0.0
C578 C 0.68046 -0.0024 0.13736 0.0
C579 C 0.7007 0.03137 0.10799 0.0
C580 C 0.69008 0.02024 0.05734 0.0
C581 C 0.66151 0.97672 0.03555 0.0
C582 C 0.65639 0.97411 0.98001 0.0
C583 C 0.67362 0.94509 0.95368 0.0
C584 C 0.60791 0.95681 0.96202 0.0
C585 C 0.68615 0.02286 0.9743 0.0
C586 C 0.70525 0.04887 0.01942 0.0
C587 C 0.73566 0.09452 0.02348 0.0
C588 C 0.74833 0.11377 0.98015 0.0
C589 C 0.73037 0.08757 0.93328 0.0
C590 C 0.69784 0.04173 0.93072 0.0
H591 H 0.73974 0.73746 0.63915 0.0
H592 H 0.67699 0.5984 0.57532 0.0
H593 H 0.64815 0.61378 0.50249 0.0
H594 H 0.65539 0.75591 0.60143 0.0
H595 H 0.69101 0.81099 0.58631 0.0
H596 H 0.7104 0.79078 0.63206 0.0
H597 H 0.77875 0.80523 0.58397 0.0
H598 H 0.76042 0.82697 0.539 0.0
H599 H 0.77066 0.78222 0.51968 0.0
H600 H 0.61922 0.64212 0.44146 0.0
H601 H 0.6057 0.68448 0.3858 0.0
H602 H 0.68975 0.80689 0.48601 0.0
C603 C 0.72153 0.71079 0.60877 0.0
C604 C 0.71158 0.6669 0.612 0.0
C605 C 0.68602 0.63238 0.5727 0.0
C606 C 0.66898 0.64073 0.53159 0.0
C607 C 0.67785 0.68391 0.53022 0.0
C608 C 0.70462 0.71873 0.56696 0.0
C609 C 0.70895 0.76202 0.55593 0.0
C610 C 0.69033 0.78103 0.59635 0.0
C611 C 0.75758 0.79612 0.54923 0.0
C612 C 0.68007 0.7459 0.50762 0.0
C613 C 0.66195 0.70057 0.49404 0.0
C614 C 0.63373 0.67774 0.45135 0.0
C615 C 0.62589 0.70215 0.42013 0.0
C616 C 0.64666 0.74919 0.43112 0.0
C617 C 0.67285 0.77099 0.47655 0.0
H618 H 0.89428 0.62425 0.8823 0.0
H619 H 0.8248 0.69552 0.91957 0.0
H620 H 0.8684 0.72713 1.0007 0.0
H621 H 0.90197 0.59906 0.00827 0.0
H622 H 0.95586 0.60521 1.00078 0.0
H623 H 0.91646 0.58616 0.94803 0.0
H624 H -0.02479 0.65012 0.90504 0.0
H625 H 0.01429 0.67025 0.95827 0.0
H626 H -0.0007 0.70696 0.93479 0.0
H627 H 0.92739 0.75831 0.07473 0.0
H628 H -0.01609 0.77318 0.1409 0.0
H629 H 0.01155 0.67831 0.05691 0.0
C630 C 0.88715 0.64535 0.90816 0.0
C631 C 0.85563 0.65697 0.8945 0.0
C632 C 0.84797 0.68531 0.9293 0.0
C633 C 0.87316 0.70399 0.97529 0.0
C634 C 0.90552 0.69354 0.9865 0.0
C635 C 0.91148 0.66369 0.95442 0.0
C636 C 0.94811 0.6576 0.97506 0.0
C637 C 0.92948 0.60913 0.98356 0.0
C638 C -0.01352 0.6721 0.94126 0.0
C639 C 0.96242 0.68912 0.02347 0.0
C640 C 0.93801 0.71016 0.02918 0.0
C641 C 0.94636 0.7417 0.07057 0.0
C642 C -0.02092 0.75054 0.10772 0.0
C643 C 0.00292 0.72775 0.1036 0.0
C644 C -0.00546 0.69696 0.0606 0.0
H645 H 0.21298 0.00168 0.60376 0.0
H646 H 0.34249 0.01353 0.61566 0.0
H647 H 0.32208 0.95923 0.54076 0.0
H648 H 0.15034 0.88377 0.55736 0.0
H649 H 0.11368 0.88661 0.51347 0.0
H650 H 0.1373 0.92741 0.5683 0.0
H651 H 0.17031 -0.00875 0.51574 0.0
H652 H 0.14589 0.95079 0.46076 0.0
H653 H 0.20472 -0.00945 0.46741 0.0
H654 H 0.28906 0.90243 0.46663 0.0
H655 H 0.24867 0.85484 0.38832 0.0
H656 H 0.13975 0.87752 0.41795 0.0
C657 C 0.23726 -0.00647 0.58989 0.0
C658 C 0.27961 0.01228 0.61618 0.0
C659 C 0.30992 -0.00016 0.59677 0.0
C660 C 0.29856 0.96864 0.55417 0.0
C661 C 0.25647 0.94958 0.53021 0.0
C662 C 0.22643 0.96203 0.54641 0.0
C663 C 0.18391 0.93665 0.51173 0.0
C664 C 0.14394 0.90685 0.53937 0.0
C665 C 0.17573 0.96925 0.48746 0.0
C666 C 0.1952 0.90856 0.47387 0.0
C667 C 0.23711 0.91632 0.48611 0.0
C668 C 0.25603 0.8958 0.45678 0.0
C669 C 0.23257 0.86822 0.41257 0.0
C670 C 0.19032 0.86083 0.3976 0.0
C671 C 0.17106 0.88075 0.42935 0.0
H672 H 0.68984 0.64767 0.95847 0.0
H673 H 0.66634 0.7228 0.86048 0.0
H674 H 0.64385 0.75688 0.93005 0.0
H675 H 0.5967 0.62388 0.029 0.0
H676 H 0.62559 0.62925 0.08635 0.0
H677 H 0.6408 0.6115 0.02906 0.0
H678 H 0.72247 0.67611 0.04905 0.0
H679 H 0.70768 0.69335 0.10684 0.0
H680 H 0.73392 0.73247 0.06421 0.0
H681 H 0.62478 0.78341 0.01132 0.0
H682 H 0.61655 0.80418 0.09843 0.0
H683 H 0.64846 0.70773 0.14022 0.0
C684 C 0.68047 0.67166 0.95164 0.0
C685 C 0.6801 0.68275 0.90415 0.0
C686 C 0.66703 0.7139 0.89669 0.0
C687 C 0.65393 0.73323 0.93586 0.0
C688 C 0.65355 0.72059 0.98199 0.0
C689 C 0.66671 0.6907 0.99001 0.0
C690 C 0.66368 0.68281 0.04296 0.0
C691 C 0.62966 0.63396 0.04705 0.0
C692 C 0.70967 0.69706 0.06718 0.0
C693 C 0.6474 0.71345 0.06371 0.0
C694 C 0.64148 0.73484 0.02809 0.0
C695 C 0.62894 0.76659 0.03949 0.0
C696 C 0.62405 0.77796 0.08902 0.0
C697 C 0.6318 0.75759 0.12621 0.0
C698 C 0.64201 0.72382 0.1128 0.0
H699 H 0.02428 0.68993 0.44151 0.0
H700 H 0.91783 0.65572 0.3314 0.0
H701 H 0.86268 0.6186 0.3902 0.0
H702 H 0.96741 0.58868 0.49735 0.0
H703 H -0.01079 0.61748 0.55907 0.0
H704 H 0.02091 0.63925 0.50757 0.0
H705 H 0.02526 0.71514 0.53303 0.0
H706 H -0.00457 0.69405 0.58557 0.0
H707 H -0.02528 0.71581 0.54308 0.0
H708 H 0.81951 0.58981 0.46134 0.0
H709 H 0.79279 0.58469 0.54455 0.0
H710 H 0.92598 0.63326 0.60754 0.0
C711 C -0.0106 0.67493 0.42983 0.0
C712 C -0.02458 0.6755 0.38171 0.0
C713 C 0.9294 0.6555 0.36799 0.0
C714 C 0.89775 0.63383 0.4009 0.0
C715 C 0.91258 0.63221 0.4473 0.0
C716 C 0.95729 0.65294 0.46213 0.0
C717 C 0.96447 0.64965 0.51544 0.0
C718 C -0.01317 0.62212 0.5201 0.0
C719 C -0.00848 0.69641 0.54607 0.0
C720 C 0.91678 0.6251 0.52873 0.0
C721 C 0.88732 0.61449 0.48852 0.0
C722 C 0.84201 0.59698 0.49292 0.0
C723 C 0.82696 0.59359 0.54019 0.0
C724 C 0.85725 0.60771 0.58202 0.0
C725 C 0.90195 0.62054 0.57591 0.0
H726 H 0.22865 0.95843 0.8872 0.0
H727 H 0.36467 0.04578 0.94888 0.0
H728 H 0.35244 -0.00303 0.01153 0.0
H729 H 0.18378 0.9427 1.00217 0.0
H730 H 0.14047 0.88567 0.98296 0.0
H731 H 0.16236 0.92331 0.93846 0.0
H732 H 0.18042 0.86854 0.88623 0.0
H733 H 0.15963 0.83123 0.93147 0.0
H734 H 0.21539 0.85163 0.91357 0.0
H735 H 0.32519 0.94204 0.06974 0.0
H736 H 0.28106 0.89625 0.13133 0.0
H737 H 0.16085 0.84642 0.03607 0.0
C738 C 0.25575 0.9668 0.91378 0.0
C739 C 0.29758 0.00555 0.91356 0.0
C740 C 0.33232 0.01622 0.94901 0.0
C741 C 0.32588 -0.01162 0.98414 0.0
C742 C 0.28434 0.95019 0.98355 0.0
C743 C 0.2495 0.93989 0.95008 0.0
C744 C 0.2066 0.90069 0.96215 0.0
C745 C 0.17125 0.9139 0.97206 0.0
C746 C 0.18952 0.86065 0.92089 0.0
C747 C 0.22251 0.89175 0.00862 0.0
C748 C 0.2678 0.91957 0.01913 0.0
C749 C 0.28973 0.91986 0.06186 0.0
C750 C 0.26432 0.89342 0.09659 0.0
C751 C 0.21736 0.86808 0.08892 0.0
C752 C 0.19667 0.86523 0.04299 0.0
H753 H 0.27667 0.26145 0.64144 0.0
H754 H 0.33501 0.18551 0.57717 0.0
H755 H 0.33949 0.21513 0.49909 0.0
H756 H 0.20598 0.23624 0.54257 0.0
H757 H 0.20842 0.28899 0.5468 0.0
H758 H 0.21964 0.27154 0.60124 0.0
H759 H 0.29673 0.34373 0.61872 0.0
H760 H 0.28528 0.36229 0.56515 0.0
H761 H 0.3349 0.35915 0.57116 0.0
H762 H 0.32562 0.24227 0.42465 0.0
H763 H 0.30108 0.27069 0.36104 0.0
H764 H 0.24841 0.32628 0.47313 0.0
C765 C 0.2927 0.25307 0.61185 0.0
C766 C 0.30646 0.22201 0.61559 0.0
C767 C 0.32515 0.20998 0.57525 0.0
C768 C 0.32752 0.22641 0.5307 0.0
C769 C 0.3109 0.25467 0.52714 0.0
C770 C 0.29446 0.26848 0.56688 0.0
C771 C 0.27362 0.29443 0.55184 0.0
C772 C 0.224 0.27141 0.56117 0.0
C773 C 0.29917 0.34278 0.57828 0.0
C774 C 0.27987 0.29207 0.49725 0.0
C775 C 0.30176 0.26934 0.48381 0.0
C776 C 0.30923 0.26088 0.43492 0.0
C777 C 0.29487 0.27694 0.39897 0.0
C778 C 0.27296 0.30098 0.41198 0.0
C779 C 0.26519 0.30824 0.46186 0.0
H780 H 0.08601 0.29638 0.04138 0.0
H781 H 0.03065 0.3574 0.14277 0.0
H782 H -0.01536 0.35606 0.07372 0.0
H783 H 0.07872 0.34846 0.92954 0.0
H784 H 0.06434 0.2977 0.88929 0.0
H785 H 0.10133 0.31476 0.94394 0.0
H786 H 0.04964 0.23799 0.97099 0.0
H787 H 0.01149 0.22126 0.91781 0.0
H788 H -0.00783 0.22047 0.9786 0.0
H789 H 0.93212 0.33107 0.99938 0.0
H790 H 0.88615 0.29678 0.91976 0.0
H791 H -0.02445 0.25235 0.86699 0.0
C792 C 0.06581 0.31141 0.04881 0.0
C793 C 0.0615 0.32645 0.0975 0.0
C794 C 0.03446 0.34559 0.10577 0.0
C795 C 0.00803 0.34483 0.06676 0.0
C796 C 0.00993 0.32581 0.01984 0.0
C797 C 0.03922 0.31079 0.01035 0.0
C798 C 0.03138 0.28735 0.95796 0.0
C799 C 0.07131 0.31365 0.92843 0.0
C800 C 0.02052 0.23892 0.95632 0.0
C801 C -0.00864 0.28904 0.94052 0.0
C802 C -0.02028 0.31171 0.97656 0.0
C803 C 0.94154 0.31426 0.97044 0.0
C804 C 0.91536 0.29422 0.92569 0.0
C805 C 0.92754 0.27188 0.88832 0.0
C806 C 0.96583 0.26922 0.89561 0.0
H807 H 0.70402 0.01279 0.63485 0.0
H808 H 0.77575 0.1455 0.59377 0.0
H809 H 0.7524 0.11255 0.50615 0.0
H810 H 0.73476 0.96103 0.53695 0.0
H811 H 0.6823 0.9093 0.52894 0.0
H812 H 0.70169 0.94329 0.58858 0.0
H813 H 0.62901 0.9459 0.59234 0.0
H814 H 0.60901 0.91122 0.53314 0.0
H815 H 0.61177 0.96424 0.5426 0.0
H816 H 0.72195 0.06498 0.42372 0.0
H817 H 0.68471 0.00622 0.35165 0.0
H818 H 0.63757 0.90479 0.4472 0.0
C819 C 0.71425 0.03523 0.60771 0.0
C820 C 0.74134 0.08187 0.62124 0.0
C821 C 0.75467 0.10976 0.58431 0.0
C822 C 0.74177 0.09133 0.5345 0.0
C823 C 0.71611 0.04509 0.52258 0.0
C824 C 0.70245 0.01746 0.55814 0.0
C825 C 0.67637 0.96881 0.53579 0.0
C826 C 0.70022 0.94418 0.54832 0.0
C827 C 0.62871 0.94623 0.55192 0.0
C828 C 0.67708 0.97329 0.48184 0.0
C829 C 0.7001 0.01759 0.47505 0.0
C830 C 0.70398 0.03025 0.42855 0.0
C831 C 0.68279 -0.00324 0.38802 0.0
C832 C 0.65855 0.95134 0.39442 0.0
C833 C 0.65645 0.93934 0.44165 0.0
loop_
_geom_bond_atom_site_label_1
_geom_bond_atom_site_label_2
_geom_bond_distance
_geom_bond_site_symmetry_2
_ccdc_geom_bond_type
C0 O12 1.241 1_655 S
C0 O13 1.280 . S
C1 O14 1.277 . S
C1 O15 1.245 . S
C2 O26 1.247 . S
C2 O28 1.289 . S
Mg3 O4 1.926 . S
Mg3 O13 1.984 1_455 S
Mg3 O15 1.988 . S
Mg3 O16 2.061 . S
O4 Mg3 1.926 . S
O4 Mg5 1.986 . S
O4 Mg6 1.917 . S
Mg5 O4 1.986 . S
Mg5 O12 2.042 . S
Mg5 O14 2.041 . S
Mg5 O20 2.038 . S
Mg5 O28 2.238 . S
Mg6 O4 1.917 . S
Mg6 O7 1.917 . S
Mg6 O17 2.106 . S
Mg6 O19 2.079 . S
Mg6 O28 2.106 . S
Mg6 O29 2.079 . S
O7 Mg6 1.917 . S
O7 Mg8 1.926 . S
O7 Mg9 1.986 . S
Mg8 O7 1.926 . S
Mg8 O22 1.984 . S
Mg8 O25 1.988 . S
Mg8 O26 2.061 . S
Mg9 O7 1.986 . S
Mg9 O17 2.238 . S
Mg9 O21 2.042 . S
Mg9 O23 2.041 . S
Mg9 O30 2.038 . S
C10 O16 1.247 . S
C10 O17 1.289 . S
C11 O29 1.245 . S
C11 O30 1.274 . S
O12 C0 1.241 1_455 S
O12 Mg5 2.042 . S
O13 C0 1.280 . S
O13 Mg3 1.984 1_655 S
O14 C1 1.277 . S
O14 Mg5 2.041 . S
O15 C1 1.245 . S
O15 Mg3 1.988 . S
O16 Mg3 2.061 . S
O16 C10 1.247 . S
O17 Mg6 2.106 . S
O17 Mg9 2.238 . S
O17 C10 1.289 . S
C18 O19 1.245 . S
C18 O20 1.274 . S
O19 Mg6 2.079 . S
O19 C18 1.245 . S
O20 Mg5 2.038 . S
O20 C18 1.274 . S
O21 Mg9 2.042 . S
O21 C24 1.241 . S
O22 Mg8 1.984 . S
O22 C24 1.280 . S
O23 Mg9 2.041 . S
O23 C27 1.277 . S
C24 O21 1.241 . S
C24 O22 1.280 . S
O25 Mg8 1.988 . S
O25 C27 1.245 . S
O26 C2 1.247 . S
O26 Mg8 2.061 . S
C27 O23 1.277 . S
C27 O25 1.245 . S
O28 C2 1.289 . S
O28 Mg5 2.238 . S
O28 Mg6 2.106 . S
O29 Mg6 2.079 . S
O29 C11 1.245 . S
O30 Mg9 2.038 . S
O30 C11 1.274 . S
C31 O43 1.241 . S
C31 O44 1.280 . S
C32 O45 1.277 . S
C32 O46 1.245 . S
C33 O57 1.247 . S
C33 O59 1.289 . S
Mg34 O35 1.926 . S
Mg34 O44 1.984 . S
Mg34 O46 1.988 . S
Mg34 O47 2.061 . S
O35 Mg34 1.926 . S
O35 Mg36 1.986 . S
O35 Mg37 1.917 . S
Mg36 O35 1.986 . S
Mg36 O43 2.042 . S
Mg36 O45 2.041 . S
Mg36 O51 2.038 . S
Mg36 O59 2.238 . S
Mg37 O35 1.917 . S
Mg37 O38 1.917 . S
Mg37 O48 2.106 . S
Mg37 O50 2.079 . S
Mg37 O59 2.106 . S
Mg37 O60 2.079 . S
O38 Mg37 1.917 . S
O38 Mg39 1.926 . S
O38 Mg40 1.986 . S
Mg39 O38 1.926 . S
Mg39 O53 1.984 1_545 S
Mg39 O56 1.988 . S
Mg39 O57 2.061 . S
Mg40 O38 1.986 . S
Mg40 O48 2.238 . S
Mg40 O52 2.042 . S
Mg40 O54 2.041 . S
Mg40 O61 2.038 . S
C41 O47 1.247 . S
C41 O48 1.289 . S
C42 O60 1.245 . S
C42 O61 1.274 . S
O43 C31 1.241 . S
O43 Mg36 2.042 . S
O44 C31 1.280 . S
O44 Mg34 1.984 . S
O45 C32 1.277 . S
O45 Mg36 2.041 . S
O46 C32 1.245 . S
O46 Mg34 1.988 . S
O47 Mg34 2.061 . S
O47 C41 1.247 . S
O48 Mg37 2.106 . S
O48 Mg40 2.238 . S
O48 C41 1.289 . S
C49 O50 1.245 . S
C49 O51 1.274 . S
O50 Mg37 2.079 . S
O50 C49 1.245 . S
O51 Mg36 2.038 . S
O51 C49 1.274 . S
O52 Mg40 2.042 . S
O52 C55 1.241 . S
O53 Mg39 1.984 1_565 S
O53 C55 1.280 1_565 S
O54 Mg40 2.041 . S
O54 C58 1.277 . S
C55 O52 1.241 . S
C55 O53 1.280 1_545 S
O56 Mg39 1.988 . S
O56 C58 1.245 . S
O57 C33 1.247 . S
O57 Mg39 2.061 . S
C58 O54 1.277 . S
C58 O56 1.245 . S
O59 C33 1.289 . S
O59 Mg36 2.238 . S
O59 Mg37 2.106 . S
O60 Mg37 2.079 . S
O60 C42 1.245 . S
O61 Mg40 2.038 . S
O61 C42 1.274 . S
C62 O74 1.241 . S
C62 O75 1.280 . S
C63 O76 1.277 . S
C63 O77 1.245 . S
C64 O88 1.247 . S
C64 O90 1.289 . S
Mg65 O66 1.926 . S
Mg65 O75 1.984 . S
Mg65 O77 1.988 . S
Mg65 O78 2.061 . S
O66 Mg65 1.926 . S
O66 Mg67 1.986 . S
O66 Mg68 1.917 . S
Mg67 O66 1.986 . S
Mg67 O74 2.042 . S
Mg67 O76 2.041 . S
Mg67 O82 2.038 . S
Mg67 O90 2.238 . S
Mg68 O66 1.917 . S
Mg68 O69 1.917 . S
Mg68 O79 2.106 . S
Mg68 O81 2.079 . S
Mg68 O90 2.106 . S
Mg68 O91 2.079 . S
O69 Mg68 1.917 . S
O69 Mg70 1.926 . S
O69 Mg71 1.986 . S
Mg70 O69 1.926 . S
Mg70 O84 1.984 . S
Mg70 O87 1.988 . S
Mg70 O88 2.061 . S
Mg71 O69 1.986 . S
Mg71 O79 2.238 . S
Mg71 O83 2.042 . S
Mg71 O85 2.041 . S
Mg71 O92 2.038 . S
C72 O78 1.247 . S
C72 O79 1.289 . S
C73 O91 1.245 . S
C73 O92 1.274 . S
O74 C62 1.241 . S
O74 Mg67 2.042 . S
O75 C62 1.280 . S
O75 Mg65 1.984 . S
O76 C63 1.277 . S
O76 Mg67 2.041 . S
O77 C63 1.245 . S
O77 Mg65 1.988 . S
O78 Mg65 2.061 . S
O78 C72 1.247 . S
O79 Mg68 2.106 . S
O79 Mg71 2.238 . S
O79 C72 1.289 . S
C80 O81 1.245 . S
C80 O82 1.274 . S
O81 Mg68 2.079 . S
O81 C80 1.245 . S
O82 Mg67 2.038 . S
O82 C80 1.274 . S
O83 Mg71 2.042 . S
O83 C86 1.241 . S
O84 Mg70 1.984 . S
O84 C86 1.280 . S
O85 Mg71 2.041 . S
O85 C89 1.277 . S
C86 O83 1.241 . S
C86 O84 1.280 . S
O87 Mg70 1.988 . S
O87 C89 1.245 . S
O88 C64 1.247 . S
O88 Mg70 2.061 . S
C89 O85 1.277 . S
C89 O87 1.245 . S
O90 C64 1.289 . S
O90 Mg67 2.238 . S
O90 Mg68 2.106 . S
O91 Mg68 2.079 . S
O91 C73 1.245 . S
O92 Mg71 2.038 . S
O92 C73 1.274 . S
C93 O105 1.241 . S
C93 O106 1.280 1_655 S
C94 O107 1.277 . S
C94 O108 1.245 . S
C95 O119 1.247 . S
C95 O121 1.289 . S
Mg96 O97 1.926 . S
Mg96 O106 1.984 1_655 S
Mg96 O108 1.988 . S
Mg96 O109 2.061 . S
O97 Mg96 1.926 . S
O97 Mg98 1.986 . S
O97 Mg99 1.917 . S
Mg98 O97 1.986 . S
Mg98 O105 2.042 . S
Mg98 O107 2.041 . S
Mg98 O113 2.038 . S
Mg98 O121 2.238 . S
Mg99 O97 1.917 . S
Mg99 O100 1.917 . S
Mg99 O110 2.106 . S
Mg99 O112 2.079 . S
Mg99 O121 2.106 . S
Mg99 O122 2.079 . S
O100 Mg99 1.917 . S
O100 Mg101 1.926 . S
O100 Mg102 1.986 . S
Mg101 O100 1.926 . S
Mg101 O115 1.984 . S
Mg101 O118 1.988 . S
Mg101 O119 2.061 . S
Mg102 O100 1.986 . S
Mg102 O110 2.238 . S
Mg102 O114 2.042 . S
Mg102 O116 2.041 . S
Mg102 O123 2.038 . S
C103 O109 1.247 . S
C103 O110 1.289 . S
C104 O122 1.245 . S
C104 O123 1.274 . S
O105 C93 1.241 . S
O105 Mg98 2.042 . S
O106 C93 1.280 1_455 S
O106 Mg96 1.984 1_455 S
O107 C94 1.277 . S
O107 Mg98 2.041 . S
O108 C94 1.245 . S
O108 Mg96 1.988 . S
O109 Mg96 2.061 . S
O109 C103 1.247 . S
O110 Mg99 2.106 . S
O110 Mg102 2.238 . S
O110 C103 1.289 . S
C111 O112 1.245 . S
C111 O113 1.274 . S
O112 Mg99 2.079 . S
O112 C111 1.245 . S
O113 Mg98 2.038 . S
O113 C111 1.274 . S
O114 Mg102 2.042 . S
O114 C117 1.241 . S
O115 Mg101 1.984 . S
O115 C117 1.280 . S
O116 Mg102 2.041 . S
O116 C120 1.277 . S
C117 O114 1.241 . S
C117 O115 1.280 . S
O118 Mg101 1.988 . S
O118 C120 1.245 . S
O119 C95 1.247 . S
O119 Mg101 2.061 . S
C120 O116 1.277 . S
C120 O118 1.245 . S
O121 C95 1.289 . S
O121 Mg98 2.238 . S
O121 Mg99 2.106 . S
O122 Mg99 2.079 . S
O122 C104 1.245 . S
O123 Mg102 2.038 . S
O123 C104 1.274 . S
C124 O136 1.241 . S
C124 O137 1.280 1_565 S
C125 O138 1.277 . S
C125 O139 1.245 . S
C126 O150 1.247 . S
C126 O152 1.289 . S
Mg127 O128 1.926 . S
Mg127 O137 1.984 1_565 S
Mg127 O139 1.988 . S
Mg127 O140 2.061 . S
O128 Mg127 1.926 . S
O128 Mg129 1.986 . S
O128 Mg130 1.917 . S
Mg129 O128 1.986 . S
Mg129 O136 2.042 . S
Mg129 O138 2.041 . S
Mg129 O144 2.038 . S
Mg129 O152 2.238 . S
Mg130 O128 1.917 . S
Mg130 O131 1.917 . S
Mg130 O141 2.106 . S
Mg130 O143 2.079 . S
Mg130 O152 2.106 . S
Mg130 O153 2.079 . S
O131 Mg130 1.917 . S
O131 Mg132 1.926 . S
O131 Mg133 1.986 . S
Mg132 O131 1.926 . S
Mg132 O146 1.984 . S
Mg132 O149 1.988 . S
Mg132 O150 2.061 . S
Mg133 O131 1.986 . S
Mg133 O141 2.238 . S
Mg133 O145 2.042 . S
Mg133 O147 2.041 . S
Mg133 O154 2.038 . S
C134 O140 1.247 . S
C134 O141 1.289 . S
C135 O153 1.245 . S
C135 O154 1.274 . S
O136 C124 1.241 . S
O136 Mg129 2.042 . S
O137 C124 1.280 1_545 S
O137 Mg127 1.984 1_545 S
O138 C125 1.277 . S
O138 Mg129 2.041 . S
O139 C125 1.245 . S
O139 Mg127 1.988 . S
O140 Mg127 2.061 . S
O140 C134 1.247 . S
O141 Mg130 2.106 . S
O141 Mg133 2.238 . S
O141 C134 1.289 . S
C142 O143 1.245 . S
C142 O144 1.274 . S
O143 Mg130 2.079 . S
O143 C142 1.245 . S
O144 Mg129 2.038 . S
O144 C142 1.274 . S
O145 Mg133 2.042 . S
O145 C148 1.241 . S
O146 Mg132 1.984 . S
O146 C148 1.280 . S
O147 Mg133 2.041 . S
O147 C151 1.277 . S
C148 O145 1.241 . S
C148 O146 1.280 . S
O149 Mg132 1.988 . S
O149 C151 1.245 . S
O150 C126 1.247 . S
O150 Mg132 2.061 . S
C151 O147 1.277 . S
C151 O149 1.245 . S
O152 C126 1.289 . S
O152 Mg129 2.238 . S
O152 Mg130 2.106 . S
O153 Mg130 2.079 . S
O153 C135 1.245 . S
O154 Mg133 2.038 . S
O154 C135 1.274 . S
C155 O167 1.241 . S
C155 O168 1.280 . S
C156 O169 1.277 . S
C156 O170 1.245 . S
C157 O181 1.247 . S
C157 O183 1.289 . S
Mg158 O159 1.926 . S
Mg158 O168 1.984 . S
Mg158 O170 1.988 . S
Mg158 O171 2.061 . S
O159 Mg158 1.926 . S
O159 Mg160 1.986 . S
O159 Mg161 1.917 . S
Mg160 O159 1.986 . S
Mg160 O167 2.042 . S
Mg160 O169 2.041 . S
Mg160 O175 2.038 . S
Mg160 O183 2.238 . S
Mg161 O159 1.917 . S
Mg161 O162 1.917 . S
Mg161 O172 2.106 . S
Mg161 O174 2.079 . S
Mg161 O183 2.106 . S
Mg161 O184 2.079 . S
O162 Mg161 1.917 . S
O162 Mg163 1.926 . S
O162 Mg164 1.986 . S
Mg163 O162 1.926 . S
Mg163 O177 1.984 . S
Mg163 O180 1.988 . S
Mg163 O181 2.061 . S
Mg164 O162 1.986 . S
Mg164 O172 2.238 . S
Mg164 O176 2.042 . S
Mg164 O178 2.041 . S
Mg164 O185 2.038 . S
C165 O171 1.247 . S
C165 O172 1.289 . S
C166 O184 1.245 . S
C166 O185 1.274 . S
O167 C155 1.241 . S
O167 Mg160 2.042 . S
O168 C155 1.280 . S
O168 Mg158 1.984 . S
O169 C156 1.277 . S
O169 Mg160 2.041 . S
O170 C156 1.245 . S
O170 Mg158 1.988 . S
O171 Mg158 2.061 . S
O171 C165 1.247 . S
O172 Mg161 2.106 . S
O172 Mg164 2.238 . S
O172 C165 1.289 . S
C173 O174 1.245 . S
C173 O175 1.274 . S
O174 Mg161 2.079 . S
O174 C173 1.245 . S
O175 Mg160 2.038 . S
O175 C173 1.274 . S
O176 Mg164 2.042 . S
O176 C179 1.241 . S
O177 Mg163 1.984 . S
O177 C179 1.280 . S
O178 Mg164 2.041 . S
O178 C182 1.277 . S
C179 O176 1.241 . S
C179 O177 1.280 . S
O180 Mg163 1.988 . S
O180 C182 1.245 . S
O181 C157 1.247 . S
O181 Mg163 2.061 . S
C182 O178 1.277 . S
C182 O180 1.245 . S
O183 C157 1.289 . S
O183 Mg160 2.238 . S
O183 Mg161 2.106 . S
O184 Mg161 2.079 . S
O184 C166 1.245 . S
O185 Mg164 2.038 . S
O185 C166 1.274 . S
H186 C198 0.930 . S
H187 C200 0.930 . S
H188 C201 0.930 . S
H189 C205 0.959 . S
H190 C205 0.959 . S
H191 C205 0.961 . S
H192 C206 0.960 . S
H193 C206 0.961 . S
H194 C206 0.959 . S
H195 C209 0.929 . S
H196 C210 0.931 . S
H197 C212 0.930 . S
C198 H186 0.930 . S
C198 C199 1.399 . S
C198 C203 1.399 . S
C199 C198 1.399 . S
C199 C200 1.376 . S
C200 H187 0.930 . S
C200 C199 1.376 . S
C200 C201 1.388 . S
C201 H188 0.930 . S
C201 C200 1.388 . S
C201 C202 1.390 . S
C202 C201 1.390 . S
C202 C203 1.394 . S
C202 C208 1.465 . S
C203 C198 1.399 . S
C203 C202 1.394 . S
C203 C204 1.516 . S
C204 C203 1.516 . S
C204 C205 1.502 . S
C204 C206 1.561 . S
C204 C207 1.526 . S
C205 H189 0.959 . S
C205 H190 0.959 . S
C205 H191 0.961 . S
C205 C204 1.502 . S
C206 H192 0.960 . S
C206 H193 0.961 . S
C206 H194 0.959 . S
C206 C204 1.561 . S
C207 C204 1.526 . S
C207 C208 1.396 . S
C207 C212 1.390 . S
C208 C202 1.465 . S
C208 C207 1.396 . S
C208 C209 1.399 . S
C209 H195 0.929 . S
C209 C208 1.399 . S
C209 C210 1.385 . S
C210 H196 0.931 . S
C210 C209 1.385 . S
C210 C211 1.389 . S
C211 C210 1.389 . S
C211 C212 1.387 . S
C212 H197 0.930 . S
C212 C207 1.390 . S
C212 C211 1.387 . S
H213 C225 0.930 . S
H214 C227 0.930 . S
H215 C228 0.930 . S
H216 C232 0.959 . S
H217 C232 0.959 . S
H218 C232 0.961 . S
H219 C233 0.960 . S
H220 C233 0.961 . S
H221 C233 0.959 . S
H222 C236 0.929 . S
H223 C237 0.931 . S
H224 C239 0.930 . S
C225 H213 0.930 . S
C225 C226 1.399 . S
C225 C230 1.399 . S
C226 C225 1.399 . S
C226 C227 1.376 . S
C227 H214 0.930 . S
C227 C226 1.376 . S
C227 C228 1.388 . S
C228 H215 0.930 . S
C228 C227 1.388 . S
C228 C229 1.390 . S
C229 C228 1.390 . S
C229 C230 1.394 . S
C229 C235 1.465 . S
C230 C225 1.399 . S
C230 C229 1.394 . S
C230 C231 1.516 . S
C231 C230 1.516 . S
C231 C232 1.502 . S
C231 C233 1.561 . S
C231 C234 1.526 . S
C232 H216 0.959 . S
C232 H217 0.959 . S
C232 H218 0.961 . S
C232 C231 1.502 . S
C233 H219 0.960 . S
C233 H220 0.961 . S
C233 H221 0.959 . S
C233 C231 1.561 . S
C234 C231 1.526 . S
C234 C235 1.396 . S
C234 C239 1.390 . S
C235 C229 1.465 . S
C235 C234 1.396 . S
C235 C236 1.399 . S
C236 H222 0.929 . S
C236 C235 1.399 . S
C236 C237 1.385 . S
C237 H223 0.931 . S
C237 C236 1.385 . S
C237 C238 1.389 . S
C238 C237 1.389 . S
C238 C239 1.387 . S
C239 H224 0.930 . S
C239 C234 1.390 . S
C239 C238 1.387 . S
H240 C252 0.930 . S
H241 C254 0.930 . S
H242 C255 0.930 . S
H243 C259 0.959 . S
H244 C259 0.959 . S
H245 C259 0.961 . S
H246 C260 0.960 . S
H247 C260 0.961 . S
H248 C260 0.959 . S
H249 C263 0.929 . S
H250 C264 0.931 . S
H251 C266 0.930 . S
C252 H240 0.930 . S
C252 C253 1.399 . S
C252 C257 1.399 . S
C253 C252 1.399 . S
C253 C254 1.376 . S
C254 H241 0.930 . S
C254 C253 1.376 . S
C254 C255 1.388 . S
C255 H242 0.930 . S
C255 C254 1.388 . S
C255 C256 1.390 . S
C256 C255 1.390 . S
C256 C257 1.394 . S
C256 C262 1.465 . S
C257 C252 1.399 . S
C257 C256 1.394 . S
C257 C258 1.516 . S
C258 C257 1.516 . S
C258 C259 1.502 . S
C258 C260 1.561 . S
C258 C261 1.526 . S
C259 H243 0.959 . S
C259 H244 0.959 . S
C259 H245 0.961 . S
C259 C258 1.502 . S
C260 H246 0.960 . S
C260 H247 0.961 . S
C260 H248 0.959 . S
C260 C258 1.561 . S
C261 C258 1.526 . S
C261 C262 1.396 . S
C261 C266 1.390 . S
C262 C256 1.465 . S
C262 C261 1.396 . S
C262 C263 1.399 . S
C263 H249 0.929 . S
C263 C262 1.399 . S
C263 C264 1.385 . S
C264 H250 0.931 . S
C264 C263 1.385 . S
C264 C265 1.389 . S
C265 C264 1.389 . S
C265 C266 1.387 . S
C266 H251 0.930 . S
C266 C261 1.390 . S
C266 C265 1.387 . S
H267 C279 0.930 . S
H268 C281 0.930 . S
H269 C282 0.930 . S
H270 C286 0.959 . S
H271 C286 0.959 . S
H272 C286 0.961 . S
H273 C287 0.960 . S
H274 C287 0.961 . S
H275 C287 0.959 . S
H276 C290 0.929 . S
H277 C291 0.931 . S
H278 C293 0.930 . S
C279 H267 0.930 . S
C279 C280 1.399 . S
C279 C284 1.399 . S
C280 C279 1.399 . S
C280 C281 1.376 . S
C281 H268 0.930 . S
C281 C280 1.376 . S
C281 C282 1.388 . S
C282 H269 0.930 . S
C282 C281 1.388 . S
C282 C283 1.390 . S
C283 C282 1.390 . S
C283 C284 1.394 . S
C283 C289 1.465 . S
C284 C279 1.399 . S
C284 C283 1.394 . S
C284 C285 1.516 . S
C285 C284 1.516 . S
C285 C286 1.502 . S
C285 C287 1.561 . S
C285 C288 1.526 . S
C286 H270 0.959 . S
C286 H271 0.959 . S
C286 H272 0.961 . S
C286 C285 1.502 . S
C287 H273 0.960 . S
C287 H274 0.961 . S
C287 H275 0.959 . S
C287 C285 1.561 . S
C288 C285 1.526 . S
C288 C289 1.396 . S
C288 C293 1.390 . S
C289 C283 1.465 . S
C289 C288 1.396 . S
C289 C290 1.399 . S
C290 H276 0.929 . S
C290 C289 1.399 . S
C290 C291 1.385 . S
C291 H277 0.931 . S
C291 C290 1.385 . S
C291 C292 1.389 . S
C292 C291 1.389 . S
C292 C293 1.387 . S
C293 H278 0.930 . S
C293 C288 1.390 . S
C293 C292 1.387 . S
H294 C306 0.930 . S
H295 C308 0.930 . S
H296 C309 0.930 . S
H297 C313 0.959 . S
H298 C313 0.959 . S
H299 C313 0.961 . S
H300 C314 0.960 . S
H301 C314 0.961 . S
H302 C314 0.959 . S
H303 C317 0.929 . S
H304 C318 0.931 . S
H305 C320 0.930 . S
C306 H294 0.930 . S
C306 C307 1.399 . S
C306 C311 1.399 . S
C307 C306 1.399 . S
C307 C308 1.376 . S
C308 H295 0.930 . S
C308 C307 1.376 . S
C308 C309 1.388 . S
C309 H296 0.930 . S
C309 C308 1.388 . S
C309 C310 1.390 . S
C310 C309 1.390 . S
C310 C311 1.394 . S
C310 C316 1.465 . S
C311 C306 1.399 . S
C311 C310 1.394 . S
C311 C312 1.516 . S
C312 C311 1.516 . S
C312 C313 1.502 . S
C312 C314 1.561 . S
C312 C315 1.526 . S
C313 H297 0.959 . S
C313 H298 0.959 . S
C313 H299 0.961 . S
C313 C312 1.502 . S
C314 H300 0.960 . S
C314 H301 0.961 . S
C314 H302 0.959 . S
C314 C312 1.561 . S
C315 C312 1.526 . S
C315 C316 1.396 . S
C315 C320 1.390 . S
C316 C310 1.465 . S
C316 C315 1.396 . S
C316 C317 1.399 . S
C317 H303 0.929 . S
C317 C316 1.399 . S
C317 C318 1.385 . S
C318 H304 0.931 . S
C318 C317 1.385 . S
C318 C319 1.389 . S
C319 C318 1.389 . S
C319 C320 1.387 . S
C320 H305 0.930 . S
C320 C315 1.390 . S
C320 C319 1.387 . S
H321 C333 0.930 . S
H322 C335 0.930 . S
H323 C336 0.930 . S
H324 C340 0.959 . S
H325 C340 0.959 . S
H326 C340 0.961 . S
H327 C341 0.960 . S
H328 C341 0.961 . S
H329 C341 0.959 . S
H330 C344 0.929 . S
H331 C345 0.931 . S
H332 C347 0.930 . S
C333 H321 0.930 . S
C333 C334 1.399 . S
C333 C338 1.399 . S
C334 C333 1.399 . S
C334 C335 1.376 . S
C335 H322 0.930 . S
C335 C334 1.376 . S
C335 C336 1.388 . S
C336 H323 0.930 . S
C336 C335 1.388 . S
C336 C337 1.390 . S
C337 C336 1.390 . S
C337 C338 1.394 . S
C337 C343 1.465 . S
C338 C333 1.399 . S
C338 C337 1.394 . S
C338 C339 1.516 . S
C339 C338 1.516 . S
C339 C340 1.502 . S
C339 C341 1.561 . S
C339 C342 1.526 . S
C340 H324 0.959 . S
C340 H325 0.959 . S
C340 H326 0.961 . S
C340 C339 1.502 . S
C341 H327 0.960 . S
C341 H328 0.961 . S
C341 H329 0.959 . S
C341 C339 1.561 . S
C342 C339 1.526 . S
C342 C343 1.396 . S
C342 C347 1.390 . S
C343 C337 1.465 . S
C343 C342 1.396 . S
C343 C344 1.399 . S
C344 H330 0.929 . S
C344 C343 1.399 . S
C344 C345 1.385 . S
C345 H331 0.931 . S
C345 C344 1.385 . S
C345 C346 1.389 . S
C346 C345 1.389 . S
C346 C347 1.387 . S
C347 H332 0.930 . S
C347 C342 1.390 . S
C347 C346 1.387 . S
H348 C360 0.930 . S
H349 C362 0.930 . S
H350 C363 0.930 . S
H351 C367 0.959 . S
H352 C367 0.959 . S
H353 C367 0.961 . S
H354 C368 0.960 . S
H355 C368 0.961 . S
H356 C368 0.959 . S
H357 C371 0.929 . S
H358 C372 0.931 . S
H359 C374 0.940 . S
C360 H348 0.930 . S
C360 C361 1.399 . S
C360 C365 1.399 . S
C361 C360 1.399 . S
C361 C362 1.376 . S
C362 H349 0.930 . S
C362 C361 1.376 . S
C362 C363 1.388 . S
C363 H350 0.930 . S
C363 C362 1.388 . S
C363 C364 1.390 . S
C364 C363 1.390 . S
C364 C365 1.394 . S
C364 C370 1.465 . S
C365 C360 1.399 . S
C365 C364 1.394 . S
C365 C366 1.516 . S
C366 C365 1.516 . S
C366 C367 1.502 . S
C366 C368 1.561 . S
C366 C369 1.526 . S
C367 H351 0.959 . S
C367 H352 0.959 . S
C367 H353 0.961 . S
C367 C366 1.502 . S
C368 H354 0.960 . S
C368 H355 0.961 . S
C368 H356 0.959 . S
C368 C366 1.561 . S
C369 C366 1.526 . S
C369 C370 1.396 . S
C369 C374 1.390 . S
C370 C364 1.465 . S
C370 C369 1.396 . S
C370 C371 1.399 . S
C371 H357 0.929 . S
C371 C370 1.399 . S
C371 C372 1.385 . S
C372 H358 0.931 . S
C372 C371 1.385 . S
C372 C373 1.389 . S
C373 C372 1.389 . S
C373 C374 1.387 . S
C374 H359 0.940 . S
C374 C369 1.390 . S
C374 C373 1.387 . S
H375 C387 0.930 . S
H376 C389 0.930 . S
H377 C390 0.930 . S
H378 C394 0.959 . S
H379 C394 0.959 . S
H380 C394 0.961 . S
H381 C395 0.960 1_655 S
H382 C395 0.961 . S
H383 C395 0.959 . S
H384 C398 0.929 . S
H385 C399 0.931 . S
H386 C401 0.930 . S
C387 H375 0.930 . S
C387 C388 1.399 . S
C387 C392 1.399 1_655 S
C388 C387 1.399 . S
C388 C389 1.376 . S
C389 H376 0.930 . S
C389 C388 1.376 . S
C389 C390 1.388 1_655 S
C390 H377 0.930 . S
C390 C389 1.388 1_455 S
C390 C391 1.390 . S
C391 C390 1.390 . S
C391 C392 1.394 . S
C391 C397 1.465 . S
C392 C387 1.399 1_455 S
C392 C391 1.394 . S
C392 C393 1.516 . S
C393 C392 1.516 . S
C393 C394 1.502 . S
C393 C395 1.561 . S
C393 C396 1.526 . S
C394 H378 0.959 . S
C394 H379 0.959 . S
C394 H380 0.961 . S
C394 C393 1.502 . S
C395 H381 0.960 1_455 S
C395 H382 0.961 . S
C395 H383 0.959 . S
C395 C393 1.561 . S
C396 C393 1.526 . S
C396 C397 1.396 . S
C396 C401 1.390 . S
C397 C391 1.465 . S
C397 C396 1.396 . S
C397 C398 1.399 . S
C398 H384 0.929 . S
C398 C397 1.399 . S
C398 C399 1.385 . S
C399 H385 0.931 . S
C399 C398 1.385 . S
C399 C400 1.389 . S
C400 C399 1.389 . S
C400 C401 1.387 . S
C401 H386 0.930 . S
C401 C396 1.390 . S
C401 C400 1.387 . S
H402 C414 0.930 . S
H403 C416 0.930 1_455 S
H404 C417 0.930 . S
H405 C421 0.959 . S
H406 C421 0.959 . S
H407 C421 0.961 . S
H408 C422 0.960 . S
H409 C422 0.961 . S
H410 C422 0.959 . S
H411 C425 0.929 . S
H412 C426 0.931 . S
H413 C428 0.930 . S
C414 H402 0.930 . S
C414 C415 1.399 . S
C414 C419 1.399 . S
C415 C414 1.399 . S
C415 C416 1.376 . S
C416 H403 0.930 1_655 S
C416 C415 1.376 . S
C416 C417 1.388 . S
C417 H404 0.930 . S
C417 C416 1.388 . S
C417 C418 1.390 . S
C418 C417 1.390 . S
C418 C419 1.394 . S
C418 C424 1.465 . S
C419 C414 1.399 . S
C419 C418 1.394 . S
C419 C420 1.516 . S
C420 C419 1.516 . S
C420 C421 1.502 . S
C420 C422 1.561 . S
C420 C423 1.526 . S
C421 H405 0.959 . S
C421 H406 0.959 . S
C421 H407 0.961 . S
C421 C420 1.502 . S
C422 H408 0.960 . S
C422 H409 0.961 . S
C422 H410 0.959 . S
C422 C420 1.561 . S
C423 C420 1.526 . S
C423 C424 1.396 . S
C423 C428 1.390 1_545 S
C424 C418 1.465 . S
C424 C423 1.396 . S
C424 C425 1.399 1_545 S
C425 H411 0.929 . S
C425 C424 1.399 1_565 S
C425 C426 1.385 . S
C426 H412 0.931 . S
C426 C425 1.385 . S
C426 C427 1.389 . S
C427 C426 1.389 . S
C427 C428 1.387 . S
C428 H413 0.930 . S
C428 C423 1.390 1_565 S
C428 C427 1.387 . S
H429 C441 0.930 . S
H430 C443 0.930 . S
H431 C444 0.930 . S
H432 C448 0.959 . S
H433 C448 0.959 . S
H434 C448 0.961 . S
H435 C449 0.960 . S
H436 C449 0.961 . S
H437 C449 0.959 . S
H438 C452 0.929 . S
H439 C453 0.931 . S
H440 C455 0.930 . S
C441 H429 0.930 . S
C441 C442 1.399 . S
C441 C446 1.399 . S
C442 C441 1.399 . S
C442 C443 1.376 . S
C443 H430 0.930 . S
C443 C442 1.376 . S
C443 C444 1.388 . S
C444 H431 0.930 . S
C444 C443 1.388 . S
C444 C445 1.390 . S
C445 C444 1.390 . S
C445 C446 1.394 . S
C445 C451 1.465 . S
C446 C441 1.399 . S
C446 C445 1.394 . S
C446 C447 1.516 . S
C447 C446 1.516 . S
C447 C448 1.502 . S
C447 C449 1.561 . S
C447 C450 1.526 . S
C448 H432 0.959 . S
C448 H433 0.959 . S
C448 H434 0.961 . S
C448 C447 1.502 . S
C449 H435 0.960 . S
C449 H436 0.961 . S
C449 H437 0.959 . S
C449 C447 1.561 . S
C450 C447 1.526 . S
C450 C451 1.396 . S
C450 C455 1.390 . S
C451 C445 1.465 . S
C451 C450 1.396 . S
C451 C452 1.399 . S
C452 H438 0.929 . S
C452 C451 1.399 . S
C452 C453 1.385 . S
C453 H439 0.931 . S
C453 C452 1.385 . S
C453 C454 1.389 . S
C454 C453 1.389 . S
C454 C455 1.387 . S
C455 H440 0.930 . S
C455 C450 1.390 . S
C455 C454 1.387 . S
H456 C468 0.930 . S
H457 C470 0.930 . S
H458 C471 0.930 . S
H459 C475 0.959 . S
H460 C475 0.959 . S
H461 C475 0.961 . S
H462 C476 0.960 . S
H463 C476 0.961 . S
H464 C476 0.959 . S
H465 C479 0.929 . S
H466 C480 0.931 . S
H467 C482 0.930 . S
C468 H456 0.930 . S
C468 C469 1.399 . S
C468 C473 1.399 . S
C469 C468 1.399 . S
C469 C470 1.376 . S
C470 H457 0.930 . S
C470 C469 1.376 . S
C470 C471 1.388 . S
C471 H458 0.930 . S
C471 C470 1.388 . S
C471 C472 1.390 . S
C472 C471 1.390 . S
C472 C473 1.394 . S
C472 C478 1.465 . S
C473 C468 1.399 . S
C473 C472 1.394 . S
C473 C474 1.516 . S
C474 C473 1.516 . S
C474 C475 1.502 . S
C474 C476 1.561 . S
C474 C477 1.526 . S
C475 H459 0.959 . S
C475 H460 0.959 . S
C475 H461 0.961 . S
C475 C474 1.502 . S
C476 H462 0.960 . S
C476 H463 0.961 . S
C476 H464 0.959 . S
C476 C474 1.561 . S
C477 C474 1.526 . S
C477 C478 1.396 . S
C477 C482 1.390 1_655 S
C478 C472 1.465 . S
C478 C477 1.396 . S
C478 C479 1.399 1_655 S
C479 H465 0.929 . S
C479 C478 1.399 1_455 S
C479 C480 1.385 . S
C480 H466 0.931 . S
C480 C479 1.385 . S
C480 C481 1.389 . S
C481 C480 1.389 . S
C481 C482 1.387 . S
C482 H467 0.930 . S
C482 C477 1.390 1_455 S
C482 C481 1.387 . S
H483 C495 0.930 . S
H484 C497 0.930 . S
H485 C498 0.930 . S
H486 C502 0.959 . S
H487 C502 0.959 . S
H488 C502 0.961 . S
H489 C503 0.960 1_545 S
H490 C503 0.961 . S
H491 C503 0.959 . S
H492 C506 0.929 . S
H493 C507 0.931 . S
H494 C509 0.930 . S
C495 H483 0.930 . S
C495 C496 1.399 . S
C495 C500 1.399 1_545 S
C496 C495 1.399 . S
C496 C497 1.376 . S
C497 H484 0.930 . S
C497 C496 1.376 . S
C497 C498 1.388 . S
C498 H485 0.930 . S
C498 C497 1.388 . S
C498 C499 1.390 1_545 S
C499 C498 1.390 1_565 S
C499 C500 1.394 . S
C499 C505 1.465 . S
C500 C495 1.399 1_565 S
C500 C499 1.394 . S
C500 C501 1.516 . S
C501 C500 1.516 . S
C501 C502 1.502 . S
C501 C503 1.561 . S
C501 C504 1.526 . S
C502 H486 0.959 . S
C502 H487 0.959 . S
C502 H488 0.961 . S
C502 C501 1.502 . S
C503 H489 0.960 1_565 S
C503 H490 0.961 . S
C503 H491 0.959 . S
C503 C501 1.561 . S
C504 C501 1.526 . S
C504 C505 1.396 . S
C504 C509 1.390 . S
C505 C499 1.465 . S
C505 C504 1.396 . S
C505 C506 1.399 . S
C506 H492 0.929 . S
C506 C505 1.399 . S
C506 C507 1.385 . S
C507 H493 0.931 . S
C507 C506 1.385 . S
C507 C508 1.389 . S
C508 C507 1.389 . S
C508 C509 1.387 . S
C509 H494 0.930 . S
C509 C504 1.390 . S
C509 C508 1.387 . S
H510 C522 0.930 . S
H511 C524 0.930 . S
H512 C525 0.930 . S
H513 C529 0.959 1_554 S
H514 C529 0.959 . S
H515 C529 0.965 . S
H516 C530 0.960 . S
H517 C530 0.961 . S
H518 C530 0.959 . S
H519 C533 0.929 1_554 S
H520 C534 0.931 . S
H521 C536 0.930 . S
C522 H510 0.930 . S
C522 C523 1.399 . S
C522 C527 1.399 . S
C523 C522 1.399 . S
C523 C524 1.376 . S
C524 H511 0.930 . S
C524 C523 1.376 . S
C524 C525 1.388 . S
C525 H512 0.930 . S
C525 C524 1.388 . S
C525 C526 1.390 . S
C526 C525 1.390 . S
C526 C527 1.394 . S
C526 C532 1.465 1_554 S
C527 C522 1.399 . S
C527 C526 1.394 . S
C527 C528 1.516 1_554 S
C528 C527 1.516 1_556 S
C528 C529 1.502 . S
C528 C530 1.561 . S
C528 C531 1.526 . S
C529 H513 0.959 1_556 S
C529 H514 0.959 . S
C529 H515 0.965 . S
C529 C528 1.502 . S
C530 H516 0.960 . S
C530 H517 0.961 . S
C530 H518 0.959 . S
C530 C528 1.561 . S
C531 C528 1.526 . S
C531 C532 1.396 . S
C531 C536 1.390 . S
C532 C526 1.465 1_556 S
C532 C531 1.396 . S
C532 C533 1.399 . S
C533 H519 0.929 1_556 S
C533 C532 1.399 . S
C533 C534 1.385 . S
C534 H520 0.931 . S
C534 C533 1.385 . S
C534 C535 1.389 . S
C535 C534 1.389 . S
C535 C536 1.387 . S
C536 H521 0.930 . S
C536 C531 1.390 . S
C536 C535 1.387 . S
H537 C549 0.930 . S
H538 C551 0.930 . S
H539 C552 0.930 . S
H540 C556 0.959 . S
H541 C556 0.959 1_455 S
H542 C556 0.961 . S
H543 C557 0.960 . S
H544 C557 0.961 . S
H545 C557 0.959 . S
H546 C560 0.929 . S
H547 C561 0.931 . S
H548 C563 0.930 . S
C549 H537 0.930 . S
C549 C550 1.399 . S
C549 C554 1.399 . S
C550 C549 1.399 . S
C550 C551 1.376 . S
C551 H538 0.930 . S
C551 C550 1.376 . S
C551 C552 1.388 . S
C552 H539 0.930 . S
C552 C551 1.388 . S
C552 C553 1.390 . S
C553 C552 1.390 . S
C553 C554 1.394 . S
C553 C559 1.465 1_655 S
C554 C549 1.399 . S
C554 C553 1.394 . S
C554 C555 1.516 1_655 S
C555 C554 1.516 1_455 S
C555 C556 1.502 1_455 S
C555 C557 1.561 . S
C555 C558 1.526 . S
C556 H540 0.959 . S
C556 H541 0.959 1_655 S
C556 H542 0.961 . S
C556 C555 1.502 1_655 S
C557 H543 0.960 . S
C557 H544 0.961 . S
C557 H545 0.959 . S
C557 C555 1.561 . S
C558 C555 1.526 . S
C558 C559 1.396 . S
C558 C563 1.390 . S
C559 C553 1.465 1_455 S
C559 C558 1.396 . S
C559 C560 1.399 . S
C560 H546 0.929 . S
C560 C559 1.399 . S
C560 C561 1.385 . S
C561 H547 0.931 . S
C561 C560 1.385 . S
C561 C562 1.389 . S
C562 C561 1.389 . S
C562 C563 1.387 . S
C563 H548 0.930 . S
C563 C558 1.390 . S
C563 C562 1.387 . S
H564 C576 0.930 . S
H565 C578 0.930 . S
H566 C579 0.930 . S
H567 C583 0.959 . S
H568 C583 0.959 . S
H569 C583 0.961 . S
H570 C584 0.960 . S
H571 C584 0.961 . S
H572 C584 0.959 . S
H573 C587 0.929 1_554 S
H574 C588 0.931 . S
H575 C590 0.930 . S
C576 H564 0.930 . S
C576 C577 1.399 . S
C576 C581 1.399 . S
C577 C576 1.399 . S
C577 C578 1.376 . S
C578 H565 0.930 . S
C578 C577 1.376 . S
C578 C579 1.388 1_565 S
C579 H566 0.930 . S
C579 C578 1.388 1_545 S
C579 C580 1.390 1_545 S
C580 C579 1.390 1_565 S
C580 C581 1.394 . S
C580 C586 1.465 1_564 S
C581 C576 1.399 . S
C581 C580 1.394 . S
C581 C582 1.516 1_554 S
C582 C581 1.516 1_556 S
C582 C583 1.502 . S
C582 C584 1.561 . S
C582 C585 1.526 . S
C583 H567 0.959 . S
C583 H568 0.959 . S
C583 H569 0.961 . S
C583 C582 1.502 . S
C584 H570 0.960 . S
C584 H571 0.961 . S
C584 H572 0.959 . S
C584 C582 1.561 . S
C585 C582 1.526 . S
C585 C586 1.396 1_565 S
C585 C590 1.390 . S
C586 C580 1.465 1_546 S
C586 C585 1.396 1_545 S
C586 C587 1.399 . S
C587 H573 0.929 1_556 S
C587 C586 1.399 . S
C587 C588 1.385 . S
C588 H574 0.931 . S
C588 C587 1.385 . S
C588 C589 1.389 . S
C589 C588 1.389 . S
C589 C590 1.387 1_545 S
C590 H575 0.930 . S
C590 C585 1.390 . S
C590 C589 1.387 1_565 S
H591 C603 0.930 . S
H592 C605 0.930 . S
H593 C606 0.930 . S
H594 C610 0.959 . S
H595 C610 0.959 . S
H596 C610 0.961 . S
H597 C611 0.960 . S
H598 C611 0.961 . S
H599 C611 0.959 . S
H600 C614 0.929 . S
H601 C615 0.931 . S
H602 C617 0.930 . S
C603 H591 0.930 . S
C603 C604 1.399 . S
C603 C608 1.399 . S
C604 C603 1.399 . S
C604 C605 1.376 . S
C605 H592 0.930 . S
C605 C604 1.376 . S
C605 C606 1.388 . S
C606 H593 0.930 . S
C606 C605 1.388 . S
C606 C607 1.390 . S
C607 C606 1.390 . S
C607 C608 1.394 . S
C607 C613 1.465 . S
C608 C603 1.399 . S
C608 C607 1.394 . S
C608 C609 1.516 . S
C609 C608 1.516 . S
C609 C610 1.502 . S
C609 C611 1.561 . S
C609 C612 1.526 . S
C610 H594 0.959 . S
C610 H595 0.959 . S
C610 H596 0.961 . S
C610 C609 1.502 . S
C611 H597 0.960 . S
C611 H598 0.961 . S
C611 H599 0.959 . S
C611 C609 1.561 . S
C612 C609 1.526 . S
C612 C613 1.396 . S
C612 C617 1.390 . S
C613 C607 1.465 . S
C613 C612 1.396 . S
C613 C614 1.399 . S
C614 H600 0.929 . S
C614 C613 1.399 . S
C614 C615 1.385 . S
C615 H601 0.931 . S
C615 C614 1.385 . S
C615 C616 1.389 . S
C616 C615 1.389 . S
C616 C617 1.387 . S
C617 H602 0.930 . S
C617 C612 1.390 . S
C617 C616 1.387 . S
H618 C630 0.930 . S
H619 C632 0.930 . S
H620 C633 0.930 . S
H621 C637 0.959 . S
H622 C637 0.959 . S
H623 C637 0.961 . S
H624 C638 0.960 1_556 S
H625 C638 0.961 1_455 S
H626 C638 0.959 1_456 S
H627 C641 0.929 . S
H628 C642 0.931 . S
H629 C644 0.930 . S
C630 H618 0.930 . S
C630 C631 1.399 . S
C630 C635 1.399 . S
C631 C630 1.399 . S
C631 C632 1.376 . S
C632 H619 0.930 . S
C632 C631 1.376 . S
C632 C633 1.388 1_655 S
C633 H620 0.930 . S
C633 C632 1.388 1_455 S
C633 C634 1.390 . S
C634 C633 1.390 . S
C634 C635 1.394 1_455 S
C634 C640 1.465 1_556 S
C635 C630 1.399 . S
C635 C634 1.394 1_655 S
C635 C636 1.516 1_556 S
C636 C635 1.516 1_554 S
C636 C637 1.502 . S
C636 C638 1.561 . S
C636 C639 1.526 1_655 S
C637 H621 0.959 . S
C637 H622 0.959 . S
C637 H623 0.961 . S
C637 C636 1.502 . S
C638 H624 0.960 1_554 S
C638 H625 0.961 1_655 S
C638 H626 0.959 1_654 S
C638 C636 1.561 . S
C639 C636 1.526 1_455 S
C639 C640 1.396 . S
C639 C644 1.390 . S
C640 C634 1.465 1_554 S
C640 C639 1.396 . S
C640 C641 1.399 . S
C641 H627 0.929 . S
C641 C640 1.399 . S
C641 C642 1.385 . S
C642 H628 0.931 . S
C642 C641 1.385 . S
C642 C643 1.389 . S
C643 C642 1.389 . S
C643 C644 1.387 . S
C644 H629 0.930 . S
C644 C639 1.390 . S
C644 C643 1.387 . S
H645 C657 0.930 . S
H646 C659 0.930 . S
H647 C660 0.930 . S
H648 C664 0.959 . S
H649 C664 0.959 . S
H650 C664 0.961 . S
H651 C665 0.960 . S
H652 C665 0.961 . S
H653 C665 0.959 . S
H654 C668 0.929 1_545 S
H655 C669 0.931 . S
H656 C671 0.930 . S
C657 H645 0.930 . S
C657 C658 1.399 . S
C657 C662 1.399 . S
C658 C657 1.399 . S
C658 C659 1.376 . S
C659 H646 0.930 . S
C659 C658 1.376 . S
C659 C660 1.388 . S
C660 H647 0.930 . S
C660 C659 1.388 . S
C660 C661 1.390 . S
C661 C660 1.390 . S
C661 C662 1.394 . S
C661 C667 1.465 . S
C662 C657 1.399 . S
C662 C661 1.394 . S
C662 C663 1.516 . S
C663 C662 1.516 . S
C663 C664 1.502 1_545 S
C663 C665 1.561 . S
C663 C666 1.526 1_545 S
C664 H648 0.959 . S
C664 H649 0.959 . S
C664 H650 0.961 . S
C664 C663 1.502 1_565 S
C665 H651 0.960 . S
C665 H652 0.961 . S
C665 H653 0.959 . S
C665 C663 1.561 . S
C666 C663 1.526 1_565 S
C666 C667 1.396 1_565 S
C666 C671 1.390 . S
C667 C661 1.465 . S
C667 C666 1.396 1_545 S
C667 C668 1.399 1_545 S
C668 H654 0.929 1_565 S
C668 C667 1.399 1_565 S
C668 C669 1.385 . S
C669 H655 0.931 . S
C669 C668 1.385 . S
C669 C670 1.389 . S
C670 C669 1.389 . S
C670 C671 1.387 . S
C671 H656 0.930 . S
C671 C666 1.390 . S
C671 C670 1.387 . S
H672 C684 0.930 . S
H673 C686 0.930 . S
H674 C687 0.930 . S
H675 C691 0.959 1_556 S
H676 C691 0.959 . S
H677 C691 0.961 1_556 S
H678 C692 0.960 . S
H679 C692 0.961 . S
H680 C692 0.959 . S
H681 C695 0.929 . S
H682 C696 0.931 . S
H683 C698 0.930 . S
C684 H672 0.930 . S
C684 C685 1.399 . S
C684 C689 1.399 . S
C685 C684 1.399 . S
C685 C686 1.376 . S
C686 H673 0.930 . S
C686 C685 1.376 . S
C686 C687 1.388 . S
C687 H674 0.930 . S
C687 C686 1.388 . S
C687 C688 1.390 . S
C688 C687 1.390 . S
C688 C689 1.394 . S
C688 C694 1.465 1_556 S
C689 C684 1.399 . S
C689 C688 1.394 . S
C689 C690 1.516 1_556 S
C690 C689 1.516 1_554 S
C690 C691 1.502 . S
C690 C692 1.561 . S
C690 C693 1.526 . S
C691 H675 0.959 1_554 S
C691 H676 0.959 . S
C691 H677 0.961 1_554 S
C691 C690 1.502 . S
C692 H678 0.960 . S
C692 H679 0.961 . S
C692 H680 0.959 . S
C692 C690 1.561 . S
C693 C690 1.526 . S
C693 C694 1.396 . S
C693 C698 1.390 . S
C694 C688 1.465 1_554 S
C694 C693 1.396 . S
C694 C695 1.399 . S
C695 H681 0.929 . S
C695 C694 1.399 . S
C695 C696 1.385 . S
C696 H682 0.931 . S
C696 C695 1.385 . S
C696 C697 1.389 . S
C697 C696 1.389 . S
C697 C698 1.387 . S
C698 H683 0.930 . S
C698 C693 1.390 . S
C698 C697 1.387 . S
H699 C711 0.930 . S
H700 C713 0.930 . S
H701 C714 0.930 1_655 S
H702 C718 0.959 . S
H703 C718 0.959 . S
H704 C718 0.961 . S
H705 C719 0.960 . S
H706 C719 0.961 . S
H707 C719 0.959 1_655 S
H708 C722 0.929 . S
H709 C723 0.931 . S
H710 C725 0.930 . S
C711 H699 0.930 . S
C711 C712 1.399 . S
C711 C716 1.399 . S
C712 C711 1.399 . S
C712 C713 1.376 . S
C713 H700 0.930 . S
C713 C712 1.376 . S
C713 C714 1.388 . S
C714 H701 0.930 1_455 S
C714 C713 1.388 . S
C714 C715 1.390 . S
C715 C714 1.390 . S
C715 C716 1.394 . S
C715 C721 1.465 1_455 S
C716 C711 1.399 . S
C716 C715 1.394 . S
C716 C717 1.516 . S
C717 C716 1.516 . S
C717 C718 1.502 . S
C717 C719 1.561 . S
C717 C720 1.526 . S
C718 H702 0.959 . S
C718 H703 0.959 . S
C718 H704 0.961 . S
C718 C717 1.502 . S
C719 H705 0.960 . S
C719 H706 0.961 . S
C719 H707 0.959 1_455 S
C719 C717 1.561 . S
C720 C717 1.526 . S
C720 C721 1.396 1_455 S
C720 C725 1.390 1_455 S
C721 C715 1.465 1_655 S
C721 C720 1.396 1_655 S
C721 C722 1.399 . S
C722 H708 0.929 . S
C722 C721 1.399 . S
C722 C723 1.385 . S
C723 H709 0.931 . S
C723 C722 1.385 . S
C723 C724 1.389 . S
C724 C723 1.389 . S
C724 C725 1.387 . S
C725 H710 0.930 . S
C725 C720 1.390 1_655 S
C725 C724 1.387 . S
H726 C738 0.930 . S
H727 C740 0.930 . S
H728 C741 0.930 1_554 S
H729 C745 0.959 . S
H730 C745 0.959 . S
H731 C745 0.961 . S
H732 C746 0.960 . S
H733 C746 0.961 1_554 S
H734 C746 0.959 1_544 S
H735 C749 0.929 . S
H736 C750 0.931 . S
H737 C752 0.930 . S
C738 H726 0.930 . S
C738 C739 1.399 . S
C738 C743 1.399 . S
C739 C738 1.399 . S
C739 C740 1.376 . S
C740 H727 0.930 . S
C740 C739 1.376 . S
C740 C741 1.388 . S
C741 H728 0.930 1_556 S
C741 C740 1.388 . S
C741 C742 1.388 1_556 S
C742 C741 1.388 1_554 S
C742 C743 1.389 1_554 S
C742 C748 1.471 . S
C743 C738 1.399 . S
C743 C742 1.389 1_556 S
C743 C744 1.516 1_545 S
C744 C743 1.516 1_565 S
C744 C745 1.502 . S
C744 C746 1.561 . S
C744 C747 1.526 1_556 S
C745 H729 0.959 . S
C745 H730 0.959 . S
C745 H731 0.961 . S
C745 C744 1.502 . S
C746 H732 0.960 . S
C746 H733 0.961 1_556 S
C746 H734 0.959 1_566 S
C746 C744 1.561 . S
C747 C744 1.526 1_554 S
C747 C748 1.396 1_565 S
C747 C752 1.390 . S
C748 C742 1.471 . S
C748 C747 1.396 1_545 S
C748 C749 1.399 . S
C749 H735 0.929 . S
C749 C748 1.399 . S
C749 C750 1.385 . S
C750 H736 0.931 . S
C750 C749 1.385 . S
C750 C751 1.389 1_545 S
C751 C750 1.389 1_565 S
C751 C752 1.387 . S
C752 H737 0.930 . S
C752 C747 1.390 . S
C752 C751 1.387 . S
H753 C765 0.930 . S
H754 C767 0.930 . S
H755 C768 0.930 . S
H756 C772 0.959 . S
H757 C772 0.959 . S
H758 C772 0.961 . S
H759 C773 0.960 . S
H760 C773 0.961 . S
H761 C773 0.959 . S
H762 C776 0.929 . S
H763 C777 0.931 . S
H764 C779 0.930 . S
C765 H753 0.930 . S
C765 C766 1.399 . S
C765 C770 1.399 . S
C766 C765 1.399 . S
C766 C767 1.376 . S
C767 H754 0.930 . S
C767 C766 1.376 . S
C767 C768 1.388 . S
C768 H755 0.930 . S
C768 C767 1.388 . S
C768 C769 1.390 . S
C769 C768 1.390 . S
C769 C770 1.394 . S
C769 C775 1.465 . S
C770 C765 1.399 . S
C770 C769 1.394 . S
C770 C771 1.516 . S
C771 C770 1.516 . S
C771 C772 1.502 . S
C771 C773 1.561 . S
C771 C774 1.526 . S
C772 H756 0.959 . S
C772 H757 0.959 . S
C772 H758 0.961 . S
C772 C771 1.502 . S
C773 H759 0.960 . S
C773 H760 0.961 . S
C773 H761 0.959 . S
C773 C771 1.561 . S
C774 C771 1.526 . S
C774 C775 1.396 . S
C774 C779 1.390 . S
C775 C769 1.465 . S
C775 C774 1.396 . S
C775 C776 1.399 . S
C776 H762 0.929 . S
C776 C775 1.399 . S
C776 C777 1.385 . S
C777 H763 0.931 . S
C777 C776 1.385 . S
C777 C778 1.389 . S
C778 C777 1.389 . S
C778 C779 1.387 . S
C779 H764 0.930 . S
C779 C774 1.390 . S
C779 C778 1.387 . S
H780 C792 0.930 . S
H781 C794 0.930 . S
H782 C795 0.926 . S
H783 C799 0.959 . S
H784 C799 0.959 1_556 S
H785 C799 0.961 . S
H786 C800 0.960 1_455 S
H787 C800 0.961 . S
H788 C800 0.959 1_455 S
H789 C803 0.929 . S
H790 C804 0.931 . S
H791 C806 0.930 . S
C792 H780 0.930 . S
C792 C793 1.399 . S
C792 C797 1.399 1_455 S
C793 C792 1.399 . S
C793 C794 1.376 . S
C794 H781 0.930 . S
C794 C793 1.376 . S
C794 C795 1.385 1_455 S
C795 H782 0.926 . S
C795 C794 1.385 1_655 S
C795 C796 1.398 1_554 S
C796 C795 1.398 1_556 S
C796 C797 1.394 1_556 S
C796 C802 1.465 . S
C797 C792 1.399 1_655 S
C797 C796 1.394 1_554 S
C797 C798 1.516 1_554 S
C798 C797 1.516 1_556 S
C798 C799 1.502 1_556 S
C798 C800 1.561 . S
C798 C801 1.526 . S
C799 H783 0.959 . S
C799 H784 0.959 1_554 S
C799 H785 0.961 . S
C799 C798 1.502 1_554 S
C800 H786 0.960 1_655 S
C800 H787 0.961 . S
C800 H788 0.959 1_655 S
C800 C798 1.561 . S
C801 C798 1.526 . S
C801 C802 1.396 . S
C801 C806 1.390 . S
C802 C796 1.465 . S
C802 C801 1.396 . S
C802 C803 1.399 . S
C803 H789 0.929 . S
C803 C802 1.399 . S
C803 C804 1.385 . S
C804 H790 0.931 . S
C804 C803 1.385 . S
C804 C805 1.389 . S
C805 C804 1.389 . S
C805 C806 1.387 . S
C806 H791 0.930 . S
C806 C801 1.390 . S
C806 C805 1.387 . S
H807 C819 0.930 . S
H808 C821 0.930 . S
H809 C822 0.930 . S
H810 C826 0.959 . S
H811 C826 0.959 . S
H812 C826 0.961 . S
H813 C827 0.960 . S
H814 C827 0.961 . S
H815 C827 0.959 . S
H816 C830 0.929 1_545 S
H817 C831 0.931 . S
H818 C833 0.930 . S
C819 H807 0.930 . S
C819 C820 1.399 . S
C819 C824 1.399 1_545 S
C820 C819 1.399 . S
C820 C821 1.376 . S
C821 H808 0.930 . S
C821 C820 1.376 . S
C821 C822 1.388 . S
C822 H809 0.930 . S
C822 C821 1.388 . S
C822 C823 1.390 . S
C823 C822 1.390 . S
C823 C824 1.394 1_545 S
C823 C829 1.465 1_545 S
C824 C819 1.399 1_565 S
C824 C823 1.394 1_565 S
C824 C825 1.516 . S
C825 C824 1.516 . S
C825 C826 1.502 . S
C825 C827 1.561 . S
C825 C828 1.526 . S
C826 H810 0.959 . S
C826 H811 0.959 . S
C826 H812 0.961 . S
C826 C825 1.502 . S
C827 H813 0.960 . S
C827 H814 0.961 . S
C827 H815 0.959 . S
C827 C825 1.561 . S
C828 C825 1.526 . S
C828 C829 1.396 . S
C828 C833 1.390 . S
C829 C823 1.465 1_565 S
C829 C828 1.396 . S
C829 C830 1.399 . S
C830 H816 0.929 1_565 S
C830 C829 1.399 . S
C830 C831 1.385 . S
C831 H817 0.931 . S
C831 C830 1.385 . S
C831 C832 1.389 . S
C832 C831 1.389 . S
C832 C833 1.387 . S
C833 H818 0.930 . S
C833 C828 1.390 . S
C833 C832 1.387 . S
C199 C11 1.262 . S
C211 C148 1.315 . S
C226 C179 1.328 . S
C238 C49 1.383 . S
C253 C24 1.394 . S
C265 C80 1.393 . S
C280 C31 1.364 . S
C292 C104 1.276 . S
C307 C135 1.277 . S
C319 C62 1.364 . S
C334 C166 1.279 . S
C346 C117 1.280 . S
C361 C18 0.969 . S
C373 C124 1.000 1_545 S
C388 C42 1.034 . S
C400 C155 0.954 . S
C415 C0 1.069 . S
C427 C73 1.069 . S
C442 C55 1.019 1_565 S
C454 C111 0.902 . S
C469 C86 1.014 . S
C481 C142 1.019 . S
C496 C173 0.911 . S
C508 C93 0.990 1_455 S
C523 C2 1.845 . S
C535 C165 1.895 . S
C550 C32 1.895 . S
C562 C10 1.837 . S
C577 C63 1.713 . S
C589 C58 1.661 . S
C604 C95 1.711 . S
C616 C89 1.668 . S
C631 C103 1.743 . S
C643 C126 1.733 . S
C658 C157 1.665 . S
C670 C134 1.658 . S
C685 C120 1.410 . S
C697 C64 1.384 . S
C712 C151 1.423 . S
C724 C94 1.389 . S
C739 C182 1.508 . S
C751 C125 1.374 . S
C766 C156 1.295 . S
C778 C27 1.346 . S
C793 C1 1.216 . S
C805 C41 1.213 . S
C820 C33 1.490 . S
C832 C72 1.379 . S
