# Generated by pormake.
# Topology acs-f, (3)-cn, num edge types: 1
# Building blocks:
#     Node 0, Type 0, BuildingBlock: WUSLED_clean_sbu_0, # of connection points: 3
#     Node 1, Type 0, BuildingBlock: WUSLED_clean_sbu_0, # of connection points: 3
#     Node 2, Type 0, BuildingBlock: WUSLED_clean_sbu_0, # of connection points: 3
#     Node 3, Type 0, BuildingBlock: WUSLED_clean_sbu_0, # of connection points: 3
#     Node 4, Type 0, BuildingBlock: WUSLED_clean_sbu_0, # of connection points: 3
#     Node 5, Type 0, BuildingBlock: WUSLED_clean_sbu_0, # of connection points: 3
#     Node 6, Type 0, BuildingBlock: WUSLED_clean_sbu_0, # of connection points: 3
#     Node 7, Type 0, BuildingBlock: WUSLED_clean_sbu_0, # of connection points: 3
#     Node 8, Type 0, BuildingBlock: WUSLED_clean_sbu_0, # of connection points: 3
#     Node 9, Type 0, BuildingBlock: WUSLED_clean_sbu_0, # of connection points: 3
#     Node 10, Type 0, BuildingBlock: WUSLED_clean_sbu_0, # of connection points: 3
#     Node 11, Type 0, BuildingBlock: WUSLED_clean_sbu_0, # of connection points: 3
#     Edge 12, Type (0, 0), BuildingBlock: MIFKUJ_clean_linker_0, # of connection points: 2
#     Edge 13, Type (0, 0), BuildingBlock: MIFKUJ_clean_linker_0, # of connection points: 2
#     Edge 14, Type (0, 0), BuildingBlock: MIFKUJ_clean_linker_0, # of connection points: 2
#     Edge 15, Type (0, 0), BuildingBlock: MIFKUJ_clean_linker_0, # of connection points: 2
#     Edge 16, Type (0, 0), BuildingBlock: MIFKUJ_clean_linker_0, # of connection points: 2
#     Edge 17, Type (0, 0), BuildingBlock: MIFKUJ_clean_linker_0, # of connection points: 2
#     Edge 18, Type (0, 0), BuildingBlock: MIFKUJ_clean_linker_0, # of connection points: 2
#     Edge 19, Type (0, 0), BuildingBlock: MIFKUJ_clean_linker_0, # of connection points: 2
#     Edge 20, Type (0, 0), BuildingBlock: MIFKUJ_clean_linker_0, # of connection points: 2
#     Edge 21, Type (0, 0), BuildingBlock: MIFKUJ_clean_linker_0, # of connection points: 2
#     Edge 22, Type (0, 0), BuildingBlock: MIFKUJ_clean_linker_0, # of connection points: 2
#     Edge 23, Type (0, 0), BuildingBlock: MIFKUJ_clean_linker_0, # of connection points: 2
#     Edge 24, Type (0, 0), BuildingBlock: MIFKUJ_clean_linker_0, # of connection points: 2
#     Edge 25, Type (0, 0), BuildingBlock: MIFKUJ_clean_linker_0, # of connection points: 2
#     Edge 26, Type (0, 0), BuildingBlock: MIFKUJ_clean_linker_0, # of connection points: 2
#     Edge 27, Type (0, 0), BuildingBlock: MIFKUJ_clean_linker_0, # of connection points: 2
#     Edge 28, Type (0, 0), BuildingBlock: MIFKUJ_clean_linker_0, # of connection points: 2
#     Edge 29, Type (0, 0), BuildingBlock: MIFKUJ_clean_linker_0, # of connection points: 2
# Relax obj value: 0.272
# Max RMSD: 0.159
# Mean RMSD: 0.147
data_MOF--net-acs-f--node1-WUSLED_clean_sbu_0--edge1-MIFKUJ_clean_linker_0
_symmetry_space_group_name_H-M    P1
_symmetry_Int_Tables_number       1
_symmetry_cell_setting            triclinic
loop_
_symmetry_equiv_pos_as_xyz
'x, y, z'
_cell_length_a     61.976887
_cell_length_b     61.890882
_cell_length_c     77.88076
_cell_angle_alpha  89.873937
_cell_angle_beta   89.844424
_cell_angle_gamma 114.86182
loop_
_atom_site_label
_atom_site_type_symbol
_atom_site_fract_x
_atom_site_fract_y
_atom_site_fract_z
_atom_type_partial_charge
C0 C 0.0914 0.35715 0.16436 0.0
C1 C 0.09408 0.36712 0.18086 0.0
C2 C 0.11339 0.34217 0.19079 0.0
C3 C 0.10505 0.35977 0.19391 0.0
C4 C 0.10937 0.33135 0.1745 0.0
C5 C 0.09863 0.33886 0.16144 0.0
U6 U 0.05014 0.3822 0.14401 0.0
O7 O 0.06027 0.41301 0.12667 0.0
O8 O 0.03548 0.37749 0.11773 0.0
C9 C 0.04718 0.40023 0.11397 0.0
C10 C 0.08296 0.36673 0.14972 0.0
C11 C 0.03607 0.41143 0.10223 0.0
C12 C 0.02531 0.41544 0.07271 0.0
C13 C 0.03132 0.40288 0.08536 0.0
C14 C 0.02746 0.44494 0.09378 0.0
C15 C 0.02376 0.43694 0.07662 0.0
C16 C 0.03367 0.43239 0.10644 0.0
C17 C 1.00349 0.38567 0.17693 0.0
C18 C 0.98247 0.41095 0.1775 0.0
C19 C 0.98128 0.38675 0.20231 0.0
C20 C 0.99502 0.37747 0.19345 0.0
C21 C 0.97566 0.40433 0.19471 0.0
C22 C 0.99652 0.40183 0.1687 0.0
C23 C 0.02235 0.37979 0.17007 0.0
O24 O 0.06187 0.35307 0.14357 0.0
O25 O 0.08683 0.38924 0.15074 0.0
O26 O 0.04294 0.39791 0.16727 0.0
O27 O 0.01667 0.363 0.1584 0.0
H28 H 0.08848 0.38117 0.18351 0.0
H29 H 0.10791 0.36867 0.2062 0.0
H30 H 0.11495 0.31734 0.17169 0.0
H31 H 0.09658 0.3308 0.14886 0.0
H32 H 0.023 0.40879 0.05969 0.0
H33 H 0.03344 0.38699 0.0817 0.0
H34 H 0.026 0.46115 0.0974 0.0
H35 H 0.03736 0.43951 0.11933 0.0
H36 H 0.97796 0.42407 0.17113 0.0
H37 H 0.97663 0.38136 0.21555 0.0
H38 H 1.00038 0.36504 0.19999 0.0
H39 H 1.00294 0.4083 0.1559 0.0
C40 C 0.65283 0.69571 0.17033 0.0
C41 C 0.64746 0.68942 0.18769 0.0
C42 C 0.66693 0.73132 0.19588 0.0
C43 C 0.6545 0.70711 0.20037 0.0
C44 C 0.67325 0.73725 0.17857 0.0
C45 C 0.66624 0.71963 0.16597 0.0
U46 U 0.62997 0.63317 0.14911 0.0
O47 O 0.5987 0.61724 0.13242 0.0
O48 O 0.63442 0.62561 0.12194 0.0
C49 C 0.61148 0.61729 0.1189 0.0
C50 C 0.64293 0.67837 0.15632 0.0
C51 C 0.60093 0.59819 0.10607 0.0
C52 C 0.596 0.58832 0.07569 0.0
C53 C 0.6084 0.60357 0.08897 0.0
C54 C 0.56907 0.56111 0.09649 0.0
C55 C 0.57581 0.56707 0.07917 0.0
C56 C 0.58139 0.5766 0.1098 0.0
C57 C 0.63188 0.58138 0.17758 0.0
C58 C 0.60503 0.54027 0.18369 0.0
C59 C 0.6443 0.55739 0.19635 0.0
C60 C 0.64927 0.57874 0.18773 0.0
C61 C 0.62174 0.53828 0.19507 0.0
C62 C 0.61006 0.56169 0.17502 0.0
C63 C 0.63558 0.60566 0.17267 0.0
O64 O 0.65725 0.67031 0.14905 0.0
O65 O 0.62121 0.66191 0.15857 0.0
O66 O 0.61654 0.60991 0.17157 0.0
O67 O 0.6519 0.61686 0.16103 0.0
H68 H 0.63714 0.67101 0.19136 0.0
H69 H 0.64928 0.70192 0.21357 0.0
H70 H 0.6832 0.75562 0.1747 0.0
H71 H 0.67063 0.72483 0.15266 0.0
H72 H 0.60163 0.59393 0.06263 0.0
H73 H 0.62318 0.62031 0.08574 0.0
H74 H 0.55394 0.54472 0.09977 0.0
H75 H 0.57515 0.57207 0.12289 0.0
H76 H 0.58743 0.52595 0.18247 0.0
H77 H 0.65769 0.55628 0.20478 0.0
H78 H 0.66621 0.59374 0.1899 0.0
H79 H 0.59635 0.56331 0.16723 0.0
C80 C 0.29834 0.93601 0.17128 0.0
C81 C 0.30352 0.94007 0.18884 0.0
C82 C 0.26274 0.91238 0.19602 0.0
C83 C 0.28571 0.92843 0.20117 0.0
C84 C 0.25765 0.90915 0.17842 0.0
C85 C 0.27522 0.92086 0.16623 0.0
U86 U 0.35807 0.97144 0.14402 0.0
O87 O 0.36755 0.95222 0.12388 0.0
O88 O 0.35708 0.98077 0.11673 0.0
C89 C 0.36561 0.96573 0.1115 0.0
C90 C 0.31645 0.94523 0.15764 0.0
C91 C 0.38549 0.97491 0.09907 0.0
C92 C 0.39856 0.98451 0.06945 0.0
C93 C 0.38074 0.97846 0.08197 0.0
C94 C 0.42645 0.98421 0.09108 0.0
C95 C 0.42145 0.98691 0.07381 0.0
C96 C 0.40866 0.9784 0.10364 0.0
C97 C 0.40439 0.01435 0.17721 0.0
C98 C 0.43848 0.04581 0.19045 0.0
C99 C 0.41295 0.01155 0.20727 0.0
C100 C 0.3984 1.00223 0.19296 0.0
C101 C 0.43383 0.03286 0.20591 0.0
C102 C 0.42382 0.03664 0.17627 0.0
C103 C 0.39401 1.00274 0.16098 0.0
O104 O 0.32165 0.9664 0.15099 0.0
O105 O 0.3343 0.93903 0.15777 0.0
O106 O 0.37785 0.00813 0.15359 0.0
O107 O 0.39022 0.98029 0.15932 0.0
H108 H 0.32133 0.95164 0.19297 0.0
H109 H 0.29013 0.93117 0.21467 0.0
H110 H 0.24011 0.89714 0.17405 0.0
H111 H 0.2709 0.91745 0.15273 0.0
H112 H 0.39416 0.98634 0.05624 0.0
H113 H 0.36299 0.97582 0.07818 0.0
H114 H 0.44404 0.98629 0.09483 0.0
H115 H 0.41285 0.97598 0.1168 0.0
H116 H 0.45446 0.06211 0.18881 0.0
H117 H 0.4086 1.00138 0.21912 0.0
H118 H 0.38341 0.98499 0.19393 0.0
H119 H 0.42877 0.04615 0.16415 0.0
C120 C 0.64982 0.92796 0.3429 0.0
C121 C 0.63576 0.91866 0.32826 0.0
C122 C 0.66383 0.90337 0.31758 0.0
C123 C 0.64268 0.90652 0.31577 0.0
C124 C 0.67841 0.91384 0.33183 0.0
C125 C 0.67142 0.92583 0.34434 0.0
U126 U 0.62462 0.96442 0.37284 0.0
O127 O 0.59677 0.94625 0.39204 0.0
O128 O 0.63237 0.97096 0.40045 0.0
C129 C 0.61038 0.95725 0.40502 0.0
C130 C 0.64057 0.93571 0.35816 0.0
C131 C 0.59933 0.9667 0.41802 0.0
C132 C 0.58016 0.96155 0.44588 0.0
C133 C 0.59189 0.9542 0.43347 0.0
C134 C 0.58355 0.99462 0.42772 0.0
C135 C 0.5758 0.98191 0.4433 0.0
C136 C 0.59511 0.987 0.41514 0.0
C137 C 0.62262 0.01264 0.34047 0.0
C138 C 0.61689 0.04497 0.32671 0.0
C139 C 0.61886 0.01327 0.30951 0.0
C140 C 0.62249 1.00248 0.32439 0.0
C141 C 0.61481 0.03403 0.31061 0.0
C142 C 0.62087 0.03441 0.34144 0.0
C143 C 0.62055 0.99962 0.35657 0.0
O144 O 0.65454 0.95542 0.36602 0.0
O145 O 0.61802 0.93185 0.35835 0.0
O146 O 0.64018 1.00204 0.36444 0.0
O147 O 0.60345 0.97797 0.35742 0.0
H148 H 0.61886 0.91972 0.32684 0.0
H149 H 0.63077 0.89858 0.30514 0.0
H150 H 0.69504 0.91231 0.33358 0.0
H151 H 0.68246 0.93251 0.35559 0.0
H152 H 0.574 0.95075 0.45735 0.0
H153 H 0.59477 0.93835 0.43585 0.0
H154 H 0.5808 0.01048 0.42521 0.0
H155 H 0.60061 0.99682 0.40319 0.0
H156 H 0.61352 0.06066 0.32826 0.0
H157 H 0.61787 1.0046 0.29729 0.0
H158 H 0.62386 0.98564 0.32343 0.0
H159 H 0.6208 0.04241 0.3538 0.0
C160 C 0.07634 0.71256 0.34189 0.0
C161 C 0.07544 0.70524 0.32478 0.0
C162 C 0.09811 0.7467 0.31564 0.0
C163 C 0.08606 0.72219 0.31174 0.0
C164 C 0.09835 0.7537 0.33285 0.0
C165 C 0.08747 0.73688 0.34573 0.0
U166 U 0.0428 0.65349 0.36962 0.0
O167 O 0.06083 0.64452 0.39086 0.0
O168 O 0.03107 0.65385 0.39633 0.0
C169 C 0.04628 0.64617 0.40253 0.0
C170 C 0.06822 0.69577 0.35644 0.0
C171 C 0.03682 0.62644 0.41502 0.0
C172 C 0.03288 0.61371 0.44481 0.0
C173 C 0.03979 0.63185 0.43252 0.0
C174 C 0.01908 0.58422 0.42223 0.0
C175 C 0.02261 0.5896 0.43989 0.0
C176 C 0.02616 0.60249 0.40989 0.0
C177 C 1.00151 0.60225 0.33757 0.0
C178 C 0.97816 0.56257 0.32687 0.0
C179 C 0.98811 0.59667 0.30799 0.0
C180 C 1.00036 0.61188 0.32146 0.0
C181 C 0.97689 0.57181 0.31061 0.0
C182 C 0.99026 0.57764 0.34017 0.0
C183 C 0.01421 0.61663 0.35222 0.0
O184 O 0.0465 0.68942 0.36235 0.0
O185 O 0.07564 0.67877 0.3572 0.0
O186 O 0.00737 0.63235 0.35871 0.0
O187 O 0.03695 0.62186 0.35406 0.0
H188 H 0.06699 0.6865 0.32157 0.0
H189 H 0.08504 0.71598 0.29866 0.0
H190 H 0.10779 0.77212 0.33664 0.0
H191 H 0.08858 0.74286 0.3589 0.0
H192 H 0.03638 0.61871 0.45817 0.0
H193 H 0.04807 0.65022 0.4367 0.0
H194 H 0.01095 0.56592 0.41792 0.0
H195 H 0.02367 0.59795 0.39639 0.0
H196 H 0.97042 0.54355 0.32924 0.0
H197 H 0.98748 0.60427 0.29556 0.0
H198 H 0.00902 0.63093 0.3193 0.0
H199 H 0.99111 0.56996 0.35254 0.0
C200 C 0.31659 0.35726 0.34279 0.0
C201 C 0.32221 0.36589 0.3259 0.0
C202 C 0.28121 0.34214 0.31703 0.0
C203 C 0.30469 0.35845 0.31316 0.0
C204 C 0.27607 0.33268 0.33377 0.0
C205 C 0.29354 0.34023 0.34649 0.0
U206 U 0.37881 0.38073 0.36394 0.0
O207 O 0.39509 0.41257 0.3802 0.0
O208 O 0.38748 0.377 0.391 0.0
C209 C 0.39485 0.39994 0.39385 0.0
C210 C 0.3335 0.3673 0.35707 0.0
C211 C 0.41136 0.41138 0.40803 0.0
C212 C 0.41604 0.42744 0.4369 0.0
C213 C 0.40154 0.41528 0.42326 0.0
C214 C 0.45078 0.43145 0.42052 0.0
C215 C 0.44094 0.43574 0.43586 0.0
C216 C 0.4361 0.4195 0.40666 0.0
C217 C 0.42931 0.37836 0.33405 0.0
C218 C 0.47062 0.40438 0.32801 0.0
C219 C 0.45213 0.36586 0.31422 0.0
C220 C 0.43104 0.36122 0.32309 0.0
C221 C 0.4719 0.38781 0.31613 0.0
C222 C 0.44946 0.3997 0.33691 0.0
C223 C 0.40547 0.37492 0.3398 0.0
O224 O 0.34178 0.35318 0.36438 0.0
O225 O 0.34971 0.3892 0.35501 0.0
O226 O 0.40136 0.39405 0.34112 0.0
O227 O 0.39491 0.3588 0.35172 0.0
H228 H 0.3399 0.37901 0.32266 0.0
H229 H 0.30935 0.36629 0.30048 0.0
H230 H 0.25838 0.31974 0.33715 0.0
H231 H 0.28883 0.33328 0.35942 0.0
H232 H 0.40755 0.43083 0.44808 0.0
H233 H 0.38247 0.40936 0.42449 0.0
H234 H 0.46979 0.43725 0.41918 0.0
H235 H 0.44403 0.41674 0.39493 0.0
H236 H 0.48544 0.42159 0.32963 0.0
H237 H 0.45263 0.35265 0.30532 0.0
H238 H 0.41563 0.3447 0.32064 0.0
H239 H 0.44848 0.41325 0.34525 0.0
C240 C 0.92717 0.65654 0.84657 0.0
C241 C 0.92704 0.64926 0.82947 0.0
C242 C 0.90267 0.67 0.82106 0.0
C243 C 0.91497 0.65605 0.81679 0.0
C244 C 0.90393 0.6781 0.83804 0.0
C245 C 0.91603 0.67145 0.8506 0.0
U246 U 0.96659 0.63032 0.87115 0.0
O247 O 0.95187 0.60149 0.89014 0.0
O248 O 0.97762 0.63687 0.89832 0.0
C249 C 0.96471 0.61461 0.90278 0.0
C250 C 0.93592 0.64682 0.86095 0.0
C251 C 0.97554 0.60325 0.91461 0.0
C252 C 0.98628 0.59869 0.944 0.0
C253 C 0.97968 0.61118 0.93164 0.0
C254 C 0.98581 0.57056 0.92232 0.0
C255 C 0.98895 0.57789 0.93962 0.0
C256 C 0.97914 0.58308 0.90994 0.0
C257 C 0.01556 0.62657 0.838 0.0
C258 C 0.04197 0.60848 0.83 0.0
C259 C 0.03184 0.63186 0.80918 0.0
C260 C 0.018 0.63651 0.82155 0.0
C261 C 0.04325 0.617 0.81307 0.0
C262 C 0.02818 0.6132 0.84235 0.0
C263 C 0.99794 0.62791 0.84994 0.0
O264 O 0.93192 0.62424 0.86016 0.0
O265 O 0.95664 0.66043 0.86767 0.0
O266 O 0.97681 0.61022 0.85185 0.0
O267 O 1.00229 0.64693 0.85931 0.0
H268 H 0.93547 0.63767 0.82605 0.0
H269 H 0.91433 0.64947 0.80384 0.0
H270 H 0.89506 0.68919 0.84173 0.0
H271 H 0.91586 0.67723 0.86371 0.0
H272 H 0.98824 0.60481 0.95716 0.0
H273 H 0.97682 0.62657 0.93558 0.0
H274 H 0.98814 0.5549 0.91837 0.0
H275 H 0.97612 0.57656 0.89687 0.0
H276 H 0.05018 0.59672 0.83346 0.0
H277 H 0.03267 0.63894 0.79634 0.0
H278 H 0.00829 0.64688 0.81805 0.0
H279 H 0.02641 0.6054 0.85504 0.0
C280 C 0.35081 0.31583 0.84143 0.0
C281 C 0.36007 0.32245 0.82479 0.0
C282 C 0.33886 0.28131 0.81515 0.0
C283 C 0.35409 0.30534 0.81177 0.0
C284 C 0.3287 0.27515 0.83163 0.0
C285 C 0.33462 0.29224 0.84459 0.0
U286 U 0.37651 0.3765 0.86617 0.0
O287 O 0.37046 0.3817 0.89351 0.0
O288 O 0.40593 0.38675 0.88451 0.0
C289 C 0.39282 0.38765 0.89754 0.0
C290 C 0.36006 0.3319 0.85622 0.0
C291 C 0.40394 0.40708 0.91002 0.0
C292 C 0.40951 0.41832 0.94011 0.0
C293 C 0.39683 0.40247 0.92722 0.0
C294 C 0.43596 0.44463 0.91866 0.0
C295 C 0.42962 0.43942 0.9361 0.0
C296 C 0.42332 0.42856 0.90574 0.0
C297 C 0.37856 0.4282 0.83297 0.0
C298 C 0.37448 0.46495 0.82755 0.0
C299 C 0.3904 0.44816 0.80546 0.0
C300 C 0.38766 0.42926 0.81636 0.0
C301 C 0.38435 0.4665 0.81107 0.0
C302 C 0.37146 0.44583 0.83838 0.0
C303 C 0.37784 0.40953 0.84492 0.0
O304 O 0.38264 0.34679 0.85559 0.0
O305 O 0.34641 0.3412 0.86295 0.0
O306 O 0.35969 0.39857 0.85529 0.0
O307 O 0.39527 0.40274 0.84588 0.0
H308 H 0.3726 0.34058 0.82204 0.0
H309 H 0.36187 0.31085 0.79915 0.0
H310 H 0.31712 0.25687 0.83482 0.0
H311 H 0.32742 0.28674 0.85737 0.0
H312 H 0.40416 0.41333 0.9533 0.0
H313 H 0.38206 0.38591 0.93083 0.0
H314 H 0.451 0.46089 0.91498 0.0
H315 H 0.42918 0.43255 0.89252 0.0
H316 H 0.36963 0.4788 0.8322 0.0
H317 H 0.39838 0.44899 0.79294 0.0
H318 H 0.39316 0.41574 0.81194 0.0
H319 H 0.36444 0.44531 0.85121 0.0
C320 C 0.7158 0.07029 0.84112 0.0
C321 C 0.70963 0.06663 0.82372 0.0
C322 C 0.75066 0.09285 0.81547 0.0
C323 C 0.72698 0.07766 0.81098 0.0
C324 C 0.75648 0.09596 0.83304 0.0
C325 C 0.73934 0.08468 0.84561 0.0
U326 U 0.65624 0.03475 0.86801 0.0
O327 O 0.65591 0.02362 0.89504 0.0
O328 O 0.64659 0.05317 0.88858 0.0
C329 C 0.64765 0.03875 0.9006 0.0
C330 C 0.69834 0.06143 0.8552 0.0
C331 C 0.62738 0.02945 0.91271 0.0
C332 C 0.61321 0.01723 0.94185 0.0
C333 C 0.63103 0.02298 0.92935 0.0
C334 C 0.58735 0.0234 0.92106 0.0
C335 C 0.59137 0.01795 0.93797 0.0
C336 C 0.60514 0.02902 0.90853 0.0
C337 C 0.6114 0.99513 0.83278 0.0
C338 C 0.58042 0.96214 0.81805 0.0
C339 C 0.59774 1.00125 0.80481 0.0
C340 C 0.61318 0.01 0.8187 0.0
C341 C 0.58038 0.97758 0.80484 0.0
C342 C 0.59582 0.97091 0.83195 0.0
C343 C 0.62088 1.00505 0.84969 0.0
O344 O 0.68064 0.06784 0.85536 0.0
O345 O 0.6928 0.03994 0.86138 0.0
O346 O 0.62458 0.02728 0.85251 0.0
O347 O 0.63655 0.99884 0.85698 0.0
H348 H 0.69146 0.05563 0.82 0.0
H349 H 0.72172 0.07441 0.79766 0.0
H350 H 0.77409 0.10786 0.83727 0.0
H351 H 0.74438 0.08792 0.859 0.0
H352 H 0.61696 0.01324 0.95475 0.0
H353 H 0.64804 0.02323 0.93286 0.0
H354 H 0.57056 0.02368 0.91758 0.0
H355 H 0.60173 0.03373 0.89574 0.0
H356 H 0.56716 0.94387 0.81845 0.0
H357 H 0.59825 0.01341 0.79463 0.0
H358 H 0.62513 0.02875 0.81902 0.0
H359 H 0.59407 0.95919 0.84274 0.0
C360 C 0.35402 0.08459 0.66795 0.0
C361 C 0.35185 0.07598 0.68488 0.0
C362 C 0.34153 0.10792 0.69463 0.0
C363 C 0.34552 0.0876 0.69819 0.0
C364 C 0.34325 0.11604 0.67766 0.0
C365 C 0.34934 0.10442 0.66447 0.0
U366 U 0.37925 0.0443 0.64328 0.0
O367 O 0.40684 0.05925 0.62341 0.0
O368 O 0.37148 0.03222 0.61643 0.0
C369 C 0.39308 0.04616 0.61115 0.0
C370 C 0.36264 0.07484 0.6536 0.0
C371 C 0.40443 0.03665 0.59843 0.0
C372 C 0.42211 0.04095 0.57008 0.0
C373 C 0.40996 0.04788 0.5824 0.0
C374 C 0.42283 0.01062 0.58944 0.0
C375 C 0.42875 0.02215 0.57327 0.0
C376 C 0.41091 0.01793 0.60197 0.0
C377 C 0.38681 0.99775 0.67681 0.0
C378 C 0.40512 0.97146 0.68459 0.0
C379 C 0.38331 0.98283 0.70595 0.0
C380 C 0.37806 0.99627 0.69357 0.0
C381 C 0.39745 0.97079 0.70169 0.0
C382 C 0.39985 0.98486 0.67226 0.0
C383 C 0.38437 0.01434 0.66445 0.0
O384 O 0.38532 0.07937 0.65364 0.0
O385 O 0.3489 0.05342 0.64798 0.0
O386 O 0.40132 0.03578 0.66196 0.0
O387 O 0.36458 0.00903 0.65584 0.0
H388 H 0.35556 0.06077 0.68784 0.0
H389 H 0.3445 0.08123 0.71127 0.0
H390 H 0.34043 0.13176 0.67468 0.0
H391 H 0.35106 0.1114 0.65151 0.0
H392 H 0.4268 0.05097 0.5582 0.0
H393 H 0.40532 0.06253 0.57951 0.0
H394 H 0.4273 0.99593 0.59247 0.0
H395 H 0.40692 0.00913 0.61437 0.0
H396 H 0.41642 0.96281 0.68091 0.0
H397 H 0.37701 0.98253 0.71897 0.0
H398 H 0.36798 0.00623 0.69722 0.0
H399 H 0.40679 0.98596 0.65934 0.0
C400 C 0.94109 0.29647 0.67268 0.0
C401 C 0.9431 0.3022 0.69022 0.0
C402 C 0.91686 0.26084 0.69735 0.0
C403 C 0.93116 0.28441 0.70251 0.0
C404 C 0.91578 0.25527 0.67981 0.0
C405 C 0.92773 0.27286 0.66767 0.0
U406 U 0.97797 0.35598 0.64565 0.0
O407 O 0.988 0.35521 0.61852 0.0
O408 O 0.95995 0.36655 0.62529 0.0
C409 C 0.97332 0.36403 0.61305 0.0
C410 C 0.95051 0.31439 0.6589 0.0
C411 C 0.98278 0.38364 0.60046 0.0
C412 C 0.98665 0.39592 0.57057 0.0
C413 C 0.98036 0.37798 0.58299 0.0
C414 C 0.99889 0.42572 0.59296 0.0
C415 C 0.99574 0.42007 0.57533 0.0
C416 C 0.99241 0.40766 0.60542 0.0
C417 C 0.01907 0.40011 0.68044 0.0
C418 C 0.05172 0.43161 0.69506 0.0
C419 C 0.01265 0.41382 0.70828 0.0
C420 C 1.00418 0.39808 0.69455 0.0
C421 C 0.03607 0.43157 0.7081 0.0
C422 C 0.0432 0.41596 0.68126 0.0
C423 C 0.00909 0.39097 0.6635 0.0
O424 O 0.94499 0.33271 0.65901 0.0
O425 O 0.97157 0.31904 0.65232 0.0
O426 O 0.98719 0.3883 0.66073 0.0
O427 O 0.01426 0.37452 0.6563 0.0
H428 H 0.95328 0.32038 0.69434 0.0
H429 H 0.9323 0.28927 0.71594 0.0
H430 H 0.90528 0.23729 0.67539 0.0
H431 H 0.92591 0.2681 0.65419 0.0
H432 H 0.98349 0.39067 0.55724 0.0
H433 H 0.97284 0.35955 0.57893 0.0
H434 H 0.00616 0.44407 0.59716 0.0
H435 H 0.99445 0.41241 0.6189 0.0
H436 H 0.0698 0.44526 0.69465 0.0
H437 H 1.00036 0.41348 0.71832 0.0
H438 H 0.98551 0.38592 0.69423 0.0
H439 H 0.05493 0.41786 0.67045 0.0
C440 C 0.69872 0.65796 0.67015 0.0
C441 C 0.6922 0.66099 0.68696 0.0
C442 C 0.73301 0.6719 0.69673 0.0
C443 C 0.70923 0.66799 0.70014 0.0
C444 C 0.73919 0.66894 0.67976 0.0
C445 C 0.72231 0.6622 0.66668 0.0
U446 U 0.63577 0.63449 0.64971 0.0
O447 O 0.62668 0.64006 0.62307 0.0
O448 O 0.62094 0.60421 0.63201 0.0
C449 C 0.61973 0.61745 0.61914 0.0
C450 C 0.68139 0.64896 0.65606 0.0
C451 C 0.60097 0.6065 0.60608 0.0
C452 C 0.59088 0.60385 0.57572 0.0
C453 C 0.60532 0.61611 0.58942 0.0
C454 C 0.56665 0.5724 0.59516 0.0
C455 C 0.57171 0.58149 0.57827 0.0
C456 C 0.58118 0.58474 0.60892 0.0
C457 C 0.58609 0.63217 0.68314 0.0
C458 C 0.54415 0.62392 0.68261 0.0
C459 C 0.56418 0.62683 0.70978 0.0
C460 C 0.58527 0.63144 0.70108 0.0
C461 C 0.54332 0.62286 0.70071 0.0
C462 C 0.56551 0.62865 0.67383 0.0
C463 C 0.60897 0.63651 0.67513 0.0
O464 O 0.66581 0.6267 0.65747 0.0
O465 O 0.67218 0.66314 0.65018 0.0
O466 O 0.61796 0.65353 0.66356 0.0
O467 O 0.61367 0.61799 0.67234 0.0
H468 H 0.67397 0.65765 0.6899 0.0
H469 H 0.70375 0.67025 0.71296 0.0
H470 H 0.75697 0.67106 0.67656 0.0
H471 H 0.72762 0.65971 0.65384 0.0
H472 H 0.59513 0.6117 0.56302 0.0
H473 H 0.62066 0.63269 0.58684 0.0
H474 H 0.55218 0.55519 0.59766 0.0
H475 H 0.57753 0.57675 0.62159 0.0
H476 H 0.52829 0.62088 0.67531 0.0
H477 H 0.56408 0.62552 0.72366 0.0
H478 H 0.601 0.63409 0.70845 0.0
H479 H 0.5659 0.62924 0.65993 0.0
H480 H 0.23503 0.3356 0.32217 0.0
H481 H 0.20442 0.3291 0.3007 0.0
H482 H 0.25288 0.32927 0.26079 0.0
H483 H 0.2836 0.33554 0.28225 0.0
H484 H 0.23403 0.35756 0.25215 0.0
H485 H 0.20306 0.27819 0.27214 0.0
H486 H 0.18845 0.24423 0.29226 0.0
H487 H 0.13178 0.2624 0.30814 0.0
H488 H 0.14628 0.29674 0.2883 0.0
H489 H 0.15169 0.33168 0.18543 0.0
H490 H 0.17691 0.32503 0.2067 0.0
H491 H 0.13429 0.33432 0.24738 0.0
H492 H 0.10793 0.33969 0.22607 0.0
H493 H 0.14962 0.29888 0.25489 0.0
H494 H 0.18531 0.38106 0.23432 0.0
H495 H 0.19933 0.41108 0.21113 0.0
H496 H 0.24777 0.38247 0.19371 0.0
H497 H 0.23384 0.35214 0.2167 0.0
C498 C 0.23908 0.3337 0.30889 0.0
C499 C 0.26192 0.33617 0.304 0.0
C500 C 0.22148 0.32997 0.29658 0.0
C501 C 0.22621 0.32853 0.27908 0.0
C502 C 0.24877 0.33037 0.2742 0.0
C503 C 0.2664 0.33409 0.28649 0.0
C504 C 0.20843 0.32726 0.26581 0.0
C505 C 0.21569 0.34443 0.25267 0.0
C506 C 0.18432 0.31039 0.2665 0.0
C507 C 0.17595 0.29024 0.27887 0.0
C508 C 0.18768 0.27515 0.28009 0.0
C509 C 0.17936 0.25578 0.2914 0.0
C510 C 0.15924 0.2512 0.30151 0.0
C511 C 0.1474 0.266 0.30033 0.0
C512 C 0.15565 0.28543 0.28904 0.0
C513 C 0.14715 0.3317 0.19885 0.0
C514 C 0.1277 0.33636 0.20394 0.0
C515 C 0.16182 0.32812 0.21104 0.0
C516 C 0.15778 0.32961 0.22864 0.0
C517 C 0.13784 0.33323 0.23386 0.0
C518 C 0.12295 0.33659 0.22163 0.0
C519 C 0.17536 0.3292 0.24147 0.0
C520 C 0.16803 0.31187 0.25449 0.0
C521 C 0.19956 0.34557 0.24053 0.0
C522 C 0.20848 0.36431 0.22714 0.0
C523 C 0.19893 0.38118 0.22552 0.0
C524 C 0.20684 0.39823 0.21241 0.0
C525 C 0.2244 0.39866 0.20094 0.0
C526 C 0.23417 0.38212 0.20261 0.0
C527 C 0.22632 0.36504 0.21569 0.0
H528 H 0.23046 0.41184 0.19077 0.0
H529 H 0.15279 0.23614 0.31022 0.0
H530 H 0.66209 0.77291 0.1921 0.0
H531 H 0.66848 0.80369 0.21336 0.0
H532 H 0.68954 0.76429 0.2504 0.0
H533 H 0.6826 0.733 0.22912 0.0
H534 H 0.66323 0.77868 0.26585 0.0
H535 H 0.73009 0.81923 0.2321 0.0
H536 H 0.75582 0.83554 0.20678 0.0
H537 H 0.71863 0.87852 0.19466 0.0
H538 H 0.6924 0.86219 0.21978 0.0
H539 H 0.68584 0.87375 0.32442 0.0
H540 H 0.69388 0.84751 0.30472 0.0
H541 H 0.66214 0.87042 0.2634 0.0
H542 H 0.65566 0.89813 0.28272 0.0
H543 H 0.70039 0.865 0.25219 0.0
H544 H 0.63167 0.816 0.28972 0.0
H545 H 0.61491 0.80119 0.31844 0.0
H546 H 0.66874 0.77578 0.32686 0.0
H547 H 0.68588 0.79062 0.29828 0.0
C548 C 0.66847 0.77093 0.20468 0.0
C549 C 0.67197 0.75051 0.20885 0.0
C550 C 0.67222 0.78867 0.21687 0.0
C551 C 0.67993 0.7867 0.23351 0.0
C552 C 0.68362 0.76636 0.23768 0.0
C553 C 0.67961 0.74843 0.22551 0.0
C554 C 0.68248 0.80507 0.24674 0.0
C555 C 0.67175 0.79755 0.26287 0.0
C556 C 0.69389 0.82983 0.24318 0.0
C557 C 0.70911 0.83929 0.22775 0.0
C558 C 0.7272 0.83195 0.22393 0.0
C559 C 0.74193 0.84125 0.20964 0.0
C560 C 0.73883 0.85801 0.1991 0.0
C561 C 0.72098 0.8655 0.20283 0.0
C562 C 0.70619 0.85624 0.21711 0.0
C563 C 0.68102 0.87372 0.31107 0.0
C564 C 0.66988 0.88812 0.30529 0.0
C565 C 0.68533 0.85833 0.29983 0.0
C566 C 0.67805 0.85642 0.28262 0.0
C567 C 0.66771 0.87132 0.27666 0.0
C568 C 0.66374 0.88701 0.28781 0.0
C569 C 0.68035 0.83845 0.27089 0.0
C570 C 0.69203 0.84609 0.25506 0.0
C571 C 0.67092 0.81388 0.27505 0.0
C572 C 0.6601 0.80453 0.29197 0.0
C573 C 0.6399 0.80728 0.29773 0.0
C574 C 0.63037 0.79889 0.31398 0.0
C575 C 0.64078 0.78759 0.32448 0.0
C576 C 0.66069 0.78454 0.31873 0.0
C577 C 0.6703 0.7929 0.30252 0.0
H578 H 0.63341 0.78117 0.33707 0.0
H579 H 0.75029 0.86523 0.18806 0.0
H580 H 0.12093 0.74066 0.2868 0.0
H581 H 0.14568 0.77073 0.26649 0.0
H582 H 0.13311 0.82459 0.29424 0.0
H583 H 0.10634 0.79423 0.3137 0.0
H584 H 0.13671 0.83585 0.26225 0.0
H585 H 0.18561 0.81606 0.29997 0.0
H586 H 0.19934 0.78982 0.316 0.0
H587 H 0.2135 0.76279 0.26859 0.0
H588 H 0.19962 0.78873 0.25227 0.0
H589 H 0.24799 0.92652 0.22568 0.0
H590 H 0.21737 0.9011 0.24617 0.0
H591 H 0.206 0.83956 0.21527 0.0
H592 H 0.23617 0.86463 0.19489 0.0
H593 H 0.21565 0.83609 0.25107 0.0
H594 H 0.16651 0.86028 0.21409 0.0
H595 H 0.15383 0.88914 0.20066 0.0
H596 H 0.14287 0.91254 0.25046 0.0
H597 H 0.1559 0.88411 0.2642 0.0
C598 C 0.12274 0.7587 0.28842 0.0
C599 C 0.11168 0.7648 0.30222 0.0
C600 C 0.13735 0.77607 0.27689 0.0
C601 C 0.14199 0.80016 0.27911 0.0
C602 C 0.13014 0.80622 0.29232 0.0
C603 C 0.11504 0.78876 0.30365 0.0
C604 C 0.15997 0.81896 0.2681 0.0
C605 C 0.15409 0.83609 0.26 0.0
C606 C 0.18282 0.81961 0.26522 0.0
C607 C 0.19142 0.80418 0.27492 0.0
C608 C 0.19155 0.80443 0.29297 0.0
C609 C 0.19937 0.78963 0.30211 0.0
C610 C 0.20725 0.77461 0.29332 0.0
C611 C 0.20739 0.77443 0.27538 0.0
C612 C 0.19959 0.7892 0.26618 0.0
C613 C 0.23888 0.90757 0.2233 0.0
C614 C 0.24443 0.89756 0.20868 0.0
C615 C 0.2213 0.89314 0.2349 0.0
C616 C 0.20931 0.86848 0.23214 0.0
C617 C 0.21492 0.85855 0.21758 0.0
C618 C 0.23215 0.87292 0.20594 0.0
C619 C 0.19214 0.85245 0.24487 0.0
C620 C 0.1983 0.83592 0.25341 0.0
C621 C 0.16994 0.85294 0.24848 0.0
C622 C 0.16254 0.8703 0.24017 0.0
C623 C 0.16173 0.87181 0.22218 0.0
C624 C 0.15439 0.88804 0.21451 0.0
C625 C 0.14764 0.90273 0.2247 0.0
C626 C 0.14817 0.9012 0.24258 0.0
C627 C 0.15554 0.88504 0.25031 0.0
H628 H 0.14191 0.91524 0.21874 0.0
H629 H 0.21327 0.76314 0.30042 0.0
H630 H 0.78103 0.70057 0.69467 0.0
H631 H 0.8115 0.70538 0.71593 0.0
H632 H 0.75742 0.66311 0.75209 0.0
H633 H 0.72668 0.65709 0.73063 0.0
H634 H 0.7979 0.7067 0.76585 0.0
H635 H 0.78249 0.63579 0.73037 0.0
H636 H 0.77992 0.61721 0.702 0.0
H637 H 0.85231 0.66534 0.69117 0.0
H638 H 0.85517 0.68441 0.71938 0.0
H639 H 0.85813 0.66775 0.82614 0.0
H640 H 0.83212 0.67417 0.80539 0.0
H641 H 0.88617 0.69001 0.76627 0.0
H642 H 0.91212 0.6829 0.78703 0.0
H643 H 0.84822 0.66419 0.75254 0.0
H644 H 0.86892 0.73372 0.78453 0.0
H645 H 0.87637 0.76092 0.80909 0.0
H646 H 0.80243 0.72726 0.82293 0.0
H647 H 0.79457 0.69959 0.79858 0.0
C648 C 0.77545 0.69214 0.70709 0.0
C649 C 0.75123 0.67794 0.71068 0.0
C650 C 0.79298 0.69516 0.71931 0.0
C651 C 0.78676 0.68439 0.73552 0.0
C652 C 0.7626 0.67156 0.73963 0.0
C653 C 0.74501 0.66823 0.72731 0.0
C654 C 0.80549 0.68485 0.7476 0.0
C655 C 0.80874 0.69717 0.76314 0.0
C656 C 0.82057 0.67363 0.74355 0.0
C657 C 0.81898 0.66159 0.72689 0.0
C658 C 0.79781 0.64245 0.7219 0.0
C659 C 0.79631 0.63184 0.70585 0.0
C660 C 0.81592 0.64011 0.69478 0.0
C661 C 0.83713 0.65895 0.69975 0.0
C662 C 0.83871 0.66964 0.71577 0.0
C663 C 0.86467 0.67293 0.81318 0.0
C664 C 0.88732 0.67491 0.8083 0.0
C665 C 0.84975 0.67674 0.80128 0.0
C666 C 0.85716 0.68302 0.78421 0.0
C667 C 0.87989 0.6852 0.77932 0.0
C668 C 0.89475 0.68109 0.7912 0.0
C669 C 0.84054 0.68564 0.7713 0.0
C670 C 0.8376 0.67387 0.75548 0.0
C671 C 0.82655 0.69836 0.7748 0.0
C672 C 0.83122 0.71437 0.78984 0.0
C673 C 0.85429 0.7319 0.79294 0.0
C674 C 0.85858 0.74746 0.80679 0.0
C675 C 0.8399 0.74578 0.81759 0.0
C676 C 0.81689 0.72851 0.81457 0.0
C677 C 0.81251 0.71288 0.80074 0.0
H678 H 0.84325 0.75789 0.82829 0.0
H679 H 0.81471 0.63191 0.68235 0.0
H680 H 0.37125 0.27816 0.79252 0.0
H681 H 0.36571 0.24666 0.77205 0.0
H682 H 0.29239 0.20953 0.7878 0.0
H683 H 0.2978 0.2412 0.8084 0.0
H684 H 0.30962 0.17839 0.78397 0.0
H685 H 0.30635 0.23746 0.74857 0.0
H686 H 0.31663 0.27734 0.73632 0.0
H687 H 0.38362 0.2805 0.71873 0.0
H688 H 0.37387 0.24072 0.73109 0.0
H689 H 0.30039 0.09955 0.71218 0.0
H690 H 0.29355 0.12666 0.7323 0.0
H691 H 0.36751 0.17583 0.72786 0.0
H692 H 0.37391 0.14926 0.70732 0.0
H693 H 0.34084 0.19878 0.7246 0.0
H694 H 0.33768 0.13441 0.76469 0.0
H695 H 0.31867 0.09274 0.77487 0.0
H696 H 0.25201 0.09787 0.78037 0.0
H697 H 0.27057 0.13943 0.77006 0.0
C698 C 0.35379 0.26357 0.79145 0.0
C699 C 0.33491 0.26247 0.80203 0.0
C700 C 0.35065 0.24545 0.77974 0.0
C701 C 0.32851 0.2258 0.77813 0.0
C702 C 0.30964 0.22449 0.78875 0.0
C703 C 0.31278 0.24265 0.80054 0.0
C704 C 0.32549 0.20669 0.76547 0.0
C705 C 0.31621 0.18284 0.77092 0.0
C706 C 0.33329 0.21219 0.74827 0.0
C707 C 0.33944 0.23618 0.74086 0.0
C708 C 0.32336 0.24674 0.74221 0.0
C709 C 0.32907 0.2693 0.73522 0.0
C710 C 0.35078 0.28146 0.72677 0.0
C711 C 0.36681 0.27105 0.72528 0.0
C712 C 0.36119 0.24848 0.73225 0.0
C713 C 0.31516 0.116 0.7158 0.0
C714 C 0.33774 0.12228 0.70848 0.0
C715 C 0.3113 0.13148 0.7273 0.0
C716 C 0.33009 0.15327 0.73184 0.0
C717 C 0.35271 0.15917 0.72465 0.0
C718 C 0.35645 0.14393 0.71303 0.0
C719 C 0.32652 0.17071 0.74343 0.0
C720 C 0.3343 0.19433 0.73766 0.0
C721 C 0.31626 0.16473 0.76004 0.0
C722 C 0.30546 0.13991 0.76649 0.0
C723 C 0.31896 0.12659 0.76802 0.0
C724 C 0.30826 0.103 0.77381 0.0
C725 C 0.28414 0.09265 0.77823 0.0
C726 C 0.27068 0.10588 0.77693 0.0
C727 C 0.28128 0.12944 0.77113 0.0
H728 H 0.27589 0.07438 0.78269 0.0
H729 H 0.35517 0.29893 0.72135 0.0
H730 H 0.87064 0.22925 0.69346 0.0
H731 H 0.84539 0.19881 0.71352 0.0
H732 H 0.90304 0.21985 0.74975 0.0
H733 H 0.92883 0.25039 0.72943 0.0
H734 H 0.87578 0.1688 0.74687 0.0
H735 H 0.86305 0.23916 0.7569 0.0
H736 H 0.85519 0.2734 0.74791 0.0
H737 H 0.78841 0.22585 0.72627 0.0
H738 H 0.79605 0.19133 0.73494 0.0
H739 H 0.79945 0.10765 0.8167 0.0
H740 H 0.8293 0.13484 0.79739 0.0
H741 H 0.77405 0.13453 0.76366 0.0
H742 H 0.74401 0.10964 0.78395 0.0
H743 H 0.80305 0.17644 0.76637 0.0
H744 H 0.81524 0.10544 0.75621 0.0
H745 H 0.82377 0.07114 0.76394 0.0
H746 H 0.89125 0.11844 0.78469 0.0
H747 H 0.88299 0.15299 0.77732 0.0
C748 C 0.87814 0.22726 0.70558 0.0
C749 C 0.9018 0.24228 0.70982 0.0
C750 C 0.86362 0.20988 0.71707 0.0
C751 C 0.87227 0.20712 0.73316 0.0
C752 C 0.89602 0.22168 0.73738 0.0
C753 C 0.91063 0.23926 0.72585 0.0
C754 C 0.85583 0.19 0.74581 0.0
C755 C 0.85999 0.17052 0.75137 0.0
C756 C 0.83506 0.19205 0.75137 0.0
C757 C 0.83018 0.21271 0.74647 0.0
C758 C 0.84674 0.23603 0.75015 0.0
C759 C 0.84233 0.25547 0.74512 0.0
C760 C 0.82133 0.2518 0.7365 0.0
C761 C 0.80467 0.22867 0.73294 0.0
C762 C 0.80901 0.20916 0.73794 0.0
C763 C 0.79346 0.11353 0.80532 0.0
C764 C 0.769 0.10652 0.80222 0.0
C765 C 0.81075 0.12879 0.794 0.0
C766 C 0.80415 0.13669 0.77882 0.0
C767 C 0.77977 0.12883 0.77527 0.0
C768 C 0.76247 0.11418 0.78685 0.0
C769 C 0.82237 0.15446 0.76726 0.0
C770 C 0.81868 0.17436 0.76194 0.0
C771 C 0.84346 0.15258 0.76188 0.0
C772 C 0.84838 0.13179 0.76635 0.0
C773 C 0.83181 0.10851 0.76254 0.0
C774 C 0.83662 0.08903 0.76684 0.0
C775 C 0.85801 0.09261 0.77484 0.0
C776 C 0.87467 0.11568 0.77852 0.0
C777 C 0.86994 0.13522 0.77428 0.0
H778 H 0.8617 0.0775 0.77814 0.0
H779 H 0.81795 0.26689 0.7326 0.0
H780 H 0.04297 0.48573 0.07321 0.0
H781 H 0.03725 0.50921 0.04995 0.0
H782 H 0.99007 0.44483 0.02462 0.0
H783 H 0.99537 0.42113 0.04797 0.0
H784 H 0.01973 0.47492 1.00182 0.0
H785 H 0.96791 0.4808 0.04576 0.0
H786 H 0.95778 0.4885 0.07508 0.0
H787 H 0.01105 0.56053 0.07193 0.0
H788 H 0.02158 0.55317 0.04261 0.0
H789 H 0.97072 0.52915 0.94231 0.0
H790 H 0.97697 0.50545 0.9652 0.0
H791 H 0.02362 0.56968 0.99099 0.0
H792 H 0.01759 0.59357 0.96807 0.0
H793 H 0.99422 0.5395 0.01347 0.0
H794 H 0.04579 0.53344 0.96921 0.0
H795 H 0.05532 0.52552 0.93978 0.0
H796 H 1.00195 0.45359 0.94338 0.0
H797 H 0.99202 0.46116 0.97282 0.0
C798 C 0.03102 0.47647 0.06288 0.0
C799 C 0.01951 0.45141 0.06266 0.0
C800 C 0.02786 0.48999 0.04949 0.0
C801 C 0.013 0.47886 0.03556 0.0
C802 C 1.00164 0.45388 0.03519 0.0
C803 C 1.00475 0.44033 0.0486 0.0
C804 C 0.00936 0.49327 0.02138 0.0
C805 C 0.01386 0.48883 1.00437 0.0
C806 C 1.00215 0.51178 0.02461 0.0
C807 C 0.99563 0.51639 0.04208 0.0
C808 C 0.97751 0.49825 0.05136 0.0
C809 C 0.97169 0.50255 0.06796 0.0
C810 C 0.9838 0.52498 0.07537 0.0
C811 C 1.00169 0.54317 0.06617 0.0
C812 C 0.00755 0.53896 0.04955 0.0
C813 C 0.98267 0.53831 0.95267 0.0
C814 C 0.99375 0.56337 0.9532 0.0
C815 C 0.98617 0.52467 0.96583 0.0
C816 C 1.00102 0.53571 0.97979 0.0
C817 C 0.01208 0.5607 0.98039 0.0
C818 C 0.00856 0.57436 0.96725 0.0
C819 C 1.00468 0.52123 0.9939 0.0
C820 C 1.00014 0.52563 0.01091 0.0
C821 C 0.01181 0.50266 0.99065 0.0
C822 C 0.01808 0.4979 0.97314 0.0
C823 C 0.03606 0.51596 0.96369 0.0
C824 C 0.04154 0.51154 0.94702 0.0
C825 C 0.02922 0.48908 0.9397 0.0
C826 C 0.01148 0.47097 0.94907 0.0
C827 C 0.00596 0.4753 0.96576 0.0
H828 H 0.03345 0.4857 0.92678 0.0
H829 H 0.9793 0.52827 0.08824 0.0
H830 H 0.41524 0.44882 0.96767 0.0
H831 H 0.44008 0.47016 0.99164 0.0
H832 H 0.50282 0.48784 0.96036 0.0
H833 H 0.47825 0.46482 0.93677 0.0
H834 H 0.51086 0.47469 0.98947 0.0
H835 H 0.47785 0.52897 0.97248 0.0
H836 H 0.44678 0.54271 0.96584 0.0
H837 H 0.41852 0.52446 0.01691 0.0
H838 H 0.44919 0.51025 0.02376 0.0
H839 H 0.5909 0.55919 0.04736 0.0
H840 H 0.56658 0.53856 0.02295 0.0
H841 H 0.50322 0.51925 0.05379 0.0
H842 H 0.52722 0.54151 0.07785 0.0
H843 H 0.49587 0.53364 0.02464 0.0
H844 H 0.52958 0.47927 0.04131 0.0
H845 H 0.56119 0.46608 0.04749 0.0
H846 H 0.58888 0.48545 0.99638 0.0
H847 H 0.55768 0.49912 0.98998 0.0
C848 C 0.43432 0.45707 0.96585 0.0
C849 C 0.4446 0.45489 0.95015 0.0
C850 C 0.44855 0.46966 0.97957 0.0
C851 C 0.47341 0.48099 0.97783 0.0
C852 C 0.4837 0.47934 0.96207 0.0
C853 C 0.46952 0.46638 0.94845 0.0
C854 C 0.48879 0.49356 0.99264 0.0
C855 C 0.50778 0.48788 0.99698 0.0
C856 C 0.48448 0.5103 1.00282 0.0
C857 C 0.46569 0.51833 0.99857 0.0
C858 C 0.46486 0.52765 0.98223 0.0
C859 C 0.44734 0.53557 0.97844 0.0
C860 C 0.43065 0.53441 0.99093 0.0
C861 C 0.43143 0.52531 0.00723 0.0
C862 C 0.44887 0.51732 0.01108 0.0
C863 C 0.57178 0.55074 0.049 0.0
C864 C 0.56116 0.55219 0.06473 0.0
C865 C 0.55787 0.53857 0.03502 0.0
C866 C 0.53299 0.52696 0.03651 0.0
C867 C 0.52236 0.52796 0.05227 0.0
C868 C 0.53622 0.54048 0.06616 0.0
C869 C 0.5179 0.51472 0.0215 0.0
C870 C 0.49896 0.52047 0.01712 0.0
C871 C 0.52234 0.49814 0.01123 0.0
C872 C 0.54143 0.49044 0.01524 0.0
C873 C 0.54256 0.48095 0.03145 0.0
C874 C 0.56038 0.47335 0.03498 0.0
C875 C 0.57706 0.47498 0.02235 0.0
C876 C 0.57598 0.48424 1.00616 0.0
C877 C 0.55824 0.49192 1.00259 0.0
H878 H 0.59079 0.46901 0.02509 0.0
H879 H 0.41715 0.54062 0.98799 0.0
H880 H 0.44923 0.963 0.06916 0.0
H881 H 0.47758 0.96796 0.04602 0.0
H882 H 0.46334 0.02509 0.02471 0.0
H883 H 0.43404 0.0193 0.04745 0.0
H884 H 0.46626 0.99982 0.99996 0.0
H885 H 0.51746 0.03418 0.04845 0.0
H886 H 0.53111 0.03423 0.07819 0.0
H887 H 0.54415 0.97274 0.06735 0.0
H888 H 0.53046 0.97228 0.03757 0.0
H889 H 0.56535 0.04362 0.94358 0.0
H890 H 0.53706 0.03882 0.96672 0.0
H891 H 0.54852 0.97943 0.98675 0.0
H892 H 0.57731 0.98453 0.96378 0.0
H893 H 0.54723 0.00611 0.01209 0.0
H894 H 0.49594 0.97227 0.96334 0.0
H895 H 0.48243 0.97282 0.93363 0.0
H896 H 0.46998 0.03449 0.94509 0.0
H897 H 0.48356 0.03436 0.97484 0.0
C898 C 0.45234 0.97678 0.05963 0.0
C899 C 0.43961 0.99093 0.06021 0.0
C900 C 0.46864 0.97968 0.04641 0.0
C901 C 0.47315 0.99732 0.03376 0.0
C902 C 0.46034 0.01143 0.03431 0.0
C903 C 0.44364 0.00818 0.04734 0.0
C904 C 0.49083 1.00074 0.01979 0.0
C905 C 0.48407 1.00154 1.00269 0.0
C906 C 0.51397 1.00247 0.02314 0.0
C907 C 0.52284 1.00313 0.04086 0.0
C908 C 0.52322 0.02067 0.05244 0.0
C909 C 0.53096 0.02077 0.06929 0.0
C910 C 0.53846 1.00348 0.07467 0.0
C911 C 0.53835 0.98613 0.06317 0.0
C912 C 0.53067 0.98598 0.04629 0.0
C913 C 0.56163 0.02933 0.95278 0.0
C914 C 0.57342 0.0143 0.95172 0.0
C915 C 0.54541 0.02659 0.96603 0.0
C916 C 0.54022 0.00843 0.97834 0.0
C917 C 0.55212 0.99351 0.97739 0.0
C918 C 0.56857 0.99643 0.96424 0.0
C919 C 0.52263 0.0052 0.99232 0.0
C920 C 0.52942 1.00443 0.0094 0.0
C921 C 0.49956 1.00362 0.98896 0.0
C922 C 0.49087 1.00337 0.97124 0.0
C923 C 0.49036 0.98596 0.95949 0.0
C924 C 0.48269 0.9862 0.94266 0.0
C925 C 0.47539 1.0037 0.93747 0.0
C926 C 0.47563 0.02094 0.94913 0.0
C927 C 0.48325 0.02075 0.96598 0.0
H928 H 0.46951 1.0039 0.92442 0.0
H929 H 0.54437 1.00354 0.08774 0.0
H930 H 0.46158 1.00295 0.57773 0.0
H931 H 0.48519 0.9947 0.55589 0.0
H932 H 0.45261 0.02024 0.51664 0.0
H933 H 0.42676 0.02548 0.53797 0.0
H934 H 0.45947 0.98759 0.50342 0.0
H935 H 0.51213 0.05496 0.53675 0.0
H936 H 0.53014 0.07511 0.5638 0.0
H937 H 0.55788 0.02321 0.57315 0.0
H938 H 0.53982 1.00263 0.54625 0.0
H939 H 0.54528 1.00377 0.43892 0.0
H940 H 0.522 0.01265 0.46077 0.0
H941 H 0.55142 0.98346 0.49981 0.0
H942 H 0.5766 0.97693 0.47844 0.0
H943 H 0.54639 0.0184 0.51292 0.0
H944 H 0.49303 0.95125 0.47899 0.0
H945 H 0.47549 0.93235 0.45149 0.0
H946 H 0.44962 0.98582 0.44274 0.0
H947 H 0.46721 0.00515 0.4701 0.0
C948 C 0.45889 0.00628 0.56444 0.0
C949 C 0.44239 0.01549 0.55989 0.0
C950 C 0.4729 1.00201 0.55191 0.0
C951 C 0.47155 0.00774 0.53455 0.0
C952 C 0.45444 0.01596 0.5299 0.0
C953 C 0.43985 0.01941 0.5423 0.0
C954 C 0.488 0.00554 0.52123 0.0
C955 C 0.47851 0.99463 0.5055 0.0
C956 C 0.5129 0.01432 0.52379 0.0
C957 C 0.52451 0.0272 0.53958 0.0
C958 C 0.52207 0.04787 0.5446 0.0
C959 C 0.53226 0.05934 0.5599 0.0
C960 C 0.5451 0.05042 0.5702 0.0
C961 C 0.54792 0.03009 0.56516 0.0
C962 C 0.53775 0.01855 0.54988 0.0
C963 C 0.54731 0.99972 0.45218 0.0
C964 C 0.56264 0.98909 0.4567 0.0
C965 C 0.53357 1.00444 0.46469 0.0
C966 C 0.53418 0.99794 0.48195 0.0
C967 C 0.55024 0.98836 0.4866 0.0
C968 C 0.56443 0.98425 0.47421 0.0
C969 C 0.51784 1.00049 0.49517 0.0
C970 C 0.52735 0.01144 0.51087 0.0
C971 C 0.493 0.99194 0.49253 0.0
C972 C 0.48153 0.97969 0.47651 0.0
C973 C 0.48357 0.95894 0.47119 0.0
C974 C 0.47366 0.94818 0.45562 0.0
C975 C 0.46149 0.9579 0.44536 0.0
C976 C 0.45906 0.97831 0.45069 0.0
C977 C 0.46895 0.98915 0.46624 0.0
H978 H 0.45392 0.94961 0.43328 0.0
H979 H 0.5529 0.05927 0.58208 0.0
H980 H 0.98965 0.46161 0.57747 0.0
H981 H 0.99498 0.49068 0.55483 0.0
H982 H 0.01664 0.4497 0.51969 0.0
H983 H 0.01316 0.42152 0.54258 0.0
H984 H 0.04222 0.49474 0.5139 0.0
H985 H 0.95819 0.44653 0.52023 0.0
H986 H 0.92105 0.42786 0.53703 0.0
H987 H 0.92699 0.49691 0.55193 0.0
H988 H 0.96431 0.51597 0.53534 0.0
H989 H 0.02647 0.54695 0.43743 0.0
H990 H 0.02021 0.5175 0.45998 0.0
H991 H 1.00084 0.55985 0.49543 0.0
H992 H 1.00544 0.58859 0.47267 0.0
H993 H 0.97391 0.51407 0.50098 0.0
H994 H 0.0583 0.56205 0.49476 0.0
H995 H 0.09514 0.58047 0.47761 0.0
H996 H 0.08803 0.51124 0.46212 0.0
H997 H 0.05101 0.49244 0.47909 0.0
C998 C 0.99608 0.45898 0.56507 0.0
C999 C 1.00069 0.43891 0.56191 0.0
C1000 C 0.99877 0.4755 0.55201 0.0
C1001 C 1.0056 0.4721 0.53537 0.0
C1002 C 0.01111 0.45265 0.53234 0.0
C1003 C 0.00882 0.43634 0.54546 0.0
C1004 C 0.00642 0.48842 0.52101 0.0
C1005 C 0.02716 0.49871 0.51098 0.0
C1006 C 0.98696 0.49399 0.51725 0.0
C1007 C 0.96408 0.48265 0.52665 0.0
C1008 C 0.95157 0.45771 0.52711 0.0
C1009 C 0.93051 0.44707 0.5366 0.0
C1010 C 0.92169 0.46119 0.54557 0.0
C1011 C 0.93384 0.486 0.54498 0.0
C1012 C 0.95492 0.49673 0.53551 0.0
C1013 C 0.02034 0.54982 0.44987 0.0
C1014 C 0.01679 0.57045 0.45318 0.0
C1015 C 0.01706 0.53305 0.46287 0.0
C1016 C 0.01063 0.53672 0.47956 0.0
C1017 C 0.00603 0.5567 0.48272 0.0
C1018 C 0.00897 0.5733 0.46969 0.0
C1019 C 0.00968 0.52033 0.49389 0.0
C1020 C 0.98894 0.51006 0.50391 0.0
C1021 C 0.0291 0.51471 0.49762 0.0
C1022 C 0.05188 0.52588 0.4881 0.0
C1023 C 0.06463 0.55078 0.4877 0.0
C1024 C 0.08551 0.56128 0.478 0.0
C1025 C 0.0939 0.54703 0.46876 0.0
C1026 C 0.08151 0.52225 0.46929 0.0
C1027 C 0.06061 0.51166 0.47898 0.0
H1028 H 0.11002 0.5552 0.46119 0.0
H1029 H 0.90543 0.45291 0.55296 0.0
H1030 H 0.43029 0.43069 0.47052 0.0
H1031 H 0.45291 0.45586 0.49397 0.0
H1032 H 0.50973 0.49581 0.45897 0.0
H1033 H 0.48657 0.47186 0.43501 0.0
H1034 H 0.52339 0.4814 0.49265 0.0
H1035 H 0.47771 0.52085 0.46846 0.0
H1036 H 0.44052 0.52184 0.45827 0.0
H1037 H 0.4098 0.50212 0.50856 0.0
H1038 H 0.4467 0.50057 0.51898 0.0
H1039 H 0.58873 0.57797 0.54628 0.0
H1040 H 0.56695 0.5541 0.52203 0.0
H1041 H 0.50227 0.52738 0.55198 0.0
H1042 H 0.52375 0.5524 0.57609 0.0
H1043 H 0.49234 0.53471 0.52053 0.0
H1044 H 0.53548 0.49452 0.54537 0.0
H1045 H 0.57092 0.4909 0.55671 0.0
H1046 H 0.60423 0.50845 0.50707 0.0
H1047 H 0.56911 0.51256 0.49549 0.0
C1048 C 0.44741 0.445 0.46758 0.0
C1049 C 0.4562 0.44936 0.45058 0.0
C1050 C 0.46046 0.45922 0.48114 0.0
C1051 C 0.48289 0.47781 0.47819 0.0
C1052 C 0.4924 0.48153 0.46151 0.0
C1053 C 0.47912 0.46764 0.44781 0.0
C1054 C 0.49587 0.49392 0.49245 0.0
C1055 C 0.51684 0.49333 0.49859 0.0
C1056 C 0.48685 0.50887 0.50056 0.0
C1057 C 0.46487 0.51036 0.49445 0.0
C1058 C 0.46296 0.51654 0.47731 0.0
C1059 C 0.44194 0.51722 0.4715 0.0
C1060 C 0.42278 0.51198 0.48275 0.0
C1061 C 0.42465 0.50614 0.49986 0.0
C1062 C 0.44561 0.50537 0.50573 0.0
C1063 C 0.56978 0.56741 0.54769 0.0
C1064 C 0.55807 0.5672 0.56327 0.0
C1065 C 0.55737 0.55346 0.53382 0.0
C1066 C 0.533 0.53849 0.53521 0.0
C1067 C 0.52109 0.53862 0.55057 0.0
C1068 C 0.53348 0.55278 0.56444 0.0
C1069 C 0.52013 0.52242 0.52077 0.0
C1070 C 0.49905 0.5229 0.5146 0.0
C1071 C 0.52885 0.50704 0.51282 0.0
C1072 C 0.54977 0.50407 0.51961 0.0
C1073 C 0.55042 0.49773 0.5369 0.0
C1074 C 0.57045 0.4956 0.54337 0.0
C1075 C 0.58984 0.49951 0.53263 0.0
C1076 C 0.5892 0.50546 0.51538 0.0
C1077 C 0.56924 0.50768 0.50885 0.0
H1078 H 0.60535 0.49788 0.53767 0.0
H1079 H 0.40651 0.51249 0.47822 0.0
H1080 H 0.93569 0.53098 0.31169 0.0
H1081 H 0.92319 0.49844 0.29098 0.0
H1082 H 0.97943 0.54193 0.25662 0.0
H1083 H 0.99268 0.57429 0.27751 0.0
H1084 H 0.9332 0.5086 0.24052 0.0
H1085 H 0.99431 0.51191 0.2828 0.0
H1086 H 0.00692 0.51394 0.313 0.0
H1087 H 0.94509 0.44962 0.32432 0.0
H1088 H 0.93198 0.44744 0.2942 0.0
H1089 H 0.98793 0.45202 0.19366 0.0
H1090 H 0.97586 0.47541 0.21315 0.0
H1091 H 0.93068 0.41175 0.24063 0.0
H1092 H 0.94223 0.38777 0.22071 0.0
H1093 H 0.95957 0.44805 0.26219 0.0
H1094 H 0.90296 0.43827 0.21953 0.0
H1095 H 0.8884 0.4348 0.1898 0.0
H1096 H 0.93637 0.50764 0.18003 0.0
H1097 H 0.95139 0.51148 0.2097 0.0
C1098 C 0.94513 0.5338 0.29958 0.0
C1099 C 0.96552 0.55502 0.29639 0.0
C1100 C 0.93781 0.51527 0.28773 0.0
C1101 C 0.95057 0.51782 0.27244 0.0
C1102 C 0.96936 0.53977 0.26839 0.0
C1103 C 0.97688 0.55826 0.28033 0.0
C1104 C 0.94711 0.49676 0.26207 0.0
C1105 C 0.9388 0.49526 0.24523 0.0
C1106 C 0.95359 0.47893 0.26852 0.0
C1107 C 0.9621 0.47961 0.28634 0.0
C1108 C 0.98341 0.49824 0.29175 0.0
C1109 C 0.99063 0.49943 0.30884 0.0
C1110 C 0.97679 0.48194 0.32058 0.0
C1111 C 0.95578 0.46315 0.31522 0.0
C1112 C 0.94846 0.46192 0.29814 0.0
C1113 C 0.97483 0.44275 0.20345 0.0
C1114 C 0.96584 0.41792 0.20543 0.0
C1115 C 0.96809 0.45623 0.2147 0.0
C1116 C 0.95219 0.44526 0.22819 0.0
C1117 C 0.94292 0.42048 0.23023 0.0
C1118 C 0.94956 0.40687 0.21885 0.0
C1119 C 0.94638 0.46029 0.24039 0.0
C1120 C 0.95312 0.46081 0.25759 0.0
C1121 C 0.93788 0.47685 0.23441 0.0
C1122 C 0.92828 0.47516 0.21681 0.0
C1123 C 0.91039 0.45355 0.21103 0.0
C1124 C 0.90208 0.45151 0.1942 0.0
C1125 C 0.91146 0.47099 0.18303 0.0
C1126 C 0.92909 0.49259 0.18871 0.0
C1127 C 0.93745 0.49474 0.20556 0.0
H1128 H 0.90507 0.46934 0.16996 0.0
H1129 H 0.98236 0.48293 0.33383 0.0
H1130 H 0.51916 0.41205 0.32388 0.0
H1131 H 0.5519 0.43062 0.30342 0.0
H1132 H 0.5043 0.39777 0.26144 0.0
H1133 H 0.4714 0.37953 0.28166 0.0
H1134 H 0.5581 0.40618 0.25803 0.0
H1135 H 0.50365 0.4456 0.26723 0.0
H1136 H 0.48056 0.45805 0.28767 0.0
H1137 H 0.5442 0.49843 0.31599 0.0
H1138 H 0.56758 0.48603 0.29573 0.0
H1139 H 0.59425 0.49078 0.18893 0.0
H1140 H 0.57621 0.45937 0.21048 0.0
H1141 H 0.61472 0.50858 0.2504 0.0
H1142 H 0.63209 0.5401 0.22916 0.0
H1143 H 0.56879 0.49031 0.25639 0.0
H1144 H 0.62516 0.45969 0.243 0.0
H1145 H 0.64923 0.44526 0.22513 0.0
H1146 H 0.58571 0.38793 0.20677 0.0
H1147 H 0.56121 0.40217 0.22442 0.0
C1148 C 0.51579 0.40831 0.31032 0.0
C1149 C 0.49263 0.3946 0.30439 0.0
C1150 C 0.53455 0.41864 0.2987 0.0
C1151 C 0.53041 0.41546 0.28099 0.0
C1152 C 0.50785 0.40008 0.27509 0.0
C1153 C 0.48905 0.38977 0.2867 0.0
C1154 C 0.54765 0.43229 0.26887 0.0
C1155 C 0.56049 0.42456 0.25751 0.0
C1156 C 0.55095 0.45626 0.26855 0.0
C1157 C 0.53728 0.46493 0.28004 0.0
C1158 C 0.51267 0.4572 0.27779 0.0
C1159 C 0.49955 0.4642 0.28935 0.0
C1160 C 0.5109 0.47902 0.30313 0.0
C1161 C 0.53544 0.48699 0.3053 0.0
C1162 C 0.54864 0.48004 0.29377 0.0
C1163 C 0.59917 0.49477 0.20227 0.0
C1164 C 0.61447 0.51799 0.20731 0.0
C1165 C 0.58906 0.47674 0.21455 0.0
C1166 C 0.59415 0.48167 0.23204 0.0
C1167 C 0.61061 0.5044 0.23696 0.0
C1168 C 0.62066 0.52238 0.22475 0.0
C1169 C 0.57969 0.46448 0.24531 0.0
C1170 C 0.56694 0.47208 0.25688 0.0
C1171 C 0.57681 0.44054 0.24582 0.0
C1172 C 0.59135 0.43213 0.2349 0.0
C1173 C 0.6163 0.44415 0.23501 0.0
C1174 C 0.63003 0.43596 0.22496 0.0
C1175 C 0.619 0.41572 0.21479 0.0
C1176 C 0.59422 0.40362 0.21465 0.0
C1177 C 0.58041 0.41172 0.22469 0.0
H1178 H 0.62966 0.40939 0.20704 0.0
H1179 H 0.5007 0.48432 0.31212 0.0
H1180 H 0.46371 0.07787 0.21704 0.0
H1181 H 0.49845 0.08847 0.23571 0.0
H1182 H 0.48115 0.01392 0.24329 0.0
H1183 H 0.44696 1.00324 0.22467 0.0
H1184 H 0.49472 0.03803 0.2727 0.0
H1185 H 0.52202 0.04981 0.2122 0.0
H1186 H 0.52784 0.07026 0.18419 0.0
H1187 H 0.56747 0.13757 0.20856 0.0
H1188 H 0.56161 0.11751 0.23673 0.0
H1189 H 0.58342 0.006 0.28667 0.0
H1190 H 0.55827 0.01701 0.26819 0.0
H1191 H 0.59512 0.09029 0.28361 0.0
H1192 H 0.62158 0.07974 0.30168 0.0
H1193 H 0.57492 0.07936 0.2464 0.0
H1194 H 0.55278 0.06773 0.30606 0.0
H1195 H 0.54905 0.0473 0.33388 0.0
H1196 H 0.50051 0.98145 0.3115 0.0
H1197 H 0.50426 1.00146 0.28348 0.0
C1198 C 0.4672 0.06376 0.22284 0.0
C1199 C 0.45247 0.03968 0.21935 0.0
C1200 C 0.48705 0.06986 0.23348 0.0
C1201 C 0.49248 0.05198 0.24072 0.0
C1202 C 0.47722 0.02801 0.23788 0.0
C1203 C 0.45749 0.02192 0.22731 0.0
C1204 C 0.51449 0.05758 0.25066 0.0
C1205 C 0.51224 0.04731 0.267 0.0
C1206 C 0.53746 0.07038 0.24351 0.0
C1207 C 0.54113 0.08223 0.22655 0.0
C1208 C 0.53184 0.06898 0.21158 0.0
C1209 C 0.53516 0.0805 0.19568 0.0
C1210 C 0.54794 0.10521 0.1946 0.0
C1211 C 0.55752 0.11845 0.20941 0.0
C1212 C 0.55421 0.10702 0.22534 0.0
C1213 C 0.58716 0.02468 0.2856 0.0
C1214 C 0.60436 0.04189 0.29599 0.0
C1215 C 0.57257 0.0309 0.27506 0.0
C1216 C 0.57465 0.05434 0.27483 0.0
C1217 C 0.59326 0.07209 0.28372 0.0
C1218 C 0.60814 0.06592 0.29418 0.0
C1219 C 0.55476 0.05878 0.2679 0.0
C1220 C 0.55744 0.07088 0.25228 0.0
C1221 C 0.53212 0.04793 0.27575 0.0
C1222 C 0.52884 0.03607 0.29271 0.0
C1223 C 0.54133 0.04889 0.30709 0.0
C1224 C 0.53924 0.03738 0.32288 0.0
C1225 C 0.52456 0.01309 0.32445 0.0
C1226 C 0.51185 1.00028 0.31026 0.0
C1227 C 0.51391 0.0117 0.29444 0.0
H1228 H 0.52302 1.00419 0.33667 0.0
H1229 H 0.55048 0.11409 0.18228 0.0
H1230 H 0.0825 0.60682 0.81382 0.0
H1231 H 0.09018 0.5798 0.79435 0.0
H1232 H 0.03358 0.57785 0.76144 0.0
H1233 H 0.02506 0.60371 0.78099 0.0
H1234 H 0.02591 0.53474 0.77659 0.0
H1235 H 0.0894 0.59932 0.74663 0.0
H1236 H 0.12793 0.63439 0.7445 0.0
H1237 H 0.16346 0.59358 0.76495 0.0
H1238 H 0.12508 0.55834 0.76741 0.0
H1239 H 0.0132 0.45989 0.70944 0.0
H1240 H 0.02293 0.49558 0.72653 0.0
H1241 H 0.08299 0.48719 0.74825 0.0
H1242 H 0.07379 0.45162 0.73026 0.0
H1243 H 0.09327 0.53395 0.74245 0.0
H1244 H 0.03173 0.46958 0.77169 0.0
H1245 H 0.99387 0.43378 0.77442 0.0
H1246 H 0.95555 0.47368 0.75735 0.0
H1247 H 0.9932 0.50966 0.75435 0.0
C1248 C 0.07206 0.60106 0.80223 0.0
C1249 C 0.05283 0.60704 0.79919 0.0
C1250 C 0.07666 0.58585 0.79103 0.0
C1251 C 0.06226 0.5767 0.7766 0.0
C1252 C 0.04485 0.58475 0.77257 0.0
C1253 C 0.04011 0.59972 0.78376 0.0
C1254 C 0.06174 0.55544 0.76775 0.0
C1255 C 0.04058 0.53468 0.76897 0.0
C1256 C 0.08136 0.55502 0.7587 0.0
C1257 C 0.10434 0.57628 0.75739 0.0
C1258 C 0.10539 0.5979 0.75086 0.0
C1259 C 0.12722 0.61779 0.74954 0.0
C1260 C 0.14812 0.61624 0.75463 0.0
C1261 C 0.14725 0.59478 0.76103 0.0
C1262 C 0.12547 0.57484 0.76238 0.0
C1263 C 0.02838 0.46555 0.71796 0.0
C1264 C 0.04234 0.45271 0.71903 0.0
C1265 C 0.03398 0.48596 0.72766 0.0
C1266 C 0.05325 0.49359 0.73903 0.0
C1267 C 0.06787 0.48137 0.73968 0.0
C1268 C 0.06253 0.46105 0.72959 0.0
C1269 C 0.057 0.51374 0.75061 0.0
C1270 C 0.07873 0.53405 0.75018 0.0
C1271 C 0.03803 0.51379 0.7607 0.0
C1272 C 0.01529 0.49228 0.76277 0.0
C1273 C 0.01523 0.47069 0.76847 0.0
C1274 C 0.99381 0.45037 0.77007 0.0
C1275 C 0.97232 0.45145 0.76606 0.0
C1276 C 0.9722 0.47287 0.76048 0.0
C1277 C 0.99357 0.49325 0.75887 0.0
H1278 H 0.95576 0.43569 0.76728 0.0
H1279 H 0.16501 0.63165 0.75358 0.0
H1280 H 0.53544 0.64168 0.73057 0.0
H1281 H 0.50164 0.62297 0.75007 0.0
H1282 H 0.46649 0.56835 0.71252 0.0
H1283 H 0.50024 0.58691 0.69299 0.0
H1284 H 0.43462 0.57831 0.73097 0.0
H1285 H 0.50366 0.56253 0.74226 0.0
H1286 H 0.5455 0.57266 0.74955 0.0
H1287 H 0.53735 0.60386 0.79693 0.0
H1288 H 0.49559 0.59437 0.78974 0.0
H1289 H 0.37874 0.46943 0.77641 0.0
H1290 H 0.39841 0.50465 0.75834 0.0
H1291 H 0.42448 0.54794 0.80355 0.0
H1292 H 0.40555 0.51269 0.82165 0.0
H1293 H 0.45954 0.55022 0.78378 0.0
H1294 H 0.38805 0.55881 0.77482 0.0
H1295 H 0.34599 0.54761 0.76775 0.0
H1296 H 0.35772 0.52847 0.71675 0.0
H1297 H 0.39977 0.53913 0.7236 0.0
C1298 C 0.52026 0.62598 0.72632 0.0
C1299 C 0.52068 0.61545 0.71039 0.0
C1300 C 0.50097 0.61535 0.73746 0.0
C1301 C 0.48187 0.59397 0.73289 0.0
C1302 C 0.48115 0.58478 0.71633 0.0
C1303 C 0.50044 0.59544 0.70514 0.0
C1304 C 0.46426 0.57955 0.74591 0.0
C1305 C 0.43996 0.5721 0.74254 0.0
C1306 C 0.47136 0.572 0.76121 0.0
C1307 C 0.49663 0.57812 0.76532 0.0
C1308 C 0.51088 0.57183 0.75412 0.0
C1309 C 0.53457 0.57741 0.75826 0.0
C1310 C 0.54411 0.58899 0.77366 0.0
C1311 C 0.52997 0.595 0.78497 0.0
C1312 C 0.50631 0.58956 0.78085 0.0
C1313 C 0.38822 0.48656 0.78249 0.0
C1314 C 0.39093 0.48824 0.80042 0.0
C1315 C 0.39921 0.50674 0.77216 0.0
C1316 C 0.41295 0.52893 0.7796 0.0
C1317 C 0.41392 0.53098 0.79755 0.0
C1318 C 0.40299 0.51081 0.80789 0.0
C1319 C 0.4297 0.54858 0.76881 0.0
C1320 C 0.45399 0.55688 0.77251 0.0
C1321 C 0.42252 0.55671 0.75383 0.0
C1322 C 0.39708 0.54965 0.74978 0.0
C1323 C 0.38162 0.55195 0.76216 0.0
C1324 C 0.35778 0.54575 0.75817 0.0
C1325 C 0.34918 0.53731 0.74182 0.0
C1326 C 0.3644 0.53501 0.72942 0.0
C1327 C 0.38825 0.54114 0.73334 0.0
H1328 H 0.33073 0.53259 0.73874 0.0
H1329 H 0.56242 0.59322 0.77686 0.0
H1330 H 0.55427 1.00211 0.79755 0.0
H1331 H 0.51788 0.98894 0.78073 0.0
H1332 H 0.52291 0.92313 0.76916 0.0
H1333 H 0.55957 0.93614 0.78631 0.0
H1334 H 0.51331 0.95471 0.73991 0.0
H1335 H 0.48354 0.91008 0.79163 0.0
H1336 H 0.48053 0.90409 0.823 0.0
H1337 H 0.45576 0.95897 0.8282 0.0
H1338 H 0.45895 0.9655 0.79685 0.0
H1339 H 0.40381 0.92952 0.70041 0.0
H1340 H 0.42893 0.91859 0.71951 0.0
H1341 H 0.43792 0.9776 0.75252 0.0
H1342 H 0.41342 0.98896 0.73343 0.0
H1343 H 0.43746 0.93784 0.77055 0.0
H1344 H 0.47494 0.98759 0.72079 0.0
H1345 H 0.47803 0.99551 0.68962 0.0
H1346 H 0.48922 0.93246 0.68094 0.0
H1347 H 0.48573 0.92396 0.71208 0.0
C1348 C 0.54795 0.98502 0.79117 0.0
C1349 C 0.55991 0.97026 0.79302 0.0
C1350 C 0.52705 0.97745 0.78174 0.0
C1351 C 0.51781 0.95508 0.77387 0.0
C1352 C 0.52991 0.94044 0.77523 0.0
C1353 C 0.55075 0.94789 0.78495 0.0
C1354 C 0.49535 0.94749 0.76436 0.0
C1355 C 0.4965 0.95018 0.7465 0.0
C1356 C 0.4737 0.94221 0.7731 0.0
C1357 C 0.47165 0.93838 0.79193 0.0
C1358 C 0.47765 0.92101 0.79949 0.0
C1359 C 0.47586 0.91748 0.81726 0.0
C1360 C 0.468 0.93117 0.82759 0.0
C1361 C 0.46185 0.94838 0.82017 0.0
C1362 C 0.46361 0.95198 0.8024 0.0
C1363 C 0.41071 0.93985 0.71194 0.0
C1364 C 0.407 0.96038 0.71523 0.0
C1365 C 0.42489 0.93347 0.72288 0.0
C1366 C 0.43549 0.94752 0.73724 0.0
C1367 C 0.42982 0.96651 0.7415 0.0
C1368 C 0.41575 0.97296 0.73055 0.0
C1369 C 0.45544 0.94524 0.7461 0.0
C1370 C 0.45395 0.94122 0.76385 0.0
C1371 C 0.47685 0.94943 0.73727 0.0
C1372 C 0.47979 0.95499 0.71868 0.0
C1373 C 0.47794 0.97537 0.71221 0.0
C1374 C 0.47975 0.97996 0.69456 0.0
C1375 C 0.48375 0.96446 0.6833 0.0
C1376 C 0.48606 0.94441 0.68968 0.0
C1377 C 0.48416 0.93969 0.70732 0.0
H1378 H 0.4851 0.96801 0.66963 0.0
H1379 H 0.46663 0.92842 0.84135 0.0
loop_
_geom_bond_atom_site_label_1
_geom_bond_atom_site_label_2
_geom_bond_distance
_geom_bond_site_symmetry_2
_ccdc_geom_bond_type
C0 C1 1.264 . S
C0 C5 1.479 . S
C0 C10 1.465 . S
C1 C0 1.264 . S
C1 C3 1.339 . S
C1 H28 0.931 . S
C2 C3 1.395 . S
C2 C4 1.320 . S
C3 C1 1.339 . S
C3 C2 1.395 . S
C3 H29 0.929 . S
C4 C2 1.320 . S
C4 C5 1.405 . S
C4 H30 0.930 . S
C5 C0 1.479 . S
C5 C4 1.405 . S
C5 H31 0.931 . S
U6 O7 2.454 . S
U6 O8 2.458 1_455 S
U6 C9 2.984 1_455 S
U6 C10 2.847 . S
U6 C23 2.882 1_455 S
U6 O24 2.441 . S
U6 O25 2.420 . S
U6 O26 2.455 1_455 S
U6 O27 2.449 . S
O7 U6 2.454 . S
O7 C9 1.353 1_455 S
O8 U6 2.458 1_655 S
O8 C9 1.286 . S
C9 U6 2.984 1_655 S
C9 O7 1.353 1_655 S
C9 O8 1.286 . S
C9 C11 1.363 . S
C10 C0 1.465 . S
C10 U6 2.847 . S
C10 O24 1.249 . S
C10 O25 1.202 . S
C11 C9 1.363 . S
C11 C13 1.408 1_655 S
C11 C16 1.342 . S
C12 C13 1.310 1_655 S
C12 C15 1.461 . S
C12 H32 0.932 1_655 S
C13 C11 1.408 1_455 S
C13 C12 1.310 1_455 S
C13 H33 0.930 . S
C14 C15 1.474 . S
C14 C16 1.285 . S
C14 H34 0.929 . S
C15 C12 1.461 . S
C15 C14 1.474 . S
C16 C11 1.342 . S
C16 C14 1.285 . S
C16 H35 0.930 . S
C17 C20 1.424 . S
C17 C22 1.245 . S
C17 C23 1.428 . S
C18 C21 1.260 . S
C18 C22 1.477 . S
C18 H36 0.932 . S
C19 C20 1.384 . S
C19 C21 1.479 . S
C19 H37 0.929 . S
C20 C17 1.424 . S
C20 C19 1.384 . S
C20 H38 0.928 . S
C21 C18 1.260 . S
C21 C19 1.479 . S
C22 C17 1.245 . S
C22 C18 1.477 . S
C22 H39 0.932 . S
C23 U6 2.882 1_655 S
C23 C17 1.428 . S
C23 O26 1.301 . S
C23 O27 1.282 1_655 S
O24 U6 2.441 . S
O24 C10 1.249 . S
O25 U6 2.420 . S
O25 C10 1.202 . S
O26 U6 2.455 1_655 S
O26 C23 1.301 . S
O27 U6 2.449 . S
O27 C23 1.282 1_455 S
H28 C1 0.931 . S
H29 C3 0.929 . S
H30 C4 0.930 . S
H31 C5 0.931 . S
H32 C12 0.932 1_455 S
H33 C13 0.930 . S
H34 C14 0.929 . S
H35 C16 0.930 . S
H36 C18 0.932 . S
H37 C19 0.929 . S
H38 C20 0.928 . S
H39 C22 0.932 . S
C40 C41 1.264 . S
C40 C45 1.479 . S
C40 C50 1.465 . S
C41 C40 1.264 . S
C41 C43 1.339 . S
C41 H68 0.931 . S
C42 C43 1.395 . S
C42 C44 1.320 . S
C43 C41 1.339 . S
C43 C42 1.395 . S
C43 H69 0.929 . S
C44 C42 1.320 . S
C44 C45 1.405 . S
C44 H70 0.930 . S
C45 C40 1.479 . S
C45 C44 1.405 . S
C45 H71 0.931 . S
U46 O47 2.454 . S
U46 O48 2.458 . S
U46 C49 2.984 . S
U46 C50 2.847 . S
U46 C63 2.882 . S
U46 O64 2.441 . S
U46 O65 2.420 . S
U46 O66 2.455 . S
U46 O67 2.449 . S
O47 U46 2.454 . S
O47 C49 1.353 . S
O48 U46 2.458 . S
O48 C49 1.286 . S
C49 U46 2.984 . S
C49 O47 1.353 . S
C49 O48 1.286 . S
C49 C51 1.363 . S
C50 C40 1.465 . S
C50 U46 2.847 . S
C50 O64 1.249 . S
C50 O65 1.202 . S
C51 C49 1.363 . S
C51 C53 1.408 . S
C51 C56 1.342 . S
C52 C53 1.310 . S
C52 C55 1.461 . S
C52 H72 0.932 . S
C53 C51 1.408 . S
C53 C52 1.310 . S
C53 H73 0.930 . S
C54 C55 1.474 . S
C54 C56 1.285 . S
C54 H74 0.929 . S
C55 C52 1.461 . S
C55 C54 1.474 . S
C56 C51 1.342 . S
C56 C54 1.285 . S
C56 H75 0.930 . S
C57 C60 1.424 . S
C57 C62 1.245 . S
C57 C63 1.428 . S
C58 C61 1.260 . S
C58 C62 1.477 . S
C58 H76 0.932 . S
C59 C60 1.384 . S
C59 C61 1.479 . S
C59 H77 0.929 . S
C60 C57 1.424 . S
C60 C59 1.384 . S
C60 H78 0.928 . S
C61 C58 1.260 . S
C61 C59 1.479 . S
C62 C57 1.245 . S
C62 C58 1.477 . S
C62 H79 0.932 . S
C63 U46 2.882 . S
C63 C57 1.428 . S
C63 O66 1.301 . S
C63 O67 1.282 . S
O64 U46 2.441 . S
O64 C50 1.249 . S
O65 U46 2.420 . S
O65 C50 1.202 . S
O66 U46 2.455 . S
O66 C63 1.301 . S
O67 U46 2.449 . S
O67 C63 1.282 . S
H68 C41 0.931 . S
H69 C43 0.929 . S
H70 C44 0.930 . S
H71 C45 0.931 . S
H72 C52 0.932 . S
H73 C53 0.930 . S
H74 C54 0.929 . S
H75 C56 0.930 . S
H76 C58 0.932 . S
H77 C59 0.929 . S
H78 C60 0.928 . S
H79 C62 0.932 . S
C80 C81 1.264 . S
C80 C85 1.479 . S
C80 C90 1.465 . S
C81 C80 1.264 . S
C81 C83 1.339 . S
C81 H108 0.931 . S
C82 C83 1.395 . S
C82 C84 1.320 . S
C83 C81 1.339 . S
C83 C82 1.395 . S
C83 H109 0.929 . S
C84 C82 1.320 . S
C84 C85 1.405 . S
C84 H110 0.930 . S
C85 C80 1.479 . S
C85 C84 1.405 . S
C85 H111 0.931 . S
U86 O87 2.454 . S
U86 O88 2.458 1_565 S
U86 C89 2.984 1_565 S
U86 C90 2.847 . S
U86 C103 2.882 1_565 S
U86 O104 2.441 . S
U86 O105 2.420 . S
U86 O106 2.455 1_565 S
U86 O107 2.449 . S
O87 U86 2.454 . S
O87 C89 1.353 1_565 S
O88 U86 2.458 1_545 S
O88 C89 1.286 . S
C89 U86 2.984 1_545 S
C89 O87 1.353 1_545 S
C89 O88 1.286 . S
C89 C91 1.363 . S
C90 C80 1.465 . S
C90 U86 2.847 . S
C90 O104 1.249 . S
C90 O105 1.202 . S
C91 C89 1.363 . S
C91 C93 1.408 1_545 S
C91 C96 1.342 . S
C92 C93 1.310 1_545 S
C92 C95 1.461 . S
C92 H112 0.932 1_545 S
C93 C91 1.408 1_565 S
C93 C92 1.310 1_565 S
C93 H113 0.930 . S
C94 C95 1.474 . S
C94 C96 1.285 . S
C94 H114 0.929 . S
C95 C92 1.461 . S
C95 C94 1.474 . S
C96 C91 1.342 . S
C96 C94 1.285 . S
C96 H115 0.930 . S
C97 C100 1.424 . S
C97 C102 1.245 . S
C97 C103 1.428 . S
C98 C101 1.260 . S
C98 C102 1.477 . S
C98 H116 0.932 . S
C99 C100 1.384 . S
C99 C101 1.479 . S
C99 H117 0.929 . S
C100 C97 1.424 . S
C100 C99 1.384 . S
C100 H118 0.928 . S
C101 C98 1.260 . S
C101 C99 1.479 . S
C102 C97 1.245 . S
C102 C98 1.477 . S
C102 H119 0.932 . S
C103 U86 2.882 1_545 S
C103 C97 1.428 . S
C103 O106 1.301 . S
C103 O107 1.282 1_545 S
O104 U86 2.441 . S
O104 C90 1.249 . S
O105 U86 2.420 . S
O105 C90 1.202 . S
O106 U86 2.455 1_545 S
O106 C103 1.301 . S
O107 U86 2.449 . S
O107 C103 1.282 1_565 S
H108 C81 0.931 . S
H109 C83 0.929 . S
H110 C84 0.930 . S
H111 C85 0.931 . S
H112 C92 0.932 1_565 S
H113 C93 0.930 . S
H114 C94 0.929 . S
H115 C96 0.930 . S
H116 C98 0.932 . S
H117 C99 0.929 . S
H118 C100 0.928 . S
H119 C102 0.932 . S
C120 C121 1.264 . S
C120 C125 1.479 . S
C120 C130 1.465 . S
C121 C120 1.264 . S
C121 C123 1.339 . S
C121 H148 0.931 . S
C122 C123 1.395 . S
C122 C124 1.320 . S
C123 C121 1.339 . S
C123 C122 1.395 . S
C123 H149 0.929 . S
C124 C122 1.320 . S
C124 C125 1.405 . S
C124 H150 0.930 . S
C125 C120 1.479 . S
C125 C124 1.405 . S
C125 H151 0.931 . S
U126 O127 2.454 . S
U126 O128 2.458 1_565 S
U126 C129 2.984 1_565 S
U126 C130 2.847 . S
U126 C143 2.882 1_565 S
U126 O144 2.441 . S
U126 O145 2.420 . S
U126 O146 2.455 1_565 S
U126 O147 2.449 . S
O127 U126 2.454 . S
O127 C129 1.353 1_565 S
O128 U126 2.458 1_545 S
O128 C129 1.286 . S
C129 U126 2.984 1_545 S
C129 O127 1.353 1_545 S
C129 O128 1.286 . S
C129 C131 1.363 . S
C130 C120 1.465 . S
C130 U126 2.847 . S
C130 O144 1.249 . S
C130 O145 1.202 . S
C131 C129 1.363 . S
C131 C133 1.408 1_545 S
C131 C136 1.342 . S
C132 C133 1.310 1_545 S
C132 C135 1.461 . S
C132 H152 0.932 1_545 S
C133 C131 1.408 1_565 S
C133 C132 1.310 1_565 S
C133 H153 0.930 . S
C134 C135 1.474 . S
C134 C136 1.285 . S
C134 H154 0.929 . S
C135 C132 1.461 . S
C135 C134 1.474 . S
C136 C131 1.342 . S
C136 C134 1.285 . S
C136 H155 0.930 . S
C137 C140 1.424 . S
C137 C142 1.245 . S
C137 C143 1.428 . S
C138 C141 1.260 . S
C138 C142 1.477 . S
C138 H156 0.932 . S
C139 C140 1.384 . S
C139 C141 1.479 . S
C139 H157 0.929 . S
C140 C137 1.424 . S
C140 C139 1.384 . S
C140 H158 0.928 . S
C141 C138 1.260 . S
C141 C139 1.479 . S
C142 C137 1.245 . S
C142 C138 1.477 . S
C142 H159 0.932 . S
C143 U126 2.882 1_545 S
C143 C137 1.428 . S
C143 O146 1.301 . S
C143 O147 1.282 1_545 S
O144 U126 2.441 . S
O144 C130 1.249 . S
O145 U126 2.420 . S
O145 C130 1.202 . S
O146 U126 2.455 1_545 S
O146 C143 1.301 . S
O147 U126 2.449 . S
O147 C143 1.282 1_565 S
H148 C121 0.931 . S
H149 C123 0.929 . S
H150 C124 0.930 . S
H151 C125 0.931 . S
H152 C132 0.932 1_565 S
H153 C133 0.930 . S
H154 C134 0.929 . S
H155 C136 0.930 . S
H156 C138 0.932 . S
H157 C139 0.929 . S
H158 C140 0.928 . S
H159 C142 0.932 . S
C160 C161 1.264 . S
C160 C165 1.479 . S
C160 C170 1.465 . S
C161 C160 1.264 . S
C161 C163 1.339 . S
C161 H188 0.931 . S
C162 C163 1.395 . S
C162 C164 1.320 . S
C163 C161 1.339 . S
C163 C162 1.395 . S
C163 H189 0.929 . S
C164 C162 1.320 . S
C164 C165 1.405 . S
C164 H190 0.930 . S
C165 C160 1.479 . S
C165 C164 1.405 . S
C165 H191 0.931 . S
U166 O167 2.454 . S
U166 O168 2.458 1_455 S
U166 C169 2.984 1_455 S
U166 C170 2.847 . S
U166 C183 2.882 1_455 S
U166 O184 2.441 . S
U166 O185 2.420 . S
U166 O186 2.455 1_455 S
U166 O187 2.449 . S
O167 U166 2.454 . S
O167 C169 1.353 1_455 S
O168 U166 2.458 1_655 S
O168 C169 1.286 . S
C169 U166 2.984 1_655 S
C169 O167 1.353 1_655 S
C169 O168 1.286 . S
C169 C171 1.363 . S
C170 C160 1.465 . S
C170 U166 2.847 . S
C170 O184 1.249 . S
C170 O185 1.202 . S
C171 C169 1.363 . S
C171 C173 1.408 1_655 S
C171 C176 1.342 . S
C172 C173 1.310 1_655 S
C172 C175 1.461 . S
C172 H192 0.932 1_655 S
C173 C171 1.408 1_455 S
C173 C172 1.310 1_455 S
C173 H193 0.930 . S
C174 C175 1.474 . S
C174 C176 1.285 . S
C174 H194 0.929 . S
C175 C172 1.461 . S
C175 C174 1.474 . S
C176 C171 1.342 . S
C176 C174 1.285 . S
C176 H195 0.930 . S
C177 C180 1.424 . S
C177 C182 1.245 . S
C177 C183 1.428 . S
C178 C181 1.260 . S
C178 C182 1.477 . S
C178 H196 0.932 . S
C179 C180 1.384 . S
C179 C181 1.479 . S
C179 H197 0.929 . S
C180 C177 1.424 . S
C180 C179 1.384 . S
C180 H198 0.928 . S
C181 C178 1.260 . S
C181 C179 1.479 . S
C182 C177 1.245 . S
C182 C178 1.477 . S
C182 H199 0.932 . S
C183 U166 2.882 1_655 S
C183 C177 1.428 . S
C183 O186 1.301 . S
C183 O187 1.282 1_655 S
O184 U166 2.441 . S
O184 C170 1.249 . S
O185 U166 2.420 . S
O185 C170 1.202 . S
O186 U166 2.455 1_655 S
O186 C183 1.301 . S
O187 U166 2.449 . S
O187 C183 1.282 1_455 S
H188 C161 0.931 . S
H189 C163 0.929 . S
H190 C164 0.930 . S
H191 C165 0.931 . S
H192 C172 0.932 1_455 S
H193 C173 0.930 . S
H194 C174 0.929 . S
H195 C176 0.930 . S
H196 C178 0.932 . S
H197 C179 0.929 . S
H198 C180 0.928 . S
H199 C182 0.932 . S
C200 C201 1.264 . S
C200 C205 1.479 . S
C200 C210 1.465 . S
C201 C200 1.264 . S
C201 C203 1.339 . S
C201 H228 0.931 . S
C202 C203 1.395 . S
C202 C204 1.320 . S
C203 C201 1.339 . S
C203 C202 1.395 . S
C203 H229 0.929 . S
C204 C202 1.320 . S
C204 C205 1.405 . S
C204 H230 0.930 . S
C205 C200 1.479 . S
C205 C204 1.405 . S
C205 H231 0.931 . S
U206 O207 2.454 . S
U206 O208 2.458 . S
U206 C209 2.984 . S
U206 C210 2.847 . S
U206 C223 2.882 . S
U206 O224 2.441 . S
U206 O225 2.420 . S
U206 O226 2.455 . S
U206 O227 2.449 . S
O207 U206 2.454 . S
O207 C209 1.353 . S
O208 U206 2.458 . S
O208 C209 1.286 . S
C209 U206 2.984 . S
C209 O207 1.353 . S
C209 O208 1.286 . S
C209 C211 1.363 . S
C210 C200 1.465 . S
C210 U206 2.847 . S
C210 O224 1.249 . S
C210 O225 1.202 . S
C211 C209 1.363 . S
C211 C213 1.408 . S
C211 C216 1.342 . S
C212 C213 1.310 . S
C212 C215 1.461 . S
C212 H232 0.932 . S
C213 C211 1.408 . S
C213 C212 1.310 . S
C213 H233 0.930 . S
C214 C215 1.474 . S
C214 C216 1.285 . S
C214 H234 0.929 . S
C215 C212 1.461 . S
C215 C214 1.474 . S
C216 C211 1.342 . S
C216 C214 1.285 . S
C216 H235 0.930 . S
C217 C220 1.424 . S
C217 C222 1.245 . S
C217 C223 1.428 . S
C218 C221 1.260 . S
C218 C222 1.477 . S
C218 H236 0.932 . S
C219 C220 1.384 . S
C219 C221 1.479 . S
C219 H237 0.929 . S
C220 C217 1.424 . S
C220 C219 1.384 . S
C220 H238 0.928 . S
C221 C218 1.260 . S
C221 C219 1.479 . S
C222 C217 1.245 . S
C222 C218 1.477 . S
C222 H239 0.932 . S
C223 U206 2.882 . S
C223 C217 1.428 . S
C223 O226 1.301 . S
C223 O227 1.282 . S
O224 U206 2.441 . S
O224 C210 1.249 . S
O225 U206 2.420 . S
O225 C210 1.202 . S
O226 U206 2.455 . S
O226 C223 1.301 . S
O227 U206 2.449 . S
O227 C223 1.282 . S
H228 C201 0.931 . S
H229 C203 0.929 . S
H230 C204 0.930 . S
H231 C205 0.931 . S
H232 C212 0.932 . S
H233 C213 0.930 . S
H234 C214 0.929 . S
H235 C216 0.930 . S
H236 C218 0.932 . S
H237 C219 0.929 . S
H238 C220 0.928 . S
H239 C222 0.932 . S
C240 C241 1.264 . S
C240 C245 1.479 . S
C240 C250 1.465 . S
C241 C240 1.264 . S
C241 C243 1.339 . S
C241 H268 0.931 . S
C242 C243 1.395 . S
C242 C244 1.320 . S
C243 C241 1.339 . S
C243 C242 1.395 . S
C243 H269 0.929 . S
C244 C242 1.320 . S
C244 C245 1.405 . S
C244 H270 0.930 . S
C245 C240 1.479 . S
C245 C244 1.405 . S
C245 H271 0.931 . S
U246 O247 2.454 1_455 S
U246 O248 2.458 . S
U246 C249 2.984 . S
U246 C250 2.847 1_455 S
U246 C263 2.882 . S
U246 O264 2.441 1_455 S
U246 O265 2.420 1_455 S
U246 O266 2.455 . S
U246 O267 2.449 . S
O247 U246 2.454 1_655 S
O247 C249 1.353 1_655 S
O248 U246 2.458 . S
O248 C249 1.286 . S
C249 U246 2.984 . S
C249 O247 1.353 1_455 S
C249 O248 1.286 . S
C249 C251 1.363 . S
C250 C240 1.465 . S
C250 U246 2.847 1_655 S
C250 O264 1.249 . S
C250 O265 1.202 . S
C251 C249 1.363 . S
C251 C253 1.408 . S
C251 C256 1.342 . S
C252 C253 1.310 . S
C252 C255 1.461 . S
C252 H272 0.932 1_455 S
C253 C251 1.408 . S
C253 C252 1.310 . S
C253 H273 0.930 1_455 S
C254 C255 1.474 . S
C254 C256 1.285 . S
C254 H274 0.929 . S
C255 C252 1.461 . S
C255 C254 1.474 . S
C256 C251 1.342 . S
C256 C254 1.285 . S
C256 H275 0.930 . S
C257 C260 1.424 . S
C257 C262 1.245 . S
C257 C263 1.428 . S
C258 C261 1.260 . S
C258 C262 1.477 . S
C258 H276 0.932 . S
C259 C260 1.384 . S
C259 C261 1.479 . S
C259 H277 0.929 . S
C260 C257 1.424 . S
C260 C259 1.384 . S
C260 H278 0.928 . S
C261 C258 1.260 . S
C261 C259 1.479 . S
C262 C257 1.245 . S
C262 C258 1.477 . S
C262 H279 0.932 . S
C263 U246 2.882 . S
C263 C257 1.428 . S
C263 O266 1.301 . S
C263 O267 1.282 . S
O264 U246 2.441 1_655 S
O264 C250 1.249 . S
O265 U246 2.420 1_655 S
O265 C250 1.202 . S
O266 U246 2.455 . S
O266 C263 1.301 . S
O267 U246 2.449 . S
O267 C263 1.282 . S
H268 C241 0.931 . S
H269 C243 0.929 . S
H270 C244 0.930 . S
H271 C245 0.931 . S
H272 C252 0.932 1_655 S
H273 C253 0.930 1_655 S
H274 C254 0.929 . S
H275 C256 0.930 . S
H276 C258 0.932 . S
H277 C259 0.929 . S
H278 C260 0.928 . S
H279 C262 0.932 . S
C280 C281 1.264 . S
C280 C285 1.479 . S
C280 C290 1.465 . S
C281 C280 1.264 . S
C281 C283 1.339 . S
C281 H308 0.931 . S
C282 C283 1.395 . S
C282 C284 1.320 . S
C283 C281 1.339 . S
C283 C282 1.395 . S
C283 H309 0.929 . S
C284 C282 1.320 . S
C284 C285 1.405 . S
C284 H310 0.930 . S
C285 C280 1.479 . S
C285 C284 1.405 . S
C285 H311 0.931 . S
U286 O287 2.454 . S
U286 O288 2.458 . S
U286 C289 2.984 . S
U286 C290 2.847 . S
U286 C303 2.882 . S
U286 O304 2.441 . S
U286 O305 2.420 . S
U286 O306 2.455 . S
U286 O307 2.449 . S
O287 U286 2.454 . S
O287 C289 1.353 . S
O288 U286 2.458 . S
O288 C289 1.286 . S
C289 U286 2.984 . S
C289 O287 1.353 . S
C289 O288 1.286 . S
C289 C291 1.363 . S
C290 C280 1.465 . S
C290 U286 2.847 . S
C290 O304 1.249 . S
C290 O305 1.202 . S
C291 C289 1.363 . S
C291 C293 1.408 . S
C291 C296 1.342 . S
C292 C293 1.310 . S
C292 C295 1.461 . S
C292 H312 0.932 . S
C293 C291 1.408 . S
C293 C292 1.310 . S
C293 H313 0.930 . S
C294 C295 1.474 . S
C294 C296 1.285 . S
C294 H314 0.929 . S
C295 C292 1.461 . S
C295 C294 1.474 . S
C296 C291 1.342 . S
C296 C294 1.285 . S
C296 H315 0.930 . S
C297 C300 1.424 . S
C297 C302 1.245 . S
C297 C303 1.428 . S
C298 C301 1.260 . S
C298 C302 1.477 . S
C298 H316 0.932 . S
C299 C300 1.384 . S
C299 C301 1.479 . S
C299 H317 0.929 . S
C300 C297 1.424 . S
C300 C299 1.384 . S
C300 H318 0.928 . S
C301 C298 1.260 . S
C301 C299 1.479 . S
C302 C297 1.245 . S
C302 C298 1.477 . S
C302 H319 0.932 . S
C303 U286 2.882 . S
C303 C297 1.428 . S
C303 O306 1.301 . S
C303 O307 1.282 . S
O304 U286 2.441 . S
O304 C290 1.249 . S
O305 U286 2.420 . S
O305 C290 1.202 . S
O306 U286 2.455 . S
O306 C303 1.301 . S
O307 U286 2.449 . S
O307 C303 1.282 . S
H308 C281 0.931 . S
H309 C283 0.929 . S
H310 C284 0.930 . S
H311 C285 0.931 . S
H312 C292 0.932 . S
H313 C293 0.930 . S
H314 C294 0.929 . S
H315 C296 0.930 . S
H316 C298 0.932 . S
H317 C299 0.929 . S
H318 C300 0.928 . S
H319 C302 0.932 . S
C320 C321 1.264 . S
C320 C325 1.479 . S
C320 C330 1.465 . S
C321 C320 1.264 . S
C321 C323 1.339 . S
C321 H348 0.931 . S
C322 C323 1.395 . S
C322 C324 1.320 . S
C323 C321 1.339 . S
C323 C322 1.395 . S
C323 H349 0.929 . S
C324 C322 1.320 . S
C324 C325 1.405 . S
C324 H350 0.930 . S
C325 C320 1.479 . S
C325 C324 1.405 . S
C325 H351 0.931 . S
U326 O327 2.455 . S
U326 O328 2.458 . S
U326 C329 2.984 . S
U326 C330 2.847 1_565 S
U326 C343 2.882 . S
U326 O344 2.441 1_565 S
U326 O345 2.420 1_565 S
U326 O346 2.455 . S
U326 O347 2.449 . S
O327 U326 2.455 . S
O327 C329 1.355 . S
O328 U326 2.458 . S
O328 C329 1.286 . S
C329 U326 2.984 . S
C329 O327 1.355 . S
C329 O328 1.286 . S
C329 C331 1.363 . S
C330 C320 1.465 . S
C330 U326 2.847 1_545 S
C330 O344 1.249 . S
C330 O345 1.202 . S
C331 C329 1.363 . S
C331 C333 1.408 . S
C331 C336 1.342 . S
C332 C333 1.310 . S
C332 C335 1.461 . S
C332 H352 0.932 . S
C333 C331 1.408 . S
C333 C332 1.310 . S
C333 H353 0.930 1_565 S
C334 C335 1.474 . S
C334 C336 1.285 . S
C334 H354 0.929 . S
C335 C332 1.461 . S
C335 C334 1.474 . S
C336 C331 1.342 . S
C336 C334 1.285 . S
C336 H355 0.930 . S
C337 C340 1.424 . S
C337 C342 1.245 . S
C337 C343 1.428 . S
C338 C341 1.260 . S
C338 C342 1.477 . S
C338 H356 0.932 . S
C339 C340 1.384 . S
C339 C341 1.479 . S
C339 H357 0.929 . S
C340 C337 1.424 . S
C340 C339 1.384 . S
C340 H358 0.928 . S
C341 C338 1.260 . S
C341 C339 1.479 . S
C342 C337 1.245 . S
C342 C338 1.477 . S
C342 H359 0.932 . S
C343 U326 2.882 . S
C343 C337 1.428 . S
C343 O346 1.301 . S
C343 O347 1.282 . S
O344 U326 2.441 1_545 S
O344 C330 1.249 . S
O345 U326 2.420 1_545 S
O345 C330 1.202 . S
O346 U326 2.455 . S
O346 C343 1.301 . S
O347 U326 2.449 . S
O347 C343 1.282 . S
H348 C321 0.931 . S
H349 C323 0.929 . S
H350 C324 0.930 . S
H351 C325 0.931 . S
H352 C332 0.932 . S
H353 C333 0.930 1_545 S
H354 C334 0.929 . S
H355 C336 0.930 . S
H356 C338 0.932 . S
H357 C339 0.929 . S
H358 C340 0.928 . S
H359 C342 0.932 . S
C360 C361 1.264 . S
C360 C365 1.479 . S
C360 C370 1.465 . S
C361 C360 1.264 . S
C361 C363 1.339 . S
C361 H388 0.931 . S
C362 C363 1.395 . S
C362 C364 1.320 . S
C363 C361 1.339 . S
C363 C362 1.395 . S
C363 H389 0.929 . S
C364 C362 1.320 . S
C364 C365 1.405 . S
C364 H390 0.930 . S
C365 C360 1.479 . S
C365 C364 1.405 . S
C365 H391 0.931 . S
U366 O367 2.454 1_565 S
U366 O368 2.458 . S
U366 C369 2.984 . S
U366 C370 2.847 1_565 S
U366 C383 2.882 . S
U366 O384 2.441 1_565 S
U366 O385 2.420 1_565 S
U366 O386 2.455 . S
U366 O387 2.449 . S
O367 U366 2.454 1_545 S
O367 C369 1.353 1_545 S
O368 U366 2.458 . S
O368 C369 1.286 . S
C369 U366 2.984 . S
C369 O367 1.353 1_565 S
C369 O368 1.286 . S
C369 C371 1.363 . S
C370 C360 1.465 . S
C370 U366 2.847 1_545 S
C370 O384 1.249 . S
C370 O385 1.202 . S
C371 C369 1.363 . S
C371 C373 1.408 . S
C371 C376 1.342 . S
C372 C373 1.310 . S
C372 C375 1.461 . S
C372 H392 0.932 1_565 S
C373 C371 1.408 . S
C373 C372 1.310 . S
C373 H393 0.930 1_565 S
C374 C375 1.474 . S
C374 C376 1.285 . S
C374 H394 0.929 . S
C375 C372 1.461 . S
C375 C374 1.474 . S
C376 C371 1.342 . S
C376 C374 1.285 . S
C376 H395 0.930 . S
C377 C380 1.424 . S
C377 C382 1.245 . S
C377 C383 1.428 . S
C378 C381 1.260 . S
C378 C382 1.477 . S
C378 H396 0.932 . S
C379 C380 1.384 . S
C379 C381 1.479 . S
C379 H397 0.929 . S
C380 C377 1.424 . S
C380 C379 1.384 . S
C380 H398 0.928 . S
C381 C378 1.260 . S
C381 C379 1.479 . S
C382 C377 1.245 . S
C382 C378 1.477 . S
C382 H399 0.932 . S
C383 U366 2.882 . S
C383 C377 1.428 . S
C383 O386 1.301 . S
C383 O387 1.282 . S
O384 U366 2.441 1_545 S
O384 C370 1.249 . S
O385 U366 2.420 1_545 S
O385 C370 1.202 . S
O386 U366 2.455 . S
O386 C383 1.301 . S
O387 U366 2.449 . S
O387 C383 1.282 . S
H388 C361 0.931 . S
H389 C363 0.929 . S
H390 C364 0.930 . S
H391 C365 0.931 . S
H392 C372 0.932 1_545 S
H393 C373 0.930 1_545 S
H394 C374 0.929 . S
H395 C376 0.930 . S
H396 C378 0.932 . S
H397 C379 0.929 . S
H398 C380 0.928 . S
H399 C382 0.932 . S
C400 C401 1.264 . S
C400 C405 1.479 . S
C400 C410 1.465 . S
C401 C400 1.264 . S
C401 C403 1.339 . S
C401 H428 0.931 . S
C402 C403 1.395 . S
C402 C404 1.320 . S
C403 C401 1.339 . S
C403 C402 1.395 . S
C403 H429 0.929 . S
C404 C402 1.320 . S
C404 C405 1.405 . S
C404 H430 0.930 . S
C405 C400 1.479 . S
C405 C404 1.405 . S
C405 H431 0.931 . S
U406 O407 2.455 . S
U406 O408 2.458 . S
U406 C409 2.984 . S
U406 C410 2.847 1_455 S
U406 C423 2.882 . S
U406 O424 2.441 1_455 S
U406 O425 2.420 1_455 S
U406 O426 2.455 . S
U406 O427 2.449 . S
O407 U406 2.455 . S
O407 C409 1.355 . S
O408 U406 2.458 . S
O408 C409 1.286 . S
C409 U406 2.984 . S
C409 O407 1.355 . S
C409 O408 1.286 . S
C409 C411 1.363 . S
C410 C400 1.465 . S
C410 U406 2.847 1_655 S
C410 O424 1.249 . S
C410 O425 1.202 . S
C411 C409 1.363 . S
C411 C413 1.408 . S
C411 C416 1.342 . S
C412 C413 1.310 . S
C412 C415 1.461 . S
C412 H432 0.932 . S
C413 C411 1.408 . S
C413 C412 1.310 . S
C413 H433 0.930 1_455 S
C414 C415 1.474 . S
C414 C416 1.285 . S
C414 H434 0.929 . S
C415 C412 1.461 . S
C415 C414 1.474 . S
C416 C411 1.342 . S
C416 C414 1.285 . S
C416 H435 0.930 . S
C417 C420 1.424 . S
C417 C422 1.245 . S
C417 C423 1.428 . S
C418 C421 1.260 . S
C418 C422 1.477 . S
C418 H436 0.932 . S
C419 C420 1.384 . S
C419 C421 1.479 . S
C419 H437 0.929 . S
C420 C417 1.424 . S
C420 C419 1.384 . S
C420 H438 0.928 . S
C421 C418 1.260 . S
C421 C419 1.479 . S
C422 C417 1.245 . S
C422 C418 1.477 . S
C422 H439 0.932 . S
C423 U406 2.882 . S
C423 C417 1.428 . S
C423 O426 1.301 . S
C423 O427 1.282 . S
O424 U406 2.441 1_655 S
O424 C410 1.249 . S
O425 U406 2.420 1_655 S
O425 C410 1.202 . S
O426 U406 2.455 . S
O426 C423 1.301 . S
O427 U406 2.449 . S
O427 C423 1.282 . S
H428 C401 0.931 . S
H429 C403 0.929 . S
H430 C404 0.930 . S
H431 C405 0.931 . S
H432 C412 0.932 . S
H433 C413 0.930 1_655 S
H434 C414 0.929 . S
H435 C416 0.930 . S
H436 C418 0.932 . S
H437 C419 0.929 . S
H438 C420 0.928 . S
H439 C422 0.932 . S
C440 C441 1.264 . S
C440 C445 1.479 . S
C440 C450 1.465 . S
C441 C440 1.264 . S
C441 C443 1.339 . S
C441 H468 0.931 . S
C442 C443 1.395 . S
C442 C444 1.320 . S
C443 C441 1.339 . S
C443 C442 1.395 . S
C443 H469 0.929 . S
C444 C442 1.320 . S
C444 C445 1.405 . S
C444 H470 0.930 . S
C445 C440 1.479 . S
C445 C444 1.405 . S
C445 H471 0.931 . S
U446 O447 2.454 . S
U446 O448 2.458 . S
U446 C449 2.984 . S
U446 C450 2.847 . S
U446 C463 2.882 . S
U446 O464 2.441 . S
U446 O465 2.420 . S
U446 O466 2.455 . S
U446 O467 2.449 . S
O447 U446 2.454 . S
O447 C449 1.353 . S
O448 U446 2.458 . S
O448 C449 1.286 . S
C449 U446 2.984 . S
C449 O447 1.353 . S
C449 O448 1.286 . S
C449 C451 1.363 . S
C450 C440 1.465 . S
C450 U446 2.847 . S
C450 O464 1.249 . S
C450 O465 1.202 . S
C451 C449 1.363 . S
C451 C453 1.408 . S
C451 C456 1.342 . S
C452 C453 1.310 . S
C452 C455 1.461 . S
C452 H472 0.932 . S
C453 C451 1.408 . S
C453 C452 1.310 . S
C453 H473 0.930 . S
C454 C455 1.474 . S
C454 C456 1.285 . S
C454 H474 0.929 . S
C455 C452 1.461 . S
C455 C454 1.474 . S
C456 C451 1.342 . S
C456 C454 1.285 . S
C456 H475 0.930 . S
C457 C460 1.424 . S
C457 C462 1.245 . S
C457 C463 1.428 . S
C458 C461 1.260 . S
C458 C462 1.477 . S
C458 H476 0.932 . S
C459 C460 1.384 . S
C459 C461 1.479 . S
C459 H477 0.929 . S
C460 C457 1.424 . S
C460 C459 1.384 . S
C460 H478 0.928 . S
C461 C458 1.260 . S
C461 C459 1.479 . S
C462 C457 1.245 . S
C462 C458 1.477 . S
C462 H479 0.932 . S
C463 U446 2.882 . S
C463 C457 1.428 . S
C463 O466 1.301 . S
C463 O467 1.282 . S
O464 U446 2.441 . S
O464 C450 1.249 . S
O465 U446 2.420 . S
O465 C450 1.202 . S
O466 U446 2.455 . S
O466 C463 1.301 . S
O467 U446 2.449 . S
O467 C463 1.282 . S
H468 C441 0.931 . S
H469 C443 0.929 . S
H470 C444 0.930 . S
H471 C445 0.931 . S
H472 C452 0.932 . S
H473 C453 0.930 . S
H474 C454 0.929 . S
H475 C456 0.930 . S
H476 C458 0.932 . S
H477 C459 0.929 . S
H478 C460 0.928 . S
H479 C462 0.932 . S
H480 C498 0.951 . S
H481 C500 0.951 . S
H482 C502 0.950 . S
H483 C503 0.950 . S
H484 C505 0.950 . S
H485 C508 0.950 . S
H486 C509 0.950 . S
H487 C511 0.950 . S
H488 C512 0.950 . S
H489 C513 0.951 . S
H490 C515 0.951 . S
H491 C517 0.950 . S
H492 C518 0.950 . S
H493 C520 0.950 . S
H494 C523 0.950 . S
H495 C524 0.950 . S
H496 C526 0.950 . S
H497 C527 0.950 . S
C498 H480 0.951 . S
C498 C499 1.366 . S
C498 C500 1.388 . S
C499 C498 1.366 . S
C499 C503 1.385 . S
C500 H481 0.951 . S
C500 C498 1.388 . S
C500 C501 1.366 . S
C501 C500 1.366 . S
C501 C502 1.414 . S
C501 C504 1.499 . S
C502 H482 0.950 . S
C502 C501 1.414 . S
C502 C503 1.374 . S
C503 H483 0.950 . S
C503 C499 1.385 . S
C503 C502 1.374 . S
C504 C501 1.499 . S
C504 C505 1.373 . S
C504 C506 1.389 . S
C505 H484 0.950 . S
C505 C504 1.373 . S
C505 C521 1.377 . S
C506 C504 1.389 . S
C506 C507 1.524 . S
C506 C520 1.377 . S
C507 C506 1.524 . S
C507 C508 1.397 . S
C507 C512 1.363 . S
C508 H485 0.950 . S
C508 C507 1.397 . S
C508 C509 1.334 . S
C509 H486 0.950 . S
C509 C508 1.334 . S
C509 C510 1.287 . S
C510 C509 1.287 . S
C510 C511 1.524 . S
C510 H529 0.913 . S
C511 H487 0.950 . S
C511 C510 1.524 . S
C511 C512 1.415 . S
C512 H488 0.950 . S
C512 C507 1.363 . S
C512 C511 1.415 . S
C513 H489 0.951 . S
C513 C514 1.366 . S
C513 C515 1.388 . S
C514 C513 1.366 . S
C514 C518 1.385 . S
C515 H490 0.951 . S
C515 C513 1.388 . S
C515 C516 1.366 . S
C516 C515 1.366 . S
C516 C517 1.414 . S
C516 C519 1.499 . S
C517 H491 0.950 . S
C517 C516 1.414 . S
C517 C518 1.374 . S
C518 H492 0.950 . S
C518 C514 1.385 . S
C518 C517 1.374 . S
C519 C516 1.499 . S
C519 C520 1.373 . S
C519 C521 1.389 . S
C520 H493 0.950 . S
C520 C506 1.377 . S
C520 C519 1.373 . S
C521 C505 1.377 . S
C521 C519 1.389 . S
C521 C522 1.524 . S
C522 C521 1.524 . S
C522 C523 1.397 . S
C522 C527 1.363 . S
C523 H494 0.950 . S
C523 C522 1.397 . S
C523 C524 1.334 . S
C524 H495 0.950 . S
C524 C523 1.334 . S
C524 C525 1.287 . S
C525 C524 1.287 . S
C525 C526 1.524 . S
C525 H528 0.999 . S
C526 H496 0.950 . S
C526 C525 1.524 . S
C526 C527 1.415 . S
C527 H497 0.950 . S
C527 C522 1.363 . S
C527 C526 1.415 . S
H528 C525 0.999 . S
H529 C510 0.913 . S
H530 C548 0.951 . S
H531 C550 0.951 . S
H532 C552 0.950 . S
H533 C553 0.950 . S
H534 C555 0.950 . S
H535 C558 0.950 . S
H536 C559 0.950 . S
H537 C561 0.950 . S
H538 C562 0.950 . S
H539 C563 0.951 . S
H540 C565 0.951 . S
H541 C567 0.950 . S
H542 C568 0.950 . S
H543 C570 0.950 . S
H544 C573 0.950 . S
H545 C574 0.950 . S
H546 C576 0.950 . S
H547 C577 0.950 . S
C548 H530 0.951 . S
C548 C549 1.366 . S
C548 C550 1.388 . S
C549 C548 1.366 . S
C549 C553 1.385 . S
C550 H531 0.951 . S
C550 C548 1.388 . S
C550 C551 1.366 . S
C551 C550 1.366 . S
C551 C552 1.414 . S
C551 C554 1.499 . S
C552 H532 0.950 . S
C552 C551 1.414 . S
C552 C553 1.374 . S
C553 H533 0.950 . S
C553 C549 1.385 . S
C553 C552 1.374 . S
C554 C551 1.499 . S
C554 C555 1.373 . S
C554 C556 1.389 . S
C555 H534 0.950 . S
C555 C554 1.373 . S
C555 C571 1.377 . S
C556 C554 1.389 . S
C556 C557 1.524 . S
C556 C570 1.377 . S
C557 C556 1.524 . S
C557 C558 1.397 . S
C557 C562 1.363 . S
C558 H535 0.950 . S
C558 C557 1.397 . S
C558 C559 1.334 . S
C559 H536 0.950 . S
C559 C558 1.334 . S
C559 C560 1.287 . S
C560 C559 1.287 . S
C560 C561 1.524 . S
C560 H579 0.913 . S
C561 H537 0.950 . S
C561 C560 1.524 . S
C561 C562 1.415 . S
C562 H538 0.950 . S
C562 C557 1.363 . S
C562 C561 1.415 . S
C563 H539 0.951 . S
C563 C564 1.366 . S
C563 C565 1.388 . S
C564 C563 1.366 . S
C564 C568 1.385 . S
C565 H540 0.951 . S
C565 C563 1.388 . S
C565 C566 1.366 . S
C566 C565 1.366 . S
C566 C567 1.414 . S
C566 C569 1.499 . S
C567 H541 0.950 . S
C567 C566 1.414 . S
C567 C568 1.374 . S
C568 H542 0.950 . S
C568 C564 1.385 . S
C568 C567 1.374 . S
C569 C566 1.499 . S
C569 C570 1.373 . S
C569 C571 1.389 . S
C570 H543 0.950 . S
C570 C556 1.377 . S
C570 C569 1.373 . S
C571 C555 1.377 . S
C571 C569 1.389 . S
C571 C572 1.524 . S
C572 C571 1.524 . S
C572 C573 1.397 . S
C572 C577 1.363 . S
C573 H544 0.950 . S
C573 C572 1.397 . S
C573 C574 1.334 . S
C574 H545 0.950 . S
C574 C573 1.334 . S
C574 C575 1.287 . S
C575 C574 1.287 . S
C575 C576 1.524 . S
C575 H578 0.999 . S
C576 H546 0.950 . S
C576 C575 1.524 . S
C576 C577 1.415 . S
C577 H547 0.950 . S
C577 C572 1.363 . S
C577 C576 1.415 . S
H578 C575 0.999 . S
H579 C560 0.913 . S
H580 C598 0.951 . S
H581 C600 0.951 . S
H582 C602 0.950 . S
H583 C603 0.950 . S
H584 C605 0.950 . S
H585 C608 0.950 . S
H586 C609 0.950 . S
H587 C611 0.950 . S
H588 C612 0.950 . S
H589 C613 0.951 . S
H590 C615 0.951 . S
H591 C617 0.950 . S
H592 C618 0.950 . S
H593 C620 0.950 . S
H594 C623 0.950 . S
H595 C624 0.950 . S
H596 C626 0.950 . S
H597 C627 0.950 . S
C598 H580 0.951 . S
C598 C599 1.366 . S
C598 C600 1.388 . S
C599 C598 1.366 . S
C599 C603 1.385 . S
C600 H581 0.951 . S
C600 C598 1.388 . S
C600 C601 1.366 . S
C601 C600 1.366 . S
C601 C602 1.414 . S
C601 C604 1.499 . S
C602 H582 0.950 . S
C602 C601 1.414 . S
C602 C603 1.374 . S
C603 H583 0.950 . S
C603 C599 1.385 . S
C603 C602 1.374 . S
C604 C601 1.499 . S
C604 C605 1.373 . S
C604 C606 1.389 . S
C605 H584 0.950 . S
C605 C604 1.373 . S
C605 C621 1.377 . S
C606 C604 1.389 . S
C606 C607 1.524 . S
C606 C620 1.377 . S
C607 C606 1.524 . S
C607 C608 1.397 . S
C607 C612 1.363 . S
C608 H585 0.950 . S
C608 C607 1.397 . S
C608 C609 1.334 . S
C609 H586 0.950 . S
C609 C608 1.334 . S
C609 C610 1.287 . S
C610 C609 1.287 . S
C610 C611 1.524 . S
C610 H629 0.913 . S
C611 H587 0.950 . S
C611 C610 1.524 . S
C611 C612 1.415 . S
C612 H588 0.950 . S
C612 C607 1.363 . S
C612 C611 1.415 . S
C613 H589 0.951 . S
C613 C614 1.366 . S
C613 C615 1.388 . S
C614 C613 1.366 . S
C614 C618 1.385 . S
C615 H590 0.951 . S
C615 C613 1.388 . S
C615 C616 1.366 . S
C616 C615 1.366 . S
C616 C617 1.414 . S
C616 C619 1.499 . S
C617 H591 0.950 . S
C617 C616 1.414 . S
C617 C618 1.374 . S
C618 H592 0.950 . S
C618 C614 1.385 . S
C618 C617 1.374 . S
C619 C616 1.499 . S
C619 C620 1.373 . S
C619 C621 1.389 . S
C620 H593 0.950 . S
C620 C606 1.377 . S
C620 C619 1.373 . S
C621 C605 1.377 . S
C621 C619 1.389 . S
C621 C622 1.524 . S
C622 C621 1.524 . S
C622 C623 1.397 . S
C622 C627 1.363 . S
C623 H594 0.950 . S
C623 C622 1.397 . S
C623 C624 1.334 . S
C624 H595 0.950 . S
C624 C623 1.334 . S
C624 C625 1.287 . S
C625 C624 1.287 . S
C625 C626 1.524 . S
C625 H628 0.999 . S
C626 H596 0.950 . S
C626 C625 1.524 . S
C626 C627 1.415 . S
C627 H597 0.950 . S
C627 C622 1.363 . S
C627 C626 1.415 . S
H628 C625 0.999 . S
H629 C610 0.913 . S
H630 C648 0.951 . S
H631 C650 0.951 . S
H632 C652 0.950 . S
H633 C653 0.950 . S
H634 C655 0.950 . S
H635 C658 0.950 . S
H636 C659 0.950 . S
H637 C661 0.950 . S
H638 C662 0.950 . S
H639 C663 0.951 . S
H640 C665 0.951 . S
H641 C667 0.950 . S
H642 C668 0.950 . S
H643 C670 0.950 . S
H644 C673 0.950 . S
H645 C674 0.950 . S
H646 C676 0.950 . S
H647 C677 0.950 . S
C648 H630 0.951 . S
C648 C649 1.366 . S
C648 C650 1.388 . S
C649 C648 1.366 . S
C649 C653 1.385 . S
C650 H631 0.951 . S
C650 C648 1.388 . S
C650 C651 1.366 . S
C651 C650 1.366 . S
C651 C652 1.414 . S
C651 C654 1.499 . S
C652 H632 0.950 . S
C652 C651 1.414 . S
C652 C653 1.374 . S
C653 H633 0.950 . S
C653 C649 1.385 . S
C653 C652 1.374 . S
C654 C651 1.499 . S
C654 C655 1.373 . S
C654 C656 1.389 . S
C655 H634 0.950 . S
C655 C654 1.373 . S
C655 C671 1.377 . S
C656 C654 1.389 . S
C656 C657 1.524 . S
C656 C670 1.377 . S
C657 C656 1.524 . S
C657 C658 1.397 . S
C657 C662 1.363 . S
C658 H635 0.950 . S
C658 C657 1.397 . S
C658 C659 1.334 . S
C659 H636 0.950 . S
C659 C658 1.334 . S
C659 C660 1.287 . S
C660 C659 1.287 . S
C660 C661 1.524 . S
C660 H679 0.913 . S
C661 H637 0.950 . S
C661 C660 1.524 . S
C661 C662 1.415 . S
C662 H638 0.950 . S
C662 C657 1.363 . S
C662 C661 1.415 . S
C663 H639 0.951 . S
C663 C664 1.366 . S
C663 C665 1.388 . S
C664 C663 1.366 . S
C664 C668 1.385 . S
C665 H640 0.951 . S
C665 C663 1.388 . S
C665 C666 1.366 . S
C666 C665 1.366 . S
C666 C667 1.414 . S
C666 C669 1.499 . S
C667 H641 0.950 . S
C667 C666 1.414 . S
C667 C668 1.374 . S
C668 H642 0.950 . S
C668 C664 1.385 . S
C668 C667 1.374 . S
C669 C666 1.499 . S
C669 C670 1.373 . S
C669 C671 1.389 . S
C670 H643 0.950 . S
C670 C656 1.377 . S
C670 C669 1.373 . S
C671 C655 1.377 . S
C671 C669 1.389 . S
C671 C672 1.524 . S
C672 C671 1.524 . S
C672 C673 1.397 . S
C672 C677 1.363 . S
C673 H644 0.950 . S
C673 C672 1.397 . S
C673 C674 1.334 . S
C674 H645 0.950 . S
C674 C673 1.334 . S
C674 C675 1.287 . S
C675 C674 1.287 . S
C675 C676 1.524 . S
C675 H678 0.999 . S
C676 H646 0.950 . S
C676 C675 1.524 . S
C676 C677 1.415 . S
C677 H647 0.950 . S
C677 C672 1.363 . S
C677 C676 1.415 . S
H678 C675 0.999 . S
H679 C660 0.913 . S
H680 C698 0.951 . S
H681 C700 0.951 . S
H682 C702 0.950 . S
H683 C703 0.950 . S
H684 C705 0.950 . S
H685 C708 0.950 . S
H686 C709 0.950 . S
H687 C711 0.950 . S
H688 C712 0.950 . S
H689 C713 0.951 . S
H690 C715 0.951 . S
H691 C717 0.950 . S
H692 C718 0.950 . S
H693 C720 0.950 . S
H694 C723 0.950 . S
H695 C724 0.950 . S
H696 C726 0.950 . S
H697 C727 0.950 . S
C698 H680 0.951 . S
C698 C699 1.366 . S
C698 C700 1.388 . S
C699 C698 1.366 . S
C699 C703 1.385 . S
C700 H681 0.951 . S
C700 C698 1.388 . S
C700 C701 1.366 . S
C701 C700 1.366 . S
C701 C702 1.414 . S
C701 C704 1.499 . S
C702 H682 0.950 . S
C702 C701 1.414 . S
C702 C703 1.374 . S
C703 H683 0.950 . S
C703 C699 1.385 . S
C703 C702 1.374 . S
C704 C701 1.499 . S
C704 C705 1.373 . S
C704 C706 1.389 . S
C705 H684 0.950 . S
C705 C704 1.373 . S
C705 C721 1.377 . S
C706 C704 1.389 . S
C706 C707 1.524 . S
C706 C720 1.377 . S
C707 C706 1.524 . S
C707 C708 1.397 . S
C707 C712 1.363 . S
C708 H685 0.950 . S
C708 C707 1.397 . S
C708 C709 1.334 . S
C709 H686 0.950 . S
C709 C708 1.334 . S
C709 C710 1.287 . S
C710 C709 1.287 . S
C710 C711 1.524 . S
C710 H729 0.913 . S
C711 H687 0.950 . S
C711 C710 1.524 . S
C711 C712 1.415 . S
C712 H688 0.950 . S
C712 C707 1.363 . S
C712 C711 1.415 . S
C713 H689 0.951 . S
C713 C714 1.366 . S
C713 C715 1.388 . S
C714 C713 1.366 . S
C714 C718 1.385 . S
C715 H690 0.951 . S
C715 C713 1.388 . S
C715 C716 1.366 . S
C716 C715 1.366 . S
C716 C717 1.414 . S
C716 C719 1.499 . S
C717 H691 0.950 . S
C717 C716 1.414 . S
C717 C718 1.374 . S
C718 H692 0.950 . S
C718 C714 1.385 . S
C718 C717 1.374 . S
C719 C716 1.499 . S
C719 C720 1.373 . S
C719 C721 1.389 . S
C720 H693 0.950 . S
C720 C706 1.377 . S
C720 C719 1.373 . S
C721 C705 1.377 . S
C721 C719 1.389 . S
C721 C722 1.524 . S
C722 C721 1.524 . S
C722 C723 1.397 . S
C722 C727 1.363 . S
C723 H694 0.950 . S
C723 C722 1.397 . S
C723 C724 1.334 . S
C724 H695 0.950 . S
C724 C723 1.334 . S
C724 C725 1.287 . S
C725 C724 1.287 . S
C725 C726 1.524 . S
C725 H728 0.999 . S
C726 H696 0.950 . S
C726 C725 1.524 . S
C726 C727 1.415 . S
C727 H697 0.950 . S
C727 C722 1.363 . S
C727 C726 1.415 . S
H728 C725 0.999 . S
H729 C710 0.913 . S
H730 C748 0.951 . S
H731 C750 0.951 . S
H732 C752 0.950 . S
H733 C753 0.950 . S
H734 C755 0.950 . S
H735 C758 0.950 . S
H736 C759 0.950 . S
H737 C761 0.950 . S
H738 C762 0.950 . S
H739 C763 0.951 . S
H740 C765 0.951 . S
H741 C767 0.950 . S
H742 C768 0.950 . S
H743 C770 0.950 . S
H744 C773 0.950 . S
H745 C774 0.950 . S
H746 C776 0.950 . S
H747 C777 0.950 . S
C748 H730 0.951 . S
C748 C749 1.366 . S
C748 C750 1.388 . S
C749 C748 1.366 . S
C749 C753 1.385 . S
C750 H731 0.951 . S
C750 C748 1.388 . S
C750 C751 1.366 . S
C751 C750 1.366 . S
C751 C752 1.414 . S
C751 C754 1.499 . S
C752 H732 0.950 . S
C752 C751 1.414 . S
C752 C753 1.374 . S
C753 H733 0.950 . S
C753 C749 1.385 . S
C753 C752 1.374 . S
C754 C751 1.499 . S
C754 C755 1.373 . S
C754 C756 1.389 . S
C755 H734 0.950 . S
C755 C754 1.373 . S
C755 C771 1.377 . S
C756 C754 1.389 . S
C756 C757 1.524 . S
C756 C770 1.377 . S
C757 C756 1.524 . S
C757 C758 1.397 . S
C757 C762 1.363 . S
C758 H735 0.950 . S
C758 C757 1.397 . S
C758 C759 1.334 . S
C759 H736 0.950 . S
C759 C758 1.334 . S
C759 C760 1.287 . S
C760 C759 1.287 . S
C760 C761 1.524 . S
C760 H779 0.913 . S
C761 H737 0.950 . S
C761 C760 1.524 . S
C761 C762 1.415 . S
C762 H738 0.950 . S
C762 C757 1.363 . S
C762 C761 1.415 . S
C763 H739 0.951 . S
C763 C764 1.366 . S
C763 C765 1.388 . S
C764 C763 1.366 . S
C764 C768 1.385 . S
C765 H740 0.951 . S
C765 C763 1.388 . S
C765 C766 1.366 . S
C766 C765 1.366 . S
C766 C767 1.414 . S
C766 C769 1.499 . S
C767 H741 0.950 . S
C767 C766 1.414 . S
C767 C768 1.374 . S
C768 H742 0.950 . S
C768 C764 1.385 . S
C768 C767 1.374 . S
C769 C766 1.499 . S
C769 C770 1.373 . S
C769 C771 1.389 . S
C770 H743 0.950 . S
C770 C756 1.377 . S
C770 C769 1.373 . S
C771 C755 1.377 . S
C771 C769 1.389 . S
C771 C772 1.524 . S
C772 C771 1.524 . S
C772 C773 1.397 . S
C772 C777 1.363 . S
C773 H744 0.950 . S
C773 C772 1.397 . S
C773 C774 1.334 . S
C774 H745 0.950 . S
C774 C773 1.334 . S
C774 C775 1.287 . S
C775 C774 1.287 . S
C775 C776 1.524 . S
C775 H778 0.999 . S
C776 H746 0.950 . S
C776 C775 1.524 . S
C776 C777 1.415 . S
C777 H747 0.950 . S
C777 C772 1.363 . S
C777 C776 1.415 . S
H778 C775 0.999 . S
H779 C760 0.913 . S
H780 C798 0.951 . S
H781 C800 0.951 . S
H782 C802 0.950 . S
H783 C803 0.950 . S
H784 C805 0.950 . S
H785 C808 0.950 . S
H786 C809 0.950 . S
H787 C811 0.950 . S
H788 C812 0.950 . S
H789 C813 0.951 . S
H790 C815 0.951 . S
H791 C817 0.950 . S
H792 C818 0.950 . S
H793 C820 0.950 . S
H794 C823 0.950 . S
H795 C824 0.950 . S
H796 C826 0.950 . S
H797 C827 0.950 . S
C798 H780 0.951 . S
C798 C799 1.366 1_455 S
C798 C800 1.388 . S
C799 C798 1.366 1_655 S
C799 C803 1.385 . S
C800 H781 0.951 . S
C800 C798 1.388 . S
C800 C801 1.366 1_455 S
C801 C800 1.366 1_655 S
C801 C802 1.414 . S
C801 C804 1.499 . S
C802 H782 0.950 . S
C802 C801 1.414 . S
C802 C803 1.374 . S
C803 H783 0.950 . S
C803 C799 1.385 . S
C803 C802 1.374 . S
C804 C801 1.499 . S
C804 C805 1.373 1_554 S
C804 C806 1.389 . S
C805 H784 0.950 . S
C805 C804 1.373 1_556 S
C805 C821 1.377 1_655 S
C806 C804 1.389 . S
C806 C807 1.524 . S
C806 C820 1.377 1_655 S
C807 C806 1.524 . S
C807 C808 1.397 . S
C807 C812 1.363 1_655 S
C808 H785 0.950 . S
C808 C807 1.397 . S
C808 C809 1.334 . S
C809 H786 0.950 . S
C809 C808 1.334 . S
C809 C810 1.287 . S
C810 C809 1.287 . S
C810 C811 1.524 1_655 S
C810 H829 0.913 . S
C811 H787 0.950 . S
C811 C810 1.524 1_455 S
C811 C812 1.415 . S
C812 H788 0.950 . S
C812 C807 1.363 1_455 S
C812 C811 1.415 . S
C813 H789 0.951 . S
C813 C814 1.366 1_655 S
C813 C815 1.388 . S
C814 C813 1.366 1_455 S
C814 C818 1.385 . S
C815 H790 0.951 . S
C815 C813 1.388 . S
C815 C816 1.366 1_655 S
C816 C815 1.366 1_455 S
C816 C817 1.414 . S
C816 C819 1.499 . S
C817 H791 0.950 . S
C817 C816 1.414 . S
C817 C818 1.374 . S
C818 H792 0.950 . S
C818 C814 1.385 . S
C818 C817 1.374 . S
C819 C816 1.499 . S
C819 C820 1.373 1_556 S
C819 C821 1.389 . S
C820 H793 0.950 . S
C820 C806 1.377 1_455 S
C820 C819 1.373 1_554 S
C821 C805 1.377 1_455 S
C821 C819 1.389 . S
C821 C822 1.524 . S
C822 C821 1.524 . S
C822 C823 1.397 . S
C822 C827 1.363 1_455 S
C823 H794 0.950 . S
C823 C822 1.397 . S
C823 C824 1.334 . S
C824 H795 0.950 . S
C824 C823 1.334 . S
C824 C825 1.287 . S
C825 C824 1.287 . S
C825 C826 1.524 1_455 S
C825 H828 0.999 . S
C826 H796 0.950 . S
C826 C825 1.524 1_655 S
C826 C827 1.415 . S
C827 H797 0.950 . S
C827 C822 1.363 1_655 S
C827 C826 1.415 . S
H828 C825 0.999 . S
H829 C810 0.913 . S
H830 C848 0.951 . S
H831 C850 1.008 . S
H832 C852 0.950 . S
H833 C853 0.950 . S
H834 C855 0.950 . S
H835 C858 0.950 . S
H836 C859 0.950 . S
H837 C861 0.950 . S
H838 C862 0.950 . S
H839 C863 0.951 . S
H840 C865 1.008 . S
H841 C867 0.950 . S
H842 C868 0.950 . S
H843 C870 0.950 . S
H844 C873 0.950 . S
H845 C874 0.950 . S
H846 C876 0.950 . S
H847 C877 0.950 . S
C848 H830 0.951 . S
C848 C849 1.366 . S
C848 C850 1.388 . S
C849 C848 1.366 . S
C849 C853 1.385 . S
C850 H831 1.008 . S
C850 C848 1.388 . S
C850 C851 1.366 . S
C851 C850 1.366 . S
C851 C852 1.414 . S
C851 C854 1.499 . S
C852 H832 0.950 . S
C852 C851 1.414 . S
C852 C853 1.374 . S
C853 H833 0.950 . S
C853 C849 1.385 . S
C853 C852 1.374 . S
C854 C851 1.499 . S
C854 C855 1.373 . S
C854 C856 1.392 . S
C855 H834 0.950 . S
C855 C854 1.373 . S
C855 C871 1.374 1_556 S
C856 C854 1.392 . S
C856 C857 1.524 . S
C856 C870 1.374 1_556 S
C857 C856 1.524 . S
C857 C858 1.426 . S
C857 C862 1.335 1_556 S
C858 H835 0.950 . S
C858 C857 1.426 . S
C858 C859 1.334 . S
C859 H836 0.950 . S
C859 C858 1.334 . S
C859 C860 1.287 . S
C860 C859 1.287 . S
C860 C861 1.524 1_556 S
C860 H879 0.913 . S
C861 H837 0.950 . S
C861 C860 1.524 1_554 S
C861 C862 1.415 . S
C862 H838 0.950 . S
C862 C857 1.335 1_554 S
C862 C861 1.415 . S
C863 H839 0.951 . S
C863 C864 1.366 . S
C863 C865 1.388 . S
C864 C863 1.366 . S
C864 C868 1.385 . S
C865 H840 1.008 . S
C865 C863 1.388 . S
C865 C866 1.366 . S
C866 C865 1.366 . S
C866 C867 1.414 . S
C866 C869 1.499 . S
C867 H841 0.950 . S
C867 C866 1.414 . S
C867 C868 1.374 . S
C868 H842 0.950 . S
C868 C864 1.385 . S
C868 C867 1.374 . S
C869 C866 1.499 . S
C869 C870 1.373 . S
C869 C871 1.392 . S
C870 H843 0.950 . S
C870 C856 1.374 1_554 S
C870 C869 1.373 . S
C871 C855 1.374 1_554 S
C871 C869 1.392 . S
C871 C872 1.524 . S
C872 C871 1.524 . S
C872 C873 1.426 . S
C872 C877 1.335 1_554 S
C873 H844 0.950 . S
C873 C872 1.426 . S
C873 C874 1.334 . S
C874 H845 0.950 . S
C874 C873 1.334 . S
C874 C875 1.287 . S
C875 C874 1.287 . S
C875 C876 1.524 1_554 S
C875 H878 0.999 . S
C876 H846 0.950 . S
C876 C875 1.524 1_556 S
C876 C877 1.415 . S
C877 H847 0.950 . S
C877 C872 1.335 1_556 S
C877 C876 1.415 . S
H878 C875 0.999 . S
H879 C860 0.913 . S
H880 C898 0.951 . S
H881 C900 0.951 . S
H882 C902 0.950 . S
H883 C903 0.950 . S
H884 C905 0.950 . S
H885 C908 0.950 . S
H886 C909 0.950 . S
H887 C911 0.950 . S
H888 C912 0.950 . S
H889 C913 0.951 . S
H890 C915 0.951 . S
H891 C917 0.950 . S
H892 C918 0.950 . S
H893 C920 0.950 . S
H894 C923 0.950 . S
H895 C924 0.950 . S
H896 C926 0.950 . S
H897 C927 0.950 . S
C898 H880 0.951 . S
C898 C899 1.366 1_565 S
C898 C900 1.388 . S
C899 C898 1.366 1_545 S
C899 C903 1.385 . S
C900 H881 0.951 . S
C900 C898 1.388 . S
C900 C901 1.366 1_565 S
C901 C900 1.366 1_545 S
C901 C902 1.414 . S
C901 C904 1.499 . S
C902 H882 0.950 . S
C902 C901 1.414 . S
C902 C903 1.374 . S
C903 H883 0.950 . S
C903 C899 1.385 . S
C903 C902 1.374 . S
C904 C901 1.499 . S
C904 C905 1.373 1_554 S
C904 C906 1.389 1_545 S
C905 H884 0.950 . S
C905 C904 1.373 1_556 S
C905 C921 1.377 . S
C906 C904 1.389 1_565 S
C906 C907 1.524 . S
C906 C920 1.377 . S
C907 C906 1.524 . S
C907 C908 1.397 1_565 S
C907 C912 1.363 . S
C908 H885 0.950 . S
C908 C907 1.397 1_545 S
C908 C909 1.334 . S
C909 H886 0.950 . S
C909 C908 1.334 . S
C909 C910 1.287 . S
C910 C909 1.287 . S
C910 C911 1.524 1_545 S
C910 H929 0.913 . S
C911 H887 0.950 . S
C911 C910 1.524 1_565 S
C911 C912 1.415 . S
C912 H888 0.950 . S
C912 C907 1.363 . S
C912 C911 1.415 . S
C913 H889 0.951 . S
C913 C914 1.366 1_545 S
C913 C915 1.388 . S
C914 C913 1.366 1_565 S
C914 C918 1.385 . S
C915 H890 0.951 . S
C915 C913 1.388 . S
C915 C916 1.366 1_545 S
C916 C915 1.366 1_565 S
C916 C917 1.414 . S
C916 C919 1.499 . S
C917 H891 0.950 . S
C917 C916 1.414 . S
C917 C918 1.374 . S
C918 H892 0.950 . S
C918 C914 1.385 . S
C918 C917 1.374 . S
C919 C916 1.499 . S
C919 C920 1.373 1_556 S
C919 C921 1.389 1_565 S
C920 H893 0.950 . S
C920 C906 1.377 . S
C920 C919 1.373 1_554 S
C921 C905 1.377 . S
C921 C919 1.389 1_545 S
C921 C922 1.524 . S
C922 C921 1.524 . S
C922 C923 1.397 1_545 S
C922 C927 1.363 . S
C923 H894 0.950 . S
C923 C922 1.397 1_565 S
C923 C924 1.334 . S
C924 H895 0.950 . S
C924 C923 1.334 . S
C924 C925 1.287 . S
C925 C924 1.287 . S
C925 C926 1.524 1_565 S
C925 H928 0.999 . S
C926 H896 0.950 . S
C926 C925 1.524 1_545 S
C926 C927 1.415 . S
C927 H897 0.950 . S
C927 C922 1.363 . S
C927 C926 1.415 . S
H928 C925 0.999 . S
H929 C910 0.913 . S
H930 C948 0.951 . S
H931 C950 0.951 . S
H932 C952 0.950 . S
H933 C953 0.950 1_545 S
H934 C955 0.950 . S
H935 C958 0.950 . S
H936 C959 0.950 . S
H937 C961 0.950 . S
H938 C962 0.950 1_565 S
H939 C963 0.951 . S
H940 C965 0.951 . S
H941 C967 0.950 . S
H942 C968 0.950 1_565 S
H943 C970 0.950 . S
H944 C973 0.950 . S
H945 C974 0.950 . S
H946 C976 0.950 . S
H947 C977 0.950 1_545 S
C948 H930 0.951 . S
C948 C949 1.366 . S
C948 C950 1.388 . S
C949 C948 1.366 . S
C949 C953 1.385 . S
C950 H931 0.951 . S
C950 C948 1.388 . S
C950 C951 1.366 . S
C951 C950 1.366 . S
C951 C952 1.414 1_565 S
C951 C954 1.499 . S
C952 H932 0.950 . S
C952 C951 1.414 1_545 S
C952 C953 1.374 1_545 S
C953 H933 0.950 1_565 S
C953 C949 1.385 . S
C953 C952 1.374 1_565 S
C954 C951 1.499 . S
C954 C955 1.373 . S
C954 C956 1.389 1_565 S
C955 H934 0.950 . S
C955 C954 1.373 . S
C955 C971 1.377 . S
C956 C954 1.389 1_545 S
C956 C957 1.524 . S
C956 C970 1.377 . S
C957 C956 1.524 . S
C957 C958 1.397 . S
C957 C962 1.363 . S
C958 H935 0.950 . S
C958 C957 1.397 . S
C958 C959 1.334 . S
C959 H936 0.950 . S
C959 C958 1.334 . S
C959 C960 1.287 . S
C960 C959 1.287 . S
C960 C961 1.524 . S
C960 H979 0.913 . S
C961 H937 0.950 . S
C961 C960 1.524 . S
C961 C962 1.415 . S
C962 H938 0.950 1_545 S
C962 C957 1.363 . S
C962 C961 1.415 . S
C963 H939 0.951 . S
C963 C964 1.366 . S
C963 C965 1.388 . S
C964 C963 1.366 . S
C964 C968 1.385 . S
C965 H940 0.951 . S
C965 C963 1.388 . S
C965 C966 1.366 . S
C966 C965 1.366 . S
C966 C967 1.414 1_545 S
C966 C969 1.499 . S
C967 H941 0.950 . S
C967 C966 1.414 1_565 S
C967 C968 1.374 1_565 S
C968 H942 0.950 1_545 S
C968 C964 1.385 . S
C968 C967 1.374 1_545 S
C969 C966 1.499 . S
C969 C970 1.373 . S
C969 C971 1.389 1_545 S
C970 H943 0.950 . S
C970 C956 1.377 . S
C970 C969 1.373 . S
C971 C955 1.377 . S
C971 C969 1.389 1_565 S
C971 C972 1.524 . S
C972 C971 1.524 . S
C972 C973 1.397 . S
C972 C977 1.363 . S
C973 H944 0.950 . S
C973 C972 1.397 . S
C973 C974 1.334 . S
C974 H945 0.950 . S
C974 C973 1.334 . S
C974 C975 1.287 . S
C975 C974 1.287 . S
C975 C976 1.524 . S
C975 H978 0.999 . S
C976 H946 0.950 . S
C976 C975 1.524 . S
C976 C977 1.415 . S
C977 H947 0.950 1_565 S
C977 C972 1.363 . S
C977 C976 1.415 . S
H978 C975 0.999 . S
H979 C960 0.913 . S
H980 C998 0.951 . S
H981 C1000 0.951 . S
H982 C1002 0.950 . S
H983 C1003 0.950 . S
H984 C1005 0.950 . S
H985 C1008 0.950 . S
H986 C1009 0.950 . S
H987 C1011 0.950 . S
H988 C1012 0.950 . S
H989 C1013 0.951 . S
H990 C1015 0.951 . S
H991 C1017 0.950 . S
H992 C1018 0.950 . S
H993 C1020 0.950 . S
H994 C1023 0.950 . S
H995 C1024 0.950 . S
H996 C1026 0.950 . S
H997 C1027 0.950 . S
C998 H980 0.951 . S
C998 C999 1.366 . S
C998 C1000 1.388 . S
C999 C998 1.366 . S
C999 C1003 1.385 . S
C1000 H981 0.951 . S
C1000 C998 1.388 . S
C1000 C1001 1.366 . S
C1001 C1000 1.366 . S
C1001 C1002 1.414 . S
C1001 C1004 1.499 . S
C1002 H982 0.950 . S
C1002 C1001 1.414 . S
C1002 C1003 1.374 . S
C1003 H983 0.950 . S
C1003 C999 1.385 . S
C1003 C1002 1.374 . S
C1004 C1001 1.499 . S
C1004 C1005 1.373 . S
C1004 C1006 1.389 1_455 S
C1005 H984 0.950 . S
C1005 C1004 1.373 . S
C1005 C1021 1.377 . S
C1006 C1004 1.389 1_655 S
C1006 C1007 1.524 . S
C1006 C1020 1.377 . S
C1007 C1006 1.524 . S
C1007 C1008 1.397 . S
C1007 C1012 1.363 . S
C1008 H985 0.950 . S
C1008 C1007 1.397 . S
C1008 C1009 1.334 . S
C1009 H986 0.950 . S
C1009 C1008 1.334 . S
C1009 C1010 1.287 . S
C1010 C1009 1.287 . S
C1010 C1011 1.524 . S
C1010 H1029 0.913 . S
C1011 H987 0.950 . S
C1011 C1010 1.524 . S
C1011 C1012 1.415 . S
C1012 H988 0.950 . S
C1012 C1007 1.363 . S
C1012 C1011 1.415 . S
C1013 H989 0.951 . S
C1013 C1014 1.366 . S
C1013 C1015 1.388 . S
C1014 C1013 1.366 . S
C1014 C1018 1.385 . S
C1015 H990 0.951 . S
C1015 C1013 1.388 . S
C1015 C1016 1.366 . S
C1016 C1015 1.366 . S
C1016 C1017 1.414 . S
C1016 C1019 1.499 . S
C1017 H991 0.950 . S
C1017 C1016 1.414 . S
C1017 C1018 1.374 . S
C1018 H992 0.950 . S
C1018 C1014 1.385 . S
C1018 C1017 1.374 . S
C1019 C1016 1.499 . S
C1019 C1020 1.373 . S
C1019 C1021 1.389 1_655 S
C1020 H993 0.950 . S
C1020 C1006 1.377 . S
C1020 C1019 1.373 . S
C1021 C1005 1.377 . S
C1021 C1019 1.389 1_455 S
C1021 C1022 1.524 . S
C1022 C1021 1.524 . S
C1022 C1023 1.397 . S
C1022 C1027 1.363 . S
C1023 H994 0.950 . S
C1023 C1022 1.397 . S
C1023 C1024 1.334 . S
C1024 H995 0.950 . S
C1024 C1023 1.334 . S
C1024 C1025 1.287 . S
C1025 C1024 1.287 . S
C1025 C1026 1.524 . S
C1025 H1028 0.999 . S
C1026 H996 0.950 . S
C1026 C1025 1.524 . S
C1026 C1027 1.415 . S
C1027 H997 0.950 . S
C1027 C1022 1.363 . S
C1027 C1026 1.415 . S
H1028 C1025 0.999 . S
H1029 C1010 0.913 . S
H1030 C1048 0.951 . S
H1031 C1050 0.951 . S
H1032 C1052 0.950 . S
H1033 C1053 0.950 . S
H1034 C1055 0.950 . S
H1035 C1058 0.950 . S
H1036 C1059 0.950 . S
H1037 C1061 0.950 . S
H1038 C1062 0.950 . S
H1039 C1063 0.951 . S
H1040 C1065 0.951 . S
H1041 C1067 0.950 . S
H1042 C1068 0.950 . S
H1043 C1070 0.950 . S
H1044 C1073 0.950 . S
H1045 C1074 0.950 . S
H1046 C1076 0.950 . S
H1047 C1077 0.950 . S
C1048 H1030 0.951 . S
C1048 C1049 1.366 . S
C1048 C1050 1.388 . S
C1049 C1048 1.366 . S
C1049 C1053 1.385 . S
C1050 H1031 0.951 . S
C1050 C1048 1.388 . S
C1050 C1051 1.366 . S
C1051 C1050 1.366 . S
C1051 C1052 1.414 . S
C1051 C1054 1.499 . S
C1052 H1032 0.950 . S
C1052 C1051 1.414 . S
C1052 C1053 1.374 . S
C1053 H1033 0.950 . S
C1053 C1049 1.385 . S
C1053 C1052 1.374 . S
C1054 C1051 1.499 . S
C1054 C1055 1.373 . S
C1054 C1056 1.389 . S
C1055 H1034 0.950 . S
C1055 C1054 1.373 . S
C1055 C1071 1.377 . S
C1056 C1054 1.389 . S
C1056 C1057 1.524 . S
C1056 C1070 1.377 . S
C1057 C1056 1.524 . S
C1057 C1058 1.397 . S
C1057 C1062 1.363 . S
C1058 H1035 0.950 . S
C1058 C1057 1.397 . S
C1058 C1059 1.334 . S
C1059 H1036 0.950 . S
C1059 C1058 1.334 . S
C1059 C1060 1.287 . S
C1060 C1059 1.287 . S
C1060 C1061 1.524 . S
C1060 H1079 0.913 . S
C1061 H1037 0.950 . S
C1061 C1060 1.524 . S
C1061 C1062 1.415 . S
C1062 H1038 0.950 . S
C1062 C1057 1.363 . S
C1062 C1061 1.415 . S
C1063 H1039 0.951 . S
C1063 C1064 1.366 . S
C1063 C1065 1.388 . S
C1064 C1063 1.366 . S
C1064 C1068 1.385 . S
C1065 H1040 0.951 . S
C1065 C1063 1.388 . S
C1065 C1066 1.366 . S
C1066 C1065 1.366 . S
C1066 C1067 1.414 . S
C1066 C1069 1.499 . S
C1067 H1041 0.950 . S
C1067 C1066 1.414 . S
C1067 C1068 1.374 . S
C1068 H1042 0.950 . S
C1068 C1064 1.385 . S
C1068 C1067 1.374 . S
C1069 C1066 1.499 . S
C1069 C1070 1.373 . S
C1069 C1071 1.389 . S
C1070 H1043 0.950 . S
C1070 C1056 1.377 . S
C1070 C1069 1.373 . S
C1071 C1055 1.377 . S
C1071 C1069 1.389 . S
C1071 C1072 1.524 . S
C1072 C1071 1.524 . S
C1072 C1073 1.397 . S
C1072 C1077 1.363 . S
C1073 H1044 0.950 . S
C1073 C1072 1.397 . S
C1073 C1074 1.334 . S
C1074 H1045 0.950 . S
C1074 C1073 1.334 . S
C1074 C1075 1.287 . S
C1075 C1074 1.287 . S
C1075 C1076 1.524 . S
C1075 H1078 0.999 . S
C1076 H1046 0.950 . S
C1076 C1075 1.524 . S
C1076 C1077 1.415 . S
C1077 H1047 0.950 . S
C1077 C1072 1.363 . S
C1077 C1076 1.415 . S
H1078 C1075 0.999 . S
H1079 C1060 0.913 . S
H1080 C1098 0.951 . S
H1081 C1100 0.951 . S
H1082 C1102 0.950 . S
H1083 C1103 0.950 . S
H1084 C1105 0.950 . S
H1085 C1108 0.950 . S
H1086 C1109 0.948 . S
H1087 C1111 0.950 . S
H1088 C1112 0.950 . S
H1089 C1113 0.951 . S
H1090 C1115 0.951 . S
H1091 C1117 0.950 . S
H1092 C1118 0.950 . S
H1093 C1120 0.950 . S
H1094 C1123 0.950 . S
H1095 C1124 0.950 . S
H1096 C1126 0.950 . S
H1097 C1127 0.950 . S
C1098 H1080 0.951 . S
C1098 C1099 1.366 . S
C1098 C1100 1.388 . S
C1099 C1098 1.366 . S
C1099 C1103 1.385 . S
C1100 H1081 0.951 . S
C1100 C1098 1.388 . S
C1100 C1101 1.366 . S
C1101 C1100 1.366 . S
C1101 C1102 1.414 . S
C1101 C1104 1.499 . S
C1102 H1082 0.950 . S
C1102 C1101 1.414 . S
C1102 C1103 1.374 . S
C1103 H1083 0.950 . S
C1103 C1099 1.385 . S
C1103 C1102 1.374 . S
C1104 C1101 1.499 . S
C1104 C1105 1.373 . S
C1104 C1106 1.389 . S
C1105 H1084 0.950 . S
C1105 C1104 1.373 . S
C1105 C1121 1.377 . S
C1106 C1104 1.389 . S
C1106 C1107 1.524 . S
C1106 C1120 1.377 . S
C1107 C1106 1.524 . S
C1107 C1108 1.397 . S
C1107 C1112 1.363 . S
C1108 H1085 0.950 . S
C1108 C1107 1.397 . S
C1108 C1109 1.334 . S
C1109 H1086 0.948 . S
C1109 C1108 1.334 . S
C1109 C1110 1.287 . S
C1110 C1109 1.287 . S
C1110 C1111 1.524 . S
C1110 H1129 0.913 . S
C1111 H1087 0.950 . S
C1111 C1110 1.524 . S
C1111 C1112 1.415 . S
C1112 H1088 0.950 . S
C1112 C1107 1.363 . S
C1112 C1111 1.415 . S
C1113 H1089 0.951 . S
C1113 C1114 1.366 . S
C1113 C1115 1.388 . S
C1114 C1113 1.366 . S
C1114 C1118 1.385 . S
C1115 H1090 0.951 . S
C1115 C1113 1.388 . S
C1115 C1116 1.366 . S
C1116 C1115 1.366 . S
C1116 C1117 1.414 . S
C1116 C1119 1.499 . S
C1117 H1091 0.950 . S
C1117 C1116 1.414 . S
C1117 C1118 1.374 . S
C1118 H1092 0.950 . S
C1118 C1114 1.385 . S
C1118 C1117 1.374 . S
C1119 C1116 1.499 . S
C1119 C1120 1.373 . S
C1119 C1121 1.389 . S
C1120 H1093 0.950 . S
C1120 C1106 1.377 . S
C1120 C1119 1.373 . S
C1121 C1105 1.377 . S
C1121 C1119 1.389 . S
C1121 C1122 1.524 . S
C1122 C1121 1.524 . S
C1122 C1123 1.397 . S
C1122 C1127 1.363 . S
C1123 H1094 0.950 . S
C1123 C1122 1.397 . S
C1123 C1124 1.334 . S
C1124 H1095 0.950 . S
C1124 C1123 1.334 . S
C1124 C1125 1.287 . S
C1125 C1124 1.287 . S
C1125 C1126 1.524 . S
C1125 H1128 0.999 . S
C1126 H1096 0.950 . S
C1126 C1125 1.524 . S
C1126 C1127 1.415 . S
C1127 H1097 0.950 . S
C1127 C1122 1.363 . S
C1127 C1126 1.415 . S
H1128 C1125 0.999 . S
H1129 C1110 0.913 . S
H1130 C1148 0.951 . S
H1131 C1150 0.951 . S
H1132 C1152 0.950 . S
H1133 C1153 0.950 . S
H1134 C1155 0.950 . S
H1135 C1158 0.950 . S
H1136 C1159 0.950 . S
H1137 C1161 0.950 . S
H1138 C1162 0.950 . S
H1139 C1163 0.951 . S
H1140 C1165 0.951 . S
H1141 C1167 0.950 . S
H1142 C1168 0.950 . S
H1143 C1170 0.950 . S
H1144 C1173 0.950 . S
H1145 C1174 0.950 . S
H1146 C1176 0.950 . S
H1147 C1177 0.950 . S
C1148 H1130 0.951 . S
C1148 C1149 1.366 . S
C1148 C1150 1.388 . S
C1149 C1148 1.366 . S
C1149 C1153 1.385 . S
C1150 H1131 0.951 . S
C1150 C1148 1.388 . S
C1150 C1151 1.366 . S
C1151 C1150 1.366 . S
C1151 C1152 1.414 . S
C1151 C1154 1.499 . S
C1152 H1132 0.950 . S
C1152 C1151 1.414 . S
C1152 C1153 1.374 . S
C1153 H1133 0.950 . S
C1153 C1149 1.385 . S
C1153 C1152 1.374 . S
C1154 C1151 1.499 . S
C1154 C1155 1.373 . S
C1154 C1156 1.389 . S
C1155 H1134 0.950 . S
C1155 C1154 1.373 . S
C1155 C1171 1.377 . S
C1156 C1154 1.389 . S
C1156 C1157 1.524 . S
C1156 C1170 1.377 . S
C1157 C1156 1.524 . S
C1157 C1158 1.397 . S
C1157 C1162 1.363 . S
C1158 H1135 0.950 . S
C1158 C1157 1.397 . S
C1158 C1159 1.334 . S
C1159 H1136 0.950 . S
C1159 C1158 1.334 . S
C1159 C1160 1.287 . S
C1160 C1159 1.287 . S
C1160 C1161 1.524 . S
C1160 H1179 0.913 . S
C1161 H1137 0.950 . S
C1161 C1160 1.524 . S
C1161 C1162 1.415 . S
C1162 H1138 0.950 . S
C1162 C1157 1.363 . S
C1162 C1161 1.415 . S
C1163 H1139 0.951 . S
C1163 C1164 1.366 . S
C1163 C1165 1.388 . S
C1164 C1163 1.366 . S
C1164 C1168 1.385 . S
C1165 H1140 0.951 . S
C1165 C1163 1.388 . S
C1165 C1166 1.366 . S
C1166 C1165 1.366 . S
C1166 C1167 1.414 . S
C1166 C1169 1.499 . S
C1167 H1141 0.950 . S
C1167 C1166 1.414 . S
C1167 C1168 1.374 . S
C1168 H1142 0.950 . S
C1168 C1164 1.385 . S
C1168 C1167 1.374 . S
C1169 C1166 1.499 . S
C1169 C1170 1.373 . S
C1169 C1171 1.389 . S
C1170 H1143 0.950 . S
C1170 C1156 1.377 . S
C1170 C1169 1.373 . S
C1171 C1155 1.377 . S
C1171 C1169 1.389 . S
C1171 C1172 1.524 . S
C1172 C1171 1.524 . S
C1172 C1173 1.397 . S
C1172 C1177 1.363 . S
C1173 H1144 0.950 . S
C1173 C1172 1.397 . S
C1173 C1174 1.334 . S
C1174 H1145 0.950 . S
C1174 C1173 1.334 . S
C1174 C1175 1.287 . S
C1175 C1174 1.287 . S
C1175 C1176 1.524 . S
C1175 H1178 0.999 . S
C1176 H1146 0.950 . S
C1176 C1175 1.524 . S
C1176 C1177 1.415 . S
C1177 H1147 0.950 . S
C1177 C1172 1.363 . S
C1177 C1176 1.415 . S
H1178 C1175 0.999 . S
H1179 C1160 0.913 . S
H1180 C1198 0.951 . S
H1181 C1200 0.951 . S
H1182 C1202 0.950 . S
H1183 C1203 0.950 . S
H1184 C1205 0.950 . S
H1185 C1208 0.950 . S
H1186 C1209 0.950 . S
H1187 C1211 0.950 . S
H1188 C1212 0.950 . S
H1189 C1213 0.951 . S
H1190 C1215 0.951 . S
H1191 C1217 0.950 . S
H1192 C1218 0.950 . S
H1193 C1220 0.950 . S
H1194 C1223 0.950 . S
H1195 C1224 0.950 . S
H1196 C1226 0.950 . S
H1197 C1227 0.950 1_565 S
C1198 H1180 0.951 . S
C1198 C1199 1.366 . S
C1198 C1200 1.388 . S
C1199 C1198 1.366 . S
C1199 C1203 1.385 . S
C1200 H1181 0.951 . S
C1200 C1198 1.388 . S
C1200 C1201 1.366 . S
C1201 C1200 1.366 . S
C1201 C1202 1.414 . S
C1201 C1204 1.499 . S
C1202 H1182 0.950 . S
C1202 C1201 1.414 . S
C1202 C1203 1.374 . S
C1203 H1183 0.950 . S
C1203 C1199 1.385 . S
C1203 C1202 1.374 . S
C1204 C1201 1.499 . S
C1204 C1205 1.373 . S
C1204 C1206 1.389 . S
C1205 H1184 0.950 . S
C1205 C1204 1.373 . S
C1205 C1221 1.377 . S
C1206 C1204 1.389 . S
C1206 C1207 1.524 . S
C1206 C1220 1.377 . S
C1207 C1206 1.524 . S
C1207 C1208 1.397 . S
C1207 C1212 1.363 . S
C1208 H1185 0.950 . S
C1208 C1207 1.397 . S
C1208 C1209 1.334 . S
C1209 H1186 0.950 . S
C1209 C1208 1.334 . S
C1209 C1210 1.287 . S
C1210 C1209 1.287 . S
C1210 C1211 1.524 . S
C1210 H1229 0.913 . S
C1211 H1187 0.950 . S
C1211 C1210 1.524 . S
C1211 C1212 1.415 . S
C1212 H1188 0.950 . S
C1212 C1207 1.363 . S
C1212 C1211 1.415 . S
C1213 H1189 0.951 . S
C1213 C1214 1.366 . S
C1213 C1215 1.388 . S
C1214 C1213 1.366 . S
C1214 C1218 1.385 . S
C1215 H1190 0.951 . S
C1215 C1213 1.388 . S
C1215 C1216 1.366 . S
C1216 C1215 1.366 . S
C1216 C1217 1.414 . S
C1216 C1219 1.499 . S
C1217 H1191 0.950 . S
C1217 C1216 1.414 . S
C1217 C1218 1.374 . S
C1218 H1192 0.950 . S
C1218 C1214 1.385 . S
C1218 C1217 1.374 . S
C1219 C1216 1.499 . S
C1219 C1220 1.373 . S
C1219 C1221 1.389 . S
C1220 H1193 0.950 . S
C1220 C1206 1.377 . S
C1220 C1219 1.373 . S
C1221 C1205 1.377 . S
C1221 C1219 1.389 . S
C1221 C1222 1.524 . S
C1222 C1221 1.524 . S
C1222 C1223 1.397 . S
C1222 C1227 1.363 . S
C1223 H1194 0.950 . S
C1223 C1222 1.397 . S
C1223 C1224 1.334 . S
C1224 H1195 0.950 . S
C1224 C1223 1.334 . S
C1224 C1225 1.287 . S
C1225 C1224 1.287 . S
C1225 C1226 1.524 1_545 S
C1225 H1228 0.999 . S
C1226 H1196 0.950 . S
C1226 C1225 1.524 1_565 S
C1226 C1227 1.415 1_565 S
C1227 H1197 0.950 1_545 S
C1227 C1222 1.363 . S
C1227 C1226 1.415 1_545 S
H1228 C1225 0.999 . S
H1229 C1210 0.913 . S
H1230 C1248 0.951 . S
H1231 C1250 0.951 . S
H1232 C1252 0.950 . S
H1233 C1253 0.950 . S
H1234 C1255 0.950 . S
H1235 C1258 0.950 . S
H1236 C1259 0.950 . S
H1237 C1261 0.950 . S
H1238 C1262 0.950 . S
H1239 C1263 0.951 . S
H1240 C1265 0.951 . S
H1241 C1267 0.950 . S
H1242 C1268 0.950 . S
H1243 C1270 0.950 . S
H1244 C1273 0.950 . S
H1245 C1274 0.950 . S
H1246 C1276 0.950 . S
H1247 C1277 0.950 . S
C1248 H1230 0.951 . S
C1248 C1249 1.366 . S
C1248 C1250 1.388 . S
C1249 C1248 1.366 . S
C1249 C1253 1.385 . S
C1250 H1231 0.951 . S
C1250 C1248 1.388 . S
C1250 C1251 1.366 . S
C1251 C1250 1.366 . S
C1251 C1252 1.414 . S
C1251 C1254 1.499 . S
C1252 H1232 0.950 . S
C1252 C1251 1.414 . S
C1252 C1253 1.374 . S
C1253 H1233 0.950 . S
C1253 C1249 1.385 . S
C1253 C1252 1.374 . S
C1254 C1251 1.499 . S
C1254 C1255 1.373 . S
C1254 C1256 1.389 . S
C1255 H1234 0.950 . S
C1255 C1254 1.373 . S
C1255 C1271 1.377 . S
C1256 C1254 1.389 . S
C1256 C1257 1.524 . S
C1256 C1270 1.377 . S
C1257 C1256 1.524 . S
C1257 C1258 1.397 . S
C1257 C1262 1.363 . S
C1258 H1235 0.950 . S
C1258 C1257 1.397 . S
C1258 C1259 1.334 . S
C1259 H1236 0.950 . S
C1259 C1258 1.334 . S
C1259 C1260 1.287 . S
C1260 C1259 1.287 . S
C1260 C1261 1.524 . S
C1260 H1279 0.913 . S
C1261 H1237 0.950 . S
C1261 C1260 1.524 . S
C1261 C1262 1.415 . S
C1262 H1238 0.950 . S
C1262 C1257 1.363 . S
C1262 C1261 1.415 . S
C1263 H1239 0.951 . S
C1263 C1264 1.366 . S
C1263 C1265 1.388 . S
C1264 C1263 1.366 . S
C1264 C1268 1.385 . S
C1265 H1240 0.951 . S
C1265 C1263 1.388 . S
C1265 C1266 1.366 . S
C1266 C1265 1.366 . S
C1266 C1267 1.414 . S
C1266 C1269 1.499 . S
C1267 H1241 0.950 . S
C1267 C1266 1.414 . S
C1267 C1268 1.374 . S
C1268 H1242 0.950 . S
C1268 C1264 1.385 . S
C1268 C1267 1.374 . S
C1269 C1266 1.499 . S
C1269 C1270 1.373 . S
C1269 C1271 1.389 . S
C1270 H1243 0.950 . S
C1270 C1256 1.377 . S
C1270 C1269 1.373 . S
C1271 C1255 1.377 . S
C1271 C1269 1.389 . S
C1271 C1272 1.524 . S
C1272 C1271 1.524 . S
C1272 C1273 1.397 . S
C1272 C1277 1.363 1_455 S
C1273 H1244 0.950 . S
C1273 C1272 1.397 . S
C1273 C1274 1.334 1_455 S
C1274 H1245 0.950 . S
C1274 C1273 1.334 1_655 S
C1274 C1275 1.287 . S
C1275 C1274 1.287 . S
C1275 C1276 1.524 . S
C1275 H1278 0.999 . S
C1276 H1246 0.950 . S
C1276 C1275 1.524 . S
C1276 C1277 1.415 . S
C1277 H1247 0.950 . S
C1277 C1272 1.363 1_655 S
C1277 C1276 1.415 . S
H1278 C1275 0.999 . S
H1279 C1260 0.913 . S
H1280 C1298 0.951 . S
H1281 C1300 0.951 . S
H1282 C1302 0.950 . S
H1283 C1303 0.950 . S
H1284 C1305 0.950 . S
H1285 C1308 0.950 . S
H1286 C1309 0.950 . S
H1287 C1311 0.950 . S
H1288 C1312 0.950 . S
H1289 C1313 0.951 . S
H1290 C1315 0.951 . S
H1291 C1317 0.950 . S
H1292 C1318 0.950 . S
H1293 C1320 0.950 . S
H1294 C1323 0.950 . S
H1295 C1324 0.950 . S
H1296 C1326 0.950 . S
H1297 C1327 0.950 . S
C1298 H1280 0.951 . S
C1298 C1299 1.366 . S
C1298 C1300 1.388 . S
C1299 C1298 1.366 . S
C1299 C1303 1.385 . S
C1300 H1281 0.951 . S
C1300 C1298 1.388 . S
C1300 C1301 1.366 . S
C1301 C1300 1.366 . S
C1301 C1302 1.414 . S
C1301 C1304 1.499 . S
C1302 H1282 0.950 . S
C1302 C1301 1.414 . S
C1302 C1303 1.374 . S
C1303 H1283 0.950 . S
C1303 C1299 1.385 . S
C1303 C1302 1.374 . S
C1304 C1301 1.499 . S
C1304 C1305 1.373 . S
C1304 C1306 1.389 . S
C1305 H1284 0.950 . S
C1305 C1304 1.373 . S
C1305 C1321 1.377 . S
C1306 C1304 1.389 . S
C1306 C1307 1.524 . S
C1306 C1320 1.377 . S
C1307 C1306 1.524 . S
C1307 C1308 1.397 . S
C1307 C1312 1.363 . S
C1308 H1285 0.950 . S
C1308 C1307 1.397 . S
C1308 C1309 1.334 . S
C1309 H1286 0.950 . S
C1309 C1308 1.334 . S
C1309 C1310 1.287 . S
C1310 C1309 1.287 . S
C1310 C1311 1.524 . S
C1310 H1329 0.913 . S
C1311 H1287 0.950 . S
C1311 C1310 1.524 . S
C1311 C1312 1.415 . S
C1312 H1288 0.950 . S
C1312 C1307 1.363 . S
C1312 C1311 1.415 . S
C1313 H1289 0.951 . S
C1313 C1314 1.366 . S
C1313 C1315 1.388 . S
C1314 C1313 1.366 . S
C1314 C1318 1.385 . S
C1315 H1290 0.951 . S
C1315 C1313 1.388 . S
C1315 C1316 1.366 . S
C1316 C1315 1.366 . S
C1316 C1317 1.414 . S
C1316 C1319 1.499 . S
C1317 H1291 0.950 . S
C1317 C1316 1.414 . S
C1317 C1318 1.374 . S
C1318 H1292 0.950 . S
C1318 C1314 1.385 . S
C1318 C1317 1.374 . S
C1319 C1316 1.499 . S
C1319 C1320 1.373 . S
C1319 C1321 1.389 . S
C1320 H1293 0.950 . S
C1320 C1306 1.377 . S
C1320 C1319 1.373 . S
C1321 C1305 1.377 . S
C1321 C1319 1.389 . S
C1321 C1322 1.524 . S
C1322 C1321 1.524 . S
C1322 C1323 1.397 . S
C1322 C1327 1.363 . S
C1323 H1294 0.950 . S
C1323 C1322 1.397 . S
C1323 C1324 1.334 . S
C1324 H1295 0.950 . S
C1324 C1323 1.334 . S
C1324 C1325 1.287 . S
C1325 C1324 1.287 . S
C1325 C1326 1.524 . S
C1325 H1328 0.999 . S
C1326 H1296 0.950 . S
C1326 C1325 1.524 . S
C1326 C1327 1.415 . S
C1327 H1297 0.950 . S
C1327 C1322 1.363 . S
C1327 C1326 1.415 . S
H1328 C1325 0.999 . S
H1329 C1310 0.913 . S
H1330 C1348 0.951 . S
H1331 C1350 0.951 . S
H1332 C1352 0.950 . S
H1333 C1353 0.950 . S
H1334 C1355 0.950 . S
H1335 C1358 0.950 . S
H1336 C1359 0.950 . S
H1337 C1361 0.950 . S
H1338 C1362 0.950 . S
H1339 C1363 0.951 . S
H1340 C1365 0.951 . S
H1341 C1367 0.950 . S
H1342 C1368 0.950 . S
H1343 C1370 0.950 . S
H1344 C1373 0.950 . S
H1345 C1374 0.950 . S
H1346 C1376 0.950 . S
H1347 C1377 0.950 . S
C1348 H1330 0.951 . S
C1348 C1349 1.366 . S
C1348 C1350 1.388 . S
C1349 C1348 1.366 . S
C1349 C1353 1.385 . S
C1350 H1331 0.951 . S
C1350 C1348 1.388 . S
C1350 C1351 1.366 . S
C1351 C1350 1.366 . S
C1351 C1352 1.414 . S
C1351 C1354 1.499 . S
C1352 H1332 0.950 . S
C1352 C1351 1.414 . S
C1352 C1353 1.374 . S
C1353 H1333 0.950 . S
C1353 C1349 1.385 . S
C1353 C1352 1.374 . S
C1354 C1351 1.499 . S
C1354 C1355 1.373 . S
C1354 C1356 1.389 . S
C1355 H1334 0.950 . S
C1355 C1354 1.373 . S
C1355 C1371 1.377 . S
C1356 C1354 1.389 . S
C1356 C1357 1.524 . S
C1356 C1370 1.377 . S
C1357 C1356 1.524 . S
C1357 C1358 1.397 . S
C1357 C1362 1.363 . S
C1358 H1335 0.950 . S
C1358 C1357 1.397 . S
C1358 C1359 1.334 . S
C1359 H1336 0.950 . S
C1359 C1358 1.334 . S
C1359 C1360 1.287 . S
C1360 C1359 1.287 . S
C1360 C1361 1.524 . S
C1360 H1379 0.913 . S
C1361 H1337 0.950 . S
C1361 C1360 1.524 . S
C1361 C1362 1.415 . S
C1362 H1338 0.950 . S
C1362 C1357 1.363 . S
C1362 C1361 1.415 . S
C1363 H1339 0.951 . S
C1363 C1364 1.366 . S
C1363 C1365 1.388 . S
C1364 C1363 1.366 . S
C1364 C1368 1.385 . S
C1365 H1340 0.951 . S
C1365 C1363 1.388 . S
C1365 C1366 1.366 . S
C1366 C1365 1.366 . S
C1366 C1367 1.414 . S
C1366 C1369 1.499 . S
C1367 H1341 0.950 . S
C1367 C1366 1.414 . S
C1367 C1368 1.374 . S
C1368 H1342 0.950 . S
C1368 C1364 1.385 . S
C1368 C1367 1.374 . S
C1369 C1366 1.499 . S
C1369 C1370 1.373 . S
C1369 C1371 1.389 . S
C1370 H1343 0.950 . S
C1370 C1356 1.377 . S
C1370 C1369 1.373 . S
C1371 C1355 1.377 . S
C1371 C1369 1.389 . S
C1371 C1372 1.524 . S
C1372 C1371 1.524 . S
C1372 C1373 1.397 . S
C1372 C1377 1.363 . S
C1373 H1344 0.950 . S
C1373 C1372 1.397 . S
C1373 C1374 1.334 . S
C1374 H1345 0.950 . S
C1374 C1373 1.334 . S
C1374 C1375 1.287 . S
C1375 C1374 1.287 . S
C1375 C1376 1.524 . S
C1375 H1378 0.999 . S
C1376 H1346 0.950 . S
C1376 C1375 1.524 . S
C1376 C1377 1.415 . S
C1377 H1347 0.950 . S
C1377 C1372 1.363 . S
C1377 C1376 1.415 . S
H1378 C1375 0.999 . S
H1379 C1360 0.913 . S
C499 C202 2.843 . S
C514 C2 2.837 . S
C549 C42 2.843 . S
C564 C122 2.837 . S
C599 C162 2.529 . S
C614 C82 2.523 . S
C649 C442 2.935 . S
C664 C242 2.920 . S
C699 C282 2.935 . S
C714 C362 2.920 . S
C749 C402 2.597 . S
C764 C322 2.592 . S
C799 C15 3.266 . S
C814 C255 3.286 . S
C849 C295 3.364 . S
C864 C55 3.347 . S
C899 C95 2.948 . S
C914 C335 2.958 . S
C949 C375 3.284 . S
C964 C135 3.270 . S
C999 C415 2.963 . S
C1014 C175 2.943 . S
C1049 C215 3.347 . S
C1064 C455 3.365 . S
C1099 C181 0.709 . S
C1114 C21 0.812 . S
C1149 C221 0.640 . S
C1164 C61 0.636 . S
C1199 C101 0.708 . S
C1214 C141 0.814 . S
C1249 C261 0.458 . S
C1264 C421 0.386 . S
C1299 C461 0.289 . S
C1314 C301 0.286 . S
C1349 C341 0.387 . S
C1364 C381 0.461 . S
