# Generated by pormake.
# Topology ukd, (4)-cn, num edge types: 1
# Building blocks:
#     Node 0, Type 0, BuildingBlock: QUQFOY_clean_sbu_3, # of connection points: 4
#     Node 1, Type 0, BuildingBlock: QUQFOY_clean_sbu_3, # of connection points: 4
#     Node 2, Type 0, BuildingBlock: QUQFOY_clean_sbu_3, # of connection points: 4
#     Node 3, Type 0, BuildingBlock: QUQFOY_clean_sbu_3, # of connection points: 4
#     Node 4, Type 0, BuildingBlock: QUQFOY_clean_sbu_3, # of connection points: 4
#     Node 5, Type 0, BuildingBlock: QUQFOY_clean_sbu_3, # of connection points: 4
#     Node 6, Type 0, BuildingBlock: QUQFOY_clean_sbu_3, # of connection points: 4
#     Node 7, Type 0, BuildingBlock: QUQFOY_clean_sbu_3, # of connection points: 4
#     Node 8, Type 0, BuildingBlock: QUQFOY_clean_sbu_3, # of connection points: 4
#     Node 9, Type 0, BuildingBlock: QUQFOY_clean_sbu_3, # of connection points: 4
#     Node 10, Type 0, BuildingBlock: QUQFOY_clean_sbu_3, # of connection points: 4
#     Node 11, Type 0, BuildingBlock: QUQFOY_clean_sbu_3, # of connection points: 4
#     Node 12, Type 0, BuildingBlock: QUQFOY_clean_sbu_3, # of connection points: 4
#     Node 13, Type 0, BuildingBlock: QUQFOY_clean_sbu_3, # of connection points: 4
#     Node 14, Type 0, BuildingBlock: QUQFOY_clean_sbu_3, # of connection points: 4
#     Node 15, Type 0, BuildingBlock: QUQFOY_clean_sbu_3, # of connection points: 4
#     Node 16, Type 0, BuildingBlock: QUQFOY_clean_sbu_3, # of connection points: 4
#     Node 17, Type 0, BuildingBlock: QUQFOY_clean_sbu_3, # of connection points: 4
#     Node 18, Type 0, BuildingBlock: QUQFOY_clean_sbu_3, # of connection points: 4
#     Node 19, Type 0, BuildingBlock: QUQFOY_clean_sbu_3, # of connection points: 4
#     Node 20, Type 0, BuildingBlock: QUQFOY_clean_sbu_3, # of connection points: 4
#     Node 21, Type 0, BuildingBlock: QUQFOY_clean_sbu_3, # of connection points: 4
#     Node 22, Type 0, BuildingBlock: QUQFOY_clean_sbu_3, # of connection points: 4
#     Node 23, Type 0, BuildingBlock: QUQFOY_clean_sbu_3, # of connection points: 4
#     Node 24, Type 0, BuildingBlock: QUQFOY_clean_sbu_3, # of connection points: 4
#     Node 25, Type 0, BuildingBlock: QUQFOY_clean_sbu_3, # of connection points: 4
#     Node 26, Type 0, BuildingBlock: QUQFOY_clean_sbu_3, # of connection points: 4
#     Node 27, Type 0, BuildingBlock: QUQFOY_clean_sbu_3, # of connection points: 4
#     Node 28, Type 0, BuildingBlock: QUQFOY_clean_sbu_3, # of connection points: 4
#     Node 29, Type 0, BuildingBlock: QUQFOY_clean_sbu_3, # of connection points: 4
#     Node 30, Type 0, BuildingBlock: QUQFOY_clean_sbu_3, # of connection points: 4
#     Node 31, Type 0, BuildingBlock: QUQFOY_clean_sbu_3, # of connection points: 4
#     Edge 32, Type (0, 0), None
#     Edge 33, Type (0, 0), None
#     Edge 34, Type (0, 0), None
#     Edge 35, Type (0, 0), None
#     Edge 36, Type (0, 0), None
#     Edge 37, Type (0, 0), None
#     Edge 38, Type (0, 0), None
#     Edge 39, Type (0, 0), None
#     Edge 40, Type (0, 0), None
#     Edge 41, Type (0, 0), None
#     Edge 42, Type (0, 0), None
#     Edge 43, Type (0, 0), None
#     Edge 44, Type (0, 0), None
#     Edge 45, Type (0, 0), None
#     Edge 46, Type (0, 0), None
#     Edge 47, Type (0, 0), None
#     Edge 48, Type (0, 0), None
#     Edge 49, Type (0, 0), None
#     Edge 50, Type (0, 0), None
#     Edge 51, Type (0, 0), None
#     Edge 52, Type (0, 0), None
#     Edge 53, Type (0, 0), None
#     Edge 54, Type (0, 0), None
#     Edge 55, Type (0, 0), None
#     Edge 56, Type (0, 0), None
#     Edge 57, Type (0, 0), None
#     Edge 58, Type (0, 0), None
#     Edge 59, Type (0, 0), None
#     Edge 60, Type (0, 0), None
#     Edge 61, Type (0, 0), None
#     Edge 62, Type (0, 0), None
#     Edge 63, Type (0, 0), None
#     Edge 64, Type (0, 0), None
#     Edge 65, Type (0, 0), None
#     Edge 66, Type (0, 0), None
#     Edge 67, Type (0, 0), None
#     Edge 68, Type (0, 0), None
#     Edge 69, Type (0, 0), None
#     Edge 70, Type (0, 0), None
#     Edge 71, Type (0, 0), None
#     Edge 72, Type (0, 0), None
#     Edge 73, Type (0, 0), None
#     Edge 74, Type (0, 0), None
#     Edge 75, Type (0, 0), None
#     Edge 76, Type (0, 0), None
#     Edge 77, Type (0, 0), None
#     Edge 78, Type (0, 0), None
#     Edge 79, Type (0, 0), None
#     Edge 80, Type (0, 0), None
#     Edge 81, Type (0, 0), None
#     Edge 82, Type (0, 0), None
#     Edge 83, Type (0, 0), None
#     Edge 84, Type (0, 0), None
#     Edge 85, Type (0, 0), None
#     Edge 86, Type (0, 0), None
#     Edge 87, Type (0, 0), None
#     Edge 88, Type (0, 0), None
#     Edge 89, Type (0, 0), None
#     Edge 90, Type (0, 0), None
#     Edge 91, Type (0, 0), None
#     Edge 92, Type (0, 0), None
#     Edge 93, Type (0, 0), None
#     Edge 94, Type (0, 0), None
#     Edge 95, Type (0, 0), None
# Relax obj value: 0.048
# Max RMSD: 0.091
# Mean RMSD: 0.081
data_MOF--net-ukd--node1-QUQFOY_clean_sbu_3--edge1-none
_symmetry_space_group_name_H-M    P1
_symmetry_Int_Tables_number       1
_symmetry_cell_setting            triclinic
loop_
_symmetry_equiv_pos_as_xyz
'x, y, z'
_cell_length_a     20.610183
_cell_length_b     20.609487
_cell_length_c     38.695244
_cell_angle_alpha  90.000007
_cell_angle_beta   90.0
_cell_angle_gamma 90.0
loop_
_atom_site_label
_atom_site_type_symbol
_atom_site_fract_x
_atom_site_fract_y
_atom_site_fract_z
_atom_type_partial_charge
C0 C 0.18075 0.22842 0.225 0.0
O1 O 0.12675 0.19919 0.22755 0.0
Cd2 Cd 0.08343 0.16891 0.28202 0.0
O3 O 0.21834 0.23476 0.25086 0.0
Cd4 Cd 0.22977 0.20148 0.31174 0.0
C5 C 0.12141 0.3163 0.32447 0.0
O6 O 0.16326 0.10353 0.30832 0.0
O7 O 0.18002 0.14178 0.35919 0.0
O8 O 0.32866 0.16081 0.28635 0.0
C9 C 0.15543 0.09758 0.34058 0.0
O10 O 0.08563 0.27475 0.30931 0.0
C11 C 0.36126 0.16105 0.31408 0.0
O12 O 0.18151 0.30554 0.32996 0.0
O13 O 0.33511 0.18772 0.34028 0.0
C14 C 0.02352 0.93078 0.475 0.0
O15 O 0.05275 0.87678 0.47755 0.0
Cd16 Cd 0.08305 0.83347 0.53203 0.0
O17 O 0.01719 0.96837 0.50086 0.0
Cd18 Cd 0.05048 0.97981 0.56174 0.0
C19 C 0.93567 0.87145 0.57448 0.0
O20 O 0.14843 0.9133 0.55832 0.0
O21 O 0.11018 0.93007 0.60919 0.0
O22 O 0.09116 0.0787 0.53635 0.0
C23 C 0.15438 0.90548 0.59058 0.0
O24 O 0.97722 0.83567 0.55932 0.0
C25 C 0.09092 0.1113 0.56407 0.0
O26 O 0.94643 0.93155 0.57996 0.0
O27 O 0.06425 0.08516 0.59027 0.0
C28 C 0.32118 0.77354 0.725 0.0
O29 O 0.37518 0.80277 0.72755 0.0
Cd30 Cd 0.4185 0.83306 0.78202 0.0
O31 O 0.28359 0.7672 0.75086 0.0
Cd32 Cd 0.27216 0.80049 0.81174 0.0
C33 C 0.38052 0.68567 0.82447 0.0
O34 O 0.33867 0.89844 0.80832 0.0
O35 O 0.32191 0.86019 0.85919 0.0
O36 O 0.17327 0.84116 0.78635 0.0
C37 C 0.3465 0.90439 0.84058 0.0
O38 O 0.4163 0.72722 0.80931 0.0
C39 C 0.14068 0.84092 0.81408 0.0
O40 O 0.32043 0.69642 0.82996 0.0
O41 O 0.16682 0.81425 0.84028 0.0
C42 C 0.47841 0.07119 -0.025 0.0
O43 O 0.44918 0.12519 -0.02245 0.0
Cd44 Cd 0.41888 0.1685 0.03203 0.0
O45 O 0.48475 0.0336 0.00086 0.0
Cd46 Cd 0.45145 0.02215 0.06174 0.0
C47 C 0.56626 0.13051 0.07448 0.0
O48 O 0.3535 0.08866 0.05832 0.0
O49 O 0.39175 0.0719 0.10919 0.0
O50 O 0.41078 0.92327 0.03635 0.0
C51 C 0.34755 0.09648 0.09058 0.0
O52 O 0.52471 0.1663 0.05932 0.0
C53 C 0.41101 0.89066 0.06407 0.0
O54 O 0.55551 0.07042 0.07996 0.0
O55 O 0.43768 0.91681 0.09027 0.0
C56 C 0.18076 0.77354 0.15751 0.0
O57 O 0.12676 0.80277 0.15496 0.0
Cd58 Cd 0.08343 0.83306 0.10049 0.0
O59 O 0.21834 0.7672 0.13165 0.0
Cd60 Cd 0.22977 0.80049 0.07077 0.0
C61 C 0.12141 0.68567 0.05804 0.0
O62 O 0.16326 0.89844 0.07419 0.0
O63 O 0.18003 0.86019 0.02332 0.0
O64 O 0.32865 0.84117 0.09617 0.0
C65 C 0.15544 0.90439 0.04193 0.0
O66 O 0.08563 0.72722 0.0732 0.0
C67 C 0.36123 0.84092 0.06844 0.0
O68 O 0.18151 0.69643 0.05256 0.0
O69 O 0.33512 0.81424 0.04223 0.0
C70 C 0.47841 0.93078 0.40751 0.0
O71 O 0.44918 0.87678 0.40496 0.0
Cd72 Cd 0.41888 0.83347 0.35049 0.0
O73 O 0.48475 0.96837 0.38165 0.0
Cd74 Cd 0.45145 0.97982 0.32078 0.0
C75 C 0.56625 0.87145 0.30803 0.0
O76 O 0.3535 0.91331 0.32419 0.0
O77 O 0.39175 0.93008 0.27332 0.0
O78 O 0.41076 0.07869 0.34617 0.0
C79 C 0.34755 0.90548 0.29193 0.0
O80 O 0.52471 0.83567 0.32319 0.0
C81 C 0.41101 0.11128 0.31845 0.0
O82 O 0.5555 0.93155 0.30255 0.0
O83 O 0.43769 0.08517 0.29223 0.0
C84 C 0.32118 0.22842 0.65751 0.0
O85 O 0.37518 0.19919 0.65496 0.0
Cd86 Cd 0.4185 0.1689 0.60049 0.0
O87 O 0.28359 0.23477 0.63165 0.0
Cd88 Cd 0.27216 0.20148 0.57077 0.0
C89 C 0.38052 0.31629 0.55804 0.0
O90 O 0.33867 0.10353 0.57419 0.0
O91 O 0.32191 0.14177 0.52332 0.0
O92 O 0.17328 0.1608 0.59617 0.0
C93 C 0.3465 0.09757 0.54193 0.0
O94 O 0.4163 0.27475 0.5732 0.0
C95 C 0.1407 0.16105 0.56844 0.0
O96 O 0.32043 0.30554 0.55256 0.0
O97 O 0.16682 0.18773 0.54223 0.0
C98 C 0.02352 0.07118 0.90751 0.0
O99 O 0.05275 0.12518 0.90496 0.0
Cd100 Cd 0.08305 0.1685 0.85049 0.0
O101 O 0.01718 0.03359 0.88165 0.0
Cd102 Cd 0.05048 0.02215 0.82077 0.0
C103 C 0.93568 0.13052 0.80803 0.0
O104 O 0.14843 0.08866 0.82419 0.0
O105 O 0.11019 0.07189 0.77332 0.0
O106 O 0.09117 0.92328 0.84617 0.0
C107 C 0.15438 0.09648 0.79193 0.0
O108 O 0.97722 0.1663 0.82319 0.0
C109 C 0.09092 0.89069 0.81845 0.0
O110 O 0.94643 0.07042 0.80255 0.0
O111 O 0.06424 0.9168 0.79223 0.0
C112 C 0.6449 0.84495 0.56838 0.0
O113 O 0.66713 0.81561 0.54205 0.0
Cd114 Cd 0.75795 0.74094 0.54228 0.0
O115 O 0.66887 0.83544 0.59815 0.0
Cd116 Cd 0.75383 0.76924 0.62454 0.0
C117 C 0.87173 0.84254 0.57975 0.0
O118 O 0.75663 0.66921 0.59011 0.0
O119 O 0.83353 0.68571 0.62745 0.0
O120 O 0.67213 0.73291 0.66414 0.0
C121 C 0.80899 0.64992 0.60431 0.0
O122 O 0.85096 0.80674 0.55535 0.0
C123 C 0.70343 0.74878 0.69105 0.0
O124 O 0.84241 0.84582 0.60878 0.0
O125 O 0.75732 0.77804 0.68711 0.0
C126 C 0.90695 0.89488 0.31839 0.0
O127 O 0.93629 0.91711 0.29205 0.0
Cd128 Cd 0.01095 0.00793 0.29227 0.0
O129 O 0.91648 0.91884 0.34815 0.0
Cd130 Cd 0.9827 0.0038 0.37453 0.0
C131 C 0.90939 0.12173 0.32976 0.0
O132 O 0.08273 0.00661 0.34009 0.0
O133 O 0.06621 0.08353 0.37742 0.0
O134 O 0.01907 0.92212 0.41413 0.0
C135 C 0.10199 0.05898 0.35428 0.0
O136 O 0.94518 0.10096 0.30536 0.0
C137 C 0.0032 0.95343 0.44103 0.0
O138 O 0.90612 0.09239 0.35878 0.0
O139 O 0.97393 0.00732 0.4371 0.0
C140 C 0.85703 0.15701 0.06838 0.0
O141 O 0.8348 0.18636 0.04205 0.0
Cd142 Cd 0.74399 0.26102 0.04228 0.0
O143 O 0.83306 0.16652 0.09815 0.0
Cd144 Cd 0.74811 0.23273 0.12454 0.0
C145 C 0.63021 0.15942 0.07975 0.0
O146 O 0.7453 0.33276 0.09011 0.0
O147 O 0.6684 0.31625 0.12745 0.0
O148 O 0.8298 0.26906 0.16414 0.0
C149 C 0.69295 0.35204 0.10431 0.0
O150 O 0.65097 0.19523 0.05535 0.0
C151 C 0.7985 0.25318 0.19105 0.0
O152 O 0.65952 0.15615 0.10878 0.0
O153 O 0.74461 0.22392 0.18711 0.0
C154 C 0.59498 0.10709 0.81839 0.0
O155 O 0.56565 0.08485 0.79205 0.0
Cd156 Cd 0.49098 0.99404 0.79227 0.0
O157 O 0.58545 0.08313 0.84815 0.0
Cd158 Cd 0.51923 0.99816 0.87453 0.0
C159 C 0.59254 0.88024 0.82976 0.0
O160 O 0.41921 0.99536 0.84009 0.0
O161 O 0.43572 0.91844 0.87742 0.0
O162 O 0.48286 0.07985 0.91413 0.0
C163 C 0.39994 0.94299 0.85428 0.0
O164 O 0.55675 0.90101 0.80536 0.0
C165 C 0.49873 0.04854 0.94103 0.0
O166 O 0.59582 0.90957 0.85878 0.0
O167 O 0.52801 0.99465 0.9371 0.0
C168 C 0.6449 0.15702 0.81413 0.0
O169 O 0.66713 0.18636 0.84047 0.0
Cd170 Cd 0.75795 0.26103 0.84023 0.0
O171 O 0.66887 0.16653 0.78436 0.0
Cd172 Cd 0.75383 0.23273 0.75797 0.0
C173 C 0.87173 0.15942 0.80276 0.0
O174 O 0.75664 0.33276 0.7924 0.0
O175 O 0.83353 0.31626 0.75506 0.0
O176 O 0.67213 0.26906 0.71837 0.0
C177 C 0.80899 0.35205 0.7782 0.0
O178 O 0.85096 0.19523 0.82716 0.0
C179 C 0.70344 0.25318 0.69146 0.0
O180 O 0.84241 0.15615 0.77374 0.0
O181 O 0.75733 0.22392 0.6954 0.0
C182 C 0.59498 0.89488 0.56412 0.0
O183 O 0.56564 0.91711 0.59047 0.0
Cd184 Cd 0.49098 0.00793 0.59024 0.0
O185 O 0.58545 0.91884 0.53436 0.0
Cd186 Cd 0.51923 0.00381 0.50799 0.0
C187 C 0.59254 0.12173 0.55275 0.0
O188 O 0.41921 0.00661 0.54242 0.0
O189 O 0.43572 0.08353 0.50509 0.0
O190 O 0.48286 0.92212 0.46838 0.0
C191 C 0.39994 0.05898 0.52823 0.0
O192 O 0.55675 0.10096 0.57715 0.0
C193 C 0.49873 0.95344 0.44148 0.0
O194 O 0.59581 0.0924 0.52373 0.0
O195 O 0.52801 0.00732 0.44541 0.0
C196 C 0.85703 0.84495 0.31413 0.0
O197 O 0.8348 0.81561 0.34047 0.0
Cd198 Cd 0.74398 0.74094 0.34023 0.0
O199 O 0.83306 0.83544 0.28436 0.0
Cd200 Cd 0.7481 0.76924 0.25797 0.0
C201 C 0.6302 0.84254 0.30276 0.0
O202 O 0.7453 0.66921 0.2924 0.0
O203 O 0.6684 0.68571 0.25506 0.0
O204 O 0.8298 0.73291 0.21837 0.0
C205 C 0.69294 0.64992 0.2782 0.0
O206 O 0.65097 0.80674 0.32716 0.0
C207 C 0.7985 0.74879 0.19146 0.0
O208 O 0.65952 0.84582 0.27374 0.0
O209 O 0.7446 0.77804 0.1954 0.0
C210 C 0.90696 0.10709 0.06412 0.0
O211 O 0.93629 0.08485 0.09047 0.0
Cd212 Cd 0.01095 0.99403 0.09024 0.0
O213 O 0.91648 0.08313 0.03436 0.0
Cd214 Cd 0.98271 0.99816 0.00799 0.0
C215 C 0.90939 0.88023 0.05275 0.0
O216 O 0.08273 0.99535 0.04242 0.0
O217 O 0.06621 0.91843 0.00509 0.0
O218 O 0.01907 0.07984 -0.03162 0.0
C219 C 0.10199 0.94299 0.02823 0.0
O220 O 0.94519 0.901 0.07715 0.0
C221 C 0.0032 0.04853 -0.05852 0.0
O222 O 0.90612 0.90957 0.02373 0.0
O223 O 0.97393 0.99464 -0.05459 0.0
C224 C 0.68077 0.72847 0.72502 0.0
O225 O 0.62678 0.69923 0.72756 0.0
Cd226 Cd 0.58346 0.66891 0.78203 0.0
O227 O 0.71837 0.7348 0.75087 0.0
Cd228 Cd 0.72981 0.70148 0.81175 0.0
C229 C 0.62144 0.81628 0.8245 0.0
O230 O 0.6633 0.60354 0.80832 0.0
O231 O 0.68007 0.64178 0.8592 0.0
O232 O 0.82869 0.66081 0.78635 0.0
C233 C 0.65548 0.59758 0.84058 0.0
O234 O 0.58566 0.77474 0.80933 0.0
C235 C 0.86129 0.66103 0.81408 0.0
O236 O 0.68154 0.80554 0.82997 0.0
O237 O 0.83515 0.68771 0.84028 0.0
C238 C 0.52352 0.43077 -0.025 0.0
O239 O 0.55275 0.37677 -0.02245 0.0
Cd240 Cd 0.58301 0.33345 0.03202 0.0
O241 O 0.51718 0.46836 0.00086 0.0
Cd242 Cd 0.55046 0.47978 0.06174 0.0
C243 C 0.43563 0.37144 0.07447 0.0
O244 O 0.64841 0.41326 0.05833 0.0
O245 O 0.61012 0.43004 0.10921 0.0
O246 O 0.59114 0.57866 0.03635 0.0
C247 C 0.6543 0.40544 0.09059 0.0
O248 O 0.47717 0.33565 0.05931 0.0
C249 C 0.5909 0.61127 0.06407 0.0
O250 O 0.44639 0.43154 0.07995 0.0
O251 O 0.56423 0.58513 0.09027 0.0
C252 C 0.82116 0.2735 0.22502 0.0
O253 O 0.87516 0.30273 0.22756 0.0
Cd254 Cd 0.91847 0.33305 0.28203 0.0
O255 O 0.78356 0.26717 0.25087 0.0
Cd256 Cd 0.77212 0.30048 0.31175 0.0
C257 C 0.88049 0.18569 0.3245 0.0
O258 O 0.83863 0.39843 0.30832 0.0
O259 O 0.82187 0.36019 0.3592 0.0
O260 O 0.67324 0.34116 0.28635 0.0
C261 C 0.84646 0.40439 0.34058 0.0
O262 O 0.91627 0.22723 0.30933 0.0
C263 C 0.64064 0.34093 0.31408 0.0
O264 O 0.82039 0.19642 0.32997 0.0
O265 O 0.66678 0.31426 0.34028 0.0
C266 C 0.97841 0.57119 0.475 0.0
O267 O 0.94919 0.6252 0.47755 0.0
Cd268 Cd 0.91892 0.66851 0.53202 0.0
O269 O 0.98476 0.53361 0.50086 0.0
Cd270 Cd 0.95147 0.52218 0.56174 0.0
C271 C 0.0663 0.63053 0.57447 0.0
O272 O 0.85352 0.5887 0.55833 0.0
O273 O 0.89181 0.57192 0.60921 0.0
O274 O 0.91079 0.4233 0.53635 0.0
C275 C 0.84763 0.59653 0.59059 0.0
O276 O 0.02476 0.66631 0.55931 0.0
C277 C 0.91103 0.39069 0.56407 0.0
O278 O 0.05554 0.57043 0.57995 0.0
O279 O 0.93771 0.41683 0.59027 0.0
C280 C 0.68078 0.27349 0.65749 0.0
O281 O 0.62678 0.30273 0.65495 0.0
Cd282 Cd 0.58347 0.33306 0.60048 0.0
O283 O 0.71837 0.26717 0.63164 0.0
Cd284 Cd 0.72982 0.30048 0.57077 0.0
C285 C 0.62144 0.18569 0.55801 0.0
O286 O 0.66331 0.39843 0.57419 0.0
O287 O 0.68007 0.36019 0.52331 0.0
O288 O 0.82868 0.34117 0.59617 0.0
C289 C 0.65548 0.40439 0.54193 0.0
O290 O 0.58566 0.22723 0.57318 0.0
C291 C 0.86127 0.34093 0.56844 0.0
O292 O 0.68154 0.19642 0.55254 0.0
O293 O 0.83516 0.31425 0.54223 0.0
C294 C 0.97841 0.43078 0.90751 0.0
O295 O 0.94918 0.37678 0.90496 0.0
Cd296 Cd 0.91892 0.33345 0.85049 0.0
O297 O 0.98476 0.46836 0.88165 0.0
Cd298 Cd 0.95147 0.47979 0.82077 0.0
C299 C 0.0663 0.37144 0.80805 0.0
O300 O 0.85352 0.41327 0.82418 0.0
O301 O 0.89181 0.43005 0.7733 0.0
O302 O 0.91077 0.57866 0.84617 0.0
C303 C 0.84763 0.40544 0.79192 0.0
O304 O 0.02476 0.33565 0.82321 0.0
C305 C 0.91103 0.61125 0.81845 0.0
O306 O 0.05554 0.43154 0.80256 0.0
O307 O 0.93772 0.58514 0.79223 0.0
C308 C 0.82115 0.72847 0.15749 0.0
O309 O 0.87515 0.69923 0.15495 0.0
Cd310 Cd 0.91847 0.66891 0.10048 0.0
O311 O 0.78356 0.7348 0.13164 0.0
Cd312 Cd 0.77211 0.70148 0.07077 0.0
C313 C 0.88049 0.81628 0.05801 0.0
O314 O 0.83863 0.60354 0.07419 0.0
O315 O 0.82186 0.64177 0.02331 0.0
O316 O 0.67325 0.66079 0.09617 0.0
C317 C 0.84645 0.59758 0.04193 0.0
O318 O 0.91627 0.77473 0.07318 0.0
C319 C 0.64066 0.66103 0.06844 0.0
O320 O 0.82039 0.80554 0.05254 0.0
O321 O 0.66677 0.68772 0.04223 0.0
C322 C 0.52352 0.57119 0.40751 0.0
O323 O 0.55275 0.62519 0.40497 0.0
Cd324 Cd 0.58301 0.66851 0.35049 0.0
O325 O 0.51717 0.5336 0.38165 0.0
Cd326 Cd 0.55046 0.52218 0.32077 0.0
C327 C 0.43563 0.63053 0.30805 0.0
O328 O 0.64841 0.5887 0.32418 0.0
O329 O 0.61012 0.57192 0.27331 0.0
O330 O 0.59116 0.42331 0.34617 0.0
C331 C 0.6543 0.59652 0.29192 0.0
O332 O 0.47718 0.66631 0.32321 0.0
C333 C 0.5909 0.39072 0.31844 0.0
O334 O 0.44639 0.57043 0.30256 0.0
O335 O 0.56421 0.41683 0.29223 0.0
C336 C 0.14484 0.34496 0.06838 0.0
O337 O 0.16707 0.31561 0.04204 0.0
Cd338 Cd 0.25788 0.24095 0.04227 0.0
O339 O 0.16882 0.33543 0.09815 0.0
Cd340 Cd 0.25378 0.26922 0.12452 0.0
C341 C 0.37168 0.34254 0.07973 0.0
O342 O 0.25658 0.16919 0.09009 0.0
O343 O 0.3335 0.18571 0.12742 0.0
O344 O 0.1721 0.23286 0.16413 0.0
C345 C 0.30895 0.14993 0.10428 0.0
O346 O 0.35091 0.30674 0.05534 0.0
C347 C 0.20341 0.24873 0.19103 0.0
O348 O 0.34236 0.34581 0.10876 0.0
O349 O 0.2573 0.27801 0.1871 0.0
C350 C 0.40701 0.39488 0.81838 0.0
O351 O 0.43635 0.4171 0.79204 0.0
Cd352 Cd 0.51101 0.50792 0.79227 0.0
O353 O 0.41653 0.41885 0.84814 0.0
Cd354 Cd 0.48274 0.50382 0.87452 0.0
C355 C 0.40942 0.62172 0.82974 0.0
O356 O 0.58277 0.50662 0.84009 0.0
O357 O 0.56625 0.58354 0.87742 0.0
O358 O 0.51909 0.42213 0.91413 0.0
C359 C 0.60203 0.55898 0.85428 0.0
O360 O 0.44523 0.60095 0.80534 0.0
C361 C 0.50322 0.45344 0.94103 0.0
O362 O 0.40616 0.5924 0.85876 0.0
O363 O 0.47395 0.50733 0.93709 0.0
C364 C 0.35709 0.65701 0.56838 0.0
O365 O 0.33487 0.68635 0.54204 0.0
Cd366 Cd 0.24405 0.76101 0.54227 0.0
O367 O 0.33311 0.66653 0.59815 0.0
Cd368 Cd 0.24815 0.73275 0.62452 0.0
C369 C 0.13026 0.65942 0.57973 0.0
O370 O 0.24535 0.83277 0.59009 0.0
O371 O 0.16843 0.81626 0.62742 0.0
O372 O 0.32983 0.7691 0.66413 0.0
C373 C 0.19298 0.85204 0.60428 0.0
O374 O 0.15103 0.69523 0.55534 0.0
C375 C 0.29852 0.75323 0.69103 0.0
O376 O 0.15957 0.65616 0.60876 0.0
O377 O 0.24464 0.72396 0.6871 0.0
C378 C 0.09492 0.60709 0.31838 0.0
O379 O 0.06558 0.58486 0.29204 0.0
Cd380 Cd 0.99093 0.49404 0.29227 0.0
O381 O 0.0854 0.58312 0.34814 0.0
Cd382 Cd 0.01919 0.49815 0.37452 0.0
C383 C 0.09251 0.38025 0.32974 0.0
O384 O 0.91917 0.49535 0.34009 0.0
O385 O 0.93568 0.41843 0.37742 0.0
O386 O 0.98284 0.57984 0.41413 0.0
C387 C 0.8999 0.44298 0.35428 0.0
O388 O 0.05671 0.40102 0.30534 0.0
C389 C 0.99872 0.54853 0.44103 0.0
O390 O 0.09578 0.40957 0.35876 0.0
O391 O 0.02799 0.49464 0.43709 0.0
C392 C 0.14485 0.65702 0.31413 0.0
O393 O 0.16707 0.68635 0.34047 0.0
Cd394 Cd 0.25789 0.76102 0.34024 0.0
O395 O 0.16882 0.66653 0.28437 0.0
Cd396 Cd 0.25379 0.73275 0.25799 0.0
C397 C 0.37168 0.65943 0.30278 0.0
O398 O 0.25659 0.83277 0.29242 0.0
O399 O 0.33351 0.81626 0.25509 0.0
O400 O 0.17211 0.7691 0.21838 0.0
C401 C 0.30895 0.85204 0.27823 0.0
O402 O 0.35091 0.69523 0.32718 0.0
C403 C 0.20342 0.75323 0.19148 0.0
O404 O 0.34237 0.65616 0.27375 0.0
O405 O 0.2573 0.72396 0.19542 0.0
C406 C 0.09492 0.39488 0.06413 0.0
O407 O 0.06558 0.4171 0.09047 0.0
Cd408 Cd 0.99092 0.50793 0.09024 0.0
O409 O 0.0854 0.41885 0.03437 0.0
Cd410 Cd 0.01919 0.50382 0.00799 0.0
C411 C 0.09251 0.62172 0.05277 0.0
O412 O 0.91917 0.50662 0.04242 0.0
O413 O 0.93568 0.58354 0.00509 0.0
O414 O 0.98285 0.42213 -0.03162 0.0
C415 C 0.8999 0.55898 0.02823 0.0
O416 O 0.05671 0.60095 0.07717 0.0
C417 C 0.99872 0.45344 -0.05852 0.0
O418 O 0.09577 0.5924 0.02375 0.0
O419 O 0.02799 0.50733 -0.05458 0.0
C420 C 0.35709 0.34495 0.81413 0.0
O421 O 0.33486 0.31561 0.84047 0.0
Cd422 Cd 0.24405 0.24095 0.84024 0.0
O423 O 0.33311 0.33543 0.78437 0.0
Cd424 Cd 0.24814 0.26922 0.75799 0.0
C425 C 0.13025 0.34254 0.80278 0.0
O426 O 0.24535 0.16919 0.79242 0.0
O427 O 0.16843 0.18571 0.75509 0.0
O428 O 0.32983 0.23287 0.71838 0.0
C429 C 0.19298 0.14993 0.77823 0.0
O430 O 0.15102 0.30674 0.82718 0.0
C431 C 0.29852 0.24874 0.69148 0.0
O432 O 0.15957 0.34581 0.77375 0.0
O433 O 0.24463 0.27801 0.69542 0.0
C434 C 0.40701 0.60709 0.56413 0.0
O435 O 0.43635 0.58486 0.59047 0.0
Cd436 Cd 0.51101 0.49404 0.59024 0.0
O437 O 0.41653 0.58311 0.53437 0.0
Cd438 Cd 0.48274 0.49814 0.50799 0.0
C439 C 0.40942 0.38025 0.55277 0.0
O440 O 0.58277 0.49535 0.54242 0.0
O441 O 0.56626 0.41843 0.50509 0.0
O442 O 0.51909 0.57983 0.46838 0.0
C443 C 0.60203 0.44298 0.52823 0.0
O444 O 0.44523 0.40101 0.57717 0.0
C445 C 0.50321 0.54853 0.44148 0.0
O446 O 0.40616 0.40956 0.52375 0.0
O447 O 0.47395 0.49464 0.44542 0.0
loop_
_geom_bond_atom_site_label_1
_geom_bond_atom_site_label_2
_geom_bond_distance
_geom_bond_site_symmetry_2
_ccdc_geom_bond_type
C0 O1 1.306 . S
C0 O3 1.160 . S
O1 C0 1.306 . S
O1 Cd2 2.228 . S
Cd2 O1 2.228 . S
Cd2 O6 2.273 . S
Cd2 O10 2.277 . S
O3 C0 1.160 . S
O3 Cd4 2.203 . S
Cd4 O3 2.203 . S
Cd4 O6 2.411 . S
Cd4 O7 2.333 . S
Cd4 O8 2.352 . S
Cd4 O12 2.277 . S
Cd4 O13 2.356 . S
C5 O10 1.209 . S
C5 O12 1.226 . S
O6 Cd2 2.273 . S
O6 Cd4 2.411 . S
O6 C9 1.320 . S
O7 Cd4 2.333 . S
O7 C9 1.214 . S
O8 Cd4 2.352 . S
O8 C11 1.258 . S
C9 O6 1.320 . S
C9 O7 1.214 . S
O10 Cd2 2.277 . S
O10 C5 1.209 . S
C11 O8 1.258 . S
C11 O13 1.282 . S
O12 Cd4 2.277 . S
O12 C5 1.226 . S
O13 Cd4 2.356 . S
O13 C11 1.282 . S
C14 O15 1.306 . S
C14 O17 1.160 1_565 S
O15 C14 1.306 . S
O15 Cd16 2.228 . S
Cd16 O15 2.228 . S
Cd16 O20 2.273 . S
Cd16 O24 2.277 1_455 S
O17 C14 1.160 1_545 S
O17 Cd18 2.203 1_545 S
Cd18 O17 2.203 1_565 S
Cd18 O20 2.411 . S
Cd18 O21 2.333 . S
Cd18 O22 2.352 1_565 S
Cd18 O26 2.277 1_455 S
Cd18 O27 2.356 1_565 S
C19 O24 1.209 . S
C19 O26 1.226 . S
O20 Cd16 2.273 . S
O20 Cd18 2.411 . S
O20 C23 1.320 . S
O21 Cd18 2.333 . S
O21 C23 1.214 . S
O22 Cd18 2.352 1_545 S
O22 C25 1.258 . S
C23 O20 1.320 . S
C23 O21 1.214 . S
O24 Cd16 2.277 1_655 S
O24 C19 1.209 . S
C25 O22 1.258 . S
C25 O27 1.282 . S
O26 Cd18 2.277 1_655 S
O26 C19 1.226 . S
O27 Cd18 2.356 1_545 S
O27 C25 1.282 . S
C28 O29 1.306 . S
C28 O31 1.160 . S
O29 C28 1.306 . S
O29 Cd30 2.228 . S
Cd30 O29 2.228 . S
Cd30 O34 2.273 . S
Cd30 O38 2.277 . S
O31 C28 1.160 . S
O31 Cd32 2.203 . S
Cd32 O31 2.203 . S
Cd32 O34 2.411 . S
Cd32 O35 2.333 . S
Cd32 O36 2.352 . S
Cd32 O40 2.277 . S
Cd32 O41 2.356 . S
C33 O38 1.209 . S
C33 O40 1.226 . S
O34 Cd30 2.273 . S
O34 Cd32 2.411 . S
O34 C37 1.320 . S
O35 Cd32 2.333 . S
O35 C37 1.214 . S
O36 Cd32 2.352 . S
O36 C39 1.258 . S
C37 O34 1.320 . S
C37 O35 1.214 . S
O38 Cd30 2.277 . S
O38 C33 1.209 . S
C39 O36 1.258 . S
C39 O41 1.282 . S
O40 Cd32 2.277 . S
O40 C33 1.226 . S
O41 Cd32 2.356 . S
O41 C39 1.282 . S
C42 O43 1.306 . S
C42 O45 1.160 1_545 S
O43 C42 1.306 . S
O43 Cd44 2.228 . S
Cd44 O43 2.228 . S
Cd44 O48 2.273 . S
Cd44 O52 2.277 . S
O45 C42 1.160 1_565 S
O45 Cd46 2.203 1_565 S
Cd46 O45 2.203 1_545 S
Cd46 O48 2.411 . S
Cd46 O49 2.333 . S
Cd46 O50 2.352 1_545 S
Cd46 O54 2.277 . S
Cd46 O55 2.356 1_545 S
C47 O52 1.209 . S
C47 O54 1.226 . S
O48 Cd44 2.273 . S
O48 Cd46 2.411 . S
O48 C51 1.320 . S
O49 Cd46 2.333 . S
O49 C51 1.214 . S
O50 Cd46 2.352 1_565 S
O50 C53 1.258 . S
C51 O48 1.320 . S
C51 O49 1.214 . S
O52 Cd44 2.277 . S
O52 C47 1.209 . S
C53 O50 1.258 . S
C53 O55 1.282 . S
O54 Cd46 2.277 . S
O54 C47 1.226 . S
O55 Cd46 2.356 1_565 S
O55 C53 1.282 . S
C56 O57 1.306 . S
C56 O59 1.160 . S
O57 C56 1.306 . S
O57 Cd58 2.228 . S
Cd58 O57 2.228 . S
Cd58 O62 2.273 . S
Cd58 O66 2.277 . S
O59 C56 1.160 . S
O59 Cd60 2.203 . S
Cd60 O59 2.203 . S
Cd60 O62 2.411 . S
Cd60 O63 2.333 . S
Cd60 O64 2.352 . S
Cd60 O68 2.277 . S
Cd60 O69 2.356 . S
C61 O66 1.209 . S
C61 O68 1.226 . S
O62 Cd58 2.273 . S
O62 Cd60 2.411 . S
O62 C65 1.320 . S
O63 Cd60 2.333 . S
O63 C65 1.214 . S
O64 Cd60 2.352 . S
O64 C67 1.258 . S
C65 O62 1.320 . S
C65 O63 1.214 . S
O66 Cd58 2.277 . S
O66 C61 1.209 . S
C67 O64 1.258 . S
C67 O69 1.282 . S
O68 Cd60 2.277 . S
O68 C61 1.226 . S
O69 Cd60 2.356 . S
O69 C67 1.282 . S
C70 O71 1.306 . S
C70 O73 1.160 1_565 S
O71 C70 1.306 . S
O71 Cd72 2.228 . S
Cd72 O71 2.228 . S
Cd72 O76 2.273 . S
Cd72 O80 2.277 . S
O73 C70 1.160 1_545 S
O73 Cd74 2.203 1_545 S
Cd74 O73 2.203 1_565 S
Cd74 O76 2.411 . S
Cd74 O77 2.333 . S
Cd74 O78 2.352 1_565 S
Cd74 O82 2.277 . S
Cd74 O83 2.356 1_565 S
C75 O80 1.209 . S
C75 O82 1.226 . S
O76 Cd72 2.273 . S
O76 Cd74 2.411 . S
O76 C79 1.320 . S
O77 Cd74 2.333 . S
O77 C79 1.214 . S
O78 Cd74 2.352 1_545 S
O78 C81 1.258 . S
C79 O76 1.320 . S
C79 O77 1.214 . S
O80 Cd72 2.277 . S
O80 C75 1.209 . S
C81 O78 1.258 . S
C81 O83 1.282 . S
O82 Cd74 2.277 . S
O82 C75 1.226 . S
O83 Cd74 2.356 1_545 S
O83 C81 1.282 . S
C84 O85 1.306 . S
C84 O87 1.160 . S
O85 C84 1.306 . S
O85 Cd86 2.228 . S
Cd86 O85 2.228 . S
Cd86 O90 2.273 . S
Cd86 O94 2.277 . S
O87 C84 1.160 . S
O87 Cd88 2.203 . S
Cd88 O87 2.203 . S
Cd88 O90 2.411 . S
Cd88 O91 2.333 . S
Cd88 O92 2.352 . S
Cd88 O96 2.277 . S
Cd88 O97 2.356 . S
C89 O94 1.209 . S
C89 O96 1.226 . S
O90 Cd86 2.273 . S
O90 Cd88 2.411 . S
O90 C93 1.320 . S
O91 Cd88 2.333 . S
O91 C93 1.214 . S
O92 Cd88 2.352 . S
O92 C95 1.258 . S
C93 O90 1.320 . S
C93 O91 1.214 . S
O94 Cd86 2.277 . S
O94 C89 1.209 . S
C95 O92 1.258 . S
C95 O97 1.282 . S
O96 Cd88 2.277 . S
O96 C89 1.226 . S
O97 Cd88 2.356 . S
O97 C95 1.282 . S
C98 O99 1.306 . S
C98 O101 1.160 1_545 S
O99 C98 1.306 . S
O99 Cd100 2.228 . S
Cd100 O99 2.228 . S
Cd100 O104 2.273 . S
Cd100 O108 2.277 1_455 S
O101 C98 1.160 1_565 S
O101 Cd102 2.203 1_565 S
Cd102 O101 2.203 1_545 S
Cd102 O104 2.411 . S
Cd102 O105 2.333 . S
Cd102 O106 2.352 1_545 S
Cd102 O110 2.277 1_455 S
Cd102 O111 2.356 1_545 S
C103 O108 1.209 . S
C103 O110 1.226 . S
O104 Cd100 2.273 . S
O104 Cd102 2.411 . S
O104 C107 1.320 . S
O105 Cd102 2.333 . S
O105 C107 1.214 . S
O106 Cd102 2.352 1_565 S
O106 C109 1.258 . S
C107 O104 1.320 . S
C107 O105 1.214 . S
O108 Cd100 2.277 1_655 S
O108 C103 1.209 . S
C109 O106 1.258 . S
C109 O111 1.282 . S
O110 Cd102 2.277 1_655 S
O110 C103 1.226 . S
O111 Cd102 2.356 1_565 S
O111 C109 1.282 . S
C112 O113 1.306 . S
C112 O115 1.160 . S
O113 C112 1.306 . S
O113 Cd114 2.228 . S
Cd114 O113 2.228 . S
Cd114 O118 2.273 . S
Cd114 O122 2.277 . S
O115 C112 1.160 . S
O115 Cd116 2.203 . S
Cd116 O115 2.203 . S
Cd116 O118 2.411 . S
Cd116 O119 2.333 . S
Cd116 O120 2.352 . S
Cd116 O124 2.277 . S
Cd116 O125 2.356 . S
C117 O122 1.209 . S
C117 O124 1.226 . S
O118 Cd114 2.273 . S
O118 Cd116 2.411 . S
O118 C121 1.320 . S
O119 Cd116 2.333 . S
O119 C121 1.214 . S
O120 Cd116 2.352 . S
O120 C123 1.258 . S
C121 O118 1.320 . S
C121 O119 1.214 . S
O122 Cd114 2.277 . S
O122 C117 1.209 . S
C123 O120 1.258 . S
C123 O125 1.282 . S
O124 Cd116 2.277 . S
O124 C117 1.226 . S
O125 Cd116 2.356 . S
O125 C123 1.282 . S
C126 O127 1.306 . S
C126 O129 1.160 . S
O127 C126 1.306 . S
O127 Cd128 2.228 1_565 S
Cd128 O127 2.228 1_545 S
Cd128 O132 2.273 1_655 S
Cd128 O136 2.277 . S
O129 C126 1.160 . S
O129 Cd130 2.203 1_565 S
Cd130 O129 2.203 1_545 S
Cd130 O132 2.411 1_655 S
Cd130 O133 2.333 1_655 S
Cd130 O134 2.352 1_545 S
Cd130 O138 2.277 . S
Cd130 O139 2.356 . S
C131 O136 1.209 . S
C131 O138 1.226 . S
O132 Cd128 2.273 1_455 S
O132 Cd130 2.411 1_455 S
O132 C135 1.320 . S
O133 Cd130 2.333 1_455 S
O133 C135 1.214 . S
O134 Cd130 2.352 1_565 S
O134 C137 1.258 . S
C135 O132 1.320 . S
C135 O133 1.214 . S
O136 Cd128 2.277 . S
O136 C131 1.209 . S
C137 O134 1.258 . S
C137 O139 1.282 1_565 S
O138 Cd130 2.277 . S
O138 C131 1.226 . S
O139 Cd130 2.356 . S
O139 C137 1.282 1_545 S
C140 O141 1.306 . S
C140 O143 1.160 . S
O141 C140 1.306 . S
O141 Cd142 2.228 . S
Cd142 O141 2.228 . S
Cd142 O146 2.273 . S
Cd142 O150 2.277 . S
O143 C140 1.160 . S
O143 Cd144 2.203 . S
Cd144 O143 2.203 . S
Cd144 O146 2.411 . S
Cd144 O147 2.333 . S
Cd144 O148 2.352 . S
Cd144 O152 2.277 . S
Cd144 O153 2.356 . S
C145 O150 1.209 . S
C145 O152 1.226 . S
O146 Cd142 2.273 . S
O146 Cd144 2.411 . S
O146 C149 1.320 . S
O147 Cd144 2.333 . S
O147 C149 1.214 . S
O148 Cd144 2.352 . S
O148 C151 1.258 . S
C149 O146 1.320 . S
C149 O147 1.214 . S
O150 Cd142 2.277 . S
O150 C145 1.209 . S
C151 O148 1.258 . S
C151 O153 1.282 . S
O152 Cd144 2.277 . S
O152 C145 1.226 . S
O153 Cd144 2.356 . S
O153 C151 1.282 . S
C154 O155 1.306 . S
C154 O157 1.160 . S
O155 C154 1.306 . S
O155 Cd156 2.228 1_545 S
Cd156 O155 2.228 1_565 S
Cd156 O160 2.273 . S
Cd156 O164 2.277 . S
O157 C154 1.160 . S
O157 Cd158 2.203 1_545 S
Cd158 O157 2.203 1_565 S
Cd158 O160 2.411 . S
Cd158 O161 2.333 . S
Cd158 O162 2.352 1_565 S
Cd158 O166 2.277 . S
Cd158 O167 2.356 . S
C159 O164 1.209 . S
C159 O166 1.226 . S
O160 Cd156 2.273 . S
O160 Cd158 2.411 . S
O160 C163 1.320 . S
O161 Cd158 2.333 . S
O161 C163 1.214 . S
O162 Cd158 2.352 1_545 S
O162 C165 1.258 . S
C163 O160 1.320 . S
C163 O161 1.214 . S
O164 Cd156 2.277 . S
O164 C159 1.209 . S
C165 O162 1.258 . S
C165 O167 1.282 1_545 S
O166 Cd158 2.277 . S
O166 C159 1.226 . S
O167 Cd158 2.356 . S
O167 C165 1.282 1_565 S
C168 O169 1.306 . S
C168 O171 1.160 . S
O169 C168 1.306 . S
O169 Cd170 2.228 . S
Cd170 O169 2.228 . S
Cd170 O174 2.273 . S
Cd170 O178 2.277 . S
O171 C168 1.160 . S
O171 Cd172 2.203 . S
Cd172 O171 2.203 . S
Cd172 O174 2.411 . S
Cd172 O175 2.333 . S
Cd172 O176 2.352 . S
Cd172 O180 2.277 . S
Cd172 O181 2.356 . S
C173 O178 1.209 . S
C173 O180 1.226 . S
O174 Cd170 2.273 . S
O174 Cd172 2.411 . S
O174 C177 1.320 . S
O175 Cd172 2.333 . S
O175 C177 1.214 . S
O176 Cd172 2.352 . S
O176 C179 1.258 . S
C177 O174 1.320 . S
C177 O175 1.214 . S
O178 Cd170 2.277 . S
O178 C173 1.209 . S
C179 O176 1.258 . S
C179 O181 1.282 . S
O180 Cd172 2.277 . S
O180 C173 1.226 . S
O181 Cd172 2.356 . S
O181 C179 1.282 . S
C182 O183 1.306 . S
C182 O185 1.160 . S
O183 C182 1.306 . S
O183 Cd184 2.228 1_565 S
Cd184 O183 2.228 1_545 S
Cd184 O188 2.273 . S
Cd184 O192 2.277 . S
O185 C182 1.160 . S
O185 Cd186 2.203 1_565 S
Cd186 O185 2.203 1_545 S
Cd186 O188 2.411 . S
Cd186 O189 2.333 . S
Cd186 O190 2.352 1_545 S
Cd186 O194 2.277 . S
Cd186 O195 2.356 . S
C187 O192 1.209 . S
C187 O194 1.226 . S
O188 Cd184 2.273 . S
O188 Cd186 2.411 . S
O188 C191 1.320 . S
O189 Cd186 2.333 . S
O189 C191 1.214 . S
O190 Cd186 2.352 1_565 S
O190 C193 1.258 . S
C191 O188 1.320 . S
C191 O189 1.214 . S
O192 Cd184 2.277 . S
O192 C187 1.209 . S
C193 O190 1.258 . S
C193 O195 1.282 1_565 S
O194 Cd186 2.277 . S
O194 C187 1.226 . S
O195 Cd186 2.356 . S
O195 C193 1.282 1_545 S
C196 O197 1.306 . S
C196 O199 1.160 . S
O197 C196 1.306 . S
O197 Cd198 2.228 . S
Cd198 O197 2.228 . S
Cd198 O202 2.273 . S
Cd198 O206 2.277 . S
O199 C196 1.160 . S
O199 Cd200 2.203 . S
Cd200 O199 2.203 . S
Cd200 O202 2.411 . S
Cd200 O203 2.333 . S
Cd200 O204 2.352 . S
Cd200 O208 2.277 . S
Cd200 O209 2.356 . S
C201 O206 1.209 . S
C201 O208 1.226 . S
O202 Cd198 2.273 . S
O202 Cd200 2.411 . S
O202 C205 1.320 . S
O203 Cd200 2.333 . S
O203 C205 1.214 . S
O204 Cd200 2.352 . S
O204 C207 1.258 . S
C205 O202 1.320 . S
C205 O203 1.214 . S
O206 Cd198 2.277 . S
O206 C201 1.209 . S
C207 O204 1.258 . S
C207 O209 1.282 . S
O208 Cd200 2.277 . S
O208 C201 1.226 . S
O209 Cd200 2.356 . S
O209 C207 1.282 . S
C210 O211 1.306 . S
C210 O213 1.160 . S
O211 C210 1.306 . S
O211 Cd212 2.228 1_545 S
Cd212 O211 2.228 1_565 S
Cd212 O216 2.273 1_655 S
Cd212 O220 2.277 . S
O213 C210 1.160 . S
O213 Cd214 2.203 1_545 S
Cd214 O213 2.203 1_565 S
Cd214 O216 2.411 1_655 S
Cd214 O217 2.333 1_655 S
Cd214 O218 2.352 1_565 S
Cd214 O222 2.277 . S
Cd214 O223 2.356 . S
C215 O220 1.209 . S
C215 O222 1.226 . S
O216 Cd212 2.273 1_455 S
O216 Cd214 2.411 1_455 S
O216 C219 1.320 . S
O217 Cd214 2.333 1_455 S
O217 C219 1.214 . S
O218 Cd214 2.352 1_545 S
O218 C221 1.258 . S
C219 O216 1.320 . S
C219 O217 1.214 . S
O220 Cd212 2.277 . S
O220 C215 1.209 . S
C221 O218 1.258 . S
C221 O223 1.282 1_545 S
O222 Cd214 2.277 . S
O222 C215 1.226 . S
O223 Cd214 2.356 . S
O223 C221 1.282 1_565 S
C224 O225 1.306 . S
C224 O227 1.160 . S
O225 C224 1.306 . S
O225 Cd226 2.228 . S
Cd226 O225 2.228 . S
Cd226 O230 2.273 . S
Cd226 O234 2.277 . S
O227 C224 1.160 . S
O227 Cd228 2.203 . S
Cd228 O227 2.203 . S
Cd228 O230 2.411 . S
Cd228 O231 2.333 . S
Cd228 O232 2.352 . S
Cd228 O236 2.277 . S
Cd228 O237 2.356 . S
C229 O234 1.209 . S
C229 O236 1.226 . S
O230 Cd226 2.273 . S
O230 Cd228 2.411 . S
O230 C233 1.320 . S
O231 Cd228 2.333 . S
O231 C233 1.214 . S
O232 Cd228 2.352 . S
O232 C235 1.258 . S
C233 O230 1.320 . S
C233 O231 1.214 . S
O234 Cd226 2.277 . S
O234 C229 1.209 . S
C235 O232 1.258 . S
C235 O237 1.282 . S
O236 Cd228 2.277 . S
O236 C229 1.226 . S
O237 Cd228 2.356 . S
O237 C235 1.282 . S
C238 O239 1.306 . S
C238 O241 1.160 . S
O239 C238 1.306 . S
O239 Cd240 2.228 . S
Cd240 O239 2.228 . S
Cd240 O244 2.273 . S
Cd240 O248 2.277 . S
O241 C238 1.160 . S
O241 Cd242 2.203 . S
Cd242 O241 2.203 . S
Cd242 O244 2.411 . S
Cd242 O245 2.333 . S
Cd242 O246 2.352 . S
Cd242 O250 2.277 . S
Cd242 O251 2.356 . S
C243 O248 1.209 . S
C243 O250 1.226 . S
O244 Cd240 2.273 . S
O244 Cd242 2.411 . S
O244 C247 1.320 . S
O245 Cd242 2.333 . S
O245 C247 1.214 . S
O246 Cd242 2.352 . S
O246 C249 1.258 . S
C247 O244 1.320 . S
C247 O245 1.214 . S
O248 Cd240 2.277 . S
O248 C243 1.209 . S
C249 O246 1.258 . S
C249 O251 1.282 . S
O250 Cd242 2.277 . S
O250 C243 1.226 . S
O251 Cd242 2.356 . S
O251 C249 1.282 . S
C252 O253 1.306 . S
C252 O255 1.160 . S
O253 C252 1.306 . S
O253 Cd254 2.228 . S
Cd254 O253 2.228 . S
Cd254 O258 2.273 . S
Cd254 O262 2.277 . S
O255 C252 1.160 . S
O255 Cd256 2.203 . S
Cd256 O255 2.203 . S
Cd256 O258 2.411 . S
Cd256 O259 2.333 . S
Cd256 O260 2.352 . S
Cd256 O264 2.277 . S
Cd256 O265 2.356 . S
C257 O262 1.209 . S
C257 O264 1.226 . S
O258 Cd254 2.273 . S
O258 Cd256 2.411 . S
O258 C261 1.320 . S
O259 Cd256 2.333 . S
O259 C261 1.214 . S
O260 Cd256 2.352 . S
O260 C263 1.258 . S
C261 O258 1.320 . S
C261 O259 1.214 . S
O262 Cd254 2.277 . S
O262 C257 1.209 . S
C263 O260 1.258 . S
C263 O265 1.282 . S
O264 Cd256 2.277 . S
O264 C257 1.226 . S
O265 Cd256 2.356 . S
O265 C263 1.282 . S
C266 O267 1.306 . S
C266 O269 1.160 . S
O267 C266 1.306 . S
O267 Cd268 2.228 . S
Cd268 O267 2.228 . S
Cd268 O272 2.273 . S
Cd268 O276 2.277 1_655 S
O269 C266 1.160 . S
O269 Cd270 2.203 . S
Cd270 O269 2.203 . S
Cd270 O272 2.411 . S
Cd270 O273 2.333 . S
Cd270 O274 2.352 . S
Cd270 O278 2.277 1_655 S
Cd270 O279 2.356 . S
C271 O276 1.209 . S
C271 O278 1.226 . S
O272 Cd268 2.273 . S
O272 Cd270 2.411 . S
O272 C275 1.320 . S
O273 Cd270 2.333 . S
O273 C275 1.214 . S
O274 Cd270 2.352 . S
O274 C277 1.258 . S
C275 O272 1.320 . S
C275 O273 1.214 . S
O276 Cd268 2.277 1_455 S
O276 C271 1.209 . S
C277 O274 1.258 . S
C277 O279 1.282 . S
O278 Cd270 2.277 1_455 S
O278 C271 1.226 . S
O279 Cd270 2.356 . S
O279 C277 1.282 . S
C280 O281 1.306 . S
C280 O283 1.160 . S
O281 C280 1.306 . S
O281 Cd282 2.228 . S
Cd282 O281 2.228 . S
Cd282 O286 2.273 . S
Cd282 O290 2.277 . S
O283 C280 1.160 . S
O283 Cd284 2.203 . S
Cd284 O283 2.203 . S
Cd284 O286 2.411 . S
Cd284 O287 2.333 . S
Cd284 O288 2.352 . S
Cd284 O292 2.277 . S
Cd284 O293 2.356 . S
C285 O290 1.209 . S
C285 O292 1.226 . S
O286 Cd282 2.273 . S
O286 Cd284 2.411 . S
O286 C289 1.320 . S
O287 Cd284 2.333 . S
O287 C289 1.214 . S
O288 Cd284 2.352 . S
O288 C291 1.258 . S
C289 O286 1.320 . S
C289 O287 1.214 . S
O290 Cd282 2.277 . S
O290 C285 1.209 . S
C291 O288 1.258 . S
C291 O293 1.282 . S
O292 Cd284 2.277 . S
O292 C285 1.226 . S
O293 Cd284 2.356 . S
O293 C291 1.282 . S
C294 O295 1.306 . S
C294 O297 1.160 . S
O295 C294 1.306 . S
O295 Cd296 2.228 . S
Cd296 O295 2.228 . S
Cd296 O300 2.273 . S
Cd296 O304 2.277 1_655 S
O297 C294 1.160 . S
O297 Cd298 2.203 . S
Cd298 O297 2.203 . S
Cd298 O300 2.411 . S
Cd298 O301 2.333 . S
Cd298 O302 2.352 . S
Cd298 O306 2.277 1_655 S
Cd298 O307 2.356 . S
C299 O304 1.209 . S
C299 O306 1.226 . S
O300 Cd296 2.273 . S
O300 Cd298 2.411 . S
O300 C303 1.320 . S
O301 Cd298 2.333 . S
O301 C303 1.214 . S
O302 Cd298 2.352 . S
O302 C305 1.258 . S
C303 O300 1.320 . S
C303 O301 1.214 . S
O304 Cd296 2.277 1_455 S
O304 C299 1.209 . S
C305 O302 1.258 . S
C305 O307 1.282 . S
O306 Cd298 2.277 1_455 S
O306 C299 1.226 . S
O307 Cd298 2.356 . S
O307 C305 1.282 . S
C308 O309 1.306 . S
C308 O311 1.160 . S
O309 C308 1.306 . S
O309 Cd310 2.228 . S
Cd310 O309 2.228 . S
Cd310 O314 2.273 . S
Cd310 O318 2.277 . S
O311 C308 1.160 . S
O311 Cd312 2.203 . S
Cd312 O311 2.203 . S
Cd312 O314 2.411 . S
Cd312 O315 2.333 . S
Cd312 O316 2.352 . S
Cd312 O320 2.277 . S
Cd312 O321 2.356 . S
C313 O318 1.209 . S
C313 O320 1.226 . S
O314 Cd310 2.273 . S
O314 Cd312 2.411 . S
O314 C317 1.320 . S
O315 Cd312 2.333 . S
O315 C317 1.214 . S
O316 Cd312 2.352 . S
O316 C319 1.258 . S
C317 O314 1.320 . S
C317 O315 1.214 . S
O318 Cd310 2.277 . S
O318 C313 1.209 . S
C319 O316 1.258 . S
C319 O321 1.282 . S
O320 Cd312 2.277 . S
O320 C313 1.226 . S
O321 Cd312 2.356 . S
O321 C319 1.282 . S
C322 O323 1.306 . S
C322 O325 1.160 . S
O323 C322 1.306 . S
O323 Cd324 2.228 . S
Cd324 O323 2.228 . S
Cd324 O328 2.273 . S
Cd324 O332 2.277 . S
O325 C322 1.160 . S
O325 Cd326 2.203 . S
Cd326 O325 2.203 . S
Cd326 O328 2.411 . S
Cd326 O329 2.333 . S
Cd326 O330 2.352 . S
Cd326 O334 2.277 . S
Cd326 O335 2.356 . S
C327 O332 1.209 . S
C327 O334 1.226 . S
O328 Cd324 2.273 . S
O328 Cd326 2.411 . S
O328 C331 1.320 . S
O329 Cd326 2.333 . S
O329 C331 1.214 . S
O330 Cd326 2.352 . S
O330 C333 1.258 . S
C331 O328 1.320 . S
C331 O329 1.214 . S
O332 Cd324 2.277 . S
O332 C327 1.209 . S
C333 O330 1.258 . S
C333 O335 1.282 . S
O334 Cd326 2.277 . S
O334 C327 1.226 . S
O335 Cd326 2.356 . S
O335 C333 1.282 . S
C336 O337 1.306 . S
C336 O339 1.160 . S
O337 C336 1.306 . S
O337 Cd338 2.228 . S
Cd338 O337 2.228 . S
Cd338 O342 2.273 . S
Cd338 O346 2.277 . S
O339 C336 1.160 . S
O339 Cd340 2.203 . S
Cd340 O339 2.203 . S
Cd340 O342 2.411 . S
Cd340 O343 2.333 . S
Cd340 O344 2.352 . S
Cd340 O348 2.277 . S
Cd340 O349 2.356 . S
C341 O346 1.209 . S
C341 O348 1.226 . S
O342 Cd338 2.273 . S
O342 Cd340 2.411 . S
O342 C345 1.320 . S
O343 Cd340 2.333 . S
O343 C345 1.214 . S
O344 Cd340 2.352 . S
O344 C347 1.258 . S
C345 O342 1.320 . S
C345 O343 1.214 . S
O346 Cd338 2.277 . S
O346 C341 1.209 . S
C347 O344 1.258 . S
C347 O349 1.282 . S
O348 Cd340 2.277 . S
O348 C341 1.226 . S
O349 Cd340 2.356 . S
O349 C347 1.282 . S
C350 O351 1.306 . S
C350 O353 1.160 . S
O351 C350 1.306 . S
O351 Cd352 2.228 . S
Cd352 O351 2.228 . S
Cd352 O356 2.273 . S
Cd352 O360 2.277 . S
O353 C350 1.160 . S
O353 Cd354 2.203 . S
Cd354 O353 2.203 . S
Cd354 O356 2.411 . S
Cd354 O357 2.333 . S
Cd354 O358 2.352 . S
Cd354 O362 2.277 . S
Cd354 O363 2.356 . S
C355 O360 1.209 . S
C355 O362 1.226 . S
O356 Cd352 2.273 . S
O356 Cd354 2.411 . S
O356 C359 1.320 . S
O357 Cd354 2.333 . S
O357 C359 1.214 . S
O358 Cd354 2.352 . S
O358 C361 1.258 . S
C359 O356 1.320 . S
C359 O357 1.214 . S
O360 Cd352 2.277 . S
O360 C355 1.209 . S
C361 O358 1.258 . S
C361 O363 1.282 . S
O362 Cd354 2.277 . S
O362 C355 1.226 . S
O363 Cd354 2.356 . S
O363 C361 1.282 . S
C364 O365 1.306 . S
C364 O367 1.160 . S
O365 C364 1.306 . S
O365 Cd366 2.228 . S
Cd366 O365 2.228 . S
Cd366 O370 2.273 . S
Cd366 O374 2.277 . S
O367 C364 1.160 . S
O367 Cd368 2.203 . S
Cd368 O367 2.203 . S
Cd368 O370 2.411 . S
Cd368 O371 2.333 . S
Cd368 O372 2.352 . S
Cd368 O376 2.277 . S
Cd368 O377 2.356 . S
C369 O374 1.209 . S
C369 O376 1.226 . S
O370 Cd366 2.273 . S
O370 Cd368 2.411 . S
O370 C373 1.320 . S
O371 Cd368 2.333 . S
O371 C373 1.214 . S
O372 Cd368 2.352 . S
O372 C375 1.258 . S
C373 O370 1.320 . S
C373 O371 1.214 . S
O374 Cd366 2.277 . S
O374 C369 1.209 . S
C375 O372 1.258 . S
C375 O377 1.282 . S
O376 Cd368 2.277 . S
O376 C369 1.226 . S
O377 Cd368 2.356 . S
O377 C375 1.282 . S
C378 O379 1.306 . S
C378 O381 1.160 . S
O379 C378 1.306 . S
O379 Cd380 2.228 . S
Cd380 O379 2.228 . S
Cd380 O384 2.273 1_455 S
Cd380 O388 2.277 . S
O381 C378 1.160 . S
O381 Cd382 2.203 . S
Cd382 O381 2.203 . S
Cd382 O384 2.411 1_455 S
Cd382 O385 2.333 1_455 S
Cd382 O386 2.352 . S
Cd382 O390 2.277 . S
Cd382 O391 2.356 . S
C383 O388 1.209 . S
C383 O390 1.226 . S
O384 Cd380 2.273 1_655 S
O384 Cd382 2.411 1_655 S
O384 C387 1.320 . S
O385 Cd382 2.333 1_655 S
O385 C387 1.214 . S
O386 Cd382 2.352 . S
O386 C389 1.258 . S
C387 O384 1.320 . S
C387 O385 1.214 . S
O388 Cd380 2.277 . S
O388 C383 1.209 . S
C389 O386 1.258 . S
C389 O391 1.282 . S
O390 Cd382 2.277 . S
O390 C383 1.226 . S
O391 Cd382 2.356 . S
O391 C389 1.282 . S
C392 O393 1.306 . S
C392 O395 1.160 . S
O393 C392 1.306 . S
O393 Cd394 2.228 . S
Cd394 O393 2.228 . S
Cd394 O398 2.273 . S
Cd394 O402 2.277 . S
O395 C392 1.160 . S
O395 Cd396 2.203 . S
Cd396 O395 2.203 . S
Cd396 O398 2.411 . S
Cd396 O399 2.333 . S
Cd396 O400 2.352 . S
Cd396 O404 2.277 . S
Cd396 O405 2.356 . S
C397 O402 1.209 . S
C397 O404 1.226 . S
O398 Cd394 2.273 . S
O398 Cd396 2.411 . S
O398 C401 1.320 . S
O399 Cd396 2.333 . S
O399 C401 1.214 . S
O400 Cd396 2.352 . S
O400 C403 1.258 . S
C401 O398 1.320 . S
C401 O399 1.214 . S
O402 Cd394 2.277 . S
O402 C397 1.209 . S
C403 O400 1.258 . S
C403 O405 1.282 . S
O404 Cd396 2.277 . S
O404 C397 1.226 . S
O405 Cd396 2.356 . S
O405 C403 1.282 . S
C406 O407 1.306 . S
C406 O409 1.160 . S
O407 C406 1.306 . S
O407 Cd408 2.228 . S
Cd408 O407 2.228 . S
Cd408 O412 2.273 1_455 S
Cd408 O416 2.277 . S
O409 C406 1.160 . S
O409 Cd410 2.203 . S
Cd410 O409 2.203 . S
Cd410 O412 2.411 1_455 S
Cd410 O413 2.333 1_455 S
Cd410 O414 2.352 . S
Cd410 O418 2.277 . S
Cd410 O419 2.356 . S
C411 O416 1.209 . S
C411 O418 1.226 . S
O412 Cd408 2.273 1_655 S
O412 Cd410 2.411 1_655 S
O412 C415 1.320 . S
O413 Cd410 2.333 1_655 S
O413 C415 1.214 . S
O414 Cd410 2.352 . S
O414 C417 1.258 . S
C415 O412 1.320 . S
C415 O413 1.214 . S
O416 Cd408 2.277 . S
O416 C411 1.209 . S
C417 O414 1.258 . S
C417 O419 1.282 . S
O418 Cd410 2.277 . S
O418 C411 1.226 . S
O419 Cd410 2.356 . S
O419 C417 1.282 . S
C420 O421 1.306 . S
C420 O423 1.160 . S
O421 C420 1.306 . S
O421 Cd422 2.228 . S
Cd422 O421 2.228 . S
Cd422 O426 2.273 . S
Cd422 O430 2.277 . S
O423 C420 1.160 . S
O423 Cd424 2.203 . S
Cd424 O423 2.203 . S
Cd424 O426 2.411 . S
Cd424 O427 2.333 . S
Cd424 O428 2.352 . S
Cd424 O432 2.277 . S
Cd424 O433 2.356 . S
C425 O430 1.209 . S
C425 O432 1.226 . S
O426 Cd422 2.273 . S
O426 Cd424 2.411 . S
O426 C429 1.320 . S
O427 Cd424 2.333 . S
O427 C429 1.214 . S
O428 Cd424 2.352 . S
O428 C431 1.258 . S
C429 O426 1.320 . S
C429 O427 1.214 . S
O430 Cd422 2.277 . S
O430 C425 1.209 . S
C431 O428 1.258 . S
C431 O433 1.282 . S
O432 Cd424 2.277 . S
O432 C425 1.226 . S
O433 Cd424 2.356 . S
O433 C431 1.282 . S
C434 O435 1.306 . S
C434 O437 1.160 . S
O435 C434 1.306 . S
O435 Cd436 2.228 . S
Cd436 O435 2.228 . S
Cd436 O440 2.273 . S
Cd436 O444 2.277 . S
O437 C434 1.160 . S
O437 Cd438 2.203 . S
Cd438 O437 2.203 . S
Cd438 O440 2.411 . S
Cd438 O441 2.333 . S
Cd438 O442 2.352 . S
Cd438 O446 2.277 . S
Cd438 O447 2.356 . S
C439 O444 1.209 . S
C439 O446 1.226 . S
O440 Cd436 2.273 . S
O440 Cd438 2.411 . S
O440 C443 1.320 . S
O441 Cd438 2.333 . S
O441 C443 1.214 . S
O442 Cd438 2.352 . S
O442 C445 1.258 . S
C443 O440 1.320 . S
C443 O441 1.214 . S
O444 Cd436 2.277 . S
O444 C439 1.209 . S
C445 O442 1.258 . S
C445 O447 1.282 . S
O446 Cd438 2.277 . S
O446 C439 1.226 . S
O447 Cd438 2.356 . S
O447 C445 1.282 . S
C383 C5 1.312 . S
C19 C117 1.312 . S
C355 C33 1.312 . S
C47 C145 1.312 . S
C61 C411 1.312 . S
C75 C201 1.312 . S
C89 C439 1.312 . S
C103 C173 1.312 . S
C275 C121 1.422 . S
C9 C135 1.422 . S
C247 C149 1.422 . S
C163 C37 1.422 . S
C303 C177 1.422 . S
C93 C191 1.422 . S
C205 C331 1.422 . S
C65 C219 1.422 . S
C229 C159 1.312 . S
C243 C341 1.312 . S
C131 C257 1.312 . S
C369 C271 1.312 . S
C187 C285 1.312 . S
C425 C299 1.312 . S
C215 C313 1.312 . S
C327 C397 1.312 . S
C51 C345 1.422 . S
C359 C233 1.422 . S
C373 C23 1.422 . S
C387 C261 1.422 . S
C401 C79 1.422 . S
C415 C317 1.422 . S
C429 C107 1.422 . S
C443 C289 1.422 . S
C347 C0 1.500 . S
C14 C137 1.500 1_455 S
C375 C28 1.500 . S
C42 C165 1.500 1_554 S
C403 C56 1.500 . S
C70 C193 1.500 . S
C431 C84 1.500 . S
C98 C221 1.500 1_456 S
C123 C224 1.500 . S
C151 C252 1.500 . S
C179 C280 1.500 . S
C207 C308 1.500 . S
C238 C361 1.500 1_554 S
C389 C266 1.500 1_455 S
C417 C294 1.500 1_454 S
C322 C445 1.500 . S
C11 C81 1.359 . S
C25 C95 1.359 . S
C39 C109 1.359 . S
C67 C53 1.359 . S
C112 C182 1.677 . S
C126 C196 1.677 . S
C140 C210 1.677 . S
C154 C168 1.677 . S
C235 C305 1.359 . S
C319 C249 1.359 . S
C263 C333 1.359 . S
C277 C291 1.359 . S
C406 C336 1.677 . S
C350 C420 1.677 . S
C434 C364 1.677 . S
C378 C392 1.677 . S
