# Generated by pormake.
# Topology una, (4)-cn, num edge types: 1
# Building blocks:
#     Node 0, Type 0, BuildingBlock: ICAMEG_clean_sbu_1, # of connection points: 4
#     Node 1, Type 0, BuildingBlock: ICAMEG_clean_sbu_1, # of connection points: 4
#     Node 2, Type 0, BuildingBlock: ICAMEG_clean_sbu_1, # of connection points: 4
#     Node 3, Type 0, BuildingBlock: ICAMEG_clean_sbu_1, # of connection points: 4
#     Node 4, Type 0, BuildingBlock: ICAMEG_clean_sbu_1, # of connection points: 4
#     Node 5, Type 0, BuildingBlock: ICAMEG_clean_sbu_1, # of connection points: 4
#     Node 6, Type 0, BuildingBlock: ICAMEG_clean_sbu_1, # of connection points: 4
#     Node 7, Type 0, BuildingBlock: ICAMEG_clean_sbu_1, # of connection points: 4
#     Node 8, Type 0, BuildingBlock: ICAMEG_clean_sbu_1, # of connection points: 4
#     Node 9, Type 0, BuildingBlock: ICAMEG_clean_sbu_1, # of connection points: 4
#     Node 10, Type 0, BuildingBlock: ICAMEG_clean_sbu_1, # of connection points: 4
#     Node 11, Type 0, BuildingBlock: ICAMEG_clean_sbu_1, # of connection points: 4
#     Edge 12, Type (0, 0), BuildingBlock: TEMPAE_clean_linker_10, # of connection points: 2
#     Edge 13, Type (0, 0), BuildingBlock: TEMPAE_clean_linker_10, # of connection points: 2
#     Edge 14, Type (0, 0), BuildingBlock: TEMPAE_clean_linker_10, # of connection points: 2
#     Edge 15, Type (0, 0), BuildingBlock: TEMPAE_clean_linker_10, # of connection points: 2
#     Edge 16, Type (0, 0), BuildingBlock: TEMPAE_clean_linker_10, # of connection points: 2
#     Edge 17, Type (0, 0), BuildingBlock: TEMPAE_clean_linker_10, # of connection points: 2
#     Edge 18, Type (0, 0), BuildingBlock: TEMPAE_clean_linker_10, # of connection points: 2
#     Edge 19, Type (0, 0), BuildingBlock: TEMPAE_clean_linker_10, # of connection points: 2
#     Edge 20, Type (0, 0), BuildingBlock: TEMPAE_clean_linker_10, # of connection points: 2
#     Edge 21, Type (0, 0), BuildingBlock: TEMPAE_clean_linker_10, # of connection points: 2
#     Edge 22, Type (0, 0), BuildingBlock: TEMPAE_clean_linker_10, # of connection points: 2
#     Edge 23, Type (0, 0), BuildingBlock: TEMPAE_clean_linker_10, # of connection points: 2
#     Edge 24, Type (0, 0), BuildingBlock: TEMPAE_clean_linker_10, # of connection points: 2
#     Edge 25, Type (0, 0), BuildingBlock: TEMPAE_clean_linker_10, # of connection points: 2
#     Edge 26, Type (0, 0), BuildingBlock: TEMPAE_clean_linker_10, # of connection points: 2
#     Edge 27, Type (0, 0), BuildingBlock: TEMPAE_clean_linker_10, # of connection points: 2
#     Edge 28, Type (0, 0), BuildingBlock: TEMPAE_clean_linker_10, # of connection points: 2
#     Edge 29, Type (0, 0), BuildingBlock: TEMPAE_clean_linker_10, # of connection points: 2
#     Edge 30, Type (0, 0), BuildingBlock: TEMPAE_clean_linker_10, # of connection points: 2
#     Edge 31, Type (0, 0), BuildingBlock: TEMPAE_clean_linker_10, # of connection points: 2
#     Edge 32, Type (0, 0), BuildingBlock: TEMPAE_clean_linker_10, # of connection points: 2
#     Edge 33, Type (0, 0), BuildingBlock: TEMPAE_clean_linker_10, # of connection points: 2
#     Edge 34, Type (0, 0), BuildingBlock: TEMPAE_clean_linker_10, # of connection points: 2
#     Edge 35, Type (0, 0), BuildingBlock: TEMPAE_clean_linker_10, # of connection points: 2
# Relax obj value: 0.053
# Max RMSD: 0.083
# Mean RMSD: 0.083
data_MOF--net-una--node1-ICAMEG_clean_sbu_1--edge1-TEMPAE_clean_linker_10
_symmetry_space_group_name_H-M    P1
_symmetry_Int_Tables_number       1
_symmetry_cell_setting            triclinic
loop_
_symmetry_equiv_pos_as_xyz
'x, y, z'
_cell_length_a     63.742449
_cell_length_b     63.764126
_cell_length_c     22.253882
_cell_angle_alpha  90.005059
_cell_angle_beta   89.984971
_cell_angle_gamma 120.06664
loop_
_atom_site_label
_atom_site_type_symbol
_atom_site_fract_x
_atom_site_fract_y
_atom_site_fract_z
_atom_type_partial_charge
Co0 Co 0.16699 0.47365 0.03456 0.0
Co1 Co 0.12613 0.41404 0.0583 0.0
O2 O 0.13331 0.44738 0.0432 0.0
C3 C 0.14044 0.49665 0.094 0.0
O4 O 0.11995 0.47598 0.09626 0.0
C5 C 0.09039 0.40819 0.96366 0.0
O6 O 0.10799 0.42642 0.93452 0.0
O7 O 0.1432 0.41496 0.98263 0.0
O8 O 0.17649 0.45108 0.99633 0.0
H9 H 0.14621 0.34734 0.06922 0.0
H10 H 0.12671 0.47888 0.98162 0.0
O11 O 0.1595 0.49785 0.07212 0.0
H12 H 0.18202 0.49143 0.81332 0.0
H13 H 0.23377 0.55889 0.99136 0.0
H14 H 0.21458 0.47726 0.05663 0.0
H15 H 0.19119 0.48314 0.91507 0.0
H16 H 0.1913 0.52582 0.99875 0.0
O17 O 0.09474 0.40106 0.01314 0.0
H18 H 0.15491 0.38923 0.0534 0.0
H19 H 0.0815 0.36775 0.09079 0.0
H20 H 0.25728 0.50974 0.04921 0.0
H21 H 0.11711 0.48759 0.88097 0.0
H22 H 0.26711 0.55091 0.0164 0.0
H23 H 0.14481 0.49386 0.79572 0.0
O24 O 0.17423 0.46591 0.11557 0.0
H25 H 0.06781 0.4269 0.18301 0.0
H26 H 0.12787 0.39972 0.18532 0.0
H27 H 0.10747 0.39964 0.27949 0.0
H28 H 0.07715 0.41325 0.27873 0.0
H29 H 0.08882 0.42692 0.08992 0.0
H30 H 0.07196 0.32559 0.10646 0.0
H31 H 0.10447 0.31517 0.09592 0.0
O32 O 0.15714 0.42571 0.10538 0.0
C33 C 0.16507 0.4306 0.96991 0.0
C34 C 0.13191 0.35166 0.0741 0.0
C35 C 0.09022 0.33945 0.09493 0.0
N36 N 0.11878 0.38097 0.07155 0.0
C37 C 0.13674 0.37536 0.06534 0.0
C38 C 0.09573 0.36335 0.08585 0.0
C39 C 0.10848 0.33362 0.08903 0.0
C40 C 0.13916 0.48209 0.94538 0.0
N41 N 0.15974 0.48095 0.9549 0.0
C42 C 0.1335 0.4868 0.88816 0.0
C43 C 0.149 0.49025 0.84031 0.0
C44 C 0.16987 0.48889 0.85015 0.0
C45 C 0.17495 0.48416 0.90798 0.0
C46 C 0.22972 0.54101 0.00561 0.0
C47 C 0.21869 0.49508 0.04196 0.0
C48 C 0.2057 0.52222 0.01005 0.0
N49 N 0.20045 0.49956 0.02772 0.0
C50 C 0.24291 0.51342 0.038 0.0
C51 C 0.24841 0.53652 0.01964 0.0
C52 C 0.17158 0.44559 0.13192 0.0
C53 C 0.08099 0.42094 0.18394 0.0
C54 C 0.11486 0.40587 0.18464 0.0
C55 C 0.10328 0.40568 0.2381 0.0
C56 C 0.08626 0.4133 0.23763 0.0
N57 N 0.10964 0.41346 0.13216 0.0
C58 C 0.09292 0.42088 0.13135 0.0
Co59 Co 0.69888 0.16012 0.20229 0.0
Co60 Co 0.72299 0.12392 0.22824 0.0
O61 O 0.69505 0.12805 0.21334 0.0
C62 C 0.66019 0.15638 0.28374 0.0
O63 O 0.67707 0.17425 0.3154 0.0
C64 C 0.69518 0.08813 0.13258 0.0
O65 O 0.69438 0.10568 0.10381 0.0
O66 O 0.7385 0.14194 0.15304 0.0
O67 O 0.73153 0.17288 0.16337 0.0
H68 H 0.81176 0.15126 0.24025 0.0
H69 H 0.65441 0.1172 0.15623 0.0
O70 O 0.66599 0.14774 0.23923 0.0
H71 H 0.69236 0.16915 0.97918 0.0
H72 H 0.67033 0.21877 0.15116 0.0
H73 H 0.7389 0.2103 0.22294 0.0
H74 H 0.71099 0.18192 0.07932 0.0
H75 H 0.66612 0.17834 0.16203 0.0
O76 O 0.70647 0.09248 0.18242 0.0
H77 H 0.77629 0.15642 0.22466 0.0
H78 H 0.72882 0.08159 0.259 0.0
H79 H 0.74395 0.25107 0.21236 0.0
H80 H 0.63496 0.10393 0.057 0.0
H81 H 0.70949 0.2555 0.17629 0.0
H82 H 0.65401 0.12994 0.96754 0.0
O83 O 0.71468 0.16975 0.28247 0.0
H84 H 0.65351 0.06247 0.3527 0.0
H85 H 0.73962 0.12635 0.3548 0.0
H86 H 0.72018 0.1049 0.44876 0.0
H87 H 0.67684 0.07264 0.44805 0.0
H88 H 0.6736 0.08456 0.25983 0.0
H89 H 0.76377 0.07557 0.27443 0.0
H90 H 0.8056 0.11059 0.26531 0.0
O91 O 0.74008 0.15509 0.27577 0.0
C92 C 0.74265 0.16307 0.13893 0.0
C93 C 0.79362 0.13587 0.24454 0.0
C94 C 0.76669 0.09338 0.26364 0.0
N95 N 0.75053 0.11937 0.24137 0.0
C96 C 0.77347 0.1387 0.23593 0.0
C97 C 0.74697 0.09689 0.25471 0.0
C98 C 0.79015 0.11305 0.25854 0.0
C99 C 0.66266 0.12877 0.11767 0.0
N100 N 0.68377 0.15035 0.12371 0.0
C101 C 0.65162 0.12109 0.06153 0.0
C102 C 0.66235 0.13567 0.01134 0.0
C103 C 0.68388 0.15766 0.01782 0.0
C104 C 0.69439 0.16475 0.07465 0.0
C105 C 0.68549 0.21708 0.16687 0.0
C106 C 0.72385 0.21207 0.20703 0.0
C107 C 0.68321 0.19424 0.17317 0.0
N108 N 0.70228 0.19196 0.19295 0.0
C109 C 0.7268 0.23521 0.2012 0.0
C110 C 0.70746 0.23768 0.18097 0.0
C111 C 0.73324 0.16885 0.30015 0.0
C112 C 0.67242 0.07645 0.35355 0.0
C113 C 0.72072 0.11241 0.35415 0.0
C114 C 0.70983 0.10028 0.40748 0.0
C115 C 0.68552 0.08218 0.40705 0.0
N116 N 0.70778 0.10662 0.3018 0.0
C117 C 0.68391 0.08897 0.30107 0.0
Co118 Co 0.60466 0.71983 0.39139 0.0
Co119 Co 0.54413 0.69604 0.36838 0.0
O120 O 0.5723 0.69195 0.37815 0.0
C121 C 0.61176 0.69135 0.29591 0.0
O122 O 0.59303 0.69012 0.26806 0.0
C123 C 0.5094 0.65808 0.45154 0.0
O124 O 0.509 0.67533 0.48289 0.0
O125 O 0.5511 0.71222 0.44814 0.0
O126 O 0.59117 0.73733 0.43929 0.0
H127 H 0.49917 0.74192 0.3804 0.0
H128 H 0.59446 0.67053 0.42391 0.0
O129 O 0.6191 0.70299 0.34519 0.0
H130 H 0.62244 0.71802 0.61125 0.0
H131 H 0.69419 0.76036 0.43369 0.0
H132 H 0.62584 0.77313 0.38622 0.0
H133 H 0.61992 0.73706 0.51718 0.0
H134 H 0.65294 0.72551 0.42027 0.0
O135 O 0.52355 0.6634 0.40651 0.0
H136 H 0.5347 0.73647 0.38943 0.0
H137 H 0.49271 0.66355 0.33033 0.0
H138 H 0.66674 0.8085 0.39982 0.0
H139 H 0.59694 0.65081 0.51691 0.0
H140 H 0.70126 0.80222 0.4237 0.0
H141 H 0.61098 0.67461 0.61147 0.0
O142 O 0.60172 0.735 0.31609 0.0
H143 H 0.53437 0.63112 0.224 0.0
H144 H 0.53376 0.70777 0.24573 0.0
H145 H 0.52687 0.68861 0.14603 0.0
H146 H 0.52704 0.64994 0.1347 0.0
H147 H 0.54158 0.65111 0.32277 0.0
H148 H 0.45668 0.66817 0.32104 0.0
H149 H 0.45979 0.7076 0.34605 0.0
O150 O 0.56401 0.72844 0.32842 0.0
C151 C 0.57081 0.73075 0.46478 0.0
C152 C 0.49759 0.72466 0.36931 0.0
C153 C 0.47374 0.68326 0.336 0.0
N154 N 0.51582 0.69975 0.36027 0.0
C155 C 0.51766 0.72147 0.37426 0.0
C156 C 0.4942 0.68075 0.34141 0.0
C157 C 0.4755 0.70539 0.35004 0.0
C158 C 0.60074 0.68103 0.4648 0.0
N159 N 0.60717 0.70494 0.46502 0.0
C160 C 0.60204 0.66976 0.51735 0.0
C161 C 0.6099 0.68311 0.57041 0.0
C162 C 0.61632 0.70747 0.57032 0.0
C163 C 0.61481 0.71814 0.51693 0.0
C164 C 0.67928 0.76333 0.42339 0.0
C165 C 0.64074 0.77026 0.39698 0.0
C166 C 0.6559 0.74367 0.4156 0.0
N167 N 0.63698 0.7473 0.4029 0.0
C168 C 0.66387 0.79035 0.40446 0.0
C169 C 0.68324 0.78681 0.41781 0.0
C170 C 0.58475 0.73928 0.3029 0.0
C171 C 0.53416 0.64792 0.2284 0.0
C172 C 0.53404 0.69104 0.24118 0.0
C173 C 0.53003 0.68022 0.1846 0.0
C174 C 0.5301 0.65851 0.17829 0.0
N175 N 0.53802 0.68054 0.29016 0.0
C176 C 0.53811 0.65926 0.28429 0.0
Co177 Co 0.84472 0.53713 0.52332 0.0
Co178 Co 0.88552 0.59512 0.5618 0.0
O179 O 0.87831 0.56262 0.53732 0.0
C180 C 0.8649 0.5115 0.59449 0.0
O181 O 0.87478 0.52986 0.63198 0.0
C182 C 0.92158 0.6047 0.46504 0.0
O183 O 0.90394 0.58786 0.4328 0.0
O184 O 0.86908 0.59749 0.48816 0.0
O185 O 0.83543 0.56123 0.49468 0.0
H186 H 0.86576 0.66119 0.59626 0.0
H187 H 0.88447 0.53252 0.46777 0.0
O188 O 0.85265 0.51191 0.54984 0.0
H189 H 0.83414 0.53163 0.29841 0.0
H190 H 0.77889 0.45471 0.45597 0.0
H191 H 0.79675 0.53201 0.54962 0.0
H192 H 0.82293 0.53467 0.40269 0.0
H193 H 0.82115 0.48734 0.47084 0.0
O194 O 0.91721 0.60978 0.51726 0.0
H195 H 0.85696 0.62012 0.56845 0.0
H196 H 0.93007 0.63973 0.60315 0.0
H197 H 0.75424 0.49997 0.53501 0.0
H198 H 0.89612 0.52902 0.3641 0.0
H199 H 0.74507 0.46096 0.48791 0.0
H200 H 0.87094 0.52869 0.27855 0.0
O201 O 0.83646 0.54102 0.60722 0.0
H202 H 0.9418 0.5756 0.67489 0.0
H203 H 0.88328 0.60443 0.69261 0.0
H204 H 0.90278 0.60021 0.78386 0.0
H205 H 0.93233 0.58576 0.77532 0.0
H206 H 0.92166 0.57984 0.58481 0.0
H207 H 0.93972 0.68108 0.63078 0.0
H208 H 0.90741 0.692 0.62766 0.0
O209 O 0.85416 0.58153 0.60845 0.0
C210 C 0.84728 0.5826 0.47306 0.0
C211 C 0.87998 0.65663 0.59796 0.0
C212 C 0.9215 0.6678 0.61726 0.0
N213 N 0.89293 0.62748 0.58455 0.0
C214 C 0.87509 0.63338 0.58241 0.0
C215 C 0.91594 0.64437 0.60142 0.0
C216 C 0.90336 0.67392 0.61552 0.0
C217 C 0.87327 0.5321 0.4308 0.0
N218 N 0.85305 0.53378 0.44133 0.0
C219 C 0.88002 0.53023 0.37219 0.0
C220 C 0.8659 0.53008 0.3242 0.0
C221 C 0.84526 0.53175 0.33529 0.0
C222 C 0.83906 0.53356 0.39448 0.0
C223 C 0.78265 0.47163 0.47651 0.0
C224 C 0.79293 0.51514 0.52885 0.0
C225 C 0.80655 0.49015 0.48524 0.0
N226 N 0.81143 0.51161 0.51089 0.0
C227 C 0.76881 0.49704 0.5208 0.0
C228 C 0.76368 0.47515 0.49441 0.0
C229 C 0.83917 0.56063 0.62964 0.0
C230 C 0.92901 0.58198 0.67917 0.0
C231 C 0.89603 0.59803 0.68852 0.0
C232 C 0.90707 0.59574 0.74035 0.0
C233 C 0.92366 0.58765 0.73552 0.0
N234 N 0.90139 0.59245 0.6334 0.0
C235 C 0.91762 0.5845 0.62831 0.0
Co236 Co 0.31528 0.84786 0.69469 0.0
Co237 Co 0.29264 0.88547 0.72578 0.0
O238 O 0.31967 0.88008 0.70879 0.0
C239 C 0.35252 0.84946 0.77821 0.0
O240 O 0.33503 0.83133 0.80791 0.0
C241 C 0.31957 0.92012 0.62706 0.0
O242 O 0.3199 0.90225 0.59867 0.0
O243 O 0.27537 0.86698 0.65219 0.0
O244 O 0.28335 0.83647 0.65391 0.0
H245 H 0.20476 0.86076 0.74672 0.0
H246 H 0.36088 0.89113 0.65478 0.0
O247 O 0.34756 0.85895 0.734 0.0
H248 H 0.32456 0.84328 0.47102 0.0
H249 H 0.34343 0.78935 0.63854 0.0
H250 H 0.27438 0.79757 0.70745 0.0
H251 H 0.30449 0.82874 0.56913 0.0
H252 H 0.34808 0.82976 0.6541 0.0
O253 O 0.30899 0.91634 0.6778 0.0
H254 H 0.23921 0.85419 0.72805 0.0
H255 H 0.2888 0.92902 0.75624 0.0
H256 H 0.26886 0.7568 0.69214 0.0
H257 H 0.38174 0.90615 0.55767 0.0
H258 H 0.30358 0.75251 0.65748 0.0
H259 H 0.36352 0.88221 0.46485 0.0
O260 O 0.29808 0.83655 0.77301 0.0
H261 H 0.36515 0.94681 0.84205 0.0
H262 H 0.27841 0.88515 0.85374 0.0
H263 H 0.29987 0.90727 0.94528 0.0
H264 H 0.34354 0.93843 0.93974 0.0
H265 H 0.34304 0.92405 0.75169 0.0
H266 H 0.25491 0.93644 0.7747 0.0
H267 H 0.21253 0.90213 0.77021 0.0
O268 O 0.27591 0.85509 0.77576 0.0
C269 C 0.27149 0.84631 0.63439 0.0
C270 C 0.22315 0.87584 0.74899 0.0
C271 C 0.25129 0.91832 0.76461 0.0
N272 N 0.26597 0.89116 0.74149 0.0
C273 C 0.24272 0.87222 0.73864 0.0
C274 C 0.27041 0.91402 0.75397 0.0
C275 C 0.22752 0.89906 0.76211 0.0
C276 C 0.35298 0.88044 0.61474 0.0
N277 N 0.33154 0.85902 0.61777 0.0
C278 C 0.36482 0.88911 0.55981 0.0
C279 C 0.35456 0.8757 0.50774 0.0
C280 C 0.33269 0.85387 0.51115 0.0
C281 C 0.32137 0.84577 0.56685 0.0
C282 C 0.32817 0.79098 0.65365 0.0
C283 C 0.28954 0.79584 0.69229 0.0
C284 C 0.3307 0.81382 0.66264 0.0
N285 N 0.3115 0.81602 0.6817 0.0
C286 C 0.28632 0.77271 0.68371 0.0
C287 C 0.3058 0.77032 0.66428 0.0
C288 C 0.28122 0.83944 0.79503 0.0
C289 C 0.34611 0.93332 0.84501 0.0
C290 C 0.29744 0.8986 0.85099 0.0
C291 C 0.30948 0.91112 0.90297 0.0
C292 C 0.33398 0.92859 0.89982 0.0
N293 N 0.30945 0.90337 0.79737 0.0
C294 C 0.33349 0.92042 0.79397 0.0
Co295 Co 0.42039 0.29527 0.8784 0.0
Co296 Co 0.47843 0.30928 0.85202 0.0
O297 O 0.45402 0.31914 0.8594 0.0
C298 C 0.39628 0.30878 0.78312 0.0
O299 O 0.38823 0.28731 0.75895 0.0
C300 C 0.50344 0.35473 0.9246 0.0
O301 O 0.48395 0.34678 0.95808 0.0
O302 O 0.47118 0.29666 0.93559 0.0
O303 O 0.43058 0.27556 0.92922 0.0
H304 H 0.51059 0.25218 0.8772 0.0
H305 H 0.4381 0.34729 0.90172 0.0
O306 O 0.40983 0.315 0.82957 0.0
H307 H 0.40935 0.3068 0.09777 0.0
H308 H 0.33362 0.26841 0.93071 0.0
H309 H 0.392 0.24163 0.88162 0.0
H310 H 0.40655 0.28318 0.00738 0.0
H311 H 0.3765 0.29832 0.91065 0.0
O312 O 0.50395 0.34185 0.88156 0.0
H313 H 0.47984 0.26476 0.88299 0.0
H314 H 0.52979 0.33357 0.8098 0.0
H315 H 0.34932 0.2111 0.90177 0.0
H316 H 0.44094 0.37156 0.99087 0.0
H317 H 0.3198 0.22444 0.92647 0.0
H318 H 0.42657 0.35131 0.08982 0.0
O319 O 0.4193 0.27639 0.80599 0.0
H320 H 0.49391 0.37014 0.68969 0.0
H321 H 0.48397 0.28991 0.73441 0.0
H322 H 0.49101 0.3047 0.62993 0.0
H323 H 0.49614 0.34515 0.60702 0.0
H324 H 0.48648 0.35447 0.79356 0.0
H325 H 0.56117 0.32182 0.80377 0.0
H326 H 0.55161 0.28081 0.83737 0.0
O327 O 0.45402 0.27648 0.82052 0.0
C328 C 0.4505 0.28027 0.9546 0.0
C329 C 0.51496 0.27008 0.86229 0.0
C330 C 0.54336 0.30917 0.82116 0.0
N331 N 0.50296 0.29983 0.84648 0.0
C332 C 0.49761 0.27729 0.86535 0.0
C333 C 0.52554 0.31576 0.82486 0.0
C334 C 0.53798 0.28616 0.83999 0.0
C335 C 0.43157 0.33831 0.94449 0.0
N336 N 0.42208 0.31383 0.94922 0.0
C337 C 0.43333 0.35216 0.99487 0.0
C338 C 0.4253 0.3408 0.0504 0.0
C339 C 0.41565 0.31583 0.0549 0.0
C340 C 0.41419 0.30256 1.00357 0.0
C341 C 0.34632 0.26237 0.92007 0.0
C342 C 0.37928 0.24757 0.89261 0.0
C343 C 0.37061 0.27922 0.90858 0.0
N344 N 0.38675 0.27172 0.89523 0.0
C345 C 0.35513 0.2302 0.90386 0.0
C346 C 0.33857 0.2377 0.91769 0.0
C347 C 0.4335 0.26823 0.7948 0.0
C348 C 0.49176 0.35252 0.69913 0.0
C349 C 0.48607 0.30748 0.72484 0.0
C350 C 0.49012 0.31579 0.66557 0.0
C351 C 0.493 0.33848 0.65275 0.0
N352 N 0.4849 0.32137 0.77011 0.0
C353 C 0.48763 0.34359 0.75787 0.0
Co354 Co 0.53966 0.84043 0.89968 0.0
Co355 Co 0.59944 0.88072 0.87541 0.0
O356 O 0.56628 0.87396 0.89119 0.0
C357 C 0.51731 0.86783 0.8415 0.0
O358 O 0.53821 0.88807 0.8394 0.0
C359 C 0.60618 0.91625 0.97153 0.0
O360 O 0.58807 0.89861 1.0009 0.0
O361 O 0.5984 0.86336 0.95056 0.0
O362 O 0.56195 0.8304 0.93739 0.0
H363 H 0.66532 0.85951 0.86212 0.0
H364 H 0.53543 0.88115 0.95365 0.0
O365 O 0.51571 0.84851 0.86271 0.0
H366 H 0.52207 0.82522 0.12094 0.0
H367 H 0.45403 0.77453 0.94311 0.0
H368 H 0.53523 0.79255 0.8769 0.0
H369 H 0.52993 0.81598 0.01881 0.0
H370 H 0.48756 0.81678 0.93593 0.0
O371 O 0.61288 0.91202 0.92122 0.0
H372 H 0.62364 0.85135 0.87882 0.0
H373 H 0.646 0.92505 0.84299 0.0
H374 H 0.50229 0.75005 0.88409 0.0
H375 H 0.52718 0.89084 0.05469 0.0
H376 H 0.46133 0.74081 0.91736 0.0
H377 H 0.5205 0.86283 0.13944 0.0
O378 O 0.54708 0.83308 0.81834 0.0
H379 H 0.58749 0.9401 0.75286 0.0
H380 H 0.61331 0.87901 0.74793 0.0
H381 H 0.61356 0.89983 0.65438 0.0
H382 H 0.60064 0.93067 0.65646 0.0
H383 H 0.58728 0.91866 0.84531 0.0
H384 H 0.68797 0.93406 0.82645 0.0
H385 H 0.69783 0.90113 0.83576 0.0
O386 O 0.58728 0.84978 0.82777 0.0
C387 C 0.58256 0.84159 0.96338 0.0
C388 C 0.66124 0.874 0.85777 0.0
C389 C 0.67395 0.91585 0.83783 0.0
N390 N 0.63235 0.88765 0.86149 0.0
C391 C 0.63765 0.86947 0.86703 0.0
C392 C 0.65016 0.91064 0.84739 0.0
C393 C 0.67947 0.89736 0.84304 0.0
C394 C 0.53203 0.86857 0.98965 0.0
N395 N 0.53268 0.84776 0.97963 0.0
C396 C 0.52758 0.87428 0.04711 0.0
C397 C 0.52391 0.8586 0.09467 0.0
C398 C 0.52479 0.83751 0.08432 0.0
C399 C 0.52926 0.83238 0.02628 0.0
C400 C 0.47181 0.77833 0.92865 0.0
C401 C 0.5175 0.78869 0.89178 0.0
C402 C 0.49085 0.80222 0.92433 0.0
N403 N 0.51339 0.80714 0.90638 0.0
C404 C 0.4989 0.76458 0.89561 0.0
C405 C 0.47592 0.75941 0.91422 0.0
C406 C 0.56727 0.83549 0.80154 0.0
C407 C 0.59315 0.92669 0.75135 0.0
C408 C 0.60745 0.89225 0.74918 0.0
C409 C 0.60774 0.90406 0.69607 0.0
C410 C 0.60051 0.92138 0.69728 0.0
N411 N 0.60014 0.89752 0.80203 0.0
C412 C 0.5931 0.91452 0.80358 0.0
Co413 Co 0.70485 0.53597 0.07716 0.0
Co414 Co 0.72225 0.5941 0.03957 0.0
O415 O 0.69688 0.56149 0.06309 0.0
C416 C 0.65963 0.51086 0.00366 0.0
O417 O 0.66852 0.52952 0.96706 0.0
C418 C 0.69542 0.6031 0.13632 0.0
O419 O 0.69643 0.58634 0.16834 0.0
O420 O 0.74087 0.5963 0.11344 0.0
O421 O 0.73805 0.55995 0.10752 0.0
H422 H 0.80823 0.66059 0.0074 0.0
H423 H 0.66 0.53102 0.1306 0.0
O424 O 0.67188 0.51089 0.04883 0.0
H425 H 0.7081 0.52935 0.30221 0.0
H426 H 0.68759 0.45322 0.14296 0.0
H427 H 0.74792 0.53103 0.05274 0.0
H428 H 0.72321 0.53294 0.19863 0.0
H429 H 0.67812 0.48591 0.12793 0.0
O430 O 0.70495 0.60842 0.08418 0.0
H431 H 0.77591 0.61935 0.03408 0.0
H432 H 0.72232 0.63875 0.99906 0.0
H433 H 0.75823 0.49894 0.06755 0.0
H434 H 0.644 0.52698 0.23351 0.0
H435 H 0.72794 0.45968 0.11292 0.0
H436 H 0.66817 0.52625 0.32019 0.0
O437 O 0.71766 0.54027 0.99385 0.0
H438 H 0.64675 0.57481 0.92512 0.0
H439 H 0.73427 0.60389 0.90908 0.0
H440 H 0.71083 0.59993 0.81743 0.0
H441 H 0.66676 0.58535 0.82512 0.0
H442 H 0.67084 0.57879 0.0156 0.0
H443 H 0.75407 0.68027 0.97256 0.0
H444 H 0.79738 0.69139 0.97642 0.0
O445 O 0.74028 0.58083 0.99299 0.0
C446 C 0.74764 0.58136 0.12894 0.0
C447 C 0.78942 0.65595 0.00538 0.0
C448 C 0.75903 0.667 0.9859 0.0
N449 N 0.74726 0.6266 0.01774 0.0
C450 C 0.77104 0.63261 0.02028 0.0
C451 C 0.74113 0.64348 1.0011 0.0
C452 C 0.78332 0.67323 0.98805 0.0
C453 C 0.67049 0.53042 0.16806 0.0
N454 N 0.69249 0.53218 0.15855 0.0
C455 C 0.66139 0.52825 0.22624 0.0
C456 C 0.67498 0.52788 0.27486 0.0
C457 C 0.69738 0.52964 0.26482 0.0
C458 C 0.70589 0.53177 0.20603 0.0
C459 C 0.70095 0.47025 0.12319 0.0
C460 C 0.73468 0.51405 0.07277 0.0
C461 C 0.69566 0.4888 0.11438 0.0
N462 N 0.71248 0.51041 0.0897 0.0
C463 C 0.74061 0.49592 0.08093 0.0
C464 C 0.7236 0.47389 0.10635 0.0
C465 C 0.73459 0.55999 0.97181 0.0
C466 C 0.66596 0.58125 0.92121 0.0
C467 C 0.71508 0.59743 0.9128 0.0
C468 C 0.70191 0.59529 0.86075 0.0
C469 C 0.67719 0.58713 0.8651 0.0
N470 N 0.70393 0.59164 0.96768 0.0
C471 C 0.6797 0.58363 0.9723 0.0
Co472 Co 0.12768 0.72316 0.20452 0.0
Co473 Co 0.16626 0.70185 0.23436 0.0
O474 O 0.13364 0.69661 0.2225 0.0
C475 C 0.09332 0.6961 0.30373 0.0
O476 O 0.11137 0.6961 0.33212 0.0
C477 C 0.16378 0.66343 0.15366 0.0
O478 O 0.18137 0.68046 0.12163 0.0
O479 O 0.17597 0.71759 0.15416 0.0
O480 O 0.15799 0.74014 0.15387 0.0
H481 H 0.25726 0.74962 0.22663 0.0
H482 H 0.08992 0.67231 0.18035 0.0
O483 O 0.09694 0.70663 0.253 0.0
H484 H 0.10452 0.71433 0.98565 0.0
H485 H 0.07547 0.75939 0.15447 0.0
H486 H 0.15832 0.77663 0.20022 0.0
H487 H 0.12678 0.73657 0.07627 0.0
H488 H 0.08357 0.72605 0.17439 0.0
O489 O 0.15503 0.66903 0.1983 0.0
H490 H 0.21595 0.74308 0.21481 0.0
H491 H 0.18596 0.67055 0.27608 0.0
H492 H 0.15108 0.81053 0.17994 0.0
H493 H 0.06702 0.64939 0.09098 0.0
H494 H 0.10939 0.80199 0.15689 0.0
H495 H 0.07431 0.67041 0.99271 0.0
O496 O 0.14629 0.74086 0.27761 0.0
H497 H 0.1112 0.63747 0.38035 0.0
H498 H 0.18748 0.71522 0.35762 0.0
H499 H 0.1749 0.69693 0.45816 0.0
H500 H 0.13655 0.65772 0.47001 0.0
H501 H 0.12424 0.65659 0.28071 0.0
H502 H 0.22697 0.67627 0.28833 0.0
H503 H 0.26298 0.71606 0.26361 0.0
O504 O 0.17776 0.7344 0.27192 0.0
C505 C 0.17338 0.73473 0.13288 0.0
C506 C 0.24172 0.73221 0.23764 0.0
C507 C 0.22472 0.69104 0.27223 0.0
N508 N 0.19856 0.70649 0.24487 0.0
C509 C 0.21828 0.72841 0.2311 0.0
C510 C 0.20155 0.68791 0.26514 0.0
C511 C 0.24491 0.71337 0.25836 0.0
C512 C 0.09311 0.68161 0.1378 0.0
N513 N 0.10967 0.70576 0.13356 0.0
C514 C 0.08012 0.66852 0.08733 0.0
C515 C 0.08423 0.68032 0.0322 0.0
C516 C 0.10119 0.70496 0.0282 0.0
C517 C 0.11383 0.71744 0.07962 0.0
C518 C 0.09371 0.76334 0.16437 0.0
C519 C 0.14016 0.77278 0.18985 0.0
C520 C 0.0984 0.74454 0.17586 0.0
N521 N 0.12143 0.7494 0.18806 0.0
C522 C 0.13616 0.79204 0.17858 0.0
C523 C 0.11276 0.78724 0.16571 0.0
C524 C 0.16749 0.74558 0.29318 0.0
C525 C 0.128 0.65451 0.37573 0.0
C526 C 0.17068 0.69823 0.36237 0.0
C527 C 0.1637 0.68791 0.41943 0.0
C528 C 0.1422 0.66591 0.42604 0.0
N529 N 0.15665 0.68695 0.3132 0.0
C530 C 0.13555 0.66537 0.31936 0.0
Co531 Co 0.47319 0.1663 0.39053 0.0
Co532 Co 0.41342 0.12657 0.36423 0.0
O533 O 0.44638 0.13296 0.38113 0.0
C534 C 0.49528 0.13859 0.33291 0.0
O535 O 0.47422 0.11856 0.32969 0.0
C536 C 0.40626 0.09113 0.4606 0.0
O537 O 0.42425 0.10889 0.48997 0.0
O538 O 0.41422 0.14396 0.43911 0.0
O539 O 0.45099 0.17659 0.42742 0.0
H540 H 0.34817 0.14856 0.34804 0.0
H541 H 0.47667 0.12517 0.44453 0.0
O542 O 0.49704 0.15793 0.35445 0.0
H543 H 0.48953 0.1807 0.61242 0.0
H544 H 0.55886 0.23135 0.437 0.0
H545 H 0.47839 0.21451 0.36783 0.0
H546 H 0.48245 0.19042 0.51004 0.0
H547 H 0.52504 0.1893 0.42861 0.0
O548 O 0.39959 0.09524 0.41011 0.0
H549 H 0.38965 0.15635 0.36608 0.0
H550 H 0.36681 0.08249 0.33105 0.0
H551 H 0.51163 0.25683 0.37621 0.0
H552 H 0.48416 0.11501 0.54583 0.0
H553 H 0.55222 0.26548 0.41099 0.0
H554 H 0.49058 0.14282 0.63088 0.0
O555 O 0.46639 0.174 0.30899 0.0
H556 H 0.42514 0.06672 0.24298 0.0
H557 H 0.40037 0.12858 0.23623 0.0
H558 H 0.40032 0.10771 0.14296 0.0
H559 H 0.41272 0.07648 0.14596 0.0
H560 H 0.42516 0.08823 0.33512 0.0
H561 H 0.32504 0.07384 0.31316 0.0
H562 H 0.31552 0.10704 0.32139 0.0
O563 O 0.42613 0.15761 0.31661 0.0
C564 C 0.43021 0.1656 0.45257 0.0
C565 C 0.35211 0.13396 0.34414 0.0
C566 C 0.33912 0.09202 0.32464 0.0
N567 N 0.38069 0.11994 0.3492 0.0
C568 C 0.37558 0.13828 0.35415 0.0
C569 C 0.3628 0.09701 0.33496 0.0
C570 C 0.33379 0.11065 0.32925 0.0
C571 C 0.47996 0.13767 0.48068 0.0
N572 N 0.47958 0.15861 0.4707 0.0
C573 C 0.48398 0.13169 0.53827 0.0
C574 C 0.4875 0.14726 0.586 0.0
C575 C 0.48692 0.1685 0.57568 0.0
C576 C 0.48287 0.17389 0.5175 0.0
C577 C 0.54124 0.22782 0.42189 0.0
C578 C 0.49595 0.21811 0.38334 0.0
C579 C 0.52203 0.20403 0.41688 0.0
N580 N 0.49969 0.19944 0.39812 0.0
C581 C 0.51473 0.24212 0.38785 0.0
C582 C 0.5375 0.24696 0.40731 0.0
C583 C 0.4464 0.17186 0.29134 0.0
C584 C 0.41971 0.0803 0.24107 0.0
C585 C 0.406 0.11518 0.23788 0.0
C586 C 0.40583 0.10334 0.18493 0.0
C587 C 0.41276 0.0858 0.18665 0.0
N588 N 0.41291 0.10973 0.29108 0.0
C589 C 0.41966 0.09252 0.29313 0.0
Co590 Co 0.31 0.47372 0.56484 0.0
Co591 Co 0.2911 0.41369 0.54581 0.0
O592 O 0.31725 0.44724 0.55952 0.0
C593 C 0.3595 0.49539 0.50602 0.0
O594 O 0.35809 0.47418 0.50303 0.0
C595 C 0.32694 0.41069 0.62974 0.0
O596 O 0.33812 0.43416 0.63838 0.0
O597 O 0.27461 0.41561 0.61949 0.0
O598 O 0.27746 0.4515 0.60218 0.0
H599 H 0.20392 0.34764 0.53351 0.0
H600 H 0.35614 0.4817 0.62063 0.0
O601 O 0.34218 0.4975 0.52805 0.0
H602 H 0.31072 0.49284 0.78466 0.0
H603 H 0.3286 0.55936 0.60125 0.0
H604 H 0.26634 0.47729 0.53786 0.0
H605 H 0.29386 0.4832 0.68236 0.0
H606 H 0.33783 0.52616 0.59812 0.0
O607 O 0.30838 0.40036 0.59561 0.0
H608 H 0.23747 0.38952 0.54766 0.0
H609 H 0.2889 0.3667 0.51917 0.0
H610 H 0.25628 0.5099 0.54089 0.0
H611 H 0.37388 0.49182 0.72189 0.0
H612 H 0.28754 0.5513 0.57276 0.0
H613 H 0.3511 0.49735 0.80503 0.0
O614 O 0.29572 0.46532 0.48331 0.0
H615 H 0.36276 0.42466 0.4252 0.0
H616 H 0.27551 0.39754 0.4197 0.0
H617 H 0.29593 0.39584 0.32738 0.0
H618 H 0.33987 0.40938 0.32974 0.0
H619 H 0.34172 0.42635 0.51621 0.0
H620 H 0.2559 0.32454 0.50526 0.0
H621 H 0.21305 0.3148 0.51217 0.0
O622 O 0.27246 0.42518 0.49498 0.0
C623 C 0.26825 0.43127 0.62994 0.0
C624 C 0.22252 0.35167 0.53021 0.0
C625 C 0.25169 0.3387 0.51443 0.0
N626 N 0.26511 0.3806 0.53382 0.0
C627 C 0.24159 0.37536 0.53803 0.0
C628 C 0.2703 0.3626 0.52249 0.0
C629 C 0.22765 0.33325 0.5183 0.0
C630 C 0.34619 0.48434 0.65606 0.0
N631 N 0.32396 0.48183 0.64512 0.0
C632 C 0.3563 0.48996 0.71358 0.0
C633 C 0.34349 0.49302 0.76022 0.0
C634 C 0.32084 0.49047 0.74885 0.0
C635 C 0.31133 0.48487 0.69076 0.0
C636 C 0.31481 0.54139 0.58739 0.0
C637 C 0.28001 0.49521 0.55209 0.0
C638 C 0.31995 0.52252 0.58538 0.0
N639 N 0.30259 0.49975 0.5682 0.0
C640 C 0.27422 0.51363 0.55359 0.0
C641 C 0.29177 0.53685 0.57142 0.0
C642 C 0.27815 0.44488 0.46717 0.0
C643 C 0.3436 0.41865 0.42361 0.0
C644 C 0.29467 0.40364 0.42114 0.0
C645 C 0.30611 0.40254 0.36869 0.0
C646 C 0.33075 0.41011 0.37005 0.0
N647 N 0.30738 0.41202 0.4736 0.0
C648 C 0.33154 0.41948 0.47519 0.0
Co649 Co 0.88254 0.29155 0.70981 0.0
Co650 Co 0.84075 0.30822 0.74035 0.0
O651 O 0.87463 0.31678 0.72941 0.0
C652 C 0.918 0.32039 0.80591 0.0
O653 O 0.90009 0.3198 0.83646 0.0
C654 C 0.86181 0.3536 0.66693 0.0
O655 O 0.87309 0.34544 0.63329 0.0
O656 O 0.83346 0.29493 0.65729 0.0
O657 O 0.85155 0.27256 0.66229 0.0
H658 H 0.75057 0.25332 0.72494 0.0
H659 H 0.91836 0.34279 0.68283 0.0
O660 O 0.91392 0.30982 0.75514 0.0
H661 H 0.90131 0.30032 0.48823 0.0
H662 H 0.9382 0.26011 0.65234 0.0
H663 H 0.85472 0.23785 0.70846 0.0
H664 H 0.88133 0.27795 0.58079 0.0
H665 H 0.92774 0.29173 0.67377 0.0
O666 O 0.84837 0.34085 0.71007 0.0
H667 H 0.79341 0.26442 0.71429 0.0
H668 H 0.81597 0.33432 0.78584 0.0
H669 H 0.86432 0.20565 0.68684 0.0
H670 H 0.93898 0.36582 0.59144 0.0
H671 H 0.90634 0.21671 0.65858 0.0
H672 H 0.93043 0.34457 0.49322 0.0
O673 O 0.86577 0.27379 0.78445 0.0
H674 H 0.89002 0.3703 0.89711 0.0
H675 H 0.81797 0.29023 0.86085 0.0
H676 H 0.828 0.30596 0.96428 0.0
H677 H 0.86422 0.34633 0.98295 0.0
H678 H 0.87954 0.35367 0.79439 0.0
H679 H 0.77337 0.32406 0.79668 0.0
H680 H 0.74031 0.28326 0.76635 0.0
O681 O 0.83173 0.27535 0.77274 0.0
C682 C 0.83661 0.27787 0.638 0.0
C683 C 0.76481 0.27114 0.73841 0.0
C684 C 0.77761 0.31085 0.7786 0.0
N685 N 0.80719 0.29996 0.74964 0.0
C686 C 0.78911 0.27752 0.7326 0.0
C687 C 0.8017 0.31659 0.77217 0.0
C688 C 0.75907 0.28795 0.76161 0.0
C689 C 0.91473 0.33338 0.64035 0.0
N690 N 0.89872 0.30905 0.63722 0.0
C691 C 0.92638 0.34653 0.58871 0.0
C692 C 0.92154 0.33461 0.5336 0.0
C693 C 0.90519 0.30978 0.53076 0.0
C694 C 0.89387 0.29723 0.58332 0.0
C695 C 0.91982 0.25506 0.66453 0.0
C696 C 0.873 0.24281 0.69586 0.0
C697 C 0.9138 0.27288 0.67687 0.0
N698 N 0.8906 0.26664 0.69201 0.0
C699 C 0.87835 0.22449 0.68381 0.0
C700 C 0.90193 0.23071 0.66801 0.0
C701 C 0.84373 0.26662 0.79761 0.0
C702 C 0.87416 0.35272 0.88953 0.0
C703 C 0.83386 0.30774 0.86857 0.0
C704 C 0.83939 0.3166 0.92726 0.0
C705 C 0.8597 0.33925 0.93769 0.0
N706 N 0.84817 0.32104 0.82155 0.0
C707 C 0.86807 0.34327 0.83143 0.0
C708 C 0.1935 0.46132 0.22939 0.0
C709 C 0.18696 0.44512 0.18111 0.0
C710 C 0.20793 0.46087 0.27659 0.0
C711 C 0.2167 0.44437 0.27439 0.0
C712 C 0.21039 0.42821 0.2252 0.0
C713 C 0.19527 0.4285 0.17968 0.0
C714 C 0.21361 0.47789 0.32908 0.0
C715 C 0.21993 0.41086 0.22015 0.0
C716 C 0.2726 0.46033 0.36865 0.0
C717 C 0.26259 0.44424 0.41707 0.0
C718 C 0.25795 0.46018 0.32125 0.0
C719 C 0.23257 0.44414 0.32338 0.0
C720 C 0.22236 0.428 0.37254 0.0
C721 C 0.23755 0.42797 0.41828 0.0
C722 C 0.26966 0.47713 0.26879 0.0
C723 C 0.19534 0.4111 0.37745 0.0
H724 H 0.18694 0.47405 0.2308 0.0
H725 H 0.1904 0.41609 0.1421 0.0
H726 H 0.2078 0.46743 0.37165 0.0
H727 H 0.23345 0.49041 0.33216 0.0
H728 H 0.20451 0.48882 0.32528 0.0
H729 H 0.21384 0.39993 0.17827 0.0
H730 H 0.24005 0.42109 0.22098 0.0
H731 H 0.21381 0.39835 0.25914 0.0
H732 H 0.29198 0.47282 0.36744 0.0
H733 H 0.22972 0.41567 0.45599 0.0
H734 H 0.26291 0.4901 0.26592 0.0
H735 H 0.26468 0.46669 0.22617 0.0
H736 H 0.28974 0.48758 0.27249 0.0
H737 H 0.18588 0.42173 0.37698 0.0
H738 H 0.19023 0.40003 0.41912 0.0
H739 H 0.18869 0.39872 0.33823 0.0
C740 C 0.81312 0.23742 0.58854 0.0
C741 C 0.82113 0.26231 0.58844 0.0
C742 C 0.79828 0.22223 0.5423 0.0
C743 C 0.79194 0.23227 0.4936 0.0
C744 C 0.80026 0.25748 0.49293 0.0
C745 C 0.8144 0.27213 0.54092 0.0
C746 C 0.78924 0.19538 0.54585 0.0
C747 C 0.79457 0.26904 0.441 0.0
C748 C 0.77342 0.19529 0.34896 0.0
C749 C 0.74817 0.18523 0.34927 0.0
C750 C 0.78791 0.21112 0.39475 0.0
C751 C 0.77684 0.21638 0.44319 0.0
C752 C 0.75129 0.206 0.44402 0.0
C753 C 0.73731 0.19088 0.39653 0.0
C754 C 0.8151 0.22233 0.39111 0.0
C755 C 0.73868 0.21047 0.49569 0.0
H756 H 0.81811 0.22973 0.62553 0.0
H757 H 0.82073 0.29139 0.54054 0.0
H758 H 0.76915 0.18506 0.54295 0.0
H759 H 0.79628 0.18972 0.50731 0.0
H760 H 0.79484 0.19028 0.58812 0.0
H761 H 0.8029 0.28896 0.44652 0.0
H762 H 0.80127 0.26539 0.39846 0.0
H763 H 0.77468 0.261 0.43645 0.0
H764 H 0.7819 0.19114 0.31218 0.0
H765 H 0.71778 0.18298 0.39712 0.0
H766 H 0.82173 0.21626 0.42969 0.0
H767 H 0.82392 0.24236 0.39388 0.0
H768 H 0.82095 0.21747 0.34888 0.0
H769 H 0.74305 0.2045 0.53839 0.0
H770 H 0.71867 0.20073 0.49008 0.0
H771 H 0.74525 0.23013 0.49999 0.0
C772 C 0.58564 0.77113 0.51335 0.0
C773 C 0.56998 0.74597 0.51395 0.0
C774 C 0.58485 0.7859 0.55914 0.0
C775 C 0.56854 0.77517 0.60781 0.0
C776 C 0.55292 0.7497 0.60902 0.0
C777 C 0.55355 0.73545 0.56157 0.0
C778 C 0.60132 0.81301 0.55516 0.0
C779 C 0.5358 0.73745 0.66092 0.0
C780 C 0.58411 0.81177 0.75269 0.0
C781 C 0.56747 0.82005 0.75206 0.0
C782 C 0.58434 0.79678 0.70668 0.0
C783 C 0.56806 0.79057 0.65776 0.0
C784 C 0.55145 0.79922 0.65648 0.0
C785 C 0.55108 0.81351 0.70416 0.0
C786 C 0.60184 0.7874 0.71077 0.0
C787 C 0.53431 0.79365 0.60431 0.0
H788 H 0.59823 0.77935 0.47631 0.0
H789 H 0.54155 0.71598 0.56241 0.0
H790 H 0.59042 0.82216 0.55726 0.0
H791 H 0.61393 0.81955 0.59395 0.0
H792 H 0.61216 0.81858 0.51309 0.0
H793 H 0.52529 0.71744 0.65581 0.0
H794 H 0.54617 0.7419 0.7036 0.0
H795 H 0.52291 0.74426 0.66485 0.0
H796 H 0.59667 0.8166 0.78994 0.0
H797 H 0.53832 0.82005 0.70334 0.0
H798 H 0.61451 0.79406 0.67208 0.0
H799 H 0.59178 0.76731 0.70857 0.0
H800 H 0.61262 0.79311 0.75292 0.0
H801 H 0.54474 0.80001 0.56178 0.0
H802 H 0.52304 0.80234 0.60923 0.0
H803 H 0.52211 0.77379 0.60023 0.0
C804 C 0.8137 0.57495 0.68016 0.0
C805 C 0.8231 0.55924 0.67932 0.0
C806 C 0.79843 0.57405 0.72683 0.0
C807 C 0.79312 0.55763 0.77506 0.0
C808 C 0.80276 0.54184 0.77464 0.0
C809 C 0.81729 0.54253 0.72615 0.0
C810 C 0.78795 0.59067 0.72444 0.0
C811 C 0.79824 0.52467 0.8261 0.0
C812 C 0.77451 0.57489 0.92116 0.0
C813 C 0.74943 0.55881 0.92221 0.0
C814 C 0.789 0.57416 0.87457 0.0
C815 C 0.77804 0.55753 0.82662 0.0
C816 C 0.75264 0.54138 0.82727 0.0
C817 C 0.7387 0.54191 0.87567 0.0
C818 C 0.81607 0.59118 0.87671 0.0
C819 C 0.74013 0.52396 0.77611 0.0
H820 H 0.818 0.58773 0.64363 0.0
H821 H 0.8247 0.5305 0.7257 0.0
H822 H 0.76793 0.57997 0.72894 0.0
H823 H 0.79492 0.60359 0.76256 0.0
H824 H 0.79252 0.60118 0.68191 0.0
H825 H 0.80725 0.51377 0.81927 0.0
H826 H 0.80503 0.53505 0.86857 0.0
H827 H 0.77851 0.51213 0.83177 0.0
H828 H 0.78287 0.58782 0.95745 0.0
H829 H 0.71927 0.5296 0.87626 0.0
H830 H 0.82179 0.604 0.83837 0.0
H831 H 0.8257 0.5808 0.87239 0.0
H832 H 0.82192 0.60182 0.91906 0.0
H833 H 0.7435 0.53419 0.73346 0.0
H834 H 0.72024 0.51276 0.78312 0.0
H835 H 0.74766 0.51172 0.77067 0.0
C836 C 0.24836 0.79972 0.83302 0.0
C837 C 0.26659 0.82355 0.84467 0.0
C838 C 0.2333 0.78479 0.87945 0.0
C839 C 0.23682 0.79388 0.93898 0.0
C840 C 0.25559 0.8179 0.95088 0.0
C841 C 0.27012 0.83253 0.90339 0.0
C842 C 0.2133 0.75948 0.86456 0.0
C843 C 0.26021 0.82822 0.01367 0.0
C844 C 0.18437 0.76542 0.0503 0.0
C845 C 0.18947 0.7496 0.08273 0.0
C846 C 0.1994 0.77961 1.00297 0.0
C847 C 0.22047 0.77851 0.98847 0.0
C848 C 0.22591 0.76283 0.02144 0.0
C849 C 0.21025 0.74839 0.06764 0.0
C850 C 0.19268 0.79577 0.96838 0.0
C851 C 0.24844 0.76147 0.0083 0.0
H852 H 0.24551 0.79296 0.78732 0.0
H853 H 0.28429 0.851 0.91213 0.0
H854 H 0.21532 0.74602 0.89177 0.0
H855 H 0.19547 0.75754 0.87615 0.0
H856 H 0.21317 0.75503 0.81624 0.0
H857 H 0.27612 0.84685 0.01577 0.0
H858 H 0.24406 0.82873 0.03028 0.0
H859 H 0.26332 0.81642 0.04466 0.0
H860 H 0.16852 0.76668 0.06159 0.0
H861 H 0.21453 0.73642 0.09259 0.0
H862 H 0.19109 0.79128 0.9198 0.0
H863 H 0.20715 0.81498 0.97318 0.0
H864 H 0.17529 0.79397 0.98394 0.0
H865 H 0.24801 0.75551 0.96126 0.0
H866 H 0.25037 0.74875 0.03882 0.0
H867 H 0.26474 0.7797 0.01295 0.0
C868 C 0.46299 0.19347 0.19388 0.0
C869 C 0.44685 0.18767 0.24207 0.0
C870 C 0.46342 0.20831 0.1466 0.0
C871 C 0.44795 0.21831 0.1487 0.0
C872 C 0.43192 0.21281 0.19792 0.0
C873 C 0.43126 0.19722 0.24346 0.0
C874 C 0.4802 0.21304 0.09403 0.0
C875 C 0.41568 0.22366 0.20291 0.0
C876 C 0.46608 0.27433 0.05261 0.0
C877 C 0.4496 0.26466 0.00488 0.0
C878 C 0.46541 0.25956 0.10039 0.0
C879 C 0.44844 0.23437 0.09923 0.0
C880 C 0.43197 0.2245 0.05059 0.0
C881 C 0.43248 0.23984 0.00457 0.0
C882 C 0.48274 0.27094 0.15232 0.0
C883 C 0.41411 0.19767 0.04657 0.0
H884 H 0.47494 0.18595 0.19255 0.0
H885 H 0.41893 0.19294 0.28102 0.0
H886 H 0.46964 0.20745 0.0516 0.0
H887 H 0.4934 0.23271 0.09043 0.0
H888 H 0.49038 0.20318 0.09811 0.0
H889 H 0.40495 0.21832 0.24518 0.0
H890 H 0.42675 0.24373 0.20119 0.0
H891 H 0.40296 0.21781 0.16436 0.0
H892 H 0.47923 0.29356 0.05307 0.0
H893 H 0.41988 0.23228 0.96734 0.0
H894 H 0.49495 0.26329 0.15537 0.0
H895 H 0.47248 0.26668 0.19516 0.0
H896 H 0.49399 0.29094 0.14783 0.0
H897 H 0.42393 0.1874 0.04766 0.0
H898 H 0.40303 0.19278 0.00493 0.0
H899 H 0.40174 0.19174 0.08584 0.0
C900 C 0.12084 0.5222 0.10099 0.0
C901 C 0.14123 0.51961 0.10925 0.0
C902 C 0.12244 0.54488 0.10808 0.0
C903 C 0.14481 0.56525 0.12521 0.0
C904 C 0.16516 0.56244 0.13595 0.0
C905 C 0.1632 0.53974 0.12709 0.0
C906 C 0.10049 0.54726 0.09507 0.0
C907 C 0.18918 0.58352 0.15569 0.0
C908 C 0.16093 0.62993 0.08901 0.0
C909 C 0.15663 0.63771 0.14415 0.0
C910 C 0.15607 0.60601 0.08139 0.0
C911 C 0.14729 0.5897 0.13057 0.0
C912 C 0.14245 0.59734 0.18598 0.0
C913 C 0.14691 0.62115 0.19188 0.0
C914 C 0.16096 0.5984 0.02118 0.0
C915 C 0.13362 0.58073 0.23989 0.0
H916 H 0.10392 0.50674 0.08644 0.0
H917 H 0.17899 0.53779 0.13365 0.0
H918 H 0.09624 0.55523 0.13425 0.0
H919 H 0.10439 0.55976 0.05659 0.0
H920 H 0.08425 0.52956 0.08411 0.0
H921 H 0.20274 0.57794 0.16598 0.0
H922 H 0.1966 0.59745 0.1198 0.0
H923 H 0.18666 0.59215 0.19625 0.0
H924 H 0.16832 0.64261 0.05192 0.0
H925 H 0.14374 0.62709 0.23486 0.0
H926 H 0.14489 0.5813 0.00617 0.0
H927 H 0.17627 0.59488 0.02523 0.0
H928 H 0.16556 0.61245 0.9861 0.0
H929 H 0.11711 0.5634 0.22832 0.0
H930 H 0.12946 0.58898 0.27875 0.0
H931 H 0.1477 0.57633 0.25377 0.0
C932 C 0.61818 0.13993 0.2439 0.0
C933 C 0.63443 0.14934 0.2923 0.0
C934 C 0.59457 0.13616 0.24844 0.0
C935 C 0.5868 0.14137 0.30316 0.0
C936 C 0.60272 0.14968 0.35315 0.0
C937 C 0.62646 0.15387 0.34687 0.0
C938 C 0.5784 0.12782 0.19368 0.0
C939 C 0.59493 0.1549 0.41271 0.0
C940 C 0.53874 0.15994 0.30249 0.0
C941 C 0.5179 0.1384 0.31946 0.0
C942 C 0.56107 0.16089 0.29525 0.0
C943 C 0.56277 0.13995 0.30682 0.0
C944 C 0.5417 0.11803 0.32313 0.0
C945 C 0.51942 0.11744 0.32854 0.0
C946 C 0.58294 0.18448 0.27631 0.0
C947 C 0.54288 0.09548 0.33704 0.0
H948 H 0.62427 0.13659 0.20134 0.0
H949 H 0.63891 0.16104 0.38447 0.0
H950 H 0.56058 0.11183 0.2047 0.0
H951 H 0.57498 0.14244 0.17872 0.0
H952 H 0.58656 0.12306 0.15573 0.0
H953 H 0.60848 0.1588 0.44869 0.0
H954 H 0.59233 0.17078 0.40814 0.0
H955 H 0.5773 0.13927 0.42678 0.0
H956 H 0.53762 0.17617 0.29532 0.0
H957 H 0.50341 0.10084 0.34244 0.0
H958 H 0.59163 0.18153 0.2365 0.0
H959 H 0.59654 0.19141 0.313 0.0
H960 H 0.57821 0.1986 0.26516 0.0
H961 H 0.55086 0.0908 0.29864 0.0
H962 H 0.52475 0.07968 0.34713 0.0
H963 H 0.55488 0.09886 0.37635 0.0
C964 C 0.3824 0.53885 0.47562 0.0
C965 C 0.38257 0.51773 0.49222 0.0
C966 C 0.4041 0.56085 0.4676 0.0
C967 C 0.42654 0.56193 0.47805 0.0
C968 C 0.42684 0.54058 0.49414 0.0
C969 C 0.40482 0.51864 0.5003 0.0
C970 C 0.40297 0.58304 0.44892 0.0
C971 C 0.45035 0.54111 0.50694 0.0
C972 C 0.48256 0.61614 0.41275 0.0
C973 C 0.49022 0.63256 0.46091 0.0
C974 C 0.46221 0.59286 0.41809 0.0
C975 C 0.44956 0.58559 0.47337 0.0
C976 C 0.45799 0.60164 0.52308 0.0
C977 C 0.47803 0.62506 0.51601 0.0
C978 C 0.45352 0.57654 0.36364 0.0
C979 C 0.44535 0.59436 0.58321 0.0
H980 H 0.36521 0.53819 0.46923 0.0
H981 H 0.40502 0.50241 0.51392 0.0
H982 H 0.41028 0.59675 0.48533 0.0
H983 H 0.41438 0.59137 0.40854 0.0
H984 H 0.38418 0.57879 0.43877 0.0
H985 H 0.44754 0.52283 0.51732 0.0
H986 H 0.46274 0.5486 0.46787 0.0
H987 H 0.45956 0.55322 0.54571 0.0
H988 H 0.49174 0.62187 0.3698 0.0
H989 H 0.48394 0.63765 0.5534 0.0
H990 H 0.43552 0.57358 0.34964 0.0
H991 H 0.45122 0.55854 0.37459 0.0
H992 H 0.4662 0.5843 0.32505 0.0
H993 H 0.42707 0.59233 0.57948 0.0
H994 H 0.45558 0.60791 0.61878 0.0
H995 H 0.44286 0.57656 0.59732 0.0
C996 C 0.85397 0.46916 0.56741 0.0
C997 C 0.86717 0.48964 0.60395 0.0
C998 C 0.85489 0.44788 0.57646 0.0
C999 C 0.86955 0.44698 0.62292 0.0
C1000 C 0.88349 0.46776 0.65898 0.0
C1001 C 0.88205 0.48884 0.64927 0.0
C1002 C 0.83951 0.42609 0.53739 0.0
C1003 C 0.89951 0.46756 0.70863 0.0
C1004 C 0.84937 0.38444 0.6863 0.0
C1005 C 0.86447 0.3778 0.65589 0.0
C1006 C 0.85122 0.40704 0.67683 0.0
C1007 C 0.86877 0.42366 0.63624 0.0
C1008 C 0.8844 0.41731 0.60609 0.0
C1009 C 0.88198 0.39439 0.61602 0.0
C1010 C 0.83397 0.4129 0.70936 0.0
C1011 C 0.90346 0.43464 0.56284 0.0
H1012 H 0.84243 0.46952 0.53216 0.0
H1013 H 0.89244 0.50459 0.67745 0.0
H1014 H 0.85093 0.41956 0.5161 0.0
H1015 H 0.82581 0.41107 0.56546 0.0
H1016 H 0.82992 0.43009 0.50148 0.0
H1017 H 0.91059 0.48569 0.72956 0.0
H1018 H 0.88818 0.45452 0.74401 0.0
H1019 H 0.91181 0.46142 0.69095 0.0
H1020 H 0.83574 0.37181 0.71717 0.0
H1021 H 0.89385 0.3895 0.59268 0.0
H1022 H 0.82259 0.41572 0.67628 0.0
H1023 H 0.84427 0.42999 0.73513 0.0
H1024 H 0.82184 0.39829 0.74082 0.0
H1025 H 0.89464 0.43802 0.52403 0.0
H1026 H 0.91511 0.42758 0.54572 0.0
H1027 H 0.91512 0.45234 0.5851 0.0
C1028 C 0.38512 0.85094 0.84408 0.0
C1029 C 0.37806 0.85611 0.78898 0.0
C1030 C 0.40875 0.85504 0.85257 0.0
C1031 C 0.42549 0.86389 0.80425 0.0
C1032 C 0.4186 0.86963 0.74893 0.0
C1033 C 0.39509 0.86596 0.74222 0.0
C1034 C 0.41557 0.84925 0.91274 0.0
C1035 C 0.43566 0.87854 0.69586 0.0
C1036 C 0.49259 0.88836 0.83597 0.0
C1037 C 0.4946 0.86768 0.82672 0.0
C1038 C 0.47022 0.88747 0.82875 0.0
C1039 C 0.44959 0.86555 0.81034 0.0
C1040 C 0.45181 0.84491 0.79878 0.0
C1041 C 0.47418 0.84613 0.80793 0.0
C1042 C 0.46847 0.9097 0.84284 0.0
C1043 C 0.43045 0.82136 0.7776 0.0
H1044 H 0.37208 0.84343 0.88043 0.0
H1045 H 0.38971 0.86979 0.69926 0.0
H1046 H 0.41847 0.83356 0.90813 0.0
H1047 H 0.43284 0.86483 0.92883 0.0
H1048 H 0.40136 0.8448 0.94727 0.0
H1049 H 0.428 0.88341 0.657 0.0
H1050 H 0.45315 0.89462 0.70861 0.0
H1051 H 0.43963 0.86423 0.68146 0.0
H1052 H 0.50826 0.90496 0.8513 0.0
H1053 H 0.47569 0.83012 0.80063 0.0
H1054 H 0.45566 0.90572 0.88065 0.0
H1055 H 0.46118 0.91471 0.80362 0.0
H1056 H 0.48629 0.92548 0.85526 0.0
H1057 H 0.41624 0.81398 0.81286 0.0
H1058 H 0.43558 0.8075 0.7669 0.0
H1059 H 0.42234 0.82453 0.73695 0.0
C1060 C 0.52469 0.39513 0.97713 0.0
C1061 C 0.52523 0.37873 0.93602 0.0
C1062 C 0.54549 0.41779 0.98788 0.0
C1063 C 0.56737 0.42406 0.95724 0.0
C1064 C 0.5679 0.40766 0.91528 0.0
C1065 C 0.54687 0.38532 0.90504 0.0
C1066 C 0.54418 0.43489 0.03261 0.0
C1067 C 0.59088 0.41346 0.88214 0.0
C1068 C 0.61998 0.48907 0.94781 0.0
C1069 C 0.63548 0.48919 0.99274 0.0
C1070 C 0.59734 0.46825 0.93698 0.0
C1071 C 0.59017 0.44702 0.97146 0.0
C1072 C 0.6056 0.4472 0.0174 0.0
C1073 C 0.62794 0.46825 0.02761 0.0
C1074 C 0.58127 0.46881 0.88795 0.0
C1075 C 0.59884 0.42492 0.05477 0.0
H1076 H 0.50803 0.39029 1.00094 0.0
H1077 H 0.54756 0.37283 0.87316 0.0
H1078 H 0.55631 0.43764 0.07119 0.0
H1079 H 0.55059 0.45287 0.01159 0.0
H1080 H 0.5255 0.42799 0.0499 0.0
H1081 H 0.58807 0.39909 0.84952 0.0
H1082 H 0.59797 0.43084 0.85757 0.0
H1083 H 0.60502 0.41567 0.91475 0.0
H1084 H 0.62556 0.50519 0.92094 0.0
H1085 H 0.63971 0.46807 0.06248 0.0
H1086 H 0.56289 0.46286 0.90593 0.0
H1087 H 0.57924 0.45596 0.85175 0.0
H1088 H 0.58867 0.48715 0.86803 0.0
H1089 H 0.58096 0.41844 0.07645 0.0
H1090 H 0.61243 0.42832 0.09028 0.0
H1091 H 0.59718 0.41009 0.02541 0.0
C1092 C 0.23867 0.44069 0.67906 0.0
C1093 C 0.24953 0.42624 0.67618 0.0
C1094 C 0.22279 0.43802 0.72585 0.0
C1095 C 0.21772 0.4206 0.77133 0.0
C1096 C 0.22775 0.40522 0.76738 0.0
C1097 C 0.24348 0.40815 0.71965 0.0
C1098 C 0.21234 0.45468 0.72803 0.0
C1099 C 0.22289 0.38654 0.81518 0.0
C1100 C 0.20367 0.43875 0.92137 0.0
C1101 C 0.17825 0.4254 0.92278 0.0
C1102 C 0.21671 0.43641 0.87373 0.0
C1103 C 0.20406 0.42044 0.82581 0.0
C1104 C 0.17844 0.4061 0.82807 0.0
C1105 C 0.1658 0.40866 0.8768 0.0
C1106 C 0.24403 0.45188 0.87348 0.0
C1107 C 0.16432 0.38899 0.77764 0.0
H1108 H 0.24298 0.45454 0.64536 0.0
H1109 H 0.25176 0.3969 0.71779 0.0
H1110 H 0.19242 0.44406 0.7346 0.0
H1111 H 0.2201 0.4672 0.76682 0.0
H1112 H 0.21623 0.46567 0.68646 0.0
H1113 H 0.22973 0.37421 0.80218 0.0
H1114 H 0.23189 0.39581 0.85763 0.0
H1115 H 0.20318 0.37553 0.82449 0.0
H1116 H 0.21347 0.45153 0.95706 0.0
H1117 H 0.14616 0.39834 0.87753 0.0
H1118 H 0.24985 0.46526 0.83634 0.0
H1119 H 0.25239 0.44049 0.86546 0.0
H1120 H 0.2512 0.46188 0.91637 0.0
H1121 H 0.16568 0.39958 0.73681 0.0
H1122 H 0.14485 0.37726 0.7891 0.0
H1123 H 0.17207 0.37731 0.76628 0.0
C1124 C 0.76849 0.1655 0.05083 0.0
C1125 C 0.76088 0.17705 0.09187 0.0
C1126 C 0.78392 0.17836 1.00265 0.0
C1127 C 0.7921 0.20339 0.99581 0.0
C1128 C 0.78537 0.21534 0.03874 0.0
C1129 C 0.76978 0.20203 0.08594 0.0
C1130 C 0.79053 0.16495 0.95755 0.0
C1131 C 0.79386 0.24205 0.03351 0.0
C1132 C 0.84387 0.24504 0.89184 0.0
C1133 C 0.8311 0.24773 0.844 0.0
C1134 C 0.83147 0.22979 0.9407 0.0
C1135 C 0.80577 0.21677 0.94114 0.0
C1136 C 0.7929 0.21836 0.89117 0.0
C1137 C 0.8057 0.2339 0.8435 0.0
C1138 C 0.84582 0.22871 0.99333 0.0
C1139 C 0.76552 0.20461 0.88936 0.0
H1140 H 0.76169 0.14621 0.055 0.0
H1141 H 0.76424 0.21121 0.11774 0.0
H1142 H 0.78169 0.16403 0.91392 0.0
H1143 H 0.81039 0.17477 0.94964 0.0
H1144 H 0.78478 0.14619 0.97237 0.0
H1145 H 0.78871 0.24903 0.07327 0.0
H1146 H 0.81384 0.25263 0.02822 0.0
H1147 H 0.7858 0.24532 0.99291 0.0
H1148 H 0.86349 0.25579 0.89261 0.0
H1149 H 0.79571 0.23571 0.80635 0.0
H1150 H 0.83918 0.20965 0.00671 0.0
H1151 H 0.84331 0.23803 0.03246 0.0
H1152 H 0.8655 0.23753 0.98319 0.0
H1153 H 0.75843 0.18518 0.89971 0.0
H1154 H 0.75837 0.206 0.84493 0.0
H1155 H 0.75837 0.21188 0.9241 0.0
C1156 C 0.60695 0.76397 0.21226 0.0
C1157 C 0.5888 0.7574 0.25586 0.0
C1158 C 0.60915 0.7793 0.16421 0.0
C1159 C 0.59305 0.78849 0.16023 0.0
C1160 C 0.57546 0.7828 0.20568 0.0
C1161 C 0.57345 0.76724 0.25261 0.0
C1162 C 0.62796 0.78474 0.1163 0.0
C1163 C 0.5581 0.79242 0.20359 0.0
C1164 C 0.60426 0.84066 0.05664 0.0
C1165 C 0.58775 0.82829 0.01018 0.0
C1166 C 0.60691 0.82794 0.10497 0.0
C1167 C 0.59298 0.80229 0.10625 0.0
C1168 C 0.57724 0.78973 0.05785 0.0
C1169 C 0.57471 0.80286 0.01073 0.0
C1170 C 0.62367 0.84197 0.15605 0.0
C1171 C 0.56228 0.76239 0.05697 0.0
H1172 H 0.61883 0.7564 0.21437 0.0
H1173 H 0.55954 0.76249 0.28643 0.0
H1174 H 0.61881 0.77598 0.07354 0.0
H1175 H 0.63873 0.80453 0.10784 0.0
H1176 H 0.6405 0.77809 0.12867 0.0
H1177 H 0.54688 0.78798 0.24493 0.0
H1178 H 0.56821 0.81238 0.19769 0.0
H1179 H 0.54579 0.78456 0.16446 0.0
H1180 H 0.6143 0.8603 0.0566 0.0
H1181 H 0.56209 0.79315 0.97466 0.0
H1182 H 0.63581 0.8347 0.16682 0.0
H1183 H 0.61282 0.83991 0.19691 0.0
H1184 H 0.63495 0.86159 0.14563 0.0
H1185 H 0.57399 0.75439 0.065 0.0
H1186 H 0.55259 0.75535 0.01366 0.0
H1187 H 0.54866 0.75607 0.09364 0.0
C1188 C 0.84808 0.60695 0.38346 0.0
C1189 C 0.83489 0.58947 0.42743 0.0
C1190 C 0.83622 0.61035 0.33423 0.0
C1191 C 0.81067 0.59604 0.32932 0.0
C1192 C 0.79723 0.5796 0.37582 0.0
C1193 C 0.80949 0.57649 0.42411 0.0
C1194 C 0.85117 0.62807 0.28561 0.0
C1195 C 0.76995 0.56406 0.37271 0.0
C1196 C 0.77184 0.60654 0.21702 0.0
C1197 C 0.76687 0.58829 0.17478 0.0
C1198 C 0.78728 0.61036 0.26613 0.0
C1199 C 0.79803 0.59568 0.27271 0.0
C1200 C 0.79428 0.57835 0.22801 0.0
C1201 C 0.77875 0.57485 0.17978 0.0
C1202 C 0.79086 0.62902 0.31283 0.0
C1203 C 0.80548 0.56239 0.23295 0.0
H1204 H 0.8677 0.61701 0.38571 0.0
H1205 H 0.79914 0.56316 0.45832 0.0
H1206 H 0.85152 0.61794 0.24544 0.0
H1207 H 0.84299 0.63912 0.27179 0.0
H1208 H 0.87014 0.64039 0.30027 0.0
H1209 H 0.76206 0.55403 0.41522 0.0
H1210 H 0.76166 0.57536 0.36266 0.0
H1211 H 0.76486 0.55068 0.33576 0.0
H1212 H 0.76272 0.61697 0.21349 0.0
H1213 H 0.77527 0.56092 0.14692 0.0
H1214 H 0.81026 0.64002 0.3254 0.0
H1215 H 0.78064 0.61971 0.35407 0.0
H1216 H 0.78441 0.64133 0.29691 0.0
H1217 H 0.82522 0.57351 0.24168 0.0
H1218 H 0.80269 0.5515 0.19167 0.0
H1219 H 0.79729 0.54977 0.27143 0.0
C1220 C 0.20635 0.77676 0.33922 0.0
C1221 C 0.18093 0.76422 0.33956 0.0
C1222 C 0.21968 0.79214 0.38669 0.0
C1223 C 0.20732 0.79472 0.43649 0.0
C1224 C 0.18164 0.78289 0.43598 0.0
C1225 C 0.16873 0.76792 0.38714 0.0
C1226 C 0.24702 0.80471 0.38481 0.0
C1227 C 0.16778 0.78487 0.48855 0.0
C1228 C 0.243 0.80788 0.58145 0.0
C1229 C 0.25291 0.833 0.5876 0.0
C1230 C 0.22718 0.79509 0.53416 0.0
C1231 C 0.22132 0.80772 0.4912 0.0
C1232 C 0.23056 0.83295 0.49824 0.0
C1233 C 0.24612 0.84528 0.54668 0.0
C1234 C 0.2175 0.76814 0.52893 0.0
C1235 C 0.22497 0.8471 0.45302 0.0
H1236 H 0.21587 0.77411 0.30226 0.0
H1237 H 0.14907 0.75811 0.38777 0.0
H1238 H 0.25501 0.82425 0.39527 0.0
H1239 H 0.25355 0.7968 0.41941 0.0
H1240 H 0.25386 0.8029 0.3403 0.0
H1241 H 0.14817 0.77688 0.47849 0.0
H1242 H 0.16974 0.77525 0.52781 0.0
H1243 H 0.17528 0.8041 0.50171 0.0
H1244 H 0.24791 0.79818 0.61323 0.0
H1245 H 0.25377 0.8647 0.55101 0.0
H1246 H 0.22528 0.76437 0.48854 0.0
H1247 H 0.19752 0.75837 0.5233 0.0
H1248 H 0.222 0.76069 0.56885 0.0
H1249 H 0.2337 0.84758 0.40951 0.0
H1250 H 0.23156 0.86603 0.46787 0.0
H1251 H 0.20516 0.83813 0.44487 0.0
C1252 C 0.43907 0.23588 0.7476 0.0
C1253 C 0.42677 0.24897 0.74913 0.0
C1254 C 0.43579 0.22011 0.70008 0.0
C1255 C 0.41988 0.21741 0.65252 0.0
C1256 C 0.40634 0.22948 0.6554 0.0
C1257 C 0.40988 0.24509 0.70388 0.0
C1258 C 0.45046 0.20746 0.6991 0.0
C1259 C 0.38926 0.22711 0.60551 0.0
C1260 C 0.43989 0.20415 0.50419 0.0
C1261 C 0.42508 0.1789 0.49959 0.0
C1262 C 0.43745 0.217 0.55216 0.0
C1263 C 0.41984 0.20432 0.59707 0.0
C1264 C 0.40404 0.179 0.59135 0.0
C1265 C 0.40679 0.16657 0.54246 0.0
C1266 C 0.45458 0.24402 0.55622 0.0
C1267 C 0.3851 0.16487 0.63842 0.0
H1268 H 0.45195 0.23853 0.78275 0.0
H1269 H 0.40032 0.25514 0.70466 0.0
H1270 H 0.43859 0.18785 0.68976 0.0
H1271 H 0.46411 0.21509 0.66252 0.0
H1272 H 0.46012 0.20953 0.74219 0.0
H1273 H 0.37768 0.23486 0.6182 0.0
H1274 H 0.3999 0.23678 0.56506 0.0
H1275 H 0.37742 0.20782 0.59296 0.0
H1276 H 0.45389 0.21392 0.47093 0.0
H1277 H 0.39529 0.14707 0.53927 0.0
H1278 H 0.46684 0.24812 0.59531 0.0
H1279 H 0.44429 0.2536 0.56342 0.0
H1280 H 0.46586 0.25144 0.51516 0.0
H1281 H 0.39413 0.16425 0.68046 0.0
H1282 H 0.37238 0.14598 0.62386 0.0
H1283 H 0.37455 0.17392 0.64914 0.0
C1284 C 0.05848 0.40612 0.89336 0.0
C1285 C 0.06519 0.39582 0.93992 0.0
C1286 C 0.03452 0.39461 0.8716 0.0
C1287 C 0.01689 0.37211 0.89639 0.0
C1288 C 0.02361 0.3616 0.94319 0.0
C1289 C 0.04757 0.37362 0.96458 0.0
C1290 C 0.02804 0.40655 0.8221 0.0
C1291 C 1.00553 0.3375 0.97038 0.0
C1292 C 0.94941 0.34986 0.87777 0.0
C1293 C 0.94322 0.33367 0.82945 0.0
C1294 C 0.97337 0.36279 0.8994 0.0
C1295 C 0.99154 0.35922 0.87266 0.0
C1296 C 0.98535 0.34283 0.82404 0.0
C1297 C 0.96136 0.3304 0.80283 0.0
C1298 C 0.97927 0.38028 0.95089 0.0
C1299 C 1.00403 0.33821 0.79473 0.0
H1300 H 0.0719 0.42332 0.87429 0.0
H1301 H 0.05255 0.36544 1.00042 0.0
H1302 H 0.02162 0.39461 0.78203 0.0
H1303 H 0.01296 0.4093 0.83689 0.0
H1304 H 0.04364 0.42435 0.80872 0.0
H1305 H 0.01363 0.33176 0.00644 0.0
H1306 H 0.98999 0.33853 0.98949 0.0
H1307 H 0.99821 0.32333 0.93502 0.0
H1308 H 0.93558 0.35264 0.89835 0.0
H1309 H 0.95678 0.31789 0.7656 0.0
H1310 H 0.99392 0.39859 0.93753 0.0
H1311 H 0.98605 0.3745 0.98975 0.0
H1312 H 0.96329 0.38156 0.96559 0.0
H1313 H 0.01918 0.3554 0.77693 0.0
H1314 H 0.99631 0.32495 0.7573 0.0
H1315 H 0.01179 0.33122 0.82854 0.0
C1316 C 0.60937 0.94784 0.04463 0.0
C1317 C 0.61899 0.94132 0.99611 0.0
C1318 C 0.62127 0.97168 0.06725 0.0
C1319 C 0.64347 0.98937 0.04126 0.0
C1320 C 0.65333 0.98283 0.99257 0.0
C1321 C 0.64093 0.95899 0.97043 0.0
C1322 C 0.61002 0.97797 0.1188 0.0
C1323 C 0.67707 1.001 0.96394 0.0
C1324 C 0.66528 0.05662 0.06182 0.0
C1325 C 0.68215 0.06297 0.10865 0.0
C1326 C 0.65235 0.03271 0.04002 0.0
C1327 C 0.65655 0.01471 0.06509 0.0
C1328 C 0.67364 0.02104 0.11216 0.0
C1329 C 0.6861 0.04501 0.13358 0.0
C1330 C 0.63412 0.02668 0.99021 0.0
C1331 C 0.67891 1.00252 0.13967 0.0
H1332 H 0.59238 0.93438 0.06458 0.0
H1333 H 0.6486 0.95416 0.93309 0.0
H1334 H 0.62261 0.98449 0.15765 0.0
H1335 H 0.60684 0.99291 0.10544 0.0
H1336 H 0.59253 0.96226 0.13349 0.0
H1337 H 0.68242 0.99297 0.92686 0.0
H1338 H 0.67571 0.01648 0.9458 0.0
H1339 H 0.69167 0.00837 0.99822 0.0
H1340 H 0.66194 0.0703 0.04258 0.0
H1341 H 0.6991 0.04971 0.16972 0.0
H1342 H 0.61604 0.01196 0.00482 0.0
H1343 H 0.63944 0.01998 0.95034 0.0
H1344 H 0.6325 0.04257 0.97657 0.0
H1345 H 0.66205 0.98728 0.15863 0.0
H1346 H 0.69272 0.01033 0.1759 0.0
H1347 H 0.68549 0.99486 0.10453 0.0
C1348 C 0.68615 0.63692 0.1318 0.0
C1349 C 0.68301 0.61585 0.16011 0.0
C1350 C 0.67456 0.64925 0.15339 0.0
C1351 C 0.65915 0.64016 0.20413 0.0
C1352 C 0.65573 0.6188 0.23266 0.0
C1353 C 0.66783 0.607 0.21059 0.0
C1354 C 0.67898 0.67212 0.12208 0.0
C1355 C 0.63923 0.60835 0.28641 0.0
C1356 C 0.64659 0.68352 0.29419 0.0
C1357 C 0.62397 0.6785 0.27159 0.0
C1358 C 0.65823 0.67126 0.27254 0.0
C1359 C 0.64688 0.65323 0.22771 0.0
C1360 C 0.62398 0.64797 0.20493 0.0
C1361 C 0.61289 0.66077 0.22681 0.0
C1362 C 0.68276 0.67768 0.29748 0.0
C1363 C 0.61112 0.6287 0.15766 0.0
H1364 H 0.69791 0.64398 0.09291 0.0
H1365 H 0.66516 0.59066 0.23253 0.0
H1366 H 0.66159 0.66994 0.1055 0.0
H1367 H 0.68664 0.68746 0.15431 0.0
H1368 H 0.69162 0.6769 0.08347 0.0
H1369 H 0.63808 0.59133 0.3027 0.0
H1370 H 0.64584 0.6217 0.32368 0.0
H1371 H 0.62072 0.60454 0.27475 0.0
H1372 H 0.65534 0.69722 0.32868 0.0
H1373 H 0.59534 0.65662 0.2094 0.0
H1374 H 0.69627 0.68371 0.26058 0.0
H1375 H 0.68195 0.66147 0.3182 0.0
H1376 H 0.68925 0.69228 0.33179 0.0
H1377 H 0.62242 0.63341 0.1165 0.0
H1378 H 0.5932 0.62643 0.14547 0.0
H1379 H 0.60842 0.61108 0.17407 0.0
C1380 C 0.06235 0.66575 0.3748 0.0
C1381 C 0.06838 0.68294 0.32891 0.0
C1382 C 0.03852 0.6525 0.39709 0.0
C1383 C 0.02032 0.65677 0.37362 0.0
C1384 C 0.02639 0.6743 0.32779 0.0
C1385 C 0.05024 0.68701 0.30573 0.0
C1386 C 0.03276 0.63376 0.44541 0.0
C1387 C 0.00767 0.67971 0.30213 0.0
C1388 C 0.95351 0.60908 0.39158 0.0
C1389 C 0.94677 0.6179 0.44135 0.0
C1390 C 0.97744 0.62134 0.36958 0.0
C1391 C 0.99499 0.64315 0.3974 0.0
C1392 C 0.98824 0.65219 0.44743 0.0
C1393 C 0.96431 0.63939 0.46903 0.0
C1394 C 0.98396 0.61091 0.31666 0.0
C1395 C 1.00624 0.67554 0.47786 0.0
H1396 H 0.07618 0.66233 0.39264 0.0
H1397 H 0.05472 0.7003 0.27039 0.0
H1398 H 0.02586 0.63842 0.48608 0.0
H1399 H 0.01822 0.61577 0.42971 0.0
H1400 H 0.04882 0.63229 0.45816 0.0
H1401 H 0.01537 0.69411 0.26727 0.0
H1402 H 0.99258 0.66308 0.28188 0.0
H1403 H 0.99983 0.68554 0.33855 0.0
H1404 H 0.94013 0.59242 0.37016 0.0
H1405 H 0.95929 0.64642 0.50735 0.0
H1406 H 0.99912 0.60789 0.3289 0.0
H1407 H 0.99028 0.62394 0.27871 0.0
H1408 H 0.96842 0.59348 0.30109 0.0
H1409 H 0.02183 0.67412 0.49487 0.0
H1410 H 0.99809 0.6802 0.51605 0.0
H1411 H 0.01347 0.69064 0.44496 0.0
C1412 C 0.4036 0.05984 0.53376 0.0
C1413 C 0.39375 0.06609 0.48527 0.0
C1414 C 0.39203 0.03605 0.55658 0.0
C1415 C 0.3699 0.01811 0.53083 0.0
C1416 C 0.35983 0.02435 0.48207 0.0
C1417 C 0.37192 0.04817 0.4597 0.0
C1418 C 0.40351 0.03008 0.60819 0.0
C1419 C 0.33615 0.00591 0.45374 0.0
C1420 C 0.34881 0.95113 0.55423 0.0
C1421 C 0.33219 0.94502 0.60155 0.0
C1422 C 0.36139 0.97487 0.53118 0.0
C1423 C 0.35704 0.9929 0.55546 0.0
C1424 C 0.34012 0.98676 0.60287 0.0
C1425 C 0.32805 0.96299 0.62555 0.0
C1426 C 0.37947 0.98071 0.48108 0.0
C1427 C 0.33468 1.0053 0.62954 0.0
H1428 H 0.42053 0.07349 0.55357 0.0
H1429 H 0.36409 0.05279 0.42233 0.0
H1430 H 0.39106 0.02373 0.64733 0.0
H1431 H 0.40671 0.01511 0.59525 0.0
H1432 H 0.42103 0.0459 0.6223 0.0
H1433 H 0.33069 0.01367 0.41627 0.0
H1434 H 0.33764 0.99042 0.43624 0.0
H1435 H 0.32156 0.99862 0.48807 0.0
H1436 H 0.35227 0.93743 0.53569 0.0
H1437 H 0.3152 0.95846 0.66201 0.0
H1438 H 0.39757 0.99555 0.49518 0.0
H1439 H 0.37399 0.98719 0.44106 0.0
H1440 H 0.38112 0.9648 0.46786 0.0
H1441 H 0.35149 0.0207 0.6482 0.0
H1442 H 0.32088 0.99759 0.66584 0.0
H1443 H 0.32801 0.01271 0.59399 0.0
C1444 C 0.32237 0.37191 0.66954 0.0
C1445 C 0.33739 0.39635 0.6544 0.0
C1446 C 0.33216 0.35798 0.6917 0.0
C1447 C 0.35765 0.3685 0.69671 0.0
C1448 C 0.3729 0.39312 0.68069 0.0
C1449 C 0.36257 0.40685 0.66071 0.0
C1450 C 0.31521 0.33203 0.71002 0.0
C1451 C 0.40015 0.40482 0.68346 0.0
C1452 C 0.38378 0.33971 0.80019 0.0
C1453 C 0.38751 0.32484 0.76035 0.0
C1454 C 0.37388 0.35383 0.78021 0.0
C1455 C 0.36833 0.35371 0.71852 0.0
C1456 C 0.37275 0.33925 0.67782 0.0
C1457 C 0.38187 0.32465 0.69943 0.0
C1458 C 0.3688 0.36839 0.8254 0.0
C1459 C 0.36785 0.3392 0.61144 0.0
H1460 H 0.30289 0.36377 0.66481 0.0
H1461 H 0.37426 0.42566 0.64823 0.0
H1462 H 0.31835 0.31962 0.68142 0.0
H1463 H 0.3189 0.32918 0.75717 0.0
H1464 H 0.29585 0.32694 0.70618 0.0
H1465 H 0.40948 0.42395 0.66792 0.0
H1466 H 0.40599 0.40436 0.73014 0.0
H1467 H 0.4062 0.39451 0.65512 0.0
H1468 H 0.38787 0.3397 0.84748 0.0
H1469 H 0.38485 0.31325 0.66851 0.0
H1470 H 0.34924 0.36269 0.8245 0.0
H1471 H 0.37904 0.3879 0.81352 0.0
H1472 H 0.37376 0.3662 0.87188 0.0
H1473 H 0.34822 0.33199 0.60378 0.0
H1474 H 0.37357 0.32807 0.58532 0.0
H1475 H 0.37757 0.35801 0.59377 0.0
loop_
_geom_bond_atom_site_label_1
_geom_bond_atom_site_label_2
_geom_bond_distance
_geom_bond_site_symmetry_2
_ccdc_geom_bond_type
Co0 O2 2.143 . S
Co0 O8 2.074 1_554 S
Co0 O11 2.093 . S
Co0 O24 2.097 . S
Co0 N41 2.151 1_554 S
Co0 N49 2.214 . S
Co1 O2 2.160 . S
Co1 O7 2.058 1_554 S
Co1 O17 2.057 . S
Co1 O32 2.037 . S
Co1 N36 2.145 . S
Co1 N57 2.257 . S
O2 Co0 2.143 . S
O2 Co1 2.160 . S
C3 O4 1.278 . S
C3 O11 1.224 . S
O4 C3 1.278 . S
C5 O6 1.245 . S
C5 O17 1.232 1_556 S
O6 C5 1.245 . S
O7 Co1 2.058 1_556 S
O7 C33 1.269 . S
O8 Co0 2.074 1_556 S
O8 C33 1.257 . S
H9 C34 0.930 . S
H10 C40 0.930 . S
O11 Co0 2.093 . S
O11 C3 1.224 . S
H12 C44 0.929 . S
H13 C46 0.930 . S
H14 C47 0.930 . S
H15 C45 0.929 . S
H16 C48 0.928 . S
O17 Co1 2.057 . S
O17 C5 1.232 1_554 S
H18 C37 0.929 . S
H19 C38 0.929 . S
H20 C50 0.931 . S
H21 C42 0.929 . S
H22 C51 0.930 . S
H23 C43 0.931 . S
O24 Co0 2.097 . S
O24 C52 1.214 . S
H25 C53 0.929 . S
H26 C54 0.929 . S
H27 C55 0.930 . S
H28 C56 0.929 . S
H29 C58 0.930 . S
H30 C35 0.930 . S
H31 C39 0.930 . S
O32 Co1 2.037 . S
O32 C52 1.234 . S
C33 O7 1.269 . S
C33 O8 1.257 . S
C34 H9 0.930 . S
C34 C37 1.388 . S
C34 C39 1.418 . S
C35 H30 0.930 . S
C35 C38 1.404 . S
C35 C39 1.353 . S
N36 Co1 2.145 . S
N36 C37 1.397 . S
N36 C38 1.334 . S
C37 H18 0.929 . S
C37 C34 1.388 . S
C37 N36 1.397 . S
C38 H19 0.929 . S
C38 C35 1.404 . S
C38 N36 1.334 . S
C39 H31 0.930 . S
C39 C34 1.418 . S
C39 C35 1.353 . S
C40 H10 0.930 . S
C40 N41 1.330 . S
C40 C42 1.446 . S
N41 Co0 2.151 1_556 S
N41 C40 1.330 . S
N41 C45 1.418 . S
C42 H21 0.929 . S
C42 C40 1.446 . S
C42 C43 1.332 . S
C43 H23 0.931 . S
C43 C42 1.332 . S
C43 C44 1.267 . S
C44 H12 0.929 . S
C44 C43 1.267 . S
C44 C45 1.251 . S
C45 H15 0.929 . S
C45 N41 1.418 . S
C45 C44 1.251 . S
C46 H13 0.930 . S
C46 C48 1.406 . S
C46 C51 1.261 . S
C47 H14 0.930 . S
C47 N49 1.325 . S
C47 C50 1.357 . S
C48 H16 0.928 . S
C48 C46 1.406 . S
C48 N49 1.261 . S
N49 Co0 2.214 . S
N49 C47 1.325 . S
N49 C48 1.261 . S
C50 H20 0.931 . S
C50 C47 1.357 . S
C50 C51 1.312 . S
C51 H22 0.930 . S
C51 C46 1.261 . S
C51 C50 1.312 . S
C52 O24 1.214 . S
C52 O32 1.234 . S
C53 H25 0.929 . S
C53 C56 1.391 . S
C53 C58 1.391 . S
C54 H26 0.929 . S
C54 C55 1.390 . S
C54 N57 1.391 . S
C55 H27 0.930 . S
C55 C54 1.390 . S
C55 C56 1.392 . S
C56 H28 0.929 . S
C56 C53 1.391 . S
C56 C55 1.392 . S
N57 Co1 2.257 . S
N57 C54 1.391 . S
N57 C58 1.388 . S
C58 H29 0.930 . S
C58 C53 1.391 . S
C58 N57 1.388 . S
Co59 O61 2.143 . S
Co59 O67 2.074 . S
Co59 O70 2.093 . S
Co59 O83 2.097 . S
Co59 N100 2.151 . S
Co59 N108 2.214 . S
Co60 O61 2.160 . S
Co60 O66 2.058 . S
Co60 O76 2.057 . S
Co60 O91 2.037 . S
Co60 N95 2.145 . S
Co60 N116 2.257 . S
O61 Co59 2.143 . S
O61 Co60 2.160 . S
C62 O63 1.278 . S
C62 O70 1.224 . S
O63 C62 1.278 . S
C64 O65 1.245 . S
C64 O76 1.232 . S
O65 C64 1.245 . S
O66 Co60 2.058 . S
O66 C92 1.269 . S
O67 Co59 2.074 . S
O67 C92 1.257 . S
H68 C93 0.930 . S
H69 C99 0.930 . S
O70 Co59 2.093 . S
O70 C62 1.224 . S
H71 C103 0.929 . S
H72 C105 0.930 . S
H73 C106 0.930 . S
H74 C104 0.929 . S
H75 C107 0.928 . S
O76 Co60 2.057 . S
O76 C64 1.232 . S
H77 C96 0.929 . S
H78 C97 0.929 . S
H79 C109 0.931 . S
H80 C101 0.929 . S
H81 C110 0.930 . S
H82 C102 0.931 1_556 S
O83 Co59 2.097 . S
O83 C111 1.214 . S
H84 C112 0.929 . S
H85 C113 0.929 . S
H86 C114 0.930 . S
H87 C115 0.929 . S
H88 C117 0.930 . S
H89 C94 0.930 . S
H90 C98 0.930 . S
O91 Co60 2.037 . S
O91 C111 1.234 . S
C92 O66 1.269 . S
C92 O67 1.257 . S
C93 H68 0.930 . S
C93 C96 1.388 . S
C93 C98 1.418 . S
C94 H89 0.930 . S
C94 C97 1.404 . S
C94 C98 1.353 . S
N95 Co60 2.145 . S
N95 C96 1.397 . S
N95 C97 1.334 . S
C96 H77 0.929 . S
C96 C93 1.388 . S
C96 N95 1.397 . S
C97 H78 0.929 . S
C97 C94 1.404 . S
C97 N95 1.334 . S
C98 H90 0.930 . S
C98 C93 1.418 . S
C98 C94 1.353 . S
C99 H69 0.930 . S
C99 N100 1.330 . S
C99 C101 1.446 . S
N100 Co59 2.151 . S
N100 C99 1.330 . S
N100 C104 1.418 . S
C101 H80 0.929 . S
C101 C99 1.446 . S
C101 C102 1.332 . S
C102 H82 0.931 1_554 S
C102 C101 1.332 . S
C102 C103 1.267 . S
C103 H71 0.929 . S
C103 C102 1.267 . S
C103 C104 1.251 . S
C104 H74 0.929 . S
C104 N100 1.418 . S
C104 C103 1.251 . S
C105 H72 0.930 . S
C105 C107 1.406 . S
C105 C110 1.261 . S
C106 H73 0.930 . S
C106 N108 1.325 . S
C106 C109 1.357 . S
C107 H75 0.928 . S
C107 C105 1.406 . S
C107 N108 1.261 . S
N108 Co59 2.214 . S
N108 C106 1.325 . S
N108 C107 1.261 . S
C109 H79 0.931 . S
C109 C106 1.357 . S
C109 C110 1.312 . S
C110 H81 0.930 . S
C110 C105 1.261 . S
C110 C109 1.312 . S
C111 O83 1.214 . S
C111 O91 1.234 . S
C112 H84 0.929 . S
C112 C115 1.391 . S
C112 C117 1.391 . S
C113 H85 0.929 . S
C113 C114 1.390 . S
C113 N116 1.391 . S
C114 H86 0.930 . S
C114 C113 1.390 . S
C114 C115 1.392 . S
C115 H87 0.929 . S
C115 C112 1.391 . S
C115 C114 1.392 . S
N116 Co60 2.257 . S
N116 C113 1.391 . S
N116 C117 1.388 . S
C117 H88 0.930 . S
C117 C112 1.391 . S
C117 N116 1.388 . S
Co118 O120 2.143 . S
Co118 O126 2.074 . S
Co118 O129 2.093 . S
Co118 O142 2.097 . S
Co118 N159 2.151 . S
Co118 N167 2.214 . S
Co119 O120 2.160 . S
Co119 O125 2.058 . S
Co119 O135 2.057 . S
Co119 O150 2.037 . S
Co119 N154 2.145 . S
Co119 N175 2.257 . S
O120 Co118 2.143 . S
O120 Co119 2.160 . S
C121 O122 1.278 . S
C121 O129 1.224 . S
O122 C121 1.278 . S
C123 O124 1.245 . S
C123 O135 1.232 . S
O124 C123 1.245 . S
O125 Co119 2.058 . S
O125 C151 1.269 . S
O126 Co118 2.074 . S
O126 C151 1.257 . S
H127 C152 0.930 . S
H128 C158 0.930 . S
O129 Co118 2.093 . S
O129 C121 1.224 . S
H130 C162 0.929 . S
H131 C164 0.930 . S
H132 C165 0.930 . S
H133 C163 0.929 . S
H134 C166 0.928 . S
O135 Co119 2.057 . S
O135 C123 1.232 . S
H136 C155 0.929 . S
H137 C156 0.929 . S
H138 C168 0.931 . S
H139 C160 0.929 . S
H140 C169 0.930 . S
H141 C161 0.931 . S
O142 Co118 2.097 . S
O142 C170 1.214 . S
H143 C171 0.929 . S
H144 C172 0.929 . S
H145 C173 0.930 . S
H146 C174 0.929 . S
H147 C176 0.930 . S
H148 C153 0.930 . S
H149 C157 0.930 . S
O150 Co119 2.037 . S
O150 C170 1.234 . S
C151 O125 1.269 . S
C151 O126 1.257 . S
C152 H127 0.930 . S
C152 C155 1.388 . S
C152 C157 1.418 . S
C153 H148 0.930 . S
C153 C156 1.404 . S
C153 C157 1.353 . S
N154 Co119 2.145 . S
N154 C155 1.397 . S
N154 C156 1.334 . S
C155 H136 0.929 . S
C155 C152 1.388 . S
C155 N154 1.397 . S
C156 H137 0.929 . S
C156 C153 1.404 . S
C156 N154 1.334 . S
C157 H149 0.930 . S
C157 C152 1.418 . S
C157 C153 1.353 . S
C158 H128 0.930 . S
C158 N159 1.330 . S
C158 C160 1.446 . S
N159 Co118 2.151 . S
N159 C158 1.330 . S
N159 C163 1.418 . S
C160 H139 0.929 . S
C160 C158 1.446 . S
C160 C161 1.332 . S
C161 H141 0.931 . S
C161 C160 1.332 . S
C161 C162 1.267 . S
C162 H130 0.929 . S
C162 C161 1.267 . S
C162 C163 1.251 . S
C163 H133 0.929 . S
C163 N159 1.418 . S
C163 C162 1.251 . S
C164 H131 0.930 . S
C164 C166 1.406 . S
C164 C169 1.261 . S
C165 H132 0.930 . S
C165 N167 1.325 . S
C165 C168 1.357 . S
C166 H134 0.928 . S
C166 C164 1.406 . S
C166 N167 1.261 . S
N167 Co118 2.214 . S
N167 C165 1.325 . S
N167 C166 1.261 . S
C168 H138 0.931 . S
C168 C165 1.357 . S
C168 C169 1.312 . S
C169 H140 0.930 . S
C169 C164 1.261 . S
C169 C168 1.312 . S
C170 O142 1.214 . S
C170 O150 1.234 . S
C171 H143 0.929 . S
C171 C174 1.391 . S
C171 C176 1.391 . S
C172 H144 0.929 . S
C172 C173 1.390 . S
C172 N175 1.391 . S
C173 H145 0.930 . S
C173 C172 1.390 . S
C173 C174 1.392 . S
C174 H146 0.929 . S
C174 C171 1.391 . S
C174 C173 1.392 . S
N175 Co119 2.257 . S
N175 C172 1.391 . S
N175 C176 1.388 . S
C176 H147 0.930 . S
C176 C171 1.391 . S
C176 N175 1.388 . S
Co177 O179 2.143 . S
Co177 O185 2.074 . S
Co177 O188 2.093 . S
Co177 O201 2.097 . S
Co177 N218 2.151 . S
Co177 N226 2.214 . S
Co178 O179 2.160 . S
Co178 O184 2.058 . S
Co178 O194 2.057 . S
Co178 O209 2.037 . S
Co178 N213 2.145 . S
Co178 N234 2.257 . S
O179 Co177 2.143 . S
O179 Co178 2.160 . S
C180 O181 1.278 . S
C180 O188 1.224 . S
O181 C180 1.278 . S
C182 O183 1.245 . S
C182 O194 1.232 . S
O183 C182 1.245 . S
O184 Co178 2.058 . S
O184 C210 1.269 . S
O185 Co177 2.074 . S
O185 C210 1.257 . S
H186 C211 0.930 . S
H187 C217 0.930 . S
O188 Co177 2.093 . S
O188 C180 1.224 . S
H189 C221 0.929 . S
H190 C223 0.930 . S
H191 C224 0.930 . S
H192 C222 0.929 . S
H193 C225 0.928 . S
O194 Co178 2.057 . S
O194 C182 1.232 . S
H195 C214 0.929 . S
H196 C215 0.929 . S
H197 C227 0.931 . S
H198 C219 0.929 . S
H199 C228 0.930 . S
H200 C220 0.931 . S
O201 Co177 2.097 . S
O201 C229 1.214 . S
H202 C230 0.929 . S
H203 C231 0.929 . S
H204 C232 0.930 . S
H205 C233 0.929 . S
H206 C235 0.930 . S
H207 C212 0.930 . S
H208 C216 0.930 . S
O209 Co178 2.037 . S
O209 C229 1.234 . S
C210 O184 1.269 . S
C210 O185 1.257 . S
C211 H186 0.930 . S
C211 C214 1.388 . S
C211 C216 1.418 . S
C212 H207 0.930 . S
C212 C215 1.404 . S
C212 C216 1.353 . S
N213 Co178 2.145 . S
N213 C214 1.397 . S
N213 C215 1.334 . S
C214 H195 0.929 . S
C214 C211 1.388 . S
C214 N213 1.397 . S
C215 H196 0.929 . S
C215 C212 1.404 . S
C215 N213 1.334 . S
C216 H208 0.930 . S
C216 C211 1.418 . S
C216 C212 1.353 . S
C217 H187 0.930 . S
C217 N218 1.330 . S
C217 C219 1.446 . S
N218 Co177 2.151 . S
N218 C217 1.330 . S
N218 C222 1.418 . S
C219 H198 0.929 . S
C219 C217 1.446 . S
C219 C220 1.332 . S
C220 H200 0.931 . S
C220 C219 1.332 . S
C220 C221 1.267 . S
C221 H189 0.929 . S
C221 C220 1.267 . S
C221 C222 1.251 . S
C222 H192 0.929 . S
C222 N218 1.418 . S
C222 C221 1.251 . S
C223 H190 0.930 . S
C223 C225 1.406 . S
C223 C228 1.261 . S
C224 H191 0.930 . S
C224 N226 1.325 . S
C224 C227 1.357 . S
C225 H193 0.928 . S
C225 C223 1.406 . S
C225 N226 1.261 . S
N226 Co177 2.214 . S
N226 C224 1.325 . S
N226 C225 1.261 . S
C227 H197 0.931 . S
C227 C224 1.357 . S
C227 C228 1.312 . S
C228 H199 0.930 . S
C228 C223 1.261 . S
C228 C227 1.312 . S
C229 O201 1.214 . S
C229 O209 1.234 . S
C230 H202 0.929 . S
C230 C233 1.391 . S
C230 C235 1.391 . S
C231 H203 0.929 . S
C231 C232 1.390 . S
C231 N234 1.391 . S
C232 H204 0.930 . S
C232 C231 1.390 . S
C232 C233 1.392 . S
C233 H205 0.929 . S
C233 C230 1.391 . S
C233 C232 1.392 . S
N234 Co178 2.257 . S
N234 C231 1.391 . S
N234 C235 1.388 . S
C235 H206 0.930 . S
C235 C230 1.391 . S
C235 N234 1.388 . S
Co236 O238 2.143 . S
Co236 O244 2.074 . S
Co236 O247 2.093 . S
Co236 O260 2.097 . S
Co236 N277 2.151 . S
Co236 N285 2.214 . S
Co237 O238 2.160 . S
Co237 O243 2.058 . S
Co237 O253 2.057 . S
Co237 O268 2.037 . S
Co237 N272 2.145 . S
Co237 N293 2.257 . S
O238 Co236 2.143 . S
O238 Co237 2.160 . S
C239 O240 1.278 . S
C239 O247 1.224 . S
O240 C239 1.278 . S
C241 O242 1.245 . S
C241 O253 1.232 . S
O242 C241 1.245 . S
O243 Co237 2.058 . S
O243 C269 1.269 . S
O244 Co236 2.074 . S
O244 C269 1.257 . S
H245 C270 0.930 . S
H246 C276 0.930 . S
O247 Co236 2.093 . S
O247 C239 1.224 . S
H248 C280 0.929 . S
H249 C282 0.930 . S
H250 C283 0.930 . S
H251 C281 0.929 . S
H252 C284 0.928 . S
O253 Co237 2.057 . S
O253 C241 1.232 . S
H254 C273 0.929 . S
H255 C274 0.929 . S
H256 C286 0.931 . S
H257 C278 0.929 . S
H258 C287 0.930 . S
H259 C279 0.931 . S
O260 Co236 2.097 . S
O260 C288 1.214 . S
H261 C289 0.929 . S
H262 C290 0.929 . S
H263 C291 0.930 . S
H264 C292 0.929 . S
H265 C294 0.930 . S
H266 C271 0.930 . S
H267 C275 0.930 . S
O268 Co237 2.037 . S
O268 C288 1.234 . S
C269 O243 1.269 . S
C269 O244 1.257 . S
C270 H245 0.930 . S
C270 C273 1.388 . S
C270 C275 1.418 . S
C271 H266 0.930 . S
C271 C274 1.404 . S
C271 C275 1.353 . S
N272 Co237 2.145 . S
N272 C273 1.397 . S
N272 C274 1.334 . S
C273 H254 0.929 . S
C273 C270 1.388 . S
C273 N272 1.397 . S
C274 H255 0.929 . S
C274 C271 1.404 . S
C274 N272 1.334 . S
C275 H267 0.930 . S
C275 C270 1.418 . S
C275 C271 1.353 . S
C276 H246 0.930 . S
C276 N277 1.330 . S
C276 C278 1.446 . S
N277 Co236 2.151 . S
N277 C276 1.330 . S
N277 C281 1.418 . S
C278 H257 0.929 . S
C278 C276 1.446 . S
C278 C279 1.332 . S
C279 H259 0.931 . S
C279 C278 1.332 . S
C279 C280 1.267 . S
C280 H248 0.929 . S
C280 C279 1.267 . S
C280 C281 1.251 . S
C281 H251 0.929 . S
C281 N277 1.418 . S
C281 C280 1.251 . S
C282 H249 0.930 . S
C282 C284 1.406 . S
C282 C287 1.261 . S
C283 H250 0.930 . S
C283 N285 1.325 . S
C283 C286 1.357 . S
C284 H252 0.928 . S
C284 C282 1.406 . S
C284 N285 1.261 . S
N285 Co236 2.214 . S
N285 C283 1.325 . S
N285 C284 1.261 . S
C286 H256 0.931 . S
C286 C283 1.357 . S
C286 C287 1.312 . S
C287 H258 0.930 . S
C287 C282 1.261 . S
C287 C286 1.312 . S
C288 O260 1.214 . S
C288 O268 1.234 . S
C289 H261 0.929 . S
C289 C292 1.391 . S
C289 C294 1.391 . S
C290 H262 0.929 . S
C290 C291 1.390 . S
C290 N293 1.391 . S
C291 H263 0.930 . S
C291 C290 1.390 . S
C291 C292 1.392 . S
C292 H264 0.929 . S
C292 C289 1.391 . S
C292 C291 1.392 . S
N293 Co237 2.257 . S
N293 C290 1.391 . S
N293 C294 1.388 . S
C294 H265 0.930 . S
C294 C289 1.391 . S
C294 N293 1.388 . S
Co295 O297 2.143 . S
Co295 O303 2.074 . S
Co295 O306 2.093 . S
Co295 O319 2.097 . S
Co295 N336 2.151 . S
Co295 N344 2.214 . S
Co296 O297 2.160 . S
Co296 O302 2.058 . S
Co296 O312 2.057 . S
Co296 O327 2.037 . S
Co296 N331 2.145 . S
Co296 N352 2.257 . S
O297 Co295 2.143 . S
O297 Co296 2.160 . S
C298 O299 1.278 . S
C298 O306 1.224 . S
O299 C298 1.278 . S
C300 O301 1.245 . S
C300 O312 1.232 . S
O301 C300 1.245 . S
O302 Co296 2.058 . S
O302 C328 1.269 . S
O303 Co295 2.074 . S
O303 C328 1.257 . S
H304 C329 0.930 . S
H305 C335 0.930 . S
O306 Co295 2.093 . S
O306 C298 1.224 . S
H307 C339 0.929 . S
H308 C341 0.930 . S
H309 C342 0.930 . S
H310 C340 0.929 . S
H311 C343 0.928 . S
O312 Co296 2.057 . S
O312 C300 1.232 . S
H313 C332 0.929 . S
H314 C333 0.929 . S
H315 C345 0.931 . S
H316 C337 0.929 . S
H317 C346 0.930 . S
H318 C338 0.931 . S
O319 Co295 2.097 . S
O319 C347 1.214 . S
H320 C348 0.929 . S
H321 C349 0.929 . S
H322 C350 0.930 . S
H323 C351 0.929 . S
H324 C353 0.930 . S
H325 C330 0.930 . S
H326 C334 0.930 . S
O327 Co296 2.037 . S
O327 C347 1.234 . S
C328 O302 1.269 . S
C328 O303 1.257 . S
C329 H304 0.930 . S
C329 C332 1.388 . S
C329 C334 1.418 . S
C330 H325 0.930 . S
C330 C333 1.404 . S
C330 C334 1.353 . S
N331 Co296 2.145 . S
N331 C332 1.397 . S
N331 C333 1.334 . S
C332 H313 0.929 . S
C332 C329 1.388 . S
C332 N331 1.397 . S
C333 H314 0.929 . S
C333 C330 1.404 . S
C333 N331 1.334 . S
C334 H326 0.930 . S
C334 C329 1.418 . S
C334 C330 1.353 . S
C335 H305 0.930 . S
C335 N336 1.330 . S
C335 C337 1.446 1_556 S
N336 Co295 2.151 . S
N336 C335 1.330 . S
N336 C340 1.418 1_556 S
C337 H316 0.929 . S
C337 C335 1.446 1_554 S
C337 C338 1.332 . S
C338 H318 0.931 . S
C338 C337 1.332 . S
C338 C339 1.267 . S
C339 H307 0.929 . S
C339 C338 1.267 . S
C339 C340 1.251 . S
C340 H310 0.929 . S
C340 N336 1.418 1_554 S
C340 C339 1.251 . S
C341 H308 0.930 . S
C341 C343 1.406 . S
C341 C346 1.261 . S
C342 H309 0.930 . S
C342 N344 1.325 . S
C342 C345 1.357 . S
C343 H311 0.928 . S
C343 C341 1.406 . S
C343 N344 1.261 . S
N344 Co295 2.214 . S
N344 C342 1.325 . S
N344 C343 1.261 . S
C345 H315 0.931 . S
C345 C342 1.357 . S
C345 C346 1.312 . S
C346 H317 0.930 . S
C346 C341 1.261 . S
C346 C345 1.312 . S
C347 O319 1.214 . S
C347 O327 1.234 . S
C348 H320 0.929 . S
C348 C351 1.391 . S
C348 C353 1.391 . S
C349 H321 0.929 . S
C349 C350 1.390 . S
C349 N352 1.391 . S
C350 H322 0.930 . S
C350 C349 1.390 . S
C350 C351 1.392 . S
C351 H323 0.929 . S
C351 C348 1.391 . S
C351 C350 1.392 . S
N352 Co296 2.257 . S
N352 C349 1.391 . S
N352 C353 1.388 . S
C353 H324 0.930 . S
C353 C348 1.391 . S
C353 N352 1.388 . S
Co354 O356 2.143 . S
Co354 O362 2.074 . S
Co354 O365 2.093 . S
Co354 O378 2.097 . S
Co354 N395 2.151 . S
Co354 N403 2.214 . S
Co355 O356 2.160 . S
Co355 O361 2.058 . S
Co355 O371 2.057 . S
Co355 O386 2.037 . S
Co355 N390 2.145 . S
Co355 N411 2.257 . S
O356 Co354 2.143 . S
O356 Co355 2.160 . S
C357 O358 1.278 . S
C357 O365 1.224 . S
O358 C357 1.278 . S
C359 O360 1.245 . S
C359 O371 1.232 . S
O360 C359 1.245 . S
O361 Co355 2.058 . S
O361 C387 1.269 . S
O362 Co354 2.074 . S
O362 C387 1.257 . S
H363 C388 0.930 . S
H364 C394 0.930 . S
O365 Co354 2.093 . S
O365 C357 1.224 . S
H366 C398 0.929 . S
H367 C400 0.930 . S
H368 C401 0.930 . S
H369 C399 0.929 . S
H370 C402 0.928 . S
O371 Co355 2.057 . S
O371 C359 1.232 . S
H372 C391 0.929 . S
H373 C392 0.929 . S
H374 C404 0.931 . S
H375 C396 0.929 . S
H376 C405 0.930 . S
H377 C397 0.931 . S
O378 Co354 2.097 . S
O378 C406 1.214 . S
H379 C407 0.929 . S
H380 C408 0.929 . S
H381 C409 0.930 . S
H382 C410 0.929 . S
H383 C412 0.930 . S
H384 C389 0.930 . S
H385 C393 0.930 . S
O386 Co355 2.037 . S
O386 C406 1.234 . S
C387 O361 1.269 . S
C387 O362 1.257 . S
C388 H363 0.930 . S
C388 C391 1.388 . S
C388 C393 1.418 . S
C389 H384 0.930 . S
C389 C392 1.404 . S
C389 C393 1.353 . S
N390 Co355 2.145 . S
N390 C391 1.397 . S
N390 C392 1.334 . S
C391 H372 0.929 . S
C391 C388 1.388 . S
C391 N390 1.397 . S
C392 H373 0.929 . S
C392 C389 1.404 . S
C392 N390 1.334 . S
C393 H385 0.930 . S
C393 C388 1.418 . S
C393 C389 1.353 . S
C394 H364 0.930 . S
C394 N395 1.330 . S
C394 C396 1.446 1_556 S
N395 Co354 2.151 . S
N395 C394 1.330 . S
N395 C399 1.418 1_556 S
C396 H375 0.929 . S
C396 C394 1.446 1_554 S
C396 C397 1.332 . S
C397 H377 0.931 . S
C397 C396 1.332 . S
C397 C398 1.267 . S
C398 H366 0.929 . S
C398 C397 1.267 . S
C398 C399 1.251 . S
C399 H369 0.929 . S
C399 N395 1.418 1_554 S
C399 C398 1.251 . S
C400 H367 0.930 . S
C400 C402 1.406 . S
C400 C405 1.261 . S
C401 H368 0.930 . S
C401 N403 1.325 . S
C401 C404 1.357 . S
C402 H370 0.928 . S
C402 C400 1.406 . S
C402 N403 1.261 . S
N403 Co354 2.214 . S
N403 C401 1.325 . S
N403 C402 1.261 . S
C404 H374 0.931 . S
C404 C401 1.357 . S
C404 C405 1.312 . S
C405 H376 0.930 . S
C405 C400 1.261 . S
C405 C404 1.312 . S
C406 O378 1.214 . S
C406 O386 1.234 . S
C407 H379 0.929 . S
C407 C410 1.391 . S
C407 C412 1.391 . S
C408 H380 0.929 . S
C408 C409 1.390 . S
C408 N411 1.391 . S
C409 H381 0.930 . S
C409 C408 1.390 . S
C409 C410 1.392 . S
C410 H382 0.929 . S
C410 C407 1.391 . S
C410 C409 1.392 . S
N411 Co355 2.257 . S
N411 C408 1.391 . S
N411 C412 1.388 . S
C412 H383 0.930 . S
C412 C407 1.391 . S
C412 N411 1.388 . S
Co413 O415 2.143 . S
Co413 O421 2.074 . S
Co413 O424 2.093 . S
Co413 O437 2.097 1_554 S
Co413 N454 2.151 . S
Co413 N462 2.214 . S
Co414 O415 2.160 . S
Co414 O420 2.058 . S
Co414 O430 2.057 . S
Co414 O445 2.037 1_554 S
Co414 N449 2.145 . S
Co414 N470 2.257 1_554 S
O415 Co413 2.143 . S
O415 Co414 2.160 . S
C416 O417 1.278 . S
C416 O424 1.224 1_556 S
O417 C416 1.278 . S
C418 O419 1.245 . S
C418 O430 1.232 . S
O419 C418 1.245 . S
O420 Co414 2.058 . S
O420 C446 1.269 . S
O421 Co413 2.074 . S
O421 C446 1.257 . S
H422 C447 0.930 1_556 S
H423 C453 0.930 . S
O424 Co413 2.093 . S
O424 C416 1.224 1_554 S
H425 C457 0.929 . S
H426 C459 0.930 . S
H427 C460 0.930 . S
H428 C458 0.929 . S
H429 C461 0.928 . S
O430 Co414 2.057 . S
O430 C418 1.232 . S
H431 C450 0.929 . S
H432 C451 0.929 . S
H433 C463 0.931 . S
H434 C455 0.929 . S
H435 C464 0.930 . S
H436 C456 0.931 . S
O437 Co413 2.097 1_556 S
O437 C465 1.214 . S
H438 C466 0.929 . S
H439 C467 0.929 . S
H440 C468 0.930 . S
H441 C469 0.929 . S
H442 C471 0.930 . S
H443 C448 0.930 . S
H444 C452 0.930 1_556 S
O445 Co414 2.037 1_556 S
O445 C465 1.234 . S
C446 O420 1.269 . S
C446 O421 1.257 . S
C447 H422 0.930 1_554 S
C447 C450 1.388 . S
C447 C452 1.418 . S
C448 H443 0.930 . S
C448 C451 1.404 . S
C448 C452 1.353 . S
N449 Co414 2.145 . S
N449 C450 1.397 . S
N449 C451 1.334 . S
C450 H431 0.929 . S
C450 C447 1.388 . S
C450 N449 1.397 . S
C451 H432 0.929 . S
C451 C448 1.404 . S
C451 N449 1.334 . S
C452 H444 0.930 1_554 S
C452 C447 1.418 . S
C452 C448 1.353 . S
C453 H423 0.930 . S
C453 N454 1.330 . S
C453 C455 1.446 . S
N454 Co413 2.151 . S
N454 C453 1.330 . S
N454 C458 1.418 . S
C455 H434 0.929 . S
C455 C453 1.446 . S
C455 C456 1.332 . S
C456 H436 0.931 . S
C456 C455 1.332 . S
C456 C457 1.267 . S
C457 H425 0.929 . S
C457 C456 1.267 . S
C457 C458 1.251 . S
C458 H428 0.929 . S
C458 N454 1.418 . S
C458 C457 1.251 . S
C459 H426 0.930 . S
C459 C461 1.406 . S
C459 C464 1.261 . S
C460 H427 0.930 . S
C460 N462 1.325 . S
C460 C463 1.357 . S
C461 H429 0.928 . S
C461 C459 1.406 . S
C461 N462 1.261 . S
N462 Co413 2.214 . S
N462 C460 1.325 . S
N462 C461 1.261 . S
C463 H433 0.931 . S
C463 C460 1.357 . S
C463 C464 1.312 . S
C464 H435 0.930 . S
C464 C459 1.261 . S
C464 C463 1.312 . S
C465 O437 1.214 . S
C465 O445 1.234 . S
C466 H438 0.929 . S
C466 C469 1.391 . S
C466 C471 1.391 . S
C467 H439 0.929 . S
C467 C468 1.390 . S
C467 N470 1.391 . S
C468 H440 0.930 . S
C468 C467 1.390 . S
C468 C469 1.392 . S
C469 H441 0.929 . S
C469 C466 1.391 . S
C469 C468 1.392 . S
N470 Co414 2.257 1_556 S
N470 C467 1.391 . S
N470 C471 1.388 . S
C471 H442 0.930 . S
C471 C466 1.391 . S
C471 N470 1.388 . S
Co472 O474 2.143 . S
Co472 O480 2.074 . S
Co472 O483 2.093 . S
Co472 O496 2.097 . S
Co472 N513 2.151 . S
Co472 N521 2.214 . S
Co473 O474 2.160 . S
Co473 O479 2.058 . S
Co473 O489 2.057 . S
Co473 O504 2.037 . S
Co473 N508 2.145 . S
Co473 N529 2.257 . S
O474 Co472 2.143 . S
O474 Co473 2.160 . S
C475 O476 1.278 . S
C475 O483 1.224 . S
O476 C475 1.278 . S
C477 O478 1.245 . S
C477 O489 1.232 . S
O478 C477 1.245 . S
O479 Co473 2.058 . S
O479 C505 1.269 . S
O480 Co472 2.074 . S
O480 C505 1.257 . S
H481 C506 0.930 . S
H482 C512 0.930 . S
O483 Co472 2.093 . S
O483 C475 1.224 . S
H484 C516 0.929 . S
H485 C518 0.930 . S
H486 C519 0.930 . S
H487 C517 0.929 . S
H488 C520 0.928 . S
O489 Co473 2.057 . S
O489 C477 1.232 . S
H490 C509 0.929 . S
H491 C510 0.929 . S
H492 C522 0.931 . S
H493 C514 0.929 . S
H494 C523 0.930 . S
H495 C515 0.931 . S
O496 Co472 2.097 . S
O496 C524 1.214 . S
H497 C525 0.929 . S
H498 C526 0.929 . S
H499 C527 0.930 . S
H500 C528 0.929 . S
H501 C530 0.930 . S
H502 C507 0.930 . S
H503 C511 0.930 . S
O504 Co473 2.037 . S
O504 C524 1.234 . S
C505 O479 1.269 . S
C505 O480 1.257 . S
C506 H481 0.930 . S
C506 C509 1.388 . S
C506 C511 1.418 . S
C507 H502 0.930 . S
C507 C510 1.404 . S
C507 C511 1.353 . S
N508 Co473 2.145 . S
N508 C509 1.397 . S
N508 C510 1.334 . S
C509 H490 0.929 . S
C509 C506 1.388 . S
C509 N508 1.397 . S
C510 H491 0.929 . S
C510 C507 1.404 . S
C510 N508 1.334 . S
C511 H503 0.930 . S
C511 C506 1.418 . S
C511 C507 1.353 . S
C512 H482 0.930 . S
C512 N513 1.330 . S
C512 C514 1.446 . S
N513 Co472 2.151 . S
N513 C512 1.330 . S
N513 C517 1.418 . S
C514 H493 0.929 . S
C514 C512 1.446 . S
C514 C515 1.332 . S
C515 H495 0.931 . S
C515 C514 1.332 . S
C515 C516 1.267 . S
C516 H484 0.929 . S
C516 C515 1.267 . S
C516 C517 1.251 . S
C517 H487 0.929 . S
C517 N513 1.418 . S
C517 C516 1.251 . S
C518 H485 0.930 . S
C518 C520 1.406 . S
C518 C523 1.261 . S
C519 H486 0.930 . S
C519 N521 1.325 . S
C519 C522 1.357 . S
C520 H488 0.928 . S
C520 C518 1.406 . S
C520 N521 1.261 . S
N521 Co472 2.214 . S
N521 C519 1.325 . S
N521 C520 1.261 . S
C522 H492 0.931 . S
C522 C519 1.357 . S
C522 C523 1.312 . S
C523 H494 0.930 . S
C523 C518 1.261 . S
C523 C522 1.312 . S
C524 O496 1.214 . S
C524 O504 1.234 . S
C525 H497 0.929 . S
C525 C528 1.391 . S
C525 C530 1.391 . S
C526 H498 0.929 . S
C526 C527 1.390 . S
C526 N529 1.391 . S
C527 H499 0.930 . S
C527 C526 1.390 . S
C527 C528 1.392 . S
C528 H500 0.929 . S
C528 C525 1.391 . S
C528 C527 1.392 . S
N529 Co473 2.257 . S
N529 C526 1.391 . S
N529 C530 1.388 . S
C530 H501 0.930 . S
C530 C525 1.391 . S
C530 N529 1.388 . S
Co531 O533 2.143 . S
Co531 O539 2.074 . S
Co531 O542 2.093 . S
Co531 O555 2.097 . S
Co531 N572 2.151 . S
Co531 N580 2.214 . S
Co532 O533 2.160 . S
Co532 O538 2.058 . S
Co532 O548 2.057 . S
Co532 O563 2.037 . S
Co532 N567 2.145 . S
Co532 N588 2.257 . S
O533 Co531 2.143 . S
O533 Co532 2.160 . S
C534 O535 1.278 . S
C534 O542 1.224 . S
O535 C534 1.278 . S
C536 O537 1.245 . S
C536 O548 1.232 . S
O537 C536 1.245 . S
O538 Co532 2.058 . S
O538 C564 1.269 . S
O539 Co531 2.074 . S
O539 C564 1.257 . S
H540 C565 0.930 . S
H541 C571 0.930 . S
O542 Co531 2.093 . S
O542 C534 1.224 . S
H543 C575 0.929 . S
H544 C577 0.930 . S
H545 C578 0.930 . S
H546 C576 0.929 . S
H547 C579 0.928 . S
O548 Co532 2.057 . S
O548 C536 1.232 . S
H549 C568 0.929 . S
H550 C569 0.929 . S
H551 C581 0.931 . S
H552 C573 0.929 . S
H553 C582 0.930 . S
H554 C574 0.931 . S
O555 Co531 2.097 . S
O555 C583 1.214 . S
H556 C584 0.929 . S
H557 C585 0.929 . S
H558 C586 0.930 . S
H559 C587 0.929 . S
H560 C589 0.930 . S
H561 C566 0.930 . S
H562 C570 0.930 . S
O563 Co532 2.037 . S
O563 C583 1.234 . S
C564 O538 1.269 . S
C564 O539 1.257 . S
C565 H540 0.930 . S
C565 C568 1.388 . S
C565 C570 1.418 . S
C566 H561 0.930 . S
C566 C569 1.404 . S
C566 C570 1.353 . S
N567 Co532 2.145 . S
N567 C568 1.397 . S
N567 C569 1.334 . S
C568 H549 0.929 . S
C568 C565 1.388 . S
C568 N567 1.397 . S
C569 H550 0.929 . S
C569 C566 1.404 . S
C569 N567 1.334 . S
C570 H562 0.930 . S
C570 C565 1.418 . S
C570 C566 1.353 . S
C571 H541 0.930 . S
C571 N572 1.330 . S
C571 C573 1.446 . S
N572 Co531 2.151 . S
N572 C571 1.330 . S
N572 C576 1.418 . S
C573 H552 0.929 . S
C573 C571 1.446 . S
C573 C574 1.332 . S
C574 H554 0.931 . S
C574 C573 1.332 . S
C574 C575 1.267 . S
C575 H543 0.929 . S
C575 C574 1.267 . S
C575 C576 1.251 . S
C576 H546 0.929 . S
C576 N572 1.418 . S
C576 C575 1.251 . S
C577 H544 0.930 . S
C577 C579 1.406 . S
C577 C582 1.261 . S
C578 H545 0.930 . S
C578 N580 1.325 . S
C578 C581 1.357 . S
C579 H547 0.928 . S
C579 C577 1.406 . S
C579 N580 1.261 . S
N580 Co531 2.214 . S
N580 C578 1.325 . S
N580 C579 1.261 . S
C581 H551 0.931 . S
C581 C578 1.357 . S
C581 C582 1.312 . S
C582 H553 0.930 . S
C582 C577 1.261 . S
C582 C581 1.312 . S
C583 O555 1.214 . S
C583 O563 1.234 . S
C584 H556 0.929 . S
C584 C587 1.391 . S
C584 C589 1.391 . S
C585 H557 0.929 . S
C585 C586 1.390 . S
C585 N588 1.391 . S
C586 H558 0.930 . S
C586 C585 1.390 . S
C586 C587 1.392 . S
C587 H559 0.929 . S
C587 C584 1.391 . S
C587 C586 1.392 . S
N588 Co532 2.257 . S
N588 C585 1.391 . S
N588 C589 1.388 . S
C589 H560 0.930 . S
C589 C584 1.391 . S
C589 N588 1.388 . S
Co590 O592 2.143 . S
Co590 O598 2.074 . S
Co590 O601 2.093 . S
Co590 O614 2.097 . S
Co590 N631 2.151 . S
Co590 N639 2.214 . S
Co591 O592 2.160 . S
Co591 O597 2.058 . S
Co591 O607 2.057 . S
Co591 O622 2.037 . S
Co591 N626 2.145 . S
Co591 N647 2.257 . S
O592 Co590 2.143 . S
O592 Co591 2.160 . S
C593 O594 1.278 . S
C593 O601 1.224 . S
O594 C593 1.278 . S
C595 O596 1.245 . S
C595 O607 1.232 . S
O596 C595 1.245 . S
O597 Co591 2.058 . S
O597 C623 1.269 . S
O598 Co590 2.074 . S
O598 C623 1.257 . S
H599 C624 0.930 . S
H600 C630 0.930 . S
O601 Co590 2.093 . S
O601 C593 1.224 . S
H602 C634 0.929 . S
H603 C636 0.930 . S
H604 C637 0.930 . S
H605 C635 0.929 . S
H606 C638 0.928 . S
O607 Co591 2.057 . S
O607 C595 1.232 . S
H608 C627 0.929 . S
H609 C628 0.929 . S
H610 C640 0.931 . S
H611 C632 0.929 . S
H612 C641 0.930 . S
H613 C633 0.931 . S
O614 Co590 2.097 . S
O614 C642 1.214 . S
H615 C643 0.929 . S
H616 C644 0.929 . S
H617 C645 0.930 . S
H618 C646 0.929 . S
H619 C648 0.930 . S
H620 C625 0.930 . S
H621 C629 0.930 . S
O622 Co591 2.037 . S
O622 C642 1.234 . S
C623 O597 1.269 . S
C623 O598 1.257 . S
C624 H599 0.930 . S
C624 C627 1.388 . S
C624 C629 1.418 . S
C625 H620 0.930 . S
C625 C628 1.404 . S
C625 C629 1.353 . S
N626 Co591 2.145 . S
N626 C627 1.397 . S
N626 C628 1.334 . S
C627 H608 0.929 . S
C627 C624 1.388 . S
C627 N626 1.397 . S
C628 H609 0.929 . S
C628 C625 1.404 . S
C628 N626 1.334 . S
C629 H621 0.930 . S
C629 C624 1.418 . S
C629 C625 1.353 . S
C630 H600 0.930 . S
C630 N631 1.330 . S
C630 C632 1.446 . S
N631 Co590 2.151 . S
N631 C630 1.330 . S
N631 C635 1.418 . S
C632 H611 0.929 . S
C632 C630 1.446 . S
C632 C633 1.332 . S
C633 H613 0.931 . S
C633 C632 1.332 . S
C633 C634 1.267 . S
C634 H602 0.929 . S
C634 C633 1.267 . S
C634 C635 1.251 . S
C635 H605 0.929 . S
C635 N631 1.418 . S
C635 C634 1.251 . S
C636 H603 0.930 . S
C636 C638 1.406 . S
C636 C641 1.261 . S
C637 H604 0.930 . S
C637 N639 1.325 . S
C637 C640 1.357 . S
C638 H606 0.928 . S
C638 C636 1.406 . S
C638 N639 1.261 . S
N639 Co590 2.214 . S
N639 C637 1.325 . S
N639 C638 1.261 . S
C640 H610 0.931 . S
C640 C637 1.357 . S
C640 C641 1.312 . S
C641 H612 0.930 . S
C641 C636 1.261 . S
C641 C640 1.312 . S
C642 O614 1.214 . S
C642 O622 1.234 . S
C643 H615 0.929 . S
C643 C646 1.391 . S
C643 C648 1.391 . S
C644 H616 0.929 . S
C644 C645 1.390 . S
C644 N647 1.391 . S
C645 H617 0.930 . S
C645 C644 1.390 . S
C645 C646 1.392 . S
C646 H618 0.929 . S
C646 C643 1.391 . S
C646 C645 1.392 . S
N647 Co591 2.257 . S
N647 C644 1.391 . S
N647 C648 1.388 . S
C648 H619 0.930 . S
C648 C643 1.391 . S
C648 N647 1.388 . S
Co649 O651 2.143 . S
Co649 O657 2.074 . S
Co649 O660 2.093 . S
Co649 O673 2.097 . S
Co649 N690 2.151 . S
Co649 N698 2.214 . S
Co650 O651 2.160 . S
Co650 O656 2.058 . S
Co650 O666 2.057 . S
Co650 O681 2.037 . S
Co650 N685 2.145 . S
Co650 N706 2.257 . S
O651 Co649 2.143 . S
O651 Co650 2.160 . S
C652 O653 1.278 . S
C652 O660 1.224 . S
O653 C652 1.278 . S
C654 O655 1.245 . S
C654 O666 1.232 . S
O655 C654 1.245 . S
O656 Co650 2.058 . S
O656 C682 1.269 . S
O657 Co649 2.074 . S
O657 C682 1.257 . S
H658 C683 0.930 . S
H659 C689 0.930 . S
O660 Co649 2.093 . S
O660 C652 1.224 . S
H661 C693 0.929 . S
H662 C695 0.930 . S
H663 C696 0.930 . S
H664 C694 0.929 . S
H665 C697 0.928 . S
O666 Co650 2.057 . S
O666 C654 1.232 . S
H667 C686 0.929 . S
H668 C687 0.929 . S
H669 C699 0.931 . S
H670 C691 0.929 . S
H671 C700 0.930 . S
H672 C692 0.931 . S
O673 Co649 2.097 . S
O673 C701 1.214 . S
H674 C702 0.929 . S
H675 C703 0.929 . S
H676 C704 0.930 . S
H677 C705 0.929 . S
H678 C707 0.930 . S
H679 C684 0.930 . S
H680 C688 0.930 . S
O681 Co650 2.037 . S
O681 C701 1.234 . S
C682 O656 1.269 . S
C682 O657 1.257 . S
C683 H658 0.930 . S
C683 C686 1.388 . S
C683 C688 1.418 . S
C684 H679 0.930 . S
C684 C687 1.404 . S
C684 C688 1.353 . S
N685 Co650 2.145 . S
N685 C686 1.397 . S
N685 C687 1.334 . S
C686 H667 0.929 . S
C686 C683 1.388 . S
C686 N685 1.397 . S
C687 H668 0.929 . S
C687 C684 1.404 . S
C687 N685 1.334 . S
C688 H680 0.930 . S
C688 C683 1.418 . S
C688 C684 1.353 . S
C689 H659 0.930 . S
C689 N690 1.330 . S
C689 C691 1.446 . S
N690 Co649 2.151 . S
N690 C689 1.330 . S
N690 C694 1.418 . S
C691 H670 0.929 . S
C691 C689 1.446 . S
C691 C692 1.332 . S
C692 H672 0.931 . S
C692 C691 1.332 . S
C692 C693 1.267 . S
C693 H661 0.929 . S
C693 C692 1.267 . S
C693 C694 1.251 . S
C694 H664 0.929 . S
C694 N690 1.418 . S
C694 C693 1.251 . S
C695 H662 0.930 . S
C695 C697 1.406 . S
C695 C700 1.261 . S
C696 H663 0.930 . S
C696 N698 1.325 . S
C696 C699 1.357 . S
C697 H665 0.928 . S
C697 C695 1.406 . S
C697 N698 1.261 . S
N698 Co649 2.214 . S
N698 C696 1.325 . S
N698 C697 1.261 . S
C699 H669 0.931 . S
C699 C696 1.357 . S
C699 C700 1.312 . S
C700 H671 0.930 . S
C700 C695 1.261 . S
C700 C699 1.312 . S
C701 O673 1.214 . S
C701 O681 1.234 . S
C702 H674 0.929 . S
C702 C705 1.391 . S
C702 C707 1.391 . S
C703 H675 0.929 . S
C703 C704 1.390 . S
C703 N706 1.391 . S
C704 H676 0.930 . S
C704 C703 1.390 . S
C704 C705 1.392 . S
C705 H677 0.929 . S
C705 C702 1.391 . S
C705 C704 1.392 . S
N706 Co650 2.257 . S
N706 C703 1.391 . S
N706 C707 1.388 . S
C707 H678 0.930 . S
C707 C702 1.391 . S
C707 N706 1.388 . S
C708 C709 1.391 . S
C708 C710 1.394 . S
C708 H724 0.931 . S
C709 C708 1.391 . S
C709 C713 1.376 . S
C710 C708 1.394 . S
C710 C711 1.369 . S
C710 C714 1.531 . S
C711 C710 1.369 . S
C711 C712 1.410 . S
C711 C719 1.503 . S
C712 C711 1.410 . S
C712 C713 1.392 . S
C712 C715 1.511 . S
C713 C709 1.376 . S
C713 C712 1.392 . S
C713 H725 0.929 . S
C714 C710 1.531 . S
C714 H726 0.960 . S
C714 H727 0.962 . S
C714 H728 0.960 . S
C715 C712 1.511 . S
C715 H729 0.961 . S
C715 H730 0.961 . S
C715 H731 0.961 . S
C716 C717 1.370 . S
C716 C718 1.363 . S
C716 H732 0.931 . S
C717 C716 1.370 . S
C717 C721 1.408 . S
C718 C716 1.363 . S
C718 C719 1.370 . S
C718 C722 1.524 . S
C719 C711 1.503 . S
C719 C718 1.370 . S
C719 C720 1.403 . S
C720 C719 1.403 . S
C720 C721 1.404 . S
C720 C723 1.539 . S
C721 C717 1.408 . S
C721 C720 1.404 . S
C721 H733 0.930 . S
C722 C718 1.524 . S
C722 H734 0.956 . S
C722 H735 0.961 . S
C722 H736 0.961 . S
C723 C720 1.539 . S
C723 H737 0.958 . S
C723 H738 0.961 . S
C723 H739 0.960 . S
H724 C708 0.931 . S
H725 C713 0.929 . S
H726 C714 0.960 . S
H727 C714 0.962 . S
H728 C714 0.960 . S
H729 C715 0.961 . S
H730 C715 0.961 . S
H731 C715 0.961 . S
H732 C716 0.931 . S
H733 C721 0.930 . S
H734 C722 0.956 . S
H735 C722 0.961 . S
H736 C722 0.961 . S
H737 C723 0.958 . S
H738 C723 0.961 . S
H739 C723 0.960 . S
C740 C741 1.391 . S
C740 C742 1.394 . S
C740 H756 0.931 . S
C741 C740 1.391 . S
C741 C745 1.376 . S
C742 C740 1.394 . S
C742 C743 1.369 . S
C742 C746 1.531 . S
C743 C742 1.369 . S
C743 C744 1.410 . S
C743 C751 1.503 . S
C744 C743 1.410 . S
C744 C745 1.392 . S
C744 C747 1.511 . S
C745 C741 1.376 . S
C745 C744 1.392 . S
C745 H757 0.929 . S
C746 C742 1.531 . S
C746 H758 0.960 . S
C746 H759 0.962 . S
C746 H760 0.960 . S
C747 C744 1.511 . S
C747 H761 0.961 . S
C747 H762 0.961 . S
C747 H763 0.961 . S
C748 C749 1.370 . S
C748 C750 1.363 . S
C748 H764 0.931 . S
C749 C748 1.370 . S
C749 C753 1.408 . S
C750 C748 1.363 . S
C750 C751 1.370 . S
C750 C754 1.524 . S
C751 C743 1.503 . S
C751 C750 1.370 . S
C751 C752 1.403 . S
C752 C751 1.403 . S
C752 C753 1.404 . S
C752 C755 1.539 . S
C753 C749 1.408 . S
C753 C752 1.404 . S
C753 H765 0.930 . S
C754 C750 1.524 . S
C754 H766 0.956 . S
C754 H767 0.961 . S
C754 H768 0.961 . S
C755 C752 1.539 . S
C755 H769 0.958 . S
C755 H770 0.961 . S
C755 H771 0.960 . S
H756 C740 0.931 . S
H757 C745 0.929 . S
H758 C746 0.960 . S
H759 C746 0.962 . S
H760 C746 0.960 . S
H761 C747 0.961 . S
H762 C747 0.961 . S
H763 C747 0.961 . S
H764 C748 0.931 . S
H765 C753 0.930 . S
H766 C754 0.956 . S
H767 C754 0.961 . S
H768 C754 0.961 . S
H769 C755 0.958 . S
H770 C755 0.961 . S
H771 C755 0.960 . S
C772 C773 1.391 . S
C772 C774 1.394 . S
C772 H788 0.931 . S
C773 C772 1.391 . S
C773 C777 1.376 . S
C774 C772 1.394 . S
C774 C775 1.369 . S
C774 C778 1.531 . S
C775 C774 1.369 . S
C775 C776 1.410 . S
C775 C783 1.503 . S
C776 C775 1.410 . S
C776 C777 1.392 . S
C776 C779 1.511 . S
C777 C773 1.376 . S
C777 C776 1.392 . S
C777 H789 0.929 . S
C778 C774 1.531 . S
C778 H790 0.960 . S
C778 H791 0.962 . S
C778 H792 0.960 . S
C779 C776 1.511 . S
C779 H793 0.961 . S
C779 H794 0.961 . S
C779 H795 0.961 . S
C780 C781 1.370 . S
C780 C782 1.363 . S
C780 H796 0.931 . S
C781 C780 1.370 . S
C781 C785 1.408 . S
C782 C780 1.363 . S
C782 C783 1.370 . S
C782 C786 1.524 . S
C783 C775 1.503 . S
C783 C782 1.370 . S
C783 C784 1.403 . S
C784 C783 1.403 . S
C784 C785 1.404 . S
C784 C787 1.539 . S
C785 C781 1.408 . S
C785 C784 1.404 . S
C785 H797 0.930 . S
C786 C782 1.524 . S
C786 H798 0.956 . S
C786 H799 0.961 . S
C786 H800 0.961 . S
C787 C784 1.539 . S
C787 H801 0.958 . S
C787 H802 0.961 . S
C787 H803 0.960 . S
H788 C772 0.931 . S
H789 C777 0.929 . S
H790 C778 0.960 . S
H791 C778 0.962 . S
H792 C778 0.960 . S
H793 C779 0.961 . S
H794 C779 0.961 . S
H795 C779 0.961 . S
H796 C780 0.931 . S
H797 C785 0.930 . S
H798 C786 0.956 . S
H799 C786 0.961 . S
H800 C786 0.961 . S
H801 C787 0.958 . S
H802 C787 0.961 . S
H803 C787 0.960 . S
C804 C805 1.391 . S
C804 C806 1.394 . S
C804 H820 0.931 . S
C805 C804 1.391 . S
C805 C809 1.376 . S
C806 C804 1.394 . S
C806 C807 1.369 . S
C806 C810 1.531 . S
C807 C806 1.369 . S
C807 C808 1.410 . S
C807 C815 1.503 . S
C808 C807 1.410 . S
C808 C809 1.392 . S
C808 C811 1.511 . S
C809 C805 1.376 . S
C809 C808 1.392 . S
C809 H821 0.929 . S
C810 C806 1.531 . S
C810 H822 0.960 . S
C810 H823 0.962 . S
C810 H824 0.960 . S
C811 C808 1.511 . S
C811 H825 0.961 . S
C811 H826 0.961 . S
C811 H827 0.961 . S
C812 C813 1.370 . S
C812 C814 1.363 . S
C812 H828 0.931 . S
C813 C812 1.370 . S
C813 C817 1.408 . S
C814 C812 1.363 . S
C814 C815 1.370 . S
C814 C818 1.524 . S
C815 C807 1.503 . S
C815 C814 1.370 . S
C815 C816 1.403 . S
C816 C815 1.403 . S
C816 C817 1.404 . S
C816 C819 1.539 . S
C817 C813 1.408 . S
C817 C816 1.404 . S
C817 H829 0.930 . S
C818 C814 1.524 . S
C818 H830 0.956 . S
C818 H831 0.961 . S
C818 H832 0.961 . S
C819 C816 1.539 . S
C819 H833 0.958 . S
C819 H834 0.961 . S
C819 H835 0.960 . S
H820 C804 0.931 . S
H821 C809 0.929 . S
H822 C810 0.960 . S
H823 C810 0.962 . S
H824 C810 0.960 . S
H825 C811 0.961 . S
H826 C811 0.961 . S
H827 C811 0.961 . S
H828 C812 0.931 . S
H829 C817 0.930 . S
H830 C818 0.956 . S
H831 C818 0.961 . S
H832 C818 0.961 . S
H833 C819 0.958 . S
H834 C819 0.961 . S
H835 C819 0.960 . S
C836 C837 1.391 . S
C836 C838 1.394 . S
C836 H852 0.931 . S
C837 C836 1.391 . S
C837 C841 1.376 . S
C838 C836 1.394 . S
C838 C839 1.369 . S
C838 C842 1.531 . S
C839 C838 1.369 . S
C839 C840 1.410 . S
C839 C847 1.503 . S
C840 C839 1.410 . S
C840 C841 1.392 . S
C840 C843 1.511 1_556 S
C841 C837 1.376 . S
C841 C840 1.392 . S
C841 H853 0.929 . S
C842 C838 1.531 . S
C842 H854 0.960 . S
C842 H855 0.962 . S
C842 H856 0.960 . S
C843 C840 1.511 1_554 S
C843 H857 0.961 . S
C843 H858 0.961 . S
C843 H859 0.961 . S
C844 C845 1.370 . S
C844 C846 1.363 1_554 S
C844 H860 0.931 . S
C845 C844 1.370 . S
C845 C849 1.408 . S
C846 C844 1.363 1_556 S
C846 C847 1.370 . S
C846 C850 1.524 . S
C847 C839 1.503 . S
C847 C846 1.370 . S
C847 C848 1.403 1_556 S
C848 C847 1.403 1_554 S
C848 C849 1.404 . S
C848 C851 1.539 . S
C849 C845 1.408 . S
C849 C848 1.404 . S
C849 H861 0.930 . S
C850 C846 1.524 . S
C850 H862 0.956 . S
C850 H863 0.961 . S
C850 H864 0.961 . S
C851 C848 1.539 . S
C851 H865 0.958 . S
C851 H866 0.961 . S
C851 H867 0.960 . S
H852 C836 0.931 . S
H853 C841 0.929 . S
H854 C842 0.960 . S
H855 C842 0.962 . S
H856 C842 0.960 . S
H857 C843 0.961 . S
H858 C843 0.961 . S
H859 C843 0.961 . S
H860 C844 0.931 . S
H861 C849 0.930 . S
H862 C850 0.956 . S
H863 C850 0.961 . S
H864 C850 0.961 . S
H865 C851 0.958 . S
H866 C851 0.961 . S
H867 C851 0.960 . S
C868 C869 1.391 . S
C868 C870 1.394 . S
C868 H884 0.931 . S
C869 C868 1.391 . S
C869 C873 1.376 . S
C870 C868 1.394 . S
C870 C871 1.369 . S
C870 C874 1.531 . S
C871 C870 1.369 . S
C871 C872 1.410 . S
C871 C879 1.503 . S
C872 C871 1.410 . S
C872 C873 1.392 . S
C872 C875 1.511 . S
C873 C869 1.376 . S
C873 C872 1.392 . S
C873 H885 0.929 . S
C874 C870 1.531 . S
C874 H886 0.960 . S
C874 H887 0.962 . S
C874 H888 0.960 . S
C875 C872 1.511 . S
C875 H889 0.961 . S
C875 H890 0.961 . S
C875 H891 0.961 . S
C876 C877 1.370 . S
C876 C878 1.363 . S
C876 H892 0.931 . S
C877 C876 1.370 . S
C877 C881 1.408 . S
C878 C876 1.363 . S
C878 C879 1.370 . S
C878 C882 1.524 . S
C879 C871 1.503 . S
C879 C878 1.370 . S
C879 C880 1.403 . S
C880 C879 1.403 . S
C880 C881 1.404 . S
C880 C883 1.539 . S
C881 C877 1.408 . S
C881 C880 1.404 . S
C881 H893 0.930 1_554 S
C882 C878 1.524 . S
C882 H894 0.956 . S
C882 H895 0.961 . S
C882 H896 0.961 . S
C883 C880 1.539 . S
C883 H897 0.958 . S
C883 H898 0.961 . S
C883 H899 0.960 . S
H884 C868 0.931 . S
H885 C873 0.929 . S
H886 C874 0.960 . S
H887 C874 0.962 . S
H888 C874 0.960 . S
H889 C875 0.961 . S
H890 C875 0.961 . S
H891 C875 0.961 . S
H892 C876 0.931 . S
H893 C881 0.930 1_556 S
H894 C882 0.956 . S
H895 C882 0.961 . S
H896 C882 0.961 . S
H897 C883 0.958 . S
H898 C883 0.961 . S
H899 C883 0.960 . S
C900 C901 1.391 . S
C900 C902 1.394 . S
C900 H916 0.931 . S
C901 C900 1.391 . S
C901 C905 1.376 . S
C902 C900 1.394 . S
C902 C903 1.369 . S
C902 C906 1.531 . S
C903 C902 1.369 . S
C903 C904 1.410 . S
C903 C911 1.503 . S
C904 C903 1.410 . S
C904 C905 1.392 . S
C904 C907 1.511 . S
C905 C901 1.376 . S
C905 C904 1.392 . S
C905 H917 0.929 . S
C906 C902 1.531 . S
C906 H918 0.960 . S
C906 H919 0.962 . S
C906 H920 0.960 . S
C907 C904 1.511 . S
C907 H921 0.961 . S
C907 H922 0.961 . S
C907 H923 0.961 . S
C908 C909 1.370 . S
C908 C910 1.363 . S
C908 H924 0.931 . S
C909 C908 1.370 . S
C909 C913 1.408 . S
C910 C908 1.363 . S
C910 C911 1.370 . S
C910 C914 1.524 . S
C911 C903 1.503 . S
C911 C910 1.370 . S
C911 C912 1.403 . S
C912 C911 1.403 . S
C912 C913 1.404 . S
C912 C915 1.539 . S
C913 C909 1.408 . S
C913 C912 1.404 . S
C913 H925 0.930 . S
C914 C910 1.524 . S
C914 H926 0.956 . S
C914 H927 0.961 . S
C914 H928 0.961 . S
C915 C912 1.539 . S
C915 H929 0.958 . S
C915 H930 0.961 . S
C915 H931 0.960 . S
H916 C900 0.931 . S
H917 C905 0.929 . S
H918 C906 0.960 . S
H919 C906 0.962 . S
H920 C906 0.960 . S
H921 C907 0.961 . S
H922 C907 0.961 . S
H923 C907 0.961 . S
H924 C908 0.931 . S
H925 C913 0.930 . S
H926 C914 0.956 . S
H927 C914 0.961 . S
H928 C914 0.961 . S
H929 C915 0.958 . S
H930 C915 0.961 . S
H931 C915 0.960 . S
C932 C933 1.391 . S
C932 C934 1.394 . S
C932 H948 0.931 . S
C933 C932 1.391 . S
C933 C937 1.376 . S
C934 C932 1.394 . S
C934 C935 1.369 . S
C934 C938 1.531 . S
C935 C934 1.369 . S
C935 C936 1.410 . S
C935 C943 1.503 . S
C936 C935 1.410 . S
C936 C937 1.392 . S
C936 C939 1.511 . S
C937 C933 1.376 . S
C937 C936 1.392 . S
C937 H949 0.929 . S
C938 C934 1.531 . S
C938 H950 0.960 . S
C938 H951 0.962 . S
C938 H952 0.960 . S
C939 C936 1.511 . S
C939 H953 0.961 . S
C939 H954 0.961 . S
C939 H955 0.961 . S
C940 C941 1.370 . S
C940 C942 1.363 . S
C940 H956 0.931 . S
C941 C940 1.370 . S
C941 C945 1.408 . S
C942 C940 1.363 . S
C942 C943 1.370 . S
C942 C946 1.524 . S
C943 C935 1.503 . S
C943 C942 1.370 . S
C943 C944 1.403 . S
C944 C943 1.403 . S
C944 C945 1.404 . S
C944 C947 1.539 . S
C945 C941 1.408 . S
C945 C944 1.404 . S
C945 H957 0.930 . S
C946 C942 1.524 . S
C946 H958 0.956 . S
C946 H959 0.961 . S
C946 H960 0.961 . S
C947 C944 1.539 . S
C947 H961 0.958 . S
C947 H962 0.961 . S
C947 H963 0.960 . S
H948 C932 0.931 . S
H949 C937 0.929 . S
H950 C938 0.960 . S
H951 C938 0.962 . S
H952 C938 0.960 . S
H953 C939 0.961 . S
H954 C939 0.961 . S
H955 C939 0.961 . S
H956 C940 0.931 . S
H957 C945 0.930 . S
H958 C946 0.956 . S
H959 C946 0.961 . S
H960 C946 0.961 . S
H961 C947 0.958 . S
H962 C947 0.961 . S
H963 C947 0.960 . S
C964 C965 1.391 . S
C964 C966 1.394 . S
C964 H980 0.931 . S
C965 C964 1.391 . S
C965 C969 1.376 . S
C966 C964 1.394 . S
C966 C967 1.369 . S
C966 C970 1.531 . S
C967 C966 1.369 . S
C967 C968 1.410 . S
C967 C975 1.503 . S
C968 C967 1.410 . S
C968 C969 1.392 . S
C968 C971 1.511 . S
C969 C965 1.376 . S
C969 C968 1.392 . S
C969 H981 0.929 . S
C970 C966 1.531 . S
C970 H982 0.960 . S
C970 H983 0.962 . S
C970 H984 0.960 . S
C971 C968 1.511 . S
C971 H985 0.961 . S
C971 H986 0.961 . S
C971 H987 0.961 . S
C972 C973 1.370 . S
C972 C974 1.363 . S
C972 H988 0.931 . S
C973 C972 1.370 . S
C973 C977 1.408 . S
C974 C972 1.363 . S
C974 C975 1.370 . S
C974 C978 1.524 . S
C975 C967 1.503 . S
C975 C974 1.370 . S
C975 C976 1.403 . S
C976 C975 1.403 . S
C976 C977 1.404 . S
C976 C979 1.539 . S
C977 C973 1.408 . S
C977 C976 1.404 . S
C977 H989 0.930 . S
C978 C974 1.524 . S
C978 H990 0.956 . S
C978 H991 0.961 . S
C978 H992 0.961 . S
C979 C976 1.539 . S
C979 H993 0.958 . S
C979 H994 0.961 . S
C979 H995 0.960 . S
H980 C964 0.931 . S
H981 C969 0.929 . S
H982 C970 0.960 . S
H983 C970 0.962 . S
H984 C970 0.960 . S
H985 C971 0.961 . S
H986 C971 0.961 . S
H987 C971 0.961 . S
H988 C972 0.931 . S
H989 C977 0.930 . S
H990 C978 0.956 . S
H991 C978 0.961 . S
H992 C978 0.961 . S
H993 C979 0.958 . S
H994 C979 0.961 . S
H995 C979 0.960 . S
C996 C997 1.391 . S
C996 C998 1.394 . S
C996 H1012 0.931 . S
C997 C996 1.391 . S
C997 C1001 1.376 . S
C998 C996 1.394 . S
C998 C999 1.369 . S
C998 C1002 1.531 . S
C999 C998 1.369 . S
C999 C1000 1.410 . S
C999 C1007 1.503 . S
C1000 C999 1.410 . S
C1000 C1001 1.392 . S
C1000 C1003 1.511 . S
C1001 C997 1.376 . S
C1001 C1000 1.392 . S
C1001 H1013 0.929 . S
C1002 C998 1.531 . S
C1002 H1014 0.960 . S
C1002 H1015 0.962 . S
C1002 H1016 0.960 . S
C1003 C1000 1.511 . S
C1003 H1017 0.961 . S
C1003 H1018 0.961 . S
C1003 H1019 0.961 . S
C1004 C1005 1.370 . S
C1004 C1006 1.363 . S
C1004 H1020 0.931 . S
C1005 C1004 1.370 . S
C1005 C1009 1.408 . S
C1006 C1004 1.363 . S
C1006 C1007 1.370 . S
C1006 C1010 1.524 . S
C1007 C999 1.503 . S
C1007 C1006 1.370 . S
C1007 C1008 1.403 . S
C1008 C1007 1.403 . S
C1008 C1009 1.404 . S
C1008 C1011 1.539 . S
C1009 C1005 1.408 . S
C1009 C1008 1.404 . S
C1009 H1021 0.930 . S
C1010 C1006 1.524 . S
C1010 H1022 0.956 . S
C1010 H1023 0.961 . S
C1010 H1024 0.961 . S
C1011 C1008 1.539 . S
C1011 H1025 0.958 . S
C1011 H1026 0.961 . S
C1011 H1027 0.960 . S
H1012 C996 0.931 . S
H1013 C1001 0.929 . S
H1014 C1002 0.960 . S
H1015 C1002 0.962 . S
H1016 C1002 0.960 . S
H1017 C1003 0.961 . S
H1018 C1003 0.961 . S
H1019 C1003 0.961 . S
H1020 C1004 0.931 . S
H1021 C1009 0.930 . S
H1022 C1010 0.956 . S
H1023 C1010 0.961 . S
H1024 C1010 0.961 . S
H1025 C1011 0.958 . S
H1026 C1011 0.961 . S
H1027 C1011 0.960 . S
C1028 C1029 1.391 . S
C1028 C1030 1.394 . S
C1028 H1044 0.931 . S
C1029 C1028 1.391 . S
C1029 C1033 1.376 . S
C1030 C1028 1.394 . S
C1030 C1031 1.369 . S
C1030 C1034 1.531 . S
C1031 C1030 1.369 . S
C1031 C1032 1.410 . S
C1031 C1039 1.503 . S
C1032 C1031 1.410 . S
C1032 C1033 1.392 . S
C1032 C1035 1.511 . S
C1033 C1029 1.376 . S
C1033 C1032 1.392 . S
C1033 H1045 0.929 . S
C1034 C1030 1.531 . S
C1034 H1046 0.960 . S
C1034 H1047 0.962 . S
C1034 H1048 0.960 . S
C1035 C1032 1.511 . S
C1035 H1049 0.961 . S
C1035 H1050 0.961 . S
C1035 H1051 0.961 . S
C1036 C1037 1.370 . S
C1036 C1038 1.363 . S
C1036 H1052 0.931 . S
C1037 C1036 1.370 . S
C1037 C1041 1.408 . S
C1038 C1036 1.363 . S
C1038 C1039 1.370 . S
C1038 C1042 1.524 . S
C1039 C1031 1.503 . S
C1039 C1038 1.370 . S
C1039 C1040 1.403 . S
C1040 C1039 1.403 . S
C1040 C1041 1.404 . S
C1040 C1043 1.539 . S
C1041 C1037 1.408 . S
C1041 C1040 1.404 . S
C1041 H1053 0.930 . S
C1042 C1038 1.524 . S
C1042 H1054 0.956 . S
C1042 H1055 0.961 . S
C1042 H1056 0.961 . S
C1043 C1040 1.539 . S
C1043 H1057 0.958 . S
C1043 H1058 0.961 . S
C1043 H1059 0.960 . S
H1044 C1028 0.931 . S
H1045 C1033 0.929 . S
H1046 C1034 0.960 . S
H1047 C1034 0.962 . S
H1048 C1034 0.960 . S
H1049 C1035 0.961 . S
H1050 C1035 0.961 . S
H1051 C1035 0.961 . S
H1052 C1036 0.931 . S
H1053 C1041 0.930 . S
H1054 C1042 0.956 . S
H1055 C1042 0.961 . S
H1056 C1042 0.961 . S
H1057 C1043 0.958 . S
H1058 C1043 0.961 . S
H1059 C1043 0.960 . S
C1060 C1061 1.391 1_554 S
C1060 C1062 1.394 . S
C1060 H1076 0.931 . S
C1061 C1060 1.391 1_556 S
C1061 C1065 1.376 . S
C1062 C1060 1.394 . S
C1062 C1063 1.369 1_554 S
C1062 C1066 1.531 . S
C1063 C1062 1.369 1_556 S
C1063 C1064 1.410 . S
C1063 C1071 1.503 . S
C1064 C1063 1.410 . S
C1064 C1065 1.392 . S
C1064 C1067 1.511 . S
C1065 C1061 1.376 . S
C1065 C1064 1.392 . S
C1065 H1077 0.929 . S
C1066 C1062 1.531 . S
C1066 H1078 0.960 . S
C1066 H1079 0.962 . S
C1066 H1080 0.960 . S
C1067 C1064 1.511 . S
C1067 H1081 0.961 . S
C1067 H1082 0.961 . S
C1067 H1083 0.961 . S
C1068 C1069 1.370 . S
C1068 C1070 1.363 . S
C1068 H1084 0.931 . S
C1069 C1068 1.370 . S
C1069 C1073 1.408 . S
C1070 C1068 1.363 . S
C1070 C1071 1.370 . S
C1070 C1074 1.524 . S
C1071 C1063 1.503 . S
C1071 C1070 1.370 . S
C1071 C1072 1.403 . S
C1072 C1071 1.403 . S
C1072 C1073 1.404 . S
C1072 C1075 1.539 . S
C1073 C1069 1.408 . S
C1073 C1072 1.404 . S
C1073 H1085 0.930 . S
C1074 C1070 1.524 . S
C1074 H1086 0.956 . S
C1074 H1087 0.961 . S
C1074 H1088 0.961 . S
C1075 C1072 1.539 . S
C1075 H1089 0.958 1_556 S
C1075 H1090 0.961 . S
C1075 H1091 0.960 . S
H1076 C1060 0.931 . S
H1077 C1065 0.929 . S
H1078 C1066 0.960 . S
H1079 C1066 0.962 . S
H1080 C1066 0.960 . S
H1081 C1067 0.961 . S
H1082 C1067 0.961 . S
H1083 C1067 0.961 . S
H1084 C1068 0.931 . S
H1085 C1073 0.930 . S
H1086 C1074 0.956 . S
H1087 C1074 0.961 . S
H1088 C1074 0.961 . S
H1089 C1075 0.958 1_554 S
H1090 C1075 0.961 . S
H1091 C1075 0.960 . S
C1092 C1093 1.391 . S
C1092 C1094 1.394 . S
C1092 H1108 0.931 . S
C1093 C1092 1.391 . S
C1093 C1097 1.376 . S
C1094 C1092 1.394 . S
C1094 C1095 1.369 . S
C1094 C1098 1.531 . S
C1095 C1094 1.369 . S
C1095 C1096 1.410 . S
C1095 C1103 1.503 . S
C1096 C1095 1.410 . S
C1096 C1097 1.392 . S
C1096 C1099 1.511 . S
C1097 C1093 1.376 . S
C1097 C1096 1.392 . S
C1097 H1109 0.929 . S
C1098 C1094 1.531 . S
C1098 H1110 0.960 . S
C1098 H1111 0.962 . S
C1098 H1112 0.960 . S
C1099 C1096 1.511 . S
C1099 H1113 0.961 . S
C1099 H1114 0.961 . S
C1099 H1115 0.961 . S
C1100 C1101 1.370 . S
C1100 C1102 1.363 . S
C1100 H1116 0.931 . S
C1101 C1100 1.370 . S
C1101 C1105 1.408 . S
C1102 C1100 1.363 . S
C1102 C1103 1.370 . S
C1102 C1106 1.524 . S
C1103 C1095 1.503 . S
C1103 C1102 1.370 . S
C1103 C1104 1.403 . S
C1104 C1103 1.403 . S
C1104 C1105 1.404 . S
C1104 C1107 1.539 . S
C1105 C1101 1.408 . S
C1105 C1104 1.404 . S
C1105 H1117 0.930 . S
C1106 C1102 1.524 . S
C1106 H1118 0.956 . S
C1106 H1119 0.961 . S
C1106 H1120 0.961 . S
C1107 C1104 1.539 . S
C1107 H1121 0.958 . S
C1107 H1122 0.961 . S
C1107 H1123 0.960 . S
H1108 C1092 0.931 . S
H1109 C1097 0.929 . S
H1110 C1098 0.960 . S
H1111 C1098 0.962 . S
H1112 C1098 0.960 . S
H1113 C1099 0.961 . S
H1114 C1099 0.961 . S
H1115 C1099 0.961 . S
H1116 C1100 0.931 . S
H1117 C1105 0.930 . S
H1118 C1106 0.956 . S
H1119 C1106 0.961 . S
H1120 C1106 0.961 . S
H1121 C1107 0.958 . S
H1122 C1107 0.961 . S
H1123 C1107 0.960 . S
C1124 C1125 1.391 . S
C1124 C1126 1.394 1_554 S
C1124 H1140 0.931 . S
C1125 C1124 1.391 . S
C1125 C1129 1.376 . S
C1126 C1124 1.394 1_556 S
C1126 C1127 1.369 . S
C1126 C1130 1.531 . S
C1127 C1126 1.369 . S
C1127 C1128 1.410 1_556 S
C1127 C1135 1.503 . S
C1128 C1127 1.410 1_554 S
C1128 C1129 1.392 . S
C1128 C1131 1.511 1_554 S
C1129 C1125 1.376 . S
C1129 C1128 1.392 . S
C1129 H1141 0.929 . S
C1130 C1126 1.531 . S
C1130 H1142 0.960 . S
C1130 H1143 0.962 . S
C1130 H1144 0.960 . S
C1131 C1128 1.511 1_556 S
C1131 H1145 0.961 1_556 S
C1131 H1146 0.961 . S
C1131 H1147 0.961 . S
C1132 C1133 1.370 . S
C1132 C1134 1.363 . S
C1132 H1148 0.931 . S
C1133 C1132 1.370 . S
C1133 C1137 1.408 . S
C1134 C1132 1.363 . S
C1134 C1135 1.370 . S
C1134 C1138 1.524 1_556 S
C1135 C1127 1.503 . S
C1135 C1134 1.370 . S
C1135 C1136 1.403 . S
C1136 C1135 1.403 . S
C1136 C1137 1.404 . S
C1136 C1139 1.539 . S
C1137 C1133 1.408 . S
C1137 C1136 1.404 . S
C1137 H1149 0.930 . S
C1138 C1134 1.524 1_554 S
C1138 H1150 0.956 . S
C1138 H1151 0.961 . S
C1138 H1152 0.961 . S
C1139 C1136 1.539 . S
C1139 H1153 0.958 . S
C1139 H1154 0.961 . S
C1139 H1155 0.960 . S
H1140 C1124 0.931 . S
H1141 C1129 0.929 . S
H1142 C1130 0.960 . S
H1143 C1130 0.962 . S
H1144 C1130 0.960 . S
H1145 C1131 0.961 1_554 S
H1146 C1131 0.961 . S
H1147 C1131 0.961 . S
H1148 C1132 0.931 . S
H1149 C1137 0.930 . S
H1150 C1138 0.956 . S
H1151 C1138 0.961 . S
H1152 C1138 0.961 . S
H1153 C1139 0.958 . S
H1154 C1139 0.961 . S
H1155 C1139 0.960 . S
C1156 C1157 1.391 . S
C1156 C1158 1.394 . S
C1156 H1172 0.931 . S
C1157 C1156 1.391 . S
C1157 C1161 1.376 . S
C1158 C1156 1.394 . S
C1158 C1159 1.369 . S
C1158 C1162 1.531 . S
C1159 C1158 1.369 . S
C1159 C1160 1.410 . S
C1159 C1167 1.503 . S
C1160 C1159 1.410 . S
C1160 C1161 1.392 . S
C1160 C1163 1.511 . S
C1161 C1157 1.376 . S
C1161 C1160 1.392 . S
C1161 H1173 0.929 . S
C1162 C1158 1.531 . S
C1162 H1174 0.960 . S
C1162 H1175 0.962 . S
C1162 H1176 0.960 . S
C1163 C1160 1.511 . S
C1163 H1177 0.961 . S
C1163 H1178 0.961 . S
C1163 H1179 0.961 . S
C1164 C1165 1.370 . S
C1164 C1166 1.363 . S
C1164 H1180 0.931 . S
C1165 C1164 1.370 . S
C1165 C1169 1.408 1_554 S
C1166 C1164 1.363 . S
C1166 C1167 1.370 . S
C1166 C1170 1.524 . S
C1167 C1159 1.503 . S
C1167 C1166 1.370 . S
C1167 C1168 1.403 . S
C1168 C1167 1.403 . S
C1168 C1169 1.404 1_554 S
C1168 C1171 1.539 . S
C1169 C1165 1.408 1_556 S
C1169 C1168 1.404 1_556 S
C1169 H1181 0.930 . S
C1170 C1166 1.524 . S
C1170 H1182 0.956 . S
C1170 H1183 0.961 . S
C1170 H1184 0.961 . S
C1171 C1168 1.539 . S
C1171 H1185 0.958 . S
C1171 H1186 0.961 1_554 S
C1171 H1187 0.960 . S
H1172 C1156 0.931 . S
H1173 C1161 0.929 . S
H1174 C1162 0.960 . S
H1175 C1162 0.962 . S
H1176 C1162 0.960 . S
H1177 C1163 0.961 . S
H1178 C1163 0.961 . S
H1179 C1163 0.961 . S
H1180 C1164 0.931 . S
H1181 C1169 0.930 . S
H1182 C1170 0.956 . S
H1183 C1170 0.961 . S
H1184 C1170 0.961 . S
H1185 C1171 0.958 . S
H1186 C1171 0.961 1_556 S
H1187 C1171 0.960 . S
C1188 C1189 1.391 . S
C1188 C1190 1.394 . S
C1188 H1204 0.931 . S
C1189 C1188 1.391 . S
C1189 C1193 1.376 . S
C1190 C1188 1.394 . S
C1190 C1191 1.369 . S
C1190 C1194 1.531 . S
C1191 C1190 1.369 . S
C1191 C1192 1.410 . S
C1191 C1199 1.503 . S
C1192 C1191 1.410 . S
C1192 C1193 1.392 . S
C1192 C1195 1.511 . S
C1193 C1189 1.376 . S
C1193 C1192 1.392 . S
C1193 H1205 0.929 . S
C1194 C1190 1.531 . S
C1194 H1206 0.960 . S
C1194 H1207 0.962 . S
C1194 H1208 0.960 . S
C1195 C1192 1.511 . S
C1195 H1209 0.961 . S
C1195 H1210 0.961 . S
C1195 H1211 0.961 . S
C1196 C1197 1.370 . S
C1196 C1198 1.363 . S
C1196 H1212 0.931 . S
C1197 C1196 1.370 . S
C1197 C1201 1.408 . S
C1198 C1196 1.363 . S
C1198 C1199 1.370 . S
C1198 C1202 1.524 . S
C1199 C1191 1.503 . S
C1199 C1198 1.370 . S
C1199 C1200 1.403 . S
C1200 C1199 1.403 . S
C1200 C1201 1.404 . S
C1200 C1203 1.539 . S
C1201 C1197 1.408 . S
C1201 C1200 1.404 . S
C1201 H1213 0.930 . S
C1202 C1198 1.524 . S
C1202 H1214 0.956 . S
C1202 H1215 0.961 . S
C1202 H1216 0.961 . S
C1203 C1200 1.539 . S
C1203 H1217 0.958 . S
C1203 H1218 0.961 . S
C1203 H1219 0.960 . S
H1204 C1188 0.931 . S
H1205 C1193 0.929 . S
H1206 C1194 0.960 . S
H1207 C1194 0.962 . S
H1208 C1194 0.960 . S
H1209 C1195 0.961 . S
H1210 C1195 0.961 . S
H1211 C1195 0.961 . S
H1212 C1196 0.931 . S
H1213 C1201 0.930 . S
H1214 C1202 0.956 . S
H1215 C1202 0.961 . S
H1216 C1202 0.961 . S
H1217 C1203 0.958 . S
H1218 C1203 0.961 . S
H1219 C1203 0.960 . S
C1220 C1221 1.391 . S
C1220 C1222 1.394 . S
C1220 H1236 0.931 . S
C1221 C1220 1.391 . S
C1221 C1225 1.376 . S
C1222 C1220 1.394 . S
C1222 C1223 1.369 . S
C1222 C1226 1.531 . S
C1223 C1222 1.369 . S
C1223 C1224 1.410 . S
C1223 C1231 1.503 . S
C1224 C1223 1.410 . S
C1224 C1225 1.392 . S
C1224 C1227 1.511 . S
C1225 C1221 1.376 . S
C1225 C1224 1.392 . S
C1225 H1237 0.929 . S
C1226 C1222 1.531 . S
C1226 H1238 0.960 . S
C1226 H1239 0.962 . S
C1226 H1240 0.960 . S
C1227 C1224 1.511 . S
C1227 H1241 0.961 . S
C1227 H1242 0.961 . S
C1227 H1243 0.961 . S
C1228 C1229 1.370 . S
C1228 C1230 1.363 . S
C1228 H1244 0.931 . S
C1229 C1228 1.370 . S
C1229 C1233 1.408 . S
C1230 C1228 1.363 . S
C1230 C1231 1.370 . S
C1230 C1234 1.524 . S
C1231 C1223 1.503 . S
C1231 C1230 1.370 . S
C1231 C1232 1.403 . S
C1232 C1231 1.403 . S
C1232 C1233 1.404 . S
C1232 C1235 1.539 . S
C1233 C1229 1.408 . S
C1233 C1232 1.404 . S
C1233 H1245 0.930 . S
C1234 C1230 1.524 . S
C1234 H1246 0.956 . S
C1234 H1247 0.961 . S
C1234 H1248 0.961 . S
C1235 C1232 1.539 . S
C1235 H1249 0.958 . S
C1235 H1250 0.961 . S
C1235 H1251 0.960 . S
H1236 C1220 0.931 . S
H1237 C1225 0.929 . S
H1238 C1226 0.960 . S
H1239 C1226 0.962 . S
H1240 C1226 0.960 . S
H1241 C1227 0.961 . S
H1242 C1227 0.961 . S
H1243 C1227 0.961 . S
H1244 C1228 0.931 . S
H1245 C1233 0.930 . S
H1246 C1234 0.956 . S
H1247 C1234 0.961 . S
H1248 C1234 0.961 . S
H1249 C1235 0.958 . S
H1250 C1235 0.961 . S
H1251 C1235 0.960 . S
C1252 C1253 1.391 . S
C1252 C1254 1.394 . S
C1252 H1268 0.931 . S
C1253 C1252 1.391 . S
C1253 C1257 1.376 . S
C1254 C1252 1.394 . S
C1254 C1255 1.369 . S
C1254 C1258 1.531 . S
C1255 C1254 1.369 . S
C1255 C1256 1.410 . S
C1255 C1263 1.503 . S
C1256 C1255 1.410 . S
C1256 C1257 1.392 . S
C1256 C1259 1.511 . S
C1257 C1253 1.376 . S
C1257 C1256 1.392 . S
C1257 H1269 0.929 . S
C1258 C1254 1.531 . S
C1258 H1270 0.960 . S
C1258 H1271 0.962 . S
C1258 H1272 0.960 . S
C1259 C1256 1.511 . S
C1259 H1273 0.961 . S
C1259 H1274 0.961 . S
C1259 H1275 0.961 . S
C1260 C1261 1.370 . S
C1260 C1262 1.363 . S
C1260 H1276 0.931 . S
C1261 C1260 1.370 . S
C1261 C1265 1.408 . S
C1262 C1260 1.363 . S
C1262 C1263 1.370 . S
C1262 C1266 1.524 . S
C1263 C1255 1.503 . S
C1263 C1262 1.370 . S
C1263 C1264 1.403 . S
C1264 C1263 1.403 . S
C1264 C1265 1.404 . S
C1264 C1267 1.539 . S
C1265 C1261 1.408 . S
C1265 C1264 1.404 . S
C1265 H1277 0.930 . S
C1266 C1262 1.524 . S
C1266 H1278 0.956 . S
C1266 H1279 0.961 . S
C1266 H1280 0.961 . S
C1267 C1264 1.539 . S
C1267 H1281 0.958 . S
C1267 H1282 0.961 . S
C1267 H1283 0.960 . S
H1268 C1252 0.931 . S
H1269 C1257 0.929 . S
H1270 C1258 0.960 . S
H1271 C1258 0.962 . S
H1272 C1258 0.960 . S
H1273 C1259 0.961 . S
H1274 C1259 0.961 . S
H1275 C1259 0.961 . S
H1276 C1260 0.931 . S
H1277 C1265 0.930 . S
H1278 C1266 0.956 . S
H1279 C1266 0.961 . S
H1280 C1266 0.961 . S
H1281 C1267 0.958 . S
H1282 C1267 0.961 . S
H1283 C1267 0.960 . S
C1284 C1285 1.391 . S
C1284 C1286 1.394 . S
C1284 H1300 0.931 . S
C1285 C1284 1.391 . S
C1285 C1289 1.376 . S
C1286 C1284 1.394 . S
C1286 C1287 1.369 . S
C1286 C1290 1.531 . S
C1287 C1286 1.369 . S
C1287 C1288 1.410 . S
C1287 C1295 1.503 1_455 S
C1288 C1287 1.410 . S
C1288 C1289 1.392 . S
C1288 C1291 1.511 . S
C1289 C1285 1.376 . S
C1289 C1288 1.392 . S
C1289 H1301 0.929 . S
C1290 C1286 1.531 . S
C1290 H1302 0.960 1_455 S
C1290 H1303 0.962 1_455 S
C1290 H1304 0.960 . S
C1291 C1288 1.511 . S
C1291 H1305 0.961 . S
C1291 H1306 0.961 . S
C1291 H1307 0.961 . S
C1292 C1293 1.370 . S
C1292 C1294 1.363 . S
C1292 H1308 0.931 . S
C1293 C1292 1.370 . S
C1293 C1297 1.408 . S
C1294 C1292 1.363 . S
C1294 C1295 1.370 . S
C1294 C1298 1.524 . S
C1295 C1287 1.503 1_655 S
C1295 C1294 1.370 . S
C1295 C1296 1.403 . S
C1296 C1295 1.403 . S
C1296 C1297 1.404 . S
C1296 C1299 1.539 1_655 S
C1297 C1293 1.408 . S
C1297 C1296 1.404 . S
C1297 H1309 0.930 . S
C1298 C1294 1.524 . S
C1298 H1310 0.956 . S
C1298 H1311 0.961 . S
C1298 H1312 0.961 . S
C1299 C1296 1.539 1_455 S
C1299 H1313 0.958 . S
C1299 H1314 0.961 . S
C1299 H1315 0.960 . S
H1300 C1284 0.931 . S
H1301 C1289 0.929 . S
H1302 C1290 0.960 1_655 S
H1303 C1290 0.962 1_655 S
H1304 C1290 0.960 . S
H1305 C1291 0.961 . S
H1306 C1291 0.961 . S
H1307 C1291 0.961 . S
H1308 C1292 0.931 . S
H1309 C1297 0.930 . S
H1310 C1298 0.956 . S
H1311 C1298 0.961 . S
H1312 C1298 0.961 . S
H1313 C1299 0.958 . S
H1314 C1299 0.961 . S
H1315 C1299 0.960 . S
C1316 C1317 1.391 1_554 S
C1316 C1318 1.394 . S
C1316 H1332 0.931 . S
C1317 C1316 1.391 1_556 S
C1317 C1321 1.376 . S
C1318 C1316 1.394 . S
C1318 C1319 1.369 . S
C1318 C1322 1.531 . S
C1319 C1318 1.369 . S
C1319 C1320 1.410 . S
C1319 C1327 1.503 1_565 S
C1320 C1319 1.410 . S
C1320 C1321 1.392 1_554 S
C1320 C1323 1.511 . S
C1321 C1317 1.376 . S
C1321 C1320 1.392 1_556 S
C1321 H1333 0.929 . S
C1322 C1318 1.531 . S
C1322 H1334 0.960 . S
C1322 H1335 0.962 . S
C1322 H1336 0.960 . S
C1323 C1320 1.511 . S
C1323 H1337 0.961 1_554 S
C1323 H1338 0.961 1_565 S
C1323 H1339 0.961 . S
C1324 C1325 1.370 . S
C1324 C1326 1.363 . S
C1324 H1340 0.931 . S
C1325 C1324 1.370 . S
C1325 C1329 1.408 . S
C1326 C1324 1.363 . S
C1326 C1327 1.370 . S
C1326 C1330 1.524 1_554 S
C1327 C1319 1.503 1_545 S
C1327 C1326 1.370 . S
C1327 C1328 1.403 . S
C1328 C1327 1.403 . S
C1328 C1329 1.404 . S
C1328 C1331 1.539 1_545 S
C1329 C1325 1.408 . S
C1329 C1328 1.404 . S
C1329 H1341 0.930 . S
C1330 C1326 1.524 1_556 S
C1330 H1342 0.956 . S
C1330 H1343 0.961 . S
C1330 H1344 0.961 . S
C1331 C1328 1.539 1_565 S
C1331 H1345 0.958 . S
C1331 H1346 0.961 . S
C1331 H1347 0.960 . S
H1332 C1316 0.931 . S
H1333 C1321 0.929 . S
H1334 C1322 0.960 . S
H1335 C1322 0.962 . S
H1336 C1322 0.960 . S
H1337 C1323 0.961 1_556 S
H1338 C1323 0.961 1_545 S
H1339 C1323 0.961 . S
H1340 C1324 0.931 . S
H1341 C1329 0.930 . S
H1342 C1330 0.956 . S
H1343 C1330 0.961 . S
H1344 C1330 0.961 . S
H1345 C1331 0.958 . S
H1346 C1331 0.961 . S
H1347 C1331 0.960 . S
C1348 C1349 1.391 . S
C1348 C1350 1.394 . S
C1348 H1364 0.931 . S
C1349 C1348 1.391 . S
C1349 C1353 1.376 . S
C1350 C1348 1.394 . S
C1350 C1351 1.369 . S
C1350 C1354 1.531 . S
C1351 C1350 1.369 . S
C1351 C1352 1.410 . S
C1351 C1359 1.503 . S
C1352 C1351 1.410 . S
C1352 C1353 1.392 . S
C1352 C1355 1.511 . S
C1353 C1349 1.376 . S
C1353 C1352 1.392 . S
C1353 H1365 0.929 . S
C1354 C1350 1.531 . S
C1354 H1366 0.960 . S
C1354 H1367 0.962 . S
C1354 H1368 0.960 . S
C1355 C1352 1.511 . S
C1355 H1369 0.961 . S
C1355 H1370 0.961 . S
C1355 H1371 0.961 . S
C1356 C1357 1.370 . S
C1356 C1358 1.363 . S
C1356 H1372 0.931 . S
C1357 C1356 1.370 . S
C1357 C1361 1.408 . S
C1358 C1356 1.363 . S
C1358 C1359 1.370 . S
C1358 C1362 1.524 . S
C1359 C1351 1.503 . S
C1359 C1358 1.370 . S
C1359 C1360 1.403 . S
C1360 C1359 1.403 . S
C1360 C1361 1.404 . S
C1360 C1363 1.539 . S
C1361 C1357 1.408 . S
C1361 C1360 1.404 . S
C1361 H1373 0.930 . S
C1362 C1358 1.524 . S
C1362 H1374 0.956 . S
C1362 H1375 0.961 . S
C1362 H1376 0.961 . S
C1363 C1360 1.539 . S
C1363 H1377 0.958 . S
C1363 H1378 0.961 . S
C1363 H1379 0.960 . S
H1364 C1348 0.931 . S
H1365 C1353 0.929 . S
H1366 C1354 0.960 . S
H1367 C1354 0.962 . S
H1368 C1354 0.960 . S
H1369 C1355 0.961 . S
H1370 C1355 0.961 . S
H1371 C1355 0.961 . S
H1372 C1356 0.931 . S
H1373 C1361 0.930 . S
H1374 C1362 0.956 . S
H1375 C1362 0.961 . S
H1376 C1362 0.961 . S
H1377 C1363 0.958 . S
H1378 C1363 0.961 . S
H1379 C1363 0.960 . S
C1380 C1381 1.391 . S
C1380 C1382 1.394 . S
C1380 H1396 0.931 . S
C1381 C1380 1.391 . S
C1381 C1385 1.376 . S
C1382 C1380 1.394 . S
C1382 C1383 1.369 . S
C1382 C1386 1.531 . S
C1383 C1382 1.369 . S
C1383 C1384 1.410 . S
C1383 C1391 1.503 1_455 S
C1384 C1383 1.410 . S
C1384 C1385 1.392 . S
C1384 C1387 1.511 . S
C1385 C1381 1.376 . S
C1385 C1384 1.392 . S
C1385 H1397 0.929 . S
C1386 C1382 1.531 . S
C1386 H1398 0.960 . S
C1386 H1399 0.962 . S
C1386 H1400 0.960 . S
C1387 C1384 1.511 . S
C1387 H1401 0.961 . S
C1387 H1402 0.961 1_455 S
C1387 H1403 0.961 . S
C1388 C1389 1.370 . S
C1388 C1390 1.363 . S
C1388 H1404 0.931 . S
C1389 C1388 1.370 . S
C1389 C1393 1.408 . S
C1390 C1388 1.363 . S
C1390 C1391 1.370 . S
C1390 C1394 1.524 . S
C1391 C1383 1.503 1_655 S
C1391 C1390 1.370 . S
C1391 C1392 1.403 . S
C1392 C1391 1.403 . S
C1392 C1393 1.404 . S
C1392 C1395 1.539 1_655 S
C1393 C1389 1.408 . S
C1393 C1392 1.404 . S
C1393 H1405 0.930 . S
C1394 C1390 1.524 . S
C1394 H1406 0.956 . S
C1394 H1407 0.961 . S
C1394 H1408 0.961 . S
C1395 C1392 1.539 1_455 S
C1395 H1409 0.958 . S
C1395 H1410 0.961 1_455 S
C1395 H1411 0.960 . S
H1396 C1380 0.931 . S
H1397 C1385 0.929 . S
H1398 C1386 0.960 . S
H1399 C1386 0.962 . S
H1400 C1386 0.960 . S
H1401 C1387 0.961 . S
H1402 C1387 0.961 1_655 S
H1403 C1387 0.961 . S
H1404 C1388 0.931 . S
H1405 C1393 0.930 . S
H1406 C1394 0.956 . S
H1407 C1394 0.961 . S
H1408 C1394 0.961 . S
H1409 C1395 0.958 . S
H1410 C1395 0.961 1_655 S
H1411 C1395 0.960 . S
C1412 C1413 1.391 . S
C1412 C1414 1.394 . S
C1412 H1428 0.931 . S
C1413 C1412 1.391 . S
C1413 C1417 1.376 . S
C1414 C1412 1.394 . S
C1414 C1415 1.369 . S
C1414 C1418 1.531 . S
C1415 C1414 1.369 . S
C1415 C1416 1.410 . S
C1415 C1423 1.503 1_545 S
C1416 C1415 1.410 . S
C1416 C1417 1.392 . S
C1416 C1419 1.511 1_545 S
C1417 C1413 1.376 . S
C1417 C1416 1.392 . S
C1417 H1429 0.929 . S
C1418 C1414 1.531 . S
C1418 H1430 0.960 . S
C1418 H1431 0.962 . S
C1418 H1432 0.960 . S
C1419 C1416 1.511 1_565 S
C1419 H1433 0.961 . S
C1419 H1434 0.961 . S
C1419 H1435 0.961 . S
C1420 C1421 1.370 . S
C1420 C1422 1.363 . S
C1420 H1436 0.931 . S
C1421 C1420 1.370 . S
C1421 C1425 1.408 . S
C1422 C1420 1.363 . S
C1422 C1423 1.370 . S
C1422 C1426 1.524 . S
C1423 C1415 1.503 1_565 S
C1423 C1422 1.370 . S
C1423 C1424 1.403 . S
C1424 C1423 1.403 . S
C1424 C1425 1.404 . S
C1424 C1427 1.576 . S
C1425 C1421 1.408 . S
C1425 C1424 1.404 . S
C1425 H1437 0.930 . S
C1426 C1422 1.524 . S
C1426 H1438 0.956 . S
C1426 H1439 0.961 . S
C1426 H1440 0.961 . S
C1427 C1424 1.576 . S
C1427 H1441 0.945 1_565 S
C1427 H1442 0.965 . S
C1427 H1443 0.934 1_565 S
H1428 C1412 0.931 . S
H1429 C1417 0.929 . S
H1430 C1418 0.960 . S
H1431 C1418 0.962 . S
H1432 C1418 0.960 . S
H1433 C1419 0.961 . S
H1434 C1419 0.961 . S
H1435 C1419 0.961 . S
H1436 C1420 0.931 . S
H1437 C1425 0.930 . S
H1438 C1426 0.956 . S
H1439 C1426 0.961 . S
H1440 C1426 0.961 . S
H1441 C1427 0.945 1_545 S
H1442 C1427 0.965 . S
H1443 C1427 0.934 1_545 S
C1444 C1445 1.391 . S
C1444 C1446 1.394 . S
C1444 H1460 0.931 . S
C1445 C1444 1.391 . S
C1445 C1449 1.376 . S
C1446 C1444 1.394 . S
C1446 C1447 1.369 . S
C1446 C1450 1.531 . S
C1447 C1446 1.369 . S
C1447 C1448 1.410 . S
C1447 C1455 1.503 . S
C1448 C1447 1.410 . S
C1448 C1449 1.392 . S
C1448 C1451 1.511 . S
C1449 C1445 1.376 . S
C1449 C1448 1.392 . S
C1449 H1461 0.929 . S
C1450 C1446 1.531 . S
C1450 H1462 0.960 . S
C1450 H1463 0.962 . S
C1450 H1464 0.960 . S
C1451 C1448 1.511 . S
C1451 H1465 0.961 . S
C1451 H1466 0.961 . S
C1451 H1467 0.961 . S
C1452 C1453 1.370 . S
C1452 C1454 1.363 . S
C1452 H1468 0.931 . S
C1453 C1452 1.370 . S
C1453 C1457 1.408 . S
C1454 C1452 1.363 . S
C1454 C1455 1.370 . S
C1454 C1458 1.524 . S
C1455 C1447 1.503 . S
C1455 C1454 1.370 . S
C1455 C1456 1.403 . S
C1456 C1455 1.403 . S
C1456 C1457 1.404 . S
C1456 C1459 1.539 . S
C1457 C1453 1.408 . S
C1457 C1456 1.404 . S
C1457 H1469 0.930 . S
C1458 C1454 1.524 . S
C1458 H1470 0.956 . S
C1458 H1471 0.961 . S
C1458 H1472 0.961 . S
C1459 C1456 1.539 . S
C1459 H1473 0.958 . S
C1459 H1474 0.961 . S
C1459 H1475 0.960 . S
H1460 C1444 0.931 . S
H1461 C1449 0.929 . S
H1462 C1450 0.960 . S
H1463 C1450 0.962 . S
H1464 C1450 0.960 . S
H1465 C1451 0.961 . S
H1466 C1451 0.961 . S
H1467 C1451 0.961 . S
H1468 C1452 0.931 . S
H1469 C1457 0.930 . S
H1470 C1458 0.956 . S
H1471 C1458 0.961 . S
H1472 C1458 0.961 . S
H1473 C1459 0.958 . S
H1474 C1459 0.961 . S
H1475 C1459 0.960 . S
C709 C52 1.687 . S
C717 C642 1.694 . S
C741 C682 1.685 . S
C749 C111 1.690 . S
C773 C151 1.683 . S
C781 C406 1.689 . S
C805 C229 1.682 . S
C813 C465 1.690 . S
C837 C288 1.681 . S
C845 C505 1.689 . S
C869 C583 1.691 . S
C877 C328 1.693 1_554 S
C901 C3 1.727 . S
C909 C477 1.718 . S
C933 C62 1.728 . S
C941 C534 1.721 . S
C965 C593 1.706 . S
C973 C123 1.726 . S
C997 C180 1.716 . S
C1005 C654 1.726 . S
C1029 C239 1.702 . S
C1037 C357 1.717 . S
C1061 C300 1.714 . S
C1069 C416 1.715 . S
C1093 C623 1.660 . S
C1101 C33 1.659 . S
C1125 C92 1.652 . S
C1133 C701 1.656 . S
C1157 C170 1.642 . S
C1165 C387 1.662 1_554 S
C1189 C210 1.651 . S
C1197 C446 1.657 . S
C1221 C524 1.651 . S
C1229 C269 1.664 . S
C1253 C347 1.662 . S
C1261 C564 1.661 . S
C1285 C5 1.289 . S
C1293 C652 1.304 . S
C1317 C359 1.294 . S
C1325 C64 1.306 . S
C1349 C418 1.289 . S
C1357 C121 1.302 . S
C1381 C475 1.282 . S
C1389 C182 1.306 . S
C1413 C536 1.300 . S
C1421 C241 1.306 . S
C1445 C595 1.307 . S
C1453 C298 1.292 . S
