# Generated by pormake.
# Topology npo, (4)-cn, num edge types: 1
# Building blocks:
#     Node 0, Type 0, BuildingBlock: UXUYUI_clean_sbu_0, # of connection points: 4
#     Node 1, Type 0, BuildingBlock: UXUYUI_clean_sbu_0, # of connection points: 4
#     Node 2, Type 0, BuildingBlock: UXUYUI_clean_sbu_0, # of connection points: 4
#     Node 3, Type 0, BuildingBlock: UXUYUI_clean_sbu_0, # of connection points: 4
#     Node 4, Type 0, BuildingBlock: UXUYUI_clean_sbu_0, # of connection points: 4
#     Node 5, Type 0, BuildingBlock: UXUYUI_clean_sbu_0, # of connection points: 4
#     Edge 6, Type (0, 0), BuildingBlock: AJUNOK_clean_linker_0, # of connection points: 2
#     Edge 7, Type (0, 0), BuildingBlock: AJUNOK_clean_linker_0, # of connection points: 2
#     Edge 8, Type (0, 0), BuildingBlock: AJUNOK_clean_linker_0, # of connection points: 2
#     Edge 9, Type (0, 0), BuildingBlock: AJUNOK_clean_linker_0, # of connection points: 2
#     Edge 10, Type (0, 0), BuildingBlock: AJUNOK_clean_linker_0, # of connection points: 2
#     Edge 11, Type (0, 0), BuildingBlock: AJUNOK_clean_linker_0, # of connection points: 2
#     Edge 12, Type (0, 0), BuildingBlock: AJUNOK_clean_linker_0, # of connection points: 2
#     Edge 13, Type (0, 0), BuildingBlock: AJUNOK_clean_linker_0, # of connection points: 2
#     Edge 14, Type (0, 0), BuildingBlock: AJUNOK_clean_linker_0, # of connection points: 2
#     Edge 15, Type (0, 0), BuildingBlock: AJUNOK_clean_linker_0, # of connection points: 2
#     Edge 16, Type (0, 0), BuildingBlock: AJUNOK_clean_linker_0, # of connection points: 2
#     Edge 17, Type (0, 0), BuildingBlock: AJUNOK_clean_linker_0, # of connection points: 2
# Relax obj value: 0.320
# Max RMSD: 0.247
# Mean RMSD: 0.247
data_MOF--net-npo--node1-UXUYUI_clean_sbu_0--edge1-AJUNOK_clean_linker_0
_symmetry_space_group_name_H-M    P1
_symmetry_Int_Tables_number       1
_symmetry_cell_setting            triclinic
loop_
_symmetry_equiv_pos_as_xyz
'x, y, z'
_cell_length_a     50.423935
_cell_length_b     50.357081
_cell_length_c     31.303165
_cell_angle_alpha  90.006102
_cell_angle_beta   89.971225
_cell_angle_gamma 120.03759
loop_
_atom_site_label
_atom_site_type_symbol
_atom_site_fract_x
_atom_site_fract_y
_atom_site_fract_z
_atom_type_partial_charge
Li0 Li 0.53702 0.12292 0.24223 0.0
Li1 Li 0.58039 0.11623 0.24896 0.0
Li2 Li 0.53889 0.07953 0.20872 0.0
Li3 Li 0.53653 0.081 0.28901 0.0
C4 C 0.55397 0.13011 0.15818 0.0
N5 N 0.53289 0.14267 0.08359 0.0
C6 C 0.5744 0.1529 0.13026 0.0
C7 C 0.5228 0.1138 0.14804 0.0
C8 C 0.5633 0.1589 0.09277 0.0
C9 C 0.51259 0.12042 0.11021 0.0
C10 C 0.58252 0.14962 0.31746 0.0
C11 C 0.61431 0.16914 0.38017 0.0
N12 N 0.62976 0.19732 0.36163 0.0
C13 C 0.59851 0.17883 0.29918 0.0
C14 C 0.59032 0.14472 0.35837 0.0
C15 C 0.62242 0.20262 0.32195 0.0
C16 C 0.49677 0.1464 0.25767 0.0
N17 N 0.52308 0.15147 0.23838 0.0
C18 C 0.5335 0.20068 0.21425 0.0
C19 C 0.54146 0.17799 0.21717 0.0
C20 C 0.50646 0.19616 0.23362 0.0
C21 C 0.48798 0.1687 0.25578 0.0
H22 H 0.48291 0.12529 0.27504 0.0
H23 H 0.56272 0.18185 0.20329 0.0
C24 C 0.63799 0.15694 0.21577 0.0
N25 N 0.62428 0.1401 0.25123 0.0
C26 C 0.66882 0.17945 0.21652 0.0
C27 C 0.67167 0.16535 0.28944 0.0
C28 C 0.64065 0.14307 0.28725 0.0
C29 C 0.68588 0.18444 0.25408 0.0
H30 H 0.6246 0.15394 0.18749 0.0
H31 H 0.62934 0.12932 0.31505 0.0
C32 C 0.47585 0.05664 0.2423 0.0
N33 N 0.41476 0.0121 0.23604 0.0
C34 C 0.46575 0.02709 0.25786 0.0
C35 C 0.4548 0.0636 0.22383 0.0
C36 C 0.4348 0.00487 0.25433 0.0
C37 C 0.42405 0.04075 0.22086 0.0
C38 C 0.58795 0.06909 0.25752 0.0
C39 C 0.60597 0.07148 0.2222 0.0
C40 C 0.59684 0.06535 0.29833 0.0
C41 C 0.63285 0.07038 0.22837 0.0
C42 C 0.62384 0.06429 0.30315 0.0
N43 N 0.64115 0.06685 0.26837 0.0
C44 C 0.54937 0.06422 0.12781 0.0
C45 C 0.50007 0.0284 0.15408 0.0
C46 C 0.54314 0.04864 0.08903 0.0
N47 N 0.52781 0.05417 0.15917 0.0
C48 C 0.49292 0.01197 0.11583 0.0
C49 C 0.51457 0.02225 0.08269 0.0
H50 H 0.57126 0.08477 0.13269 0.0
H51 H 0.48328 0.02076 0.17924 0.0
C52 C 0.51399 0.07166 0.37273 0.0
N53 N 0.52087 0.05847 0.33996 0.0
C54 C 0.50417 0.05651 0.41184 0.0
C55 C 0.50776 0.01408 0.38209 0.0
C56 C 0.51788 0.03022 0.34376 0.0
C57 C 0.50098 0.02732 0.41687 0.0
H58 H 0.51685 0.09429 0.36875 0.0
H59 H 0.52368 0.02041 0.3171 0.0
O60 O 0.56459 0.12429 0.19537 0.0
O61 O 0.55938 0.1259 0.29541 0.0
O62 O 0.50599 0.07889 0.24607 0.0
O63 O 0.56174 0.07043 0.2522 0.0
H64 H 0.59857 0.16608 0.13752 0.0
H65 H 0.50662 0.09607 0.16886 0.0
H66 H 0.57888 0.17652 0.07101 0.0
H67 H 0.48853 0.10786 0.10203 0.0
H68 H 0.62073 0.16565 0.41175 0.0
H69 H 0.59289 0.18293 0.26744 0.0
H70 H 0.57826 0.12222 0.37291 0.0
H71 H 0.63522 0.22526 0.30802 0.0
H72 H 0.54888 0.22198 0.19812 0.0
H73 H 0.46718 0.16467 0.2716 0.0
H74 H 0.67862 0.19403 0.1888 0.0
H75 H 0.68407 0.1685 0.319 0.0
H76 H 0.48172 0.0212 0.2718 0.0
H77 H 0.46211 0.0864 0.21187 0.0
H78 H 0.42673 0.98186 0.26601 0.0
H79 H 0.40755 0.0458 0.20654 0.0
H80 H 0.59942 0.07442 0.19043 0.0
H81 H 0.58327 0.0637 0.32605 0.0
H82 H 0.64712 0.07238 0.20136 0.0
H83 H 0.6311 0.06159 0.33457 0.0
H84 H 0.56041 0.05718 0.06415 0.0
H85 H 0.47045 0.99194 0.11179 0.0
H86 H 0.50001 0.06792 0.43814 0.0
H87 H 0.50554 0.9916 0.38464 0.0
Li88 Li 0.45656 0.54546 0.79262 0.0
Li89 Li 0.46305 0.58825 0.74845 0.0
Li90 Li 0.41196 0.53949 0.75211 0.0
Li91 Li 0.45517 0.54266 0.71232 0.0
C92 C 0.42524 0.57039 0.8382 0.0
N93 N 0.40471 0.57224 0.91945 0.0
C94 C 0.43932 0.59763 0.86176 0.0
C95 C 0.40033 0.54428 0.85569 0.0
C96 C 0.42873 0.59805 0.90287 0.0
C97 C 0.39038 0.54562 0.89687 0.0
C98 C 0.51841 0.59526 0.75156 0.0
C99 C 0.55981 0.63888 0.71616 0.0
N100 N 0.57546 0.6476 0.7537 0.0
C101 C 0.53502 0.60449 0.78969 0.0
C102 C 0.531 0.61242 0.71439 0.0
C103 C 0.56379 0.63108 0.79015 0.0
C104 C 0.46754 0.5073 0.84745 0.0
N105 N 0.46881 0.53483 0.84413 0.0
C106 C 0.48613 0.54731 0.9162 0.0
C107 C 0.47847 0.55501 0.87719 0.0
C108 C 0.48406 0.51864 0.92107 0.0
C109 C 0.47507 0.49865 0.88591 0.0
H110 H 0.46047 0.49198 0.8203 0.0
H111 H 0.48032 0.57717 0.87326 0.0
C112 C 0.47389 0.64379 0.71278 0.0
N113 N 0.48154 0.63167 0.74608 0.0
C114 C 0.48399 0.67508 0.71153 0.0
C115 C 0.5102 0.6811 0.77857 0.0
C116 C 0.49965 0.64961 0.77844 0.0
C117 C 0.50203 0.69408 0.74501 0.0
H118 H 0.45888 0.62899 0.68803 0.0
H119 H 0.50504 0.63931 0.80486 0.0
C120 C 0.4065 0.48119 0.76297 0.0
N121 N 0.36244 0.42108 0.77994 0.0
C122 C 0.39567 0.45936 0.73027 0.0
C123 C 0.39532 0.47226 0.80448 0.0
C124 C 0.37328 0.42914 0.73943 0.0
C125 C 0.37295 0.44183 0.81238 0.0
C126 C 0.42864 0.56481 0.65912 0.0
C127 C 0.39922 0.54659 0.6424 0.0
C128 C 0.45318 0.5819 0.63146 0.0
C129 C 0.39495 0.54536 0.5982 0.0
C130 C 0.44798 0.58001 0.58745 0.0
N131 N 0.41922 0.56191 0.57186 0.0
C132 C 0.36006 0.54338 0.7689 0.0
C133 C 0.3484 0.49652 0.73545 0.0
C134 C 0.3293 0.53524 0.76844 0.0
N135 N 0.369 0.52407 0.75268 0.0
C136 C 0.31731 0.48753 0.73402 0.0
C137 C 0.30757 0.50718 0.75037 0.0
H138 H 0.377 0.56547 0.78141 0.0
H139 H 0.35613 0.48196 0.72158 0.0
C140 C 0.49504 0.53651 0.65466 0.0
N141 N 0.46529 0.52781 0.6628 0.0
C142 C 0.50299 0.52785 0.61652 0.0
C143 C 0.44952 0.50116 0.59628 0.0
C144 C 0.44257 0.50998 0.63497 0.0
C145 C 0.48006 0.5103 0.58668 0.0
H146 H 0.51262 0.55062 0.67741 0.0
H147 H 0.41911 0.50325 0.64234 0.0
O148 O 0.43544 0.56959 0.7979 0.0
O149 O 0.49005 0.5695 0.7506 0.0
O150 O 0.42851 0.51088 0.7545 0.0
O151 O 0.43331 0.56601 0.70233 0.0
H152 H 0.45835 0.61819 0.8486 0.0
H153 H 0.38845 0.52334 0.83747 0.0
H154 H 0.4396 0.61891 0.92156 0.0
H155 H 0.37116 0.52554 0.91079 0.0
H156 H 0.56974 0.65248 0.68769 0.0
H157 H 0.52578 0.59136 0.81865 0.0
H158 H 0.51862 0.60545 0.68455 0.0
H159 H 0.57682 0.63858 0.81949 0.0
H160 H 0.49322 0.56345 0.94247 0.0
H161 H 0.47404 0.47669 0.88807 0.0
H162 H 0.47638 0.684 0.68574 0.0
H163 H 0.52383 0.695 0.80515 0.0
H164 H 0.40436 0.46564 0.69811 0.0
H165 H 0.40408 0.48849 0.8305 0.0
H166 H 0.36455 0.41209 0.71433 0.0
H167 H 0.36407 0.43467 0.84435 0.0
H168 H 0.37992 0.53341 0.66327 0.0
H169 H 0.47603 0.59631 0.64382 0.0
H170 H 0.37233 0.53122 0.58483 0.0
H171 H 0.46682 0.59292 0.56568 0.0
H172 H 0.32268 0.5512 0.78075 0.0
H173 H 0.30115 0.4657 0.71983 0.0
H174 H 0.52683 0.53546 0.60989 0.0
H175 H 0.43128 0.4875 0.57398 0.0
Li176 Li 0.87032 0.45798 0.24115 0.0
Li177 Li 0.90891 0.45364 0.28343 0.0
Li178 Li 0.90801 0.44988 0.20306 0.0
Li179 Li 0.86962 0.40745 0.24685 0.0
C180 C 0.92202 0.51478 0.23407 0.0
N181 N 0.93485 0.57441 0.222 0.0
C182 C 0.93356 0.53581 0.26773 0.0
C183 C 0.91738 0.52417 0.19414 0.0
C184 C 0.9398 0.56583 0.26103 0.0
C185 C 0.9239 0.55439 0.1887 0.0
C186 C 0.8556 0.42455 0.33324 0.0
C187 C 0.85004 0.39411 0.39562 0.0
N188 N 0.83908 0.40982 0.41778 0.0
C189 C 0.84396 0.44017 0.35644 0.0
C190 C 0.85841 0.40114 0.35278 0.0
C191 C 0.83586 0.43247 0.39923 0.0
C192 C 0.81761 0.45873 0.21758 0.0
N193 N 0.84418 0.47493 0.23963 0.0
C194 C 0.82891 0.51036 0.26364 0.0
C195 C 0.85022 0.50035 0.26242 0.0
C196 C 0.80086 0.49353 0.24211 0.0
C197 C 0.79558 0.46769 0.2183 0.0
H198 H 0.81304 0.43815 0.20067 0.0
H199 H 0.8711 0.51231 0.28073 0.0
C200 C 0.95646 0.46313 0.34068 0.0
N201 N 0.93259 0.46796 0.33382 0.0
C202 C 0.972 0.47136 0.37964 0.0
C203 C 0.93886 0.49044 0.40286 0.0
C204 C 0.92411 0.48202 0.36344 0.0
C205 C 0.96273 0.48457 0.41154 0.0
H206 H 0.96309 0.45244 0.3162 0.0
H207 H 0.90564 0.48638 0.35657 0.0
C208 C 0.8536 0.42113 0.15512 0.0
N209 N 0.83508 0.40897 0.0709 0.0
C210 C 0.84213 0.39157 0.13867 0.0
C211 C 0.85523 0.44438 0.12897 0.0
C212 C 0.83299 0.38591 0.09593 0.0
C213 C 0.84589 0.43781 0.08641 0.0
C214 C 0.92291 0.40273 0.24973 0.0
C215 C 0.93187 0.393 0.21347 0.0
C216 C 0.92247 0.3899 0.28951 0.0
C217 C 0.93991 0.37029 0.21754 0.0
C218 C 0.93065 0.36724 0.29226 0.0
N219 N 0.93911 0.35797 0.25651 0.0
C220 C 0.95633 0.48843 0.14794 0.0
C221 C 0.92302 0.43875 0.12044 0.0
C222 C 0.97289 0.4971 0.10979 0.0
N223 N 0.9316 0.45986 0.15222 0.0
C224 C 0.93866 0.44652 0.08162 0.0
C225 C 0.96367 0.47618 0.07569 0.0
H226 H 0.96305 0.50458 0.17407 0.0
H227 H 0.90389 0.4159 0.12508 0.0
C228 C 0.81303 0.35767 0.26265 0.0
N229 N 0.84177 0.36455 0.25126 0.0
C230 C 0.78969 0.32722 0.26595 0.0
C231 C 0.82594 0.31125 0.24627 0.0
C232 C 0.84859 0.34212 0.24289 0.0
C233 C 0.79594 0.30351 0.25747 0.0
H234 H 0.80818 0.37598 0.2686 0.0
H235 H 0.87135 0.34795 0.2331 0.0
O236 O 0.91582 0.48532 0.24007 0.0
O237 O 0.8639 0.432 0.29146 0.0
O238 O 0.86265 0.42705 0.19687 0.0
O239 O 0.91516 0.42507 0.24631 0.0
H240 H 0.93756 0.52899 0.29873 0.0
H241 H 0.90899 0.50835 0.16759 0.0
H242 H 0.94859 0.5823 0.28685 0.0
H243 H 0.92034 0.56194 0.15799 0.0
H244 H 0.85221 0.37612 0.41122 0.0
H245 H 0.84148 0.45823 0.34162 0.0
H246 H 0.86683 0.38847 0.33503 0.0
H247 H 0.82702 0.44451 0.41769 0.0
H248 H 0.83405 0.53062 0.28196 0.0
H249 H 0.77408 0.45376 0.2018 0.0
H250 H 0.99053 0.46675 0.38521 0.0
H251 H 0.93164 0.50132 0.42636 0.0
H252 H 0.84054 0.37327 0.15861 0.0
H253 H 0.86347 0.4672 0.14144 0.0
H254 H 0.82426 0.3632 0.08266 0.0
H255 H 0.84714 0.45562 0.06574 0.0
H256 H 0.93257 0.40282 0.1825 0.0
H257 H 0.91599 0.39741 0.31799 0.0
H258 H 0.94678 0.36247 0.18972 0.0
H259 H 0.93034 0.35706 0.32282 0.0
H260 H 0.99268 0.51987 0.10705 0.0
H261 H 0.93094 0.42964 0.05626 0.0
H262 H 0.76679 0.32229 0.27413 0.0
H263 H 0.83185 0.29369 0.24004 0.0
Li264 Li 0.45275 0.91121 0.7098 0.0
Li265 Li 0.45282 0.91054 0.78694 0.0
Li266 Li 0.46095 0.87313 0.74624 0.0
Li267 Li 0.40839 0.86991 0.74878 0.0
C268 C 0.51685 0.93423 0.73819 0.0
N269 N 0.57819 0.96757 0.71697 0.0
C270 C 0.53562 0.96292 0.75676 0.0
C271 C 0.52928 0.92237 0.7091 0.0
C272 C 0.56658 0.97946 0.74554 0.0
C273 C 0.56035 0.93962 0.69871 0.0
C274 C 0.41526 0.93555 0.75486 0.0
C275 C 0.3794 0.95029 0.78059 0.0
N276 N 0.39883 0.97963 0.76795 0.0
C277 C 0.4349 0.96582 0.74211 0.0
C278 C 0.38726 0.92764 0.77417 0.0
C279 C 0.42615 0.98778 0.749 0.0
C280 C 0.4378 0.9309 0.63486 0.0
N281 N 0.46194 0.93608 0.65995 0.0
C282 C 0.49699 0.97322 0.61057 0.0
C283 C 0.49111 0.9572 0.64896 0.0
C284 C 0.47263 0.96737 0.58311 0.0
C285 C 0.44266 0.946 0.5958 0.0
H286 H 0.41478 0.91431 0.6447 0.0
H287 H 0.50994 0.96151 0.66957 0.0
C288 C 0.4868 0.93123 0.86169 0.0
N289 N 0.4653 0.93366 0.83852 0.0
C290 C 0.49587 0.94533 0.90157 0.0
C291 C 0.46144 0.96523 0.89225 0.0
C292 C 0.45265 0.95032 0.85291 0.0
C293 C 0.48296 0.96242 0.91722 0.0
H294 H 0.49642 0.91778 0.84944 0.0
H295 H 0.43539 0.95173 0.83448 0.0
C296 C 0.42762 0.86263 0.65606 0.0
N297 N 0.42044 0.85749 0.5684 0.0
C298 C 0.39853 0.85085 0.63799 0.0
C299 C 0.45301 0.87143 0.62957 0.0
C300 C 0.39539 0.8485 0.59359 0.0
C301 C 0.44893 0.86879 0.58532 0.0
C302 C 0.42655 0.86149 0.83826 0.0
C303 C 0.44291 0.85261 0.86502 0.0
C304 C 0.40451 0.86746 0.85559 0.0
C305 C 0.43707 0.85006 0.90891 0.0
C306 C 0.39939 0.86469 0.89965 0.0
N307 N 0.41565 0.85613 0.92517 0.0
C308 C 0.49907 0.85041 0.7763 0.0
C309 C 0.47154 0.82821 0.7124 0.0
C310 C 0.50996 0.82974 0.77688 0.0
N311 N 0.4798 0.84882 0.74475 0.0
C312 C 0.4821 0.80742 0.71146 0.0
C313 C 0.50116 0.80771 0.74434 0.0
H314 H 0.50517 0.86708 0.80165 0.0
H315 H 0.45585 0.82717 0.68811 0.0
C316 C 0.34578 0.84866 0.72943 0.0
N317 N 0.36586 0.84277 0.7505 0.0
C318 C 0.31444 0.82722 0.7302 0.0
C319 C 0.32534 0.79473 0.77512 0.0
C320 C 0.35632 0.81659 0.77323 0.0
C321 C 0.30404 0.79977 0.75304 0.0
H322 H 0.35418 0.86975 0.71153 0.0
H323 H 0.37291 0.81251 0.78936 0.0
O324 O 0.48656 0.91778 0.749 0.0
O325 O 0.42318 0.91362 0.74817 0.0
O326 O 0.43116 0.86545 0.69947 0.0
O327 O 0.43244 0.86489 0.79536 0.0
H328 H 0.52632 0.97232 0.77949 0.0
H329 H 0.51515 0.90012 0.6947 0.0
H330 H 0.58139 0.00174 0.75954 0.0
H331 H 0.57027 0.93077 0.67616 0.0
H332 H 0.35786 0.94454 0.79565 0.0
H333 H 0.45667 0.97228 0.72717 0.0
H334 H 0.3719 0.90432 0.78441 0.0
H335 H 0.44109 0.01132 0.7393 0.0
H336 H 0.52041 0.98983 0.60224 0.0
H337 H 0.42324 0.9403 0.57532 0.0
H338 H 0.51276 0.94295 0.91995 0.0
H339 H 0.45099 0.9782 0.90356 0.0
H340 H 0.37861 0.84371 0.65799 0.0
H341 H 0.47566 0.88052 0.64299 0.0
H342 H 0.37302 0.83956 0.57917 0.0
H343 H 0.46842 0.87577 0.56443 0.0
H344 H 0.46002 0.84789 0.85207 0.0
H345 H 0.3918 0.87453 0.83527 0.0
H346 H 0.44963 0.8433 0.93005 0.0
H347 H 0.38255 0.86943 0.91356 0.0
H348 H 0.52444 0.83044 0.80291 0.0
H349 H 0.47416 0.79027 0.68644 0.0
H350 H 0.29859 0.83187 0.71295 0.0
H351 H 0.31819 0.77364 0.7926 0.0
Li352 Li 0.53905 0.45554 0.29291 0.0
Li353 Li 0.53601 0.4134 0.2506 0.0
Li354 Li 0.5849 0.46438 0.25646 0.0
Li355 Li 0.54214 0.45904 0.21278 0.0
C356 C 0.56105 0.4278 0.34399 0.0
N357 N 0.55812 0.41684 0.43085 0.0
C358 C 0.54167 0.39835 0.35996 0.0
C359 C 0.57934 0.45156 0.37214 0.0
C360 C 0.54044 0.39329 0.40399 0.0
C361 C 0.5774 0.4456 0.41596 0.0
C362 C 0.47815 0.40668 0.24164 0.0
C363 C 0.43972 0.3716 0.19245 0.0
N364 N 0.41919 0.35993 0.22507 0.0
C365 C 0.45654 0.39461 0.27456 0.0
C366 C 0.46957 0.39533 0.20016 0.0
C367 C 0.42691 0.37089 0.26558 0.0
C368 C 0.53397 0.49482 0.35258 0.0
N369 N 0.52464 0.46502 0.34346 0.0
C370 C 0.49886 0.44882 0.41055 0.0
C371 C 0.5068 0.44206 0.37103 0.0
C372 C 0.509 0.47944 0.42131 0.0
C373 C 0.52619 0.50259 0.39155 0.0
H374 H 0.54794 0.5126 0.32995 0.0
H375 H 0.49942 0.41854 0.36282 0.0
C376 C 0.54106 0.36356 0.22681 0.0
N377 N 0.52128 0.3706 0.24627 0.0
C378 C 0.53359 0.33314 0.22205 0.0
C379 C 0.48593 0.31745 0.25917 0.0
C380 C 0.49418 0.34836 0.2627 0.0
C381 C 0.50572 0.30969 0.23823 0.0
H382 H 0.56292 0.38168 0.21545 0.0
H383 H 0.47931 0.35453 0.27937 0.0
C384 C 0.59152 0.52018 0.2566 0.0
N385 N 0.64271 0.57812 0.25736 0.0
C386 C 0.59977 0.53855 0.22004 0.0
C387 C 0.60904 0.53146 0.29373 0.0
C388 C 0.62578 0.56774 0.22102 0.0
C389 C 0.63492 0.56074 0.29343 0.0
C390 C 0.56928 0.43141 0.16443 0.0
C391 C 0.59742 0.448 0.14346 0.0
C392 C 0.54454 0.4074 0.14312 0.0
C393 C 0.60012 0.44077 0.10118 0.0
C394 C 0.54815 0.40084 0.10088 0.0
N395 N 0.57562 0.41756 0.08092 0.0
C396 C 0.63847 0.46874 0.28774 0.0
C397 C 0.64743 0.50363 0.23131 0.0
C398 C 0.66926 0.47696 0.28823 0.0
N399 N 0.62811 0.48178 0.25925 0.0
C400 C 0.67854 0.51266 0.23078 0.0
C401 C 0.68968 0.4989 0.25912 0.0
H402 H 0.62255 0.45082 0.30877 0.0
H403 H 0.6385 0.51308 0.20819 0.0
C404 C 0.50325 0.46855 0.15754 0.0
N405 N 0.53171 0.47222 0.16192 0.0
C406 C 0.4946 0.47609 0.11908 0.0
C407 C 0.54512 0.49216 0.09109 0.0
C408 C 0.55278 0.4844 0.13006 0.0
C409 C 0.51554 0.48755 0.08504 0.0
H410 H 0.48715 0.45945 0.18375 0.0
H411 H 0.57555 0.48802 0.13483 0.0
O412 O 0.56216 0.43329 0.30102 0.0
O413 O 0.50729 0.42994 0.24991 0.0
O414 O 0.56621 0.49146 0.25616 0.0
O415 O 0.56628 0.43819 0.2059 0.0
H416 H 0.5275 0.37965 0.33865 0.0
H417 H 0.59474 0.47437 0.3603 0.0
H418 H 0.52536 0.37066 0.41681 0.0
H419 H 0.59121 0.46384 0.43813 0.0
H420 H 0.43284 0.36256 0.1605 0.0
H421 H 0.46256 0.40339 0.30671 0.0
H422 H 0.48564 0.40495 0.17406 0.0
H423 H 0.41003 0.36122 0.29083 0.0
H424 H 0.48516 0.43038 0.4326 0.0
H425 H 0.53424 0.52646 0.39891 0.0
H426 H 0.54983 0.32802 0.20688 0.0
H427 H 0.4645 0.29987 0.27272 0.0
H428 H 0.58626 0.53039 0.19121 0.0
H429 H 0.60279 0.51771 0.32243 0.0
H430 H 0.63252 0.58215 0.19289 0.0
H431 H 0.6488 0.56967 0.32187 0.0
H432 H 0.61692 0.46642 0.15952 0.0
H433 H 0.52292 0.39366 0.15918 0.0
H434 H 0.6217 0.4536 0.08449 0.0
H435 H 0.52915 0.38235 0.08403 0.0
H436 H 0.67659 0.46496 0.30959 0.0
H437 H 0.69351 0.52941 0.20753 0.0
H438 H 0.47185 0.47305 0.11604 0.0
H439 H 0.56198 0.5012 0.06571 0.0
Li440 Li 0.08033 0.53647 0.78281 0.0
Li441 Li 0.11829 0.53254 0.73838 0.0
Li442 Li 0.11841 0.5826 0.74486 0.0
Li443 Li 0.08007 0.53997 0.70263 0.0
C444 C 0.13477 0.56448 0.8309 0.0
N445 N 0.15353 0.57621 0.91517 0.0
C446 C 0.1472 0.54827 0.85069 0.0
C447 C 0.13249 0.58709 0.85378 0.0
C448 C 0.15638 0.5544 0.89336 0.0
C449 C 0.14193 0.59257 0.89639 0.0
C450 C 0.06976 0.47588 0.73844 0.0
C451 C 0.07251 0.43553 0.70079 0.0
N452 N 0.06378 0.41825 0.73698 0.0
C453 C 0.06051 0.4576 0.77513 0.0
C454 C 0.07551 0.46465 0.70084 0.0
C455 C 0.05772 0.42858 0.77379 0.0
C456 C 0.03191 0.52593 0.83849 0.0
N457 N 0.05701 0.52279 0.83391 0.0
C458 C 0.05121 0.50333 0.90494 0.0
C459 C 0.06637 0.51104 0.86575 0.0
C460 C 0.02592 0.50741 0.9112 0.0
C461 C 0.01588 0.51827 0.87708 0.0
H462 H 0.02455 0.53469 0.81231 0.0
H463 H 0.08576 0.50781 0.86084 0.0
C464 C 0.16824 0.52955 0.70606 0.0
N465 N 0.14498 0.51615 0.73477 0.0
C466 C 0.19124 0.52191 0.70529 0.0
C467 C 0.16564 0.48622 0.76307 0.0
C468 C 0.143 0.49449 0.76261 0.0
C469 C 0.19038 0.50038 0.73454 0.0
H470 H 0.16979 0.5473 0.6851 0.0
H471 H 0.1247 0.48471 0.78583 0.0
C472 C 0.06672 0.58778 0.75372 0.0
N473 N 0.05397 0.63434 0.7689 0.0
C474 C 0.05674 0.59915 0.72046 0.0
C475 C 0.06958 0.59967 0.79487 0.0
C476 C 0.05058 0.6228 0.72872 0.0
C477 C 0.06321 0.62331 0.80187 0.0
C478 C 0.1298 0.56841 0.65102 0.0
C479 C 0.13956 0.59759 0.63423 0.0
C480 C 0.12498 0.54447 0.62364 0.0
C481 C 0.14376 0.60219 0.59016 0.0
C482 C 0.12938 0.54997 0.57975 0.0
N483 N 0.13856 0.57847 0.56405 0.0
C484 C 0.17154 0.63434 0.77005 0.0
C485 C 0.13965 0.64663 0.72896 0.0
C486 C 0.19381 0.66515 0.77287 0.0
N487 N 0.14504 0.62567 0.74859 0.0
C488 C 0.1616 0.67785 0.73054 0.0
C489 C 0.18912 0.68726 0.75257 0.0
H490 H 0.17578 0.61721 0.78403 0.0
H491 H 0.11889 0.63912 0.71085 0.0
C492 C 0.03528 0.50007 0.64407 0.0
N493 N 0.0558 0.52996 0.65249 0.0
C494 C 0.01879 0.49194 0.60588 0.0
C495 C 0.04454 0.54557 0.58615 0.0
C496 C 0.06035 0.55266 0.6248 0.0
C497 C 0.02357 0.51488 0.57633 0.0
H498 H 0.03206 0.48249 0.66671 0.0
H499 H 0.07667 0.57625 0.63237 0.0
O500 O 0.12548 0.55861 0.78914 0.0
O501 O 0.07271 0.50441 0.7392 0.0
O502 O 0.07299 0.56469 0.74613 0.0
O503 O 0.12529 0.56341 0.69407 0.0
H504 H 0.14953 0.53099 0.83344 0.0
H505 H 0.12392 0.60056 0.83867 0.0
H506 H 0.16579 0.54184 0.90914 0.0
H507 H 0.14018 0.60993 0.91447 0.0
H508 H 0.07707 0.42664 0.67197 0.0
H509 H 0.05554 0.46571 0.80433 0.0
H510 H 0.08224 0.47827 0.67202 0.0
H511 H 0.05072 0.41426 0.80201 0.0
H512 H 0.05951 0.49476 0.93031 0.0
H513 H 0.99586 0.5208 0.88017 0.0
H514 H 0.21041 0.53405 0.68368 0.0
H515 H 0.16443 0.46977 0.78642 0.0
H516 H 0.05385 0.58991 0.68858 0.0
H517 H 0.0763 0.59055 0.82126 0.0
H518 H 0.04307 0.63196 0.70319 0.0
H519 H 0.06546 0.6328 0.83355 0.0
H520 H 0.14367 0.61644 0.65494 0.0
H521 H 0.11788 0.52189 0.63612 0.0
H522 H 0.15111 0.62461 0.57671 0.0
H523 H 0.12552 0.53159 0.55818 0.0
H524 H 0.21507 0.67152 0.78935 0.0
H525 H 0.15739 0.69434 0.7142 0.0
H526 H 0.00305 0.46798 0.59908 0.0
H527 H 0.04868 0.56385 0.56413 0.0
C528 C 0.49507 0.23289 0.27192 0.0
C529 C 0.49937 0.22135 0.23319 0.0
C530 C 0.49484 0.26063 0.27305 0.0
C531 C 0.49894 0.27759 0.2355 0.0
H532 H 0.49391 0.22151 0.3018 0.0
H533 H 0.49349 0.26984 0.30374 0.0
S534 S 0.50532 0.25437 0.12539 0.0
N535 N 0.50345 0.22674 0.15594 0.0
N536 N 0.50326 0.27898 0.15816 0.0
C537 C 0.50075 0.26503 0.19632 0.0
C538 C 0.5009 0.23685 0.19514 0.0
C539 C 0.2602 0.50264 0.78265 0.0
C540 C 0.27532 0.49981 0.74669 0.0
C541 C 0.23161 0.50068 0.77882 0.0
C542 C 0.21727 0.49611 0.73881 0.0
H543 H 0.27109 0.50754 0.81373 0.0
H544 H 0.22153 0.50456 0.80701 0.0
S545 S 0.24601 0.48445 0.63552 0.0
N546 N 0.27297 0.49012 0.6703 0.0
N547 N 0.21901 0.48618 0.66318 0.0
C548 C 0.23135 0.49154 0.703 0.0
C549 C 0.26042 0.4934 0.70693 0.0
C550 C 0.72307 0.2322 0.29236 0.0
C551 C 0.71675 0.21202 0.25783 0.0
C552 C 0.74954 0.26115 0.29295 0.0
C553 C 0.77069 0.27109 0.25901 0.0
H554 H 0.70665 0.22629 0.31806 0.0
H555 H 0.75295 0.27631 0.31954 0.0
S556 S 0.76632 0.22551 0.16332 0.0
N557 N 0.7352 0.20266 0.19095 0.0
N558 N 0.78451 0.25754 0.19125 0.0
C559 C 0.76551 0.25046 0.22544 0.0
C560 C 0.73862 0.22085 0.225 0.0
C561 C 0.50035 0.76431 0.78381 0.0
C562 C 0.50838 0.78265 0.7469 0.0
C563 C 0.50049 0.73655 0.78393 0.0
C564 C 0.50869 0.72625 0.74716 0.0
H565 H 0.49188 0.77036 0.81182 0.0
H566 H 0.49212 0.72213 0.81206 0.0
S567 S 0.53726 0.7688 0.64526 0.0
N568 N 0.52884 0.79078 0.67478 0.0
N569 N 0.52926 0.73861 0.67506 0.0
C570 C 0.51922 0.74563 0.7113 0.0
C571 C 0.51902 0.77384 0.71116 0.0
C572 C 0.73198 0.50145 0.21457 0.0
C573 C 0.72124 0.50408 0.25493 0.0
C574 C 0.75886 0.49995 0.21047 0.0
C575 C 0.776 0.50101 0.24655 0.0
H576 H 0.71859 0.49865 0.18613 0.0
H577 H 0.76558 0.49664 0.17892 0.0
S578 S 0.75966 0.51177 0.35891 0.0
N579 N 0.73159 0.51127 0.33114 0.0
N580 N 0.78156 0.50737 0.32371 0.0
C581 C 0.7666 0.5057 0.28683 0.0
C582 C 0.73932 0.50743 0.29094 0.0
C583 C 0.25681 0.7611 0.79071 0.0
C584 C 0.27153 0.77522 0.75225 0.0
C585 C 0.22871 0.73367 0.79061 0.0
C586 C 0.21434 0.71947 0.75205 0.0
H587 H 0.26789 0.7705 0.82106 0.0
H588 H 0.21893 0.72262 0.82086 0.0
S589 S 0.24224 0.7484 0.64283 0.0
N590 N 0.26875 0.77413 0.67469 0.0
N591 N 0.21573 0.72248 0.67454 0.0
C592 C 0.22771 0.73444 0.71345 0.0
C593 C 0.25639 0.76239 0.71354 0.0
C594 C 0.50321 0.00891 0.96333 0.0
C595 C 0.49164 0.97719 0.9596 0.0
C596 C 0.51098 0.02334 0.00328 0.0
C597 C 0.50699 0.00643 0.04088 0.0
H598 H 0.50635 0.02266 0.93513 0.0
H599 H 0.51967 0.04783 0.00485 0.0
S600 S 0.47731 0.92271 0.04807 0.0
N601 N 0.4765 0.92924 0.99651 0.0
N602 N 0.491 0.95636 0.07182 0.0
C603 C 0.49543 0.97468 0.03754 0.0
C604 C 0.48783 0.96005 0.9968 0.0
C605 C 0.4863 0.50359 0.46703 0.0
C606 C 0.50205 0.48724 0.46374 0.0
C607 C 0.4791 0.51079 0.50704 0.0
C608 C 0.48792 0.50234 0.54497 0.0
H609 H 0.47918 0.5105 0.43848 0.0
H610 H 0.46679 0.52329 0.50836 0.0
S611 S 0.5302 0.45993 0.55338 0.0
N612 N 0.52659 0.46314 0.50148 0.0
N613 N 0.51334 0.477 0.57681 0.0
C614 C 0.50399 0.48631 0.54207 0.0
C615 C 0.51095 0.47863 0.50138 0.0
C616 C 0.00257 0.47242 0.97384 0.0
C617 C 0.01011 0.50012 0.95313 0.0
C618 C 0.98775 0.465 0.01352 0.0
C619 C 0.97995 0.485 0.03407 0.0
H620 H 0.00789 0.45619 0.95907 0.0
H621 H 0.98253 0.44347 0.02832 0.0
S622 S 0.99494 0.56055 0.9935 0.0
N623 N 0.00939 0.54801 0.95657 0.0
N624 N 0.98055 0.53356 0.03049 0.0
C625 C 0.9874 0.51281 0.01375 0.0
C626 C 0.00263 0.52044 0.97342 0.0
C627 C 0.50939 -0.00151 0.4752 0.0
C628 C 0.49247 0.01149 0.45885 0.0
C629 C 0.5027 0.98427 0.51525 0.0
C630 C 0.47888 0.98254 0.54069 0.0
H631 H 0.52832 -0.00029 0.45719 0.0
H632 H 0.51625 0.9744 0.52626 0.0
S633 S 0.42729 0.01254 0.51228 0.0
N634 N 0.45016 0.02087 0.47056 0.0
N635 N 0.43833 0.99516 0.54672 0.0
C636 C 0.46163 0.9953 0.52469 0.0
C637 C 0.46831 0.00961 0.48366 0.0
C638 C 0.51873 0.53065 0.984 0.0
C639 C 0.49159 0.50996 0.96265 0.0
C640 C 0.52626 0.52321 0.02355 0.0
C641 C 0.50683 0.49489 0.04335 0.0
H642 H 0.53441 0.55268 0.96987 0.0
H643 H 0.54735 0.53988 0.03893 0.0
S644 S 0.43305 0.43273 0.00072 0.0
N645 N 0.44504 0.46013 0.96438 0.0
N646 N 0.45953 0.44586 0.03838 0.0
C647 C 0.47963 0.47398 0.02234 0.0
C648 C 0.47197 0.48155 0.98203 0.0
C649 C 0.02438 0.51759 0.49667 0.0
C650 C 0.00748 0.50687 0.53478 0.0
C651 C 0.00976 0.51009 0.45685 0.0
C652 C 0.97773 0.49197 0.45386 0.0
H653 H 0.04912 0.53161 0.49767 0.0
H654 H 0.02357 0.51879 0.42822 0.0
S655 S 0.92312 0.45828 0.54409 0.0
N656 N 0.95709 0.47734 0.5671 0.0
N657 N 0.92956 0.46315 0.49216 0.0
C658 C 0.96057 0.48115 0.4917 0.0
C659 C 0.97546 0.48859 0.5322 0.0
loop_
_geom_bond_atom_site_label_1
_geom_bond_atom_site_label_2
_geom_bond_distance
_geom_bond_site_symmetry_2
_ccdc_geom_bond_type
Li0 N17 1.990 . S
Li0 O60 1.956 . S
Li0 O61 1.970 . S
Li0 O62 1.961 . S
Li1 N25 1.990 . S
Li1 O60 1.970 . S
Li1 O61 1.956 . S
Li1 O63 1.961 . S
Li2 N47 1.990 . S
Li2 O60 1.961 . S
Li2 O62 1.956 . S
Li2 O63 1.970 . S
Li3 N53 1.990 . S
Li3 O61 1.961 . S
Li3 O62 1.970 . S
Li3 O63 1.956 . S
C4 C6 1.348 . S
C4 C7 1.356 . S
C4 O60 1.325 . S
N5 C8 1.314 . S
N5 C9 1.279 . S
C6 C4 1.348 . S
C6 C8 1.353 . S
C6 H64 0.929 . S
C7 C4 1.356 . S
C7 C9 1.358 . S
C7 H65 0.930 . S
C8 N5 1.314 . S
C8 C6 1.353 . S
C8 H66 0.930 . S
C9 N5 1.279 . S
C9 C7 1.358 . S
C9 H67 0.930 . S
C10 C13 1.348 . S
C10 C14 1.356 . S
C10 O61 1.325 . S
C11 N12 1.279 . S
C11 C14 1.358 . S
C11 H68 0.930 . S
N12 C11 1.279 . S
N12 C15 1.314 . S
C13 C10 1.348 . S
C13 C15 1.353 . S
C13 H69 0.929 . S
C14 C10 1.356 . S
C14 C11 1.358 . S
C14 H70 0.930 . S
C15 N12 1.314 . S
C15 C13 1.353 . S
C15 H71 0.930 . S
C16 N17 1.314 . S
C16 C21 1.353 . S
C16 H22 0.930 . S
N17 Li0 1.990 . S
N17 C16 1.314 . S
N17 C19 1.279 . S
C18 C19 1.358 . S
C18 C20 1.356 . S
C18 H72 0.930 . S
C19 N17 1.279 . S
C19 C18 1.358 . S
C19 H23 0.930 . S
C20 C18 1.356 . S
C20 C21 1.348 . S
C21 C16 1.353 . S
C21 C20 1.348 . S
C21 H73 0.929 . S
H22 C16 0.930 . S
H23 C19 0.930 . S
C24 N25 1.314 . S
C24 C26 1.353 . S
C24 H30 0.930 . S
N25 Li1 1.990 . S
N25 C24 1.314 . S
N25 C28 1.279 . S
C26 C24 1.353 . S
C26 C29 1.348 . S
C26 H74 0.929 . S
C27 C28 1.358 . S
C27 C29 1.356 . S
C27 H75 0.930 . S
C28 N25 1.279 . S
C28 C27 1.358 . S
C28 H31 0.930 . S
C29 C26 1.348 . S
C29 C27 1.356 . S
H30 C24 0.930 . S
H31 C28 0.930 . S
C32 C34 1.348 . S
C32 C35 1.356 . S
C32 O62 1.325 . S
N33 C36 1.314 . S
N33 C37 1.279 . S
C34 C32 1.348 . S
C34 C36 1.353 . S
C34 H76 0.929 . S
C35 C32 1.356 . S
C35 C37 1.358 . S
C35 H77 0.930 . S
C36 N33 1.314 . S
C36 C34 1.353 . S
C36 H78 0.930 . S
C37 N33 1.279 . S
C37 C35 1.358 . S
C37 H79 0.930 . S
C38 C39 1.348 . S
C38 C40 1.356 . S
C38 O63 1.325 . S
C39 C38 1.348 . S
C39 C41 1.353 . S
C39 H80 0.929 . S
C40 C38 1.356 . S
C40 C42 1.358 . S
C40 H81 0.930 . S
C41 C39 1.353 . S
C41 N43 1.314 . S
C41 H82 0.930 . S
C42 C40 1.358 . S
C42 N43 1.279 . S
C42 H83 0.930 . S
N43 C41 1.314 . S
N43 C42 1.279 . S
C44 C46 1.353 . S
C44 N47 1.314 . S
C44 H50 0.930 . S
C45 N47 1.279 . S
C45 C48 1.358 . S
C45 H51 0.930 . S
C46 C44 1.353 . S
C46 C49 1.348 . S
C46 H84 0.929 . S
N47 Li2 1.990 . S
N47 C44 1.314 . S
N47 C45 1.279 . S
C48 C45 1.358 . S
C48 C49 1.356 . S
C48 H85 0.930 . S
C49 C46 1.348 . S
C49 C48 1.356 . S
H50 C44 0.930 . S
H51 C45 0.930 . S
C52 N53 1.314 . S
C52 C54 1.353 . S
C52 H58 0.930 . S
N53 Li3 1.990 . S
N53 C52 1.314 . S
N53 C56 1.279 . S
C54 C52 1.353 . S
C54 C57 1.348 . S
C54 H86 0.929 . S
C55 C56 1.358 . S
C55 C57 1.356 . S
C55 H87 0.930 . S
C56 N53 1.279 . S
C56 C55 1.358 . S
C56 H59 0.930 . S
C57 C54 1.348 . S
C57 C55 1.356 . S
H58 C52 0.930 . S
H59 C56 0.930 . S
O60 Li0 1.956 . S
O60 Li1 1.970 . S
O60 Li2 1.961 . S
O60 C4 1.325 . S
O61 Li0 1.970 . S
O61 Li1 1.956 . S
O61 Li3 1.961 . S
O61 C10 1.325 . S
O62 Li0 1.961 . S
O62 Li2 1.956 . S
O62 Li3 1.970 . S
O62 C32 1.325 . S
O63 Li1 1.961 . S
O63 Li2 1.970 . S
O63 Li3 1.956 . S
O63 C38 1.325 . S
H64 C6 0.929 . S
H65 C7 0.930 . S
H66 C8 0.930 . S
H67 C9 0.930 . S
H68 C11 0.930 . S
H69 C13 0.929 . S
H70 C14 0.930 . S
H71 C15 0.930 . S
H72 C18 0.930 . S
H73 C21 0.929 . S
H74 C26 0.929 . S
H75 C27 0.930 . S
H76 C34 0.929 . S
H77 C35 0.930 . S
H78 C36 0.930 . S
H79 C37 0.930 . S
H80 C39 0.929 . S
H81 C40 0.930 . S
H82 C41 0.930 . S
H83 C42 0.930 . S
H84 C46 0.929 . S
H85 C48 0.930 . S
H86 C54 0.929 . S
H87 C55 0.930 . S
Li88 N105 1.990 . S
Li88 O148 1.956 . S
Li88 O149 1.970 . S
Li88 O150 1.961 . S
Li89 N113 1.990 . S
Li89 O148 1.970 . S
Li89 O149 1.956 . S
Li89 O151 1.961 . S
Li90 N135 1.990 . S
Li90 O148 1.961 . S
Li90 O150 1.956 . S
Li90 O151 1.970 . S
Li91 N141 1.990 . S
Li91 O149 1.961 . S
Li91 O150 1.970 . S
Li91 O151 1.956 . S
C92 C94 1.348 . S
C92 C95 1.356 . S
C92 O148 1.325 . S
N93 C96 1.314 . S
N93 C97 1.279 . S
C94 C92 1.348 . S
C94 C96 1.353 . S
C94 H152 0.929 . S
C95 C92 1.356 . S
C95 C97 1.358 . S
C95 H153 0.930 . S
C96 N93 1.314 . S
C96 C94 1.353 . S
C96 H154 0.930 . S
C97 N93 1.279 . S
C97 C95 1.358 . S
C97 H155 0.930 . S
C98 C101 1.348 . S
C98 C102 1.356 . S
C98 O149 1.325 . S
C99 N100 1.279 . S
C99 C102 1.358 . S
C99 H156 0.930 . S
N100 C99 1.279 . S
N100 C103 1.314 . S
C101 C98 1.348 . S
C101 C103 1.353 . S
C101 H157 0.929 . S
C102 C98 1.356 . S
C102 C99 1.358 . S
C102 H158 0.930 . S
C103 N100 1.314 . S
C103 C101 1.353 . S
C103 H159 0.930 . S
C104 N105 1.314 . S
C104 C109 1.353 . S
C104 H110 0.930 . S
N105 Li88 1.990 . S
N105 C104 1.314 . S
N105 C107 1.279 . S
C106 C107 1.358 . S
C106 C108 1.356 . S
C106 H160 0.930 . S
C107 N105 1.279 . S
C107 C106 1.358 . S
C107 H111 0.930 . S
C108 C106 1.356 . S
C108 C109 1.348 . S
C109 C104 1.353 . S
C109 C108 1.348 . S
C109 H161 0.929 . S
H110 C104 0.930 . S
H111 C107 0.930 . S
C112 N113 1.314 . S
C112 C114 1.353 . S
C112 H118 0.930 . S
N113 Li89 1.990 . S
N113 C112 1.314 . S
N113 C116 1.279 . S
C114 C112 1.353 . S
C114 C117 1.348 . S
C114 H162 0.929 . S
C115 C116 1.358 . S
C115 C117 1.356 . S
C115 H163 0.930 . S
C116 N113 1.279 . S
C116 C115 1.358 . S
C116 H119 0.930 . S
C117 C114 1.348 . S
C117 C115 1.356 . S
H118 C112 0.930 . S
H119 C116 0.930 . S
C120 C122 1.348 . S
C120 C123 1.356 . S
C120 O150 1.325 . S
N121 C124 1.314 . S
N121 C125 1.279 . S
C122 C120 1.348 . S
C122 C124 1.353 . S
C122 H164 0.929 . S
C123 C120 1.356 . S
C123 C125 1.358 . S
C123 H165 0.930 . S
C124 N121 1.314 . S
C124 C122 1.353 . S
C124 H166 0.930 . S
C125 N121 1.279 . S
C125 C123 1.358 . S
C125 H167 0.930 . S
C126 C127 1.348 . S
C126 C128 1.356 . S
C126 O151 1.325 . S
C127 C126 1.348 . S
C127 C129 1.353 . S
C127 H168 0.929 . S
C128 C126 1.356 . S
C128 C130 1.358 . S
C128 H169 0.930 . S
C129 C127 1.353 . S
C129 N131 1.314 . S
C129 H170 0.930 . S
C130 C128 1.358 . S
C130 N131 1.279 . S
C130 H171 0.930 . S
N131 C129 1.314 . S
N131 C130 1.279 . S
C132 C134 1.353 . S
C132 N135 1.314 . S
C132 H138 0.930 . S
C133 N135 1.279 . S
C133 C136 1.358 . S
C133 H139 0.930 . S
C134 C132 1.353 . S
C134 C137 1.348 . S
C134 H172 0.929 . S
N135 Li90 1.990 . S
N135 C132 1.314 . S
N135 C133 1.279 . S
C136 C133 1.358 . S
C136 C137 1.356 . S
C136 H173 0.930 . S
C137 C134 1.348 . S
C137 C136 1.356 . S
H138 C132 0.930 . S
H139 C133 0.930 . S
C140 N141 1.314 . S
C140 C142 1.353 . S
C140 H146 0.930 . S
N141 Li91 1.990 . S
N141 C140 1.314 . S
N141 C144 1.279 . S
C142 C140 1.353 . S
C142 C145 1.348 . S
C142 H174 0.929 . S
C143 C144 1.358 . S
C143 C145 1.356 . S
C143 H175 0.930 . S
C144 N141 1.279 . S
C144 C143 1.358 . S
C144 H147 0.930 . S
C145 C142 1.348 . S
C145 C143 1.356 . S
H146 C140 0.930 . S
H147 C144 0.930 . S
O148 Li88 1.956 . S
O148 Li89 1.970 . S
O148 Li90 1.961 . S
O148 C92 1.325 . S
O149 Li88 1.970 . S
O149 Li89 1.956 . S
O149 Li91 1.961 . S
O149 C98 1.325 . S
O150 Li88 1.961 . S
O150 Li90 1.956 . S
O150 Li91 1.970 . S
O150 C120 1.325 . S
O151 Li89 1.961 . S
O151 Li90 1.970 . S
O151 Li91 1.956 . S
O151 C126 1.325 . S
H152 C94 0.929 . S
H153 C95 0.930 . S
H154 C96 0.930 . S
H155 C97 0.930 . S
H156 C99 0.930 . S
H157 C101 0.929 . S
H158 C102 0.930 . S
H159 C103 0.930 . S
H160 C106 0.930 . S
H161 C109 0.929 . S
H162 C114 0.929 . S
H163 C115 0.930 . S
H164 C122 0.929 . S
H165 C123 0.930 . S
H166 C124 0.930 . S
H167 C125 0.930 . S
H168 C127 0.929 . S
H169 C128 0.930 . S
H170 C129 0.930 . S
H171 C130 0.930 . S
H172 C134 0.929 . S
H173 C136 0.930 . S
H174 C142 0.929 . S
H175 C143 0.930 . S
Li176 N193 1.990 . S
Li176 O236 1.956 . S
Li176 O237 1.970 . S
Li176 O238 1.961 . S
Li177 N201 1.990 . S
Li177 O236 1.970 . S
Li177 O237 1.956 . S
Li177 O239 1.961 . S
Li178 N223 1.990 . S
Li178 O236 1.961 . S
Li178 O238 1.956 . S
Li178 O239 1.970 . S
Li179 N229 1.990 . S
Li179 O237 1.961 . S
Li179 O238 1.970 . S
Li179 O239 1.956 . S
C180 C182 1.348 . S
C180 C183 1.356 . S
C180 O236 1.325 . S
N181 C184 1.314 . S
N181 C185 1.279 . S
C182 C180 1.348 . S
C182 C184 1.353 . S
C182 H240 0.929 . S
C183 C180 1.356 . S
C183 C185 1.358 . S
C183 H241 0.930 . S
C184 N181 1.314 . S
C184 C182 1.353 . S
C184 H242 0.930 . S
C185 N181 1.279 . S
C185 C183 1.358 . S
C185 H243 0.930 . S
C186 C189 1.348 . S
C186 C190 1.356 . S
C186 O237 1.325 . S
C187 N188 1.279 . S
C187 C190 1.358 . S
C187 H244 0.930 . S
N188 C187 1.279 . S
N188 C191 1.314 . S
C189 C186 1.348 . S
C189 C191 1.353 . S
C189 H245 0.929 . S
C190 C186 1.356 . S
C190 C187 1.358 . S
C190 H246 0.930 . S
C191 N188 1.314 . S
C191 C189 1.353 . S
C191 H247 0.930 . S
C192 N193 1.314 . S
C192 C197 1.353 . S
C192 H198 0.930 . S
N193 Li176 1.990 . S
N193 C192 1.314 . S
N193 C195 1.279 . S
C194 C195 1.358 . S
C194 C196 1.356 . S
C194 H248 0.930 . S
C195 N193 1.279 . S
C195 C194 1.358 . S
C195 H199 0.930 . S
C196 C194 1.356 . S
C196 C197 1.348 . S
C197 C192 1.353 . S
C197 C196 1.348 . S
C197 H249 0.929 . S
H198 C192 0.930 . S
H199 C195 0.930 . S
C200 N201 1.314 . S
C200 C202 1.353 . S
C200 H206 0.930 . S
N201 Li177 1.990 . S
N201 C200 1.314 . S
N201 C204 1.279 . S
C202 C200 1.353 . S
C202 C205 1.348 . S
C202 H250 0.929 1_655 S
C203 C204 1.358 . S
C203 C205 1.356 . S
C203 H251 0.930 . S
C204 N201 1.279 . S
C204 C203 1.358 . S
C204 H207 0.930 . S
C205 C202 1.348 . S
C205 C203 1.356 . S
H206 C200 0.930 . S
H207 C204 0.930 . S
C208 C210 1.348 . S
C208 C211 1.356 . S
C208 O238 1.325 . S
N209 C212 1.314 . S
N209 C213 1.279 . S
C210 C208 1.348 . S
C210 C212 1.353 . S
C210 H252 0.929 . S
C211 C208 1.356 . S
C211 C213 1.358 . S
C211 H253 0.930 . S
C212 N209 1.314 . S
C212 C210 1.353 . S
C212 H254 0.930 . S
C213 N209 1.279 . S
C213 C211 1.358 . S
C213 H255 0.930 . S
C214 C215 1.348 . S
C214 C216 1.356 . S
C214 O239 1.325 . S
C215 C214 1.348 . S
C215 C217 1.353 . S
C215 H256 0.929 . S
C216 C214 1.356 . S
C216 C218 1.358 . S
C216 H257 0.930 . S
C217 C215 1.353 . S
C217 N219 1.314 . S
C217 H258 0.930 . S
C218 C216 1.358 . S
C218 N219 1.279 . S
C218 H259 0.930 . S
N219 C217 1.314 . S
N219 C218 1.279 . S
C220 C222 1.353 . S
C220 N223 1.314 . S
C220 H226 0.930 . S
C221 N223 1.279 . S
C221 C224 1.358 . S
C221 H227 0.930 . S
C222 C220 1.353 . S
C222 C225 1.348 . S
C222 H260 0.929 1_655 S
N223 Li178 1.990 . S
N223 C220 1.314 . S
N223 C221 1.279 . S
C224 C221 1.358 . S
C224 C225 1.356 . S
C224 H261 0.930 . S
C225 C222 1.348 . S
C225 C224 1.356 . S
H226 C220 0.930 . S
H227 C221 0.930 . S
C228 N229 1.314 . S
C228 C230 1.353 . S
C228 H234 0.930 . S
N229 Li179 1.990 . S
N229 C228 1.314 . S
N229 C232 1.279 . S
C230 C228 1.353 . S
C230 C233 1.348 . S
C230 H262 0.929 . S
C231 C232 1.358 . S
C231 C233 1.356 . S
C231 H263 0.930 . S
C232 N229 1.279 . S
C232 C231 1.358 . S
C232 H235 0.930 . S
C233 C230 1.348 . S
C233 C231 1.356 . S
H234 C228 0.930 . S
H235 C232 0.930 . S
O236 Li176 1.956 . S
O236 Li177 1.970 . S
O236 Li178 1.961 . S
O236 C180 1.325 . S
O237 Li176 1.970 . S
O237 Li177 1.956 . S
O237 Li179 1.961 . S
O237 C186 1.325 . S
O238 Li176 1.961 . S
O238 Li178 1.956 . S
O238 Li179 1.970 . S
O238 C208 1.325 . S
O239 Li177 1.961 . S
O239 Li178 1.970 . S
O239 Li179 1.956 . S
O239 C214 1.325 . S
H240 C182 0.929 . S
H241 C183 0.930 . S
H242 C184 0.930 . S
H243 C185 0.930 . S
H244 C187 0.930 . S
H245 C189 0.929 . S
H246 C190 0.930 . S
H247 C191 0.930 . S
H248 C194 0.930 . S
H249 C197 0.929 . S
H250 C202 0.929 1_455 S
H251 C203 0.930 . S
H252 C210 0.929 . S
H253 C211 0.930 . S
H254 C212 0.930 . S
H255 C213 0.930 . S
H256 C215 0.929 . S
H257 C216 0.930 . S
H258 C217 0.930 . S
H259 C218 0.930 . S
H260 C222 0.929 1_455 S
H261 C224 0.930 . S
H262 C230 0.929 . S
H263 C231 0.930 . S
Li264 N281 1.990 . S
Li264 O324 1.956 . S
Li264 O325 1.970 . S
Li264 O326 1.961 . S
Li265 N289 1.990 . S
Li265 O324 1.970 . S
Li265 O325 1.956 . S
Li265 O327 1.961 . S
Li266 N311 1.990 . S
Li266 O324 1.961 . S
Li266 O326 1.956 . S
Li266 O327 1.970 . S
Li267 N317 1.990 . S
Li267 O325 1.961 . S
Li267 O326 1.970 . S
Li267 O327 1.956 . S
C268 C270 1.348 . S
C268 C271 1.356 . S
C268 O324 1.325 . S
N269 C272 1.314 . S
N269 C273 1.279 . S
C270 C268 1.348 . S
C270 C272 1.353 . S
C270 H328 0.929 . S
C271 C268 1.356 . S
C271 C273 1.358 . S
C271 H329 0.930 . S
C272 N269 1.314 . S
C272 C270 1.353 . S
C272 H330 0.930 . S
C273 N269 1.279 . S
C273 C271 1.358 . S
C273 H331 0.930 . S
C274 C277 1.348 . S
C274 C278 1.356 . S
C274 O325 1.325 . S
C275 N276 1.279 . S
C275 C278 1.358 . S
C275 H332 0.930 . S
N276 C275 1.279 . S
N276 C279 1.314 . S
C277 C274 1.348 . S
C277 C279 1.353 . S
C277 H333 0.929 . S
C278 C274 1.356 . S
C278 C275 1.358 . S
C278 H334 0.930 . S
C279 N276 1.314 . S
C279 C277 1.353 . S
C279 H335 0.930 . S
C280 N281 1.314 . S
C280 C285 1.353 . S
C280 H286 0.930 . S
N281 Li264 1.990 . S
N281 C280 1.314 . S
N281 C283 1.279 . S
C282 C283 1.358 . S
C282 C284 1.356 . S
C282 H336 0.930 . S
C283 N281 1.279 . S
C283 C282 1.358 . S
C283 H287 0.930 . S
C284 C282 1.356 . S
C284 C285 1.348 . S
C285 C280 1.353 . S
C285 C284 1.348 . S
C285 H337 0.929 . S
H286 C280 0.930 . S
H287 C283 0.930 . S
C288 N289 1.314 . S
C288 C290 1.353 . S
C288 H294 0.930 . S
N289 Li265 1.990 . S
N289 C288 1.314 . S
N289 C292 1.279 . S
C290 C288 1.353 . S
C290 C293 1.348 . S
C290 H338 0.929 . S
C291 C292 1.358 . S
C291 C293 1.356 . S
C291 H339 0.930 . S
C292 N289 1.279 . S
C292 C291 1.358 . S
C292 H295 0.930 . S
C293 C290 1.348 . S
C293 C291 1.356 . S
H294 C288 0.930 . S
H295 C292 0.930 . S
C296 C298 1.348 . S
C296 C299 1.356 . S
C296 O326 1.325 . S
N297 C300 1.314 . S
N297 C301 1.279 . S
C298 C296 1.348 . S
C298 C300 1.353 . S
C298 H340 0.929 . S
C299 C296 1.356 . S
C299 C301 1.358 . S
C299 H341 0.930 . S
C300 N297 1.314 . S
C300 C298 1.353 . S
C300 H342 0.930 . S
C301 N297 1.279 . S
C301 C299 1.358 . S
C301 H343 0.930 . S
C302 C303 1.348 . S
C302 C304 1.356 . S
C302 O327 1.325 . S
C303 C302 1.348 . S
C303 C305 1.353 . S
C303 H344 0.929 . S
C304 C302 1.356 . S
C304 C306 1.358 . S
C304 H345 0.930 . S
C305 C303 1.353 . S
C305 N307 1.314 . S
C305 H346 0.930 . S
C306 C304 1.358 . S
C306 N307 1.279 . S
C306 H347 0.930 . S
N307 C305 1.314 . S
N307 C306 1.279 . S
C308 C310 1.353 . S
C308 N311 1.314 . S
C308 H314 0.930 . S
C309 N311 1.279 . S
C309 C312 1.358 . S
C309 H315 0.930 . S
C310 C308 1.353 . S
C310 C313 1.348 . S
C310 H348 0.929 . S
N311 Li266 1.990 . S
N311 C308 1.314 . S
N311 C309 1.279 . S
C312 C309 1.358 . S
C312 C313 1.356 . S
C312 H349 0.930 . S
C313 C310 1.348 . S
C313 C312 1.356 . S
H314 C308 0.930 . S
H315 C309 0.930 . S
C316 N317 1.314 . S
C316 C318 1.353 . S
C316 H322 0.930 . S
N317 Li267 1.990 . S
N317 C316 1.314 . S
N317 C320 1.279 . S
C318 C316 1.353 . S
C318 C321 1.348 . S
C318 H350 0.929 . S
C319 C320 1.358 . S
C319 C321 1.356 . S
C319 H351 0.930 . S
C320 N317 1.279 . S
C320 C319 1.358 . S
C320 H323 0.930 . S
C321 C318 1.348 . S
C321 C319 1.356 . S
H322 C316 0.930 . S
H323 C320 0.930 . S
O324 Li264 1.956 . S
O324 Li265 1.970 . S
O324 Li266 1.961 . S
O324 C268 1.325 . S
O325 Li264 1.970 . S
O325 Li265 1.956 . S
O325 Li267 1.961 . S
O325 C274 1.325 . S
O326 Li264 1.961 . S
O326 Li266 1.956 . S
O326 Li267 1.970 . S
O326 C296 1.325 . S
O327 Li265 1.961 . S
O327 Li266 1.970 . S
O327 Li267 1.956 . S
O327 C302 1.325 . S
H328 C270 0.929 . S
H329 C271 0.930 . S
H330 C272 0.930 . S
H331 C273 0.930 . S
H332 C275 0.930 . S
H333 C277 0.929 . S
H334 C278 0.930 . S
H335 C279 0.930 . S
H336 C282 0.930 . S
H337 C285 0.929 . S
H338 C290 0.929 . S
H339 C291 0.930 . S
H340 C298 0.929 . S
H341 C299 0.930 . S
H342 C300 0.930 . S
H343 C301 0.930 . S
H344 C303 0.929 . S
H345 C304 0.930 . S
H346 C305 0.930 . S
H347 C306 0.930 . S
H348 C310 0.929 . S
H349 C312 0.930 . S
H350 C318 0.929 . S
H351 C319 0.930 . S
Li352 N369 1.990 . S
Li352 O412 1.956 . S
Li352 O413 1.970 . S
Li352 O414 1.961 . S
Li353 N377 1.990 . S
Li353 O412 1.970 . S
Li353 O413 1.956 . S
Li353 O415 1.961 . S
Li354 N399 1.990 . S
Li354 O412 1.961 . S
Li354 O414 1.956 . S
Li354 O415 1.970 . S
Li355 N405 1.990 . S
Li355 O413 1.961 . S
Li355 O414 1.970 . S
Li355 O415 1.956 . S
C356 C358 1.348 . S
C356 C359 1.356 . S
C356 O412 1.325 . S
N357 C360 1.314 . S
N357 C361 1.279 . S
C358 C356 1.348 . S
C358 C360 1.353 . S
C358 H416 0.929 . S
C359 C356 1.356 . S
C359 C361 1.358 . S
C359 H417 0.930 . S
C360 N357 1.314 . S
C360 C358 1.353 . S
C360 H418 0.930 . S
C361 N357 1.279 . S
C361 C359 1.358 . S
C361 H419 0.930 . S
C362 C365 1.348 . S
C362 C366 1.356 . S
C362 O413 1.325 . S
C363 N364 1.279 . S
C363 C366 1.358 . S
C363 H420 0.930 . S
N364 C363 1.279 . S
N364 C367 1.314 . S
C365 C362 1.348 . S
C365 C367 1.353 . S
C365 H421 0.929 . S
C366 C362 1.356 . S
C366 C363 1.358 . S
C366 H422 0.930 . S
C367 N364 1.314 . S
C367 C365 1.353 . S
C367 H423 0.930 . S
C368 N369 1.314 . S
C368 C373 1.353 . S
C368 H374 0.930 . S
N369 Li352 1.990 . S
N369 C368 1.314 . S
N369 C371 1.279 . S
C370 C371 1.358 . S
C370 C372 1.356 . S
C370 H424 0.930 . S
C371 N369 1.279 . S
C371 C370 1.358 . S
C371 H375 0.930 . S
C372 C370 1.356 . S
C372 C373 1.348 . S
C373 C368 1.353 . S
C373 C372 1.348 . S
C373 H425 0.929 . S
H374 C368 0.930 . S
H375 C371 0.930 . S
C376 N377 1.314 . S
C376 C378 1.353 . S
C376 H382 0.930 . S
N377 Li353 1.990 . S
N377 C376 1.314 . S
N377 C380 1.279 . S
C378 C376 1.353 . S
C378 C381 1.348 . S
C378 H426 0.929 . S
C379 C380 1.358 . S
C379 C381 1.356 . S
C379 H427 0.930 . S
C380 N377 1.279 . S
C380 C379 1.358 . S
C380 H383 0.930 . S
C381 C378 1.348 . S
C381 C379 1.356 . S
H382 C376 0.930 . S
H383 C380 0.930 . S
C384 C386 1.348 . S
C384 C387 1.356 . S
C384 O414 1.325 . S
N385 C388 1.314 . S
N385 C389 1.279 . S
C386 C384 1.348 . S
C386 C388 1.353 . S
C386 H428 0.929 . S
C387 C384 1.356 . S
C387 C389 1.358 . S
C387 H429 0.930 . S
C388 N385 1.314 . S
C388 C386 1.353 . S
C388 H430 0.930 . S
C389 N385 1.279 . S
C389 C387 1.358 . S
C389 H431 0.930 . S
C390 C391 1.348 . S
C390 C392 1.356 . S
C390 O415 1.325 . S
C391 C390 1.348 . S
C391 C393 1.353 . S
C391 H432 0.929 . S
C392 C390 1.356 . S
C392 C394 1.358 . S
C392 H433 0.930 . S
C393 C391 1.353 . S
C393 N395 1.314 . S
C393 H434 0.930 . S
C394 C392 1.358 . S
C394 N395 1.279 . S
C394 H435 0.930 . S
N395 C393 1.314 . S
N395 C394 1.279 . S
C396 C398 1.353 . S
C396 N399 1.314 . S
C396 H402 0.930 . S
C397 N399 1.279 . S
C397 C400 1.358 . S
C397 H403 0.930 . S
C398 C396 1.353 . S
C398 C401 1.348 . S
C398 H436 0.929 . S
N399 Li354 1.990 . S
N399 C396 1.314 . S
N399 C397 1.279 . S
C400 C397 1.358 . S
C400 C401 1.356 . S
C400 H437 0.930 . S
C401 C398 1.348 . S
C401 C400 1.356 . S
H402 C396 0.930 . S
H403 C397 0.930 . S
C404 N405 1.314 . S
C404 C406 1.353 . S
C404 H410 0.930 . S
N405 Li355 1.990 . S
N405 C404 1.314 . S
N405 C408 1.279 . S
C406 C404 1.353 . S
C406 C409 1.348 . S
C406 H438 0.929 . S
C407 C408 1.358 . S
C407 C409 1.356 . S
C407 H439 0.930 . S
C408 N405 1.279 . S
C408 C407 1.358 . S
C408 H411 0.930 . S
C409 C406 1.348 . S
C409 C407 1.356 . S
H410 C404 0.930 . S
H411 C408 0.930 . S
O412 Li352 1.956 . S
O412 Li353 1.970 . S
O412 Li354 1.961 . S
O412 C356 1.325 . S
O413 Li352 1.970 . S
O413 Li353 1.956 . S
O413 Li355 1.961 . S
O413 C362 1.325 . S
O414 Li352 1.961 . S
O414 Li354 1.956 . S
O414 Li355 1.970 . S
O414 C384 1.325 . S
O415 Li353 1.961 . S
O415 Li354 1.970 . S
O415 Li355 1.956 . S
O415 C390 1.325 . S
H416 C358 0.929 . S
H417 C359 0.930 . S
H418 C360 0.930 . S
H419 C361 0.930 . S
H420 C363 0.930 . S
H421 C365 0.929 . S
H422 C366 0.930 . S
H423 C367 0.930 . S
H424 C370 0.930 . S
H425 C373 0.929 . S
H426 C378 0.929 . S
H427 C379 0.930 . S
H428 C386 0.929 . S
H429 C387 0.930 . S
H430 C388 0.930 . S
H431 C389 0.930 . S
H432 C391 0.929 . S
H433 C392 0.930 . S
H434 C393 0.930 . S
H435 C394 0.930 . S
H436 C398 0.929 . S
H437 C400 0.930 . S
H438 C406 0.929 . S
H439 C407 0.930 . S
Li440 N457 1.990 . S
Li440 O500 1.956 . S
Li440 O501 1.970 . S
Li440 O502 1.961 . S
Li441 N465 1.990 . S
Li441 O500 1.970 . S
Li441 O501 1.956 . S
Li441 O503 1.961 . S
Li442 N487 1.990 . S
Li442 O500 1.961 . S
Li442 O502 1.956 . S
Li442 O503 1.970 . S
Li443 N493 1.990 . S
Li443 O501 1.961 . S
Li443 O502 1.970 . S
Li443 O503 1.956 . S
C444 C446 1.348 . S
C444 C447 1.356 . S
C444 O500 1.325 . S
N445 C448 1.314 . S
N445 C449 1.279 . S
C446 C444 1.348 . S
C446 C448 1.353 . S
C446 H504 0.929 . S
C447 C444 1.356 . S
C447 C449 1.358 . S
C447 H505 0.930 . S
C448 N445 1.314 . S
C448 C446 1.353 . S
C448 H506 0.930 . S
C449 N445 1.279 . S
C449 C447 1.358 . S
C449 H507 0.930 . S
C450 C453 1.348 . S
C450 C454 1.356 . S
C450 O501 1.325 . S
C451 N452 1.279 . S
C451 C454 1.358 . S
C451 H508 0.930 . S
N452 C451 1.279 . S
N452 C455 1.314 . S
C453 C450 1.348 . S
C453 C455 1.353 . S
C453 H509 0.929 . S
C454 C450 1.356 . S
C454 C451 1.358 . S
C454 H510 0.930 . S
C455 N452 1.314 . S
C455 C453 1.353 . S
C455 H511 0.930 . S
C456 N457 1.314 . S
C456 C461 1.353 . S
C456 H462 0.930 . S
N457 Li440 1.990 . S
N457 C456 1.314 . S
N457 C459 1.279 . S
C458 C459 1.358 . S
C458 C460 1.356 . S
C458 H512 0.930 . S
C459 N457 1.279 . S
C459 C458 1.358 . S
C459 H463 0.930 . S
C460 C458 1.356 . S
C460 C461 1.348 . S
C461 C456 1.353 . S
C461 C460 1.348 . S
C461 H513 0.929 1_455 S
H462 C456 0.930 . S
H463 C459 0.930 . S
C464 N465 1.314 . S
C464 C466 1.353 . S
C464 H470 0.930 . S
N465 Li441 1.990 . S
N465 C464 1.314 . S
N465 C468 1.279 . S
C466 C464 1.353 . S
C466 C469 1.348 . S
C466 H514 0.929 . S
C467 C468 1.358 . S
C467 C469 1.356 . S
C467 H515 0.930 . S
C468 N465 1.279 . S
C468 C467 1.358 . S
C468 H471 0.930 . S
C469 C466 1.348 . S
C469 C467 1.356 . S
H470 C464 0.930 . S
H471 C468 0.930 . S
C472 C474 1.348 . S
C472 C475 1.356 . S
C472 O502 1.325 . S
N473 C476 1.314 . S
N473 C477 1.279 . S
C474 C472 1.348 . S
C474 C476 1.353 . S
C474 H516 0.929 . S
C475 C472 1.356 . S
C475 C477 1.358 . S
C475 H517 0.930 . S
C476 N473 1.314 . S
C476 C474 1.353 . S
C476 H518 0.930 . S
C477 N473 1.279 . S
C477 C475 1.358 . S
C477 H519 0.930 . S
C478 C479 1.348 . S
C478 C480 1.356 . S
C478 O503 1.325 . S
C479 C478 1.348 . S
C479 C481 1.353 . S
C479 H520 0.929 . S
C480 C478 1.356 . S
C480 C482 1.358 . S
C480 H521 0.930 . S
C481 C479 1.353 . S
C481 N483 1.314 . S
C481 H522 0.930 . S
C482 C480 1.358 . S
C482 N483 1.279 . S
C482 H523 0.930 . S
N483 C481 1.314 . S
N483 C482 1.279 . S
C484 C486 1.353 . S
C484 N487 1.314 . S
C484 H490 0.930 . S
C485 N487 1.279 . S
C485 C488 1.358 . S
C485 H491 0.930 . S
C486 C484 1.353 . S
C486 C489 1.348 . S
C486 H524 0.929 . S
N487 Li442 1.990 . S
N487 C484 1.314 . S
N487 C485 1.279 . S
C488 C485 1.358 . S
C488 C489 1.356 . S
C488 H525 0.930 . S
C489 C486 1.348 . S
C489 C488 1.356 . S
H490 C484 0.930 . S
H491 C485 0.930 . S
C492 N493 1.314 . S
C492 C494 1.353 . S
C492 H498 0.930 . S
N493 Li443 1.990 . S
N493 C492 1.314 . S
N493 C496 1.279 . S
C494 C492 1.353 . S
C494 C497 1.348 . S
C494 H526 0.929 1_455 S
C495 C496 1.358 . S
C495 C497 1.356 . S
C495 H527 0.930 . S
C496 N493 1.279 . S
C496 C495 1.358 . S
C496 H499 0.930 . S
C497 C494 1.348 . S
C497 C495 1.356 . S
H498 C492 0.930 . S
H499 C496 0.930 . S
O500 Li440 1.956 . S
O500 Li441 1.970 . S
O500 Li442 1.961 . S
O500 C444 1.325 . S
O501 Li440 1.970 . S
O501 Li441 1.956 . S
O501 Li443 1.961 . S
O501 C450 1.325 . S
O502 Li440 1.961 . S
O502 Li442 1.956 . S
O502 Li443 1.970 . S
O502 C472 1.325 . S
O503 Li441 1.961 . S
O503 Li442 1.970 . S
O503 Li443 1.956 . S
O503 C478 1.325 . S
H504 C446 0.929 . S
H505 C447 0.930 . S
H506 C448 0.930 . S
H507 C449 0.930 . S
H508 C451 0.930 . S
H509 C453 0.929 . S
H510 C454 0.930 . S
H511 C455 0.930 . S
H512 C458 0.930 . S
H513 C461 0.929 1_655 S
H514 C466 0.929 . S
H515 C467 0.930 . S
H516 C474 0.929 . S
H517 C475 0.930 . S
H518 C476 0.930 . S
H519 C477 0.930 . S
H520 C479 0.929 . S
H521 C480 0.930 . S
H522 C481 0.930 . S
H523 C482 0.930 . S
H524 C486 0.929 . S
H525 C488 0.930 . S
H526 C494 0.929 1_655 S
H527 C495 0.930 . S
C528 C529 1.369 . S
C528 C530 1.419 . S
C528 H532 0.930 . S
C529 C528 1.369 . S
C529 C538 1.429 . S
C530 C528 1.419 . S
C530 C531 1.363 . S
C530 H533 0.929 . S
C531 C530 1.363 . S
C531 C537 1.428 . S
H532 C528 0.930 . S
H533 C530 0.929 . S
S534 N535 1.613 . S
S534 N536 1.610 . S
N535 S534 1.613 . S
N535 C538 1.350 . S
N536 S534 1.610 . S
N536 C537 1.351 . S
C537 C531 1.428 . S
C537 N536 1.351 . S
C537 C538 1.434 . S
C538 C529 1.429 . S
C538 N535 1.350 . S
C538 C537 1.434 . S
C539 C540 1.369 . S
C539 C541 1.419 . S
C539 H543 0.930 . S
C540 C539 1.369 . S
C540 C549 1.429 . S
C541 C539 1.419 . S
C541 C542 1.363 . S
C541 H544 0.929 . S
C542 C541 1.363 . S
C542 C548 1.428 . S
H543 C539 0.930 . S
H544 C541 0.929 . S
S545 N546 1.613 . S
S545 N547 1.610 . S
N546 S545 1.613 . S
N546 C549 1.350 . S
N547 S545 1.610 . S
N547 C548 1.351 . S
C548 C542 1.428 . S
C548 N547 1.351 . S
C548 C549 1.434 . S
C549 C540 1.429 . S
C549 N546 1.350 . S
C549 C548 1.434 . S
C550 C551 1.369 . S
C550 C552 1.419 . S
C550 H554 0.930 . S
C551 C550 1.369 . S
C551 C560 1.429 . S
C552 C550 1.419 . S
C552 C553 1.363 . S
C552 H555 0.929 . S
C553 C552 1.363 . S
C553 C559 1.428 . S
H554 C550 0.930 . S
H555 C552 0.929 . S
S556 N557 1.613 . S
S556 N558 1.610 . S
N557 S556 1.613 . S
N557 C560 1.350 . S
N558 S556 1.610 . S
N558 C559 1.351 . S
C559 C553 1.428 . S
C559 N558 1.351 . S
C559 C560 1.434 . S
C560 C551 1.429 . S
C560 N557 1.350 . S
C560 C559 1.434 . S
C561 C562 1.369 . S
C561 C563 1.419 . S
C561 H565 0.930 . S
C562 C561 1.369 . S
C562 C571 1.429 . S
C563 C561 1.419 . S
C563 C564 1.363 . S
C563 H566 0.929 . S
C564 C563 1.363 . S
C564 C570 1.428 . S
H565 C561 0.930 . S
H566 C563 0.929 . S
S567 N568 1.613 . S
S567 N569 1.610 . S
N568 S567 1.613 . S
N568 C571 1.350 . S
N569 S567 1.610 . S
N569 C570 1.351 . S
C570 C564 1.428 . S
C570 N569 1.351 . S
C570 C571 1.434 . S
C571 C562 1.429 . S
C571 N568 1.350 . S
C571 C570 1.434 . S
C572 C573 1.369 . S
C572 C574 1.419 . S
C572 H576 0.930 . S
C573 C572 1.369 . S
C573 C582 1.429 . S
C574 C572 1.419 . S
C574 C575 1.363 . S
C574 H577 0.929 . S
C575 C574 1.363 . S
C575 C581 1.428 . S
H576 C572 0.930 . S
H577 C574 0.929 . S
S578 N579 1.613 . S
S578 N580 1.610 . S
N579 S578 1.613 . S
N579 C582 1.350 . S
N580 S578 1.610 . S
N580 C581 1.351 . S
C581 C575 1.428 . S
C581 N580 1.351 . S
C581 C582 1.434 . S
C582 C573 1.429 . S
C582 N579 1.350 . S
C582 C581 1.434 . S
C583 C584 1.369 . S
C583 C585 1.419 . S
C583 H587 0.930 . S
C584 C583 1.369 . S
C584 C593 1.429 . S
C585 C583 1.419 . S
C585 C586 1.363 . S
C585 H588 0.929 . S
C586 C585 1.363 . S
C586 C592 1.428 . S
H587 C583 0.930 . S
H588 C585 0.929 . S
S589 N590 1.613 . S
S589 N591 1.610 . S
N590 S589 1.613 . S
N590 C593 1.350 . S
N591 S589 1.610 . S
N591 C592 1.351 . S
C592 C586 1.428 . S
C592 N591 1.351 . S
C592 C593 1.434 . S
C593 C584 1.429 . S
C593 N590 1.350 . S
C593 C592 1.434 . S
C594 C595 1.369 1_545 S
C594 C596 1.419 1_556 S
C594 H598 0.930 . S
C595 C594 1.369 1_565 S
C595 C604 1.429 . S
C596 C594 1.419 1_554 S
C596 C597 1.363 . S
C596 H599 0.929 . S
C597 C596 1.363 . S
C597 C603 1.428 1_545 S
H598 C594 0.930 . S
H599 C596 0.929 . S
S600 N601 1.613 1_554 S
S600 N602 1.610 . S
N601 S600 1.613 1_556 S
N601 C604 1.350 . S
N602 S600 1.610 . S
N602 C603 1.351 . S
C603 C597 1.428 1_565 S
C603 N602 1.351 . S
C603 C604 1.434 1_554 S
C604 C595 1.429 . S
C604 N601 1.350 . S
C604 C603 1.434 1_556 S
C605 C606 1.369 . S
C605 C607 1.419 . S
C605 H609 0.930 . S
C606 C605 1.369 . S
C606 C615 1.429 . S
C607 C605 1.419 . S
C607 C608 1.363 . S
C607 H610 0.929 . S
C608 C607 1.363 . S
C608 C614 1.428 . S
H609 C605 0.930 . S
H610 C607 0.929 . S
S611 N612 1.613 . S
S611 N613 1.610 . S
N612 S611 1.613 . S
N612 C615 1.350 . S
N613 S611 1.610 . S
N613 C614 1.351 . S
C614 C608 1.428 . S
C614 N613 1.351 . S
C614 C615 1.434 . S
C615 C606 1.429 . S
C615 N612 1.350 . S
C615 C614 1.434 . S
C616 C617 1.370 1_655 S
C616 C618 1.422 1_556 S
C616 H620 0.925 . S
C617 C616 1.370 1_455 S
C617 C626 1.429 . S
C618 C616 1.422 1_554 S
C618 C619 1.363 . S
C618 H621 0.929 . S
C619 C618 1.363 . S
C619 C625 1.432 1_655 S
H620 C616 0.925 . S
H621 C618 0.929 . S
S622 N623 1.613 1_554 S
S622 N624 1.610 . S
N623 S622 1.613 1_556 S
N623 C626 1.350 . S
N624 S622 1.610 . S
N624 C625 1.339 . S
C625 C619 1.432 1_455 S
C625 N624 1.339 . S
C625 C626 1.445 1_554 S
C626 C617 1.429 . S
C626 N623 1.350 . S
C626 C625 1.445 1_556 S
C627 C628 1.369 1_565 S
C627 C629 1.419 . S
C627 H631 0.930 . S
C628 C627 1.369 1_545 S
C628 C637 1.429 . S
C629 C627 1.419 . S
C629 C630 1.363 . S
C629 H632 0.929 . S
C630 C629 1.363 . S
C630 C636 1.428 1_565 S
H631 C627 0.930 . S
H632 C629 0.929 . S
S633 N634 1.613 . S
S633 N635 1.610 . S
N634 S633 1.613 . S
N634 C637 1.350 . S
N635 S633 1.610 . S
N635 C636 1.351 . S
C636 C630 1.428 1_545 S
C636 N635 1.351 . S
C636 C637 1.434 . S
C637 C628 1.429 . S
C637 N634 1.350 . S
C637 C636 1.434 . S
C638 C639 1.369 . S
C638 C640 1.419 1_556 S
C638 H642 0.930 . S
C639 C638 1.369 . S
C639 C648 1.429 . S
C640 C638 1.419 1_554 S
C640 C641 1.363 . S
C640 H643 0.929 . S
C641 C640 1.363 . S
C641 C647 1.428 . S
H642 C638 0.930 . S
H643 C640 0.929 . S
S644 N645 1.613 . S
S644 N646 1.610 1_556 S
N645 S644 1.613 . S
N645 C648 1.350 . S
N646 S644 1.610 1_554 S
N646 C647 1.351 . S
C647 C641 1.428 . S
C647 N646 1.351 . S
C647 C648 1.434 1_554 S
C648 C639 1.429 . S
C648 N645 1.350 . S
C648 C647 1.434 1_556 S
C649 C650 1.369 . S
C649 C651 1.419 . S
C649 H653 0.930 . S
C650 C649 1.369 . S
C650 C659 1.429 1_455 S
C651 C649 1.419 . S
C651 C652 1.363 1_455 S
C651 H654 0.929 . S
C652 C651 1.363 1_655 S
C652 C658 1.428 . S
H653 C649 0.930 . S
H654 C651 0.929 . S
S655 N656 1.613 . S
S655 N657 1.610 . S
N656 S655 1.613 . S
N656 C659 1.350 . S
N657 S655 1.610 . S
N657 C658 1.351 . S
C658 C652 1.428 . S
C658 N657 1.351 . S
C658 C659 1.434 . S
C659 C650 1.429 1_655 S
C659 N656 1.350 . S
C659 C658 1.434 . S
C529 C20 1.072 . S
C531 C381 1.076 . S
C540 C137 1.077 . S
C542 C469 1.078 . S
C551 C29 1.081 . S
C553 C233 1.082 . S
C562 C313 1.077 . S
C564 C117 1.080 . S
C573 C401 1.083 . S
C575 C196 1.083 . S
C584 C321 1.079 . S
C586 C489 1.081 . S
C595 C293 1.321 . S
C597 C49 1.326 . S
C606 C372 1.327 . S
C608 C145 1.332 . S
C617 C460 1.327 . S
C619 C225 1.331 . S
C628 C57 1.322 . S
C630 C284 1.326 . S
C639 C108 1.330 . S
C641 C409 1.329 . S
C650 C497 1.332 . S
C652 C205 1.327 . S
