# Generated by pormake.
# Topology uke, (4)-cn, num edge types: 1
# Building blocks:
#     Node 0, Type 0, BuildingBlock: CEKHIL_clean_sbu_0, # of connection points: 4
#     Node 1, Type 0, BuildingBlock: CEKHIL_clean_sbu_0, # of connection points: 4
#     Node 2, Type 0, BuildingBlock: CEKHIL_clean_sbu_0, # of connection points: 4
#     Node 3, Type 0, BuildingBlock: CEKHIL_clean_sbu_0, # of connection points: 4
#     Node 4, Type 0, BuildingBlock: CEKHIL_clean_sbu_0, # of connection points: 4
#     Node 5, Type 0, BuildingBlock: CEKHIL_clean_sbu_0, # of connection points: 4
#     Node 6, Type 0, BuildingBlock: CEKHIL_clean_sbu_0, # of connection points: 4
#     Node 7, Type 0, BuildingBlock: CEKHIL_clean_sbu_0, # of connection points: 4
#     Node 8, Type 0, BuildingBlock: CEKHIL_clean_sbu_0, # of connection points: 4
#     Node 9, Type 0, BuildingBlock: CEKHIL_clean_sbu_0, # of connection points: 4
#     Node 10, Type 0, BuildingBlock: CEKHIL_clean_sbu_0, # of connection points: 4
#     Node 11, Type 0, BuildingBlock: CEKHIL_clean_sbu_0, # of connection points: 4
#     Node 12, Type 0, BuildingBlock: CEKHIL_clean_sbu_0, # of connection points: 4
#     Node 13, Type 0, BuildingBlock: CEKHIL_clean_sbu_0, # of connection points: 4
#     Node 14, Type 0, BuildingBlock: CEKHIL_clean_sbu_0, # of connection points: 4
#     Node 15, Type 0, BuildingBlock: CEKHIL_clean_sbu_0, # of connection points: 4
#     Node 16, Type 0, BuildingBlock: CEKHIL_clean_sbu_0, # of connection points: 4
#     Node 17, Type 0, BuildingBlock: CEKHIL_clean_sbu_0, # of connection points: 4
#     Node 18, Type 0, BuildingBlock: CEKHIL_clean_sbu_0, # of connection points: 4
#     Node 19, Type 0, BuildingBlock: CEKHIL_clean_sbu_0, # of connection points: 4
#     Node 20, Type 0, BuildingBlock: CEKHIL_clean_sbu_0, # of connection points: 4
#     Node 21, Type 0, BuildingBlock: CEKHIL_clean_sbu_0, # of connection points: 4
#     Node 22, Type 0, BuildingBlock: CEKHIL_clean_sbu_0, # of connection points: 4
#     Node 23, Type 0, BuildingBlock: CEKHIL_clean_sbu_0, # of connection points: 4
#     Node 24, Type 0, BuildingBlock: CEKHIL_clean_sbu_0, # of connection points: 4
#     Node 25, Type 0, BuildingBlock: CEKHIL_clean_sbu_0, # of connection points: 4
#     Node 26, Type 0, BuildingBlock: CEKHIL_clean_sbu_0, # of connection points: 4
#     Node 27, Type 0, BuildingBlock: CEKHIL_clean_sbu_0, # of connection points: 4
#     Node 28, Type 0, BuildingBlock: CEKHIL_clean_sbu_0, # of connection points: 4
#     Node 29, Type 0, BuildingBlock: CEKHIL_clean_sbu_0, # of connection points: 4
#     Node 30, Type 0, BuildingBlock: CEKHIL_clean_sbu_0, # of connection points: 4
#     Node 31, Type 0, BuildingBlock: CEKHIL_clean_sbu_0, # of connection points: 4
#     Edge 32, Type (0, 0), BuildingBlock: AJUNOK_clean_linker_0, # of connection points: 2
#     Edge 33, Type (0, 0), BuildingBlock: AJUNOK_clean_linker_0, # of connection points: 2
#     Edge 34, Type (0, 0), BuildingBlock: AJUNOK_clean_linker_0, # of connection points: 2
#     Edge 35, Type (0, 0), BuildingBlock: AJUNOK_clean_linker_0, # of connection points: 2
#     Edge 36, Type (0, 0), BuildingBlock: AJUNOK_clean_linker_0, # of connection points: 2
#     Edge 37, Type (0, 0), BuildingBlock: AJUNOK_clean_linker_0, # of connection points: 2
#     Edge 38, Type (0, 0), BuildingBlock: AJUNOK_clean_linker_0, # of connection points: 2
#     Edge 39, Type (0, 0), BuildingBlock: AJUNOK_clean_linker_0, # of connection points: 2
#     Edge 40, Type (0, 0), BuildingBlock: AJUNOK_clean_linker_0, # of connection points: 2
#     Edge 41, Type (0, 0), BuildingBlock: AJUNOK_clean_linker_0, # of connection points: 2
#     Edge 42, Type (0, 0), BuildingBlock: AJUNOK_clean_linker_0, # of connection points: 2
#     Edge 43, Type (0, 0), BuildingBlock: AJUNOK_clean_linker_0, # of connection points: 2
#     Edge 44, Type (0, 0), BuildingBlock: AJUNOK_clean_linker_0, # of connection points: 2
#     Edge 45, Type (0, 0), BuildingBlock: AJUNOK_clean_linker_0, # of connection points: 2
#     Edge 46, Type (0, 0), BuildingBlock: AJUNOK_clean_linker_0, # of connection points: 2
#     Edge 47, Type (0, 0), BuildingBlock: AJUNOK_clean_linker_0, # of connection points: 2
#     Edge 48, Type (0, 0), BuildingBlock: AJUNOK_clean_linker_0, # of connection points: 2
#     Edge 49, Type (0, 0), BuildingBlock: AJUNOK_clean_linker_0, # of connection points: 2
#     Edge 50, Type (0, 0), BuildingBlock: AJUNOK_clean_linker_0, # of connection points: 2
#     Edge 51, Type (0, 0), BuildingBlock: AJUNOK_clean_linker_0, # of connection points: 2
#     Edge 52, Type (0, 0), BuildingBlock: AJUNOK_clean_linker_0, # of connection points: 2
#     Edge 53, Type (0, 0), BuildingBlock: AJUNOK_clean_linker_0, # of connection points: 2
#     Edge 54, Type (0, 0), BuildingBlock: AJUNOK_clean_linker_0, # of connection points: 2
#     Edge 55, Type (0, 0), BuildingBlock: AJUNOK_clean_linker_0, # of connection points: 2
#     Edge 56, Type (0, 0), BuildingBlock: AJUNOK_clean_linker_0, # of connection points: 2
#     Edge 57, Type (0, 0), BuildingBlock: AJUNOK_clean_linker_0, # of connection points: 2
#     Edge 58, Type (0, 0), BuildingBlock: AJUNOK_clean_linker_0, # of connection points: 2
#     Edge 59, Type (0, 0), BuildingBlock: AJUNOK_clean_linker_0, # of connection points: 2
#     Edge 60, Type (0, 0), BuildingBlock: AJUNOK_clean_linker_0, # of connection points: 2
#     Edge 61, Type (0, 0), BuildingBlock: AJUNOK_clean_linker_0, # of connection points: 2
#     Edge 62, Type (0, 0), BuildingBlock: AJUNOK_clean_linker_0, # of connection points: 2
#     Edge 63, Type (0, 0), BuildingBlock: AJUNOK_clean_linker_0, # of connection points: 2
#     Edge 64, Type (0, 0), BuildingBlock: AJUNOK_clean_linker_0, # of connection points: 2
#     Edge 65, Type (0, 0), BuildingBlock: AJUNOK_clean_linker_0, # of connection points: 2
#     Edge 66, Type (0, 0), BuildingBlock: AJUNOK_clean_linker_0, # of connection points: 2
#     Edge 67, Type (0, 0), BuildingBlock: AJUNOK_clean_linker_0, # of connection points: 2
#     Edge 68, Type (0, 0), BuildingBlock: AJUNOK_clean_linker_0, # of connection points: 2
#     Edge 69, Type (0, 0), BuildingBlock: AJUNOK_clean_linker_0, # of connection points: 2
#     Edge 70, Type (0, 0), BuildingBlock: AJUNOK_clean_linker_0, # of connection points: 2
#     Edge 71, Type (0, 0), BuildingBlock: AJUNOK_clean_linker_0, # of connection points: 2
#     Edge 72, Type (0, 0), BuildingBlock: AJUNOK_clean_linker_0, # of connection points: 2
#     Edge 73, Type (0, 0), BuildingBlock: AJUNOK_clean_linker_0, # of connection points: 2
#     Edge 74, Type (0, 0), BuildingBlock: AJUNOK_clean_linker_0, # of connection points: 2
#     Edge 75, Type (0, 0), BuildingBlock: AJUNOK_clean_linker_0, # of connection points: 2
#     Edge 76, Type (0, 0), BuildingBlock: AJUNOK_clean_linker_0, # of connection points: 2
#     Edge 77, Type (0, 0), BuildingBlock: AJUNOK_clean_linker_0, # of connection points: 2
#     Edge 78, Type (0, 0), BuildingBlock: AJUNOK_clean_linker_0, # of connection points: 2
#     Edge 79, Type (0, 0), BuildingBlock: AJUNOK_clean_linker_0, # of connection points: 2
#     Edge 80, Type (0, 0), BuildingBlock: AJUNOK_clean_linker_0, # of connection points: 2
#     Edge 81, Type (0, 0), BuildingBlock: AJUNOK_clean_linker_0, # of connection points: 2
#     Edge 82, Type (0, 0), BuildingBlock: AJUNOK_clean_linker_0, # of connection points: 2
#     Edge 83, Type (0, 0), BuildingBlock: AJUNOK_clean_linker_0, # of connection points: 2
#     Edge 84, Type (0, 0), BuildingBlock: AJUNOK_clean_linker_0, # of connection points: 2
#     Edge 85, Type (0, 0), BuildingBlock: AJUNOK_clean_linker_0, # of connection points: 2
#     Edge 86, Type (0, 0), BuildingBlock: AJUNOK_clean_linker_0, # of connection points: 2
#     Edge 87, Type (0, 0), BuildingBlock: AJUNOK_clean_linker_0, # of connection points: 2
#     Edge 88, Type (0, 0), BuildingBlock: AJUNOK_clean_linker_0, # of connection points: 2
#     Edge 89, Type (0, 0), BuildingBlock: AJUNOK_clean_linker_0, # of connection points: 2
#     Edge 90, Type (0, 0), BuildingBlock: AJUNOK_clean_linker_0, # of connection points: 2
#     Edge 91, Type (0, 0), BuildingBlock: AJUNOK_clean_linker_0, # of connection points: 2
#     Edge 92, Type (0, 0), BuildingBlock: AJUNOK_clean_linker_0, # of connection points: 2
#     Edge 93, Type (0, 0), BuildingBlock: AJUNOK_clean_linker_0, # of connection points: 2
#     Edge 94, Type (0, 0), BuildingBlock: AJUNOK_clean_linker_0, # of connection points: 2
#     Edge 95, Type (0, 0), BuildingBlock: AJUNOK_clean_linker_0, # of connection points: 2
# Relax obj value: 0.082
# Max RMSD: 0.184
# Mean RMSD: 0.184
data_MOF--net-uke--node1-CEKHIL_clean_sbu_0--edge1-AJUNOK_clean_linker_0
_symmetry_space_group_name_H-M    P1
_symmetry_Int_Tables_number       1
_symmetry_cell_setting            triclinic
loop_
_symmetry_equiv_pos_as_xyz
'x, y, z'
_cell_length_a     14.697323
_cell_length_b     79.673998
_cell_length_c     39.712031
_cell_angle_alpha  90.016333
_cell_angle_beta   90.000798
_cell_angle_gamma 89.996864
loop_
_atom_site_label
_atom_site_type_symbol
_atom_site_fract_x
_atom_site_fract_y
_atom_site_fract_z
_atom_type_partial_charge
Co0 Co 0.07765 0.04851 0.27437 0.0
O1 O 0.06437 0.04773 0.32187 0.0
O2 O 0.95116 0.05313 0.28691 0.0
C3 C 0.15676 0.02479 0.26997 0.0
O4 O 0.07941 0.04977 0.22241 0.0
Co5 Co 0.27563 0.05502 0.25417 0.0
O6 O 0.22889 0.04814 0.20957 0.0
C7 C 0.16679 0.08338 0.27647 0.0
C8 C 0.98037 0.05174 0.31793 0.0
C9 C 0.14544 0.04805 0.20087 0.0
O10 O 0.10066 0.07307 0.2775 0.0
O11 O 0.24788 0.07871 0.26931 0.0
O12 O 0.06872 0.02449 0.27112 0.0
O13 O 0.19423 0.03922 0.27647 0.0
Co14 Co 0.16939 0.18845 0.28463 0.0
O15 O 0.18162 0.18766 0.33217 0.0
O16 O 0.29431 0.1826 0.29669 0.0
C17 C 0.0974 0.21301 0.28254 0.0
O18 O 0.16812 0.18873 0.23266 0.0
Co19 Co 0.96897 0.18421 0.26404 0.0
O20 O 0.01874 0.19171 0.22028 0.0
C21 C 0.07254 0.15432 0.28088 0.0
C22 C 0.26531 0.18351 0.3278 0.0
C23 C 0.10215 0.19137 0.21147 0.0
O24 O 0.14055 0.1641 0.28413 0.0
O25 O 0.99208 0.15974 0.27504 0.0
O26 O 0.18508 0.21236 0.2847 0.0
O27 O 0.05547 0.19879 0.28707 0.0
Co28 Co 0.07293 0.19048 0.99301 0.0
O29 O 0.05556 0.19207 0.94579 0.0
O30 O 0.94456 0.18707 0.98187 0.0
C31 C 0.15691 0.2135 0.99796 0.0
O32 O 0.07858 0.18865 0.04481 0.0
Co33 Co 0.27066 0.18205 0.01019 0.0
O34 O 0.22926 0.18748 0.05624 0.0
C35 C 0.15303 0.15486 0.98877 0.0
C36 C 0.97072 0.18896 0.95059 0.0
C37 C 0.14664 0.1886 0.06572 0.0
O38 O 0.09001 0.16582 0.98847 0.0
O39 O 0.236 0.15874 0.99466 0.0
O40 O 0.06898 0.21438 0.99759 0.0
O41 O 0.19141 0.19897 0.99006 0.0
Co42 Co 0.14813 0.04975 0.9813 0.0
O43 O 0.15997 0.04913 0.93361 0.0
O44 O 0.27302 0.05502 0.96832 0.0
C45 C 0.07395 0.02558 0.98661 0.0
O46 O 0.14884 0.05088 0.0333 0.0
Co47 Co 0.94862 0.05485 1.00281 0.0
O48 O -0.00014 0.04982 0.04766 0.0
C49 C 0.05287 0.08413 0.98207 0.0
C50 C 0.24394 0.05328 0.93737 0.0
C51 C 0.08397 0.04993 0.05551 0.0
O52 O 0.12037 0.07419 0.97896 0.0
O53 O 0.97311 0.0789 0.9896 0.0
O54 O 0.16175 0.02578 0.98404 0.0
O55 O 0.03343 0.03976 0.9804 0.0
Co56 Co 0.92815 0.94177 0.74389 0.0
O57 O 0.94465 0.94449 0.69685 0.0
O58 O 0.05426 0.93686 0.73166 0.0
C59 C 0.8533 0.96566 0.75185 0.0
O60 O 0.92364 0.93845 0.7954 0.0
Co61 Co 0.72953 0.9355 0.76226 0.0
O62 O 0.77435 0.9408 0.80794 0.0
C63 C 0.83523 0.90738 0.73709 0.0
C64 C 0.02788 0.93991 0.70078 0.0
C65 C 0.85741 0.93982 0.81691 0.0
O66 O 0.90174 0.91758 0.73668 0.0
O67 O 0.75479 0.91202 0.74522 0.0
O68 O 0.94131 0.96541 0.75114 0.0
O69 O 0.81301 0.95185 0.74256 0.0
Co70 Co 0.83391 0.80219 0.73459 0.0
O71 O 0.82141 0.80154 0.68702 0.0
O72 O 0.70906 0.80778 0.72188 0.0
C73 C 0.9053 0.77771 0.73998 0.0
O74 O 0.83481 0.80343 0.78649 0.0
Co75 Co 0.0333 0.80726 0.75434 0.0
O76 O 0.98452 0.80262 0.79974 0.0
C77 C 0.93005 0.83649 0.73394 0.0
C78 C 0.73796 0.80598 0.69092 0.0
C79 C 0.90086 0.80265 0.80822 0.0
O80 O 0.8626 0.82652 0.73198 0.0
O81 O 0.01063 0.83135 0.74043 0.0
O82 O 0.81768 0.77843 0.73767 0.0
O83 O 0.94805 0.79165 0.73322 0.0
Co84 Co 0.91827 0.79926 0.02682 0.0
O85 O 0.93277 0.79723 0.07403 0.0
O86 O 0.04543 0.80314 0.03922 0.0
C87 C 0.83686 0.776 0.02054 0.0
O88 O 0.91484 0.80163 0.97504 0.0
Co89 Co 0.72044 0.807 0.0083 0.0
O90 O 0.76463 0.80052 0.96312 0.0
C91 C 0.83364 0.83437 0.03253 0.0
C92 C 0.0173 0.80085 0.07017 0.0
C93 C 0.84766 0.80032 0.95388 0.0
O94 O 0.89839 0.82377 0.03231 0.0
O95 O 0.75171 0.83019 0.02546 0.0
O96 O 0.92485 0.77537 0.02137 0.0
O97 O 0.80082 0.79037 0.02858 0.0
Co98 Co 0.83527 0.93896 0.03579 0.0
O99 O 0.82137 0.94034 0.0832 0.0
O100 O 0.71108 0.93283 0.04849 0.0
C101 C 0.90351 0.96361 0.02908 0.0
O102 O 0.83867 0.93677 0.98396 0.0
Co103 Co 0.03665 0.93436 0.01794 0.0
O104 O 0.98906 0.93837 0.97216 0.0
C105 C 0.93462 0.90495 0.03791 0.0
C106 C 0.73911 0.9352 0.07941 0.0
C107 C 0.90624 0.93744 0.96284 0.0
O108 O 0.86717 0.91489 0.04002 0.0
O109 O 0.01498 0.91012 0.03116 0.0
O110 O 0.81589 0.96259 0.0311 0.0
O111 O 0.94769 0.94997 0.03688 0.0
Co112 Co 0.0812 0.5511 0.77973 0.0
O113 O 0.06904 0.5505 0.8273 0.0
O114 O 0.9545 0.55512 0.79247 0.0
C115 C 0.16278 0.52768 0.77511 0.0
O116 O 0.0818 0.55208 0.72783 0.0
Co117 Co 0.27926 0.55852 0.75982 0.0
O118 O 0.23155 0.55286 0.71461 0.0
C119 C 0.16608 0.5863 0.78145 0.0
C120 C 0.98416 0.55388 0.82345 0.0
C121 C 0.14801 0.55185 0.70611 0.0
O122 O 0.10084 0.57578 0.78194 0.0
O123 O 0.24851 0.58196 0.7758 0.0
O124 O 0.07496 0.52706 0.77717 0.0
O125 O 0.19892 0.54227 0.7813 0.0
Co126 Co 0.15715 0.69068 0.7782 0.0
O127 O 0.17387 0.69228 0.82547 0.0
O128 O 0.2832 0.68538 0.78973 0.0
C129 C 0.08261 0.71481 0.77227 0.0
O130 O 0.15176 0.68834 0.72644 0.0
Co131 Co 0.95596 0.68501 0.76084 0.0
O132 O 0.00128 0.68938 0.71481 0.0
C133 C 0.06161 0.65648 0.78394 0.0
C134 C 0.25657 0.68753 0.82088 0.0
C135 C 0.0841 0.68884 0.70536 0.0
O136 O 0.12938 0.66642 0.78348 0.0
O137 O 0.98075 0.66141 0.7772 0.0
O138 O 0.1707 0.71456 0.77301 0.0
O139 O 0.0428 0.70079 0.78028 0.0
Co140 Co 0.08062 0.69046 0.48555 0.0
O141 O 0.06809 0.69189 0.43803 0.0
O142 O 0.95475 0.686 0.47259 0.0
C143 C 0.15966 0.71402 0.49136 0.0
O144 O 0.08009 0.68858 0.53739 0.0
Co145 Co 0.27795 0.68397 0.50749 0.0
O146 O 0.22834 0.69043 0.55192 0.0
C147 C 0.17 0.65567 0.48385 0.0
C148 C 0.9836 0.68809 0.4417 0.0
C149 C 0.14424 0.69006 0.55973 0.0
O150 O 0.10417 0.66599 0.48155 0.0
O151 O 0.25024 0.66029 0.49233 0.0
O152 O 0.07166 0.71442 0.48973 0.0
O153 O 0.19721 0.69964 0.48461 0.0
Co154 Co 0.16152 0.55024 0.4873 0.0
O155 O 0.17676 0.5497 0.43985 0.0
O156 O 0.28852 0.55466 0.47565 0.0
C157 C 0.08195 0.5266 0.49076 0.0
O158 O 0.15815 0.55114 0.53923 0.0
Co159 Co 0.96188 0.55655 0.50695 0.0
O160 O 0.00826 0.54951 0.55156 0.0
C161 C 0.07208 0.58502 0.48622 0.0
C162 C 0.26136 0.55313 0.44441 0.0
C163 C 0.09157 0.54936 0.56051 0.0
O164 O 0.13878 0.57481 0.48501 0.0
O165 O 0.99049 0.58026 0.49223 0.0
O166 O 0.16996 0.52621 0.48971 0.0
O167 O 0.04497 0.5411 0.48465 0.0
Co168 Co 0.90899 0.43834 0.2323 0.0
O169 O 0.92625 0.43913 0.18496 0.0
O170 O 0.03661 0.43398 0.22136 0.0
C171 C 0.82965 0.46199 0.23648 0.0
O172 O 0.90215 0.43708 0.28418 0.0
Co173 Co 0.70833 0.43135 0.24862 0.0
O174 O 0.75071 0.43681 0.29459 0.0
C175 C 0.82232 0.40324 0.22949 0.0
C176 C 0.01026 0.43544 0.19001 0.0
C177 C 0.83304 0.43731 0.30466 0.0
O178 O 0.88753 0.41376 0.22929 0.0
O179 O 0.73962 0.40765 0.23428 0.0
O180 O 0.91763 0.4623 0.23556 0.0
O181 O 0.79243 0.44761 0.22915 0.0
Co182 Co 0.84452 0.29805 0.23259 0.0
O183 O 0.83553 0.29661 0.18498 0.0
O184 O 0.71967 0.30252 0.21834 0.0
C185 C 0.92238 0.27445 0.23997 0.0
O186 O 0.84148 0.29994 0.28448 0.0
Co187 Co 0.04115 0.30528 0.25404 0.0
O188 O 0.99035 0.30055 0.29908 0.0
C189 C 0.93233 0.3331 0.22979 0.0
C190 C 0.75109 0.3006 0.18774 0.0
C191 C 0.90624 0.29987 0.30682 0.0
O192 O 0.86736 0.32256 0.22867 0.0
O193 O 0.01341 0.32877 0.2377 0.0
O194 O 0.83474 0.27413 0.23679 0.0
O195 O 0.96113 0.28874 0.23305 0.0
Co196 Co 0.91018 0.30061 0.52582 0.0
O197 O 0.92221 0.30127 0.57343 0.0
O198 O 0.03596 0.30572 0.53813 0.0
C199 C 0.83347 0.27654 0.52398 0.0
O200 O 0.91005 0.30036 0.47376 0.0
Co201 Co 0.7111 0.30534 0.5035 0.0
O202 O 0.76148 0.29751 0.46014 0.0
C203 C 0.81712 0.33499 0.52146 0.0
C204 C 0.0066 0.30495 0.5692 0.0
C205 C 0.84534 0.29779 0.45201 0.0
O206 O 0.88454 0.32514 0.52564 0.0
O207 O 0.73732 0.32963 0.51432 0.0
O208 O 0.92138 0.27653 0.52579 0.0
O209 O 0.79464 0.29104 0.5283 0.0
Co210 Co 0.82067 0.44031 0.52456 0.0
O211 O 0.8109 0.44045 0.57224 0.0
O212 O 0.6961 0.43492 0.53804 0.0
C213 C 0.89426 0.46454 0.52003 0.0
O214 O 0.81826 0.43953 0.47259 0.0
Co215 Co 0.01811 0.43536 0.50137 0.0
O216 O 0.96589 0.44267 0.45793 0.0
C217 C 0.91301 0.40587 0.51964 0.0
C218 C 0.72684 0.43631 0.56884 0.0
C219 C 0.88182 0.44178 0.45026 0.0
O220 O 0.84785 0.41596 0.52562 0.0
O221 O 0.99265 0.41088 0.51135 0.0
O222 O 0.80663 0.46418 0.52282 0.0
O223 O 0.93575 0.45035 0.52547 0.0
Co224 Co 0.5804 0.05146 0.77769 0.0
O225 O 0.55843 0.04938 0.82454 0.0
O226 O 0.45139 0.05531 0.78744 0.0
C227 C 0.66244 0.02816 0.77299 0.0
O228 O 0.59137 0.05388 0.72606 0.0
Co229 Co 0.78059 0.05921 0.76344 0.0
O230 O 0.74309 0.0543 0.71668 0.0
C231 C 0.6648 0.08647 0.78611 0.0
C232 C 0.47459 0.053 0.81893 0.0
C233 C 0.66136 0.05384 0.70601 0.0
O234 O 0.59986 0.07597 0.78382 0.0
O235 O 0.74768 0.08225 0.78097 0.0
O236 O 0.57445 0.02761 0.7719 0.0
O237 O 0.69749 0.04248 0.78191 0.0
Co238 Co 0.65306 0.19155 0.7855 0.0
O239 O 0.66365 0.1934 0.83305 0.0
O240 O 0.77769 0.18661 0.79949 0.0
C241 C 0.57945 0.21544 0.77692 0.0
O242 O 0.65452 0.18914 0.73372 0.0
Co243 Co 0.45496 0.18525 0.76502 0.0
O244 O 0.50525 0.1891 0.71958 0.0
C245 C 0.56061 0.15687 0.78828 0.0
C246 C 0.74752 0.18904 0.83011 0.0
C247 C 0.58926 0.18924 0.7116 0.0
O248 O 0.62654 0.1672 0.79021 0.0
O249 O 0.47995 0.16152 0.78056 0.0
O250 O 0.66701 0.21528 0.78017 0.0
O251 O 0.53782 0.2016 0.78514 0.0
Co252 Co 0.57812 0.18931 0.49275 0.0
O253 O 0.56533 0.19008 0.44526 0.0
O254 O 0.45286 0.18398 0.48002 0.0
C255 C 0.65167 0.21353 0.49737 0.0
O256 O 0.57899 0.18813 0.54474 0.0
Co257 Co 0.77456 0.1835 0.51359 0.0
O258 O 0.72771 0.1911 0.5576 0.0
C259 C 0.66903 0.15453 0.49351 0.0
C260 C 0.48155 0.18586 0.44904 0.0
C261 C 0.64432 0.19063 0.56624 0.0
O262 O 0.60444 0.16497 0.48989 0.0
O263 O 0.7495 0.15923 0.50139 0.0
O264 O 0.56388 0.21303 0.49584 0.0
O265 O 0.69355 0.19944 0.49096 0.0
Co266 Co 0.67547 0.04921 0.48576 0.0
O267 O 0.6848 0.04808 0.43808 0.0
O268 O 0.79916 0.05482 0.47142 0.0
C269 C 0.60463 0.0247 0.49209 0.0
O270 O 0.67803 0.05095 0.53775 0.0
Co271 Co 0.47697 0.05345 0.50876 0.0
O272 O 0.53088 0.0472 0.5525 0.0
C273 C 0.57791 0.08326 0.488 0.0
C274 C 0.76866 0.05245 0.44082 0.0
C275 C 0.6147 0.04866 0.56019 0.0
O276 O 0.6452 0.0735 0.48277 0.0
O277 O 0.49982 0.07778 0.49713 0.0
O278 O 0.69221 0.02536 0.48934 0.0
O279 O 0.5619 0.03864 0.48576 0.0
Co280 Co 0.41985 0.93775 0.24329 0.0
O281 O 0.43585 0.93929 0.19601 0.0
O282 O 0.54643 0.93293 0.23137 0.0
C283 C 0.34403 0.96176 0.24914 0.0
O284 O 0.41485 0.93575 0.29506 0.0
Co285 Co 0.22041 0.9313 0.2602 0.0
O286 O 0.26408 0.93642 0.30615 0.0
C287 C 0.32897 0.90304 0.23845 0.0
C288 C 0.51962 0.93519 0.20027 0.0
C289 C 0.3467 0.93633 0.31589 0.0
O290 O 0.39541 0.91329 0.23874 0.0
O291 O 0.24705 0.90772 0.24394 0.0
O292 O 0.43194 0.96154 0.24813 0.0
O293 O 0.30423 0.94773 0.24092 0.0
Co294 Co 0.3316 0.79827 0.23447 0.0
O295 O 0.3168 0.79733 0.18704 0.0
O296 O 0.20637 0.80393 0.22255 0.0
C297 C 0.40308 0.77376 0.23958 0.0
O298 O 0.33504 0.79988 0.28637 0.0
Co299 Co 0.53115 0.80322 0.25358 0.0
O300 O 0.48439 0.79695 0.29846 0.0
C301 C 0.42853 0.83248 0.23223 0.0
C302 C 0.23393 0.802 0.19146 0.0
C303 C 0.40139 0.79771 0.30759 0.0
O304 O 0.36088 0.82255 0.23072 0.0
O305 O 0.50853 0.82733 0.2397 0.0
O306 O 0.31527 0.77448 0.23827 0.0
O307 O 0.44542 0.78769 0.23251 0.0
Co308 Co 0.42269 0.80005 0.52642 0.0
O309 O 0.43762 0.79842 0.57374 0.0
O310 O 0.54827 0.80531 0.53874 0.0
C311 C 0.3488 0.77599 0.52003 0.0
O312 O 0.41962 0.80214 0.47464 0.0
Co313 Co 0.22346 0.8061 0.5079 0.0
O314 O 0.26951 0.80188 0.46195 0.0
C315 C 0.32857 0.83439 0.53181 0.0
C316 C 0.52093 0.80294 0.56975 0.0
C317 C 0.35291 0.80171 0.45317 0.0
O318 O 0.3955 0.82429 0.53139 0.0
O319 O 0.24757 0.82962 0.52491 0.0
O320 O 0.43673 0.77634 0.52143 0.0
O321 O 0.3078 0.78995 0.52795 0.0
Co322 Co 0.34159 0.9398 0.53563 0.0
O323 O 0.33059 0.94033 0.5833 0.0
O324 O 0.2156 0.93558 0.54862 0.0
C325 C 0.42163 0.96336 0.53075 0.0
O326 O 0.33986 0.93872 0.48375 0.0
Co327 Co 0.53903 0.93332 0.51304 0.0
O328 O 0.48823 0.94009 0.46894 0.0
C329 C 0.42875 0.90487 0.53433 0.0
C330 C 0.24566 0.9369 0.57952 0.0
C331 C 0.40393 0.94004 0.46134 0.0
O332 O 0.36319 0.91521 0.53751 0.0
O333 O 0.5097 0.90948 0.52684 0.0
O334 O 0.33386 0.96384 0.53326 0.0
O335 O 0.45882 0.94884 0.53651 0.0
Co336 Co 0.57919 0.54837 0.28013 0.0
O337 O 0.5657 0.54662 0.32752 0.0
O338 O 0.45491 0.55424 0.29318 0.0
C339 C 0.64902 0.52394 0.27254 0.0
O340 O 0.58131 0.55079 0.22834 0.0
Co341 Co 0.77885 0.5533 0.26065 0.0
O342 O 0.73023 0.54751 0.21575 0.0
C343 C 0.67855 0.58235 0.2842 0.0
C344 C 0.48328 0.55173 0.32401 0.0
C345 C 0.64711 0.54858 0.20689 0.0
O346 O 0.6105 0.57249 0.28537 0.0
O347 O 0.75809 0.57721 0.27609 0.0
O348 O 0.56126 0.52467 0.27469 0.0
O349 O 0.69226 0.53762 0.28075 0.0
Co350 Co 0.66624 0.68794 0.27758 0.0
O351 O 0.68093 0.6887 0.32504 0.0
O352 O 0.79345 0.68376 0.28944 0.0
C353 C 0.58612 0.71157 0.27313 0.0
O354 O 0.66246 0.68676 0.22572 0.0
Co355 Co 0.46667 0.68082 0.25957 0.0
O356 O 0.51189 0.68574 0.2137 0.0
C357 C 0.57945 0.6529 0.28077 0.0
C358 C 0.76542 0.68519 0.32059 0.0
C359 C 0.59492 0.68675 0.20455 0.0
O360 O 0.64536 0.66329 0.28036 0.0
O361 O 0.49695 0.65741 0.27586 0.0
O362 O 0.67403 0.71196 0.27459 0.0
O363 O 0.54925 0.6971 0.27984 0.0
Co364 Co 0.57231 0.69014 0.98559 0.0
O365 O 0.55834 0.69183 0.93825 0.0
O366 O 0.44664 0.68507 0.97282 0.0
C367 C 0.64648 0.71419 0.99213 0.0
O368 O 0.5751 0.68801 0.03747 0.0
Co369 Co 0.77138 0.68429 1.00475 0.0
O370 O 0.72461 0.69065 0.04961 0.0
C371 C 0.6662 0.65571 0.98155 0.0
C372 C 0.47464 0.68755 0.94192 0.0
C373 C 0.64154 0.69008 0.05872 0.0
O374 O 0.59925 0.66582 0.98069 0.0
O375 O 0.74669 0.66057 0.98908 0.0
O376 O 0.55858 0.71393 0.99059 0.0
O377 O 0.68717 0.70022 0.9842 0.0
Co378 Co 0.66655 0.5504 0.98817 0.0
O379 O 0.68096 0.54853 0.9408 0.0
O380 O 0.7921 0.55548 0.97551 0.0
C381 C 0.59316 0.52637 0.99561 0.0
O382 O 0.66426 0.55273 0.03989 0.0
Co383 Co 0.46732 0.55638 1.00694 0.0
O384 O 0.5143 0.55262 0.05292 0.0
C385 C 0.5723 0.58483 0.98379 0.0
C386 C 0.76467 0.55283 0.94461 0.0
C387 C 0.59785 0.55248 0.0615 0.0
O388 O 0.63944 0.57473 0.9831 0.0
O389 O 0.49139 0.57998 0.99054 0.0
O390 O 0.68098 0.52671 0.99367 0.0
O391 O 0.5516 0.54018 0.98709 0.0
Co392 Co 0.41978 0.44123 0.73583 0.0
O393 O 0.4317 0.44287 0.68833 0.0
O394 O 0.54383 0.43552 0.72225 0.0
C395 C 0.34904 0.46572 0.74275 0.0
O396 O 0.42031 0.4389 0.78761 0.0
Co397 Co 0.22112 0.43658 0.75737 0.0
O398 O 0.27257 0.44194 0.80207 0.0
C399 C 0.32092 0.40724 0.73425 0.0
C400 C 0.51489 0.43812 0.69153 0.0
C401 C 0.35636 0.44066 0.80995 0.0
O402 O 0.38892 0.41705 0.7313 0.0
O403 O 0.24198 0.41254 0.74276 0.0
O404 O 0.43681 0.46501 0.74073 0.0
O405 O 0.30629 0.45187 0.73552 0.0
Co406 Co 0.32231 0.30099 0.7341 0.0
O407 O 0.30866 0.29942 0.6867 0.0
O408 O 0.19617 0.30558 0.72141 0.0
C409 C 0.39979 0.27728 0.74028 0.0
O410 O 0.32402 0.30301 0.78596 0.0
Co411 Co 0.5202 0.30755 0.75426 0.0
O412 O 0.47324 0.30092 0.79892 0.0
C413 C 0.41087 0.33596 0.73247 0.0
C414 C 0.22443 0.30335 0.69048 0.0
C415 C 0.3898 0.30138 0.80762 0.0
O416 O 0.34599 0.32546 0.72979 0.0
O417 O 0.49159 0.33141 0.74043 0.0
O418 O 0.31183 0.2771 0.73873 0.0
O419 O 0.43859 0.29148 0.73276 0.0
Co420 Co 0.42528 0.29983 0.02554 0.0
O421 O 0.44596 0.29757 0.0724 0.0
O422 O 0.55267 0.30481 0.03607 0.0
C423 C 0.35079 0.27571 0.01957 0.0
O424 O 0.41484 0.30272 0.97402 0.0
Co425 Co 0.22345 0.30581 0.01149 0.0
O426 O 0.26322 0.30182 0.96464 0.0
C427 C 0.3316 0.33415 0.03351 0.0
C428 C 0.52886 0.302 0.06733 0.0
C429 C 0.34492 0.30238 0.95396 0.0
O430 O 0.39874 0.32406 0.03222 0.0
O431 O 0.24982 0.32931 0.02821 0.0
O432 O 0.43872 0.27614 0.01896 0.0
O433 O 0.31107 0.28957 0.02892 0.0
Co434 Co 0.33735 0.43939 0.0281 0.0
O435 O 0.31914 0.44181 0.07514 0.0
O436 O 0.21035 0.43474 0.03954 0.0
C437 C 0.41429 0.46316 0.02147 0.0
O438 O 0.34395 0.43647 0.97647 0.0
Co439 Co 0.53745 0.4328 0.01161 0.0
O440 O 0.49467 0.43705 0.96524 0.0
C441 C 0.42862 0.40486 0.03559 0.0
C442 C 0.23569 0.43754 0.07064 0.0
C443 C 0.41202 0.43676 0.95557 0.0
O444 O 0.36203 0.41507 0.03477 0.0
O445 O 0.51003 0.40949 0.02892 0.0
O446 O 0.3262 0.46314 0.02146 0.0
O447 O 0.45288 0.44917 0.03051 0.0
C448 C 0.03644 0.0551 0.11518 0.0
C449 C 0.1032 0.04927 0.0923 0.0
C450 C 0.04849 0.05407 0.15018 0.0
C451 C 0.12791 0.04714 0.16393 0.0
H452 H 0.97413 0.06074 0.106 0.0
H453 H 0.99623 0.05916 0.16649 0.0
S454 S 0.3201 0.02862 0.11522 0.0
N455 N 0.24912 0.03545 0.08607 0.0
N456 N 0.27241 0.03327 0.15169 0.0
C457 C 0.19439 0.04084 0.14132 0.0
C458 C 0.18211 0.04202 0.10563 0.0
C459 C 0.19796 0.18243 0.12455 0.0
C460 C 0.13279 0.1897 0.10274 0.0
C461 C 0.19099 0.18379 0.1597 0.0
C462 C 0.11863 0.19253 0.17458 0.0
H463 H 0.25457 0.17535 0.11437 0.0
H464 H 0.24075 0.17743 0.17525 0.0
S465 S 0.93584 0.21556 0.1289 0.0
N466 N -0.00244 0.207 0.0987 0.0
N467 N 0.98425 0.20983 0.16462 0.0
C468 C 0.05478 0.20042 0.15303 0.0
C469 C 0.06163 0.19888 0.11723 0.0
C470 C 0.81455 0.94447 0.91121 0.0
C471 C 0.8918 0.93716 0.92575 0.0
C472 C 0.8058 0.94566 0.87606 0.0
C473 C 0.87374 0.93952 0.85393 0.0
H474 H 0.76151 0.94967 0.92704 0.0
H475 H 0.74489 0.95151 0.86616 0.0
S476 S 0.08649 0.91808 0.87937 0.0
N477 N 0.0359 0.92285 0.91522 0.0
N478 N 0.01889 0.92522 0.84944 0.0
C479 C 0.95078 0.93201 0.86817 0.0
C480 C 0.95972 0.93074 0.90393 0.0
C481 C 0.94106 0.80687 0.90257 0.0
C482 C 0.86324 0.79961 0.91684 0.0
C483 C 0.95096 0.80804 0.8675 0.0
C484 C 0.88358 0.80198 0.84511 0.0
H485 H 0.99362 0.81212 0.91854 0.0
H486 H 0.0121 0.81392 0.85787 0.0
S487 S 0.67054 0.78041 0.86951 0.0
N488 N 0.71973 0.7852 0.90564 0.0
N489 N 0.73899 0.7876 0.83988 0.0
C490 C 0.80628 0.7944 0.85897 0.0
C491 C 0.79618 0.79311 0.89472 0.0
C492 C 0.19806 0.55658 0.64652 0.0
C493 C 0.13081 0.55073 0.66919 0.0
C494 C 0.18714 0.55543 0.6115 0.0
C495 C 0.10838 0.54839 0.59748 0.0
H496 H 0.25974 0.56239 0.65587 0.0
H497 H 0.23958 0.56059 0.59536 0.0
S498 S 0.91566 0.52964 0.64547 0.0
N499 N 0.98538 0.53666 0.67487 0.0
N500 N 0.96431 0.53428 0.60917 0.0
C501 C 0.04165 0.54199 0.61984 0.0
C502 C 0.05277 0.54327 0.65557 0.0
C503 C 0.1798 0.69517 0.65435 0.0
C504 C 0.09922 0.6888 0.66824 0.0
C505 C 0.1918 0.69603 0.6193 0.0
C506 C 0.12401 0.69046 0.59653 0.0
H507 H 0.23354 0.69975 0.67061 0.0
H508 H 0.25549 0.70107 0.61002 0.0
S509 S 0.90178 0.67191 0.62002 0.0
N510 N 0.95098 0.67629 0.65633 0.0
N511 N 0.9743 0.67798 0.59074 0.0
C512 C 0.04314 0.68405 0.61008 0.0
C513 C 0.03075 0.68316 0.64578 0.0
C514 C 0.92659 0.44885 0.391 0.0
C515 C 0.86203 0.44188 0.41349 0.0
C516 C 0.91865 0.44701 0.35594 0.0
C517 C 0.84542 0.43822 0.34182 0.0
H518 H 0.98498 0.45563 0.4006 0.0
H519 H 0.96952 0.4527 0.33984 0.0
S520 S 0.65929 0.41705 0.38927 0.0
N521 N 0.72348 0.42556 0.41878 0.0
N522 N 0.70755 0.4221 0.35313 0.0
C523 C 0.77993 0.43127 0.36397 0.0
C524 C 0.78821 0.43315 0.39966 0.0
C525 C 0.95117 0.30602 0.36635 0.0
C526 C 0.88705 0.29915 0.34358 0.0
C527 C 0.94006 0.30481 0.40136 0.0
C528 C 0.86429 0.29667 0.41522 0.0
H529 H 0.01055 0.3126 0.35704 0.0
H530 H 0.98971 0.31078 0.41758 0.0
S531 S 0.68095 0.27513 0.36692 0.0
N532 N 0.74812 0.28304 0.33762 0.0
N533 N 0.72672 0.28055 0.4033 0.0
C534 C 0.8008 0.28931 0.39275 0.0
C535 C 0.81204 0.29066 0.35705 0.0
C536 C 0.57538 0.04456 0.65463 0.0
C537 C 0.6502 0.05286 0.66877 0.0
C538 C 0.56768 0.04256 0.61963 0.0
C539 C 0.63394 0.04893 0.59707 0.0
H540 H 0.52293 0.03934 0.67069 0.0
H541 H 0.50806 0.0361 0.61018 0.0
S542 S 0.84243 0.07208 0.62132 0.0
N543 N 0.79226 0.06768 0.65745 0.0
N544 N 0.77657 0.06401 0.5918 0.0
C545 C 0.70953 0.05714 0.61091 0.0
C546 C 0.71772 0.05913 0.64662 0.0
C547 C 0.54486 0.18181 0.6527 0.0
C548 C 0.60774 0.18949 0.67484 0.0
C549 C 0.5542 0.18286 0.61759 0.0
C550 C 0.62686 0.19166 0.60309 0.0
H551 H 0.48774 0.17478 0.66262 0.0
H552 H 0.5057 0.17631 0.60179 0.0
S553 S 0.80507 0.21546 0.64968 0.0
N554 N 0.74163 0.20708 0.67959 0.0
N555 N 0.75982 0.20925 0.61371 0.0
C556 C 0.68907 0.19979 0.62495 0.0
C557 C 0.67963 0.19861 0.66073 0.0
C558 C 0.45069 0.94581 0.40167 0.0
C559 C 0.38344 0.94021 0.42459 0.0
C560 C 0.43979 0.94424 0.36667 0.0
C561 C 0.36088 0.93707 0.35302 0.0
H562 H 0.51329 0.95135 0.41083 0.0
H563 H 0.49306 0.94885 0.35025 0.0
S564 S 0.16519 0.91991 0.40179 0.0
N565 N 0.23583 0.92695 0.43082 0.0
N566 N 0.21452 0.92393 0.36534 0.0
C567 C 0.29273 0.93147 0.37564 0.0
C568 C 0.30399 0.93311 0.41127 0.0
C569 C 0.30432 0.80776 0.394 0.0
C570 C 0.36928 0.80081 0.41629 0.0
C571 C 0.31237 0.8061 0.35892 0.0
C572 C 0.38565 0.79736 0.34462 0.0
H573 H 0.24665 0.81469 0.40375 0.0
H574 H 0.26225 0.8121 0.34295 0.0
S575 S 0.56919 0.77532 0.39186 0.0
N576 N 0.5059 0.78398 0.42149 0.0
N577 N 0.52141 0.7806 0.35576 0.0
C578 C 0.44985 0.78994 0.3667 0.0
C579 C 0.44183 0.79178 0.40241 0.0
C580 C 0.55206 0.55936 0.12057 0.0
C581 C 0.61479 0.55174 0.0983 0.0
C582 C 0.55993 0.55772 0.15566 0.0
C583 C 0.63074 0.54831 0.16993 0.0
H584 H 0.49627 0.56679 0.11075 0.0
H585 H 0.51176 0.56423 0.17165 0.0
S586 S 0.80697 0.52431 0.12271 0.0
N587 N 0.74612 0.53354 0.09308 0.0
N588 N 0.76125 0.53018 0.15883 0.0
C589 C 0.69253 0.54022 0.14786 0.0
C590 C 0.68475 0.54204 0.11216 0.0
C591 C 0.54435 0.68083 0.14547 0.0
C592 C 0.60983 0.68781 0.16756 0.0
C593 C 0.55218 0.68224 0.11034 0.0
C594 C 0.62582 0.69073 0.09576 0.0
H595 H 0.48661 0.67398 0.15541 0.0
H596 H 0.50175 0.6762 0.09457 0.0
S597 S 0.81063 0.71284 0.14225 0.0
N598 N 0.74721 0.70447 0.17216 0.0
N599 N 0.76226 0.7074 0.10634 0.0
C600 C 0.69035 0.69825 0.11759 0.0
C601 C 0.68254 0.69667 0.15336 0.0
C602 C 0.3089 0.44609 0.86969 0.0
C603 C 0.37581 0.44027 0.84681 0.0
C604 C 0.31935 0.4445 0.90469 0.0
C605 C 0.39751 0.43712 0.91844 0.0
H606 H 0.24708 0.45192 0.86053 0.0
H607 H 0.26657 0.44937 0.92104 0.0
S608 S 0.59161 0.41919 0.86995 0.0
N609 N 0.52194 0.42644 0.84078 0.0
N610 N 0.54243 0.42342 0.90635 0.0
C611 C 0.46505 0.4312 0.89591 0.0
C612 C 0.45421 0.43283 0.86024 0.0
C613 C 0.44279 0.29517 0.86639 0.0
C614 C 0.3729 0.30087 0.84463 0.0
C615 C 0.43466 0.29603 0.90157 0.0
C616 C 0.35596 0.30251 0.91665 0.0
H617 H 0.50524 0.29004 0.85619 0.0
H618 H 0.4899 0.29135 0.917 0.0
S619 S 0.15391 0.3196 0.87144 0.0
N620 N 0.22307 0.3135 0.84108 0.0
N621 N 0.20683 0.31515 0.90699 0.0
C622 C 0.28524 0.30823 0.89524 0.0
C623 C 0.29375 0.30735 0.85938 0.0
C624 C 0.2036 0.97936 0.24868 0.0
C625 C 0.29646 0.9777 0.25575 0.0
C626 C 0.15979 0.9948 0.25288 0.0
C627 C 0.20728 0.00911 0.2643 0.0
H628 H 0.16476 0.96876 0.23945 0.0
H629 H 0.0879 -0.0045 0.24701 0.0
S630 S 0.45066 0.01119 0.28784 0.0
N631 N 0.43435 0.99157 0.27597 0.0
N632 N 0.35126 0.02055 0.2834 0.0
C633 C 0.29992 0.00761 0.27167 0.0
C634 C 0.34462 0.99189 0.26761 0.0
C635 C 0.92105 0.24393 0.2523 0.0
C636 C 0.97012 0.25915 0.2508 0.0
C637 C 0.96174 0.22908 0.26335 0.0
C638 C 0.05298 0.22892 0.27331 0.0
H639 H 0.85033 0.24338 0.24469 0.0
H640 H 0.92183 0.21765 0.26356 0.0
S641 S 0.2102 0.26557 0.27563 0.0
N642 N 0.11372 0.27325 0.261 0.0
N643 N 0.19108 0.24543 0.2822 0.0
C644 C 0.10269 0.24412 0.27241 0.0
C645 C 0.0611 0.25922 0.26097 0.0
C646 C 0.16327 0.24354 0.01393 0.0
C647 C 0.2099 0.22884 1.00416 0.0
C648 C 0.20893 0.25873 0.01849 0.0
C649 C 0.30298 0.25976 0.01357 0.0
H650 H 0.0904 0.24342 0.01801 0.0
H651 H 0.17025 0.26968 0.02605 0.0
S652 S 0.45691 0.22484 0.988 0.0
N653 N 0.35502 0.2162 0.98987 0.0
N654 N 0.44207 0.24473 0.99832 0.0
C655 C 0.3508 0.24511 1.0039 0.0
C656 C 0.30398 0.22963 0.99931 0.0
C657 C 0.08036 -0.0044 1.00368 0.0
C658 C 0.02772 0.01007 0.99713 0.0
C659 C 0.04016 0.9806 0.01422 0.0
C660 C 0.94591 0.97954 0.0186 0.0
H661 H 0.1536 -0.0042 1.00069 0.0
H662 H 0.08317 0.9698 0.0188 0.0
S663 S 0.77769 0.01389 1.00494 0.0
N664 N 0.87693 0.02241 0.99581 0.0
N665 N 0.80027 0.99433 0.01571 0.0
C666 C 0.8923 0.99395 0.01217 0.0
C667 C 0.93349 0.0092 1.00141 0.0
C668 C 0.66896 -0.0015 0.75446 0.0
C669 C 0.71461 0.01268 0.76743 0.0
C670 C 0.71347 0.98317 0.75028 0.0
C671 C 0.80537 0.98149 0.75878 0.0
H672 H 0.59789 -0.0008 0.74736 0.0
H673 H 0.67593 0.97269 0.73984 0.0
S674 S 0.95494 0.01459 0.79501 0.0
N675 N 0.85591 0.02396 0.78951 0.0
N676 N 0.94056 0.99511 0.78186 0.0
C677 C 0.85187 -0.00448 0.77212 0.0
C678 C 0.80632 0.01115 0.7763 0.0
C679 C 0.08628 0.74511 0.75729 0.0
C680 C 0.03481 0.73054 0.76415 0.0
C681 C 0.04435 0.76039 0.74963 0.0
C682 C 0.94945 0.76164 0.74848 0.0
H683 H 0.15994 0.74478 0.75783 0.0
H684 H 0.08656 0.77124 0.74452 0.0
S685 S 0.78369 0.72715 0.76465 0.0
N686 N 0.88436 0.71832 0.7694 0.0
N687 N 0.80445 0.74693 0.7551 0.0
C688 C 0.89699 0.74714 0.75539 0.0
C689 C 0.93994 0.7316 0.76318 0.0
C690 C 0.78754 0.73134 0.99483 0.0
C691 C 0.69387 0.72991 1.00033 0.0
C692 C 0.83232 0.74648 1.00097 0.0
C693 C 0.78509 0.7607 0.01296 0.0
H694 H 0.82641 0.72079 0.98538 0.0
H695 H 0.90486 0.74699 0.99624 0.0
S696 S 0.53942 0.76327 0.0327 0.0
N697 N 0.55502 0.74385 0.01939 0.0
N698 N 0.64025 0.77232 0.03073 0.0
C699 C 0.69153 0.75944 0.01873 0.0
C700 C 0.64568 0.74401 0.01256 0.0
C701 C 0.16464 0.49733 0.76131 0.0
C702 C 0.2137 0.5123 0.76696 0.0
C703 C 0.20874 0.4823 0.75358 0.0
C704 C 0.30361 0.48166 0.75117 0.0
H705 H 0.09106 0.49712 0.76284 0.0
H706 H 0.16809 0.47114 0.74948 0.0
S707 S 0.46379 0.51737 0.76353 0.0
N708 N 0.36202 0.52559 0.76954 0.0
N709 N 0.44615 0.49735 0.75499 0.0
C710 C 0.35385 0.49655 0.75676 0.0
C711 C 0.30859 0.51188 0.76464 0.0
C712 C 0.20676 0.75936 0.51284 0.0
C713 C 0.30186 0.76014 0.51238 0.0
C714 C 0.16183 0.74427 0.50624 0.0
C715 C 0.21045 0.72945 0.49891 0.0
H716 H 0.1667 0.77044 0.5184 0.0
H717 H 0.08815 0.7443 0.50687 0.0
S718 S 0.46076 0.72481 0.49436 0.0
N719 N 0.44392 0.74474 0.50376 0.0
N720 N 0.35841 0.71644 0.49152 0.0
C721 C 0.3055 0.73002 0.49837 0.0
C722 C 0.35149 0.74537 0.50501 0.0
C723 C 0.0356 0.48116 0.51145 0.0
C724 C 0.94053 0.48042 0.51206 0.0
C725 C 0.08013 0.49624 0.50458 0.0
C726 C 0.03119 0.51112 0.49798 0.0
H727 H 0.07598 0.47006 0.51647 0.0
H728 H 0.15383 0.49617 0.50451 0.0
S729 S 0.78074 0.51582 0.49587 0.0
N730 N 0.79804 0.49586 0.50496 0.0
N731 N 0.88291 0.52418 0.49209 0.0
C732 C 0.93615 0.51057 0.49831 0.0
C733 C 0.89051 0.49521 0.50531 0.0
C734 C 0.78768 0.50638 0.26579 0.0
C735 C 0.6935 0.50817 0.26238 0.0
C736 C 0.83015 0.49127 0.25753 0.0
C737 C 0.7801 0.47739 0.24543 0.0
H738 H 0.82885 0.51664 0.27524 0.0
H739 H 0.90319 0.4905 0.26085 0.0
S740 S 0.53188 0.47589 0.23037 0.0
N741 N 0.55097 0.49498 0.24494 0.0
N742 N 0.63205 0.46654 0.22958 0.0
C743 C 0.68603 0.47903 0.24157 0.0
C744 C 0.64245 0.49445 0.24994 0.0
C745 C 0.83412 0.24561 0.516 0.0
C746 C 0.78464 0.26078 0.51734 0.0
C747 C 0.79116 0.23032 0.50929 0.0
C748 C 0.69725 0.22969 0.50367 0.0
H749 H 0.90691 0.24547 0.52026 0.0
H750 H 0.83162 0.21896 0.50875 0.0
S751 S 0.53722 0.26599 0.50353 0.0
N752 N 0.6374 0.27427 0.51208 0.0
N753 N 0.55569 0.24568 0.4992 0.0
C754 C 0.64692 0.24483 0.50475 0.0
C755 C 0.69086 0.26035 0.51167 0.0
C756 C 0.39894 0.24843 0.76371 0.0
C757 C 0.44845 0.26182 0.74936 0.0
C758 C 0.44091 0.23323 0.77183 0.0
C759 C 0.53387 0.23093 0.76594 0.0
H760 H 0.32695 0.2497 0.76899 0.0
H761 H 0.40068 0.22338 0.78333 0.0
S762 S 0.69252 0.26162 0.72658 0.0
N763 N 0.59406 0.27155 0.72826 0.0
N764 N 0.67383 0.24294 0.74312 0.0
C765 C 0.58397 0.24411 0.75096 0.0
C766 C 0.54109 0.2596 0.74285 0.0
C767 C 0.46522 0.00838 0.50577 0.0
C768 C 0.55978 0.00892 0.50193 0.0
C769 C 0.42188 0.99352 0.51523 0.0
C770 C 0.4715 0.97865 0.52123 0.0
H771 H 0.42426 0.01948 0.50147 0.0
H772 H 0.34852 0.99377 0.51779 0.0
S773 S 0.72112 0.97344 0.5148 0.0
N774 N 0.7026 0.99327 0.50497 0.0
N775 N 0.62001 0.96538 0.52281 0.0
C776 C 0.5661 0.979 0.51758 0.0
C777 C 0.61053 0.99413 0.50792 0.0
C778 C 0.58562 0.74212 0.26081 0.0
C779 C 0.53615 0.72706 0.26485 0.0
C780 C 0.54249 0.75718 0.25245 0.0
C781 C 0.44823 0.75774 0.24781 0.0
H782 H 0.65875 0.74238 0.26415 0.0
H783 H 0.58327 0.76843 0.2498 0.0
S784 S 0.28754 0.72173 0.25494 0.0
N785 N 0.38826 0.7136 0.26332 0.0
N786 N 0.30598 0.74183 0.24749 0.0
C787 C 0.39767 0.74274 0.25169 0.0
C788 C 0.44192 0.72741 0.26026 0.0
C789 C 0.41483 0.49244 1.00039 0.0
C790 C 0.46304 0.4789 0.01475 0.0
C791 C 0.4562 0.50801 0.99515 0.0
C792 C 0.54729 0.51053 1.00399 0.0
H793 H 0.3443 0.49103 0.99298 0.0
H794 H 0.41715 0.51798 0.98352 0.0
S795 S 0.70179 0.47945 0.04435 0.0
N796 N 0.60536 0.4692 0.03885 0.0
N797 N 0.68385 0.49849 0.02937 0.0
C798 C 0.59601 0.49717 0.01892 0.0
C799 C 0.5538 0.4813 0.0241 0.0
C800 C 0.18096 0.13082 0.27089 0.0
C801 C 0.09371 0.13615 0.28134 0.0
C802 C 0.20547 0.11385 0.27062 0.0
C803 C 0.14394 0.10143 0.28096 0.0
H804 H 0.23069 0.13984 0.26205 0.0
H805 H 0.27228 0.11045 0.26133 0.0
S806 S 0.91019 0.10891 0.31426 0.0
N807 N 0.94791 0.1278 0.3044 0.0
N808 N 0.99345 0.09584 0.30473 0.0
C809 C 0.05731 0.10665 0.29274 0.0
C810 C 0.0322 0.12398 0.29261 0.0
C811 C 0.19027 0.12455 0.97865 0.0
C812 C 0.1249 0.13707 0.98411 0.0
C813 C 0.16521 0.10763 0.97643 0.0
C814 C 0.07369 0.10239 0.98002 0.0
H815 H 0.26162 0.12778 0.97653 0.0
H816 H 0.21921 0.09854 0.97287 0.0
S817 S 0.87474 0.13033 0.99251 0.0
N818 N 0.96289 0.14312 0.99123 0.0
N819 N 0.91698 0.11131 0.98744 0.0
C820 C 0.0071 0.11482 0.98431 0.0
C821 C 0.0324 0.13212 0.98629 0.0
C822 C 0.79433 0.8769 0.74007 0.0
C823 C 0.85758 0.88936 0.73155 0.0
C824 C 0.8188 0.85993 0.74005 0.0
C825 C 0.90782 0.85462 0.73172 0.0
H826 H 0.72622 0.88026 0.74803 0.0
H827 H 0.76768 0.85092 0.74776 0.0
S828 S 0.09635 0.88197 0.70328 0.0
N829 N 0.0116 0.895 0.71106 0.0
N830 N 0.05704 0.86305 0.71197 0.0
C831 C 0.97085 0.86682 0.7218 0.0
C832 C 0.94578 0.88416 0.72135 0.0
C833 C 0.82158 0.88184 0.03211 0.0
C834 C 0.91173 0.88683 0.03959 0.0
C835 C 0.7959 0.86496 0.03133 0.0
C836 C 0.85899 0.85223 0.03815 0.0
H837 H 0.77018 0.89104 0.02568 0.0
H838 H 0.72668 0.8619 0.02424 0.0
S839 S 0.1011 0.85859 0.06338 0.0
N840 N 0.06232 0.87774 0.05656 0.0
N841 N 0.01469 0.84588 0.05592 0.0
C842 C 0.94865 0.85704 0.04733 0.0
C843 C 0.97492 0.87433 0.04774 0.0
C844 C 0.05354 0.60932 0.77324 0.0
C845 C 0.13994 0.60416 0.7849 0.0
C846 C 0.02582 0.62612 0.77491 0.0
C847 C 0.08318 0.63843 0.78854 0.0
H848 H 0.00768 0.60038 0.76163 0.0
H849 H 0.9608 0.62955 0.76406 0.0
S850 S 0.31012 0.631 0.82758 0.0
N851 N 0.27858 0.61235 0.81362 0.0
N852 N 0.22645 0.64392 0.81772 0.0
C853 C 0.16766 0.63324 0.80221 0.0
C854 C 0.19624 0.61614 0.80003 0.0
C855 C 0.20892 0.62528 0.49071 0.0
C856 C 0.14712 0.63759 0.48003 0.0
C857 C 0.18368 0.60837 0.49206 0.0
C858 C 0.09538 0.60302 0.48301 0.0
H859 H 0.27638 0.62874 0.49922 0.0
H860 H 0.23348 0.59946 0.50129 0.0
S861 S 0.91099 0.62986 0.44932 0.0
N862 N 0.99552 0.64295 0.45696 0.0
N863 N 0.94855 0.61113 0.46041 0.0
C864 C 0.03387 0.61503 0.47105 0.0
C865 C 0.05973 0.63229 0.46922 0.0
C866 C 0.96562 0.36375 0.23651 0.0
C867 C 0.90719 0.35104 0.22518 0.0
C868 C 0.93722 0.38052 0.23724 0.0
C869 C 0.84897 0.38533 0.22687 0.0
H870 H 0.03263 0.36071 0.24608 0.0
H871 H 0.98445 0.38975 0.24706 0.0
S872 S 0.67345 0.35727 0.19084 0.0
N873 N 0.75935 0.34471 0.19993 0.0
N874 N 0.70631 0.37625 0.20224 0.0
C875 C 0.79102 0.37291 0.21421 0.0
C876 C 0.82016 0.3558 0.21302 0.0
C877 C 0.92479 0.35875 0.53295 0.0
C878 C 0.8374 0.35327 0.52265 0.0
C879 C 0.95024 0.3757 0.5314 0.0
C880 C 0.88893 0.38785 0.51992 0.0
H881 H 0.97486 0.34987 0.54204 0.0
H882 H 0.0177 0.37932 0.53966 0.0
S883 S 0.65355 0.38033 0.4888 0.0
N884 N 0.69071 0.36157 0.49981 0.0
N885 N 0.73792 0.39336 0.497 0.0
C886 C 0.8014 0.38262 0.50956 0.0
C887 C 0.77568 0.36538 0.511 0.0
C888 C 0.70262 0.11711 0.78585 0.0
C889 C 0.63901 0.10433 0.79161 0.0
C890 C 0.67632 0.13398 0.78593 0.0
C891 C 0.58505 0.13887 0.79156 0.0
H892 H 0.7727 0.1141 0.77995 0.0
H893 H 0.72805 0.14324 0.78023 0.0
S894 S 0.394 0.11048 0.81274 0.0
N895 N 0.48171 0.09786 0.807 0.0
N896 N 0.4329 0.12964 0.80622 0.0
C897 C 0.52146 0.12632 0.79898 0.0
C898 C 0.54832 0.10907 0.79933 0.0
C899 C 0.7118 0.12418 0.48645 0.0
C900 C 0.64441 0.13647 0.49023 0.0
C901 C 0.68881 0.10713 0.48444 0.0
C902 C 0.59742 0.10158 0.48654 0.0
H903 H 0.78289 0.12771 0.48524 0.0
H904 H 0.74407 0.09821 0.48208 0.0
S905 S 0.39427 0.12877 0.49555 0.0
N906 N 0.48103 0.14189 0.49516 0.0
N907 N 0.4392 0.10991 0.49157 0.0
C908 C 0.52918 0.11376 0.48969 0.0
C909 C 0.5523 0.13115 0.49149 0.0
C910 C 0.43933 0.87953 0.24565 0.0
C911 C 0.35329 0.8851 0.23431 0.0
C912 C 0.46576 0.86269 0.24315 0.0
C913 C 0.4075 0.85067 0.22898 0.0
H914 H 0.48609 0.88821 0.25758 0.0
H915 H 0.53073 0.85898 0.25367 0.0
S916 S 0.18039 0.85919 0.19083 0.0
N917 N 0.21361 0.87758 0.20558 0.0
N918 N 0.26319 0.84593 0.1999 0.0
C919 C 0.3231 0.85626 0.21578 0.0
C920 C 0.29585 0.87342 0.2188 0.0
C921 C 0.31544 0.88185 0.52751 0.0
C922 C 0.40428 0.8869 0.53659 0.0
C923 C 0.28951 0.86494 0.52766 0.0
C924 C 0.35118 0.85238 0.53717 0.0
H925 H 0.26592 0.891 0.51907 0.0
H926 H 0.22185 0.86168 0.51904 0.0
S927 S 0.58819 0.85927 0.56785 0.0
N928 N 0.5512 0.87822 0.55814 0.0
N929 N 0.50293 0.84644 0.55957 0.0
C930 C 0.43894 0.85739 0.54819 0.0
C931 C 0.4655 0.87462 0.54749 0.0
C932 C 0.69061 0.62953 0.27311 0.0
C933 C 0.60449 0.63498 0.28455 0.0
C934 C 0.71686 0.61265 0.27492 0.0
C935 C 0.65832 0.60051 0.28852 0.0
H936 H 0.73741 0.63831 0.26154 0.0
H937 H 0.78177 0.60902 0.26425 0.0
S938 S 0.43119 0.60871 0.32691 0.0
N939 N 0.46466 0.62722 0.31294 0.0
N940 N 0.51398 0.59553 0.3174 0.0
C941 C 0.57407 0.60599 0.30199 0.0
C942 C 0.54699 0.62318 0.29963 0.0
C943 C 0.70786 0.62534 0.98675 0.0
C944 C 0.64448 0.63759 0.97719 0.0
C945 C 0.6837 0.60836 0.98793 0.0
C946 C 0.59488 0.60287 0.97985 0.0
H947 H 0.77574 0.62889 0.99464 0.0
H948 H 0.73476 0.59952 0.99646 0.0
S949 S 0.40655 0.62954 0.94872 0.0
N950 N 0.49092 0.64276 0.95577 0.0
N951 N 0.44597 0.61083 0.95899 0.0
C952 C 0.53188 0.61483 0.96878 0.0
C953 C 0.55666 0.63216 0.9671 0.0
C954 C 0.43184 0.38346 0.7327 0.0
C955 C 0.3406 0.38903 0.73059 0.0
C956 C 0.45434 0.36639 0.73215 0.0
C957 C 0.38682 0.35406 0.72911 0.0
H958 H 0.487 0.39234 0.73591 0.0
H959 H 0.52515 0.36288 0.73492 0.0
S960 S 0.13789 0.36198 0.71928 0.0
N961 N 0.18293 0.38086 0.72316 0.0
N962 N 0.22406 0.34875 0.72144 0.0
C963 C 0.29528 0.35947 0.72542 0.0
C964 C 0.27248 0.37691 0.7264 0.0
C965 C 0.46969 0.37442 0.03249 0.0
C966 C 0.4058 0.38684 0.04059 0.0
C967 C 0.4449 0.35748 0.03137 0.0
C968 C 0.3549 0.35215 0.03811 0.0
H969 H 0.53854 0.37781 0.02553 0.0
H970 H 0.49665 0.34855 0.02384 0.0
S971 S 0.16461 0.37938 0.06563 0.0
N972 N 0.25036 0.3924 0.05953 0.0
N973 N 0.2042 0.36052 0.05653 0.0
C974 C 0.29139 0.36429 0.04801 0.0
C975 C 0.31679 0.3816 0.04958 0.0
C976 C 0.83129 0.05092 0.34812 0.0
C977 C 0.92436 0.0545 0.3483 0.0
C978 C 0.78172 0.05075 0.37825 0.0
C979 C 0.8233 0.05421 0.40967 0.0
H980 H 0.79746 0.04747 0.32489 0.0
H981 H 0.71043 0.04739 0.37682 0.0
S982 S 0.06294 0.06691 0.42272 0.0
N983 N 0.05463 0.06354 0.38181 0.0
N984 N 0.96096 0.06305 0.43833 0.0
C985 C 0.91513 0.05881 0.40985 0.0
C986 C 0.96571 0.059 0.37918 0.0
C987 C 0.41493 0.18543 0.35686 0.0
C988 C 0.32287 0.18111 0.35779 0.0
C989 C 0.46533 0.18656 0.38664 0.0
C990 C 0.42566 0.18335 0.41848 0.0
H991 H 0.44705 0.18883 0.33326 0.0
H992 H 0.53565 0.19049 0.38456 0.0
S993 S 0.18986 0.16894 0.43366 0.0
N994 N 0.19587 0.17167 0.3925 0.0
N995 N 0.29137 0.17387 0.44848 0.0
C996 C 0.33509 0.17799 0.4195 0.0
C997 C 0.28359 0.17683 0.38913 0.0
C998 C 0.89821 0.18789 0.85901 0.0
C999 C 0.80331 0.18724 0.86089 0.0
C1000 C 0.95095 0.18807 0.88833 0.0
C1001 C 0.91095 0.18754 0.92073 0.0
H1002 H 0.93197 0.18881 0.83483 0.0
H1003 H 0.02405 0.18895 0.88538 0.0
S1004 S 0.66503 0.18382 0.93923 0.0
N1005 N 0.67094 0.18461 0.89774 0.0
N1006 N 0.77107 0.18503 0.95271 0.0
C1007 C 0.81634 0.1861 0.92295 0.0
C1008 C 0.76231 0.18594 0.89307 0.0
C1009 C 0.39633 0.05401 0.90982 0.0
C1010 C 0.30175 0.05527 0.90716 0.0
C1011 C 0.4508 0.05367 0.88097 0.0
C1012 C 0.41302 0.05466 0.84825 0.0
H1013 H 0.42838 0.05266 0.93424 0.0
H1014 H 0.52347 0.05229 0.88455 0.0
S1015 S 0.16925 0.06025 0.82784 0.0
N1016 N 0.17235 0.0591 0.86934 0.0
N1017 N 0.27579 0.05841 0.81518 0.0
C1018 C 0.31892 0.0568 0.84527 0.0
C1019 C 0.26307 0.05711 0.87471 0.0
C1020 C 0.09718 0.94036 0.60884 0.0
C1021 C 0.18823 0.93535 0.60978 0.0
C1022 C 0.04663 0.94165 0.63856 0.0
C1023 C 0.08495 0.93785 0.67036 0.0
H1024 H 0.0659 0.94402 0.58525 0.0
H1025 H 0.97702 0.94598 0.63643 0.0
S1026 S 0.31797 0.92196 0.68558 0.0
N1027 N 0.31313 0.92503 0.64449 0.0
N1028 N 0.21717 0.9274 0.70034 0.0
C1029 C 0.17468 0.93201 0.67141 0.0
C1030 C 0.22648 0.93076 0.64111 0.0
C1031 C 0.58816 0.80414 0.66187 0.0
C1032 C 0.68083 0.80799 0.66068 0.0
C1033 C 0.53746 0.80288 0.63217 0.0
C1034 C 0.57739 0.80551 0.60016 0.0
H1035 H 0.55561 0.80127 0.68566 0.0
H1036 H 0.46653 0.79938 0.63448 0.0
S1037 S 0.81528 0.81846 0.58413 0.0
N1038 N 0.80906 0.81629 0.62542 0.0
N1039 N 0.71296 0.81388 0.56962 0.0
C1040 C 0.66875 0.81038 0.59883 0.0
C1041 C 0.72061 0.81164 0.6291 0.0
C1042 C 0.0849 0.79971 0.16223 0.0
C1043 C 0.17637 0.80441 0.16154 0.0
C1044 C 0.03473 0.79877 0.13237 0.0
C1045 C 0.074 0.80261 0.10073 0.0
H1046 H 0.05316 0.79592 0.18565 0.0
H1047 H 0.96479 0.7946 0.13423 0.0
S1048 S 0.30829 0.81805 0.08648 0.0
N1049 N 0.30254 0.8147 0.12746 0.0
N1050 N 0.20736 0.81297 0.07131 0.0
C1051 C 0.16409 0.80825 0.10002 0.0
C1052 C 0.2154 0.80917 0.13046 0.0
C1053 C 0.5885 0.93455 0.10829 0.0
C1054 C 0.68289 0.93262 0.10975 0.0
C1055 C 0.53681 0.9349 0.13786 0.0
C1056 C 0.57748 0.93325 0.17002 0.0
H1057 H 0.55482 0.93657 0.08437 0.0
H1058 H 0.46426 0.93692 0.13534 0.0
S1059 S 0.82137 0.92539 0.1869 0.0
N1060 N 0.81462 0.92715 0.14555 0.0
N1061 N 0.71665 0.92792 0.20106 0.0
C1062 C 0.67113 0.93029 0.17166 0.0
C1063 C 0.724 0.92995 0.14153 0.0
C1064 C 0.83398 0.55222 0.85259 0.0
C1065 C 0.927 0.55581 0.85378 0.0
C1066 C 0.78253 0.55159 0.88222 0.0
C1067 C 0.82202 0.55461 0.91417 0.0
H1068 H 0.80145 0.54921 0.82886 0.0
H1069 H 0.71124 0.54834 0.87993 0.0
S1070 S 0.06124 0.56672 0.93022 0.0
N1071 N 0.0555 0.56404 0.88905 0.0
N1072 N 0.95811 0.56275 0.94464 0.0
C1073 C 0.91403 0.55904 0.91549 0.0
C1074 C 0.96663 0.55967 0.88532 0.0
C1075 C 0.40672 0.68883 0.84984 0.0
C1076 C 0.31427 0.68483 0.85072 0.0
C1077 C 0.45764 0.6893 0.87959 0.0
C1078 C 0.41811 0.68569 0.91131 0.0
H1079 H 0.43883 0.69244 0.82638 0.0
H1080 H 0.52835 0.69299 0.87762 0.0
S1081 S 0.18121 0.67177 0.92595 0.0
N1082 N 0.18689 0.67522 0.885 0.0
N1083 N 0.28334 0.67613 0.94091 0.0
C1084 C 0.32703 0.68062 0.91215 0.0
C1085 C 0.27499 0.68017 0.88183 0.0
C1086 C 0.96508 0.69007 0.37942 0.0
C1087 C 0.92707 0.68603 0.41115 0.0
C1088 C 0.91451 0.68879 0.34966 0.0
C1089 C 0.82391 0.68348 0.35055 0.0
H1090 H 0.03424 0.69466 0.37745 0.0
H1091 H 0.94521 0.6927 0.32613 0.0
S1092 S 0.69571 0.66926 0.42611 0.0
N1093 N 0.79595 0.67499 0.44095 0.0
N1094 N 0.70023 0.67254 0.38508 0.0
C1095 C 0.78628 0.67859 0.38179 0.0
C1096 C 0.83792 0.67989 0.4121 0.0
C1097 C 0.33258 0.55403 0.3527 0.0
C1098 C 0.42753 0.55439 0.35452 0.0
C1099 C 0.28004 0.55421 0.38208 0.0
C1100 C 0.3204 0.55481 0.41442 0.0
H1101 H 0.29868 0.55291 0.32857 0.0
H1102 H 0.20686 0.5534 0.37927 0.0
S1103 S 0.5666 0.55844 0.43252 0.0
N1104 N 0.56027 0.5573 0.39108 0.0
N1105 N 0.46064 0.55745 0.44616 0.0
C1106 C 0.41506 0.55621 0.41649 0.0
C1107 C 0.4688 0.55603 0.38657 0.0
C1108 C 0.16114 0.43851 0.16207 0.0
C1109 C 0.07011 0.43354 0.16047 0.0
C1110 C 0.21351 0.43959 0.13272 0.0
C1111 C 0.17699 0.43564 0.10068 0.0
H1112 H 0.19093 0.44232 0.18583 0.0
H1113 H 0.28301 0.44392 0.13529 0.0
S1114 S 0.94482 0.41973 0.0839 0.0
N1115 N 0.94729 0.42303 0.12495 0.0
N1116 N 0.04652 0.42506 0.06985 0.0
C1117 C 0.08733 0.42982 0.09903 0.0
C1118 C 0.03379 0.42875 0.12893 0.0
C1119 C 0.60139 0.30357 0.15867 0.0
C1120 C 0.69628 0.30282 0.15681 0.0
C1121 C 0.54878 0.30396 0.12935 0.0
C1122 C 0.58892 0.30368 0.09698 0.0
H1123 H 0.56728 0.30331 0.18285 0.0
H1124 H 0.47549 0.3041 0.13224 0.0
S1125 S 0.83543 0.30386 0.07835 0.0
N1126 N 0.82934 0.30345 0.11986 0.0
N1127 N 0.72915 0.30405 0.06491 0.0
C1128 C 0.68375 0.30388 0.09471 0.0
C1129 C 0.73772 0.30346 0.1246 0.0
C1130 C 0.15606 0.30264 0.59841 0.0
C1131 C 0.06422 0.30715 0.59929 0.0
C1132 C 0.20676 0.3017 0.62816 0.0
C1133 C 0.16769 0.30531 0.65994 0.0
H1134 H 0.18788 0.29905 0.57487 0.0
H1135 H 0.27696 0.29769 0.62612 0.0
S1136 S 0.9324 0.32006 0.67499 0.0
N1137 N 0.93785 0.31696 0.63392 0.0
N1138 N 0.03393 0.31515 0.68981 0.0
C1139 C 0.07719 0.31072 0.6609 0.0
C1140 C 0.02534 0.31167 0.63058 0.0
C1141 C 0.52846 0.4385 0.62895 0.0
C1142 C 0.56997 0.4358 0.66066 0.0
C1143 C 0.57807 0.43763 0.59892 0.0
C1144 C 0.6712 0.43409 0.59945 0.0
H1145 H 0.45709 0.44177 0.62717 0.0
H1146 H 0.54419 0.44052 0.5754 0.0
S1147 S 0.81 0.42369 0.675 0.0
N1148 N 0.70782 0.42779 0.69019 0.0
N1149 N 0.80174 0.42606 0.63381 0.0
C1150 C 0.71265 0.43039 0.63072 0.0
C1151 C 0.66193 0.43127 0.66132 0.0
loop_
_geom_bond_atom_site_label_1
_geom_bond_atom_site_label_2
_geom_bond_distance
_geom_bond_site_symmetry_2
_ccdc_geom_bond_type
Co0 O1 2.216 . S
Co0 O2 2.091 1_455 S
Co0 O4 2.004 . S
Co0 O10 2.021 . S
Co0 O12 2.137 . S
Co0 O13 2.244 . S
O1 Co0 2.216 . S
O1 C8 1.247 1_455 S
O2 Co0 2.091 1_655 S
O2 C8 1.261 . S
C3 O12 1.247 . S
C3 O13 1.272 . S
O4 Co0 2.004 . S
O4 C9 1.259 . S
Co5 O6 2.061 . S
Co5 O11 2.052 . S
Co5 O13 2.135 . S
O6 Co5 2.061 . S
O6 C9 1.235 . S
C7 O10 1.238 . S
C7 O11 1.241 . S
C8 O1 1.247 1_655 S
C8 O2 1.261 . S
C9 O4 1.259 . S
C9 O6 1.235 . S
O10 Co0 2.021 . S
O10 C7 1.238 . S
O11 Co5 2.052 . S
O11 C7 1.241 . S
O12 Co0 2.137 . S
O12 C3 1.247 . S
O13 Co0 2.244 . S
O13 C3 1.272 . S
O13 Co5 2.135 . S
Co14 O15 2.216 . S
Co14 O16 2.091 . S
Co14 O18 2.004 . S
Co14 O24 2.021 . S
Co14 O26 2.137 . S
Co14 O27 2.244 . S
O15 Co14 2.216 . S
O15 C22 1.247 . S
O16 Co14 2.091 . S
O16 C22 1.261 . S
C17 O26 1.247 . S
C17 O27 1.272 . S
O18 Co14 2.004 . S
O18 C23 1.259 . S
Co19 O20 2.061 1_655 S
Co19 O25 2.052 1_655 S
Co19 O27 2.135 1_655 S
O20 Co19 2.061 1_455 S
O20 C23 1.235 . S
C21 O24 1.238 . S
C21 O25 1.241 . S
C22 O15 1.247 . S
C22 O16 1.261 . S
C23 O18 1.259 . S
C23 O20 1.235 . S
O24 Co14 2.021 . S
O24 C21 1.238 . S
O25 Co19 2.052 1_455 S
O25 C21 1.241 . S
O26 Co14 2.137 . S
O26 C17 1.247 . S
O27 Co14 2.244 . S
O27 C17 1.272 . S
O27 Co19 2.135 1_455 S
Co28 O29 2.216 . S
Co28 O30 2.091 1_455 S
Co28 O32 2.004 1_556 S
Co28 O38 2.021 . S
Co28 O40 2.137 . S
Co28 O41 2.244 . S
O29 Co28 2.216 . S
O29 C36 1.247 1_455 S
O30 Co28 2.091 1_655 S
O30 C36 1.261 . S
C31 O40 1.247 . S
C31 O41 1.272 . S
O32 Co28 2.004 1_554 S
O32 C37 1.259 . S
Co33 O34 2.061 . S
Co33 O39 2.041 1_554 S
Co33 O41 2.135 1_554 S
O34 Co33 2.061 . S
O34 C37 1.235 . S
C35 O38 1.238 . S
C35 O39 1.246 . S
C36 O29 1.247 1_655 S
C36 O30 1.261 . S
C37 O32 1.259 . S
C37 O34 1.235 . S
O38 Co28 2.021 . S
O38 C35 1.238 . S
O39 Co33 2.041 1_556 S
O39 C35 1.246 . S
O40 Co28 2.137 . S
O40 C31 1.247 . S
O41 Co28 2.244 . S
O41 C31 1.272 . S
O41 Co33 2.135 1_556 S
Co42 O43 2.216 . S
Co42 O44 2.091 . S
Co42 O46 2.004 1_556 S
Co42 O52 2.021 . S
Co42 O54 2.137 . S
Co42 O55 2.244 . S
O43 Co42 2.216 . S
O43 C50 1.247 . S
O44 Co42 2.091 . S
O44 C50 1.261 . S
C45 O54 1.247 . S
C45 O55 1.272 . S
O46 Co42 2.004 1_554 S
O46 C51 1.259 . S
Co47 O48 2.061 1_655 S
Co47 O53 2.041 1_654 S
Co47 O55 2.135 1_654 S
O48 Co47 2.061 1_455 S
O48 C51 1.235 . S
C49 O52 1.238 . S
C49 O53 1.246 . S
C50 O43 1.247 . S
C50 O44 1.261 . S
C51 O46 1.259 . S
C51 O48 1.235 . S
O52 Co42 2.021 . S
O52 C49 1.238 . S
O53 Co47 2.041 1_456 S
O53 C49 1.246 . S
O54 Co42 2.137 . S
O54 C45 1.247 . S
O55 Co42 2.244 . S
O55 C45 1.272 . S
O55 Co47 2.135 1_456 S
Co56 O57 2.216 . S
Co56 O58 2.091 1_655 S
Co56 O60 2.004 . S
Co56 O66 2.021 . S
Co56 O68 2.137 . S
Co56 O69 2.244 . S
O57 Co56 2.216 . S
O57 C64 1.247 1_655 S
O58 Co56 2.091 1_455 S
O58 C64 1.261 . S
C59 O68 1.247 . S
C59 O69 1.272 . S
O60 Co56 2.004 . S
O60 C65 1.259 . S
Co61 O62 2.061 . S
Co61 O67 2.052 . S
Co61 O69 2.135 . S
O62 Co61 2.061 . S
O62 C65 1.235 . S
C63 O66 1.238 . S
C63 O67 1.241 . S
C64 O57 1.247 1_455 S
C64 O58 1.261 . S
C65 O60 1.259 . S
C65 O62 1.235 . S
O66 Co56 2.021 . S
O66 C63 1.238 . S
O67 Co61 2.052 . S
O67 C63 1.241 . S
O68 Co56 2.137 . S
O68 C59 1.247 . S
O69 Co56 2.244 . S
O69 C59 1.272 . S
O69 Co61 2.135 . S
Co70 O71 2.216 . S
Co70 O72 2.091 . S
Co70 O74 2.004 . S
Co70 O80 2.021 . S
Co70 O82 2.137 . S
Co70 O83 2.244 . S
O71 Co70 2.216 . S
O71 C78 1.247 . S
O72 Co70 2.091 . S
O72 C78 1.261 . S
C73 O82 1.247 . S
C73 O83 1.272 . S
O74 Co70 2.004 . S
O74 C79 1.259 . S
Co75 O76 2.061 1_455 S
Co75 O81 2.052 1_455 S
Co75 O83 2.135 1_455 S
O76 Co75 2.061 1_655 S
O76 C79 1.235 . S
C77 O80 1.238 . S
C77 O81 1.241 . S
C78 O71 1.247 . S
C78 O72 1.261 . S
C79 O74 1.259 . S
C79 O76 1.235 . S
O80 Co70 2.021 . S
O80 C77 1.238 . S
O81 Co75 2.052 1_655 S
O81 C77 1.241 . S
O82 Co70 2.137 . S
O82 C73 1.247 . S
O83 Co70 2.244 . S
O83 C73 1.272 . S
O83 Co75 2.135 1_655 S
Co84 O85 2.216 . S
Co84 O86 2.091 1_655 S
Co84 O88 2.004 1_554 S
Co84 O94 2.021 . S
Co84 O96 2.137 . S
Co84 O97 2.244 . S
O85 Co84 2.216 . S
O85 C92 1.247 1_655 S
O86 Co84 2.091 1_455 S
O86 C92 1.261 . S
C87 O96 1.247 . S
C87 O97 1.272 . S
O88 Co84 2.004 1_556 S
O88 C93 1.259 . S
Co89 O90 2.061 . S
Co89 O95 2.041 1_556 S
Co89 O97 2.135 1_556 S
O90 Co89 2.061 . S
O90 C93 1.235 . S
C91 O94 1.238 . S
C91 O95 1.246 . S
C92 O85 1.247 1_455 S
C92 O86 1.261 . S
C93 O88 1.259 . S
C93 O90 1.235 . S
O94 Co84 2.021 . S
O94 C91 1.238 . S
O95 Co89 2.041 1_554 S
O95 C91 1.246 . S
O96 Co84 2.137 . S
O96 C87 1.247 . S
O97 Co84 2.244 . S
O97 C87 1.272 . S
O97 Co89 2.135 1_554 S
Co98 O99 2.216 . S
Co98 O100 2.091 . S
Co98 O102 2.004 1_554 S
Co98 O108 2.021 . S
Co98 O110 2.137 . S
Co98 O111 2.244 . S
O99 Co98 2.216 . S
O99 C106 1.247 . S
O100 Co98 2.091 . S
O100 C106 1.261 . S
C101 O110 1.247 . S
C101 O111 1.272 . S
O102 Co98 2.004 1_556 S
O102 C107 1.259 . S
Co103 O104 2.061 1_455 S
Co103 O109 2.041 1_456 S
Co103 O111 2.135 1_456 S
O104 Co103 2.061 1_655 S
O104 C107 1.235 . S
C105 O108 1.238 . S
C105 O109 1.246 . S
C106 O99 1.247 . S
C106 O100 1.261 . S
C107 O102 1.259 . S
C107 O104 1.235 . S
O108 Co98 2.021 . S
O108 C105 1.238 . S
O109 Co103 2.041 1_654 S
O109 C105 1.246 . S
O110 Co98 2.137 . S
O110 C101 1.247 . S
O111 Co98 2.244 . S
O111 C101 1.272 . S
O111 Co103 2.135 1_654 S
Co112 O113 2.216 . S
Co112 O114 2.091 1_455 S
Co112 O116 2.004 . S
Co112 O122 2.021 . S
Co112 O124 2.137 . S
Co112 O125 2.244 . S
O113 Co112 2.216 . S
O113 C120 1.247 1_455 S
O114 Co112 2.091 1_655 S
O114 C120 1.261 . S
C115 O124 1.247 . S
C115 O125 1.272 . S
O116 Co112 2.004 . S
O116 C121 1.259 . S
Co117 O118 2.061 . S
Co117 O123 2.052 . S
Co117 O125 2.135 . S
O118 Co117 2.061 . S
O118 C121 1.235 . S
C119 O122 1.238 . S
C119 O123 1.241 . S
C120 O113 1.247 1_655 S
C120 O114 1.261 . S
C121 O116 1.259 . S
C121 O118 1.235 . S
O122 Co112 2.021 . S
O122 C119 1.238 . S
O123 Co117 2.052 . S
O123 C119 1.241 . S
O124 Co112 2.137 . S
O124 C115 1.247 . S
O125 Co112 2.244 . S
O125 C115 1.272 . S
O125 Co117 2.135 . S
Co126 O127 2.216 . S
Co126 O128 2.091 . S
Co126 O130 2.004 . S
Co126 O136 2.021 . S
Co126 O138 2.137 . S
Co126 O139 2.244 . S
O127 Co126 2.216 . S
O127 C134 1.247 . S
O128 Co126 2.091 . S
O128 C134 1.261 . S
C129 O138 1.247 . S
C129 O139 1.272 . S
O130 Co126 2.004 . S
O130 C135 1.259 . S
Co131 O132 2.061 1_655 S
Co131 O137 2.052 1_655 S
Co131 O139 2.135 1_655 S
O132 Co131 2.061 1_455 S
O132 C135 1.235 . S
C133 O136 1.238 . S
C133 O137 1.241 . S
C134 O127 1.247 . S
C134 O128 1.261 . S
C135 O130 1.259 . S
C135 O132 1.235 . S
O136 Co126 2.021 . S
O136 C133 1.238 . S
O137 Co131 2.052 1_455 S
O137 C133 1.241 . S
O138 Co126 2.137 . S
O138 C129 1.247 . S
O139 Co126 2.244 . S
O139 C129 1.272 . S
O139 Co131 2.135 1_455 S
Co140 O141 2.216 . S
Co140 O142 2.091 1_455 S
Co140 O144 2.004 . S
Co140 O150 2.021 . S
Co140 O152 2.137 . S
Co140 O153 2.244 . S
O141 Co140 2.216 . S
O141 C148 1.247 1_455 S
O142 Co140 2.091 1_655 S
O142 C148 1.261 . S
C143 O152 1.247 . S
C143 O153 1.272 . S
O144 Co140 2.004 . S
O144 C149 1.259 . S
Co145 O146 2.061 . S
Co145 O151 2.052 . S
Co145 O153 2.135 . S
O146 Co145 2.061 . S
O146 C149 1.235 . S
C147 O150 1.238 . S
C147 O151 1.241 . S
C148 O141 1.247 1_655 S
C148 O142 1.261 . S
C149 O144 1.259 . S
C149 O146 1.235 . S
O150 Co140 2.021 . S
O150 C147 1.238 . S
O151 Co145 2.052 . S
O151 C147 1.241 . S
O152 Co140 2.137 . S
O152 C143 1.247 . S
O153 Co140 2.244 . S
O153 C143 1.272 . S
O153 Co145 2.135 . S
Co154 O155 2.216 . S
Co154 O156 2.091 . S
Co154 O158 2.004 . S
Co154 O164 2.021 . S
Co154 O166 2.137 . S
Co154 O167 2.244 . S
O155 Co154 2.216 . S
O155 C162 1.247 . S
O156 Co154 2.091 . S
O156 C162 1.261 . S
C157 O166 1.247 . S
C157 O167 1.272 . S
O158 Co154 2.004 . S
O158 C163 1.259 . S
Co159 O160 2.061 1_655 S
Co159 O165 2.052 1_655 S
Co159 O167 2.135 1_655 S
O160 Co159 2.061 1_455 S
O160 C163 1.235 . S
C161 O164 1.238 . S
C161 O165 1.241 . S
C162 O155 1.247 . S
C162 O156 1.261 . S
C163 O158 1.259 . S
C163 O160 1.235 . S
O164 Co154 2.021 . S
O164 C161 1.238 . S
O165 Co159 2.052 1_455 S
O165 C161 1.241 . S
O166 Co154 2.137 . S
O166 C157 1.247 . S
O167 Co154 2.244 . S
O167 C157 1.272 . S
O167 Co159 2.135 1_455 S
Co168 O169 2.216 . S
Co168 O170 2.091 1_655 S
Co168 O172 2.004 . S
Co168 O178 2.021 . S
Co168 O180 2.137 . S
Co168 O181 2.244 . S
O169 Co168 2.216 . S
O169 C176 1.247 1_655 S
O170 Co168 2.091 1_455 S
O170 C176 1.261 . S
C171 O180 1.247 . S
C171 O181 1.272 . S
O172 Co168 2.004 . S
O172 C177 1.259 . S
Co173 O174 2.061 . S
Co173 O179 2.052 . S
Co173 O181 2.135 . S
O174 Co173 2.061 . S
O174 C177 1.235 . S
C175 O178 1.238 . S
C175 O179 1.241 . S
C176 O169 1.247 1_455 S
C176 O170 1.261 . S
C177 O172 1.259 . S
C177 O174 1.235 . S
O178 Co168 2.021 . S
O178 C175 1.238 . S
O179 Co173 2.052 . S
O179 C175 1.241 . S
O180 Co168 2.137 . S
O180 C171 1.247 . S
O181 Co168 2.244 . S
O181 C171 1.272 . S
O181 Co173 2.135 . S
Co182 O183 2.216 . S
Co182 O184 2.091 . S
Co182 O186 2.004 . S
Co182 O192 2.021 . S
Co182 O194 2.137 . S
Co182 O195 2.244 . S
O183 Co182 2.216 . S
O183 C190 1.247 . S
O184 Co182 2.091 . S
O184 C190 1.261 . S
C185 O194 1.247 . S
C185 O195 1.272 . S
O186 Co182 2.004 . S
O186 C191 1.259 . S
Co187 O188 2.061 1_455 S
Co187 O193 2.052 1_455 S
Co187 O195 2.135 1_455 S
O188 Co187 2.061 1_655 S
O188 C191 1.235 . S
C189 O192 1.238 . S
C189 O193 1.241 . S
C190 O183 1.247 . S
C190 O184 1.261 . S
C191 O186 1.259 . S
C191 O188 1.235 . S
O192 Co182 2.021 . S
O192 C189 1.238 . S
O193 Co187 2.052 1_655 S
O193 C189 1.241 . S
O194 Co182 2.137 . S
O194 C185 1.247 . S
O195 Co182 2.244 . S
O195 C185 1.272 . S
O195 Co187 2.135 1_655 S
Co196 O197 2.216 . S
Co196 O198 2.091 1_655 S
Co196 O200 2.004 . S
Co196 O206 2.021 . S
Co196 O208 2.137 . S
Co196 O209 2.244 . S
O197 Co196 2.216 . S
O197 C204 1.247 1_655 S
O198 Co196 2.091 1_455 S
O198 C204 1.261 . S
C199 O208 1.247 . S
C199 O209 1.272 . S
O200 Co196 2.004 . S
O200 C205 1.259 . S
Co201 O202 2.061 . S
Co201 O207 2.052 . S
Co201 O209 2.135 . S
O202 Co201 2.061 . S
O202 C205 1.235 . S
C203 O206 1.238 . S
C203 O207 1.241 . S
C204 O197 1.247 1_455 S
C204 O198 1.261 . S
C205 O200 1.259 . S
C205 O202 1.235 . S
O206 Co196 2.021 . S
O206 C203 1.238 . S
O207 Co201 2.052 . S
O207 C203 1.241 . S
O208 Co196 2.137 . S
O208 C199 1.247 . S
O209 Co196 2.244 . S
O209 C199 1.272 . S
O209 Co201 2.135 . S
Co210 O211 2.216 . S
Co210 O212 2.091 . S
Co210 O214 2.004 . S
Co210 O220 2.021 . S
Co210 O222 2.137 . S
Co210 O223 2.244 . S
O211 Co210 2.216 . S
O211 C218 1.247 . S
O212 Co210 2.091 . S
O212 C218 1.261 . S
C213 O222 1.247 . S
C213 O223 1.272 . S
O214 Co210 2.004 . S
O214 C219 1.259 . S
Co215 O216 2.061 1_455 S
Co215 O221 2.052 1_455 S
Co215 O223 2.135 1_455 S
O216 Co215 2.061 1_655 S
O216 C219 1.235 . S
C217 O220 1.238 . S
C217 O221 1.241 . S
C218 O211 1.247 . S
C218 O212 1.261 . S
C219 O214 1.259 . S
C219 O216 1.235 . S
O220 Co210 2.021 . S
O220 C217 1.238 . S
O221 Co215 2.052 1_655 S
O221 C217 1.241 . S
O222 Co210 2.137 . S
O222 C213 1.247 . S
O223 Co210 2.244 . S
O223 C213 1.272 . S
O223 Co215 2.135 1_655 S
Co224 O225 2.216 . S
Co224 O226 2.091 . S
Co224 O228 2.004 . S
Co224 O234 2.021 . S
Co224 O236 2.137 . S
Co224 O237 2.244 . S
O225 Co224 2.216 . S
O225 C232 1.247 . S
O226 Co224 2.091 . S
O226 C232 1.261 . S
C227 O236 1.247 . S
C227 O237 1.272 . S
O228 Co224 2.004 . S
O228 C233 1.259 . S
Co229 O230 2.061 . S
Co229 O235 2.052 . S
Co229 O237 2.135 . S
O230 Co229 2.061 . S
O230 C233 1.235 . S
C231 O234 1.238 . S
C231 O235 1.241 . S
C232 O225 1.247 . S
C232 O226 1.261 . S
C233 O228 1.259 . S
C233 O230 1.235 . S
O234 Co224 2.021 . S
O234 C231 1.238 . S
O235 Co229 2.052 . S
O235 C231 1.241 . S
O236 Co224 2.137 . S
O236 C227 1.247 . S
O237 Co224 2.244 . S
O237 C227 1.272 . S
O237 Co229 2.135 . S
Co238 O239 2.216 . S
Co238 O240 2.091 . S
Co238 O242 2.004 . S
Co238 O248 2.021 . S
Co238 O250 2.137 . S
Co238 O251 2.244 . S
O239 Co238 2.216 . S
O239 C246 1.247 . S
O240 Co238 2.091 . S
O240 C246 1.261 . S
C241 O250 1.247 . S
C241 O251 1.272 . S
O242 Co238 2.004 . S
O242 C247 1.259 . S
Co243 O244 2.061 . S
Co243 O249 2.052 . S
Co243 O251 2.135 . S
O244 Co243 2.061 . S
O244 C247 1.235 . S
C245 O248 1.238 . S
C245 O249 1.241 . S
C246 O239 1.247 . S
C246 O240 1.261 . S
C247 O242 1.259 . S
C247 O244 1.235 . S
O248 Co238 2.021 . S
O248 C245 1.238 . S
O249 Co243 2.052 . S
O249 C245 1.241 . S
O250 Co238 2.137 . S
O250 C241 1.247 . S
O251 Co238 2.244 . S
O251 C241 1.272 . S
O251 Co243 2.135 . S
Co252 O253 2.216 . S
Co252 O254 2.091 . S
Co252 O256 2.004 . S
Co252 O262 2.021 . S
Co252 O264 2.137 . S
Co252 O265 2.244 . S
O253 Co252 2.216 . S
O253 C260 1.247 . S
O254 Co252 2.091 . S
O254 C260 1.261 . S
C255 O264 1.247 . S
C255 O265 1.272 . S
O256 Co252 2.004 . S
O256 C261 1.259 . S
Co257 O258 2.061 . S
Co257 O263 2.052 . S
Co257 O265 2.135 . S
O258 Co257 2.061 . S
O258 C261 1.235 . S
C259 O262 1.238 . S
C259 O263 1.241 . S
C260 O253 1.247 . S
C260 O254 1.261 . S
C261 O256 1.259 . S
C261 O258 1.235 . S
O262 Co252 2.021 . S
O262 C259 1.238 . S
O263 Co257 2.052 . S
O263 C259 1.241 . S
O264 Co252 2.137 . S
O264 C255 1.247 . S
O265 Co252 2.244 . S
O265 C255 1.272 . S
O265 Co257 2.135 . S
Co266 O267 2.216 . S
Co266 O268 2.091 . S
Co266 O270 2.004 . S
Co266 O276 2.021 . S
Co266 O278 2.137 . S
Co266 O279 2.244 . S
O267 Co266 2.216 . S
O267 C274 1.247 . S
O268 Co266 2.091 . S
O268 C274 1.261 . S
C269 O278 1.247 . S
C269 O279 1.272 . S
O270 Co266 2.004 . S
O270 C275 1.259 . S
Co271 O272 2.061 . S
Co271 O277 2.052 . S
Co271 O279 2.135 . S
O272 Co271 2.061 . S
O272 C275 1.235 . S
C273 O276 1.238 . S
C273 O277 1.241 . S
C274 O267 1.247 . S
C274 O268 1.261 . S
C275 O270 1.259 . S
C275 O272 1.235 . S
O276 Co266 2.021 . S
O276 C273 1.238 . S
O277 Co271 2.052 . S
O277 C273 1.241 . S
O278 Co266 2.137 . S
O278 C269 1.247 . S
O279 Co266 2.244 . S
O279 C269 1.272 . S
O279 Co271 2.135 . S
Co280 O281 2.216 . S
Co280 O282 2.091 . S
Co280 O284 2.004 . S
Co280 O290 2.021 . S
Co280 O292 2.137 . S
Co280 O293 2.244 . S
O281 Co280 2.216 . S
O281 C288 1.247 . S
O282 Co280 2.091 . S
O282 C288 1.261 . S
C283 O292 1.247 . S
C283 O293 1.272 . S
O284 Co280 2.004 . S
O284 C289 1.259 . S
Co285 O286 2.061 . S
Co285 O291 2.052 . S
Co285 O293 2.135 . S
O286 Co285 2.061 . S
O286 C289 1.235 . S
C287 O290 1.238 . S
C287 O291 1.241 . S
C288 O281 1.247 . S
C288 O282 1.261 . S
C289 O284 1.259 . S
C289 O286 1.235 . S
O290 Co280 2.021 . S
O290 C287 1.238 . S
O291 Co285 2.052 . S
O291 C287 1.241 . S
O292 Co280 2.137 . S
O292 C283 1.247 . S
O293 Co280 2.244 . S
O293 C283 1.272 . S
O293 Co285 2.135 . S
Co294 O295 2.216 . S
Co294 O296 2.091 . S
Co294 O298 2.004 . S
Co294 O304 2.021 . S
Co294 O306 2.137 . S
Co294 O307 2.244 . S
O295 Co294 2.216 . S
O295 C302 1.247 . S
O296 Co294 2.091 . S
O296 C302 1.261 . S
C297 O306 1.247 . S
C297 O307 1.272 . S
O298 Co294 2.004 . S
O298 C303 1.259 . S
Co299 O300 2.061 . S
Co299 O305 2.052 . S
Co299 O307 2.135 . S
O300 Co299 2.061 . S
O300 C303 1.235 . S
C301 O304 1.238 . S
C301 O305 1.241 . S
C302 O295 1.247 . S
C302 O296 1.261 . S
C303 O298 1.259 . S
C303 O300 1.235 . S
O304 Co294 2.021 . S
O304 C301 1.238 . S
O305 Co299 2.052 . S
O305 C301 1.241 . S
O306 Co294 2.137 . S
O306 C297 1.247 . S
O307 Co294 2.244 . S
O307 C297 1.272 . S
O307 Co299 2.135 . S
Co308 O309 2.216 . S
Co308 O310 2.091 . S
Co308 O312 2.004 . S
Co308 O318 2.021 . S
Co308 O320 2.137 . S
Co308 O321 2.244 . S
O309 Co308 2.216 . S
O309 C316 1.247 . S
O310 Co308 2.091 . S
O310 C316 1.261 . S
C311 O320 1.247 . S
C311 O321 1.272 . S
O312 Co308 2.004 . S
O312 C317 1.259 . S
Co313 O314 2.061 . S
Co313 O319 2.052 . S
Co313 O321 2.135 . S
O314 Co313 2.061 . S
O314 C317 1.235 . S
C315 O318 1.238 . S
C315 O319 1.241 . S
C316 O309 1.247 . S
C316 O310 1.261 . S
C317 O312 1.259 . S
C317 O314 1.235 . S
O318 Co308 2.021 . S
O318 C315 1.238 . S
O319 Co313 2.052 . S
O319 C315 1.241 . S
O320 Co308 2.137 . S
O320 C311 1.247 . S
O321 Co308 2.244 . S
O321 C311 1.272 . S
O321 Co313 2.135 . S
Co322 O323 2.216 . S
Co322 O324 2.091 . S
Co322 O326 2.004 . S
Co322 O332 2.021 . S
Co322 O334 2.137 . S
Co322 O335 2.244 . S
O323 Co322 2.216 . S
O323 C330 1.247 . S
O324 Co322 2.091 . S
O324 C330 1.261 . S
C325 O334 1.247 . S
C325 O335 1.272 . S
O326 Co322 2.004 . S
O326 C331 1.259 . S
Co327 O328 2.061 . S
Co327 O333 2.052 . S
Co327 O335 2.135 . S
O328 Co327 2.061 . S
O328 C331 1.235 . S
C329 O332 1.238 . S
C329 O333 1.241 . S
C330 O323 1.247 . S
C330 O324 1.261 . S
C331 O326 1.259 . S
C331 O328 1.235 . S
O332 Co322 2.021 . S
O332 C329 1.238 . S
O333 Co327 2.052 . S
O333 C329 1.241 . S
O334 Co322 2.137 . S
O334 C325 1.247 . S
O335 Co322 2.244 . S
O335 C325 1.272 . S
O335 Co327 2.135 . S
Co336 O337 2.216 . S
Co336 O338 2.091 . S
Co336 O340 2.004 . S
Co336 O346 2.021 . S
Co336 O348 2.137 . S
Co336 O349 2.244 . S
O337 Co336 2.216 . S
O337 C344 1.247 . S
O338 Co336 2.091 . S
O338 C344 1.261 . S
C339 O348 1.247 . S
C339 O349 1.272 . S
O340 Co336 2.004 . S
O340 C345 1.259 . S
Co341 O342 2.061 . S
Co341 O347 2.052 . S
Co341 O349 2.135 . S
O342 Co341 2.061 . S
O342 C345 1.235 . S
C343 O346 1.238 . S
C343 O347 1.241 . S
C344 O337 1.247 . S
C344 O338 1.261 . S
C345 O340 1.259 . S
C345 O342 1.235 . S
O346 Co336 2.021 . S
O346 C343 1.238 . S
O347 Co341 2.052 . S
O347 C343 1.241 . S
O348 Co336 2.137 . S
O348 C339 1.247 . S
O349 Co336 2.244 . S
O349 C339 1.272 . S
O349 Co341 2.135 . S
Co350 O351 2.216 . S
Co350 O352 2.091 . S
Co350 O354 2.004 . S
Co350 O360 2.021 . S
Co350 O362 2.137 . S
Co350 O363 2.244 . S
O351 Co350 2.216 . S
O351 C358 1.247 . S
O352 Co350 2.091 . S
O352 C358 1.261 . S
C353 O362 1.247 . S
C353 O363 1.272 . S
O354 Co350 2.004 . S
O354 C359 1.259 . S
Co355 O356 2.061 . S
Co355 O361 2.052 . S
Co355 O363 2.135 . S
O356 Co355 2.061 . S
O356 C359 1.235 . S
C357 O360 1.238 . S
C357 O361 1.241 . S
C358 O351 1.247 . S
C358 O352 1.261 . S
C359 O354 1.259 . S
C359 O356 1.235 . S
O360 Co350 2.021 . S
O360 C357 1.238 . S
O361 Co355 2.052 . S
O361 C357 1.241 . S
O362 Co350 2.137 . S
O362 C353 1.247 . S
O363 Co350 2.244 . S
O363 C353 1.272 . S
O363 Co355 2.135 . S
Co364 O365 2.216 . S
Co364 O366 2.091 . S
Co364 O368 2.004 1_556 S
Co364 O374 2.021 . S
Co364 O376 2.137 . S
Co364 O377 2.244 . S
O365 Co364 2.216 . S
O365 C372 1.247 . S
O366 Co364 2.091 . S
O366 C372 1.261 . S
C367 O376 1.247 . S
C367 O377 1.272 . S
O368 Co364 2.004 1_554 S
O368 C373 1.259 . S
Co369 O370 2.061 . S
Co369 O375 2.041 1_554 S
Co369 O377 2.135 1_554 S
O370 Co369 2.061 . S
O370 C373 1.235 . S
C371 O374 1.238 . S
C371 O375 1.246 . S
C372 O365 1.247 . S
C372 O366 1.261 . S
C373 O368 1.259 . S
C373 O370 1.235 . S
O374 Co364 2.021 . S
O374 C371 1.238 . S
O375 Co369 2.041 1_556 S
O375 C371 1.246 . S
O376 Co364 2.137 . S
O376 C367 1.247 . S
O377 Co364 2.244 . S
O377 C367 1.272 . S
O377 Co369 2.135 1_556 S
Co378 O379 2.216 . S
Co378 O380 2.091 . S
Co378 O382 2.004 1_556 S
Co378 O388 2.021 . S
Co378 O390 2.137 . S
Co378 O391 2.244 . S
O379 Co378 2.216 . S
O379 C386 1.247 . S
O380 Co378 2.091 . S
O380 C386 1.261 . S
C381 O390 1.247 . S
C381 O391 1.272 . S
O382 Co378 2.004 1_554 S
O382 C387 1.259 . S
Co383 O384 2.061 . S
Co383 O389 2.041 1_554 S
Co383 O391 2.135 1_554 S
O384 Co383 2.061 . S
O384 C387 1.235 . S
C385 O388 1.238 . S
C385 O389 1.246 . S
C386 O379 1.247 . S
C386 O380 1.261 . S
C387 O382 1.259 . S
C387 O384 1.235 . S
O388 Co378 2.021 . S
O388 C385 1.238 . S
O389 Co383 2.041 1_556 S
O389 C385 1.246 . S
O390 Co378 2.137 . S
O390 C381 1.247 . S
O391 Co378 2.244 . S
O391 C381 1.272 . S
O391 Co383 2.135 1_556 S
Co392 O393 2.216 . S
Co392 O394 2.091 . S
Co392 O396 2.004 . S
Co392 O402 2.021 . S
Co392 O404 2.137 . S
Co392 O405 2.244 . S
O393 Co392 2.216 . S
O393 C400 1.247 . S
O394 Co392 2.091 . S
O394 C400 1.261 . S
C395 O404 1.247 . S
C395 O405 1.272 . S
O396 Co392 2.004 . S
O396 C401 1.259 . S
Co397 O398 2.061 . S
Co397 O403 2.052 . S
Co397 O405 2.135 . S
O398 Co397 2.061 . S
O398 C401 1.235 . S
C399 O402 1.238 . S
C399 O403 1.241 . S
C400 O393 1.247 . S
C400 O394 1.261 . S
C401 O396 1.259 . S
C401 O398 1.235 . S
O402 Co392 2.021 . S
O402 C399 1.238 . S
O403 Co397 2.052 . S
O403 C399 1.241 . S
O404 Co392 2.137 . S
O404 C395 1.247 . S
O405 Co392 2.244 . S
O405 C395 1.272 . S
O405 Co397 2.135 . S
Co406 O407 2.216 . S
Co406 O408 2.091 . S
Co406 O410 2.004 . S
Co406 O416 2.021 . S
Co406 O418 2.137 . S
Co406 O419 2.244 . S
O407 Co406 2.216 . S
O407 C414 1.247 . S
O408 Co406 2.091 . S
O408 C414 1.261 . S
C409 O418 1.247 . S
C409 O419 1.272 . S
O410 Co406 2.004 . S
O410 C415 1.259 . S
Co411 O412 2.061 . S
Co411 O417 2.052 . S
Co411 O419 2.135 . S
O412 Co411 2.061 . S
O412 C415 1.235 . S
C413 O416 1.238 . S
C413 O417 1.241 . S
C414 O407 1.247 . S
C414 O408 1.261 . S
C415 O410 1.259 . S
C415 O412 1.235 . S
O416 Co406 2.021 . S
O416 C413 1.238 . S
O417 Co411 2.052 . S
O417 C413 1.241 . S
O418 Co406 2.137 . S
O418 C409 1.247 . S
O419 Co406 2.244 . S
O419 C409 1.272 . S
O419 Co411 2.135 . S
Co420 O421 2.216 . S
Co420 O422 2.091 . S
Co420 O424 2.004 1_554 S
Co420 O430 2.021 . S
Co420 O432 2.137 . S
Co420 O433 2.244 . S
O421 Co420 2.216 . S
O421 C428 1.247 . S
O422 Co420 2.091 . S
O422 C428 1.261 . S
C423 O432 1.247 . S
C423 O433 1.272 . S
O424 Co420 2.004 1_556 S
O424 C429 1.259 . S
Co425 O426 2.061 . S
Co425 O431 2.041 1_556 S
Co425 O433 2.135 1_556 S
O426 Co425 2.061 . S
O426 C429 1.235 . S
C427 O430 1.238 . S
C427 O431 1.246 . S
C428 O421 1.247 . S
C428 O422 1.261 . S
C429 O424 1.259 . S
C429 O426 1.235 . S
O430 Co420 2.021 . S
O430 C427 1.238 . S
O431 Co425 2.041 1_554 S
O431 C427 1.246 . S
O432 Co420 2.137 . S
O432 C423 1.247 . S
O433 Co420 2.244 . S
O433 C423 1.272 . S
O433 Co425 2.135 1_554 S
Co434 O435 2.216 . S
Co434 O436 2.091 . S
Co434 O438 2.004 1_554 S
Co434 O444 2.021 . S
Co434 O446 2.137 . S
Co434 O447 2.244 . S
O435 Co434 2.216 . S
O435 C442 1.247 . S
O436 Co434 2.091 . S
O436 C442 1.261 . S
C437 O446 1.247 . S
C437 O447 1.272 . S
O438 Co434 2.004 1_556 S
O438 C443 1.259 . S
Co439 O440 2.061 . S
Co439 O445 2.041 1_556 S
Co439 O447 2.135 1_556 S
O440 Co439 2.061 . S
O440 C443 1.235 . S
C441 O444 1.238 . S
C441 O445 1.246 . S
C442 O435 1.247 . S
C442 O436 1.261 . S
C443 O438 1.259 . S
C443 O440 1.235 . S
O444 Co434 2.021 . S
O444 C441 1.238 . S
O445 Co439 2.041 1_554 S
O445 C441 1.246 . S
O446 Co434 2.137 . S
O446 C437 1.247 . S
O447 Co434 2.244 . S
O447 C437 1.272 . S
O447 Co439 2.135 1_554 S
C448 C449 1.369 . S
C448 C450 1.419 . S
C448 H452 0.930 . S
C449 C448 1.369 . S
C449 C458 1.429 . S
C450 C448 1.419 . S
C450 C451 1.363 . S
C450 H453 0.929 1_455 S
C451 C450 1.363 . S
C451 C457 1.428 . S
H452 C448 0.930 . S
H453 C450 0.929 1_655 S
S454 N455 1.613 . S
S454 N456 1.610 . S
N455 S454 1.613 . S
N455 C458 1.350 . S
N456 S454 1.610 . S
N456 C457 1.351 . S
C457 C451 1.428 . S
C457 N456 1.351 . S
C457 C458 1.434 . S
C458 C449 1.429 . S
C458 N455 1.350 . S
C458 C457 1.434 . S
C459 C460 1.369 . S
C459 C461 1.419 . S
C459 H463 0.930 . S
C460 C459 1.369 . S
C460 C469 1.429 . S
C461 C459 1.419 . S
C461 C462 1.363 . S
C461 H464 0.929 . S
C462 C461 1.363 . S
C462 C468 1.428 . S
H463 C459 0.930 . S
H464 C461 0.929 . S
S465 N466 1.613 . S
S465 N467 1.610 1_655 S
N466 S465 1.613 . S
N466 C469 1.350 1_655 S
N467 S465 1.610 1_455 S
N467 C468 1.351 . S
C468 C462 1.428 . S
C468 N467 1.351 . S
C468 C469 1.434 . S
C469 C460 1.429 . S
C469 N466 1.350 1_455 S
C469 C468 1.434 . S
C470 C471 1.369 . S
C470 C472 1.419 . S
C470 H474 0.930 . S
C471 C470 1.369 . S
C471 C480 1.429 . S
C472 C470 1.419 . S
C472 C473 1.363 . S
C472 H475 0.929 . S
C473 C472 1.363 . S
C473 C479 1.428 . S
H474 C470 0.930 . S
H475 C472 0.929 . S
S476 N477 1.613 . S
S476 N478 1.610 . S
N477 S476 1.613 . S
N477 C480 1.350 . S
N478 S476 1.610 . S
N478 C479 1.351 . S
C479 C473 1.428 . S
C479 N478 1.351 . S
C479 C480 1.434 . S
C480 C471 1.429 . S
C480 N477 1.350 . S
C480 C479 1.434 . S
C481 C482 1.369 . S
C481 C483 1.419 . S
C481 H485 0.930 . S
C482 C481 1.369 . S
C482 C491 1.429 . S
C483 C481 1.419 . S
C483 C484 1.363 . S
C483 H486 0.929 . S
C484 C483 1.363 . S
C484 C490 1.428 . S
H485 C481 0.930 . S
H486 C483 0.929 . S
S487 N488 1.613 . S
S487 N489 1.610 . S
N488 S487 1.613 . S
N488 C491 1.350 . S
N489 S487 1.610 . S
N489 C490 1.351 . S
C490 C484 1.428 . S
C490 N489 1.351 . S
C490 C491 1.434 . S
C491 C482 1.429 . S
C491 N488 1.350 . S
C491 C490 1.434 . S
C492 C493 1.369 . S
C492 C494 1.419 . S
C492 H496 0.930 . S
C493 C492 1.369 . S
C493 C502 1.429 . S
C494 C492 1.419 . S
C494 C495 1.363 . S
C494 H497 0.929 . S
C495 C494 1.363 . S
C495 C501 1.428 . S
H496 C492 0.930 . S
H497 C494 0.929 . S
S498 N499 1.613 . S
S498 N500 1.610 . S
N499 S498 1.613 . S
N499 C502 1.350 . S
N500 S498 1.610 . S
N500 C501 1.351 . S
C501 C495 1.428 . S
C501 N500 1.351 . S
C501 C502 1.434 . S
C502 C493 1.429 . S
C502 N499 1.350 . S
C502 C501 1.434 . S
C503 C504 1.369 . S
C503 C505 1.419 . S
C503 H507 0.930 . S
C504 C503 1.369 . S
C504 C513 1.429 . S
C505 C503 1.419 . S
C505 C506 1.363 . S
C505 H508 0.929 . S
C506 C505 1.363 . S
C506 C512 1.428 . S
H507 C503 0.930 . S
H508 C505 0.929 . S
S509 N510 1.613 . S
S509 N511 1.610 . S
N510 S509 1.613 . S
N510 C513 1.350 . S
N511 S509 1.610 . S
N511 C512 1.351 . S
C512 C506 1.428 . S
C512 N511 1.351 . S
C512 C513 1.434 . S
C513 C504 1.429 . S
C513 N510 1.350 . S
C513 C512 1.434 . S
C514 C515 1.369 . S
C514 C516 1.419 . S
C514 H518 0.930 . S
C515 C514 1.369 . S
C515 C524 1.429 . S
C516 C514 1.419 . S
C516 C517 1.363 . S
C516 H519 0.929 1_655 S
C517 C516 1.363 . S
C517 C523 1.428 . S
H518 C514 0.930 . S
H519 C516 0.929 1_455 S
S520 N521 1.613 . S
S520 N522 1.610 . S
N521 S520 1.613 . S
N521 C524 1.350 . S
N522 S520 1.610 . S
N522 C523 1.351 . S
C523 C517 1.428 . S
C523 N522 1.351 . S
C523 C524 1.434 . S
C524 C515 1.429 . S
C524 N521 1.350 . S
C524 C523 1.434 . S
C525 C526 1.369 . S
C525 C527 1.419 . S
C525 H529 0.930 . S
C526 C525 1.369 . S
C526 C535 1.429 . S
C527 C525 1.419 . S
C527 C528 1.363 . S
C527 H530 0.939 . S
C528 C527 1.363 . S
C528 C534 1.428 . S
H529 C525 0.930 . S
H530 C527 0.939 . S
S531 N532 1.613 . S
S531 N533 1.610 . S
N532 S531 1.613 . S
N532 C535 1.350 . S
N533 S531 1.610 . S
N533 C534 1.351 . S
C534 C528 1.428 . S
C534 N533 1.351 . S
C534 C535 1.434 . S
C535 C526 1.429 . S
C535 N532 1.350 . S
C535 C534 1.434 . S
C536 C537 1.369 . S
C536 C538 1.419 . S
C536 H540 0.930 . S
C537 C536 1.369 . S
C537 C546 1.429 . S
C538 C536 1.419 . S
C538 C539 1.363 . S
C538 H541 0.929 . S
C539 C538 1.363 . S
C539 C545 1.428 . S
H540 C536 0.930 . S
H541 C538 0.929 . S
S542 N543 1.613 . S
S542 N544 1.610 . S
N543 S542 1.613 . S
N543 C546 1.350 . S
N544 S542 1.610 . S
N544 C545 1.351 . S
C545 C539 1.428 . S
C545 N544 1.351 . S
C545 C546 1.434 . S
C546 C537 1.429 . S
C546 N543 1.350 . S
C546 C545 1.434 . S
C547 C548 1.369 . S
C547 C549 1.419 . S
C547 H551 0.930 . S
C548 C547 1.369 . S
C548 C557 1.429 . S
C549 C547 1.419 . S
C549 C550 1.363 . S
C549 H552 0.929 . S
C550 C549 1.363 . S
C550 C556 1.428 . S
H551 C547 0.930 . S
H552 C549 0.929 . S
S553 N554 1.613 . S
S553 N555 1.610 . S
N554 S553 1.613 . S
N554 C557 1.350 . S
N555 S553 1.610 . S
N555 C556 1.351 . S
C556 C550 1.428 . S
C556 N555 1.351 . S
C556 C557 1.434 . S
C557 C548 1.429 . S
C557 N554 1.350 . S
C557 C556 1.434 . S
C558 C559 1.369 . S
C558 C560 1.419 . S
C558 H562 0.930 . S
C559 C558 1.369 . S
C559 C568 1.429 . S
C560 C558 1.419 . S
C560 C561 1.363 . S
C560 H563 0.929 . S
C561 C560 1.363 . S
C561 C567 1.428 . S
H562 C558 0.930 . S
H563 C560 0.929 . S
S564 N565 1.613 . S
S564 N566 1.610 . S
N565 S564 1.613 . S
N565 C568 1.350 . S
N566 S564 1.610 . S
N566 C567 1.351 . S
C567 C561 1.428 . S
C567 N566 1.351 . S
C567 C568 1.434 . S
C568 C559 1.429 . S
C568 N565 1.350 . S
C568 C567 1.434 . S
C569 C570 1.369 . S
C569 C571 1.419 . S
C569 H573 0.930 . S
C570 C569 1.369 . S
C570 C579 1.429 . S
C571 C569 1.419 . S
C571 C572 1.363 . S
C571 H574 0.929 . S
C572 C571 1.363 . S
C572 C578 1.428 . S
H573 C569 0.930 . S
H574 C571 0.929 . S
S575 N576 1.613 . S
S575 N577 1.610 . S
N576 S575 1.613 . S
N576 C579 1.350 . S
N577 S575 1.610 . S
N577 C578 1.351 . S
C578 C572 1.428 . S
C578 N577 1.351 . S
C578 C579 1.434 . S
C579 C570 1.429 . S
C579 N576 1.350 . S
C579 C578 1.434 . S
C580 C581 1.369 . S
C580 C582 1.419 . S
C580 H584 0.930 . S
C581 C580 1.369 . S
C581 C590 1.429 . S
C582 C580 1.419 . S
C582 C583 1.363 . S
C582 H585 0.929 . S
C583 C582 1.363 . S
C583 C589 1.428 . S
H584 C580 0.930 . S
H585 C582 0.929 . S
S586 N587 1.613 . S
S586 N588 1.610 . S
N587 S586 1.613 . S
N587 C590 1.350 . S
N588 S586 1.610 . S
N588 C589 1.351 . S
C589 C583 1.428 . S
C589 N588 1.351 . S
C589 C590 1.434 . S
C590 C581 1.429 . S
C590 N587 1.350 . S
C590 C589 1.434 . S
C591 C592 1.369 . S
C591 C593 1.419 . S
C591 H595 0.930 . S
C592 C591 1.369 . S
C592 C601 1.429 . S
C593 C591 1.419 . S
C593 C594 1.363 . S
C593 H596 0.929 . S
C594 C593 1.363 . S
C594 C600 1.428 . S
H595 C591 0.930 . S
H596 C593 0.929 . S
S597 N598 1.613 . S
S597 N599 1.610 . S
N598 S597 1.613 . S
N598 C601 1.350 . S
N599 S597 1.610 . S
N599 C600 1.351 . S
C600 C594 1.428 . S
C600 N599 1.351 . S
C600 C601 1.434 . S
C601 C592 1.429 . S
C601 N598 1.350 . S
C601 C600 1.434 . S
C602 C603 1.369 . S
C602 C604 1.419 . S
C602 H606 0.930 . S
C603 C602 1.369 . S
C603 C612 1.429 . S
C604 C602 1.419 . S
C604 C605 1.363 . S
C604 H607 0.929 . S
C605 C604 1.363 . S
C605 C611 1.428 . S
H606 C602 0.930 . S
H607 C604 0.929 . S
S608 N609 1.613 . S
S608 N610 1.610 . S
N609 S608 1.613 . S
N609 C612 1.350 . S
N610 S608 1.610 . S
N610 C611 1.351 . S
C611 C605 1.428 . S
C611 N610 1.351 . S
C611 C612 1.434 . S
C612 C603 1.429 . S
C612 N609 1.350 . S
C612 C611 1.434 . S
C613 C614 1.369 . S
C613 C615 1.419 . S
C613 H617 0.930 . S
C614 C613 1.369 . S
C614 C623 1.429 . S
C615 C613 1.419 . S
C615 C616 1.363 . S
C615 H618 0.929 . S
C616 C615 1.363 . S
C616 C622 1.428 . S
H617 C613 0.930 . S
H618 C615 0.929 . S
S619 N620 1.613 . S
S619 N621 1.610 . S
N620 S619 1.613 . S
N620 C623 1.350 . S
N621 S619 1.610 . S
N621 C622 1.351 . S
C622 C616 1.428 . S
C622 N621 1.351 . S
C622 C623 1.434 . S
C623 C614 1.429 . S
C623 N620 1.350 . S
C623 C622 1.434 . S
C624 C625 1.369 . S
C624 C626 1.419 1_565 S
C624 H628 0.930 . S
C625 C624 1.369 . S
C625 C634 1.429 . S
C626 C624 1.419 1_545 S
C626 C627 1.363 . S
C626 H629 0.929 . S
C627 C626 1.363 . S
C627 C633 1.428 . S
H628 C624 0.930 . S
H629 C626 0.929 . S
S630 N631 1.613 . S
S630 N632 1.610 1_565 S
N631 S630 1.613 . S
N631 C634 1.350 . S
N632 S630 1.610 1_545 S
N632 C633 1.351 . S
C633 C627 1.428 . S
C633 N632 1.351 . S
C633 C634 1.434 1_545 S
C634 C625 1.429 . S
C634 N631 1.350 . S
C634 C633 1.434 1_565 S
C635 C636 1.369 . S
C635 C637 1.419 . S
C635 H639 0.930 . S
C636 C635 1.369 . S
C636 C645 1.429 1_655 S
C637 C635 1.419 . S
C637 C638 1.363 1_655 S
C637 H640 0.929 . S
C638 C637 1.363 1_455 S
C638 C644 1.428 . S
H639 C635 0.930 . S
H640 C637 0.929 . S
S641 N642 1.613 . S
S641 N643 1.610 . S
N642 S641 1.613 . S
N642 C645 1.350 . S
N643 S641 1.610 . S
N643 C644 1.351 . S
C644 C638 1.428 . S
C644 N643 1.351 . S
C644 C645 1.434 . S
C645 C636 1.429 1_455 S
C645 N642 1.350 . S
C645 C644 1.434 . S
C646 C647 1.369 . S
C646 C648 1.419 . S
C646 H650 0.930 . S
C647 C646 1.369 . S
C647 C656 1.429 1_556 S
C648 C646 1.419 . S
C648 C649 1.363 1_556 S
C648 H651 0.929 . S
C649 C648 1.363 1_554 S
C649 C655 1.428 . S
H650 C646 0.930 . S
H651 C648 0.929 . S
S652 N653 1.613 . S
S652 N654 1.610 . S
N653 S652 1.613 . S
N653 C656 1.350 . S
N654 S652 1.610 . S
N654 C655 1.351 . S
C655 C649 1.428 . S
C655 N654 1.351 . S
C655 C656 1.434 . S
C656 C647 1.429 1_554 S
C656 N653 1.350 . S
C656 C655 1.434 . S
C657 C658 1.369 . S
C657 C659 1.409 1_546 S
C657 H661 0.930 . S
C658 C657 1.369 . S
C658 C667 1.426 1_456 S
C659 C657 1.409 1_564 S
C659 C660 1.373 1_455 S
C659 H662 0.930 . S
C660 C659 1.373 1_655 S
C660 C666 1.428 . S
H661 C657 0.930 . S
H662 C659 0.930 . S
S663 N664 1.613 . S
S663 N665 1.610 1_545 S
N664 S663 1.613 . S
N664 C667 1.351 . S
N665 S663 1.610 1_565 S
N665 C666 1.351 . S
C666 C660 1.428 . S
C666 N665 1.351 . S
C666 C667 1.436 1_565 S
C667 C658 1.426 1_654 S
C667 N664 1.351 . S
C667 C666 1.436 1_545 S
C668 C669 1.369 . S
C668 C670 1.419 1_545 S
C668 H672 0.930 . S
C669 C668 1.369 . S
C669 C678 1.429 . S
C670 C668 1.419 1_565 S
C670 C671 1.363 . S
C670 H673 0.929 . S
C671 C670 1.363 . S
C671 C677 1.428 . S
H672 C668 0.930 . S
H673 C670 0.929 . S
S674 N675 1.613 1_565 S
S674 N676 1.610 . S
N675 S674 1.613 1_545 S
N675 C678 1.350 . S
N676 S674 1.610 . S
N676 C677 1.351 . S
C677 C671 1.428 . S
C677 N676 1.351 . S
C677 C678 1.434 1_565 S
C678 C669 1.429 . S
C678 N675 1.350 . S
C678 C677 1.434 1_545 S
C679 C680 1.369 . S
C679 C681 1.419 . S
C679 H683 0.930 . S
C680 C679 1.369 . S
C680 C689 1.429 1_455 S
C681 C679 1.419 . S
C681 C682 1.363 1_455 S
C681 H684 0.929 . S
C682 C681 1.363 1_655 S
C682 C688 1.428 . S
H683 C679 0.930 . S
H684 C681 0.929 . S
S685 N686 1.613 . S
S685 N687 1.610 . S
N686 S685 1.613 . S
N686 C689 1.350 . S
N687 S685 1.610 . S
N687 C688 1.351 . S
C688 C682 1.428 . S
C688 N687 1.351 . S
C688 C689 1.434 . S
C689 C680 1.429 1_655 S
C689 N686 1.350 . S
C689 C688 1.434 . S
C690 C691 1.369 . S
C690 C692 1.419 . S
C690 H694 0.930 . S
C691 C690 1.369 . S
C691 C700 1.429 1_556 S
C692 C690 1.419 . S
C692 C693 1.363 1_556 S
C692 H695 0.929 . S
C693 C692 1.363 1_554 S
C693 C699 1.428 . S
H694 C690 0.930 . S
H695 C692 0.929 . S
S696 N697 1.613 . S
S696 N698 1.610 . S
N697 S696 1.613 . S
N697 C700 1.350 . S
N698 S696 1.610 . S
N698 C699 1.351 . S
C699 C693 1.428 . S
C699 N698 1.351 . S
C699 C700 1.434 . S
C700 C691 1.429 1_554 S
C700 N697 1.350 . S
C700 C699 1.434 . S
C701 C702 1.369 . S
C701 C703 1.419 . S
C701 H705 0.930 . S
C702 C701 1.369 . S
C702 C711 1.429 . S
C703 C701 1.419 . S
C703 C704 1.363 . S
C703 H706 0.929 . S
C704 C703 1.363 . S
C704 C710 1.428 . S
H705 C701 0.930 . S
H706 C703 0.929 . S
S707 N708 1.613 . S
S707 N709 1.610 . S
N708 S707 1.613 . S
N708 C711 1.350 . S
N709 S707 1.610 . S
N709 C710 1.351 . S
C710 C704 1.428 . S
C710 N709 1.351 . S
C710 C711 1.434 . S
C711 C702 1.429 . S
C711 N708 1.350 . S
C711 C710 1.434 . S
C712 C713 1.369 . S
C712 C714 1.419 . S
C712 H716 0.930 . S
C713 C712 1.369 . S
C713 C722 1.429 . S
C714 C712 1.419 . S
C714 C715 1.363 . S
C714 H717 0.929 . S
C715 C714 1.363 . S
C715 C721 1.428 . S
H716 C712 0.930 . S
H717 C714 0.929 . S
S718 N719 1.613 . S
S718 N720 1.610 . S
N719 S718 1.613 . S
N719 C722 1.350 . S
N720 S718 1.610 . S
N720 C721 1.351 . S
C721 C715 1.428 . S
C721 N720 1.351 . S
C721 C722 1.434 . S
C722 C713 1.429 . S
C722 N719 1.350 . S
C722 C721 1.434 . S
C723 C724 1.369 1_455 S
C723 C725 1.419 . S
C723 H727 0.930 . S
C724 C723 1.369 1_655 S
C724 C733 1.429 . S
C725 C723 1.419 . S
C725 C726 1.363 . S
C725 H728 0.929 . S
C726 C725 1.363 . S
C726 C732 1.428 1_455 S
H727 C723 0.930 . S
H728 C725 0.929 . S
S729 N730 1.613 . S
S729 N731 1.610 . S
N730 S729 1.613 . S
N730 C733 1.350 . S
N731 S729 1.610 . S
N731 C732 1.351 . S
C732 C726 1.428 1_655 S
C732 N731 1.351 . S
C732 C733 1.434 . S
C733 C724 1.429 . S
C733 N730 1.350 . S
C733 C732 1.434 . S
C734 C735 1.369 . S
C734 C736 1.419 . S
C734 H738 0.930 . S
C735 C734 1.369 . S
C735 C744 1.429 . S
C736 C734 1.419 . S
C736 C737 1.363 . S
C736 H739 0.929 . S
C737 C736 1.363 . S
C737 C743 1.428 . S
H738 C734 0.930 . S
H739 C736 0.929 . S
S740 N741 1.613 . S
S740 N742 1.610 . S
N741 S740 1.613 . S
N741 C744 1.350 . S
N742 S740 1.610 . S
N742 C743 1.351 . S
C743 C737 1.428 . S
C743 N742 1.351 . S
C743 C744 1.434 . S
C744 C735 1.429 . S
C744 N741 1.350 . S
C744 C743 1.434 . S
C745 C746 1.369 . S
C745 C747 1.419 . S
C745 H749 0.930 . S
C746 C745 1.369 . S
C746 C755 1.429 . S
C747 C745 1.419 . S
C747 C748 1.363 . S
C747 H750 0.929 . S
C748 C747 1.363 . S
C748 C754 1.428 . S
H749 C745 0.930 . S
H750 C747 0.929 . S
S751 N752 1.613 . S
S751 N753 1.610 . S
N752 S751 1.613 . S
N752 C755 1.350 . S
N753 S751 1.610 . S
N753 C754 1.351 . S
C754 C748 1.428 . S
C754 N753 1.351 . S
C754 C755 1.434 . S
C755 C746 1.429 . S
C755 N752 1.350 . S
C755 C754 1.434 . S
C756 C757 1.369 . S
C756 C758 1.419 . S
C756 H760 0.930 . S
C757 C756 1.369 . S
C757 C766 1.429 . S
C758 C756 1.419 . S
C758 C759 1.363 . S
C758 H761 0.929 . S
C759 C758 1.363 . S
C759 C765 1.428 . S
H760 C756 0.930 . S
H761 C758 0.929 . S
S762 N763 1.613 . S
S762 N764 1.610 . S
N763 S762 1.613 . S
N763 C766 1.350 . S
N764 S762 1.610 . S
N764 C765 1.351 . S
C765 C759 1.428 . S
C765 N764 1.351 . S
C765 C766 1.434 . S
C766 C757 1.429 . S
C766 N763 1.350 . S
C766 C765 1.434 . S
C767 C768 1.369 . S
C767 C769 1.419 1_545 S
C767 H771 0.930 . S
C768 C767 1.369 . S
C768 C777 1.429 . S
C769 C767 1.419 1_565 S
C769 C770 1.363 . S
C769 H772 0.929 . S
C770 C769 1.363 . S
C770 C776 1.428 . S
H771 C767 0.930 . S
H772 C769 0.929 . S
S773 N774 1.613 1_565 S
S773 N775 1.610 . S
N774 S773 1.613 1_545 S
N774 C777 1.350 . S
N775 S773 1.610 . S
N775 C776 1.351 . S
C776 C770 1.428 . S
C776 N775 1.351 . S
C776 C777 1.434 1_565 S
C777 C768 1.429 . S
C777 N774 1.350 . S
C777 C776 1.434 1_545 S
C778 C779 1.369 . S
C778 C780 1.419 . S
C778 H782 0.930 . S
C779 C778 1.369 . S
C779 C788 1.429 . S
C780 C778 1.419 . S
C780 C781 1.363 . S
C780 H783 0.929 . S
C781 C780 1.363 . S
C781 C787 1.428 . S
H782 C778 0.930 . S
H783 C780 0.929 . S
S784 N785 1.613 . S
S784 N786 1.610 . S
N785 S784 1.613 . S
N785 C788 1.350 . S
N786 S784 1.610 . S
N786 C787 1.351 . S
C787 C781 1.428 . S
C787 N786 1.351 . S
C787 C788 1.434 . S
C788 C779 1.429 . S
C788 N785 1.350 . S
C788 C787 1.434 . S
C789 C790 1.369 . S
C789 C791 1.419 . S
C789 H793 0.930 . S
C790 C789 1.369 . S
C790 C799 1.429 1_554 S
C791 C789 1.419 . S
C791 C792 1.363 1_554 S
C791 H794 0.929 . S
C792 C791 1.363 1_556 S
C792 C798 1.428 . S
H793 C789 0.930 . S
H794 C791 0.929 . S
S795 N796 1.613 . S
S795 N797 1.610 . S
N796 S795 1.613 . S
N796 C799 1.350 . S
N797 S795 1.610 . S
N797 C798 1.351 . S
C798 C792 1.428 . S
C798 N797 1.351 . S
C798 C799 1.434 . S
C799 C790 1.429 1_556 S
C799 N796 1.350 . S
C799 C798 1.434 . S
C800 C801 1.369 . S
C800 C802 1.419 . S
C800 H804 0.930 . S
C801 C800 1.369 . S
C801 C810 1.429 . S
C802 C800 1.419 . S
C802 C803 1.363 . S
C802 H805 0.929 . S
C803 C802 1.363 . S
C803 C809 1.428 . S
H804 C800 0.930 . S
H805 C802 0.929 . S
S806 N807 1.613 . S
S806 N808 1.610 . S
N807 S806 1.613 . S
N807 C810 1.350 . S
N808 S806 1.610 . S
N808 C809 1.351 . S
C809 C803 1.428 . S
C809 N808 1.351 . S
C809 C810 1.434 . S
C810 C801 1.429 . S
C810 N807 1.350 . S
C810 C809 1.434 . S
C811 C812 1.369 . S
C811 C813 1.419 . S
C811 H815 0.930 . S
C812 C811 1.369 . S
C812 C821 1.429 1_556 S
C813 C811 1.419 . S
C813 C814 1.363 . S
C813 H816 0.929 . S
C814 C813 1.363 . S
C814 C820 1.428 1_556 S
H815 C811 0.930 . S
H816 C813 0.929 . S
S817 N818 1.613 . S
S817 N819 1.610 . S
N818 S817 1.613 . S
N818 C821 1.350 . S
N819 S817 1.610 . S
N819 C820 1.351 . S
C820 C814 1.428 1_554 S
C820 N819 1.351 . S
C820 C821 1.434 . S
C821 C812 1.429 1_554 S
C821 N818 1.350 . S
C821 C820 1.434 . S
C822 C823 1.369 . S
C822 C824 1.419 . S
C822 H826 0.930 . S
C823 C822 1.369 . S
C823 C832 1.429 . S
C824 C822 1.419 . S
C824 C825 1.363 . S
C824 H827 0.929 . S
C825 C824 1.363 . S
C825 C831 1.428 . S
H826 C822 0.930 . S
H827 C824 0.929 . S
S828 N829 1.613 . S
S828 N830 1.610 . S
N829 S828 1.613 . S
N829 C832 1.350 1_455 S
N830 S828 1.610 . S
N830 C831 1.351 1_455 S
C831 C825 1.428 . S
C831 N830 1.351 1_655 S
C831 C832 1.434 . S
C832 C823 1.429 . S
C832 N829 1.350 1_655 S
C832 C831 1.434 . S
C833 C834 1.369 1_556 S
C833 C835 1.419 . S
C833 H837 0.930 . S
C834 C833 1.369 1_554 S
C834 C843 1.429 . S
C835 C833 1.419 . S
C835 C836 1.363 1_556 S
C835 H838 0.929 . S
C836 C835 1.363 1_554 S
C836 C842 1.428 . S
H837 C833 0.930 . S
H838 C835 0.929 . S
S839 N840 1.613 . S
S839 N841 1.610 . S
N840 S839 1.613 . S
N840 C843 1.350 1_455 S
N841 S839 1.610 . S
N841 C842 1.351 1_455 S
C842 C836 1.428 . S
C842 N841 1.351 1_655 S
C842 C843 1.434 . S
C843 C834 1.429 . S
C843 N840 1.350 1_655 S
C843 C842 1.434 . S
C844 C845 1.369 . S
C844 C846 1.419 . S
C844 H848 0.930 . S
C845 C844 1.369 . S
C845 C854 1.429 . S
C846 C844 1.419 . S
C846 C847 1.363 . S
C846 H849 0.929 . S
C847 C846 1.363 . S
C847 C853 1.428 . S
H848 C844 0.930 . S
H849 C846 0.929 . S
S850 N851 1.613 . S
S850 N852 1.610 . S
N851 S850 1.613 . S
N851 C854 1.350 . S
N852 S850 1.610 . S
N852 C853 1.351 . S
C853 C847 1.428 . S
C853 N852 1.351 . S
C853 C854 1.434 . S
C854 C845 1.429 . S
C854 N851 1.350 . S
C854 C853 1.434 . S
C855 C856 1.369 . S
C855 C857 1.419 . S
C855 H859 0.930 . S
C856 C855 1.369 . S
C856 C865 1.429 . S
C857 C855 1.419 . S
C857 C858 1.363 . S
C857 H860 0.929 . S
C858 C857 1.363 . S
C858 C864 1.428 . S
H859 C855 0.930 . S
H860 C857 0.929 . S
S861 N862 1.613 . S
S861 N863 1.610 . S
N862 S861 1.613 . S
N862 C865 1.350 . S
N863 S861 1.610 . S
N863 C864 1.351 . S
C864 C858 1.428 . S
C864 N863 1.351 . S
C864 C865 1.434 . S
C865 C856 1.429 . S
C865 N862 1.350 . S
C865 C864 1.434 . S
C866 C867 1.369 . S
C866 C868 1.419 . S
C866 H870 0.930 1_655 S
C867 C866 1.369 . S
C867 C876 1.429 . S
C868 C866 1.419 . S
C868 C869 1.363 . S
C868 H871 0.929 . S
C869 C868 1.363 . S
C869 C875 1.428 . S
H870 C866 0.930 1_455 S
H871 C868 0.929 . S
S872 N873 1.613 . S
S872 N874 1.610 . S
N873 S872 1.613 . S
N873 C876 1.350 . S
N874 S872 1.610 . S
N874 C875 1.351 . S
C875 C869 1.428 . S
C875 N874 1.351 . S
C875 C876 1.434 . S
C876 C867 1.429 . S
C876 N873 1.350 . S
C876 C875 1.434 . S
C877 C878 1.369 . S
C877 C879 1.419 . S
C877 H881 0.930 . S
C878 C877 1.369 . S
C878 C887 1.429 . S
C879 C877 1.419 . S
C879 C880 1.363 . S
C879 H882 0.929 . S
C880 C879 1.363 . S
C880 C886 1.428 . S
H881 C877 0.930 . S
H882 C879 0.929 . S
S883 N884 1.613 . S
S883 N885 1.610 . S
N884 S883 1.613 . S
N884 C887 1.350 . S
N885 S883 1.610 . S
N885 C886 1.351 . S
C886 C880 1.428 . S
C886 N885 1.351 . S
C886 C887 1.434 . S
C887 C878 1.429 . S
C887 N884 1.350 . S
C887 C886 1.434 . S
C888 C889 1.369 . S
C888 C890 1.419 . S
C888 H892 0.930 . S
C889 C888 1.369 . S
C889 C898 1.429 . S
C890 C888 1.419 . S
C890 C891 1.363 . S
C890 H893 0.929 . S
C891 C890 1.363 . S
C891 C897 1.428 . S
H892 C888 0.930 . S
H893 C890 0.929 . S
S894 N895 1.613 . S
S894 N896 1.610 . S
N895 S894 1.613 . S
N895 C898 1.350 . S
N896 S894 1.610 . S
N896 C897 1.351 . S
C897 C891 1.428 . S
C897 N896 1.351 . S
C897 C898 1.434 . S
C898 C889 1.429 . S
C898 N895 1.350 . S
C898 C897 1.434 . S
C899 C900 1.369 . S
C899 C901 1.419 . S
C899 H903 0.930 . S
C900 C899 1.369 . S
C900 C909 1.429 . S
C901 C899 1.419 . S
C901 C902 1.363 . S
C901 H904 0.929 . S
C902 C901 1.363 . S
C902 C908 1.428 . S
H903 C899 0.930 . S
H904 C901 0.929 . S
S905 N906 1.613 . S
S905 N907 1.610 . S
N906 S905 1.613 . S
N906 C909 1.350 . S
N907 S905 1.610 . S
N907 C908 1.351 . S
C908 C902 1.428 . S
C908 N907 1.351 . S
C908 C909 1.434 . S
C909 C900 1.429 . S
C909 N906 1.350 . S
C909 C908 1.434 . S
C910 C911 1.369 . S
C910 C912 1.419 . S
C910 H914 0.930 . S
C911 C910 1.369 . S
C911 C920 1.429 . S
C912 C910 1.419 . S
C912 C913 1.363 . S
C912 H915 0.929 . S
C913 C912 1.363 . S
C913 C919 1.428 . S
H914 C910 0.930 . S
H915 C912 0.929 . S
S916 N917 1.613 . S
S916 N918 1.610 . S
N917 S916 1.613 . S
N917 C920 1.350 . S
N918 S916 1.610 . S
N918 C919 1.351 . S
C919 C913 1.428 . S
C919 N918 1.351 . S
C919 C920 1.434 . S
C920 C911 1.429 . S
C920 N917 1.350 . S
C920 C919 1.434 . S
C921 C922 1.369 . S
C921 C923 1.419 . S
C921 H925 0.930 . S
C922 C921 1.369 . S
C922 C931 1.429 . S
C923 C921 1.419 . S
C923 C924 1.363 . S
C923 H926 0.929 . S
C924 C923 1.363 . S
C924 C930 1.428 . S
H925 C921 0.930 . S
H926 C923 0.929 . S
S927 N928 1.613 . S
S927 N929 1.610 . S
N928 S927 1.613 . S
N928 C931 1.350 . S
N929 S927 1.610 . S
N929 C930 1.351 . S
C930 C924 1.428 . S
C930 N929 1.351 . S
C930 C931 1.434 . S
C931 C922 1.429 . S
C931 N928 1.350 . S
C931 C930 1.434 . S
C932 C933 1.369 . S
C932 C934 1.419 . S
C932 H936 0.930 . S
C933 C932 1.369 . S
C933 C942 1.429 . S
C934 C932 1.419 . S
C934 C935 1.363 . S
C934 H937 0.929 . S
C935 C934 1.363 . S
C935 C941 1.428 . S
H936 C932 0.930 . S
H937 C934 0.929 . S
S938 N939 1.613 . S
S938 N940 1.610 . S
N939 S938 1.613 . S
N939 C942 1.350 . S
N940 S938 1.610 . S
N940 C941 1.351 . S
C941 C935 1.428 . S
C941 N940 1.351 . S
C941 C942 1.434 . S
C942 C933 1.429 . S
C942 N939 1.350 . S
C942 C941 1.434 . S
C943 C944 1.369 . S
C943 C945 1.419 . S
C943 H947 0.930 . S
C944 C943 1.369 . S
C944 C953 1.429 . S
C945 C943 1.419 . S
C945 C946 1.363 . S
C945 H948 0.929 . S
C946 C945 1.363 . S
C946 C952 1.428 . S
H947 C943 0.930 . S
H948 C945 0.929 . S
S949 N950 1.613 1_554 S
S949 N951 1.610 1_554 S
N950 S949 1.613 1_556 S
N950 C953 1.350 . S
N951 S949 1.610 1_556 S
N951 C952 1.351 . S
C952 C946 1.428 . S
C952 N951 1.351 . S
C952 C953 1.434 . S
C953 C944 1.429 . S
C953 N950 1.350 . S
C953 C952 1.434 . S
C954 C955 1.369 . S
C954 C956 1.419 . S
C954 H958 0.930 . S
C955 C954 1.369 . S
C955 C964 1.429 . S
C956 C954 1.419 . S
C956 C957 1.363 . S
C956 H959 0.929 . S
C957 C956 1.363 . S
C957 C963 1.428 . S
H958 C954 0.930 . S
H959 C956 0.929 . S
S960 N961 1.613 . S
S960 N962 1.610 . S
N961 S960 1.613 . S
N961 C964 1.350 . S
N962 S960 1.610 . S
N962 C963 1.351 . S
C963 C957 1.428 . S
C963 N962 1.351 . S
C963 C964 1.434 . S
C964 C955 1.429 . S
C964 N961 1.350 . S
C964 C963 1.434 . S
C965 C966 1.369 . S
C965 C967 1.419 . S
C965 H969 0.930 . S
C966 C965 1.369 . S
C966 C975 1.429 . S
C967 C965 1.419 . S
C967 C968 1.363 . S
C967 H970 0.929 . S
C968 C967 1.363 . S
C968 C974 1.428 . S
H969 C965 0.930 . S
H970 C967 0.929 . S
S971 N972 1.613 . S
S971 N973 1.610 . S
N972 S971 1.613 . S
N972 C975 1.350 . S
N973 S971 1.610 . S
N973 C974 1.351 . S
C974 C968 1.428 . S
C974 N973 1.351 . S
C974 C975 1.434 . S
C975 C966 1.429 . S
C975 N972 1.350 . S
C975 C974 1.434 . S
C976 C977 1.369 . S
C976 C978 1.419 . S
C976 H980 0.930 . S
C977 C976 1.369 . S
C977 C986 1.429 . S
C978 C976 1.419 . S
C978 C979 1.363 . S
C978 H981 0.929 . S
C979 C978 1.363 . S
C979 C985 1.428 . S
H980 C976 0.930 . S
H981 C978 0.929 . S
S982 N983 1.613 . S
S982 N984 1.610 . S
N983 S982 1.613 . S
N983 C986 1.350 . S
N984 S982 1.610 . S
N984 C985 1.351 . S
C985 C979 1.428 . S
C985 N984 1.351 . S
C985 C986 1.434 . S
C986 C977 1.429 . S
C986 N983 1.350 . S
C986 C985 1.434 . S
C987 C988 1.369 . S
C987 C989 1.419 . S
C987 H991 0.930 . S
C988 C987 1.369 . S
C988 C997 1.429 . S
C989 C987 1.419 . S
C989 C990 1.363 . S
C989 H992 0.929 . S
C990 C989 1.363 . S
C990 C996 1.428 . S
H991 C987 0.930 . S
H992 C989 0.929 . S
S993 N994 1.613 . S
S993 N995 1.610 . S
N994 S993 1.613 . S
N994 C997 1.350 . S
N995 S993 1.610 . S
N995 C996 1.351 . S
C996 C990 1.428 . S
C996 N995 1.351 . S
C996 C997 1.434 . S
C997 C988 1.429 . S
C997 N994 1.350 . S
C997 C996 1.434 . S
C998 C999 1.369 . S
C998 C1000 1.419 . S
C998 H1002 0.930 . S
C999 C998 1.369 . S
C999 C1008 1.429 . S
C1000 C998 1.419 . S
C1000 C1001 1.363 . S
C1000 H1003 0.938 . S
C1001 C1000 1.363 . S
C1001 C1007 1.428 . S
H1002 C998 0.930 . S
H1003 C1000 0.938 . S
S1004 N1005 1.613 . S
S1004 N1006 1.610 . S
N1005 S1004 1.613 . S
N1005 C1008 1.350 . S
N1006 S1004 1.610 . S
N1006 C1007 1.351 . S
C1007 C1001 1.428 . S
C1007 N1006 1.351 . S
C1007 C1008 1.434 . S
C1008 C999 1.429 . S
C1008 N1005 1.350 . S
C1008 C1007 1.434 . S
C1009 C1010 1.369 . S
C1009 C1011 1.419 . S
C1009 H1013 0.930 . S
C1010 C1009 1.369 . S
C1010 C1019 1.429 . S
C1011 C1009 1.419 . S
C1011 C1012 1.363 . S
C1011 H1014 0.929 . S
C1012 C1011 1.363 . S
C1012 C1018 1.428 . S
H1013 C1009 0.930 . S
H1014 C1011 0.929 . S
S1015 N1016 1.613 . S
S1015 N1017 1.610 . S
N1016 S1015 1.613 . S
N1016 C1019 1.350 . S
N1017 S1015 1.610 . S
N1017 C1018 1.351 . S
C1018 C1012 1.428 . S
C1018 N1017 1.351 . S
C1018 C1019 1.434 . S
C1019 C1010 1.429 . S
C1019 N1016 1.350 . S
C1019 C1018 1.434 . S
C1020 C1021 1.369 . S
C1020 C1022 1.419 . S
C1020 H1024 0.930 . S
C1021 C1020 1.369 . S
C1021 C1030 1.429 . S
C1022 C1020 1.419 . S
C1022 C1023 1.363 . S
C1022 H1025 0.929 . S
C1023 C1022 1.363 . S
C1023 C1029 1.428 . S
H1024 C1020 0.930 . S
H1025 C1022 0.929 . S
S1026 N1027 1.613 . S
S1026 N1028 1.610 . S
N1027 S1026 1.613 . S
N1027 C1030 1.350 . S
N1028 S1026 1.610 . S
N1028 C1029 1.351 . S
C1029 C1023 1.428 . S
C1029 N1028 1.351 . S
C1029 C1030 1.434 . S
C1030 C1021 1.429 . S
C1030 N1027 1.350 . S
C1030 C1029 1.434 . S
C1031 C1032 1.369 . S
C1031 C1033 1.419 . S
C1031 H1035 0.930 . S
C1032 C1031 1.369 . S
C1032 C1041 1.429 . S
C1033 C1031 1.419 . S
C1033 C1034 1.363 . S
C1033 H1036 0.929 . S
C1034 C1033 1.363 . S
C1034 C1040 1.428 . S
H1035 C1031 0.930 . S
H1036 C1033 0.929 . S
S1037 N1038 1.613 . S
S1037 N1039 1.610 . S
N1038 S1037 1.613 . S
N1038 C1041 1.350 . S
N1039 S1037 1.610 . S
N1039 C1040 1.351 . S
C1040 C1034 1.428 . S
C1040 N1039 1.351 . S
C1040 C1041 1.434 . S
C1041 C1032 1.429 . S
C1041 N1038 1.350 . S
C1041 C1040 1.434 . S
C1042 C1043 1.369 . S
C1042 C1044 1.419 . S
C1042 H1046 0.930 . S
C1043 C1042 1.369 . S
C1043 C1052 1.429 . S
C1044 C1042 1.419 . S
C1044 C1045 1.363 . S
C1044 H1047 0.929 1_455 S
C1045 C1044 1.363 . S
C1045 C1051 1.428 . S
H1046 C1042 0.930 . S
H1047 C1044 0.929 1_655 S
S1048 N1049 1.613 . S
S1048 N1050 1.610 . S
N1049 S1048 1.613 . S
N1049 C1052 1.350 . S
N1050 S1048 1.610 . S
N1050 C1051 1.351 . S
C1051 C1045 1.428 . S
C1051 N1050 1.351 . S
C1051 C1052 1.434 . S
C1052 C1043 1.429 . S
C1052 N1049 1.350 . S
C1052 C1051 1.434 . S
C1053 C1054 1.369 . S
C1053 C1055 1.419 . S
C1053 H1057 0.930 . S
C1054 C1053 1.369 . S
C1054 C1063 1.429 . S
C1055 C1053 1.419 . S
C1055 C1056 1.363 . S
C1055 H1058 0.929 . S
C1056 C1055 1.363 . S
C1056 C1062 1.428 . S
H1057 C1053 0.930 . S
H1058 C1055 0.929 . S
S1059 N1060 1.613 . S
S1059 N1061 1.610 . S
N1060 S1059 1.613 . S
N1060 C1063 1.350 . S
N1061 S1059 1.610 . S
N1061 C1062 1.351 . S
C1062 C1056 1.428 . S
C1062 N1061 1.351 . S
C1062 C1063 1.434 . S
C1063 C1054 1.429 . S
C1063 N1060 1.350 . S
C1063 C1062 1.434 . S
C1064 C1065 1.369 . S
C1064 C1066 1.419 . S
C1064 H1068 0.930 . S
C1065 C1064 1.369 . S
C1065 C1074 1.429 . S
C1066 C1064 1.419 . S
C1066 C1067 1.363 . S
C1066 H1069 0.929 . S
C1067 C1066 1.363 . S
C1067 C1073 1.428 . S
H1068 C1064 0.930 . S
H1069 C1066 0.929 . S
S1070 N1071 1.613 . S
S1070 N1072 1.610 1_455 S
N1071 S1070 1.613 . S
N1071 C1074 1.350 1_455 S
N1072 S1070 1.610 1_655 S
N1072 C1073 1.351 . S
C1073 C1067 1.428 . S
C1073 N1072 1.351 . S
C1073 C1074 1.434 . S
C1074 C1065 1.429 . S
C1074 N1071 1.350 1_655 S
C1074 C1073 1.434 . S
C1075 C1076 1.369 . S
C1075 C1077 1.419 . S
C1075 H1079 0.930 . S
C1076 C1075 1.369 . S
C1076 C1085 1.429 . S
C1077 C1075 1.419 . S
C1077 C1078 1.363 . S
C1077 H1080 0.929 . S
C1078 C1077 1.363 . S
C1078 C1084 1.428 . S
H1079 C1075 0.930 . S
H1080 C1077 0.929 . S
S1081 N1082 1.613 . S
S1081 N1083 1.610 . S
N1082 S1081 1.613 . S
N1082 C1085 1.350 . S
N1083 S1081 1.610 . S
N1083 C1084 1.351 . S
C1084 C1078 1.428 . S
C1084 N1083 1.351 . S
C1084 C1085 1.434 . S
C1085 C1076 1.429 . S
C1085 N1082 1.350 . S
C1085 C1084 1.434 . S
C1086 C1087 1.369 . S
C1086 C1088 1.419 . S
C1086 H1090 0.930 1_655 S
C1087 C1086 1.369 . S
C1087 C1096 1.429 . S
C1088 C1086 1.419 . S
C1088 C1089 1.363 . S
C1088 H1091 0.929 . S
C1089 C1088 1.363 . S
C1089 C1095 1.428 . S
H1090 C1086 0.930 1_455 S
H1091 C1088 0.929 . S
S1092 N1093 1.613 . S
S1092 N1094 1.610 . S
N1093 S1092 1.613 . S
N1093 C1096 1.350 . S
N1094 S1092 1.610 . S
N1094 C1095 1.351 . S
C1095 C1089 1.428 . S
C1095 N1094 1.351 . S
C1095 C1096 1.434 . S
C1096 C1087 1.429 . S
C1096 N1093 1.350 . S
C1096 C1095 1.434 . S
C1097 C1098 1.369 . S
C1097 C1099 1.419 . S
C1097 H1101 0.930 . S
C1098 C1097 1.369 . S
C1098 C1107 1.429 . S
C1099 C1097 1.419 . S
C1099 C1100 1.363 . S
C1099 H1102 0.929 . S
C1100 C1099 1.363 . S
C1100 C1106 1.428 . S
H1101 C1097 0.930 . S
H1102 C1099 0.929 . S
S1103 N1104 1.613 . S
S1103 N1105 1.610 . S
N1104 S1103 1.613 . S
N1104 C1107 1.350 . S
N1105 S1103 1.610 . S
N1105 C1106 1.351 . S
C1106 C1100 1.428 . S
C1106 N1105 1.351 . S
C1106 C1107 1.434 . S
C1107 C1098 1.429 . S
C1107 N1104 1.350 . S
C1107 C1106 1.434 . S
C1108 C1109 1.369 . S
C1108 C1110 1.419 . S
C1108 H1112 0.930 . S
C1109 C1108 1.369 . S
C1109 C1118 1.429 . S
C1110 C1108 1.419 . S
C1110 C1111 1.363 . S
C1110 H1113 0.929 . S
C1111 C1110 1.363 . S
C1111 C1117 1.428 . S
H1112 C1108 0.930 . S
H1113 C1110 0.929 . S
S1114 N1115 1.613 . S
S1114 N1116 1.610 1_655 S
N1115 S1114 1.613 . S
N1115 C1118 1.350 1_655 S
N1116 S1114 1.610 1_455 S
N1116 C1117 1.351 . S
C1117 C1111 1.428 . S
C1117 N1116 1.351 . S
C1117 C1118 1.434 . S
C1118 C1109 1.429 . S
C1118 N1115 1.350 1_455 S
C1118 C1117 1.434 . S
C1119 C1120 1.369 . S
C1119 C1121 1.419 . S
C1119 H1123 0.930 . S
C1120 C1119 1.369 . S
C1120 C1129 1.429 . S
C1121 C1119 1.419 . S
C1121 C1122 1.363 . S
C1121 H1124 0.929 . S
C1122 C1121 1.363 . S
C1122 C1128 1.428 . S
H1123 C1119 0.930 . S
H1124 C1121 0.929 . S
S1125 N1126 1.613 . S
S1125 N1127 1.610 . S
N1126 S1125 1.613 . S
N1126 C1129 1.350 . S
N1127 S1125 1.610 . S
N1127 C1128 1.351 . S
C1128 C1122 1.428 . S
C1128 N1127 1.351 . S
C1128 C1129 1.434 . S
C1129 C1120 1.429 . S
C1129 N1126 1.350 . S
C1129 C1128 1.434 . S
C1130 C1131 1.369 . S
C1130 C1132 1.419 . S
C1130 H1134 0.930 . S
C1131 C1130 1.369 . S
C1131 C1140 1.429 . S
C1132 C1130 1.419 . S
C1132 C1133 1.363 . S
C1132 H1135 0.929 . S
C1133 C1132 1.363 . S
C1133 C1139 1.428 . S
H1134 C1130 0.930 . S
H1135 C1132 0.929 . S
S1136 N1137 1.613 . S
S1136 N1138 1.610 . S
N1137 S1136 1.613 . S
N1137 C1140 1.350 . S
N1138 S1136 1.610 . S
N1138 C1139 1.351 . S
C1139 C1133 1.428 . S
C1139 N1138 1.351 . S
C1139 C1140 1.434 . S
C1140 C1131 1.429 . S
C1140 N1137 1.350 . S
C1140 C1139 1.434 . S
C1141 C1142 1.369 . S
C1141 C1143 1.419 . S
C1141 H1145 0.930 . S
C1142 C1141 1.369 . S
C1142 C1151 1.429 . S
C1143 C1141 1.419 . S
C1143 C1144 1.363 . S
C1143 H1146 0.929 . S
C1144 C1143 1.363 . S
C1144 C1150 1.428 . S
H1145 C1141 0.930 . S
H1146 C1143 0.929 . S
S1147 N1148 1.613 . S
S1147 N1149 1.610 . S
N1148 S1147 1.613 . S
N1148 C1151 1.350 . S
N1149 S1147 1.610 . S
N1149 C1150 1.351 . S
C1150 C1144 1.428 . S
C1150 N1149 1.351 . S
C1150 C1151 1.434 . S
C1151 C1142 1.429 . S
C1151 N1148 1.350 . S
C1151 C1150 1.434 . S
C449 C51 1.204 . S
C451 C9 1.197 . S
C460 C37 1.204 . S
C462 C23 1.197 . S
C471 C107 1.194 . S
C473 C65 1.204 . S
C482 C93 1.202 . S
C484 C79 1.200 . S
C493 C121 1.198 . S
C495 C163 1.202 . S
C504 C135 1.198 . S
C506 C149 1.201 . S
C515 C219 1.206 . S
C517 C177 1.195 . S
C526 C191 1.208 . S
C528 C205 1.195 . S
C537 C233 1.194 . S
C539 C275 1.205 . S
C548 C247 1.208 . S
C550 C261 1.194 . S
C559 C331 1.201 . S
C561 C289 1.198 . S
C570 C317 1.208 . S
C572 C303 1.194 . S
C581 C387 1.208 . S
C583 C345 1.195 . S
C592 C359 1.205 . S
C594 C373 1.196 . S
C603 C401 1.204 . S
C605 C443 1.197 . S
C614 C415 1.203 . S
C616 C429 1.197 . S
C625 C283 1.369 . S
C627 C3 1.376 . S
C636 C185 1.376 . S
C638 C17 1.371 . S
C647 C31 1.371 . S
C649 C423 1.374 . S
C658 C45 1.375 . S
C660 C101 1.372 . S
C669 C227 1.378 . S
C671 C59 1.369 . S
C680 C129 1.370 . S
C682 C73 1.375 . S
C691 C367 1.368 . S
C693 C87 1.377 . S
C702 C115 1.371 . S
C704 C395 1.374 . S
C713 C311 1.373 . S
C715 C143 1.373 . S
C724 C213 1.368 . S
C726 C157 1.377 . S
C735 C339 1.368 . S
C737 C171 1.377 . S
C746 C199 1.378 . S
C748 C255 1.370 . S
C757 C409 1.378 . S
C759 C241 1.369 . S
C768 C269 1.369 . S
C770 C325 1.376 . S
C779 C353 1.374 . S
C781 C297 1.372 . S
C790 C437 1.378 . S
C792 C381 1.370 . S
C801 C21 1.425 . S
C803 C7 1.425 . S
C812 C35 1.419 . S
C814 C49 1.420 . S
C823 C63 1.423 . S
C825 C77 1.424 . S
C834 C105 1.424 . S
C836 C91 1.422 . S
C845 C119 1.425 . S
C847 C133 1.424 . S
C856 C147 1.424 . S
C858 C161 1.425 . S
C867 C189 1.424 . S
C869 C175 1.424 . S
C878 C203 1.419 . S
C880 C217 1.420 . S
C889 C231 1.424 . S
C891 C245 1.425 . S
C900 C259 1.419 . S
C902 C273 1.420 . S
C911 C287 1.424 . S
C913 C301 1.422 . S
C922 C329 1.421 . S
C924 C315 1.420 . S
C933 C357 1.424 . S
C935 C343 1.422 . S
C944 C371 1.420 . S
C946 C385 1.422 . S
C955 C399 1.421 . S
C957 C413 1.420 . S
C966 C441 1.423 . S
C968 C427 1.424 . S
C977 C8 1.541 . S
C979 C274 1.542 . S
C988 C22 1.539 . S
C990 C260 1.544 . S
C999 C246 1.541 . S
C1001 C36 1.543 . S
C1010 C50 1.540 . S
C1012 C232 1.543 . S
C1021 C330 1.542 . S
C1023 C64 1.542 . S
C1032 C78 1.540 . S
C1034 C316 1.543 . S
C1043 C302 1.540 . S
C1045 C92 1.543 . S
C1054 C106 1.540 . S
C1056 C288 1.543 . S
C1065 C120 1.540 . S
C1067 C386 1.543 . S
C1076 C134 1.540 . S
C1078 C372 1.543 . S
C1087 C148 1.544 . S
C1089 C358 1.540 . S
C1098 C344 1.541 . S
C1100 C162 1.542 . S
C1109 C176 1.539 . S
C1111 C442 1.544 . S
C1120 C190 1.540 . S
C1122 C428 1.543 . S
C1131 C204 1.542 . S
C1133 C414 1.542 . S
C1142 C400 1.543 . S
C1144 C218 1.541 . S
