# Generated by pormake.
# Topology wjo, (5)-cn, num edge types: 1
# Building blocks:
#     Node 0, Type 0, BuildingBlock: BEQFEK_clean_sbu_0, # of connection points: 5
#     Node 1, Type 0, BuildingBlock: BEQFEK_clean_sbu_0, # of connection points: 5
#     Node 2, Type 0, BuildingBlock: BEQFEK_clean_sbu_0, # of connection points: 5
#     Node 3, Type 0, BuildingBlock: BEQFEK_clean_sbu_0, # of connection points: 5
#     Node 4, Type 0, BuildingBlock: BEQFEK_clean_sbu_0, # of connection points: 5
#     Node 5, Type 0, BuildingBlock: BEQFEK_clean_sbu_0, # of connection points: 5
#     Node 6, Type 0, BuildingBlock: BEQFEK_clean_sbu_0, # of connection points: 5
#     Node 7, Type 0, BuildingBlock: BEQFEK_clean_sbu_0, # of connection points: 5
#     Node 8, Type 0, BuildingBlock: BEQFEK_clean_sbu_0, # of connection points: 5
#     Node 9, Type 0, BuildingBlock: BEQFEK_clean_sbu_0, # of connection points: 5
#     Node 10, Type 0, BuildingBlock: BEQFEK_clean_sbu_0, # of connection points: 5
#     Node 11, Type 0, BuildingBlock: BEQFEK_clean_sbu_0, # of connection points: 5
#     Edge 12, Type (0, 0), BuildingBlock: AJUNOK_clean_linker_0, # of connection points: 2
#     Edge 13, Type (0, 0), BuildingBlock: AJUNOK_clean_linker_0, # of connection points: 2
#     Edge 14, Type (0, 0), BuildingBlock: AJUNOK_clean_linker_0, # of connection points: 2
#     Edge 15, Type (0, 0), BuildingBlock: AJUNOK_clean_linker_0, # of connection points: 2
#     Edge 16, Type (0, 0), BuildingBlock: AJUNOK_clean_linker_0, # of connection points: 2
#     Edge 17, Type (0, 0), BuildingBlock: AJUNOK_clean_linker_0, # of connection points: 2
#     Edge 18, Type (0, 0), BuildingBlock: AJUNOK_clean_linker_0, # of connection points: 2
#     Edge 19, Type (0, 0), BuildingBlock: AJUNOK_clean_linker_0, # of connection points: 2
#     Edge 20, Type (0, 0), BuildingBlock: AJUNOK_clean_linker_0, # of connection points: 2
#     Edge 21, Type (0, 0), BuildingBlock: AJUNOK_clean_linker_0, # of connection points: 2
#     Edge 22, Type (0, 0), BuildingBlock: AJUNOK_clean_linker_0, # of connection points: 2
#     Edge 23, Type (0, 0), BuildingBlock: AJUNOK_clean_linker_0, # of connection points: 2
#     Edge 24, Type (0, 0), BuildingBlock: AJUNOK_clean_linker_0, # of connection points: 2
#     Edge 25, Type (0, 0), BuildingBlock: AJUNOK_clean_linker_0, # of connection points: 2
#     Edge 26, Type (0, 0), BuildingBlock: AJUNOK_clean_linker_0, # of connection points: 2
#     Edge 27, Type (0, 0), BuildingBlock: AJUNOK_clean_linker_0, # of connection points: 2
#     Edge 28, Type (0, 0), BuildingBlock: AJUNOK_clean_linker_0, # of connection points: 2
#     Edge 29, Type (0, 0), BuildingBlock: AJUNOK_clean_linker_0, # of connection points: 2
#     Edge 30, Type (0, 0), BuildingBlock: AJUNOK_clean_linker_0, # of connection points: 2
#     Edge 31, Type (0, 0), BuildingBlock: AJUNOK_clean_linker_0, # of connection points: 2
#     Edge 32, Type (0, 0), BuildingBlock: AJUNOK_clean_linker_0, # of connection points: 2
#     Edge 33, Type (0, 0), BuildingBlock: AJUNOK_clean_linker_0, # of connection points: 2
#     Edge 34, Type (0, 0), BuildingBlock: AJUNOK_clean_linker_0, # of connection points: 2
#     Edge 35, Type (0, 0), BuildingBlock: AJUNOK_clean_linker_0, # of connection points: 2
#     Edge 36, Type (0, 0), BuildingBlock: AJUNOK_clean_linker_0, # of connection points: 2
#     Edge 37, Type (0, 0), BuildingBlock: AJUNOK_clean_linker_0, # of connection points: 2
#     Edge 38, Type (0, 0), BuildingBlock: AJUNOK_clean_linker_0, # of connection points: 2
#     Edge 39, Type (0, 0), BuildingBlock: AJUNOK_clean_linker_0, # of connection points: 2
#     Edge 40, Type (0, 0), BuildingBlock: AJUNOK_clean_linker_0, # of connection points: 2
#     Edge 41, Type (0, 0), BuildingBlock: AJUNOK_clean_linker_0, # of connection points: 2
# Relax obj value: 0.835
# Max RMSD: 0.259
# Mean RMSD: 0.248
data_MOF--net-wjo--node1-BEQFEK_clean_sbu_0--edge1-AJUNOK_clean_linker_0
_symmetry_space_group_name_H-M    P1
_symmetry_Int_Tables_number       1
_symmetry_cell_setting            triclinic
loop_
_symmetry_equiv_pos_as_xyz
'x, y, z'
_cell_length_a     34.688678
_cell_length_b     34.499493
_cell_length_c     21.967861
_cell_angle_alpha  89.925656
_cell_angle_beta   90.067011
_cell_angle_gamma 120.17129
loop_
_atom_site_label
_atom_site_type_symbol
_atom_site_fract_x
_atom_site_fract_y
_atom_site_fract_z
_atom_type_partial_charge
Co0 Co 0.3255 0.38167 0.92028 0.0
Co1 Co 0.32051 0.45426 0.00171 0.0
C2 C 0.32304 0.37545 0.05662 0.0
O3 O 0.32593 0.3607 0.0046 0.0
O4 O 0.32008 0.41072 0.0615 0.0
C5 C 0.30643 0.29435 0.87366 0.0
O6 O 0.28562 0.27958 0.92583 0.0
C7 C 0.29234 0.49411 0.09531 0.0
C8 C 0.31017 0.56039 0.05709 0.0
C9 C 0.28976 0.53222 0.10607 0.0
N10 N 0.31218 0.49861 0.04154 0.0
N11 N 0.32339 0.53856 0.0191 0.0
C12 C 0.27908 0.4551 0.13701 0.0
H13 H 0.31001 0.45652 0.15297 0.0
H14 H 0.25881 0.42325 0.11188 0.0
H15 H 0.26068 0.45582 0.1777 0.0
C16 C 0.2321 0.36178 0.89331 0.0
N17 N 0.27432 0.38953 0.91284 0.0
N18 N 0.27502 0.42299 0.94265 0.0
C19 C 0.23418 0.41867 0.94023 0.0
C20 C 0.20523 0.37939 0.91012 0.0
C21 C 0.21608 0.3158 0.86876 0.0
H22 H 0.23934 0.31711 0.83317 0.0
H23 H 0.21546 0.29384 0.90614 0.0
H24 H 0.182 0.30134 0.84944 0.0
O25 O 0.38535 0.43873 0.90704 0.0
O26 O 0.38022 0.48661 0.96897 0.0
H27 H 0.18729 0.44076 0.96138 0.0
H28 H 0.21839 0.43779 0.02487 0.0
C29 C 0.22042 0.44662 0.97603 0.0
H30 H 0.24507 0.48259 0.96969 0.0
H31 H 0.33927 0.55055 0.97729 0.0
O32 O 0.32389 0.33595 0.86136 0.0
C33 C 0.40253 0.47706 0.93275 0.0
Co34 Co 0.96548 0.31725 0.08693 0.0
Co35 Co 0.8817 0.30816 0.15577 0.0
C36 C 0.96029 0.31409 0.22255 0.0
O37 O 0.98145 0.31829 0.17334 0.0
O38 O 0.9215 0.30941 0.22175 0.0
C39 C 0.02612 0.32718 0.98523 0.0
O40 O 1.00338 0.34081 0.95267 0.0
C41 C 0.8069 0.27199 0.24035 0.0
C42 C 0.77622 0.31342 0.22088 0.0
C43 C 0.77391 0.28065 0.25969 0.0
N44 N 0.82772 0.29831 0.19234 0.0
N45 N 0.80875 0.32246 0.18019 0.0
C46 C 0.82163 0.24277 0.27115 0.0
H47 H 0.8501 0.24373 0.24716 0.0
H48 H 0.7941 0.20747 0.27133 0.0
H49 H 0.83031 0.25326 0.31927 0.0
C50 C 0.89732 0.22155 0.06378 0.0
N51 N 0.90802 0.26424 0.07578 0.0
N52 N 0.87225 0.26378 0.09674 0.0
C53 C 0.83723 0.2217 0.09316 0.0
C54 C 0.85194 0.19281 0.07505 0.0
C55 C 0.93142 0.20787 0.05348 0.0
H56 H 0.95239 0.22642 0.0138 0.0
H57 H 0.95361 0.2172 0.09384 0.0
H58 H 0.91552 0.17125 0.04527 0.0
O59 O 0.96793 0.37672 0.06941 0.0
O60 O 0.91024 0.36843 0.12347 0.0
H61 H 0.78517 0.23594 0.11589 0.0
H62 H 0.76602 0.18038 0.08759 0.0
C63 C 0.79149 0.20753 0.11648 0.0
H64 H 0.78768 0.19385 0.16309 0.0
H65 H 0.81953 0.34683 0.14614 0.0
O66 O 1.01428 0.31488 0.04006 0.0
C67 C 0.94415 0.39227 0.09082 0.0
Co68 Co 0.66087 0.95302 0.24844 0.0
Co69 Co 0.58936 0.87213 0.32649 0.0
C70 C 0.66652 0.95316 0.38423 0.0
O71 O 0.68098 0.97288 0.33316 0.0
O72 O 0.63227 0.91408 0.38735 0.0
C73 C 0.74649 0.02593 0.20435 0.0
O74 O 0.76018 0.02321 0.25914 0.0
C75 C 0.55014 0.80007 0.41664 0.0
C76 C 0.47814 0.7735 0.40181 0.0
C77 C 0.50837 0.7703 0.43948 0.0
N78 N 0.54511 0.82008 0.36737 0.0
N79 N 0.50191 0.80334 0.35794 0.0
C80 C 0.59396 0.81283 0.44578 0.0
H81 H 0.62217 0.83891 0.41902 0.0
H82 H 0.59776 0.78283 0.44923 0.0
H83 H 0.59451 0.8246 0.49289 0.0
C84 C 0.68479 0.88227 0.22501 0.0
N85 N 0.65434 0.89426 0.23953 0.0
N86 N 0.6199 0.85952 0.26489 0.0
C87 C 0.62584 0.82384 0.26234 0.0
C88 C 0.66805 0.83722 0.23982 0.0
C89 C 0.73209 0.91525 0.20904 0.0
H90 H 0.73285 0.93666 0.17084 0.0
H91 H 0.74865 0.93721 0.24883 0.0
H92 H 0.75058 0.89798 0.19604 0.0
O93 O 0.60367 0.9554 0.23629 0.0
O94 O 0.55716 0.90027 0.29666 0.0
H95 H 0.56093 0.77309 0.2935 0.0
H96 H 0.59561 0.75215 0.2653 0.0
C97 C 0.59554 0.77952 0.29163 0.0
H98 H 0.60782 0.77888 0.33795 0.0
H99 H 0.48871 0.81434 0.32382 0.0
O100 O 0.70621 0.99831 0.18967 0.0
C101 C 0.56569 0.93292 0.2621 0.0
Co102 Co 0.72185 0.65199 0.41783 0.0
Co103 Co 0.73137 0.5798 0.49381 0.0
C104 C 0.7271 0.65702 0.55295 0.0
O105 O 0.72271 0.67265 0.50236 0.0
O106 O 0.73098 0.6222 0.55486 0.0
C107 C 0.73305 0.73658 0.3712 0.0
O108 O 0.74953 0.75159 0.42561 0.0
C109 C 0.76747 0.54298 0.58279 0.0
C110 C 0.72769 0.47033 0.56361 0.0
C111 C 0.75956 0.5014 0.60265 0.0
N112 N 0.7415 0.53681 0.53424 0.0
N113 N 0.71832 0.49337 0.52238 0.0
C114 C 0.79617 0.58747 0.61287 0.0
H115 H 0.79392 0.61455 0.58916 0.0
H116 H 0.83157 0.59627 0.61171 0.0
H117 H 0.78655 0.58556 0.66139 0.0
C118 C 0.8166 0.67804 0.39496 0.0
N119 N 0.77415 0.64647 0.40829 0.0
N120 N 0.77462 0.61179 0.43255 0.0
C121 C 0.81648 0.61882 0.43038 0.0
C122 C 0.84523 0.66199 0.4099 0.0
C123 C 0.8304 0.72555 0.37996 0.0
H124 H 0.81099 0.72622 0.34022 0.0
H125 H 0.82276 0.74085 0.41909 0.0
H126 H 0.86659 0.74544 0.36959 0.0
O127 O 0.66245 0.59408 0.40675 0.0
O128 O 0.67105 0.54591 0.46357 0.0
H129 H 0.80281 0.55306 0.45747 0.0
H130 H 0.85858 0.58983 0.43051 0.0
C131 C 0.83072 0.58816 0.4574 0.0
H132 H 0.84327 0.59923 0.50417 0.0
H133 H 0.69465 0.47925 0.48772 0.0
O134 O 0.72098 0.6961 0.35799 0.0
C135 C 0.64697 0.55523 0.43041 0.0
Co136 Co 0.0841 0.71567 0.58192 0.0
Co137 Co 0.16189 0.7236 0.66527 0.0
C138 C 0.08051 0.71902 0.7188 0.0
O139 O 0.06275 0.71433 0.66642 0.0
O140 O 0.11933 0.72404 0.72477 0.0
C141 C 1.0124 0.72933 0.53954 0.0
O142 O 1.01716 0.7469 0.59394 0.0
C143 C 0.22505 0.74016 0.76307 0.0
C144 C 0.28144 0.74051 0.71589 0.0
C145 C 0.2674 0.74685 0.77194 0.0
N146 N 0.21442 0.7311 0.70423 0.0
N147 N 0.2477 0.72998 0.67643 0.0
C148 C 0.19543 0.74333 0.8098 0.0
H149 H 0.16291 0.71162 0.80979 0.0
H150 H 0.18965 0.77125 0.79775 0.0
H151 H 0.20985 0.74883 0.85624 0.0
C152 C 0.1549 0.81108 0.55951 0.0
N153 N 0.14261 0.76853 0.57574 0.0
N154 N 0.17547 0.76948 0.60716 0.0
C155 C 0.2098 0.81198 0.61001 0.0
C156 C 0.19797 0.84014 0.58068 0.0
C157 C 0.12318 0.82473 0.53537 0.0
H158 H 0.10288 0.80172 0.49824 0.0
H159 H 0.10035 0.82229 0.57241 0.0
H160 H 0.14133 0.85974 0.51819 0.0
O161 O 0.08222 0.65639 0.56836 0.0
O162 O 0.13453 0.66383 0.63276 0.0
H163 H 0.26692 0.80969 0.64165 0.0
H164 H 0.2718 0.86351 0.65104 0.0
C165 C 0.24824 0.8269 0.65312 0.0
H166 H 0.23543 0.81799 0.70028 0.0
H167 H 0.24814 0.72388 0.63 0.0
O168 O 0.03917 0.71607 0.52342 0.0
C169 C 0.10358 0.64034 0.59576 0.0
Co170 Co 0.38639 0.07894 0.74843 0.0
Co171 Co 0.4612 0.15592 0.82963 0.0
C172 C 0.387 0.07058 0.88306 0.0
O173 O 0.36731 0.05394 0.83263 0.0
O174 O 0.42266 0.10839 0.88605 0.0
C175 C 0.29999 1.0094 0.70128 0.0
O176 O 0.28571 1.01183 0.75573 0.0
C177 C 0.51443 0.20278 0.93398 0.0
C178 C 0.54475 0.27414 0.90964 0.0
C179 C 0.53779 0.2455 0.95801 0.0
N180 N 0.50521 0.20561 0.8755 0.0
N181 N 0.52569 0.24845 0.86006 0.0
C182 C 0.50349 0.15992 0.96546 0.0
H183 H 0.50848 0.138 0.93339 0.0
H184 H 0.46819 0.14192 0.98009 0.0
H185 H 0.52486 0.16652 0.00625 0.0
C186 C 0.36266 0.15068 0.73264 0.0
N187 N 0.39278 0.13821 0.74756 0.0
N188 N 0.4235 0.16952 0.78275 0.0
C189 C 0.41295 0.20167 0.79281 0.0
C190 C 0.37473 0.19156 0.76036 0.0
C191 C 0.3195 0.12084 0.70107 0.0
H192 H 0.32523 0.10404 0.66199 0.0
H193 H 0.29645 0.09466 0.73327 0.0
H194 H 0.30381 0.14022 0.68495 0.0
O195 O 0.44318 0.07722 0.73093 0.0
O196 O 0.49401 0.13382 0.78573 0.0
H197 H 0.4604 0.26552 0.82987 0.0
H198 H 0.40617 0.24289 0.8623 0.0
C199 C 0.43079 0.23401 0.84515 0.0
H200 H 0.43972 0.2193 0.88362 0.0
H201 H 0.5243 0.26016 0.8168 0.0
O202 O 0.34074 0.03622 0.68806 0.0
C203 C 0.48304 0.10103 0.75043 0.0
Co204 Co 0.66519 0.71379 0.90824 0.0
Co205 Co 0.59893 0.71868 0.81487 0.0
C206 C 0.67699 0.71173 0.77293 0.0
O207 O 0.68867 0.70885 0.8271 0.0
O208 O 0.64365 0.71671 0.76255 0.0
C209 C 0.7497 0.73273 0.96322 0.0
O210 O 0.7667 0.75419 0.91192 0.0
C211 C 0.56001 0.73414 0.70665 0.0
C212 C 0.4912 0.71216 0.73658 0.0
C213 C 0.51901 0.72646 0.68637 0.0
N214 N 0.55663 0.72401 0.76602 0.0
N215 N 0.51548 0.71111 0.78384 0.0
C216 C 0.60202 0.75155 0.67038 0.0
H217 H 0.63147 0.77205 0.69959 0.0
H218 H 0.60227 0.77224 0.63148 0.0
H219 H 0.60433 0.72276 0.65236 0.0
C220 C 0.68592 0.80943 0.92541 0.0
N221 N 0.65873 0.76658 0.90722 0.0
N222 N 0.6278 0.76586 0.87156 0.0
C223 C 0.63336 0.8073 0.86763 0.0
C224 C 0.67093 0.83684 0.90056 0.0
C225 C 0.72914 0.82503 0.95784 0.0
H226 H 0.7244 0.80161 -0.00447 0.0
H227 H 0.75376 0.82513 0.92559 0.0
H228 H 0.74237 0.85944 0.97602 0.0
O229 O 0.60683 0.65538 0.92285 0.0
O230 O 0.56445 0.66023 0.85146 0.0
H231 H 0.57275 0.79651 0.82647 0.0
H232 H 0.61556 0.85452 0.82995 0.0
C233 C 0.6091 0.82 0.82259 0.0
H234 H 0.61991 0.81778 0.77591 0.0
H235 H 0.50361 0.70026 0.82784 0.0
O236 O 0.70798 0.71573 0.97228 0.0
C237 C 0.57026 0.63841 0.89314 0.0
Co238 Co 0.96605 0.65354 0.07391 0.0
Co239 Co 0.89357 0.58556 0.98282 0.0
C240 C 0.97564 0.66587 0.9379 0.0
O241 O 0.99195 0.67796 -0.0087 0.0
O242 O 0.93778 0.63118 0.92931 0.0
C243 C 0.03221 0.73937 0.12754 0.0
O244 O 0.02704 0.75641 0.07675 0.0
C245 C 0.85346 0.53268 0.87648 0.0
C246 C 0.78141 0.49536 0.89576 0.0
C247 C 0.81231 0.50414 0.84981 0.0
N248 N 0.84674 0.54212 0.93329 0.0
N249 N 0.80379 0.51802 0.94578 0.0
C250 C 0.899 0.54636 0.85256 0.0
H251 H 0.92172 0.55046 0.8907 0.0
H252 H 0.91302 0.5791 0.82901 0.0
H253 H 0.89768 0.52089 0.82046 0.0
C254 C 0.89194 0.67309 0.09643 0.0
N255 N 0.90629 0.64541 0.07618 0.0
N256 N 0.87621 0.61636 0.03802 0.0
C257 C 0.84285 0.62549 0.03185 0.0
C258 C 0.85103 0.66104 0.06954 0.0
C259 C 0.92003 0.71484 0.13215 0.0
H260 H 0.9393 0.7086 0.16721 0.0
H261 H 0.94375 0.74146 0.10096 0.0
H262 H 0.89901 0.72666 0.15422 0.0
O263 O 0.96851 0.59639 0.08722 0.0
O264 O 0.9195 0.55259 0.01833 0.0
H265 H 0.78004 0.57853 -0.00774 0.0
H266 H 0.80094 0.63452 0.96606 0.0
C267 C 0.81087 0.60972 0.97917 0.0
H268 H 0.82612 0.60365 0.93877 0.0
H269 H 0.78971 0.51757 0.98784 0.0
O270 O 1.00788 0.69732 0.13657 0.0
C271 C 0.94874 0.55956 0.05788 0.0
Co272 Co 0.3292 0.95822 0.24249 0.0
Co273 Co 0.32515 0.88526 0.15171 0.0
C274 C 0.33384 0.97069 0.1071 0.0
O275 O 0.33553 0.98644 0.16018 0.0
O276 O 0.32955 0.93235 0.09898 0.0
C277 C 0.30974 0.02456 0.29403 0.0
O278 O 0.28966 0.02005 0.24158 0.0
C279 C 0.33745 0.84669 0.04354 0.0
C280 C 0.29851 0.77366 0.05847 0.0
C281 C 0.32209 0.80592 0.01441 0.0
N282 N 0.32113 0.83892 0.10034 0.0
N283 N 0.29985 0.79523 0.11021 0.0
C284 C 0.37305 0.89198 0.02184 0.0
H285 H 0.39618 0.91032 0.05984 0.0
H286 H 0.35812 0.91224 0.00701 0.0
H287 H 0.39208 0.88891 0.98337 0.0
C288 C 0.23413 0.88439 0.26065 0.0
N289 N 0.27631 0.8987 0.24145 0.0
N290 N 0.27529 0.86866 0.20325 0.0
C291 C 0.23269 0.83546 0.19584 0.0
C292 C 0.20525 0.84357 0.23296 0.0
C293 C 0.22066 0.91218 0.29707 0.0
H294 H 0.2189 0.93691 0.26662 0.0
H295 H 0.18737 0.89087 0.31802 0.0
H296 H 0.24575 0.93059 0.33305 0.0
O297 O 0.38735 0.95882 0.25871 0.0
O298 O 0.38209 0.90857 0.19159 0.0
H299 H 0.21576 0.77215 0.15648 0.0
H300 H 0.18253 0.79441 0.12862 0.0
C301 C 0.21674 0.80358 0.14296 0.0
H302 H 0.23893 0.81882 0.10325 0.0
H303 H 0.28526 0.78012 0.15154 0.0
O304 O 0.3265 0.99978 0.30495 0.0
C305 C 0.40389 0.93784 0.23155 0.0
Co306 Co 0.3833 0.31957 0.41197 0.0
Co307 Co 0.45155 0.31514 0.32174 0.0
C308 C 0.37319 0.31906 0.27519 0.0
O309 O 0.36168 0.32359 0.32875 0.0
O310 O 0.40673 0.31417 0.26602 0.0
C311 C 0.29702 0.29928 0.46211 0.0
O312 O 0.28151 0.2779 0.41041 0.0
C313 C 0.50154 0.31165 0.21788 0.0
C314 C 0.54958 0.2952 0.25906 0.0
C315 C 0.53402 0.30113 0.20383 0.0
N316 N 0.49676 0.31057 0.2784 0.0
N317 N 0.52697 0.30268 0.30304 0.0
C318 C 0.47385 0.32033 0.17378 0.0
H319 H 0.47093 0.34933 0.18932 0.0
H320 H 0.44009 0.2904 0.17194 0.0
H321 H 0.48854 0.32723 0.12741 0.0
C322 C 0.36222 0.22433 0.43142 0.0
N323 N 0.39018 0.26709 0.41333 0.0
N324 N 0.42073 0.26719 0.3775 0.0
C325 C 0.41324 0.22504 0.37198 0.0
C326 C 0.37606 0.19628 0.4061 0.0
C327 C 0.31894 0.20929 0.46325 0.0
H328 H 0.32321 0.23386 0.49891 0.0
H329 H 0.29401 0.20716 0.42975 0.0
H330 H 0.30635 0.1757 0.48405 0.0
O331 O 0.44064 0.37826 0.42825 0.0
O332 O 0.48366 0.3741 0.35741 0.0
H333 H 0.46858 0.22118 0.33666 0.0
H334 H 0.41591 0.17408 0.3162 0.0
C335 C 0.43395 0.21086 0.32332 0.0
H336 H 0.4344 0.22713 0.27961 0.0
H337 H 0.53049 0.29997 0.34979 0.0
O338 O 0.33863 0.31724 0.47303 0.0
C339 C 0.47708 0.39574 0.3984 0.0
Co340 Co 0.07929 0.37829 0.5795 0.0
Co341 Co 0.14783 0.44376 0.48251 0.0
C342 C 0.06278 0.36536 0.44412 0.0
O343 O 0.0491 0.3541 0.49874 0.0
O344 O 0.1009 0.39873 0.43237 0.0
C345 C 1.01649 0.29258 0.63372 0.0
O346 O 1.0223 0.27687 0.58224 0.0
C347 C 0.18478 0.49517 0.37379 0.0
C348 C 0.2575 0.5303 0.3883 0.0
C349 C 0.22522 0.52207 0.34464 0.0
N350 N 0.19305 0.48585 0.42994 0.0
N351 N 0.23648 0.50862 0.43953 0.0
C352 C 0.1392 0.48478 0.35392 0.0
H353 H 0.12091 0.48781 0.39329 0.0
H354 H 0.11976 0.44963 0.33787 0.0
H355 H 0.14115 0.5079 0.31728 0.0
C356 C 0.15401 0.35837 0.59647 0.0
N357 N 0.13856 0.3852 0.57632 0.0
N358 N 0.16653 0.41263 0.53486 0.0
C359 C 0.19913 0.40283 0.52575 0.0
C360 C 0.19316 0.36901 0.56542 0.0
C361 C 0.12881 0.31924 0.63801 0.0
H362 H 0.11148 0.32761 0.67354 0.0
H363 H 0.10348 0.29035 0.61132 0.0
H364 H 0.1516 0.30943 0.65963 0.0
O365 O 0.07887 0.43605 0.59478 0.0
O366 O 0.12446 0.4778 0.52131 0.0
H367 H 0.26018 0.44631 0.4793 0.0
H368 H 0.23469 0.38931 0.45515 0.0
C369 C 0.22767 0.41593 0.46961 0.0
H370 H 0.2109 0.42229 0.43122 0.0
H371 H 0.25178 0.5087 0.48048 0.0
O372 O 0.03942 0.33464 0.64346 0.0
C373 C 0.09757 0.47216 0.56371 0.0
Co374 Co 0.71767 0.07493 0.73764 0.0
Co375 Co 0.72607 0.14642 0.64128 0.0
C376 C 0.71851 0.06133 0.60132 0.0
O377 O 0.71384 0.04687 0.65591 0.0
O378 O 0.72482 0.10016 0.58962 0.0
C379 C 0.73743 1.00956 0.78849 0.0
O380 O 0.75854 0.01643 0.73647 0.0
C381 C 0.7146 0.18718 0.53439 0.0
C382 C 0.75201 0.25972 0.55296 0.0
C383 C 0.72817 0.22869 0.50757 0.0
N384 N 0.73157 0.1938 0.59077 0.0
N385 N 0.75224 0.23712 0.6028 0.0
C386 C 0.68173 0.14145 0.51099 0.0
H387 H 0.66325 0.11881 0.54946 0.0
H388 H 0.6997 0.12701 0.4869 0.0
H389 H 0.65742 0.14298 0.47961 0.0
C390 C 0.81206 0.14873 0.76121 0.0
N391 N 0.77075 0.13415 0.73818 0.0
N392 N 0.77354 0.16332 0.69694 0.0
C393 C 0.81644 0.19596 0.69094 0.0
C394 C 0.84227 0.18863 0.73235 0.0
C395 C 0.82358 0.12199 0.80327 0.0
H396 H 0.79681 0.10465 0.8376 0.0
H397 H 0.82655 0.0963 0.77672 0.0
H398 H 0.85588 0.14388 0.82639 0.0
O399 O 0.65973 0.0751 0.75005 0.0
O400 O 0.66776 0.1228 0.67725 0.0
H401 H 0.83738 0.25879 0.64668 0.0
H402 H 0.86803 0.2325 0.62336 0.0
C403 C 0.83436 0.22597 0.63616 0.0
H404 H 0.81223 0.21054 0.59641 0.0
H405 H 0.76695 0.25127 0.64443 0.0
O406 O 0.71923 0.03287 0.80043 0.0
C407 C 0.64439 0.09535 0.71832 0.0
C408 C 0.27677 0.56819 0.26142 0.0
C409 C 0.2349 0.53195 0.27873 0.0
C410 C 0.29315 0.57158 0.20216 0.0
C411 C 0.26769 0.53932 0.15828 0.0
H412 H 0.29858 0.59211 0.29511 0.0
H413 H 0.32724 0.5971 0.1923 0.0
S414 S 0.15405 0.44207 0.17532 0.0
N415 N 0.16754 0.46483 0.24362 0.0
N416 N 0.19665 0.47495 0.13142 0.0
C417 C 0.22384 0.50663 0.17224 0.0
C418 C 0.20783 0.50174 0.23295 0.0
C419 C 0.73106 0.2211 0.33544 0.0
C420 C 0.74976 0.26599 0.31799 0.0
C421 C 0.72144 0.20844 0.3963 0.0
C422 C 0.72772 0.23978 0.44199 0.0
H423 H 0.72687 0.19596 0.30249 0.0
H424 H 0.71252 0.17451 0.40663 0.0
S425 S 0.76484 0.35999 0.41588 0.0
N426 N 0.76767 0.34093 0.34811 0.0
N427 N 0.74592 0.31661 0.46243 0.0
C428 C 0.74079 0.28386 0.42329 0.0
C429 C 0.75223 0.29704 0.36125 0.0
C430 C 0.51648 0.72183 0.51523 0.0
C431 C 0.49976 0.75012 0.50031 0.0
C432 C 0.51974 0.71173 0.57592 0.0
C433 C 0.50689 0.73013 0.62337 0.0
H434 H 0.52935 0.70946 0.47998 0.0
H435 H 0.53438 0.69113 0.58587 0.0
S436 S 0.45654 0.80212 0.6074 0.0
N437 N 0.46638 0.79305 0.53679 0.0
N438 N 0.4728 0.77416 0.65149 0.0
C439 C 0.48681 0.7555 0.60884 0.0
C440 C 0.48328 0.76561 0.54692 0.0
C441 C 0.8192 0.51941 0.67838 0.0
C442 C 0.77474 0.49213 0.66071 0.0
C443 C 0.832 0.5213 0.73893 0.0
C444 C 0.80132 0.49408 0.784 0.0
H445 H 0.84387 0.54174 0.64595 0.0
H446 H 0.86542 0.54697 0.74972 0.0
S447 S 0.68276 0.40814 0.75671 0.0
N448 N 0.7011 0.43217 0.68972 0.0
N449 N 0.72583 0.43284 0.80335 0.0
C450 C 0.75784 0.46235 0.76488 0.0
C451 C 0.74446 0.46167 0.7032 0.0
C452 C 0.30388 0.74231 0.86707 0.0
C453 C 0.29479 0.76785 0.82605 0.0
C454 C 0.31644 0.75688 0.92726 0.0
C455 C 0.31956 0.79698 0.94812 0.0
H456 H 0.29803 0.70951 0.85397 0.0
H457 H 0.32096 0.73523 0.95865 0.0
S458 S 0.2998 0.87576 0.85519 0.0
N459 N 0.29335 0.83624 0.80724 0.0
N460 N 0.31209 0.86158 0.92101 0.0
C461 C 0.31255 0.82367 0.90585 0.0
C462 C 0.30156 0.80962 0.84443 0.0
C463 C 0.57717 0.29248 0.04927 0.0
C464 C 0.53859 0.25707 0.02277 0.0
C465 C 0.57673 0.3055 0.1098 0.0
C466 C 0.53771 0.28328 0.1449 0.0
H467 H 0.60741 0.3107 0.02273 0.0
H468 H 0.60634 0.334 0.1284 0.0
S469 S 0.42784 0.18962 0.0966 0.0
N470 N 0.45976 0.20213 0.03578 0.0
N471 N 0.46046 0.22356 0.15041 0.0
C472 C 0.49958 0.247 0.11955 0.0
C473 C 0.49954 0.23476 0.05803 0.0
C474 C 0.34797 0.28307 0.78805 0.0
C475 C 0.31541 0.26447 0.83422 0.0
C476 C 0.36367 0.25748 0.75873 0.0
C477 C 0.34694 0.21214 0.77359 0.0
H478 H 0.36376 0.31844 0.77728 0.0
H479 H 0.39148 0.27415 0.72752 0.0
S480 S 0.25746 0.14552 0.88481 0.0
N481 N 0.26357 0.19613 0.88824 0.0
N482 N 0.29346 0.14858 0.83322 0.0
C483 C 0.31187 0.19211 0.81571 0.0
C484 C 0.29602 0.21814 0.84599 0.0
C485 C 0.12864 0.36455 0.88474 0.0
C486 C 0.15632 0.355 0.92074 0.0
C487 C 0.08547 0.35289 0.9042 0.0
C488 C 0.06863 0.33192 0.961 0.0
H489 H 0.14144 0.38359 0.84305 0.0
H490 H 0.06621 0.36268 0.87589 0.0
S491 S 0.12767 0.2971 0.06997 0.0
N492 N 0.16339 0.32107 0.01356 0.0
N493 N 0.08271 0.29916 0.05063 0.0
C494 C 0.09535 0.31995 -0.00433 0.0
C495 C 0.13906 0.33154 0.97546 0.0
C496 C 0.84518 0.13695 0.15251 0.0
C497 C 0.83042 0.14574 0.09737 0.0
C498 C 0.81885 0.097 0.18482 0.0
C499 C 0.77639 0.06418 0.16362 0.0
H500 H 0.876 0.16248 0.17298 0.0
H501 H 0.83107 0.09303 0.22842 0.0
S502 S 0.72546 0.06879 0.01678 0.0
N503 N 0.77314 0.11681 0.01949 0.0
N504 N 0.72334 0.04156 0.07979 0.0
C505 C 0.76272 0.0713 0.10617 0.0
C506 C 0.78976 0.11211 0.07326 0.0
C507 C 0.73473 0.80861 0.34754 0.0
C508 C 0.72378 0.76508 0.32919 0.0
C509 C 0.72017 0.83374 0.31456 0.0
C510 C 0.69423 0.81657 0.26164 0.0
H511 H 0.75276 0.82266 0.38955 0.0
H512 H 0.72662 0.86556 0.33303 0.0
S513 S 0.66175 0.70772 0.18845 0.0
N514 N 0.68947 0.70827 0.24999 0.0
N515 N 0.66203 0.75575 0.18862 0.0
C516 C 0.68579 0.77473 0.24011 0.0
C517 C 0.70064 0.74897 0.27363 0.0
C518 C 0.96579 0.69765 0.44455 0.0
C519 C 0.97296 0.71977 0.50102 0.0
C520 C 0.92564 0.68222 0.41205 0.0
C521 C 0.89136 0.68875 0.43437 0.0
H522 H 0.99045 0.69027 0.42656 0.0
H523 H 0.92043 0.66296 0.37087 0.0
S524 S 0.89343 0.74624 0.57786 0.0
N525 N 0.94244 0.74926 0.57576 0.0
N526 N 0.86743 0.71978 0.51509 0.0
C527 C 0.89886 0.71267 0.48898 0.0
C528 C 0.93953 0.72833 0.52212 0.0
C529 C 0.22654 0.94047 0.67826 0.0
C530 C 0.27052 0.97143 0.65998 0.0
C531 C 0.20079 0.89969 0.64745 0.0
C532 C 0.21786 0.88825 0.59697 0.0
H533 H 0.2127 0.94638 0.719 0.0
H534 H 0.16873 0.87538 0.66632 0.0
S535 S 0.32764 0.95971 0.52414 0.0
N536 N 0.32743 0.98973 0.58254 0.0
N537 N 0.27897 0.91271 0.52566 0.0
C538 C 0.25997 0.92027 0.57484 0.0
C539 C 0.28631 0.96195 0.60604 0.0
C540 C 0.84927 0.72553 0.02131 0.0
C541 C 0.82954 0.68861 0.06102 0.0
C542 C 0.82375 0.74187 -0.00661 0.0
C543 C 0.77752 0.72198 0.00421 0.0
H544 H 0.88367 0.73923 0.00745 0.0
H545 H 0.83992 0.76845 0.96008 0.0
S546 S 0.71205 0.629 0.1128 0.0
N547 N 0.76274 0.63596 0.11543 0.0
N548 N 0.71479 0.66707 0.06455 0.0
C549 C 0.75854 0.68787 0.04863 0.0
C550 C 0.78454 0.67105 0.07654 0.0
C551 C 0.09661 0.81438 0.15799 0.0
C552 C 0.07088 0.76773 0.16822 0.0
C553 C 0.13845 0.84062 0.18582 0.0
C554 C 0.15617 0.82119 0.22482 0.0
H555 H 0.08573 0.8304 0.12525 0.0
H556 H 0.15872 0.87543 0.17241 0.0
S557 S 0.10018 0.70259 0.2745 0.0
N558 N 0.06436 0.70475 0.22699 0.0
N559 N 0.14329 0.75409 0.27775 0.0
C560 C 0.12935 0.77568 0.23971 0.0
C561 C 0.08661 0.74893 0.21187 0.0
C562 C 0.3009 0.09057 0.32013 0.0
C563 C 0.31872 0.06288 0.33487 0.0
C564 C 0.31583 0.132 0.34914 0.0
C565 C 0.3491 0.14736 0.39412 0.0
H566 H 0.2772 0.08161 0.2832 0.0
H567 H 0.30402 0.15381 0.33262 0.0
S568 S 0.40171 0.0854 0.45686 0.0
N569 N 0.36746 0.0518 0.40381 0.0
N570 N 0.39585 0.13004 0.45708 0.0
C571 C 0.36435 0.11856 0.41315 0.0
C572 C 0.34905 0.0762 0.38392 0.0
C573 C 0.28736 0.34645 0.54108 0.0
C574 C 0.26801 0.30922 0.50157 0.0
C575 C 0.26159 0.36283 0.56799 0.0
C576 C 0.21542 0.34212 0.55755 0.0
H577 H 0.32315 0.36526 0.54761 0.0
H578 H 0.27846 0.39397 0.59327 0.0
S579 S 0.1473 0.23983 0.46589 0.0
N580 N 0.19867 0.24899 0.45966 0.0
N581 N 0.15067 0.27997 0.51037 0.0
C582 C 0.19503 0.30259 0.52294 0.0
C583 C 0.22123 0.28611 0.49492 0.0
C584 C 0.95993 0.28259 0.71281 0.0
C585 C 0.97772 0.26328 0.67347 0.0
C586 C 0.91741 0.25665 0.73877 0.0
C587 C 0.89149 0.21038 0.72739 0.0
H588 H 0.97718 0.31854 0.71963 0.0
H589 H 0.90315 0.27357 0.76357 0.0
S590 S 0.92563 0.14211 0.63696 0.0
N591 N 0.96836 0.19373 0.63169 0.0
N592 N 0.8886 0.1454 0.68048 0.0
C593 C 0.91069 0.18991 0.69356 0.0
C594 C 0.95378 0.21628 0.66658 0.0
C595 C 0.69705 0.95597 0.87475 0.0
C596 C 0.7288 0.97041 0.82743 0.0
C597 C 0.68158 0.9142 0.90343 0.0
C598 C 0.69751 0.88551 0.88628 0.0
H599 H 0.68184 0.97563 0.88711 0.0
H600 H 0.65459 0.90283 0.936 0.0
S601 S 0.78517 0.90973 0.77184 0.0
N602 N 0.7795 0.95446 0.77051 0.0
N603 N 0.74967 0.87605 0.82365 0.0
C604 C 0.73181 0.90106 0.84296 0.0
C605 C 0.74763 0.94347 0.81373 0.0
C606 C 0.32654 0.3718 0.17033 0.0
C607 C 0.32749 0.35399 0.11298 0.0
C608 C 0.33811 0.35781 0.22362 0.0
C609 C 0.35113 0.32538 0.2217 0.0
H610 H 0.3188 0.39828 0.17422 0.0
H611 H 0.33956 0.37459 0.26595 0.0
S612 S 0.3497 0.26062 0.08625 0.0
N613 N 0.33594 0.2968 0.05953 0.0
N614 N 0.35702 0.27015 0.16017 0.0
C615 C 0.34829 0.3042 0.16591 0.0
C616 C 0.33656 0.3185 0.11145 0.0
C617 C 0.02832 0.33081 0.28181 0.0
C618 C 0.98308 0.31878 0.28162 0.0
C619 C 0.053 0.34266 0.3357 0.0
C620 C 0.03343 0.34252 0.39178 0.0
H621 H 0.04564 0.33335 0.23968 0.0
H622 H 0.08831 0.35405 0.33296 0.0
S623 S 0.91492 0.30792 0.41803 0.0
N624 N 0.91864 0.30317 0.34379 0.0
N625 N 0.96536 0.32515 0.44528 0.0
C626 C 0.98756 0.32723 0.39331 0.0
C627 C 0.96232 0.31552 0.33815 0.0
C628 C 0.71575 0.02495 0.43869 0.0
C629 C 0.68651 0.97833 0.44135 0.0
C630 C 0.72833 0.05112 0.49142 0.0
C631 C 0.7125 0.03179 0.54909 0.0
H632 H 0.72714 0.04191 0.39532 0.0
H633 H 0.74907 0.08713 0.48653 0.0
S634 S 0.64168 0.91043 0.58233 0.0
N635 N 0.64691 0.91327 0.50753 0.0
N636 N 0.67072 0.96265 0.60668 0.0
C637 C 0.68654 0.98488 0.55315 0.0
C638 C 0.67344 0.95813 0.49926 0.0
C639 C 0.70903 0.70879 0.60951 0.0
C640 C 0.72296 0.67688 0.61089 0.0
C641 C 0.69722 0.72229 0.66296 0.0
C642 C 0.69908 0.70472 0.72 0.0
H643 H 0.705 0.72188 0.56662 0.0
H644 H 0.6849 0.74547 0.65921 0.0
S645 S 0.74029 0.62603 0.75013 0.0
N646 N 0.74317 0.63235 0.67549 0.0
N647 N 0.72101 0.65799 0.77575 0.0
C648 C 0.71655 0.67584 0.72282 0.0
C649 C 0.72836 0.66178 0.6683 0.0
C650 C 0.07449 0.72173 0.8322 0.0
C651 C 0.05414 0.71413 0.77446 0.0
C652 C 0.0492 0.70929 0.88577 0.0
C653 C 1.00258 0.6889 0.88355 0.0
H654 H 0.11008 0.73557 0.83627 0.0
H655 H 0.06608 0.71309 0.92876 0.0
S656 S 0.93367 0.67072 0.74543 0.0
N657 N 0.98491 0.69124 0.71938 0.0
N658 N 0.93762 0.66875 0.82012 0.0
C659 C 0.98219 0.68529 0.82674 0.0
C660 C 1.00789 0.69775 0.77216 0.0
C661 C 0.31656 1.00571 0.01919 0.0
C662 C 0.34751 1.00007 0.05382 0.0
C663 C 0.3288 0.02775 0.96249 0.0
C664 C 0.37209 0.04417 0.93941 0.0
H665 H 0.28271 0.99228 0.03537 0.0
H666 H 0.30463 0.03231 0.93697 0.0
S667 S 0.46337 0.03386 0.01085 0.0
N668 N 0.42196 1.01056 0.06017 0.0
N669 N 0.44456 0.0507 0.95357 0.0
C670 C 0.40271 0.0378 0.97342 0.0
C671 C 0.39049 1.01601 0.03075 0.0
C672 C 0.5065 0.56663 0.85517 0.0
C673 C 0.5329 0.59241 0.90477 0.0
C674 C 0.46575 0.52682 0.86407 0.0
C675 C 0.44961 0.51191 0.92296 0.0
H676 H 0.51654 0.5784 0.80895 0.0
H677 H 0.44544 0.50944 0.82484 0.0
S678 S 0.50791 0.56394 0.06786 0.0
N679 N 0.54188 0.59749 0.01451 0.0
N680 N 0.46478 0.52328 0.03161 0.0
C681 C 0.47692 0.53574 0.97283 0.0
C682 C 0.51879 0.57581 0.96368 0.0
C683 C 0.95357 0.46354 0.13277 0.0
C684 C 0.95628 0.43965 0.08233 0.0
C685 C 0.95539 0.50489 0.12562 0.0
C686 C 0.95906 0.52328 0.06755 0.0
H687 H 0.94788 0.44905 0.17797 0.0
H688 H 0.95057 0.52077 0.1651 0.0
S689 S 0.97201 0.47669 0.92167 0.0
N690 N 0.9671 0.43962 0.97334 0.0
N691 N 0.9695 0.5168 0.9593 0.0
C692 C 0.96467 0.50118 0.01724 0.0
C693 C 0.96361 0.45949 0.02473 0.0
C694 C 0.50224 0.93843 0.30562 0.0
C695 C 0.53015 0.94451 0.25531 0.0
C696 C 0.46306 0.94055 0.29929 0.0
C697 C 0.45016 0.94823 0.2422 0.0
H698 H 0.50974 0.92994 0.34989 0.0
H699 H 0.44126 0.93296 0.33823 0.0
S700 S 0.51339 0.97098 0.09765 0.0
N701 N 0.54399 0.96272 0.14796 0.0
N702 N 0.46994 0.96585 0.13553 0.0
C703 C 0.47914 0.95724 0.19243 0.0
C704 C 0.51934 0.95573 0.19909 0.0
C705 C 0.53527 0.45283 0.46662 0.0
C706 C 0.51383 0.44177 0.40997 0.0
C707 C 0.57757 0.49112 0.47316 0.0
C708 C 0.59956 0.51999 0.42354 0.0
H709 H 0.52087 0.43014 0.50485 0.0
H710 H 0.59402 0.4972 0.51696 0.0
S711 S 0.55467 0.50817 0.26749 0.0
N712 N 0.51566 0.46421 0.30456 0.0
N713 N 0.59464 0.53687 0.31754 0.0
C714 C 0.57686 0.51109 0.36794 0.0
C715 C 0.53414 0.4717 0.36099 0.0
C716 C 0.09774 0.57057 0.63831 0.0
C717 C 0.09244 0.59317 0.5881 0.0
C718 C 0.09537 0.52898 0.63158 0.0
C719 C 0.08823 0.50891 0.5742 0.0
H720 H 0.10565 0.58607 0.6829 0.0
H721 H 0.10224 0.51411 0.67055 0.0
S722 S 0.06677 0.55106 0.42986 0.0
N723 N 0.07515 0.58989 0.48053 0.0
N724 N 0.07129 0.51201 0.46742 0.0
C725 C 0.07985 0.52956 0.52448 0.0
C726 C 0.08169 0.57161 0.53152 0.0
C727 C 0.57667 0.09345 0.67581 0.0
C728 C 0.59847 0.08734 0.72628 0.0
C729 C 0.5366 0.09377 0.68245 0.0
C730 C 0.5171 0.08823 0.73986 0.0
H731 H 0.59169 0.09993 0.63099 0.0
H732 H 0.5225 0.10135 0.64329 0.0
S733 S 0.55754 0.06645 0.88526 0.0
N734 N 0.59496 0.07159 0.83452 0.0
N735 N 0.51998 0.07285 0.84726 0.0
C736 C 0.53685 0.07926 0.78996 0.0
C737 C 0.57741 0.07848 0.78312 0.0
loop_
_geom_bond_atom_site_label_1
_geom_bond_atom_site_label_2
_geom_bond_distance
_geom_bond_site_symmetry_2
_ccdc_geom_bond_type
Co0 O3 1.970 1_556 S
Co0 N17 1.989 . S
Co0 O25 1.967 . S
Co0 O32 1.920 . S
Co1 O4 1.966 . S
Co1 N10 2.022 . S
Co1 N18 1.993 1_554 S
Co1 O26 1.941 1_554 S
C2 O3 1.258 . S
C2 O4 1.263 . S
O3 Co0 1.970 1_554 S
O3 C2 1.258 . S
O4 Co1 1.966 . S
O4 C2 1.263 . S
C5 O6 1.235 . S
C5 O32 1.289 . S
O6 C5 1.235 . S
C7 C9 1.400 . S
C7 N10 1.351 . S
C7 C12 1.501 . S
C8 C9 1.387 . S
C8 N11 1.341 . S
C9 C7 1.400 . S
C9 C8 1.387 . S
N10 Co1 2.022 . S
N10 C7 1.351 . S
N10 N11 1.365 . S
N11 C8 1.341 . S
N11 N10 1.365 . S
N11 H31 0.862 . S
C12 C7 1.501 . S
C12 H13 0.961 . S
C12 H14 0.961 . S
C12 H15 0.960 . S
H13 C12 0.961 . S
H14 C12 0.961 . S
H15 C12 0.960 . S
C16 N17 1.342 . S
C16 C20 1.401 . S
C16 C21 1.499 . S
N17 Co0 1.989 . S
N17 C16 1.342 . S
N17 N18 1.388 . S
N18 Co1 1.993 1_556 S
N18 N17 1.388 . S
N18 C19 1.346 . S
C19 N18 1.346 . S
C19 C20 1.396 . S
C19 C29 1.510 1_556 S
C20 C16 1.401 . S
C20 C19 1.396 . S
C21 C16 1.499 . S
C21 H22 0.959 . S
C21 H23 0.960 . S
C21 H24 0.961 . S
H22 C21 0.959 . S
H23 C21 0.960 . S
H24 C21 0.961 . S
O25 Co0 1.967 . S
O25 C33 1.258 . S
O26 Co1 1.941 1_556 S
O26 C33 1.266 . S
H27 C29 0.959 . S
H28 C29 0.961 . S
C29 C19 1.510 1_554 S
C29 H27 0.959 . S
C29 H28 0.961 . S
C29 H30 0.960 . S
H30 C29 0.960 . S
H31 N11 0.862 . S
O32 Co0 1.920 . S
O32 C5 1.289 . S
C33 O25 1.258 . S
C33 O26 1.266 . S
Co34 O37 1.970 . S
Co34 N51 1.989 . S
Co34 O59 1.967 . S
Co34 O66 1.920 1_554 S
Co35 O38 1.966 . S
Co35 N44 2.022 . S
Co35 N52 1.993 . S
Co35 O60 1.941 . S
C36 O37 1.258 . S
C36 O38 1.263 . S
O37 Co34 1.970 . S
O37 C36 1.258 . S
O38 Co35 1.966 . S
O38 C36 1.263 . S
C39 O40 1.235 1_556 S
C39 O66 1.289 . S
O40 C39 1.235 1_554 S
C41 C43 1.400 . S
C41 N44 1.351 . S
C41 C46 1.501 . S
C42 C43 1.387 . S
C42 N45 1.341 . S
C43 C41 1.400 . S
C43 C42 1.387 . S
N44 Co35 2.022 . S
N44 C41 1.351 . S
N44 N45 1.365 . S
N45 C42 1.341 . S
N45 N44 1.365 . S
N45 H65 0.862 . S
C46 C41 1.501 . S
C46 H47 0.961 . S
C46 H48 0.961 . S
C46 H49 0.960 . S
H47 C46 0.961 . S
H48 C46 0.961 . S
H49 C46 0.960 . S
C50 N51 1.342 . S
C50 C54 1.401 . S
C50 C55 1.499 1_554 S
N51 Co34 1.989 . S
N51 C50 1.342 . S
N51 N52 1.388 . S
N52 Co35 1.993 . S
N52 N51 1.388 . S
N52 C53 1.346 . S
C53 N52 1.346 . S
C53 C54 1.396 . S
C53 C63 1.510 . S
C54 C50 1.401 . S
C54 C53 1.396 . S
C55 C50 1.499 1_556 S
C55 H56 0.959 . S
C55 H57 0.960 . S
C55 H58 0.961 . S
H56 C55 0.959 . S
H57 C55 0.960 . S
H58 C55 0.961 . S
O59 Co34 1.967 . S
O59 C67 1.258 . S
O60 Co35 1.941 . S
O60 C67 1.266 . S
H61 C63 0.959 . S
H62 C63 0.961 . S
C63 C53 1.510 . S
C63 H61 0.959 . S
C63 H62 0.961 . S
C63 H64 0.960 . S
H64 C63 0.960 . S
H65 N45 0.862 . S
O66 Co34 1.920 1_556 S
O66 C39 1.289 . S
C67 O59 1.258 . S
C67 O60 1.266 . S
Co68 O71 1.970 . S
Co68 N85 1.989 . S
Co68 O93 1.967 . S
Co68 O100 1.920 . S
Co69 O72 1.966 . S
Co69 N78 2.022 . S
Co69 N86 1.993 . S
Co69 O94 1.941 . S
C70 O71 1.258 . S
C70 O72 1.263 . S
O71 Co68 1.970 . S
O71 C70 1.258 . S
O72 Co69 1.966 . S
O72 C70 1.263 . S
C73 O74 1.235 . S
C73 O100 1.289 . S
O74 C73 1.235 . S
C75 C77 1.400 . S
C75 N78 1.351 . S
C75 C80 1.501 . S
C76 C77 1.387 . S
C76 N79 1.341 . S
C77 C75 1.400 . S
C77 C76 1.387 . S
N78 Co69 2.022 . S
N78 C75 1.351 . S
N78 N79 1.365 . S
N79 C76 1.341 . S
N79 N78 1.365 . S
N79 H99 0.862 . S
C80 C75 1.501 . S
C80 H81 0.961 . S
C80 H82 0.961 . S
C80 H83 0.960 . S
H81 C80 0.961 . S
H82 C80 0.961 . S
H83 C80 0.960 . S
C84 N85 1.342 . S
C84 C88 1.401 . S
C84 C89 1.499 . S
N85 Co68 1.989 . S
N85 C84 1.342 . S
N85 N86 1.388 . S
N86 Co69 1.993 . S
N86 N85 1.388 . S
N86 C87 1.346 . S
C87 N86 1.346 . S
C87 C88 1.396 . S
C87 C97 1.510 . S
C88 C84 1.401 . S
C88 C87 1.396 . S
C89 C84 1.499 . S
C89 H90 0.959 . S
C89 H91 0.960 . S
C89 H92 0.961 . S
H90 C89 0.959 . S
H91 C89 0.960 . S
H92 C89 0.961 . S
O93 Co68 1.967 . S
O93 C101 1.258 . S
O94 Co69 1.941 . S
O94 C101 1.266 . S
H95 C97 0.959 . S
H96 C97 0.961 . S
C97 C87 1.510 . S
C97 H95 0.959 . S
C97 H96 0.961 . S
C97 H98 0.960 . S
H98 C97 0.960 . S
H99 N79 0.862 . S
O100 Co68 1.920 . S
O100 C73 1.289 . S
C101 O93 1.258 . S
C101 O94 1.266 . S
Co102 O105 1.970 . S
Co102 N119 1.989 . S
Co102 O127 1.967 . S
Co102 O134 1.920 . S
Co103 O106 1.966 . S
Co103 N112 2.022 . S
Co103 N120 1.993 . S
Co103 O128 1.941 . S
C104 O105 1.258 . S
C104 O106 1.263 . S
O105 Co102 1.970 . S
O105 C104 1.258 . S
O106 Co103 1.966 . S
O106 C104 1.263 . S
C107 O108 1.235 . S
C107 O134 1.289 . S
O108 C107 1.235 . S
C109 C111 1.400 . S
C109 N112 1.351 . S
C109 C114 1.501 . S
C110 C111 1.387 . S
C110 N113 1.341 . S
C111 C109 1.400 . S
C111 C110 1.387 . S
N112 Co103 2.022 . S
N112 C109 1.351 . S
N112 N113 1.365 . S
N113 C110 1.341 . S
N113 N112 1.365 . S
N113 H133 0.862 . S
C114 C109 1.501 . S
C114 H115 0.961 . S
C114 H116 0.961 . S
C114 H117 0.960 . S
H115 C114 0.961 . S
H116 C114 0.961 . S
H117 C114 0.960 . S
C118 N119 1.342 . S
C118 C122 1.401 . S
C118 C123 1.499 . S
N119 Co102 1.989 . S
N119 C118 1.342 . S
N119 N120 1.388 . S
N120 Co103 1.993 . S
N120 N119 1.388 . S
N120 C121 1.346 . S
C121 N120 1.346 . S
C121 C122 1.396 . S
C121 C131 1.510 . S
C122 C118 1.401 . S
C122 C121 1.396 . S
C123 C118 1.499 . S
C123 H124 0.959 . S
C123 H125 0.960 . S
C123 H126 0.961 . S
H124 C123 0.959 . S
H125 C123 0.960 . S
H126 C123 0.961 . S
O127 Co102 1.967 . S
O127 C135 1.258 . S
O128 Co103 1.941 . S
O128 C135 1.266 . S
H129 C131 0.959 . S
H130 C131 0.961 . S
C131 C121 1.510 . S
C131 H129 0.959 . S
C131 H130 0.961 . S
C131 H132 0.960 . S
H132 C131 0.960 . S
H133 N113 0.862 . S
O134 Co102 1.920 . S
O134 C107 1.289 . S
C135 O127 1.258 . S
C135 O128 1.266 . S
Co136 O139 1.970 . S
Co136 N153 1.989 . S
Co136 O161 1.967 . S
Co136 O168 1.920 . S
Co137 O140 1.966 . S
Co137 N146 2.022 . S
Co137 N154 1.993 . S
Co137 O162 1.941 . S
C138 O139 1.258 . S
C138 O140 1.263 . S
O139 Co136 1.970 . S
O139 C138 1.258 . S
O140 Co137 1.966 . S
O140 C138 1.263 . S
C141 O142 1.235 . S
C141 O168 1.289 . S
O142 C141 1.235 . S
C143 C145 1.400 . S
C143 N146 1.351 . S
C143 C148 1.501 . S
C144 C145 1.387 . S
C144 N147 1.341 . S
C145 C143 1.400 . S
C145 C144 1.387 . S
N146 Co137 2.022 . S
N146 C143 1.351 . S
N146 N147 1.365 . S
N147 C144 1.341 . S
N147 N146 1.365 . S
N147 H167 0.862 . S
C148 C143 1.501 . S
C148 H149 0.961 . S
C148 H150 0.961 . S
C148 H151 0.960 . S
H149 C148 0.961 . S
H150 C148 0.961 . S
H151 C148 0.960 . S
C152 N153 1.342 . S
C152 C156 1.401 . S
C152 C157 1.499 . S
N153 Co136 1.989 . S
N153 C152 1.342 . S
N153 N154 1.388 . S
N154 Co137 1.993 . S
N154 N153 1.388 . S
N154 C155 1.346 . S
C155 N154 1.346 . S
C155 C156 1.396 . S
C155 C165 1.510 . S
C156 C152 1.401 . S
C156 C155 1.396 . S
C157 C152 1.499 . S
C157 H158 0.959 . S
C157 H159 0.960 . S
C157 H160 0.961 . S
H158 C157 0.959 . S
H159 C157 0.960 . S
H160 C157 0.961 . S
O161 Co136 1.967 . S
O161 C169 1.258 . S
O162 Co137 1.941 . S
O162 C169 1.266 . S
H163 C165 0.959 . S
H164 C165 0.961 . S
C165 C155 1.510 . S
C165 H163 0.959 . S
C165 H164 0.961 . S
C165 H166 0.960 . S
H166 C165 0.960 . S
H167 N147 0.862 . S
O168 Co136 1.920 . S
O168 C141 1.289 . S
C169 O161 1.258 . S
C169 O162 1.266 . S
Co170 O173 1.970 . S
Co170 N187 1.989 . S
Co170 O195 1.967 . S
Co170 O202 1.920 . S
Co171 O174 1.966 . S
Co171 N180 2.022 . S
Co171 N188 1.993 . S
Co171 O196 1.941 . S
C172 O173 1.258 . S
C172 O174 1.263 . S
O173 Co170 1.970 . S
O173 C172 1.258 . S
O174 Co171 1.966 . S
O174 C172 1.263 . S
C175 O176 1.235 . S
C175 O202 1.289 . S
O176 C175 1.235 . S
C177 C179 1.395 1_556 S
C177 N180 1.351 . S
C177 C182 1.501 1_556 S
C178 C179 1.378 1_556 S
C178 N181 1.341 . S
C179 C177 1.395 1_554 S
C179 C178 1.378 1_554 S
N180 Co171 2.022 . S
N180 C177 1.351 . S
N180 N181 1.365 . S
N181 C178 1.341 . S
N181 N180 1.365 . S
N181 H201 0.862 . S
C182 C177 1.501 1_554 S
C182 H183 0.961 1_554 S
C182 H184 0.961 . S
C182 H185 0.960 . S
H183 C182 0.961 1_556 S
H184 C182 0.961 . S
H185 C182 0.960 . S
C186 N187 1.342 . S
C186 C190 1.401 . S
C186 C191 1.499 . S
N187 Co170 1.989 . S
N187 C186 1.342 . S
N187 N188 1.388 . S
N188 Co171 1.993 . S
N188 N187 1.388 . S
N188 C189 1.346 . S
C189 N188 1.346 . S
C189 C190 1.396 . S
C189 C199 1.510 . S
C190 C186 1.401 . S
C190 C189 1.396 . S
C191 C186 1.499 . S
C191 H192 0.959 . S
C191 H193 0.960 . S
C191 H194 0.961 . S
H192 C191 0.959 . S
H193 C191 0.960 . S
H194 C191 0.961 . S
O195 Co170 1.967 . S
O195 C203 1.258 . S
O196 Co171 1.941 . S
O196 C203 1.266 . S
H197 C199 0.959 . S
H198 C199 0.961 . S
C199 C189 1.510 . S
C199 H197 0.959 . S
C199 H198 0.961 . S
C199 H200 0.960 . S
H200 C199 0.960 . S
H201 N181 0.862 . S
O202 Co170 1.920 . S
O202 C175 1.289 . S
C203 O195 1.258 . S
C203 O196 1.266 . S
Co204 O207 1.970 . S
Co204 N221 1.989 . S
Co204 O229 1.967 . S
Co204 O236 1.920 1_556 S
Co205 O208 1.966 . S
Co205 N214 2.022 . S
Co205 N222 1.993 . S
Co205 O230 1.941 . S
C206 O207 1.258 . S
C206 O208 1.263 . S
O207 Co204 1.970 . S
O207 C206 1.258 . S
O208 Co205 1.966 . S
O208 C206 1.263 . S
C209 O210 1.235 1_554 S
C209 O236 1.289 . S
O210 C209 1.235 1_556 S
C211 C213 1.400 . S
C211 N214 1.351 . S
C211 C216 1.501 . S
C212 C213 1.387 . S
C212 N215 1.341 . S
C213 C211 1.400 . S
C213 C212 1.387 . S
N214 Co205 2.022 . S
N214 C211 1.351 . S
N214 N215 1.365 . S
N215 C212 1.341 . S
N215 N214 1.365 . S
N215 H235 0.862 . S
C216 C211 1.501 . S
C216 H217 0.961 . S
C216 H218 0.961 . S
C216 H219 0.960 . S
H217 C216 0.961 . S
H218 C216 0.961 . S
H219 C216 0.960 . S
C220 N221 1.342 . S
C220 C224 1.401 . S
C220 C225 1.499 1_556 S
N221 Co204 1.989 . S
N221 C220 1.342 . S
N221 N222 1.388 . S
N222 Co205 1.993 . S
N222 N221 1.388 . S
N222 C223 1.346 . S
C223 N222 1.346 . S
C223 C224 1.396 . S
C223 C233 1.510 . S
C224 C220 1.401 . S
C224 C223 1.396 . S
C225 C220 1.499 1_554 S
C225 H226 0.959 . S
C225 H227 0.960 . S
C225 H228 0.961 . S
H226 C225 0.959 . S
H227 C225 0.960 . S
H228 C225 0.961 . S
O229 Co204 1.967 . S
O229 C237 1.258 . S
O230 Co205 1.941 . S
O230 C237 1.266 . S
H231 C233 0.959 . S
H232 C233 0.961 . S
C233 C223 1.510 . S
C233 H231 0.959 . S
C233 H232 0.961 . S
C233 H234 0.960 . S
H234 C233 0.960 . S
H235 N215 0.862 . S
O236 Co204 1.920 1_554 S
O236 C209 1.289 . S
C237 O229 1.258 . S
C237 O230 1.266 . S
Co238 O241 1.970 1_554 S
Co238 N255 1.989 . S
Co238 O263 1.967 . S
Co238 O270 1.920 . S
Co239 O242 1.966 . S
Co239 N248 2.022 . S
Co239 N256 1.993 1_556 S
Co239 O264 1.941 1_556 S
C240 O241 1.258 . S
C240 O242 1.263 . S
O241 Co238 1.970 1_556 S
O241 C240 1.258 . S
O242 Co239 1.966 . S
O242 C240 1.263 . S
C243 O244 1.235 . S
C243 O270 1.289 . S
O244 C243 1.235 . S
C245 C247 1.400 . S
C245 N248 1.351 . S
C245 C250 1.501 . S
C246 C247 1.387 . S
C246 N249 1.341 . S
C247 C245 1.400 . S
C247 C246 1.387 . S
N248 Co239 2.022 . S
N248 C245 1.351 . S
N248 N249 1.365 . S
N249 C246 1.341 . S
N249 N248 1.365 . S
N249 H269 0.862 . S
C250 C245 1.501 . S
C250 H251 0.961 . S
C250 H252 0.961 . S
C250 H253 0.960 . S
H251 C250 0.961 . S
H252 C250 0.961 . S
H253 C250 0.960 . S
C254 N255 1.342 . S
C254 C258 1.401 . S
C254 C259 1.499 . S
N255 Co238 1.989 . S
N255 C254 1.342 . S
N255 N256 1.388 . S
N256 Co239 1.993 1_554 S
N256 N255 1.388 . S
N256 C257 1.346 . S
C257 N256 1.346 . S
C257 C258 1.396 . S
C257 C267 1.510 1_554 S
C258 C254 1.401 . S
C258 C257 1.396 . S
C259 C254 1.499 . S
C259 H260 0.959 . S
C259 H261 0.960 . S
C259 H262 0.961 . S
H260 C259 0.959 . S
H261 C259 0.960 . S
H262 C259 0.961 . S
O263 Co238 1.967 . S
O263 C271 1.258 . S
O264 Co239 1.941 1_554 S
O264 C271 1.266 . S
H265 C267 0.959 . S
H266 C267 0.961 . S
C267 C257 1.510 1_556 S
C267 H265 0.959 . S
C267 H266 0.961 . S
C267 H268 0.960 . S
H268 C267 0.960 . S
H269 N249 0.862 . S
O270 Co238 1.920 . S
O270 C243 1.289 . S
C271 O263 1.258 . S
C271 O264 1.266 . S
Co272 O275 1.970 . S
Co272 N289 1.989 . S
Co272 O297 1.967 . S
Co272 O304 1.920 . S
Co273 O276 1.966 . S
Co273 N282 2.022 . S
Co273 N290 1.993 . S
Co273 O298 1.941 . S
C274 O275 1.258 . S
C274 O276 1.263 . S
O275 Co272 1.970 . S
O275 C274 1.258 . S
O276 Co273 1.966 . S
O276 C274 1.263 . S
C277 O278 1.235 . S
C277 O304 1.289 . S
O278 C277 1.235 . S
C279 C281 1.395 1_554 S
C279 N282 1.351 . S
C279 C284 1.501 1_554 S
C280 C281 1.378 1_554 S
C280 N283 1.341 . S
C281 C279 1.395 1_556 S
C281 C280 1.378 1_556 S
N282 Co273 2.022 . S
N282 C279 1.351 . S
N282 N283 1.365 . S
N283 C280 1.341 . S
N283 N282 1.365 . S
N283 H303 0.862 . S
C284 C279 1.501 1_556 S
C284 H285 0.961 1_556 S
C284 H286 0.961 . S
C284 H287 0.960 . S
H285 C284 0.961 1_554 S
H286 C284 0.961 . S
H287 C284 0.960 . S
C288 N289 1.342 . S
C288 C292 1.401 . S
C288 C293 1.499 . S
N289 Co272 1.989 . S
N289 C288 1.342 . S
N289 N290 1.388 . S
N290 Co273 1.993 . S
N290 N289 1.388 . S
N290 C291 1.346 . S
C291 N290 1.346 . S
C291 C292 1.396 . S
C291 C301 1.510 . S
C292 C288 1.401 . S
C292 C291 1.396 . S
C293 C288 1.499 . S
C293 H294 0.959 . S
C293 H295 0.960 . S
C293 H296 0.961 . S
H294 C293 0.959 . S
H295 C293 0.960 . S
H296 C293 0.961 . S
O297 Co272 1.967 . S
O297 C305 1.258 . S
O298 Co273 1.941 . S
O298 C305 1.266 . S
H299 C301 0.959 . S
H300 C301 0.961 . S
C301 C291 1.510 . S
C301 H299 0.959 . S
C301 H300 0.961 . S
C301 H302 0.960 . S
H302 C301 0.960 . S
H303 N283 0.862 . S
O304 Co272 1.920 . S
O304 C277 1.289 . S
C305 O297 1.258 . S
C305 O298 1.266 . S
Co306 O309 1.970 . S
Co306 N323 1.989 . S
Co306 O331 1.967 . S
Co306 O338 1.920 . S
Co307 O310 1.966 . S
Co307 N316 2.022 . S
Co307 N324 1.993 . S
Co307 O332 1.941 . S
C308 O309 1.258 . S
C308 O310 1.263 . S
O309 Co306 1.970 . S
O309 C308 1.258 . S
O310 Co307 1.966 . S
O310 C308 1.263 . S
C311 O312 1.235 . S
C311 O338 1.289 . S
O312 C311 1.235 . S
C313 C315 1.400 . S
C313 N316 1.351 . S
C313 C318 1.501 . S
C314 C315 1.387 . S
C314 N317 1.341 . S
C315 C313 1.400 . S
C315 C314 1.387 . S
N316 Co307 2.022 . S
N316 C313 1.351 . S
N316 N317 1.365 . S
N317 C314 1.341 . S
N317 N316 1.365 . S
N317 H337 0.862 . S
C318 C313 1.501 . S
C318 H319 0.961 . S
C318 H320 0.961 . S
C318 H321 0.960 . S
H319 C318 0.961 . S
H320 C318 0.961 . S
H321 C318 0.960 . S
C322 N323 1.342 . S
C322 C326 1.401 . S
C322 C327 1.499 . S
N323 Co306 1.989 . S
N323 C322 1.342 . S
N323 N324 1.388 . S
N324 Co307 1.993 . S
N324 N323 1.388 . S
N324 C325 1.346 . S
C325 N324 1.346 . S
C325 C326 1.396 . S
C325 C335 1.510 . S
C326 C322 1.401 . S
C326 C325 1.396 . S
C327 C322 1.499 . S
C327 H328 0.959 . S
C327 H329 0.960 . S
C327 H330 0.961 . S
H328 C327 0.959 . S
H329 C327 0.960 . S
H330 C327 0.961 . S
O331 Co306 1.967 . S
O331 C339 1.258 . S
O332 Co307 1.941 . S
O332 C339 1.266 . S
H333 C335 0.959 . S
H334 C335 0.961 . S
C335 C325 1.510 . S
C335 H333 0.959 . S
C335 H334 0.961 . S
C335 H336 0.960 . S
H336 C335 0.960 . S
H337 N317 0.862 . S
O338 Co306 1.920 . S
O338 C311 1.289 . S
C339 O331 1.258 . S
C339 O332 1.266 . S
Co340 O343 1.970 . S
Co340 N357 1.989 . S
Co340 O365 1.967 . S
Co340 O372 1.920 . S
Co341 O344 1.966 . S
Co341 N350 2.022 . S
Co341 N358 1.993 . S
Co341 O366 1.941 . S
C342 O343 1.258 . S
C342 O344 1.263 . S
O343 Co340 1.970 . S
O343 C342 1.258 . S
O344 Co341 1.966 . S
O344 C342 1.263 . S
C345 O346 1.235 . S
C345 O372 1.289 . S
O346 C345 1.235 . S
C347 C349 1.400 . S
C347 N350 1.351 . S
C347 C352 1.501 . S
C348 C349 1.387 . S
C348 N351 1.341 . S
C349 C347 1.400 . S
C349 C348 1.387 . S
N350 Co341 2.022 . S
N350 C347 1.351 . S
N350 N351 1.365 . S
N351 C348 1.341 . S
N351 N350 1.365 . S
N351 H371 0.862 . S
C352 C347 1.501 . S
C352 H353 0.961 . S
C352 H354 0.961 . S
C352 H355 0.960 . S
H353 C352 0.961 . S
H354 C352 0.961 . S
H355 C352 0.960 . S
C356 N357 1.342 . S
C356 C360 1.401 . S
C356 C361 1.499 . S
N357 Co340 1.989 . S
N357 C356 1.342 . S
N357 N358 1.388 . S
N358 Co341 1.993 . S
N358 N357 1.388 . S
N358 C359 1.346 . S
C359 N358 1.346 . S
C359 C360 1.396 . S
C359 C369 1.510 . S
C360 C356 1.401 . S
C360 C359 1.396 . S
C361 C356 1.499 . S
C361 H362 0.959 . S
C361 H363 0.960 . S
C361 H364 0.961 . S
H362 C361 0.959 . S
H363 C361 0.960 . S
H364 C361 0.961 . S
O365 Co340 1.967 . S
O365 C373 1.258 . S
O366 Co341 1.941 . S
O366 C373 1.266 . S
H367 C369 0.959 . S
H368 C369 0.961 . S
C369 C359 1.510 . S
C369 H367 0.959 . S
C369 H368 0.961 . S
C369 H370 0.960 . S
H370 C369 0.960 . S
H371 N351 0.862 . S
O372 Co340 1.920 . S
O372 C345 1.289 . S
C373 O365 1.258 . S
C373 O366 1.266 . S
Co374 O377 1.970 . S
Co374 N391 1.989 . S
Co374 O399 1.967 . S
Co374 O406 1.920 . S
Co375 O378 1.966 . S
Co375 N384 2.022 . S
Co375 N392 1.993 . S
Co375 O400 1.941 . S
C376 O377 1.258 . S
C376 O378 1.263 . S
O377 Co374 1.970 . S
O377 C376 1.258 . S
O378 Co375 1.966 . S
O378 C376 1.263 . S
C379 O380 1.235 . S
C379 O406 1.289 . S
O380 C379 1.235 . S
C381 C383 1.400 . S
C381 N384 1.351 . S
C381 C386 1.501 . S
C382 C383 1.387 . S
C382 N385 1.341 . S
C383 C381 1.400 . S
C383 C382 1.387 . S
N384 Co375 2.022 . S
N384 C381 1.351 . S
N384 N385 1.365 . S
N385 C382 1.341 . S
N385 N384 1.365 . S
N385 H405 0.862 . S
C386 C381 1.501 . S
C386 H387 0.961 . S
C386 H388 0.961 . S
C386 H389 0.960 . S
H387 C386 0.961 . S
H388 C386 0.961 . S
H389 C386 0.960 . S
C390 N391 1.342 . S
C390 C394 1.401 . S
C390 C395 1.499 . S
N391 Co374 1.989 . S
N391 C390 1.342 . S
N391 N392 1.388 . S
N392 Co375 1.993 . S
N392 N391 1.388 . S
N392 C393 1.346 . S
C393 N392 1.346 . S
C393 C394 1.396 . S
C393 C403 1.510 . S
C394 C390 1.401 . S
C394 C393 1.396 . S
C395 C390 1.499 . S
C395 H396 0.959 . S
C395 H397 0.960 . S
C395 H398 0.961 . S
H396 C395 0.959 . S
H397 C395 0.960 . S
H398 C395 0.961 . S
O399 Co374 1.967 . S
O399 C407 1.258 . S
O400 Co375 1.941 . S
O400 C407 1.266 . S
H401 C403 0.959 . S
H402 C403 0.961 . S
C403 C393 1.510 . S
C403 H401 0.959 . S
C403 H402 0.961 . S
C403 H404 0.960 . S
H404 C403 0.960 . S
H405 N385 0.862 . S
O406 Co374 1.920 . S
O406 C379 1.289 . S
C407 O399 1.258 . S
C407 O400 1.266 . S
C408 C409 1.369 . S
C408 C410 1.419 . S
C408 H412 0.930 . S
C409 C408 1.369 . S
C409 C418 1.429 . S
C410 C408 1.419 . S
C410 C411 1.363 . S
C410 H413 0.929 . S
C411 C410 1.363 . S
C411 C417 1.428 . S
H412 C408 0.930 . S
H413 C410 0.929 . S
S414 N415 1.613 . S
S414 N416 1.610 . S
N415 S414 1.613 . S
N415 C418 1.350 . S
N416 S414 1.610 . S
N416 C417 1.351 . S
C417 C411 1.428 . S
C417 N416 1.351 . S
C417 C418 1.434 . S
C418 C409 1.429 . S
C418 N415 1.350 . S
C418 C417 1.434 . S
C419 C420 1.369 . S
C419 C421 1.419 . S
C419 H423 0.930 . S
C420 C419 1.369 . S
C420 C429 1.429 . S
C421 C419 1.419 . S
C421 C422 1.363 . S
C421 H424 0.929 . S
C422 C421 1.363 . S
C422 C428 1.428 . S
H423 C419 0.930 . S
H424 C421 0.929 . S
S425 N426 1.613 . S
S425 N427 1.610 . S
N426 S425 1.613 . S
N426 C429 1.350 . S
N427 S425 1.610 . S
N427 C428 1.351 . S
C428 C422 1.428 . S
C428 N427 1.351 . S
C428 C429 1.434 . S
C429 C420 1.429 . S
C429 N426 1.350 . S
C429 C428 1.434 . S
C430 C431 1.369 . S
C430 C432 1.419 . S
C430 H434 0.930 . S
C431 C430 1.369 . S
C431 C440 1.429 . S
C432 C430 1.419 . S
C432 C433 1.363 . S
C432 H435 0.929 . S
C433 C432 1.363 . S
C433 C439 1.428 . S
H434 C430 0.930 . S
H435 C432 0.929 . S
S436 N437 1.613 . S
S436 N438 1.610 . S
N437 S436 1.613 . S
N437 C440 1.350 . S
N438 S436 1.610 . S
N438 C439 1.351 . S
C439 C433 1.428 . S
C439 N438 1.351 . S
C439 C440 1.434 . S
C440 C431 1.429 . S
C440 N437 1.350 . S
C440 C439 1.434 . S
C441 C442 1.369 . S
C441 C443 1.419 . S
C441 H445 0.930 . S
C442 C441 1.369 . S
C442 C451 1.429 . S
C443 C441 1.419 . S
C443 C444 1.363 . S
C443 H446 0.929 . S
C444 C443 1.363 . S
C444 C450 1.428 . S
H445 C441 0.930 . S
H446 C443 0.929 . S
S447 N448 1.613 . S
S447 N449 1.610 . S
N448 S447 1.613 . S
N448 C451 1.350 . S
N449 S447 1.610 . S
N449 C450 1.351 . S
C450 C444 1.428 . S
C450 N449 1.351 . S
C450 C451 1.434 . S
C451 C442 1.429 . S
C451 N448 1.350 . S
C451 C450 1.434 . S
C452 C453 1.369 . S
C452 C454 1.419 . S
C452 H456 0.930 . S
C453 C452 1.369 . S
C453 C462 1.429 . S
C454 C452 1.419 . S
C454 C455 1.363 . S
C454 H457 0.929 . S
C455 C454 1.363 . S
C455 C461 1.428 . S
H456 C452 0.930 . S
H457 C454 0.929 . S
S458 N459 1.613 . S
S458 N460 1.610 . S
N459 S458 1.613 . S
N459 C462 1.350 . S
N460 S458 1.610 . S
N460 C461 1.351 . S
C461 C455 1.428 . S
C461 N460 1.351 . S
C461 C462 1.434 . S
C462 C453 1.429 . S
C462 N459 1.350 . S
C462 C461 1.434 . S
C463 C464 1.369 . S
C463 C465 1.419 . S
C463 H467 0.930 . S
C464 C463 1.369 . S
C464 C473 1.429 . S
C465 C463 1.419 . S
C465 C466 1.363 . S
C465 H468 0.929 . S
C466 C465 1.363 . S
C466 C472 1.428 . S
H467 C463 0.930 . S
H468 C465 0.929 . S
S469 N470 1.613 . S
S469 N471 1.610 . S
N470 S469 1.613 . S
N470 C473 1.350 . S
N471 S469 1.610 . S
N471 C472 1.351 . S
C472 C466 1.428 . S
C472 N471 1.351 . S
C472 C473 1.434 . S
C473 C464 1.429 . S
C473 N470 1.350 . S
C473 C472 1.434 . S
C474 C475 1.369 . S
C474 C476 1.419 . S
C474 H478 0.930 . S
C475 C474 1.369 . S
C475 C484 1.429 . S
C476 C474 1.419 . S
C476 C477 1.363 . S
C476 H479 0.929 . S
C477 C476 1.363 . S
C477 C483 1.428 . S
H478 C474 0.930 . S
H479 C476 0.929 . S
S480 N481 1.613 . S
S480 N482 1.610 . S
N481 S480 1.613 . S
N481 C484 1.350 . S
N482 S480 1.610 . S
N482 C483 1.351 . S
C483 C477 1.428 . S
C483 N482 1.351 . S
C483 C484 1.434 . S
C484 C475 1.429 . S
C484 N481 1.350 . S
C484 C483 1.434 . S
C485 C486 1.369 . S
C485 C487 1.419 . S
C485 H489 0.930 . S
C486 C485 1.369 . S
C486 C495 1.429 . S
C487 C485 1.419 . S
C487 C488 1.363 . S
C487 H490 0.929 . S
C488 C487 1.363 . S
C488 C494 1.428 1_556 S
H489 C485 0.930 . S
H490 C487 0.929 . S
S491 N492 1.613 . S
S491 N493 1.610 . S
N492 S491 1.613 . S
N492 C495 1.350 1_554 S
N493 S491 1.610 . S
N493 C494 1.351 . S
C494 C488 1.428 1_554 S
C494 N493 1.351 . S
C494 C495 1.434 1_554 S
C495 C486 1.429 . S
C495 N492 1.350 1_556 S
C495 C494 1.434 1_556 S
C496 C497 1.369 . S
C496 C498 1.419 . S
C496 H500 0.930 . S
C497 C496 1.369 . S
C497 C506 1.429 . S
C498 C496 1.419 . S
C498 C499 1.363 . S
C498 H501 0.929 . S
C499 C498 1.363 . S
C499 C505 1.428 . S
H500 C496 0.930 . S
H501 C498 0.929 . S
S502 N503 1.613 . S
S502 N504 1.610 . S
N503 S502 1.613 . S
N503 C506 1.350 . S
N504 S502 1.610 . S
N504 C505 1.351 . S
C505 C499 1.428 . S
C505 N504 1.351 . S
C505 C506 1.434 . S
C506 C497 1.429 . S
C506 N503 1.350 . S
C506 C505 1.434 . S
C507 C508 1.369 . S
C507 C509 1.419 . S
C507 H511 0.930 . S
C508 C507 1.369 . S
C508 C517 1.429 . S
C509 C507 1.419 . S
C509 C510 1.363 . S
C509 H512 0.929 . S
C510 C509 1.363 . S
C510 C516 1.428 . S
H511 C507 0.930 . S
H512 C509 0.929 . S
S513 N514 1.613 . S
S513 N515 1.610 . S
N514 S513 1.613 . S
N514 C517 1.350 . S
N515 S513 1.610 . S
N515 C516 1.351 . S
C516 C510 1.428 . S
C516 N515 1.351 . S
C516 C517 1.434 . S
C517 C508 1.429 . S
C517 N514 1.350 . S
C517 C516 1.434 . S
C518 C519 1.369 . S
C518 C520 1.419 . S
C518 H522 0.930 . S
C519 C518 1.369 . S
C519 C528 1.429 . S
C520 C518 1.419 . S
C520 C521 1.363 . S
C520 H523 0.929 . S
C521 C520 1.363 . S
C521 C527 1.428 . S
H522 C518 0.930 . S
H523 C520 0.929 . S
S524 N525 1.613 . S
S524 N526 1.610 . S
N525 S524 1.613 . S
N525 C528 1.350 . S
N526 S524 1.610 . S
N526 C527 1.351 . S
C527 C521 1.428 . S
C527 N526 1.351 . S
C527 C528 1.434 . S
C528 C519 1.429 . S
C528 N525 1.350 . S
C528 C527 1.434 . S
C529 C530 1.369 . S
C529 C531 1.419 . S
C529 H533 0.930 . S
C530 C529 1.369 . S
C530 C539 1.429 . S
C531 C529 1.419 . S
C531 C532 1.363 . S
C531 H534 0.929 . S
C532 C531 1.363 . S
C532 C538 1.428 . S
H533 C529 0.930 . S
H534 C531 0.929 . S
S535 N536 1.613 . S
S535 N537 1.610 . S
N536 S535 1.613 . S
N536 C539 1.350 . S
N537 S535 1.610 . S
N537 C538 1.351 . S
C538 C532 1.428 . S
C538 N537 1.351 . S
C538 C539 1.434 . S
C539 C530 1.429 . S
C539 N536 1.350 . S
C539 C538 1.434 . S
C540 C541 1.369 . S
C540 C542 1.419 . S
C540 H544 0.930 . S
C541 C540 1.369 . S
C541 C550 1.429 . S
C542 C540 1.419 . S
C542 C543 1.363 . S
C542 H545 0.929 . S
C543 C542 1.363 . S
C543 C549 1.428 . S
H544 C540 0.930 . S
H545 C542 0.929 . S
S546 N547 1.613 . S
S546 N548 1.610 . S
N547 S546 1.613 . S
N547 C550 1.350 . S
N548 S546 1.610 . S
N548 C549 1.351 . S
C549 C543 1.428 . S
C549 N548 1.351 . S
C549 C550 1.434 . S
C550 C541 1.429 . S
C550 N547 1.350 . S
C550 C549 1.434 . S
C551 C552 1.369 . S
C551 C553 1.419 . S
C551 H555 0.930 . S
C552 C551 1.369 . S
C552 C561 1.429 . S
C553 C551 1.419 . S
C553 C554 1.363 . S
C553 H556 0.929 . S
C554 C553 1.363 . S
C554 C560 1.428 . S
H555 C551 0.930 . S
H556 C553 0.929 . S
S557 N558 1.613 . S
S557 N559 1.610 . S
N558 S557 1.613 . S
N558 C561 1.350 . S
N559 S557 1.610 . S
N559 C560 1.351 . S
C560 C554 1.428 . S
C560 N559 1.351 . S
C560 C561 1.434 . S
C561 C552 1.429 . S
C561 N558 1.350 . S
C561 C560 1.434 . S
C562 C563 1.369 . S
C562 C564 1.419 . S
C562 H566 0.930 . S
C563 C562 1.369 . S
C563 C572 1.429 . S
C564 C562 1.419 . S
C564 C565 1.363 . S
C564 H567 0.929 . S
C565 C564 1.363 . S
C565 C571 1.428 . S
H566 C562 0.930 . S
H567 C564 0.929 . S
S568 N569 1.613 . S
S568 N570 1.610 . S
N569 S568 1.613 . S
N569 C572 1.350 . S
N570 S568 1.610 . S
N570 C571 1.351 . S
C571 C565 1.428 . S
C571 N570 1.351 . S
C571 C572 1.434 . S
C572 C563 1.429 . S
C572 N569 1.350 . S
C572 C571 1.434 . S
C573 C574 1.369 . S
C573 C575 1.419 . S
C573 H577 0.930 . S
C574 C573 1.369 . S
C574 C583 1.429 . S
C575 C573 1.419 . S
C575 C576 1.363 . S
C575 H578 0.929 . S
C576 C575 1.363 . S
C576 C582 1.428 . S
H577 C573 0.930 . S
H578 C575 0.929 . S
S579 N580 1.613 . S
S579 N581 1.610 . S
N580 S579 1.613 . S
N580 C583 1.350 . S
N581 S579 1.610 . S
N581 C582 1.351 . S
C582 C576 1.428 . S
C582 N581 1.351 . S
C582 C583 1.434 . S
C583 C574 1.429 . S
C583 N580 1.350 . S
C583 C582 1.434 . S
C584 C585 1.369 . S
C584 C586 1.419 . S
C584 H588 0.930 . S
C585 C584 1.369 . S
C585 C594 1.429 . S
C586 C584 1.419 . S
C586 C587 1.363 . S
C586 H589 0.929 . S
C587 C586 1.363 . S
C587 C593 1.428 . S
H588 C584 0.930 . S
H589 C586 0.929 . S
S590 N591 1.613 . S
S590 N592 1.610 . S
N591 S590 1.613 . S
N591 C594 1.350 . S
N592 S590 1.610 . S
N592 C593 1.351 . S
C593 C587 1.428 . S
C593 N592 1.351 . S
C593 C594 1.434 . S
C594 C585 1.429 . S
C594 N591 1.350 . S
C594 C593 1.434 . S
C595 C596 1.369 . S
C595 C597 1.419 . S
C595 H599 0.930 . S
C596 C595 1.369 . S
C596 C605 1.429 . S
C597 C595 1.419 . S
C597 C598 1.363 . S
C597 H600 0.929 1_556 S
C598 C597 1.363 . S
C598 C604 1.428 . S
H599 C595 0.930 . S
H600 C597 0.929 1_554 S
S601 N602 1.613 . S
S601 N603 1.610 . S
N602 S601 1.613 . S
N602 C605 1.350 . S
N603 S601 1.610 . S
N603 C604 1.351 . S
C604 C598 1.428 . S
C604 N603 1.351 . S
C604 C605 1.434 . S
C605 C596 1.429 . S
C605 N602 1.350 . S
C605 C604 1.434 . S
C606 C607 1.369 . S
C606 C608 1.419 . S
C606 H610 0.930 . S
C607 C606 1.369 . S
C607 C616 1.429 . S
C608 C606 1.419 . S
C608 C609 1.363 . S
C608 H611 0.929 . S
C609 C608 1.363 . S
C609 C615 1.428 . S
H610 C606 0.930 . S
H611 C608 0.929 . S
S612 N613 1.613 . S
S612 N614 1.610 . S
N613 S612 1.613 . S
N613 C616 1.350 . S
N614 S612 1.610 . S
N614 C615 1.351 . S
C615 C609 1.428 . S
C615 N614 1.351 . S
C615 C616 1.434 . S
C616 C607 1.429 . S
C616 N613 1.350 . S
C616 C615 1.434 . S
C617 C618 1.369 1_455 S
C617 C619 1.419 . S
C617 H621 0.930 . S
C618 C617 1.369 1_655 S
C618 C627 1.429 . S
C619 C617 1.419 . S
C619 C620 1.363 . S
C619 H622 0.929 . S
C620 C619 1.363 . S
C620 C626 1.428 1_455 S
H621 C617 0.930 . S
H622 C619 0.929 . S
S623 N624 1.613 . S
S623 N625 1.610 . S
N624 S623 1.613 . S
N624 C627 1.350 . S
N625 S623 1.610 . S
N625 C626 1.351 . S
C626 C620 1.428 1_655 S
C626 N625 1.351 . S
C626 C627 1.434 . S
C627 C618 1.429 . S
C627 N624 1.350 . S
C627 C626 1.434 . S
C628 C629 1.369 . S
C628 C630 1.419 . S
C628 H632 0.930 . S
C629 C628 1.369 . S
C629 C638 1.429 1_565 S
C630 C628 1.419 . S
C630 C631 1.363 1_565 S
C630 H633 0.929 . S
C631 C630 1.363 1_545 S
C631 C637 1.428 . S
H632 C628 0.930 . S
H633 C630 0.929 . S
S634 N635 1.613 . S
S634 N636 1.610 . S
N635 S634 1.613 . S
N635 C638 1.350 . S
N636 S634 1.610 . S
N636 C637 1.351 . S
C637 C631 1.428 . S
C637 N636 1.351 . S
C637 C638 1.434 . S
C638 C629 1.429 1_545 S
C638 N635 1.350 . S
C638 C637 1.434 . S
C639 C640 1.369 . S
C639 C641 1.419 . S
C639 H643 0.930 . S
C640 C639 1.369 . S
C640 C649 1.429 . S
C641 C639 1.419 . S
C641 C642 1.363 . S
C641 H644 0.929 . S
C642 C641 1.363 . S
C642 C648 1.428 . S
H643 C639 0.930 . S
H644 C641 0.929 . S
S645 N646 1.613 . S
S645 N647 1.610 . S
N646 S645 1.613 . S
N646 C649 1.350 . S
N647 S645 1.610 . S
N647 C648 1.351 . S
C648 C642 1.428 . S
C648 N647 1.351 . S
C648 C649 1.434 . S
C649 C640 1.429 . S
C649 N646 1.350 . S
C649 C648 1.434 . S
C650 C651 1.369 . S
C650 C652 1.419 . S
C650 H654 0.930 . S
C651 C650 1.369 . S
C651 C660 1.429 1_455 S
C652 C650 1.419 . S
C652 C653 1.363 1_455 S
C652 H655 0.929 . S
C653 C652 1.363 1_655 S
C653 C659 1.428 . S
H654 C650 0.930 . S
H655 C652 0.929 . S
S656 N657 1.613 . S
S656 N658 1.610 . S
N657 S656 1.613 . S
N657 C660 1.350 . S
N658 S656 1.610 . S
N658 C659 1.351 . S
C659 C653 1.428 . S
C659 N658 1.351 . S
C659 C660 1.434 . S
C660 C651 1.429 1_655 S
C660 N657 1.350 . S
C660 C659 1.434 . S
C661 C662 1.369 1_545 S
C661 C663 1.419 1_554 S
C661 H665 0.930 . S
C662 C661 1.369 1_565 S
C662 C671 1.429 . S
C663 C661 1.419 1_556 S
C663 C664 1.363 . S
C663 H666 0.929 . S
C664 C663 1.363 . S
C664 C670 1.428 1_545 S
H665 C661 0.930 . S
H666 C663 0.929 . S
S667 N668 1.613 1_556 S
S667 N669 1.610 . S
N668 S667 1.613 1_554 S
N668 C671 1.350 . S
N669 S667 1.610 . S
N669 C670 1.351 . S
C670 C664 1.428 1_565 S
C670 N669 1.351 . S
C670 C671 1.434 1_556 S
C671 C662 1.429 . S
C671 N668 1.350 . S
C671 C670 1.434 1_554 S
C672 C673 1.369 . S
C672 C674 1.419 . S
C672 H676 0.930 . S
C673 C672 1.369 . S
C673 C682 1.429 . S
C674 C672 1.419 . S
C674 C675 1.363 . S
C674 H677 0.929 . S
C675 C674 1.363 . S
C675 C681 1.428 . S
H676 C672 0.930 . S
H677 C674 0.929 . S
S678 N679 1.613 . S
S678 N680 1.610 . S
N679 S678 1.613 . S
N679 C682 1.350 1_554 S
N680 S678 1.610 . S
N680 C681 1.351 1_554 S
C681 C675 1.428 . S
C681 N680 1.351 1_556 S
C681 C682 1.434 . S
C682 C673 1.429 . S
C682 N679 1.350 1_556 S
C682 C681 1.434 . S
C683 C684 1.369 . S
C683 C685 1.419 . S
C683 H687 0.930 . S
C684 C683 1.369 . S
C684 C693 1.429 . S
C685 C683 1.419 . S
C685 C686 1.363 . S
C685 H688 0.929 . S
C686 C685 1.363 . S
C686 C692 1.428 . S
H687 C683 0.930 . S
H688 C685 0.929 . S
S689 N690 1.613 1_556 S
S689 N691 1.610 1_556 S
N690 S689 1.613 1_554 S
N690 C693 1.350 . S
N691 S689 1.610 1_554 S
N691 C692 1.351 . S
C692 C686 1.428 . S
C692 N691 1.351 . S
C692 C693 1.434 . S
C693 C684 1.429 . S
C693 N690 1.350 . S
C693 C692 1.434 . S
C694 C695 1.369 . S
C694 C696 1.419 . S
C694 H698 0.930 . S
C695 C694 1.369 . S
C695 C704 1.429 . S
C696 C694 1.419 . S
C696 C697 1.363 . S
C696 H699 0.929 . S
C697 C696 1.363 . S
C697 C703 1.428 . S
H698 C694 0.930 . S
H699 C696 0.929 . S
S700 N701 1.613 . S
S700 N702 1.610 . S
N701 S700 1.613 . S
N701 C704 1.350 . S
N702 S700 1.610 . S
N702 C703 1.351 . S
C703 C697 1.428 . S
C703 N702 1.351 . S
C703 C704 1.434 . S
C704 C695 1.429 . S
C704 N701 1.350 . S
C704 C703 1.434 . S
C705 C706 1.369 . S
C705 C707 1.419 . S
C705 H709 0.930 . S
C706 C705 1.369 . S
C706 C715 1.429 . S
C707 C705 1.419 . S
C707 C708 1.363 . S
C707 H710 0.929 . S
C708 C707 1.363 . S
C708 C714 1.428 . S
H709 C705 0.930 . S
H710 C707 0.929 . S
S711 N712 1.613 . S
S711 N713 1.610 . S
N712 S711 1.613 . S
N712 C715 1.350 . S
N713 S711 1.610 . S
N713 C714 1.351 . S
C714 C708 1.428 . S
C714 N713 1.351 . S
C714 C715 1.434 . S
C715 C706 1.429 . S
C715 N712 1.350 . S
C715 C714 1.434 . S
C716 C717 1.369 . S
C716 C718 1.419 . S
C716 H720 0.930 . S
C717 C716 1.369 . S
C717 C726 1.429 . S
C718 C716 1.419 . S
C718 C719 1.363 . S
C718 H721 0.929 . S
C719 C718 1.363 . S
C719 C725 1.428 . S
H720 C716 0.930 . S
H721 C718 0.929 . S
S722 N723 1.613 . S
S722 N724 1.610 . S
N723 S722 1.613 . S
N723 C726 1.350 . S
N724 S722 1.610 . S
N724 C725 1.351 . S
C725 C719 1.428 . S
C725 N724 1.351 . S
C725 C726 1.434 . S
C726 C717 1.429 . S
C726 N723 1.350 . S
C726 C725 1.434 . S
C727 C728 1.369 . S
C727 C729 1.419 . S
C727 H731 0.930 . S
C728 C727 1.369 . S
C728 C737 1.429 . S
C729 C727 1.419 . S
C729 C730 1.363 . S
C729 H732 0.929 . S
C730 C729 1.363 . S
C730 C736 1.428 . S
H731 C727 0.930 . S
H732 C729 0.929 . S
S733 N734 1.613 . S
S733 N735 1.610 . S
N734 S733 1.613 . S
N734 C737 1.350 . S
N735 S733 1.610 . S
N735 C736 1.351 . S
C736 C730 1.428 . S
C736 N735 1.351 . S
C736 C737 1.434 . S
C737 C728 1.429 . S
C737 N734 1.350 . S
C737 C736 1.434 . S
C409 C349 0.552 . S
C411 C9 0.539 . S
C420 C43 0.763 . S
C422 C383 0.766 . S
C431 C77 0.763 . S
C433 C213 0.770 . S
C442 C111 0.540 . S
C444 C247 0.534 . S
C453 C145 0.727 . S
C455 C281 0.732 . S
C464 C179 0.736 . S
C466 C315 0.725 . S
C475 C5 1.881 . S
C477 C190 1.831 . S
C486 C20 1.897 . S
C488 C39 1.837 1_455 S
C497 C54 1.929 . S
C499 C73 1.913 1_545 S
C508 C107 1.879 . S
C510 C88 1.907 . S
C519 C141 2.016 1_655 S
C521 C122 2.038 . S
C530 C175 1.955 1_565 S
C532 C156 1.935 . S
C541 C258 1.900 . S
C543 C209 1.841 . S
C552 C243 1.885 1_455 S
C554 C292 1.834 . S
C563 C277 1.956 1_545 S
C565 C326 1.936 . S
C574 C311 2.016 . S
C576 C360 2.038 . S
C585 C345 1.872 1_655 S
C587 C394 1.904 . S
C596 C379 1.908 1_565 S
C598 C224 1.926 . S
C607 C2 1.720 . S
C609 C308 1.719 . S
C618 C36 1.960 . S
C620 C342 1.970 . S
C629 C70 1.895 . S
C631 C376 1.891 . S
C640 C104 1.966 . S
C642 C206 1.965 . S
C651 C138 1.722 . S
C653 C240 1.717 . S
C662 C274 1.837 . S
C664 C172 1.839 . S
C673 C237 1.209 . S
C675 C33 1.211 . S
C684 C67 1.212 . S
C686 C271 1.211 . S
C695 C101 1.293 . S
C697 C305 1.282 . S
C706 C339 1.398 . S
C708 C135 1.417 . S
C717 C169 1.410 . S
C719 C373 1.410 . S
C728 C407 1.291 . S
C730 C203 1.281 . S
