# Generated by pormake.
# Topology unm, (4)-cn, num edge types: 1
# Building blocks:
#     Node 0, Type 0, BuildingBlock: AZAVOO_clean_sbu_0, # of connection points: 4
#     Node 1, Type 0, BuildingBlock: AZAVOO_clean_sbu_0, # of connection points: 4
#     Node 2, Type 0, BuildingBlock: AZAVOO_clean_sbu_0, # of connection points: 4
#     Node 3, Type 0, BuildingBlock: AZAVOO_clean_sbu_0, # of connection points: 4
#     Node 4, Type 0, BuildingBlock: AZAVOO_clean_sbu_0, # of connection points: 4
#     Node 5, Type 0, BuildingBlock: AZAVOO_clean_sbu_0, # of connection points: 4
#     Node 6, Type 0, BuildingBlock: AZAVOO_clean_sbu_0, # of connection points: 4
#     Node 7, Type 0, BuildingBlock: AZAVOO_clean_sbu_0, # of connection points: 4
#     Edge 8, Type (0, 0), BuildingBlock: FUNLAD_clean_linker_1, # of connection points: 2
#     Edge 9, Type (0, 0), BuildingBlock: FUNLAD_clean_linker_1, # of connection points: 2
#     Edge 10, Type (0, 0), BuildingBlock: FUNLAD_clean_linker_1, # of connection points: 2
#     Edge 11, Type (0, 0), BuildingBlock: FUNLAD_clean_linker_1, # of connection points: 2
#     Edge 12, Type (0, 0), BuildingBlock: FUNLAD_clean_linker_1, # of connection points: 2
#     Edge 13, Type (0, 0), BuildingBlock: FUNLAD_clean_linker_1, # of connection points: 2
#     Edge 14, Type (0, 0), BuildingBlock: FUNLAD_clean_linker_1, # of connection points: 2
#     Edge 15, Type (0, 0), BuildingBlock: FUNLAD_clean_linker_1, # of connection points: 2
#     Edge 16, Type (0, 0), BuildingBlock: FUNLAD_clean_linker_1, # of connection points: 2
#     Edge 17, Type (0, 0), BuildingBlock: FUNLAD_clean_linker_1, # of connection points: 2
#     Edge 18, Type (0, 0), BuildingBlock: FUNLAD_clean_linker_1, # of connection points: 2
#     Edge 19, Type (0, 0), BuildingBlock: FUNLAD_clean_linker_1, # of connection points: 2
#     Edge 20, Type (0, 0), BuildingBlock: FUNLAD_clean_linker_1, # of connection points: 2
#     Edge 21, Type (0, 0), BuildingBlock: FUNLAD_clean_linker_1, # of connection points: 2
#     Edge 22, Type (0, 0), BuildingBlock: FUNLAD_clean_linker_1, # of connection points: 2
#     Edge 23, Type (0, 0), BuildingBlock: FUNLAD_clean_linker_1, # of connection points: 2
# Relax obj value: 0.171
# Max RMSD: 0.157
# Mean RMSD: 0.157
data_MOF--net-unm--node1-AZAVOO_clean_sbu_0--edge1-FUNLAD_clean_linker_1
_symmetry_space_group_name_H-M    P1
_symmetry_Int_Tables_number       1
_symmetry_cell_setting            triclinic
loop_
_symmetry_equiv_pos_as_xyz
'x, y, z'
_cell_length_a     26.865663
_cell_length_b     26.673549
_cell_length_c     45.082781
_cell_angle_alpha  90.032593
_cell_angle_beta   90.127619
_cell_angle_gamma 89.985062
loop_
_atom_site_label
_atom_site_type_symbol
_atom_site_fract_x
_atom_site_fract_y
_atom_site_fract_z
_atom_type_partial_charge
Mg0 Mg 0.01713 0.18982 0.13839 0.0
O1 O 0.00472 0.26869 0.11956 0.0
O2 O 0.07145 0.29045 0.09299 0.0
Mg3 Mg 0.12409 0.22249 0.09236 0.0
C4 C 0.02877 0.30032 0.10397 0.0
C5 C 0.91081 0.21315 0.16187 0.0
O6 O 0.90218 0.21735 0.13328 0.0
O7 O 0.07375 0.22131 0.17099 0.0
O8 O 0.13991 0.23542 0.14203 0.0
O9 O 0.98205 0.15455 0.09856 0.0
O10 O 0.06238 0.17119 0.10309 0.0
C11 C 0.11891 0.23474 0.16747 0.0
C12 C 0.02626 0.15422 0.0872 0.0
O13 O 0.95423 0.20234 0.17094 0.0
Mg14 Mg 0.29186 0.54368 0.64141 0.0
O15 O 0.21324 0.5295 0.62367 0.0
O16 O 0.19206 0.59035 0.59205 0.0
Mg17 Mg 0.25875 0.64381 0.58937 0.0
C18 C 0.18222 0.54995 0.606 0.0
C19 C 0.30517 0.47894 0.69902 0.0
O20 O 0.33635 0.51509 0.70576 0.0
O21 O 0.26275 0.60658 0.67178 0.0
O22 O 0.24586 0.66579 0.63788 0.0
O23 O 0.32359 0.50295 0.60242 0.0
O24 O 0.31046 0.58488 0.60413 0.0
C25 C 0.24805 0.6507 0.66472 0.0
C26 C 0.32502 0.54621 0.58951 0.0
O27 O 0.2799 0.4816 0.67524 0.0
Mg28 Mg 0.9687 0.79291 0.13929 0.0
O29 O 0.97906 0.71291 0.12179 0.0
O30 O 0.91894 0.69497 0.08917 0.0
Mg31 Mg 0.87095 0.76584 0.08464 0.0
C32 C 0.95759 0.68266 0.104 0.0
C33 C 0.04495 0.81282 0.18984 0.0
O34 O 0.02433 0.85731 0.18788 0.0
O35 O 0.90265 0.76699 0.16803 0.0
O36 O 0.84502 0.75526 0.13258 0.0
O37 O 0.01322 0.82396 0.1016 0.0
O38 O 0.93154 0.81398 0.10093 0.0
C39 C 0.85827 0.75603 0.15979 0.0
C40 C 0.97144 0.82752 0.08745 0.0
O41 O 0.0279 0.77697 0.17428 0.0
Mg42 Mg 0.70088 0.48205 0.63952 0.0
O43 O 0.77824 0.49046 0.61959 0.0
O44 O 0.79331 0.42915 0.58708 0.0
Mg45 Mg 0.72205 0.38138 0.5855 0.0
C46 C 0.80671 0.46838 0.60122 0.0
C47 C 0.7013 0.5487 0.6979 0.0
O48 O 0.66839 0.51586 0.70707 0.0
O49 O 0.72917 0.41638 0.6685 0.0
O50 O 0.73748 0.35745 0.63331 0.0
O51 O 0.66904 0.52587 0.60153 0.0
O52 O 0.67593 0.44319 0.60243 0.0
C53 C 0.73956 0.37153 0.66035 0.0
C54 C 0.66346 0.48315 0.58837 0.0
O55 O 0.72178 0.54298 0.67276 0.0
Mg56 Mg 0.5163 0.30103 0.3404 0.0
O57 O 0.52753 0.22072 0.3578 0.0
O58 O 0.60063 0.21729 0.38151 0.0
Mg59 Mg 0.63528 0.29592 0.37987 0.0
C60 C 0.56083 0.19649 0.37212 0.0
C61 C 0.41132 0.29677 0.31245 0.0
O62 O 0.40556 0.33389 0.3313 0.0
O63 O 0.57278 0.2856 0.30412 0.0
O64 O 0.64462 0.28618 0.32943 0.0
O65 O 0.4811 0.32476 0.38304 0.0
O66 O 0.5616 0.33012 0.37338 0.0
C67 C 0.62012 0.28244 0.30516 0.0
C68 C 0.52556 0.33645 0.39173 0.0
O69 O 0.45291 0.27434 0.31104 0.0
Mg70 Mg 0.22511 0.03796 0.84009 0.0
O71 O 0.3047 0.02541 0.85709 0.0
O72 O 0.3293 0.0916 0.88375 0.0
Mg73 Mg 0.26326 0.14578 0.88598 0.0
C74 C 0.33752 0.04869 0.87222 0.0
C75 C 0.24642 0.92928 0.82269 0.0
O76 O 0.25446 0.92987 0.85141 0.0
O77 O 0.25391 0.09523 0.80593 0.0
O78 O 0.27119 0.15974 0.83615 0.0
O79 O 0.19117 1.00562 0.88139 0.0
O80 O 0.21086 0.08537 0.87554 0.0
C81 C 0.26805 0.14051 0.81022 0.0
C82 C 0.19364 0.05052 0.89217 0.0
O83 O 0.23395 0.96975 0.80964 0.0
Mg84 Mg 0.47669 0.71314 0.33834 0.0
O85 O 0.47712 0.79458 0.35573 0.0
O86 O 0.40755 0.80614 0.38203 0.0
Mg87 Mg 0.36349 0.73272 0.38265 0.0
C88 C 0.44832 0.82232 0.37121 0.0
C89 C 0.58265 0.70487 0.31485 0.0
O90 O 0.58095 0.67246 0.33669 0.0
O91 O 0.41751 0.73458 0.3033 0.0
O92 O 0.35083 0.74139 0.33281 0.0
O93 O 0.51167 0.68486 0.38059 0.0
O94 O 0.43082 0.68988 0.37287 0.0
C95 C 0.37088 0.74223 0.30712 0.0
C96 C 0.46693 0.67854 0.39028 0.0
O97 O 0.5437 0.72989 0.30839 0.0
Mg98 Mg 0.82531 0.98933 0.83326 0.0
O99 O 0.74576 0.99691 0.85073 0.0
O100 O 0.72674 0.93051 0.87868 0.0
Mg101 Mg 0.79553 0.87967 0.8792 0.0
C102 C 0.71532 0.97239 0.86679 0.0
C103 C 0.8376 0.0956 0.80834 0.0
O104 O 0.87208 0.09327 0.82894 0.0
O105 O 0.79885 0.93049 0.79897 0.0
O106 O 0.78443 0.86605 0.82964 0.0
O107 O 0.85492 0.0237 0.87533 0.0
O108 O 0.84503 0.94239 0.86827 0.0
C109 C 0.78573 0.88499 0.80362 0.0
C110 C 0.85799 0.9785 0.88545 0.0
O111 O 0.81111 0.05702 0.80304 0.0
H112 H 0.00323 0.12294 0.04386 0.0
C113 C 0.03503 0.13414 0.05726 0.0
H114 H 0.11335 0.13515 0.06115 0.0
H115 H 0.16219 0.9635 0.97187 0.0
H116 H 0.17555 0.92065 0.01873 0.0
H117 H 0.15009 0.9597 0.06594 0.0
H118 H 0.11138 0.04192 0.06663 0.0
C119 C 0.08144 0.12666 0.04717 0.0
C120 C 0.09131 0.10124 0.01849 0.0
C121 C 0.11362 0.05302 0.01851 0.0
C122 C 0.12777 0.03022 -0.00869 0.0
C123 C 0.15055 0.98238 -0.00807 0.0
C124 C 0.15837 0.95736 0.01866 0.0
C125 C 0.14408 0.97937 0.04524 0.0
C126 C 0.12206 0.02667 0.04533 0.0
H127 H 0.18878 0.09862 0.93144 0.0
C128 C 0.17668 0.06298 0.92216 0.0
H129 H 0.12858 1.00083 0.92734 0.0
H130 H 0.04866 0.19388 0.01041 0.0
H131 H 0.02768 0.23243 0.96338 0.0
H132 H 0.04601 0.18947 0.91616 0.0
H133 H 0.08656 0.10815 0.91581 0.0
C134 C 0.14188 0.03617 0.93636 0.0
C135 C 0.1197 0.05579 0.96425 0.0
C136 C 0.0935 0.10203 0.96408 0.0
C137 C 0.0805 0.12549 -0.00873 0.0
C138 C 0.05761 0.17333 -0.00954 0.0
C139 C 0.04556 0.19606 0.96357 0.0
C140 C 0.05606 0.17198 0.937 0.0
C141 C 0.07975 0.12553 0.93711 0.0
H142 H 0.33028 0.5235 0.54242 0.0
C143 C 0.34107 0.55166 0.55861 0.0
H144 H 0.37919 0.61871 0.56765 0.0
H145 H 0.44112 0.55509 0.42791 0.0
H146 H 0.46553 0.47343 0.44687 0.0
H147 H 0.45799 0.45382 0.50011 0.0
H148 H 0.42152 0.51376 0.53418 0.0
C149 C 0.36834 0.59169 0.55074 0.0
C150 C 0.37944 0.60457 0.51936 0.0
C151 C 0.40534 0.57077 0.50053 0.0
C152 C 0.41392 0.58378 0.4704 0.0
C153 C 0.43545 0.54774 0.45126 0.0
C154 C 0.44972 0.50082 0.46186 0.0
C155 C 0.44505 0.4896 0.49179 0.0
C156 C 0.42354 0.5242 0.51106 0.0
H157 H 0.48839 0.65751 0.43604 0.0
C158 C 0.45743 0.66046 0.42057 0.0
H159 H 0.38019 0.65002 0.41375 0.0
H160 H 0.32622 0.67745 0.54878 0.0
H161 H 0.30242 0.75866 0.52964 0.0
H162 H 0.32394 0.78353 0.47857 0.0
H163 H 0.36886 0.72682 0.44624 0.0
C164 C 0.41143 0.64697 0.429 0.0
C165 C 0.40046 0.63198 0.45992 0.0
C166 C 0.37533 0.66601 0.47875 0.0
C167 C 0.36414 0.65209 0.50838 0.0
C168 C 0.33711 0.68626 0.52632 0.0
C169 C 0.3229 0.73308 0.51556 0.0
C170 C 0.33492 0.74705 0.48681 0.0
C171 C 0.36074 0.71407 0.46849 0.0
H172 H 0.00368 0.84827 0.04397 0.0
C173 C 0.9694 0.84548 0.05662 0.0
H174 H 0.89166 0.85693 0.05722 0.0
H175 H 0.95882 0.9939 0.94098 0.0
H176 H 0.00374 0.04589 0.97599 0.0
H177 H 0.01019 0.02177 0.02871 0.0
H178 H 0.97303 0.94478 0.04642 0.0
C179 C 0.92593 0.8599 0.04456 0.0
C180 C 0.9214 0.87597 0.01317 0.0
C181 C 0.9422 0.92197 0.00344 0.0
C182 C 0.93581 0.93747 0.97348 0.0
C183 C 0.95994 0.98175 0.96384 0.0
C184 C 0.98648 0.01167 0.98365 0.0
C185 C 0.99031 0.99799 0.01327 0.0
C186 C 0.96878 0.95357 0.02315 0.0
H187 H 0.86473 0.99552 0.93336 0.0
C188 C 0.87299 0.96814 0.91621 0.0
H189 H 0.90491 0.89858 0.90521 0.0
H190 H 0.87889 0.7846 0.02445 0.0
H191 H 0.82914 0.73514 -0.00955 0.0
H192 H 0.81297 0.76466 0.93949 0.0
H193 H 0.84683 0.8433 0.92222 0.0
C194 C 0.89634 0.92497 0.92288 0.0
C195 C 0.90594 0.90847 0.95389 0.0
C196 C 0.88512 0.86247 0.96374 0.0
C197 C 0.89333 0.84602 -0.0067 0.0
C198 C 0.87298 0.79945 0.0024 0.0
C199 C 0.84446 0.77054 0.98308 0.0
C200 C 0.83545 0.7871 0.9544 0.0
C201 C 0.85535 0.83243 0.94474 0.0
H202 H 0.50565 0.35122 0.43846 0.0
C203 C 0.53487 0.35495 0.42197 0.0
H204 H 0.60677 0.38323 0.4126 0.0
H205 H 0.58058 0.52867 0.52544 0.0
H206 H 0.56189 0.58761 0.48604 0.0
H207 H 0.55726 0.55963 0.43395 0.0
H208 H 0.5687 0.47185 0.4212 0.0
C209 C 0.57806 0.37728 0.42917 0.0
C210 C 0.58776 0.39515 0.45978 0.0
C211 C 0.5836 0.44682 0.4666 0.0
C212 C 0.58957 0.46349 0.49637 0.0
C213 C 0.58002 0.5145 0.50298 0.0
C214 C 0.56874 0.54869 0.48059 0.0
C215 C 0.56601 0.53291 0.45126 0.0
C216 C 0.57268 0.48247 0.44425 0.0
H217 H 0.66561 0.50203 0.54069 0.0
C218 C 0.64711 0.47946 0.5574 0.0
H219 H 0.59477 0.42377 0.56743 0.0
H220 H 0.60199 0.29408 0.45334 0.0
H221 H 0.62701 0.2357 0.49172 0.0
H222 H 0.64337 0.26496 0.54272 0.0
H223 H 0.63435 0.35233 0.55569 0.0
C224 C 0.6127 0.44517 0.54992 0.0
C225 C 0.60386 0.42886 0.51876 0.0
C226 C 0.61004 0.37731 0.51154 0.0
C227 C 0.60134 0.36042 0.48209 0.0
C228 C 0.60768 0.30886 0.47544 0.0
C229 C 0.6223 0.27493 0.49722 0.0
C230 C 0.63147 0.2914 0.52592 0.0
C231 C 0.62575 0.34186 0.53309 0.0
H232 H 0.12957 0.24879 0.2154 0.0
C233 C 0.1481 0.24856 0.19398 0.0
H234 H 0.21582 0.25994 0.17116 0.0
H235 H 0.32184 0.39238 0.26709 0.0
H236 H 0.30052 0.45556 0.23059 0.0
H237 H 0.24462 0.4356 0.18873 0.0
H238 H 0.20997 0.35216 0.18304 0.0
C239 C 0.19697 0.25885 0.19245 0.0
C240 C 0.22666 0.27152 0.21926 0.0
C241 C 0.24589 0.32067 0.22255 0.0
C242 C 0.27749 0.33235 0.24691 0.0
C243 C 0.29716 0.38149 0.24923 0.0
C244 C 0.28528 0.41817 0.2284 0.0
C245 C 0.25386 0.40692 0.20482 0.0
C246 C 0.23431 0.35883 0.20179 0.0
H247 H 0.37917 0.25402 0.27526 0.0
C248 C 0.37135 0.2829 0.29164 0.0
H249 H 0.31904 0.33587 0.30718 0.0
H250 H 0.19799 0.17264 0.21894 0.0
H251 H 0.21533 0.11092 0.25697 0.0
H252 H 0.26482 0.13313 0.30122 0.0
H253 H 0.29809 0.21707 0.30733 0.0
C254 C 0.32686 0.30587 0.29155 0.0
C255 C 0.2896 0.29483 0.26799 0.0
C256 C 0.26827 0.24635 0.26554 0.0
C257 C 0.23773 0.23428 0.24076 0.0
C258 C 0.21974 0.18458 0.23786 0.0
C259 C 0.22967 0.14861 0.25947 0.0
C260 C 0.25768 0.16106 0.28432 0.0
C261 C 0.27685 0.20928 0.28745 0.0
H262 H 0.21813 0.72256 0.68009 0.0
C263 C 0.23571 0.68806 0.68763 0.0
H264 H 0.2715 0.6524 0.72362 0.0
H265 H 0.33353 0.86824 0.77201 0.0
H266 H 0.41341 0.83196 0.75938 0.0
H267 H 0.41862 0.7487 0.73575 0.0
H268 H 0.34394 0.7013 0.72456 0.0
C269 C 0.25086 0.68495 0.71594 0.0
C270 C 0.24778 0.73033 0.7352 0.0
C271 C 0.29192 0.75685 0.74246 0.0
C272 C 0.28896 0.80461 0.75645 0.0
C273 C 0.33356 0.8313 0.76212 0.0
C274 C 0.37972 0.81105 0.7548 0.0
C275 C 0.38265 0.76421 0.74146 0.0
C276 C 0.33942 0.73738 0.73517 0.0
H277 H 0.26588 0.84942 0.81892 0.0
C278 C 0.2516 0.88143 0.80662 0.0
H279 H 0.22176 0.90618 0.7658 0.0
H280 H 0.15673 0.68621 0.72814 0.0
H281 H 0.07662 0.72175 0.74158 0.0
H282 H 0.07129 0.80499 0.76527 0.0
H283 H 0.14594 0.85314 0.77575 0.0
C284 C 0.23832 0.87541 0.77815 0.0
C285 C 0.24185 0.8253 0.76369 0.0
C286 C 0.19783 0.79795 0.7574 0.0
C287 C 0.20083 0.75023 0.7434 0.0
C288 C 0.15638 0.72317 0.73805 0.0
C289 C 0.11023 0.74297 0.74584 0.0
C290 C 0.10724 0.78981 0.75922 0.0
C291 C 0.15038 0.81709 0.76506 0.0
H292 H 0.66176 0.6897 0.30681 0.0
C293 C 0.62985 0.71068 0.29863 0.0
H294 H 0.60396 0.76113 0.266 0.0
H295 H 0.81615 0.84375 0.23086 0.0
H296 H 0.77854 0.91703 0.25344 0.0
H297 H 0.69781 0.91099 0.27915 0.0
H298 H 0.6539 0.83174 0.28215 0.0
C299 C 0.63492 0.7388 0.27416 0.0
C300 C 0.6839 0.74202 0.25869 0.0
C301 C 0.70954 0.78846 0.25757 0.0
C302 C 0.75654 0.79177 0.24314 0.0
C303 C 0.78065 0.83892 0.24175 0.0
C304 C 0.75948 0.88133 0.25464 0.0
C305 C 0.71401 0.87794 0.26909 0.0
C306 C 0.68917 0.83219 0.27062 0.0
H307 H 0.78321 0.73308 0.17278 0.0
C308 C 0.81892 0.74541 0.1816 0.0
H309 H 0.85728 0.7686 0.2202 0.0
H310 H 0.64272 0.64807 0.25355 0.0
H311 H 0.68275 0.57392 0.23375 0.0
H312 H 0.76794 0.57809 0.21359 0.0
H313 H 0.813 0.65694 0.21242 0.0
C314 C 0.82303 0.75367 0.21088 0.0
C315 C 0.77803 0.74854 0.23004 0.0
C316 C 0.75348 0.70162 0.23241 0.0
C317 C 0.70564 0.69865 0.24575 0.0
C318 C 0.68024 0.65209 0.24528 0.0
C319 C 0.70261 0.60924 0.2337 0.0
C320 C 0.75045 0.61163 0.22221 0.0
C321 C 0.77574 0.65717 0.22148 0.0
H322 H 0.76336 0.29604 0.6728 0.0
C323 C 0.75435 0.33275 0.6819 0.0
H324 H 0.74558 0.37435 0.7215 0.0
H325 H 0.70789 0.17006 0.79228 0.0
H326 H 0.62954 0.21375 0.79897 0.0
H327 H 0.61389 0.2948 0.77432 0.0
H328 H 0.67675 0.33295 0.74306 0.0
C329 C 0.75625 0.33895 0.71142 0.0
C330 C 0.76889 0.29496 0.73051 0.0
C331 C 0.73189 0.27325 0.7488 0.0
C332 C 0.74067 0.22608 0.76265 0.0
C333 C 0.70304 0.20542 0.78089 0.0
C334 C 0.65789 0.23015 0.78498 0.0
C335 C 0.64909 0.2758 0.77111 0.0
C336 C 0.68548 0.29725 0.75319 0.0
H337 H 0.85338 0.17493 0.79896 0.0
C338 C 0.82965 0.14358 0.79277 0.0
H339 H 0.76911 0.12004 0.76634 0.0
H340 H 0.85133 0.33123 0.70234 0.0
H341 H 0.92921 0.28704 0.69438 0.0
H342 H 0.94156 0.20161 0.71403 0.0
H343 H 0.87687 0.16048 0.74231 0.0
C344 C 0.79446 0.15035 0.77196 0.0
C345 C 0.78635 0.2005 0.75805 0.0
C346 C 0.82394 0.22296 0.74036 0.0
C347 C 0.81576 0.27096 0.72749 0.0
C348 C 0.85487 0.29385 0.71142 0.0
C349 C 0.89983 0.26907 0.70687 0.0
C350 C 0.90686 0.22108 0.71805 0.0
C351 C 0.86949 0.19807 0.73452 0.0
H352 H 0.62636 0.27184 0.25663 0.0
C353 C 0.64734 0.27398 0.27725 0.0
H354 H 0.71854 0.26938 0.29723 0.0
H355 H 0.80538 0.14062 0.19096 0.0
H356 H 0.77879 0.07217 0.22269 0.0
H357 H 0.72699 0.08832 0.26681 0.0
H358 H 0.70118 0.17298 0.27934 0.0
C359 C 0.69699 0.26857 0.27681 0.0
C360 C 0.72417 0.2586 0.24888 0.0
C361 C 0.73917 0.20903 0.24208 0.0
C362 C 0.76967 0.19984 0.21698 0.0
C363 C 0.78329 0.14982 0.21025 0.0
C364 C 0.76801 0.11017 0.22816 0.0
C365 C 0.73879 0.11926 0.25298 0.0
C366 C 0.72435 0.16802 0.25995 0.0
H367 H 0.88021 0.21586 0.20702 0.0
C368 C 0.87089 0.22038 0.18368 0.0
H369 H 0.81418 0.23856 0.15284 0.0
H370 H 0.69912 0.35762 0.25485 0.0
H371 H 0.72417 0.42578 0.2225 0.0
H372 H 0.77746 0.40986 0.17899 0.0
H373 H 0.80604 0.32568 0.16757 0.0
C374 C 0.8241 0.23225 0.17592 0.0
C375 C 0.7859 0.24045 0.19918 0.0
C376 C 0.76857 0.28964 0.20501 0.0
C377 C 0.73777 0.29879 0.23003 0.0
C378 C 0.72227 0.34852 0.236 0.0
C379 C 0.73645 0.388 0.21764 0.0
C380 C 0.76646 0.37903 0.19314 0.0
C381 C 0.78259 0.33054 0.18684 0.0
H382 H 0.32011 0.4356 0.73977 0.0
C383 C 0.30204 0.43427 0.71818 0.0
H384 H 0.26408 0.38879 0.68703 0.0
H385 H 0.35091 0.1897 0.74554 0.0
H386 H 0.39661 0.19198 0.69922 0.0
H387 H 0.38934 0.2644 0.66546 0.0
H388 H 0.33659 0.33519 0.67794 0.0
C389 C 0.28 0.39161 0.70914 0.0
C390 C 0.28043 0.34596 0.7281 0.0
C391 C 0.31029 0.30425 0.72007 0.0
C392 C 0.31395 0.26211 0.73934 0.0
C393 C 0.34589 0.22209 0.73144 0.0
C394 C 0.37253 0.22303 0.70497 0.0
C395 C 0.36847 0.26383 0.68598 0.0
C396 C 0.33798 0.30418 0.69338 0.0
H397 H 0.26107 0.1628 0.76298 0.0
C398 C 0.27545 0.17414 0.78452 0.0
H399 H 0.30735 0.23206 0.81012 0.0
H400 H 0.21438 0.4166 0.74796 0.0
H401 H 0.16671 0.41342 0.7935 0.0
H402 H 0.17293 0.34057 0.82699 0.0
H403 H 0.22666 0.2705 0.81508 0.0
C404 C 0.29383 0.22068 0.78839 0.0
C405 C 0.28692 0.26151 0.7663 0.0
C406 C 0.25524 0.30229 0.77362 0.0
C407 C 0.25185 0.34444 0.75446 0.0
C408 C 0.21925 0.38417 0.76205 0.0
C409 C 0.19138 0.38269 0.78804 0.0
C410 C 0.19486 0.34168 0.80688 0.0
C411 C 0.22614 0.30179 0.79983 0.0
H412 H 0.35254 0.74381 0.25896 0.0
C413 C 0.33777 0.74936 0.28114 0.0
H414 H 0.2741 0.76364 0.30724 0.0
H415 H 0.17515 0.83999 0.18222 0.0
H416 H 0.23944 0.90383 0.18082 0.0
H417 H 0.30923 0.90234 0.21647 0.0
H418 H 0.3157 0.83646 0.25334 0.0
C419 C 0.289 0.75936 0.28499 0.0
C420 C 0.2515 0.7577 0.26071 0.0
C421 C 0.24787 0.79709 0.23975 0.0
C422 C 0.2065 0.7991 0.21999 0.0
C423 C 0.20468 0.83777 0.19852 0.0
C424 C 0.24153 0.87445 0.19733 0.0
C425 C 0.2809 0.87353 0.21735 0.0
C426 C 0.28421 0.83543 0.23839 0.0
H427 H 0.09924 0.83537 0.22411 0.0
C428 C 0.09008 0.80627 0.20811 0.0
H429 H 0.113 0.73849 0.18806 0.0
H430 H 0.2507 0.67371 0.29554 0.0
H431 H 0.18671 0.60957 0.29674 0.0
H432 H 0.11338 0.61482 0.26385 0.0
H433 H 0.10369 0.68405 0.2295 0.0
C434 C 0.12166 0.76776 0.20404 0.0
C435 C 0.168 0.76277 0.22203 0.0
C436 C 0.17316 0.72186 0.24182 0.0
C437 C 0.21502 0.71925 0.26109 0.0
C438 C 0.21921 0.67801 0.28075 0.0
C439 C 0.18286 0.64081 0.28158 0.0
C440 C 0.14162 0.64373 0.26304 0.0
C441 C 0.13657 0.6837 0.24338 0.0
H442 H 0.69829 0.59447 0.7387 0.0
C443 C 0.71228 0.59337 0.7161 0.0
H444 H 0.74881 0.63379 0.68214 0.0
H445 H 0.69384 0.84201 0.74352 0.0
H446 H 0.63855 0.84322 0.70095 0.0
H447 H 0.6317 0.76976 0.66792 0.0
H448 H 0.67981 0.69441 0.67744 0.0
C449 C 0.73681 0.63325 0.70514 0.0
C450 C 0.74485 0.67916 0.72333 0.0
C451 C 0.71771 0.7235 0.71691 0.0
C452 C 0.72225 0.76622 0.7357 0.0
C453 C 0.69274 0.80898 0.72964 0.0
C454 C 0.66065 0.81009 0.70533 0.0
C455 C 0.65676 0.76871 0.68674 0.0
C456 C 0.68466 0.72573 0.69243 0.0
H457 H 0.78678 0.86218 0.75615 0.0
C458 C 0.7751 0.85124 0.77828 0.0
H459 H 0.74412 0.79474 0.80528 0.0
H460 H 0.80746 0.60271 0.73926 0.0
H461 H 0.86486 0.60225 0.78084 0.0
H462 H 0.87309 0.67621 0.81336 0.0
H463 H 0.82415 0.75106 0.80444 0.0
C464 C 0.75507 0.80557 0.78299 0.0
C465 C 0.75478 0.76473 0.76049 0.0
C466 C 0.78388 0.72123 0.76593 0.0
C467 C 0.77899 0.67848 0.74731 0.0
C468 C 0.80896 0.63585 0.75307 0.0
C469 C 0.8423 0.63518 0.77676 0.0
C470 C 0.84694 0.67681 0.79506 0.0
C471 C 0.81835 0.71946 0.78977 0.0
H472 H 0.01224 0.62306 0.11345 0.0
C473 C 0.97749 0.63112 0.10198 0.0
H474 H 0.9184 0.60072 0.07668 0.0
H475 H 0.03407 0.40678 0.03481 0.0
H476 H 0.02412 0.45157 0.98836 0.0
H477 H 0.99098 0.53781 0.98752 0.0
H478 H 0.9672 0.57971 0.03311 0.0
C479 C 0.95287 0.59344 0.08858 0.0
C480 C 0.9723 0.54098 0.08922 0.0
C481 C 0.98641 0.51711 0.06241 0.0
C482 C 0.00626 0.4676 0.06294 0.0
C483 C 0.01939 0.44453 0.03576 0.0
C484 C 0.0138 0.46977 0.00891 0.0
C485 C 0.99509 0.51832 0.00844 0.0
C486 C 0.98153 0.54191 0.03479 0.0
H487 H 0.96913 0.35678 0.10798 0.0
C488 C 0.00705 0.35087 0.10035 0.0
H489 H 0.07142 0.38514 0.0827 0.0
H490 H 0.94101 0.57183 0.14422 0.0
H491 H 0.9547 0.52895 0.19085 0.0
H492 H 0.99782 0.44733 0.19235 0.0
H493 H 0.02608 0.40754 0.14716 0.0
C494 C 0.03361 0.39032 0.09064 0.0
C495 C 0.01241 0.44209 0.0903 0.0
C496 C 0.99889 0.46626 0.1172 0.0
C497 C 0.97714 0.51491 0.11655 0.0
C498 C 0.96028 0.53627 0.14351 0.0
C499 C 0.9675 0.51184 0.17046 0.0
C500 C 0.99153 0.4658 0.17129 0.0
C501 C 0.00718 0.44314 0.14508 0.0
H502 H 0.86524 0.52491 0.60771 0.0
C503 C 0.85753 0.48841 0.59795 0.0
H504 H 0.88871 0.42529 0.57649 0.0
H505 H 0.08275 0.54006 0.53378 0.0
H506 H 0.04287 0.52064 0.48684 0.0
H507 H 0.9587 0.4838 0.48534 0.0
H508 H 0.91403 0.46566 0.5308 0.0
C509 C 0.89534 0.4618 0.58644 0.0
C510 C 0.94727 0.48161 0.58742 0.0
C511 C 0.97273 0.49234 0.56067 0.0
C512 C 0.02099 0.51438 0.56154 0.0
C513 C 0.0458 0.52399 0.53444 0.0
C514 C 0.02338 0.51295 0.50732 0.0
C515 C 0.976 0.49216 0.50648 0.0
C516 C 0.95078 0.48192 0.53275 0.0
H517 H 0.12725 0.48981 0.61302 0.0
C518 C 0.13282 0.52631 0.60282 0.0
H519 H 0.09896 0.58568 0.57921 0.0
H520 H 0.91374 0.45631 0.64291 0.0
H521 H 0.95133 0.47955 0.68983 0.0
H522 H 0.02973 0.52762 0.69133 0.0
H523 H 0.07171 0.55114 0.64598 0.0
C524 C 0.09401 0.54948 0.58985 0.0
C525 C 0.04351 0.5262 0.58917 0.0
C526 C 0.01778 0.51582 0.61597 0.0
C527 C 0.97067 0.49153 0.61509 0.0
C528 C 0.94801 0.47752 0.64221 0.0
C529 C 0.96943 0.4902 0.66935 0.0
C530 C 0.01368 0.517 0.67019 0.0
C531 C 0.03768 0.52982 0.64392 0.0
H532 H 0.58547 0.1217 0.38734 0.0
C533 C 0.55526 0.14177 0.3765 0.0
H534 H 0.48649 0.13526 0.35414 0.0
H535 H 0.50904 0.9143 0.30978 0.0
H536 H 0.51621 0.96086 0.26392 0.0
H537 H 0.52367 0.053 0.26431 0.0
H538 H 0.52351 0.09917 0.31059 0.0
C539 C 0.51598 0.11587 0.36604 0.0
C540 C 0.51463 0.05989 0.36647 0.0
C541 C 0.51565 0.03323 0.33922 0.0
C542 C 0.51243 0.97995 0.33903 0.0
C543 C 0.51223 0.95462 0.31138 0.0
C544 C 0.51622 0.9809 0.28481 0.0
C545 C 0.52034 0.03277 0.28503 0.0
C546 C 0.52005 0.05882 0.3118 0.0
H547 H 0.43204 0.89935 0.38603 0.0
C548 C 0.46006 0.87604 0.37543 0.0
H549 H 0.52984 0.87496 0.35408 0.0
H550 H 0.50822 0.09895 0.42259 0.0
H551 H 0.50664 0.05217 0.46865 0.0
H552 H 0.50863 0.95971 0.46846 0.0
H553 H 0.51106 0.91349 0.42214 0.0
C554 C 0.50211 0.89751 0.36545 0.0
C555 C 0.50879 0.95316 0.36613 0.0
C556 C 0.50996 0.97969 0.39345 0.0
C557 C 0.51153 0.0331 0.39361 0.0
C558 C 0.50926 0.05851 0.42116 0.0
C559 C 0.50802 0.0321 0.44779 0.0
C560 C 0.50893 0.98004 0.44768 0.0
C561 C 0.50992 0.95396 0.42091 0.0
H562 H 0.39248 0.98823 0.86581 0.0
C563 C 0.38741 0.02584 0.87463 0.0
H564 H 0.4229 0.08855 0.89408 0.0
H565 H 0.61459 0.97358 0.93829 0.0
H566 H 0.57427 0.99271 0.98506 0.0
H567 H 0.48942 0.02802 0.98616 0.0
H568 H 0.44445 0.04478 0.9405 0.0
C569 C 0.42718 0.05116 0.88486 0.0
C570 C 0.47812 0.02902 0.88401 0.0
C571 C 0.50372 0.01897 0.9109 0.0
C572 C 0.55242 0.99795 0.91027 0.0
C573 C 0.57737 0.98903 0.93747 0.0
C574 C 0.55468 0.99988 0.96448 0.0
C575 C 0.50692 0.0198 0.9651 0.0
C576 C 0.48155 0.02931 0.93871 0.0
H577 H 0.65694 0.02958 0.86087 0.0
C578 C 0.66457 0.99276 0.87018 0.0
H579 H 0.63386 0.92984 0.89203 0.0
H580 H 0.44284 0.05007 0.82812 0.0
H581 H 0.48115 0.0268 0.78156 0.0
H582 H 0.5616 0.98224 0.78067 0.0
H583 H 0.60475 0.96199 0.82634 0.0
C584 C 0.62705 0.96641 0.88222 0.0
C585 C 0.57535 0.98672 0.88277 0.0
C586 C 0.5492 0.99553 0.85586 0.0
C587 C 0.50131 0.01829 0.85645 0.0
C588 C 0.47796 0.03036 0.82914 0.0
C589 C 0.49976 0.0176 0.80218 0.0
C590 C 0.54515 0.99275 0.80167 0.0
C591 C 0.56973 0.98174 0.8281 0.0
loop_
_geom_bond_atom_site_label_1
_geom_bond_atom_site_label_2
_geom_bond_distance
_geom_bond_site_symmetry_2
_ccdc_geom_bond_type
Mg0 O1 2.028 . S
Mg0 O7 1.986 . S
Mg0 O9 2.114 . S
Mg0 O10 2.251 . S
Mg0 O13 2.010 . S
O1 Mg0 2.028 . S
O1 C4 1.250 . S
O2 Mg3 2.028 . S
O2 C4 1.248 . S
Mg3 O2 2.028 . S
Mg3 O8 2.032 . S
Mg3 O10 2.079 . S
C4 O1 1.250 . S
C4 O2 1.248 . S
C5 O6 1.264 . S
C5 O13 1.249 1_655 S
O6 C5 1.264 . S
O7 Mg0 1.986 . S
O7 C11 1.246 . S
O8 Mg3 2.032 . S
O8 C11 1.259 . S
O9 Mg0 2.114 . S
O9 C12 1.252 . S
O10 Mg0 2.251 . S
O10 Mg3 2.079 . S
O10 C12 1.273 . S
C11 O7 1.246 . S
C11 O8 1.259 . S
C12 O9 1.252 . S
C12 O10 1.273 . S
O13 Mg0 2.010 . S
O13 C5 1.249 1_455 S
Mg14 O15 2.028 . S
Mg14 O21 1.986 . S
Mg14 O23 2.114 . S
Mg14 O24 2.251 . S
Mg14 O27 2.010 . S
O15 Mg14 2.028 . S
O15 C18 1.250 . S
O16 Mg17 2.028 . S
O16 C18 1.248 . S
Mg17 O16 2.028 . S
Mg17 O22 2.032 . S
Mg17 O24 2.079 . S
C18 O15 1.250 . S
C18 O16 1.248 . S
C19 O20 1.264 . S
C19 O27 1.249 . S
O20 C19 1.264 . S
O21 Mg14 1.986 . S
O21 C25 1.246 . S
O22 Mg17 2.032 . S
O22 C25 1.259 . S
O23 Mg14 2.114 . S
O23 C26 1.252 . S
O24 Mg14 2.251 . S
O24 Mg17 2.079 . S
O24 C26 1.273 . S
C25 O21 1.246 . S
C25 O22 1.259 . S
C26 O23 1.252 . S
C26 O24 1.273 . S
O27 Mg14 2.010 . S
O27 C19 1.249 . S
Mg28 O29 2.028 . S
Mg28 O35 1.986 . S
Mg28 O37 2.114 . S
Mg28 O38 2.251 . S
Mg28 O41 2.010 . S
O29 Mg28 2.028 . S
O29 C32 1.250 . S
O30 Mg31 2.028 . S
O30 C32 1.248 . S
Mg31 O30 2.028 . S
Mg31 O36 2.032 . S
Mg31 O38 2.079 . S
C32 O29 1.250 . S
C32 O30 1.248 . S
C33 O34 1.264 . S
C33 O41 1.249 1_455 S
O34 C33 1.264 . S
O35 Mg28 1.986 . S
O35 C39 1.246 . S
O36 Mg31 2.032 . S
O36 C39 1.259 . S
O37 Mg28 2.114 . S
O37 C40 1.252 . S
O38 Mg28 2.251 . S
O38 Mg31 2.079 . S
O38 C40 1.273 . S
C39 O35 1.246 . S
C39 O36 1.259 . S
C40 O37 1.252 . S
C40 O38 1.273 . S
O41 Mg28 2.010 . S
O41 C33 1.249 1_655 S
Mg42 O43 2.028 . S
Mg42 O49 1.986 . S
Mg42 O51 2.114 . S
Mg42 O52 2.251 . S
Mg42 O55 2.010 . S
O43 Mg42 2.028 . S
O43 C46 1.250 . S
O44 Mg45 2.028 . S
O44 C46 1.248 . S
Mg45 O44 2.028 . S
Mg45 O50 2.032 . S
Mg45 O52 2.079 . S
C46 O43 1.250 . S
C46 O44 1.248 . S
C47 O48 1.264 . S
C47 O55 1.249 . S
O48 C47 1.264 . S
O49 Mg42 1.986 . S
O49 C53 1.246 . S
O50 Mg45 2.032 . S
O50 C53 1.259 . S
O51 Mg42 2.114 . S
O51 C54 1.252 . S
O52 Mg42 2.251 . S
O52 Mg45 2.079 . S
O52 C54 1.273 . S
C53 O49 1.246 . S
C53 O50 1.259 . S
C54 O51 1.252 . S
C54 O52 1.273 . S
O55 Mg42 2.010 . S
O55 C47 1.249 . S
Mg56 O57 2.028 . S
Mg56 O63 1.986 . S
Mg56 O65 2.114 . S
Mg56 O66 2.251 . S
Mg56 O69 2.010 . S
O57 Mg56 2.028 . S
O57 C60 1.250 . S
O58 Mg59 2.028 . S
O58 C60 1.248 . S
Mg59 O58 2.028 . S
Mg59 O64 2.032 . S
Mg59 O66 2.079 . S
C60 O57 1.250 . S
C60 O58 1.248 . S
C61 O62 1.264 . S
C61 O69 1.249 . S
O62 C61 1.264 . S
O63 Mg56 1.986 . S
O63 C67 1.246 . S
O64 Mg59 2.032 . S
O64 C67 1.259 . S
O65 Mg56 2.114 . S
O65 C68 1.252 . S
O66 Mg56 2.251 . S
O66 Mg59 2.079 . S
O66 C68 1.273 . S
C67 O63 1.246 . S
C67 O64 1.259 . S
C68 O65 1.252 . S
C68 O66 1.273 . S
O69 Mg56 2.010 . S
O69 C61 1.249 . S
Mg70 O71 2.028 . S
Mg70 O77 1.986 . S
Mg70 O79 2.114 . S
Mg70 O80 2.251 . S
Mg70 O83 2.010 . S
O71 Mg70 2.028 . S
O71 C74 1.250 . S
O72 Mg73 2.028 . S
O72 C74 1.248 . S
Mg73 O72 2.028 . S
Mg73 O78 2.032 . S
Mg73 O80 2.079 . S
C74 O71 1.250 . S
C74 O72 1.248 . S
C75 O76 1.264 . S
C75 O83 1.249 1_565 S
O76 C75 1.264 . S
O77 Mg70 1.986 . S
O77 C81 1.246 . S
O78 Mg73 2.032 . S
O78 C81 1.259 . S
O79 Mg70 2.114 . S
O79 C82 1.252 . S
O80 Mg70 2.251 . S
O80 Mg73 2.079 . S
O80 C82 1.273 . S
C81 O77 1.246 . S
C81 O78 1.259 . S
C82 O79 1.252 . S
C82 O80 1.273 . S
O83 Mg70 2.010 . S
O83 C75 1.249 1_545 S
Mg84 O85 2.028 . S
Mg84 O91 1.986 . S
Mg84 O93 2.114 . S
Mg84 O94 2.251 . S
Mg84 O97 2.010 . S
O85 Mg84 2.028 . S
O85 C88 1.250 . S
O86 Mg87 2.028 . S
O86 C88 1.248 . S
Mg87 O86 2.028 . S
Mg87 O92 2.032 . S
Mg87 O94 2.079 . S
C88 O85 1.250 . S
C88 O86 1.248 . S
C89 O90 1.264 . S
C89 O97 1.249 . S
O90 C89 1.264 . S
O91 Mg84 1.986 . S
O91 C95 1.246 . S
O92 Mg87 2.032 . S
O92 C95 1.259 . S
O93 Mg84 2.114 . S
O93 C96 1.252 . S
O94 Mg84 2.251 . S
O94 Mg87 2.079 . S
O94 C96 1.273 . S
C95 O91 1.246 . S
C95 O92 1.259 . S
C96 O93 1.252 . S
C96 O94 1.273 . S
O97 Mg84 2.010 . S
O97 C89 1.249 . S
Mg98 O99 2.028 . S
Mg98 O105 1.986 . S
Mg98 O107 2.114 . S
Mg98 O108 2.251 . S
Mg98 O111 2.010 . S
O99 Mg98 2.028 . S
O99 C102 1.250 . S
O100 Mg101 2.028 . S
O100 C102 1.248 . S
Mg101 O100 2.028 . S
Mg101 O106 2.032 . S
Mg101 O108 2.079 . S
C102 O99 1.250 . S
C102 O100 1.248 . S
C103 O104 1.264 . S
C103 O111 1.249 1_545 S
O104 C103 1.264 . S
O105 Mg98 1.986 . S
O105 C109 1.246 . S
O106 Mg101 2.032 . S
O106 C109 1.259 . S
O107 Mg98 2.114 . S
O107 C110 1.252 . S
O108 Mg98 2.251 . S
O108 Mg101 2.079 . S
O108 C110 1.273 . S
C109 O105 1.246 . S
C109 O106 1.259 . S
C110 O107 1.252 . S
C110 O108 1.273 . S
O111 Mg98 2.010 . S
O111 C103 1.249 1_565 S
H112 C113 0.951 . S
C113 H112 0.951 . S
C113 C119 1.265 . S
H114 C119 0.950 . S
H115 C123 0.949 . S
H116 C124 0.950 1_565 S
H117 C125 0.951 . S
H118 C126 0.951 . S
C119 C113 1.265 . S
C119 H114 0.950 . S
C119 C120 1.478 . S
C120 C119 1.478 . S
C120 C121 1.397 . S
C120 C137 1.394 . S
C121 C120 1.397 . S
C121 C122 1.438 1_554 S
C121 C126 1.429 . S
C122 C121 1.438 1_556 S
C122 C123 1.428 . S
C122 C135 1.394 . S
C123 H115 0.949 . S
C123 C122 1.428 . S
C123 C124 1.345 1_556 S
C124 H116 0.950 1_545 S
C124 C123 1.345 1_554 S
C124 C125 1.424 . S
C125 H117 0.951 . S
C125 C124 1.424 . S
C125 C126 1.347 . S
C126 H118 0.951 . S
C126 C121 1.429 . S
C126 C125 1.347 . S
H127 C128 0.951 . S
C128 H127 0.951 . S
C128 C134 1.265 . S
H129 C134 0.950 . S
H130 C138 0.949 . S
H131 C139 0.950 . S
H132 C140 0.951 . S
H133 C141 0.951 . S
C134 C128 1.265 . S
C134 H129 0.950 . S
C134 C135 1.478 . S
C135 C122 1.394 . S
C135 C134 1.478 . S
C135 C136 1.397 . S
C136 C135 1.397 . S
C136 C137 1.438 1_556 S
C136 C141 1.429 . S
C137 C120 1.394 . S
C137 C136 1.438 1_554 S
C137 C138 1.428 . S
C138 H130 0.949 . S
C138 C137 1.428 . S
C138 C139 1.345 1_554 S
C139 H131 0.950 . S
C139 C138 1.345 1_556 S
C139 C140 1.424 . S
C140 H132 0.951 . S
C140 C139 1.424 . S
C140 C141 1.347 . S
C141 H133 0.951 . S
C141 C136 1.429 . S
C141 C140 1.347 . S
H142 C143 0.951 . S
C143 H142 0.951 . S
C143 C149 1.265 . S
H144 C149 0.950 . S
H145 C153 0.949 . S
H146 C154 0.950 . S
H147 C155 0.951 . S
H148 C156 0.951 . S
C149 C143 1.265 . S
C149 H144 0.950 . S
C149 C150 1.478 . S
C150 C149 1.478 . S
C150 C151 1.397 . S
C150 C167 1.394 . S
C151 C150 1.397 . S
C151 C152 1.438 . S
C151 C156 1.429 . S
C152 C151 1.438 . S
C152 C153 1.428 . S
C152 C165 1.394 . S
C153 H145 0.949 . S
C153 C152 1.428 . S
C153 C154 1.345 . S
C154 H146 0.950 . S
C154 C153 1.345 . S
C154 C155 1.424 . S
C155 H147 0.951 . S
C155 C154 1.424 . S
C155 C156 1.347 . S
C156 H148 0.951 . S
C156 C151 1.429 . S
C156 C155 1.347 . S
H157 C158 0.951 . S
C158 H157 0.951 . S
C158 C164 1.265 . S
H159 C164 0.950 . S
H160 C168 0.949 . S
H161 C169 0.950 . S
H162 C170 0.951 . S
H163 C171 0.951 . S
C164 C158 1.265 . S
C164 H159 0.950 . S
C164 C165 1.478 . S
C165 C152 1.394 . S
C165 C164 1.478 . S
C165 C166 1.397 . S
C166 C165 1.397 . S
C166 C167 1.438 . S
C166 C171 1.429 . S
C167 C150 1.394 . S
C167 C166 1.438 . S
C167 C168 1.428 . S
C168 H160 0.949 . S
C168 C167 1.428 . S
C168 C169 1.345 . S
C169 H161 0.950 . S
C169 C168 1.345 . S
C169 C170 1.424 . S
C170 H162 0.951 . S
C170 C169 1.424 . S
C170 C171 1.347 . S
C171 H163 0.951 . S
C171 C166 1.429 . S
C171 C170 1.347 . S
H172 C173 0.951 . S
C173 H172 0.951 . S
C173 C179 1.265 . S
H174 C179 0.950 . S
H175 C183 0.949 . S
H176 C184 0.950 1_545 S
H177 C185 0.951 . S
H178 C186 0.951 . S
C179 C173 1.265 . S
C179 H174 0.950 . S
C179 C180 1.478 . S
C180 C179 1.478 . S
C180 C181 1.397 . S
C180 C197 1.394 . S
C181 C180 1.397 . S
C181 C182 1.438 1_554 S
C181 C186 1.429 . S
C182 C181 1.438 1_556 S
C182 C183 1.428 . S
C182 C195 1.394 . S
C183 H175 0.949 . S
C183 C182 1.428 . S
C183 C184 1.345 . S
C184 H176 0.950 1_565 S
C184 C183 1.345 . S
C184 C185 1.424 1_556 S
C185 H177 0.951 . S
C185 C184 1.424 1_554 S
C185 C186 1.347 . S
C186 H178 0.951 . S
C186 C181 1.429 . S
C186 C185 1.347 . S
H187 C188 0.951 . S
C188 H187 0.951 . S
C188 C194 1.265 . S
H189 C194 0.950 . S
H190 C198 0.949 . S
H191 C199 0.950 . S
H192 C200 0.951 . S
H193 C201 0.951 . S
C194 C188 1.265 . S
C194 H189 0.950 . S
C194 C195 1.478 . S
C195 C182 1.394 . S
C195 C194 1.478 . S
C195 C196 1.397 . S
C196 C195 1.397 . S
C196 C197 1.438 1_556 S
C196 C201 1.429 . S
C197 C180 1.394 . S
C197 C196 1.438 1_554 S
C197 C198 1.428 . S
C198 H190 0.949 . S
C198 C197 1.428 . S
C198 C199 1.345 . S
C199 H191 0.950 . S
C199 C198 1.345 . S
C199 C200 1.424 1_554 S
C200 H192 0.951 . S
C200 C199 1.424 1_556 S
C200 C201 1.347 . S
C201 H193 0.951 . S
C201 C196 1.429 . S
C201 C200 1.347 . S
H202 C203 0.951 . S
C203 H202 0.951 . S
C203 C209 1.265 . S
H204 C209 0.950 . S
H205 C213 0.949 . S
H206 C214 0.950 . S
H207 C215 0.951 . S
H208 C216 0.951 . S
C209 C203 1.265 . S
C209 H204 0.950 . S
C209 C210 1.478 . S
C210 C209 1.478 . S
C210 C211 1.397 . S
C210 C227 1.394 . S
C211 C210 1.397 . S
C211 C212 1.438 . S
C211 C216 1.429 . S
C212 C211 1.438 . S
C212 C213 1.428 . S
C212 C225 1.394 . S
C213 H205 0.949 . S
C213 C212 1.428 . S
C213 C214 1.345 . S
C214 H206 0.950 . S
C214 C213 1.345 . S
C214 C215 1.424 . S
C215 H207 0.951 . S
C215 C214 1.424 . S
C215 C216 1.347 . S
C216 H208 0.951 . S
C216 C211 1.429 . S
C216 C215 1.347 . S
H217 C218 0.951 . S
C218 H217 0.951 . S
C218 C224 1.265 . S
H219 C224 0.950 . S
H220 C228 0.949 . S
H221 C229 0.950 . S
H222 C230 0.951 . S
H223 C231 0.951 . S
C224 C218 1.265 . S
C224 H219 0.950 . S
C224 C225 1.478 . S
C225 C212 1.394 . S
C225 C224 1.478 . S
C225 C226 1.397 . S
C226 C225 1.397 . S
C226 C227 1.438 . S
C226 C231 1.429 . S
C227 C210 1.394 . S
C227 C226 1.438 . S
C227 C228 1.428 . S
C228 H220 0.949 . S
C228 C227 1.428 . S
C228 C229 1.345 . S
C229 H221 0.950 . S
C229 C228 1.345 . S
C229 C230 1.424 . S
C230 H222 0.951 . S
C230 C229 1.424 . S
C230 C231 1.347 . S
C231 H223 0.951 . S
C231 C226 1.429 . S
C231 C230 1.347 . S
H232 C233 0.951 . S
C233 H232 0.951 . S
C233 C239 1.265 . S
H234 C239 0.950 . S
H235 C243 0.949 . S
H236 C244 0.950 . S
H237 C245 0.951 . S
H238 C246 0.951 . S
C239 C233 1.265 . S
C239 H234 0.950 . S
C239 C240 1.478 . S
C240 C239 1.478 . S
C240 C241 1.397 . S
C240 C257 1.394 . S
C241 C240 1.397 . S
C241 C242 1.438 . S
C241 C246 1.429 . S
C242 C241 1.438 . S
C242 C243 1.428 . S
C242 C255 1.394 . S
C243 H235 0.949 . S
C243 C242 1.428 . S
C243 C244 1.345 . S
C244 H236 0.950 . S
C244 C243 1.345 . S
C244 C245 1.424 . S
C245 H237 0.951 . S
C245 C244 1.424 . S
C245 C246 1.347 . S
C246 H238 0.951 . S
C246 C241 1.429 . S
C246 C245 1.347 . S
H247 C248 0.951 . S
C248 H247 0.951 . S
C248 C254 1.265 . S
H249 C254 0.950 . S
H250 C258 0.949 . S
H251 C259 0.950 . S
H252 C260 0.951 . S
H253 C261 0.951 . S
C254 C248 1.265 . S
C254 H249 0.950 . S
C254 C255 1.478 . S
C255 C242 1.394 . S
C255 C254 1.478 . S
C255 C256 1.397 . S
C256 C255 1.397 . S
C256 C257 1.438 . S
C256 C261 1.429 . S
C257 C240 1.394 . S
C257 C256 1.438 . S
C257 C258 1.428 . S
C258 H250 0.949 . S
C258 C257 1.428 . S
C258 C259 1.345 . S
C259 H251 0.950 . S
C259 C258 1.345 . S
C259 C260 1.424 . S
C260 H252 0.951 . S
C260 C259 1.424 . S
C260 C261 1.347 . S
C261 H253 0.951 . S
C261 C256 1.429 . S
C261 C260 1.347 . S
H262 C263 0.951 . S
C263 H262 0.951 . S
C263 C269 1.265 . S
H264 C269 0.950 . S
H265 C273 0.949 . S
H266 C274 0.950 . S
H267 C275 0.951 . S
H268 C276 0.951 . S
C269 C263 1.265 . S
C269 H264 0.950 . S
C269 C270 1.478 . S
C270 C269 1.478 . S
C270 C271 1.397 . S
C270 C287 1.394 . S
C271 C270 1.397 . S
C271 C272 1.438 . S
C271 C276 1.429 . S
C272 C271 1.438 . S
C272 C273 1.428 . S
C272 C285 1.394 . S
C273 H265 0.949 . S
C273 C272 1.428 . S
C273 C274 1.345 . S
C274 H266 0.950 . S
C274 C273 1.345 . S
C274 C275 1.424 . S
C275 H267 0.951 . S
C275 C274 1.424 . S
C275 C276 1.347 . S
C276 H268 0.951 . S
C276 C271 1.429 . S
C276 C275 1.347 . S
H277 C278 0.951 . S
C278 H277 0.951 . S
C278 C284 1.265 . S
H279 C284 0.950 . S
H280 C288 0.949 . S
H281 C289 0.950 . S
H282 C290 0.951 . S
H283 C291 0.951 . S
C284 C278 1.265 . S
C284 H279 0.950 . S
C284 C285 1.478 . S
C285 C272 1.394 . S
C285 C284 1.478 . S
C285 C286 1.397 . S
C286 C285 1.397 . S
C286 C287 1.438 . S
C286 C291 1.429 . S
C287 C270 1.394 . S
C287 C286 1.438 . S
C287 C288 1.428 . S
C288 H280 0.949 . S
C288 C287 1.428 . S
C288 C289 1.345 . S
C289 H281 0.950 . S
C289 C288 1.345 . S
C289 C290 1.424 . S
C290 H282 0.951 . S
C290 C289 1.424 . S
C290 C291 1.347 . S
C291 H283 0.951 . S
C291 C286 1.429 . S
C291 C290 1.347 . S
H292 C293 0.951 . S
C293 H292 0.951 . S
C293 C299 1.265 . S
H294 C299 0.950 . S
H295 C303 0.949 . S
H296 C304 0.950 . S
H297 C305 0.951 . S
H298 C306 0.951 . S
C299 C293 1.265 . S
C299 H294 0.950 . S
C299 C300 1.478 . S
C300 C299 1.478 . S
C300 C301 1.397 . S
C300 C317 1.394 . S
C301 C300 1.397 . S
C301 C302 1.438 . S
C301 C306 1.429 . S
C302 C301 1.438 . S
C302 C303 1.428 . S
C302 C315 1.394 . S
C303 H295 0.949 . S
C303 C302 1.428 . S
C303 C304 1.345 . S
C304 H296 0.950 . S
C304 C303 1.345 . S
C304 C305 1.424 . S
C305 H297 0.951 . S
C305 C304 1.424 . S
C305 C306 1.347 . S
C306 H298 0.951 . S
C306 C301 1.429 . S
C306 C305 1.347 . S
H307 C308 0.951 . S
C308 H307 0.951 . S
C308 C314 1.265 . S
H309 C314 0.950 . S
H310 C318 0.949 . S
H311 C319 0.950 . S
H312 C320 0.951 . S
H313 C321 0.951 . S
C314 C308 1.265 . S
C314 H309 0.950 . S
C314 C315 1.478 . S
C315 C302 1.394 . S
C315 C314 1.478 . S
C315 C316 1.397 . S
C316 C315 1.397 . S
C316 C317 1.438 . S
C316 C321 1.429 . S
C317 C300 1.394 . S
C317 C316 1.438 . S
C317 C318 1.428 . S
C318 H310 0.949 . S
C318 C317 1.428 . S
C318 C319 1.345 . S
C319 H311 0.950 . S
C319 C318 1.345 . S
C319 C320 1.424 . S
C320 H312 0.951 . S
C320 C319 1.424 . S
C320 C321 1.347 . S
C321 H313 0.951 . S
C321 C316 1.429 . S
C321 C320 1.347 . S
H322 C323 0.951 . S
C323 H322 0.951 . S
C323 C329 1.265 . S
H324 C329 0.950 . S
H325 C333 0.949 . S
H326 C334 0.950 . S
H327 C335 0.951 . S
H328 C336 0.951 . S
C329 C323 1.265 . S
C329 H324 0.950 . S
C329 C330 1.478 . S
C330 C329 1.478 . S
C330 C331 1.397 . S
C330 C347 1.394 . S
C331 C330 1.397 . S
C331 C332 1.438 . S
C331 C336 1.429 . S
C332 C331 1.438 . S
C332 C333 1.428 . S
C332 C345 1.394 . S
C333 H325 0.949 . S
C333 C332 1.428 . S
C333 C334 1.345 . S
C334 H326 0.950 . S
C334 C333 1.345 . S
C334 C335 1.424 . S
C335 H327 0.951 . S
C335 C334 1.424 . S
C335 C336 1.347 . S
C336 H328 0.951 . S
C336 C331 1.429 . S
C336 C335 1.347 . S
H337 C338 0.951 . S
C338 H337 0.951 . S
C338 C344 1.265 . S
H339 C344 0.950 . S
H340 C348 0.949 . S
H341 C349 0.950 . S
H342 C350 0.951 . S
H343 C351 0.951 . S
C344 C338 1.265 . S
C344 H339 0.950 . S
C344 C345 1.478 . S
C345 C332 1.394 . S
C345 C344 1.478 . S
C345 C346 1.397 . S
C346 C345 1.397 . S
C346 C347 1.438 . S
C346 C351 1.429 . S
C347 C330 1.394 . S
C347 C346 1.438 . S
C347 C348 1.428 . S
C348 H340 0.949 . S
C348 C347 1.428 . S
C348 C349 1.345 . S
C349 H341 0.950 . S
C349 C348 1.345 . S
C349 C350 1.424 . S
C350 H342 0.951 . S
C350 C349 1.424 . S
C350 C351 1.347 . S
C351 H343 0.951 . S
C351 C346 1.429 . S
C351 C350 1.347 . S
H352 C353 0.951 . S
C353 H352 0.951 . S
C353 C359 1.265 . S
H354 C359 0.950 . S
H355 C363 0.949 . S
H356 C364 0.950 . S
H357 C365 0.951 . S
H358 C366 0.951 . S
C359 C353 1.265 . S
C359 H354 0.950 . S
C359 C360 1.478 . S
C360 C359 1.478 . S
C360 C361 1.397 . S
C360 C377 1.394 . S
C361 C360 1.397 . S
C361 C362 1.438 . S
C361 C366 1.429 . S
C362 C361 1.438 . S
C362 C363 1.428 . S
C362 C375 1.394 . S
C363 H355 0.949 . S
C363 C362 1.428 . S
C363 C364 1.345 . S
C364 H356 0.950 . S
C364 C363 1.345 . S
C364 C365 1.424 . S
C365 H357 0.951 . S
C365 C364 1.424 . S
C365 C366 1.347 . S
C366 H358 0.951 . S
C366 C361 1.429 . S
C366 C365 1.347 . S
H367 C368 0.951 . S
C368 H367 0.951 . S
C368 C374 1.265 . S
H369 C374 0.950 . S
H370 C378 0.949 . S
H371 C379 0.950 . S
H372 C380 0.951 . S
H373 C381 0.951 . S
C374 C368 1.265 . S
C374 H369 0.950 . S
C374 C375 1.478 . S
C375 C362 1.394 . S
C375 C374 1.478 . S
C375 C376 1.397 . S
C376 C375 1.397 . S
C376 C377 1.438 . S
C376 C381 1.429 . S
C377 C360 1.394 . S
C377 C376 1.438 . S
C377 C378 1.428 . S
C378 H370 0.949 . S
C378 C377 1.428 . S
C378 C379 1.345 . S
C379 H371 0.950 . S
C379 C378 1.345 . S
C379 C380 1.424 . S
C380 H372 0.951 . S
C380 C379 1.424 . S
C380 C381 1.347 . S
C381 H373 0.951 . S
C381 C376 1.429 . S
C381 C380 1.347 . S
H382 C383 0.951 . S
C383 H382 0.951 . S
C383 C389 1.265 . S
H384 C389 0.950 . S
H385 C393 0.949 . S
H386 C394 0.950 . S
H387 C395 0.951 . S
H388 C396 0.951 . S
C389 C383 1.265 . S
C389 H384 0.950 . S
C389 C390 1.478 . S
C390 C389 1.478 . S
C390 C391 1.397 . S
C390 C407 1.394 . S
C391 C390 1.397 . S
C391 C392 1.438 . S
C391 C396 1.429 . S
C392 C391 1.438 . S
C392 C393 1.428 . S
C392 C405 1.394 . S
C393 H385 0.949 . S
C393 C392 1.428 . S
C393 C394 1.345 . S
C394 H386 0.950 . S
C394 C393 1.345 . S
C394 C395 1.424 . S
C395 H387 0.951 . S
C395 C394 1.424 . S
C395 C396 1.347 . S
C396 H388 0.951 . S
C396 C391 1.429 . S
C396 C395 1.347 . S
H397 C398 0.951 . S
C398 H397 0.951 . S
C398 C404 1.265 . S
H399 C404 0.950 . S
H400 C408 0.949 . S
H401 C409 0.950 . S
H402 C410 0.951 . S
H403 C411 0.951 . S
C404 C398 1.265 . S
C404 H399 0.950 . S
C404 C405 1.478 . S
C405 C392 1.394 . S
C405 C404 1.478 . S
C405 C406 1.397 . S
C406 C405 1.397 . S
C406 C407 1.438 . S
C406 C411 1.429 . S
C407 C390 1.394 . S
C407 C406 1.438 . S
C407 C408 1.428 . S
C408 H400 0.949 . S
C408 C407 1.428 . S
C408 C409 1.345 . S
C409 H401 0.950 . S
C409 C408 1.345 . S
C409 C410 1.424 . S
C410 H402 0.951 . S
C410 C409 1.424 . S
C410 C411 1.347 . S
C411 H403 0.951 . S
C411 C406 1.429 . S
C411 C410 1.347 . S
H412 C413 0.951 . S
C413 H412 0.951 . S
C413 C419 1.265 . S
H414 C419 0.950 . S
H415 C423 0.949 . S
H416 C424 0.950 . S
H417 C425 0.951 . S
H418 C426 0.951 . S
C419 C413 1.265 . S
C419 H414 0.950 . S
C419 C420 1.478 . S
C420 C419 1.478 . S
C420 C421 1.397 . S
C420 C437 1.394 . S
C421 C420 1.397 . S
C421 C422 1.438 . S
C421 C426 1.429 . S
C422 C421 1.438 . S
C422 C423 1.428 . S
C422 C435 1.394 . S
C423 H415 0.949 . S
C423 C422 1.428 . S
C423 C424 1.345 . S
C424 H416 0.950 . S
C424 C423 1.345 . S
C424 C425 1.424 . S
C425 H417 0.951 . S
C425 C424 1.424 . S
C425 C426 1.347 . S
C426 H418 0.951 . S
C426 C421 1.429 . S
C426 C425 1.347 . S
H427 C428 0.951 . S
C428 H427 0.951 . S
C428 C434 1.265 . S
H429 C434 0.950 . S
H430 C438 0.949 . S
H431 C439 0.950 . S
H432 C440 0.951 . S
H433 C441 0.951 . S
C434 C428 1.265 . S
C434 H429 0.950 . S
C434 C435 1.478 . S
C435 C422 1.394 . S
C435 C434 1.478 . S
C435 C436 1.397 . S
C436 C435 1.397 . S
C436 C437 1.438 . S
C436 C441 1.429 . S
C437 C420 1.394 . S
C437 C436 1.438 . S
C437 C438 1.428 . S
C438 H430 0.949 . S
C438 C437 1.428 . S
C438 C439 1.345 . S
C439 H431 0.950 . S
C439 C438 1.345 . S
C439 C440 1.424 . S
C440 H432 0.951 . S
C440 C439 1.424 . S
C440 C441 1.347 . S
C441 H433 0.951 . S
C441 C436 1.429 . S
C441 C440 1.347 . S
H442 C443 0.951 . S
C443 H442 0.951 . S
C443 C449 1.265 . S
H444 C449 0.950 . S
H445 C453 0.949 . S
H446 C454 0.950 . S
H447 C455 0.951 . S
H448 C456 0.951 . S
C449 C443 1.265 . S
C449 H444 0.950 . S
C449 C450 1.478 . S
C450 C449 1.478 . S
C450 C451 1.397 . S
C450 C467 1.394 . S
C451 C450 1.397 . S
C451 C452 1.438 . S
C451 C456 1.429 . S
C452 C451 1.438 . S
C452 C453 1.428 . S
C452 C465 1.394 . S
C453 H445 0.949 . S
C453 C452 1.428 . S
C453 C454 1.345 . S
C454 H446 0.950 . S
C454 C453 1.345 . S
C454 C455 1.424 . S
C455 H447 0.951 . S
C455 C454 1.424 . S
C455 C456 1.347 . S
C456 H448 0.951 . S
C456 C451 1.429 . S
C456 C455 1.347 . S
H457 C458 0.951 . S
C458 H457 0.951 . S
C458 C464 1.265 . S
H459 C464 0.950 . S
H460 C468 0.949 . S
H461 C469 0.950 . S
H462 C470 0.951 . S
H463 C471 0.951 . S
C464 C458 1.265 . S
C464 H459 0.950 . S
C464 C465 1.478 . S
C465 C452 1.394 . S
C465 C464 1.478 . S
C465 C466 1.397 . S
C466 C465 1.397 . S
C466 C467 1.438 . S
C466 C471 1.429 . S
C467 C450 1.394 . S
C467 C466 1.438 . S
C467 C468 1.428 . S
C468 H460 0.949 . S
C468 C467 1.428 . S
C468 C469 1.345 . S
C469 H461 0.950 . S
C469 C468 1.345 . S
C469 C470 1.424 . S
C470 H462 0.951 . S
C470 C469 1.424 . S
C470 C471 1.347 . S
C471 H463 0.951 . S
C471 C466 1.429 . S
C471 C470 1.347 . S
H472 C473 0.951 . S
C473 H472 0.951 . S
C473 C479 1.265 . S
H474 C479 0.950 . S
H475 C483 0.949 . S
H476 C484 0.950 . S
H477 C485 0.951 . S
H478 C486 0.951 . S
C479 C473 1.265 . S
C479 H474 0.950 . S
C479 C480 1.478 . S
C480 C479 1.478 . S
C480 C481 1.397 . S
C480 C497 1.394 . S
C481 C480 1.397 . S
C481 C482 1.438 1_655 S
C481 C486 1.429 . S
C482 C481 1.438 1_455 S
C482 C483 1.428 . S
C482 C495 1.394 . S
C483 H475 0.949 . S
C483 C482 1.428 . S
C483 C484 1.345 1_455 S
C484 H476 0.950 . S
C484 C483 1.345 1_655 S
C484 C485 1.424 . S
C485 H477 0.951 . S
C485 C484 1.424 . S
C485 C486 1.347 . S
C486 H478 0.951 . S
C486 C481 1.429 . S
C486 C485 1.347 . S
H487 C488 0.951 . S
C488 H487 0.951 . S
C488 C494 1.265 . S
H489 C494 0.950 . S
H490 C498 0.949 . S
H491 C499 0.950 . S
H492 C500 0.951 . S
H493 C501 0.951 . S
C494 C488 1.265 . S
C494 H489 0.950 . S
C494 C495 1.478 . S
C495 C482 1.394 . S
C495 C494 1.478 . S
C495 C496 1.397 . S
C496 C495 1.397 . S
C496 C497 1.438 1_455 S
C496 C501 1.429 . S
C497 C480 1.394 . S
C497 C496 1.438 1_655 S
C497 C498 1.428 . S
C498 H490 0.949 . S
C498 C497 1.428 . S
C498 C499 1.345 1_655 S
C499 H491 0.950 . S
C499 C498 1.345 1_455 S
C499 C500 1.424 . S
C500 H492 0.951 . S
C500 C499 1.424 . S
C500 C501 1.347 . S
C501 H493 0.951 . S
C501 C496 1.429 . S
C501 C500 1.347 . S
H502 C503 0.951 . S
C503 H502 0.951 . S
C503 C509 1.265 . S
H504 C509 0.950 . S
H505 C513 0.949 . S
H506 C514 0.950 . S
H507 C515 0.951 . S
H508 C516 0.951 . S
C509 C503 1.265 . S
C509 H504 0.950 . S
C509 C510 1.478 . S
C510 C509 1.478 . S
C510 C511 1.397 . S
C510 C527 1.394 . S
C511 C510 1.397 . S
C511 C512 1.438 1_655 S
C511 C516 1.429 . S
C512 C511 1.438 1_455 S
C512 C513 1.428 . S
C512 C525 1.394 . S
C513 H505 0.949 . S
C513 C512 1.428 . S
C513 C514 1.345 . S
C514 H506 0.950 . S
C514 C513 1.345 . S
C514 C515 1.424 . S
C515 H507 0.951 . S
C515 C514 1.424 . S
C515 C516 1.347 1_455 S
C516 H508 0.951 . S
C516 C511 1.429 . S
C516 C515 1.347 1_655 S
H517 C518 0.951 . S
C518 H517 0.951 . S
C518 C524 1.265 . S
H519 C524 0.950 . S
H520 C528 0.949 . S
H521 C529 0.950 . S
H522 C530 0.951 . S
H523 C531 0.951 . S
C524 C518 1.265 . S
C524 H519 0.950 . S
C524 C525 1.478 . S
C525 C512 1.394 . S
C525 C524 1.478 . S
C525 C526 1.397 . S
C526 C525 1.397 . S
C526 C527 1.438 1_455 S
C526 C531 1.429 . S
C527 C510 1.394 . S
C527 C526 1.438 1_655 S
C527 C528 1.428 . S
C528 H520 0.949 . S
C528 C527 1.428 . S
C528 C529 1.345 . S
C529 H521 0.950 . S
C529 C528 1.345 . S
C529 C530 1.424 . S
C530 H522 0.951 . S
C530 C529 1.424 . S
C530 C531 1.347 1_655 S
C531 H523 0.951 . S
C531 C526 1.429 . S
C531 C530 1.347 1_455 S
H532 C533 0.951 . S
C533 H532 0.951 . S
C533 C539 1.265 . S
H534 C539 0.950 . S
H535 C543 0.949 . S
H536 C544 0.950 . S
H537 C545 0.951 . S
H538 C546 0.951 . S
C539 C533 1.265 . S
C539 H534 0.950 . S
C539 C540 1.478 . S
C540 C539 1.478 . S
C540 C541 1.397 . S
C540 C557 1.394 . S
C541 C540 1.397 . S
C541 C542 1.438 1_545 S
C541 C546 1.429 . S
C542 C541 1.438 1_565 S
C542 C543 1.428 . S
C542 C555 1.394 . S
C543 H535 0.949 . S
C543 C542 1.428 . S
C543 C544 1.345 . S
C544 H536 0.950 . S
C544 C543 1.345 . S
C544 C545 1.424 1_565 S
C545 H537 0.951 . S
C545 C544 1.424 1_545 S
C545 C546 1.347 . S
C546 H538 0.951 . S
C546 C541 1.429 . S
C546 C545 1.347 . S
H547 C548 0.951 . S
C548 H547 0.951 . S
C548 C554 1.265 . S
H549 C554 0.950 . S
H550 C558 0.949 . S
H551 C559 0.950 . S
H552 C560 0.951 . S
H553 C561 0.951 . S
C554 C548 1.265 . S
C554 H549 0.950 . S
C554 C555 1.478 . S
C555 C542 1.394 . S
C555 C554 1.478 . S
C555 C556 1.397 . S
C556 C555 1.397 . S
C556 C557 1.438 1_565 S
C556 C561 1.429 . S
C557 C540 1.394 . S
C557 C556 1.438 1_545 S
C557 C558 1.428 . S
C558 H550 0.949 . S
C558 C557 1.428 . S
C558 C559 1.345 . S
C559 H551 0.950 . S
C559 C558 1.345 . S
C559 C560 1.424 1_545 S
C560 H552 0.951 . S
C560 C559 1.424 1_565 S
C560 C561 1.347 . S
C561 H553 0.951 . S
C561 C556 1.429 . S
C561 C560 1.347 . S
H562 C563 0.951 . S
C563 H562 0.951 . S
C563 C569 1.265 . S
H564 C569 0.950 . S
H565 C573 0.949 . S
H566 C574 0.950 . S
H567 C575 0.951 . S
H568 C576 0.951 . S
C569 C563 1.265 . S
C569 H564 0.950 . S
C569 C570 1.478 . S
C570 C569 1.478 . S
C570 C571 1.397 . S
C570 C587 1.394 . S
C571 C570 1.397 . S
C571 C572 1.438 1_545 S
C571 C576 1.429 . S
C572 C571 1.438 1_565 S
C572 C573 1.428 . S
C572 C585 1.394 . S
C573 H565 0.949 . S
C573 C572 1.428 . S
C573 C574 1.345 . S
C574 H566 0.950 . S
C574 C573 1.345 . S
C574 C575 1.424 . S
C575 H567 0.951 . S
C575 C574 1.424 . S
C575 C576 1.347 1_565 S
C576 H568 0.951 . S
C576 C571 1.429 . S
C576 C575 1.347 1_545 S
H577 C578 0.951 . S
C578 H577 0.951 . S
C578 C584 1.265 . S
H579 C584 0.950 . S
H580 C588 0.949 . S
H581 C589 0.950 . S
H582 C590 0.951 . S
H583 C591 0.951 . S
C584 C578 1.265 . S
C584 H579 0.950 . S
C584 C585 1.478 . S
C585 C572 1.394 . S
C585 C584 1.478 . S
C585 C586 1.397 . S
C586 C585 1.397 . S
C586 C587 1.438 1_565 S
C586 C591 1.429 . S
C587 C570 1.394 . S
C587 C586 1.438 1_545 S
C587 C588 1.428 . S
C588 H580 0.949 . S
C588 C587 1.428 . S
C588 C589 1.345 . S
C589 H581 0.950 . S
C589 C588 1.345 . S
C589 C590 1.424 . S
C590 H582 0.951 . S
C590 C589 1.424 . S
C590 C591 1.347 1_545 S
C591 H583 0.951 . S
C591 C586 1.429 . S
C591 C590 1.347 1_565 S
C113 C12 1.410 . S
C128 C82 1.391 . S
C143 C26 1.396 . S
C158 C96 1.410 . S
C173 C40 1.403 . S
C188 C110 1.407 . S
C203 C68 1.410 . S
C218 C54 1.395 . S
C233 C11 1.391 . S
C248 C61 1.309 . S
C263 C25 1.317 . S
C278 C75 1.382 . S
C293 C89 1.296 . S
C308 C39 1.363 . S
C323 C53 1.333 . S
C338 C103 1.341 . S
C353 C67 1.407 . S
C368 C5 1.276 . S
C383 C19 1.254 . S
C398 C81 1.402 . S
C413 C95 1.397 . S
C428 C33 1.258 . S
C443 C47 1.253 . S
C458 C109 1.403 . S
C473 C32 0.885 . S
C488 C4 0.883 . S
C503 C46 0.881 . S
C518 C18 0.885 . S
C533 C60 0.807 . S
C548 C88 0.808 . S
C563 C74 0.882 . S
C578 C102 0.876 . S
