# Generated by pormake.
# Topology nfb, (4)-cn, num edge types: 1
# Building blocks:
#     Node 0, Type 0, BuildingBlock: CEKHIL_clean_sbu_0, # of connection points: 4
#     Node 1, Type 0, BuildingBlock: CEKHIL_clean_sbu_0, # of connection points: 4
#     Node 2, Type 0, BuildingBlock: CEKHIL_clean_sbu_0, # of connection points: 4
#     Node 3, Type 0, BuildingBlock: CEKHIL_clean_sbu_0, # of connection points: 4
#     Node 4, Type 0, BuildingBlock: CEKHIL_clean_sbu_0, # of connection points: 4
#     Node 5, Type 0, BuildingBlock: CEKHIL_clean_sbu_0, # of connection points: 4
#     Node 6, Type 0, BuildingBlock: CEKHIL_clean_sbu_0, # of connection points: 4
#     Node 7, Type 0, BuildingBlock: CEKHIL_clean_sbu_0, # of connection points: 4
#     Node 8, Type 0, BuildingBlock: CEKHIL_clean_sbu_0, # of connection points: 4
#     Node 9, Type 0, BuildingBlock: CEKHIL_clean_sbu_0, # of connection points: 4
#     Node 10, Type 0, BuildingBlock: CEKHIL_clean_sbu_0, # of connection points: 4
#     Node 11, Type 0, BuildingBlock: CEKHIL_clean_sbu_0, # of connection points: 4
#     Node 12, Type 0, BuildingBlock: CEKHIL_clean_sbu_0, # of connection points: 4
#     Node 13, Type 0, BuildingBlock: CEKHIL_clean_sbu_0, # of connection points: 4
#     Node 14, Type 0, BuildingBlock: CEKHIL_clean_sbu_0, # of connection points: 4
#     Node 15, Type 0, BuildingBlock: CEKHIL_clean_sbu_0, # of connection points: 4
#     Node 16, Type 0, BuildingBlock: CEKHIL_clean_sbu_0, # of connection points: 4
#     Node 17, Type 0, BuildingBlock: CEKHIL_clean_sbu_0, # of connection points: 4
#     Node 18, Type 0, BuildingBlock: CEKHIL_clean_sbu_0, # of connection points: 4
#     Node 19, Type 0, BuildingBlock: CEKHIL_clean_sbu_0, # of connection points: 4
#     Node 20, Type 0, BuildingBlock: CEKHIL_clean_sbu_0, # of connection points: 4
#     Node 21, Type 0, BuildingBlock: CEKHIL_clean_sbu_0, # of connection points: 4
#     Node 22, Type 0, BuildingBlock: CEKHIL_clean_sbu_0, # of connection points: 4
#     Node 23, Type 0, BuildingBlock: CEKHIL_clean_sbu_0, # of connection points: 4
#     Node 24, Type 0, BuildingBlock: CEKHIL_clean_sbu_0, # of connection points: 4
#     Node 25, Type 0, BuildingBlock: CEKHIL_clean_sbu_0, # of connection points: 4
#     Node 26, Type 0, BuildingBlock: CEKHIL_clean_sbu_0, # of connection points: 4
#     Node 27, Type 0, BuildingBlock: CEKHIL_clean_sbu_0, # of connection points: 4
#     Node 28, Type 0, BuildingBlock: CEKHIL_clean_sbu_0, # of connection points: 4
#     Node 29, Type 0, BuildingBlock: CEKHIL_clean_sbu_0, # of connection points: 4
#     Node 30, Type 0, BuildingBlock: CEKHIL_clean_sbu_0, # of connection points: 4
#     Node 31, Type 0, BuildingBlock: CEKHIL_clean_sbu_0, # of connection points: 4
#     Node 32, Type 0, BuildingBlock: CEKHIL_clean_sbu_0, # of connection points: 4
#     Node 33, Type 0, BuildingBlock: CEKHIL_clean_sbu_0, # of connection points: 4
#     Node 34, Type 0, BuildingBlock: CEKHIL_clean_sbu_0, # of connection points: 4
#     Node 35, Type 0, BuildingBlock: CEKHIL_clean_sbu_0, # of connection points: 4
#     Node 36, Type 0, BuildingBlock: CEKHIL_clean_sbu_0, # of connection points: 4
#     Node 37, Type 0, BuildingBlock: CEKHIL_clean_sbu_0, # of connection points: 4
#     Node 38, Type 0, BuildingBlock: CEKHIL_clean_sbu_0, # of connection points: 4
#     Node 39, Type 0, BuildingBlock: CEKHIL_clean_sbu_0, # of connection points: 4
#     Node 40, Type 0, BuildingBlock: CEKHIL_clean_sbu_0, # of connection points: 4
#     Node 41, Type 0, BuildingBlock: CEKHIL_clean_sbu_0, # of connection points: 4
#     Node 42, Type 0, BuildingBlock: CEKHIL_clean_sbu_0, # of connection points: 4
#     Node 43, Type 0, BuildingBlock: CEKHIL_clean_sbu_0, # of connection points: 4
#     Node 44, Type 0, BuildingBlock: CEKHIL_clean_sbu_0, # of connection points: 4
#     Node 45, Type 0, BuildingBlock: CEKHIL_clean_sbu_0, # of connection points: 4
#     Node 46, Type 0, BuildingBlock: CEKHIL_clean_sbu_0, # of connection points: 4
#     Node 47, Type 0, BuildingBlock: CEKHIL_clean_sbu_0, # of connection points: 4
#     Edge 48, Type (0, 0), BuildingBlock: AJUNOK_clean_linker_0, # of connection points: 2
#     Edge 49, Type (0, 0), BuildingBlock: AJUNOK_clean_linker_0, # of connection points: 2
#     Edge 50, Type (0, 0), BuildingBlock: AJUNOK_clean_linker_0, # of connection points: 2
#     Edge 51, Type (0, 0), BuildingBlock: AJUNOK_clean_linker_0, # of connection points: 2
#     Edge 52, Type (0, 0), BuildingBlock: AJUNOK_clean_linker_0, # of connection points: 2
#     Edge 53, Type (0, 0), BuildingBlock: AJUNOK_clean_linker_0, # of connection points: 2
#     Edge 54, Type (0, 0), BuildingBlock: AJUNOK_clean_linker_0, # of connection points: 2
#     Edge 55, Type (0, 0), BuildingBlock: AJUNOK_clean_linker_0, # of connection points: 2
#     Edge 56, Type (0, 0), BuildingBlock: AJUNOK_clean_linker_0, # of connection points: 2
#     Edge 57, Type (0, 0), BuildingBlock: AJUNOK_clean_linker_0, # of connection points: 2
#     Edge 58, Type (0, 0), BuildingBlock: AJUNOK_clean_linker_0, # of connection points: 2
#     Edge 59, Type (0, 0), BuildingBlock: AJUNOK_clean_linker_0, # of connection points: 2
#     Edge 60, Type (0, 0), BuildingBlock: AJUNOK_clean_linker_0, # of connection points: 2
#     Edge 61, Type (0, 0), BuildingBlock: AJUNOK_clean_linker_0, # of connection points: 2
#     Edge 62, Type (0, 0), BuildingBlock: AJUNOK_clean_linker_0, # of connection points: 2
#     Edge 63, Type (0, 0), BuildingBlock: AJUNOK_clean_linker_0, # of connection points: 2
#     Edge 64, Type (0, 0), BuildingBlock: AJUNOK_clean_linker_0, # of connection points: 2
#     Edge 65, Type (0, 0), BuildingBlock: AJUNOK_clean_linker_0, # of connection points: 2
#     Edge 66, Type (0, 0), BuildingBlock: AJUNOK_clean_linker_0, # of connection points: 2
#     Edge 67, Type (0, 0), BuildingBlock: AJUNOK_clean_linker_0, # of connection points: 2
#     Edge 68, Type (0, 0), BuildingBlock: AJUNOK_clean_linker_0, # of connection points: 2
#     Edge 69, Type (0, 0), BuildingBlock: AJUNOK_clean_linker_0, # of connection points: 2
#     Edge 70, Type (0, 0), BuildingBlock: AJUNOK_clean_linker_0, # of connection points: 2
#     Edge 71, Type (0, 0), BuildingBlock: AJUNOK_clean_linker_0, # of connection points: 2
#     Edge 72, Type (0, 0), BuildingBlock: AJUNOK_clean_linker_0, # of connection points: 2
#     Edge 73, Type (0, 0), BuildingBlock: AJUNOK_clean_linker_0, # of connection points: 2
#     Edge 74, Type (0, 0), BuildingBlock: AJUNOK_clean_linker_0, # of connection points: 2
#     Edge 75, Type (0, 0), BuildingBlock: AJUNOK_clean_linker_0, # of connection points: 2
#     Edge 76, Type (0, 0), BuildingBlock: AJUNOK_clean_linker_0, # of connection points: 2
#     Edge 77, Type (0, 0), BuildingBlock: AJUNOK_clean_linker_0, # of connection points: 2
#     Edge 78, Type (0, 0), BuildingBlock: AJUNOK_clean_linker_0, # of connection points: 2
#     Edge 79, Type (0, 0), BuildingBlock: AJUNOK_clean_linker_0, # of connection points: 2
#     Edge 80, Type (0, 0), BuildingBlock: AJUNOK_clean_linker_0, # of connection points: 2
#     Edge 81, Type (0, 0), BuildingBlock: AJUNOK_clean_linker_0, # of connection points: 2
#     Edge 82, Type (0, 0), BuildingBlock: AJUNOK_clean_linker_0, # of connection points: 2
#     Edge 83, Type (0, 0), BuildingBlock: AJUNOK_clean_linker_0, # of connection points: 2
#     Edge 84, Type (0, 0), BuildingBlock: AJUNOK_clean_linker_0, # of connection points: 2
#     Edge 85, Type (0, 0), BuildingBlock: AJUNOK_clean_linker_0, # of connection points: 2
#     Edge 86, Type (0, 0), BuildingBlock: AJUNOK_clean_linker_0, # of connection points: 2
#     Edge 87, Type (0, 0), BuildingBlock: AJUNOK_clean_linker_0, # of connection points: 2
#     Edge 88, Type (0, 0), BuildingBlock: AJUNOK_clean_linker_0, # of connection points: 2
#     Edge 89, Type (0, 0), BuildingBlock: AJUNOK_clean_linker_0, # of connection points: 2
#     Edge 90, Type (0, 0), BuildingBlock: AJUNOK_clean_linker_0, # of connection points: 2
#     Edge 91, Type (0, 0), BuildingBlock: AJUNOK_clean_linker_0, # of connection points: 2
#     Edge 92, Type (0, 0), BuildingBlock: AJUNOK_clean_linker_0, # of connection points: 2
#     Edge 93, Type (0, 0), BuildingBlock: AJUNOK_clean_linker_0, # of connection points: 2
#     Edge 94, Type (0, 0), BuildingBlock: AJUNOK_clean_linker_0, # of connection points: 2
#     Edge 95, Type (0, 0), BuildingBlock: AJUNOK_clean_linker_0, # of connection points: 2
#     Edge 96, Type (0, 0), BuildingBlock: AJUNOK_clean_linker_0, # of connection points: 2
#     Edge 97, Type (0, 0), BuildingBlock: AJUNOK_clean_linker_0, # of connection points: 2
#     Edge 98, Type (0, 0), BuildingBlock: AJUNOK_clean_linker_0, # of connection points: 2
#     Edge 99, Type (0, 0), BuildingBlock: AJUNOK_clean_linker_0, # of connection points: 2
#     Edge 100, Type (0, 0), BuildingBlock: AJUNOK_clean_linker_0, # of connection points: 2
#     Edge 101, Type (0, 0), BuildingBlock: AJUNOK_clean_linker_0, # of connection points: 2
#     Edge 102, Type (0, 0), BuildingBlock: AJUNOK_clean_linker_0, # of connection points: 2
#     Edge 103, Type (0, 0), BuildingBlock: AJUNOK_clean_linker_0, # of connection points: 2
#     Edge 104, Type (0, 0), BuildingBlock: AJUNOK_clean_linker_0, # of connection points: 2
#     Edge 105, Type (0, 0), BuildingBlock: AJUNOK_clean_linker_0, # of connection points: 2
#     Edge 106, Type (0, 0), BuildingBlock: AJUNOK_clean_linker_0, # of connection points: 2
#     Edge 107, Type (0, 0), BuildingBlock: AJUNOK_clean_linker_0, # of connection points: 2
#     Edge 108, Type (0, 0), BuildingBlock: AJUNOK_clean_linker_0, # of connection points: 2
#     Edge 109, Type (0, 0), BuildingBlock: AJUNOK_clean_linker_0, # of connection points: 2
#     Edge 110, Type (0, 0), BuildingBlock: AJUNOK_clean_linker_0, # of connection points: 2
#     Edge 111, Type (0, 0), BuildingBlock: AJUNOK_clean_linker_0, # of connection points: 2
#     Edge 112, Type (0, 0), BuildingBlock: AJUNOK_clean_linker_0, # of connection points: 2
#     Edge 113, Type (0, 0), BuildingBlock: AJUNOK_clean_linker_0, # of connection points: 2
#     Edge 114, Type (0, 0), BuildingBlock: AJUNOK_clean_linker_0, # of connection points: 2
#     Edge 115, Type (0, 0), BuildingBlock: AJUNOK_clean_linker_0, # of connection points: 2
#     Edge 116, Type (0, 0), BuildingBlock: AJUNOK_clean_linker_0, # of connection points: 2
#     Edge 117, Type (0, 0), BuildingBlock: AJUNOK_clean_linker_0, # of connection points: 2
#     Edge 118, Type (0, 0), BuildingBlock: AJUNOK_clean_linker_0, # of connection points: 2
#     Edge 119, Type (0, 0), BuildingBlock: AJUNOK_clean_linker_0, # of connection points: 2
#     Edge 120, Type (0, 0), BuildingBlock: AJUNOK_clean_linker_0, # of connection points: 2
#     Edge 121, Type (0, 0), BuildingBlock: AJUNOK_clean_linker_0, # of connection points: 2
#     Edge 122, Type (0, 0), BuildingBlock: AJUNOK_clean_linker_0, # of connection points: 2
#     Edge 123, Type (0, 0), BuildingBlock: AJUNOK_clean_linker_0, # of connection points: 2
#     Edge 124, Type (0, 0), BuildingBlock: AJUNOK_clean_linker_0, # of connection points: 2
#     Edge 125, Type (0, 0), BuildingBlock: AJUNOK_clean_linker_0, # of connection points: 2
#     Edge 126, Type (0, 0), BuildingBlock: AJUNOK_clean_linker_0, # of connection points: 2
#     Edge 127, Type (0, 0), BuildingBlock: AJUNOK_clean_linker_0, # of connection points: 2
#     Edge 128, Type (0, 0), BuildingBlock: AJUNOK_clean_linker_0, # of connection points: 2
#     Edge 129, Type (0, 0), BuildingBlock: AJUNOK_clean_linker_0, # of connection points: 2
#     Edge 130, Type (0, 0), BuildingBlock: AJUNOK_clean_linker_0, # of connection points: 2
#     Edge 131, Type (0, 0), BuildingBlock: AJUNOK_clean_linker_0, # of connection points: 2
#     Edge 132, Type (0, 0), BuildingBlock: AJUNOK_clean_linker_0, # of connection points: 2
#     Edge 133, Type (0, 0), BuildingBlock: AJUNOK_clean_linker_0, # of connection points: 2
#     Edge 134, Type (0, 0), BuildingBlock: AJUNOK_clean_linker_0, # of connection points: 2
#     Edge 135, Type (0, 0), BuildingBlock: AJUNOK_clean_linker_0, # of connection points: 2
#     Edge 136, Type (0, 0), BuildingBlock: AJUNOK_clean_linker_0, # of connection points: 2
#     Edge 137, Type (0, 0), BuildingBlock: AJUNOK_clean_linker_0, # of connection points: 2
#     Edge 138, Type (0, 0), BuildingBlock: AJUNOK_clean_linker_0, # of connection points: 2
#     Edge 139, Type (0, 0), BuildingBlock: AJUNOK_clean_linker_0, # of connection points: 2
#     Edge 140, Type (0, 0), BuildingBlock: AJUNOK_clean_linker_0, # of connection points: 2
#     Edge 141, Type (0, 0), BuildingBlock: AJUNOK_clean_linker_0, # of connection points: 2
#     Edge 142, Type (0, 0), BuildingBlock: AJUNOK_clean_linker_0, # of connection points: 2
#     Edge 143, Type (0, 0), BuildingBlock: AJUNOK_clean_linker_0, # of connection points: 2
# Relax obj value: 0.247
# Max RMSD: 0.068
# Mean RMSD: 0.062
data_MOF--net-nfb--node1-CEKHIL_clean_sbu_0--edge1-AJUNOK_clean_linker_0
_symmetry_space_group_name_H-M    P1
_symmetry_Int_Tables_number       1
_symmetry_cell_setting            triclinic
loop_
_symmetry_equiv_pos_as_xyz
'x, y, z'
_cell_length_a     43.672256
_cell_length_b     43.674363
_cell_length_c     43.683346
_cell_angle_alpha  90.065759
_cell_angle_beta   90.305028
_cell_angle_gamma 90.597702
loop_
_atom_site_label
_atom_site_type_symbol
_atom_site_fract_x
_atom_site_fract_y
_atom_site_fract_z
_atom_type_partial_charge
Co0 Co 0.14351 0.14612 0.41203 0.0
O1 O 0.18503 0.15502 0.42604 0.0
O2 O 0.1748 0.11973 0.39219 0.0
C3 C 0.13342 0.19647 0.40503 0.0
O4 O 0.10075 0.13233 0.39325 0.0
Co5 Co 0.09006 0.17339 0.44993 0.0
O6 O 0.06533 0.16378 0.41351 0.0
C7 C 0.1205 0.11629 0.47023 0.0
C8 C 0.19572 0.13447 0.40806 0.0
C9 C 0.0728 0.14277 0.39492 0.0
O10 O 0.13795 0.11617 0.4466 0.0
O11 O 0.10137 0.13756 0.47591 0.0
O12 O 0.14631 0.18062 0.38362 0.0
O13 O 0.12838 0.18189 0.43013 0.0
Co14 Co 0.391 0.61601 0.91171 0.0
O15 O 0.3924 0.57209 0.91784 0.0
O16 O 0.39496 0.5928 0.87243 0.0
C17 C 0.42518 0.62584 0.9492 0.0
O18 O 0.39073 0.66305 0.90041 0.0
Co19 Co 0.3666 0.65205 0.9686 0.0
O20 O 0.37859 0.68813 0.94413 0.0
C21 C 0.32305 0.61917 0.9287 0.0
C22 C 0.39522 0.56785 0.88893 0.0
C23 C 0.38604 0.6883 0.91595 0.0
O24 O 0.34468 0.61385 0.90943 0.0
O25 O 0.32771 0.63173 0.95479 0.0
O26 O 0.43504 0.6191 0.9221 0.0
O27 O 0.39606 0.6237 0.95286 0.0
Co28 Co 0.87013 0.87277 0.4086 0.0
O29 O 0.82812 0.86244 0.41977 0.0
O30 O 0.83933 0.89853 0.38717 0.0
C31 C 0.88363 0.82347 0.40136 0.0
O32 O 0.91335 0.88772 0.39238 0.0
Co33 Co 0.92192 0.84731 0.4507 0.0
O34 O 0.94849 0.85805 0.41605 0.0
C35 C 0.88964 0.90429 0.46781 0.0
C36 C 0.81796 0.88314 0.40154 0.0
C37 C 0.94142 0.87807 0.39618 0.0
O38 O 0.87281 0.90296 0.44358 0.0
O39 O 0.90929 0.8839 0.47496 0.0
O40 O 0.87062 0.83871 0.37948 0.0
O41 O 0.88574 0.83747 0.42726 0.0
Co42 Co 0.63247 0.40845 0.90358 0.0
O43 O 0.63137 0.45248 0.90863 0.0
O44 O 0.628 0.43058 0.86375 0.0
C45 C 0.59864 0.40016 0.94129 0.0
O46 O 0.63244 0.36092 0.89382 0.0
Co47 Co 0.65751 0.37451 0.96142 0.0
O48 O 0.64401 0.33764 0.93872 0.0
C49 C 0.70055 0.4062 0.92053 0.0
C50 C 0.62822 0.45596 0.87966 0.0
C51 C 0.6364 0.33625 0.91052 0.0
O52 O 0.67873 0.41063 0.90105 0.0
O53 O 0.69614 0.39475 0.9471 0.0
O54 O 0.58856 0.40583 0.91395 0.0
O55 O 0.62781 0.40233 0.94498 0.0
Co56 Co 0.1137 0.89197 0.6086 0.0
O57 O 0.06962 0.89258 0.60293 0.0
O58 O 0.09114 0.89738 0.64795 0.0
C59 C 0.12241 0.9245 0.5697 0.0
O60 O 0.16107 0.89256 0.61918 0.0
Co61 Co 0.14867 0.86552 0.55201 0.0
O62 O 0.18521 0.87864 0.57555 0.0
C63 C 0.11658 0.82356 0.59388 0.0
C64 C 0.06587 0.89646 0.63176 0.0
C65 C 0.18603 0.88751 0.60336 0.0
O66 O 0.11204 0.84579 0.61276 0.0
O67 O 0.128 0.82753 0.56727 0.0
O68 O 0.11615 0.93558 0.59646 0.0
O69 O 0.12048 0.89525 0.56725 0.0
Co70 Co 0.64423 0.64598 0.10624 0.0
O71 O 0.65357 0.68811 0.09483 0.0
O72 O 0.61729 0.67611 0.12688 0.0
C73 C 0.69421 0.63505 0.11383 0.0
O74 O 0.62997 0.60253 0.12248 0.0
Co75 Co 0.6719 0.59422 0.06611 0.0
O76 O 0.66164 0.56793 0.10114 0.0
C77 C 0.61502 0.6257 0.04642 0.0
C78 C 0.63235 0.69776 0.11257 0.0
C79 C 0.64051 0.57469 0.1198 0.0
O80 O 0.61487 0.64234 0.07071 0.0
O81 O 0.63614 0.60656 0.04024 0.0
O82 O 0.67817 0.64682 0.13573 0.0
O83 O 0.6801 0.63158 0.0881 0.0
Co84 Co 0.90666 0.1306 0.60988 0.0
O85 O 0.95073 0.13237 0.60411 0.0
O86 O 0.93007 0.12772 0.64927 0.0
C87 C 0.90013 0.09588 0.57219 0.0
O88 O 0.85963 0.1278 0.62097 0.0
Co89 Co 0.86838 0.15044 0.55181 0.0
O90 O 0.8333 0.13783 0.57719 0.0
C91 C 0.89354 0.19738 0.59407 0.0
C92 C 0.95507 0.12906 0.63298 0.0
C93 C 0.83398 0.13132 0.60562 0.0
O94 O 0.90469 0.17696 0.61224 0.0
O95 O 0.88046 0.19133 0.56848 0.0
O96 O 0.90706 0.08645 0.59944 0.0
O97 O 0.89973 0.12501 0.56858 0.0
Co98 Co 0.37524 0.37495 0.11305 0.0
O99 O 0.36545 0.33312 0.10051 0.0
O100 O 0.403 0.34407 0.13177 0.0
C101 C 0.32557 0.38519 0.12327 0.0
O102 O 0.39007 0.41809 0.13004 0.0
Co103 Co 0.34571 0.4274 0.07546 0.0
O104 O 0.35695 0.45278 0.11101 0.0
C105 C 0.4022 0.39742 0.05322 0.0
C106 C 0.38722 0.32283 0.11738 0.0
C107 C 0.37914 0.44588 0.12854 0.0
O108 O 0.40302 0.37988 0.07678 0.0
O109 O 0.38083 0.4167 0.04821 0.0
O110 O 0.34306 0.37274 0.14373 0.0
O111 O 0.33812 0.3897 0.09698 0.0
Co112 Co 0.39852 0.13557 0.14419 0.0
O113 O 0.41403 0.17671 0.15252 0.0
O114 O 0.38085 0.16728 0.11638 0.0
C115 C 0.39016 0.12759 0.1947 0.0
O116 O 0.37894 0.09313 0.13061 0.0
Co117 Co 0.4316 0.08056 0.17405 0.0
O118 O 0.3921 0.05962 0.16736 0.0
C119 C 0.4553 0.10844 0.11641 0.0
C120 C 0.39716 0.18781 0.13118 0.0
C121 C 0.37702 0.06608 0.14335 0.0
O122 O 0.43351 0.12801 0.1157 0.0
O123 O 0.45869 0.08889 0.13801 0.0
O124 O 0.36942 0.14019 0.17764 0.0
O125 O 0.41517 0.12063 0.18092 0.0
Co126 Co 0.38616 0.91429 0.62873 0.0
O127 O 0.43025 0.92043 0.62661 0.0
O128 O 0.40873 0.87555 0.62019 0.0
C129 C 0.3758 0.95484 0.59853 0.0
O130 O 0.33886 0.90314 0.62935 0.0
Co131 Co 0.3522 0.96803 0.66047 0.0
O132 O 0.3152 0.94578 0.6464 0.0
C133 C 0.38616 0.9243 0.69819 0.0
C134 C 0.43399 0.89187 0.62104 0.0
C135 C 0.31408 0.91847 0.63615 0.0
O136 O 0.38971 0.90729 0.67439 0.0
O137 O 0.37417 0.95088 0.69686 0.0
O138 O 0.38211 0.92863 0.58625 0.0
O139 O 0.37904 0.95606 0.62782 0.0
Co140 Co 0.61477 0.8841 0.14012 0.0
O141 O 0.59985 0.84263 0.14723 0.0
O142 O 0.63503 0.85311 0.11362 0.0
C143 C 0.6201 0.89276 0.19107 0.0
O144 O 0.63459 0.92687 0.12836 0.0
Co145 Co 0.5771 0.93746 0.16735 0.0
O146 O 0.61467 0.96147 0.16099 0.0
C147 C 0.5575 0.90768 0.10914 0.0
C148 C 0.61834 0.83214 0.12711 0.0
C149 C 0.63346 0.95442 0.14011 0.0
O150 O 0.58121 0.89047 0.10914 0.0
O151 O 0.55157 0.92657 0.13071 0.0
O152 O 0.64197 0.88032 0.17557 0.0
O153 O 0.59563 0.89856 0.17563 0.0
Co154 Co 0.63464 0.10631 0.63102 0.0
O155 O 0.59057 0.10069 0.6285 0.0
O156 O 0.6127 0.14535 0.62235 0.0
C157 C 0.64455 0.06567 0.6009 0.0
O158 O 0.682 0.11694 0.63203 0.0
Co159 Co 0.66797 0.05247 0.66323 0.0
O160 O 0.70516 0.07398 0.64896 0.0
C161 C 0.63361 0.09607 0.7003 0.0
C162 C 0.58726 0.12933 0.62303 0.0
C163 C 0.70664 0.10117 0.63847 0.0
O164 O 0.63099 0.11339 0.6766 0.0
O165 O 0.64538 0.06939 0.69915 0.0
O166 O 0.63855 0.09193 0.58859 0.0
O167 O 0.64125 0.06444 0.63016 0.0
Co168 Co 0.41718 0.88729 0.88796 0.0
O169 O 0.4237 0.9313 0.88922 0.0
O170 O 0.37861 0.9102 0.89575 0.0
C171 C 0.45774 0.87765 0.91867 0.0
O172 O 0.40522 0.84021 0.88834 0.0
Co173 Co 0.47018 0.85101 0.85789 0.0
O174 O 0.44745 0.81494 0.87294 0.0
C175 C 0.42681 0.88381 0.81866 0.0
C176 C 0.39514 0.93529 0.89449 0.0
C177 C 0.42006 0.81483 0.88283 0.0
O178 O 0.41029 0.88983 0.84221 0.0
O179 O 0.45272 0.87051 0.82033 0.0
O180 O 0.4315 0.8843 0.93057 0.0
O181 O 0.45899 0.87979 0.8893 0.0
Co182 Co 0.63051 0.8975 0.37442 0.0
O183 O 0.67185 0.91204 0.3657 0.0
O184 O 0.66239 0.878 0.40078 0.0
C185 C 0.62014 0.89112 0.32391 0.0
O186 O 0.588 0.87837 0.38818 0.0
Co187 Co 0.57562 0.9336 0.34762 0.0
O188 O 0.55316 0.89503 0.35393 0.0
C189 C 0.60716 0.95503 0.40444 0.0
C190 C 0.68299 0.89422 0.38621 0.0
C191 C 0.56039 0.87805 0.37634 0.0
O192 O 0.62515 0.93189 0.40444 0.0
O193 O 0.58725 0.95992 0.38341 0.0
O194 O 0.63309 0.86951 0.33954 0.0
O195 O 0.61471 0.91583 0.33895 0.0
Co196 Co 0.6056 0.13608 0.889 0.0
O197 O 0.59834 0.09222 0.89155 0.0
O198 O 0.64412 0.11248 0.89554 0.0
C199 C 0.56677 0.14721 0.92111 0.0
O200 O 0.61821 0.18301 0.88764 0.0
Co201 Co 0.55153 0.17194 0.85987 0.0
O202 O 0.57594 0.20829 0.87175 0.0
C203 C 0.59249 0.13728 0.82011 0.0
C204 C 0.62707 0.08769 0.89552 0.0
C205 C 0.60369 0.20832 0.88091 0.0
O206 O 0.61024 0.13236 0.84318 0.0
O207 O 0.56656 0.15038 0.82245 0.0
O208 O 0.5935 0.1404 0.93207 0.0
O209 O 0.56407 0.14432 0.89187 0.0
Co210 Co 0.38188 0.11925 0.37811 0.0
O211 O 0.33986 0.10584 0.37029 0.0
O212 O 0.35187 0.13824 0.40647 0.0
C213 C 0.38996 0.12752 0.32757 0.0
O214 O 0.42523 0.13735 0.39107 0.0
Co215 Co 0.43435 0.08259 0.34763 0.0
O216 O 0.45939 0.11892 0.35719 0.0
C217 C 0.40439 0.0595 0.40427 0.0
C218 C 0.33023 0.12311 0.39198 0.0
C219 C 0.45276 0.13642 0.37938 0.0
O220 O 0.38787 0.08359 0.40642 0.0
O221 O 0.42284 0.05468 0.38211 0.0
O222 O 0.37826 0.14872 0.34461 0.0
O223 O 0.3956 0.10213 0.34134 0.0
Co224 Co 0.14416 0.40566 0.14779 0.0
O225 O 0.15438 0.41975 0.18888 0.0
O226 O 0.11747 0.38709 0.18008 0.0
C227 C 0.19392 0.39644 0.13686 0.0
O228 O 0.12911 0.38732 0.10533 0.0
Co229 Co 0.17225 0.44302 0.09412 0.0
O230 O 0.1614 0.40666 0.06974 0.0
C231 C 0.11531 0.46397 0.12429 0.0
C232 C 0.13324 0.40277 0.20036 0.0
C233 C 0.13963 0.38873 0.07731 0.0
O234 O 0.11544 0.44093 0.14253 0.0
O235 O 0.13631 0.46921 0.10454 0.0
O236 O 0.17702 0.37589 0.15014 0.0
O237 O 0.18076 0.42229 0.13198 0.0
Co238 Co 0.12846 0.60674 0.90335 0.0
O239 O 0.12742 0.60121 0.94737 0.0
O240 O 0.1247 0.64631 0.92593 0.0
C241 C 0.09414 0.56883 0.89474 0.0
O242 O 0.12833 0.6178 0.85626 0.0
Co243 Co 0.15137 0.54946 0.8667 0.0
O244 O 0.13972 0.57413 0.83078 0.0
C245 C 0.19594 0.5893 0.89874 0.0
C246 C 0.12455 0.63019 0.95112 0.0
C247 C 0.13272 0.60239 0.83088 0.0
O248 O 0.17491 0.609 0.90474 0.0
O249 O 0.19037 0.56313 0.88669 0.0
O250 O 0.08433 0.596 0.90116 0.0
O251 O 0.12327 0.56547 0.89616 0.0
Co252 Co 0.91563 0.63121 0.39175 0.0
O253 O 0.91911 0.6305 0.43605 0.0
O254 O 0.87521 0.62506 0.41254 0.0
C255 C 0.95469 0.5985 0.38538 0.0
O256 O 0.90771 0.63072 0.34381 0.0
Co257 Co 0.97422 0.65829 0.36061 0.0
O258 O 0.95365 0.64303 0.3233 0.0
C259 C 0.92879 0.70016 0.38611 0.0
C260 C 0.89021 0.62596 0.43852 0.0
C261 C 0.92582 0.63456 0.32016 0.0
O262 O 0.91112 0.67734 0.39281 0.0
O263 O 0.95563 0.6973 0.37498 0.0
O264 O 0.92738 0.58782 0.39022 0.0
O265 O 0.95765 0.62775 0.38765 0.0
Co266 Co 0.89287 0.42538 0.8844 0.0
O267 O 0.89691 0.43261 0.9281 0.0
O268 O 0.89828 0.38674 0.90829 0.0
C269 C 0.92579 0.46366 0.87233 0.0
O270 O 0.88987 0.4126 0.83771 0.0
Co271 Co 0.86516 0.4803 0.84808 0.0
O272 O 0.87701 0.45581 0.81215 0.0
C273 C 0.82452 0.44051 0.88417 0.0
C274 C 0.89988 0.40379 0.93288 0.0
C275 C 0.88426 0.42761 0.81233 0.0
O276 O 0.84689 0.42201 0.88881 0.0
O277 O 0.82771 0.46624 0.87051 0.0
O278 O 0.93636 0.43688 0.87927 0.0
O279 O 0.89674 0.46659 0.87554 0.0
Co280 Co 0.12016 0.379 0.38788 0.0
O281 O 0.10672 0.36936 0.34633 0.0
O282 O 0.13976 0.40574 0.35641 0.0
C283 C 0.12759 0.329 0.39915 0.0
O284 O 0.13828 0.3935 0.43064 0.0
Co285 Co 0.08117 0.35197 0.44102 0.0
O286 O 0.1167 0.36286 0.46651 0.0
C287 C 0.06037 0.40715 0.40766 0.0
C288 C 0.12424 0.39054 0.33558 0.0
C289 C 0.13579 0.38358 0.45884 0.0
O290 O 0.08524 0.4082 0.39212 0.0
O291 O 0.05413 0.38584 0.42683 0.0
O292 O 0.149 0.34512 0.38617 0.0
O293 O 0.10223 0.34312 0.40349 0.0
Co294 Co 0.89035 0.61542 0.11909 0.0
O295 O 0.88855 0.60907 0.07511 0.0
O296 O 0.89665 0.65415 0.09543 0.0
C297 C 0.92192 0.57592 0.12684 0.0
O298 O 0.89421 0.62689 0.16601 0.0
Co299 Co 0.86438 0.5606 0.15796 0.0
O300 O 0.87855 0.58522 0.19314 0.0
C301 C 0.82184 0.60376 0.1291 0.0
C302 C 0.8941 0.63761 0.07056 0.0
C303 C 0.88907 0.61248 0.19188 0.0
O304 O 0.84426 0.62094 0.12006 0.0
O305 O 0.82526 0.57805 0.14256 0.0
O306 O 0.9334 0.60227 0.1192 0.0
O307 O 0.89252 0.57395 0.12678 0.0
Co308 Co 0.9008 0.37772 0.63111 0.0
O309 O 0.91201 0.37035 0.67384 0.0
O310 O 0.87871 0.40466 0.65997 0.0
C311 C 0.89543 0.32715 0.62092 0.0
O312 O 0.8843 0.39042 0.5873 0.0
Co313 Co 0.94156 0.35028 0.57962 0.0
O314 O 0.90713 0.35998 0.55244 0.0
C315 C 0.96116 0.40652 0.61336 0.0
C316 C 0.89327 0.39123 0.68237 0.0
C317 C 0.88761 0.38021 0.55932 0.0
O318 O 0.93563 0.40796 0.62779 0.0
O319 O 0.96787 0.38478 0.59494 0.0
O320 O 0.87271 0.34245 0.63208 0.0
O321 O 0.92049 0.34242 0.61739 0.0
Co322 Co 0.10108 0.63105 0.63257 0.0
O323 O 0.09419 0.62851 0.5887 0.0
O324 O 0.13966 0.62408 0.6091 0.0
C325 C 0.06146 0.59928 0.64317 0.0
O326 O 0.11359 0.63171 0.67945 0.0
Co327 Co 0.04731 0.65919 0.66992 0.0
O328 O 0.07104 0.64506 0.70551 0.0
C329 C 0.0879 0.69968 0.63461 0.0
C330 C 0.12281 0.62382 0.58428 0.0
C331 C 0.09881 0.63644 0.70509 0.0
O332 O 0.10593 0.67713 0.62909 0.0
O333 O 0.06242 0.6968 0.64865 0.0
O334 O 0.08794 0.58798 0.63643 0.0
O335 O 0.05959 0.62855 0.64086 0.0
Co336 Co 0.86675 0.88856 0.61411 0.0
O337 O 0.82459 0.88081 0.60176 0.0
O338 O 0.83828 0.88594 0.64963 0.0
C339 C 0.87351 0.9257 0.57882 0.0
O340 O 0.9111 0.89618 0.63228 0.0
Co341 Co 0.91499 0.87754 0.56164 0.0
O342 O 0.9436 0.89588 0.59178 0.0
C343 C 0.88648 0.82543 0.5947 0.0
C344 C 0.81611 0.88132 0.62985 0.0
C345 C 0.93844 0.89913 0.62029 0.0
O346 O 0.87445 0.8432 0.61477 0.0
O347 O 0.90005 0.83513 0.5706 0.0
O348 O 0.86159 0.93277 0.60498 0.0
O349 O 0.87849 0.89716 0.5747 0.0
Co350 Co 0.64284 0.39998 0.1153 0.0
O351 O 0.64717 0.44385 0.10998 0.0
O352 O 0.61314 0.42359 0.14055 0.0
C353 C 0.69333 0.39248 0.12187 0.0
O354 O 0.63554 0.3531 0.12421 0.0
Co355 Co 0.67691 0.36256 0.06394 0.0
O356 O 0.6658 0.32799 0.09039 0.0
C357 C 0.61453 0.38623 0.05299 0.0
C358 C 0.62571 0.44842 0.1293 0.0
C359 C 0.64721 0.32807 0.1127 0.0
O360 O 0.61291 0.39789 0.07995 0.0
O361 O 0.63836 0.37332 0.0423 0.0
O362 O 0.67666 0.40056 0.14489 0.0
O363 O 0.67978 0.3927 0.09569 0.0
Co364 Co 0.1559 0.12981 0.62346 0.0
O365 O 0.19833 0.13476 0.6117 0.0
O366 O 0.1847 0.12605 0.65893 0.0
C367 C 0.14417 0.09792 0.5846 0.0
O368 O 0.11081 0.12474 0.63989 0.0
Co369 Co 0.11218 0.15588 0.57223 0.0
O370 O 0.08036 0.13938 0.6001 0.0
C371 C 0.14817 0.1971 0.61135 0.0
C372 C 0.20692 0.13136 0.63959 0.0
C373 C 0.08388 0.12914 0.62724 0.0
O374 O 0.15352 0.1751 0.62997 0.0
O375 O 0.13561 0.19352 0.58505 0.0
O376 O 0.15596 0.08662 0.6094 0.0
O377 O 0.14318 0.12721 0.58358 0.0
Co378 Co 0.37497 0.6189 0.11902 0.0
O379 O 0.37445 0.57486 0.11336 0.0
O380 O 0.40464 0.59737 0.14652 0.0
C381 C 0.32355 0.62075 0.12208 0.0
O382 O 0.37819 0.66626 0.12811 0.0
Co383 Co 0.33982 0.65473 0.06744 0.0
O384 O 0.34304 0.68851 0.09694 0.0
C385 C 0.40496 0.63688 0.05931 0.0
C386 C 0.39469 0.57173 0.13439 0.0
C387 C 0.36301 0.69008 0.11822 0.0
O388 O 0.40625 0.62351 0.08548 0.0
O389 O 0.3807 0.64891 0.0482 0.0
O390 O 0.33982 0.61552 0.14635 0.0
O391 O 0.33866 0.62245 0.09696 0.0
Co392 Co 0.899 0.14585 0.39899 0.0
O393 O 0.94296 0.15045 0.40344 0.0
O394 O 0.92207 0.11523 0.3743 0.0
C395 C 0.8909 0.19593 0.39058 0.0
O396 O 0.85187 0.13834 0.39109 0.0
Co397 Co 0.86318 0.18095 0.45029 0.0
O398 O 0.82772 0.16949 0.42483 0.0
C399 C 0.88674 0.11897 0.46218 0.0
C400 C 0.94712 0.12825 0.38476 0.0
C401 C 0.82716 0.15046 0.40276 0.0
O402 O 0.89786 0.11704 0.43511 0.0
O403 O 0.87387 0.14289 0.47278 0.0
O404 O 0.89868 0.17818 0.36824 0.0
O405 O 0.89206 0.18373 0.4174 0.0
Co406 Co 0.38998 0.3679 0.90111 0.0
O407 O 0.38316 0.32546 0.91252 0.0
O408 O 0.39191 0.33949 0.86537 0.0
C409 C 0.42332 0.37702 0.93963 0.0
O410 O 0.39718 0.41269 0.88417 0.0
Co411 Co 0.37081 0.41484 0.95291 0.0
O412 O 0.38908 0.44471 0.92442 0.0
C413 C 0.32434 0.38621 0.91223 0.0
C414 C 0.38619 0.31717 0.8845 0.0
C415 C 0.39633 0.44003 0.8966 0.0
O416 O 0.34462 0.37306 0.8957 0.0
O417 O 0.33015 0.40148 0.93662 0.0
O418 O 0.43339 0.36521 0.91441 0.0
O419 O 0.39425 0.38005 0.94122 0.0
Co420 Co 0.11514 0.87038 0.3986 0.0
O421 O 0.07126 0.8689 0.40491 0.0
O422 O 0.09259 0.90077 0.37285 0.0
C423 C 0.11828 0.8193 0.39296 0.0
O424 O 0.16225 0.87456 0.38877 0.0
Co425 Co 0.15178 0.83484 0.44923 0.0
O426 O 0.18611 0.84183 0.42131 0.0
C427 C 0.13326 0.89917 0.45944 0.0
C428 C 0.06737 0.8899 0.38489 0.0
C429 C 0.18677 0.86095 0.39936 0.0
O430 O 0.11997 0.90073 0.43318 0.0
O431 O 0.1455 0.87489 0.47009 0.0
O432 O 0.11158 0.8364 0.36976 0.0
O433 O 0.11993 0.83317 0.41894 0.0
Co434 Co 0.63693 0.65421 0.89652 0.0
O435 O 0.64607 0.69602 0.90891 0.0
O436 O 0.63804 0.68313 0.86122 0.0
C437 C 0.60119 0.64739 0.93307 0.0
O438 O 0.62769 0.61029 0.87841 0.0
Co439 Co 0.64974 0.60549 0.94867 0.0
O440 O 0.63079 0.5773 0.91857 0.0
C441 C 0.69994 0.62852 0.90911 0.0
C442 C 0.64409 0.70491 0.88098 0.0
C443 C 0.62592 0.5828 0.89031 0.0
O444 O 0.68194 0.64533 0.89304 0.0
O445 O 0.69181 0.61334 0.9328 0.0
O446 O 0.59331 0.65993 0.9074 0.0
O447 O 0.62984 0.64219 0.93634 0.0
Co448 Co 0.6137 0.88756 0.88474 0.0
O449 O 0.60312 0.84503 0.87655 0.0
O450 O 0.65039 0.86083 0.88224 0.0
C451 C 0.57774 0.89208 0.92156 0.0
O452 O 0.63006 0.93254 0.89307 0.0
Co453 Co 0.55983 0.93331 0.87229 0.0
O454 O 0.58848 0.96337 0.89067 0.0
C455 C 0.59313 0.90461 0.82127 0.0
C456 C 0.63157 0.8379 0.87704 0.0
C457 C 0.61699 0.95935 0.89534 0.0
O458 O 0.61434 0.89544 0.83949 0.0
O459 O 0.56827 0.91679 0.83049 0.0
O460 O 0.60443 0.88128 0.92857 0.0
O461 O 0.57362 0.89739 0.89299 0.0
Co462 Co 0.62729 0.1309 0.37562 0.0
O463 O 0.58331 0.12659 0.37082 0.0
O464 O 0.60407 0.15472 0.40688 0.0
C465 C 0.63469 0.13999 0.32567 0.0
O466 O 0.67439 0.13871 0.38378 0.0
Co467 Co 0.66605 0.08298 0.33921 0.0
O468 O 0.69829 0.11406 0.34515 0.0
C469 C 0.63968 0.06712 0.39977 0.0
C470 C 0.57904 0.14467 0.39351 0.0
C471 C 0.69886 0.13242 0.36775 0.0
O472 O 0.62793 0.09378 0.40287 0.0
O473 O 0.65422 0.05851 0.37594 0.0
O474 O 0.62765 0.16227 0.34385 0.0
O475 O 0.63441 0.11307 0.33763 0.0
Co476 Co 0.41356 0.13397 0.88711 0.0
O477 O 0.4254 0.17612 0.87861 0.0
O478 O 0.37766 0.16152 0.88268 0.0
C479 C 0.44833 0.1299 0.92559 0.0
O480 O 0.3956 0.08968 0.89533 0.0
Co481 Co 0.46605 0.08591 0.87925 0.0
O482 O 0.43631 0.05795 0.89872 0.0
C483 C 0.43424 0.11183 0.82516 0.0
C484 C 0.39714 0.18398 0.87812 0.0
C485 C 0.40764 0.06276 0.90021 0.0
O486 O 0.41409 0.12474 0.84208 0.0
O487 O 0.4578 0.0982 0.8359 0.0
O488 O 0.42156 0.14116 0.93111 0.0
O489 O 0.45321 0.12344 0.8974 0.0
Co490 Co 0.38612 0.88444 0.37314 0.0
O491 O 0.43007 0.88987 0.36953 0.0
O492 O 0.40943 0.8599 0.40389 0.0
C493 C 0.37981 0.87708 0.32273 0.0
O494 O 0.33911 0.87526 0.38006 0.0
Co495 Co 0.34625 0.93225 0.33779 0.0
O496 O 0.31485 0.90009 0.34166 0.0
C497 C 0.37197 0.94703 0.39923 0.0
C498 C 0.43439 0.87095 0.39152 0.0
C499 C 0.31455 0.88123 0.36379 0.0
O500 O 0.38445 0.92063 0.40166 0.0
O501 O 0.35726 0.95593 0.37547 0.0
O502 O 0.3869 0.85427 0.34024 0.0
O503 O 0.37912 0.90353 0.3357 0.0
Co504 Co 0.62947 0.1289 0.14446 0.0
O505 O 0.62567 0.08509 0.15049 0.0
O506 O 0.65479 0.10514 0.11503 0.0
C507 C 0.63593 0.13871 0.19469 0.0
O508 O 0.63718 0.17556 0.13463 0.0
Co509 Co 0.57998 0.16931 0.17595 0.0
O510 O 0.61141 0.20134 0.17112 0.0
C511 C 0.56686 0.1394 0.11629 0.0
C512 C 0.64451 0.08043 0.12855 0.0
C513 C 0.63044 0.20078 0.14928 0.0
O514 O 0.59368 0.1277 0.11523 0.0
O515 O 0.55715 0.15529 0.13881 0.0
O516 O 0.65915 0.13113 0.17802 0.0
O517 O 0.60966 0.13758 0.18119 0.0
Co518 Co 0.39036 0.10983 0.63372 0.0
O519 O 0.3491 0.09682 0.64417 0.0
O520 O 0.36183 0.14489 0.63828 0.0
C521 C 0.39356 0.07446 0.59595 0.0
O522 O 0.43376 0.12883 0.62346 0.0
Co523 Co 0.4404 0.05943 0.64089 0.0
O524 O 0.46556 0.08863 0.61734 0.0
C525 C 0.41807 0.09347 0.69502 0.0
C526 C 0.34034 0.12477 0.64439 0.0
C527 C 0.46039 0.11726 0.61653 0.0
O528 O 0.4014 0.11089 0.67828 0.0
O529 O 0.43347 0.07094 0.68466 0.0
O530 O 0.3816 0.10092 0.59034 0.0
O531 O 0.40144 0.07014 0.62397 0.0
Co532 Co 0.3869 0.89047 0.14106 0.0
O533 O 0.39316 0.93431 0.14577 0.0
O534 O 0.36115 0.91483 0.11223 0.0
C535 C 0.38196 0.88251 0.19164 0.0
O536 O 0.37653 0.84384 0.13284 0.0
Co537 Co 0.43515 0.8482 0.17193 0.0
O538 O 0.40111 0.81856 0.1706 0.0
C539 C 0.44733 0.87514 0.11088 0.0
C540 C 0.37322 0.93937 0.12475 0.0
C541 C 0.38193 0.81899 0.14869 0.0
O542 O 0.42151 0.88901 0.11072 0.0
O543 O 0.45687 0.85894 0.13333 0.0
O544 O 0.35856 0.89065 0.17532 0.0
O545 O 0.40779 0.88192 0.1775 0.0
Co546 Co 0.63285 0.907 0.62899 0.0
O547 O 0.67496 0.91806 0.63887 0.0
O548 O 0.66046 0.87088 0.63008 0.0
C549 C 0.6291 0.94501 0.59407 0.0
O550 O 0.5884 0.88987 0.61904 0.0
Co551 Co 0.58406 0.9579 0.64056 0.0
O552 O 0.55767 0.93115 0.6152 0.0
C553 C 0.60728 0.91959 0.69167 0.0
C554 C 0.68282 0.8899 0.63683 0.0
C555 C 0.56189 0.90244 0.61317 0.0
O556 O 0.62367 0.90329 0.67372 0.0
O557 O 0.59155 0.94266 0.68309 0.0
O558 O 0.64007 0.91873 0.58608 0.0
O559 O 0.62243 0.94755 0.62254 0.0
Co560 Co 0.89048 0.6193 0.87137 0.0
O561 O 0.88288 0.60687 0.82936 0.0
O562 O 0.8889 0.65475 0.84258 0.0
C563 C 0.92684 0.58331 0.87861 0.0
O564 O 0.89798 0.63731 0.91568 0.0
Co565 Co 0.87568 0.56739 0.91891 0.0
O566 O 0.89448 0.59672 0.94804 0.0
C567 C 0.82597 0.6015 0.88874 0.0
C568 C 0.88371 0.63491 0.82065 0.0
C569 C 0.89951 0.62508 0.94304 0.0
O570 O 0.84519 0.62122 0.87821 0.0
O571 O 0.83387 0.57702 0.90268 0.0
O572 O 0.93429 0.60951 0.8667 0.0
O573 O 0.89807 0.57948 0.88327 0.0
Co574 Co 0.87414 0.40144 0.1129 0.0
O575 O 0.87044 0.40904 0.06927 0.0
O576 O 0.90545 0.37917 0.08844 0.0
C577 C 0.82393 0.39248 0.11849 0.0
O578 O 0.88096 0.39019 0.15938 0.0
Co579 Co 0.83745 0.44694 0.15465 0.0
O580 O 0.843 0.4143 0.18496 0.0
C581 C 0.90046 0.46244 0.13385 0.0
C582 C 0.89277 0.39098 0.06403 0.0
C583 C 0.86511 0.39562 0.18418 0.0
O584 O 0.90244 0.43783 0.11787 0.0
O585 O 0.87653 0.4702 0.14865 0.0
O586 O 0.8417 0.37057 0.10983 0.0
O587 O 0.83649 0.41916 0.12068 0.0
Co588 Co 0.13666 0.37447 0.63271 0.0
O589 O 0.13177 0.37047 0.58876 0.0
O590 O 0.15875 0.40743 0.60958 0.0
C591 C 0.14782 0.32461 0.63827 0.0
O592 O 0.14478 0.38226 0.67972 0.0
Co593 Co 0.09149 0.33547 0.67209 0.0
O594 O 0.12319 0.34155 0.70354 0.0
C595 C 0.07284 0.39612 0.64833 0.0
C596 C 0.14883 0.39413 0.58455 0.0
C597 C 0.13972 0.36564 0.70419 0.0
O598 O 0.09864 0.39996 0.63481 0.0
O599 O 0.06554 0.37186 0.66314 0.0
O600 O 0.16919 0.34426 0.63163 0.0
O601 O 0.12043 0.33527 0.63913 0.0
Co602 Co 0.13002 0.61241 0.14909 0.0
O603 O 0.13791 0.59872 0.19059 0.0
O604 O 0.1315 0.64689 0.17911 0.0
C605 C 0.09404 0.57611 0.14023 0.0
O606 O 0.1223 0.63165 0.10545 0.0
Co607 Co 0.14387 0.56199 0.09902 0.0
O608 O 0.12378 0.59182 0.07191 0.0
C609 C 0.19387 0.59972 0.12594 0.0
C610 C 0.13696 0.62645 0.20026 0.0
C611 C 0.11977 0.62007 0.07782 0.0
O612 O 0.17522 0.61577 0.14178 0.0
O613 O 0.18607 0.57654 0.10963 0.0
O614 O 0.08612 0.60136 0.15352 0.0
O615 O 0.1228 0.57315 0.13554 0.0
Co616 Co 0.90368 0.63474 0.63683 0.0
O617 O 0.91574 0.64409 0.67865 0.0
O618 O 0.86819 0.6352 0.66543 0.0
C619 C 0.94108 0.59975 0.63101 0.0
O620 O 0.88593 0.62522 0.59268 0.0
Co621 Co 0.95455 0.64949 0.58838 0.0
O622 O 0.92658 0.62722 0.56051 0.0
C623 C 0.91492 0.69863 0.6122 0.0
C624 C 0.88776 0.64192 0.68725 0.0
C625 C 0.89825 0.62237 0.56553 0.0
O626 O 0.89935 0.67959 0.62836 0.0
O627 O 0.93832 0.69143 0.59631 0.0
O628 O 0.91517 0.59169 0.64301 0.0
O629 O 0.94403 0.6285 0.6254 0.0
Co630 Co 0.14379 0.39657 0.9044 0.0
O631 O 0.14571 0.40147 0.94846 0.0
O632 O 0.1129 0.37052 0.92635 0.0
C633 C 0.19468 0.39037 0.89997 0.0
O634 O 0.13928 0.38845 0.85704 0.0
Co635 Co 0.18095 0.448 0.86951 0.0
O636 O 0.17404 0.42036 0.83461 0.0
C637 C 0.11662 0.45831 0.88853 0.0
C638 C 0.12421 0.38165 0.95186 0.0
C639 C 0.15387 0.39913 0.83309 0.0
O640 O 0.1143 0.43177 0.90109 0.0
O641 O 0.14121 0.46892 0.87657 0.0
O642 O 0.17718 0.36711 0.90615 0.0
O643 O 0.18128 0.41645 0.89985 0.0
Co644 Co 0.1129 0.62445 0.38432 0.0
O645 O 0.10155 0.6316 0.342 0.0
O646 O 0.1488 0.62373 0.35613 0.0
C647 C 0.0745 0.59031 0.39194 0.0
O648 O 0.12904 0.61721 0.42928 0.0
Co649 Co 0.06015 0.64483 0.42886 0.0
O650 O 0.08791 0.62657 0.4596 0.0
C651 C 0.09798 0.6901 0.3968 0.0
C652 C 0.1296 0.62949 0.33382 0.0
C653 C 0.11568 0.61848 0.45607 0.0
O654 O 0.11773 0.66963 0.39025 0.0
O655 O 0.0718 0.68436 0.40859 0.0
O656 O 0.10007 0.58101 0.38036 0.0
O657 O 0.07281 0.61935 0.39564 0.0
Co658 Co 0.88734 0.37604 0.38423 0.0
O659 O 0.89321 0.37138 0.42797 0.0
O660 O 0.86345 0.40633 0.40858 0.0
C661 C 0.87974 0.32565 0.37768 0.0
O662 O 0.878 0.38415 0.33753 0.0
Co663 Co 0.93381 0.34185 0.34242 0.0
O664 O 0.90028 0.34491 0.31254 0.0
C665 C 0.94967 0.40271 0.36912 0.0
C666 C 0.87467 0.39332 0.43309 0.0
C667 C 0.88277 0.36792 0.31279 0.0
O668 O 0.92363 0.40459 0.38247 0.0
O669 O 0.95798 0.37946 0.35341 0.0
O670 O 0.85702 0.34301 0.38499 0.0
O671 O 0.9062 0.33886 0.37638 0.0
C672 C 0.14953 0.27897 0.38334 0.0
C673 C 0.12954 0.2954 0.40224 0.0
C674 C 0.1498 0.24689 0.3836 0.0
C675 C 0.13052 0.23009 0.4032 0.0
H676 H 0.16466 0.29092 0.3677 0.0
H677 H 0.1657 0.23522 0.36875 0.0
S678 S 0.07418 0.26222 0.45746 0.0
N679 N 0.0899 0.29251 0.44101 0.0
N680 N 0.09096 0.23225 0.44208 0.0
C681 C 0.11061 0.24623 0.42241 0.0
C682 C 0.10999 0.27889 0.42178 0.0
C683 C 0.26652 0.62521 0.93593 0.0
C684 C 0.29092 0.6113 0.92026 0.0
C685 C 0.23591 0.61839 0.92857 0.0
C686 C 0.22843 0.59709 0.90555 0.0
H687 H 0.27101 0.64169 0.95397 0.0
H688 H 0.218 0.62956 0.9414 0.0
S689 S 0.28362 0.55452 0.85731 0.0
N690 N 0.30537 0.57542 0.88039 0.0
N691 N 0.248 0.56255 0.86654 0.0
C692 C 0.25259 0.58309 0.88956 0.0
C693 C 0.28374 0.59024 0.89691 0.0
C694 C 0.89287 0.77069 0.42089 0.0
C695 C 0.89528 0.79224 0.39706 0.0
C696 C 0.90315 0.74058 0.41708 0.0
C697 C 0.91711 0.73148 0.3897 0.0
H698 H 0.88249 0.77701 0.44244 0.0
H699 H 0.9007 0.72452 0.43582 0.0
S700 S 0.92932 0.77937 0.32067 0.0
N701 N 0.91231 0.80236 0.34518 0.0
N702 N 0.93285 0.74623 0.33844 0.0
C703 C 0.91997 0.75293 0.36587 0.0
C704 C 0.90873 0.78323 0.36944 0.0
C705 C 0.76749 0.44482 0.88031 0.0
C706 C 0.79329 0.43138 0.89416 0.0
C707 C 0.73767 0.43639 0.88879 0.0
C708 C 0.73238 0.41449 0.91179 0.0
H709 H 0.77026 0.46179 0.86246 0.0
H710 H 0.71863 0.44741 0.87741 0.0
S711 S 0.79205 0.37285 0.95572 0.0
N712 N 0.81154 0.39528 0.93232 0.0
N713 N 0.7556 0.37952 0.94841 0.0
C714 C 0.75799 0.40102 0.92605 0.0
C715 C 0.78836 0.40941 0.91717 0.0
C716 C 0.08998 0.75622 0.64257 0.0
C717 C 0.09649 0.7307 0.62414 0.0
C718 C 0.09649 0.78608 0.63264 0.0
C719 C 0.10935 0.79164 0.60365 0.0
H720 H 0.07988 0.75309 0.66497 0.0
H721 H 0.09125 0.8049 0.64785 0.0
S722 S 0.12797 0.73226 0.54565 0.0
N723 N 0.11499 0.71263 0.57519 0.0
N724 N 0.12688 0.76856 0.55599 0.0
C725 C 0.11544 0.76611 0.58477 0.0
C726 C 0.10915 0.73571 0.59516 0.0
C727 C 0.73863 0.6192 0.14596 0.0
C728 C 0.72701 0.62808 0.11734 0.0
C729 C 0.76959 0.61188 0.14958 0.0
C730 C 0.79012 0.6141 0.12493 0.0
H731 H 0.72358 0.6172 0.16551 0.0
H732 H 0.77754 0.60434 0.17184 0.0
S733 S 0.77138 0.63747 0.04567 0.0
N734 N 0.73847 0.63923 0.06401 0.0
N735 N 0.79697 0.62639 0.07124 0.0
C736 C 0.77903 0.62378 0.09644 0.0
C737 C 0.74734 0.63049 0.09252 0.0
C738 C 0.92094 0.245 0.61094 0.0
C739 C 0.89354 0.22971 0.60348 0.0
C740 C 0.92126 0.27668 0.61634 0.0
C741 C 0.89409 0.29386 0.61514 0.0
H742 H 0.94232 0.23264 0.61158 0.0
H743 H 0.94297 0.28777 0.62156 0.0
S744 S 0.8162 0.26373 0.59822 0.0
N745 N 0.83851 0.23352 0.59599 0.0
N746 N 0.83901 0.29287 0.60705 0.0
C747 C 0.86644 0.27854 0.60866 0.0
C748 C 0.86621 0.24647 0.60258 0.0
C749 C 0.27542 0.40874 0.10925 0.0
C750 C 0.29224 0.38855 0.12776 0.0
C751 C 0.24352 0.41105 0.11213 0.0
C752 C 0.22729 0.39267 0.13304 0.0
H753 H 0.287 0.42299 0.09255 0.0
H754 H 0.23148 0.42718 0.09773 0.0
S755 S 0.2606 0.33581 0.18648 0.0
N756 N 0.29028 0.34985 0.16773 0.0
N757 N 0.23044 0.35365 0.17261 0.0
C758 C 0.24383 0.37219 0.15146 0.0
C759 C 0.2763 0.37031 0.14899 0.0
C760 C 0.40794 0.10793 0.2452 0.0
C761 C 0.38849 0.12724 0.22848 0.0
C762 C 0.40878 0.10876 0.27725 0.0
C763 C 0.39066 0.12937 0.29379 0.0
H764 H 0.42263 0.09196 0.23344 0.0
H765 H 0.42375 0.09308 0.28916 0.0
S766 S 0.33628 0.18532 0.26084 0.0
N767 N 0.3508 0.1678 0.2308 0.0
N768 N 0.35274 0.1697 0.29105 0.0
C769 C 0.37135 0.14909 0.27736 0.0
C770 C 0.3701 0.14787 0.2447 0.0
C771 C 0.39119 0.93076 0.75514 0.0
C772 C 0.39604 0.91277 0.72876 0.0
C773 C 0.40058 0.92093 0.78421 0.0
C774 C 0.41559 0.89293 0.78807 0.0
H775 H 0.38014 0.95279 0.75347 0.0
H776 H 0.39672 0.93571 0.8037 0.0
S777 S 0.43174 0.83585 0.72754 0.0
N778 N 0.41526 0.86436 0.70919 0.0
N779 N 0.43342 0.84643 0.76379 0.0
C780 C 0.42019 0.87442 0.76221 0.0
C781 C 0.41028 0.88418 0.7326 0.0
C782 C 0.63976 0.87398 0.24135 0.0
C783 C 0.62034 0.8936 0.2249 0.0
C784 C 0.63857 0.87229 0.27337 0.0
C785 C 0.61828 0.89054 0.29013 0.0
H786 H 0.65569 0.8594 0.22941 0.0
H787 H 0.65422 0.85713 0.28508 0.0
S788 S 0.56258 0.94563 0.25799 0.0
N789 N 0.57996 0.93138 0.22776 0.0
N790 N 0.5782 0.92871 0.28793 0.0
C791 C 0.59877 0.91027 0.27398 0.0
C792 C 0.59969 0.91169 0.24137 0.0
C793 C 0.62267 0.10262 0.7864 0.0
C794 C 0.60273 0.12748 0.78936 0.0
C795 C 0.63241 0.09267 0.75757 0.0
C796 C 0.62297 0.10747 0.73049 0.0
H797 H 0.63055 0.09041 0.80651 0.0
H798 H 0.64762 0.07329 0.75662 0.0
S799 S 0.57171 0.17471 0.726 0.0
N800 N 0.57437 0.16723 0.76293 0.0
N801 N 0.59289 0.14885 0.70878 0.0
C802 C 0.60333 0.13269 0.73322 0.0
C803 C 0.59311 0.14259 0.76259 0.0
C804 C 0.8932 0.77271 0.57521 0.0
C805 C 0.88778 0.79216 0.60027 0.0
C806 C 0.90125 0.74226 0.57952 0.0
C807 C 0.90369 0.72992 0.60901 0.0
H808 H 0.89249 0.78138 0.55198 0.0
H809 H 0.9062 0.72839 0.55959 0.0
S810 S 0.88918 0.76978 0.68225 0.0
N811 N 0.88358 0.79616 0.65576 0.0
N812 N 0.89795 0.73813 0.66364 0.0
C813 C 0.89636 0.74822 0.63427 0.0
C814 C 0.88851 0.77958 0.62995 0.0
C815 C 0.77534 0.4078 0.14284 0.0
C816 C 0.79105 0.38809 0.12309 0.0
C817 C 0.7434 0.40739 0.14396 0.0
C818 C 0.72634 0.38793 0.12466 0.0
H819 H 0.78768 0.42437 0.15676 0.0
H820 H 0.73204 0.42378 0.15854 0.0
S821 S 0.75681 0.32992 0.07111 0.0
N822 N 0.78751 0.34662 0.08604 0.0
N823 N 0.7273 0.34674 0.08722 0.0
C824 C 0.7418 0.36707 0.10597 0.0
C825 C 0.77432 0.36688 0.10546 0.0
C826 C 0.17062 0.24902 0.60521 0.0
C827 C 0.15275 0.2284 0.62222 0.0
C828 C 0.17109 0.28022 0.61249 0.0
C829 C 0.15285 0.2916 0.63627 0.0
H830 H 0.18339 0.24114 0.58556 0.0
H831 H 0.18402 0.29573 0.59802 0.0
S832 S 0.10362 0.24628 0.68853 0.0
N833 N 0.1183 0.22073 0.66504 0.0
N834 N 0.11799 0.27972 0.67786 0.0
C835 C 0.13594 0.27094 0.65419 0.0
C836 C 0.13619 0.23914 0.64735 0.0
C837 C 0.2427 0.61455 0.15176 0.0
C838 C 0.22599 0.60925 0.12475 0.0
C839 C 0.27437 0.61973 0.15068 0.0
C840 C 0.28992 0.6203 0.12253 0.0
H841 H 0.23153 0.61318 0.17382 0.0
H842 H 0.28684 0.62227 0.17205 0.0
S843 S 0.25497 0.612 0.04523 0.0
N844 N 0.22615 0.60772 0.06918 0.0
N845 N 0.28547 0.61822 0.0669 0.0
C846 C 0.27287 0.61718 0.09529 0.0
C847 C 0.24087 0.61139 0.09647 0.0
C848 C 0.89824 0.24372 0.36107 0.0
C849 C 0.88407 0.22836 0.38553 0.0
C850 C 0.89535 0.27533 0.35757 0.0
C851 C 0.87734 0.2923 0.37778 0.0
H852 H 0.913 0.23153 0.34546 0.0
H853 H 0.90809 0.2867 0.33958 0.0
S854 S 0.83314 0.26258 0.44371 0.0
N855 N 0.85003 0.23222 0.42923 0.0
N856 N 0.84357 0.29161 0.42181 0.0
C857 C 0.86147 0.27702 0.40114 0.0
C858 C 0.86514 0.24497 0.40527 0.0
C859 C 0.24574 0.41498 0.89662 0.0
C860 C 0.22802 0.38794 0.89674 0.0
C861 C 0.27746 0.41393 0.89959 0.0
C862 C 0.2925 0.38585 0.90216 0.0
H863 H 0.23502 0.43723 0.89607 0.0
H864 H 0.29022 0.4353 0.90133 0.0
S865 S 0.25739 0.30851 0.89899 0.0
N866 N 0.22817 0.33211 0.89627 0.0
N867 N 0.28837 0.33043 0.90141 0.0
C868 C 0.27556 0.35859 0.89969 0.0
C869 C 0.24306 0.35958 0.89708 0.0
C870 C 0.09553 0.77196 0.37135 0.0
C871 C 0.11721 0.7859 0.39092 0.0
C872 C 0.08998 0.74045 0.37267 0.0
C873 C 0.10664 0.72206 0.39289 0.0
H874 H 0.08152 0.78568 0.35621 0.0
H875 H 0.07208 0.73051 0.3584 0.0
S876 S 0.16776 0.74691 0.44667 0.0
N877 N 0.15652 0.77875 0.42982 0.0
N878 N 0.14679 0.71909 0.43138 0.0
C879 C 0.12955 0.73533 0.41126 0.0
C880 C 0.13469 0.76749 0.4105 0.0
C881 C 0.78341 0.63928 0.8898 0.0
C882 C 0.79312 0.60865 0.88763 0.0
C883 C 0.75254 0.64615 0.89491 0.0
C884 C 0.73081 0.62252 0.89796 0.0
H885 H 0.79996 0.65793 0.88945 0.0
H886 H 0.74599 0.66977 0.89828 0.0
S887 S 0.74339 0.53928 0.88816 0.0
N888 N 0.77771 0.55502 0.88443 0.0
N889 N 0.7199 0.56797 0.89435 0.0
C890 C 0.7398 0.59211 0.89339 0.0
C891 C 0.77097 0.58514 0.88811 0.0
C892 C 0.57218 0.90582 0.76845 0.0
C893 C 0.59782 0.90312 0.78788 0.0
C894 C 0.57563 0.9098 0.73705 0.0
C895 C 0.60478 0.91079 0.72383 0.0
H896 H 0.54919 0.90602 0.77765 0.0
H897 H 0.55532 0.91299 0.72308 0.0
S898 S 0.67919 0.90192 0.76358 0.0
N899 N 0.65346 0.89956 0.7911 0.0
N900 N 0.65966 0.90655 0.73146 0.0
C901 C 0.63058 0.90606 0.74237 0.0
C902 C 0.62716 0.90229 0.77461 0.0
C903 C 0.66011 0.12674 0.24462 0.0
C904 C 0.63858 0.14363 0.22786 0.0
C905 C 0.65959 0.12656 0.27662 0.0
C906 C 0.63833 0.1442 0.29271 0.0
H907 H 0.67619 0.11206 0.233 0.0
H908 H 0.6753 0.11183 0.28875 0.0
S909 S 0.57902 0.19449 0.25966 0.0
N910 N 0.59635 0.17949 0.22979 0.0
N911 N 0.59663 0.18043 0.28998 0.0
C912 C 0.61806 0.16273 0.27633 0.0
C913 C 0.61785 0.16211 0.24379 0.0
C914 C 0.44983 0.09561 0.74191 0.0
C915 C 0.42144 0.10062 0.72772 0.0
C916 C 0.45391 0.10071 0.77313 0.0
C917 C 0.42965 0.11069 0.7916 0.0
H918 H 0.46914 0.08752 0.7288 0.0
H919 H 0.47626 0.09611 0.78288 0.0
S920 S 0.35083 0.12826 0.7649 0.0
N921 N 0.36891 0.1173 0.7337 0.0
N922 N 0.37626 0.12651 0.79296 0.0
C923 C 0.40126 0.11678 0.77746 0.0
C924 C 0.39723 0.11181 0.74538 0.0
C925 C 0.35648 0.89203 0.24125 0.0
C926 C 0.37965 0.87731 0.22477 0.0
C927 C 0.35591 0.89095 0.2732 0.0
C928 C 0.3778 0.87417 0.2895 0.0
H929 H 0.33957 0.90578 0.22952 0.0
H930 H 0.33871 0.9039 0.28521 0.0
S931 S 0.442 0.83001 0.25734 0.0
N932 N 0.42455 0.84478 0.22726 0.0
N933 N 0.42235 0.84148 0.28734 0.0
C934 C 0.40008 0.85802 0.27338 0.0
C935 C 0.40131 0.85993 0.24092 0.0
C936 C 0.10736 0.08158 0.54617 0.0
C937 C 0.13765 0.08048 0.5568 0.0
C938 C 0.10124 0.08821 0.51546 0.0
C939 C 0.12537 0.09379 0.49488 0.0
H940 H 0.08865 0.08258 0.56234 0.0
H941 H 0.07785 0.09328 0.50894 0.0
S942 S 0.20785 0.08138 0.50987 0.0
N943 N 0.19118 0.07595 0.54333 0.0
N944 N 0.17991 0.08851 0.48534 0.0
C945 C 0.15518 0.08597 0.50396 0.0
C946 C 0.16127 0.07905 0.53525 0.0
C947 C 0.44645 0.60445 0.99548 0.0
C948 C 0.44478 0.63006 0.97605 0.0
C949 C 0.43929 0.6073 0.0266 0.0
C950 C 0.43115 0.63592 0.03849 0.0
H951 H 0.44705 0.58163 0.98572 0.0
H952 H 0.43488 0.58663 0.03965 0.0
S953 S 0.43846 0.71086 0.99971 0.0
N954 N 0.44567 0.68539 0.97277 0.0
N955 N 0.43285 0.69105 0.03143 0.0
C956 C 0.43754 0.66216 0.02099 0.0
C957 C 0.44454 0.65914 0.98942 0.0
C958 C 0.90925 0.9382 0.50909 0.0
C959 C 0.88434 0.9283 0.49091 0.0
C960 C 0.9047 0.94775 0.53932 0.0
C961 C 0.87539 0.94593 0.55225 0.0
H962 H 0.93251 0.93468 0.50141 0.0
H963 H 0.92462 0.95017 0.55406 0.0
S964 S 0.80233 0.9348 0.51044 0.0
N965 N 0.82899 0.92771 0.48475 0.0
N966 N 0.8208 0.94499 0.54202 0.0
C967 C 0.85024 0.94383 0.53219 0.0
C968 C 0.85466 0.93429 0.5013 0.0
C969 C 0.57736 0.368 0.98117 0.0
C970 C 0.57914 0.39724 0.96813 0.0
C971 C 0.58222 0.3643 0.01261 0.0
C972 C 0.58927 0.38982 0.03116 0.0
H973 H 0.57791 0.34786 0.96666 0.0
H974 H 0.58603 0.34136 0.02119 0.0
S975 S 0.58333 0.47119 1.00921 0.0
N976 N 0.57769 0.45202 0.977 0.0
N977 N 0.5876 0.44509 0.03622 0.0
C978 C 0.5836 0.41907 0.01953 0.0
C979 C 0.57825 0.42279 0.9876 0.0
C980 C 0.101 0.94333 0.52245 0.0
C981 C 0.12664 0.94278 0.54208 0.0
C982 C 0.10372 0.93415 0.49182 0.0
C983 C 0.1323 0.92527 0.48051 0.0
H984 H 0.0782 0.94469 0.53203 0.0
H985 H 0.08302 0.92923 0.47885 0.0
S986 S 0.20736 0.93461 0.51924 0.0
N987 N 0.18197 0.94374 0.54555 0.0
N988 N 0.18745 0.92686 0.48785 0.0
C989 C 0.1586 0.9323 0.49786 0.0
C990 C 0.15568 0.94151 0.52889 0.0
C991 C 0.57919 0.61333 0.97069 0.0
C992 C 0.58113 0.64335 0.95942 0.0
C993 C 0.5853 0.60742 1.00157 0.0
C994 C 0.59269 0.63155 0.02177 0.0
H995 H 0.57876 0.59417 0.95489 0.0
H996 H 0.58857 0.58387 1.00856 0.0
S997 S 0.58678 0.71438 1.00526 0.0
N998 N 0.58043 0.6974 0.97197 0.0
N999 N 0.59148 0.68655 0.03037 0.0
C1000 C 0.5872 0.66165 0.01209 0.0
C1001 C 0.58107 0.66752 0.98057 0.0
C1002 C 0.86436 0.08538 0.50134 0.0
C1003 C 0.89004 0.09346 0.48369 0.0
C1004 C 0.86795 0.07622 0.53181 0.0
C1005 C 0.89718 0.07629 0.54524 0.0
H1006 H 0.84152 0.0906 0.49317 0.0
H1007 H 0.8478 0.07548 0.54618 0.0
S1008 S 0.97119 0.08275 0.50503 0.0
N1009 N 0.94526 0.09091 0.47866 0.0
N1010 N 0.95184 0.07401 0.53631 0.0
C1011 C 0.92265 0.07662 0.52578 0.0
C1012 C 0.91914 0.08587 0.49471 0.0
C1013 C 0.44012 0.41255 0.97858 0.0
C1014 C 0.44159 0.38255 0.96718 0.0
C1015 C 0.43109 0.41778 1.0088 0.0
C1016 C 0.4246 0.39307 0.02846 0.0
H1017 H 0.44019 0.43174 0.96286 0.0
H1018 H 0.42559 0.44096 0.01554 0.0
S1019 S 0.4388 0.31116 0.01245 0.0
N1020 N 0.44601 0.32878 0.97979 0.0
N1021 N 0.42987 0.33834 0.03708 0.0
C1022 C 0.43319 0.36358 0.0192 0.0
C1023 C 0.44212 0.35841 0.9883 0.0
C1024 C 0.52078 0.15144 0.08683 0.0
C1025 C 0.54348 0.12991 0.09389 0.0
C1026 C 0.48983 0.14296 0.08778 0.0
C1027 C 0.48149 0.1128 0.09561 0.0
H1028 H 0.52651 0.17565 0.08647 0.0
H1029 H 0.473 0.16101 0.08779 0.0
S1030 S 0.53288 0.04596 0.09832 0.0
N1031 N 0.55612 0.07594 0.0958 0.0
N1032 N 0.49779 0.05972 0.09705 0.0
C1033 C 0.504 0.09009 0.09377 0.0
C1034 C 0.53544 0.0988 0.09286 0.0
C1035 C 0.4052 0.99531 0.57299 0.0
C1036 C 0.37637 0.98335 0.58106 0.0
C1037 C 0.4101 0.02702 0.57162 0.0
C1038 C 0.38614 0.04728 0.57772 0.0
H1039 H 0.42491 0.98046 0.57219 0.0
H1040 H 0.43344 0.03558 0.5702 0.0
S1041 S 0.30496 0.0267 0.59155 0.0
N1042 N 0.32261 0.99349 0.58929 0.0
N1043 N 0.33146 0.05319 0.58522 0.0
C1044 C 0.35627 0.03535 0.58021 0.0
C1045 C 0.35146 1.00315 0.58252 0.0
C1046 C 0.47814 0.91403 0.08474 0.0
C1047 C 0.47044 0.8829 0.08774 0.0
C1048 C 0.50899 0.92309 0.0846 0.0
C1049 C 0.5322 0.90106 0.08748 0.0
H1050 H 0.46103 0.93142 0.08849 0.0
H1051 H 0.51434 0.94717 0.08791 0.0
S1052 S 0.52237 0.81727 0.07818 0.0
N1053 N 0.48718 0.83063 0.08015 0.0
N1054 N 0.5453 0.84756 0.07983 0.0
C1055 C 0.52442 0.87038 0.08132 0.0
C1056 C 0.49308 0.86123 0.08144 0.0
C1057 C 0.61519 0.02491 0.5752 0.0
C1058 C 0.64397 0.03722 0.58325 0.0
C1059 C 0.61096 0.99319 0.57251 0.0
C1060 C 0.63552 0.97326 0.5773 0.0
H1061 H 0.59516 0.03937 0.57516 0.0
H1062 H 0.58778 0.98418 0.57095 0.0
S1063 S 0.71652 0.9951 0.59124 0.0
N1064 N 0.69812 0.02796 0.59054 0.0
N1065 N 0.69045 0.96829 0.58413 0.0
C1066 C 0.66516 0.98575 0.58014 0.0
C1067 C 0.66933 0.01793 0.58373 0.0
C1068 C 0.50561 0.85378 0.9363 0.0
C1069 C 0.48628 0.87922 0.93633 0.0
C1070 C 0.5374 0.8577 0.93898 0.0
C1071 C 0.55049 0.88725 0.94027 0.0
H1072 H 0.49651 0.8313 0.93057 0.0
H1073 H 0.55178 0.83806 0.93478 0.0
S1074 S 0.50913 0.96025 0.9479 0.0
N1075 N 0.48181 0.93401 0.94426 0.0
N1076 N 0.54177 0.94146 0.94746 0.0
C1077 C 0.53118 0.91219 0.94495 0.0
C1078 C 0.49883 0.90815 0.94315 0.0
C1079 C 0.64529 0.98927 0.42835 0.0
C1080 C 0.61427 0.9811 0.42478 0.0
C1081 C 0.65422 0.02006 0.42667 0.0
C1082 C 0.63222 0.04289 0.42186 0.0
H1083 H 0.66294 0.9721 0.42664 0.0
H1084 H 0.67834 0.02538 0.42384 0.0
S1085 S 0.54822 0.03335 0.42754 0.0
N1086 N 0.56168 0.99817 0.42889 0.0
N1087 N 0.57851 0.05625 0.42553 0.0
C1088 C 0.60136 0.0354 0.42675 0.0
C1089 C 0.59229 1.00408 0.42843 0.0
C1090 C 0.48743 0.16608 0.94238 0.0
C1091 C 0.4752 0.13625 0.94475 0.0
C1092 C 0.51906 0.17073 0.93911 0.0
C1093 C 0.53908 0.14585 0.93983 0.0
H1094 H 0.47244 0.18511 0.93752 0.0
H1095 H 0.52737 0.19316 0.93229 0.0
S1096 S 0.51878 0.06487 0.95521 0.0
N1097 N 0.48561 0.08271 0.95426 0.0
N1098 N 0.54527 0.09166 0.95019 0.0
C1099 C 0.52751 0.11696 0.94816 0.0
C1100 C 0.49531 0.11211 0.95044 0.0
C1101 C 0.41061 0.97886 0.42501 0.0
C1102 C 0.37953 0.971 0.42165 0.0
C1103 C 0.41952 0.00973 0.42608 0.0
C1104 C 0.39741 0.03291 0.4239 0.0
H1105 H 0.42811 0.96187 0.42118 0.0
H1106 H 0.44359 0.01529 0.42333 0.0
S1107 S 0.31349 0.0225 0.43068 0.0
N1108 N 0.32704 0.98742 0.428 0.0
N1109 N 0.3437 0.04557 0.43047 0.0
C1110 C 0.36664 0.02483 0.42891 0.0
C1111 C 0.35763 0.99348 0.42761 0.0
C1112 C 0.08436 0.50622 0.10293 0.0
C1113 C 0.09212 0.48793 0.12825 0.0
C1114 C 0.07472 0.53637 0.10715 0.0
C1115 C 0.07437 0.54913 0.13665 0.0
H1116 H 0.08939 0.4986 0.0799 0.0
H1117 H 0.07381 0.5512 0.0873 0.0
S1118 S 0.07958 0.50708 0.2098 0.0
N1119 N 0.08839 0.48152 0.18344 0.0
N1120 N 0.07118 0.53874 0.19101 0.0
C1121 C 0.07449 0.52903 0.16166 0.0
C1122 C 0.08402 0.49819 0.15757 0.0
C1123 C 0.07383 0.52323 0.91848 0.0
C1124 C 0.07473 0.54153 0.89198 0.0
C1125 C 0.0824 0.49238 0.91709 0.0
C1126 C 0.09072 0.47942 0.88899 0.0
H1127 H 0.07286 0.53401 0.94082 0.0
H1128 H 0.08727 0.48048 0.9383 0.0
S1129 S 0.08188 0.51433 0.81237 0.0
N1130 N 0.07357 0.54207 0.83659 0.0
N1131 N 0.08887 0.48388 0.83361 0.0
C1132 C 0.08382 0.49545 0.86202 0.0
C1133 C 0.07544 0.52677 0.86359 0.0
C1134 C 0.02797 0.57232 0.41694 0.0
C1135 C 0.04594 0.57274 0.39041 0.0
C1136 C 0.99618 0.57551 0.41493 0.0
C1137 C 0.98188 0.57937 0.38636 0.0
H1138 H 0.03879 0.57418 0.43927 0.0
H1139 H 0.98347 0.57927 0.43582 0.0
S1140 S 0.01804 0.57404 0.31029 0.0
N1141 N 0.04666 0.5704 0.33489 0.0
N1142 N 0.9868 0.57733 0.33117 0.0
C1143 C 0.99894 0.5749 0.35976 0.0
C1144 C 0.03121 0.57103 0.3618 0.0
C1145 C 0.95008 0.53807 0.9019 0.0
C1146 C 0.9457 0.55599 0.87563 0.0
C1147 C 0.95007 0.50605 0.89988 0.0
C1148 C 0.94482 0.49138 0.87165 0.0
H1149 H 0.94915 0.54855 0.92438 0.0
H1150 H 0.94923 0.49296 0.92094 0.0
S1151 S 0.93979 0.52825 0.79573 0.0
N1152 N 0.94296 0.55706 0.82014 0.0
N1153 N 0.94139 0.49675 0.81657 0.0
C1154 C 0.94535 0.50901 0.84494 0.0
C1155 C 0.94624 0.54156 0.8469 0.0
C1156 C 0.01031 0.43006 0.4192 0.0
C1157 C 0.03473 0.42688 0.39854 0.0
C1158 C 0.98003 0.42904 0.40861 0.0
C1159 C 0.97401 0.42469 0.37729 0.0
H1160 H 0.01435 0.42803 0.44361 0.0
H1161 H 0.96194 0.42605 0.42527 0.0
S1162 S 0.0296 0.43149 0.31402 0.0
N1163 N 0.05079 0.43187 0.34546 0.0
N1164 N 0.9937 0.42948 0.32564 0.0
C1165 C 0.99789 0.42981 0.35649 0.0
C1166 C 0.02866 0.43109 0.36722 0.0
C1167 C 0.93256 0.49846 0.10455 0.0
C1168 C 0.92516 0.48537 0.13292 0.0
C1169 C 0.94006 0.52969 0.10281 0.0
C1170 C 0.9397 0.548 0.12932 0.0
H1171 H 0.92769 0.48614 0.0835 0.0
H1172 H 0.9403 0.54037 0.08042 0.0
S1173 S 0.93474 0.52122 0.20922 0.0
N1174 N 0.92804 0.49032 0.18826 0.0
N1175 N 0.94176 0.54915 0.18468 0.0
C1176 C 0.9396 0.53354 0.15781 0.0
C1177 C 0.93209 0.50191 0.1597 0.0
C1178 C 0.01129 0.43005 0.6026 0.0
C1179 C 0.98713 0.4258 0.62348 0.0
C1180 C 0.04165 0.42585 0.61203 0.0
C1181 C 0.04806 0.41787 0.6425 0.0
H1182 H 1.00651 0.43089 0.57825 0.0
H1183 H 0.05911 0.4239 0.59462 0.0
S1184 S 0.99437 0.42017 0.70771 0.0
N1185 N 0.97263 0.42544 0.67714 0.0
N1186 N 0.02978 0.41749 0.69492 0.0
C1187 C 0.02501 0.42159 0.66443 0.0
C1188 C 0.99422 0.42601 0.65484 0.0
C1189 C 0.01406 0.58148 0.66752 0.0
C1190 C 0.03313 0.58127 0.64179 0.0
C1191 C 0.98215 0.58117 0.66401 0.0
C1192 C 0.96883 0.58167 0.63465 0.0
H1193 H 0.02367 0.58596 0.69003 0.0
H1194 H 0.96822 0.58539 0.68402 0.0
S1195 S 1.00894 0.57428 0.56077 0.0
N1196 N 0.03661 0.57509 0.5867 0.0
N1197 N 0.97656 0.57618 0.58005 0.0
C1198 C 0.98752 0.57692 0.60921 0.0
C1199 C 0.01991 0.57629 0.61284 0.0
C1200 C 0.99724 0.10185 0.39429 0.0
C1201 C 0.97939 0.12116 0.37566 0.0
C1202 C 0.02957 0.10504 0.39605 0.0
C1203 C 0.04555 0.12804 0.37966 0.0
H1204 H 0.98595 0.08641 0.41012 0.0
H1205 H 0.04159 0.09204 0.41338 0.0
S1206 S 0.00996 0.18246 0.32533 0.0
N1207 N 0.98072 0.16205 0.33825 0.0
N1208 N 0.04079 0.16837 0.34199 0.0
C1209 C 0.02818 0.14541 0.35885 0.0
C1210 C 0.99539 0.142 0.35686 0.0
C1211 C 0.37776 0.48512 0.86643 0.0
C1212 C 0.40265 0.4693 0.87971 0.0
C1213 C 0.3769 0.51766 0.86543 0.0
C1214 C 0.40091 0.53583 0.87769 0.0
H1215 H 0.35724 0.47245 0.86005 0.0
H1216 H 0.35598 0.52853 0.85794 0.0
S1217 S 0.47162 0.50612 0.91373 0.0
N1218 N 0.45245 0.47492 0.90364 0.0
N1219 N 0.45088 0.53524 0.90195 0.0
C1220 C 0.42681 0.52025 0.88869 0.0
C1221 C 0.42774 0.48734 0.88951 0.0
C1222 C 0.01796 0.91741 0.39426 0.0
C1223 C 0.0351 0.89743 0.37579 0.0
C1224 C 0.98564 0.91478 0.39646 0.0
C1225 C 0.9689 0.89177 0.38066 0.0
H1226 H 0.02984 0.93302 0.40965 0.0
H1227 H 0.9742 0.92839 0.41363 0.0
S1228 S 1.00241 0.83534 0.32727 0.0
N1229 N 0.03226 0.8556 0.33937 0.0
N1230 N 0.97219 0.85041 0.34389 0.0
C1231 C 0.98554 0.87359 0.36006 0.0
C1232 C 0.01834 0.8764 0.35763 0.0
C1233 C 0.64794 0.50631 0.85871 0.0
C1234 C 0.62296 0.48775 0.8678 0.0
C1235 C 0.64686 0.53876 0.86055 0.0
C1236 C 0.62092 0.55413 0.87193 0.0
H1237 H 0.66955 0.49571 0.85324 0.0
H1238 H 0.6678 0.55163 0.85657 0.0
S1239 S 0.54893 0.51633 0.89666 0.0
N1240 N 0.57082 0.48757 0.88633 0.0
N1241 N 0.56902 0.54784 0.8901 0.0
C1242 C 0.59504 0.53584 0.87841 0.0
C1243 C 0.59607 0.50297 0.87642 0.0
C1244 C 0.98594 0.92866 0.63383 0.0
C1245 C 0.96738 0.90248 0.6388 0.0
C1246 C 0.01828 0.92766 0.63603 0.0
C1247 C 0.03382 0.90045 0.64338 0.0
H1248 H 0.97563 0.94923 0.62474 0.0
H1249 H 0.03131 0.94761 0.62883 0.0
S1250 S 0.99635 0.82596 0.66083 0.0
N1251 N 0.9674 0.84901 0.65369 0.0
N1252 N 0.02774 0.84716 0.65768 0.0
C1253 C 0.01552 0.87483 0.65094 0.0
C1254 C 0.98254 0.87588 0.64882 0.0
C1255 C 0.64052 0.49703 0.15608 0.0
C1256 C 0.61883 0.48088 0.13806 0.0
C1257 C 0.64401 0.52923 0.15421 0.0
C1258 C 0.62597 0.54701 0.13422 0.0
H1259 H 0.65721 0.48437 0.16929 0.0
H1260 H 0.66336 0.53982 0.16586 0.0
S1261 S 0.56391 0.51646 0.08412 0.0
N1262 N 0.57736 0.48571 0.10139 0.0
N1263 N 0.58369 0.54584 0.09802 0.0
C1264 C 0.60227 0.53144 0.11833 0.0
C1265 C 0.59884 0.49858 0.12011 0.0
C1266 C 1.00512 0.14944 0.65493 0.0
C1267 C 0.98729 0.12441 0.6444 0.0
C1268 C 0.03764 0.14893 0.65433 0.0
C1269 C 0.05393 0.12343 0.64313 0.0
H1270 H 0.99395 0.17065 0.66085 0.0
H1271 H 0.05001 0.16995 0.65952 0.0
S1272 S 0.01817 0.0514 0.61463 0.0
N1273 N 0.9887 0.07272 0.62423 0.0
N1274 N 0.0491 0.07189 0.62305 0.0
C1275 C 0.03628 0.09752 0.63483 0.0
C1276 C 1.0033 0.09803 0.63538 0.0
C1277 C 0.42042 0.52129 0.12563 0.0
C1278 C 0.4021 0.53978 0.14452 0.0
C1279 C 0.41694 0.48896 0.12481 0.0
C1280 C 0.39451 0.47355 0.1424 0.0
H1281 H 0.43528 0.53207 0.10894 0.0
H1282 H 0.42915 0.47645 0.10735 0.0
S1283 S 0.34258 0.51086 0.1977 0.0
N1284 N 0.36275 0.53963 0.18339 0.0
N1285 N 0.35573 0.47955 0.18133 0.0
C1286 C 0.37812 0.49157 0.16338 0.0
C1287 C 0.38194 0.52438 0.16448 0.0
C1288 C 0.34421 0.01871 0.14234 0.0
C1289 C 0.3653 0.03799 0.12702 0.0
C1290 C 0.34379 0.98654 0.13802 0.0
C1291 C 0.36455 0.97196 0.11828 0.0
H1292 H 0.33019 0.02814 0.16035 0.0
H1293 H 0.32927 0.97276 0.15271 0.0
S1294 S 0.42307 0.01166 0.07111 0.0
N1295 N 0.40595 0.03976 0.08944 0.0
N1296 N 0.4055 0.97977 0.08182 0.0
C1297 C 0.38403 0.99111 0.10102 0.0
C1298 C 0.3842 0.0239 0.10513 0.0
C1299 C 0.48048 0.88951 0.58767 0.0
C1300 C 0.46592 0.88071 0.61509 0.0
C1301 C 0.51278 0.89141 0.58528 0.0
C1302 C 0.53232 0.88469 0.61022 0.0
H1303 H 0.46678 0.89794 0.56878 0.0
H1304 H 0.52239 0.90152 0.56478 0.0
S1305 S 0.50613 0.85868 0.68664 0.0
N1306 N 0.47399 0.86336 0.66714 0.0
N1307 N 0.53422 0.86677 0.66269 0.0
C1308 C 0.51809 0.87331 0.63687 0.0
C1309 C 0.48515 0.87153 0.63935 0.0
C1310 C 0.66981 0.03191 0.1444 0.0
C1311 C 0.65353 0.04807 0.12174 0.0
C1312 C 0.66792 0.99967 0.14684 0.0
C1313 C 0.64942 0.98189 0.1269 0.0
H1314 H 0.68159 0.0445 0.1624 0.0
H1315 H 0.67801 0.98901 0.16683 0.0
S1316 S 0.6049 0.01251 0.06135 0.0
N1317 N 0.62078 0.04332 0.07698 0.0
N1318 N 0.61705 0.98307 0.08164 0.0
C1319 C 0.6356 0.99751 0.10225 0.0
C1320 C 0.63754 0.03043 0.09975 0.0
C1321 C 0.53653 0.14893 0.64169 0.0
C1322 C 0.5555 0.14087 0.61696 0.0
C1323 C 0.50412 0.14677 0.63968 0.0
C1324 C 0.48917 0.13599 0.61294 0.0
H1325 H 0.54678 0.15387 0.66376 0.0
H1326 H 0.49103 0.14982 0.66044 0.0
S1327 S 0.52802 0.11509 0.54066 0.0
N1328 N 0.55646 0.12464 0.56396 0.0
N1329 N 0.49623 0.12024 0.56026 0.0
C1330 C 0.50784 0.13076 0.58725 0.0
C1331 C 0.54071 0.13311 0.58927 0.0
C1332 C 0.39515 0.01475 0.92874 0.0
C1333 C 0.38923 0.03369 0.90323 0.0
C1334 C 0.39275 0.98246 0.92696 0.0
C1335 C 0.38413 0.96737 0.89965 0.0
H1336 H 0.40513 0.02475 0.94925 0.0
H1337 H 0.40072 0.96913 0.94628 0.0
S1338 S 0.36353 1.00591 0.82691 0.0
N1339 N 0.37197 0.03451 0.85038 0.0
N1340 N 0.36738 0.97422 0.84715 0.0
C1341 C 0.37553 0.98603 0.87482 0.0
C1342 C 0.37794 0.01898 0.87663 0.0
C1343 C 0.51432 0.84368 0.37532 0.0
C1344 C 0.53286 0.8646 0.39196 0.0
C1345 C 0.48211 0.8425 0.37881 0.0
C1346 C 0.46672 0.8622 0.39907 0.0
H1347 H 0.52433 0.83065 0.35685 0.0
H1348 H 0.46889 0.82839 0.36305 0.0
S1349 S 0.50438 0.91945 0.44989 0.0
N1350 N 0.53315 0.90366 0.43145 0.0
N1351 N 0.47303 0.9017 0.43763 0.0
C1352 C 0.48515 0.88124 0.41776 0.0
C1353 C 0.518 0.88224 0.41442 0.0
C1354 C 0.64814 0.03765 0.87573 0.0
C1355 C 0.6377 0.0554 0.90054 0.0
C1356 C 0.64642 1.00512 0.8761 0.0
C1357 C 0.63407 0.98884 0.90123 0.0
H1358 H 0.65478 0.04895 0.85469 0.0
H1359 H 0.65151 0.9929 0.85518 0.0
S1360 S 0.60564 0.02434 0.97272 0.0
N1361 N 0.61661 0.05385 0.9517 0.0
N1362 N 0.61339 0.99351 0.95236 0.0
C1363 C 0.62603 1.00638 0.92703 0.0
C1364 C 0.62771 0.03932 0.92664 0.0
C1365 C 0.49888 0.17024 0.37532 0.0
C1366 C 0.48056 0.15101 0.39382 0.0
C1367 C 0.53111 0.17161 0.37854 0.0
C1368 C 0.54678 0.15394 0.40051 0.0
H1369 H 0.48863 0.18151 0.35576 0.0
H1370 H 0.54409 0.18413 0.36148 0.0
S1371 S 0.50966 0.10278 0.45726 0.0
N1372 N 0.48069 0.11637 0.43714 0.0
N1373 N 0.54092 0.11896 0.44315 0.0
C1374 C 0.5286 0.13703 0.42113 0.0
C1375 C 0.49567 0.1357 0.4179 0.0
C1376 C 0.09816 0.39042 1.0023 0.0
C1377 C 0.11669 0.37167 0.98388 0.0
C1378 C 0.1016 0.39146 0.03461 0.0
C1379 C 0.12415 0.37425 0.05006 0.0
H1380 H 0.08321 0.40687 0.99147 0.0
H1381 H 0.08926 0.40887 0.04705 0.0
S1382 S 0.17648 0.31931 0.01292 0.0
N1383 N 0.15628 0.33324 0.98415 0.0
N1384 N 0.16317 0.33571 0.04417 0.0
C1385 C 0.14067 0.35333 0.03213 0.0
C1386 C 0.13694 0.35202 0.99934 0.0
C1387 C 0.09225 0.63356 0.99809 0.0
C1388 C 0.11949 0.64208 0.98297 0.0
C1389 C 0.09051 0.63209 0.03038 0.0
C1390 C 0.11602 0.63881 0.04931 0.0
H1391 H 0.07298 0.62492 0.98482 0.0
H1392 H 0.07015 0.62197 0.04041 0.0
S1393 S 0.19182 0.66563 0.02145 0.0
N1394 N 0.17168 0.66025 0.98973 0.0
N1395 N 0.16855 0.6574 0.05007 0.0
C1396 C 0.14242 0.6503 0.03452 0.0
C1397 C 0.14418 0.65178 1.00155 0.0
C1398 C 0.86864 0.64529 0.48834 0.0
C1399 C 0.87748 0.62033 0.46997 0.0
C1400 C 0.8698 0.64391 0.52082 0.0
C1401 C 0.88025 0.61765 0.53649 0.0
H1402 H 0.86392 0.66711 0.47763 0.0
H1403 H 0.86619 0.66487 0.53354 0.0
S1404 S 0.90345 0.5452 0.49926 0.0
N1405 N 0.89443 0.56769 0.47027 0.0
N1406 N 0.897 0.5653 0.53059 0.0
C1407 C 0.88642 0.59176 0.51834 0.0
C1408 C 0.88508 0.5931 0.4854 0.0
C1409 C 0.88371 0.37218 0.97915 0.0
C1410 C 0.90445 0.3928 0.96529 0.0
C1411 C 0.88228 0.36905 0.01148 0.0
C1412 C 0.90202 0.38573 0.03137 0.0
H1413 H 0.86675 0.36039 0.96517 0.0
H1414 H 0.8641 0.35507 0.02108 0.0
S1415 S 0.96179 0.44107 1.00666 0.0
N1416 N 0.9462 0.42893 0.97425 0.0
N1417 N 0.94381 0.42246 0.03426 0.0
C1418 C 0.92406 0.40481 0.01762 0.0
C1419 C 0.92521 0.40842 0.98489 0.0
C1420 C 0.17479 0.38265 0.53503 0.0
C1421 C 0.15653 0.40281 0.55221 0.0
C1422 C 0.17225 0.38043 0.50278 0.0
C1423 C 0.15123 0.3982 0.48599 0.0
H1424 H 0.18878 0.36604 0.54689 0.0
H1425 H 0.18411 0.362 0.4914 0.0
S1426 S 0.10012 0.45664 0.51945 0.0
N1427 N 0.11857 0.44275 0.54941 0.0
N1428 N 0.11388 0.43877 0.48922 0.0
C1429 C 0.13514 0.42058 0.50262 0.0
C1430 C 0.13763 0.42274 0.53551 0.0
C1431 C 0.92855 0.6352 0.9914 0.0
C1432 C 0.90389 0.64316 0.97205 0.0
C1433 C 0.92668 0.63756 0.02364 0.0
C1434 C 0.90011 0.64813 0.03834 0.0
H1435 H 0.94818 0.62376 0.98177 0.0
H1436 H 0.94512 0.62815 0.03727 0.0
S1437 S 0.83024 0.67516 0.99852 0.0
N1438 N 0.85302 0.66481 0.97034 0.0
N1439 N 0.84955 0.66924 0.03059 0.0
C1440 C 0.87637 0.65876 0.01927 0.0
C1441 C 0.87831 0.65641 0.98634 0.0
C1442 C 0.8496 0.37834 0.48222 0.0
C1443 C 0.86678 0.40031 0.46576 0.0
C1444 C 0.85233 0.37526 0.51437 0.0
C1445 C 0.87241 0.39398 0.53178 0.0
H1446 H 0.83637 0.36121 0.46981 0.0
H1447 H 0.84129 0.35576 0.52516 0.0
S1448 S 0.92081 0.45668 0.50031 0.0
N1449 N 0.90294 0.44256 0.4699 0.0
N1450 N 0.90795 0.43697 0.52993 0.0
C1451 C 0.88754 0.41783 0.51592 0.0
C1452 C 0.88486 0.42087 0.48311 0.0
C1453 C 0.11804 0.59174 0.53712 0.0
C1454 C 0.13316 0.61606 0.55238 0.0
C1455 C 0.11736 0.58948 0.50489 0.0
C1456 C 0.13133 0.61174 0.48599 0.0
H1457 H 0.10419 0.57571 0.55014 0.0
H1458 H 0.10263 0.57212 0.49465 0.0
S1459 S 0.17825 0.67735 0.51417 0.0
N1460 N 0.16615 0.66061 0.5459 0.0
N1461 N 0.16415 0.65687 0.48543 0.0
C1462 C 0.14912 0.63445 0.50096 0.0
C1463 C 0.15012 0.63658 0.53402 0.0
C1464 C 0.27498 0.10934 0.37893 0.0
C1465 C 0.29616 0.12538 0.39797 0.0
C1466 C 0.24286 0.11163 0.38258 0.0
C1467 C 0.23006 0.13008 0.40554 0.0
H1468 H 0.28324 0.09506 0.36053 0.0
H1469 H 0.22798 0.09925 0.36687 0.0
S1470 S 0.27498 0.17541 0.46298 0.0
N1471 N 0.30144 0.15939 0.44158 0.0
N1472 N 0.24175 0.16369 0.44878 0.0
C1473 C 0.251 0.14565 0.42528 0.0
C1474 C 0.28371 0.14333 0.42145 0.0
C1475 C 0.41315 0.72674 0.88137 0.0
C1476 C 0.39005 0.72004 0.90258 0.0
C1477 C 0.42121 0.75733 0.87417 0.0
C1478 C 0.40666 0.78302 0.88774 0.0
H1479 H 0.42632 0.70833 0.87153 0.0
H1480 H 0.44001 0.76077 0.85844 0.0
S1481 S 0.34149 0.77801 0.94147 0.0
N1482 N 0.35012 0.74195 0.9345 0.0
N1483 N 0.36571 0.79887 0.92118 0.0
C1484 C 0.38211 0.77658 0.90735 0.0
C1485 C 0.37381 0.74539 0.91469 0.0
C1486 C 0.73069 0.87095 0.41085 0.0
C1487 C 0.71742 0.89254 0.39103 0.0
C1488 C 0.76289 0.86851 0.41413 0.0
C1489 C 0.78371 0.88748 0.39778 0.0
H1490 H 0.71612 0.85549 0.42373 0.0
H1491 H 0.77152 0.85121 0.42958 0.0
S1492 S 0.76127 0.94872 0.34365 0.0
N1493 N 0.72833 0.9341 0.35531 0.0
N1494 N 0.78813 0.92922 0.36155 0.0
C1495 C 0.77079 0.90945 0.37826 0.0
C1496 C 0.73801 0.91202 0.37489 0.0
C1497 C 0.63665 0.24786 0.90909 0.0
C1498 C 0.61773 0.24002 0.88419 0.0
C1499 C 0.64365 0.27881 0.91604 0.0
C1500 C 0.63215 0.30377 0.89855 0.0
H1501 H 0.64465 0.23015 0.92442 0.0
H1502 H 0.65747 0.28315 0.93628 0.0
S1503 S 0.5852 0.29544 0.82811 0.0
N1504 N 0.59048 0.25988 0.83967 0.0
N1505 N 0.60338 0.3175 0.85315 0.0
C1506 C 0.61501 0.29608 0.87235 0.0
C1507 C 0.60788 0.26452 0.86518 0.0
C1508 C 0.27432 0.88569 0.60782 0.0
C1509 C 0.28185 0.90588 0.63177 0.0
C1510 C 0.24343 0.87897 0.60018 0.0
C1511 C 0.21824 0.89198 0.61601 0.0
H1512 H 0.2923 0.87622 0.59382 0.0
H1513 H 0.23938 0.86401 0.58076 0.0
S1514 S 0.22535 0.94325 0.68331 0.0
N1515 N 0.26112 0.93638 0.67358 0.0
N1516 N 0.20374 0.92399 0.65869 0.0
C1517 C 0.22549 0.91065 0.6412 0.0
C1518 C 0.25695 0.91753 0.6491 0.0
C1519 C 0.64748 0.75298 0.10168 0.0
C1520 C 0.62718 0.73185 0.11591 0.0
C1521 C 0.64426 0.78509 0.10461 0.0
C1522 C 0.62049 0.79789 0.1219 0.0
H1523 H 0.6665 0.74468 0.08833 0.0
H1524 H 0.6609 0.79994 0.09366 0.0
S1525 S 0.55968 0.75311 0.16214 0.0
N1526 N 0.58156 0.72661 0.14687 0.0
N1527 N 0.57514 0.78631 0.1523 0.0
C1528 C 0.59953 0.77701 0.13563 0.0
C1529 C 0.60295 0.74431 0.1327 0.0
C1530 C 0.79506 0.10315 0.63862 0.0
C1531 C 0.80263 0.12798 0.61973 0.0
C1532 C 0.7642 0.09594 0.64546 0.0
C1533 C 0.7391 0.11308 0.63377 0.0
H1534 H 0.8129 0.08808 0.64671 0.0
H1535 H 0.7601 0.0758 0.65932 0.0
S1536 S 0.74698 0.18326 0.58674 0.0
N1537 N 0.78259 0.17202 0.5922 0.0
N1538 N 0.72508 0.15817 0.60483 0.0
C1539 C 0.74659 0.1392 0.61656 0.0
C1540 C 0.77806 0.14662 0.60962 0.0
C1541 C 0.37445 0.23577 0.10672 0.0
C1542 C 0.39629 0.2222 0.1261 0.0
C1543 C 0.37229 0.268 0.10383 0.0
C1544 C 0.39182 0.28856 0.12013 0.0
H1545 H 0.35844 0.22142 0.09407 0.0
H1546 H 0.35465 0.27687 0.08886 0.0
S1547 S 0.45424 0.26524 0.17274 0.0
N1548 N 0.43896 0.23251 0.16102 0.0
N1549 N 0.43457 0.29239 0.15553 0.0
C1550 C 0.41421 0.27533 0.13901 0.0
C1551 C 0.41649 0.24251 0.14198 0.0
C1552 C 0.11114 0.37847 0.24882 0.0
C1553 C 0.12933 0.40121 0.23484 0.0
C1554 C 0.10953 0.37568 0.2811 0.0
C1555 C 0.12601 0.39544 0.30126 0.0
H1556 H 0.09848 0.36224 0.23476 0.0
H1557 H 0.0954 0.35741 0.29031 0.0
S1558 S 0.17535 0.46043 0.27677 0.0
N1559 N 0.16302 0.44515 0.24432 0.0
N1560 N 0.15996 0.43957 0.30429 0.0
C1561 C 0.14365 0.41874 0.28762 0.0
C1562 C 0.14529 0.42168 0.25476 0.0
C1563 C 0.09839 0.64536 0.76249 0.0
C1564 C 0.11265 0.63178 0.73663 0.0
C1565 C 0.10632 0.63778 0.79296 0.0
C1566 C 0.12899 0.61615 0.79932 0.0
H1567 H 0.07983 0.66131 0.75926 0.0
H1568 H 0.09333 0.64762 0.81153 0.0
S1569 S 0.17686 0.5772 0.74075 0.0
N1570 N 0.153 0.59799 0.72021 0.0
N1571 N 0.16839 0.58397 0.77691 0.0
C1572 C 0.14506 0.60411 0.77378 0.0
C1573 C 0.13689 0.61186 0.74273 0.0
C1574 C 0.87601 0.62572 0.24664 0.0
C1575 C 0.8978 0.62528 0.22266 0.0
C1576 C 0.88465 0.62867 0.27794 0.0
C1577 C 0.91567 0.63045 0.28693 0.0
H1578 H 0.85195 0.62266 0.24117 0.0
H1579 H 0.86692 0.62907 0.29515 0.0
S1580 S 0.9819 0.62703 0.23293 0.0
N1581 N 0.95156 0.62541 0.21034 0.0
N1582 N 0.9684 0.62983 0.268 0.0
C1583 C 0.93765 0.62969 0.26283 0.0
C1584 C 0.92865 0.6274 0.23117 0.0
C1585 C 0.90893 0.39617 0.76961 0.0
C1586 C 0.88418 0.41318 0.78083 0.0
C1587 C 0.91138 0.38891 0.73798 0.0
C1588 C 0.88944 0.39862 0.71601 0.0
H1589 H 0.92723 0.38964 0.78502 0.0
H1590 H 0.93124 0.37631 0.73057 0.0
S1591 S 0.81864 0.44103 0.73393 0.0
N1592 N 0.83592 0.43726 0.7674 0.0
N1593 N 0.84101 0.42425 0.70875 0.0
C1594 C 0.86412 0.41462 0.7272 0.0
C1595 C 0.8614 0.42165 0.75925 0.0
C1596 C 0.73065 0.86293 0.6187 0.0
C1597 C 0.71616 0.88189 0.64013 0.0
C1598 C 0.76298 0.86153 0.61699 0.0
C1599 C 0.78244 0.87844 0.63702 0.0
H1600 H 0.71704 0.85076 0.60173 0.0
H1601 H 0.77288 0.84797 0.59885 0.0
S1602 S 0.75593 0.92913 0.69937 0.0
N1603 N 0.72394 0.91641 0.68325 0.0
N1604 N 0.7842 0.91297 0.68048 0.0
C1605 C 0.76817 0.8958 0.65987 0.0
C1606 C 0.73527 0.89774 0.66124 0.0
C1607 C 0.64608 0.25511 0.16057 0.0
C1608 C 0.63931 0.23207 0.13855 0.0
C1609 C 0.64642 0.2866 0.15306 0.0
C1610 C 0.63928 0.29648 0.12332 0.0
H1611 H 0.65059 0.24867 0.1841 0.0
H1612 H 0.65307 0.30316 0.17039 0.0
S1613 S 0.61812 0.24606 0.05763 0.0
N1614 N 0.62423 0.22194 0.08606 0.0
N1615 N 0.62458 0.2806 0.07184 0.0
C1616 C 0.63213 0.27369 0.10124 0.0
C1617 C 0.63227 0.24174 0.1088 0.0
C1618 C 0.25929 0.15367 0.62925 0.0
C1619 C 0.24059 0.13384 0.64697 0.0
C1620 C 0.29164 0.15275 0.63045 0.0
C1621 C 0.30692 0.13146 0.64899 0.0
H1622 H 0.24875 0.16931 0.6132 0.0
H1623 H 0.30465 0.16735 0.61516 0.0
S1624 S 0.26925 0.07614 0.70187 0.0
N1625 N 0.24029 0.09397 0.68547 0.0
N1626 N 0.30068 0.09154 0.68734 0.0
C1627 C 0.28855 0.11261 0.66804 0.0
C1628 C 0.25559 0.11398 0.6672 0.0
C1629 C 0.36375 0.76593 0.16198 0.0
C1630 C 0.37182 0.78757 0.13912 0.0
C1631 C 0.36274 0.73406 0.15611 0.0
C1632 C 0.37052 0.72233 0.12727 0.0
H1633 H 0.35892 0.77376 0.18499 0.0
H1634 H 0.35534 0.71863 0.17407 0.0
S1635 S 0.39447 0.76847 0.05982 0.0
N1636 N 0.38843 0.7943 0.08671 0.0
N1637 N 0.38662 0.73494 0.07555 0.0
C1638 C 0.37861 0.74369 0.10427 0.0
C1639 C 0.37923 0.77604 0.11015 0.0
C1640 C 0.74084 0.13766 0.40724 0.0
C1641 C 0.7307 0.14171 0.377 0.0
C1642 C 0.77233 0.13842 0.41465 0.0
C1643 C 0.79529 0.14298 0.39221 0.0
H1644 H 0.72446 0.13267 0.42515 0.0
H1645 H 0.77885 0.13567 0.43845 0.0
S1646 S 0.78087 0.1567 0.30985 0.0
N1647 N 0.74636 0.15163 0.32445 0.0
N1648 N 0.80518 0.15327 0.33872 0.0
C1649 C 0.78548 0.14748 0.362 0.0
C1650 C 0.7534 0.14687 0.3544 0.0
C1651 C 0.40711 0.26936 0.85931 0.0
C1652 C 0.38429 0.28358 0.87672 0.0
C1653 C 0.40977 0.23707 0.85848 0.0
C1654 C 0.38938 0.21738 0.87445 0.0
H1655 H 0.42434 0.28324 0.84799 0.0
H1656 H 0.42886 0.22745 0.84616 0.0
S1657 S 0.32362 0.24304 0.92086 0.0
N1658 N 0.33959 0.27523 0.90869 0.0
N1659 N 0.34411 0.21503 0.90627 0.0
C1660 C 0.36523 0.2313 0.89018 0.0
C1661 C 0.36288 0.26417 0.89156 0.0
C1662 C 0.24226 0.87062 0.4111 0.0
C1663 C 0.21866 0.86794 0.38875 0.0
C1664 C 0.27352 0.8723 0.40327 0.0
C1665 C 0.28284 0.8712 0.37261 0.0
H1666 H 0.23643 0.87144 0.43517 0.0
H1667 H 0.29034 0.87577 0.42129 0.0
S1668 S 0.23083 0.86196 0.30523 0.0
N1669 N 0.2073 0.86261 0.33472 0.0
N1670 N 0.26572 0.86584 0.31963 0.0
C1671 C 0.25952 0.86782 0.35002 0.0
C1672 C 0.22764 0.86629 0.35809 0.0
C1673 C 0.62441 0.75298 0.85529 0.0
C1674 C 0.64622 0.73866 0.87409 0.0
C1675 C 0.62129 0.78522 0.85508 0.0
C1676 C 0.64022 0.80478 0.87309 0.0
H1677 H 0.60819 0.73915 0.84233 0.0
H1678 H 0.6029 0.79486 0.84156 0.0
S1679 S 0.70302 0.779 0.92392 0.0
N1680 N 0.68852 0.74688 0.90969 0.0
N1681 N 0.68312 0.80704 0.90846 0.0
C1682 C 0.66347 0.79085 0.8903 0.0
C1683 C 0.66628 0.75801 0.89103 0.0
C1684 C 0.86257 0.62138 0.76841 0.0
C1685 C 0.87974 0.64193 0.78708 0.0
C1686 C 0.86273 0.62313 0.73606 0.0
C1687 C 0.8806 0.64519 0.72075 0.0
H1688 H 0.84977 0.60282 0.7789 0.0
H1689 H 0.85053 0.60574 0.72302 0.0
S1690 S 0.92766 0.70611 0.75832 0.0
N1691 N 0.91311 0.68663 0.7873 0.0
N1692 N 0.9142 0.68954 0.72692 0.0
C1693 C 0.89659 0.66686 0.73911 0.0
C1694 C 0.89594 0.6654 0.77206 0.0
C1695 C 0.85664 0.35896 0.26231 0.0
C1696 C 0.87453 0.37833 0.28133 0.0
C1697 C 0.85579 0.36269 0.23016 0.0
C1698 C 0.87405 0.38489 0.21531 0.0
H1699 H 0.84348 0.34042 0.2724 0.0
H1700 H 0.84018 0.34849 0.21684 0.0
S1701 S 0.9261 0.44047 0.25419 0.0
N1702 N 0.91162 0.42002 0.28253 0.0
N1703 N 0.91039 0.42672 0.22246 0.0
C1704 C 0.89237 0.40404 0.23404 0.0
C1705 C 0.89264 0.40076 0.26679 0.0
C1706 C 0.15363 0.36006 0.79033 0.0
C1707 C 0.14688 0.38957 0.80091 0.0
C1708 C 0.15372 0.35331 0.75867 0.0
C1709 C 0.14757 0.3758 0.73608 0.0
H1710 H 0.15961 0.34229 0.80651 0.0
H1711 H 0.15811 0.32994 0.75176 0.0
S1712 S 0.12819 0.45662 0.75204 0.0
N1713 N 0.13386 0.44156 0.78626 0.0
N1714 N 0.13386 0.4287 0.72723 0.0
C1715 C 0.14106 0.40541 0.74647 0.0
C1716 C 0.14072 0.41225 0.77864 0.0
C1717 C 0.1188 0.65233 0.28189 0.0
C1718 C 0.13724 0.63318 0.30041 0.0
C1719 C 0.12057 0.65227 0.24954 0.0
C1720 C 0.14046 0.63252 0.23407 0.0
H1721 H 0.1018 0.66673 0.2925 0.0
H1722 H 0.10478 0.66624 0.23661 0.0
S1723 S 0.19545 0.57953 0.2713 0.0
N1724 N 0.17771 0.59566 0.30038 0.0
N1725 N 0.18066 0.5948 0.24002 0.0
C1726 C 0.16012 0.61439 0.25232 0.0
C1727 C 0.15868 0.61492 0.28528 0.0
loop_
_geom_bond_atom_site_label_1
_geom_bond_atom_site_label_2
_geom_bond_distance
_geom_bond_site_symmetry_2
_ccdc_geom_bond_type
Co0 O1 2.216 . S
Co0 O2 2.091 . S
Co0 O4 2.004 . S
Co0 O10 2.021 . S
Co0 O12 2.137 . S
Co0 O13 2.244 . S
O1 Co0 2.216 . S
O1 C8 1.247 . S
O2 Co0 2.091 . S
O2 C8 1.261 . S
C3 O12 1.247 . S
C3 O13 1.272 . S
O4 Co0 2.004 . S
O4 C9 1.259 . S
Co5 O6 2.061 . S
Co5 O11 2.052 . S
Co5 O13 2.135 . S
O6 Co5 2.061 . S
O6 C9 1.235 . S
C7 O10 1.238 . S
C7 O11 1.241 . S
C8 O1 1.247 . S
C8 O2 1.261 . S
C9 O4 1.259 . S
C9 O6 1.235 . S
O10 Co0 2.021 . S
O10 C7 1.238 . S
O11 Co5 2.052 . S
O11 C7 1.241 . S
O12 Co0 2.137 . S
O12 C3 1.247 . S
O13 Co0 2.244 . S
O13 C3 1.272 . S
O13 Co5 2.135 . S
Co14 O15 2.216 . S
Co14 O16 2.091 . S
Co14 O18 2.004 . S
Co14 O24 2.021 . S
Co14 O26 2.137 . S
Co14 O27 2.244 . S
O15 Co14 2.216 . S
O15 C22 1.247 . S
O16 Co14 2.091 . S
O16 C22 1.261 . S
C17 O26 1.247 . S
C17 O27 1.272 . S
O18 Co14 2.004 . S
O18 C23 1.259 . S
Co19 O20 2.061 . S
Co19 O25 2.052 . S
Co19 O27 2.135 . S
O20 Co19 2.061 . S
O20 C23 1.235 . S
C21 O24 1.238 . S
C21 O25 1.241 . S
C22 O15 1.247 . S
C22 O16 1.261 . S
C23 O18 1.259 . S
C23 O20 1.235 . S
O24 Co14 2.021 . S
O24 C21 1.238 . S
O25 Co19 2.052 . S
O25 C21 1.241 . S
O26 Co14 2.137 . S
O26 C17 1.247 . S
O27 Co14 2.244 . S
O27 C17 1.272 . S
O27 Co19 2.135 . S
Co28 O29 2.216 . S
Co28 O30 2.091 . S
Co28 O32 2.004 . S
Co28 O38 2.021 . S
Co28 O40 2.137 . S
Co28 O41 2.244 . S
O29 Co28 2.216 . S
O29 C36 1.247 . S
O30 Co28 2.091 . S
O30 C36 1.261 . S
C31 O40 1.247 . S
C31 O41 1.272 . S
O32 Co28 2.004 . S
O32 C37 1.259 . S
Co33 O34 2.061 . S
Co33 O39 2.052 . S
Co33 O41 2.135 . S
O34 Co33 2.061 . S
O34 C37 1.235 . S
C35 O38 1.238 . S
C35 O39 1.241 . S
C36 O29 1.247 . S
C36 O30 1.261 . S
C37 O32 1.259 . S
C37 O34 1.235 . S
O38 Co28 2.021 . S
O38 C35 1.238 . S
O39 Co33 2.052 . S
O39 C35 1.241 . S
O40 Co28 2.137 . S
O40 C31 1.247 . S
O41 Co28 2.244 . S
O41 C31 1.272 . S
O41 Co33 2.135 . S
Co42 O43 2.216 . S
Co42 O44 2.091 . S
Co42 O46 2.004 . S
Co42 O52 2.021 . S
Co42 O54 2.137 . S
Co42 O55 2.244 . S
O43 Co42 2.216 . S
O43 C50 1.247 . S
O44 Co42 2.091 . S
O44 C50 1.261 . S
C45 O54 1.247 . S
C45 O55 1.272 . S
O46 Co42 2.004 . S
O46 C51 1.259 . S
Co47 O48 2.061 . S
Co47 O53 2.052 . S
Co47 O55 2.135 . S
O48 Co47 2.061 . S
O48 C51 1.235 . S
C49 O52 1.238 . S
C49 O53 1.241 . S
C50 O43 1.247 . S
C50 O44 1.261 . S
C51 O46 1.259 . S
C51 O48 1.235 . S
O52 Co42 2.021 . S
O52 C49 1.238 . S
O53 Co47 2.052 . S
O53 C49 1.241 . S
O54 Co42 2.137 . S
O54 C45 1.247 . S
O55 Co42 2.244 . S
O55 C45 1.272 . S
O55 Co47 2.135 . S
Co56 O57 2.216 . S
Co56 O58 2.091 . S
Co56 O60 2.004 . S
Co56 O66 2.021 . S
Co56 O68 2.137 . S
Co56 O69 2.244 . S
O57 Co56 2.216 . S
O57 C64 1.247 . S
O58 Co56 2.091 . S
O58 C64 1.261 . S
C59 O68 1.247 . S
C59 O69 1.272 . S
O60 Co56 2.004 . S
O60 C65 1.259 . S
Co61 O62 2.061 . S
Co61 O67 2.052 . S
Co61 O69 2.135 . S
O62 Co61 2.061 . S
O62 C65 1.235 . S
C63 O66 1.238 . S
C63 O67 1.241 . S
C64 O57 1.247 . S
C64 O58 1.261 . S
C65 O60 1.259 . S
C65 O62 1.235 . S
O66 Co56 2.021 . S
O66 C63 1.238 . S
O67 Co61 2.052 . S
O67 C63 1.241 . S
O68 Co56 2.137 . S
O68 C59 1.247 . S
O69 Co56 2.244 . S
O69 C59 1.272 . S
O69 Co61 2.135 . S
Co70 O71 2.216 . S
Co70 O72 2.091 . S
Co70 O74 2.004 . S
Co70 O80 2.021 . S
Co70 O82 2.137 . S
Co70 O83 2.244 . S
O71 Co70 2.216 . S
O71 C78 1.247 . S
O72 Co70 2.091 . S
O72 C78 1.261 . S
C73 O82 1.247 . S
C73 O83 1.272 . S
O74 Co70 2.004 . S
O74 C79 1.259 . S
Co75 O76 2.061 . S
Co75 O81 2.052 . S
Co75 O83 2.135 . S
O76 Co75 2.061 . S
O76 C79 1.235 . S
C77 O80 1.238 . S
C77 O81 1.241 . S
C78 O71 1.247 . S
C78 O72 1.261 . S
C79 O74 1.259 . S
C79 O76 1.235 . S
O80 Co70 2.021 . S
O80 C77 1.238 . S
O81 Co75 2.052 . S
O81 C77 1.241 . S
O82 Co70 2.137 . S
O82 C73 1.247 . S
O83 Co70 2.244 . S
O83 C73 1.272 . S
O83 Co75 2.135 . S
Co84 O85 2.216 . S
Co84 O86 2.091 . S
Co84 O88 2.004 . S
Co84 O94 2.021 . S
Co84 O96 2.137 . S
Co84 O97 2.244 . S
O85 Co84 2.216 . S
O85 C92 1.247 . S
O86 Co84 2.091 . S
O86 C92 1.261 . S
C87 O96 1.247 . S
C87 O97 1.272 . S
O88 Co84 2.004 . S
O88 C93 1.259 . S
Co89 O90 2.061 . S
Co89 O95 2.052 . S
Co89 O97 2.135 . S
O90 Co89 2.061 . S
O90 C93 1.235 . S
C91 O94 1.238 . S
C91 O95 1.241 . S
C92 O85 1.247 . S
C92 O86 1.261 . S
C93 O88 1.259 . S
C93 O90 1.235 . S
O94 Co84 2.021 . S
O94 C91 1.238 . S
O95 Co89 2.052 . S
O95 C91 1.241 . S
O96 Co84 2.137 . S
O96 C87 1.247 . S
O97 Co84 2.244 . S
O97 C87 1.272 . S
O97 Co89 2.135 . S
Co98 O99 2.216 . S
Co98 O100 2.091 . S
Co98 O102 2.004 . S
Co98 O108 2.021 . S
Co98 O110 2.137 . S
Co98 O111 2.244 . S
O99 Co98 2.216 . S
O99 C106 1.247 . S
O100 Co98 2.091 . S
O100 C106 1.261 . S
C101 O110 1.247 . S
C101 O111 1.272 . S
O102 Co98 2.004 . S
O102 C107 1.259 . S
Co103 O104 2.061 . S
Co103 O109 2.052 . S
Co103 O111 2.135 . S
O104 Co103 2.061 . S
O104 C107 1.235 . S
C105 O108 1.238 . S
C105 O109 1.241 . S
C106 O99 1.247 . S
C106 O100 1.261 . S
C107 O102 1.259 . S
C107 O104 1.235 . S
O108 Co98 2.021 . S
O108 C105 1.238 . S
O109 Co103 2.052 . S
O109 C105 1.241 . S
O110 Co98 2.137 . S
O110 C101 1.247 . S
O111 Co98 2.244 . S
O111 C101 1.272 . S
O111 Co103 2.135 . S
Co112 O113 2.216 . S
Co112 O114 2.091 . S
Co112 O116 2.004 . S
Co112 O122 2.021 . S
Co112 O124 2.137 . S
Co112 O125 2.244 . S
O113 Co112 2.216 . S
O113 C120 1.247 . S
O114 Co112 2.091 . S
O114 C120 1.261 . S
C115 O124 1.247 . S
C115 O125 1.272 . S
O116 Co112 2.004 . S
O116 C121 1.259 . S
Co117 O118 2.061 . S
Co117 O123 2.052 . S
Co117 O125 2.135 . S
O118 Co117 2.061 . S
O118 C121 1.235 . S
C119 O122 1.238 . S
C119 O123 1.241 . S
C120 O113 1.247 . S
C120 O114 1.261 . S
C121 O116 1.259 . S
C121 O118 1.235 . S
O122 Co112 2.021 . S
O122 C119 1.238 . S
O123 Co117 2.052 . S
O123 C119 1.241 . S
O124 Co112 2.137 . S
O124 C115 1.247 . S
O125 Co112 2.244 . S
O125 C115 1.272 . S
O125 Co117 2.135 . S
Co126 O127 2.216 . S
Co126 O128 2.091 . S
Co126 O130 2.004 . S
Co126 O136 2.021 . S
Co126 O138 2.137 . S
Co126 O139 2.244 . S
O127 Co126 2.216 . S
O127 C134 1.247 . S
O128 Co126 2.091 . S
O128 C134 1.261 . S
C129 O138 1.247 . S
C129 O139 1.272 . S
O130 Co126 2.004 . S
O130 C135 1.259 . S
Co131 O132 2.061 . S
Co131 O137 2.052 . S
Co131 O139 2.135 . S
O132 Co131 2.061 . S
O132 C135 1.235 . S
C133 O136 1.238 . S
C133 O137 1.241 . S
C134 O127 1.247 . S
C134 O128 1.261 . S
C135 O130 1.259 . S
C135 O132 1.235 . S
O136 Co126 2.021 . S
O136 C133 1.238 . S
O137 Co131 2.052 . S
O137 C133 1.241 . S
O138 Co126 2.137 . S
O138 C129 1.247 . S
O139 Co126 2.244 . S
O139 C129 1.272 . S
O139 Co131 2.135 . S
Co140 O141 2.216 . S
Co140 O142 2.091 . S
Co140 O144 2.004 . S
Co140 O150 2.021 . S
Co140 O152 2.137 . S
Co140 O153 2.244 . S
O141 Co140 2.216 . S
O141 C148 1.247 . S
O142 Co140 2.091 . S
O142 C148 1.261 . S
C143 O152 1.247 . S
C143 O153 1.272 . S
O144 Co140 2.004 . S
O144 C149 1.259 . S
Co145 O146 2.061 . S
Co145 O151 2.052 . S
Co145 O153 2.135 . S
O146 Co145 2.061 . S
O146 C149 1.235 . S
C147 O150 1.238 . S
C147 O151 1.241 . S
C148 O141 1.247 . S
C148 O142 1.261 . S
C149 O144 1.259 . S
C149 O146 1.235 . S
O150 Co140 2.021 . S
O150 C147 1.238 . S
O151 Co145 2.052 . S
O151 C147 1.241 . S
O152 Co140 2.137 . S
O152 C143 1.247 . S
O153 Co140 2.244 . S
O153 C143 1.272 . S
O153 Co145 2.135 . S
Co154 O155 2.216 . S
Co154 O156 2.091 . S
Co154 O158 2.004 . S
Co154 O164 2.021 . S
Co154 O166 2.137 . S
Co154 O167 2.244 . S
O155 Co154 2.216 . S
O155 C162 1.247 . S
O156 Co154 2.091 . S
O156 C162 1.261 . S
C157 O166 1.247 . S
C157 O167 1.272 . S
O158 Co154 2.004 . S
O158 C163 1.259 . S
Co159 O160 2.061 . S
Co159 O165 2.052 . S
Co159 O167 2.135 . S
O160 Co159 2.061 . S
O160 C163 1.235 . S
C161 O164 1.238 . S
C161 O165 1.241 . S
C162 O155 1.247 . S
C162 O156 1.261 . S
C163 O158 1.259 . S
C163 O160 1.235 . S
O164 Co154 2.021 . S
O164 C161 1.238 . S
O165 Co159 2.052 . S
O165 C161 1.241 . S
O166 Co154 2.137 . S
O166 C157 1.247 . S
O167 Co154 2.244 . S
O167 C157 1.272 . S
O167 Co159 2.135 . S
Co168 O169 2.216 . S
Co168 O170 2.091 . S
Co168 O172 2.004 . S
Co168 O178 2.021 . S
Co168 O180 2.137 . S
Co168 O181 2.244 . S
O169 Co168 2.216 . S
O169 C176 1.247 . S
O170 Co168 2.091 . S
O170 C176 1.261 . S
C171 O180 1.247 . S
C171 O181 1.272 . S
O172 Co168 2.004 . S
O172 C177 1.259 . S
Co173 O174 2.061 . S
Co173 O179 2.052 . S
Co173 O181 2.135 . S
O174 Co173 2.061 . S
O174 C177 1.235 . S
C175 O178 1.238 . S
C175 O179 1.241 . S
C176 O169 1.247 . S
C176 O170 1.261 . S
C177 O172 1.259 . S
C177 O174 1.235 . S
O178 Co168 2.021 . S
O178 C175 1.238 . S
O179 Co173 2.052 . S
O179 C175 1.241 . S
O180 Co168 2.137 . S
O180 C171 1.247 . S
O181 Co168 2.244 . S
O181 C171 1.272 . S
O181 Co173 2.135 . S
Co182 O183 2.216 . S
Co182 O184 2.091 . S
Co182 O186 2.004 . S
Co182 O192 2.021 . S
Co182 O194 2.137 . S
Co182 O195 2.244 . S
O183 Co182 2.216 . S
O183 C190 1.247 . S
O184 Co182 2.091 . S
O184 C190 1.261 . S
C185 O194 1.247 . S
C185 O195 1.272 . S
O186 Co182 2.004 . S
O186 C191 1.259 . S
Co187 O188 2.061 . S
Co187 O193 2.052 . S
Co187 O195 2.135 . S
O188 Co187 2.061 . S
O188 C191 1.235 . S
C189 O192 1.238 . S
C189 O193 1.241 . S
C190 O183 1.247 . S
C190 O184 1.261 . S
C191 O186 1.259 . S
C191 O188 1.235 . S
O192 Co182 2.021 . S
O192 C189 1.238 . S
O193 Co187 2.052 . S
O193 C189 1.241 . S
O194 Co182 2.137 . S
O194 C185 1.247 . S
O195 Co182 2.244 . S
O195 C185 1.272 . S
O195 Co187 2.135 . S
Co196 O197 2.216 . S
Co196 O198 2.091 . S
Co196 O200 2.004 . S
Co196 O206 2.021 . S
Co196 O208 2.137 . S
Co196 O209 2.244 . S
O197 Co196 2.216 . S
O197 C204 1.247 . S
O198 Co196 2.091 . S
O198 C204 1.261 . S
C199 O208 1.247 . S
C199 O209 1.272 . S
O200 Co196 2.004 . S
O200 C205 1.259 . S
Co201 O202 2.061 . S
Co201 O207 2.052 . S
Co201 O209 2.135 . S
O202 Co201 2.061 . S
O202 C205 1.235 . S
C203 O206 1.238 . S
C203 O207 1.241 . S
C204 O197 1.247 . S
C204 O198 1.261 . S
C205 O200 1.259 . S
C205 O202 1.235 . S
O206 Co196 2.021 . S
O206 C203 1.238 . S
O207 Co201 2.052 . S
O207 C203 1.241 . S
O208 Co196 2.137 . S
O208 C199 1.247 . S
O209 Co196 2.244 . S
O209 C199 1.272 . S
O209 Co201 2.135 . S
Co210 O211 2.216 . S
Co210 O212 2.091 . S
Co210 O214 2.004 . S
Co210 O220 2.021 . S
Co210 O222 2.137 . S
Co210 O223 2.244 . S
O211 Co210 2.216 . S
O211 C218 1.247 . S
O212 Co210 2.091 . S
O212 C218 1.261 . S
C213 O222 1.247 . S
C213 O223 1.272 . S
O214 Co210 2.004 . S
O214 C219 1.259 . S
Co215 O216 2.061 . S
Co215 O221 2.052 . S
Co215 O223 2.135 . S
O216 Co215 2.061 . S
O216 C219 1.235 . S
C217 O220 1.238 . S
C217 O221 1.241 . S
C218 O211 1.247 . S
C218 O212 1.261 . S
C219 O214 1.259 . S
C219 O216 1.235 . S
O220 Co210 2.021 . S
O220 C217 1.238 . S
O221 Co215 2.052 . S
O221 C217 1.241 . S
O222 Co210 2.137 . S
O222 C213 1.247 . S
O223 Co210 2.244 . S
O223 C213 1.272 . S
O223 Co215 2.135 . S
Co224 O225 2.216 . S
Co224 O226 2.091 . S
Co224 O228 2.004 . S
Co224 O234 2.021 . S
Co224 O236 2.137 . S
Co224 O237 2.244 . S
O225 Co224 2.216 . S
O225 C232 1.247 . S
O226 Co224 2.091 . S
O226 C232 1.261 . S
C227 O236 1.247 . S
C227 O237 1.272 . S
O228 Co224 2.004 . S
O228 C233 1.259 . S
Co229 O230 2.061 . S
Co229 O235 2.052 . S
Co229 O237 2.135 . S
O230 Co229 2.061 . S
O230 C233 1.235 . S
C231 O234 1.238 . S
C231 O235 1.241 . S
C232 O225 1.247 . S
C232 O226 1.261 . S
C233 O228 1.259 . S
C233 O230 1.235 . S
O234 Co224 2.021 . S
O234 C231 1.238 . S
O235 Co229 2.052 . S
O235 C231 1.241 . S
O236 Co224 2.137 . S
O236 C227 1.247 . S
O237 Co224 2.244 . S
O237 C227 1.272 . S
O237 Co229 2.135 . S
Co238 O239 2.216 . S
Co238 O240 2.091 . S
Co238 O242 2.004 . S
Co238 O248 2.021 . S
Co238 O250 2.137 . S
Co238 O251 2.244 . S
O239 Co238 2.216 . S
O239 C246 1.247 . S
O240 Co238 2.091 . S
O240 C246 1.261 . S
C241 O250 1.247 . S
C241 O251 1.272 . S
O242 Co238 2.004 . S
O242 C247 1.259 . S
Co243 O244 2.061 . S
Co243 O249 2.052 . S
Co243 O251 2.135 . S
O244 Co243 2.061 . S
O244 C247 1.235 . S
C245 O248 1.238 . S
C245 O249 1.241 . S
C246 O239 1.247 . S
C246 O240 1.261 . S
C247 O242 1.259 . S
C247 O244 1.235 . S
O248 Co238 2.021 . S
O248 C245 1.238 . S
O249 Co243 2.052 . S
O249 C245 1.241 . S
O250 Co238 2.137 . S
O250 C241 1.247 . S
O251 Co238 2.244 . S
O251 C241 1.272 . S
O251 Co243 2.135 . S
Co252 O253 2.216 . S
Co252 O254 2.091 . S
Co252 O256 2.004 . S
Co252 O262 2.021 . S
Co252 O264 2.137 . S
Co252 O265 2.244 . S
O253 Co252 2.216 . S
O253 C260 1.247 . S
O254 Co252 2.091 . S
O254 C260 1.261 . S
C255 O264 1.247 . S
C255 O265 1.272 . S
O256 Co252 2.004 . S
O256 C261 1.259 . S
Co257 O258 2.061 . S
Co257 O263 2.052 . S
Co257 O265 2.135 . S
O258 Co257 2.061 . S
O258 C261 1.235 . S
C259 O262 1.238 . S
C259 O263 1.241 . S
C260 O253 1.247 . S
C260 O254 1.261 . S
C261 O256 1.259 . S
C261 O258 1.235 . S
O262 Co252 2.021 . S
O262 C259 1.238 . S
O263 Co257 2.052 . S
O263 C259 1.241 . S
O264 Co252 2.137 . S
O264 C255 1.247 . S
O265 Co252 2.244 . S
O265 C255 1.272 . S
O265 Co257 2.135 . S
Co266 O267 2.216 . S
Co266 O268 2.091 . S
Co266 O270 2.004 . S
Co266 O276 2.021 . S
Co266 O278 2.137 . S
Co266 O279 2.244 . S
O267 Co266 2.216 . S
O267 C274 1.247 . S
O268 Co266 2.091 . S
O268 C274 1.261 . S
C269 O278 1.247 . S
C269 O279 1.272 . S
O270 Co266 2.004 . S
O270 C275 1.259 . S
Co271 O272 2.061 . S
Co271 O277 2.052 . S
Co271 O279 2.135 . S
O272 Co271 2.061 . S
O272 C275 1.235 . S
C273 O276 1.238 . S
C273 O277 1.241 . S
C274 O267 1.247 . S
C274 O268 1.261 . S
C275 O270 1.259 . S
C275 O272 1.235 . S
O276 Co266 2.021 . S
O276 C273 1.238 . S
O277 Co271 2.052 . S
O277 C273 1.241 . S
O278 Co266 2.137 . S
O278 C269 1.247 . S
O279 Co266 2.244 . S
O279 C269 1.272 . S
O279 Co271 2.135 . S
Co280 O281 2.216 . S
Co280 O282 2.091 . S
Co280 O284 2.004 . S
Co280 O290 2.021 . S
Co280 O292 2.137 . S
Co280 O293 2.244 . S
O281 Co280 2.216 . S
O281 C288 1.247 . S
O282 Co280 2.091 . S
O282 C288 1.261 . S
C283 O292 1.247 . S
C283 O293 1.272 . S
O284 Co280 2.004 . S
O284 C289 1.259 . S
Co285 O286 2.061 . S
Co285 O291 2.052 . S
Co285 O293 2.135 . S
O286 Co285 2.061 . S
O286 C289 1.235 . S
C287 O290 1.238 . S
C287 O291 1.241 . S
C288 O281 1.247 . S
C288 O282 1.261 . S
C289 O284 1.259 . S
C289 O286 1.235 . S
O290 Co280 2.021 . S
O290 C287 1.238 . S
O291 Co285 2.052 . S
O291 C287 1.241 . S
O292 Co280 2.137 . S
O292 C283 1.247 . S
O293 Co280 2.244 . S
O293 C283 1.272 . S
O293 Co285 2.135 . S
Co294 O295 2.216 . S
Co294 O296 2.091 . S
Co294 O298 2.004 . S
Co294 O304 2.021 . S
Co294 O306 2.137 . S
Co294 O307 2.244 . S
O295 Co294 2.216 . S
O295 C302 1.247 . S
O296 Co294 2.091 . S
O296 C302 1.261 . S
C297 O306 1.247 . S
C297 O307 1.272 . S
O298 Co294 2.004 . S
O298 C303 1.259 . S
Co299 O300 2.061 . S
Co299 O305 2.052 . S
Co299 O307 2.135 . S
O300 Co299 2.061 . S
O300 C303 1.235 . S
C301 O304 1.238 . S
C301 O305 1.241 . S
C302 O295 1.247 . S
C302 O296 1.261 . S
C303 O298 1.259 . S
C303 O300 1.235 . S
O304 Co294 2.021 . S
O304 C301 1.238 . S
O305 Co299 2.052 . S
O305 C301 1.241 . S
O306 Co294 2.137 . S
O306 C297 1.247 . S
O307 Co294 2.244 . S
O307 C297 1.272 . S
O307 Co299 2.135 . S
Co308 O309 2.216 . S
Co308 O310 2.091 . S
Co308 O312 2.004 . S
Co308 O318 2.021 . S
Co308 O320 2.137 . S
Co308 O321 2.244 . S
O309 Co308 2.216 . S
O309 C316 1.247 . S
O310 Co308 2.091 . S
O310 C316 1.261 . S
C311 O320 1.247 . S
C311 O321 1.272 . S
O312 Co308 2.004 . S
O312 C317 1.259 . S
Co313 O314 2.061 . S
Co313 O319 2.052 . S
Co313 O321 2.135 . S
O314 Co313 2.061 . S
O314 C317 1.235 . S
C315 O318 1.238 . S
C315 O319 1.241 . S
C316 O309 1.247 . S
C316 O310 1.261 . S
C317 O312 1.259 . S
C317 O314 1.235 . S
O318 Co308 2.021 . S
O318 C315 1.238 . S
O319 Co313 2.052 . S
O319 C315 1.241 . S
O320 Co308 2.137 . S
O320 C311 1.247 . S
O321 Co308 2.244 . S
O321 C311 1.272 . S
O321 Co313 2.135 . S
Co322 O323 2.216 . S
Co322 O324 2.091 . S
Co322 O326 2.004 . S
Co322 O332 2.021 . S
Co322 O334 2.137 . S
Co322 O335 2.244 . S
O323 Co322 2.216 . S
O323 C330 1.247 . S
O324 Co322 2.091 . S
O324 C330 1.261 . S
C325 O334 1.247 . S
C325 O335 1.272 . S
O326 Co322 2.004 . S
O326 C331 1.259 . S
Co327 O328 2.061 . S
Co327 O333 2.052 . S
Co327 O335 2.135 . S
O328 Co327 2.061 . S
O328 C331 1.235 . S
C329 O332 1.238 . S
C329 O333 1.241 . S
C330 O323 1.247 . S
C330 O324 1.261 . S
C331 O326 1.259 . S
C331 O328 1.235 . S
O332 Co322 2.021 . S
O332 C329 1.238 . S
O333 Co327 2.052 . S
O333 C329 1.241 . S
O334 Co322 2.137 . S
O334 C325 1.247 . S
O335 Co322 2.244 . S
O335 C325 1.272 . S
O335 Co327 2.135 . S
Co336 O337 2.216 . S
Co336 O338 2.091 . S
Co336 O340 2.004 . S
Co336 O346 2.021 . S
Co336 O348 2.137 . S
Co336 O349 2.244 . S
O337 Co336 2.216 . S
O337 C344 1.247 . S
O338 Co336 2.091 . S
O338 C344 1.261 . S
C339 O348 1.247 . S
C339 O349 1.272 . S
O340 Co336 2.004 . S
O340 C345 1.259 . S
Co341 O342 2.061 . S
Co341 O347 2.052 . S
Co341 O349 2.135 . S
O342 Co341 2.061 . S
O342 C345 1.235 . S
C343 O346 1.238 . S
C343 O347 1.241 . S
C344 O337 1.247 . S
C344 O338 1.261 . S
C345 O340 1.259 . S
C345 O342 1.235 . S
O346 Co336 2.021 . S
O346 C343 1.238 . S
O347 Co341 2.052 . S
O347 C343 1.241 . S
O348 Co336 2.137 . S
O348 C339 1.247 . S
O349 Co336 2.244 . S
O349 C339 1.272 . S
O349 Co341 2.135 . S
Co350 O351 2.216 . S
Co350 O352 2.091 . S
Co350 O354 2.004 . S
Co350 O360 2.021 . S
Co350 O362 2.137 . S
Co350 O363 2.244 . S
O351 Co350 2.216 . S
O351 C358 1.247 . S
O352 Co350 2.091 . S
O352 C358 1.261 . S
C353 O362 1.247 . S
C353 O363 1.272 . S
O354 Co350 2.004 . S
O354 C359 1.259 . S
Co355 O356 2.061 . S
Co355 O361 2.052 . S
Co355 O363 2.135 . S
O356 Co355 2.061 . S
O356 C359 1.235 . S
C357 O360 1.238 . S
C357 O361 1.241 . S
C358 O351 1.247 . S
C358 O352 1.261 . S
C359 O354 1.259 . S
C359 O356 1.235 . S
O360 Co350 2.021 . S
O360 C357 1.238 . S
O361 Co355 2.052 . S
O361 C357 1.241 . S
O362 Co350 2.137 . S
O362 C353 1.247 . S
O363 Co350 2.244 . S
O363 C353 1.272 . S
O363 Co355 2.135 . S
Co364 O365 2.216 . S
Co364 O366 2.091 . S
Co364 O368 2.004 . S
Co364 O374 2.021 . S
Co364 O376 2.137 . S
Co364 O377 2.244 . S
O365 Co364 2.216 . S
O365 C372 1.247 . S
O366 Co364 2.091 . S
O366 C372 1.261 . S
C367 O376 1.247 . S
C367 O377 1.272 . S
O368 Co364 2.004 . S
O368 C373 1.259 . S
Co369 O370 2.061 . S
Co369 O375 2.052 . S
Co369 O377 2.135 . S
O370 Co369 2.061 . S
O370 C373 1.235 . S
C371 O374 1.238 . S
C371 O375 1.241 . S
C372 O365 1.247 . S
C372 O366 1.261 . S
C373 O368 1.259 . S
C373 O370 1.235 . S
O374 Co364 2.021 . S
O374 C371 1.238 . S
O375 Co369 2.052 . S
O375 C371 1.241 . S
O376 Co364 2.137 . S
O376 C367 1.247 . S
O377 Co364 2.244 . S
O377 C367 1.272 . S
O377 Co369 2.135 . S
Co378 O379 2.216 . S
Co378 O380 2.091 . S
Co378 O382 2.004 . S
Co378 O388 2.021 . S
Co378 O390 2.137 . S
Co378 O391 2.244 . S
O379 Co378 2.216 . S
O379 C386 1.247 . S
O380 Co378 2.091 . S
O380 C386 1.261 . S
C381 O390 1.247 . S
C381 O391 1.272 . S
O382 Co378 2.004 . S
O382 C387 1.259 . S
Co383 O384 2.061 . S
Co383 O389 2.052 . S
Co383 O391 2.135 . S
O384 Co383 2.061 . S
O384 C387 1.235 . S
C385 O388 1.238 . S
C385 O389 1.241 . S
C386 O379 1.247 . S
C386 O380 1.261 . S
C387 O382 1.259 . S
C387 O384 1.235 . S
O388 Co378 2.021 . S
O388 C385 1.238 . S
O389 Co383 2.052 . S
O389 C385 1.241 . S
O390 Co378 2.137 . S
O390 C381 1.247 . S
O391 Co378 2.244 . S
O391 C381 1.272 . S
O391 Co383 2.135 . S
Co392 O393 2.216 . S
Co392 O394 2.091 . S
Co392 O396 2.004 . S
Co392 O402 2.021 . S
Co392 O404 2.137 . S
Co392 O405 2.244 . S
O393 Co392 2.216 . S
O393 C400 1.247 . S
O394 Co392 2.091 . S
O394 C400 1.261 . S
C395 O404 1.247 . S
C395 O405 1.272 . S
O396 Co392 2.004 . S
O396 C401 1.259 . S
Co397 O398 2.061 . S
Co397 O403 2.052 . S
Co397 O405 2.135 . S
O398 Co397 2.061 . S
O398 C401 1.235 . S
C399 O402 1.238 . S
C399 O403 1.241 . S
C400 O393 1.247 . S
C400 O394 1.261 . S
C401 O396 1.259 . S
C401 O398 1.235 . S
O402 Co392 2.021 . S
O402 C399 1.238 . S
O403 Co397 2.052 . S
O403 C399 1.241 . S
O404 Co392 2.137 . S
O404 C395 1.247 . S
O405 Co392 2.244 . S
O405 C395 1.272 . S
O405 Co397 2.135 . S
Co406 O407 2.216 . S
Co406 O408 2.091 . S
Co406 O410 2.004 . S
Co406 O416 2.021 . S
Co406 O418 2.137 . S
Co406 O419 2.244 . S
O407 Co406 2.216 . S
O407 C414 1.247 . S
O408 Co406 2.091 . S
O408 C414 1.261 . S
C409 O418 1.247 . S
C409 O419 1.272 . S
O410 Co406 2.004 . S
O410 C415 1.259 . S
Co411 O412 2.061 . S
Co411 O417 2.052 . S
Co411 O419 2.135 . S
O412 Co411 2.061 . S
O412 C415 1.235 . S
C413 O416 1.238 . S
C413 O417 1.241 . S
C414 O407 1.247 . S
C414 O408 1.261 . S
C415 O410 1.259 . S
C415 O412 1.235 . S
O416 Co406 2.021 . S
O416 C413 1.238 . S
O417 Co411 2.052 . S
O417 C413 1.241 . S
O418 Co406 2.137 . S
O418 C409 1.247 . S
O419 Co406 2.244 . S
O419 C409 1.272 . S
O419 Co411 2.135 . S
Co420 O421 2.216 . S
Co420 O422 2.091 . S
Co420 O424 2.004 . S
Co420 O430 2.021 . S
Co420 O432 2.137 . S
Co420 O433 2.244 . S
O421 Co420 2.216 . S
O421 C428 1.247 . S
O422 Co420 2.091 . S
O422 C428 1.261 . S
C423 O432 1.247 . S
C423 O433 1.272 . S
O424 Co420 2.004 . S
O424 C429 1.259 . S
Co425 O426 2.061 . S
Co425 O431 2.052 . S
Co425 O433 2.135 . S
O426 Co425 2.061 . S
O426 C429 1.235 . S
C427 O430 1.238 . S
C427 O431 1.241 . S
C428 O421 1.247 . S
C428 O422 1.261 . S
C429 O424 1.259 . S
C429 O426 1.235 . S
O430 Co420 2.021 . S
O430 C427 1.238 . S
O431 Co425 2.052 . S
O431 C427 1.241 . S
O432 Co420 2.137 . S
O432 C423 1.247 . S
O433 Co420 2.244 . S
O433 C423 1.272 . S
O433 Co425 2.135 . S
Co434 O435 2.216 . S
Co434 O436 2.091 . S
Co434 O438 2.004 . S
Co434 O444 2.021 . S
Co434 O446 2.137 . S
Co434 O447 2.244 . S
O435 Co434 2.216 . S
O435 C442 1.247 . S
O436 Co434 2.091 . S
O436 C442 1.261 . S
C437 O446 1.247 . S
C437 O447 1.272 . S
O438 Co434 2.004 . S
O438 C443 1.259 . S
Co439 O440 2.061 . S
Co439 O445 2.052 . S
Co439 O447 2.135 . S
O440 Co439 2.061 . S
O440 C443 1.235 . S
C441 O444 1.238 . S
C441 O445 1.241 . S
C442 O435 1.247 . S
C442 O436 1.261 . S
C443 O438 1.259 . S
C443 O440 1.235 . S
O444 Co434 2.021 . S
O444 C441 1.238 . S
O445 Co439 2.052 . S
O445 C441 1.241 . S
O446 Co434 2.137 . S
O446 C437 1.247 . S
O447 Co434 2.244 . S
O447 C437 1.272 . S
O447 Co439 2.135 . S
Co448 O449 2.216 . S
Co448 O450 2.091 . S
Co448 O452 2.004 . S
Co448 O458 2.021 . S
Co448 O460 2.137 . S
Co448 O461 2.244 . S
O449 Co448 2.216 . S
O449 C456 1.247 . S
O450 Co448 2.091 . S
O450 C456 1.261 . S
C451 O460 1.247 . S
C451 O461 1.272 . S
O452 Co448 2.004 . S
O452 C457 1.259 . S
Co453 O454 2.061 . S
Co453 O459 2.052 . S
Co453 O461 2.135 . S
O454 Co453 2.061 . S
O454 C457 1.235 . S
C455 O458 1.238 . S
C455 O459 1.241 . S
C456 O449 1.247 . S
C456 O450 1.261 . S
C457 O452 1.259 . S
C457 O454 1.235 . S
O458 Co448 2.021 . S
O458 C455 1.238 . S
O459 Co453 2.052 . S
O459 C455 1.241 . S
O460 Co448 2.137 . S
O460 C451 1.247 . S
O461 Co448 2.244 . S
O461 C451 1.272 . S
O461 Co453 2.135 . S
Co462 O463 2.216 . S
Co462 O464 2.091 . S
Co462 O466 2.004 . S
Co462 O472 2.021 . S
Co462 O474 2.137 . S
Co462 O475 2.244 . S
O463 Co462 2.216 . S
O463 C470 1.247 . S
O464 Co462 2.091 . S
O464 C470 1.261 . S
C465 O474 1.247 . S
C465 O475 1.272 . S
O466 Co462 2.004 . S
O466 C471 1.259 . S
Co467 O468 2.061 . S
Co467 O473 2.052 . S
Co467 O475 2.135 . S
O468 Co467 2.061 . S
O468 C471 1.235 . S
C469 O472 1.238 . S
C469 O473 1.241 . S
C470 O463 1.247 . S
C470 O464 1.261 . S
C471 O466 1.259 . S
C471 O468 1.235 . S
O472 Co462 2.021 . S
O472 C469 1.238 . S
O473 Co467 2.052 . S
O473 C469 1.241 . S
O474 Co462 2.137 . S
O474 C465 1.247 . S
O475 Co462 2.244 . S
O475 C465 1.272 . S
O475 Co467 2.135 . S
Co476 O477 2.216 . S
Co476 O478 2.091 . S
Co476 O480 2.004 . S
Co476 O486 2.021 . S
Co476 O488 2.137 . S
Co476 O489 2.244 . S
O477 Co476 2.216 . S
O477 C484 1.247 . S
O478 Co476 2.091 . S
O478 C484 1.261 . S
C479 O488 1.247 . S
C479 O489 1.272 . S
O480 Co476 2.004 . S
O480 C485 1.259 . S
Co481 O482 2.061 . S
Co481 O487 2.052 . S
Co481 O489 2.135 . S
O482 Co481 2.061 . S
O482 C485 1.235 . S
C483 O486 1.238 . S
C483 O487 1.241 . S
C484 O477 1.247 . S
C484 O478 1.261 . S
C485 O480 1.259 . S
C485 O482 1.235 . S
O486 Co476 2.021 . S
O486 C483 1.238 . S
O487 Co481 2.052 . S
O487 C483 1.241 . S
O488 Co476 2.137 . S
O488 C479 1.247 . S
O489 Co476 2.244 . S
O489 C479 1.272 . S
O489 Co481 2.135 . S
Co490 O491 2.216 . S
Co490 O492 2.091 . S
Co490 O494 2.004 . S
Co490 O500 2.021 . S
Co490 O502 2.137 . S
Co490 O503 2.244 . S
O491 Co490 2.216 . S
O491 C498 1.247 . S
O492 Co490 2.091 . S
O492 C498 1.261 . S
C493 O502 1.247 . S
C493 O503 1.272 . S
O494 Co490 2.004 . S
O494 C499 1.259 . S
Co495 O496 2.061 . S
Co495 O501 2.052 . S
Co495 O503 2.135 . S
O496 Co495 2.061 . S
O496 C499 1.235 . S
C497 O500 1.238 . S
C497 O501 1.241 . S
C498 O491 1.247 . S
C498 O492 1.261 . S
C499 O494 1.259 . S
C499 O496 1.235 . S
O500 Co490 2.021 . S
O500 C497 1.238 . S
O501 Co495 2.052 . S
O501 C497 1.241 . S
O502 Co490 2.137 . S
O502 C493 1.247 . S
O503 Co490 2.244 . S
O503 C493 1.272 . S
O503 Co495 2.135 . S
Co504 O505 2.216 . S
Co504 O506 2.091 . S
Co504 O508 2.004 . S
Co504 O514 2.021 . S
Co504 O516 2.137 . S
Co504 O517 2.244 . S
O505 Co504 2.216 . S
O505 C512 1.247 . S
O506 Co504 2.091 . S
O506 C512 1.261 . S
C507 O516 1.247 . S
C507 O517 1.272 . S
O508 Co504 2.004 . S
O508 C513 1.259 . S
Co509 O510 2.061 . S
Co509 O515 2.052 . S
Co509 O517 2.135 . S
O510 Co509 2.061 . S
O510 C513 1.235 . S
C511 O514 1.238 . S
C511 O515 1.241 . S
C512 O505 1.247 . S
C512 O506 1.261 . S
C513 O508 1.259 . S
C513 O510 1.235 . S
O514 Co504 2.021 . S
O514 C511 1.238 . S
O515 Co509 2.052 . S
O515 C511 1.241 . S
O516 Co504 2.137 . S
O516 C507 1.247 . S
O517 Co504 2.244 . S
O517 C507 1.272 . S
O517 Co509 2.135 . S
Co518 O519 2.216 . S
Co518 O520 2.091 . S
Co518 O522 2.004 . S
Co518 O528 2.021 . S
Co518 O530 2.137 . S
Co518 O531 2.244 . S
O519 Co518 2.216 . S
O519 C526 1.247 . S
O520 Co518 2.091 . S
O520 C526 1.261 . S
C521 O530 1.247 . S
C521 O531 1.272 . S
O522 Co518 2.004 . S
O522 C527 1.259 . S
Co523 O524 2.061 . S
Co523 O529 2.052 . S
Co523 O531 2.135 . S
O524 Co523 2.061 . S
O524 C527 1.235 . S
C525 O528 1.238 . S
C525 O529 1.241 . S
C526 O519 1.247 . S
C526 O520 1.261 . S
C527 O522 1.259 . S
C527 O524 1.235 . S
O528 Co518 2.021 . S
O528 C525 1.238 . S
O529 Co523 2.052 . S
O529 C525 1.241 . S
O530 Co518 2.137 . S
O530 C521 1.247 . S
O531 Co518 2.244 . S
O531 C521 1.272 . S
O531 Co523 2.135 . S
Co532 O533 2.216 . S
Co532 O534 2.091 . S
Co532 O536 2.004 . S
Co532 O542 2.021 . S
Co532 O544 2.137 . S
Co532 O545 2.244 . S
O533 Co532 2.216 . S
O533 C540 1.247 . S
O534 Co532 2.091 . S
O534 C540 1.261 . S
C535 O544 1.247 . S
C535 O545 1.272 . S
O536 Co532 2.004 . S
O536 C541 1.259 . S
Co537 O538 2.061 . S
Co537 O543 2.052 . S
Co537 O545 2.135 . S
O538 Co537 2.061 . S
O538 C541 1.235 . S
C539 O542 1.238 . S
C539 O543 1.241 . S
C540 O533 1.247 . S
C540 O534 1.261 . S
C541 O536 1.259 . S
C541 O538 1.235 . S
O542 Co532 2.021 . S
O542 C539 1.238 . S
O543 Co537 2.052 . S
O543 C539 1.241 . S
O544 Co532 2.137 . S
O544 C535 1.247 . S
O545 Co532 2.244 . S
O545 C535 1.272 . S
O545 Co537 2.135 . S
Co546 O547 2.216 . S
Co546 O548 2.091 . S
Co546 O550 2.004 . S
Co546 O556 2.021 . S
Co546 O558 2.137 . S
Co546 O559 2.244 . S
O547 Co546 2.216 . S
O547 C554 1.247 . S
O548 Co546 2.091 . S
O548 C554 1.261 . S
C549 O558 1.247 . S
C549 O559 1.272 . S
O550 Co546 2.004 . S
O550 C555 1.259 . S
Co551 O552 2.061 . S
Co551 O557 2.052 . S
Co551 O559 2.135 . S
O552 Co551 2.061 . S
O552 C555 1.235 . S
C553 O556 1.238 . S
C553 O557 1.241 . S
C554 O547 1.247 . S
C554 O548 1.261 . S
C555 O550 1.259 . S
C555 O552 1.235 . S
O556 Co546 2.021 . S
O556 C553 1.238 . S
O557 Co551 2.052 . S
O557 C553 1.241 . S
O558 Co546 2.137 . S
O558 C549 1.247 . S
O559 Co546 2.244 . S
O559 C549 1.272 . S
O559 Co551 2.135 . S
Co560 O561 2.216 . S
Co560 O562 2.091 . S
Co560 O564 2.004 . S
Co560 O570 2.021 . S
Co560 O572 2.137 . S
Co560 O573 2.244 . S
O561 Co560 2.216 . S
O561 C568 1.247 . S
O562 Co560 2.091 . S
O562 C568 1.261 . S
C563 O572 1.247 . S
C563 O573 1.272 . S
O564 Co560 2.004 . S
O564 C569 1.259 . S
Co565 O566 2.061 . S
Co565 O571 2.052 . S
Co565 O573 2.135 . S
O566 Co565 2.061 . S
O566 C569 1.235 . S
C567 O570 1.238 . S
C567 O571 1.241 . S
C568 O561 1.247 . S
C568 O562 1.261 . S
C569 O564 1.259 . S
C569 O566 1.235 . S
O570 Co560 2.021 . S
O570 C567 1.238 . S
O571 Co565 2.052 . S
O571 C567 1.241 . S
O572 Co560 2.137 . S
O572 C563 1.247 . S
O573 Co560 2.244 . S
O573 C563 1.272 . S
O573 Co565 2.135 . S
Co574 O575 2.216 . S
Co574 O576 2.091 . S
Co574 O578 2.004 . S
Co574 O584 2.021 . S
Co574 O586 2.137 . S
Co574 O587 2.244 . S
O575 Co574 2.216 . S
O575 C582 1.247 . S
O576 Co574 2.091 . S
O576 C582 1.261 . S
C577 O586 1.247 . S
C577 O587 1.272 . S
O578 Co574 2.004 . S
O578 C583 1.259 . S
Co579 O580 2.061 . S
Co579 O585 2.052 . S
Co579 O587 2.135 . S
O580 Co579 2.061 . S
O580 C583 1.235 . S
C581 O584 1.238 . S
C581 O585 1.241 . S
C582 O575 1.247 . S
C582 O576 1.261 . S
C583 O578 1.259 . S
C583 O580 1.235 . S
O584 Co574 2.021 . S
O584 C581 1.238 . S
O585 Co579 2.052 . S
O585 C581 1.241 . S
O586 Co574 2.137 . S
O586 C577 1.247 . S
O587 Co574 2.244 . S
O587 C577 1.272 . S
O587 Co579 2.135 . S
Co588 O589 2.216 . S
Co588 O590 2.091 . S
Co588 O592 2.004 . S
Co588 O598 2.021 . S
Co588 O600 2.137 . S
Co588 O601 2.244 . S
O589 Co588 2.216 . S
O589 C596 1.247 . S
O590 Co588 2.091 . S
O590 C596 1.261 . S
C591 O600 1.247 . S
C591 O601 1.272 . S
O592 Co588 2.004 . S
O592 C597 1.259 . S
Co593 O594 2.061 . S
Co593 O599 2.052 . S
Co593 O601 2.135 . S
O594 Co593 2.061 . S
O594 C597 1.235 . S
C595 O598 1.238 . S
C595 O599 1.241 . S
C596 O589 1.247 . S
C596 O590 1.261 . S
C597 O592 1.259 . S
C597 O594 1.235 . S
O598 Co588 2.021 . S
O598 C595 1.238 . S
O599 Co593 2.052 . S
O599 C595 1.241 . S
O600 Co588 2.137 . S
O600 C591 1.247 . S
O601 Co588 2.244 . S
O601 C591 1.272 . S
O601 Co593 2.135 . S
Co602 O603 2.216 . S
Co602 O604 2.091 . S
Co602 O606 2.004 . S
Co602 O612 2.021 . S
Co602 O614 2.137 . S
Co602 O615 2.244 . S
O603 Co602 2.216 . S
O603 C610 1.247 . S
O604 Co602 2.091 . S
O604 C610 1.261 . S
C605 O614 1.247 . S
C605 O615 1.272 . S
O606 Co602 2.004 . S
O606 C611 1.259 . S
Co607 O608 2.061 . S
Co607 O613 2.052 . S
Co607 O615 2.135 . S
O608 Co607 2.061 . S
O608 C611 1.235 . S
C609 O612 1.238 . S
C609 O613 1.241 . S
C610 O603 1.247 . S
C610 O604 1.261 . S
C611 O606 1.259 . S
C611 O608 1.235 . S
O612 Co602 2.021 . S
O612 C609 1.238 . S
O613 Co607 2.052 . S
O613 C609 1.241 . S
O614 Co602 2.137 . S
O614 C605 1.247 . S
O615 Co602 2.244 . S
O615 C605 1.272 . S
O615 Co607 2.135 . S
Co616 O617 2.216 . S
Co616 O618 2.091 . S
Co616 O620 2.004 . S
Co616 O626 2.021 . S
Co616 O628 2.137 . S
Co616 O629 2.244 . S
O617 Co616 2.216 . S
O617 C624 1.247 . S
O618 Co616 2.091 . S
O618 C624 1.261 . S
C619 O628 1.247 . S
C619 O629 1.272 . S
O620 Co616 2.004 . S
O620 C625 1.259 . S
Co621 O622 2.061 . S
Co621 O627 2.052 . S
Co621 O629 2.135 . S
O622 Co621 2.061 . S
O622 C625 1.235 . S
C623 O626 1.238 . S
C623 O627 1.241 . S
C624 O617 1.247 . S
C624 O618 1.261 . S
C625 O620 1.259 . S
C625 O622 1.235 . S
O626 Co616 2.021 . S
O626 C623 1.238 . S
O627 Co621 2.052 . S
O627 C623 1.241 . S
O628 Co616 2.137 . S
O628 C619 1.247 . S
O629 Co616 2.244 . S
O629 C619 1.272 . S
O629 Co621 2.135 . S
Co630 O631 2.216 . S
Co630 O632 2.091 . S
Co630 O634 2.004 . S
Co630 O640 2.021 . S
Co630 O642 2.137 . S
Co630 O643 2.244 . S
O631 Co630 2.216 . S
O631 C638 1.247 . S
O632 Co630 2.091 . S
O632 C638 1.261 . S
C633 O642 1.247 . S
C633 O643 1.272 . S
O634 Co630 2.004 . S
O634 C639 1.259 . S
Co635 O636 2.061 . S
Co635 O641 2.052 . S
Co635 O643 2.135 . S
O636 Co635 2.061 . S
O636 C639 1.235 . S
C637 O640 1.238 . S
C637 O641 1.241 . S
C638 O631 1.247 . S
C638 O632 1.261 . S
C639 O634 1.259 . S
C639 O636 1.235 . S
O640 Co630 2.021 . S
O640 C637 1.238 . S
O641 Co635 2.052 . S
O641 C637 1.241 . S
O642 Co630 2.137 . S
O642 C633 1.247 . S
O643 Co630 2.244 . S
O643 C633 1.272 . S
O643 Co635 2.135 . S
Co644 O645 2.216 . S
Co644 O646 2.091 . S
Co644 O648 2.004 . S
Co644 O654 2.021 . S
Co644 O656 2.137 . S
Co644 O657 2.244 . S
O645 Co644 2.216 . S
O645 C652 1.247 . S
O646 Co644 2.091 . S
O646 C652 1.261 . S
C647 O656 1.247 . S
C647 O657 1.272 . S
O648 Co644 2.004 . S
O648 C653 1.259 . S
Co649 O650 2.061 . S
Co649 O655 2.052 . S
Co649 O657 2.135 . S
O650 Co649 2.061 . S
O650 C653 1.235 . S
C651 O654 1.238 . S
C651 O655 1.241 . S
C652 O645 1.247 . S
C652 O646 1.261 . S
C653 O648 1.259 . S
C653 O650 1.235 . S
O654 Co644 2.021 . S
O654 C651 1.238 . S
O655 Co649 2.052 . S
O655 C651 1.241 . S
O656 Co644 2.137 . S
O656 C647 1.247 . S
O657 Co644 2.244 . S
O657 C647 1.272 . S
O657 Co649 2.135 . S
Co658 O659 2.216 . S
Co658 O660 2.091 . S
Co658 O662 2.004 . S
Co658 O668 2.021 . S
Co658 O670 2.137 . S
Co658 O671 2.244 . S
O659 Co658 2.216 . S
O659 C666 1.247 . S
O660 Co658 2.091 . S
O660 C666 1.261 . S
C661 O670 1.247 . S
C661 O671 1.272 . S
O662 Co658 2.004 . S
O662 C667 1.259 . S
Co663 O664 2.061 . S
Co663 O669 2.052 . S
Co663 O671 2.135 . S
O664 Co663 2.061 . S
O664 C667 1.235 . S
C665 O668 1.238 . S
C665 O669 1.241 . S
C666 O659 1.247 . S
C666 O660 1.261 . S
C667 O662 1.259 . S
C667 O664 1.235 . S
O668 Co658 2.021 . S
O668 C665 1.238 . S
O669 Co663 2.052 . S
O669 C665 1.241 . S
O670 Co658 2.137 . S
O670 C661 1.247 . S
O671 Co658 2.244 . S
O671 C661 1.272 . S
O671 Co663 2.135 . S
C672 C673 1.369 . S
C672 C674 1.419 . S
C672 H676 0.930 . S
C673 C672 1.369 . S
C673 C682 1.429 . S
C674 C672 1.419 . S
C674 C675 1.363 . S
C674 H677 0.929 . S
C675 C674 1.363 . S
C675 C681 1.428 . S
H676 C672 0.930 . S
H677 C674 0.929 . S
S678 N679 1.613 . S
S678 N680 1.610 . S
N679 S678 1.613 . S
N679 C682 1.350 . S
N680 S678 1.610 . S
N680 C681 1.351 . S
C681 C675 1.428 . S
C681 N680 1.351 . S
C681 C682 1.434 . S
C682 C673 1.429 . S
C682 N679 1.350 . S
C682 C681 1.434 . S
C683 C684 1.369 . S
C683 C685 1.419 . S
C683 H687 0.930 . S
C684 C683 1.369 . S
C684 C693 1.429 . S
C685 C683 1.419 . S
C685 C686 1.363 . S
C685 H688 0.929 . S
C686 C685 1.363 . S
C686 C692 1.428 . S
H687 C683 0.930 . S
H688 C685 0.929 . S
S689 N690 1.613 . S
S689 N691 1.610 . S
N690 S689 1.613 . S
N690 C693 1.350 . S
N691 S689 1.610 . S
N691 C692 1.351 . S
C692 C686 1.428 . S
C692 N691 1.351 . S
C692 C693 1.434 . S
C693 C684 1.429 . S
C693 N690 1.350 . S
C693 C692 1.434 . S
C694 C695 1.369 . S
C694 C696 1.419 . S
C694 H698 0.930 . S
C695 C694 1.369 . S
C695 C704 1.429 . S
C696 C694 1.419 . S
C696 C697 1.363 . S
C696 H699 0.929 . S
C697 C696 1.363 . S
C697 C703 1.428 . S
H698 C694 0.930 . S
H699 C696 0.929 . S
S700 N701 1.613 . S
S700 N702 1.610 . S
N701 S700 1.613 . S
N701 C704 1.350 . S
N702 S700 1.610 . S
N702 C703 1.351 . S
C703 C697 1.428 . S
C703 N702 1.351 . S
C703 C704 1.434 . S
C704 C695 1.429 . S
C704 N701 1.350 . S
C704 C703 1.434 . S
C705 C706 1.369 . S
C705 C707 1.419 . S
C705 H709 0.930 . S
C706 C705 1.369 . S
C706 C715 1.429 . S
C707 C705 1.419 . S
C707 C708 1.363 . S
C707 H710 0.929 . S
C708 C707 1.363 . S
C708 C714 1.428 . S
H709 C705 0.930 . S
H710 C707 0.929 . S
S711 N712 1.613 . S
S711 N713 1.610 . S
N712 S711 1.613 . S
N712 C715 1.350 . S
N713 S711 1.610 . S
N713 C714 1.351 . S
C714 C708 1.428 . S
C714 N713 1.351 . S
C714 C715 1.434 . S
C715 C706 1.429 . S
C715 N712 1.350 . S
C715 C714 1.434 . S
C716 C717 1.369 . S
C716 C718 1.419 . S
C716 H720 0.930 . S
C717 C716 1.369 . S
C717 C726 1.429 . S
C718 C716 1.419 . S
C718 C719 1.363 . S
C718 H721 0.929 . S
C719 C718 1.363 . S
C719 C725 1.428 . S
H720 C716 0.930 . S
H721 C718 0.929 . S
S722 N723 1.613 . S
S722 N724 1.610 . S
N723 S722 1.613 . S
N723 C726 1.350 . S
N724 S722 1.610 . S
N724 C725 1.351 . S
C725 C719 1.428 . S
C725 N724 1.351 . S
C725 C726 1.434 . S
C726 C717 1.429 . S
C726 N723 1.350 . S
C726 C725 1.434 . S
C727 C728 1.369 . S
C727 C729 1.419 . S
C727 H731 0.930 . S
C728 C727 1.369 . S
C728 C737 1.429 . S
C729 C727 1.419 . S
C729 C730 1.363 . S
C729 H732 0.929 . S
C730 C729 1.363 . S
C730 C736 1.428 . S
H731 C727 0.930 . S
H732 C729 0.929 . S
S733 N734 1.613 . S
S733 N735 1.610 . S
N734 S733 1.613 . S
N734 C737 1.350 . S
N735 S733 1.610 . S
N735 C736 1.351 . S
C736 C730 1.428 . S
C736 N735 1.351 . S
C736 C737 1.434 . S
C737 C728 1.429 . S
C737 N734 1.350 . S
C737 C736 1.434 . S
C738 C739 1.369 . S
C738 C740 1.419 . S
C738 H742 0.930 . S
C739 C738 1.369 . S
C739 C748 1.429 . S
C740 C738 1.419 . S
C740 C741 1.363 . S
C740 H743 0.929 . S
C741 C740 1.363 . S
C741 C747 1.428 . S
H742 C738 0.930 . S
H743 C740 0.929 . S
S744 N745 1.613 . S
S744 N746 1.610 . S
N745 S744 1.613 . S
N745 C748 1.350 . S
N746 S744 1.610 . S
N746 C747 1.351 . S
C747 C741 1.428 . S
C747 N746 1.351 . S
C747 C748 1.434 . S
C748 C739 1.429 . S
C748 N745 1.350 . S
C748 C747 1.434 . S
C749 C750 1.369 . S
C749 C751 1.419 . S
C749 H753 0.930 . S
C750 C749 1.369 . S
C750 C759 1.429 . S
C751 C749 1.419 . S
C751 C752 1.363 . S
C751 H754 0.929 . S
C752 C751 1.363 . S
C752 C758 1.428 . S
H753 C749 0.930 . S
H754 C751 0.929 . S
S755 N756 1.613 . S
S755 N757 1.610 . S
N756 S755 1.613 . S
N756 C759 1.350 . S
N757 S755 1.610 . S
N757 C758 1.351 . S
C758 C752 1.428 . S
C758 N757 1.351 . S
C758 C759 1.434 . S
C759 C750 1.429 . S
C759 N756 1.350 . S
C759 C758 1.434 . S
C760 C761 1.369 . S
C760 C762 1.419 . S
C760 H764 0.930 . S
C761 C760 1.369 . S
C761 C770 1.429 . S
C762 C760 1.419 . S
C762 C763 1.363 . S
C762 H765 0.929 . S
C763 C762 1.363 . S
C763 C769 1.428 . S
H764 C760 0.930 . S
H765 C762 0.929 . S
S766 N767 1.613 . S
S766 N768 1.610 . S
N767 S766 1.613 . S
N767 C770 1.350 . S
N768 S766 1.610 . S
N768 C769 1.351 . S
C769 C763 1.428 . S
C769 N768 1.351 . S
C769 C770 1.434 . S
C770 C761 1.429 . S
C770 N767 1.350 . S
C770 C769 1.434 . S
C771 C772 1.369 . S
C771 C773 1.419 . S
C771 H775 0.930 . S
C772 C771 1.369 . S
C772 C781 1.429 . S
C773 C771 1.419 . S
C773 C774 1.363 . S
C773 H776 0.929 . S
C774 C773 1.363 . S
C774 C780 1.428 . S
H775 C771 0.930 . S
H776 C773 0.929 . S
S777 N778 1.613 . S
S777 N779 1.610 . S
N778 S777 1.613 . S
N778 C781 1.350 . S
N779 S777 1.610 . S
N779 C780 1.351 . S
C780 C774 1.428 . S
C780 N779 1.351 . S
C780 C781 1.434 . S
C781 C772 1.429 . S
C781 N778 1.350 . S
C781 C780 1.434 . S
C782 C783 1.369 . S
C782 C784 1.419 . S
C782 H786 0.930 . S
C783 C782 1.369 . S
C783 C792 1.429 . S
C784 C782 1.419 . S
C784 C785 1.363 . S
C784 H787 0.929 . S
C785 C784 1.363 . S
C785 C791 1.428 . S
H786 C782 0.930 . S
H787 C784 0.929 . S
S788 N789 1.613 . S
S788 N790 1.610 . S
N789 S788 1.613 . S
N789 C792 1.350 . S
N790 S788 1.610 . S
N790 C791 1.351 . S
C791 C785 1.428 . S
C791 N790 1.351 . S
C791 C792 1.434 . S
C792 C783 1.429 . S
C792 N789 1.350 . S
C792 C791 1.434 . S
C793 C794 1.369 . S
C793 C795 1.419 . S
C793 H797 0.930 . S
C794 C793 1.369 . S
C794 C803 1.429 . S
C795 C793 1.419 . S
C795 C796 1.363 . S
C795 H798 0.929 . S
C796 C795 1.363 . S
C796 C802 1.428 . S
H797 C793 0.930 . S
H798 C795 0.929 . S
S799 N800 1.613 . S
S799 N801 1.610 . S
N800 S799 1.613 . S
N800 C803 1.350 . S
N801 S799 1.610 . S
N801 C802 1.351 . S
C802 C796 1.428 . S
C802 N801 1.351 . S
C802 C803 1.434 . S
C803 C794 1.429 . S
C803 N800 1.350 . S
C803 C802 1.434 . S
C804 C805 1.369 . S
C804 C806 1.419 . S
C804 H808 0.930 . S
C805 C804 1.369 . S
C805 C814 1.429 . S
C806 C804 1.419 . S
C806 C807 1.363 . S
C806 H809 0.929 . S
C807 C806 1.363 . S
C807 C813 1.428 . S
H808 C804 0.930 . S
H809 C806 0.929 . S
S810 N811 1.613 . S
S810 N812 1.610 . S
N811 S810 1.613 . S
N811 C814 1.350 . S
N812 S810 1.610 . S
N812 C813 1.351 . S
C813 C807 1.428 . S
C813 N812 1.351 . S
C813 C814 1.434 . S
C814 C805 1.429 . S
C814 N811 1.350 . S
C814 C813 1.434 . S
C815 C816 1.369 . S
C815 C817 1.419 . S
C815 H819 0.930 . S
C816 C815 1.369 . S
C816 C825 1.429 . S
C817 C815 1.419 . S
C817 C818 1.363 . S
C817 H820 0.929 . S
C818 C817 1.363 . S
C818 C824 1.428 . S
H819 C815 0.930 . S
H820 C817 0.929 . S
S821 N822 1.613 . S
S821 N823 1.610 . S
N822 S821 1.613 . S
N822 C825 1.350 . S
N823 S821 1.610 . S
N823 C824 1.351 . S
C824 C818 1.428 . S
C824 N823 1.351 . S
C824 C825 1.434 . S
C825 C816 1.429 . S
C825 N822 1.350 . S
C825 C824 1.434 . S
C826 C827 1.369 . S
C826 C828 1.419 . S
C826 H830 0.930 . S
C827 C826 1.369 . S
C827 C836 1.429 . S
C828 C826 1.419 . S
C828 C829 1.363 . S
C828 H831 0.929 . S
C829 C828 1.363 . S
C829 C835 1.428 . S
H830 C826 0.930 . S
H831 C828 0.929 . S
S832 N833 1.613 . S
S832 N834 1.610 . S
N833 S832 1.613 . S
N833 C836 1.350 . S
N834 S832 1.610 . S
N834 C835 1.351 . S
C835 C829 1.428 . S
C835 N834 1.351 . S
C835 C836 1.434 . S
C836 C827 1.429 . S
C836 N833 1.350 . S
C836 C835 1.434 . S
C837 C838 1.369 . S
C837 C839 1.419 . S
C837 H841 0.930 . S
C838 C837 1.369 . S
C838 C847 1.429 . S
C839 C837 1.419 . S
C839 C840 1.363 . S
C839 H842 0.929 . S
C840 C839 1.363 . S
C840 C846 1.428 . S
H841 C837 0.930 . S
H842 C839 0.929 . S
S843 N844 1.613 . S
S843 N845 1.610 . S
N844 S843 1.613 . S
N844 C847 1.350 . S
N845 S843 1.610 . S
N845 C846 1.351 . S
C846 C840 1.428 . S
C846 N845 1.351 . S
C846 C847 1.434 . S
C847 C838 1.429 . S
C847 N844 1.350 . S
C847 C846 1.434 . S
C848 C849 1.369 . S
C848 C850 1.419 . S
C848 H852 0.930 . S
C849 C848 1.369 . S
C849 C858 1.429 . S
C850 C848 1.419 . S
C850 C851 1.363 . S
C850 H853 0.929 . S
C851 C850 1.363 . S
C851 C857 1.428 . S
H852 C848 0.930 . S
H853 C850 0.929 . S
S854 N855 1.613 . S
S854 N856 1.610 . S
N855 S854 1.613 . S
N855 C858 1.350 . S
N856 S854 1.610 . S
N856 C857 1.351 . S
C857 C851 1.428 . S
C857 N856 1.351 . S
C857 C858 1.434 . S
C858 C849 1.429 . S
C858 N855 1.350 . S
C858 C857 1.434 . S
C859 C860 1.369 . S
C859 C861 1.419 . S
C859 H863 0.930 . S
C860 C859 1.369 . S
C860 C869 1.429 . S
C861 C859 1.419 . S
C861 C862 1.363 . S
C861 H864 0.929 . S
C862 C861 1.363 . S
C862 C868 1.428 . S
H863 C859 0.930 . S
H864 C861 0.929 . S
S865 N866 1.613 . S
S865 N867 1.610 . S
N866 S865 1.613 . S
N866 C869 1.350 . S
N867 S865 1.610 . S
N867 C868 1.351 . S
C868 C862 1.428 . S
C868 N867 1.351 . S
C868 C869 1.434 . S
C869 C860 1.429 . S
C869 N866 1.350 . S
C869 C868 1.434 . S
C870 C871 1.369 . S
C870 C872 1.419 . S
C870 H874 0.930 . S
C871 C870 1.369 . S
C871 C880 1.429 . S
C872 C870 1.419 . S
C872 C873 1.363 . S
C872 H875 0.929 . S
C873 C872 1.363 . S
C873 C879 1.428 . S
H874 C870 0.930 . S
H875 C872 0.929 . S
S876 N877 1.613 . S
S876 N878 1.610 . S
N877 S876 1.613 . S
N877 C880 1.350 . S
N878 S876 1.610 . S
N878 C879 1.351 . S
C879 C873 1.428 . S
C879 N878 1.351 . S
C879 C880 1.434 . S
C880 C871 1.429 . S
C880 N877 1.350 . S
C880 C879 1.434 . S
C881 C882 1.369 . S
C881 C883 1.419 . S
C881 H885 0.930 . S
C882 C881 1.369 . S
C882 C891 1.429 . S
C883 C881 1.419 . S
C883 C884 1.363 . S
C883 H886 0.929 . S
C884 C883 1.363 . S
C884 C890 1.428 . S
H885 C881 0.930 . S
H886 C883 0.929 . S
S887 N888 1.613 . S
S887 N889 1.610 . S
N888 S887 1.613 . S
N888 C891 1.350 . S
N889 S887 1.610 . S
N889 C890 1.351 . S
C890 C884 1.428 . S
C890 N889 1.351 . S
C890 C891 1.434 . S
C891 C882 1.429 . S
C891 N888 1.350 . S
C891 C890 1.434 . S
C892 C893 1.369 . S
C892 C894 1.419 . S
C892 H896 0.930 . S
C893 C892 1.369 . S
C893 C902 1.429 . S
C894 C892 1.419 . S
C894 C895 1.363 . S
C894 H897 0.929 . S
C895 C894 1.363 . S
C895 C901 1.428 . S
H896 C892 0.930 . S
H897 C894 0.929 . S
S898 N899 1.613 . S
S898 N900 1.610 . S
N899 S898 1.613 . S
N899 C902 1.350 . S
N900 S898 1.610 . S
N900 C901 1.351 . S
C901 C895 1.428 . S
C901 N900 1.351 . S
C901 C902 1.434 . S
C902 C893 1.429 . S
C902 N899 1.350 . S
C902 C901 1.434 . S
C903 C904 1.369 . S
C903 C905 1.419 . S
C903 H907 0.930 . S
C904 C903 1.369 . S
C904 C913 1.429 . S
C905 C903 1.419 . S
C905 C906 1.363 . S
C905 H908 0.929 . S
C906 C905 1.363 . S
C906 C912 1.428 . S
H907 C903 0.930 . S
H908 C905 0.929 . S
S909 N910 1.613 . S
S909 N911 1.610 . S
N910 S909 1.613 . S
N910 C913 1.350 . S
N911 S909 1.610 . S
N911 C912 1.351 . S
C912 C906 1.428 . S
C912 N911 1.351 . S
C912 C913 1.434 . S
C913 C904 1.429 . S
C913 N910 1.350 . S
C913 C912 1.434 . S
C914 C915 1.369 . S
C914 C916 1.419 . S
C914 H918 0.930 . S
C915 C914 1.369 . S
C915 C924 1.429 . S
C916 C914 1.419 . S
C916 C917 1.363 . S
C916 H919 0.929 . S
C917 C916 1.363 . S
C917 C923 1.428 . S
H918 C914 0.930 . S
H919 C916 0.929 . S
S920 N921 1.613 . S
S920 N922 1.610 . S
N921 S920 1.613 . S
N921 C924 1.350 . S
N922 S920 1.610 . S
N922 C923 1.351 . S
C923 C917 1.428 . S
C923 N922 1.351 . S
C923 C924 1.434 . S
C924 C915 1.429 . S
C924 N921 1.350 . S
C924 C923 1.434 . S
C925 C926 1.369 . S
C925 C927 1.419 . S
C925 H929 0.930 . S
C926 C925 1.369 . S
C926 C935 1.429 . S
C927 C925 1.419 . S
C927 C928 1.363 . S
C927 H930 0.929 . S
C928 C927 1.363 . S
C928 C934 1.428 . S
H929 C925 0.930 . S
H930 C927 0.929 . S
S931 N932 1.613 . S
S931 N933 1.610 . S
N932 S931 1.613 . S
N932 C935 1.350 . S
N933 S931 1.610 . S
N933 C934 1.351 . S
C934 C928 1.428 . S
C934 N933 1.351 . S
C934 C935 1.434 . S
C935 C926 1.429 . S
C935 N932 1.350 . S
C935 C934 1.434 . S
C936 C937 1.369 . S
C936 C938 1.419 . S
C936 H940 0.930 . S
C937 C936 1.369 . S
C937 C946 1.429 . S
C938 C936 1.419 . S
C938 C939 1.363 . S
C938 H941 0.929 . S
C939 C938 1.363 . S
C939 C945 1.428 . S
H940 C936 0.930 . S
H941 C938 0.929 . S
S942 N943 1.613 . S
S942 N944 1.610 . S
N943 S942 1.613 . S
N943 C946 1.350 . S
N944 S942 1.610 . S
N944 C945 1.351 . S
C945 C939 1.428 . S
C945 N944 1.351 . S
C945 C946 1.434 . S
C946 C937 1.429 . S
C946 N943 1.350 . S
C946 C945 1.434 . S
C947 C948 1.369 . S
C947 C949 1.419 1_556 S
C947 H951 0.930 . S
C948 C947 1.369 . S
C948 C957 1.429 . S
C949 C947 1.419 1_554 S
C949 C950 1.363 . S
C949 H952 0.929 . S
C950 C949 1.363 . S
C950 C956 1.428 . S
H951 C947 0.930 . S
H952 C949 0.929 . S
S953 N954 1.618 . S
S953 N955 1.605 1_556 S
N954 S953 1.618 . S
N954 C957 1.350 . S
N955 S953 1.605 1_554 S
N955 C956 1.351 . S
C956 C950 1.428 . S
C956 N955 1.351 . S
C956 C957 1.434 1_554 S
C957 C948 1.429 . S
C957 N954 1.350 . S
C957 C956 1.434 1_556 S
C958 C959 1.369 . S
C958 C960 1.419 . S
C958 H962 0.930 . S
C959 C958 1.369 . S
C959 C968 1.429 . S
C960 C958 1.419 . S
C960 C961 1.363 . S
C960 H963 0.929 . S
C961 C960 1.363 . S
C961 C967 1.428 . S
H962 C958 0.930 . S
H963 C960 0.929 . S
S964 N965 1.613 . S
S964 N966 1.610 . S
N965 S964 1.613 . S
N965 C968 1.350 . S
N966 S964 1.610 . S
N966 C967 1.351 . S
C967 C961 1.428 . S
C967 N966 1.351 . S
C967 C968 1.434 . S
C968 C959 1.429 . S
C968 N965 1.350 . S
C968 C967 1.434 . S
C969 C970 1.369 . S
C969 C971 1.419 1_556 S
C969 H973 0.930 . S
C970 C969 1.369 . S
C970 C979 1.429 . S
C971 C969 1.419 1_554 S
C971 C972 1.363 . S
C971 H974 0.929 . S
C972 C971 1.363 . S
C972 C978 1.428 . S
H973 C969 0.930 . S
H974 C971 0.929 . S
S975 N976 1.613 1_554 S
S975 N977 1.610 . S
N976 S975 1.613 1_556 S
N976 C979 1.350 . S
N977 S975 1.610 . S
N977 C978 1.351 . S
C978 C972 1.428 . S
C978 N977 1.351 . S
C978 C979 1.434 1_554 S
C979 C970 1.429 . S
C979 N976 1.350 . S
C979 C978 1.434 1_556 S
C980 C981 1.369 . S
C980 C982 1.419 . S
C980 H984 0.930 . S
C981 C980 1.369 . S
C981 C990 1.429 . S
C982 C980 1.419 . S
C982 C983 1.363 . S
C982 H985 0.929 . S
C983 C982 1.363 . S
C983 C989 1.428 . S
H984 C980 0.930 . S
H985 C982 0.929 . S
S986 N987 1.613 . S
S986 N988 1.610 . S
N987 S986 1.613 . S
N987 C990 1.350 . S
N988 S986 1.610 . S
N988 C989 1.351 . S
C989 C983 1.428 . S
C989 N988 1.351 . S
C989 C990 1.434 . S
C990 C981 1.429 . S
C990 N987 1.350 . S
C990 C989 1.434 . S
C991 C992 1.369 . S
C991 C993 1.419 1_556 S
C991 H995 0.930 . S
C992 C991 1.369 . S
C992 C1001 1.429 . S
C993 C991 1.419 1_554 S
C993 C994 1.363 . S
C993 H996 0.929 . S
C994 C993 1.363 . S
C994 C1000 1.428 . S
H995 C991 0.930 . S
H996 C993 0.929 . S
S997 N998 1.613 . S
S997 N999 1.610 1_556 S
N998 S997 1.613 . S
N998 C1001 1.350 . S
N999 S997 1.610 1_554 S
N999 C1000 1.351 . S
C1000 C994 1.428 . S
C1000 N999 1.351 . S
C1000 C1001 1.434 1_554 S
C1001 C992 1.429 . S
C1001 N998 1.350 . S
C1001 C1000 1.434 1_556 S
C1002 C1003 1.369 . S
C1002 C1004 1.419 . S
C1002 H1006 0.930 . S
C1003 C1002 1.369 . S
C1003 C1012 1.429 . S
C1004 C1002 1.419 . S
C1004 C1005 1.363 . S
C1004 H1007 0.929 . S
C1005 C1004 1.363 . S
C1005 C1011 1.428 . S
H1006 C1002 0.930 . S
H1007 C1004 0.929 . S
S1008 N1009 1.613 . S
S1008 N1010 1.610 . S
N1009 S1008 1.613 . S
N1009 C1012 1.350 . S
N1010 S1008 1.610 . S
N1010 C1011 1.351 . S
C1011 C1005 1.428 . S
C1011 N1010 1.351 . S
C1011 C1012 1.434 . S
C1012 C1003 1.429 . S
C1012 N1009 1.350 . S
C1012 C1011 1.434 . S
C1013 C1014 1.369 . S
C1013 C1015 1.419 1_556 S
C1013 H1017 0.930 . S
C1014 C1013 1.369 . S
C1014 C1023 1.429 . S
C1015 C1013 1.419 1_554 S
C1015 C1016 1.363 . S
C1015 H1018 0.929 . S
C1016 C1015 1.363 . S
C1016 C1022 1.428 . S
H1017 C1013 0.930 . S
H1018 C1015 0.929 . S
S1019 N1020 1.613 . S
S1019 N1021 1.610 1_556 S
N1020 S1019 1.613 . S
N1020 C1023 1.350 . S
N1021 S1019 1.610 1_554 S
N1021 C1022 1.351 . S
C1022 C1016 1.428 . S
C1022 N1021 1.351 . S
C1022 C1023 1.434 1_554 S
C1023 C1014 1.429 . S
C1023 N1020 1.350 . S
C1023 C1022 1.434 1_556 S
C1024 C1025 1.369 . S
C1024 C1026 1.419 . S
C1024 H1028 0.930 . S
C1025 C1024 1.369 . S
C1025 C1034 1.429 . S
C1026 C1024 1.419 . S
C1026 C1027 1.363 . S
C1026 H1029 0.929 . S
C1027 C1026 1.363 . S
C1027 C1033 1.428 . S
H1028 C1024 0.930 . S
H1029 C1026 0.929 . S
S1030 N1031 1.613 . S
S1030 N1032 1.610 . S
N1031 S1030 1.613 . S
N1031 C1034 1.350 . S
N1032 S1030 1.610 . S
N1032 C1033 1.351 . S
C1033 C1027 1.428 . S
C1033 N1032 1.351 . S
C1033 C1034 1.434 . S
C1034 C1025 1.429 . S
C1034 N1031 1.350 . S
C1034 C1033 1.434 . S
C1035 C1036 1.369 . S
C1035 C1037 1.419 1_565 S
C1035 H1039 0.930 . S
C1036 C1035 1.369 . S
C1036 C1045 1.429 . S
C1037 C1035 1.419 1_545 S
C1037 C1038 1.363 . S
C1037 H1040 0.929 . S
C1038 C1037 1.363 . S
C1038 C1044 1.428 . S
H1039 C1035 0.930 . S
H1040 C1037 0.929 . S
S1041 N1042 1.604 1_545 S
S1041 N1043 1.620 . S
N1042 S1041 1.604 1_565 S
N1042 C1045 1.350 . S
N1043 S1041 1.620 . S
N1043 C1044 1.351 . S
C1044 C1038 1.428 . S
C1044 N1043 1.351 . S
C1044 C1045 1.434 1_545 S
C1045 C1036 1.429 . S
C1045 N1042 1.350 . S
C1045 C1044 1.434 1_565 S
C1046 C1047 1.369 . S
C1046 C1048 1.419 . S
C1046 H1050 0.930 . S
C1047 C1046 1.369 . S
C1047 C1056 1.429 . S
C1048 C1046 1.419 . S
C1048 C1049 1.363 . S
C1048 H1051 0.929 . S
C1049 C1048 1.363 . S
C1049 C1055 1.428 . S
H1050 C1046 0.930 . S
H1051 C1048 0.929 . S
S1052 N1053 1.613 . S
S1052 N1054 1.610 . S
N1053 S1052 1.613 . S
N1053 C1056 1.350 . S
N1054 S1052 1.610 . S
N1054 C1055 1.351 . S
C1055 C1049 1.428 . S
C1055 N1054 1.351 . S
C1055 C1056 1.434 . S
C1056 C1047 1.429 . S
C1056 N1053 1.350 . S
C1056 C1055 1.434 . S
C1057 C1058 1.369 . S
C1057 C1059 1.419 1_545 S
C1057 H1061 0.930 . S
C1058 C1057 1.369 . S
C1058 C1067 1.429 . S
C1059 C1057 1.419 1_565 S
C1059 C1060 1.363 . S
C1059 H1062 0.929 . S
C1060 C1059 1.363 . S
C1060 C1066 1.428 . S
H1061 C1057 0.930 . S
H1062 C1059 0.929 . S
S1063 N1064 1.613 1_565 S
S1063 N1065 1.610 . S
N1064 S1063 1.613 1_545 S
N1064 C1067 1.350 . S
N1065 S1063 1.610 . S
N1065 C1066 1.351 . S
C1066 C1060 1.428 . S
C1066 N1065 1.351 . S
C1066 C1067 1.434 1_565 S
C1067 C1058 1.429 . S
C1067 N1064 1.350 . S
C1067 C1066 1.434 1_545 S
C1068 C1069 1.369 . S
C1068 C1070 1.419 . S
C1068 H1072 0.930 . S
C1069 C1068 1.369 . S
C1069 C1078 1.429 . S
C1070 C1068 1.419 . S
C1070 C1071 1.363 . S
C1070 H1073 0.929 . S
C1071 C1070 1.363 . S
C1071 C1077 1.428 . S
H1072 C1068 0.930 . S
H1073 C1070 0.929 . S
S1074 N1075 1.613 . S
S1074 N1076 1.610 . S
N1075 S1074 1.613 . S
N1075 C1078 1.350 . S
N1076 S1074 1.610 . S
N1076 C1077 1.351 . S
C1077 C1071 1.428 . S
C1077 N1076 1.351 . S
C1077 C1078 1.434 . S
C1078 C1069 1.429 . S
C1078 N1075 1.350 . S
C1078 C1077 1.434 . S
C1079 C1080 1.369 . S
C1079 C1081 1.419 1_565 S
C1079 H1083 0.930 . S
C1080 C1079 1.369 . S
C1080 C1089 1.429 . S
C1081 C1079 1.419 1_545 S
C1081 C1082 1.363 . S
C1081 H1084 0.929 . S
C1082 C1081 1.363 . S
C1082 C1088 1.428 . S
H1083 C1079 0.930 . S
H1084 C1081 0.929 . S
S1085 N1086 1.613 1_545 S
S1085 N1087 1.610 . S
N1086 S1085 1.613 1_565 S
N1086 C1089 1.350 . S
N1087 S1085 1.610 . S
N1087 C1088 1.351 . S
C1088 C1082 1.428 . S
C1088 N1087 1.351 . S
C1088 C1089 1.434 1_545 S
C1089 C1080 1.429 . S
C1089 N1086 1.350 . S
C1089 C1088 1.434 1_565 S
C1090 C1091 1.369 . S
C1090 C1092 1.419 . S
C1090 H1094 0.930 . S
C1091 C1090 1.369 . S
C1091 C1100 1.429 . S
C1092 C1090 1.419 . S
C1092 C1093 1.363 . S
C1092 H1095 0.929 . S
C1093 C1092 1.363 . S
C1093 C1099 1.428 . S
H1094 C1090 0.930 . S
H1095 C1092 0.929 . S
S1096 N1097 1.613 . S
S1096 N1098 1.610 . S
N1097 S1096 1.613 . S
N1097 C1100 1.350 . S
N1098 S1096 1.610 . S
N1098 C1099 1.351 . S
C1099 C1093 1.428 . S
C1099 N1098 1.351 . S
C1099 C1100 1.434 . S
C1100 C1091 1.429 . S
C1100 N1097 1.350 . S
C1100 C1099 1.434 . S
C1101 C1102 1.369 . S
C1101 C1103 1.419 1_565 S
C1101 H1105 0.930 . S
C1102 C1101 1.369 . S
C1102 C1111 1.429 . S
C1103 C1101 1.419 1_545 S
C1103 C1104 1.363 . S
C1103 H1106 0.929 . S
C1104 C1103 1.363 . S
C1104 C1110 1.428 . S
H1105 C1101 0.930 . S
H1106 C1103 0.929 . S
S1107 N1108 1.613 . S
S1107 N1109 1.610 1_565 S
N1108 S1107 1.613 . S
N1108 C1111 1.350 . S
N1109 S1107 1.610 1_545 S
N1109 C1110 1.351 . S
C1110 C1104 1.428 . S
C1110 N1109 1.351 . S
C1110 C1111 1.434 1_545 S
C1111 C1102 1.429 . S
C1111 N1108 1.350 . S
C1111 C1110 1.434 1_565 S
C1112 C1113 1.369 . S
C1112 C1114 1.419 . S
C1112 H1116 0.930 . S
C1113 C1112 1.369 . S
C1113 C1122 1.429 . S
C1114 C1112 1.419 . S
C1114 C1115 1.363 . S
C1114 H1117 0.929 . S
C1115 C1114 1.363 . S
C1115 C1121 1.428 . S
H1116 C1112 0.930 . S
H1117 C1114 0.929 . S
S1118 N1119 1.613 . S
S1118 N1120 1.610 . S
N1119 S1118 1.613 . S
N1119 C1122 1.350 . S
N1120 S1118 1.610 . S
N1120 C1121 1.351 . S
C1121 C1115 1.428 . S
C1121 N1120 1.351 . S
C1121 C1122 1.434 . S
C1122 C1113 1.429 . S
C1122 N1119 1.350 . S
C1122 C1121 1.434 . S
C1123 C1124 1.369 . S
C1123 C1125 1.419 . S
C1123 H1127 0.930 . S
C1124 C1123 1.369 . S
C1124 C1133 1.429 . S
C1125 C1123 1.419 . S
C1125 C1126 1.363 . S
C1125 H1128 0.929 . S
C1126 C1125 1.363 . S
C1126 C1132 1.428 . S
H1127 C1123 0.930 . S
H1128 C1125 0.929 . S
S1129 N1130 1.613 . S
S1129 N1131 1.610 . S
N1130 S1129 1.613 . S
N1130 C1133 1.350 . S
N1131 S1129 1.610 . S
N1131 C1132 1.351 . S
C1132 C1126 1.428 . S
C1132 N1131 1.351 . S
C1132 C1133 1.434 . S
C1133 C1124 1.429 . S
C1133 N1130 1.350 . S
C1133 C1132 1.434 . S
C1134 C1135 1.369 . S
C1134 C1136 1.419 1_455 S
C1134 H1138 0.930 . S
C1135 C1134 1.369 . S
C1135 C1144 1.429 . S
C1136 C1134 1.419 1_655 S
C1136 C1137 1.363 . S
C1136 H1139 0.929 . S
C1137 C1136 1.363 . S
C1137 C1143 1.428 . S
H1138 C1134 0.930 . S
H1139 C1136 0.929 . S
S1140 N1141 1.613 . S
S1140 N1142 1.610 1_455 S
N1141 S1140 1.613 . S
N1141 C1144 1.350 . S
N1142 S1140 1.610 1_655 S
N1142 C1143 1.351 . S
C1143 C1137 1.428 . S
C1143 N1142 1.351 . S
C1143 C1144 1.434 1_655 S
C1144 C1135 1.429 . S
C1144 N1141 1.350 . S
C1144 C1143 1.434 1_455 S
C1145 C1146 1.369 . S
C1145 C1147 1.419 . S
C1145 H1149 0.930 . S
C1146 C1145 1.369 . S
C1146 C1155 1.429 . S
C1147 C1145 1.419 . S
C1147 C1148 1.363 . S
C1147 H1150 0.929 . S
C1148 C1147 1.363 . S
C1148 C1154 1.428 . S
H1149 C1145 0.930 . S
H1150 C1147 0.929 . S
S1151 N1152 1.613 . S
S1151 N1153 1.610 . S
N1152 S1151 1.613 . S
N1152 C1155 1.350 . S
N1153 S1151 1.610 . S
N1153 C1154 1.351 . S
C1154 C1148 1.428 . S
C1154 N1153 1.351 . S
C1154 C1155 1.434 . S
C1155 C1146 1.429 . S
C1155 N1152 1.350 . S
C1155 C1154 1.434 . S
C1156 C1157 1.369 . S
C1156 C1158 1.419 1_455 S
C1156 H1160 0.930 . S
C1157 C1156 1.369 . S
C1157 C1166 1.429 . S
C1158 C1156 1.419 1_655 S
C1158 C1159 1.363 . S
C1158 H1161 0.929 . S
C1159 C1158 1.363 . S
C1159 C1165 1.428 . S
H1160 C1156 0.930 . S
H1161 C1158 0.929 . S
S1162 N1163 1.613 1_655 S
S1162 N1164 1.610 . S
N1163 S1162 1.613 1_455 S
N1163 C1166 1.350 . S
N1164 S1162 1.610 . S
N1164 C1165 1.351 . S
C1165 C1159 1.428 . S
C1165 N1164 1.351 . S
C1165 C1166 1.434 1_655 S
C1166 C1157 1.429 . S
C1166 N1163 1.350 . S
C1166 C1165 1.434 1_455 S
C1167 C1168 1.369 . S
C1167 C1169 1.419 . S
C1167 H1171 0.930 . S
C1168 C1167 1.369 . S
C1168 C1177 1.429 . S
C1169 C1167 1.419 . S
C1169 C1170 1.363 . S
C1169 H1172 0.929 . S
C1170 C1169 1.363 . S
C1170 C1176 1.428 . S
H1171 C1167 0.930 . S
H1172 C1169 0.929 . S
S1173 N1174 1.613 . S
S1173 N1175 1.610 . S
N1174 S1173 1.613 . S
N1174 C1177 1.350 . S
N1175 S1173 1.610 . S
N1175 C1176 1.351 . S
C1176 C1170 1.428 . S
C1176 N1175 1.351 . S
C1176 C1177 1.434 . S
C1177 C1168 1.429 . S
C1177 N1174 1.350 . S
C1177 C1176 1.434 . S
C1178 C1179 1.369 . S
C1178 C1180 1.419 1_655 S
C1178 H1182 0.930 . S
C1179 C1178 1.369 . S
C1179 C1188 1.429 . S
C1180 C1178 1.419 1_455 S
C1180 C1181 1.363 . S
C1180 H1183 0.929 . S
C1181 C1180 1.363 . S
C1181 C1187 1.428 . S
H1182 C1178 0.930 . S
H1183 C1180 0.929 . S
S1184 N1185 1.613 1_455 S
S1184 N1186 1.610 . S
N1185 S1184 1.613 1_655 S
N1185 C1188 1.350 . S
N1186 S1184 1.610 . S
N1186 C1187 1.351 . S
C1187 C1181 1.428 . S
C1187 N1186 1.351 . S
C1187 C1188 1.434 1_455 S
C1188 C1179 1.429 . S
C1188 N1185 1.350 . S
C1188 C1187 1.434 1_655 S
C1189 C1190 1.369 . S
C1189 C1191 1.419 1_455 S
C1189 H1193 0.930 . S
C1190 C1189 1.369 . S
C1190 C1199 1.429 . S
C1191 C1189 1.419 1_655 S
C1191 C1192 1.363 . S
C1191 H1194 0.929 . S
C1192 C1191 1.363 . S
C1192 C1198 1.428 . S
H1193 C1189 0.930 . S
H1194 C1191 0.929 . S
S1195 N1196 1.613 . S
S1195 N1197 1.610 1_455 S
N1196 S1195 1.613 . S
N1196 C1199 1.350 . S
N1197 S1195 1.610 1_655 S
N1197 C1198 1.351 . S
C1198 C1192 1.428 . S
C1198 N1197 1.351 . S
C1198 C1199 1.434 1_655 S
C1199 C1190 1.429 . S
C1199 N1196 1.350 . S
C1199 C1198 1.434 1_455 S
C1200 C1201 1.369 . S
C1200 C1202 1.419 1_655 S
C1200 H1204 0.930 . S
C1201 C1200 1.369 . S
C1201 C1210 1.429 . S
C1202 C1200 1.419 1_455 S
C1202 C1203 1.363 . S
C1202 H1205 0.929 . S
C1203 C1202 1.363 . S
C1203 C1209 1.428 . S
H1204 C1200 0.930 . S
H1205 C1202 0.929 . S
S1206 N1207 1.613 . S
S1206 N1208 1.610 1_655 S
N1207 S1206 1.613 . S
N1207 C1210 1.350 . S
N1208 S1206 1.610 1_455 S
N1208 C1209 1.351 . S
C1209 C1203 1.428 . S
C1209 N1208 1.351 . S
C1209 C1210 1.434 1_455 S
C1210 C1201 1.429 . S
C1210 N1207 1.350 . S
C1210 C1209 1.434 1_655 S
C1211 C1212 1.369 . S
C1211 C1213 1.419 . S
C1211 H1215 0.930 . S
C1212 C1211 1.369 . S
C1212 C1221 1.429 . S
C1213 C1211 1.419 . S
C1213 C1214 1.363 . S
C1213 H1216 0.929 . S
C1214 C1213 1.363 . S
C1214 C1220 1.428 . S
H1215 C1211 0.930 . S
H1216 C1213 0.929 . S
S1217 N1218 1.613 . S
S1217 N1219 1.610 . S
N1218 S1217 1.613 . S
N1218 C1221 1.350 . S
N1219 S1217 1.610 . S
N1219 C1220 1.351 . S
C1220 C1214 1.428 . S
C1220 N1219 1.351 . S
C1220 C1221 1.434 . S
C1221 C1212 1.429 . S
C1221 N1218 1.350 . S
C1221 C1220 1.434 . S
C1222 C1223 1.369 . S
C1222 C1224 1.419 1_455 S
C1222 H1226 0.930 . S
C1223 C1222 1.369 . S
C1223 C1232 1.429 . S
C1224 C1222 1.419 1_655 S
C1224 C1225 1.363 . S
C1224 H1227 0.929 . S
C1225 C1224 1.363 . S
C1225 C1231 1.428 . S
H1226 C1222 0.930 . S
H1227 C1224 0.929 . S
S1228 N1229 1.613 1_655 S
S1228 N1230 1.610 . S
N1229 S1228 1.613 1_455 S
N1229 C1232 1.350 . S
N1230 S1228 1.610 . S
N1230 C1231 1.351 . S
C1231 C1225 1.428 . S
C1231 N1230 1.351 . S
C1231 C1232 1.434 1_655 S
C1232 C1223 1.429 . S
C1232 N1229 1.350 . S
C1232 C1231 1.434 1_455 S
C1233 C1234 1.369 . S
C1233 C1235 1.419 . S
C1233 H1237 0.930 . S
C1234 C1233 1.369 . S
C1234 C1243 1.429 . S
C1235 C1233 1.419 . S
C1235 C1236 1.363 . S
C1235 H1238 0.929 . S
C1236 C1235 1.363 . S
C1236 C1242 1.428 . S
H1237 C1233 0.930 . S
H1238 C1235 0.929 . S
S1239 N1240 1.613 . S
S1239 N1241 1.610 . S
N1240 S1239 1.613 . S
N1240 C1243 1.350 . S
N1241 S1239 1.610 . S
N1241 C1242 1.351 . S
C1242 C1236 1.428 . S
C1242 N1241 1.351 . S
C1242 C1243 1.434 . S
C1243 C1234 1.429 . S
C1243 N1240 1.350 . S
C1243 C1242 1.434 . S
C1244 C1245 1.369 . S
C1244 C1246 1.419 1_655 S
C1244 H1248 0.930 . S
C1245 C1244 1.369 . S
C1245 C1254 1.429 . S
C1246 C1244 1.419 1_455 S
C1246 C1247 1.363 . S
C1246 H1249 0.929 . S
C1247 C1246 1.363 . S
C1247 C1253 1.428 . S
H1248 C1244 0.930 . S
H1249 C1246 0.929 . S
S1250 N1251 1.613 1_455 S
S1250 N1252 1.610 . S
N1251 S1250 1.613 1_655 S
N1251 C1254 1.350 . S
N1252 S1250 1.610 . S
N1252 C1253 1.351 . S
C1253 C1247 1.428 . S
C1253 N1252 1.351 . S
C1253 C1254 1.434 1_455 S
C1254 C1245 1.429 . S
C1254 N1251 1.350 . S
C1254 C1253 1.434 1_655 S
C1255 C1256 1.369 . S
C1255 C1257 1.419 . S
C1255 H1259 0.930 . S
C1256 C1255 1.369 . S
C1256 C1265 1.429 . S
C1257 C1255 1.419 . S
C1257 C1258 1.363 . S
C1257 H1260 0.929 . S
C1258 C1257 1.363 . S
C1258 C1264 1.428 . S
H1259 C1255 0.930 . S
H1260 C1257 0.929 . S
S1261 N1262 1.613 . S
S1261 N1263 1.610 . S
N1262 S1261 1.613 . S
N1262 C1265 1.350 . S
N1263 S1261 1.610 . S
N1263 C1264 1.351 . S
C1264 C1258 1.428 . S
C1264 N1263 1.351 . S
C1264 C1265 1.434 . S
C1265 C1256 1.429 . S
C1265 N1262 1.350 . S
C1265 C1264 1.434 . S
C1266 C1267 1.369 . S
C1266 C1268 1.419 1_655 S
C1266 H1270 0.930 . S
C1267 C1266 1.369 . S
C1267 C1276 1.429 . S
C1268 C1266 1.419 1_455 S
C1268 C1269 1.363 . S
C1268 H1271 0.929 . S
C1269 C1268 1.363 . S
C1269 C1275 1.428 . S
H1270 C1266 0.930 . S
H1271 C1268 0.929 . S
S1272 N1273 1.586 1_455 S
S1272 N1274 1.637 . S
N1273 S1272 1.586 1_655 S
N1273 C1276 1.350 . S
N1274 S1272 1.637 . S
N1274 C1275 1.351 . S
C1275 C1269 1.428 . S
C1275 N1274 1.351 . S
C1275 C1276 1.434 1_455 S
C1276 C1267 1.429 . S
C1276 N1273 1.350 . S
C1276 C1275 1.434 1_655 S
C1277 C1278 1.369 . S
C1277 C1279 1.419 . S
C1277 H1281 0.930 . S
C1278 C1277 1.369 . S
C1278 C1287 1.429 . S
C1279 C1277 1.419 . S
C1279 C1280 1.363 . S
C1279 H1282 0.929 . S
C1280 C1279 1.363 . S
C1280 C1286 1.428 . S
H1281 C1277 0.930 . S
H1282 C1279 0.929 . S
S1283 N1284 1.613 . S
S1283 N1285 1.610 . S
N1284 S1283 1.613 . S
N1284 C1287 1.350 . S
N1285 S1283 1.610 . S
N1285 C1286 1.351 . S
C1286 C1280 1.428 . S
C1286 N1285 1.351 . S
C1286 C1287 1.434 . S
C1287 C1278 1.429 . S
C1287 N1284 1.350 . S
C1287 C1286 1.434 . S
C1288 C1289 1.369 . S
C1288 C1290 1.419 1_545 S
C1288 H1292 0.930 . S
C1289 C1288 1.369 . S
C1289 C1298 1.429 . S
C1290 C1288 1.419 1_565 S
C1290 C1291 1.363 . S
C1290 H1293 0.929 . S
C1291 C1290 1.363 . S
C1291 C1297 1.428 . S
H1292 C1288 0.930 . S
H1293 C1290 0.929 . S
S1294 N1295 1.613 1_565 S
S1294 N1296 1.610 . S
N1295 S1294 1.613 1_545 S
N1295 C1298 1.350 . S
N1296 S1294 1.610 . S
N1296 C1297 1.351 . S
C1297 C1291 1.428 . S
C1297 N1296 1.351 . S
C1297 C1298 1.434 1_565 S
C1298 C1289 1.429 . S
C1298 N1295 1.350 . S
C1298 C1297 1.434 1_545 S
C1299 C1300 1.369 . S
C1299 C1301 1.419 . S
C1299 H1303 0.930 . S
C1300 C1299 1.369 . S
C1300 C1309 1.429 . S
C1301 C1299 1.419 . S
C1301 C1302 1.363 . S
C1301 H1304 0.929 . S
C1302 C1301 1.363 . S
C1302 C1308 1.428 . S
H1303 C1299 0.930 . S
H1304 C1301 0.929 . S
S1305 N1306 1.613 . S
S1305 N1307 1.610 . S
N1306 S1305 1.613 . S
N1306 C1309 1.350 . S
N1307 S1305 1.610 . S
N1307 C1308 1.351 . S
C1308 C1302 1.428 . S
C1308 N1307 1.351 . S
C1308 C1309 1.434 . S
C1309 C1300 1.429 . S
C1309 N1306 1.350 . S
C1309 C1308 1.434 . S
C1310 C1311 1.369 . S
C1310 C1312 1.419 1_545 S
C1310 H1314 0.930 . S
C1311 C1310 1.369 . S
C1311 C1320 1.429 . S
C1312 C1310 1.419 1_565 S
C1312 C1313 1.363 . S
C1312 H1315 0.929 . S
C1313 C1312 1.363 . S
C1313 C1319 1.428 . S
H1314 C1310 0.930 . S
H1315 C1312 0.929 . S
S1316 N1317 1.613 1_565 S
S1316 N1318 1.610 . S
N1317 S1316 1.613 1_545 S
N1317 C1320 1.350 . S
N1318 S1316 1.610 . S
N1318 C1319 1.351 . S
C1319 C1313 1.428 . S
C1319 N1318 1.351 . S
C1319 C1320 1.434 1_565 S
C1320 C1311 1.429 . S
C1320 N1317 1.350 . S
C1320 C1319 1.434 1_545 S
C1321 C1322 1.369 . S
C1321 C1323 1.419 . S
C1321 H1325 0.930 . S
C1322 C1321 1.369 . S
C1322 C1331 1.429 . S
C1323 C1321 1.419 . S
C1323 C1324 1.363 . S
C1323 H1326 0.929 . S
C1324 C1323 1.363 . S
C1324 C1330 1.428 . S
H1325 C1321 0.930 . S
H1326 C1323 0.929 . S
S1327 N1328 1.613 . S
S1327 N1329 1.610 . S
N1328 S1327 1.613 . S
N1328 C1331 1.350 . S
N1329 S1327 1.610 . S
N1329 C1330 1.351 . S
C1330 C1324 1.428 . S
C1330 N1329 1.351 . S
C1330 C1331 1.434 . S
C1331 C1322 1.429 . S
C1331 N1328 1.350 . S
C1331 C1330 1.434 . S
C1332 C1333 1.369 . S
C1332 C1334 1.419 1_545 S
C1332 H1336 0.930 . S
C1333 C1332 1.369 . S
C1333 C1342 1.429 . S
C1334 C1332 1.419 1_565 S
C1334 C1335 1.363 . S
C1334 H1337 0.929 . S
C1335 C1334 1.363 . S
C1335 C1341 1.428 . S
H1336 C1332 0.930 . S
H1337 C1334 0.929 . S
S1338 N1339 1.616 1_565 S
S1338 N1340 1.607 . S
N1339 S1338 1.616 1_545 S
N1339 C1342 1.350 . S
N1340 S1338 1.607 . S
N1340 C1341 1.351 . S
C1341 C1335 1.428 . S
C1341 N1340 1.351 . S
C1341 C1342 1.434 1_565 S
C1342 C1333 1.429 . S
C1342 N1339 1.350 . S
C1342 C1341 1.434 1_545 S
C1343 C1344 1.369 . S
C1343 C1345 1.419 . S
C1343 H1347 0.930 . S
C1344 C1343 1.369 . S
C1344 C1353 1.429 . S
C1345 C1343 1.419 . S
C1345 C1346 1.363 . S
C1345 H1348 0.929 . S
C1346 C1345 1.363 . S
C1346 C1352 1.428 . S
H1347 C1343 0.930 . S
H1348 C1345 0.929 . S
S1349 N1350 1.613 . S
S1349 N1351 1.610 . S
N1350 S1349 1.613 . S
N1350 C1353 1.350 . S
N1351 S1349 1.610 . S
N1351 C1352 1.351 . S
C1352 C1346 1.428 . S
C1352 N1351 1.351 . S
C1352 C1353 1.434 . S
C1353 C1344 1.429 . S
C1353 N1350 1.350 . S
C1353 C1352 1.434 . S
C1354 C1355 1.369 . S
C1354 C1356 1.419 1_545 S
C1354 H1358 0.930 . S
C1355 C1354 1.369 . S
C1355 C1364 1.429 . S
C1356 C1354 1.419 1_565 S
C1356 C1357 1.363 . S
C1356 H1359 0.929 . S
C1357 C1356 1.363 . S
C1357 C1363 1.428 . S
H1358 C1354 0.930 . S
H1359 C1356 0.929 . S
S1360 N1361 1.613 1_565 S
S1360 N1362 1.610 . S
N1361 S1360 1.613 1_545 S
N1361 C1364 1.350 . S
N1362 S1360 1.610 . S
N1362 C1363 1.351 . S
C1363 C1357 1.428 . S
C1363 N1362 1.351 . S
C1363 C1364 1.434 1_565 S
C1364 C1355 1.429 . S
C1364 N1361 1.350 . S
C1364 C1363 1.434 1_545 S
C1365 C1366 1.369 . S
C1365 C1367 1.419 . S
C1365 H1369 0.930 . S
C1366 C1365 1.369 . S
C1366 C1375 1.429 . S
C1367 C1365 1.419 . S
C1367 C1368 1.363 . S
C1367 H1370 0.929 . S
C1368 C1367 1.363 . S
C1368 C1374 1.428 . S
H1369 C1365 0.930 . S
H1370 C1367 0.929 . S
S1371 N1372 1.613 . S
S1371 N1373 1.610 . S
N1372 S1371 1.613 . S
N1372 C1375 1.350 . S
N1373 S1371 1.610 . S
N1373 C1374 1.351 . S
C1374 C1368 1.428 . S
C1374 N1373 1.351 . S
C1374 C1375 1.434 . S
C1375 C1366 1.429 . S
C1375 N1372 1.350 . S
C1375 C1374 1.434 . S
C1376 C1377 1.369 . S
C1376 C1378 1.419 1_556 S
C1376 H1380 0.930 . S
C1377 C1376 1.369 . S
C1377 C1386 1.429 . S
C1378 C1376 1.419 1_554 S
C1378 C1379 1.363 . S
C1378 H1381 0.929 . S
C1379 C1378 1.363 . S
C1379 C1385 1.428 . S
H1380 C1376 0.930 . S
H1381 C1378 0.929 . S
S1382 N1383 1.639 . S
S1382 N1384 1.586 1_556 S
N1383 S1382 1.639 . S
N1383 C1386 1.350 . S
N1384 S1382 1.586 1_554 S
N1384 C1385 1.351 . S
C1385 C1379 1.428 . S
C1385 N1384 1.351 . S
C1385 C1386 1.434 1_554 S
C1386 C1377 1.429 . S
C1386 N1383 1.350 . S
C1386 C1385 1.434 1_556 S
C1387 C1388 1.369 . S
C1387 C1389 1.419 1_556 S
C1387 H1391 0.930 . S
C1388 C1387 1.369 . S
C1388 C1397 1.429 . S
C1389 C1387 1.419 1_554 S
C1389 C1390 1.363 . S
C1389 H1392 0.929 . S
C1390 C1389 1.363 . S
C1390 C1396 1.428 . S
H1391 C1387 0.930 . S
H1392 C1389 0.929 . S
S1393 N1394 1.613 . S
S1393 N1395 1.610 1_556 S
N1394 S1393 1.613 . S
N1394 C1397 1.350 . S
N1395 S1393 1.610 1_554 S
N1395 C1396 1.351 . S
C1396 C1390 1.428 . S
C1396 N1395 1.351 . S
C1396 C1397 1.434 1_554 S
C1397 C1388 1.429 . S
C1397 N1394 1.350 . S
C1397 C1396 1.434 1_556 S
C1398 C1399 1.369 . S
C1398 C1400 1.419 . S
C1398 H1402 0.930 . S
C1399 C1398 1.369 . S
C1399 C1408 1.429 . S
C1400 C1398 1.419 . S
C1400 C1401 1.363 . S
C1400 H1403 0.929 . S
C1401 C1400 1.363 . S
C1401 C1407 1.428 . S
H1402 C1398 0.930 . S
H1403 C1400 0.929 . S
S1404 N1405 1.613 . S
S1404 N1406 1.610 . S
N1405 S1404 1.613 . S
N1405 C1408 1.350 . S
N1406 S1404 1.610 . S
N1406 C1407 1.351 . S
C1407 C1401 1.428 . S
C1407 N1406 1.351 . S
C1407 C1408 1.434 . S
C1408 C1399 1.429 . S
C1408 N1405 1.350 . S
C1408 C1407 1.434 . S
C1409 C1410 1.369 . S
C1409 C1411 1.419 1_556 S
C1409 H1413 0.930 . S
C1410 C1409 1.369 . S
C1410 C1419 1.429 . S
C1411 C1409 1.419 1_554 S
C1411 C1412 1.363 . S
C1411 H1414 0.929 . S
C1412 C1411 1.363 . S
C1412 C1418 1.428 . S
H1413 C1409 0.930 . S
H1414 C1411 0.929 . S
S1415 N1416 1.613 1_554 S
S1415 N1417 1.610 . S
N1416 S1415 1.613 1_556 S
N1416 C1419 1.350 . S
N1417 S1415 1.610 . S
N1417 C1418 1.351 . S
C1418 C1412 1.428 . S
C1418 N1417 1.351 . S
C1418 C1419 1.434 1_554 S
C1419 C1410 1.429 . S
C1419 N1416 1.350 . S
C1419 C1418 1.434 1_556 S
C1420 C1421 1.369 . S
C1420 C1422 1.419 . S
C1420 H1424 0.930 . S
C1421 C1420 1.369 . S
C1421 C1430 1.429 . S
C1422 C1420 1.419 . S
C1422 C1423 1.363 . S
C1422 H1425 0.929 . S
C1423 C1422 1.363 . S
C1423 C1429 1.428 . S
H1424 C1420 0.930 . S
H1425 C1422 0.929 . S
S1426 N1427 1.613 . S
S1426 N1428 1.610 . S
N1427 S1426 1.613 . S
N1427 C1430 1.350 . S
N1428 S1426 1.610 . S
N1428 C1429 1.351 . S
C1429 C1423 1.428 . S
C1429 N1428 1.351 . S
C1429 C1430 1.434 . S
C1430 C1421 1.429 . S
C1430 N1427 1.350 . S
C1430 C1429 1.434 . S
C1431 C1432 1.369 . S
C1431 C1433 1.419 1_556 S
C1431 H1435 0.930 . S
C1432 C1431 1.369 . S
C1432 C1441 1.429 . S
C1433 C1431 1.419 1_554 S
C1433 C1434 1.363 . S
C1433 H1436 0.929 . S
C1434 C1433 1.363 . S
C1434 C1440 1.428 . S
H1435 C1431 0.930 . S
H1436 C1433 0.929 . S
S1437 N1438 1.613 1_554 S
S1437 N1439 1.610 . S
N1438 S1437 1.613 1_556 S
N1438 C1441 1.350 . S
N1439 S1437 1.610 . S
N1439 C1440 1.351 . S
C1440 C1434 1.428 . S
C1440 N1439 1.351 . S
C1440 C1441 1.434 1_554 S
C1441 C1432 1.429 . S
C1441 N1438 1.350 . S
C1441 C1440 1.434 1_556 S
C1442 C1443 1.369 . S
C1442 C1444 1.419 . S
C1442 H1446 0.930 . S
C1443 C1442 1.369 . S
C1443 C1452 1.429 . S
C1444 C1442 1.419 . S
C1444 C1445 1.363 . S
C1444 H1447 0.929 . S
C1445 C1444 1.363 . S
C1445 C1451 1.428 . S
H1446 C1442 0.930 . S
H1447 C1444 0.929 . S
S1448 N1449 1.613 . S
S1448 N1450 1.610 . S
N1449 S1448 1.613 . S
N1449 C1452 1.350 . S
N1450 S1448 1.610 . S
N1450 C1451 1.351 . S
C1451 C1445 1.428 . S
C1451 N1450 1.351 . S
C1451 C1452 1.434 . S
C1452 C1443 1.429 . S
C1452 N1449 1.350 . S
C1452 C1451 1.434 . S
C1453 C1454 1.369 . S
C1453 C1455 1.419 . S
C1453 H1457 0.930 . S
C1454 C1453 1.369 . S
C1454 C1463 1.429 . S
C1455 C1453 1.419 . S
C1455 C1456 1.363 . S
C1455 H1458 0.929 . S
C1456 C1455 1.363 . S
C1456 C1462 1.428 . S
H1457 C1453 0.930 . S
H1458 C1455 0.929 . S
S1459 N1460 1.613 . S
S1459 N1461 1.610 . S
N1460 S1459 1.613 . S
N1460 C1463 1.350 . S
N1461 S1459 1.610 . S
N1461 C1462 1.351 . S
C1462 C1456 1.428 . S
C1462 N1461 1.351 . S
C1462 C1463 1.434 . S
C1463 C1454 1.429 . S
C1463 N1460 1.350 . S
C1463 C1462 1.434 . S
C1464 C1465 1.369 . S
C1464 C1466 1.419 . S
C1464 H1468 0.930 . S
C1465 C1464 1.369 . S
C1465 C1474 1.429 . S
C1466 C1464 1.419 . S
C1466 C1467 1.363 . S
C1466 H1469 0.929 . S
C1467 C1466 1.363 . S
C1467 C1473 1.428 . S
H1468 C1464 0.930 . S
H1469 C1466 0.929 . S
S1470 N1471 1.613 . S
S1470 N1472 1.610 . S
N1471 S1470 1.613 . S
N1471 C1474 1.350 . S
N1472 S1470 1.610 . S
N1472 C1473 1.351 . S
C1473 C1467 1.428 . S
C1473 N1472 1.351 . S
C1473 C1474 1.434 . S
C1474 C1465 1.429 . S
C1474 N1471 1.350 . S
C1474 C1473 1.434 . S
C1475 C1476 1.369 . S
C1475 C1477 1.419 . S
C1475 H1479 0.930 . S
C1476 C1475 1.369 . S
C1476 C1485 1.429 . S
C1477 C1475 1.419 . S
C1477 C1478 1.363 . S
C1477 H1480 0.929 . S
C1478 C1477 1.363 . S
C1478 C1484 1.428 . S
H1479 C1475 0.930 . S
H1480 C1477 0.929 . S
S1481 N1482 1.613 . S
S1481 N1483 1.610 . S
N1482 S1481 1.613 . S
N1482 C1485 1.350 . S
N1483 S1481 1.610 . S
N1483 C1484 1.351 . S
C1484 C1478 1.428 . S
C1484 N1483 1.351 . S
C1484 C1485 1.434 . S
C1485 C1476 1.429 . S
C1485 N1482 1.350 . S
C1485 C1484 1.434 . S
C1486 C1487 1.369 . S
C1486 C1488 1.419 . S
C1486 H1490 0.930 . S
C1487 C1486 1.369 . S
C1487 C1496 1.429 . S
C1488 C1486 1.419 . S
C1488 C1489 1.363 . S
C1488 H1491 0.929 . S
C1489 C1488 1.363 . S
C1489 C1495 1.428 . S
H1490 C1486 0.930 . S
H1491 C1488 0.929 . S
S1492 N1493 1.613 . S
S1492 N1494 1.610 . S
N1493 S1492 1.613 . S
N1493 C1496 1.350 . S
N1494 S1492 1.610 . S
N1494 C1495 1.351 . S
C1495 C1489 1.428 . S
C1495 N1494 1.351 . S
C1495 C1496 1.434 . S
C1496 C1487 1.429 . S
C1496 N1493 1.350 . S
C1496 C1495 1.434 . S
C1497 C1498 1.369 . S
C1497 C1499 1.419 . S
C1497 H1501 0.930 . S
C1498 C1497 1.369 . S
C1498 C1507 1.429 . S
C1499 C1497 1.419 . S
C1499 C1500 1.363 . S
C1499 H1502 0.929 . S
C1500 C1499 1.363 . S
C1500 C1506 1.428 . S
H1501 C1497 0.930 . S
H1502 C1499 0.929 . S
S1503 N1504 1.613 . S
S1503 N1505 1.610 . S
N1504 S1503 1.613 . S
N1504 C1507 1.350 . S
N1505 S1503 1.610 . S
N1505 C1506 1.351 . S
C1506 C1500 1.428 . S
C1506 N1505 1.351 . S
C1506 C1507 1.434 . S
C1507 C1498 1.429 . S
C1507 N1504 1.350 . S
C1507 C1506 1.434 . S
C1508 C1509 1.369 . S
C1508 C1510 1.419 . S
C1508 H1512 0.930 . S
C1509 C1508 1.369 . S
C1509 C1518 1.429 . S
C1510 C1508 1.419 . S
C1510 C1511 1.363 . S
C1510 H1513 0.929 . S
C1511 C1510 1.363 . S
C1511 C1517 1.428 . S
H1512 C1508 0.930 . S
H1513 C1510 0.929 . S
S1514 N1515 1.613 . S
S1514 N1516 1.610 . S
N1515 S1514 1.613 . S
N1515 C1518 1.350 . S
N1516 S1514 1.610 . S
N1516 C1517 1.351 . S
C1517 C1511 1.428 . S
C1517 N1516 1.351 . S
C1517 C1518 1.434 . S
C1518 C1509 1.429 . S
C1518 N1515 1.350 . S
C1518 C1517 1.434 . S
C1519 C1520 1.369 . S
C1519 C1521 1.419 . S
C1519 H1523 0.930 . S
C1520 C1519 1.369 . S
C1520 C1529 1.429 . S
C1521 C1519 1.419 . S
C1521 C1522 1.363 . S
C1521 H1524 0.929 . S
C1522 C1521 1.363 . S
C1522 C1528 1.428 . S
H1523 C1519 0.930 . S
H1524 C1521 0.929 . S
S1525 N1526 1.613 . S
S1525 N1527 1.610 . S
N1526 S1525 1.613 . S
N1526 C1529 1.350 . S
N1527 S1525 1.610 . S
N1527 C1528 1.351 . S
C1528 C1522 1.428 . S
C1528 N1527 1.351 . S
C1528 C1529 1.434 . S
C1529 C1520 1.429 . S
C1529 N1526 1.350 . S
C1529 C1528 1.434 . S
C1530 C1531 1.369 . S
C1530 C1532 1.419 . S
C1530 H1534 0.930 . S
C1531 C1530 1.369 . S
C1531 C1540 1.429 . S
C1532 C1530 1.419 . S
C1532 C1533 1.363 . S
C1532 H1535 0.929 . S
C1533 C1532 1.363 . S
C1533 C1539 1.428 . S
H1534 C1530 0.930 . S
H1535 C1532 0.929 . S
S1536 N1537 1.613 . S
S1536 N1538 1.610 . S
N1537 S1536 1.613 . S
N1537 C1540 1.350 . S
N1538 S1536 1.610 . S
N1538 C1539 1.351 . S
C1539 C1533 1.428 . S
C1539 N1538 1.351 . S
C1539 C1540 1.434 . S
C1540 C1531 1.429 . S
C1540 N1537 1.350 . S
C1540 C1539 1.434 . S
C1541 C1542 1.369 . S
C1541 C1543 1.419 . S
C1541 H1545 0.930 . S
C1542 C1541 1.369 . S
C1542 C1551 1.429 . S
C1543 C1541 1.419 . S
C1543 C1544 1.363 . S
C1543 H1546 0.929 . S
C1544 C1543 1.363 . S
C1544 C1550 1.428 . S
H1545 C1541 0.930 . S
H1546 C1543 0.929 . S
S1547 N1548 1.613 . S
S1547 N1549 1.610 . S
N1548 S1547 1.613 . S
N1548 C1551 1.350 . S
N1549 S1547 1.610 . S
N1549 C1550 1.351 . S
C1550 C1544 1.428 . S
C1550 N1549 1.351 . S
C1550 C1551 1.434 . S
C1551 C1542 1.429 . S
C1551 N1548 1.350 . S
C1551 C1550 1.434 . S
C1552 C1553 1.369 . S
C1552 C1554 1.419 . S
C1552 H1556 0.930 . S
C1553 C1552 1.369 . S
C1553 C1562 1.429 . S
C1554 C1552 1.419 . S
C1554 C1555 1.363 . S
C1554 H1557 0.929 . S
C1555 C1554 1.363 . S
C1555 C1561 1.428 . S
H1556 C1552 0.930 . S
H1557 C1554 0.929 . S
S1558 N1559 1.613 . S
S1558 N1560 1.610 . S
N1559 S1558 1.613 . S
N1559 C1562 1.350 . S
N1560 S1558 1.610 . S
N1560 C1561 1.351 . S
C1561 C1555 1.428 . S
C1561 N1560 1.351 . S
C1561 C1562 1.434 . S
C1562 C1553 1.429 . S
C1562 N1559 1.350 . S
C1562 C1561 1.434 . S
C1563 C1564 1.369 . S
C1563 C1565 1.419 . S
C1563 H1567 0.930 . S
C1564 C1563 1.369 . S
C1564 C1573 1.429 . S
C1565 C1563 1.419 . S
C1565 C1566 1.363 . S
C1565 H1568 0.929 . S
C1566 C1565 1.363 . S
C1566 C1572 1.428 . S
H1567 C1563 0.930 . S
H1568 C1565 0.929 . S
S1569 N1570 1.613 . S
S1569 N1571 1.610 . S
N1570 S1569 1.613 . S
N1570 C1573 1.350 . S
N1571 S1569 1.610 . S
N1571 C1572 1.351 . S
C1572 C1566 1.428 . S
C1572 N1571 1.351 . S
C1572 C1573 1.434 . S
C1573 C1564 1.429 . S
C1573 N1570 1.350 . S
C1573 C1572 1.434 . S
C1574 C1575 1.369 . S
C1574 C1576 1.419 . S
C1574 H1578 0.930 . S
C1575 C1574 1.369 . S
C1575 C1584 1.429 . S
C1576 C1574 1.419 . S
C1576 C1577 1.363 . S
C1576 H1579 0.929 . S
C1577 C1576 1.363 . S
C1577 C1583 1.428 . S
H1578 C1574 0.930 . S
H1579 C1576 0.929 . S
S1580 N1581 1.613 . S
S1580 N1582 1.610 . S
N1581 S1580 1.613 . S
N1581 C1584 1.350 . S
N1582 S1580 1.610 . S
N1582 C1583 1.351 . S
C1583 C1577 1.428 . S
C1583 N1582 1.351 . S
C1583 C1584 1.434 . S
C1584 C1575 1.429 . S
C1584 N1581 1.350 . S
C1584 C1583 1.434 . S
C1585 C1586 1.369 . S
C1585 C1587 1.419 . S
C1585 H1589 0.930 . S
C1586 C1585 1.369 . S
C1586 C1595 1.429 . S
C1587 C1585 1.419 . S
C1587 C1588 1.363 . S
C1587 H1590 0.929 . S
C1588 C1587 1.363 . S
C1588 C1594 1.428 . S
H1589 C1585 0.930 . S
H1590 C1587 0.929 . S
S1591 N1592 1.613 . S
S1591 N1593 1.610 . S
N1592 S1591 1.613 . S
N1592 C1595 1.350 . S
N1593 S1591 1.610 . S
N1593 C1594 1.351 . S
C1594 C1588 1.428 . S
C1594 N1593 1.351 . S
C1594 C1595 1.434 . S
C1595 C1586 1.429 . S
C1595 N1592 1.350 . S
C1595 C1594 1.434 . S
C1596 C1597 1.369 . S
C1596 C1598 1.419 . S
C1596 H1600 0.930 . S
C1597 C1596 1.369 . S
C1597 C1606 1.429 . S
C1598 C1596 1.419 . S
C1598 C1599 1.363 . S
C1598 H1601 0.929 . S
C1599 C1598 1.363 . S
C1599 C1605 1.428 . S
H1600 C1596 0.930 . S
H1601 C1598 0.929 . S
S1602 N1603 1.613 . S
S1602 N1604 1.610 . S
N1603 S1602 1.613 . S
N1603 C1606 1.350 . S
N1604 S1602 1.610 . S
N1604 C1605 1.351 . S
C1605 C1599 1.428 . S
C1605 N1604 1.351 . S
C1605 C1606 1.434 . S
C1606 C1597 1.429 . S
C1606 N1603 1.350 . S
C1606 C1605 1.434 . S
C1607 C1608 1.369 . S
C1607 C1609 1.419 . S
C1607 H1611 0.930 . S
C1608 C1607 1.369 . S
C1608 C1617 1.429 . S
C1609 C1607 1.419 . S
C1609 C1610 1.363 . S
C1609 H1612 0.929 . S
C1610 C1609 1.363 . S
C1610 C1616 1.428 . S
H1611 C1607 0.930 . S
H1612 C1609 0.929 . S
S1613 N1614 1.613 . S
S1613 N1615 1.610 . S
N1614 S1613 1.613 . S
N1614 C1617 1.350 . S
N1615 S1613 1.610 . S
N1615 C1616 1.351 . S
C1616 C1610 1.428 . S
C1616 N1615 1.351 . S
C1616 C1617 1.434 . S
C1617 C1608 1.429 . S
C1617 N1614 1.350 . S
C1617 C1616 1.434 . S
C1618 C1619 1.369 . S
C1618 C1620 1.419 . S
C1618 H1622 0.930 . S
C1619 C1618 1.369 . S
C1619 C1628 1.429 . S
C1620 C1618 1.419 . S
C1620 C1621 1.363 . S
C1620 H1623 0.929 . S
C1621 C1620 1.363 . S
C1621 C1627 1.428 . S
H1622 C1618 0.930 . S
H1623 C1620 0.929 . S
S1624 N1625 1.613 . S
S1624 N1626 1.610 . S
N1625 S1624 1.613 . S
N1625 C1628 1.350 . S
N1626 S1624 1.610 . S
N1626 C1627 1.351 . S
C1627 C1621 1.428 . S
C1627 N1626 1.351 . S
C1627 C1628 1.434 . S
C1628 C1619 1.429 . S
C1628 N1625 1.350 . S
C1628 C1627 1.434 . S
C1629 C1630 1.369 . S
C1629 C1631 1.419 . S
C1629 H1633 0.930 . S
C1630 C1629 1.369 . S
C1630 C1639 1.429 . S
C1631 C1629 1.419 . S
C1631 C1632 1.363 . S
C1631 H1634 0.929 . S
C1632 C1631 1.363 . S
C1632 C1638 1.428 . S
H1633 C1629 0.930 . S
H1634 C1631 0.929 . S
S1635 N1636 1.613 . S
S1635 N1637 1.610 . S
N1636 S1635 1.613 . S
N1636 C1639 1.350 . S
N1637 S1635 1.610 . S
N1637 C1638 1.351 . S
C1638 C1632 1.428 . S
C1638 N1637 1.351 . S
C1638 C1639 1.434 . S
C1639 C1630 1.429 . S
C1639 N1636 1.350 . S
C1639 C1638 1.434 . S
C1640 C1641 1.369 . S
C1640 C1642 1.419 . S
C1640 H1644 0.930 . S
C1641 C1640 1.369 . S
C1641 C1650 1.429 . S
C1642 C1640 1.419 . S
C1642 C1643 1.363 . S
C1642 H1645 0.929 . S
C1643 C1642 1.363 . S
C1643 C1649 1.428 . S
H1644 C1640 0.930 . S
H1645 C1642 0.929 . S
S1646 N1647 1.613 . S
S1646 N1648 1.610 . S
N1647 S1646 1.613 . S
N1647 C1650 1.350 . S
N1648 S1646 1.610 . S
N1648 C1649 1.351 . S
C1649 C1643 1.428 . S
C1649 N1648 1.351 . S
C1649 C1650 1.434 . S
C1650 C1641 1.429 . S
C1650 N1647 1.350 . S
C1650 C1649 1.434 . S
C1651 C1652 1.369 . S
C1651 C1653 1.419 . S
C1651 H1655 0.930 . S
C1652 C1651 1.369 . S
C1652 C1661 1.429 . S
C1653 C1651 1.419 . S
C1653 C1654 1.363 . S
C1653 H1656 0.929 . S
C1654 C1653 1.363 . S
C1654 C1660 1.428 . S
H1655 C1651 0.930 . S
H1656 C1653 0.929 . S
S1657 N1658 1.613 . S
S1657 N1659 1.610 . S
N1658 S1657 1.613 . S
N1658 C1661 1.350 . S
N1659 S1657 1.610 . S
N1659 C1660 1.351 . S
C1660 C1654 1.428 . S
C1660 N1659 1.351 . S
C1660 C1661 1.434 . S
C1661 C1652 1.429 . S
C1661 N1658 1.350 . S
C1661 C1660 1.434 . S
C1662 C1663 1.369 . S
C1662 C1664 1.419 . S
C1662 H1666 0.930 . S
C1663 C1662 1.369 . S
C1663 C1672 1.429 . S
C1664 C1662 1.419 . S
C1664 C1665 1.363 . S
C1664 H1667 0.929 . S
C1665 C1664 1.363 . S
C1665 C1671 1.428 . S
H1666 C1662 0.930 . S
H1667 C1664 0.929 . S
S1668 N1669 1.613 . S
S1668 N1670 1.610 . S
N1669 S1668 1.613 . S
N1669 C1672 1.350 . S
N1670 S1668 1.610 . S
N1670 C1671 1.351 . S
C1671 C1665 1.428 . S
C1671 N1670 1.351 . S
C1671 C1672 1.434 . S
C1672 C1663 1.429 . S
C1672 N1669 1.350 . S
C1672 C1671 1.434 . S
C1673 C1674 1.369 . S
C1673 C1675 1.419 . S
C1673 H1677 0.930 . S
C1674 C1673 1.369 . S
C1674 C1683 1.429 . S
C1675 C1673 1.419 . S
C1675 C1676 1.363 . S
C1675 H1678 0.929 . S
C1676 C1675 1.363 . S
C1676 C1682 1.428 . S
H1677 C1673 0.930 . S
H1678 C1675 0.929 . S
S1679 N1680 1.613 . S
S1679 N1681 1.610 . S
N1680 S1679 1.613 . S
N1680 C1683 1.350 . S
N1681 S1679 1.610 . S
N1681 C1682 1.351 . S
C1682 C1676 1.428 . S
C1682 N1681 1.351 . S
C1682 C1683 1.434 . S
C1683 C1674 1.429 . S
C1683 N1680 1.350 . S
C1683 C1682 1.434 . S
C1684 C1685 1.369 . S
C1684 C1686 1.419 . S
C1684 H1688 0.930 . S
C1685 C1684 1.369 . S
C1685 C1694 1.429 . S
C1686 C1684 1.419 . S
C1686 C1687 1.363 . S
C1686 H1689 0.929 . S
C1687 C1686 1.363 . S
C1687 C1693 1.428 . S
H1688 C1684 0.930 . S
H1689 C1686 0.929 . S
S1690 N1691 1.613 . S
S1690 N1692 1.610 . S
N1691 S1690 1.613 . S
N1691 C1694 1.350 . S
N1692 S1690 1.610 . S
N1692 C1693 1.351 . S
C1693 C1687 1.428 . S
C1693 N1692 1.351 . S
C1693 C1694 1.434 . S
C1694 C1685 1.429 . S
C1694 N1691 1.350 . S
C1694 C1693 1.434 . S
C1695 C1696 1.369 . S
C1695 C1697 1.419 . S
C1695 H1699 0.930 . S
C1696 C1695 1.369 . S
C1696 C1705 1.429 . S
C1697 C1695 1.419 . S
C1697 C1698 1.363 . S
C1697 H1700 0.929 . S
C1698 C1697 1.363 . S
C1698 C1704 1.428 . S
H1699 C1695 0.930 . S
H1700 C1697 0.929 . S
S1701 N1702 1.613 . S
S1701 N1703 1.610 . S
N1702 S1701 1.613 . S
N1702 C1705 1.350 . S
N1703 S1701 1.610 . S
N1703 C1704 1.351 . S
C1704 C1698 1.428 . S
C1704 N1703 1.351 . S
C1704 C1705 1.434 . S
C1705 C1696 1.429 . S
C1705 N1702 1.350 . S
C1705 C1704 1.434 . S
C1706 C1707 1.369 . S
C1706 C1708 1.419 . S
C1706 H1710 0.930 . S
C1707 C1706 1.369 . S
C1707 C1716 1.429 . S
C1708 C1706 1.419 . S
C1708 C1709 1.363 . S
C1708 H1711 0.929 . S
C1709 C1708 1.363 . S
C1709 C1715 1.428 . S
H1710 C1706 0.930 . S
H1711 C1708 0.929 . S
S1712 N1713 1.613 . S
S1712 N1714 1.610 . S
N1713 S1712 1.613 . S
N1713 C1716 1.350 . S
N1714 S1712 1.610 . S
N1714 C1715 1.351 . S
C1715 C1709 1.428 . S
C1715 N1714 1.351 . S
C1715 C1716 1.434 . S
C1716 C1707 1.429 . S
C1716 N1713 1.350 . S
C1716 C1715 1.434 . S
C1717 C1718 1.369 . S
C1717 C1719 1.419 . S
C1717 H1721 0.930 . S
C1718 C1717 1.369 . S
C1718 C1727 1.429 . S
C1719 C1717 1.419 . S
C1719 C1720 1.363 . S
C1719 H1722 0.929 . S
C1720 C1719 1.363 . S
C1720 C1726 1.428 . S
H1721 C1717 0.930 . S
H1722 C1719 0.929 . S
S1723 N1724 1.613 . S
S1723 N1725 1.610 . S
N1724 S1723 1.613 . S
N1724 C1727 1.350 . S
N1725 S1723 1.610 . S
N1725 C1726 1.351 . S
C1726 C1720 1.428 . S
C1726 N1725 1.351 . S
C1726 C1727 1.434 . S
C1727 C1718 1.429 . S
C1727 N1724 1.350 . S
C1727 C1726 1.434 . S
C673 C283 1.583 . S
C675 C3 1.578 . S
C684 C21 1.475 . S
C686 C245 1.465 . S
C695 C31 1.588 . S
C697 C259 1.480 . S
C706 C273 1.481 . S
C708 C49 1.472 . S
C717 C329 1.471 . S
C719 C63 1.469 . S
C728 C73 1.580 . S
C730 C301 1.490 . S
C739 C91 1.468 . S
C741 C311 1.574 . S
C750 C101 1.582 . S
C752 C227 1.587 . S
C761 C115 1.576 . S
C763 C213 1.580 . S
C772 C133 1.479 . S
C774 C175 1.469 . S
C783 C143 1.568 . S
C785 C185 1.564 . S
C794 C203 1.474 . S
C796 C161 1.485 . S
C805 C343 1.486 . S
C807 C623 1.482 . S
C816 C577 1.544 . S
C818 C353 1.541 . S
C827 C371 1.489 . S
C829 C591 1.562 . S
C838 C609 1.461 . S
C840 C381 1.543 . S
C849 C395 1.540 . S
C851 C661 1.544 . S
C860 C633 1.563 . S
C862 C413 1.481 . S
C871 C423 1.539 . S
C873 C651 1.468 . S
C882 C567 1.484 . S
C884 C441 1.487 . S
C893 C455 1.477 . S
C895 C553 1.473 . S
C904 C507 1.548 . S
C906 C465 1.552 . S
C915 C525 1.459 . S
C917 C483 1.463 . S
C926 C535 1.558 . S
C928 C493 1.560 . S
C937 C367 1.304 . S
C939 C7 1.247 . S
C948 C17 1.304 . S
C950 C385 1.252 . S
C959 C35 1.248 . S
C961 C339 1.305 . S
C970 C45 1.322 . S
C972 C357 1.274 . S
C981 C59 1.305 . S
C983 C427 1.258 . S
C992 C437 1.310 . S
C994 C77 1.252 . S
C1003 C399 1.257 . S
C1005 C87 1.304 . S
C1014 C409 1.305 . S
C1016 C105 1.249 . S
C1025 C511 1.261 . S
C1027 C119 1.247 . S
C1036 C129 1.301 . S
C1038 C521 1.303 . S
C1047 C539 1.248 . S
C1049 C147 1.243 . S
C1058 C157 1.304 . S
C1060 C549 1.306 . S
C1069 C171 1.301 . S
C1071 C451 1.304 . S
C1080 C189 1.240 . S
C1082 C469 1.252 . S
C1091 C479 1.306 . S
C1093 C199 1.302 . S
C1102 C497 1.251 . S
C1104 C217 1.248 . S
C1113 C231 1.240 . S
C1115 C605 1.302 . S
C1124 C241 1.303 . S
C1126 C637 1.251 . S
C1135 C647 1.304 . S
C1137 C255 1.302 . S
C1146 C563 1.302 . S
C1148 C269 1.300 . S
C1157 C287 1.253 . S
C1159 C665 1.255 . S
C1168 C581 1.259 . S
C1170 C297 1.314 . S
C1179 C315 1.256 . S
C1181 C595 1.261 . S
C1190 C325 1.297 . S
C1192 C619 1.301 . S
C1201 C400 1.685 . S
C1203 C9 1.635 . S
C1212 C415 1.624 . S
C1214 C22 1.692 . S
C1223 C428 1.688 . S
C1225 C37 1.641 . S
C1234 C50 1.686 . S
C1236 C443 1.617 . S
C1245 C345 1.627 . S
C1247 C64 1.693 . S
C1256 C358 1.687 . S
C1258 C79 1.638 . S
C1267 C92 1.689 . S
C1269 C373 1.621 . S
C1278 C386 1.681 . S
C1280 C107 1.632 . S
C1289 C121 1.632 . S
C1291 C540 1.684 . S
C1300 C134 1.690 . S
C1302 C555 1.620 . S
C1311 C512 1.686 . S
C1313 C149 1.636 . S
C1322 C162 1.692 . S
C1324 C527 1.621 . S
C1333 C485 1.627 . S
C1335 C176 1.694 . S
C1344 C191 1.629 . S
C1346 C498 1.684 . S
C1355 C204 1.689 . S
C1357 C457 1.619 . S
C1366 C219 1.633 . S
C1368 C470 1.682 . S
C1377 C638 1.682 . S
C1379 C233 1.629 . S
C1388 C246 1.698 . S
C1390 C611 1.626 . S
C1399 C260 1.682 . S
C1401 C625 1.612 . S
C1410 C274 1.683 . S
C1412 C582 1.677 . S
C1421 C596 1.682 . S
C1423 C289 1.633 . S
C1432 C569 1.632 . S
C1434 C302 1.703 . S
C1443 C666 1.705 . S
C1445 C317 1.655 . S
C1454 C330 1.696 . S
C1456 C653 1.628 . S
C1465 C218 1.627 . S
C1467 C8 1.621 . S
C1476 C23 1.484 . S
C1478 C177 1.493 . S
C1487 C190 1.619 . S
C1489 C36 1.629 . S
C1498 C205 1.478 . S
C1500 C51 1.493 . S
C1509 C135 1.478 . S
C1511 C65 1.495 . S
C1520 C78 1.623 . S
C1522 C148 1.627 . S
C1531 C93 1.484 . S
C1533 C163 1.490 . S
C1542 C120 1.623 . S
C1544 C106 1.624 . S
C1553 C232 1.621 . S
C1555 C288 1.632 . S
C1564 C331 1.498 . S
C1566 C247 1.490 . S
C1575 C303 1.484 . S
C1577 C261 1.482 . S
C1586 C275 1.499 . S
C1588 C316 1.641 . S
C1597 C554 1.618 . S
C1599 C344 1.613 . S
C1608 C513 1.480 . S
C1610 C359 1.468 . S
C1619 C372 1.623 . S
C1621 C526 1.614 . S
C1630 C541 1.481 . S
C1632 C387 1.470 . S
C1641 C471 1.464 . S
C1643 C401 1.480 . S
C1652 C414 1.609 . S
C1654 C484 1.623 . S
C1663 C429 1.478 . S
C1665 C499 1.470 . S
C1674 C442 1.607 . S
C1676 C456 1.620 . S
C1685 C568 1.613 . S
C1687 C624 1.611 . S
C1696 C667 1.479 . S
C1698 C583 1.483 . S
C1707 C639 1.465 . S
C1709 C597 1.471 . S
C1718 C652 1.629 . S
C1720 C610 1.617 . S
