# Generated by pormake.
# Topology uom, (4)-cn, num edge types: 1
# Building blocks:
#     Node 0, Type 0, BuildingBlock: ESEHIV_clean_sbu_0, # of connection points: 4
#     Node 1, Type 0, BuildingBlock: ESEHIV_clean_sbu_0, # of connection points: 4
#     Node 2, Type 0, BuildingBlock: ESEHIV_clean_sbu_0, # of connection points: 4
#     Node 3, Type 0, BuildingBlock: ESEHIV_clean_sbu_0, # of connection points: 4
#     Node 4, Type 0, BuildingBlock: ESEHIV_clean_sbu_0, # of connection points: 4
#     Node 5, Type 0, BuildingBlock: ESEHIV_clean_sbu_0, # of connection points: 4
#     Edge 6, Type (0, 0), BuildingBlock: FUNLAD_clean_linker_1, # of connection points: 2
#     Edge 7, Type (0, 0), BuildingBlock: FUNLAD_clean_linker_1, # of connection points: 2
#     Edge 8, Type (0, 0), BuildingBlock: FUNLAD_clean_linker_1, # of connection points: 2
#     Edge 9, Type (0, 0), BuildingBlock: FUNLAD_clean_linker_1, # of connection points: 2
#     Edge 10, Type (0, 0), BuildingBlock: FUNLAD_clean_linker_1, # of connection points: 2
#     Edge 11, Type (0, 0), BuildingBlock: FUNLAD_clean_linker_1, # of connection points: 2
#     Edge 12, Type (0, 0), BuildingBlock: FUNLAD_clean_linker_1, # of connection points: 2
#     Edge 13, Type (0, 0), BuildingBlock: FUNLAD_clean_linker_1, # of connection points: 2
#     Edge 14, Type (0, 0), BuildingBlock: FUNLAD_clean_linker_1, # of connection points: 2
#     Edge 15, Type (0, 0), BuildingBlock: FUNLAD_clean_linker_1, # of connection points: 2
#     Edge 16, Type (0, 0), BuildingBlock: FUNLAD_clean_linker_1, # of connection points: 2
#     Edge 17, Type (0, 0), BuildingBlock: FUNLAD_clean_linker_1, # of connection points: 2
# Relax obj value: 0.101
# Max RMSD: 0.201
# Mean RMSD: 0.159
data_MOF--net-uom--node1-ESEHIV_clean_sbu_0--edge1-FUNLAD_clean_linker_1
_symmetry_space_group_name_H-M    P1
_symmetry_Int_Tables_number       1
_symmetry_cell_setting            triclinic
loop_
_symmetry_equiv_pos_as_xyz
'x, y, z'
_cell_length_a     30.99583
_cell_length_b     30.255974
_cell_length_c     48.777023
_cell_angle_alpha  90.320611
_cell_angle_beta   89.760074
_cell_angle_gamma 126.51684
loop_
_atom_site_label
_atom_site_type_symbol
_atom_site_fract_x
_atom_site_fract_y
_atom_site_fract_z
_atom_type_partial_charge
Cu0 Cu 0.31616 0.9773 0.04756 0.0
N1 N 0.34269 0.01835 1.01524 0.0
N2 N 0.35978 0.0369 0.97053 0.0
C3 C 0.33509 -0.0028 0.98983 0.0
C4 C 0.38389 0.08475 0.98439 0.0
C5 C 0.37312 0.07323 1.01198 0.0
O6 O 0.34658 0.93597 0.0502 0.0
C7 C 0.21684 0.95738 0.04322 0.0
O8 O 0.24843 0.01135 0.04486 0.0
H9 H 0.3126 0.95358 0.98581 0.0
H10 H 0.38682 0.10273 1.02849 0.0
N11 N 0.33734 0.02312 0.07863 0.0
N12 N 0.33439 0.05835 0.11852 0.0
C13 C 0.30569 0.02015 0.0988 0.0
C14 C 0.38775 0.06482 0.08594 0.0
C15 C 0.38609 0.08666 0.11048 0.0
C16 C 0.39671 0.96181 0.04544 0.0
O17 O 0.4251 0.01408 0.03886 0.0
H18 H 0.26245 0.99032 0.09917 0.0
H19 H 0.42333 0.07874 0.07418 0.0
O20 O 0.23781 0.93174 0.04431 0.0
H21 H 0.40776 0.12519 0.97518 0.0
H22 H 0.42021 0.1214 0.12118 0.0
Cu23 Cu 0.31884 0.24474 0.38594 0.0
N24 N 0.2939 0.22 0.35005 0.0
N25 N 0.28894 0.18994 0.30733 0.0
C26 C 0.316 0.20609 0.33129 0.0
C27 C 0.24828 0.19409 0.31108 0.0
C28 C 0.25148 0.21265 0.33747 0.0
O29 O 0.38218 0.32069 0.38347 0.0
C30 C 0.31573 0.15128 0.40971 0.0
O31 O 0.34476 0.13699 0.42009 0.0
H32 H 0.35142 0.20793 0.33511 0.0
H33 H 0.22464 0.22007 0.34684 0.0
N34 N 0.26935 0.24526 0.4081 0.0
N35 N 0.21745 0.233 0.44359 0.0
C36 C 0.25024 0.22189 0.43291 0.0
C37 C 0.24827 0.27256 0.40318 0.0
C38 C 0.21611 0.265 0.42504 0.0
C39 C 0.42986 0.33472 0.38336 0.0
O40 O 0.43799 0.29683 0.38455 0.0
H41 H 0.26129 0.19847 0.44323 0.0
H42 H 0.25602 0.29655 0.38498 0.0
O43 O 0.3399 0.20125 0.40224 0.0
H44 H 0.21853 0.18485 0.29595 0.0
H45 H 0.1928 0.28085 0.42694 0.0
Cu46 Cu 0.04121 0.23021 0.70891 0.0
N47 N 0.98619 0.20201 0.73485 0.0
N48 N 0.94943 0.1788 0.77665 0.0
C49 C 0.99527 0.20805 0.76204 0.0
C50 C 0.90952 0.15368 0.75791 0.0
C51 C 0.93244 0.16816 0.73204 0.0
O52 O 0.08217 0.30925 0.70854 0.0
C53 C 0.06135 0.15815 0.72612 0.0
O54 O 1.00864 0.12496 0.72536 0.0
H55 H 0.03504 0.23165 0.77096 0.0
H56 H 0.9115 0.15368 0.71266 0.0
N57 N 1.0189 0.20303 0.67323 0.0
N58 N 0.031 0.19441 0.62881 0.0
C59 C 0.0495 0.22813 0.65081 0.0
C60 C 0.97924 0.15157 0.66506 0.0
C61 C 0.98644 0.14617 0.63757 0.0
C62 C 0.05765 0.33041 0.70437 0.0
O63 O 1.00553 0.29814 0.70023 0.0
H64 H 0.08695 0.26914 0.65113 0.0
H65 H 0.94936 0.11919 0.67849 0.0
O66 O 0.08561 0.20851 0.72013 0.0
H67 H 0.86705 0.12612 0.76244 0.0
H68 H 0.96199 0.10908 0.62539 0.0
Cu69 Cu 0.81942 0.96881 0.04877 0.0
N70 N 0.85904 0.02314 1.02208 0.0
N71 N 0.88087 0.06401 0.98111 0.0
C72 C 0.84165 0.02258 0.99672 0.0
C73 C 0.92476 0.0921 0.99736 0.0
C74 C 0.91111 0.06668 1.02263 0.0
O75 O 0.74435 0.94296 0.04655 0.0
C76 C 0.8589 0.91211 1.02478 0.0
O77 O 0.86338 0.9367 1.00171 0.0
H78 H 0.80149 -0.00904 0.98946 0.0
H79 H 0.93772 0.07793 0.03984 0.0
N80 N 0.8449 -0.00383 0.08411 0.0
N81 N 0.86735 -0.00531 0.12742 0.0
C82 C 0.84221 0.96505 0.10462 0.0
C83 C 0.87261 0.04763 0.09431 0.0
C84 C 0.88652 0.04687 0.12116 0.0
C85 C 0.73834 0.9812 0.04757 0.0
O86 O 0.78116 0.03227 0.05011 0.0
H87 H 0.82328 0.92144 0.10262 0.0
H88 H 0.88303 0.0833 0.08288 0.0
O89 O 0.83359 0.91408 0.04483 0.0
H90 H 0.96429 0.12729 0.99132 0.0
H91 H 0.90948 0.08203 0.13471 0.0
Cu92 Cu 0.90095 0.82285 0.39268 0.0
N93 N 0.91543 0.83719 0.35506 0.0
N94 N 0.92006 0.8694 0.31317 0.0
C95 C 0.90508 0.86652 0.33948 0.0
C96 C 0.94046 0.84049 0.31207 0.0
C97 C 0.93736 0.82054 0.33796 0.0
O98 O 0.84288 0.74511 0.39621 0.0
C99 C 0.89721 0.91454 0.41202 0.0
O100 O 0.86707 0.92824 0.42172 0.0
H101 H 0.88718 0.88574 0.34733 0.0
H102 H 0.95026 0.79571 0.34392 0.0
N103 N 0.96049 0.83828 0.41272 0.0
N104 N 1.01361 0.85089 0.44765 0.0
C105 C 0.96493 0.83682 0.44018 0.0
C106 C 1.00807 0.85382 0.40254 0.0
C107 C 0.04092 0.86182 0.42395 0.0
C108 C 0.79607 0.72658 0.38795 0.0
O109 O 0.78759 0.7606 0.37731 0.0
H110 H 0.93308 0.82567 0.45443 0.0
H111 H 1.01851 0.85979 0.38103 0.0
O112 O 0.87488 0.86383 0.40664 0.0
H113 H 0.95686 0.83443 0.29406 0.0
H114 H 0.08167 0.87477 0.422 0.0
Cu115 Cu 0.20834 0.83794 0.70065 0.0
N116 N 0.26377 0.87207 0.72651 0.0
N117 N 0.29964 0.90303 0.76816 0.0
C118 C 0.25495 0.86635 0.75375 0.0
C119 C 0.3386 0.93277 0.74926 0.0
C120 C 0.31625 0.9136 0.72353 0.0
O121 O 0.16801 0.7592 0.70356 0.0
C122 C 0.1882 0.91256 0.71054 0.0
O123 O 0.24003 0.94552 0.70556 0.0
H124 H 0.21555 0.83822 0.76279 0.0
H125 H 0.33611 0.931 0.70411 0.0
N126 N 0.23048 0.85824 0.66429 0.0
N127 N 0.22393 0.87011 0.61966 0.0
C128 C 0.19985 0.85744 0.64447 0.0
C129 C 0.27546 0.8717 0.65166 0.0
C130 C 0.27154 0.87921 0.62411 0.0
C131 C 0.19261 0.73771 0.70086 0.0
O132 O 0.24472 0.76952 0.6966 0.0
H133 H 0.16014 0.84634 0.64827 0.0
H134 H 0.30805 0.87434 0.66158 0.0
O135 O 0.16385 0.86092 0.7093 0.0
H136 H 0.37968 0.96713 0.75356 0.0
H137 H 0.30086 0.88931 0.60841 0.0
H138 H 0.27119 0.05312 0.14187 0.0
C139 C 0.31291 0.06803 0.14221 0.0
H140 H 0.38433 0.10891 0.16522 0.0
H141 H 0.34922 0.25052 0.24244 0.0
H142 H 0.42437 0.32016 0.21466 0.0
H143 H 0.45367 0.29431 0.17454 0.0
H144 H 0.40798 0.19874 0.16192 0.0
C145 C 0.34276 0.09427 0.16473 0.0
C146 C 0.32284 0.10893 0.18859 0.0
C147 C 0.35021 0.16518 0.19587 0.0
C148 C 0.33354 0.18017 0.21916 0.0
C149 C 0.3609 0.23669 0.22542 0.0
C150 C 0.40392 0.27719 0.20952 0.0
C151 C 0.4204 0.26264 0.18693 0.0
C152 C 0.3939 0.20746 0.18 0.0
H153 H 0.34088 0.17834 0.28312 0.0
C154 C 0.30343 0.17398 0.28302 0.0
H155 H 0.23416 0.14717 0.25985 0.0
H156 H 0.26436 -0.00313 0.18263 0.0
H157 H 0.18748 0.9278 0.20963 0.0
H158 H 0.15575 0.95432 0.24834 0.0
H159 H 0.2015 0.05023 0.26058 0.0
C160 C 0.27284 0.15433 0.26025 0.0
C161 C 0.28958 0.13897 0.23533 0.0
C162 C 0.26132 0.08289 0.22771 0.0
C163 C 0.27858 0.0677 0.20472 0.0
C164 C 0.25169 0.01108 0.19895 0.0
C165 C 0.20772 0.97085 0.2145 0.0
C166 C 0.18994 0.98577 0.23634 0.0
C167 C 0.2165 0.04101 0.24309 0.0
H168 H 0.16903 0.16893 0.47395 0.0
C169 C 0.18696 0.21133 0.46861 0.0
H170 H 0.19976 0.28521 0.47983 0.0
H171 H 1.00537 0.20572 0.55629 0.0
H172 H 0.99237 0.24976 0.51927 0.0
H173 H 0.04803 0.27973 0.4775 0.0
H174 H 0.11706 0.26616 0.47252 0.0
C175 C 0.18095 0.24269 0.48546 0.0
C176 C 0.14545 0.22075 0.51034 0.0
C177 C 0.10466 0.22857 0.51288 0.0
C178 C 0.07223 0.21103 0.53694 0.0
C179 C 0.03171 0.21908 0.53872 0.0
C180 C 0.02354 0.24398 0.51753 0.0
C181 C 0.05488 0.26085 0.49402 0.0
C182 C 0.09475 0.25311 0.49154 0.0
H183 H 0.08908 0.25084 0.59805 0.0
C184 C 0.05782 0.20781 0.60261 0.0
H185 H 0.01952 0.12592 0.589 0.0
H186 H 0.22369 0.20441 0.51461 0.0
H187 H 0.23147 0.15423 0.55015 0.0
H188 H 0.16987 0.11692 0.58976 0.0
H189 H 0.1006 0.13057 0.59418 0.0
C190 C 0.04808 0.1693 0.58433 0.0
C191 C 0.0799 0.18497 0.5584 0.0
C192 C 0.11879 0.17473 0.55541 0.0
C193 C 0.15275 0.19409 0.53184 0.0
C194 C 0.19436 0.18754 0.53091 0.0
C195 C 0.19989 0.15948 0.55147 0.0
C196 C 0.16534 0.13863 0.57382 0.0
C197 C 0.12564 0.14664 0.57605 0.0
H198 H 0.83745 0.04235 0.94242 0.0
C199 C 0.8759 0.07148 0.95238 0.0
H200 H 0.95563 0.14233 0.94659 0.0
H201 H 0.89075 0.04474 0.81968 0.0
H202 H 0.8889 0.96867 0.83699 0.0
H203 H 0.89861 0.95996 0.88643 0.0
H204 H 0.90983 0.02695 0.91887 0.0
C205 C 0.91721 0.11155 0.9372 0.0
C206 C 0.91138 0.11647 0.90721 0.0
C207 C 0.90516 0.07699 0.88844 0.0
C208 C 0.90051 0.08254 0.85983 0.0
C209 C 0.89448 0.04259 0.84159 0.0
C210 C 0.89346 -0.00126 0.85124 0.0
C211 C 0.89885 -0.0062 0.87908 0.0
C212 C 0.90488 0.03242 0.89753 0.0
H213 H 0.98357 0.20164 0.81774 0.0
C214 C 0.94678 0.17423 0.80613 0.0
H215 H 0.86534 0.10536 0.80866 0.0
H216 H 0.9229 0.19931 0.93742 0.0
H217 H 0.92563 0.27591 0.91999 0.0
H218 H 0.91719 0.28522 0.87046 0.0
H219 H 0.90615 0.21811 0.83801 0.0
C220 C 0.90194 0.13541 0.81972 0.0
C221 C 0.90336 0.12818 0.84989 0.0
C222 C 0.90932 0.16748 0.86864 0.0
C223 C 0.91365 0.16179 0.89728 0.0
C224 C 0.9196 0.20171 0.91548 0.0
C225 C 0.9211 0.24581 0.90577 0.0
C226 C 0.91639 0.25108 0.87787 0.0
C227 C 0.91038 0.21243 0.85945 0.0
H228 H 0.85241 0.92842 0.15326 0.0
C229 C 0.87262 0.97257 0.15226 0.0
H230 H 0.92452 0.04812 0.17327 0.0
H231 H 0.82066 0.8462 0.26683 0.0
H232 H 0.73569 0.82979 0.25716 0.0
H233 H 0.72883 0.88298 0.2216 0.0
H234 H 0.80682 0.95201 0.19506 0.0
C235 C 0.90198 0.00374 0.17396 0.0
C236 C 0.90782 0.97837 0.19856 0.0
C237 C 0.86252 0.94028 0.21499 0.0
C238 C 0.86716 0.91183 0.23659 0.0
C239 C 0.82025 0.87103 0.25115 0.0
C240 C 0.77099 0.86083 0.24565 0.0
C241 C 0.76708 0.89059 0.22556 0.0
C242 C 0.81212 0.92984 0.21033 0.0
H243 H 0.9026 0.9243 0.29701 0.0
C244 C 0.915 0.89847 0.29158 0.0
H245 H 0.93655 0.86874 0.25903 0.0
H246 H 1.00318 0.05052 0.17206 0.0
H247 H 0.08951 0.07112 0.18352 0.0
H248 H 0.0986 0.02559 0.22249 0.0
H249 H 0.0213 0.95874 0.25009 0.0
C250 C 0.92334 0.89352 0.26498 0.0
C251 C 0.91788 0.92383 0.24283 0.0
C252 C 0.96362 0.96367 0.22717 0.0
C253 C 0.95856 -0.00928 0.20497 0.0
C254 C 1.00478 0.02925 0.18933 0.0
C255 C 0.05461 0.04145 0.19567 0.0
C256 C 0.05972 0.01576 0.21758 0.0
C257 C 1.01494 0.97733 0.23322 0.0
H258 H 0.22814 0.87998 0.57521 0.0
C259 C 0.20343 0.87088 0.59325 0.0
H260 H 0.12973 0.8523 0.60756 0.0
H261 H 0.09063 0.94811 0.50368 0.0
H262 H 0.11158 0.01657 0.53815 0.0
H263 H 0.14277 0.01381 0.58407 0.0
H264 H 0.15332 0.9429 0.59581 0.0
C265 C 0.15467 0.85974 0.58996 0.0
C266 C 0.1341 0.86003 0.56234 0.0
C267 C 0.12675 0.90085 0.55601 0.0
C268 C 0.10809 0.90207 0.52956 0.0
C269 C 0.1034 0.94471 0.52356 0.0
C270 C 0.11559 0.98434 0.54312 0.0
C271 C 0.13316 0.9828 0.56899 0.0
C272 C 0.13892 0.94177 0.57546 0.0
H273 H 1.00327 0.84217 0.49214 0.0
C274 C 0.03092 0.85234 0.47537 0.0
H275 H 0.10709 0.87294 0.46472 0.0
H276 H 0.13712 0.77194 0.56863 0.0
H277 H 0.11551 0.70353 0.53424 0.0
H278 H 0.08485 0.70672 0.48821 0.0
H279 H 0.07515 0.77811 0.47638 0.0
C280 C 0.07949 0.86457 0.48112 0.0
C281 C 0.09585 0.8619 0.50954 0.0
C282 C 0.10227 0.82048 0.51607 0.0
C283 C 0.12085 0.81917 0.54252 0.0
C284 C 0.12479 0.77598 0.54867 0.0
C285 C 0.11211 0.73614 0.52917 0.0
C286 C 0.09479 0.73789 0.50326 0.0
C287 C 0.08963 0.77928 0.49671 0.0
H288 H 0.38971 0.06834 0.92929 0.0
C289 C 0.36249 0.03141 0.94127 0.0
H290 H 0.30321 0.94517 0.93932 0.0
H291 H 0.26326 0.96647 0.81269 0.0
H292 H 0.19394 0.97014 0.83287 0.0
H293 H 0.18838 0.97725 0.88298 0.0
H294 H 0.25252 0.98104 0.91323 0.0
C295 C 0.33224 0.9826 0.92822 0.0
C296 C 0.33576 0.97823 0.89795 0.0
C297 C 0.29727 0.97466 0.88056 0.0
C298 C 0.29967 0.96912 0.85168 0.0
C299 C 0.2622 0.96846 0.8348 0.0
C300 C 0.22244 0.97112 0.8461 0.0
C301 C 0.21935 0.97517 0.87431 0.0
C302 C 0.25634 0.97718 0.89144 0.0
H303 H 0.26711 0.879 0.80956 0.0
C304 C 0.30132 0.91072 0.79746 0.0
H305 H 0.37593 0.9895 0.79867 0.0
H306 H 0.41558 0.98379 0.92545 0.0
H307 H 0.48476 0.97941 0.90545 0.0
H308 H 0.48836 0.96854 0.85551 0.0
H309 H 0.42278 0.96188 0.82524 0.0
C310 C 0.34121 0.95712 0.81013 0.0
C311 C 0.33965 0.96533 0.84028 0.0
C312 C 0.37865 0.96977 0.85768 0.0
C313 C 0.37663 0.9761 0.88652 0.0
C314 C 0.41549 0.97937 0.90342 0.0
C315 C 0.45536 0.9768 0.89221 0.0
C316 C 0.45738 0.97067 0.86409 0.0
C317 C 0.41953 0.96702 0.84694 0.0
H318 H 0.13568 0.88734 1.02894 0.0
C319 C 0.15865 0.92825 0.03795 0.0
H320 H 0.15932 -0.00515 0.05133 0.0
H321 H 0.98959 0.98561 0.9829 0.0
H322 H 0.07167 0.06416 0.96358 0.0
H323 H 0.15894 0.08311 0.97423 0.0
H324 H 0.16448 0.02384 1.00474 0.0
C325 C 0.13537 0.95372 0.0425 0.0
C326 C 0.08122 0.93366 1.03193 0.0
C327 C 0.07802 0.96705 1.01296 0.0
C328 C 0.02737 0.95477 1.00596 0.0
C329 C 0.02637 -0.00869 0.98831 0.0
C330 C 0.0734 0.03701 0.97711 0.0
C331 C 0.12252 0.04778 0.98317 0.0
C332 C 0.12508 0.01348 1.00087 0.0
H333 H 0.90572 0.8973 0.05198 0.0
C334 C 0.89673 0.89854 1.0306 0.0
H335 H 0.91777 0.89953 0.98953 0.0
H336 H 0.07204 0.86107 0.06916 0.0
H337 H 0.98942 0.77779 0.08561 0.0
H338 H 0.90147 0.7513 0.06972 0.0
H339 H 0.89559 0.8088 0.0378 0.0
C340 C 0.92681 0.89783 1.01082 0.0
C341 C 0.97928 0.90764 1.01708 0.0
C342 C 0.98224 0.87201 0.0345 0.0
C343 C 0.03322 0.88581 0.04253 0.0
C344 C 0.03469 0.85158 0.06154 0.0
C345 C 0.98751 0.80373 0.07125 0.0
C346 C 0.93797 0.78891 0.06238 0.0
C347 C 0.93513 0.82247 0.04421 0.0
H348 H 0.97127 -0.00286 0.42009 0.0
C349 C 0.9556 0.95824 0.40992 0.0
H350 H 0.97461 0.91588 0.38501 0.0
H351 H 0.20639 0.09435 0.34653 0.0
H352 H 0.15765 0.06091 0.30357 0.0
H353 H 0.05861 -0.00205 0.30312 0.0
H354 H 1.00813 0.96802 0.34555 0.0
C355 C 0.98989 0.95192 0.39714 0.0
C356 C 0.04927 -0.00573 0.39772 0.0
C357 C 0.07818 0.01319 0.37264 0.0
C358 C 0.13509 0.0513 0.37283 0.0
C359 C 0.16304 0.06725 0.34751 0.0
C360 C 0.13557 0.04798 0.3227 0.0
C361 C 0.07988 0.01243 0.32245 0.0
C362 C 0.05135 -0.00481 0.34703 0.0
H363 H 0.2413 0.0691 0.41759 0.0
C364 C 0.25691 0.10871 0.40847 0.0
H365 H 0.23634 0.15355 0.38705 0.0
H366 H 1.00832 0.9592 0.44996 0.0
H367 H 0.05558 -5e-05 0.49235 0.0
H368 H 0.15322 0.073 0.4926 0.0
H369 H 0.20319 0.10593 0.45033 0.0
C370 C 0.2221 0.11616 0.39764 0.0
C371 C 0.16302 0.07237 0.39802 0.0
C372 C 0.13417 0.05375 0.42317 0.0
C373 C 0.07747 0.01337 0.42303 0.0
C374 C 0.05045 -0.00723 0.4485 0.0
C375 C 0.07741 0.01504 0.47319 0.0
C376 C 0.13228 0.05599 0.47333 0.0
C377 C 0.16056 0.07474 0.44874 0.0
H378 H 0.13537 0.16335 0.72797 0.0
C379 C 0.09193 0.13585 0.73009 0.0
H380 H 0.02332 0.05341 0.73435 0.0
H381 H 0.14885 0.97837 0.66995 0.0
H382 H 0.099 0.98009 0.63239 0.0
H383 H 0.04708 0.01714 0.63897 0.0
H384 H 0.04473 0.05258 0.68324 0.0
C385 C 0.06684 0.08171 0.73326 0.0
C386 C 0.09657 0.0579 0.72998 0.0
C387 C 0.09617 0.03597 0.70416 0.0
C388 C 0.12538 0.01395 0.70048 0.0
C389 C 0.1262 -0.00567 0.67415 0.0
C390 C 0.09804 -0.00458 0.65231 0.0
C391 C 0.06883 0.01627 0.65602 0.0
C392 C 0.0678 0.03644 0.68157 0.0
H393 H 0.11486 0.90736 0.71733 0.0
C394 C 0.15843 0.93526 0.71623 0.0
H395 H 0.22755 0.01788 0.71901 0.0
H396 H 0.10453 0.09626 0.78202 0.0
H397 H 0.15486 0.09508 0.81973 0.0
H398 H 0.20526 0.05626 0.81349 0.0
H399 H 0.20544 0.01808 0.76958 0.0
C400 C 0.18398 0.98959 0.71915 0.0
C401 C 0.15382 0.0129 0.72285 0.0
C402 C 0.15443 0.0351 0.74862 0.0
C403 C 0.12558 0.0576 0.75221 0.0
C404 C 0.12617 0.07902 0.7782 0.0
C405 C 0.15477 0.07848 0.8 0.0
C406 C 0.18311 0.05657 0.79649 0.0
C407 C 0.18299 0.03492 0.77117 0.0
H408 H 0.68717 0.00811 0.04196 0.0
C409 C 0.68577 0.97163 0.04481 0.0
H410 H 0.63394 0.88547 0.05074 0.0
H411 H 0.46577 0.93151 0.09417 0.0
H412 H 0.48925 0.91005 0.13685 0.0
H413 H 0.55701 0.89194 0.13788 0.0
H414 H 0.60214 0.89565 0.09613 0.0
C415 C 0.63736 0.92266 0.04659 0.0
C416 C 0.58773 0.92038 0.04492 0.0
C417 C 0.55985 0.91565 0.06916 0.0
C418 C 0.52002 0.92532 0.06847 0.0
C419 C 0.49546 0.92362 0.09335 0.0
C420 C 0.5087 0.91147 0.11804 0.0
C421 C 0.5469 0.90132 0.11863 0.0
C422 C 0.5725 0.90359 0.09456 0.0
H423 H 0.39966 0.89075 0.05219 0.0
C424 C 0.42347 0.93423 0.04726 0.0
H425 H 0.50005 0.00583 0.03722 0.0
H426 H 0.62616 0.92256 0.99415 0.0
H427 H 0.59999 0.93987 0.95093 0.0
H428 H 0.53069 0.95586 0.94954 0.0
H429 H 0.48706 0.9546 0.99133 0.0
C430 C 0.47687 0.96275 0.04294 0.0
C431 C 0.50732 0.93863 0.04334 0.0
C432 C 0.53188 0.93844 1.01876 0.0
C433 C 0.57197 0.9293 1.01954 0.0
C434 C 0.59606 0.92999 0.99468 0.0
C435 C 0.58122 0.9396 0.96975 0.0
C436 C 0.5422 0.94861 0.96897 0.0
C437 C 0.51767 0.94805 0.99311 0.0
H438 H 0.7616 0.63989 0.39705 0.0
C439 C 0.7521 0.66716 0.38991 0.0
H440 H 0.69168 0.67306 0.37533 0.0
H441 H 0.53251 0.43021 0.33269 0.0
H442 H 0.5624 0.48139 0.29012 0.0
H443 H 0.63616 0.58074 0.28977 0.0
H444 H 0.68051 0.62951 0.33194 0.0
C445 C 0.70122 0.64622 0.38312 0.0
C446 C 0.65725 0.58593 0.38366 0.0
C447 C 0.63149 0.55804 0.35879 0.0
C448 C 0.58882 0.50074 0.35898 0.0
C449 C 0.56454 0.47382 0.33379 0.0
C450 C 0.58147 0.50265 0.30917 0.0
C451 C 0.62301 0.55858 0.30897 0.0
C452 C 0.64799 0.58612 0.33339 0.0
H453 H 0.46681 0.42328 0.37945 0.0
C454 C 0.47548 0.39362 0.38205 0.0
H455 H 0.53619 0.38279 0.38804 0.0
H456 H 0.69342 0.62738 0.4355 0.0
H457 H 0.66405 0.5757 0.47784 0.0
H458 H 0.59275 0.47567 0.47778 0.0
H459 H 0.54993 0.42685 0.43533 0.0
C460 C 0.52674 0.41156 0.38441 0.0
C461 C 0.5718 0.47138 0.38403 0.0
C462 C 0.59772 0.49905 0.40885 0.0
C463 C 0.63987 0.55654 0.40877 0.0
C464 C 0.66274 0.58352 0.43413 0.0
C465 C 0.64591 0.55439 0.45867 0.0
C466 C 0.6057 0.49809 0.45865 0.0
C467 C 0.58155 0.47057 0.43412 0.0
H468 H 0.11897 0.65267 0.70423 0.0
C469 C 0.16232 0.67752 0.70176 0.0
H470 H 0.22988 0.67682 0.69739 0.0
H471 H 0.09272 0.43768 0.7527 0.0
H472 H 0.1407 0.49299 0.79286 0.0
H473 H 0.19629 0.59428 0.79094 0.0
H474 H 0.20374 0.64081 0.74884 0.0
C475 C 0.18653 0.65284 0.6993 0.0
C476 C 0.1549 0.59205 0.69999 0.0
C477 C 0.15222 0.56563 0.72449 0.0
C478 C 0.12122 0.50732 0.72539 0.0
C479 C 0.11714 0.48188 0.75054 0.0
C480 C 0.14416 0.51315 0.77384 0.0
C481 C 0.17537 0.57017 0.77278 0.0
C482 C 0.17936 0.59634 0.74848 0.0
H483 H 0.13102 0.41574 0.70722 0.0
C484 C 0.08772 0.39062 0.70454 0.0
H485 H 0.02013 0.39039 0.69846 0.0
H486 H 0.15306 0.63034 0.6496 0.0
H487 H 0.10549 0.57527 0.60925 0.0
H488 H 0.05244 0.47412 0.61057 0.0
H489 H 0.04659 0.42742 0.65223 0.0
C490 C 0.06318 0.4149 0.70186 0.0
C491 C 0.09427 0.47577 0.70148 0.0
C492 C 0.09681 0.50229 0.677 0.0
C493 C 0.12731 0.56056 0.67624 0.0
C494 C 0.12999 0.58613 0.6514 0.0
C495 C 0.10303 0.55504 0.62805 0.0
C496 C 0.07317 0.49809 0.6288 0.0
C497 C 0.07006 0.4718 0.65289 0.0
loop_
_geom_bond_atom_site_label_1
_geom_bond_atom_site_label_2
_geom_bond_distance
_geom_bond_site_symmetry_2
_ccdc_geom_bond_type
Cu0 N1 1.999 1_554 S
Cu0 O6 1.974 . S
Cu0 N11 1.985 . S
Cu0 O20 1.959 . S
N1 Cu0 1.999 1_556 S
N1 C3 1.263 . S
N1 C5 1.389 . S
N2 C3 1.358 . S
N2 C4 1.400 . S
C3 N1 1.263 . S
C3 N2 1.358 . S
C3 H9 0.930 1_545 S
C4 N2 1.400 . S
C4 C5 1.351 . S
C4 H21 0.930 . S
C5 N1 1.389 . S
C5 C4 1.351 . S
C5 H10 0.930 . S
O6 Cu0 1.974 . S
O6 C16 1.282 . S
C7 O8 1.261 1_545 S
C7 O20 1.251 . S
O8 C7 1.261 1_565 S
H9 C3 0.930 1_565 S
H10 C5 0.930 . S
N11 Cu0 1.985 . S
N11 C13 1.335 . S
N11 C14 1.390 . S
N12 C13 1.345 . S
N12 C15 1.336 . S
C13 N11 1.335 . S
C13 N12 1.345 . S
C13 H18 0.930 . S
C14 N11 1.390 . S
C14 C15 1.346 . S
C14 H19 0.930 . S
C15 N12 1.336 . S
C15 C14 1.346 . S
C15 H22 0.929 . S
C16 O6 1.282 . S
C16 O17 1.216 1_545 S
O17 C16 1.216 1_565 S
H18 C13 0.930 . S
H19 C14 0.930 . S
O20 Cu0 1.959 . S
O20 C7 1.251 . S
H21 C4 0.930 . S
H22 C15 0.929 . S
Cu23 N24 1.999 . S
Cu23 O29 1.974 . S
Cu23 N34 1.985 . S
Cu23 O43 1.959 . S
N24 Cu23 1.999 . S
N24 C26 1.263 . S
N24 C28 1.389 . S
N25 C26 1.358 . S
N25 C27 1.400 . S
C26 N24 1.263 . S
C26 N25 1.358 . S
C26 H32 0.930 . S
C27 N25 1.400 . S
C27 C28 1.351 . S
C27 H44 0.930 . S
C28 N24 1.389 . S
C28 C27 1.351 . S
C28 H33 0.930 . S
O29 Cu23 1.974 . S
O29 C39 1.282 . S
C30 O31 1.261 . S
C30 O43 1.251 . S
O31 C30 1.261 . S
H32 C26 0.930 . S
H33 C28 0.930 . S
N34 Cu23 1.985 . S
N34 C36 1.335 . S
N34 C37 1.390 . S
N35 C36 1.345 . S
N35 C38 1.336 . S
C36 N34 1.335 . S
C36 N35 1.345 . S
C36 H41 0.930 . S
C37 N34 1.390 . S
C37 C38 1.346 . S
C37 H42 0.930 . S
C38 N35 1.336 . S
C38 C37 1.346 . S
C38 H45 0.929 . S
C39 O29 1.282 . S
C39 O40 1.216 . S
O40 C39 1.216 . S
H41 C36 0.930 . S
H42 C37 0.930 . S
O43 Cu23 1.959 . S
O43 C30 1.251 . S
H44 C27 0.930 . S
H45 C38 0.929 . S
Cu46 N47 1.999 . S
Cu46 O52 1.974 . S
Cu46 N57 1.985 . S
Cu46 O66 1.959 . S
N47 Cu46 1.999 . S
N47 C49 1.263 1_455 S
N47 C51 1.389 . S
N48 C49 1.358 . S
N48 C50 1.423 . S
C49 N47 1.263 1_655 S
C49 N48 1.358 . S
C49 H55 0.930 . S
C50 N48 1.423 . S
C50 C51 1.341 1_655 S
C50 H67 0.921 1_655 S
C51 N47 1.389 . S
C51 C50 1.341 1_455 S
C51 H56 0.930 . S
O52 Cu46 1.974 . S
O52 C62 1.282 1_455 S
C53 O54 1.261 . S
C53 O66 1.251 1_655 S
O54 C53 1.261 . S
H55 C49 0.930 . S
H56 C51 0.930 . S
N57 Cu46 1.985 . S
N57 C59 1.335 . S
N57 C60 1.390 . S
N58 C59 1.345 . S
N58 C61 1.336 . S
C59 N57 1.335 . S
C59 N58 1.345 . S
C59 H64 0.930 . S
C60 N57 1.390 . S
C60 C61 1.346 . S
C60 H65 0.930 . S
C61 N58 1.336 . S
C61 C60 1.346 . S
C61 H68 0.929 . S
C62 O52 1.282 1_655 S
C62 O63 1.216 . S
O63 C62 1.216 . S
H64 C59 0.930 . S
H65 C60 0.930 . S
O66 Cu46 1.959 . S
O66 C53 1.251 1_455 S
H67 C50 0.921 1_455 S
H68 C61 0.929 . S
Cu69 N70 1.999 1_554 S
Cu69 O75 1.974 . S
Cu69 N80 1.985 1_545 S
Cu69 O89 1.959 . S
N70 Cu69 1.999 1_556 S
N70 C72 1.263 . S
N70 C74 1.389 . S
N71 C72 1.358 . S
N71 C73 1.400 . S
C72 N70 1.263 . S
C72 N71 1.358 . S
C72 H78 0.930 . S
C73 N71 1.400 . S
C73 C74 1.351 . S
C73 H90 0.930 . S
C74 N70 1.389 . S
C74 C73 1.351 . S
C74 H79 0.930 1_545 S
O75 Cu69 1.974 . S
O75 C85 1.282 . S
C76 O77 1.261 . S
C76 O89 1.251 . S
O77 C76 1.261 . S
H78 C72 0.930 . S
H79 C74 0.930 1_565 S
N80 Cu69 1.985 1_565 S
N80 C82 1.335 . S
N80 C83 1.390 1_565 S
N81 C82 1.345 . S
N81 C84 1.336 . S
C82 N80 1.335 . S
C82 N81 1.345 . S
C82 H87 0.930 . S
C83 N80 1.390 1_545 S
C83 C84 1.346 1_545 S
C83 H88 0.930 . S
C84 N81 1.336 . S
C84 C83 1.346 1_565 S
C84 H91 0.925 1_565 S
C85 O75 1.282 . S
C85 O86 1.216 . S
O86 C85 1.216 . S
H87 C82 0.930 . S
H88 C83 0.930 . S
O89 Cu69 1.959 . S
O89 C76 1.251 . S
H90 C73 0.930 . S
H91 C84 0.925 1_545 S
Cu92 N93 1.999 . S
Cu92 O98 1.974 . S
Cu92 N103 1.985 . S
Cu92 O112 1.959 . S
N93 Cu92 1.999 . S
N93 C95 1.263 . S
N93 C97 1.389 . S
N94 C95 1.358 . S
N94 C96 1.400 . S
C95 N93 1.263 . S
C95 N94 1.358 . S
C95 H101 0.930 . S
C96 N94 1.400 . S
C96 C97 1.351 . S
C96 H113 0.930 . S
C97 N93 1.389 . S
C97 C96 1.351 . S
C97 H102 0.930 . S
O98 Cu92 1.974 . S
O98 C108 1.282 . S
C99 O100 1.261 . S
C99 O112 1.251 . S
O100 C99 1.261 . S
H101 C95 0.930 . S
H102 C97 0.930 . S
N103 Cu92 1.985 . S
N103 C105 1.335 . S
N103 C106 1.390 . S
N104 C105 1.345 . S
N104 C107 1.336 . S
C105 N103 1.335 . S
C105 N104 1.345 . S
C105 H110 0.930 . S
C106 N103 1.390 . S
C106 C107 1.346 . S
C106 H111 0.930 . S
C107 N104 1.336 . S
C107 C106 1.346 . S
C107 H114 0.929 . S
C108 O98 1.282 . S
C108 O109 1.216 . S
O109 C108 1.216 . S
H110 C105 0.930 . S
H111 C106 0.930 . S
O112 Cu92 1.959 . S
O112 C99 1.251 . S
H113 C96 0.930 . S
H114 C107 0.929 . S
Cu115 N116 1.999 . S
Cu115 O121 1.974 . S
Cu115 N126 1.985 . S
Cu115 O135 1.959 . S
N116 Cu115 1.999 . S
N116 C118 1.263 . S
N116 C120 1.389 . S
N117 C118 1.358 . S
N117 C119 1.400 . S
C118 N116 1.263 . S
C118 N117 1.358 . S
C118 H124 0.930 . S
C119 N117 1.400 . S
C119 C120 1.351 . S
C119 H136 0.930 . S
C120 N116 1.389 . S
C120 C119 1.351 . S
C120 H125 0.930 . S
O121 Cu115 1.974 . S
O121 C131 1.282 . S
C122 O123 1.261 . S
C122 O135 1.251 . S
O123 C122 1.261 . S
H124 C118 0.930 . S
H125 C120 0.930 . S
N126 Cu115 1.985 . S
N126 C128 1.335 . S
N126 C129 1.390 . S
N127 C128 1.345 . S
N127 C130 1.336 . S
C128 N126 1.335 . S
C128 N127 1.345 . S
C128 H133 0.930 . S
C129 N126 1.390 . S
C129 C130 1.346 . S
C129 H134 0.930 . S
C130 N127 1.336 . S
C130 C129 1.346 . S
C130 H137 0.929 . S
C131 O121 1.282 . S
C131 O132 1.216 . S
O132 C131 1.216 . S
H133 C128 0.930 . S
H134 C129 0.930 . S
O135 Cu115 1.959 . S
O135 C122 1.251 . S
H136 C119 0.930 . S
H137 C130 0.929 . S
H138 C139 0.951 . S
C139 H138 0.951 . S
C139 C145 1.265 . S
H140 C145 0.950 . S
H141 C149 0.949 . S
H142 C150 0.950 . S
H143 C151 0.951 . S
H144 C152 0.951 . S
C145 C139 1.265 . S
C145 H140 0.950 . S
C145 C146 1.478 . S
C146 C145 1.478 . S
C146 C147 1.397 . S
C146 C163 1.394 . S
C147 C146 1.397 . S
C147 C148 1.438 . S
C147 C152 1.429 . S
C148 C147 1.438 . S
C148 C149 1.428 . S
C148 C161 1.394 . S
C149 H141 0.949 . S
C149 C148 1.428 . S
C149 C150 1.345 . S
C150 H142 0.950 . S
C150 C149 1.345 . S
C150 C151 1.424 . S
C151 H143 0.951 . S
C151 C150 1.424 . S
C151 C152 1.347 . S
C152 H144 0.951 . S
C152 C147 1.429 . S
C152 C151 1.347 . S
H153 C154 0.951 . S
C154 H153 0.951 . S
C154 C160 1.265 . S
H155 C160 0.950 . S
H156 C164 0.949 . S
H157 C165 0.950 . S
H158 C166 0.951 . S
H159 C167 0.951 . S
C160 C154 1.265 . S
C160 H155 0.950 . S
C160 C161 1.478 . S
C161 C148 1.394 . S
C161 C160 1.478 . S
C161 C162 1.397 . S
C162 C161 1.397 . S
C162 C163 1.438 . S
C162 C167 1.429 . S
C163 C146 1.394 . S
C163 C162 1.438 . S
C163 C164 1.428 . S
C164 H156 0.949 . S
C164 C163 1.428 . S
C164 C165 1.345 . S
C165 H157 0.950 . S
C165 C164 1.345 . S
C165 C166 1.424 . S
C166 H158 0.951 . S
C166 C165 1.424 . S
C166 C167 1.347 . S
C167 H159 0.951 . S
C167 C162 1.429 . S
C167 C166 1.347 . S
H168 C169 0.951 . S
C169 H168 0.951 . S
C169 C175 1.265 . S
H170 C175 0.950 . S
H171 C179 0.949 . S
H172 C180 0.950 . S
H173 C181 0.951 . S
H174 C182 0.951 . S
C175 C169 1.265 . S
C175 H170 0.950 . S
C175 C176 1.478 . S
C176 C175 1.478 . S
C176 C177 1.397 . S
C176 C193 1.394 . S
C177 C176 1.397 . S
C177 C178 1.438 . S
C177 C182 1.429 . S
C178 C177 1.438 . S
C178 C179 1.428 . S
C178 C191 1.394 . S
C179 H171 0.949 . S
C179 C178 1.428 . S
C179 C180 1.345 . S
C180 H172 0.950 . S
C180 C179 1.345 . S
C180 C181 1.424 . S
C181 H173 0.951 . S
C181 C180 1.424 . S
C181 C182 1.347 . S
C182 H174 0.951 . S
C182 C177 1.429 . S
C182 C181 1.347 . S
H183 C184 0.951 . S
C184 H183 0.951 . S
C184 C190 1.265 . S
H185 C190 0.950 . S
H186 C194 0.949 . S
H187 C195 0.950 . S
H188 C196 0.951 . S
H189 C197 0.951 . S
C190 C184 1.265 . S
C190 H185 0.950 . S
C190 C191 1.478 . S
C191 C178 1.394 . S
C191 C190 1.478 . S
C191 C192 1.397 . S
C192 C191 1.397 . S
C192 C193 1.438 . S
C192 C197 1.429 . S
C193 C176 1.394 . S
C193 C192 1.438 . S
C193 C194 1.428 . S
C194 H186 0.949 . S
C194 C193 1.428 . S
C194 C195 1.345 . S
C195 H187 0.950 . S
C195 C194 1.345 . S
C195 C196 1.424 . S
C196 H188 0.951 . S
C196 C195 1.424 . S
C196 C197 1.347 . S
C197 H189 0.951 . S
C197 C192 1.429 . S
C197 C196 1.347 . S
H198 C199 0.951 . S
C199 H198 0.951 . S
C199 C205 1.265 . S
H200 C205 0.950 . S
H201 C209 0.949 . S
H202 C210 0.950 1_565 S
H203 C211 0.951 . S
H204 C212 0.951 . S
C205 C199 1.265 . S
C205 H200 0.950 . S
C205 C206 1.478 . S
C206 C205 1.478 . S
C206 C207 1.397 . S
C206 C223 1.394 . S
C207 C206 1.397 . S
C207 C208 1.438 . S
C207 C212 1.429 . S
C208 C207 1.438 . S
C208 C209 1.428 . S
C208 C221 1.394 . S
C209 H201 0.949 . S
C209 C208 1.428 . S
C209 C210 1.345 . S
C210 H202 0.950 1_545 S
C210 C209 1.345 . S
C210 C211 1.424 1_545 S
C211 H203 0.951 . S
C211 C210 1.424 1_565 S
C211 C212 1.347 1_565 S
C212 H204 0.951 . S
C212 C207 1.429 . S
C212 C211 1.347 1_545 S
H213 C214 0.951 . S
C214 H213 0.951 . S
C214 C220 1.265 . S
H215 C220 0.950 . S
H216 C224 0.949 . S
H217 C225 0.950 . S
H218 C226 0.951 . S
H219 C227 0.951 . S
C220 C214 1.265 . S
C220 H215 0.950 . S
C220 C221 1.478 . S
C221 C208 1.394 . S
C221 C220 1.478 . S
C221 C222 1.397 . S
C222 C221 1.397 . S
C222 C223 1.438 . S
C222 C227 1.429 . S
C223 C206 1.394 . S
C223 C222 1.438 . S
C223 C224 1.428 . S
C224 H216 0.949 . S
C224 C223 1.428 . S
C224 C225 1.345 . S
C225 H217 0.950 . S
C225 C224 1.345 . S
C225 C226 1.424 . S
C226 H218 0.951 . S
C226 C225 1.424 . S
C226 C227 1.347 . S
C227 H219 0.951 . S
C227 C222 1.429 . S
C227 C226 1.347 . S
H228 C229 0.951 . S
C229 H228 0.951 . S
C229 C235 1.265 . S
H230 C235 0.950 . S
H231 C239 0.949 . S
H232 C240 0.950 . S
H233 C241 0.951 . S
H234 C242 0.951 1_545 S
C235 C229 1.265 . S
C235 H230 0.950 . S
C235 C236 1.478 . S
C236 C235 1.478 . S
C236 C237 1.397 . S
C236 C253 1.394 . S
C237 C236 1.397 . S
C237 C238 1.438 . S
C237 C242 1.429 . S
C238 C237 1.438 . S
C238 C239 1.428 . S
C238 C251 1.394 . S
C239 H231 0.949 . S
C239 C238 1.428 . S
C239 C240 1.345 . S
C240 H232 0.950 . S
C240 C239 1.345 . S
C240 C241 1.424 1_565 S
C241 H233 0.951 . S
C241 C240 1.424 1_545 S
C241 C242 1.347 1_545 S
C242 H234 0.951 1_565 S
C242 C237 1.429 . S
C242 C241 1.347 1_565 S
H243 C244 0.951 . S
C244 H243 0.951 . S
C244 C250 1.265 . S
H245 C250 0.950 . S
H246 C254 0.949 . S
H247 C255 0.950 . S
H248 C256 0.951 . S
H249 C257 0.951 . S
C250 C244 1.265 . S
C250 H245 0.950 . S
C250 C251 1.478 . S
C251 C238 1.394 . S
C251 C250 1.478 . S
C251 C252 1.397 . S
C252 C251 1.397 . S
C252 C253 1.438 . S
C252 C257 1.429 . S
C253 C236 1.394 . S
C253 C252 1.438 . S
C253 C254 1.428 . S
C254 H246 0.949 . S
C254 C253 1.428 . S
C254 C255 1.345 . S
C255 H247 0.950 . S
C255 C254 1.345 . S
C255 C256 1.424 . S
C256 H248 0.951 . S
C256 C255 1.424 . S
C256 C257 1.347 . S
C257 H249 0.951 . S
C257 C252 1.429 . S
C257 C256 1.347 . S
H258 C259 0.951 . S
C259 H258 0.951 . S
C259 C265 1.265 . S
H260 C265 0.950 . S
H261 C269 0.949 . S
H262 C270 0.950 . S
H263 C271 0.959 . S
H264 C272 0.951 . S
C265 C259 1.265 . S
C265 H260 0.950 . S
C265 C266 1.478 . S
C266 C265 1.478 . S
C266 C267 1.397 . S
C266 C283 1.394 . S
C267 C266 1.397 . S
C267 C268 1.438 1_455 S
C267 C272 1.429 . S
C268 C267 1.438 1_655 S
C268 C269 1.428 . S
C268 C281 1.394 . S
C269 H261 0.949 . S
C269 C268 1.428 . S
C269 C270 1.345 . S
C270 H262 0.950 . S
C270 C269 1.345 . S
C270 C271 1.421 1_655 S
C271 H263 0.959 . S
C271 C270 1.421 1_455 S
C271 C272 1.353 . S
C272 H264 0.951 . S
C272 C267 1.429 . S
C272 C271 1.353 . S
H273 C274 0.951 . S
C274 H273 0.951 . S
C274 C280 1.265 . S
H275 C280 0.950 1_455 S
H276 C284 0.949 . S
H277 C285 0.950 . S
H278 C286 0.951 . S
H279 C287 0.951 1_655 S
C280 C274 1.265 . S
C280 H275 0.950 1_655 S
C280 C281 1.478 . S
C281 C268 1.394 . S
C281 C280 1.478 . S
C281 C282 1.397 1_655 S
C282 C281 1.397 1_455 S
C282 C283 1.438 . S
C282 C287 1.429 . S
C283 C266 1.394 . S
C283 C282 1.438 . S
C283 C284 1.428 . S
C284 H276 0.949 . S
C284 C283 1.428 . S
C284 C285 1.345 . S
C285 H277 0.950 . S
C285 C284 1.345 . S
C285 C286 1.424 . S
C286 H278 0.951 . S
C286 C285 1.424 . S
C286 C287 1.347 . S
C287 H279 0.951 1_455 S
C287 C282 1.429 . S
C287 C286 1.347 . S
H288 C289 0.951 1_545 S
C289 H288 0.951 1_565 S
C289 C295 1.265 . S
H290 C295 0.950 . S
H291 C299 0.949 . S
H292 C300 0.950 . S
H293 C301 0.951 . S
H294 C302 0.951 . S
C295 C289 1.265 . S
C295 H290 0.950 . S
C295 C296 1.478 . S
C296 C295 1.478 . S
C296 C297 1.397 . S
C296 C313 1.394 . S
C297 C296 1.397 . S
C297 C298 1.438 . S
C297 C302 1.429 . S
C298 C297 1.438 . S
C298 C299 1.428 . S
C298 C311 1.394 . S
C299 H291 0.949 . S
C299 C298 1.428 . S
C299 C300 1.345 . S
C300 H292 0.950 . S
C300 C299 1.345 . S
C300 C301 1.424 . S
C301 H293 0.951 . S
C301 C300 1.424 . S
C301 C302 1.347 . S
C302 H294 0.951 . S
C302 C297 1.429 . S
C302 C301 1.347 . S
H303 C304 0.951 . S
C304 H303 0.951 . S
C304 C310 1.265 . S
H305 C310 0.950 . S
H306 C314 0.949 1_545 S
H307 C315 0.950 . S
H308 C316 0.951 . S
H309 C317 0.951 . S
C310 C304 1.265 . S
C310 H305 0.950 . S
C310 C311 1.478 . S
C311 C298 1.394 . S
C311 C310 1.478 . S
C311 C312 1.397 . S
C312 C311 1.397 . S
C312 C313 1.438 . S
C312 C317 1.429 . S
C313 C296 1.394 . S
C313 C312 1.438 . S
C313 C314 1.428 . S
C314 H306 0.949 1_565 S
C314 C313 1.428 . S
C314 C315 1.345 1_565 S
C315 H307 0.950 . S
C315 C314 1.345 1_545 S
C315 C316 1.424 . S
C316 H308 0.951 . S
C316 C315 1.424 . S
C316 C317 1.347 1_545 S
C317 H309 0.951 . S
C317 C312 1.429 . S
C317 C316 1.347 1_565 S
H318 C319 0.951 1_565 S
C319 H318 0.951 1_545 S
C319 C325 1.265 . S
H320 C325 0.950 . S
H321 C329 0.949 . S
H322 C330 0.950 . S
H323 C331 0.951 . S
H324 C332 0.951 . S
C325 C319 1.265 . S
C325 H320 0.950 . S
C325 C326 1.478 . S
C326 C325 1.478 . S
C326 C327 1.397 . S
C326 C343 1.392 1_545 S
C327 C326 1.397 . S
C327 C328 1.438 . S
C327 C332 1.429 1_554 S
C328 C327 1.438 . S
C328 C329 1.428 1_554 S
C328 C341 1.394 . S
C329 H321 0.949 . S
C329 C328 1.428 1_556 S
C329 C330 1.345 . S
C330 H322 0.950 . S
C330 C329 1.345 . S
C330 C331 1.424 . S
C331 H323 0.951 . S
C331 C330 1.424 . S
C331 C332 1.347 . S
C332 H324 0.951 . S
C332 C327 1.429 1_556 S
C332 C331 1.347 . S
H333 C334 0.951 1_455 S
C334 H333 0.951 1_655 S
C334 C340 1.265 . S
H335 C340 0.950 1_565 S
H336 C344 0.949 . S
H337 C345 0.950 . S
H338 C346 0.951 1_655 S
H339 C347 0.951 1_655 S
C340 C334 1.265 . S
C340 H335 0.950 1_545 S
C340 C341 1.478 1_655 S
C341 C328 1.394 . S
C341 C340 1.478 1_455 S
C341 C342 1.397 1_545 S
C342 C341 1.397 1_565 S
C342 C343 1.435 . S
C342 C347 1.429 . S
C343 C326 1.392 1_565 S
C343 C342 1.435 . S
C343 C344 1.432 . S
C344 H336 0.949 . S
C344 C343 1.432 . S
C344 C345 1.345 . S
C345 H337 0.950 . S
C345 C344 1.345 . S
C345 C346 1.424 . S
C346 H338 0.951 1_455 S
C346 C345 1.424 . S
C346 C347 1.347 . S
C347 H339 0.951 1_455 S
C347 C342 1.429 . S
C347 C346 1.347 . S
H348 C349 0.951 . S
C349 H348 0.951 . S
C349 C355 1.265 . S
H350 C355 0.950 . S
H351 C359 0.949 . S
H352 C360 0.950 . S
H353 C361 0.951 . S
H354 C362 0.951 . S
C355 C349 1.265 . S
C355 H350 0.950 . S
C355 C356 1.478 1_655 S
C356 C355 1.478 1_455 S
C356 C357 1.397 . S
C356 C373 1.394 1_565 S
C357 C356 1.397 . S
C357 C358 1.438 1_565 S
C357 C362 1.429 . S
C358 C357 1.438 1_545 S
C358 C359 1.428 . S
C358 C371 1.394 . S
C359 H351 0.949 . S
C359 C358 1.428 . S
C359 C360 1.345 . S
C360 H352 0.950 . S
C360 C359 1.345 . S
C360 C361 1.424 1_545 S
C361 H353 0.951 . S
C361 C360 1.424 1_565 S
C361 C362 1.347 . S
C362 H354 0.951 . S
C362 C357 1.429 . S
C362 C361 1.347 . S
H363 C364 0.951 . S
C364 H363 0.951 . S
C364 C370 1.265 . S
H365 C370 0.950 . S
H366 C374 0.949 1_655 S
H367 C375 0.950 . S
H368 C376 0.951 . S
H369 C377 0.951 . S
C370 C364 1.265 . S
C370 H365 0.950 . S
C370 C371 1.478 . S
C371 C358 1.394 . S
C371 C370 1.478 . S
C371 C372 1.397 . S
C372 C371 1.397 . S
C372 C373 1.438 . S
C372 C377 1.429 . S
C373 C356 1.394 1_545 S
C373 C372 1.438 . S
C373 C374 1.428 1_545 S
C374 H366 0.949 1_455 S
C374 C373 1.428 1_565 S
C374 C375 1.345 1_565 S
C375 H367 0.950 . S
C375 C374 1.345 1_545 S
C375 C376 1.424 . S
C376 H368 0.951 . S
C376 C375 1.424 . S
C376 C377 1.347 . S
C377 H369 0.951 . S
C377 C372 1.429 . S
C377 C376 1.347 . S
H378 C379 0.951 . S
C379 H378 0.951 . S
C379 C385 1.265 . S
H380 C385 0.950 1_655 S
H381 C389 0.949 . S
H382 C390 0.950 . S
H383 C391 0.951 . S
H384 C392 0.951 1_645 S
C385 C379 1.265 . S
C385 H380 0.950 1_455 S
C385 C386 1.478 . S
C386 C385 1.478 . S
C386 C387 1.397 . S
C386 C403 1.394 . S
C387 C386 1.397 . S
C387 C388 1.438 . S
C387 C392 1.429 1_545 S
C388 C387 1.438 . S
C388 C389 1.428 1_545 S
C388 C401 1.394 . S
C389 H381 0.949 . S
C389 C388 1.428 1_565 S
C389 C390 1.345 . S
C390 H382 0.950 . S
C390 C389 1.345 . S
C390 C391 1.424 . S
C391 H383 0.951 . S
C391 C390 1.424 . S
C391 C392 1.347 . S
C392 H384 0.951 1_465 S
C392 C387 1.429 1_565 S
C392 C391 1.347 . S
H393 C394 0.951 . S
C394 H393 0.951 . S
C394 C400 1.265 1_565 S
H395 C400 0.950 . S
H396 C404 0.949 . S
H397 C405 0.950 . S
H398 C406 0.951 . S
H399 C407 0.951 . S
C400 C394 1.265 1_545 S
C400 H395 0.950 . S
C400 C401 1.478 . S
C401 C388 1.394 . S
C401 C400 1.478 . S
C401 C402 1.397 . S
C402 C401 1.397 . S
C402 C403 1.438 . S
C402 C407 1.429 . S
C403 C386 1.394 . S
C403 C402 1.438 . S
C403 C404 1.428 . S
C404 H396 0.949 . S
C404 C403 1.428 . S
C404 C405 1.345 . S
C405 H397 0.950 . S
C405 C404 1.345 . S
C405 C406 1.424 . S
C406 H398 0.951 . S
C406 C405 1.424 . S
C406 C407 1.347 . S
C407 H399 0.951 . S
C407 C402 1.429 . S
C407 C406 1.347 . S
H408 C409 0.951 . S
C409 H408 0.951 . S
C409 C415 1.265 . S
H410 C415 0.950 1_565 S
H411 C419 0.949 . S
H412 C420 0.950 . S
H413 C421 0.951 . S
H414 C422 0.951 . S
C415 C409 1.265 . S
C415 H410 0.950 1_545 S
C415 C416 1.478 . S
C416 C415 1.478 . S
C416 C417 1.397 . S
C416 C433 1.394 1_554 S
C417 C416 1.397 . S
C417 C418 1.438 . S
C417 C422 1.429 1_545 S
C418 C417 1.438 . S
C418 C419 1.428 1_545 S
C418 C431 1.394 . S
C419 H411 0.949 . S
C419 C418 1.428 1_565 S
C419 C420 1.345 . S
C420 H412 0.950 . S
C420 C419 1.345 . S
C420 C421 1.424 . S
C421 H413 0.951 . S
C421 C420 1.424 . S
C421 C422 1.347 . S
C422 H414 0.951 . S
C422 C417 1.429 1_565 S
C422 C421 1.347 . S
H423 C424 0.951 1_565 S
C424 H423 0.951 1_545 S
C424 C430 1.265 . S
H425 C430 0.950 . S
H426 C434 0.949 . S
H427 C435 0.950 . S
H428 C436 0.951 . S
H429 C437 0.951 . S
C430 C424 1.265 . S
C430 H425 0.950 . S
C430 C431 1.478 . S
C431 C418 1.394 . S
C431 C430 1.478 . S
C431 C432 1.397 1_554 S
C432 C431 1.397 1_556 S
C432 C433 1.438 . S
C432 C437 1.429 . S
C433 C416 1.394 1_556 S
C433 C432 1.438 . S
C433 C434 1.428 . S
C434 H426 0.949 . S
C434 C433 1.428 . S
C434 C435 1.345 . S
C435 H427 0.950 . S
C435 C434 1.345 . S
C435 C436 1.424 . S
C436 H428 0.951 . S
C436 C435 1.424 . S
C436 C437 1.347 . S
C437 H429 0.951 . S
C437 C432 1.429 . S
C437 C436 1.347 . S
H438 C439 0.951 . S
C439 H438 0.951 . S
C439 C445 1.265 . S
H440 C445 0.950 . S
H441 C449 0.949 . S
H442 C450 0.950 . S
H443 C451 0.951 . S
H444 C452 0.951 . S
C445 C439 1.265 . S
C445 H440 0.950 . S
C445 C446 1.478 . S
C446 C445 1.478 . S
C446 C447 1.397 . S
C446 C463 1.394 . S
C447 C446 1.397 . S
C447 C448 1.438 . S
C447 C452 1.429 . S
C448 C447 1.438 . S
C448 C449 1.428 . S
C448 C461 1.394 . S
C449 H441 0.949 . S
C449 C448 1.428 . S
C449 C450 1.345 . S
C450 H442 0.950 . S
C450 C449 1.345 . S
C450 C451 1.424 . S
C451 H443 0.951 . S
C451 C450 1.424 . S
C451 C452 1.347 . S
C452 H444 0.951 . S
C452 C447 1.429 . S
C452 C451 1.347 . S
H453 C454 0.951 . S
C454 H453 0.951 . S
C454 C460 1.265 . S
H455 C460 0.950 . S
H456 C464 0.949 . S
H457 C465 0.950 . S
H458 C466 0.951 . S
H459 C467 0.951 . S
C460 C454 1.265 . S
C460 H455 0.950 . S
C460 C461 1.478 . S
C461 C448 1.394 . S
C461 C460 1.478 . S
C461 C462 1.397 . S
C462 C461 1.397 . S
C462 C463 1.438 . S
C462 C467 1.429 . S
C463 C446 1.394 . S
C463 C462 1.438 . S
C463 C464 1.428 . S
C464 H456 0.949 . S
C464 C463 1.428 . S
C464 C465 1.345 . S
C465 H457 0.950 . S
C465 C464 1.345 . S
C465 C466 1.424 . S
C466 H458 0.951 . S
C466 C465 1.424 . S
C466 C467 1.347 . S
C467 H459 0.951 . S
C467 C462 1.429 . S
C467 C466 1.347 . S
H468 C469 0.951 . S
C469 H468 0.951 . S
C469 C475 1.265 . S
H470 C475 0.950 . S
H471 C479 0.949 . S
H472 C480 0.950 . S
H473 C481 0.951 . S
H474 C482 0.951 . S
C475 C469 1.265 . S
C475 H470 0.950 . S
C475 C476 1.478 . S
C476 C475 1.478 . S
C476 C477 1.397 . S
C476 C493 1.394 . S
C477 C476 1.397 . S
C477 C478 1.438 . S
C477 C482 1.429 . S
C478 C477 1.438 . S
C478 C479 1.428 . S
C478 C491 1.394 . S
C479 H471 0.949 . S
C479 C478 1.428 . S
C479 C480 1.345 . S
C480 H472 0.950 . S
C480 C479 1.345 . S
C480 C481 1.424 . S
C481 H473 0.951 . S
C481 C480 1.424 . S
C481 C482 1.347 . S
C482 H474 0.951 . S
C482 C477 1.429 . S
C482 C481 1.347 . S
H483 C484 0.951 . S
C484 H483 0.951 . S
C484 C490 1.265 . S
H485 C490 0.950 1_655 S
H486 C494 0.949 . S
H487 C495 0.950 . S
H488 C496 0.951 . S
H489 C497 0.951 . S
C490 C484 1.265 . S
C490 H485 0.950 1_455 S
C490 C491 1.478 . S
C491 C478 1.394 . S
C491 C490 1.478 . S
C491 C492 1.397 . S
C492 C491 1.397 . S
C492 C493 1.438 . S
C492 C497 1.429 . S
C493 C476 1.394 . S
C493 C492 1.438 . S
C493 C494 1.428 . S
C494 H486 0.949 . S
C494 C493 1.428 . S
C494 C495 1.345 . S
C495 H487 0.950 . S
C495 C494 1.345 . S
C495 C496 1.424 . S
C496 H488 0.951 . S
C496 C495 1.424 . S
C496 C497 1.347 . S
C497 H489 0.951 . S
C497 C492 1.429 . S
C497 C496 1.347 . S
C139 N12 1.688 . S
C154 N25 1.556 . S
C169 N35 1.673 . S
C184 N58 1.656 . S
C199 N71 1.750 . S
C214 N48 1.623 . S
C229 N81 1.687 . S
C244 N94 1.554 . S
C259 N127 1.644 . S
C274 N104 1.638 . S
C289 N2 1.672 1_565 S
C304 N117 1.709 . S
C319 C7 1.745 . S
C334 C76 1.753 . S
C349 C99 0.229 . S
C364 C30 0.226 . S
C379 C53 1.494 1_455 S
C394 C122 1.492 . S
C409 C85 1.780 . S
C424 C16 1.784 . S
C439 C108 1.221 . S
C454 C39 1.228 . S
C469 C131 2.012 . S
C484 C62 2.014 1_455 S
