# Generated by pormake.
# Topology ecf, (8)-cn, num edge types: 1
# Building blocks:
#     Node 0, Type 0, BuildingBlock: LIZSOE_clean_sbu_0, # of connection points: 8
#     Node 1, Type 0, BuildingBlock: LIZSOE_clean_sbu_0, # of connection points: 8
#     Node 2, Type 0, BuildingBlock: LIZSOE_clean_sbu_0, # of connection points: 8
#     Node 3, Type 0, BuildingBlock: LIZSOE_clean_sbu_0, # of connection points: 8
#     Node 4, Type 0, BuildingBlock: LIZSOE_clean_sbu_0, # of connection points: 8
#     Node 5, Type 0, BuildingBlock: LIZSOE_clean_sbu_0, # of connection points: 8
#     Edge 6, Type (0, 0), BuildingBlock: XUDNAN_clean_linker_2, # of connection points: 2
#     Edge 7, Type (0, 0), BuildingBlock: XUDNAN_clean_linker_2, # of connection points: 2
#     Edge 8, Type (0, 0), BuildingBlock: XUDNAN_clean_linker_2, # of connection points: 2
#     Edge 9, Type (0, 0), BuildingBlock: XUDNAN_clean_linker_2, # of connection points: 2
#     Edge 10, Type (0, 0), BuildingBlock: XUDNAN_clean_linker_2, # of connection points: 2
#     Edge 11, Type (0, 0), BuildingBlock: XUDNAN_clean_linker_2, # of connection points: 2
#     Edge 12, Type (0, 0), BuildingBlock: XUDNAN_clean_linker_2, # of connection points: 2
#     Edge 13, Type (0, 0), BuildingBlock: XUDNAN_clean_linker_2, # of connection points: 2
#     Edge 14, Type (0, 0), BuildingBlock: XUDNAN_clean_linker_2, # of connection points: 2
#     Edge 15, Type (0, 0), BuildingBlock: XUDNAN_clean_linker_2, # of connection points: 2
#     Edge 16, Type (0, 0), BuildingBlock: XUDNAN_clean_linker_2, # of connection points: 2
#     Edge 17, Type (0, 0), BuildingBlock: XUDNAN_clean_linker_2, # of connection points: 2
#     Edge 18, Type (0, 0), BuildingBlock: XUDNAN_clean_linker_2, # of connection points: 2
#     Edge 19, Type (0, 0), BuildingBlock: XUDNAN_clean_linker_2, # of connection points: 2
#     Edge 20, Type (0, 0), BuildingBlock: XUDNAN_clean_linker_2, # of connection points: 2
#     Edge 21, Type (0, 0), BuildingBlock: XUDNAN_clean_linker_2, # of connection points: 2
#     Edge 22, Type (0, 0), BuildingBlock: XUDNAN_clean_linker_2, # of connection points: 2
#     Edge 23, Type (0, 0), BuildingBlock: XUDNAN_clean_linker_2, # of connection points: 2
#     Edge 24, Type (0, 0), BuildingBlock: XUDNAN_clean_linker_2, # of connection points: 2
#     Edge 25, Type (0, 0), BuildingBlock: XUDNAN_clean_linker_2, # of connection points: 2
#     Edge 26, Type (0, 0), BuildingBlock: XUDNAN_clean_linker_2, # of connection points: 2
#     Edge 27, Type (0, 0), BuildingBlock: XUDNAN_clean_linker_2, # of connection points: 2
#     Edge 28, Type (0, 0), BuildingBlock: XUDNAN_clean_linker_2, # of connection points: 2
#     Edge 29, Type (0, 0), BuildingBlock: XUDNAN_clean_linker_2, # of connection points: 2
# Relax obj value: 0.280
# Max RMSD: 0.204
# Mean RMSD: 0.200
data_MOF--net-ecf--node1-LIZSOE_clean_sbu_0--edge1-XUDNAN_clean_linker_2
_symmetry_space_group_name_H-M    P1
_symmetry_Int_Tables_number       1
_symmetry_cell_setting            triclinic
loop_
_symmetry_equiv_pos_as_xyz
'x, y, z'
_cell_length_a     37.922824
_cell_length_b     37.939675
_cell_length_c     21.77679
_cell_angle_alpha  90.051768
_cell_angle_beta   90.309847
_cell_angle_gamma 120.01461
loop_
_atom_site_label
_atom_site_type_symbol
_atom_site_fract_x
_atom_site_fract_y
_atom_site_fract_z
_atom_type_partial_charge
Co0 Co 0.06709 0.26966 0.29528 0.0
N1 N 1.0176 0.2255 0.27543 0.0
C2 C 1.01101 0.2008 0.22687 0.0
N3 N 0.95719 0.16912 0.28527 0.0
C4 C 0.98431 0.20512 0.3107 0.0
C5 C 0.9738 0.16654 0.23235 0.0
Co6 Co 0.25777 0.39898 0.22453 0.0
N7 N 0.30757 0.44646 0.23271 0.0
N8 N 0.3635 0.50647 0.25249 0.0
C9 C 0.36943 0.49167 0.20001 0.0
C10 C 0.33535 0.45487 0.18833 0.0
C11 C 0.32597 0.47851 0.27214 0.0
Co12 Co 0.16205 0.33364 0.26033 0.0
C13 C 0.22513 0.36869 0.15067 0.0
H14 H 0.33082 0.43535 0.14929 0.0
O15 O 0.11232 0.31206 0.3188 0.0
O16 O 0.1696 0.38778 0.27657 0.0
O17 O 0.13117 0.33228 0.18362 0.0
O18 O 0.15162 0.27763 0.24599 0.0
O19 O 0.09071 0.23809 0.28914 0.0
O20 O 0.23192 0.4293 0.24457 0.0
O21 O 0.21286 0.35287 0.20615 0.0
O22 O 0.25977 0.38439 0.307 0.0
O23 O 0.07226 0.28161 0.2114 0.0
O24 O 0.04957 0.30457 0.30291 0.0
O25 O 0.19652 0.3368 0.33497 0.0
O26 O 0.2512 0.4074 0.14715 0.0
C27 C 0.0947 0.30581 0.17076 0.0
C28 C 0.30743 0.48302 0.33008 0.0
H29 H 0.3044 0.51058 0.32684 0.0
H30 H 0.27729 0.45612 0.3392 0.0
H31 H 0.32818 0.48779 0.36931 0.0
C32 C 0.19811 0.42313 0.26479 0.0
C33 C 0.12424 0.24378 0.26813 0.0
H34 H 0.03386 0.2048 0.19396 0.0
H35 H 0.98687 0.24943 0.37334 0.0
H36 H 1.00525 0.21742 0.4034 0.0
H37 H 0.95112 0.19777 0.39498 0.0
C38 C 0.9814 0.21795 0.37448 0.0
C39 C 0.0827 0.31904 0.33604 0.0
C40 C 0.23519 0.35853 0.34566 0.0
H41 H 0.96206 0.13957 0.20373 0.0
H42 H 0.39669 0.50647 0.17237 0.0
Co43 Co 0.82758 0.07108 0.78956 0.0
N44 N 0.79742 0.01364 0.79113 0.0
C45 C 0.76768 0.98946 0.75136 0.0
N46 N 0.78599 0.94926 0.79838 0.0
C47 C 0.80654 0.9878 0.82138 0.0
C48 C 0.76091 0.9503 0.75527 0.0
Co49 Co 0.83634 0.24088 0.75113 0.0
N50 N 0.85823 0.29866 0.74358 0.0
N51 N 0.87001 0.36384 0.74979 0.0
C52 C 0.8731 0.35487 0.69089 0.0
C53 C 0.86594 0.3156 0.68732 0.0
C54 C 0.86133 0.32913 0.78122 0.0
Co55 Co 0.8348 0.15191 0.77662 0.0
C56 C 0.7849 0.19459 0.79351 0.0
H57 H 0.86413 0.29952 0.64532 0.0
O58 O 0.86158 0.12177 0.79047 0.0
O59 O 0.87023 0.191 0.84171 0.0
O60 O 0.79383 0.11572 0.8463 0.0
O61 O 0.80092 0.10996 0.70887 0.0
O62 O 0.83144 0.07194 0.70591 0.0
O63 O 0.87332 0.24982 0.81862 0.0
O64 O 0.80799 0.18545 0.76008 0.0
O65 O 0.87691 0.243 0.69532 0.0
O66 O 0.81888 0.07421 0.86989 0.0
O67 O 0.87796 0.0749 0.8028 0.0
O68 O 0.87727 0.1847 0.71073 0.0
O69 O 0.79669 0.23289 0.80205 0.0
C70 C 0.79612 0.08901 0.88229 0.0
C71 C 0.85362 0.3241 0.849 0.0
H72 H 0.84017 0.29209 0.86359 0.0
H73 H 0.88301 0.34173 0.87384 0.0
H74 H 0.83352 0.3362 0.86261 0.0
C75 C 0.8847 0.22906 0.85065 0.0
C76 C 0.8082 0.08365 0.68147 0.0
H77 H 0.75333 0.9999 0.71896 0.0
H78 H 0.86552 0.01477 0.86553 0.0
H79 H 0.82564 0.97231 0.90617 0.0
H80 H 0.82812 0.02047 0.9076 0.0
C81 C 0.83292 0.99952 0.87821 0.0
C82 C 0.88961 0.11318 0.80233 0.0
C83 C 0.89099 0.21932 0.68354 0.0
H84 H 0.74096 0.92516 0.72562 0.0
H85 H 0.87889 0.375 0.65232 0.0
Co86 Co 0.75767 0.807 0.31942 0.0
N87 N 0.805 0.8066 0.31131 0.0
C88 C 0.8344 0.82524 0.35417 0.0
N89 N 0.85729 0.79811 0.28769 0.0
C90 C 0.81952 0.78948 0.27172 0.0
C91 C 0.86677 0.82043 0.33946 0.0
Co92 Co 0.62382 0.85842 0.24575 0.0
N93 N 0.57459 0.85601 0.25932 0.0
N94 N 0.51894 0.86216 0.26044 0.0
C95 C 0.51626 0.83759 0.3067 0.0
C96 C 0.55035 0.83414 0.30627 0.0
C97 C 0.55479 0.87333 0.23237 0.0
Co98 Co 0.6903 0.82956 0.27802 0.0
C99 C 0.65792 0.86321 0.17184 0.0
H100 H 0.55709 0.81663 0.33857 0.0
O101 O 0.71251 0.80323 0.33402 0.0
O102 O 0.63658 0.78082 0.29237 0.0
O103 O 0.69621 0.80339 0.2011 0.0
O104 O 0.74482 0.87724 0.26602 0.0
O105 O 0.78589 0.86486 0.32486 0.0
O106 O 0.59521 0.80102 0.25664 0.0
O107 O 0.66924 0.86086 0.22817 0.0
O108 O 0.63634 0.86999 0.3307 0.0
O109 O 0.75413 0.80841 0.23218 0.0
O110 O 0.72591 0.75272 0.31549 0.0
O111 O 0.68608 0.85702 0.35404 0.0
O112 O 0.61936 0.85141 0.16325 0.0
C113 C 0.72849 0.80211 0.18989 0.0
C114 C 0.57032 0.90018 0.17719 0.0
H115 H 0.55646 0.88142 0.13538 0.0
H116 H 0.56161 0.92405 0.17872 0.0
H117 H 0.60393 0.91445 0.17419 0.0
C118 C 0.60125 0.77353 0.27803 0.0
C119 C 0.77637 0.88934 0.29966 0.0
H120 H 0.83252 0.84195 0.39309 0.0
H121 H 0.80495 0.73829 0.21304 0.0
H122 H 0.80522 0.78031 0.1761 0.0
H123 H 0.76309 0.74729 0.22475 0.0
C124 C 0.79643 0.76216 0.21872 0.0
C125 C 0.70714 0.76703 0.3478 0.0
C126 C 0.66343 0.87192 0.36765 0.0
H127 H 0.89595 0.83413 0.36291 0.0
H128 H 0.4912 0.82319 0.33865 0.0
Co129 Co 0.96396 0.77938 0.78287 0.0
N130 N 0.01936 0.8105 0.78982 0.0
C131 C 0.04599 0.80099 0.81585 0.0
N132 N 0.08258 0.86144 0.7749 0.0
C133 C 0.04258 0.84734 0.76472 0.0
C134 C 0.08485 0.83266 0.80765 0.0
Co135 Co 0.78552 0.60769 0.78061 0.0
N136 N 0.72796 0.57741 0.78875 0.0
N137 N 0.66208 0.52616 0.78966 0.0
C138 C 0.66335 0.56192 0.79904 0.0
C139 C 0.70336 0.59297 0.79861 0.0
C140 C 0.7019 0.53654 0.78327 0.0
Co141 Co 0.87907 0.69128 0.77817 0.0
C142 C 0.8331 0.59974 0.8123 0.0
H143 H 0.71378 0.62505 0.80414 0.0
O144 O 0.91206 0.75276 0.77843 0.0
O145 O 0.84923 0.69693 0.84805 0.0
O146 O 0.91617 0.68487 0.84197 0.0
O147 O 0.91357 0.68889 0.70671 0.0
O148 O 0.97093 0.74714 0.72757 0.0
O149 O 0.78718 0.64309 0.84858 0.0
O150 O 0.84084 0.63004 0.77485 0.0
O151 O 0.78071 0.64294 0.72097 0.0
O152 O 0.9648 0.74947 0.84878 0.0
O153 O 0.95262 0.80853 0.83368 0.0
O154 O 0.84304 0.69826 0.71603 0.0
O155 O 0.79607 0.57813 0.83314 0.0
C156 C 0.94789 0.71371 0.8689 0.0
C157 C 0.71597 0.50715 0.76754 0.0
H158 H 0.71953 0.49349 0.81049 0.0
H159 H 0.69329 0.48229 0.73774 0.0
H160 H 0.7459 0.52307 0.74419 0.0
C161 C 0.81381 0.67743 0.87075 0.0
C162 C 0.95133 0.71515 0.69552 0.0
H163 H 0.03802 0.7729 0.83917 0.0
H164 H 0.99174 0.85408 0.73557 0.0
H165 H 0.03306 0.87153 0.68172 0.0
H166 H 0.03911 0.90141 0.74908 0.0
C167 C 0.02536 0.86983 0.73111 0.0
C168 C 0.91606 0.78259 0.81411 0.0
C169 C 0.8056 0.67789 0.6986 0.0
H170 H 0.11265 0.83479 0.82512 0.0
H171 H 0.63699 0.56545 0.80551 0.0
Co172 Co 0.17644 0.77359 0.24265 0.0
N173 N 0.18526 0.73165 0.26447 0.0
C174 C 0.20766 0.73268 0.31364 0.0
N175 N 0.18747 0.67391 0.2682 0.0
C176 C 0.17273 0.69504 0.23803 0.0
C177 C 0.20938 0.69751 0.31563 0.0
Co178 Co 0.20705 0.95634 0.29454 0.0
N179 N 0.20648 1.00166 0.27595 0.0
N180 N 0.21633 0.06356 0.29134 0.0
C181 C 0.19983 0.05099 0.23491 0.0
C182 C 0.19347 0.0125 0.22564 0.0
C183 C 0.21957 0.0329 0.31555 0.0
Co184 Co 0.19323 0.86637 0.26559 0.0
C185 C 0.24819 0.94725 0.33712 0.0
H186 H 0.17957 0.99337 0.18574 0.0
O187 O 0.16854 0.81293 0.21573 0.0
O188 O 0.22138 0.8987 0.18775 0.0
O189 O 0.24548 0.86978 0.28806 0.0
O190 O 0.16387 0.83384 0.34179 0.0
O191 O 0.15777 0.7733 0.32294 0.0
O192 O 0.22126 0.95446 0.21424 0.0
O193 O 0.21232 0.91608 0.32074 0.0
O194 O 0.15088 0.92519 0.27484 0.0
O195 O 0.23118 0.80847 0.26132 0.0
O196 O 0.19107 0.77664 0.16511 0.0
O197 O 0.14284 0.86547 0.24306 0.0
O198 O 0.25969 0.98167 0.31027 0.0
C199 C 0.25644 0.84392 0.27893 0.0
C200 C 0.236 0.03293 0.37851 0.0
H201 H 0.26791 0.03992 0.37414 0.0
H202 H 0.23656 0.05636 0.4094 0.0
H203 H 0.21794 1.00243 0.39952 0.0
C204 C 0.22854 0.93465 0.17501 0.0
C205 C 0.15106 0.79664 0.35676 0.0
H206 H 0.22196 0.75759 0.34615 0.0
H207 H 0.13035 0.69765 0.17454 0.0
H208 H 0.12573 0.64786 0.18164 0.0
H209 H 0.16772 0.68755 0.14073 0.0
C210 C 0.14735 0.68108 0.18067 0.0
C211 C 0.17476 0.79985 0.16293 0.0
C212 C 0.1297 0.88991 0.25123 0.0
H213 H 0.22478 0.68937 0.35 0.0
H214 H 0.19085 0.06759 0.2042 0.0
Co215 Co 0.26174 0.20047 0.77456 0.0
N216 N 0.23089 0.22481 0.78493 0.0
C217 C 0.24518 0.26479 0.79512 0.0
N218 N 0.17846 0.23521 0.79873 0.0
C219 C 0.19015 0.2076 0.78561 0.0
C220 C 0.21312 0.27121 0.8042 0.0
Co221 Co 0.42968 0.1873 0.75727 0.0
N222 N 0.45866 0.15852 0.75957 0.0
N223 N 0.50817 0.14208 0.76951 0.0
C224 C 0.47195 0.10756 0.76559 0.0
C225 C 0.44188 0.11764 0.75879 0.0
C226 C 0.49937 0.17262 0.76546 0.0
Co227 Co 0.34739 0.19891 0.76664 0.0
C228 C 0.43911 0.24094 0.79699 0.0
H229 H 0.40963 0.09636 0.75452 0.0
O230 O 0.28786 0.17622 0.76823 0.0
O231 O 0.34152 0.16077 0.83603 0.0
O232 O 0.35701 0.24359 0.83142 0.0
O233 O 0.34948 0.23612 0.69621 0.0
O234 O 0.29327 0.23978 0.7174 0.0
O235 O 0.39371 0.15088 0.81898 0.0
O236 O 0.40804 0.22043 0.75934 0.0
O237 O 0.39398 0.15093 0.69524 0.0
O238 O 0.29354 0.23162 0.83877 0.0
O239 O 0.23356 0.15854 0.82672 0.0
O240 O 0.33622 0.15343 0.70446 0.0
O241 O 0.45966 0.22353 0.81438 0.0
C242 C 0.32963 0.24898 0.85827 0.0
C243 C 0.53071 0.21692 0.76887 0.0
H244 H 0.53512 0.22694 0.81758 0.0
H245 H 0.56036 0.2224 0.75093 0.0
H246 H 0.52042 0.23519 0.74247 0.0
C247 C 0.36112 0.14218 0.84744 0.0
C248 C 0.32476 0.24969 0.68519 0.0
H249 H 0.27695 0.28784 0.79573 0.0
H250 H 0.17847 0.15394 0.73534 0.0
H251 H 0.13444 0.16023 0.74433 0.0
H252 H 0.15381 0.14446 0.80832 0.0
C253 C 0.16243 0.16409 0.76705 0.0
C254 C 0.25942 0.1494 0.80268 0.0
C255 C 0.35691 0.1383 0.68038 0.0
H256 H 0.21513 0.30002 0.81508 0.0
H257 H 0.46749 0.07711 0.76859 0.0
H258 H 0.25149 0.5053 0.25041 0.0
H259 H 0.12462 0.41721 0.28684 0.0
H260 H 0.10771 0.47175 0.2832 0.0
H261 H 0.25422 0.5852 0.345 0.0
H262 H 0.28788 0.62535 0.29414 0.0
H263 H 0.28991 0.579 0.29836 0.0
H264 H 0.27834 0.56968 0.18081 0.0
H265 H 0.27549 0.61561 0.17631 0.0
H266 H 0.23417 0.56838 0.14706 0.0
H267 H 0.10363 0.53481 0.27389 0.0
H268 H 0.11496 0.60504 0.27278 0.0
H269 H 0.24391 0.65263 0.24602 0.0
C270 C 0.22027 0.49755 0.25825 0.0
C271 C 0.18948 0.45694 0.26886 0.0
C272 C 0.14889 0.44808 0.27877 0.0
C273 C 0.13881 0.4788 0.27637 0.0
C274 C 0.16967 0.51829 0.2646 0.0
C275 C 0.20968 0.52797 0.25684 0.0
C276 C 0.2372 0.57326 0.24755 0.0
C277 C 0.26917 0.59179 0.29936 0.0
C278 C 0.25748 0.58223 0.18415 0.0
C279 C 0.20628 0.58734 0.25132 0.0
C280 C 0.16742 0.55503 0.26029 0.0
C281 C 0.13383 0.5604 0.2664 0.0
C282 C 0.14034 0.60011 0.26498 0.0
C283 C 0.18 0.63357 0.25764 0.0
C284 C 0.21325 0.62711 0.25022 0.0
H285 H 0.57067 0.16013 0.69121 0.0
H286 H 0.53152 0.12751 0.87893 0.0
H287 H 0.59556 0.12745 0.90345 0.0
H288 H 0.62013 0.09869 0.67689 0.0
H289 H 0.66124 0.13573 0.63061 0.0
H290 H 0.61205 0.13217 0.62757 0.0
H291 H 0.6448 0.20859 0.65613 0.0
H292 H 0.69405 0.21247 0.6577 0.0
H293 H 0.67637 0.22752 0.72396 0.0
H294 H 0.667 0.13653 0.90883 0.0
H295 H 0.73969 0.15701 0.89536 0.0
H296 H 0.7305 0.1785 0.70256 0.0
C297 C 0.57587 0.15312 0.73739 0.0
C298 C 0.54655 0.14427 0.78358 0.0
C299 C 0.55392 0.13472 0.84333 0.0
C300 C 0.59004 0.13436 0.85741 0.0
C301 C 0.61839 0.14296 0.81085 0.0
C302 C 0.61166 0.15217 0.75198 0.0
C303 C 0.64746 0.16144 0.71077 0.0
C304 C 0.63442 0.13014 0.65836 0.0
C305 C 0.66682 0.20509 0.68569 0.0
C306 C 0.67576 0.15693 0.75578 0.0
C307 C 0.6584 0.14604 0.81329 0.0
C308 C 0.68042 0.144 0.8636 0.0
C309 C 0.72159 0.15508 0.85549 0.0
C310 C 0.74023 0.16732 0.79735 0.0
C311 C 0.71642 0.16697 0.74672 0.0
H312 H 0.38305 0.58093 0.21318 0.0
H313 H 0.41219 0.51609 0.3485 0.0
H314 H 0.47467 0.58029 0.37775 0.0
H315 H 0.47819 0.64062 0.15885 0.0
H316 H 0.47577 0.68646 0.14789 0.0
H317 H 0.42982 0.63775 0.14579 0.0
H318 H 0.39857 0.66052 0.23186 0.0
H319 H 0.44417 0.7098 0.23341 0.0
H320 H 0.42619 0.68045 0.30288 0.0
H321 H 0.53926 0.64778 0.3773 0.0
H322 H 0.59786 0.71609 0.35733 0.0
H323 H 0.52531 0.73842 0.22499 0.0
C324 C 0.4018 0.58099 0.2509 0.0
C325 C 0.39286 0.54428 0.27988 0.0
C326 C 0.41841 0.54443 0.32734 0.0
C327 C 0.45391 0.58061 0.34376 0.0
C328 C 0.46286 0.61625 0.31263 0.0
C329 C 0.437 0.61695 0.26821 0.0
C330 C 0.45513 0.65842 0.23829 0.0
C331 C 0.46002 0.65561 0.1686 0.0
C332 C 0.42949 0.67848 0.25248 0.0
C333 C 0.49605 0.68035 0.27062 0.0
C334 C 0.49986 0.65556 0.31349 0.0
C335 C 0.53627 0.66782 0.34502 0.0
C336 C 0.5695 0.70653 0.33293 0.0
C337 C 0.56605 0.73265 0.28988 0.0
C338 C 0.52867 0.71936 0.25881 0.0
H339 H 0.83886 0.40546 0.68987 0.0
H340 H 0.90588 0.40945 0.85396 0.0
H341 H 0.90913 0.4738 0.885 0.0
H342 H 0.89525 0.51373 0.6593 0.0
H343 H 0.85124 0.51552 0.63186 0.0
H344 H 0.85362 0.46949 0.6235 0.0
H345 H 0.78536 0.42889 0.68148 0.0
H346 H 0.78253 0.47465 0.68908 0.0
H347 H 0.78009 0.44595 0.75639 0.0
H348 H 0.90187 0.53829 0.89993 0.0
H349 H 0.8834 0.59261 0.89731 0.0
H350 H 0.82647 0.5491 0.71963 0.0
C351 C 0.85436 0.41982 0.73235 0.0
C352 C 0.87128 0.4013 0.76999 0.0
C353 C 0.89126 0.42161 0.82517 0.0
C354 C 0.89381 0.45877 0.84275 0.0
C355 C 0.87677 0.47604 0.80444 0.0
C356 C 0.85746 0.45703 0.75024 0.0
C357 C 0.8412 0.48133 0.71712 0.0
C358 C 0.86155 0.49587 0.65421 0.0
C359 C 0.79454 0.45621 0.71066 0.0
C360 C 0.85412 0.51698 0.76101 0.0
C361 C 0.87457 0.51353 0.81134 0.0
C362 C 0.88665 0.54152 0.85998 0.0
C363 C 0.8765 0.57273 0.8579 0.0
C364 C 0.85522 0.5765 0.807 0.0
C365 C 0.84462 0.54843 0.75771 0.0
H366 H 0.28892 0.79532 0.25857 0.0
H367 H 0.32259 0.9203 0.30037 0.0
H368 H 0.39535 0.94094 0.28832 0.0
H369 H 0.37155 0.79521 0.33735 0.0
H370 H 0.37588 0.76287 0.28083 0.0
H371 H 0.32744 0.75937 0.2938 0.0
H372 H 0.32278 0.77212 0.17785 0.0
H373 H 0.37186 0.7769 0.16487 0.0
H374 H 0.36279 0.81747 0.14271 0.0
H375 H 0.46498 0.94686 0.27303 0.0
H376 H 0.52417 0.93577 0.26683 0.0
H377 H 0.44271 0.80805 0.23002 0.0
C378 C 0.31143 0.82705 0.26583 0.0
C379 C 0.30003 0.85618 0.28049 0.0
C380 C 0.33065 0.89738 0.28942 0.0
C381 C 0.37198 0.90943 0.28208 0.0
C382 C 0.38195 0.87995 0.26552 0.0
C383 C 0.35242 0.83955 0.25822 0.0
C384 C 0.37053 0.81332 0.24189 0.0
C385 C 0.36079 0.78081 0.29142 0.0
C386 C 0.35613 0.79382 0.17802 0.0
C387 C 0.41512 0.84515 0.24175 0.0
C388 C 0.42133 0.88353 0.25498 0.0
C389 C 0.46044 0.9171 0.26159 0.0
C390 C 0.49384 0.91077 0.25717 0.0
C391 C 0.48759 0.87134 0.24613 0.0
C392 C 0.44794 0.83862 0.23644 0.0
H393 H 0.511 0.2902 0.85764 0.0
H394 H 0.42129 0.29612 0.74029 0.0
H395 H 0.46802 0.37028 0.72796 0.0
H396 H 0.55355 0.39124 0.93039 0.0
H397 H 0.60458 0.39926 0.92955 0.0
H398 H 0.5617 0.34841 0.93551 0.0
H399 H 0.58717 0.32699 0.84022 0.0
H400 H 0.62967 0.37791 0.83317 0.0
H401 H 0.59525 0.35438 0.76929 0.0
H402 H 0.52839 0.44406 0.7222 0.0
H403 H 0.59373 0.50925 0.72661 0.0
H404 H 0.64512 0.45375 0.84326 0.0
C405 C 0.50038 0.30702 0.83058 0.0
C406 C 0.46175 0.28674 0.80046 0.0
C407 C 0.45007 0.31049 0.76474 0.0
C408 C 0.47676 0.35277 0.75705 0.0
C409 C 0.51531 0.37114 0.78508 0.0
C410 C 0.52684 0.34889 0.82161 0.0
C411 C 0.57074 0.37479 0.84355 0.0
C412 C 0.57275 0.37866 0.91393 0.0
C413 C 0.59726 0.35748 0.82016 0.0
C414 C 0.58258 0.41526 0.81335 0.0
C415 C 0.55009 0.41264 0.78015 0.0
C416 C 0.55377 0.4462 0.74826 0.0
C417 C 0.59111 0.48318 0.75093 0.0
C418 C 0.62492 0.48673 0.78456 0.0
C419 C 0.62034 0.452 0.81605 0.0
H420 H 0.18246 0.23336 0.21415 0.0
H421 H 0.09397 0.18915 0.36147 0.0
H422 H 0.12537 0.1515 0.4047 0.0
H423 H 0.18046 0.13477 0.1974 0.0
H424 H 0.23098 0.16603 0.16742 0.0
H425 H 0.19341 0.18174 0.16162 0.0
H426 H 0.2564 0.2505 0.2209 0.0
H427 H 0.28431 0.2238 0.2305 0.0
H428 H 0.27045 0.24287 0.29656 0.0
H429 H 0.15826 0.11195 0.42185 0.0
H430 H 0.17865 0.06196 0.39634 0.0
H431 H 0.25462 0.13859 0.2503 0.0
C432 C 0.1697 0.21565 0.25546 0.0
C433 C 0.13625 0.21426 0.28467 0.0
C434 C 0.1196 0.19025 0.33795 0.0
C435 C 0.13773 0.16954 0.36368 0.0
C436 C 0.17225 0.17337 0.33545 0.0
C437 C 0.18712 0.19466 0.28155 0.0
C438 C 0.21981 0.18845 0.25448 0.0
C439 C 0.20557 0.16669 0.19154 0.0
C440 C 0.26021 0.22879 0.25032 0.0
C441 C 0.22172 0.16066 0.30194 0.0
C442 C 0.19401 0.15242 0.34882 0.0
C443 C 0.18132 0.11912 0.38741 0.0
C444 C 0.1935 0.09106 0.37321 0.0
C445 C 0.21907 0.09768 0.32243 0.0
C446 C 0.23654 0.13454 0.29084 0.0
H447 H 0.94566 0.09799 0.85256 0.0
H448 H 0.93041 0.19655 0.78321 0.0
H449 H 1.00436 0.24267 0.78861 0.0
H450 H 0.039 0.16298 0.95568 0.0
H451 H 0.05663 0.12847 0.9363 0.0
H452 H 1.00272 0.11012 0.94058 0.0
H453 H 0.99885 0.08178 0.82879 0.0
H454 H 0.05327 0.10504 0.82498 0.0
H455 H 0.02636 0.11726 0.76821 0.0
H456 H 0.07982 0.27238 0.77859 0.0
H457 H 0.15028 0.28564 0.76668 0.0
H458 H 0.11607 0.17051 0.85441 0.0
C459 C 0.95769 0.12956 0.83997 0.0
C460 C 0.93231 0.14345 0.81577 0.0
C461 C 0.94913 0.18497 0.80066 0.0
C462 C 0.99124 0.21152 0.804 0.0
C463 C 1.01569 0.19607 0.82439 0.0
C464 C 0.99937 0.15632 0.84401 0.0
C465 C 0.032 0.14581 0.85832 0.0
C466 C 0.03253 0.13628 0.92679 0.0
C467 C 0.02732 0.11041 0.81763 0.0
C468 C 0.06915 0.18536 0.84122 0.0
C469 C 0.05931 0.21405 0.82174 0.0
C470 C 0.08813 0.25072 0.79563 0.0
C471 C 0.12791 0.25791 0.78886 0.0
C472 C 0.13823 0.22859 0.80832 0.0
C473 C 0.10879 0.1928 0.83709 0.0
H474 H 0.96569 0.10821 0.3274 0.0
H475 H 0.88057 0.1516 0.307 0.0
H476 H 0.82367 0.08307 0.33279 0.0
H477 H 0.91541 0.02611 0.24837 0.0
H478 H 0.92525 0.99151 0.29191 0.0
H479 H 0.96037 0.04518 0.29606 0.0
H480 H 0.95317 0.04461 0.41433 0.0
H481 H 0.91887 0.99035 0.41107 0.0
H482 H 0.90326 0.02286 0.44787 0.0
H483 H 0.77727 1.01009 0.33246 0.0
H484 H 0.7427 0.93674 0.31299 0.0
H485 H 0.85771 0.93845 0.32685 0.0
C486 C 0.93515 0.10332 0.33204 0.0
C487 C 0.92674 0.13432 0.31639 0.0
C488 C 0.88691 0.12779 0.32016 0.0
C489 C 0.85474 0.08917 0.3348 0.0
C490 C 0.86354 0.0581 0.34566 0.0
C491 C 0.90293 0.06487 0.34583 0.0
C492 C 0.90372 0.02535 0.34719 0.0
C493 C 0.92757 0.02187 0.29263 0.0
C494 C 0.92076 0.02051 0.4088 0.0
C495 C 0.85876 0.99532 0.34162 0.0
C496 C 0.83624 0.01492 0.34264 0.0
C497 C 0.79452 0.99441 0.33228 0.0
C498 C 0.77534 0.95288 0.32008 0.0
C499 C 0.79797 0.93248 0.31645 0.0
C500 C 0.83996 0.95359 0.3293 0.0
H501 H 0.85982 0.95605 0.82309 0.0
H502 H 0.73315 0.86761 0.78711 0.0
H503 H 0.75015 0.81239 0.79173 0.0
H504 H 0.90553 0.91292 0.74347 0.0
H505 H 0.9453 0.92449 0.79902 0.0
H506 H 0.92248 0.95604 0.79431 0.0
H507 H 0.90355 0.94381 0.90974 0.0
H508 H 0.92697 0.91267 0.91507 0.0
H509 H 0.87476 0.89243 0.938 0.0
H510 H 0.78513 0.76816 0.78903 0.0
H511 H 0.83139 0.74035 0.78875 0.0
H512 H 0.93106 0.8581 0.84479 0.0
C513 C 0.83492 0.92517 0.8195 0.0
C514 C 0.79474 0.91644 0.80692 0.0
C515 C 0.76411 0.87523 0.7975 0.0
C516 C 0.77347 0.84364 0.8003 0.0
C517 C 0.81346 0.85361 0.81393 0.0
C518 C 0.84335 0.89346 0.82472 0.0
C519 C 0.88405 0.89692 0.83829 0.0
C520 C 0.9162 0.92419 0.79095 0.0
C521 C 0.89815 0.91236 0.9042 0.0
C522 C 0.87295 0.85295 0.83144 0.0
C523 C 0.83232 0.82823 0.81686 0.0
C524 C 0.81674 0.78722 0.80224 0.0
C525 C 0.84348 0.77146 0.8022 0.0
C526 C 0.88514 0.79616 0.81817 0.0
C527 C 0.89934 0.83739 0.83384 0.0
H528 H 0.90007 0.76301 0.31875 0.0
H529 H 0.88187 0.83153 0.17668 0.0
H530 H 0.94976 0.85242 0.13484 0.0
H531 H 0.98728 0.83117 0.35891 0.0
H532 H 1.01237 0.80236 0.37396 0.0
H533 H 0.95804 0.77798 0.37888 0.0
H534 H 0.95014 0.72399 0.30271 0.0
H535 H 1.00447 0.74668 0.29386 0.0
H536 H 0.97212 0.73746 0.22769 0.0
H537 H 0.0244 0.8871 0.13741 0.0
H538 H 0.09751 0.91895 0.16625 0.0
H539 H 0.06754 0.82534 0.30246 0.0
C540 C 0.90959 0.77982 0.27616 0.0
C541 C 0.88645 0.79546 0.2502 0.0
C542 C 0.89939 0.81873 0.19594 0.0
C543 C 0.93793 0.83088 0.17225 0.0
C544 C 0.96226 0.81858 0.20295 0.0
C545 C 0.94794 0.79201 0.25233 0.0
C546 C 0.98186 0.78942 0.28458 0.0
C547 C 0.98495 0.80095 0.35311 0.0
C548 C 0.97695 0.74693 0.27664 0.0
C549 C 1.01774 0.82133 0.24945 0.0
C550 C 1.00603 0.83782 0.20238 0.0
C551 C 0.03407 0.8733 0.17214 0.0
C552 C 0.07517 0.89166 0.1895 0.0
C553 C 0.08717 0.87421 0.23635 0.0
C554 C 0.05845 0.83855 0.26587 0.0
H555 H 0.23632 0.08495 0.8808 0.0
H556 H 0.24246 0.11874 0.68941 0.0
H557 H 0.20255 0.04656 0.65975 0.0
H558 H 0.24028 0.98934 0.85611 0.0
H559 H 0.20343 0.96277 0.91559 0.0
H560 H 0.23675 0.01694 0.92076 0.0
H561 H 0.17477 0.02801 0.93129 0.0
H562 H 0.14171 0.97377 0.92698 0.0
H563 H 0.13523 1.00648 0.87373 0.0
H564 H 0.15833 0.97236 0.65088 0.0
H565 H 0.10688 0.89972 0.66592 0.0
H566 H 0.12998 0.91339 0.8617 0.0
C567 C 0.23081 0.07679 0.8326 0.0
C568 C 0.24378 0.10684 0.78703 0.0
C569 C 0.23404 0.09573 0.72456 0.0
C570 C 0.21117 0.05493 0.70729 0.0
C571 C 0.19942 0.02576 0.75291 0.0
C572 C 0.20867 0.03599 0.81431 0.0
C573 C 0.18775 0.99877 0.85454 0.0
C574 C 0.21892 0.99142 0.88872 0.0
C575 C 0.15812 1.00196 0.89926 0.0
C576 C 0.16525 0.96645 0.80634 0.0
C577 C 0.17268 0.98256 0.74791 0.0
C578 C 0.15266 0.95916 0.6963 0.0
C579 C 0.12358 0.91821 0.70508 0.0
C580 C 0.11527 0.90165 0.76476 0.0
C581 C 0.13688 0.92568 0.81565 0.0
H582 H 0.24403 0.30515 0.15395 0.0
H583 H 0.22837 0.38554 0.02963 0.0
H584 H 0.26656 0.37275 0.94998 0.0
H585 H 0.34493 0.32768 0.10295 0.0
H586 H 0.33286 0.27549 0.10999 0.0
H587 H 0.30729 0.29488 0.15698 0.0
H588 H 0.23653 0.23633 0.11187 0.0
H589 H 0.26546 0.21828 0.07022 0.0
H590 H 0.23048 0.22956 0.0301 0.0
H591 H 0.31773 0.36041 0.88923 0.0
H592 H 0.34903 0.32622 0.83404 0.0
H593 H 0.31941 0.24227 0.98521 0.0
C594 C 0.24708 0.31875 0.10919 0.0
C595 C 0.23252 0.34646 0.09883 0.0
C596 C 0.23847 0.36396 0.03931 0.0
C597 C 0.26108 0.35757 0.99386 0.0
C598 C 0.27719 0.33243 1.00687 0.0
C599 C 0.2687 0.31161 0.06179 0.0
C600 C 0.28666 0.28336 0.06103 0.0
C601 C 0.31983 0.29601 0.11072 0.0
C602 C 0.25279 0.23908 0.06862 0.0
C603 C 0.30554 0.29084 0.99716 0.0
C604 C 0.30182 0.32116 0.96829 0.0
C605 C 0.31974 0.33588 0.91114 0.0
C606 C 0.33856 0.3168 0.88056 0.0
C607 C 0.33725 0.28139 0.90458 0.0
C608 C 0.32202 0.26963 0.9654 0.0
H609 H 0.91621 0.27865 0.59197 0.0
H610 H 0.94545 0.19149 0.67115 0.0
H611 H 1.0049 0.21645 0.60282 0.0
H612 H 0.93871 0.26352 0.43794 0.0
H613 H 0.95861 0.31566 0.41475 0.0
H614 H 0.92117 0.29449 0.47457 0.0
H615 H 0.9691 0.35212 0.54836 0.0
H616 H 1.00705 0.37383 0.48911 0.0
H617 H 0.01982 0.36105 0.56246 0.0
H618 H 0.06244 0.2513 0.52291 0.0
H619 H 0.10164 0.28085 0.42804 0.0
H620 H 0.03318 0.34249 0.39493 0.0
C621 C 0.93527 0.26498 0.59545 0.0
C622 C 0.92609 0.23344 0.63879 0.0
C623 C 0.95167 0.21601 0.63985 0.0
C624 C 0.98585 0.23018 0.60099 0.0
C625 C 0.9943 0.26158 0.5596 0.0
C626 C 0.96908 0.27809 0.55566 0.0
C627 C 0.98241 0.30856 0.50303 0.0
C628 C 0.94822 0.29473 0.45469 0.0
C629 C 0.99536 0.35144 0.5272 0.0
C630 C 0.01891 0.3066 0.47779 0.0
C631 C 0.02587 0.27998 0.51195 0.0
C632 C 0.05714 0.27224 0.49614 0.0
C633 C 0.07992 0.28982 0.4422 0.0
C634 C 0.07131 0.31469 0.40337 0.0
C635 C 0.04144 0.32444 0.4237 0.0
H636 H 0.65208 0.87829 0.04738 0.0
H637 H 0.7272 0.93232 0.20914 0.0
H638 H 0.76357 0.99828 0.15658 0.0
H639 H 0.73759 0.93806 0.93734 0.0
H640 H 0.70403 0.94128 0.88167 0.0
H641 H 0.68513 0.89806 0.93209 0.0
H642 H 0.62827 0.91239 0.96726 0.0
H643 H 0.64801 0.95656 0.91862 0.0
H644 H 0.642 0.96138 0.99972 0.0
H645 H 0.78886 0.06114 0.08829 0.0
H646 H 0.81228 0.1103 1.00255 0.0
H647 H 0.72465 0.0164 0.88174 0.0
C648 C 0.67696 0.90369 0.0712 0.0
C649 C 0.68661 0.89935 0.13311 0.0
C650 C 0.71925 0.93395 0.16205 0.0
C651 C 0.73985 0.97205 0.13257 0.0
C652 C 0.7284 0.97562 0.0729 0.0
C653 C 0.69878 0.94199 0.04158 0.0
C654 C 0.69401 0.95387 0.97635 0.0
C655 C 0.70589 0.9315 0.92908 0.0
C656 C 0.65047 0.94554 0.96483 0.0
C657 C 0.72452 0.99952 0.97664 0.0
C658 C 0.74371 1.01151 0.03311 0.0
C659 C 0.77379 0.05196 0.04403 0.0
C660 C 0.78632 0.08016 0.99526 0.0
C661 C 0.76911 0.06824 0.93567 0.0
C662 C 0.73691 0.02739 0.92727 0.0
H663 H 0.7438 0.64109 0.61022 0.0
H664 H 0.83514 0.75922 0.67989 0.0
H665 H 0.80902 0.79251 0.61153 0.0
H666 H 0.75957 0.67639 0.45397 0.0
H667 H 0.70735 0.64378 0.43055 0.0
H668 H 0.72849 0.62861 0.4924 0.0
H669 H 0.67014 0.62051 0.56298 0.0
H670 H 0.64935 0.6365 0.50147 0.0
H671 H 0.66202 0.66302 0.57408 0.0
H672 H 0.77295 0.81382 0.53537 0.0
H673 H 0.74384 0.82341 0.43997 0.0
H674 H 0.68323 0.69338 0.40499 0.0
C675 C 0.75782 0.67391 0.61176 0.0
C676 C 0.79038 0.69726 0.65335 0.0
C677 C 0.80905 0.7403 0.65124 0.0
C678 C 0.79443 0.75964 0.61211 0.0
C679 C 0.76193 0.73588 0.57272 0.0
C680 C 0.74483 0.69404 0.57047 0.0
C681 C 0.7147 0.67645 0.51703 0.0
C682 C 0.72835 0.65506 0.47074 0.0
C683 C 0.67149 0.64739 0.5403 0.0
C684 C 0.71767 0.71489 0.48978 0.0
C685 C 0.7441 0.74861 0.52408 0.0
C686 C 0.75228 0.7876 0.50808 0.0
C687 C 0.73499 0.79268 0.45385 0.0
C688 C 0.71064 0.75916 0.41454 0.0
C689 C 0.70089 0.71956 0.43435 0.0
H690 H 0.96608 0.74856 0.9832 0.0
H691 H 0.99062 0.67357 0.86078 0.0
H692 H 0.05382 0.69216 0.91925 0.0
H693 H 0.06451 0.82768 0.99888 0.0
H694 H 0.06405 0.83822 0.07939 0.0
H695 H 1.01736 0.81598 0.0355 0.0
H696 H 0.98315 0.75589 0.10873 0.0
H697 H 0.02867 0.77653 0.15539 0.0
H698 H 1.00656 0.7256 0.12535 0.0
H699 H 0.12071 0.72962 0.97918 0.0
H700 H 0.17605 0.7648 0.05413 0.0
H701 H 0.10605 0.81037 0.14811 0.0
C702 C 0.98345 0.73404 0.97097 0.0
C703 C 0.97222 0.70818 0.91828 0.0
C704 C 0.99724 0.69179 0.9021 0.0
C705 C 0.03387 0.70312 0.93436 0.0
C706 C 0.04507 0.73048 0.98367 0.0
C707 C 0.01978 0.74447 1.0035 0.0
C708 C 0.03915 0.77372 0.05774 0.0
C709 C 0.04666 0.81642 0.0419 0.0
C710 C 1.01274 0.75689 0.11517 0.0
C711 C 0.07936 0.77415 0.06552 0.0
C712 C 0.08249 0.74989 1.02091 0.0
C713 C 0.11781 0.74757 1.01535 0.0
C714 C 0.14947 0.7682 0.05839 0.0
C715 C 0.14584 0.79014 0.10884 0.0
C716 C 0.11039 0.79403 0.1109 0.0
H717 H 0.38348 0.12332 0.56927 0.0
H718 H 0.28629 0.06777 0.70076 0.0
H719 H 0.24939 1.00707 0.63322 0.0
H720 H 0.32573 0.08876 0.43407 0.0
H721 H 0.35972 0.0773 0.39221 0.0
H722 H 0.37939 0.11582 0.45116 0.0
H723 H 0.41167 0.0801 0.50917 0.0
H724 H 0.39382 0.04147 0.45018 0.0
H725 H 0.38097 0.02717 0.52934 0.0
H726 H 0.22072 0.95376 0.54372 0.0
H727 H 0.20375 0.91663 0.4444 0.0
H728 H 0.32436 1.00214 0.37829 0.0
C729 C 0.35429 0.09845 0.58361 0.0
C730 C 0.33605 0.10163 0.63859 0.0
C731 C 0.29871 0.06758 0.65642 0.0
C732 C 0.27828 0.03243 0.619 0.0
C733 C 0.29631 0.03069 0.5641 0.0
C734 C 0.33392 0.06268 0.5471 0.0
C735 C 0.34695 0.05333 0.4861 0.0
C736 C 0.35328 0.08566 0.438 0.0
C737 C 0.38566 0.05034 0.4942 0.0
C738 C 0.31039 1.01183 0.4703 0.0
C739 C 0.28145 0.999 0.51591 0.0
C740 C 0.24366 0.96327 0.50842 0.0
C741 C 0.2344 0.94164 0.45193 0.0
C742 C 0.26277 0.95554 0.40304 0.0
C743 C 0.30218 0.98974 0.41483 0.0
H744 H 0.73955 0.65538 0.93233 0.0
H745 H 0.86719 0.74918 0.92539 0.0
H746 H 0.85329 0.79403 0.98781 0.0
H747 H 0.69325 0.71882 0.94363 0.0
H748 H 0.65802 0.68993 1.00363 0.0
H749 H 0.67516 0.6651 0.95077 0.0
H750 H 0.7007 0.63936 0.04135 0.0
H751 H 0.6826 0.66318 0.09429 0.0
H752 H 0.73502 0.67539 0.0974 0.0
H753 H 0.82671 0.83158 0.0447 0.0
H754 H 0.79511 0.85163 0.12568 0.0
H755 H 0.68747 0.73175 0.11829 0.0
C756 C 0.76453 0.68528 0.94411 0.0
C757 C 0.80415 0.69932 0.91985 0.0
C758 C 0.83609 0.73808 0.93947 0.0
C759 C 0.82859 0.76412 0.97535 0.0
C760 C 0.78921 0.7505 0.99543 0.0
C761 C 0.75808 0.71131 0.9837 0.0
C762 C 0.72037 0.70298 1.02021 0.0
C763 C 0.68457 0.69364 0.97696 0.0
C764 C 0.709 0.66816 0.06604 0.0
C765 C 0.73546 0.74367 0.05341 0.0
C766 C 0.77485 0.77091 0.03602 0.0
C767 C 0.79596 0.81047 0.05919 0.0
C768 C 0.77754 0.82181 0.10468 0.0
C769 C 0.73868 0.79362 0.12781 0.0
C770 C 0.71673 0.75433 0.10038 0.0
H771 H 0.12522 0.83228 0.4454 0.0
H772 H 0.10893 0.71561 0.38672 0.0
H773 H 0.05434 0.68073 0.4623 0.0
H774 H 0.10919 0.80442 0.60765 0.0
H775 H 0.08308 0.83195 0.62409 0.0
H776 H 0.12103 0.84961 0.56469 0.0
H777 H 0.06887 0.84585 0.48103 0.0
H778 H 0.03415 0.83366 0.5441 0.0
H779 H 0.01925 0.80049 0.47849 0.0
H780 H 0.99662 0.65706 0.54381 0.0
H781 H 0.94989 0.65032 0.62924 0.0
H782 H 1.00583 0.7819 0.63379 0.0
C783 C 0.11055 0.79946 0.44878 0.0
C784 C 0.12187 0.7771 0.40929 0.0
C785 C 0.10142 0.73397 0.41601 0.0
C786 C 0.06991 0.71357 0.45883 0.0
C787 C 0.05892 0.73634 0.49601 0.0
C788 C 0.07922 0.77848 0.4921 0.0
C789 C 0.06285 0.79599 0.53928 0.0
C790 C 0.09604 0.82205 0.58669 0.0
C791 C 0.04533 0.8205 0.50877 0.0
C792 C 0.02937 0.7573 0.56821 0.0
C793 C 0.0273 0.72298 0.54325 0.0
C794 C 0.99821 0.68395 0.56377 0.0
C795 C 0.97139 0.6802 0.61192 0.0
C796 C 0.97394 0.71534 0.63895 0.0
C797 C 1.00297 0.75409 0.61515 0.0
H798 H 0.32212 0.13265 0.95944 0.0
H799 H 0.36022 0.07041 0.83246 0.0
H800 H 0.33117 1.01022 0.89996 0.0
H801 H 0.34603 0.09204 0.09774 0.0
H802 H 0.30404 0.08896 0.14054 0.0
H803 H 0.32813 0.12711 0.08205 0.0
H804 H 0.25818 0.10075 1.02677 0.0
H805 H 0.23502 0.06407 0.08736 0.0
H806 H 0.22781 0.04733 1.00879 0.0
H807 H 0.29365 0.95366 0.98211 0.0
H808 H 0.25703 0.91096 0.07264 0.0
H809 H 0.24836 0.0126 0.14645 0.0
C810 C 0.3245 0.10642 0.94605 0.0
C811 C 0.34385 0.1066 0.89052 0.0
C812 C 0.34627 0.0715 0.87504 0.0
C813 C 0.32968 0.03695 0.91317 0.0
C814 C 0.31117 0.03777 0.96788 0.0
C815 C 0.30897 0.07192 0.98459 0.0
C816 C 0.28836 0.06547 0.04641 0.0
C817 C 0.31844 0.09515 0.09452 0.0
C818 C 0.25011 0.06966 0.04195 0.0
C819 C 0.2775 0.02187 0.06007 0.0
C820 C 0.29083 1.00614 1.01469 0.0
C821 C 0.28341 0.96599 1.01816 0.0
C822 C 0.2624 0.94174 0.06968 0.0
C823 C 0.249 0.95766 0.11725 0.0
C824 C 0.25708 0.99845 0.11131 0.0
H825 H 0.26339 0.22371 0.60364 0.0
H826 H 0.38466 0.32451 0.6396 0.0
H827 H 0.37439 0.36427 0.55735 0.0
H828 H 0.26008 0.23685 0.43641 0.0
H829 H 0.20726 0.2231 0.43879 0.0
H830 H 0.22696 0.20189 0.49388 0.0
H831 H 0.20014 0.22856 0.58118 0.0
H832 H 0.18132 0.25046 0.52577 0.0
H833 H 0.21635 0.28201 0.58501 0.0
H834 H 0.34724 0.39427 0.47522 0.0
H835 H 0.31003 0.40974 0.39647 0.0
H836 H 0.20499 0.28909 0.41802 0.0
C837 C 0.28841 0.25374 0.59284 0.0
C838 C 0.32531 0.27069 0.6271 0.0
C839 C 0.35674 0.31045 0.61285 0.0
C840 C 0.35079 0.33336 0.56676 0.0
C841 C 0.31321 0.3161 0.53569 0.0
C842 C 0.2828 0.27687 0.54783 0.0
C843 C 0.24445 0.26557 0.51083 0.0
C844 C 0.23415 0.22971 0.46741 0.0
C845 C 0.20846 0.2561 0.55324 0.0
C846 C 0.25767 0.30453 0.47534 0.0
C847 C 0.29741 0.33338 0.49039 0.0
C848 C 0.31626 0.37172 0.46324 0.0
C849 C 0.29462 0.38029 0.41858 0.0
C850 C 0.25421 0.35085 0.40093 0.0
C851 C 0.23543 0.31264 0.43087 0.0
H852 H 0.03796 0.23854 0.10991 0.0
H853 H 0.10405 0.36994 0.09786 0.0
H854 H 0.05775 0.36574 1.013 0.0
H855 H 1.0136 0.21463 0.95173 0.0
H856 H 0.96298 0.17264 0.96527 0.0
H857 H 1.00263 0.18553 1.02147 0.0
H858 H 0.96047 0.19366 0.10576 0.0
H859 H 0.91939 0.17997 0.05201 0.0
H860 H 0.9403 0.22724 0.09406 0.0
H861 H 0.9978 0.34529 0.93461 0.0
H862 H 0.93711 0.31169 0.86647 0.0
H863 H 0.91056 0.19401 0.93675 0.0
C864 C 0.04308 0.26653 0.0895 0.0
C865 C 0.07466 0.30454 0.111 0.0
C866 C 0.08054 0.34038 0.08163 0.0
C867 C 0.05397 0.33822 0.03394 0.0
C868 C 0.02168 0.3 1.01635 0.0
C869 C 1.01662 0.26484 0.04322 0.0
C870 C 0.97892 0.22745 1.01915 0.0
C871 C 0.99018 0.19832 0.98742 0.0
C872 C 0.94795 0.20583 0.07082 0.0
C873 C 0.96341 0.24665 0.97364 0.0
C874 C 0.98807 0.28854 0.97271 0.0
C875 C 0.97864 0.3125 0.93498 0.0
C876 C 0.94383 0.29312 0.89669 0.0
C877 C 0.91876 0.25008 0.89606 0.0
C878 C 0.92885 0.22691 0.93576 0.0
H879 H 0.81814 0.02821 0.61481 0.0
H880 H 0.73933 0.08023 0.63051 0.0
H881 H 0.69126 0.02878 0.55613 0.0
H882 H 0.8043 1.00505 0.45989 0.0
H883 H 0.80218 0.9564 0.46324 0.0
H884 H 0.8312 0.99529 0.51939 0.0
H885 H 0.79208 0.9506 0.6107 0.0
H886 H 0.7647 0.90897 0.55769 0.0
H887 H 0.73719 0.92341 0.60955 0.0
H888 H 0.65009 0.96839 0.4835 0.0
H889 H 0.62388 0.91114 0.40997 0.0
H890 H 0.72988 0.89854 0.44521 0.0
C891 C 0.79109 0.0294 0.60224 0.0
C892 C 0.78274 0.05864 0.62863 0.0
C893 C 0.74676 0.05859 0.61064 0.0
C894 C 0.71901 0.02908 0.56901 0.0
C895 C 0.7275 0.99963 0.54627 0.0
C896 C 0.76283 0.99981 0.56223 0.0
C897 C 0.76513 0.96499 0.53211 0.0
C898 C 0.80291 0.98131 0.49111 0.0
C899 C 0.76477 0.93525 0.58041 0.0
C900 C 0.72595 0.94555 0.49498 0.0
C901 C 0.70427 0.96548 0.5046 0.0
C902 C 0.66694 0.95274 0.4756 0.0
C903 C 0.65212 0.91985 0.43416 0.0
C904 C 0.67461 0.89996 0.42155 0.0
C905 C 0.71156 0.91258 0.45392 0.0
loop_
_geom_bond_atom_site_label_1
_geom_bond_atom_site_label_2
_geom_bond_distance
_geom_bond_site_symmetry_2
_ccdc_geom_bond_type
Co0 N1 2.034 1_455 S
Co0 O15 2.262 . S
Co0 O19 1.958 . S
Co0 O23 1.950 . S
Co0 O24 2.057 . S
N1 Co0 2.034 1_655 S
N1 C2 1.366 . S
N1 C4 1.332 . S
C2 N1 1.366 . S
C2 C5 1.377 . S
C2 H34 0.931 1_655 S
N3 C4 1.346 . S
N3 C5 1.337 . S
C4 N1 1.332 . S
C4 N3 1.346 . S
C4 C38 1.361 . S
C5 C2 1.377 . S
C5 N3 1.337 . S
C5 H41 0.930 . S
Co6 N7 2.034 . S
Co6 O20 1.950 . S
Co6 O21 2.262 . S
Co6 O22 1.958 . S
Co6 O26 2.057 . S
N7 Co6 2.034 . S
N7 C10 1.366 . S
N7 C11 1.332 . S
N8 C9 1.337 . S
N8 C11 1.346 . S
C9 N8 1.337 . S
C9 C10 1.377 . S
C9 H42 0.930 . S
C10 N7 1.366 . S
C10 C9 1.377 . S
C10 H14 0.931 . S
C11 N7 1.332 . S
C11 N8 1.346 . S
C11 C28 1.361 . S
Co12 O15 2.097 . S
Co12 O16 2.065 . S
Co12 O17 2.065 . S
Co12 O18 2.042 . S
Co12 O21 2.097 . S
Co12 O25 2.042 . S
C13 O21 1.253 . S
C13 O26 1.263 . S
H14 C10 0.931 . S
O15 Co0 2.262 . S
O15 Co12 2.097 . S
O15 C39 1.253 . S
O16 Co12 2.065 . S
O16 C32 1.221 . S
O17 Co12 2.065 . S
O17 C27 1.221 . S
O18 Co12 2.042 . S
O18 C33 1.237 . S
O19 Co0 1.958 . S
O19 C33 1.278 . S
O20 Co6 1.950 . S
O20 C32 1.277 . S
O21 Co6 2.262 . S
O21 Co12 2.097 . S
O21 C13 1.253 . S
O22 Co6 1.958 . S
O22 C40 1.278 . S
O23 Co0 1.950 . S
O23 C27 1.277 . S
O24 Co0 2.057 . S
O24 C39 1.263 . S
O25 Co12 2.042 . S
O25 C40 1.237 . S
O26 Co6 2.057 . S
O26 C13 1.263 . S
C27 O17 1.221 . S
C27 O23 1.277 . S
C28 C11 1.361 . S
C28 H29 0.960 . S
C28 H30 0.961 . S
C28 H31 0.961 . S
H29 C28 0.960 . S
H30 C28 0.961 . S
H31 C28 0.961 . S
C32 O16 1.221 . S
C32 O20 1.277 . S
C33 O18 1.237 . S
C33 O19 1.278 . S
H34 C2 0.931 1_455 S
H35 C38 0.961 . S
H36 C38 0.961 . S
H37 C38 0.960 . S
C38 C4 1.361 . S
C38 H35 0.961 . S
C38 H36 0.961 . S
C38 H37 0.960 . S
C39 O15 1.253 . S
C39 O24 1.263 . S
C40 O22 1.278 . S
C40 O25 1.237 . S
H41 C5 0.930 . S
H42 C9 0.930 . S
Co43 N44 2.034 1_545 S
Co43 O58 2.262 . S
Co43 O62 1.958 . S
Co43 O66 1.950 . S
Co43 O67 2.057 . S
N44 Co43 2.034 1_565 S
N44 C45 1.366 . S
N44 C47 1.332 . S
C45 N44 1.366 . S
C45 C48 1.377 . S
C45 H77 0.931 . S
N46 C47 1.346 . S
N46 C48 1.337 . S
C47 N44 1.332 . S
C47 N46 1.346 . S
C47 C81 1.361 . S
C48 C45 1.377 . S
C48 N46 1.337 . S
C48 H84 0.930 . S
Co49 N50 2.034 . S
Co49 O63 1.950 . S
Co49 O64 2.262 . S
Co49 O65 1.958 . S
Co49 O69 2.057 . S
N50 Co49 2.034 . S
N50 C53 1.366 . S
N50 C54 1.332 . S
N51 C52 1.337 . S
N51 C54 1.346 . S
C52 N51 1.337 . S
C52 C53 1.377 . S
C52 H85 0.930 . S
C53 N50 1.366 . S
C53 C52 1.377 . S
C53 H57 0.931 . S
C54 N50 1.332 . S
C54 N51 1.346 . S
C54 C71 1.361 . S
Co55 O58 2.097 . S
Co55 O59 2.065 . S
Co55 O60 2.065 . S
Co55 O61 2.042 . S
Co55 O64 2.097 . S
Co55 O68 2.042 . S
C56 O64 1.253 . S
C56 O69 1.263 . S
H57 C53 0.931 . S
O58 Co43 2.262 . S
O58 Co55 2.097 . S
O58 C82 1.253 . S
O59 Co55 2.065 . S
O59 C75 1.221 . S
O60 Co55 2.065 . S
O60 C70 1.221 . S
O61 Co55 2.042 . S
O61 C76 1.237 . S
O62 Co43 1.958 . S
O62 C76 1.278 . S
O63 Co49 1.950 . S
O63 C75 1.277 . S
O64 Co49 2.262 . S
O64 Co55 2.097 . S
O64 C56 1.253 . S
O65 Co49 1.958 . S
O65 C83 1.278 . S
O66 Co43 1.950 . S
O66 C70 1.277 . S
O67 Co43 2.057 . S
O67 C82 1.263 . S
O68 Co55 2.042 . S
O68 C83 1.237 . S
O69 Co49 2.057 . S
O69 C56 1.263 . S
C70 O60 1.221 . S
C70 O66 1.277 . S
C71 C54 1.361 . S
C71 H72 0.960 . S
C71 H73 0.961 . S
C71 H74 0.961 . S
H72 C71 0.960 . S
H73 C71 0.961 . S
H74 C71 0.961 . S
C75 O59 1.221 . S
C75 O63 1.277 . S
C76 O61 1.237 . S
C76 O62 1.278 . S
H77 C45 0.931 . S
H78 C81 0.961 . S
H79 C81 0.961 . S
H80 C81 0.960 . S
C81 C47 1.361 . S
C81 H78 0.961 . S
C81 H79 0.961 . S
C81 H80 0.960 . S
C82 O58 1.253 . S
C82 O67 1.263 . S
C83 O65 1.278 . S
C83 O68 1.237 . S
H84 C48 0.930 . S
H85 C52 0.930 . S
Co86 N87 2.034 . S
Co86 O101 2.262 . S
Co86 O105 1.958 . S
Co86 O109 1.950 . S
Co86 O110 2.057 . S
N87 Co86 2.034 . S
N87 C88 1.366 . S
N87 C90 1.332 . S
C88 N87 1.366 . S
C88 C91 1.377 . S
C88 H120 0.931 . S
N89 C90 1.346 . S
N89 C91 1.337 . S
C90 N87 1.332 . S
C90 N89 1.346 . S
C90 C124 1.361 . S
C91 C88 1.377 . S
C91 N89 1.337 . S
C91 H127 0.930 . S
Co92 N93 2.034 . S
Co92 O106 1.950 . S
Co92 O107 2.262 . S
Co92 O108 1.958 . S
Co92 O112 2.057 . S
N93 Co92 2.034 . S
N93 C96 1.366 . S
N93 C97 1.332 . S
N94 C95 1.337 . S
N94 C97 1.346 . S
C95 N94 1.337 . S
C95 C96 1.377 . S
C95 H128 0.930 . S
C96 N93 1.366 . S
C96 C95 1.377 . S
C96 H100 0.931 . S
C97 N93 1.332 . S
C97 N94 1.346 . S
C97 C114 1.361 . S
Co98 O101 2.097 . S
Co98 O102 2.065 . S
Co98 O103 2.065 . S
Co98 O104 2.042 . S
Co98 O107 2.097 . S
Co98 O111 2.042 . S
C99 O107 1.253 . S
C99 O112 1.263 . S
H100 C96 0.931 . S
O101 Co86 2.262 . S
O101 Co98 2.097 . S
O101 C125 1.253 . S
O102 Co98 2.065 . S
O102 C118 1.221 . S
O103 Co98 2.065 . S
O103 C113 1.221 . S
O104 Co98 2.042 . S
O104 C119 1.237 . S
O105 Co86 1.958 . S
O105 C119 1.278 . S
O106 Co92 1.950 . S
O106 C118 1.277 . S
O107 Co92 2.262 . S
O107 Co98 2.097 . S
O107 C99 1.253 . S
O108 Co92 1.958 . S
O108 C126 1.278 . S
O109 Co86 1.950 . S
O109 C113 1.277 . S
O110 Co86 2.057 . S
O110 C125 1.263 . S
O111 Co98 2.042 . S
O111 C126 1.237 . S
O112 Co92 2.057 . S
O112 C99 1.263 . S
C113 O103 1.221 . S
C113 O109 1.277 . S
C114 C97 1.361 . S
C114 H115 0.960 . S
C114 H116 0.961 . S
C114 H117 0.961 . S
H115 C114 0.960 . S
H116 C114 0.961 . S
H117 C114 0.961 . S
C118 O102 1.221 . S
C118 O106 1.277 . S
C119 O104 1.237 . S
C119 O105 1.278 . S
H120 C88 0.931 . S
H121 C124 0.961 . S
H122 C124 0.961 . S
H123 C124 0.960 . S
C124 C90 1.361 . S
C124 H121 0.961 . S
C124 H122 0.961 . S
C124 H123 0.960 . S
C125 O101 1.253 . S
C125 O110 1.263 . S
C126 O108 1.278 . S
C126 O111 1.237 . S
H127 C91 0.930 . S
H128 C95 0.930 . S
Co129 N130 2.034 1_655 S
Co129 O144 2.262 . S
Co129 O148 1.958 . S
Co129 O152 1.950 . S
Co129 O153 2.057 . S
N130 Co129 2.034 1_455 S
N130 C131 1.366 . S
N130 C133 1.332 . S
C131 N130 1.366 . S
C131 C134 1.377 . S
C131 H163 0.931 . S
N132 C133 1.346 . S
N132 C134 1.337 . S
C133 N130 1.332 . S
C133 N132 1.346 . S
C133 C167 1.361 . S
C134 C131 1.377 . S
C134 N132 1.337 . S
C134 H170 0.930 . S
Co135 N136 2.034 . S
Co135 O149 1.950 . S
Co135 O150 2.262 . S
Co135 O151 1.958 . S
Co135 O155 2.057 . S
N136 Co135 2.034 . S
N136 C139 1.366 . S
N136 C140 1.332 . S
N137 C138 1.337 . S
N137 C140 1.346 . S
C138 N137 1.337 . S
C138 C139 1.377 . S
C138 H171 0.930 . S
C139 N136 1.366 . S
C139 C138 1.377 . S
C139 H143 0.931 . S
C140 N136 1.332 . S
C140 N137 1.346 . S
C140 C157 1.361 . S
Co141 O144 2.097 . S
Co141 O145 2.065 . S
Co141 O146 2.065 . S
Co141 O147 2.042 . S
Co141 O150 2.097 . S
Co141 O154 2.042 . S
C142 O150 1.253 . S
C142 O155 1.263 . S
H143 C139 0.931 . S
O144 Co129 2.262 . S
O144 Co141 2.097 . S
O144 C168 1.253 . S
O145 Co141 2.065 . S
O145 C161 1.221 . S
O146 Co141 2.065 . S
O146 C156 1.221 . S
O147 Co141 2.042 . S
O147 C162 1.237 . S
O148 Co129 1.958 . S
O148 C162 1.278 . S
O149 Co135 1.950 . S
O149 C161 1.277 . S
O150 Co135 2.262 . S
O150 Co141 2.097 . S
O150 C142 1.253 . S
O151 Co135 1.958 . S
O151 C169 1.278 . S
O152 Co129 1.950 . S
O152 C156 1.277 . S
O153 Co129 2.057 . S
O153 C168 1.263 . S
O154 Co141 2.042 . S
O154 C169 1.237 . S
O155 Co135 2.057 . S
O155 C142 1.263 . S
C156 O146 1.221 . S
C156 O152 1.277 . S
C157 C140 1.361 . S
C157 H158 0.960 . S
C157 H159 0.961 . S
C157 H160 0.961 . S
H158 C157 0.960 . S
H159 C157 0.961 . S
H160 C157 0.961 . S
C161 O145 1.221 . S
C161 O149 1.277 . S
C162 O147 1.237 . S
C162 O148 1.278 . S
H163 C131 0.931 . S
H164 C167 0.961 . S
H165 C167 0.961 . S
H166 C167 0.960 . S
C167 C133 1.361 . S
C167 H164 0.961 . S
C167 H165 0.961 . S
C167 H166 0.960 . S
C168 O144 1.253 . S
C168 O153 1.263 . S
C169 O151 1.278 . S
C169 O154 1.237 . S
H170 C134 0.930 . S
H171 C138 0.930 . S
Co172 N173 2.034 . S
Co172 O187 2.262 . S
Co172 O191 1.958 . S
Co172 O195 1.950 . S
Co172 O196 2.057 . S
N173 Co172 2.034 . S
N173 C174 1.366 . S
N173 C176 1.332 . S
C174 N173 1.366 . S
C174 C177 1.377 . S
C174 H206 0.931 . S
N175 C176 1.346 . S
N175 C177 1.337 . S
C176 N173 1.332 . S
C176 N175 1.346 . S
C176 C210 1.361 . S
C177 C174 1.377 . S
C177 N175 1.337 . S
C177 H213 0.930 . S
Co178 N179 2.034 1_565 S
Co178 O192 1.950 . S
Co178 O193 2.262 . S
Co178 O194 1.958 . S
Co178 O198 2.057 . S
N179 Co178 2.034 1_545 S
N179 C182 1.366 . S
N179 C183 1.332 . S
N180 C181 1.337 . S
N180 C183 1.346 . S
C181 N180 1.337 . S
C181 C182 1.377 . S
C181 H214 0.930 . S
C182 N179 1.366 . S
C182 C181 1.377 . S
C182 H186 0.931 1_545 S
C183 N179 1.332 . S
C183 N180 1.346 . S
C183 C200 1.361 . S
Co184 O187 2.097 . S
Co184 O188 2.065 . S
Co184 O189 2.065 . S
Co184 O190 2.042 . S
Co184 O193 2.097 . S
Co184 O197 2.042 . S
C185 O193 1.253 . S
C185 O198 1.263 . S
H186 C182 0.931 1_565 S
O187 Co172 2.262 . S
O187 Co184 2.097 . S
O187 C211 1.253 . S
O188 Co184 2.065 . S
O188 C204 1.221 . S
O189 Co184 2.065 . S
O189 C199 1.221 . S
O190 Co184 2.042 . S
O190 C205 1.237 . S
O191 Co172 1.958 . S
O191 C205 1.278 . S
O192 Co178 1.950 . S
O192 C204 1.277 . S
O193 Co178 2.262 . S
O193 Co184 2.097 . S
O193 C185 1.253 . S
O194 Co178 1.958 . S
O194 C212 1.278 . S
O195 Co172 1.950 . S
O195 C199 1.277 . S
O196 Co172 2.057 . S
O196 C211 1.263 . S
O197 Co184 2.042 . S
O197 C212 1.237 . S
O198 Co178 2.057 . S
O198 C185 1.263 . S
C199 O189 1.221 . S
C199 O195 1.277 . S
C200 C183 1.361 . S
C200 H201 0.960 . S
C200 H202 0.961 . S
C200 H203 0.961 . S
H201 C200 0.960 . S
H202 C200 0.961 . S
H203 C200 0.961 . S
C204 O188 1.221 . S
C204 O192 1.277 . S
C205 O190 1.237 . S
C205 O191 1.278 . S
H206 C174 0.931 . S
H207 C210 0.961 . S
H208 C210 0.961 . S
H209 C210 0.960 . S
C210 C176 1.361 . S
C210 H207 0.961 . S
C210 H208 0.961 . S
C210 H209 0.960 . S
C211 O187 1.253 . S
C211 O196 1.263 . S
C212 O194 1.278 . S
C212 O197 1.237 . S
H213 C177 0.930 . S
H214 C181 0.930 . S
Co215 N216 2.034 . S
Co215 O230 2.262 . S
Co215 O234 1.958 . S
Co215 O238 1.950 . S
Co215 O239 2.057 . S
N216 Co215 2.034 . S
N216 C217 1.366 . S
N216 C219 1.332 . S
C217 N216 1.366 . S
C217 C220 1.377 . S
C217 H249 0.931 . S
N218 C219 1.346 . S
N218 C220 1.337 . S
C219 N216 1.332 . S
C219 N218 1.346 . S
C219 C253 1.361 . S
C220 C217 1.377 . S
C220 N218 1.337 . S
C220 H256 0.930 . S
Co221 N222 2.034 . S
Co221 O235 1.950 . S
Co221 O236 2.262 . S
Co221 O237 1.958 . S
Co221 O241 2.057 . S
N222 Co221 2.034 . S
N222 C225 1.366 . S
N222 C226 1.332 . S
N223 C224 1.337 . S
N223 C226 1.346 . S
C224 N223 1.337 . S
C224 C225 1.377 . S
C224 H257 0.930 . S
C225 N222 1.366 . S
C225 C224 1.377 . S
C225 H229 0.931 . S
C226 N222 1.332 . S
C226 N223 1.346 . S
C226 C243 1.361 . S
Co227 O230 2.097 . S
Co227 O231 2.065 . S
Co227 O232 2.065 . S
Co227 O233 2.042 . S
Co227 O236 2.097 . S
Co227 O240 2.042 . S
C228 O236 1.253 . S
C228 O241 1.263 . S
H229 C225 0.931 . S
O230 Co215 2.262 . S
O230 Co227 2.097 . S
O230 C254 1.253 . S
O231 Co227 2.065 . S
O231 C247 1.221 . S
O232 Co227 2.065 . S
O232 C242 1.221 . S
O233 Co227 2.042 . S
O233 C248 1.237 . S
O234 Co215 1.958 . S
O234 C248 1.278 . S
O235 Co221 1.950 . S
O235 C247 1.277 . S
O236 Co221 2.262 . S
O236 Co227 2.097 . S
O236 C228 1.253 . S
O237 Co221 1.958 . S
O237 C255 1.278 . S
O238 Co215 1.950 . S
O238 C242 1.277 . S
O239 Co215 2.057 . S
O239 C254 1.263 . S
O240 Co227 2.042 . S
O240 C255 1.237 . S
O241 Co221 2.057 . S
O241 C228 1.263 . S
C242 O232 1.221 . S
C242 O238 1.277 . S
C243 C226 1.361 . S
C243 H244 0.960 . S
C243 H245 0.961 . S
C243 H246 0.961 . S
H244 C243 0.960 . S
H245 C243 0.961 . S
H246 C243 0.961 . S
C247 O231 1.221 . S
C247 O235 1.277 . S
C248 O233 1.237 . S
C248 O234 1.278 . S
H249 C217 0.931 . S
H250 C253 0.961 . S
H251 C253 0.961 . S
H252 C253 0.960 . S
C253 C219 1.361 . S
C253 H250 0.961 . S
C253 H251 0.961 . S
C253 H252 0.960 . S
C254 O230 1.253 . S
C254 O239 1.263 . S
C255 O237 1.278 . S
C255 O240 1.237 . S
H256 C220 0.930 . S
H257 C224 0.930 . S
H258 C270 0.930 . S
H259 C272 0.930 . S
H260 C273 0.930 . S
H261 C277 0.959 . S
H262 C277 0.959 . S
H263 C277 0.961 . S
H264 C278 0.960 . S
H265 C278 0.961 . S
H266 C278 0.959 . S
H267 C281 0.929 . S
H268 C282 0.931 . S
H269 C284 0.930 . S
C270 H258 0.930 . S
C270 C271 1.399 . S
C270 C275 1.399 . S
C271 C270 1.399 . S
C271 C272 1.376 . S
C272 H259 0.930 . S
C272 C271 1.376 . S
C272 C273 1.388 . S
C273 H260 0.930 . S
C273 C272 1.388 . S
C273 C274 1.390 . S
C274 C273 1.390 . S
C274 C275 1.394 . S
C274 C280 1.465 . S
C275 C270 1.399 . S
C275 C274 1.394 . S
C275 C276 1.516 . S
C276 C275 1.516 . S
C276 C277 1.502 . S
C276 C278 1.561 . S
C276 C279 1.526 . S
C277 H261 0.959 . S
C277 H262 0.959 . S
C277 H263 0.961 . S
C277 C276 1.502 . S
C278 H264 0.960 . S
C278 H265 0.961 . S
C278 H266 0.959 . S
C278 C276 1.561 . S
C279 C276 1.526 . S
C279 C280 1.396 . S
C279 C284 1.390 . S
C280 C274 1.465 . S
C280 C279 1.396 . S
C280 C281 1.399 . S
C281 H267 0.929 . S
C281 C280 1.399 . S
C281 C282 1.385 . S
C282 H268 0.931 . S
C282 C281 1.385 . S
C282 C283 1.389 . S
C283 C282 1.389 . S
C283 C284 1.387 . S
C284 H269 0.930 . S
C284 C279 1.390 . S
C284 C283 1.387 . S
H285 C297 0.930 . S
H286 C299 0.930 . S
H287 C300 0.930 . S
H288 C304 0.959 . S
H289 C304 0.959 . S
H290 C304 0.961 . S
H291 C305 0.960 . S
H292 C305 0.961 . S
H293 C305 0.959 . S
H294 C308 0.929 . S
H295 C309 0.931 . S
H296 C311 0.930 . S
C297 H285 0.930 . S
C297 C298 1.399 . S
C297 C302 1.399 . S
C298 C297 1.399 . S
C298 C299 1.376 . S
C299 H286 0.930 . S
C299 C298 1.376 . S
C299 C300 1.388 . S
C300 H287 0.930 . S
C300 C299 1.388 . S
C300 C301 1.390 . S
C301 C300 1.390 . S
C301 C302 1.394 . S
C301 C307 1.465 . S
C302 C297 1.399 . S
C302 C301 1.394 . S
C302 C303 1.516 . S
C303 C302 1.516 . S
C303 C304 1.502 . S
C303 C305 1.561 . S
C303 C306 1.526 . S
C304 H288 0.959 . S
C304 H289 0.959 . S
C304 H290 0.961 . S
C304 C303 1.502 . S
C305 H291 0.960 . S
C305 H292 0.961 . S
C305 H293 0.959 . S
C305 C303 1.561 . S
C306 C303 1.526 . S
C306 C307 1.396 . S
C306 C311 1.390 . S
C307 C301 1.465 . S
C307 C306 1.396 . S
C307 C308 1.399 . S
C308 H294 0.929 . S
C308 C307 1.399 . S
C308 C309 1.385 . S
C309 H295 0.931 . S
C309 C308 1.385 . S
C309 C310 1.389 . S
C310 C309 1.389 . S
C310 C311 1.387 . S
C311 H296 0.930 . S
C311 C306 1.390 . S
C311 C310 1.387 . S
H312 C324 0.930 . S
H313 C326 0.930 . S
H314 C327 0.930 . S
H315 C331 0.959 . S
H316 C331 0.959 . S
H317 C331 0.961 . S
H318 C332 0.960 . S
H319 C332 0.961 . S
H320 C332 0.959 . S
H321 C335 0.929 . S
H322 C336 0.931 . S
H323 C338 0.930 . S
C324 H312 0.930 . S
C324 C325 1.399 . S
C324 C329 1.399 . S
C325 C324 1.399 . S
C325 C326 1.376 . S
C326 H313 0.930 . S
C326 C325 1.376 . S
C326 C327 1.388 . S
C327 H314 0.930 . S
C327 C326 1.388 . S
C327 C328 1.390 . S
C328 C327 1.390 . S
C328 C329 1.394 . S
C328 C334 1.465 . S
C329 C324 1.399 . S
C329 C328 1.394 . S
C329 C330 1.516 . S
C330 C329 1.516 . S
C330 C331 1.502 . S
C330 C332 1.561 . S
C330 C333 1.526 . S
C331 H315 0.959 . S
C331 H316 0.959 . S
C331 H317 0.961 . S
C331 C330 1.502 . S
C332 H318 0.960 . S
C332 H319 0.961 . S
C332 H320 0.959 . S
C332 C330 1.561 . S
C333 C330 1.526 . S
C333 C334 1.396 . S
C333 C338 1.390 . S
C334 C328 1.465 . S
C334 C333 1.396 . S
C334 C335 1.399 . S
C335 H321 0.929 . S
C335 C334 1.399 . S
C335 C336 1.385 . S
C336 H322 0.931 . S
C336 C335 1.385 . S
C336 C337 1.389 . S
C337 C336 1.389 . S
C337 C338 1.387 . S
C338 H323 0.930 . S
C338 C333 1.390 . S
C338 C337 1.387 . S
H339 C351 0.930 . S
H340 C353 0.930 . S
H341 C354 0.930 . S
H342 C358 0.959 . S
H343 C358 0.959 . S
H344 C358 0.961 . S
H345 C359 0.960 . S
H346 C359 0.961 . S
H347 C359 0.959 . S
H348 C362 0.929 . S
H349 C363 0.931 . S
H350 C365 0.930 . S
C351 H339 0.930 . S
C351 C352 1.399 . S
C351 C356 1.399 . S
C352 C351 1.399 . S
C352 C353 1.376 . S
C353 H340 0.930 . S
C353 C352 1.376 . S
C353 C354 1.388 . S
C354 H341 0.930 . S
C354 C353 1.388 . S
C354 C355 1.390 . S
C355 C354 1.390 . S
C355 C356 1.394 . S
C355 C361 1.465 . S
C356 C351 1.399 . S
C356 C355 1.394 . S
C356 C357 1.516 . S
C357 C356 1.516 . S
C357 C358 1.502 . S
C357 C359 1.561 . S
C357 C360 1.526 . S
C358 H342 0.959 . S
C358 H343 0.959 . S
C358 H344 0.961 . S
C358 C357 1.502 . S
C359 H345 0.960 . S
C359 H346 0.961 . S
C359 H347 0.959 . S
C359 C357 1.561 . S
C360 C357 1.526 . S
C360 C361 1.396 . S
C360 C365 1.390 . S
C361 C355 1.465 . S
C361 C360 1.396 . S
C361 C362 1.399 . S
C362 H348 0.929 . S
C362 C361 1.399 . S
C362 C363 1.385 . S
C363 H349 0.931 . S
C363 C362 1.385 . S
C363 C364 1.389 . S
C364 C363 1.389 . S
C364 C365 1.387 . S
C365 H350 0.930 . S
C365 C360 1.390 . S
C365 C364 1.387 . S
H366 C378 0.930 . S
H367 C380 0.930 . S
H368 C381 0.930 . S
H369 C385 0.959 . S
H370 C385 0.959 . S
H371 C385 0.961 . S
H372 C386 0.960 . S
H373 C386 0.961 . S
H374 C386 0.959 . S
H375 C389 0.929 . S
H376 C390 0.931 . S
H377 C392 0.930 . S
C378 H366 0.930 . S
C378 C379 1.399 . S
C378 C383 1.399 . S
C379 C378 1.399 . S
C379 C380 1.376 . S
C380 H367 0.930 . S
C380 C379 1.376 . S
C380 C381 1.388 . S
C381 H368 0.930 . S
C381 C380 1.388 . S
C381 C382 1.390 . S
C382 C381 1.390 . S
C382 C383 1.394 . S
C382 C388 1.465 . S
C383 C378 1.399 . S
C383 C382 1.394 . S
C383 C384 1.516 . S
C384 C383 1.516 . S
C384 C385 1.502 . S
C384 C386 1.561 . S
C384 C387 1.526 . S
C385 H369 0.959 . S
C385 H370 0.959 . S
C385 H371 0.961 . S
C385 C384 1.502 . S
C386 H372 0.960 . S
C386 H373 0.961 . S
C386 H374 0.959 . S
C386 C384 1.561 . S
C387 C384 1.526 . S
C387 C388 1.396 . S
C387 C392 1.390 . S
C388 C382 1.465 . S
C388 C387 1.396 . S
C388 C389 1.399 . S
C389 H375 0.929 . S
C389 C388 1.399 . S
C389 C390 1.385 . S
C390 H376 0.931 . S
C390 C389 1.385 . S
C390 C391 1.389 . S
C391 C390 1.389 . S
C391 C392 1.387 . S
C392 H377 0.930 . S
C392 C387 1.390 . S
C392 C391 1.387 . S
H393 C405 0.930 . S
H394 C407 0.930 . S
H395 C408 0.930 . S
H396 C412 0.959 . S
H397 C412 0.959 . S
H398 C412 0.961 . S
H399 C413 0.960 . S
H400 C413 0.961 . S
H401 C413 0.959 . S
H402 C416 0.929 . S
H403 C417 0.931 . S
H404 C419 0.930 . S
C405 H393 0.930 . S
C405 C406 1.399 . S
C405 C410 1.399 . S
C406 C405 1.399 . S
C406 C407 1.376 . S
C407 H394 0.930 . S
C407 C406 1.376 . S
C407 C408 1.388 . S
C408 H395 0.930 . S
C408 C407 1.388 . S
C408 C409 1.390 . S
C409 C408 1.390 . S
C409 C410 1.394 . S
C409 C415 1.465 . S
C410 C405 1.399 . S
C410 C409 1.394 . S
C410 C411 1.516 . S
C411 C410 1.516 . S
C411 C412 1.502 . S
C411 C413 1.561 . S
C411 C414 1.526 . S
C412 H396 0.959 . S
C412 H397 0.959 . S
C412 H398 0.961 . S
C412 C411 1.502 . S
C413 H399 0.960 . S
C413 H400 0.961 . S
C413 H401 0.959 . S
C413 C411 1.561 . S
C414 C411 1.526 . S
C414 C415 1.396 . S
C414 C419 1.390 . S
C415 C409 1.465 . S
C415 C414 1.396 . S
C415 C416 1.399 . S
C416 H402 0.929 . S
C416 C415 1.399 . S
C416 C417 1.385 . S
C417 H403 0.931 . S
C417 C416 1.385 . S
C417 C418 1.389 . S
C418 C417 1.389 . S
C418 C419 1.387 . S
C419 H404 0.930 . S
C419 C414 1.390 . S
C419 C418 1.387 . S
H420 C432 0.930 . S
H421 C434 0.930 . S
H422 C435 0.930 . S
H423 C439 0.959 . S
H424 C439 0.959 . S
H425 C439 0.961 . S
H426 C440 0.960 . S
H427 C440 0.961 . S
H428 C440 0.959 . S
H429 C443 0.929 . S
H430 C444 0.931 . S
H431 C446 0.930 . S
C432 H420 0.930 . S
C432 C433 1.399 . S
C432 C437 1.399 . S
C433 C432 1.399 . S
C433 C434 1.376 . S
C434 H421 0.930 . S
C434 C433 1.376 . S
C434 C435 1.388 . S
C435 H422 0.930 . S
C435 C434 1.388 . S
C435 C436 1.390 . S
C436 C435 1.390 . S
C436 C437 1.394 . S
C436 C442 1.465 . S
C437 C432 1.399 . S
C437 C436 1.394 . S
C437 C438 1.516 . S
C438 C437 1.516 . S
C438 C439 1.502 . S
C438 C440 1.561 . S
C438 C441 1.526 . S
C439 H423 0.959 . S
C439 H424 0.959 . S
C439 H425 0.961 . S
C439 C438 1.502 . S
C440 H426 0.960 . S
C440 H427 0.961 . S
C440 H428 0.959 . S
C440 C438 1.561 . S
C441 C438 1.526 . S
C441 C442 1.396 . S
C441 C446 1.390 . S
C442 C436 1.465 . S
C442 C441 1.396 . S
C442 C443 1.399 . S
C443 H429 0.929 . S
C443 C442 1.399 . S
C443 C444 1.385 . S
C444 H430 0.931 . S
C444 C443 1.385 . S
C444 C445 1.389 . S
C445 C444 1.389 . S
C445 C446 1.387 . S
C446 H431 0.930 . S
C446 C441 1.390 . S
C446 C445 1.387 . S
H447 C459 0.930 . S
H448 C461 0.930 . S
H449 C462 0.930 . S
H450 C466 0.965 1_455 S
H451 C466 0.945 1_455 S
H452 C466 0.976 . S
H453 C467 0.960 . S
H454 C467 0.961 1_455 S
H455 C467 0.959 . S
H456 C470 0.929 . S
H457 C471 0.931 . S
H458 C473 0.930 . S
C459 H447 0.930 . S
C459 C460 1.399 . S
C459 C464 1.399 . S
C460 C459 1.399 . S
C460 C461 1.376 . S
C461 H448 0.930 . S
C461 C460 1.376 . S
C461 C462 1.388 . S
C462 H449 0.930 . S
C462 C461 1.388 . S
C462 C463 1.390 . S
C463 C462 1.390 . S
C463 C464 1.394 . S
C463 C469 1.465 1_655 S
C464 C459 1.399 . S
C464 C463 1.394 . S
C464 C465 1.516 . S
C465 C464 1.516 . S
C465 C466 1.496 . S
C465 C467 1.561 . S
C465 C468 1.526 1_655 S
C466 H450 0.965 1_655 S
C466 H451 0.945 1_655 S
C466 H452 0.976 . S
C466 C465 1.496 . S
C467 H453 0.960 . S
C467 H454 0.961 1_655 S
C467 H455 0.959 . S
C467 C465 1.561 . S
C468 C465 1.526 1_455 S
C468 C469 1.396 . S
C468 C473 1.390 . S
C469 C463 1.465 1_455 S
C469 C468 1.396 . S
C469 C470 1.399 . S
C470 H456 0.929 . S
C470 C469 1.399 . S
C470 C471 1.385 . S
C471 H457 0.931 . S
C471 C470 1.385 . S
C471 C472 1.389 . S
C472 C471 1.389 . S
C472 C473 1.387 . S
C473 H458 0.930 . S
C473 C468 1.390 . S
C473 C472 1.387 . S
H474 C486 0.930 . S
H475 C488 0.930 . S
H476 C489 0.930 . S
H477 C493 0.959 . S
H478 C493 0.959 1_565 S
H479 C493 0.961 . S
H480 C494 0.960 . S
H481 C494 0.961 1_565 S
H482 C494 0.959 . S
H483 C497 0.929 . S
H484 C498 0.931 . S
H485 C500 0.930 . S
C486 H474 0.930 . S
C486 C487 1.399 . S
C486 C491 1.399 . S
C487 C486 1.399 . S
C487 C488 1.376 . S
C488 H475 0.930 . S
C488 C487 1.376 . S
C488 C489 1.388 . S
C489 H476 0.930 . S
C489 C488 1.388 . S
C489 C490 1.390 . S
C490 C489 1.390 . S
C490 C491 1.394 . S
C490 C496 1.465 1_545 S
C491 C486 1.399 . S
C491 C490 1.394 . S
C491 C492 1.516 . S
C492 C491 1.516 . S
C492 C493 1.502 . S
C492 C494 1.561 . S
C492 C495 1.526 1_545 S
C493 H477 0.959 . S
C493 H478 0.959 1_545 S
C493 H479 0.961 . S
C493 C492 1.502 . S
C494 H480 0.960 . S
C494 H481 0.961 1_545 S
C494 H482 0.959 . S
C494 C492 1.561 . S
C495 C492 1.526 1_565 S
C495 C496 1.396 . S
C495 C500 1.390 . S
C496 C490 1.465 1_565 S
C496 C495 1.396 . S
C496 C497 1.399 . S
C497 H483 0.929 . S
C497 C496 1.399 . S
C497 C498 1.385 . S
C498 H484 0.931 . S
C498 C497 1.385 . S
C498 C499 1.389 . S
C499 C498 1.389 . S
C499 C500 1.387 . S
C500 H485 0.930 . S
C500 C495 1.390 . S
C500 C499 1.387 . S
H501 C513 0.930 . S
H502 C515 0.930 . S
H503 C516 0.930 . S
H504 C520 0.959 . S
H505 C520 0.959 . S
H506 C520 0.961 . S
H507 C521 0.960 . S
H508 C521 0.961 . S
H509 C521 0.959 . S
H510 C524 0.929 . S
H511 C525 0.931 . S
H512 C527 0.930 . S
C513 H501 0.930 . S
C513 C514 1.399 . S
C513 C518 1.399 . S
C514 C513 1.399 . S
C514 C515 1.376 . S
C515 H502 0.930 . S
C515 C514 1.376 . S
C515 C516 1.388 . S
C516 H503 0.930 . S
C516 C515 1.388 . S
C516 C517 1.390 . S
C517 C516 1.390 . S
C517 C518 1.394 . S
C517 C523 1.465 . S
C518 C513 1.399 . S
C518 C517 1.394 . S
C518 C519 1.516 . S
C519 C518 1.516 . S
C519 C520 1.502 . S
C519 C521 1.561 . S
C519 C522 1.526 . S
C520 H504 0.959 . S
C520 H505 0.959 . S
C520 H506 0.961 . S
C520 C519 1.502 . S
C521 H507 0.960 . S
C521 H508 0.961 . S
C521 H509 0.959 . S
C521 C519 1.561 . S
C522 C519 1.526 . S
C522 C523 1.396 . S
C522 C527 1.390 . S
C523 C517 1.465 . S
C523 C522 1.396 . S
C523 C524 1.399 . S
C524 H510 0.929 . S
C524 C523 1.399 . S
C524 C525 1.385 . S
C525 H511 0.931 . S
C525 C524 1.385 . S
C525 C526 1.389 . S
C526 C525 1.389 . S
C526 C527 1.387 . S
C527 H512 0.930 . S
C527 C522 1.390 . S
C527 C526 1.387 . S
H528 C540 0.930 . S
H529 C542 0.930 . S
H530 C543 0.930 . S
H531 C547 0.959 . S
H532 C547 0.959 1_455 S
H533 C547 0.961 . S
H534 C548 0.960 . S
H535 C548 0.961 1_455 S
H536 C548 0.959 . S
H537 C551 0.929 . S
H538 C552 0.931 . S
H539 C554 0.930 . S
C540 H528 0.930 . S
C540 C541 1.399 . S
C540 C545 1.399 . S
C541 C540 1.399 . S
C541 C542 1.376 . S
C542 H529 0.930 . S
C542 C541 1.376 . S
C542 C543 1.388 . S
C543 H530 0.930 . S
C543 C542 1.388 . S
C543 C544 1.390 . S
C544 C543 1.390 . S
C544 C545 1.394 . S
C544 C550 1.465 1_655 S
C545 C540 1.399 . S
C545 C544 1.394 . S
C545 C546 1.516 . S
C546 C545 1.516 . S
C546 C547 1.502 . S
C546 C548 1.561 . S
C546 C549 1.526 1_655 S
C547 H531 0.959 . S
C547 H532 0.959 1_655 S
C547 H533 0.961 . S
C547 C546 1.502 . S
C548 H534 0.960 . S
C548 H535 0.961 1_655 S
C548 H536 0.959 . S
C548 C546 1.561 . S
C549 C546 1.526 1_455 S
C549 C550 1.396 . S
C549 C554 1.390 . S
C550 C544 1.465 1_455 S
C550 C549 1.396 . S
C550 C551 1.399 . S
C551 H537 0.929 . S
C551 C550 1.399 . S
C551 C552 1.385 . S
C552 H538 0.931 . S
C552 C551 1.385 . S
C552 C553 1.389 . S
C553 C552 1.389 . S
C553 C554 1.387 . S
C554 H539 0.930 . S
C554 C549 1.390 . S
C554 C553 1.387 . S
H555 C567 0.930 . S
H556 C569 0.930 . S
H557 C570 0.930 . S
H558 C574 0.959 . S
H559 C574 0.959 . S
H560 C574 0.961 1_545 S
H561 C575 0.960 . S
H562 C575 0.961 1_565 S
H563 C575 0.959 . S
H564 C578 0.929 . S
H565 C579 0.931 . S
H566 C581 0.930 . S
C567 H555 0.930 . S
C567 C568 1.399 . S
C567 C572 1.399 . S
C568 C567 1.399 . S
C568 C569 1.376 . S
C569 H556 0.930 . S
C569 C568 1.376 . S
C569 C570 1.388 . S
C570 H557 0.930 . S
C570 C569 1.388 . S
C570 C571 1.390 . S
C571 C570 1.390 . S
C571 C572 1.394 . S
C571 C577 1.465 1_545 S
C572 C567 1.399 . S
C572 C571 1.394 . S
C572 C573 1.516 . S
C573 C572 1.516 . S
C573 C574 1.502 1_545 S
C573 C575 1.561 . S
C573 C576 1.526 1_545 S
C574 H558 0.959 . S
C574 H559 0.959 . S
C574 H560 0.961 1_565 S
C574 C573 1.502 1_565 S
C575 H561 0.960 . S
C575 H562 0.961 1_545 S
C575 H563 0.959 . S
C575 C573 1.561 . S
C576 C573 1.526 1_565 S
C576 C577 1.396 . S
C576 C581 1.390 . S
C577 C571 1.465 1_565 S
C577 C576 1.396 . S
C577 C578 1.399 . S
C578 H564 0.929 . S
C578 C577 1.399 . S
C578 C579 1.385 . S
C579 H565 0.931 . S
C579 C578 1.385 . S
C579 C580 1.389 . S
C580 C579 1.389 . S
C580 C581 1.387 . S
C581 H566 0.930 . S
C581 C576 1.390 . S
C581 C580 1.387 . S
H582 C594 0.930 . S
H583 C596 0.930 . S
H584 C597 0.930 . S
H585 C601 0.959 . S
H586 C601 0.959 . S
H587 C601 0.961 . S
H588 C602 0.960 . S
H589 C602 0.961 . S
H590 C602 0.959 1_556 S
H591 C605 0.929 . S
H592 C606 0.931 . S
H593 C608 0.930 . S
C594 H582 0.930 . S
C594 C595 1.399 . S
C594 C599 1.399 . S
C595 C594 1.399 . S
C595 C596 1.376 . S
C596 H583 0.930 . S
C596 C595 1.376 . S
C596 C597 1.388 1_554 S
C597 H584 0.930 . S
C597 C596 1.388 1_556 S
C597 C598 1.390 1_556 S
C598 C597 1.390 1_554 S
C598 C599 1.393 . S
C598 C604 1.466 1_554 S
C599 C594 1.399 . S
C599 C598 1.393 . S
C599 C600 1.516 . S
C600 C599 1.516 . S
C600 C601 1.502 . S
C600 C602 1.561 . S
C600 C603 1.526 1_554 S
C601 H585 0.959 . S
C601 H586 0.959 . S
C601 H587 0.961 . S
C601 C600 1.502 . S
C602 H588 0.960 . S
C602 H589 0.961 . S
C602 H590 0.959 1_554 S
C602 C600 1.561 . S
C603 C600 1.526 1_556 S
C603 C604 1.396 . S
C603 C608 1.390 . S
C604 C598 1.466 1_556 S
C604 C603 1.396 . S
C604 C605 1.399 . S
C605 H591 0.929 . S
C605 C604 1.399 . S
C605 C606 1.385 . S
C606 H592 0.931 . S
C606 C605 1.385 . S
C606 C607 1.389 . S
C607 C606 1.389 . S
C607 C608 1.387 . S
C608 H593 0.930 . S
C608 C603 1.390 . S
C608 C607 1.387 . S
H609 C621 0.930 . S
H610 C623 0.930 . S
H611 C624 0.930 . S
H612 C628 0.959 . S
H613 C628 0.959 . S
H614 C628 0.961 . S
H615 C629 0.960 1_655 S
H616 C629 0.961 . S
H617 C629 0.959 . S
H618 C632 0.929 . S
H619 C633 0.931 . S
H620 C635 0.930 . S
C621 H609 0.930 . S
C621 C622 1.399 . S
C621 C626 1.399 . S
C622 C621 1.399 . S
C622 C623 1.376 . S
C623 H610 0.930 . S
C623 C622 1.376 . S
C623 C624 1.388 . S
C624 H611 0.930 . S
C624 C623 1.388 . S
C624 C625 1.390 . S
C625 C624 1.390 . S
C625 C626 1.394 . S
C625 C631 1.465 . S
C626 C621 1.399 . S
C626 C625 1.394 . S
C626 C627 1.516 . S
C627 C626 1.516 . S
C627 C628 1.502 . S
C627 C629 1.561 1_655 S
C627 C630 1.526 . S
C628 H612 0.959 . S
C628 H613 0.959 . S
C628 H614 0.961 . S
C628 C627 1.502 . S
C629 H615 0.960 1_455 S
C629 H616 0.961 . S
C629 H617 0.959 . S
C629 C627 1.561 1_455 S
C630 C627 1.526 . S
C630 C631 1.396 . S
C630 C635 1.390 1_655 S
C631 C625 1.465 . S
C631 C630 1.396 . S
C631 C632 1.399 . S
C632 H618 0.929 . S
C632 C631 1.399 . S
C632 C633 1.385 1_655 S
C633 H619 0.931 . S
C633 C632 1.385 1_455 S
C633 C634 1.389 . S
C634 C633 1.389 . S
C634 C635 1.387 . S
C635 H620 0.930 . S
C635 C630 1.390 1_455 S
C635 C634 1.387 . S
H636 C648 0.930 . S
H637 C650 0.930 . S
H638 C651 0.930 . S
H639 C655 0.959 . S
H640 C655 0.959 . S
H641 C655 0.961 . S
H642 C656 0.960 . S
H643 C656 0.961 . S
H644 C656 0.959 . S
H645 C659 0.929 . S
H646 C660 0.931 . S
H647 C662 0.930 . S
C648 H636 0.930 . S
C648 C649 1.399 . S
C648 C653 1.399 . S
C649 C648 1.399 . S
C649 C650 1.376 . S
C650 H637 0.930 . S
C650 C649 1.376 . S
C650 C651 1.388 . S
C651 H638 0.930 . S
C651 C650 1.388 . S
C651 C652 1.390 . S
C652 C651 1.390 . S
C652 C653 1.394 . S
C652 C658 1.465 1_554 S
C653 C648 1.399 . S
C653 C652 1.394 . S
C653 C654 1.516 1_554 S
C654 C653 1.516 1_556 S
C654 C655 1.502 . S
C654 C656 1.561 . S
C654 C657 1.526 . S
C655 H639 0.959 . S
C655 H640 0.959 . S
C655 H641 0.961 . S
C655 C654 1.502 . S
C656 H642 0.960 . S
C656 H643 0.961 . S
C656 H644 0.959 . S
C656 C654 1.561 . S
C657 C654 1.526 . S
C657 C658 1.396 . S
C657 C662 1.390 . S
C658 C652 1.465 1_556 S
C658 C657 1.396 . S
C658 C659 1.399 1_566 S
C659 H645 0.929 . S
C659 C658 1.399 1_544 S
C659 C660 1.385 1_554 S
C660 H646 0.931 . S
C660 C659 1.385 1_556 S
C660 C661 1.389 . S
C661 C660 1.389 . S
C661 C662 1.387 1_545 S
C662 H647 0.930 . S
C662 C657 1.390 . S
C662 C661 1.387 1_565 S
H663 C675 0.930 . S
H664 C677 0.930 . S
H665 C678 0.930 . S
H666 C682 0.959 . S
H667 C682 0.959 . S
H668 C682 0.961 . S
H669 C683 0.960 . S
H670 C683 0.961 . S
H671 C683 0.959 . S
H672 C686 0.929 . S
H673 C687 0.931 . S
H674 C689 0.930 . S
C675 H663 0.930 . S
C675 C676 1.399 . S
C675 C680 1.399 . S
C676 C675 1.399 . S
C676 C677 1.376 . S
C677 H664 0.930 . S
C677 C676 1.376 . S
C677 C678 1.388 . S
C678 H665 0.930 . S
C678 C677 1.388 . S
C678 C679 1.390 . S
C679 C678 1.390 . S
C679 C680 1.394 . S
C679 C685 1.465 . S
C680 C675 1.399 . S
C680 C679 1.394 . S
C680 C681 1.516 . S
C681 C680 1.516 . S
C681 C682 1.502 . S
C681 C683 1.561 . S
C681 C684 1.526 . S
C682 H666 0.959 . S
C682 H667 0.959 . S
C682 H668 0.961 . S
C682 C681 1.502 . S
C683 H669 0.960 . S
C683 H670 0.961 . S
C683 H671 0.959 . S
C683 C681 1.561 . S
C684 C681 1.526 . S
C684 C685 1.396 . S
C684 C689 1.390 . S
C685 C679 1.465 . S
C685 C684 1.396 . S
C685 C686 1.399 . S
C686 H672 0.929 . S
C686 C685 1.399 . S
C686 C687 1.385 . S
C687 H673 0.931 . S
C687 C686 1.385 . S
C687 C688 1.389 . S
C688 C687 1.389 . S
C688 C689 1.387 . S
C689 H674 0.930 . S
C689 C684 1.390 . S
C689 C688 1.387 . S
H690 C702 0.930 . S
H691 C704 0.930 . S
H692 C705 0.930 . S
H693 C709 0.962 . S
H694 C709 0.961 . S
H695 C709 0.946 1_655 S
H696 C710 0.960 . S
H697 C710 0.961 . S
H698 C710 0.941 1_455 S
H699 C713 0.929 . S
H700 C714 0.931 . S
H701 C716 0.930 . S
C702 H690 0.930 . S
C702 C703 1.399 . S
C702 C707 1.399 1_655 S
C703 C702 1.399 . S
C703 C704 1.376 1_655 S
C704 H691 0.930 . S
C704 C703 1.376 1_455 S
C704 C705 1.388 . S
C705 H692 0.930 . S
C705 C704 1.388 . S
C705 C706 1.390 . S
C706 C705 1.390 . S
C706 C707 1.394 . S
C706 C712 1.463 1_556 S
C707 C702 1.399 1_455 S
C707 C706 1.394 . S
C707 C708 1.516 1_556 S
C708 C707 1.516 1_554 S
C708 C709 1.513 . S
C708 C710 1.561 1_455 S
C708 C711 1.526 . S
C709 H693 0.962 . S
C709 H694 0.961 . S
C709 H695 0.946 1_455 S
C709 C708 1.513 . S
C710 H696 0.960 . S
C710 H697 0.961 . S
C710 H698 0.941 1_655 S
C710 C708 1.561 1_655 S
C711 C708 1.526 . S
C711 C712 1.398 . S
C711 C716 1.390 . S
C712 C706 1.463 1_554 S
C712 C711 1.398 . S
C712 C713 1.398 1_554 S
C713 H699 0.929 . S
C713 C712 1.398 1_556 S
C713 C714 1.385 1_556 S
C714 H700 0.931 . S
C714 C713 1.385 1_554 S
C714 C715 1.389 . S
C715 C714 1.389 . S
C715 C716 1.387 . S
C716 H701 0.930 . S
C716 C711 1.390 . S
C716 C715 1.387 . S
H717 C729 0.930 . S
H718 C731 0.930 . S
H719 C732 0.930 . S
H720 C736 0.959 . S
H721 C736 0.959 . S
H722 C736 0.961 . S
H723 C737 0.960 . S
H724 C737 0.961 . S
H725 C737 0.959 . S
H726 C740 0.929 . S
H727 C741 0.931 . S
H728 C743 0.930 . S
C729 H717 0.930 . S
C729 C730 1.399 . S
C729 C734 1.399 . S
C730 C729 1.399 . S
C730 C731 1.376 . S
C731 H718 0.930 . S
C731 C730 1.376 . S
C731 C732 1.388 . S
C732 H719 0.930 . S
C732 C731 1.388 . S
C732 C733 1.390 . S
C733 C732 1.390 . S
C733 C734 1.394 . S
C733 C739 1.465 . S
C734 C729 1.399 . S
C734 C733 1.394 . S
C734 C735 1.516 . S
C735 C734 1.516 . S
C735 C736 1.502 . S
C735 C737 1.561 . S
C735 C738 1.526 . S
C736 H720 0.959 . S
C736 H721 0.959 . S
C736 H722 0.961 . S
C736 C735 1.502 . S
C737 H723 0.960 . S
C737 H724 0.961 . S
C737 H725 0.959 . S
C737 C735 1.561 . S
C738 C735 1.526 . S
C738 C739 1.396 . S
C738 C743 1.390 . S
C739 C733 1.465 . S
C739 C738 1.396 . S
C739 C740 1.399 1_545 S
C740 H726 0.929 . S
C740 C739 1.399 1_565 S
C740 C741 1.385 . S
C741 H727 0.931 . S
C741 C740 1.385 . S
C741 C742 1.389 . S
C742 C741 1.389 . S
C742 C743 1.387 1_565 S
C743 H728 0.930 . S
C743 C738 1.390 . S
C743 C742 1.387 1_545 S
H744 C756 0.930 . S
H745 C758 0.930 . S
H746 C759 0.930 . S
H747 C763 0.959 . S
H748 C763 0.959 1_554 S
H749 C763 0.961 . S
H750 C764 0.960 . S
H751 C764 0.961 . S
H752 C764 0.959 . S
H753 C767 0.929 . S
H754 C768 0.931 . S
H755 C770 0.930 . S
C756 H744 0.930 . S
C756 C757 1.399 . S
C756 C761 1.399 . S
C757 C756 1.399 . S
C757 C758 1.376 . S
C758 H745 0.930 . S
C758 C757 1.376 . S
C758 C759 1.388 . S
C759 H746 0.930 . S
C759 C758 1.388 . S
C759 C760 1.390 . S
C760 C759 1.390 . S
C760 C761 1.394 . S
C760 C766 1.465 1_556 S
C761 C756 1.399 . S
C761 C760 1.394 . S
C761 C762 1.516 1_556 S
C762 C761 1.516 1_554 S
C762 C763 1.502 1_554 S
C762 C764 1.561 . S
C762 C765 1.526 . S
C763 H747 0.959 . S
C763 H748 0.959 1_556 S
C763 H749 0.961 . S
C763 C762 1.502 1_556 S
C764 H750 0.960 . S
C764 H751 0.961 . S
C764 H752 0.959 . S
C764 C762 1.561 . S
C765 C762 1.526 . S
C765 C766 1.396 . S
C765 C770 1.390 . S
C766 C760 1.465 1_554 S
C766 C765 1.396 . S
C766 C767 1.399 . S
C767 H753 0.929 . S
C767 C766 1.399 . S
C767 C768 1.385 . S
C768 H754 0.931 . S
C768 C767 1.385 . S
C768 C769 1.389 . S
C769 C768 1.389 . S
C769 C770 1.387 . S
C770 H755 0.930 . S
C770 C765 1.390 . S
C770 C769 1.387 . S
H771 C783 0.930 . S
H772 C785 0.930 . S
H773 C786 0.930 . S
H774 C790 0.959 . S
H775 C790 0.959 . S
H776 C790 0.961 . S
H777 C791 0.960 . S
H778 C791 0.961 . S
H779 C791 0.959 . S
H780 C794 0.929 . S
H781 C795 0.931 . S
H782 C797 0.927 . S
C783 H771 0.930 . S
C783 C784 1.399 . S
C783 C788 1.399 . S
C784 C783 1.399 . S
C784 C785 1.376 . S
C785 H772 0.930 . S
C785 C784 1.376 . S
C785 C786 1.388 . S
C786 H773 0.930 . S
C786 C785 1.388 . S
C786 C787 1.390 . S
C787 C786 1.390 . S
C787 C788 1.394 . S
C787 C793 1.465 . S
C788 C783 1.399 . S
C788 C787 1.394 . S
C788 C789 1.516 . S
C789 C788 1.516 . S
C789 C790 1.502 . S
C789 C791 1.561 . S
C789 C792 1.526 . S
C790 H774 0.959 . S
C790 H775 0.959 . S
C790 H776 0.961 . S
C790 C789 1.502 . S
C791 H777 0.960 . S
C791 H778 0.961 . S
C791 H779 0.959 . S
C791 C789 1.561 . S
C792 C789 1.526 . S
C792 C793 1.396 . S
C792 C797 1.406 . S
C793 C787 1.465 . S
C793 C792 1.396 . S
C793 C794 1.399 1_455 S
C794 H780 0.929 . S
C794 C793 1.399 1_655 S
C794 C795 1.385 . S
C795 H781 0.931 . S
C795 C794 1.385 . S
C795 C796 1.389 . S
C796 C795 1.389 . S
C796 C797 1.374 1_655 S
C797 H782 0.927 . S
C797 C792 1.406 . S
C797 C796 1.374 1_455 S
H798 C810 0.930 . S
H799 C812 0.930 . S
H800 C813 0.930 . S
H801 C817 0.959 . S
H802 C817 0.959 . S
H803 C817 0.961 . S
H804 C818 0.960 . S
H805 C818 0.961 . S
H806 C818 0.959 . S
H807 C821 0.929 . S
H808 C822 0.931 . S
H809 C824 0.930 . S
C810 H798 0.930 . S
C810 C811 1.399 . S
C810 C815 1.399 . S
C811 C810 1.399 . S
C811 C812 1.376 . S
C812 H799 0.930 . S
C812 C811 1.376 . S
C812 C813 1.388 . S
C813 H800 0.930 . S
C813 C812 1.388 . S
C813 C814 1.390 . S
C814 C813 1.390 . S
C814 C815 1.394 . S
C814 C820 1.465 1_556 S
C815 C810 1.399 . S
C815 C814 1.394 . S
C815 C816 1.516 1_556 S
C816 C815 1.516 1_554 S
C816 C817 1.502 . S
C816 C818 1.561 . S
C816 C819 1.526 . S
C817 H801 0.959 . S
C817 H802 0.959 . S
C817 H803 0.961 . S
C817 C816 1.502 . S
C818 H804 0.960 . S
C818 H805 0.961 . S
C818 H806 0.959 . S
C818 C816 1.561 . S
C819 C816 1.526 . S
C819 C820 1.396 . S
C819 C824 1.390 . S
C820 C814 1.465 1_554 S
C820 C819 1.396 . S
C820 C821 1.399 1_544 S
C821 H807 0.929 . S
C821 C820 1.399 1_566 S
C821 C822 1.385 1_556 S
C822 H808 0.931 . S
C822 C821 1.385 1_554 S
C822 C823 1.389 . S
C823 C822 1.389 . S
C823 C824 1.387 1_565 S
C824 H809 0.930 . S
C824 C819 1.390 . S
C824 C823 1.387 1_545 S
H825 C837 0.930 . S
H826 C839 0.930 . S
H827 C840 0.930 . S
H828 C844 0.959 . S
H829 C844 0.959 . S
H830 C844 0.961 . S
H831 C845 0.960 . S
H832 C845 0.961 . S
H833 C845 0.959 . S
H834 C848 0.929 . S
H835 C849 0.931 . S
H836 C851 0.930 . S
C837 H825 0.930 . S
C837 C838 1.399 . S
C837 C842 1.399 . S
C838 C837 1.399 . S
C838 C839 1.376 . S
C839 H826 0.930 . S
C839 C838 1.376 . S
C839 C840 1.388 . S
C840 H827 0.930 . S
C840 C839 1.388 . S
C840 C841 1.390 . S
C841 C840 1.390 . S
C841 C842 1.394 . S
C841 C847 1.465 . S
C842 C837 1.399 . S
C842 C841 1.394 . S
C842 C843 1.516 . S
C843 C842 1.516 . S
C843 C844 1.502 . S
C843 C845 1.561 . S
C843 C846 1.526 . S
C844 H828 0.959 . S
C844 H829 0.959 . S
C844 H830 0.961 . S
C844 C843 1.502 . S
C845 H831 0.960 . S
C845 H832 0.961 . S
C845 H833 0.959 . S
C845 C843 1.561 . S
C846 C843 1.526 . S
C846 C847 1.396 . S
C846 C851 1.390 . S
C847 C841 1.465 . S
C847 C846 1.396 . S
C847 C848 1.399 . S
C848 H834 0.929 . S
C848 C847 1.399 . S
C848 C849 1.385 . S
C849 H835 0.931 . S
C849 C848 1.385 . S
C849 C850 1.389 . S
C850 C849 1.389 . S
C850 C851 1.387 . S
C851 H836 0.930 . S
C851 C846 1.390 . S
C851 C850 1.387 . S
H852 C864 0.930 . S
H853 C866 0.930 . S
H854 C867 0.930 . S
H855 C871 0.959 . S
H856 C871 0.959 . S
H857 C871 0.961 . S
H858 C872 0.960 . S
H859 C872 0.961 . S
H860 C872 0.959 . S
H861 C875 0.929 . S
H862 C876 0.931 . S
H863 C878 0.930 . S
C864 H852 0.930 . S
C864 C865 1.399 1_655 S
C864 C869 1.399 . S
C865 C864 1.399 1_455 S
C865 C866 1.376 . S
C866 H853 0.930 . S
C866 C865 1.376 . S
C866 C867 1.388 1_554 S
C867 H854 0.930 . S
C867 C866 1.388 1_556 S
C867 C868 1.390 1_455 S
C868 C867 1.390 1_655 S
C868 C869 1.394 1_556 S
C868 C874 1.465 . S
C869 C864 1.399 . S
C869 C868 1.394 1_554 S
C869 C870 1.516 . S
C870 C869 1.516 . S
C870 C871 1.502 . S
C870 C872 1.561 . S
C870 C873 1.526 1_554 S
C871 H855 0.959 . S
C871 H856 0.959 . S
C871 H857 0.961 . S
C871 C870 1.502 . S
C872 H858 0.960 . S
C872 H859 0.961 . S
C872 H860 0.959 . S
C872 C870 1.561 . S
C873 C870 1.526 1_556 S
C873 C874 1.396 . S
C873 C878 1.390 . S
C874 C868 1.465 . S
C874 C873 1.396 . S
C874 C875 1.399 . S
C875 H861 0.929 . S
C875 C874 1.399 . S
C875 C876 1.385 . S
C876 H862 0.931 . S
C876 C875 1.385 . S
C876 C877 1.389 . S
C877 C876 1.389 . S
C877 C878 1.387 . S
C878 H863 0.930 . S
C878 C873 1.390 . S
C878 C877 1.387 . S
H879 C891 0.930 . S
H880 C893 0.930 . S
H881 C894 0.930 . S
H882 C898 0.959 . S
H883 C898 0.959 . S
H884 C898 0.961 1_545 S
H885 C899 0.960 . S
H886 C899 0.961 . S
H887 C899 0.959 . S
H888 C902 0.929 . S
H889 C903 0.931 . S
H890 C905 0.930 . S
C891 H879 0.930 . S
C891 C892 1.399 . S
C891 C896 1.399 1_545 S
C892 C891 1.399 . S
C892 C893 1.376 1_545 S
C893 H880 0.930 . S
C893 C892 1.376 1_565 S
C893 C894 1.388 . S
C894 H881 0.930 . S
C894 C893 1.388 . S
C894 C895 1.390 . S
C895 C894 1.390 . S
C895 C896 1.394 . S
C895 C901 1.465 . S
C896 C891 1.399 1_565 S
C896 C895 1.394 . S
C896 C897 1.516 . S
C897 C896 1.516 . S
C897 C898 1.502 . S
C897 C899 1.561 1_565 S
C897 C900 1.526 . S
C898 H882 0.959 . S
C898 H883 0.959 . S
C898 H884 0.961 1_565 S
C898 C897 1.502 . S
C899 H885 0.960 . S
C899 H886 0.961 . S
C899 H887 0.959 . S
C899 C897 1.561 1_545 S
C900 C897 1.526 . S
C900 C901 1.396 . S
C900 C905 1.390 . S
C901 C895 1.465 . S
C901 C900 1.396 . S
C901 C902 1.399 . S
C902 H888 0.929 . S
C902 C901 1.399 . S
C902 C903 1.385 . S
C903 H889 0.931 . S
C903 C902 1.385 . S
C903 C904 1.389 . S
C904 C903 1.389 . S
C904 C905 1.387 . S
C905 H890 0.930 . S
C905 C900 1.390 . S
C905 C904 1.387 . S
C271 C32 1.449 . S
C283 N175 1.393 . S
C298 N223 1.440 . S
C310 C56 1.253 . S
C325 N8 1.401 . S
C337 C118 1.392 . S
C352 N51 1.441 . S
C364 C142 1.251 . S
C379 C199 1.449 . S
C391 N94 1.393 . S
C406 C228 1.217 . S
C418 N137 1.398 . S
C433 C33 1.015 . S
C445 N180 0.976 . S
C460 C82 0.952 . S
C472 N218 0.949 . S
C487 N3 0.967 . S
C499 C119 1.026 . S
C514 N46 0.968 . S
C526 C168 1.004 . S
C541 N89 0.963 . S
C553 C212 1.026 . S
C568 C254 0.944 . S
C580 N132 0.949 . S
C595 C13 1.764 . S
C607 C242 1.687 . S
C622 C83 1.824 . S
C634 C39 1.520 . S
C649 C99 1.714 . S
C661 C70 1.747 . S
C676 C169 1.810 . S
C688 C125 1.594 . S
C703 C156 1.694 . S
C715 C211 1.758 . S
C730 C255 1.810 . S
C742 C185 1.595 . S
C757 C161 1.838 . S
C769 C113 1.716 . S
C784 C205 1.687 . S
C796 C162 1.666 . S
C811 C247 1.813 . S
C823 C204 1.759 . S
C838 C248 1.613 . S
C850 C40 1.721 . S
C865 C27 1.779 . S
C877 C75 1.807 . S
C892 C76 1.576 . S
C904 C126 1.729 . S
