# Generated by pormake.
# Topology wln, (5)-cn, num edge types: 1
# Building blocks:
#     Node 0, Type 0, BuildingBlock: XOMCOT_clean_sbu_0, # of connection points: 5
#     Node 1, Type 0, BuildingBlock: XOMCOT_clean_sbu_0, # of connection points: 5
#     Node 2, Type 0, BuildingBlock: XOMCOT_clean_sbu_0, # of connection points: 5
#     Node 3, Type 0, BuildingBlock: XOMCOT_clean_sbu_0, # of connection points: 5
#     Node 4, Type 0, BuildingBlock: XOMCOT_clean_sbu_0, # of connection points: 5
#     Node 5, Type 0, BuildingBlock: XOMCOT_clean_sbu_0, # of connection points: 5
#     Node 6, Type 0, BuildingBlock: XOMCOT_clean_sbu_0, # of connection points: 5
#     Node 7, Type 0, BuildingBlock: XOMCOT_clean_sbu_0, # of connection points: 5
#     Node 8, Type 0, BuildingBlock: XOMCOT_clean_sbu_0, # of connection points: 5
#     Node 9, Type 0, BuildingBlock: XOMCOT_clean_sbu_0, # of connection points: 5
#     Node 10, Type 0, BuildingBlock: XOMCOT_clean_sbu_0, # of connection points: 5
#     Node 11, Type 0, BuildingBlock: XOMCOT_clean_sbu_0, # of connection points: 5
#     Node 12, Type 0, BuildingBlock: XOMCOT_clean_sbu_0, # of connection points: 5
#     Node 13, Type 0, BuildingBlock: XOMCOT_clean_sbu_0, # of connection points: 5
#     Node 14, Type 0, BuildingBlock: XOMCOT_clean_sbu_0, # of connection points: 5
#     Node 15, Type 0, BuildingBlock: XOMCOT_clean_sbu_0, # of connection points: 5
#     Node 16, Type 0, BuildingBlock: XOMCOT_clean_sbu_0, # of connection points: 5
#     Node 17, Type 0, BuildingBlock: XOMCOT_clean_sbu_0, # of connection points: 5
#     Node 18, Type 0, BuildingBlock: XOMCOT_clean_sbu_0, # of connection points: 5
#     Node 19, Type 0, BuildingBlock: XOMCOT_clean_sbu_0, # of connection points: 5
#     Node 20, Type 0, BuildingBlock: XOMCOT_clean_sbu_0, # of connection points: 5
#     Node 21, Type 0, BuildingBlock: XOMCOT_clean_sbu_0, # of connection points: 5
#     Node 22, Type 0, BuildingBlock: XOMCOT_clean_sbu_0, # of connection points: 5
#     Node 23, Type 0, BuildingBlock: XOMCOT_clean_sbu_0, # of connection points: 5
#     Node 24, Type 0, BuildingBlock: XOMCOT_clean_sbu_0, # of connection points: 5
#     Node 25, Type 0, BuildingBlock: XOMCOT_clean_sbu_0, # of connection points: 5
#     Node 26, Type 0, BuildingBlock: XOMCOT_clean_sbu_0, # of connection points: 5
#     Node 27, Type 0, BuildingBlock: XOMCOT_clean_sbu_0, # of connection points: 5
#     Node 28, Type 0, BuildingBlock: XOMCOT_clean_sbu_0, # of connection points: 5
#     Node 29, Type 0, BuildingBlock: XOMCOT_clean_sbu_0, # of connection points: 5
#     Node 30, Type 0, BuildingBlock: XOMCOT_clean_sbu_0, # of connection points: 5
#     Node 31, Type 0, BuildingBlock: XOMCOT_clean_sbu_0, # of connection points: 5
#     Node 32, Type 0, BuildingBlock: XOMCOT_clean_sbu_0, # of connection points: 5
#     Node 33, Type 0, BuildingBlock: XOMCOT_clean_sbu_0, # of connection points: 5
#     Node 34, Type 0, BuildingBlock: XOMCOT_clean_sbu_0, # of connection points: 5
#     Node 35, Type 0, BuildingBlock: XOMCOT_clean_sbu_0, # of connection points: 5
#     Edge 36, Type (0, 0), BuildingBlock: CIFDUS_clean_linker_0, # of connection points: 2
#     Edge 37, Type (0, 0), BuildingBlock: CIFDUS_clean_linker_0, # of connection points: 2
#     Edge 38, Type (0, 0), BuildingBlock: CIFDUS_clean_linker_0, # of connection points: 2
#     Edge 39, Type (0, 0), BuildingBlock: CIFDUS_clean_linker_0, # of connection points: 2
#     Edge 40, Type (0, 0), BuildingBlock: CIFDUS_clean_linker_0, # of connection points: 2
#     Edge 41, Type (0, 0), BuildingBlock: CIFDUS_clean_linker_0, # of connection points: 2
#     Edge 42, Type (0, 0), BuildingBlock: CIFDUS_clean_linker_0, # of connection points: 2
#     Edge 43, Type (0, 0), BuildingBlock: CIFDUS_clean_linker_0, # of connection points: 2
#     Edge 44, Type (0, 0), BuildingBlock: CIFDUS_clean_linker_0, # of connection points: 2
#     Edge 45, Type (0, 0), BuildingBlock: CIFDUS_clean_linker_0, # of connection points: 2
#     Edge 46, Type (0, 0), BuildingBlock: CIFDUS_clean_linker_0, # of connection points: 2
#     Edge 47, Type (0, 0), BuildingBlock: CIFDUS_clean_linker_0, # of connection points: 2
#     Edge 48, Type (0, 0), BuildingBlock: CIFDUS_clean_linker_0, # of connection points: 2
#     Edge 49, Type (0, 0), BuildingBlock: CIFDUS_clean_linker_0, # of connection points: 2
#     Edge 50, Type (0, 0), BuildingBlock: CIFDUS_clean_linker_0, # of connection points: 2
#     Edge 51, Type (0, 0), BuildingBlock: CIFDUS_clean_linker_0, # of connection points: 2
#     Edge 52, Type (0, 0), BuildingBlock: CIFDUS_clean_linker_0, # of connection points: 2
#     Edge 53, Type (0, 0), BuildingBlock: CIFDUS_clean_linker_0, # of connection points: 2
#     Edge 54, Type (0, 0), BuildingBlock: CIFDUS_clean_linker_0, # of connection points: 2
#     Edge 55, Type (0, 0), BuildingBlock: CIFDUS_clean_linker_0, # of connection points: 2
#     Edge 56, Type (0, 0), BuildingBlock: CIFDUS_clean_linker_0, # of connection points: 2
#     Edge 57, Type (0, 0), BuildingBlock: CIFDUS_clean_linker_0, # of connection points: 2
#     Edge 58, Type (0, 0), BuildingBlock: CIFDUS_clean_linker_0, # of connection points: 2
#     Edge 59, Type (0, 0), BuildingBlock: CIFDUS_clean_linker_0, # of connection points: 2
#     Edge 60, Type (0, 0), BuildingBlock: CIFDUS_clean_linker_0, # of connection points: 2
#     Edge 61, Type (0, 0), BuildingBlock: CIFDUS_clean_linker_0, # of connection points: 2
#     Edge 62, Type (0, 0), BuildingBlock: CIFDUS_clean_linker_0, # of connection points: 2
#     Edge 63, Type (0, 0), BuildingBlock: CIFDUS_clean_linker_0, # of connection points: 2
#     Edge 64, Type (0, 0), BuildingBlock: CIFDUS_clean_linker_0, # of connection points: 2
#     Edge 65, Type (0, 0), BuildingBlock: CIFDUS_clean_linker_0, # of connection points: 2
#     Edge 66, Type (0, 0), BuildingBlock: CIFDUS_clean_linker_0, # of connection points: 2
#     Edge 67, Type (0, 0), BuildingBlock: CIFDUS_clean_linker_0, # of connection points: 2
#     Edge 68, Type (0, 0), BuildingBlock: CIFDUS_clean_linker_0, # of connection points: 2
#     Edge 69, Type (0, 0), BuildingBlock: CIFDUS_clean_linker_0, # of connection points: 2
#     Edge 70, Type (0, 0), BuildingBlock: CIFDUS_clean_linker_0, # of connection points: 2
#     Edge 71, Type (0, 0), BuildingBlock: CIFDUS_clean_linker_0, # of connection points: 2
#     Edge 72, Type (0, 0), BuildingBlock: CIFDUS_clean_linker_0, # of connection points: 2
#     Edge 73, Type (0, 0), BuildingBlock: CIFDUS_clean_linker_0, # of connection points: 2
#     Edge 74, Type (0, 0), BuildingBlock: CIFDUS_clean_linker_0, # of connection points: 2
#     Edge 75, Type (0, 0), BuildingBlock: CIFDUS_clean_linker_0, # of connection points: 2
#     Edge 76, Type (0, 0), BuildingBlock: CIFDUS_clean_linker_0, # of connection points: 2
#     Edge 77, Type (0, 0), BuildingBlock: CIFDUS_clean_linker_0, # of connection points: 2
#     Edge 78, Type (0, 0), BuildingBlock: CIFDUS_clean_linker_0, # of connection points: 2
#     Edge 79, Type (0, 0), BuildingBlock: CIFDUS_clean_linker_0, # of connection points: 2
#     Edge 80, Type (0, 0), BuildingBlock: CIFDUS_clean_linker_0, # of connection points: 2
#     Edge 81, Type (0, 0), BuildingBlock: CIFDUS_clean_linker_0, # of connection points: 2
#     Edge 82, Type (0, 0), BuildingBlock: CIFDUS_clean_linker_0, # of connection points: 2
#     Edge 83, Type (0, 0), BuildingBlock: CIFDUS_clean_linker_0, # of connection points: 2
#     Edge 84, Type (0, 0), BuildingBlock: CIFDUS_clean_linker_0, # of connection points: 2
#     Edge 85, Type (0, 0), BuildingBlock: CIFDUS_clean_linker_0, # of connection points: 2
#     Edge 86, Type (0, 0), BuildingBlock: CIFDUS_clean_linker_0, # of connection points: 2
#     Edge 87, Type (0, 0), BuildingBlock: CIFDUS_clean_linker_0, # of connection points: 2
#     Edge 88, Type (0, 0), BuildingBlock: CIFDUS_clean_linker_0, # of connection points: 2
#     Edge 89, Type (0, 0), BuildingBlock: CIFDUS_clean_linker_0, # of connection points: 2
#     Edge 90, Type (0, 0), BuildingBlock: CIFDUS_clean_linker_0, # of connection points: 2
#     Edge 91, Type (0, 0), BuildingBlock: CIFDUS_clean_linker_0, # of connection points: 2
#     Edge 92, Type (0, 0), BuildingBlock: CIFDUS_clean_linker_0, # of connection points: 2
#     Edge 93, Type (0, 0), BuildingBlock: CIFDUS_clean_linker_0, # of connection points: 2
#     Edge 94, Type (0, 0), BuildingBlock: CIFDUS_clean_linker_0, # of connection points: 2
#     Edge 95, Type (0, 0), BuildingBlock: CIFDUS_clean_linker_0, # of connection points: 2
#     Edge 96, Type (0, 0), BuildingBlock: CIFDUS_clean_linker_0, # of connection points: 2
#     Edge 97, Type (0, 0), BuildingBlock: CIFDUS_clean_linker_0, # of connection points: 2
#     Edge 98, Type (0, 0), BuildingBlock: CIFDUS_clean_linker_0, # of connection points: 2
#     Edge 99, Type (0, 0), BuildingBlock: CIFDUS_clean_linker_0, # of connection points: 2
#     Edge 100, Type (0, 0), BuildingBlock: CIFDUS_clean_linker_0, # of connection points: 2
#     Edge 101, Type (0, 0), BuildingBlock: CIFDUS_clean_linker_0, # of connection points: 2
#     Edge 102, Type (0, 0), BuildingBlock: CIFDUS_clean_linker_0, # of connection points: 2
#     Edge 103, Type (0, 0), BuildingBlock: CIFDUS_clean_linker_0, # of connection points: 2
#     Edge 104, Type (0, 0), BuildingBlock: CIFDUS_clean_linker_0, # of connection points: 2
#     Edge 105, Type (0, 0), BuildingBlock: CIFDUS_clean_linker_0, # of connection points: 2
#     Edge 106, Type (0, 0), BuildingBlock: CIFDUS_clean_linker_0, # of connection points: 2
#     Edge 107, Type (0, 0), BuildingBlock: CIFDUS_clean_linker_0, # of connection points: 2
#     Edge 108, Type (0, 0), BuildingBlock: CIFDUS_clean_linker_0, # of connection points: 2
#     Edge 109, Type (0, 0), BuildingBlock: CIFDUS_clean_linker_0, # of connection points: 2
#     Edge 110, Type (0, 0), BuildingBlock: CIFDUS_clean_linker_0, # of connection points: 2
#     Edge 111, Type (0, 0), BuildingBlock: CIFDUS_clean_linker_0, # of connection points: 2
#     Edge 112, Type (0, 0), BuildingBlock: CIFDUS_clean_linker_0, # of connection points: 2
#     Edge 113, Type (0, 0), BuildingBlock: CIFDUS_clean_linker_0, # of connection points: 2
#     Edge 114, Type (0, 0), BuildingBlock: CIFDUS_clean_linker_0, # of connection points: 2
#     Edge 115, Type (0, 0), BuildingBlock: CIFDUS_clean_linker_0, # of connection points: 2
#     Edge 116, Type (0, 0), BuildingBlock: CIFDUS_clean_linker_0, # of connection points: 2
#     Edge 117, Type (0, 0), BuildingBlock: CIFDUS_clean_linker_0, # of connection points: 2
#     Edge 118, Type (0, 0), BuildingBlock: CIFDUS_clean_linker_0, # of connection points: 2
#     Edge 119, Type (0, 0), BuildingBlock: CIFDUS_clean_linker_0, # of connection points: 2
#     Edge 120, Type (0, 0), BuildingBlock: CIFDUS_clean_linker_0, # of connection points: 2
#     Edge 121, Type (0, 0), BuildingBlock: CIFDUS_clean_linker_0, # of connection points: 2
#     Edge 122, Type (0, 0), BuildingBlock: CIFDUS_clean_linker_0, # of connection points: 2
#     Edge 123, Type (0, 0), BuildingBlock: CIFDUS_clean_linker_0, # of connection points: 2
#     Edge 124, Type (0, 0), BuildingBlock: CIFDUS_clean_linker_0, # of connection points: 2
#     Edge 125, Type (0, 0), BuildingBlock: CIFDUS_clean_linker_0, # of connection points: 2
# Relax obj value: 0.165
# Max RMSD: 0.178
# Mean RMSD: 0.178
data_MOF--net-wln--node1-XOMCOT_clean_sbu_0--edge1-CIFDUS_clean_linker_0
_symmetry_space_group_name_H-M    P1
_symmetry_Int_Tables_number       1
_symmetry_cell_setting            triclinic
loop_
_symmetry_equiv_pos_as_xyz
'x, y, z'
_cell_length_a     112.05557
_cell_length_b     112.02761
_cell_length_c     15.703274
_cell_angle_alpha  90.011152
_cell_angle_beta   89.963488
_cell_angle_gamma 120.00714
loop_
_atom_site_label
_atom_site_type_symbol
_atom_site_fract_x
_atom_site_fract_y
_atom_site_fract_z
_atom_type_partial_charge
Co0 Co 0.11863 0.392 0.06758 0.0
C1 C 0.11783 0.38952 0.25982 0.0
C2 C 0.10381 0.3706 0.19816 0.0
C3 C 0.10179 0.36881 0.28459 0.0
N4 N 0.1142 0.38346 0.18159 0.0
N5 N 0.11054 0.38072 0.324 0.0
H6 H 0.12479 0.40039 0.26962 0.0
H7 H 0.09743 0.36315 0.15067 0.0
C8 C 0.11527 0.36436 0.032 0.0
O9 O 0.12347 0.36636 0.09695 0.0
N10 N 0.12254 0.40051 0.95469 0.0
C11 C 0.13172 0.41383 0.93842 0.0
C12 C 0.13313 0.41577 0.85163 0.0
C13 C 0.11841 0.39454 0.87683 0.0
N14 N 0.12488 0.40364 0.81247 0.0
C15 C 0.14612 0.40237 0.13771 0.0
C16 C 0.15547 0.39302 1.00484 0.0
C17 C 0.16404 0.39905 0.07532 0.0
C18 C 0.15942 0.40416 0.14139 0.0
C19 C 0.14237 0.39148 1.00376 0.0
N20 N 0.13751 0.39544 0.07157 0.0
H21 H 0.14285 0.40664 0.18776 0.0
H22 H 0.136 0.38674 0.94859 0.0
H23 H 0.13743 0.42152 0.98642 0.0
H24 H 0.11141 0.38365 0.86734 0.0
O25 O 0.12128 0.40891 0.11744 0.0
O26 O 0.10136 0.39174 0.0702 0.0
O27 O 0.11205 0.37347 0.01257 0.0
C28 C 0.10807 0.40376 0.10667 0.0
H29 H 0.09408 0.35948 0.31551 0.0
H30 H 0.13997 0.4254 0.81994 0.0
H31 H 0.15882 0.38942 0.95081 0.0
H32 H 0.16588 0.40922 0.19605 0.0
Co33 Co 0.60579 0.72607 0.09266 0.0
C34 C 0.60608 0.72645 0.2801 0.0
C35 C 0.62593 0.73211 0.22952 0.0
C36 C 0.62631 0.7307 0.3163 0.0
N37 N 0.61334 0.72987 0.20689 0.0
N38 N 0.61375 0.72702 0.34747 0.0
H39 H 0.59514 0.7225 0.28381 0.0
H40 H 0.63399 0.73354 0.18575 0.0
C41 C 0.63366 0.75073 0.06622 0.0
O42 O 0.63102 0.75661 0.1303 0.0
N43 N 0.59847 0.72178 0.97967 0.0
C44 C 0.5861 0.71942 0.95202 0.0
C45 C 0.58593 0.71851 0.86441 0.0
C46 C 0.60552 0.72205 0.91002 0.0
N47 N 0.59822 0.72032 0.83865 0.0
C48 C 0.59392 0.74195 0.15816 0.0
C49 C 0.60419 0.76182 0.0321 0.0
C50 C 0.59704 0.76331 0.10055 0.0
C51 C 0.59163 0.75309 0.16328 0.0
C52 C 0.60644 0.75065 0.03033 0.0
N53 N 0.60196 0.74125 0.09531 0.0
H54 H 0.58899 0.73384 0.20412 0.0
H55 H 0.61198 0.74966 0.97696 0.0
H56 H 0.5781 0.71908 0.99226 0.0
H57 H 0.61596 0.72391 0.91133 0.0
O58 O 0.58848 0.71154 0.13612 0.0
O59 O 0.60614 0.70904 0.09661 0.0
O60 O 0.62478 0.73847 0.04379 0.0
C61 C 0.59375 0.70355 0.12833 0.0
H62 H 0.63482 0.73135 0.35264 0.0
H63 H 0.57775 0.71743 0.82279 0.0
H64 H 0.60834 0.76942 0.98158 0.0
H65 H 0.58559 0.75364 0.21542 0.0
Co66 Co 0.27218 0.88173 0.98226 0.0
C67 C 0.26785 0.87898 0.16921 0.0
C68 C 0.26688 0.89628 0.12023 0.0
C69 C 0.26633 0.89655 0.20783 0.0
N70 N 0.26749 0.88505 0.09571 0.0
N71 N 0.26695 0.88563 0.23835 0.0
H72 H 0.27012 0.87074 0.17331 0.0
H73 H 0.26756 0.90418 0.07762 0.0
C74 C 0.24878 0.88703 0.95051 0.0
O75 O 0.24238 0.87986 0.01856 0.0
N76 N 0.27721 0.87885 0.87011 0.0
C77 C 0.27931 0.86855 0.84509 0.0
C78 C 0.28062 0.86904 0.75768 0.0
C79 C 0.27747 0.88557 0.79846 0.0
N80 N 0.2794 0.87972 0.72867 0.0
C81 C 0.25697 0.85325 0.03573 0.0
C82 C 0.23561 0.84518 0.92129 0.0
C83 C 0.23468 0.83574 0.9833 0.0
C84 C 0.24579 0.8398 0.03937 0.0
C85 C 0.24691 0.85852 0.9206 0.0
N86 N 0.25695 0.86273 0.98131 0.0
H87 H 0.26572 0.85589 0.07584 0.0
H88 H 0.24759 0.86539 0.87028 0.0
H89 H 0.27926 0.86086 0.88703 0.0
H90 H 0.27551 0.8941 0.79689 0.0
O91 O 0.28648 0.87902 0.03123 0.0
O92 O 0.28904 0.89912 0.98983 0.0
O93 O 0.26047 0.88867 0.92865 0.0
C94 C 0.29439 0.89232 0.02457 0.0
H95 H 0.26601 0.90443 0.24594 0.0
H96 H 0.28199 0.86187 0.7184 0.0
H97 H 0.22771 0.84229 0.87324 0.0
H98 H 0.24581 0.83277 0.08657 0.0
Co99 Co 0.39518 0.11913 0.0193 0.0
C100 C 0.39373 0.122 0.83238 0.0
C101 C 0.37531 0.10483 0.88087 0.0
C102 C 0.37461 0.10454 0.79327 0.0
N103 N 0.38716 0.11603 0.90582 0.0
N104 N 0.38624 0.11537 0.76302 0.0
H105 H 0.40434 0.13008 0.82865 0.0
H106 H 0.36805 0.09689 0.92307 0.0
C107 C 0.36624 0.11265 0.05412 0.0
O108 O 0.36706 0.12043 0.98923 0.0
N109 N 0.40317 0.12178 0.1312 0.0
C110 C 0.41551 0.13221 0.15608 0.0
C111 C 0.41642 0.13168 0.24335 0.0
C112 C 0.39684 0.11494 0.20291 0.0
N113 N 0.40463 0.12086 0.27259 0.0
C114 C 0.40567 0.1476 0.96928 0.0
C115 C 0.3924 0.15352 0.09665 0.0
C116 C 0.39937 0.16337 0.03312 0.0
C117 C 0.40649 0.16048 0.97041 0.0
C118 C 0.39184 0.14083 0.09288 0.0
N119 N 0.39758 0.1376 0.0263 0.0
H120 H 0.41168 0.14581 0.92317 0.0
H121 H 0.38665 0.13355 0.14366 0.0
H122 H 0.42299 0.14005 0.11421 0.0
H123 H 0.38641 0.10631 0.20474 0.0
O124 O 0.41265 0.12335 0.96915 0.0
O125 O 0.39588 0.10246 1.00584 0.0
O126 O 0.37634 0.11089 0.07308 0.0
C127 C 0.40797 0.11011 0.97176 0.0
H128 H 0.36645 0.09665 0.755 0.0
H129 H 0.42491 0.13896 0.28242 0.0
H130 H 0.38738 0.15557 0.14896 0.0
H131 H 0.41242 0.16797 0.92169 0.0
Co132 Co 0.87453 0.27061 0.95774 0.0
C133 C 0.87396 0.2676 0.76522 0.0
C134 C 0.88881 0.26377 0.82563 0.0
C135 C 0.88997 0.26291 0.73906 0.0
N136 N 0.87838 0.26615 0.84327 0.0
N137 N 0.88064 0.26531 0.70068 0.0
H138 H 0.86655 0.27093 0.755 0.0
H139 H 0.89567 0.26335 0.87235 0.0
C140 C 0.8772 0.24592 0.98824 0.0
O141 O 0.86845 0.24017 0.92511 0.0
N142 N 0.87124 0.27557 0.07099 0.0
C143 C 0.86233 0.27999 0.0884 0.0
C144 C 0.86189 0.28153 0.17502 0.0
C145 C 0.87608 0.27441 0.14796 0.0
N146 N 0.8705 0.27801 0.21294 0.0
C147 C 0.84653 0.25483 0.89527 0.0
C148 C 0.83689 0.23636 0.02932 0.0
C149 C 0.82778 0.23494 0.96402 0.0
C150 C 0.8327 0.24439 0.89653 0.0
C151 C 0.85059 0.24684 0.02518 0.0
N152 N 0.85545 0.25561 0.95705 0.0
H153 H 0.84988 0.26251 0.84616 0.0
H154 H 0.85731 0.2479 0.07742 0.0
H155 H 0.85621 0.28159 0.04141 0.0
H156 H 0.88338 0.27085 0.15634 0.0
O157 O 0.8719 0.28491 0.909 0.0
O158 O 0.89198 0.28755 0.95178 0.0
O159 O 0.88094 0.25829 0.01063 0.0
C160 C 0.88513 0.29291 0.91757 0.0
H161 H 0.89761 0.26134 0.70668 0.0
H162 H 0.8553 0.28455 0.20767 0.0
H163 H 0.83352 0.22934 0.08298 0.0
H164 H 0.82586 0.2439 0.84625 0.0
Co165 Co 0.72741 0.60075 0.92726 0.0
C166 C 0.72817 0.60312 0.73484 0.0
C167 C 0.73224 0.62176 0.79684 0.0
C168 C 0.73176 0.62348 0.71044 0.0
N169 N 0.73047 0.60915 0.81307 0.0
N170 N 0.72918 0.61174 0.67092 0.0
H171 H 0.72471 0.59234 0.72471 0.0
H172 H 0.73309 0.62909 0.84461 0.0
C173 C 0.75083 0.62909 0.95986 0.0
O174 O 0.75713 0.62748 0.89395 0.0
N175 N 0.72387 0.59241 0.0404 0.0
C176 C 0.72077 0.57938 0.05692 0.0
C177 C 0.72044 0.57755 0.14375 0.0
C178 C 0.72532 0.59834 0.11805 0.0
N179 N 0.7234 0.58948 0.18261 0.0
C180 C 0.74479 0.59142 0.85064 0.0
C181 C 0.76462 0.60149 0.97692 0.0
C182 C 0.76672 0.59549 0.90449 0.0
C183 C 0.75654 0.5902 0.84142 0.0
C184 C 0.75285 0.60269 0.98284 0.0
N185 N 0.74342 0.59831 0.91817 0.0
H186 H 0.73676 0.58663 0.80403 0.0
H187 H 0.75147 0.60741 0.0391 0.0
H188 H 0.71928 0.57182 0.00903 0.0
H189 H 0.7283 0.60905 0.12721 0.0
O190 O 0.71355 0.58341 0.87987 0.0
O191 O 0.70984 0.5999 0.92888 0.0
O192 O 0.73881 0.61949 0.98103 0.0
C193 C 0.70498 0.58787 0.89294 0.0
H194 H 0.7329 0.63262 0.67954 0.0
H195 H 0.71835 0.56814 0.17569 0.0
H196 H 0.77217 0.60554 0.02765 0.0
H197 H 0.75757 0.58503 0.78599 0.0
Co198 Co 0.88392 0.60533 0.96495 0.0
C199 C 0.88359 0.60762 0.77462 0.0
C200 C 0.89685 0.62713 0.83407 0.0
C201 C 0.8975 0.62898 0.74708 0.0
N202 N 0.88803 0.61377 0.85175 0.0
N203 N 0.88921 0.61673 0.7094 0.0
H204 H 0.87641 0.59673 0.76639 0.0
H205 H 0.90265 0.63499 0.88093 0.0
C206 C 0.88282 0.62677 0.07248 0.0
O207 O 0.87063 0.61709 0.09871 0.0
N208 N 0.88034 0.5968 0.07946 0.0
C209 C 0.87397 0.58317 0.09674 0.0
C210 C 0.87391 0.5812 0.18324 0.0
C211 C 0.88483 0.60286 0.15712 0.0
N212 N 0.88065 0.59359 0.22179 0.0
C213 C 0.85419 0.58825 0.96586 0.0
C214 C 0.84893 0.60894 0.91837 0.0
C215 C 0.83787 0.59598 0.94 0.0
C216 C 0.84058 0.58547 0.96224 0.0
C217 C 0.86238 0.61133 0.92414 0.0
N218 N 0.86493 0.60125 0.95208 0.0
H219 H 0.85599 0.57989 0.97913 0.0
H220 H 0.8708 0.62148 0.90891 0.0
H221 H 0.86991 0.57502 0.04988 0.0
H222 H 0.89148 0.61379 0.16663 0.0
O223 O 0.88217 0.5888 0.91512 0.0
O224 O 0.90161 0.60637 0.96463 0.0
O225 O 0.88957 0.62387 0.01857 0.0
C226 C 0.89538 0.59437 0.92732 0.0
H227 H 0.90392 0.63859 0.71395 0.0
H228 H 0.86919 0.57131 0.21505 0.0
H229 H 0.84725 0.6173 0.89993 0.0
H230 H 0.83225 0.57518 0.97633 0.0
Co231 Co 0.40288 0.27813 0.03066 0.0
C232 C 0.39988 0.27506 0.83857 0.0
C233 C 0.38205 0.27342 0.89957 0.0
C234 C 0.38008 0.27285 0.81284 0.0
N235 N 0.39426 0.27428 0.91688 0.0
N236 N 0.39129 0.27389 0.77401 0.0
H237 H 0.41025 0.27713 0.82817 0.0
H238 H 0.37525 0.27387 0.94665 0.0
C239 C 0.37396 0.25581 0.06911 0.0
O240 O 0.37403 0.24898 1.00125 0.0
N241 N 0.41145 0.28237 0.14325 0.0
C242 C 0.42435 0.28511 0.16035 0.0
C243 C 0.42636 0.2863 0.24718 0.0
C244 C 0.40576 0.28188 0.22058 0.0
N245 N 0.41468 0.28424 0.28558 0.0
C246 C 0.41301 0.26075 0.96567 0.0
C247 C 0.40093 0.24064 0.08942 0.0
C248 C 0.40814 0.2387 0.02295 0.0
C249 C 0.41452 0.2491 0.96158 0.0
C250 C 0.39972 0.25241 0.09105 0.0
N251 N 0.40504 0.26194 0.02704 0.0
H252 H 0.41851 0.2689 0.92047 0.0
H253 H 0.39455 0.25389 0.14462 0.0
H254 H 0.43166 0.28575 0.113 0.0
H255 H 0.3953 0.27974 0.22925 0.0
O256 O 0.42013 0.29149 0.97949 0.0
O257 O 0.40392 0.29577 0.02644 0.0
O258 O 0.38438 0.26745 0.0879 0.0
C259 C 0.41575 0.30021 0.98877 0.0
H260 H 0.37133 0.27242 0.78075 0.0
H261 H 0.43562 0.28805 0.27956 0.0
H262 H 0.39639 0.23318 0.14043 0.0
H263 H 0.42051 0.24821 0.91038 0.0
Co264 Co 0.72214 0.11736 0.9475 0.0
C265 C 0.72342 0.11614 0.75545 0.0
C266 C 0.73167 0.10482 0.81698 0.0
C267 C 0.73175 0.10295 0.73041 0.0
N268 N 0.72682 0.11345 0.8336 0.0
N269 N 0.72653 0.11004 0.69119 0.0
H270 H 0.71787 0.12161 0.74565 0.0
H271 H 0.7343 0.09954 0.86432 0.0
C272 C 0.74817 0.11703 0.99052 0.0
O273 O 0.75478 0.1259 0.92916 0.0
N274 N 0.71714 0.1208 0.06052 0.0
C275 C 0.7117 0.12889 0.07691 0.0
C276 C 0.71098 0.13013 0.16374 0.0
C277 C 0.71961 0.11716 0.13836 0.0
N278 N 0.71605 0.12287 0.20288 0.0
C279 C 0.73646 0.14451 0.87211 0.0
C280 C 0.75584 0.15656 0.99988 0.0
C281 C 0.75706 0.16428 0.92682 0.0
C282 C 0.74698 0.1582 0.86336 0.0
C283 C 0.74518 0.14293 1.00588 0.0
N284 N 0.73614 0.13679 0.94019 0.0
H285 H 0.72857 0.1402 0.82428 0.0
H286 H 0.74452 0.13718 0.06255 0.0
H287 H 0.70886 0.13394 0.02895 0.0
H288 H 0.72447 0.11101 0.14773 0.0
O289 O 0.70674 0.11813 0.89857 0.0
O290 O 0.70617 0.09922 0.94728 0.0
O291 O 0.73536 0.11253 1.00319 0.0
C292 C 0.69973 0.10487 0.91142 0.0
H293 H 0.73512 0.09653 0.69917 0.0
H294 H 0.70716 0.13613 0.19541 0.0
H295 H 0.76331 0.16081 0.05094 0.0
H296 H 0.74721 0.16397 0.80743 0.0
Co297 Co 0.60634 0.87926 0.01047 0.0
C298 C 0.60685 0.87881 0.19523 0.0
C299 C 0.62683 0.89324 0.14556 0.0
C300 C 0.62718 0.89447 0.23301 0.0
N301 N 0.61407 0.8834 0.12268 0.0
N302 N 0.61454 0.88549 0.26347 0.0
H303 H 0.59601 0.87112 0.19754 0.0
H304 H 0.63503 0.89957 0.1017 0.0
C305 C 0.62704 0.87627 0.90855 0.0
O306 O 0.6167 0.86444 0.88247 0.0
N307 N 0.5987 0.87585 0.89645 0.0
C308 C 0.58557 0.8683 0.86878 0.0
C309 C 0.58546 0.86928 0.78131 0.0
C310 C 0.60607 0.88219 0.82637 0.0
N311 N 0.59846 0.87788 0.75504 0.0
C312 C 0.58809 0.84958 0.01853 0.0
C313 C 0.60826 0.84373 0.06841 0.0
C314 C 0.5951 0.83283 0.0491 0.0
C315 C 0.58483 0.83583 0.02572 0.0
C316 C 0.6111 0.85726 0.05873 0.0
N317 N 0.60132 0.86007 0.02867 0.0
H318 H 0.57991 0.85169 0.00627 0.0
H319 H 0.62138 0.86552 0.07305 0.0
H320 H 0.57656 0.86282 0.90829 0.0
H321 H 0.61686 0.88996 0.82743 0.0
O322 O 0.58995 0.87859 0.05386 0.0
O323 O 0.60837 0.89742 1.00561 0.0
O324 O 0.62487 0.88366 0.96176 0.0
C325 C 0.59619 0.89182 0.04046 0.0
H326 H 0.63578 0.90193 0.27068 0.0
H327 H 0.57655 0.8639 0.74046 0.0
H328 H 0.61642 0.84182 0.08817 0.0
H329 H 0.57438 0.82763 0.01393 0.0
Co330 Co 0.11593 0.72862 0.03543 0.0
C331 C 0.11908 0.73228 0.22123 0.0
C332 C 0.10433 0.73743 0.17397 0.0
C333 C 0.10351 0.73687 0.26142 0.0
N334 N 0.11428 0.73477 0.14839 0.0
N335 N 0.11268 0.73343 0.29081 0.0
H336 H 0.12617 0.72842 0.22327 0.0
H337 H 0.09707 0.73822 0.13252 0.0
C338 C 0.11053 0.75158 0.9904 0.0
O339 O 0.12072 0.76014 0.0396 0.0
N340 N 0.1171 0.72208 0.92401 0.0
C341 C 0.12686 0.71936 0.89631 0.0
C342 C 0.12611 0.71835 0.80878 0.0
C343 C 0.11035 0.72237 0.85387 0.0
N344 N 0.11586 0.72047 0.78235 0.0
C345 C 0.14456 0.7474 0.07868 0.0
C346 C 0.15019 0.76394 0.93656 0.0
C347 C 0.1602 0.76799 1.00026 0.0
C348 C 0.15749 0.75931 0.07066 0.0
C349 C 0.13752 0.75196 0.9468 0.0
N350 N 0.13448 0.74429 0.01969 0.0
H351 H 0.14271 0.74079 0.13256 0.0
H352 H 0.12993 0.74917 0.89709 0.0
H353 H 0.13471 0.71931 0.93611 0.0
H354 H 0.10221 0.72487 0.85452 0.0
O355 O 0.1202 0.71543 0.08604 0.0
O356 O 0.0992 0.71167 0.05705 0.0
O357 O 0.10736 0.73898 0.98373 0.0
C358 C 0.1069 0.70716 0.08924 0.0
H359 H 0.09584 0.73758 0.29955 0.0
H360 H 0.13333 0.71738 0.76762 0.0
H361 H 0.15205 0.77012 0.87976 0.0
H362 H 0.1651 0.76192 0.12036 0.0
Co363 Co 0.27131 0.38796 0.00896 0.0
C364 C 0.26928 0.38525 0.20162 0.0
C365 C 0.26758 0.36745 0.13985 0.0
C366 C 0.26716 0.36545 0.22646 0.0
N367 N 0.26837 0.37964 0.12319 0.0
N368 N 0.2682 0.37663 0.26572 0.0
H369 H 0.27132 0.39561 0.21239 0.0
H370 H 0.26789 0.36062 0.09238 0.0
C371 C 0.24899 0.35906 0.97674 0.0
O372 O 0.24245 0.36036 0.04249 0.0
N373 N 0.27471 0.39624 0.89585 0.0
C374 C 0.27688 0.40894 0.87855 0.0
C375 C 0.27809 0.41097 0.79181 0.0
C376 C 0.27458 0.39066 0.81884 0.0
N377 N 0.27664 0.39949 0.75379 0.0
C378 C 0.25314 0.39678 0.08006 0.0
C379 C 0.23294 0.38454 0.95721 0.0
C380 C 0.23051 0.39076 0.02741 0.0
C381 C 0.241 0.39733 0.08806 0.0
C382 C 0.2452 0.38422 0.95197 0.0
N383 N 0.25474 0.38948 0.01588 0.0
H384 H 0.2613 0.40241 0.12486 0.0
H385 H 0.2469 0.37952 0.89674 0.0
H386 H 0.27722 0.41613 0.92576 0.0
H387 H 0.27295 0.38036 0.81053 0.0
O388 O 0.28445 0.40559 0.05676 0.0
O389 O 0.28936 0.38985 0.00923 0.0
O390 O 0.26077 0.36906 0.9551 0.0
C391 C 0.29359 0.40183 0.04452 0.0
H392 H 0.26674 0.35667 0.2581 0.0
H393 H 0.27952 0.4201 0.75918 0.0
H394 H 0.22543 0.37992 0.90657 0.0
H395 H 0.23977 0.40264 0.14199 0.0
Co396 Co 0.77518 0.71681 0.36182 0.0
C397 C 0.77791 0.71613 0.54693 0.0
C398 C 0.76246 0.69639 0.49963 0.0
C399 C 0.76249 0.69588 0.58739 0.0
N400 N 0.77214 0.7091 0.4748 0.0
N401 N 0.77217 0.70834 0.61692 0.0
H402 H 0.7856 0.72696 0.54798 0.0
H403 H 0.7555 0.68827 0.45727 0.0
C404 C 0.7763 0.6955 0.25467 0.0
O405 O 0.78801 0.70554 0.22497 0.0
N406 N 0.7776 0.72457 0.24755 0.0
C407 C 0.78458 0.73794 0.22317 0.0
C408 C 0.78338 0.73869 0.13632 0.0
C409 C 0.77128 0.71761 0.17581 0.0
N410 N 0.77507 0.72586 0.10687 0.0
C411 C 0.80495 0.73433 0.35455 0.0
C412 C 0.81073 0.71389 0.39932 0.0
C413 C 0.82154 0.7268 0.37476 0.0
C414 C 0.81861 0.7372 0.35398 0.0
C415 C 0.79723 0.71139 0.39728 0.0
N416 N 0.79438 0.7213 0.37004 0.0
H417 H 0.803 0.74264 0.3436 0.0
H418 H 0.78899 0.70127 0.41496 0.0
H419 H 0.78979 0.74669 0.26509 0.0
H420 H 0.7641 0.70666 0.17336 0.0
O421 O 0.77691 0.73345 0.40926 0.0
O422 O 0.75728 0.71537 0.36677 0.0
O423 O 0.76963 0.69808 0.31113 0.0
C424 C 0.7636 0.72759 0.4013 0.0
H425 H 0.75568 0.6871 0.62625 0.0
H426 H 0.78807 0.74797 0.09797 0.0
H427 H 0.81263 0.70565 0.41726 0.0
H428 H 0.82681 0.74748 0.33816 0.0
Co429 Co 0.26525 0.05675 0.33045 0.0
C430 C 0.26797 0.05833 0.52268 0.0
C431 C 0.28589 0.06044 0.46025 0.0
C432 C 0.28757 0.06 0.54672 0.0
N433 N 0.27378 0.05985 0.44418 0.0
N434 N 0.27627 0.05859 0.58663 0.0
H435 H 0.25748 0.0559 0.53304 0.0
H436 H 0.2928 0.06043 0.41223 0.0
C437 C 0.29424 0.07928 0.29631 0.0
O438 O 0.29404 0.08561 0.36623 0.0
N439 N 0.25676 0.05324 0.21779 0.0
C440 C 0.2439 0.05068 0.20148 0.0
C441 C 0.24211 0.05052 0.11459 0.0
C442 C 0.26261 0.05452 0.13998 0.0
N443 N 0.25389 0.05303 0.07549 0.0
C444 C 0.25524 0.07386 0.40258 0.0
C445 C 0.26739 0.09463 0.28283 0.0
C446 C 0.26029 0.09628 0.351 0.0
C447 C 0.25385 0.08555 0.41031 0.0
C448 C 0.26849 0.0828 0.27754 0.0
N449 N 0.26312 0.07293 0.3395 0.0
H450 H 0.24975 0.06548 0.44643 0.0
H451 H 0.27363 0.0816 0.22285 0.0
H452 H 0.23648 0.04951 0.24958 0.0
H453 H 0.27319 0.05708 0.13064 0.0
O454 O 0.248 0.04299 0.38007 0.0
O455 O 0.26424 0.03914 0.32874 0.0
O456 O 0.28383 0.06782 0.27449 0.0
C457 C 0.25245 0.03438 0.36744 0.0
H458 H 0.29635 0.06027 0.57731 0.0
H459 H 0.23285 0.04888 0.08279 0.0
H460 H 0.27198 0.10236 0.23331 0.0
H461 H 0.24793 0.08623 0.46271 0.0
Co462 Co 0.93681 0.21208 0.3558 0.0
C463 C 0.93417 0.21172 0.54617 0.0
C464 C 0.92939 0.22611 0.48724 0.0
C465 C 0.92823 0.22681 0.57417 0.0
N466 N 0.93297 0.21656 0.46923 0.0
N467 N 0.93128 0.21781 0.61149 0.0
H468 H 0.93713 0.20395 0.55421 0.0
H469 H 0.92796 0.23239 0.44069 0.0
C470 C 0.91538 0.2136 0.25021 0.0
O471 O 0.91167 0.20119 0.22168 0.0
N472 N 0.94129 0.2081 0.24105 0.0
C473 C 0.94783 0.201 0.22374 0.0
C474 C 0.94969 0.20081 0.13733 0.0
C475 C 0.94007 0.21282 0.16341 0.0
N476 N 0.94472 0.20817 0.09882 0.0
C477 C 0.92204 0.18233 0.3512 0.0
C478 C 0.89671 0.17901 0.39635 0.0
C479 C 0.89758 0.16742 0.37239 0.0
C480 C 0.91049 0.16914 0.35175 0.0
C481 C 0.90851 0.19203 0.39394 0.0
N482 N 0.92083 0.19366 0.36664 0.0
H483 H 0.93192 0.18334 0.33868 0.0
H484 H 0.9076 0.2009 0.41079 0.0
H485 H 0.95142 0.19645 0.27053 0.0
H486 H 0.93639 0.21997 0.15381 0.0
O487 O 0.95053 0.2086 0.40497 0.0
O488 O 0.95432 0.22893 0.35771 0.0
O489 O 0.9253 0.21948 0.3034 0.0
C490 C 0.9591 0.22168 0.39349 0.0
H491 H 0.92573 0.23373 0.60756 0.0
H492 H 0.95433 0.19557 0.10551 0.0
H493 H 0.88694 0.17809 0.41392 0.0
H494 H 0.91166 0.16035 0.33635 0.0
Co495 Co 0.0677 0.46107 0.3323 0.0
C496 C 0.06663 0.46279 0.14732 0.0
C497 C 0.04777 0.44593 0.19546 0.0
C498 C 0.04715 0.44583 0.10767 0.0
N499 N 0.06 0.45659 0.21961 0.0
N500 N 0.05905 0.45645 0.07776 0.0
H501 H 0.07706 0.47143 0.14593 0.0
H502 H 0.04006 0.43855 0.23837 0.0
C503 C 0.04568 0.46125 0.43663 0.0
O504 O 0.05525 0.47344 0.46349 0.0
N505 N 0.07549 0.465 0.44656 0.0
C506 C 0.08861 0.47354 0.47175 0.0
C507 C 0.08942 0.47255 0.55871 0.0
C508 C 0.06886 0.45819 0.51796 0.0
N509 N 0.07695 0.46292 0.58738 0.0
C510 C 0.08374 0.49087 0.32198 0.0
C511 C 0.06194 0.49445 0.27555 0.0
C512 C 0.07484 0.50606 0.29031 0.0
C513 C 0.08591 0.50421 0.31218 0.0
C514 C 0.06019 0.48135 0.28766 0.0
N515 N 0.07083 0.47967 0.31568 0.0
H516 H 0.09252 0.48963 0.33239 0.0
H517 H 0.05017 0.4725 0.27555 0.0
H518 H 0.09726 0.47962 0.43059 0.0
H519 H 0.05824 0.44997 0.51958 0.0
O520 O 0.08488 0.46369 0.28794 0.0
O521 O 0.06762 0.44382 0.33532 0.0
O522 O 0.04873 0.45469 0.38201 0.0
C523 C 0.07985 0.45057 0.30127 0.0
H524 H 0.03868 0.43841 0.06904 0.0
H525 H 0.09853 0.47824 0.59762 0.0
H526 H 0.05319 0.49548 0.25701 0.0
H527 H 0.09616 0.51298 0.32056 0.0
Co528 Co 0.53677 0.60794 0.38387 0.0
C529 C 0.53538 0.6057 0.19723 0.0
C530 C 0.55207 0.60376 0.24717 0.0
C531 C 0.55347 0.60503 0.16011 0.0
N532 N 0.54053 0.60388 0.27047 0.0
N533 N 0.54302 0.60641 0.1292 0.0
H534 H 0.52701 0.60778 0.19392 0.0
H535 H 0.55965 0.60401 0.29082 0.0
C536 C 0.54276 0.58491 0.41305 0.0
O537 O 0.53568 0.57855 0.34467 0.0
N538 N 0.53364 0.61245 0.49616 0.0
C539 C 0.52286 0.61351 0.52438 0.0
C540 C 0.52373 0.61468 0.61184 0.0
C541 C 0.54101 0.61325 0.56539 0.0
N542 N 0.53509 0.61437 0.63731 0.0
C543 C 0.50852 0.5917 0.32719 0.0
C544 C 0.50089 0.57069 0.44409 0.0
C545 C 0.49142 0.56938 0.38144 0.0
C546 C 0.49526 0.58023 0.32364 0.0
C547 C 0.51404 0.58228 0.44488 0.0
N548 N 0.51804 0.59222 0.38354 0.0
H549 H 0.51095 0.60027 0.28595 0.0
H550 H 0.52097 0.58325 0.49557 0.0
H551 H 0.51458 0.61267 0.48477 0.0
H552 H 0.55024 0.61247 0.56318 0.0
O553 O 0.53341 0.62199 0.33743 0.0
O554 O 0.55381 0.62519 0.37747 0.0
O555 O 0.5442 0.59651 0.43565 0.0
C556 C 0.54666 0.63024 0.34406 0.0
H557 H 0.56212 0.60604 0.12348 0.0
H558 H 0.51611 0.61482 0.65357 0.0
H559 H 0.49829 0.56271 0.49133 0.0
H560 H 0.48802 0.57993 0.27682 0.0
Co561 Co 0.3894 0.93277 0.29157 0.0
C562 C 0.39052 0.93313 0.10445 0.0
C563 C 0.39647 0.9531 0.15433 0.0
C564 C 0.3953 0.95349 0.06736 0.0
N565 N 0.39382 0.94039 0.17761 0.0
N566 N 0.39141 0.94086 0.03659 0.0
H567 H 0.38644 0.92215 0.10108 0.0
H568 H 0.39795 0.96122 0.1976 0.0
C569 C 0.41383 0.9607 0.32527 0.0
O570 O 0.42065 0.95841 0.26544 0.0
N571 N 0.38458 0.92538 0.40433 0.0
C572 C 0.38208 0.91296 0.43209 0.0
C573 C 0.38115 0.91279 0.51966 0.0
C574 C 0.3849 0.93246 0.474 0.0
N575 N 0.38309 0.92513 0.54541 0.0
C576 C 0.40563 0.9211 0.23102 0.0
C577 C 0.42539 0.93199 0.35741 0.0
C578 C 0.42725 0.92498 0.28931 0.0
C579 C 0.41695 0.9191 0.2271 0.0
C580 C 0.41388 0.93369 0.35885 0.0
N581 N 0.40467 0.9291 0.29299 0.0
H582 H 0.39763 0.91606 0.18449 0.0
H583 H 0.41261 0.9391 0.41192 0.0
H584 H 0.38177 0.90496 0.39201 0.0
H585 H 0.38699 0.94299 0.47281 0.0
O586 O 0.37525 0.91537 0.2468 0.0
O587 O 0.37231 0.93291 0.28286 0.0
O588 O 0.40129 0.95177 0.34145 0.0
C589 C 0.36712 0.9205 0.25181 0.0
H590 H 0.39617 0.96206 0.0306 0.0
H591 H 0.38006 0.9046 0.56128 0.0
H592 H 0.43296 0.93651 0.40778 0.0
H593 H 0.41762 0.91302 0.17567 0.0
Co594 Co 0.54568 0.93742 0.30193 0.0
C595 C 0.54357 0.93762 0.11498 0.0
C596 C 0.55882 0.95722 0.16364 0.0
C597 C 0.56002 0.95752 0.07664 0.0
N598 N 0.54823 0.94485 0.18788 0.0
N599 N 0.55051 0.94512 0.04653 0.0
H600 H 0.53622 0.92675 0.11213 0.0
H601 H 0.56607 0.96505 0.20636 0.0
C602 C 0.5488 0.96504 0.32822 0.0
O603 O 0.53974 0.96174 0.26663 0.0
N604 N 0.54381 0.93013 0.41443 0.0
C605 C 0.53418 0.91759 0.44221 0.0
C606 C 0.53504 0.91739 0.52955 0.0
C607 C 0.55056 0.93728 0.48388 0.0
N608 N 0.54525 0.92984 0.55533 0.0
C609 C 0.51707 0.92517 0.25225 0.0
C610 C 0.50925 0.93548 0.38786 0.0
C611 C 0.49941 0.92751 0.32646 0.0
C612 C 0.50341 0.92216 0.25856 0.0
C613 C 0.52276 0.93824 0.37901 0.0
N614 N 0.52672 0.93364 0.30976 0.0
H615 H 0.51971 0.92034 0.20245 0.0
H616 H 0.53007 0.94414 0.42831 0.0
H617 H 0.52651 0.90952 0.40238 0.0
H618 H 0.55874 0.94792 0.48247 0.0
O619 O 0.54213 0.92 0.25674 0.0
O620 O 0.56289 0.93751 0.28789 0.0
O621 O 0.55276 0.95657 0.35048 0.0
C622 C 0.55539 0.92502 0.25847 0.0
H623 H 0.56804 0.96574 0.03931 0.0
H624 H 0.52806 0.9091 0.57103 0.0
H625 H 0.50661 0.93973 0.44181 0.0
H626 H 0.49599 0.91552 0.21145 0.0
Co627 Co 0.07101 0.61567 0.38599 0.0
C628 C 0.0685 0.61443 0.19346 0.0
C629 C 0.0502 0.6113 0.25593 0.0
C630 C 0.04848 0.61178 0.16957 0.0
N631 N 0.06258 0.61247 0.27189 0.0
N632 N 0.06001 0.61381 0.12973 0.0
H633 H 0.07915 0.61747 0.18297 0.0
H634 H 0.04309 0.61086 0.304 0.0
C635 C 0.04262 0.59214 0.41625 0.0
O636 O 0.04388 0.5863 0.34691 0.0
N637 N 0.07937 0.61935 0.49897 0.0
C638 C 0.09238 0.62238 0.51554 0.0
C639 C 0.09416 0.6226 0.60239 0.0
C640 C 0.07342 0.61787 0.57658 0.0
N641 N 0.08223 0.61967 0.64116 0.0
C642 C 0.08155 0.59916 0.31264 0.0
C643 C 0.07146 0.57917 0.43804 0.0
C644 C 0.07861 0.57781 0.36918 0.0
C645 C 0.08379 0.588 0.30617 0.0
C646 C 0.06925 0.59034 0.44116 0.0
N647 N 0.07381 0.59991 0.37724 0.0
H648 H 0.08642 0.60736 0.26705 0.0
H649 H 0.06396 0.59133 0.49579 0.0
H650 H 0.09992 0.62382 0.46764 0.0
H651 H 0.06273 0.61491 0.58569 0.0
O652 O 0.0882 0.62968 0.33805 0.0
O653 O 0.07153 0.63309 0.38708 0.0
O654 O 0.05235 0.60392 0.44021 0.0
C655 C 0.0835 0.63807 0.35009 0.0
H656 H 0.03951 0.61109 0.13895 0.0
H657 H 0.10352 0.62457 0.63443 0.0
H658 H 0.06746 0.57157 0.48861 0.0
H659 H 0.08977 0.5875 0.25349 0.0
Co660 Co 0.39226 0.44857 0.26941 0.0
C661 C 0.39419 0.45036 0.08267 0.0
C662 C 0.40068 0.43671 0.13164 0.0
C663 C 0.39979 0.4354 0.04456 0.0
N664 N 0.39751 0.44638 0.15561 0.0
N665 N 0.39556 0.4439 0.01429 0.0
H666 H 0.38963 0.45684 0.07979 0.0
H667 H 0.40227 0.4301 0.17458 0.0
C668 C 0.41833 0.44798 0.29825 0.0
O669 O 0.42394 0.45693 0.23589 0.0
N670 N 0.38659 0.45014 0.38186 0.0
C671 C 0.38282 0.45915 0.40943 0.0
C672 C 0.38189 0.45835 0.49693 0.0
C673 C 0.38764 0.44382 0.45157 0.0
N674 N 0.3851 0.44881 0.52294 0.0
C675 C 0.40599 0.47718 0.21521 0.0
C676 C 0.42511 0.48691 0.34556 0.0
C677 C 0.42585 0.49616 0.28295 0.0
C678 C 0.41597 0.49119 0.21783 0.0
C679 C 0.41501 0.47306 0.34044 0.0
N680 N 0.40603 0.46816 0.27343 0.0
H681 H 0.39808 0.47376 0.16758 0.0
H682 H 0.41448 0.46625 0.39079 0.0
H683 H 0.3817 0.46638 0.36929 0.0
H684 H 0.3908 0.43615 0.45033 0.0
O685 O 0.37677 0.44958 0.22366 0.0
O686 O 0.37654 0.43031 0.25989 0.0
O687 O 0.40576 0.4435 0.31908 0.0
C688 C 0.36998 0.43618 0.22871 0.0
H689 H 0.401 0.42794 0.00732 0.0
H690 H 0.37998 0.46495 0.53831 0.0
H691 H 0.43242 0.49026 0.39758 0.0
H692 H 0.41582 0.49808 0.17003 0.0
Co693 Co 0.27436 0.21633 0.36203 0.0
C694 C 0.27585 0.21349 0.54884 0.0
C695 C 0.29436 0.23053 0.50022 0.0
C696 C 0.29508 0.2308 0.58785 0.0
N697 N 0.28243 0.21942 0.47535 0.0
N698 N 0.2834 0.22004 0.61818 0.0
H699 H 0.26521 0.20549 0.55266 0.0
H700 H 0.30167 0.23843 0.45796 0.0
C701 C 0.30325 0.22265 0.32556 0.0
O702 O 0.30266 0.21504 0.39085 0.0
N703 N 0.26631 0.21367 0.2502 0.0
C704 C 0.25399 0.20325 0.22524 0.0
C705 C 0.25311 0.20376 0.13789 0.0
C706 C 0.27267 0.2205 0.17846 0.0
N707 N 0.26491 0.21457 0.10868 0.0
C708 C 0.26359 0.18782 0.41269 0.0
C709 C 0.27677 0.1817 0.28579 0.0
C710 C 0.26974 0.17189 0.34947 0.0
C711 C 0.26266 0.17488 0.4119 0.0
C712 C 0.27744 0.19444 0.28922 0.0
N713 N 0.27176 0.19777 0.35559 0.0
H714 H 0.25761 0.18969 0.45857 0.0
H715 H 0.28265 0.20166 0.23822 0.0
H716 H 0.24649 0.19541 0.26709 0.0
H717 H 0.28309 0.22912 0.17671 0.0
O718 O 0.257 0.21239 0.41272 0.0
O719 O 0.27386 0.23313 0.37473 0.0
O720 O 0.2931 0.22437 0.3075 0.0
C721 C 0.26179 0.22565 0.40928 0.0
H722 H 0.30331 0.23862 0.62611 0.0
H723 H 0.24463 0.19647 0.09879 0.0
H724 H 0.28175 0.17957 0.2336 0.0
H725 H 0.25667 0.16743 0.46065 0.0
Co726 Co 0.77978 0.05939 0.37465 0.0
C727 C 0.77811 0.06018 0.56664 0.0
C728 C 0.76587 0.06741 0.50566 0.0
C729 C 0.76389 0.06724 0.5923 0.0
N730 N 0.77511 0.06334 0.48863 0.0
N731 N 0.77158 0.06268 0.63113 0.0
H732 H 0.78426 0.05532 0.57618 0.0
H733 H 0.76023 0.06966 0.45875 0.0
C734 C 0.77564 0.08315 0.32598 0.0
O735 O 0.78499 0.09137 0.38091 0.0
N736 N 0.78403 0.05508 0.26169 0.0
C737 C 0.79321 0.05096 0.24545 0.0
C738 C 0.79456 0.05034 0.15864 0.0
C739 C 0.77985 0.05685 0.18374 0.0
N740 N 0.78627 0.05416 0.1193 0.0
C741 C 0.80636 0.0767 0.4508 0.0
C742 C 0.81705 0.09569 0.3199 0.0
C743 C 0.82476 0.0981 0.39455 0.0
C744 C 0.81941 0.08828 0.45975 0.0
C745 C 0.80396 0.08403 0.31408 0.0
N746 N 0.79844 0.07509 0.38102 0.0
H747 H 0.80271 0.06902 0.49998 0.0
H748 H 0.79807 0.08248 0.25664 0.0
H749 H 0.79891 0.04896 0.29345 0.0
H750 H 0.77277 0.06064 0.17421 0.0
O751 O 0.78294 0.04545 0.42454 0.0
O752 O 0.76283 0.04209 0.37649 0.0
O753 O 0.77246 0.07056 0.31858 0.0
C754 C 0.76981 0.03708 0.41309 0.0
H755 H 0.75703 0.07001 0.62391 0.0
H756 H 0.80133 0.04745 0.12716 0.0
H757 H 0.8209 0.10295 0.26753 0.0
H758 H 0.82531 0.08951 0.51703 0.0
Co759 Co 0.93267 0.7231 0.38525 0.0
C760 C 0.92965 0.72177 0.57313 0.0
C761 C 0.92959 0.70399 0.52315 0.0
C762 C 0.92913 0.70308 0.61067 0.0
N763 N 0.9295 0.71553 0.49947 0.0
N764 N 0.9291 0.71428 0.64158 0.0
H765 H 0.93137 0.73208 0.57795 0.0
H766 H 0.93049 0.69696 0.47994 0.0
C767 C 0.91011 0.694 0.36298 0.0
O768 O 0.90401 0.69584 0.42911 0.0
N769 N 0.93626 0.73057 0.27229 0.0
C770 C 0.93746 0.74261 0.24717 0.0
C771 C 0.93891 0.74351 0.15997 0.0
C772 C 0.93718 0.72439 0.20123 0.0
N773 N 0.9387 0.73203 0.13153 0.0
C774 C 0.91591 0.73423 0.44566 0.0
C775 C 0.89439 0.72012 0.3332 0.0
C776 C 0.89304 0.72793 0.39808 0.0
C777 C 0.9041 0.73533 0.45343 0.0
C778 C 0.90629 0.71909 0.32901 0.0
N779 N 0.91645 0.72529 0.38889 0.0
H780 H 0.9247 0.74085 0.48402 0.0
H781 H 0.90728 0.71325 0.27758 0.0
H782 H 0.93691 0.74998 0.28903 0.0
H783 H 0.93616 0.71427 0.20013 0.0
O784 O 0.94619 0.7409 0.42878 0.0
O785 O 0.95053 0.72447 0.38775 0.0
O786 O 0.92165 0.70387 0.33663 0.0
C787 C 0.9551 0.73679 0.41884 0.0
H788 H 0.92914 0.69501 0.64846 0.0
H789 H 0.93981 0.75184 0.12047 0.0
H790 H 0.88621 0.71462 0.28737 0.0
H791 H 0.90368 0.74206 0.50145 0.0
Co792 Co 0.4443 0.05324 0.6834 0.0
C793 C 0.44313 0.05073 0.87539 0.0
C794 C 0.43082 0.03126 0.81441 0.0
C795 C 0.42889 0.02945 0.90103 0.0
N796 N 0.44007 0.04457 0.79731 0.0
N797 N 0.4366 0.0417 0.9399 0.0
H798 H 0.44927 0.06174 0.8849 0.0
H799 H 0.42508 0.0234 0.76757 0.0
C800 C 0.44039 0.02551 0.63429 0.0
O801 O 0.44995 0.02701 0.68867 0.0
N802 N 0.44807 0.06184 0.57058 0.0
C803 C 0.45698 0.07523 0.5544 0.0
C804 C 0.45828 0.07723 0.46762 0.0
C805 C 0.444 0.05588 0.49254 0.0
N806 N 0.45024 0.06506 0.42818 0.0
C807 C 0.47126 0.06266 0.75497 0.0
C808 C 0.48178 0.05538 0.61801 0.0
C809 C 0.48995 0.06095 0.69069 0.0
C810 C 0.48462 0.06477 0.75939 0.0
C811 C 0.4684 0.05326 0.61682 0.0
N812 N 0.46306 0.05637 0.68613 0.0
H813 H 0.46763 0.06629 0.80664 0.0
H814 H 0.46223 0.04877 0.56056 0.0
H815 H 0.46259 0.08297 0.60238 0.0
H816 H 0.4372 0.04496 0.48284 0.0
O817 O 0.44754 0.07027 0.73483 0.0
O818 O 0.42729 0.0535 0.689 0.0
O819 O 0.43692 0.03472 0.62679 0.0
C820 C 0.43435 0.06545 0.72599 0.0
H821 H 0.42199 0.01983 0.93254 0.0
H822 H 0.46489 0.08695 0.43618 0.0
H823 H 0.48558 0.05239 0.5633 0.0
H824 H 0.4908 0.06952 0.81559 0.0
Co825 Co 0.94351 0.38995 0.6775 0.0
C826 C 0.94396 0.39138 0.86439 0.0
C827 C 0.96367 0.39633 0.8146 0.0
C828 C 0.96401 0.39525 0.90171 0.0
N829 N 0.95117 0.39425 0.79124 0.0
N830 N 0.95153 0.39199 0.9324 0.0
H831 H 0.93307 0.38774 0.86777 0.0
H832 H 0.97163 0.39737 0.77125 0.0
C833 C 0.9716 0.41434 0.64693 0.0
O834 O 0.96944 0.4208 0.70967 0.0
N835 N 0.93602 0.38527 0.565 0.0
C836 C 0.92365 0.38295 0.5378 0.0
C837 C 0.92343 0.38214 0.45015 0.0
C838 C 0.94304 0.38562 0.49497 0.0
N839 N 0.93572 0.38399 0.42382 0.0
C840 C 0.93085 0.40543 0.73742 0.0
C841 C 0.94248 0.42602 0.61623 0.0
C842 C 0.93464 0.42722 0.68174 0.0
C843 C 0.92846 0.41653 0.74149 0.0
C844 C 0.94457 0.41474 0.6146 0.0
N845 N 0.93955 0.40507 0.678 0.0
H846 H 0.92545 0.39705 0.7812 0.0
H847 H 0.95042 0.4139 0.56257 0.0
H848 H 0.91571 0.38267 0.57835 0.0
H849 H 0.95352 0.38757 0.4958 0.0
O850 O 0.92633 0.37536 0.72287 0.0
O851 O 0.94413 0.37311 0.68349 0.0
O852 O 0.96239 0.40208 0.62717 0.0
C853 C 0.9318 0.36752 0.71589 0.0
H854 H 0.97239 0.39574 0.93869 0.0
H855 H 0.91526 0.38119 0.40893 0.0
H856 H 0.94726 0.43387 0.5676 0.0
H857 H 0.92174 0.41665 0.79063 0.0
Co858 Co 0.60714 0.5481 0.66863 0.0
C859 C 0.60705 0.54839 0.85587 0.0
C860 C 0.60314 0.56378 0.80466 0.0
C861 C 0.6048 0.56566 0.89138 0.0
N862 N 0.60415 0.55266 0.78261 0.0
N863 N 0.60738 0.55601 0.92293 0.0
H864 H 0.60997 0.54062 0.85989 0.0
H865 H 0.60228 0.57069 0.76029 0.0
C866 C 0.58296 0.55247 0.64544 0.0
O867 O 0.57746 0.54572 0.71639 0.0
N868 N 0.6106 0.54424 0.55555 0.0
C869 C 0.61198 0.53363 0.52763 0.0
C870 C 0.61292 0.53437 0.43995 0.0
C871 C 0.61093 0.55135 0.48606 0.0
N872 N 0.61213 0.54547 0.4144 0.0
C873 C 0.59214 0.52059 0.73834 0.0
C874 C 0.56981 0.51112 0.63002 0.0
C875 C 0.56925 0.50284 0.69839 0.0
C876 C 0.58074 0.50752 0.75155 0.0
C877 C 0.58133 0.52422 0.62023 0.0
N878 N 0.59189 0.5292 0.67778 0.0
H879 H 0.60119 0.52362 0.77611 0.0
H880 H 0.58165 0.53039 0.56653 0.0
H881 H 0.61174 0.52567 0.56775 0.0
H882 H 0.60997 0.56049 0.48795 0.0
O883 O 0.62199 0.54567 0.71051 0.0
O884 O 0.62414 0.56546 0.66614 0.0
O885 O 0.59462 0.55444 0.61967 0.0
C886 C 0.62987 0.55887 0.69874 0.0
H887 H 0.60502 0.57401 0.9274 0.0
H888 H 0.61343 0.52695 0.39821 0.0
H889 H 0.56128 0.50767 0.58594 0.0
H890 H 0.58093 0.50109 0.80243 0.0
Co891 Co 0.72298 0.78257 0.66367 0.0
C892 C 0.72078 0.78332 0.47321 0.0
C893 C 0.70121 0.77018 0.53235 0.0
C894 C 0.6994 0.76959 0.4454 0.0
N895 N 0.71459 0.77889 0.55031 0.0
N896 N 0.71169 0.77778 0.40789 0.0
H897 H 0.73171 0.79035 0.46501 0.0
H898 H 0.6933 0.76435 0.57891 0.0
C899 C 0.70087 0.7822 0.77249 0.0
O900 O 0.71011 0.79447 0.8003 0.0
N901 N 0.73147 0.78571 0.77826 0.0
C902 C 0.7451 0.79204 0.79544 0.0
C903 C 0.74709 0.79204 0.88187 0.0
C904 C 0.72543 0.78118 0.85596 0.0
N905 N 0.73471 0.78531 0.92049 0.0
C906 C 0.73933 0.81223 0.67313 0.0
C907 C 0.71842 0.81732 0.62876 0.0
C908 C 0.73118 0.82834 0.65404 0.0
C909 C 0.74181 0.82573 0.67445 0.0
C910 C 0.71632 0.80394 0.62959 0.0
N911 N 0.72649 0.80144 0.65627 0.0
H912 H 0.74779 0.81055 0.68528 0.0
H913 H 0.70631 0.79551 0.612 0.0
H914 H 0.75325 0.79626 0.74855 0.0
H915 H 0.71451 0.77454 0.86576 0.0
O916 O 0.7398 0.78538 0.61282 0.0
O917 O 0.72269 0.7652 0.65754 0.0
O918 O 0.70427 0.77595 0.71777 0.0
C919 C 0.73475 0.77217 0.62143 0.0
H920 H 0.6898 0.76322 0.41214 0.0
H921 H 0.75698 0.79678 0.91365 0.0
H922 H 0.71 0.81896 0.61135 0.0
H923 H 0.75197 0.83407 0.691 0.0
Co924 Co 0.20356 0.94376 0.68362 0.0
C925 C 0.20209 0.94139 0.49678 0.0
C926 C 0.21912 0.94003 0.54653 0.0
C927 C 0.22055 0.94144 0.45958 0.0
N928 N 0.20734 0.93967 0.57005 0.0
N929 N 0.20989 0.94245 0.42872 0.0
H930 H 0.19358 0.94326 0.49369 0.0
H931 H 0.22689 0.94065 0.58996 0.0
C932 C 0.2113 0.92212 0.71473 0.0
O933 O 0.20384 0.91524 0.64867 0.0
N934 N 0.20047 0.94843 0.79579 0.0
C935 C 0.18942 0.94895 0.82434 0.0
C936 C 0.19039 0.95033 0.91169 0.0
C937 C 0.20811 0.94977 0.86479 0.0
N938 N 0.20209 0.95069 0.93687 0.0
C939 C 0.17567 0.92455 0.62903 0.0
C940 C 0.17022 0.90559 0.75707 0.0
C941 C 0.16055 0.90221 0.6917 0.0
C942 C 0.16319 0.91207 0.62853 0.0
C943 C 0.18253 0.91812 0.75479 0.0
N944 N 0.18555 0.92705 0.68829 0.0
H945 H 0.17726 0.93218 0.5821 0.0
H946 H 0.18973 0.92055 0.80651 0.0
H947 H 0.18087 0.94754 0.78515 0.0
H948 H 0.21759 0.94944 0.86243 0.0
O949 O 0.19842 0.95647 0.63583 0.0
O950 O 0.21966 0.96168 0.67206 0.0
O951 O 0.2125 0.9337 0.73572 0.0
C952 C 0.21151 0.96554 0.63855 0.0
H953 H 0.22937 0.94286 0.4231 0.0
H954 H 0.1826 0.95008 0.95363 0.0
H955 H 0.16833 0.89859 0.80952 0.0
H956 H 0.15584 0.91008 0.57805 0.0
Co957 Co 0.05751 0.27791 0.61381 0.0
C958 C 0.0606 0.27895 0.42887 0.0
C959 C 0.06316 0.29805 0.47663 0.0
C960 C 0.06368 0.29863 0.38881 0.0
N961 N 0.06123 0.2857 0.50108 0.0
N962 N 0.06202 0.28657 0.35908 0.0
H963 H 0.05844 0.2684 0.42768 0.0
H964 H 0.06368 0.30588 0.51934 0.0
C965 C 0.07952 0.29952 0.7211 0.0
O966 O 0.08181 0.28978 0.74895 0.0
N967 N 0.05314 0.27001 0.72792 0.0
C968 C 0.04839 0.25685 0.75294 0.0
C969 C 0.04653 0.25601 0.83991 0.0
C970 C 0.05297 0.27664 0.79938 0.0
N971 N 0.04952 0.26852 0.8688 0.0
C972 C 0.07115 0.26152 0.60883 0.0
C973 C 0.09692 0.2836 0.57305 0.0
C974 C 0.09576 0.27093 0.59425 0.0
C975 C 0.08258 0.2596 0.60834 0.0
C976 C 0.08529 0.28504 0.57462 0.0
N977 N 0.07279 0.27438 0.59958 0.0
H978 H 0.06107 0.25268 0.61645 0.0
H979 H 0.08649 0.29498 0.55936 0.0
H980 H 0.04582 0.24822 0.7116 0.0
H981 H 0.05553 0.28731 0.80111 0.0
O982 O 0.04261 0.261 0.568 0.0
O983 O 0.04077 0.27869 0.61559 0.0
O984 O 0.07027 0.29672 0.66443 0.0
C985 C 0.03492 0.26653 0.58068 0.0
H986 H 0.06494 0.30717 0.35004 0.0
H987 H 0.04305 0.24687 0.87872 0.0
H988 H 0.10681 0.29246 0.55732 0.0
H989 H 0.08113 0.24948 0.62145 0.0
Co990 Co 0.20373 0.26302 0.6578 0.0
C991 C 0.20562 0.26548 0.4674 0.0
C992 C 0.22014 0.28427 0.52955 0.0
C993 C 0.22203 0.28605 0.4428 0.0
N994 N 0.20981 0.27141 0.5453 0.0
N995 N 0.21298 0.27422 0.40306 0.0
H996 H 0.19762 0.25488 0.45841 0.0
H997 H 0.22608 0.29182 0.57778 0.0
C998 C 0.20331 0.28516 0.76035 0.0
O999 O 0.19059 0.27592 0.78083 0.0
N1000 N 0.19815 0.25447 0.77185 0.0
C1001 C 0.18992 0.24094 0.78903 0.0
C1002 C 0.18878 0.23895 0.87583 0.0
C1003 C 0.20264 0.26031 0.85007 0.0
N1004 N 0.19666 0.25116 0.91474 0.0
C1005 C 0.17387 0.24826 0.64065 0.0
C1006 C 0.17229 0.271 0.58897 0.0
C1007 C 0.16006 0.2586 0.60402 0.0
C1008 C 0.16092 0.24698 0.62739 0.0
C1009 C 0.18493 0.27181 0.60299 0.0
N1010 N 0.18563 0.26076 0.63374 0.0
H1011 H 0.17434 0.23916 0.65589 0.0
H1012 H 0.19421 0.28153 0.59172 0.0
H1013 H 0.18537 0.23282 0.74218 0.0
H1014 H 0.21019 0.27102 0.86005 0.0
O1015 O 0.20099 0.24589 0.61141 0.0
O1016 O 0.22052 0.26237 0.66776 0.0
O1017 O 0.21025 0.28185 0.71056 0.0
C1018 C 0.21389 0.25048 0.62949 0.0
H1019 H 0.2296 0.29543 0.41184 0.0
H1020 H 0.18283 0.22913 0.90772 0.0
H1021 H 0.17212 0.2801 0.56746 0.0
H1022 H 0.15171 0.23709 0.63728 0.0
Co1023 Co 0.72998 0.94087 0.65787 0.0
C1024 C 0.72724 0.93896 0.46522 0.0
C1025 C 0.70883 0.93558 0.52731 0.0
C1026 C 0.70681 0.93513 0.4407 0.0
N1027 N 0.72146 0.93742 0.5438 0.0
N1028 N 0.71838 0.93722 0.40115 0.0
H1029 H 0.73787 0.94192 0.45439 0.0
H1030 H 0.70168 0.93522 0.5748 0.0
C1031 C 0.70146 0.91787 0.69471 0.0
O1032 O 0.70263 0.911 0.63043 0.0
N1033 N 0.73838 0.94474 0.77077 0.0
C1034 C 0.75128 0.94751 0.78814 0.0
C1035 C 0.75329 0.94884 0.87494 0.0
C1036 C 0.73268 0.94436 0.8478 0.0
N1037 N 0.74161 0.94684 0.91292 0.0
C1038 C 0.73924 0.92326 0.58472 0.0
C1039 C 0.72815 0.90317 0.70924 0.0
C1040 C 0.73398 0.90085 0.63671 0.0
C1041 C 0.73991 0.91122 0.57497 0.0
C1042 C 0.72754 0.91527 0.71571 0.0
N1043 N 0.73226 0.92475 0.65121 0.0
H1044 H 0.74448 0.9314 0.5392 0.0
H1045 H 0.72292 0.91685 0.77185 0.0
H1046 H 0.75863 0.94819 0.74097 0.0
H1047 H 0.72222 0.94227 0.8561 0.0
O1048 O 0.7473 0.95453 0.60877 0.0
O1049 O 0.73088 0.95842 0.65699 0.0
O1050 O 0.71133 0.92988 0.71307 0.0
C1051 C 0.74283 0.96314 0.62038 0.0
H1052 H 0.6977 0.93399 0.40932 0.0
H1053 H 0.76257 0.95071 0.90763 0.0
H1054 H 0.72371 0.89552 0.7593 0.0
H1055 H 0.74507 0.91007 0.51993 0.0
Co1056 Co 0.05439 0.78516 0.63263 0.0
C1057 C 0.0579 0.78863 0.44569 0.0
C1058 C 0.06584 0.77611 0.49364 0.0
C1059 C 0.0664 0.77609 0.40603 0.0
N1060 N 0.06084 0.7843 0.51891 0.0
N1061 N 0.0614 0.78398 0.37619 0.0
H1062 H 0.05209 0.79392 0.4424 0.0
H1063 H 0.06805 0.76979 0.53525 0.0
C1064 C 0.08082 0.78571 0.67304 0.0
O1065 O 0.08728 0.79571 0.61752 0.0
N1066 N 0.04759 0.78553 0.74493 0.0
C1067 C 0.04209 0.79325 0.76994 0.0
C1068 C 0.04053 0.79227 0.85708 0.0
C1069 C 0.04912 0.77981 0.81655 0.0
N1070 N 0.04506 0.7839 0.88623 0.0
C1071 C 0.06838 0.81405 0.58365 0.0
C1072 C 0.08604 0.82321 0.7216 0.0
C1073 C 0.088 0.8325 0.65616 0.0
C1074 C 0.07869 0.82793 0.58798 0.0
C1075 C 0.07565 0.80951 0.71463 0.0
N1076 N 0.06757 0.80484 0.64349 0.0
H1077 H 0.06114 0.81082 0.53211 0.0
H1078 H 0.07446 0.80253 0.7656 0.0
H1079 H 0.04003 0.79969 0.72827 0.0
H1080 H 0.05395 0.77353 0.81846 0.0
O1081 O 0.03894 0.78589 0.58385 0.0
O1082 O 0.03927 0.76676 0.61629 0.0
O1083 O 0.06784 0.7803 0.68434 0.0
C1084 C 0.03254 0.77246 0.58559 0.0
H1085 H 0.06971 0.77027 0.36745 0.0
H1086 H 0.0368 0.79768 0.89613 0.0
H1087 H 0.09263 0.82644 0.77723 0.0
H1088 H 0.07959 0.83487 0.53719 0.0
Co1089 Co 0.93905 0.54254 0.66098 0.0
C1090 C 0.94065 0.53953 0.84772 0.0
C1091 C 0.95844 0.55745 0.79968 0.0
C1092 C 0.95916 0.5577 0.88718 0.0
N1093 N 0.947 0.54585 0.77452 0.0
N1094 N 0.9479 0.54642 0.91722 0.0
H1095 H 0.93029 0.53093 0.85117 0.0
H1096 H 0.96538 0.56565 0.75765 0.0
C1097 C 0.96841 0.55013 0.62947 0.0
O1098 O 0.96777 0.54246 0.69453 0.0
N1099 N 0.93112 0.53964 0.54888 0.0
C1100 C 0.91883 0.52909 0.52427 0.0
C1101 C 0.91788 0.52954 0.437 0.0
C1102 C 0.93739 0.54646 0.47702 0.0
N1103 N 0.92959 0.54043 0.40758 0.0
C1104 C 0.92812 0.51395 0.70793 0.0
C1105 C 0.9416 0.50801 0.58205 0.0
C1106 C 0.93333 0.49765 0.64012 0.0
C1107 C 0.92638 0.5007 0.70309 0.0
C1108 C 0.9431 0.52109 0.58951 0.0
N1109 N 0.93698 0.52418 0.65458 0.0
H1110 H 0.92192 0.51575 0.7526 0.0
H1111 H 0.949 0.52864 0.54139 0.0
H1112 H 0.9114 0.52125 0.56637 0.0
H1113 H 0.94777 0.55517 0.4749 0.0
O1114 O 0.92144 0.538 0.71028 0.0
O1115 O 0.9379 0.55901 0.67355 0.0
O1116 O 0.95799 0.55121 0.60823 0.0
C1117 C 0.9258 0.55117 0.7069 0.0
H1118 H 0.96704 0.56585 0.92553 0.0
H1119 H 0.90942 0.52218 0.39806 0.0
H1120 H 0.94697 0.50608 0.53131 0.0
H1121 H 0.91939 0.49282 0.74688 0.0
Co1122 Co 0.45298 0.39362 0.70313 0.0
C1123 C 0.45379 0.39664 0.89361 0.0
C1124 C 0.44068 0.4031 0.83466 0.0
C1125 C 0.44009 0.40433 0.92163 0.0
N1126 N 0.44938 0.39842 0.81655 0.0
N1127 N 0.44827 0.40022 0.95903 0.0
H1128 H 0.46079 0.39272 0.90174 0.0
H1129 H 0.43485 0.40519 0.78819 0.0
C1130 C 0.45249 0.41537 0.59463 0.0
O1131 O 0.46477 0.41856 0.56623 0.0
N1132 N 0.45602 0.38817 0.58857 0.0
C1133 C 0.46218 0.3807 0.57145 0.0
C1134 C 0.46219 0.37871 0.48499 0.0
C1135 C 0.45159 0.38979 0.51083 0.0
N1136 N 0.45562 0.38453 0.4463 0.0
C1137 C 0.48264 0.40702 0.69038 0.0
C1138 C 0.48764 0.433 0.73495 0.0
C1139 C 0.49859 0.43138 0.70649 0.0
C1140 C 0.49606 0.41816 0.68616 0.0
C1141 C 0.47434 0.42161 0.73669 0.0
N1142 N 0.47185 0.40895 0.70973 0.0
H1143 H 0.48101 0.3969 0.67777 0.0
H1144 H 0.46593 0.42313 0.7558 0.0
H1145 H 0.46633 0.37672 0.61842 0.0
H1146 H 0.44508 0.3942 0.50097 0.0
O1147 O 0.45565 0.37954 0.75461 0.0
O1148 O 0.43559 0.37667 0.70944 0.0
O1149 O 0.44637 0.40568 0.6492 0.0
C1150 C 0.4424 0.37151 0.74658 0.0
H1151 H 0.43373 0.40757 0.95498 0.0
H1152 H 0.46683 0.37346 0.45324 0.0
H1153 H 0.48925 0.44306 0.75225 0.0
H1154 H 0.50438 0.41647 0.66695 0.0
Co1155 Co 0.5994 0.05571 0.72482 0.0
C1156 C 0.59855 0.05517 0.90952 0.0
C1157 C 0.59741 0.03675 0.86008 0.0
C1158 C 0.59848 0.03669 0.94747 0.0
N1159 N 0.59747 0.04836 0.8371 0.0
N1160 N 0.59934 0.04837 0.97789 0.0
H1161 H 0.5993 0.06518 0.91155 0.0
H1162 H 0.59739 0.02929 0.8163 0.0
C1163 C 0.57877 0.03211 0.62176 0.0
O1164 O 0.57465 0.04048 0.59317 0.0
N1165 N 0.60192 0.06311 0.61058 0.0
C1166 C 0.60345 0.07515 0.58166 0.0
C1167 C 0.60478 0.0755 0.49441 0.0
C1168 C 0.60337 0.05687 0.54133 0.0
N1169 N 0.60451 0.06386 0.4694 0.0
C1170 C 0.58346 0.06938 0.74329 0.0
C1171 C 0.55871 0.04587 0.77876 0.0
C1172 C 0.55891 0.05836 0.76725 0.0
C1173 C 0.57154 0.0703 0.75163 0.0
C1174 C 0.57085 0.04541 0.76834 0.0
N1175 N 0.58283 0.0569 0.74432 0.0
H1176 H 0.59321 0.07875 0.73782 0.0
H1177 H 0.57054 0.03573 0.77836 0.0
H1178 H 0.60388 0.08333 0.61976 0.0
H1179 H 0.60341 0.04725 0.54347 0.0
O1180 O 0.61307 0.07368 0.766 0.0
O1181 O 0.61744 0.0576 0.71794 0.0
O1182 O 0.58834 0.03635 0.67767 0.0
C1183 C 0.62205 0.06981 0.75064 0.0
H1184 H 0.59936 0.02908 0.98509 0.0
H1185 H 0.60548 0.08351 0.45265 0.0
H1186 H 0.54921 0.03648 0.79348 0.0
H1187 H 0.5722 0.08026 0.74693 0.0
H1188 H 0.1194 0.43013 0.16345 0.0
H1189 H 0.08042 0.39283 0.12629 0.0
H1190 H 0.06831 0.40376 0.18865 0.0
H1191 H 0.06875 0.42397 0.25279 0.0
H1192 H 0.10752 0.46171 0.28213 0.0
H1193 H 0.11979 0.45054 0.22472 0.0
C1194 C 0.10825 0.42442 0.16885 0.0
C1195 C 0.10081 0.41071 0.14025 0.0
C1196 C 0.10134 0.43081 0.204 0.0
C1197 C 0.08638 0.40344 0.14733 0.0
C1198 C 0.07945 0.40965 0.18338 0.0
C1199 C 0.0799 0.42968 0.24747 0.0
C1200 C 0.08727 0.44356 0.27235 0.0
C1201 C 0.08682 0.42332 0.21209 0.0
C1202 C 0.10167 0.45097 0.26358 0.0
C1203 C 0.10867 0.44461 0.2306 0.0
H1204 H 0.57291 0.64487 0.28882 0.0
H1205 H 0.53545 0.64655 0.31349 0.0
H1206 H 0.54666 0.66938 0.24669 0.0
H1207 H 0.5672 0.68885 0.18212 0.0
H1208 H 0.60426 0.68651 0.1516 0.0
H1209 H 0.59305 0.66383 0.21901 0.0
C1210 C 0.56725 0.6503 0.28027 0.0
C1211 C 0.55347 0.64419 0.3071 0.0
C1212 C 0.57364 0.66321 0.24002 0.0
C1213 C 0.54612 0.65115 0.29384 0.0
C1214 C 0.55251 0.66415 0.2555 0.0
C1215 C 0.57279 0.68333 0.18974 0.0
C1216 C 0.58654 0.68935 0.162 0.0
C1217 C 0.56626 0.67027 0.22825 0.0
C1218 C 0.59364 0.68207 0.17202 0.0
C1219 C 0.58727 0.66914 0.211 0.0
H1220 H 0.3089 0.88098 0.09028 0.0
H1221 H 0.31108 0.91999 0.04381 0.0
H1222 H 0.33343 0.93208 0.11447 0.0
H1223 H 0.35234 0.93161 0.19001 0.0
H1224 H 0.35085 0.89282 0.23042 0.0
H1225 H 0.32819 0.88057 0.16242 0.0
C1226 C 0.31431 0.89213 0.09526 0.0
C1227 C 0.30835 0.89957 0.06183 0.0
C1228 C 0.32721 0.89903 0.13564 0.0
C1229 C 0.31547 0.91402 0.06862 0.0
C1230 C 0.32823 0.92094 0.10942 0.0
C1231 C 0.34696 0.92046 0.18474 0.0
C1232 C 0.35311 0.91308 0.216 0.0
C1233 C 0.33415 0.91356 0.14359 0.0
C1234 C 0.34623 0.89868 0.20715 0.0
C1235 C 0.33331 0.89169 0.1681 0.0
H1236 H 0.44636 0.09138 0.79214 0.0
H1237 H 0.40684 0.05507 0.74728 0.0
H1238 H 0.39534 0.06556 0.82236 0.0
H1239 H 0.39648 0.08474 0.90334 0.0
H1240 H 0.43562 0.12168 0.94234 0.0
H1241 H 0.44736 0.11123 0.86748 0.0
C1242 C 0.43522 0.08582 0.79832 0.0
C1243 C 0.42746 0.07246 0.76435 0.0
C1244 C 0.42864 0.09196 0.84126 0.0
C1245 C 0.41305 0.06539 0.77251 0.0
C1246 C 0.40646 0.07134 0.81587 0.0
C1247 C 0.4076 0.09045 0.8961 0.0
C1248 C 0.41523 0.10384 0.92939 0.0
C1249 C 0.41416 0.08454 0.85121 0.0
C1250 C 0.42957 0.11129 0.91772 0.0
C1251 C 0.43626 0.10534 0.87482 0.0
H1252 H 0.90534 0.35238 0.77088 0.0
H1253 H 0.94282 0.35091 0.73809 0.0
H1254 H 0.93191 0.32796 0.8018 0.0
H1255 H 0.9117 0.30828 0.86697 0.0
H1256 H 0.87388 0.30922 0.89312 0.0
H1257 H 0.88495 0.33244 0.83262 0.0
C1258 C 0.91109 0.34701 0.77737 0.0
C1259 C 0.92485 0.35332 0.74971 0.0
C1260 C 0.90472 0.33377 0.81349 0.0
C1261 C 0.93218 0.34623 0.7584 0.0
C1262 C 0.92598 0.33314 0.79522 0.0
C1263 C 0.90595 0.31364 0.86006 0.0
C1264 C 0.89206 0.30715 0.88505 0.0
C1265 C 0.91227 0.32683 0.82327 0.0
C1266 C 0.88461 0.31406 0.87442 0.0
C1267 C 0.89092 0.32732 0.83974 0.0
H1268 H 0.6893 0.59859 0.84303 0.0
H1269 H 0.68907 0.56017 0.86857 0.0
H1270 H 0.66572 0.54768 0.80937 0.0
H1271 H 0.64543 0.54781 0.75013 0.0
H1272 H 0.64643 0.58655 0.71725 0.0
H1273 H 0.6695 0.59884 0.77862 0.0
C1274 C 0.68406 0.58747 0.83634 0.0
C1275 C 0.69074 0.58025 0.86106 0.0
C1276 C 0.67087 0.58046 0.8001 0.0
C1277 C 0.68404 0.56589 0.85032 0.0
C1278 C 0.67073 0.55878 0.81635 0.0
C1279 C 0.65075 0.55895 0.75595 0.0
C1280 C 0.64424 0.56626 0.72919 0.0
C1281 C 0.66407 0.56597 0.79073 0.0
C1282 C 0.65125 0.58069 0.73687 0.0
C1283 C 0.66441 0.58772 0.77242 0.0
H1284 H 0.88489 0.5682 0.86854 0.0
H1285 H 0.92318 0.60611 0.90925 0.0
H1286 H 0.93587 0.59617 0.84202 0.0
H1287 H 0.93607 0.57692 0.76882 0.0
H1288 H 0.89806 0.53858 0.73418 0.0
H1289 H 0.88523 0.54848 0.80141 0.0
C1290 C 0.89602 0.57424 0.86312 0.0
C1291 C 0.90309 0.58788 0.89359 0.0
C1292 C 0.90327 0.56843 0.82481 0.0
C1293 C 0.91751 0.59557 0.88663 0.0
C1294 C 0.92477 0.58992 0.84777 0.0
C1295 C 0.92496 0.57078 0.77548 0.0
C1296 C 0.91796 0.55713 0.74562 0.0
C1297 C 0.91774 0.57642 0.81592 0.0
C1298 C 0.90363 0.54915 0.75631 0.0
C1299 C 0.89631 0.5548 0.79481 0.0
H1300 H 0.45406 0.3571 0.80834 0.0
H1301 H 0.41486 0.35504 0.7738 0.0
H1302 H 0.4033 0.33313 0.85027 0.0
H1303 H 0.40435 0.31473 0.92848 0.0
H1304 H 0.44324 0.31598 0.9562 0.0
H1305 H 0.45498 0.33817 0.88167 0.0
C1306 C 0.44297 0.35181 0.81712 0.0
C1307 C 0.43532 0.35767 0.78557 0.0
C1308 C 0.43639 0.33918 0.86077 0.0
C1309 C 0.42097 0.35069 0.79705 0.0
C1310 C 0.41436 0.33821 0.84125 0.0
C1311 C 0.41543 0.31996 0.91903 0.0
C1312 C 0.423 0.31392 0.94883 0.0
C1313 C 0.42198 0.33243 0.87399 0.0
C1314 C 0.43726 0.32056 0.93432 0.0
C1315 C 0.44394 0.33318 0.89152 0.0
H1316 H 0.68209 0.11382 0.86731 0.0
H1317 H 0.68517 0.07707 0.89048 0.0
H1318 H 0.66163 0.06309 0.83813 0.0
H1319 H 0.64011 0.06125 0.7869 0.0
H1320 H 0.63637 0.09768 0.77196 0.0
H1321 H 0.66027 0.11188 0.81939 0.0
C1322 C 0.67759 0.10275 0.86088 0.0
C1323 C 0.68534 0.09648 0.88261 0.0
C1324 C 0.66397 0.09474 0.83185 0.0
C1325 C 0.67938 0.08212 0.87458 0.0
C1326 C 0.66594 0.07413 0.84433 0.0
C1327 C 0.64459 0.07232 0.79328 0.0
C1328 C 0.6366 0.07846 0.77523 0.0
C1329 C 0.65815 0.08033 0.82272 0.0
C1330 C 0.64239 0.09276 0.7853 0.0
C1331 C 0.65602 0.10086 0.8125 0.0
H1332 H 0.58086 0.93485 0.1892 0.0
H1333 H 0.54317 0.89727 0.24718 0.0
H1334 H 0.5523 0.8837 0.18201 0.0
H1335 H 0.5709 0.88249 0.10869 0.0
H1336 H 0.60843 0.91993 0.04566 0.0
H1337 H 0.5994 0.93361 0.11139 0.0
C1338 C 0.57475 0.92369 0.18819 0.0
C1339 C 0.56145 0.91703 0.2236 0.0
C1340 C 0.57995 0.91596 0.14878 0.0
C1341 C 0.55347 0.90259 0.22051 0.0
C1342 C 0.55866 0.89484 0.18309 0.0
C1343 C 0.57708 0.89365 0.10872 0.0
C1344 C 0.5903 0.90018 0.0723 0.0
C1345 C 0.57185 0.90141 0.14672 0.0
C1346 C 0.59817 0.91465 0.07286 0.0
C1347 C 0.59305 0.92248 0.11092 0.0
H1348 H 0.1199 0.6944 0.15876 0.0
H1349 H 0.07982 0.69043 0.12585 0.0
H1350 H 0.06932 0.66942 0.21048 0.0
H1351 H 0.07135 0.65193 0.29186 0.0
H1352 H 0.11092 0.65466 0.31768 0.0
H1353 H 0.12186 0.6765 0.23902 0.0
C1354 C 0.10887 0.68888 0.16979 0.0
C1355 C 0.10066 0.69394 0.13574 0.0
C1356 C 0.10284 0.67668 0.21813 0.0
C1357 C 0.08638 0.68671 0.15074 0.0
C1358 C 0.08035 0.67472 0.1996 0.0
C1359 C 0.0824 0.65744 0.28148 0.0
C1360 C 0.09038 0.65188 0.31142 0.0
C1361 C 0.08848 0.66964 0.2337 0.0
C1362 C 0.10463 0.65887 0.29567 0.0
C1363 C 0.11085 0.67129 0.25039 0.0
H1364 H 0.35235 0.44519 0.18473 0.0
H1365 H 0.35591 0.40861 0.19766 0.0
H1366 H 0.33286 0.39492 0.13773 0.0
H1367 H 0.31162 0.39325 0.08238 0.0
H1368 H 0.30739 0.42945 0.07646 0.0
H1369 H 0.33079 0.4434 0.13238 0.0
C1370 C 0.34806 0.43422 0.17453 0.0
C1371 C 0.35581 0.42792 0.19563 0.0
C1372 C 0.33471 0.42636 0.14091 0.0
C1373 C 0.35011 0.41369 0.18242 0.0
C1374 C 0.33695 0.40585 0.14781 0.0
C1375 C 0.31588 0.40422 0.09266 0.0
C1376 C 0.30789 0.41036 0.07469 0.0
C1377 C 0.32917 0.41208 0.12672 0.0
C1378 C 0.3134 0.42452 0.08969 0.0
C1379 C 0.32675 0.43249 0.12173 0.0
H1380 H 0.77438 0.75359 0.46153 0.0
H1381 H 0.73577 0.71599 0.42228 0.0
H1382 H 0.72342 0.72621 0.49154 0.0
H1383 H 0.72367 0.74586 0.5643 0.0
H1384 H 0.76227 0.78369 0.59733 0.0
H1385 H 0.77459 0.77329 0.53047 0.0
C1386 C 0.76325 0.74765 0.46774 0.0
C1387 C 0.756 0.73407 0.43683 0.0
C1388 C 0.75625 0.75358 0.50736 0.0
C1389 C 0.74158 0.72651 0.44514 0.0
C1390 C 0.73453 0.73231 0.48518 0.0
C1391 C 0.73479 0.75174 0.55759 0.0
C1392 C 0.7421 0.76545 0.58634 0.0
C1393 C 0.74177 0.74581 0.51704 0.0
C1394 C 0.75646 0.77309 0.57585 0.0
C1395 C 0.76349 0.76717 0.53746 0.0
H1396 H 0.22771 0.02137 0.45005 0.0
H1397 H 0.26204 0.01643 0.37412 0.0
H1398 H 0.2526 0.99502 0.45456 0.0
H1399 H 0.23516 0.97816 0.55069 0.0
H1400 H 0.19999 0.9819 0.62077 0.0
H1401 H 0.20924 0.00343 0.5391 0.0
C1402 C 0.23302 0.01552 0.45034 0.0
C1403 C 0.24558 0.02052 0.4064 0.0
C1404 C 0.22751 0.00314 0.49676 0.0
C1405 C 0.25234 0.01281 0.40717 0.0
C1406 C 0.247 0.0006 0.45365 0.0
C1407 C 0.22961 0.98379 0.5488 0.0
C1408 C 0.21713 0.97874 0.59309 0.0
C1409 C 0.23474 0.99581 0.49975 0.0
C1410 C 0.20975 0.98579 0.58795 0.0
C1411 C 0.215 0.99803 0.54106 0.0
H1412 H 0.01875 0.23997 0.52947 0.0
H1413 H 0.01894 0.2783 0.56334 0.0
H1414 H 0.99572 0.26796 0.5046 0.0
H1415 H 0.97541 0.24811 0.44243 0.0
H1416 H 0.97454 0.20938 0.41595 0.0
H1417 H -0.00199 0.21979 0.47231 0.0
C1418 C 0.01367 0.24603 0.52426 0.0
C1419 C 0.02054 0.25987 0.55055 0.0
C1420 C 0.00025 0.23998 0.49115 0.0
C1421 C 0.01383 0.26759 0.54392 0.0
C1422 C 0.00058 0.26172 0.50994 0.0
C1423 C 0.98043 0.24201 0.44841 0.0
C1424 C 0.97339 0.22808 0.42434 0.0
C1425 C 0.99373 0.24795 0.4829 0.0
C1426 C 0.97983 0.22016 0.43391 0.0
C1427 C 0.99322 0.22609 0.4662 0.0
H1428 H 0.24063 0.2622 0.585 0.0
H1429 H 0.20302 0.22301 0.59879 0.0
H1430 H 0.21455 0.21167 0.53253 0.0
H1431 H 0.23525 0.21313 0.46633 0.0
H1432 H 0.27225 0.25281 0.4442 0.0
H1433 H 0.26102 0.26374 0.51718 0.0
C1434 C 0.23503 0.25114 0.57466 0.0
C1435 C 0.22108 0.24339 0.59765 0.0
C1436 C 0.24157 0.24482 0.53388 0.0
C1437 C 0.21382 0.22914 0.58204 0.0
C1438 C 0.22038 0.22268 0.54388 0.0
C1439 C 0.24081 0.22417 0.47735 0.0
C1440 C 0.25454 0.23214 0.44966 0.0
C1441 C 0.23423 0.23045 0.51859 0.0
C1442 C 0.26164 0.24644 0.46422 0.0
C1443 C 0.25526 0.2527 0.50642 0.0
H1444 H 0.73162 0.97821 0.56872 0.0
H1445 H 0.77047 0.97925 0.59122 0.0
H1446 H 0.78241 0.00238 0.52813 0.0
H1447 H 0.78163 0.02228 0.46652 0.0
H1448 H 0.74235 0.02022 0.43661 0.0
H1449 H 0.7307 0.99743 0.50194 0.0
C1450 C 0.74272 0.98357 0.56052 0.0
C1451 C 0.75022 0.97721 0.58558 0.0
C1452 C 0.74939 0.9966 0.52216 0.0
C1453 C 0.76453 0.98405 0.57278 0.0
C1454 C 0.77133 0.99723 0.53663 0.0
C1455 C 0.77052 0.01679 0.47403 0.0
C1456 C 0.76286 0.02291 0.44695 0.0
C1457 C 0.76385 0.00359 0.51089 0.0
C1458 C 0.74847 0.01569 0.45653 0.0
C1459 C 0.7418 0.00269 0.49429 0.0
H1460 H 0.97375 0.72865 0.44925 0.0
H1461 H 0.96875 0.76441 0.44914 0.0
H1462 H 0.99246 0.77875 0.49871 0.0
H1463 H 0.01444 0.781 0.54524 0.0
H1464 H 0.01899 0.74497 0.55169 0.0
H1465 H 0.99563 0.73086 0.49666 0.0
C1466 C 0.9779 0.7396 0.45947 0.0
C1467 C 0.96957 0.74549 0.44527 0.0
C1468 C 0.99142 0.74772 0.48957 0.0
C1469 C 0.97499 0.75965 0.45974 0.0
C1470 C 0.98853 0.76785 0.48809 0.0
C1471 C 0.01031 0.77007 0.53439 0.0
C1472 C 0.0184 0.76403 0.55251 0.0
C1473 C 0.99681 0.76198 0.50378 0.0
C1474 C 0.01293 0.74984 0.53861 0.0
C1475 C -0.00041 0.74177 0.50695 0.0
H1476 H 0.16919 0.37859 0.03682 0.0
H1477 H 0.18916 0.4208 0.12247 0.0
H1478 H 0.21158 0.42192 0.11789 0.0
H1479 H 0.22555 0.41115 0.08166 0.0
H1480 H 0.20508 0.36884 0.99622 0.0
H1481 H 0.18283 0.36764 0.00668 0.0
C1482 C 0.17846 0.38806 0.0542 0.0
C1483 C 0.17756 0.39964 0.07899 0.0
C1484 C 0.19123 0.38866 0.05051 0.0
C1485 C 0.1896 0.41173 0.10336 0.0
C1486 C 0.20241 0.4124 0.10022 0.0
C1487 C 0.21621 0.40163 0.06622 0.0
C1488 C 0.21702 0.39015 0.03717 0.0
C1489 C 0.20336 0.40096 0.07286 0.0
C1490 C 0.2048 0.37792 0.01691 0.0
C1491 C 0.19205 0.37718 0.02346 0.0
H1492 H 0.58764 0.77411 0.98101 0.0
H1493 H 0.60353 0.78029 0.237 0.0
H1494 H 0.60344 0.80203 0.2463 0.0
H1495 H 0.60042 0.82006 0.17762 0.0
H1496 H 0.58402 0.81374 0.92298 0.0
H1497 H 0.58253 0.79119 0.91719 0.0
C1498 C 0.59098 0.78021 0.03886 0.0
C1499 C 0.59569 0.77574 0.10797 0.0
C1500 C 0.59081 0.79264 0.04388 0.0
C1501 C 0.59983 0.78356 0.18317 0.0
C1502 C 0.59983 0.796 0.18836 0.0
C1503 C 0.59639 0.81364 0.12134 0.0
C1504 C 0.59242 0.81851 0.05062 0.0
C1505 C 0.59557 0.80075 0.1186 0.0
C1506 C 0.58706 0.81012 0.97827 0.0
C1507 C 0.58631 0.79729 0.97475 0.0
H1508 H 0.20815 0.82943 0.96179 0.0
H1509 H 0.2329 0.81086 0.02019 0.0
H1510 H 0.21206 0.78832 0.03338 0.0
H1511 H 0.18668 0.77377 0.02616 0.0
H1512 H 0.16237 0.79257 0.96208 0.0
H1513 H 0.1832 0.81507 0.95142 0.0
C1514 C 0.20905 0.82044 0.97614 0.0
C1515 C 0.22212 0.82189 0.98969 0.0
C1516 C 0.19708 0.80752 0.98233 0.0
C1517 C 0.22299 0.81012 0.01036 0.0
C1518 C 0.21107 0.7972 0.01744 0.0
C1519 C 0.18599 0.78283 0.01021 0.0
C1520 C 0.17303 0.78153 0.99455 0.0
C1521 C 0.19805 0.79577 1.00357 0.0
C1522 C 0.17225 0.7933 0.97333 0.0
C1523 C 0.18414 0.80617 0.96759 0.0
H1524 H 0.38741 0.21265 0.05008 0.0
H1525 H 0.43055 0.23594 0.98476 0.0
H1526 H 0.43165 0.21467 0.98019 0.0
H1527 H 0.42042 0.18946 0.99917 0.0
H1528 H 0.37721 0.16647 0.06426 0.0
H1529 H 0.37617 0.18767 0.06639 0.0
C1530 C 0.39709 0.21309 0.03552 0.0
C1531 C 0.40889 0.22586 0.01831 0.0
C1532 C 0.39766 0.20089 0.03357 0.0
C1533 C 0.42128 0.22623 0.99768 0.0
C1534 C 0.42193 0.21408 0.99552 0.0
C1535 C 0.41076 0.18909 0.01306 0.0
C1536 C 0.39894 0.1764 0.03225 0.0
C1537 C 0.41019 0.20135 0.01373 0.0
C1538 C 0.38652 0.17612 0.05086 0.0
C1539 C 0.38588 0.18822 0.05156 0.0
H1540 H 0.76915 0.18453 0.04594 0.0
H1541 H 0.77224 0.17543 0.7825 0.0
H1542 H 0.79378 0.19729 0.76827 0.0
H1543 H 0.81294 0.21781 0.83481 0.0
H1544 H 0.81023 0.22638 0.09975 0.0
H1545 H 0.78744 0.20583 0.10956 0.0
C1546 C 0.77452 0.18735 0.98535 0.0
C1547 C 0.76916 0.17829 0.91569 0.0
C1548 C 0.78705 0.19977 0.97814 0.0
C1549 C 0.77608 0.18224 0.83705 0.0
C1550 C 0.78847 0.19469 0.82901 0.0
C1551 C 0.80724 0.21531 0.89419 0.0
C1552 C 0.8133 0.2235 0.96665 0.0
C1553 C 0.79421 0.20338 0.89966 0.0
C1554 C 0.80585 0.22009 0.04344 0.0
C1555 C 0.79282 0.20837 0.04905 0.0
H1556 H 0.7786 0.58654 0.01918 0.0
H1557 H 0.78375 0.60363 0.76691 0.0
H1558 H 0.8061 0.60485 0.75386 0.0
H1559 H 0.82472 0.60218 0.81759 0.0
H1560 H 0.81929 0.58461 0.06863 0.0
H1561 H 0.79648 0.58237 0.07884 0.0
C1562 C 0.78462 0.59047 0.96132 0.0
C1563 C 0.77964 0.59508 0.89433 0.0
C1564 C 0.7974 0.59108 0.95421 0.0
C1565 C 0.78739 0.59997 0.81911 0.0
C1566 C 0.80018 0.60074 0.81183 0.0
C1567 C 0.81848 0.59782 0.87425 0.0
C1568 C 0.82366 0.59364 0.94244 0.0
C1569 C 0.80537 0.5965 0.87944 0.0
C1570 C 0.81546 0.58782 0.01518 0.0
C1571 C 0.80246 0.5866 0.02122 0.0
H1572 H 0.83593 0.72229 0.49661 0.0
H1573 H 0.83871 0.73646 0.23835 0.0
H1574 H 0.86132 0.73831 0.22241 0.0
H1575 H 0.87978 0.73476 0.28027 0.0
H1576 H 0.87741 0.72159 0.54062 0.0
H1577 H 0.85517 0.72048 0.5579 0.0
C1578 C 0.84157 0.72587 0.43717 0.0
C1579 C 0.83572 0.72917 0.36858 0.0
C1580 C 0.85457 0.72701 0.42886 0.0
C1581 C 0.84311 0.73394 0.29204 0.0
C1582 C 0.85597 0.73492 0.2828 0.0
C1583 C 0.87436 0.73171 0.3407 0.0
C1584 C 0.88007 0.72816 0.40893 0.0
C1585 C 0.86171 0.7313 0.35042 0.0
C1586 C 0.87315 0.72438 0.48742 0.0
C1587 C 0.86044 0.72371 0.49719 0.0
H1588 H 0.24857 0.14582 0.38317 0.0
H1589 H 0.29183 0.16865 0.3192 0.0
H1590 H 0.29269 0.14737 0.31561 0.0
H1591 H 0.28124 0.12234 0.3287 0.0
H1592 H 0.23804 0.09915 0.39247 0.0
H1593 H 0.23716 0.12053 0.40038 0.0
C1594 C 0.2582 0.14613 0.36928 0.0
C1595 C 0.27008 0.15881 0.3506 0.0
C1596 C 0.25866 0.13381 0.36763 0.0
C1597 C 0.28247 0.15902 0.33213 0.0
C1598 C 0.283 0.14687 0.33058 0.0
C1599 C 0.2716 0.12195 0.3438 0.0
C1600 C 0.25971 0.10918 0.35929 0.0
C1601 C 0.27115 0.13421 0.34752 0.0
C1602 C 0.24737 0.10887 0.38072 0.0
C1603 C 0.24684 0.12108 0.38476 0.0
H1604 H 0.87704 0.155 0.48904 0.0
H1605 H 0.89001 0.14916 0.24148 0.0
H1606 H 0.86874 0.12702 0.22679 0.0
H1607 H 0.84609 0.10966 0.28254 0.0
H1608 H 0.83329 0.11532 0.53112 0.0
H1609 H 0.85485 0.13715 0.54749 0.0
C1610 C 0.87518 0.14885 0.43199 0.0
C1611 C 0.88501 0.15369 0.36633 0.0
C1612 C 0.86297 0.13612 0.42416 0.0
C1613 C 0.88261 0.14557 0.29313 0.0
C1614 C 0.87043 0.13296 0.2845 0.0
C1615 C 0.84805 0.1157 0.34017 0.0
C1616 C 0.83813 0.11096 0.40536 0.0
C1617 C 0.86048 0.12819 0.34929 0.0
C1618 C 0.84084 0.11875 0.48033 0.0
C1619 C 0.85312 0.13125 0.48955 0.0
H1620 H 0.08543 0.52566 0.41174 0.0
H1621 H 0.06756 0.51729 0.16058 0.0
H1622 H 0.06825 0.53949 0.16001 0.0
H1623 H 0.07244 0.56049 0.23552 0.0
H1624 H 0.08882 0.56803 0.49057 0.0
H1625 H 0.0903 0.54697 0.48533 0.0
C1626 C 0.08191 0.52884 0.35645 0.0
C1627 C 0.0765 0.51997 0.28621 0.0
C1628 C 0.08198 0.54139 0.35771 0.0
C1629 C 0.07173 0.52401 0.21536 0.0
C1630 C 0.07212 0.53667 0.21509 0.0
C1631 C 0.07651 0.55758 0.2893 0.0
C1632 C 0.08052 0.56571 0.36326 0.0
C1633 C 0.077 0.54532 0.28652 0.0
C1634 C 0.08561 0.56182 0.43322 0.0
C1635 C 0.08646 0.54983 0.43019 0.0
H1636 H 0.4784 0.55501 0.23897 0.0
H1637 H 0.47383 0.55514 0.51177 0.0
H1638 H 0.45251 0.53294 0.50438 0.0
H1639 H 0.43601 0.51288 0.42163 0.0
H1640 H 0.44099 0.51231 0.14938 0.0
H1641 H 0.46104 0.5355 0.15501 0.0
C1642 C 0.47261 0.55029 0.2966 0.0
C1643 C 0.47775 0.55666 0.37586 0.0
C1644 C 0.46043 0.53746 0.29197 0.0
C1645 C 0.4702 0.55034 0.45012 0.0
C1646 C 0.45799 0.53768 0.44592 0.0
C1647 C 0.44148 0.51782 0.36348 0.0
C1648 C 0.43708 0.5108 0.28534 0.0
C1649 C 0.45317 0.53101 0.36741 0.0
C1650 C 0.44409 0.5175 0.21034 0.0
C1651 C 0.45564 0.53072 0.21358 0.0
H1652 H 0.44125 0.92037 0.41493 0.0
H1653 H 0.44213 0.92823 0.14524 0.0
H1654 H 0.46405 0.92873 0.13209 0.0
H1655 H 0.48373 0.92856 0.19856 0.0
H1656 H 0.48319 0.92115 0.46855 0.0
H1657 H 0.4605 0.9191 0.48043 0.0
C1658 C 0.44626 0.92221 0.35334 0.0
C1659 C 0.44008 0.92429 0.2813 0.0
C1660 C 0.45898 0.92269 0.34636 0.0
C1661 C 0.44658 0.92643 0.20161 0.0
C1662 C 0.45917 0.92682 0.19407 0.0
C1663 C 0.47854 0.92626 0.25975 0.0
C1664 C 0.48516 0.92509 0.33258 0.0
C1665 C 0.46555 0.92515 0.26617 0.0
C1666 C 0.47839 0.9223 0.41168 0.0
C1667 C 0.4654 0.92107 0.41849 0.0
H1668 H 0.50034 0.05251 0.81765 0.0
H1669 H 0.51058 0.07274 0.57317 0.0
H1670 H 0.53323 0.07449 0.57794 0.0
H1671 H 0.54974 0.06942 0.64927 0.0
H1672 H 0.539 0.04805 0.88995 0.0
H1673 H 0.51695 0.04764 0.88963 0.0
C1674 C 0.50762 0.05743 0.76596 0.0
C1675 C 0.50387 0.06253 0.69529 0.0
C1676 C 0.52049 0.05815 0.76847 0.0
C1677 C 0.51325 0.06869 0.62797 0.0
C1678 C 0.52619 0.06971 0.63079 0.0
C1679 C 0.54262 0.06484 0.70203 0.0
C1680 C 0.54595 0.05883 0.76971 0.0
C1681 C 0.52987 0.06437 0.70036 0.0
C1682 C 0.53659 0.05269 0.83712 0.0
C1683 C 0.52401 0.05247 0.83694 0.0
H1684 H 0.93376 0.48182 0.76995 0.0
H1685 H 0.92984 0.48237 0.49686 0.0
H1686 H 0.92931 0.46036 0.4859 0.0
H1687 H 0.9308 0.44139 0.55331 0.0
H1688 H 0.93527 0.44112 0.82619 0.0
H1689 H 0.93434 0.46235 0.8379 0.0
C1690 C 0.93259 0.47702 0.70817 0.0
C1691 C 0.93195 0.48378 0.63433 0.0
C1692 C 0.93236 0.46439 0.70225 0.0
C1693 C 0.93058 0.47749 0.55461 0.0
C1694 C 0.93022 0.46488 0.54829 0.0
C1695 C 0.93162 0.446 0.61534 0.0
C1696 C 0.93317 0.43967 0.68866 0.0
C1697 C 0.9313 0.45834 0.62157 0.0
C1698 C 0.93393 0.44566 0.76871 0.0
C1699 C 0.9335 0.45787 0.77547 0.0
H1700 H 0.51373 0.45142 0.82124 0.0
H1701 H 0.51426 0.43844 0.56355 0.0
H1702 H 0.53641 0.45933 0.53814 0.0
H1703 H 0.55516 0.48178 0.58774 0.0
H1704 H 0.55512 0.49433 0.84715 0.0
H1705 H 0.5333 0.47312 0.87387 0.0
C1706 C 0.51877 0.45319 0.75979 0.0
C1707 C 0.51243 0.44352 0.6942 0.0
C1708 C 0.53155 0.46513 0.74603 0.0
C1709 C 0.51905 0.44576 0.61501 0.0
C1710 C 0.53166 0.45771 0.60037 0.0
C1711 C 0.55036 0.47979 0.65008 0.0
C1712 C 0.55661 0.48956 0.71529 0.0
C1713 C 0.53793 0.46753 0.66512 0.0
C1714 C 0.55046 0.48688 0.79621 0.0
C1715 C 0.53798 0.47481 0.81136 0.0
H1716 H 0.7413 0.88737 0.75023 0.0
H1717 H 0.72562 0.88455 0.49592 0.0
H1718 H 0.72349 0.86188 0.47789 0.0
H1719 H 0.72538 0.8425 0.53651 0.0
H1720 H 0.74169 0.84564 0.78929 0.0
H1721 H 0.7443 0.86853 0.80606 0.0
C1722 C 0.73743 0.88177 0.69094 0.0
C1723 C 0.73356 0.88754 0.62464 0.0
C1724 C 0.73633 0.8688 0.68089 0.0
C1725 C 0.72874 0.88031 0.5476 0.0
C1726 C 0.72745 0.86734 0.53744 0.0
C1727 C 0.7295 0.84823 0.59511 0.0
C1728 C 0.73328 0.84243 0.6617 0.0
C1729 C 0.7311 0.86143 0.60393 0.0
C1730 C 0.73879 0.84998 0.73703 0.0
C1731 C 0.74023 0.86302 0.74676 0.0
H1732 H 0.13419 0.89548 0.64939 0.0
H1733 H 0.1589 0.87765 0.72621 0.0
H1734 H 0.13866 0.85471 0.7229 0.0
H1735 H 0.11413 0.83966 0.6967 0.0
H1736 H 0.0891 0.85697 0.61778 0.0
H1737 H 0.10937 0.88016 0.62123 0.0
C1738 C 0.13515 0.88656 0.66478 0.0
C1739 C 0.14804 0.88832 0.68876 0.0
C1740 C 0.12345 0.87332 0.66194 0.0
C1741 C 0.14908 0.87665 0.70923 0.0
C1742 C 0.13752 0.8635 0.70676 0.0
C1743 C 0.11306 0.84852 0.68118 0.0
C1744 C 0.10012 0.84663 0.65783 0.0
C1745 C 0.12468 0.86173 0.68345 0.0
C1746 C 0.09897 0.85817 0.63571 0.0
C1747 C 0.11054 0.87142 0.63802 0.0
H1748 H 0.10064 0.25047 0.53973 0.0
H1749 H 0.11917 0.28913 0.67585 0.0
H1750 H 0.14043 0.28849 0.69197 0.0
H1751 H 0.15392 0.27731 0.66601 0.0
H1752 H 0.13601 0.23873 0.53004 0.0
H1753 H 0.11422 0.23878 0.5171 0.0
C1754 C 0.1093 0.25868 0.57341 0.0
C1755 C 0.10838 0.26993 0.60542 0.0
C1756 C 0.12157 0.25825 0.58274 0.0
C1757 C 0.11971 0.28051 0.64888 0.0
C1758 C 0.13185 0.28012 0.65867 0.0
C1759 C 0.14529 0.26896 0.63288 0.0
C1760 C 0.14662 0.25813 0.59811 0.0
C1761 C 0.13294 0.26913 0.62519 0.0
C1762 C 0.13522 0.24718 0.55746 0.0
C1763 C 0.1228 0.24725 0.54972 0.0
H1764 H 0.09669 0.30716 0.85675 0.0
H1765 H 0.07717 0.32218 0.68423 0.0
H1766 H 0.0867 0.34371 0.76482 0.0
H1767 H 0.09977 0.35779 0.88761 0.0
H1768 H 0.11899 0.34243 0.06021 0.0
H1769 H 0.11024 0.32141 0.97619 0.0
C1770 C 0.09458 0.31516 0.83615 0.0
C1771 C 0.0862 0.31304 0.76464 0.0
C1772 C 0.09992 0.32739 0.88326 0.0
C1773 C 0.08358 0.32354 0.73911 0.0
C1774 C 0.08898 0.33583 0.78532 0.0
C1775 C 0.10207 0.34986 0.90685 0.0
C1776 C 0.10998 0.35168 0.98041 0.0
C1777 C 0.09702 0.33778 0.85814 0.0
C1778 C 0.1129 0.34131 1.0041 0.0
C1779 C 0.10791 0.32928 0.95603 0.0
H1780 H 0.64125 0.74309 0.92018 0.0
H1781 H 0.65579 0.77566 0.10727 0.0
H1782 H 0.6776 0.78838 0.03125 0.0
H1783 H 0.69265 0.79016 0.91337 0.0
H1784 H 0.67838 0.75767 0.72604 0.0
H1785 H 0.65626 0.74509 0.8001 0.0
C1786 C 0.64917 0.75297 0.94435 0.0
C1787 C 0.64686 0.75838 0.01952 0.0
C1788 C 0.66171 0.76028 0.9001 0.0
C1789 C 0.65726 0.77123 0.04964 0.0
C1790 C 0.66975 0.77853 0.00618 0.0
C1791 C 0.68469 0.78038 0.88817 0.0
C1792 C 0.68718 0.77489 0.81412 0.0
C1793 C 0.67209 0.77315 0.93146 0.0
C1794 C 0.67675 0.76214 0.78295 0.0
C1795 C 0.6641 0.75492 0.82536 0.0
H1796 H 0.23341 0.89837 0.99885 0.0
H1797 H 0.24951 0.88827 0.77806 0.0
H1798 H 0.23883 0.89773 0.68464 0.0
H1799 H 0.22514 0.90923 0.66584 0.0
H1800 H 0.21072 0.92108 0.88669 0.0
H1801 H 0.22051 0.9107 0.98026 0.0
C1802 C 0.23449 0.8982 0.93026 0.0
C1803 C 0.24213 0.8926 0.89512 0.0
C1804 C 0.22869 0.90405 0.87715 0.0
C1805 C 0.24368 0.8926 0.80633 0.0
C1806 C 0.23757 0.89797 0.75295 0.0
C1807 C 0.22416 0.90949 0.73447 0.0
C1808 C 0.21733 0.91592 0.76986 0.0
C1809 C 0.23009 0.90378 0.78762 0.0
C1810 C 0.21616 0.91634 0.85864 0.0
C1811 C 0.22166 0.91034 0.91193 0.0
H1812 H 0.321 0.09098 0.34279 0.0
H1813 H 0.29444 0.08132 0.12448 0.0
H1814 H 0.31446 0.0913 0.0296 0.0
H1815 H 0.33958 0.10251 0.00879 0.0
H1816 H 0.36594 0.11014 0.22612 0.0
H1817 H 0.34604 0.10121 0.3214 0.0
C1818 C 0.31968 0.09117 0.27445 0.0
C1819 C 0.30638 0.08556 0.24031 0.0
C1820 C 0.33119 0.09649 0.22026 0.0
C1821 C 0.30465 0.08558 0.15178 0.0
C1822 C 0.31607 0.09129 0.09765 0.0
C1823 C 0.34091 0.10221 0.07704 0.0
C1824 C 0.35413 0.10696 0.11061 0.0
C1825 C 0.32939 0.09672 0.13113 0.0
C1826 C 0.3558 0.10641 0.19894 0.0
C1827 C 0.34445 0.10138 0.25343 0.0
H1828 H 0.89493 0.25395 0.1235 0.0
H1829 H 0.87217 0.22013 0.94952 0.0
H1830 H 0.88166 0.20713 0.0167 0.0
H1831 H 0.89669 0.20542 0.12226 0.0
H1832 H 0.91975 0.23909 0.29632 0.0
H1833 H 0.9098 0.25202 0.23191 0.0
C1834 C 0.89203 0.24373 0.10039 0.0
C1835 C 0.88287 0.23808 0.03131 0.0
C1836 C 0.89756 0.23625 0.13932 0.0
C1837 C 0.8792 0.22479 1.00244 0.0
C1838 C 0.88462 0.21731 0.04081 0.0
C1839 C 0.89951 0.21555 0.14658 0.0
C1840 C 0.90896 0.22126 0.21401 0.0
C1841 C 0.89385 0.22296 0.10897 0.0
C1842 C 0.91251 0.23444 0.24437 0.0
C1843 C 0.90684 0.24186 0.20751 0.0
H1844 H 0.74114 0.63563 0.10137 0.0
H1845 H 0.77586 0.65181 0.9292 0.0
H1846 H 0.78698 0.67344 0.00801 0.0
H1847 H 0.78662 0.68798 0.12248 0.0
H1848 H 0.75193 0.67219 0.29441 0.0
H1849 H 0.74109 0.65009 0.21928 0.0
C1850 C 0.75115 0.64387 0.08113 0.0
C1851 C 0.75761 0.64209 0.00912 0.0
C1852 C 0.75751 0.65633 0.12672 0.0
C1853 C 0.77061 0.65288 0.98412 0.0
C1854 C 0.777 0.66527 0.0292 0.0
C1855 C 0.77672 0.6797 0.14411 0.0
C1856 C 0.77008 0.68177 0.2139 0.0
C1857 C 0.77051 0.66713 0.10018 0.0
C1858 C 0.75726 0.67089 0.2408 0.0
C1859 C 0.75104 0.65827 0.19773 0.0
H1860 H 0.91863 0.68721 0.21719 0.0
H1861 H 0.8863 0.67069 0.40637 0.0
H1862 H 0.87492 0.64867 0.33185 0.0
H1863 H 0.87414 0.63403 0.21415 0.0
H1864 H 0.90648 0.65019 0.02529 0.0
H1865 H 0.9178 0.67246 0.09837 0.0
C1866 C 0.9091 0.6788 0.24218 0.0
C1867 C 0.90335 0.68063 0.31738 0.0
C1868 C 0.90256 0.66611 0.19891 0.0
C1869 C 0.89097 0.66961 0.34866 0.0
C1870 C 0.88443 0.65699 0.30605 0.0
C1871 C 0.88361 0.64244 0.18843 0.0
C1872 C 0.88942 0.64045 0.1141 0.0
C1873 C 0.89012 0.65513 0.23115 0.0
C1874 C 0.90178 0.65144 0.08236 0.0
C1875 C 0.90827 0.66417 0.12418 0.0
H1876 H 0.34692 0.24313 0.02801 0.0
H1877 H 0.37475 0.25508 0.24123 0.0
H1878 H 0.35528 0.24533 0.34031 0.0
H1879 H 0.33023 0.23364 0.36619 0.0
H1880 H 0.30257 0.22375 0.15331 0.0
H1881 H 0.32195 0.23241 0.05419 0.0
C1882 C 0.34864 0.2435 0.09618 0.0
C1883 C 0.36214 0.2497 0.12767 0.0
C1884 C 0.33742 0.23828 0.15269 0.0
C1885 C 0.36438 0.25038 0.21596 0.0
C1886 C 0.35327 0.24478 0.2725 0.0
C1887 C 0.32851 0.23339 0.29806 0.0
C1888 C 0.31507 0.22808 0.26685 0.0
C1889 C 0.33974 0.23876 0.24162 0.0
C1890 C 0.31288 0.22791 0.17865 0.0
C1891 C 0.32394 0.2328 0.12196 0.0
H1892 H 0.7871 0.10691 0.23504 0.0
H1893 H 0.74841 0.07045 0.29248 0.0
H1894 H 0.73644 0.07784 0.19423 0.0
H1895 H 0.73706 0.09431 0.08986 0.0
H1896 H 0.77587 0.13 0.02283 0.0
H1897 H 0.78778 0.12322 0.12597 0.0
C1898 C 0.77603 0.10073 0.22648 0.0
C1899 C 0.76855 0.08829 0.27131 0.0
C1900 C 0.76931 0.1048 0.16748 0.0
C1901 C 0.75429 0.08012 0.25868 0.0
C1902 C 0.74747 0.08431 0.20246 0.0
C1903 C 0.74813 0.10061 0.09772 0.0
C1904 C 0.75558 0.11264 0.04893 0.0
C1905 C 0.75489 0.09656 0.15603 0.0
C1906 C 0.76993 0.12063 0.05927 0.0
C1907 C 0.77673 0.1168 0.11857 0.0
H1908 H 0.6791 0.89223 0.67977 0.0
H1909 H 0.69508 0.92987 0.82519 0.0
H1910 H 0.67376 0.9201 0.90725 0.0
H1911 H 0.65021 0.90116 0.93442 0.0
H1912 H 0.63435 0.8636 0.78828 0.0
H1913 H 0.65599 0.87305 0.71047 0.0
C1914 C 0.67794 0.89831 0.72945 0.0
C1915 C 0.68865 0.91179 0.74575 0.0
C1916 C 0.66565 0.89265 0.77649 0.0
C1917 C 0.68699 0.91947 0.81092 0.0
C1918 C 0.67479 0.9139 0.858 0.0
C1919 C 0.65153 0.895 0.88607 0.0
C1920 C 0.64064 0.88171 0.86718 0.0
C1921 C 0.66401 0.90053 0.84092 0.0
C1922 C 0.64254 0.87387 0.80425 0.0
C1923 C 0.65491 0.87928 0.7594 0.0
H1924 H 0.07061 0.76199 0.76229 0.0
H1925 H 0.10844 0.79965 0.70765 0.0
H1926 H 0.12092 0.79282 0.80581 0.0
H1927 H 0.12101 0.77601 0.90746 0.0
H1928 H 0.08334 0.7378 0.95358 0.0
H1929 H 0.07079 0.74504 0.85929 0.0
C1930 C 0.08159 0.7687 0.77172 0.0
C1931 C 0.08859 0.7813 0.72794 0.0
C1932 C 0.08869 0.76465 0.82734 0.0
C1933 C 0.10284 0.78984 0.74025 0.0
C1934 C 0.10996 0.78598 0.79672 0.0
C1935 C 0.11002 0.76939 0.89741 0.0
C1936 C 0.10301 0.7565 0.93793 0.0
C1937 C 0.10297 0.77343 0.8409 0.0
C1938 C 0.08887 0.7478 0.92316 0.0
C1939 C 0.08172 0.75191 0.86919 0.0
H1940 H 0.22954 0.30687 0.73934 0.0
H1941 H 0.19179 0.29401 0.87892 0.0
H1942 H 0.20258 0.3156 0.95735 0.0
H1943 H 0.22275 0.33787 0.98956 0.0
H1944 H 0.26055 0.3513 0.84998 0.0
H1945 H 0.24972 0.3298 0.76857 0.0
C1946 C 0.22366 0.30883 0.78659 0.0
C1947 C 0.20988 0.29877 0.80324 0.0
C1948 C 0.22995 0.32135 0.83194 0.0
C1949 C 0.20241 0.30152 0.8646 0.0
C1950 C 0.20858 0.31388 0.90984 0.0
C1951 C 0.22866 0.33611 0.94148 0.0
C1952 C 0.24248 0.34614 0.9265 0.0
C1953 C 0.22236 0.32381 0.8946 0.0
C1954 C 0.2499 0.34373 0.86312 0.0
C1955 C 0.24371 0.33143 0.81648 0.0
H1956 H 0.0242 0.43511 0.41269 0.0
H1957 H 0.03629 0.47259 0.5533 0.0
H1958 H 0.01447 0.46147 0.6298 0.0
H1959 H 0.99229 0.44093 0.66089 0.0
H1960 H 0.98002 0.40338 0.52077 0.0
H1961 H 0.00152 0.41471 0.44028 0.0
C1962 C 0.02202 0.44087 0.45958 0.0
C1963 C 0.03192 0.45465 0.47735 0.0
C1964 C 0.00943 0.43439 0.50402 0.0
C1965 C 0.0289 0.46196 0.53837 0.0
C1966 C 0.01642 0.4556 0.58243 0.0
C1967 C 0.9943 0.43521 0.61279 0.0
C1968 C 0.98458 0.4213 0.5975 0.0
C1969 C 0.00668 0.44178 0.56653 0.0
C1970 C 0.98733 0.41409 0.53427 0.0
C1971 C -0.00036 0.42056 0.48806 0.0
H1972 H 0.56712 0.56322 0.69571 0.0
H1973 H 0.58164 0.55174 0.47362 0.0
H1974 H 0.56976 0.56 0.38087 0.0
H1975 H 0.55585 0.57129 0.36312 0.0
H1976 H 0.54258 0.58411 0.58496 0.0
H1977 H 0.55324 0.57454 0.67795 0.0
C1978 C 0.56757 0.56247 0.62703 0.0
C1979 C 0.57529 0.55701 0.5911 0.0
C1980 C 0.56096 0.56752 0.57428 0.0
C1981 C 0.57593 0.55615 0.50218 0.0
C1982 C 0.56908 0.56079 0.4493 0.0
C1983 C 0.55523 0.57185 0.43182 0.0
C1984 C 0.54856 0.57841 0.46763 0.0
C1985 C 0.56167 0.56661 0.48459 0.0
C1986 C 0.54788 0.57925 0.55653 0.0
C1987 C 0.55391 0.57373 0.60952 0.0
H1988 H 0.4023 0.97339 0.41095 0.0
H1989 H 0.44127 0.97577 0.3607 0.0
H1990 H 0.45289 0.99561 0.45611 0.0
H1991 H 0.45192 0.01234 0.55423 0.0
H1992 H 0.41327 0.01111 0.59403 0.0
H1993 H 0.40151 0.99073 0.50295 0.0
C1994 C 0.41334 0.97829 0.4208 0.0
C1995 C 0.42093 0.97315 0.37903 0.0
C1996 C 0.41997 0.98984 0.47428 0.0
C1997 C 0.43524 0.97963 0.39169 0.0
C1998 C 0.44187 0.99092 0.44657 0.0
C1999 C 0.44092 0.0075 0.54322 0.0
C2000 C 0.4334 0.01303 0.58123 0.0
C2001 C 0.43433 0.99609 0.4884 0.0
C2002 C 0.41921 0.00694 0.56539 0.0
C2003 C 0.41251 0.99532 0.51338 0.0
H2004 H 0.56377 0.97361 0.47569 0.0
H2005 H 0.54478 0.98616 0.28303 0.0
H2006 H 0.55192 0.00764 0.3587 0.0
H2007 H 0.56345 0.02287 0.47852 0.0
H2008 H 0.58287 0.01095 0.67155 0.0
H2009 H 0.57547 0.98911 0.59736 0.0
C2010 C 0.56124 0.98107 0.45019 0.0
C2011 C 0.55374 0.97825 0.37375 0.0
C2012 C 0.56533 0.99345 0.4944 0.0
C2013 C 0.55051 0.98802 0.34176 0.0
C2014 C 0.55457 0.00032 0.38505 0.0
C2015 C 0.56599 0.01547 0.50499 0.0
C2016 C 0.57365 0.01852 0.58067 0.0
C2017 C 0.56192 0.00311 0.46147 0.0
C2018 C 0.57696 0.00885 0.61337 0.0
C2019 C 0.57278 0.99638 0.57084 0.0
H2020 H 0.0164 0.57736 0.35971 0.0
H2021 H 0.0408 0.59088 0.58873 0.0
H2022 H 0.01997 0.57845 0.67564 0.0
H2023 H 0.99471 0.56376 0.68615 0.0
H2024 H 0.97019 0.55228 0.45747 0.0
H2025 H 0.99109 0.56383 0.37044 0.0
C2026 C 0.0171 0.57753 0.42866 0.0
C2027 C 0.03003 0.5849 0.46808 0.0
C2028 C 0.00506 0.57072 0.47803 0.0
C2029 C 0.03089 0.58528 0.55731 0.0
C2030 C 0.01901 0.57815 0.60689 0.0
C2031 C 0.99402 0.56378 0.61724 0.0
C2032 C 0.98104 0.55713 0.5779 0.0
C2033 C 0.00604 0.57084 0.56794 0.0
C2034 C 0.98013 0.55737 0.48881 0.0
C2035 C 0.99206 0.56394 0.43915 0.0
H2036 H 0.41146 0.4331 0.44499 0.0
H2037 H 0.4439 0.45232 0.25796 0.0
H2038 H 0.45755 0.4444 0.33526 0.0
H2039 H 0.46006 0.43164 0.45394 0.0
H2040 H 0.42764 0.41244 0.64126 0.0
H2041 H 0.41428 0.42096 0.56636 0.0
C2042 C 0.42152 0.4356 0.42116 0.0
C2043 C 0.42662 0.44327 0.34564 0.0
C2044 C 0.42935 0.43109 0.4662 0.0
C2045 C 0.43972 0.44644 0.31592 0.0
C2046 C 0.44754 0.44192 0.3601 0.0
C2047 C 0.45013 0.42941 0.47896 0.0
C2048 C 0.44486 0.4214 0.55313 0.0
C2049 C 0.44244 0.43421 0.43515 0.0
C2050 C 0.43193 0.41856 0.58422 0.0
C2051 C 0.42427 0.42339 0.54132 0.0
H2052 H 0.13191 0.40064 0.41487 0.0
H2053 H 0.09009 0.3671 0.44046 0.0
H2054 H 0.09095 0.37086 0.59328 0.0
H2055 H 0.10345 0.38376 0.72192 0.0
H2056 H 0.14513 0.4175 0.69615 0.0
H2057 H 0.14431 0.4137 0.54312 0.0
C2058 C 0.12293 0.39422 0.45357 0.0
C2059 C 0.11101 0.3835 0.41492 0.0
C2060 C 0.12342 0.3965 0.54249 0.0
C2061 C 0.09954 0.37526 0.46734 0.0
C2062 C 0.09997 0.37746 0.55538 0.0
C2063 C 0.11237 0.39024 0.68297 0.0
C2064 C 0.12428 0.40099 0.72144 0.0
C2065 C 0.11186 0.38801 0.59398 0.0
C2066 C 0.1357 0.40931 0.66903 0.0
C2067 C 0.13529 0.40709 0.58103 0.0
H2068 H 0.62877 0.73753 0.48857 0.0
H2069 H 0.58809 0.70799 0.39941 0.0
H2070 H 0.57965 0.70308 0.54549 0.0
H2071 H 0.58368 0.7078 0.69865 0.0
H2072 H 0.6244 0.7373 0.78719 0.0
H2073 H 0.63307 0.74136 0.64171 0.0
C2074 C 0.61812 0.72989 0.50137 0.0
C2075 C 0.60904 0.72332 0.43353 0.0
C2076 C 0.61335 0.72708 0.58538 0.0
C2077 C 0.59522 0.71348 0.4506 0.0
C2078 C 0.59039 0.71058 0.53409 0.0
C2079 C 0.59443 0.7151 0.68574 0.0
C2080 C 0.60336 0.7222 0.75321 0.0
C2081 C 0.59932 0.71748 0.60188 0.0
C2082 C 0.61734 0.73154 0.73629 0.0
C2083 C 0.6223 0.73395 0.65309 0.0
H2084 H 0.27739 0.90345 0.37032 0.0
H2085 H 0.25901 0.86046 0.30365 0.0
H2086 H 0.26179 0.85487 0.44972 0.0
H2087 H 0.26923 0.86213 0.59666 0.0
H2088 H 0.28721 0.90499 0.66486 0.0
H2089 H 0.28463 0.91069 0.51818 0.0
C2090 C 0.27385 0.89285 0.38791 0.0
C2091 C 0.26804 0.8824 0.32587 0.0
C2092 C 0.27543 0.88969 0.47227 0.0
C2093 C 0.26368 0.86872 0.34976 0.0
C2094 C 0.26522 0.86551 0.43338 0.0
C2095 C 0.27275 0.87274 0.57917 0.0
C2096 C 0.27848 0.88313 0.64141 0.0
C2097 C 0.27114 0.87591 0.49503 0.0
C2098 C 0.28271 0.8968 0.61814 0.0
C2099 C 0.28126 0.90006 0.53431 0.0
H2100 H 0.41214 0.13852 0.40439 0.0
H2101 H 0.38715 0.09563 0.3372 0.0
H2102 H 0.3789 0.09005 0.48406 0.0
H2103 H 0.37891 0.09742 0.63171 0.0
H2104 H 0.4037 0.14044 0.69732 0.0
H2105 H 0.41208 0.14589 0.55115 0.0
C2106 C 0.40505 0.12793 0.42208 0.0
C2107 C 0.40033 0.1175 0.36002 0.0
C2108 C 0.4003 0.12483 0.50634 0.0
C2109 C 0.39088 0.10386 0.3837 0.0
C2110 C 0.38618 0.10066 0.46766 0.0
C2111 C 0.38602 0.108 0.61387 0.0
C2112 C 0.39069 0.1185 0.67561 0.0
C2113 C 0.39077 0.11108 0.52945 0.0
C2114 C 0.40008 0.13214 0.65143 0.0
C2115 C 0.40484 0.13527 0.56775 0.0
H2116 H 0.87357 0.28188 0.61445 0.0
H2117 H 0.88413 0.25011 0.58037 0.0
H2118 H 0.88247 0.25149 0.42604 0.0
H2119 H 0.87779 0.26158 0.2994 0.0
H2120 H 0.86765 0.29369 0.33372 0.0
H2121 H 0.86928 0.29226 0.48766 0.0
C2122 C 0.87537 0.27518 0.57328 0.0
C2123 C 0.87897 0.2659 0.60944 0.0
C2124 C 0.8745 0.2761 0.48391 0.0
C2125 C 0.88148 0.25744 0.55459 0.0
C2126 C 0.8805 0.2582 0.46607 0.0
C2127 C 0.87608 0.26837 0.34039 0.0
C2128 C 0.87248 0.27765 0.30415 0.0
C2129 C 0.87707 0.26753 0.42975 0.0
C2130 C 0.8702 0.28626 0.35914 0.0
C2131 C 0.87118 0.2855 0.44761 0.0
H2132 H 0.71978 0.60822 0.27229 0.0
H2133 H 0.73112 0.57687 0.29983 0.0
H2134 H 0.73349 0.58064 0.453 0.0
H2135 H 0.73264 0.593 0.58078 0.0
H2136 H 0.72112 0.62423 0.55395 0.0
H2137 H 0.71874 0.62048 0.40072 0.0
C2138 C 0.72284 0.60227 0.31167 0.0
C2139 C 0.72513 0.59218 0.27366 0.0
C2140 C 0.72421 0.60449 0.40076 0.0
C2141 C 0.72902 0.58453 0.32658 0.0
C2142 C 0.73046 0.58673 0.41466 0.0
C2143 C 0.72948 0.59889 0.54169 0.0
C2144 C 0.72717 0.60896 0.57997 0.0
C2145 C 0.72805 0.59665 0.45273 0.0
C2146 C 0.72322 0.61657 0.52718 0.0
C2147 C 0.72177 0.61439 0.43901 0.0
H2148 H 0.88503 0.59392 0.62357 0.0
H2149 H 0.88943 0.63408 0.58889 0.0
H2150 H 0.88759 0.63075 0.43464 0.0
H2151 H 0.88466 0.61637 0.30828 0.0
H2152 H 0.8809 0.57643 0.34317 0.0
H2153 H 0.88248 0.5797 0.49691 0.0
C2154 C 0.88545 0.60187 0.58228 0.0
C2155 C 0.88735 0.61423 0.61831 0.0
C2156 C 0.88455 0.59995 0.49292 0.0
C2157 C 0.88808 0.62451 0.56328 0.0
C2158 C 0.88701 0.62261 0.4748 0.0
C2159 C 0.88434 0.60844 0.34928 0.0
C2160 C 0.88257 0.59611 0.31306 0.0
C2161 C 0.88532 0.6104 0.43862 0.0
C2162 C 0.88203 0.58593 0.36828 0.0
C2163 C 0.88299 0.58781 0.45675 0.0
H2164 H 0.39033 0.27049 0.37175 0.0
H2165 H 0.43397 0.29761 0.40778 0.0
H2166 H 0.43076 0.29646 0.56159 0.0
H2167 H 0.4156 0.28779 0.68799 0.0
H2168 H 0.37194 0.26098 0.65224 0.0
H2169 H 0.37511 0.26208 0.49804 0.0
C2170 C 0.39913 0.27626 0.41301 0.0
C2171 C 0.41241 0.28405 0.37705 0.0
C2172 C 0.39722 0.2756 0.50246 0.0
C2173 C 0.42365 0.29133 0.43268 0.0
C2174 C 0.42183 0.29073 0.52119 0.0
C2175 C 0.4068 0.28209 0.64659 0.0
C2176 C 0.39353 0.27432 0.6825 0.0
C2177 C 0.40868 0.28283 0.55712 0.0
C2178 C 0.38225 0.26717 0.62699 0.0
C2179 C 0.38406 0.26776 0.53843 0.0
H2180 H 0.71761 0.10285 0.29237 0.0
H2181 H 0.7194 0.14202 0.32101 0.0
H2182 H 0.72234 0.14133 0.47402 0.0
H2183 H 0.72472 0.12984 0.60155 0.0
H2184 H 0.72292 0.09066 0.57354 0.0
H2185 H 0.71991 0.09128 0.42038 0.0
C2186 C 0.71872 0.11128 0.33189 0.0
C2187 C 0.71813 0.1224 0.29407 0.0
C2188 C 0.72047 0.11087 0.42097 0.0
C2189 C 0.71952 0.13316 0.34738 0.0
C2190 C 0.72129 0.13284 0.43545 0.0
C2191 C 0.72354 0.12137 0.56223 0.0
C2192 C 0.72415 0.11027 0.6002 0.0
C2193 C 0.72175 0.12173 0.47325 0.0
C2194 C 0.72274 0.09948 0.54705 0.0
C2195 C 0.72093 0.09977 0.4589 0.0
H2196 H 0.62901 0.88861 0.40534 0.0
H2197 H 0.58919 0.87988 0.31371 0.0
H2198 H 0.58068 0.87714 0.45954 0.0
H2199 H 0.58448 0.87682 0.61312 0.0
H2200 H 0.62422 0.8849 0.70365 0.0
H2201 H 0.63292 0.88866 0.55881 0.0
C2202 C 0.61852 0.88623 0.41764 0.0
C2203 C 0.60971 0.88431 0.34932 0.0
C2204 C 0.6137 0.88464 0.50144 0.0
C2205 C 0.59609 0.88112 0.36552 0.0
C2206 C 0.59124 0.87965 0.4488 0.0
C2207 C 0.59502 0.87937 0.60108 0.0
C2208 C 0.60366 0.88067 0.66932 0.0
C2209 C 0.59992 0.88127 0.51724 0.0
C2210 C 0.61737 0.88412 0.65269 0.0
C2211 C 0.62236 0.88615 0.56965 0.0
H2212 H 0.10752 0.74287 0.43521 0.0
H2213 H 0.11954 0.71433 0.33897 0.0
H2214 H 0.12124 0.70752 0.48353 0.0
H2215 H 0.11954 0.7098 0.63809 0.0
H2216 H 0.10737 0.73825 0.73379 0.0
H2217 H 0.10506 0.74458 0.58917 0.0
C2218 C 0.11042 0.7351 0.44594 0.0
C2219 C 0.1136 0.72933 0.37633 0.0
C2220 C 0.1112 0.73107 0.52931 0.0
C2221 C 0.1174 0.71928 0.39123 0.0
C2222 C 0.11824 0.71524 0.47401 0.0
C2223 C 0.11637 0.71736 0.6271 0.0
C2224 C 0.11356 0.72344 0.6967 0.0
C2225 C 0.11524 0.72113 0.54356 0.0
C2226 C 0.10934 0.73317 0.6816 0.0
C2227 C 0.10815 0.73692 0.59876 0.0
H2228 H 0.26384 0.37518 0.66727 0.0
H2229 H 0.28995 0.41903 0.63289 0.0
H2230 H 0.28936 0.41598 0.47908 0.0
H2231 H 0.28142 0.40088 0.35245 0.0
H2232 H 0.25552 0.35703 0.38659 0.0
H2233 H 0.25619 0.36005 0.54069 0.0
C2234 C 0.26952 0.38406 0.62633 0.0
C2235 C 0.27684 0.39734 0.66258 0.0
C2236 C 0.26918 0.38224 0.53699 0.0
C2237 C 0.28402 0.4087 0.60756 0.0
C2238 C 0.28375 0.40697 0.51912 0.0
C2239 C 0.27584 0.392 0.39346 0.0
C2240 C 0.26846 0.37873 0.35718 0.0
C2241 C 0.27628 0.3938 0.48282 0.0
C2242 C 0.26144 0.36735 0.41216 0.0
C2243 C 0.26177 0.36907 0.50066 0.0
H2244 H 0.7922 0.73668 0.97382 0.0
H2245 H 0.75132 0.70494 0.04452 0.0
H2246 H 0.7468 0.69641 0.89787 0.0
H2247 H 0.75456 0.69802 0.74994 0.0
H2248 H 0.79585 0.72926 0.68094 0.0
H2249 H 0.80008 0.73806 0.82633 0.0
C2250 C 0.78224 0.72803 0.95667 0.0
C2251 C 0.77207 0.7215 0.01952 0.0
C2252 C 0.77982 0.72307 0.87273 0.0
C2253 C 0.75931 0.7101 0.9971 0.0
C2254 C 0.75673 0.70523 0.91338 0.0
C2255 C 0.76455 0.70663 0.76676 0.0
C2256 C 0.77485 0.71298 0.70417 0.0
C2257 C 0.76696 0.71158 0.85079 0.0
C2258 C 0.78766 0.72429 0.72728 0.0
C2259 C 0.79011 0.72931 0.81058 0.0
H2260 H 0.27204 0.04857 0.98518 0.0
H2261 H 0.24203 0.06171 0.95869 0.0
H2262 H 0.24601 0.06429 0.80561 0.0
H2263 H 0.25817 0.06309 0.67751 0.0
H2264 H 0.2879 0.04956 0.70383 0.0
H2265 H 0.28401 0.04711 0.85665 0.0
C2266 C 0.26643 0.05207 0.94608 0.0
C2267 C 0.25666 0.05482 0.98441 0.0
C2268 C 0.26875 0.05354 0.85703 0.0
C2269 C 0.24943 0.05925 0.93174 0.0
C2270 C 0.25176 0.06083 0.8437 0.0
C2271 C 0.26373 0.0595 0.71633 0.0
C2272 C 0.27343 0.05666 0.67776 0.0
C2273 C 0.26136 0.05796 0.80532 0.0
C2274 C 0.28057 0.05211 0.73048 0.0
C2275 C 0.27829 0.05061 0.81858 0.0
H2276 H 0.949 0.21234 0.69725 0.0
H2277 H 0.91464 0.21901 0.73151 0.0
H2278 H 0.91593 0.21706 0.88581 0.0
H2279 H 0.92682 0.2134 0.01225 0.0
H2280 H 0.96167 0.2074 0.97786 0.0
H2281 H 0.96015 0.20907 0.82405 0.0
C2282 C 0.94172 0.21322 0.7385 0.0
C2283 C 0.93172 0.2158 0.70245 0.0
C2284 C 0.94264 0.21226 0.82783 0.0
C2285 C 0.9225 0.21713 0.75729 0.0
C2286 C 0.92323 0.216 0.84574 0.0
C2287 C 0.93419 0.21262 0.97131 0.0
C2288 C 0.9443 0.21018 0.00762 0.0
C2289 C 0.93331 0.21365 0.88201 0.0
C2290 C 0.95363 0.20905 0.95259 0.0
C2291 C 0.95281 0.21005 0.86412 0.0
H2292 H 0.08571 0.47997 0.72136 0.0
H2293 H 0.05826 0.43783 0.6479 0.0
H2294 H 0.04992 0.43203 0.79456 0.0
H2295 H 0.05055 0.43903 0.94361 0.0
H2296 H 0.07747 0.48149 0.015 0.0
H2297 H 0.08602 0.48706 0.86939 0.0
C2298 C 0.07804 0.46949 0.73789 0.0
C2299 C 0.07267 0.45932 0.67437 0.0
C2300 C 0.07318 0.46631 0.82178 0.0
C2301 C 0.06251 0.44583 0.69591 0.0
C2302 C 0.05775 0.44252 0.77963 0.0
C2303 C 0.05815 0.44953 0.92717 0.0
C2304 C 0.06341 0.45979 0.99045 0.0
C2305 C 0.06296 0.45271 0.84301 0.0
C2306 C 0.07341 0.47333 0.96801 0.0
C2307 C 0.07827 0.47655 0.88463 0.0
H2308 H 0.52929 0.62375 0.78003 0.0
H2309 H 0.54931 0.60186 0.68808 0.0
H2310 H 0.55394 0.59788 0.83295 0.0
H2311 H 0.5511 0.59936 0.98642 0.0
H2312 H 0.53149 0.62159 0.07916 0.0
H2313 H 0.52765 0.6264 0.93386 0.0
C2314 C 0.53464 0.6181 0.79176 0.0
C2315 C 0.53879 0.61302 0.72302 0.0
C2316 C 0.53721 0.61574 0.8756 0.0
C2317 C 0.546 0.60596 0.73931 0.0
C2318 C 0.5486 0.60359 0.82244 0.0
C2319 C 0.54613 0.60539 0.97477 0.0
C2320 C 0.54138 0.60986 0.0435 0.0
C2321 C 0.54409 0.60827 0.89105 0.0
C2322 C 0.5349 0.61763 0.0275 0.0
C2323 C 0.53281 0.62052 0.94433 0.0
H2324 H 0.40187 0.95572 0.89467 0.0
H2325 H 0.37203 0.91526 0.98576 0.0
H2326 H 0.36658 0.9068 0.84002 0.0
H2327 H 0.37082 0.91075 0.68642 0.0
H2328 H 0.40054 0.95128 0.59581 0.0
H2329 H 0.40525 0.95996 0.74122 0.0
C2330 C 0.39406 0.94511 0.88242 0.0
C2331 C 0.38756 0.93611 0.95072 0.0
C2332 C 0.39091 0.94034 0.79854 0.0
C2333 C 0.37748 0.92233 0.93426 0.0
C2334 C 0.37427 0.9175 0.85093 0.0
C2335 C 0.3783 0.92146 0.69885 0.0
C2336 C 0.38528 0.93033 0.63081 0.0
C2337 C 0.38105 0.92637 0.78265 0.0
C2338 C 0.39487 0.94427 0.64716 0.0
C2339 C 0.39765 0.94923 0.73031 0.0
H2340 H 0.54217 0.91522 0.6969 0.0
H2341 H 0.55433 0.95611 0.60608 0.0
H2342 H 0.55753 0.96456 0.75157 0.0
H2343 H 0.55562 0.96008 0.90482 0.0
H2344 H 0.54326 0.91921 0.99639 0.0
H2345 H 0.54101 0.91091 0.85056 0.0
C2346 C 0.54551 0.92596 0.70917 0.0
C2347 C 0.54804 0.93499 0.64093 0.0
C2348 C 0.54709 0.93072 0.79305 0.0
C2349 C 0.55254 0.94896 0.65738 0.0
C2350 C 0.55424 0.9538 0.74064 0.0
C2351 C 0.55256 0.9494 0.89263 0.0
C2352 C 0.54943 0.94026 0.96091 0.0
C2353 C 0.55139 0.94473 0.80887 0.0
C2354 C 0.54538 0.92639 0.94473 0.0
C2355 C 0.54422 0.92166 0.86142 0.0
H2356 H 0.07826 0.60966 0.03869 0.0
H2357 H 0.0481 0.62264 0.01349 0.0
H2358 H 0.05189 0.62513 0.86039 0.0
H2359 H 0.0639 0.62381 0.73152 0.0
H2360 H 0.0943 0.61117 0.75724 0.0
H2361 H 0.09042 0.60858 0.91042 0.0
C2362 C 0.0726 0.61315 1.0 0.0
C2363 C 0.06281 0.61583 0.03875 0.0
C2364 C 0.07489 0.61467 0.91105 0.0
C2365 C 0.05552 0.62023 0.98642 0.0
C2366 C 0.05773 0.62174 0.89828 0.0
C2367 C 0.06961 0.62041 0.77054 0.0
C2368 C 0.07947 0.61781 0.73209 0.0
C2369 C 0.06735 0.61895 0.85958 0.0
C2370 C 0.08683 0.61351 0.78446 0.0
C2371 C 0.08456 0.61194 0.87249 0.0
H2372 H 0.40643 0.44016 0.87214 0.0
H2373 H 0.37528 0.44884 0.96416 0.0
H2374 H 0.36899 0.45079 0.81851 0.0
H2375 H 0.37268 0.45048 0.66471 0.0
H2376 H 0.40393 0.44188 0.57336 0.0
H2377 H 0.40953 0.43899 0.71865 0.0
C2378 C 0.39818 0.44234 0.86012 0.0
C2379 C 0.3915 0.44455 0.92859 0.0
C2380 C 0.39455 0.44334 0.77634 0.0
C2381 C 0.38086 0.44745 0.91247 0.0
C2382 C 0.37716 0.44845 0.82921 0.0
C2383 C 0.3807 0.44798 0.67687 0.0
C2384 C 0.38781 0.44635 0.60851 0.0
C2385 C 0.38403 0.44654 0.7607 0.0
C2386 C 0.3981 0.44295 0.62476 0.0
C2387 C 0.40142 0.44143 0.70793 0.0
H2388 H 0.25731 0.19692 0.97657 0.0
H2389 H 0.28259 0.23976 0.04426 0.0
H2390 H 0.29093 0.24532 0.89761 0.0
H2391 H 0.2909 0.23796 0.74985 0.0
H2392 H 0.26577 0.19501 0.68363 0.0
H2393 H 0.25734 0.18957 0.82972 0.0
C2394 C 0.26448 0.2075 0.95905 0.0
C2395 C 0.26926 0.21792 0.02126 0.0
C2396 C 0.26928 0.2106 0.87485 0.0
C2397 C 0.27882 0.23154 0.99772 0.0
C2398 C 0.28357 0.23472 0.91385 0.0
C2399 C 0.28371 0.22739 0.76754 0.0
C2400 C 0.27896 0.21692 0.70563 0.0
C2401 C 0.27892 0.22432 0.85192 0.0
C2402 C 0.26946 0.2033 0.72964 0.0
C2403 C 0.26466 0.20017 0.81328 0.0
H2404 H 0.7651 0.05355 0.03002 0.0
H2405 H 0.80585 0.05907 1.00043 0.0
H2406 H 0.80473 0.06166 0.84746 0.0
H2407 H 0.79243 0.06278 0.72017 0.0
H2408 H 0.75174 0.0574 0.74905 0.0
H2409 H 0.75273 0.05458 0.90226 0.0
C2410 C 0.77377 0.05539 0.99034 0.0
C2411 C 0.78549 0.05596 0.02797 0.0
C2412 C 0.77312 0.05697 0.90124 0.0
C2413 C 0.79656 0.05828 0.97434 0.0
C2414 C 0.79598 0.05987 0.88623 0.0
C2415 C 0.78372 0.06086 0.75972 0.0
C2416 C 0.77207 0.0604 0.72205 0.0
C2417 C 0.78432 0.05921 0.84869 0.0
C2418 C 0.76096 0.05805 0.77541 0.0
C2419 C 0.76148 0.05635 0.86354 0.0
H2420 H 0.92774 0.7382 0.99891 0.0
H2421 H 0.94879 0.71634 0.06969 0.0
H2422 H 0.94735 0.70842 0.92283 0.0
H2423 H 0.94024 0.70797 0.77406 0.0
H2424 H 0.91883 0.7296 0.70542 0.0
H2425 H 0.92043 0.73753 0.85169 0.0
C2426 C 0.93218 0.73187 0.9819 0.0
C2427 C 0.93844 0.72793 0.04463 0.0
C2428 C 0.93123 0.72731 0.8979 0.0
C2429 C 0.94386 0.71944 0.02229 0.0
C2430 C 0.94306 0.71494 0.93847 0.0
C2431 C 0.9358 0.71428 0.79142 0.0
C2432 C 0.9295 0.71826 0.72898 0.0
C2433 C 0.93672 0.71878 0.87579 0.0
C2434 C 0.92392 0.72659 0.75215 0.0
C2435 C 0.92478 0.73108 0.83576 0.0
H2436 H 0.42938 0.04434 0.3381 0.0
H2437 H 0.46994 0.07993 0.31039 0.0
H2438 H 0.46914 0.07619 0.15748 0.0
H2439 H 0.45717 0.06262 0.02974 0.0
H2440 H 0.41663 0.02702 0.05695 0.0
H2441 H 0.41732 0.03085 0.20992 0.0
C2442 C 0.43808 0.05124 0.29882 0.0
C2443 C 0.44965 0.06249 0.33692 0.0
C2444 C 0.43761 0.049 0.20978 0.0
C2445 C 0.46076 0.07133 0.28385 0.0
C2446 C 0.46037 0.06916 0.19581 0.0
C2447 C 0.44843 0.05577 0.06887 0.0
C2448 C 0.43692 0.04448 0.03074 0.0
C2449 C 0.44885 0.05804 0.15778 0.0
C2450 C 0.42576 0.03566 0.0836 0.0
C2451 C 0.4261 0.03789 0.17163 0.0
H2452 H 0.92117 0.37212 0.2826 0.0
H2453 H 0.96195 0.40107 0.37318 0.0
H2454 H 0.97064 0.40562 0.22778 0.0
H2455 H 0.96642 0.40225 0.07429 0.0
H2456 H 0.92569 0.37325 0.98324 0.0
H2457 H 0.91716 0.36802 0.12897 0.0
C2458 C 0.93193 0.37941 0.27019 0.0
C2459 C 0.94088 0.38618 0.33826 0.0
C2460 C 0.93685 0.38209 0.18637 0.0
C2461 C 0.95488 0.39553 0.32185 0.0
C2462 C 0.95985 0.39824 0.23869 0.0
C2463 C 0.95573 0.39468 0.08659 0.0
C2464 C 0.94669 0.38833 0.0183 0.0
C2465 C 0.95091 0.39166 0.17047 0.0
C2466 C 0.9328 0.37858 0.03475 0.0
C2467 C 0.92792 0.37549 0.11807 0.0
H2468 H 0.59836 0.56233 0.06435 0.0
H2469 H 0.62424 0.54657 0.975 0.0
H2470 H 0.6282 0.54203 0.12088 0.0
H2471 H 0.62355 0.54171 0.27398 0.0
H2472 H 0.59801 0.5579 0.36255 0.0
H2473 H 0.59493 0.56338 0.21748 0.0
C2474 C 0.60502 0.5581 0.07701 0.0
C2475 C 0.61077 0.55457 0.00905 0.0
C2476 C 0.60732 0.55558 0.161 0.0
C2477 C 0.61935 0.54902 0.02614 0.0
C2478 C 0.62171 0.54651 0.10959 0.0
C2479 C 0.61731 0.54642 0.26127 0.0
C2480 C 0.61096 0.54929 0.32886 0.0
C2481 C 0.61556 0.54953 0.17744 0.0
C2482 C 0.60309 0.55563 0.31186 0.0
C2483 C 0.60126 0.55872 0.22875 0.0
H2484 H 0.73438 0.7815 0.32253 0.0
H2485 H 0.69452 0.77776 0.28693 0.0
H2486 H 0.69782 0.77927 0.13267 0.0
H2487 H 0.71208 0.78175 0.0066 0.0
H2488 H 0.75174 0.78493 0.04217 0.0
H2489 H 0.7485 0.78362 0.19603 0.0
C2490 C 0.72649 0.78116 0.28103 0.0
C2491 C 0.71422 0.77953 0.3168 0.0
C2492 C 0.72839 0.78189 0.19166 0.0
C2493 C 0.70402 0.7789 0.26152 0.0
C2494 C 0.70591 0.77978 0.17303 0.0
C2495 C 0.71995 0.782 0.04779 0.0
C2496 C 0.73219 0.78352 0.01178 0.0
C2497 C 0.71802 0.7812 0.13711 0.0
C2498 C 0.74231 0.78398 0.06718 0.0
C2499 C 0.74045 0.78318 0.15568 0.0
H2500 H 0.21868 0.93622 0.28573 0.0
H2501 H 0.1976 0.95697 0.37911 0.0
H2502 H 0.19375 0.96183 0.23391 0.0
H2503 H 0.19571 0.95954 0.07987 0.0
H2504 H 0.21725 0.93918 0.98753 0.0
H2505 H 0.22195 0.93526 0.13236 0.0
C2506 C 0.21338 0.94193 0.2743 0.0
C2507 C 0.20821 0.94595 0.34316 0.0
C2508 C 0.21135 0.94486 0.19065 0.0
C2509 C 0.20133 0.95335 0.32736 0.0
C2510 C 0.19923 0.95627 0.24424 0.0
C2511 C 0.20143 0.95424 0.0915 0.0
C2512 C 0.20596 0.94955 0.0226 0.0
C2513 C 0.20404 0.95191 0.17536 0.0
C2514 C 0.21363 0.94296 0.03883 0.0
C2515 C 0.21628 0.94062 0.12195 0.0
H2516 H 0.0534 0.29545 0.22528 0.0
H2517 H 0.06766 0.26746 0.2959 0.0
H2518 H 0.06423 0.25879 0.15042 0.0
H2519 H 0.05745 0.25931 1.0026 0.0
H2520 H 0.04394 0.28776 0.93015 0.0
H2521 H 0.04695 0.29623 0.07665 0.0
C2522 C 0.05592 0.28759 0.20872 0.0
C2523 C 0.06072 0.28209 0.27179 0.0
C2524 C 0.05402 0.28269 0.12463 0.0
C2525 C 0.06375 0.27174 0.24913 0.0
C2526 C 0.06184 0.2668 0.1658 0.0
C2527 C 0.05498 0.26722 0.01928 0.0
C2528 C 0.05039 0.27283 0.95597 0.0
C2529 C 0.05691 0.27214 0.10317 0.0
C2530 C 0.04753 0.28331 0.97787 0.0
C2531 C 0.04925 0.28815 0.06153 0.0
H2532 H 0.19153 0.25373 0.31456 0.0
H2533 H 0.23244 0.28867 0.28222 0.0
H2534 H 0.23091 0.28493 0.12943 0.0
H2535 H 0.21813 0.27166 1.00253 0.0
H2536 H 0.17747 0.23643 0.03489 0.0
H2537 H 0.17891 0.24024 0.18814 0.0
C2538 C 0.20018 0.26049 0.27455 0.0
C2539 C 0.21203 0.27158 0.3116 0.0
C2540 C 0.19934 0.2582 0.18547 0.0
C2541 C 0.22303 0.28021 0.25705 0.0
C2542 C 0.22222 0.27803 0.16885 0.0
C2543 C 0.20955 0.26485 0.0429 0.0
C2544 C 0.19774 0.25369 0.00613 0.0
C2545 C 0.21043 0.26708 0.13203 0.0
C2546 C 0.18681 0.24496 0.06057 0.0
C2547 C 0.18758 0.24718 0.14871 0.0
H2548 H 0.74258 0.95154 0.31442 0.0
H2549 H 0.69902 0.92394 0.27965 0.0
H2550 H 0.70215 0.92485 0.12569 0.0
H2551 H 0.71732 0.93312 0.99927 0.0
H2552 H 0.76088 0.9608 0.03413 0.0
H2553 H 0.75769 0.96008 0.18792 0.0
C2554 C 0.73379 0.94564 0.27335 0.0
C2555 C 0.72056 0.93772 0.30956 0.0
C2556 C 0.73565 0.9462 0.18396 0.0
C2557 C 0.70929 0.9303 0.25433 0.0
C2558 C 0.71108 0.93075 0.16583 0.0
C2559 C 0.7261 0.93911 0.04029 0.0
C2560 C 0.73935 0.94692 1.00415 0.0
C2561 C 0.72421 0.93868 0.12964 0.0
C2562 C 0.75058 0.9545 0.05934 0.0
C2563 C 0.74877 0.95415 0.14778 0.0
H2564 H 0.05032 0.80115 0.01825 0.0
H2565 H 0.04503 0.76148 0.95063 0.0
H2566 H 0.05 0.75804 0.09731 0.0
H2567 H 0.05576 0.76635 0.24495 0.0
H2568 H 0.06117 0.80614 0.31112 0.0
H2569 H 0.05602 0.80941 0.16494 0.0
C2570 C 0.05003 0.79166 0.03576 0.0
C2571 C 0.04722 0.78155 0.97362 0.0
C2572 C 0.05295 0.78979 0.11993 0.0
C2573 C 0.04723 0.76945 0.99716 0.0
C2574 C 0.05005 0.76747 0.08101 0.0
C2575 C 0.05596 0.77579 0.22717 0.0
C2576 C 0.05883 0.78598 0.28894 0.0
C2577 C 0.05299 0.77761 0.14286 0.0
C2578 C 0.05883 0.79807 0.26504 0.0
C2579 C 0.05593 0.79997 0.18142 0.0
H2580 H 0.95453 0.5643 0.04825 0.0
H2581 H 0.93123 0.52113 0.98323 0.0
H2582 H 0.92294 0.51548 0.12954 0.0
H2583 H 0.9226 0.52275 0.27634 0.0
H2584 H 0.94628 0.5658 0.34267 0.0
H2585 H 0.95433 0.57156 0.19555 0.0
C2586 C 0.94778 0.55364 0.06617 0.0
C2587 C 0.9435 0.54316 1.0046 0.0
C2588 C 0.94312 0.55046 0.15061 0.0
C2589 C 0.93455 0.52942 0.02897 0.0
C2590 C 0.92984 0.52617 0.11273 0.0
C2591 C 0.92937 0.53341 0.25833 0.0
C2592 C 0.93378 0.54385 0.32013 0.0
C2593 C 0.93403 0.53661 0.17398 0.0
C2594 C 0.9428 0.55758 0.29624 0.0
C2595 C 0.94739 0.56087 0.21219 0.0
H2596 H 0.45189 0.38116 0.04412 0.0
H2597 H 0.44828 0.41735 0.08024 0.0
H2598 H 0.44977 0.41553 0.23447 0.0
H2599 H 0.4522 0.4037 0.36036 0.0
H2600 H 0.4552 0.36711 0.32429 0.0
H2601 H 0.45394 0.36909 0.17048 0.0
C2602 C 0.45158 0.38872 0.08573 0.0
C2603 C 0.45 0.3994 0.05011 0.0
C2604 C 0.45229 0.38752 0.1751 0.0
C2605 C 0.44939 0.40897 0.10554 0.0
C2606 C 0.45026 0.40795 0.194 0.0
C2607 C 0.45241 0.39606 0.31909 0.0
C2608 C 0.45388 0.3853 0.35498 0.0
C2609 C 0.45163 0.39722 0.22978 0.0
C2610 C 0.4543 0.37563 0.29942 0.0
C2611 C 0.45353 0.37672 0.21093 0.0
H2612 H 0.61468 0.07913 0.32786 0.0
H2613 H 0.59173 0.03721 0.41868 0.0
H2614 H 0.58852 0.02863 0.27348 0.0
H2615 H 0.59122 0.03307 0.11986 0.0
H2616 H 0.61387 0.07496 0.02867 0.0
H2617 H 0.61797 0.08353 0.17448 0.0
C2618 C 0.60898 0.06814 0.31574 0.0
C2619 C 0.60349 0.05887 0.38397 0.0
C2620 C 0.60699 0.06326 0.23192 0.0
C2621 C 0.59627 0.0446 0.3675 0.0
C2622 C 0.59431 0.03966 0.28433 0.0
C2623 C 0.59715 0.04405 0.13214 0.0
C2624 C 0.60208 0.05335 0.06386 0.0
C2625 C 0.59951 0.04891 0.21605 0.0
C2626 C 0.60969 0.06759 0.08028 0.0
C2627 C 0.61214 0.07251 0.1636 0.0
loop_
_geom_bond_atom_site_label_1
_geom_bond_atom_site_label_2
_geom_bond_distance
_geom_bond_site_symmetry_2
_ccdc_geom_bond_type
Co0 N4 2.148 . S
Co0 N10 2.128 1_554 S
Co0 N20 2.194 . S
Co0 O25 2.351 . S
Co0 O26 2.155 . S
Co0 O27 2.096 1_554 S
C1 N4 1.301 . S
C1 N5 1.328 . S
C1 H6 0.930 . S
C2 C3 1.333 . S
C2 N4 1.317 . S
C2 H7 0.930 . S
C3 C2 1.333 . S
C3 N5 1.350 . S
C3 H29 0.931 . S
N4 Co0 2.148 . S
N4 C1 1.301 . S
N4 C2 1.317 . S
N5 C1 1.328 . S
N5 C3 1.350 . S
H6 C1 0.930 . S
H7 C2 0.930 . S
C8 O9 1.224 . S
C8 O27 1.247 . S
O9 C8 1.224 . S
N10 Co0 2.128 1_556 S
N10 C11 1.355 . S
N10 C13 1.311 . S
C11 N10 1.355 . S
C11 C12 1.363 . S
C11 H23 0.929 . S
C12 C11 1.363 . S
C12 N14 1.375 . S
C12 H30 0.931 . S
C13 N10 1.311 . S
C13 N14 1.347 . S
C13 H24 0.929 . S
N14 C12 1.375 . S
N14 C13 1.347 . S
C15 C18 1.365 . S
C15 N20 1.328 . S
C15 H21 0.929 . S
C16 C17 1.362 1_556 S
C16 C19 1.378 . S
C16 H31 0.929 . S
C17 C16 1.362 1_554 S
C17 C18 1.366 . S
C18 C15 1.365 . S
C18 C17 1.366 . S
C18 H32 0.930 . S
C19 C16 1.378 . S
C19 N20 1.315 1_556 S
C19 H22 0.930 . S
N20 Co0 2.194 . S
N20 C15 1.328 . S
N20 C19 1.315 1_554 S
H21 C15 0.929 . S
H22 C19 0.930 . S
H23 C11 0.929 . S
H24 C13 0.929 . S
O25 Co0 2.351 . S
O25 C28 1.244 . S
O26 Co0 2.155 . S
O26 C28 1.240 . S
O27 Co0 2.096 1_556 S
O27 C8 1.247 . S
C28 O25 1.244 . S
C28 O26 1.240 . S
H29 C3 0.931 . S
H30 C12 0.931 . S
H31 C16 0.929 . S
H32 C18 0.930 . S
Co33 N37 2.148 . S
Co33 N43 2.128 1_554 S
Co33 N53 2.194 . S
Co33 O58 2.351 . S
Co33 O59 2.155 . S
Co33 O60 2.096 1_554 S
C34 N37 1.301 . S
C34 N38 1.328 . S
C34 H39 0.930 . S
C35 C36 1.333 . S
C35 N37 1.317 . S
C35 H40 0.930 . S
C36 C35 1.333 . S
C36 N38 1.350 . S
C36 H62 0.931 . S
N37 Co33 2.148 . S
N37 C34 1.301 . S
N37 C35 1.317 . S
N38 C34 1.328 . S
N38 C36 1.350 . S
H39 C34 0.930 . S
H40 C35 0.930 . S
C41 O42 1.224 . S
C41 O60 1.247 . S
O42 C41 1.224 . S
N43 Co33 2.128 1_556 S
N43 C44 1.355 . S
N43 C46 1.311 . S
C44 N43 1.355 . S
C44 C45 1.363 . S
C44 H56 0.929 . S
C45 C44 1.363 . S
C45 N47 1.375 . S
C45 H63 0.931 . S
C46 N43 1.311 . S
C46 N47 1.347 . S
C46 H57 0.929 . S
N47 C45 1.375 . S
N47 C46 1.347 . S
C48 C51 1.365 . S
C48 N53 1.328 . S
C48 H54 0.929 . S
C49 C50 1.362 1_556 S
C49 C52 1.378 . S
C49 H64 0.929 . S
C50 C49 1.362 1_554 S
C50 C51 1.366 . S
C51 C48 1.365 . S
C51 C50 1.366 . S
C51 H65 0.930 . S
C52 C49 1.378 . S
C52 N53 1.315 1_556 S
C52 H55 0.930 . S
N53 Co33 2.194 . S
N53 C48 1.328 . S
N53 C52 1.315 1_554 S
H54 C48 0.929 . S
H55 C52 0.930 . S
H56 C44 0.929 . S
H57 C46 0.929 . S
O58 Co33 2.351 . S
O58 C61 1.244 . S
O59 Co33 2.155 . S
O59 C61 1.240 . S
O60 Co33 2.096 1_556 S
O60 C41 1.247 . S
C61 O58 1.244 . S
C61 O59 1.240 . S
H62 C36 0.931 . S
H63 C45 0.931 . S
H64 C49 0.929 . S
H65 C51 0.930 . S
Co66 N70 2.148 . S
Co66 N76 2.128 1_554 S
Co66 N86 2.194 . S
Co66 O91 2.351 . S
Co66 O92 2.155 . S
Co66 O93 2.096 1_554 S
C67 N70 1.301 . S
C67 N71 1.328 . S
C67 H72 0.930 . S
C68 C69 1.333 . S
C68 N70 1.317 . S
C68 H73 0.930 . S
C69 C68 1.333 . S
C69 N71 1.350 . S
C69 H95 0.931 . S
N70 Co66 2.148 . S
N70 C67 1.301 . S
N70 C68 1.317 . S
N71 C67 1.328 . S
N71 C69 1.350 . S
H72 C67 0.930 . S
H73 C68 0.930 . S
C74 O75 1.224 . S
C74 O93 1.247 . S
O75 C74 1.224 . S
N76 Co66 2.128 1_556 S
N76 C77 1.355 . S
N76 C79 1.311 . S
C77 N76 1.355 . S
C77 C78 1.363 . S
C77 H89 0.929 . S
C78 C77 1.363 . S
C78 N80 1.375 . S
C78 H96 0.931 . S
C79 N76 1.311 . S
C79 N80 1.347 . S
C79 H90 0.929 . S
N80 C78 1.375 . S
N80 C79 1.347 . S
C81 C84 1.365 . S
C81 N86 1.328 . S
C81 H87 0.929 . S
C82 C83 1.362 1_556 S
C82 C85 1.378 . S
C82 H97 0.929 . S
C83 C82 1.362 1_554 S
C83 C84 1.366 . S
C84 C81 1.365 . S
C84 C83 1.366 . S
C84 H98 0.930 . S
C85 C82 1.378 . S
C85 N86 1.315 1_556 S
C85 H88 0.930 . S
N86 Co66 2.194 . S
N86 C81 1.328 . S
N86 C85 1.315 1_554 S
H87 C81 0.929 . S
H88 C85 0.930 . S
H89 C77 0.929 . S
H90 C79 0.929 . S
O91 Co66 2.351 . S
O91 C94 1.244 . S
O92 Co66 2.155 . S
O92 C94 1.240 . S
O93 Co66 2.096 1_556 S
O93 C74 1.247 . S
C94 O91 1.244 . S
C94 O92 1.240 . S
H95 C69 0.931 . S
H96 C78 0.931 . S
H97 C82 0.929 . S
H98 C84 0.930 . S
Co99 N103 2.148 . S
Co99 N109 2.128 1_556 S
Co99 N119 2.194 . S
Co99 O124 2.351 . S
Co99 O125 2.155 . S
Co99 O126 2.096 1_556 S
C100 N103 1.301 . S
C100 N104 1.328 . S
C100 H105 0.930 . S
C101 C102 1.333 . S
C101 N103 1.317 . S
C101 H106 0.930 . S
C102 C101 1.333 . S
C102 N104 1.350 . S
C102 H128 0.931 . S
N103 Co99 2.148 . S
N103 C100 1.301 . S
N103 C101 1.317 . S
N104 C100 1.328 . S
N104 C102 1.350 . S
H105 C100 0.930 . S
H106 C101 0.930 . S
C107 O108 1.224 . S
C107 O126 1.247 . S
O108 C107 1.224 . S
N109 Co99 2.128 1_554 S
N109 C110 1.355 . S
N109 C112 1.311 . S
C110 N109 1.355 . S
C110 C111 1.363 . S
C110 H122 0.929 . S
C111 C110 1.363 . S
C111 N113 1.375 . S
C111 H129 0.931 . S
C112 N109 1.311 . S
C112 N113 1.347 . S
C112 H123 0.929 . S
N113 C111 1.375 . S
N113 C112 1.347 . S
C114 C117 1.365 . S
C114 N119 1.328 . S
C114 H120 0.929 . S
C115 C116 1.362 1_554 S
C115 C118 1.378 . S
C115 H130 0.929 . S
C116 C115 1.362 1_556 S
C116 C117 1.366 . S
C117 C114 1.365 . S
C117 C116 1.366 . S
C117 H131 0.930 . S
C118 C115 1.378 . S
C118 N119 1.315 1_554 S
C118 H121 0.930 . S
N119 Co99 2.194 . S
N119 C114 1.328 . S
N119 C118 1.315 1_556 S
H120 C114 0.929 . S
H121 C118 0.930 . S
H122 C110 0.929 . S
H123 C112 0.929 . S
O124 Co99 2.351 . S
O124 C127 1.244 . S
O125 Co99 2.155 . S
O125 C127 1.240 . S
O126 Co99 2.096 1_554 S
O126 C107 1.247 . S
C127 O124 1.244 . S
C127 O125 1.240 . S
H128 C102 0.931 . S
H129 C111 0.931 . S
H130 C115 0.929 . S
H131 C117 0.930 . S
Co132 N136 2.148 . S
Co132 N142 2.128 1_556 S
Co132 N152 2.194 . S
Co132 O157 2.351 . S
Co132 O158 2.155 . S
Co132 O159 2.096 1_556 S
C133 N136 1.301 . S
C133 N137 1.328 . S
C133 H138 0.930 . S
C134 C135 1.333 . S
C134 N136 1.317 . S
C134 H139 0.930 . S
C135 C134 1.333 . S
C135 N137 1.350 . S
C135 H161 0.931 . S
N136 Co132 2.148 . S
N136 C133 1.301 . S
N136 C134 1.317 . S
N137 C133 1.328 . S
N137 C135 1.350 . S
H138 C133 0.930 . S
H139 C134 0.930 . S
C140 O141 1.224 . S
C140 O159 1.247 . S
O141 C140 1.224 . S
N142 Co132 2.128 1_554 S
N142 C143 1.355 . S
N142 C145 1.311 . S
C143 N142 1.355 . S
C143 C144 1.363 . S
C143 H155 0.929 . S
C144 C143 1.363 . S
C144 N146 1.375 . S
C144 H162 0.931 . S
C145 N142 1.311 . S
C145 N146 1.347 . S
C145 H156 0.929 . S
N146 C144 1.375 . S
N146 C145 1.347 . S
C147 C150 1.365 . S
C147 N152 1.328 . S
C147 H153 0.929 . S
C148 C149 1.362 1_554 S
C148 C151 1.378 . S
C148 H163 0.929 . S
C149 C148 1.362 1_556 S
C149 C150 1.366 . S
C150 C147 1.365 . S
C150 C149 1.366 . S
C150 H164 0.930 . S
C151 C148 1.378 . S
C151 N152 1.315 1_554 S
C151 H154 0.930 . S
N152 Co132 2.194 . S
N152 C147 1.328 . S
N152 C151 1.315 1_556 S
H153 C147 0.929 . S
H154 C151 0.930 . S
H155 C143 0.929 . S
H156 C145 0.929 . S
O157 Co132 2.351 . S
O157 C160 1.244 . S
O158 Co132 2.155 . S
O158 C160 1.240 . S
O159 Co132 2.096 1_554 S
O159 C140 1.247 . S
C160 O157 1.244 . S
C160 O158 1.240 . S
H161 C135 0.931 . S
H162 C144 0.931 . S
H163 C148 0.929 . S
H164 C150 0.930 . S
Co165 N169 2.148 . S
Co165 N175 2.128 1_556 S
Co165 N185 2.194 . S
Co165 O190 2.351 . S
Co165 O191 2.155 . S
Co165 O192 2.096 1_556 S
C166 N169 1.301 . S
C166 N170 1.328 . S
C166 H171 0.930 . S
C167 C168 1.333 . S
C167 N169 1.317 . S
C167 H172 0.930 . S
C168 C167 1.333 . S
C168 N170 1.350 . S
C168 H194 0.931 . S
N169 Co165 2.148 . S
N169 C166 1.301 . S
N169 C167 1.317 . S
N170 C166 1.328 . S
N170 C168 1.350 . S
H171 C166 0.930 . S
H172 C167 0.930 . S
C173 O174 1.224 . S
C173 O192 1.247 . S
O174 C173 1.224 . S
N175 Co165 2.128 1_554 S
N175 C176 1.355 . S
N175 C178 1.311 . S
C176 N175 1.355 . S
C176 C177 1.363 . S
C176 H188 0.929 . S
C177 C176 1.363 . S
C177 N179 1.375 . S
C177 H195 0.931 . S
C178 N175 1.311 . S
C178 N179 1.347 . S
C178 H189 0.929 . S
N179 C177 1.375 . S
N179 C178 1.347 . S
C180 C183 1.365 . S
C180 N185 1.328 . S
C180 H186 0.929 . S
C181 C182 1.362 1_554 S
C181 C184 1.378 . S
C181 H196 0.929 . S
C182 C181 1.362 1_556 S
C182 C183 1.366 . S
C183 C180 1.365 . S
C183 C182 1.366 . S
C183 H197 0.930 . S
C184 C181 1.378 . S
C184 N185 1.315 1_554 S
C184 H187 0.930 . S
N185 Co165 2.194 . S
N185 C180 1.328 . S
N185 C184 1.315 1_556 S
H186 C180 0.929 . S
H187 C184 0.930 . S
H188 C176 0.929 . S
H189 C178 0.929 . S
O190 Co165 2.351 . S
O190 C193 1.244 . S
O191 Co165 2.155 . S
O191 C193 1.240 . S
O192 Co165 2.096 1_554 S
O192 C173 1.247 . S
C193 O190 1.244 . S
C193 O191 1.240 . S
H194 C168 0.931 . S
H195 C177 0.931 . S
H196 C181 0.929 . S
H197 C183 0.930 . S
Co198 N202 2.148 . S
Co198 N208 2.128 1_556 S
Co198 N218 2.194 . S
Co198 O223 2.351 . S
Co198 O224 2.155 . S
Co198 O225 2.096 1_556 S
C199 N202 1.301 . S
C199 N203 1.328 . S
C199 H204 0.930 . S
C200 C201 1.333 . S
C200 N202 1.317 . S
C200 H205 0.930 . S
C201 C200 1.333 . S
C201 N203 1.350 . S
C201 H227 0.931 . S
N202 Co198 2.148 . S
N202 C199 1.301 . S
N202 C200 1.317 . S
N203 C199 1.328 . S
N203 C201 1.350 . S
H204 C199 0.930 . S
H205 C200 0.930 . S
C206 O207 1.224 . S
C206 O225 1.247 . S
O207 C206 1.224 . S
N208 Co198 2.128 1_554 S
N208 C209 1.355 . S
N208 C211 1.311 . S
C209 N208 1.355 . S
C209 C210 1.363 . S
C209 H221 0.929 . S
C210 C209 1.363 . S
C210 N212 1.375 . S
C210 H228 0.931 . S
C211 N208 1.311 . S
C211 N212 1.347 . S
C211 H222 0.929 . S
N212 C210 1.375 . S
N212 C211 1.347 . S
C213 C216 1.365 . S
C213 N218 1.328 . S
C213 H219 0.929 . S
C214 C215 1.362 1_554 S
C214 C217 1.378 . S
C214 H229 0.929 . S
C215 C214 1.362 1_556 S
C215 C216 1.366 . S
C216 C213 1.365 . S
C216 C215 1.366 . S
C216 H230 0.930 . S
C217 C214 1.378 . S
C217 N218 1.315 1_554 S
C217 H220 0.930 . S
N218 Co198 2.194 . S
N218 C213 1.328 . S
N218 C217 1.315 1_556 S
H219 C213 0.929 . S
H220 C217 0.930 . S
H221 C209 0.929 . S
H222 C211 0.929 . S
O223 Co198 2.351 . S
O223 C226 1.244 . S
O224 Co198 2.155 . S
O224 C226 1.240 . S
O225 Co198 2.096 1_554 S
O225 C206 1.247 . S
C226 O223 1.244 . S
C226 O224 1.240 . S
H227 C201 0.931 . S
H228 C210 0.931 . S
H229 C214 0.929 . S
H230 C216 0.930 . S
Co231 N235 2.148 . S
Co231 N241 2.128 1_556 S
Co231 N251 2.194 . S
Co231 O256 2.351 . S
Co231 O257 2.155 . S
Co231 O258 2.096 1_556 S
C232 N235 1.301 . S
C232 N236 1.328 . S
C232 H237 0.930 . S
C233 C234 1.333 . S
C233 N235 1.317 . S
C233 H238 0.930 . S
C234 C233 1.333 . S
C234 N236 1.350 . S
C234 H260 0.931 . S
N235 Co231 2.148 . S
N235 C232 1.301 . S
N235 C233 1.317 . S
N236 C232 1.328 . S
N236 C234 1.350 . S
H237 C232 0.930 . S
H238 C233 0.930 . S
C239 O240 1.224 . S
C239 O258 1.247 . S
O240 C239 1.224 . S
N241 Co231 2.128 1_554 S
N241 C242 1.355 . S
N241 C244 1.311 . S
C242 N241 1.355 . S
C242 C243 1.363 . S
C242 H254 0.929 . S
C243 C242 1.363 . S
C243 N245 1.375 . S
C243 H261 0.931 . S
C244 N241 1.311 . S
C244 N245 1.347 . S
C244 H255 0.929 . S
N245 C243 1.375 . S
N245 C244 1.347 . S
C246 C249 1.365 . S
C246 N251 1.328 . S
C246 H252 0.929 . S
C247 C248 1.362 1_554 S
C247 C250 1.378 . S
C247 H262 0.929 . S
C248 C247 1.362 1_556 S
C248 C249 1.366 . S
C249 C246 1.365 . S
C249 C248 1.366 . S
C249 H263 0.930 . S
C250 C247 1.378 . S
C250 N251 1.315 1_554 S
C250 H253 0.930 . S
N251 Co231 2.194 . S
N251 C246 1.328 . S
N251 C250 1.315 1_556 S
H252 C246 0.929 . S
H253 C250 0.930 . S
H254 C242 0.929 . S
H255 C244 0.929 . S
O256 Co231 2.351 . S
O256 C259 1.244 . S
O257 Co231 2.155 . S
O257 C259 1.240 . S
O258 Co231 2.096 1_554 S
O258 C239 1.247 . S
C259 O256 1.244 . S
C259 O257 1.240 . S
H260 C234 0.931 . S
H261 C243 0.931 . S
H262 C247 0.929 . S
H263 C249 0.930 . S
Co264 N268 2.148 . S
Co264 N274 2.128 1_556 S
Co264 N284 2.194 . S
Co264 O289 2.351 . S
Co264 O290 2.155 . S
Co264 O291 2.096 1_556 S
C265 N268 1.301 . S
C265 N269 1.328 . S
C265 H270 0.930 . S
C266 C267 1.333 . S
C266 N268 1.317 . S
C266 H271 0.930 . S
C267 C266 1.333 . S
C267 N269 1.350 . S
C267 H293 0.931 . S
N268 Co264 2.148 . S
N268 C265 1.301 . S
N268 C266 1.317 . S
N269 C265 1.328 . S
N269 C267 1.350 . S
H270 C265 0.930 . S
H271 C266 0.930 . S
C272 O273 1.224 . S
C272 O291 1.247 . S
O273 C272 1.224 . S
N274 Co264 2.128 1_554 S
N274 C275 1.355 . S
N274 C277 1.311 . S
C275 N274 1.355 . S
C275 C276 1.363 . S
C275 H287 0.929 . S
C276 C275 1.363 . S
C276 N278 1.375 . S
C276 H294 0.931 . S
C277 N274 1.311 . S
C277 N278 1.347 . S
C277 H288 0.929 . S
N278 C276 1.375 . S
N278 C277 1.347 . S
C279 C282 1.365 . S
C279 N284 1.328 . S
C279 H285 0.929 . S
C280 C281 1.362 1_554 S
C280 C283 1.378 . S
C280 H295 0.929 . S
C281 C280 1.362 1_556 S
C281 C282 1.366 . S
C282 C279 1.365 . S
C282 C281 1.366 . S
C282 H296 0.930 . S
C283 C280 1.378 . S
C283 N284 1.315 1_554 S
C283 H286 0.930 . S
N284 Co264 2.194 . S
N284 C279 1.328 . S
N284 C283 1.315 1_556 S
H285 C279 0.929 . S
H286 C283 0.930 . S
H287 C275 0.929 . S
H288 C277 0.929 . S
O289 Co264 2.351 . S
O289 C292 1.244 . S
O290 Co264 2.155 . S
O290 C292 1.240 . S
O291 Co264 2.096 1_554 S
O291 C272 1.247 . S
C292 O289 1.244 . S
C292 O290 1.240 . S
H293 C267 0.931 . S
H294 C276 0.931 . S
H295 C280 0.929 . S
H296 C282 0.930 . S
Co297 N301 2.148 . S
Co297 N307 2.128 1_554 S
Co297 N317 2.194 . S
Co297 O322 2.351 . S
Co297 O323 2.155 . S
Co297 O324 2.096 1_554 S
C298 N301 1.301 . S
C298 N302 1.328 . S
C298 H303 0.930 . S
C299 C300 1.333 . S
C299 N301 1.317 . S
C299 H304 0.930 . S
C300 C299 1.333 . S
C300 N302 1.350 . S
C300 H326 0.931 . S
N301 Co297 2.148 . S
N301 C298 1.301 . S
N301 C299 1.317 . S
N302 C298 1.328 . S
N302 C300 1.350 . S
H303 C298 0.930 . S
H304 C299 0.930 . S
C305 O306 1.224 . S
C305 O324 1.247 . S
O306 C305 1.224 . S
N307 Co297 2.128 1_556 S
N307 C308 1.355 . S
N307 C310 1.311 . S
C308 N307 1.355 . S
C308 C309 1.363 . S
C308 H320 0.929 . S
C309 C308 1.363 . S
C309 N311 1.375 . S
C309 H327 0.931 . S
C310 N307 1.311 . S
C310 N311 1.347 . S
C310 H321 0.929 . S
N311 C309 1.375 . S
N311 C310 1.347 . S
C312 C315 1.365 . S
C312 N317 1.328 . S
C312 H318 0.929 . S
C313 C314 1.362 1_556 S
C313 C316 1.378 . S
C313 H328 0.929 . S
C314 C313 1.362 1_554 S
C314 C315 1.366 . S
C315 C312 1.365 . S
C315 C314 1.366 . S
C315 H329 0.930 . S
C316 C313 1.378 . S
C316 N317 1.315 1_556 S
C316 H319 0.930 . S
N317 Co297 2.194 . S
N317 C312 1.328 . S
N317 C316 1.315 1_554 S
H318 C312 0.929 . S
H319 C316 0.930 . S
H320 C308 0.929 . S
H321 C310 0.929 . S
O322 Co297 2.351 . S
O322 C325 1.244 . S
O323 Co297 2.155 . S
O323 C325 1.240 . S
O324 Co297 2.096 1_556 S
O324 C305 1.247 . S
C325 O322 1.244 . S
C325 O323 1.240 . S
H326 C300 0.931 . S
H327 C309 0.931 . S
H328 C313 0.929 . S
H329 C315 0.930 . S
Co330 N334 2.148 . S
Co330 N340 2.128 1_554 S
Co330 N350 2.194 . S
Co330 O355 2.351 . S
Co330 O356 2.155 . S
Co330 O357 2.096 1_554 S
C331 N334 1.301 . S
C331 N335 1.328 . S
C331 H336 0.930 . S
C332 C333 1.333 . S
C332 N334 1.317 . S
C332 H337 0.930 . S
C333 C332 1.333 . S
C333 N335 1.350 . S
C333 H359 0.931 . S
N334 Co330 2.148 . S
N334 C331 1.301 . S
N334 C332 1.317 . S
N335 C331 1.328 . S
N335 C333 1.350 . S
H336 C331 0.930 . S
H337 C332 0.930 . S
C338 O339 1.224 . S
C338 O357 1.247 . S
O339 C338 1.224 . S
N340 Co330 2.128 1_556 S
N340 C341 1.355 . S
N340 C343 1.311 . S
C341 N340 1.355 . S
C341 C342 1.363 . S
C341 H353 0.929 . S
C342 C341 1.363 . S
C342 N344 1.375 . S
C342 H360 0.931 . S
C343 N340 1.311 . S
C343 N344 1.347 . S
C343 H354 0.929 . S
N344 C342 1.375 . S
N344 C343 1.347 . S
C345 C348 1.365 . S
C345 N350 1.328 . S
C345 H351 0.929 . S
C346 C347 1.362 1_556 S
C346 C349 1.378 . S
C346 H361 0.929 . S
C347 C346 1.362 1_554 S
C347 C348 1.366 . S
C348 C345 1.365 . S
C348 C347 1.366 . S
C348 H362 0.930 . S
C349 C346 1.378 . S
C349 N350 1.315 1_556 S
C349 H352 0.930 . S
N350 Co330 2.194 . S
N350 C345 1.328 . S
N350 C349 1.315 1_554 S
H351 C345 0.929 . S
H352 C349 0.930 . S
H353 C341 0.929 . S
H354 C343 0.929 . S
O355 Co330 2.351 . S
O355 C358 1.244 . S
O356 Co330 2.155 . S
O356 C358 1.240 . S
O357 Co330 2.096 1_556 S
O357 C338 1.247 . S
C358 O355 1.244 . S
C358 O356 1.240 . S
H359 C333 0.931 . S
H360 C342 0.931 . S
H361 C346 0.929 . S
H362 C348 0.930 . S
Co363 N367 2.148 . S
Co363 N373 2.128 1_554 S
Co363 N383 2.194 . S
Co363 O388 2.351 . S
Co363 O389 2.155 . S
Co363 O390 2.096 1_554 S
C364 N367 1.301 . S
C364 N368 1.328 . S
C364 H369 0.930 . S
C365 C366 1.333 . S
C365 N367 1.317 . S
C365 H370 0.930 . S
C366 C365 1.333 . S
C366 N368 1.350 . S
C366 H392 0.931 . S
N367 Co363 2.148 . S
N367 C364 1.301 . S
N367 C365 1.317 . S
N368 C364 1.328 . S
N368 C366 1.350 . S
H369 C364 0.930 . S
H370 C365 0.930 . S
C371 O372 1.224 . S
C371 O390 1.247 . S
O372 C371 1.224 . S
N373 Co363 2.128 1_556 S
N373 C374 1.355 . S
N373 C376 1.311 . S
C374 N373 1.355 . S
C374 C375 1.363 . S
C374 H386 0.929 . S
C375 C374 1.363 . S
C375 N377 1.375 . S
C375 H393 0.931 . S
C376 N373 1.311 . S
C376 N377 1.347 . S
C376 H387 0.929 . S
N377 C375 1.375 . S
N377 C376 1.347 . S
C378 C381 1.365 . S
C378 N383 1.328 . S
C378 H384 0.929 . S
C379 C380 1.362 1_556 S
C379 C382 1.378 . S
C379 H394 0.929 . S
C380 C379 1.362 1_554 S
C380 C381 1.366 . S
C381 C378 1.365 . S
C381 C380 1.366 . S
C381 H395 0.930 . S
C382 C379 1.378 . S
C382 N383 1.315 1_556 S
C382 H385 0.930 . S
N383 Co363 2.194 . S
N383 C378 1.328 . S
N383 C382 1.315 1_554 S
H384 C378 0.929 . S
H385 C382 0.930 . S
H386 C374 0.929 . S
H387 C376 0.929 . S
O388 Co363 2.351 . S
O388 C391 1.244 . S
O389 Co363 2.155 . S
O389 C391 1.240 . S
O390 Co363 2.096 1_556 S
O390 C371 1.247 . S
C391 O388 1.244 . S
C391 O389 1.240 . S
H392 C366 0.931 . S
H393 C375 0.931 . S
H394 C379 0.929 . S
H395 C381 0.930 . S
Co396 N400 2.148 . S
Co396 N406 2.128 . S
Co396 N416 2.194 . S
Co396 O421 2.351 . S
Co396 O422 2.155 . S
Co396 O423 2.096 . S
C397 N400 1.301 . S
C397 N401 1.328 . S
C397 H402 0.930 . S
C398 C399 1.333 . S
C398 N400 1.317 . S
C398 H403 0.930 . S
C399 C398 1.333 . S
C399 N401 1.350 . S
C399 H425 0.931 . S
N400 Co396 2.148 . S
N400 C397 1.301 . S
N400 C398 1.317 . S
N401 C397 1.328 . S
N401 C399 1.350 . S
H402 C397 0.930 . S
H403 C398 0.930 . S
C404 O405 1.224 . S
C404 O423 1.247 . S
O405 C404 1.224 . S
N406 Co396 2.128 . S
N406 C407 1.355 . S
N406 C409 1.311 . S
C407 N406 1.355 . S
C407 C408 1.363 . S
C407 H419 0.929 . S
C408 C407 1.363 . S
C408 N410 1.375 . S
C408 H426 0.931 . S
C409 N406 1.311 . S
C409 N410 1.347 . S
C409 H420 0.929 . S
N410 C408 1.375 . S
N410 C409 1.347 . S
C411 C414 1.365 . S
C411 N416 1.328 . S
C411 H417 0.929 . S
C412 C413 1.362 . S
C412 C415 1.378 . S
C412 H427 0.929 . S
C413 C412 1.362 . S
C413 C414 1.366 . S
C414 C411 1.365 . S
C414 C413 1.366 . S
C414 H428 0.930 . S
C415 C412 1.378 . S
C415 N416 1.315 . S
C415 H418 0.930 . S
N416 Co396 2.194 . S
N416 C411 1.328 . S
N416 C415 1.315 . S
H417 C411 0.929 . S
H418 C415 0.930 . S
H419 C407 0.929 . S
H420 C409 0.929 . S
O421 Co396 2.351 . S
O421 C424 1.244 . S
O422 Co396 2.155 . S
O422 C424 1.240 . S
O423 Co396 2.096 . S
O423 C404 1.247 . S
C424 O421 1.244 . S
C424 O422 1.240 . S
H425 C399 0.931 . S
H426 C408 0.931 . S
H427 C412 0.929 . S
H428 C414 0.930 . S
Co429 N433 2.148 . S
Co429 N439 2.128 . S
Co429 N449 2.194 . S
Co429 O454 2.351 . S
Co429 O455 2.155 . S
Co429 O456 2.096 . S
C430 N433 1.301 . S
C430 N434 1.328 . S
C430 H435 0.930 . S
C431 C432 1.333 . S
C431 N433 1.317 . S
C431 H436 0.930 . S
C432 C431 1.333 . S
C432 N434 1.350 . S
C432 H458 0.931 . S
N433 Co429 2.148 . S
N433 C430 1.301 . S
N433 C431 1.317 . S
N434 C430 1.328 . S
N434 C432 1.350 . S
H435 C430 0.930 . S
H436 C431 0.930 . S
C437 O438 1.224 . S
C437 O456 1.247 . S
O438 C437 1.224 . S
N439 Co429 2.128 . S
N439 C440 1.355 . S
N439 C442 1.311 . S
C440 N439 1.355 . S
C440 C441 1.363 . S
C440 H452 0.929 . S
C441 C440 1.363 . S
C441 N443 1.375 . S
C441 H459 0.931 . S
C442 N439 1.311 . S
C442 N443 1.347 . S
C442 H453 0.929 . S
N443 C441 1.375 . S
N443 C442 1.347 . S
C444 C447 1.365 . S
C444 N449 1.328 . S
C444 H450 0.929 . S
C445 C446 1.362 . S
C445 C448 1.378 . S
C445 H460 0.929 . S
C446 C445 1.362 . S
C446 C447 1.366 . S
C447 C444 1.365 . S
C447 C446 1.366 . S
C447 H461 0.930 . S
C448 C445 1.378 . S
C448 N449 1.315 . S
C448 H451 0.930 . S
N449 Co429 2.194 . S
N449 C444 1.328 . S
N449 C448 1.315 . S
H450 C444 0.929 . S
H451 C448 0.930 . S
H452 C440 0.929 . S
H453 C442 0.929 . S
O454 Co429 2.351 . S
O454 C457 1.244 . S
O455 Co429 2.155 . S
O455 C457 1.240 . S
O456 Co429 2.096 . S
O456 C437 1.247 . S
C457 O454 1.244 . S
C457 O455 1.240 . S
H458 C432 0.931 . S
H459 C441 0.931 . S
H460 C445 0.929 . S
H461 C447 0.930 . S
Co462 N466 2.148 . S
Co462 N472 2.128 . S
Co462 N482 2.194 . S
Co462 O487 2.351 . S
Co462 O488 2.155 . S
Co462 O489 2.096 . S
C463 N466 1.301 . S
C463 N467 1.328 . S
C463 H468 0.930 . S
C464 C465 1.333 . S
C464 N466 1.317 . S
C464 H469 0.930 . S
C465 C464 1.333 . S
C465 N467 1.350 . S
C465 H491 0.931 . S
N466 Co462 2.148 . S
N466 C463 1.301 . S
N466 C464 1.317 . S
N467 C463 1.328 . S
N467 C465 1.350 . S
H468 C463 0.930 . S
H469 C464 0.930 . S
C470 O471 1.224 . S
C470 O489 1.247 . S
O471 C470 1.224 . S
N472 Co462 2.128 . S
N472 C473 1.355 . S
N472 C475 1.311 . S
C473 N472 1.355 . S
C473 C474 1.363 . S
C473 H485 0.929 . S
C474 C473 1.363 . S
C474 N476 1.375 . S
C474 H492 0.931 . S
C475 N472 1.311 . S
C475 N476 1.347 . S
C475 H486 0.929 . S
N476 C474 1.375 . S
N476 C475 1.347 . S
C477 C480 1.365 . S
C477 N482 1.328 . S
C477 H483 0.929 . S
C478 C479 1.362 . S
C478 C481 1.378 . S
C478 H493 0.929 . S
C479 C478 1.362 . S
C479 C480 1.366 . S
C480 C477 1.365 . S
C480 C479 1.366 . S
C480 H494 0.930 . S
C481 C478 1.378 . S
C481 N482 1.315 . S
C481 H484 0.930 . S
N482 Co462 2.194 . S
N482 C477 1.328 . S
N482 C481 1.315 . S
H483 C477 0.929 . S
H484 C481 0.930 . S
H485 C473 0.929 . S
H486 C475 0.929 . S
O487 Co462 2.351 . S
O487 C490 1.244 . S
O488 Co462 2.155 . S
O488 C490 1.240 . S
O489 Co462 2.096 . S
O489 C470 1.247 . S
C490 O487 1.244 . S
C490 O488 1.240 . S
H491 C465 0.931 . S
H492 C474 0.931 . S
H493 C478 0.929 . S
H494 C480 0.930 . S
Co495 N499 2.148 . S
Co495 N505 2.128 . S
Co495 N515 2.194 . S
Co495 O520 2.351 . S
Co495 O521 2.155 . S
Co495 O522 2.096 . S
C496 N499 1.301 . S
C496 N500 1.328 . S
C496 H501 0.930 . S
C497 C498 1.333 . S
C497 N499 1.317 . S
C497 H502 0.930 . S
C498 C497 1.333 . S
C498 N500 1.350 . S
C498 H524 0.931 . S
N499 Co495 2.148 . S
N499 C496 1.301 . S
N499 C497 1.317 . S
N500 C496 1.328 . S
N500 C498 1.350 . S
H501 C496 0.930 . S
H502 C497 0.930 . S
C503 O504 1.224 . S
C503 O522 1.247 . S
O504 C503 1.224 . S
N505 Co495 2.128 . S
N505 C506 1.355 . S
N505 C508 1.311 . S
C506 N505 1.355 . S
C506 C507 1.363 . S
C506 H518 0.929 . S
C507 C506 1.363 . S
C507 N509 1.375 . S
C507 H525 0.931 . S
C508 N505 1.311 . S
C508 N509 1.347 . S
C508 H519 0.929 . S
N509 C507 1.375 . S
N509 C508 1.347 . S
C510 C513 1.365 . S
C510 N515 1.328 . S
C510 H516 0.929 . S
C511 C512 1.362 . S
C511 C514 1.378 . S
C511 H526 0.929 . S
C512 C511 1.362 . S
C512 C513 1.366 . S
C513 C510 1.365 . S
C513 C512 1.366 . S
C513 H527 0.930 . S
C514 C511 1.378 . S
C514 N515 1.315 . S
C514 H517 0.930 . S
N515 Co495 2.194 . S
N515 C510 1.328 . S
N515 C514 1.315 . S
H516 C510 0.929 . S
H517 C514 0.930 . S
H518 C506 0.929 . S
H519 C508 0.929 . S
O520 Co495 2.351 . S
O520 C523 1.244 . S
O521 Co495 2.155 . S
O521 C523 1.240 . S
O522 Co495 2.096 . S
O522 C503 1.247 . S
C523 O520 1.244 . S
C523 O521 1.240 . S
H524 C498 0.931 . S
H525 C507 0.931 . S
H526 C511 0.929 . S
H527 C513 0.930 . S
Co528 N532 2.148 . S
Co528 N538 2.128 . S
Co528 N548 2.194 . S
Co528 O553 2.351 . S
Co528 O554 2.155 . S
Co528 O555 2.096 . S
C529 N532 1.301 . S
C529 N533 1.328 . S
C529 H534 0.930 . S
C530 C531 1.333 . S
C530 N532 1.317 . S
C530 H535 0.930 . S
C531 C530 1.333 . S
C531 N533 1.350 . S
C531 H557 0.931 . S
N532 Co528 2.148 . S
N532 C529 1.301 . S
N532 C530 1.317 . S
N533 C529 1.328 . S
N533 C531 1.350 . S
H534 C529 0.930 . S
H535 C530 0.930 . S
C536 O537 1.224 . S
C536 O555 1.247 . S
O537 C536 1.224 . S
N538 Co528 2.128 . S
N538 C539 1.355 . S
N538 C541 1.311 . S
C539 N538 1.355 . S
C539 C540 1.363 . S
C539 H551 0.929 . S
C540 C539 1.363 . S
C540 N542 1.375 . S
C540 H558 0.931 . S
C541 N538 1.311 . S
C541 N542 1.347 . S
C541 H552 0.929 . S
N542 C540 1.375 . S
N542 C541 1.347 . S
C543 C546 1.365 . S
C543 N548 1.328 . S
C543 H549 0.929 . S
C544 C545 1.362 . S
C544 C547 1.378 . S
C544 H559 0.929 . S
C545 C544 1.362 . S
C545 C546 1.366 . S
C546 C543 1.365 . S
C546 C545 1.366 . S
C546 H560 0.930 . S
C547 C544 1.378 . S
C547 N548 1.315 . S
C547 H550 0.930 . S
N548 Co528 2.194 . S
N548 C543 1.328 . S
N548 C547 1.315 . S
H549 C543 0.929 . S
H550 C547 0.930 . S
H551 C539 0.929 . S
H552 C541 0.929 . S
O553 Co528 2.351 . S
O553 C556 1.244 . S
O554 Co528 2.155 . S
O554 C556 1.240 . S
O555 Co528 2.096 . S
O555 C536 1.247 . S
C556 O553 1.244 . S
C556 O554 1.240 . S
H557 C531 0.931 . S
H558 C540 0.931 . S
H559 C544 0.929 . S
H560 C546 0.930 . S
Co561 N565 2.148 . S
Co561 N571 2.128 . S
Co561 N581 2.194 . S
Co561 O586 2.351 . S
Co561 O587 2.155 . S
Co561 O588 2.096 . S
C562 N565 1.301 . S
C562 N566 1.328 . S
C562 H567 0.930 . S
C563 C564 1.333 . S
C563 N565 1.317 . S
C563 H568 0.930 . S
C564 C563 1.333 . S
C564 N566 1.350 . S
C564 H590 0.931 . S
N565 Co561 2.148 . S
N565 C562 1.301 . S
N565 C563 1.317 . S
N566 C562 1.328 . S
N566 C564 1.350 . S
H567 C562 0.930 . S
H568 C563 0.930 . S
C569 O570 1.224 . S
C569 O588 1.247 . S
O570 C569 1.224 . S
N571 Co561 2.128 . S
N571 C572 1.355 . S
N571 C574 1.311 . S
C572 N571 1.355 . S
C572 C573 1.363 . S
C572 H584 0.929 . S
C573 C572 1.363 . S
C573 N575 1.375 . S
C573 H591 0.931 . S
C574 N571 1.311 . S
C574 N575 1.347 . S
C574 H585 0.929 . S
N575 C573 1.375 . S
N575 C574 1.347 . S
C576 C579 1.365 . S
C576 N581 1.328 . S
C576 H582 0.929 . S
C577 C578 1.362 . S
C577 C580 1.378 . S
C577 H592 0.929 . S
C578 C577 1.362 . S
C578 C579 1.366 . S
C579 C576 1.365 . S
C579 C578 1.366 . S
C579 H593 0.930 . S
C580 C577 1.378 . S
C580 N581 1.315 . S
C580 H583 0.930 . S
N581 Co561 2.194 . S
N581 C576 1.328 . S
N581 C580 1.315 . S
H582 C576 0.929 . S
H583 C580 0.930 . S
H584 C572 0.929 . S
H585 C574 0.929 . S
O586 Co561 2.351 . S
O586 C589 1.244 . S
O587 Co561 2.155 . S
O587 C589 1.240 . S
O588 Co561 2.096 . S
O588 C569 1.247 . S
C589 O586 1.244 . S
C589 O587 1.240 . S
H590 C564 0.931 . S
H591 C573 0.931 . S
H592 C577 0.929 . S
H593 C579 0.930 . S
Co594 N598 2.148 . S
Co594 N604 2.128 . S
Co594 N614 2.194 . S
Co594 O619 2.351 . S
Co594 O620 2.155 . S
Co594 O621 2.096 . S
C595 N598 1.301 . S
C595 N599 1.328 . S
C595 H600 0.930 . S
C596 C597 1.333 . S
C596 N598 1.317 . S
C596 H601 0.930 . S
C597 C596 1.333 . S
C597 N599 1.350 . S
C597 H623 0.931 . S
N598 Co594 2.148 . S
N598 C595 1.301 . S
N598 C596 1.317 . S
N599 C595 1.328 . S
N599 C597 1.350 . S
H600 C595 0.930 . S
H601 C596 0.930 . S
C602 O603 1.224 . S
C602 O621 1.247 . S
O603 C602 1.224 . S
N604 Co594 2.128 . S
N604 C605 1.355 . S
N604 C607 1.311 . S
C605 N604 1.355 . S
C605 C606 1.363 . S
C605 H617 0.929 . S
C606 C605 1.363 . S
C606 N608 1.375 . S
C606 H624 0.931 . S
C607 N604 1.311 . S
C607 N608 1.347 . S
C607 H618 0.929 . S
N608 C606 1.375 . S
N608 C607 1.347 . S
C609 C612 1.365 . S
C609 N614 1.328 . S
C609 H615 0.929 . S
C610 C611 1.362 . S
C610 C613 1.378 . S
C610 H625 0.929 . S
C611 C610 1.362 . S
C611 C612 1.366 . S
C612 C609 1.365 . S
C612 C611 1.366 . S
C612 H626 0.930 . S
C613 C610 1.378 . S
C613 N614 1.315 . S
C613 H616 0.930 . S
N614 Co594 2.194 . S
N614 C609 1.328 . S
N614 C613 1.315 . S
H615 C609 0.929 . S
H616 C613 0.930 . S
H617 C605 0.929 . S
H618 C607 0.929 . S
O619 Co594 2.351 . S
O619 C622 1.244 . S
O620 Co594 2.155 . S
O620 C622 1.240 . S
O621 Co594 2.096 . S
O621 C602 1.247 . S
C622 O619 1.244 . S
C622 O620 1.240 . S
H623 C597 0.931 . S
H624 C606 0.931 . S
H625 C610 0.929 . S
H626 C612 0.930 . S
Co627 N631 2.148 . S
Co627 N637 2.128 . S
Co627 N647 2.194 . S
Co627 O652 2.351 . S
Co627 O653 2.155 . S
Co627 O654 2.096 . S
C628 N631 1.301 . S
C628 N632 1.328 . S
C628 H633 0.930 . S
C629 C630 1.333 . S
C629 N631 1.317 . S
C629 H634 0.930 . S
C630 C629 1.333 . S
C630 N632 1.350 . S
C630 H656 0.931 . S
N631 Co627 2.148 . S
N631 C628 1.301 . S
N631 C629 1.317 . S
N632 C628 1.328 . S
N632 C630 1.350 . S
H633 C628 0.930 . S
H634 C629 0.930 . S
C635 O636 1.224 . S
C635 O654 1.247 . S
O636 C635 1.224 . S
N637 Co627 2.128 . S
N637 C638 1.355 . S
N637 C640 1.311 . S
C638 N637 1.355 . S
C638 C639 1.363 . S
C638 H650 0.929 . S
C639 C638 1.363 . S
C639 N641 1.375 . S
C639 H657 0.931 . S
C640 N637 1.311 . S
C640 N641 1.347 . S
C640 H651 0.929 . S
N641 C639 1.375 . S
N641 C640 1.347 . S
C642 C645 1.365 . S
C642 N647 1.328 . S
C642 H648 0.929 . S
C643 C644 1.362 . S
C643 C646 1.378 . S
C643 H658 0.929 . S
C644 C643 1.362 . S
C644 C645 1.366 . S
C645 C642 1.365 . S
C645 C644 1.366 . S
C645 H659 0.930 . S
C646 C643 1.378 . S
C646 N647 1.315 . S
C646 H649 0.930 . S
N647 Co627 2.194 . S
N647 C642 1.328 . S
N647 C646 1.315 . S
H648 C642 0.929 . S
H649 C646 0.930 . S
H650 C638 0.929 . S
H651 C640 0.929 . S
O652 Co627 2.351 . S
O652 C655 1.244 . S
O653 Co627 2.155 . S
O653 C655 1.240 . S
O654 Co627 2.096 . S
O654 C635 1.247 . S
C655 O652 1.244 . S
C655 O653 1.240 . S
H656 C630 0.931 . S
H657 C639 0.931 . S
H658 C643 0.929 . S
H659 C645 0.930 . S
Co660 N664 2.148 . S
Co660 N670 2.128 . S
Co660 N680 2.194 . S
Co660 O685 2.351 . S
Co660 O686 2.155 . S
Co660 O687 2.096 . S
C661 N664 1.301 . S
C661 N665 1.328 . S
C661 H666 0.930 . S
C662 C663 1.333 . S
C662 N664 1.317 . S
C662 H667 0.930 . S
C663 C662 1.333 . S
C663 N665 1.350 . S
C663 H689 0.931 . S
N664 Co660 2.148 . S
N664 C661 1.301 . S
N664 C662 1.317 . S
N665 C661 1.328 . S
N665 C663 1.350 . S
H666 C661 0.930 . S
H667 C662 0.930 . S
C668 O669 1.224 . S
C668 O687 1.247 . S
O669 C668 1.224 . S
N670 Co660 2.128 . S
N670 C671 1.355 . S
N670 C673 1.311 . S
C671 N670 1.355 . S
C671 C672 1.363 . S
C671 H683 0.929 . S
C672 C671 1.363 . S
C672 N674 1.375 . S
C672 H690 0.931 . S
C673 N670 1.311 . S
C673 N674 1.347 . S
C673 H684 0.929 . S
N674 C672 1.375 . S
N674 C673 1.347 . S
C675 C678 1.365 . S
C675 N680 1.328 . S
C675 H681 0.929 . S
C676 C677 1.362 . S
C676 C679 1.378 . S
C676 H691 0.929 . S
C677 C676 1.362 . S
C677 C678 1.366 . S
C678 C675 1.365 . S
C678 C677 1.366 . S
C678 H692 0.930 . S
C679 C676 1.378 . S
C679 N680 1.315 . S
C679 H682 0.930 . S
N680 Co660 2.194 . S
N680 C675 1.328 . S
N680 C679 1.315 . S
H681 C675 0.929 . S
H682 C679 0.930 . S
H683 C671 0.929 . S
H684 C673 0.929 . S
O685 Co660 2.351 . S
O685 C688 1.244 . S
O686 Co660 2.155 . S
O686 C688 1.240 . S
O687 Co660 2.096 . S
O687 C668 1.247 . S
C688 O685 1.244 . S
C688 O686 1.240 . S
H689 C663 0.931 . S
H690 C672 0.931 . S
H691 C676 0.929 . S
H692 C678 0.930 . S
Co693 N697 2.148 . S
Co693 N703 2.128 . S
Co693 N713 2.194 . S
Co693 O718 2.351 . S
Co693 O719 2.155 . S
Co693 O720 2.096 . S
C694 N697 1.301 . S
C694 N698 1.328 . S
C694 H699 0.930 . S
C695 C696 1.333 . S
C695 N697 1.317 . S
C695 H700 0.930 . S
C696 C695 1.333 . S
C696 N698 1.350 . S
C696 H722 0.931 . S
N697 Co693 2.148 . S
N697 C694 1.301 . S
N697 C695 1.317 . S
N698 C694 1.328 . S
N698 C696 1.350 . S
H699 C694 0.930 . S
H700 C695 0.930 . S
C701 O702 1.224 . S
C701 O720 1.247 . S
O702 C701 1.224 . S
N703 Co693 2.128 . S
N703 C704 1.355 . S
N703 C706 1.311 . S
C704 N703 1.355 . S
C704 C705 1.363 . S
C704 H716 0.929 . S
C705 C704 1.363 . S
C705 N707 1.375 . S
C705 H723 0.931 . S
C706 N703 1.311 . S
C706 N707 1.347 . S
C706 H717 0.929 . S
N707 C705 1.375 . S
N707 C706 1.347 . S
C708 C711 1.365 . S
C708 N713 1.328 . S
C708 H714 0.929 . S
C709 C710 1.362 . S
C709 C712 1.378 . S
C709 H724 0.929 . S
C710 C709 1.362 . S
C710 C711 1.366 . S
C711 C708 1.365 . S
C711 C710 1.366 . S
C711 H725 0.930 . S
C712 C709 1.378 . S
C712 N713 1.315 . S
C712 H715 0.930 . S
N713 Co693 2.194 . S
N713 C708 1.328 . S
N713 C712 1.315 . S
H714 C708 0.929 . S
H715 C712 0.930 . S
H716 C704 0.929 . S
H717 C706 0.929 . S
O718 Co693 2.351 . S
O718 C721 1.244 . S
O719 Co693 2.155 . S
O719 C721 1.240 . S
O720 Co693 2.096 . S
O720 C701 1.247 . S
C721 O718 1.244 . S
C721 O719 1.240 . S
H722 C696 0.931 . S
H723 C705 0.931 . S
H724 C709 0.929 . S
H725 C711 0.930 . S
Co726 N730 2.148 . S
Co726 N736 2.128 . S
Co726 N746 2.194 . S
Co726 O751 2.351 . S
Co726 O752 2.155 . S
Co726 O753 2.096 . S
C727 N730 1.301 . S
C727 N731 1.328 . S
C727 H732 0.930 . S
C728 C729 1.333 . S
C728 N730 1.317 . S
C728 H733 0.930 . S
C729 C728 1.333 . S
C729 N731 1.350 . S
C729 H755 0.931 . S
N730 Co726 2.148 . S
N730 C727 1.301 . S
N730 C728 1.317 . S
N731 C727 1.328 . S
N731 C729 1.350 . S
H732 C727 0.930 . S
H733 C728 0.930 . S
C734 O735 1.224 . S
C734 O753 1.247 . S
O735 C734 1.224 . S
N736 Co726 2.128 . S
N736 C737 1.355 . S
N736 C739 1.311 . S
C737 N736 1.355 . S
C737 C738 1.363 . S
C737 H749 0.929 . S
C738 C737 1.363 . S
C738 N740 1.375 . S
C738 H756 0.931 . S
C739 N736 1.311 . S
C739 N740 1.347 . S
C739 H750 0.929 . S
N740 C738 1.375 . S
N740 C739 1.347 . S
C741 C744 1.365 . S
C741 N746 1.328 . S
C741 H747 0.929 . S
C742 C743 1.362 . S
C742 C745 1.378 . S
C742 H757 0.929 . S
C743 C742 1.362 . S
C743 C744 1.366 . S
C744 C741 1.365 . S
C744 C743 1.366 . S
C744 H758 0.930 . S
C745 C742 1.378 . S
C745 N746 1.315 . S
C745 H748 0.930 . S
N746 Co726 2.194 . S
N746 C741 1.328 . S
N746 C745 1.315 . S
H747 C741 0.929 . S
H748 C745 0.930 . S
H749 C737 0.929 . S
H750 C739 0.929 . S
O751 Co726 2.351 . S
O751 C754 1.244 . S
O752 Co726 2.155 . S
O752 C754 1.240 . S
O753 Co726 2.096 . S
O753 C734 1.247 . S
C754 O751 1.244 . S
C754 O752 1.240 . S
H755 C729 0.931 . S
H756 C738 0.931 . S
H757 C742 0.929 . S
H758 C744 0.930 . S
Co759 N763 2.148 . S
Co759 N769 2.128 . S
Co759 N779 2.194 . S
Co759 O784 2.351 . S
Co759 O785 2.155 . S
Co759 O786 2.096 . S
C760 N763 1.301 . S
C760 N764 1.328 . S
C760 H765 0.930 . S
C761 C762 1.333 . S
C761 N763 1.317 . S
C761 H766 0.930 . S
C762 C761 1.333 . S
C762 N764 1.350 . S
C762 H788 0.931 . S
N763 Co759 2.148 . S
N763 C760 1.301 . S
N763 C761 1.317 . S
N764 C760 1.328 . S
N764 C762 1.350 . S
H765 C760 0.930 . S
H766 C761 0.930 . S
C767 O768 1.224 . S
C767 O786 1.247 . S
O768 C767 1.224 . S
N769 Co759 2.128 . S
N769 C770 1.355 . S
N769 C772 1.311 . S
C770 N769 1.355 . S
C770 C771 1.363 . S
C770 H782 0.929 . S
C771 C770 1.363 . S
C771 N773 1.375 . S
C771 H789 0.931 . S
C772 N769 1.311 . S
C772 N773 1.347 . S
C772 H783 0.929 . S
N773 C771 1.375 . S
N773 C772 1.347 . S
C774 C777 1.365 . S
C774 N779 1.328 . S
C774 H780 0.929 . S
C775 C776 1.362 . S
C775 C778 1.378 . S
C775 H790 0.929 . S
C776 C775 1.362 . S
C776 C777 1.366 . S
C777 C774 1.365 . S
C777 C776 1.366 . S
C777 H791 0.930 . S
C778 C775 1.378 . S
C778 N779 1.315 . S
C778 H781 0.930 . S
N779 Co759 2.194 . S
N779 C774 1.328 . S
N779 C778 1.315 . S
H780 C774 0.929 . S
H781 C778 0.930 . S
H782 C770 0.929 . S
H783 C772 0.929 . S
O784 Co759 2.351 . S
O784 C787 1.244 . S
O785 Co759 2.155 . S
O785 C787 1.240 . S
O786 Co759 2.096 . S
O786 C767 1.247 . S
C787 O784 1.244 . S
C787 O785 1.240 . S
H788 C762 0.931 . S
H789 C771 0.931 . S
H790 C775 0.929 . S
H791 C777 0.930 . S
Co792 N796 2.148 . S
Co792 N802 2.128 . S
Co792 N812 2.194 . S
Co792 O817 2.351 . S
Co792 O818 2.155 . S
Co792 O819 2.096 . S
C793 N796 1.301 . S
C793 N797 1.328 . S
C793 H798 0.930 . S
C794 C795 1.333 . S
C794 N796 1.317 . S
C794 H799 0.930 . S
C795 C794 1.333 . S
C795 N797 1.350 . S
C795 H821 0.931 . S
N796 Co792 2.148 . S
N796 C793 1.301 . S
N796 C794 1.317 . S
N797 C793 1.328 . S
N797 C795 1.350 . S
H798 C793 0.930 . S
H799 C794 0.930 . S
C800 O801 1.224 . S
C800 O819 1.247 . S
O801 C800 1.224 . S
N802 Co792 2.128 . S
N802 C803 1.355 . S
N802 C805 1.311 . S
C803 N802 1.355 . S
C803 C804 1.363 . S
C803 H815 0.929 . S
C804 C803 1.363 . S
C804 N806 1.375 . S
C804 H822 0.931 . S
C805 N802 1.311 . S
C805 N806 1.347 . S
C805 H816 0.929 . S
N806 C804 1.375 . S
N806 C805 1.347 . S
C807 C810 1.365 . S
C807 N812 1.328 . S
C807 H813 0.929 . S
C808 C809 1.362 . S
C808 C811 1.378 . S
C808 H823 0.929 . S
C809 C808 1.362 . S
C809 C810 1.366 . S
C810 C807 1.365 . S
C810 C809 1.366 . S
C810 H824 0.930 . S
C811 C808 1.378 . S
C811 N812 1.315 . S
C811 H814 0.930 . S
N812 Co792 2.194 . S
N812 C807 1.328 . S
N812 C811 1.315 . S
H813 C807 0.929 . S
H814 C811 0.930 . S
H815 C803 0.929 . S
H816 C805 0.929 . S
O817 Co792 2.351 . S
O817 C820 1.244 . S
O818 Co792 2.155 . S
O818 C820 1.240 . S
O819 Co792 2.096 . S
O819 C800 1.247 . S
C820 O817 1.244 . S
C820 O818 1.240 . S
H821 C795 0.931 . S
H822 C804 0.931 . S
H823 C808 0.929 . S
H824 C810 0.930 . S
Co825 N829 2.148 . S
Co825 N835 2.128 . S
Co825 N845 2.194 . S
Co825 O850 2.351 . S
Co825 O851 2.155 . S
Co825 O852 2.096 . S
C826 N829 1.301 . S
C826 N830 1.328 . S
C826 H831 0.930 . S
C827 C828 1.333 . S
C827 N829 1.317 . S
C827 H832 0.930 . S
C828 C827 1.333 . S
C828 N830 1.350 . S
C828 H854 0.931 . S
N829 Co825 2.148 . S
N829 C826 1.301 . S
N829 C827 1.317 . S
N830 C826 1.328 . S
N830 C828 1.350 . S
H831 C826 0.930 . S
H832 C827 0.930 . S
C833 O834 1.224 . S
C833 O852 1.247 . S
O834 C833 1.224 . S
N835 Co825 2.128 . S
N835 C836 1.355 . S
N835 C838 1.311 . S
C836 N835 1.355 . S
C836 C837 1.363 . S
C836 H848 0.929 . S
C837 C836 1.363 . S
C837 N839 1.375 . S
C837 H855 0.931 . S
C838 N835 1.311 . S
C838 N839 1.347 . S
C838 H849 0.929 . S
N839 C837 1.375 . S
N839 C838 1.347 . S
C840 C843 1.365 . S
C840 N845 1.328 . S
C840 H846 0.929 . S
C841 C842 1.362 . S
C841 C844 1.378 . S
C841 H856 0.929 . S
C842 C841 1.362 . S
C842 C843 1.366 . S
C843 C840 1.365 . S
C843 C842 1.366 . S
C843 H857 0.930 . S
C844 C841 1.378 . S
C844 N845 1.315 . S
C844 H847 0.930 . S
N845 Co825 2.194 . S
N845 C840 1.328 . S
N845 C844 1.315 . S
H846 C840 0.929 . S
H847 C844 0.930 . S
H848 C836 0.929 . S
H849 C838 0.929 . S
O850 Co825 2.351 . S
O850 C853 1.244 . S
O851 Co825 2.155 . S
O851 C853 1.240 . S
O852 Co825 2.096 . S
O852 C833 1.247 . S
C853 O850 1.244 . S
C853 O851 1.240 . S
H854 C828 0.931 . S
H855 C837 0.931 . S
H856 C841 0.929 . S
H857 C843 0.930 . S
Co858 N862 2.148 . S
Co858 N868 2.128 . S
Co858 N878 2.194 . S
Co858 O883 2.351 . S
Co858 O884 2.155 . S
Co858 O885 2.096 . S
C859 N862 1.301 . S
C859 N863 1.328 . S
C859 H864 0.930 . S
C860 C861 1.333 . S
C860 N862 1.317 . S
C860 H865 0.930 . S
C861 C860 1.333 . S
C861 N863 1.350 . S
C861 H887 0.931 . S
N862 Co858 2.148 . S
N862 C859 1.301 . S
N862 C860 1.317 . S
N863 C859 1.328 . S
N863 C861 1.350 . S
H864 C859 0.930 . S
H865 C860 0.930 . S
C866 O867 1.224 . S
C866 O885 1.247 . S
O867 C866 1.224 . S
N868 Co858 2.128 . S
N868 C869 1.355 . S
N868 C871 1.311 . S
C869 N868 1.355 . S
C869 C870 1.363 . S
C869 H881 0.929 . S
C870 C869 1.363 . S
C870 N872 1.375 . S
C870 H888 0.931 . S
C871 N868 1.311 . S
C871 N872 1.347 . S
C871 H882 0.929 . S
N872 C870 1.375 . S
N872 C871 1.347 . S
C873 C876 1.365 . S
C873 N878 1.328 . S
C873 H879 0.929 . S
C874 C875 1.362 . S
C874 C877 1.378 . S
C874 H889 0.929 . S
C875 C874 1.362 . S
C875 C876 1.366 . S
C876 C873 1.365 . S
C876 C875 1.366 . S
C876 H890 0.930 . S
C877 C874 1.378 . S
C877 N878 1.315 . S
C877 H880 0.930 . S
N878 Co858 2.194 . S
N878 C873 1.328 . S
N878 C877 1.315 . S
H879 C873 0.929 . S
H880 C877 0.930 . S
H881 C869 0.929 . S
H882 C871 0.929 . S
O883 Co858 2.351 . S
O883 C886 1.244 . S
O884 Co858 2.155 . S
O884 C886 1.240 . S
O885 Co858 2.096 . S
O885 C866 1.247 . S
C886 O883 1.244 . S
C886 O884 1.240 . S
H887 C861 0.931 . S
H888 C870 0.931 . S
H889 C874 0.929 . S
H890 C876 0.930 . S
Co891 N895 2.148 . S
Co891 N901 2.128 . S
Co891 N911 2.194 . S
Co891 O916 2.351 . S
Co891 O917 2.155 . S
Co891 O918 2.096 . S
C892 N895 1.301 . S
C892 N896 1.328 . S
C892 H897 0.930 . S
C893 C894 1.333 . S
C893 N895 1.317 . S
C893 H898 0.930 . S
C894 C893 1.333 . S
C894 N896 1.350 . S
C894 H920 0.931 . S
N895 Co891 2.148 . S
N895 C892 1.301 . S
N895 C893 1.317 . S
N896 C892 1.328 . S
N896 C894 1.350 . S
H897 C892 0.930 . S
H898 C893 0.930 . S
C899 O900 1.224 . S
C899 O918 1.247 . S
O900 C899 1.224 . S
N901 Co891 2.128 . S
N901 C902 1.355 . S
N901 C904 1.311 . S
C902 N901 1.355 . S
C902 C903 1.363 . S
C902 H914 0.929 . S
C903 C902 1.363 . S
C903 N905 1.375 . S
C903 H921 0.931 . S
C904 N901 1.311 . S
C904 N905 1.347 . S
C904 H915 0.929 . S
N905 C903 1.375 . S
N905 C904 1.347 . S
C906 C909 1.365 . S
C906 N911 1.328 . S
C906 H912 0.929 . S
C907 C908 1.362 . S
C907 C910 1.378 . S
C907 H922 0.929 . S
C908 C907 1.362 . S
C908 C909 1.366 . S
C909 C906 1.365 . S
C909 C908 1.366 . S
C909 H923 0.930 . S
C910 C907 1.378 . S
C910 N911 1.315 . S
C910 H913 0.930 . S
N911 Co891 2.194 . S
N911 C906 1.328 . S
N911 C910 1.315 . S
H912 C906 0.929 . S
H913 C910 0.930 . S
H914 C902 0.929 . S
H915 C904 0.929 . S
O916 Co891 2.351 . S
O916 C919 1.244 . S
O917 Co891 2.155 . S
O917 C919 1.240 . S
O918 Co891 2.096 . S
O918 C899 1.247 . S
C919 O916 1.244 . S
C919 O917 1.240 . S
H920 C894 0.931 . S
H921 C903 0.931 . S
H922 C907 0.929 . S
H923 C909 0.930 . S
Co924 N928 2.148 . S
Co924 N934 2.128 . S
Co924 N944 2.194 . S
Co924 O949 2.351 . S
Co924 O950 2.155 . S
Co924 O951 2.096 . S
C925 N928 1.301 . S
C925 N929 1.328 . S
C925 H930 0.930 . S
C926 C927 1.333 . S
C926 N928 1.317 . S
C926 H931 0.930 . S
C927 C926 1.333 . S
C927 N929 1.350 . S
C927 H953 0.931 . S
N928 Co924 2.148 . S
N928 C925 1.301 . S
N928 C926 1.317 . S
N929 C925 1.328 . S
N929 C927 1.350 . S
H930 C925 0.930 . S
H931 C926 0.930 . S
C932 O933 1.224 . S
C932 O951 1.247 . S
O933 C932 1.224 . S
N934 Co924 2.128 . S
N934 C935 1.355 . S
N934 C937 1.311 . S
C935 N934 1.355 . S
C935 C936 1.363 . S
C935 H947 0.929 . S
C936 C935 1.363 . S
C936 N938 1.375 . S
C936 H954 0.931 . S
C937 N934 1.311 . S
C937 N938 1.347 . S
C937 H948 0.929 . S
N938 C936 1.375 . S
N938 C937 1.347 . S
C939 C942 1.365 . S
C939 N944 1.328 . S
C939 H945 0.929 . S
C940 C941 1.362 . S
C940 C943 1.378 . S
C940 H955 0.929 . S
C941 C940 1.362 . S
C941 C942 1.366 . S
C942 C939 1.365 . S
C942 C941 1.366 . S
C942 H956 0.930 . S
C943 C940 1.378 . S
C943 N944 1.315 . S
C943 H946 0.930 . S
N944 Co924 2.194 . S
N944 C939 1.328 . S
N944 C943 1.315 . S
H945 C939 0.929 . S
H946 C943 0.930 . S
H947 C935 0.929 . S
H948 C937 0.929 . S
O949 Co924 2.351 . S
O949 C952 1.244 . S
O950 Co924 2.155 . S
O950 C952 1.240 . S
O951 Co924 2.096 . S
O951 C932 1.247 . S
C952 O949 1.244 . S
C952 O950 1.240 . S
H953 C927 0.931 . S
H954 C936 0.931 . S
H955 C940 0.929 . S
H956 C942 0.930 . S
Co957 N961 2.148 . S
Co957 N967 2.128 . S
Co957 N977 2.194 . S
Co957 O982 2.351 . S
Co957 O983 2.155 . S
Co957 O984 2.096 . S
C958 N961 1.301 . S
C958 N962 1.328 . S
C958 H963 0.930 . S
C959 C960 1.333 . S
C959 N961 1.317 . S
C959 H964 0.930 . S
C960 C959 1.333 . S
C960 N962 1.350 . S
C960 H986 0.931 . S
N961 Co957 2.148 . S
N961 C958 1.301 . S
N961 C959 1.317 . S
N962 C958 1.328 . S
N962 C960 1.350 . S
H963 C958 0.930 . S
H964 C959 0.930 . S
C965 O966 1.224 . S
C965 O984 1.247 . S
O966 C965 1.224 . S
N967 Co957 2.128 . S
N967 C968 1.355 . S
N967 C970 1.311 . S
C968 N967 1.355 . S
C968 C969 1.363 . S
C968 H980 0.929 . S
C969 C968 1.363 . S
C969 N971 1.375 . S
C969 H987 0.931 . S
C970 N967 1.311 . S
C970 N971 1.347 . S
C970 H981 0.929 . S
N971 C969 1.375 . S
N971 C970 1.347 . S
C972 C975 1.365 . S
C972 N977 1.328 . S
C972 H978 0.929 . S
C973 C974 1.362 . S
C973 C976 1.378 . S
C973 H988 0.929 . S
C974 C973 1.362 . S
C974 C975 1.366 . S
C975 C972 1.365 . S
C975 C974 1.366 . S
C975 H989 0.930 . S
C976 C973 1.378 . S
C976 N977 1.315 . S
C976 H979 0.930 . S
N977 Co957 2.194 . S
N977 C972 1.328 . S
N977 C976 1.315 . S
H978 C972 0.929 . S
H979 C976 0.930 . S
H980 C968 0.929 . S
H981 C970 0.929 . S
O982 Co957 2.351 . S
O982 C985 1.244 . S
O983 Co957 2.155 . S
O983 C985 1.240 . S
O984 Co957 2.096 . S
O984 C965 1.247 . S
C985 O982 1.244 . S
C985 O983 1.240 . S
H986 C960 0.931 . S
H987 C969 0.931 . S
H988 C973 0.929 . S
H989 C975 0.930 . S
Co990 N994 2.148 . S
Co990 N1000 2.128 . S
Co990 N1010 2.194 . S
Co990 O1015 2.351 . S
Co990 O1016 2.155 . S
Co990 O1017 2.096 . S
C991 N994 1.301 . S
C991 N995 1.328 . S
C991 H996 0.930 . S
C992 C993 1.333 . S
C992 N994 1.317 . S
C992 H997 0.930 . S
C993 C992 1.333 . S
C993 N995 1.350 . S
C993 H1019 0.931 . S
N994 Co990 2.148 . S
N994 C991 1.301 . S
N994 C992 1.317 . S
N995 C991 1.328 . S
N995 C993 1.350 . S
H996 C991 0.930 . S
H997 C992 0.930 . S
C998 O999 1.224 . S
C998 O1017 1.247 . S
O999 C998 1.224 . S
N1000 Co990 2.128 . S
N1000 C1001 1.355 . S
N1000 C1003 1.311 . S
C1001 N1000 1.355 . S
C1001 C1002 1.363 . S
C1001 H1013 0.929 . S
C1002 C1001 1.363 . S
C1002 N1004 1.375 . S
C1002 H1020 0.931 . S
C1003 N1000 1.311 . S
C1003 N1004 1.347 . S
C1003 H1014 0.929 . S
N1004 C1002 1.375 . S
N1004 C1003 1.347 . S
C1005 C1008 1.365 . S
C1005 N1010 1.328 . S
C1005 H1011 0.929 . S
C1006 C1007 1.362 . S
C1006 C1009 1.378 . S
C1006 H1021 0.929 . S
C1007 C1006 1.362 . S
C1007 C1008 1.366 . S
C1008 C1005 1.365 . S
C1008 C1007 1.366 . S
C1008 H1022 0.930 . S
C1009 C1006 1.378 . S
C1009 N1010 1.315 . S
C1009 H1012 0.930 . S
N1010 Co990 2.194 . S
N1010 C1005 1.328 . S
N1010 C1009 1.315 . S
H1011 C1005 0.929 . S
H1012 C1009 0.930 . S
H1013 C1001 0.929 . S
H1014 C1003 0.929 . S
O1015 Co990 2.351 . S
O1015 C1018 1.244 . S
O1016 Co990 2.155 . S
O1016 C1018 1.240 . S
O1017 Co990 2.096 . S
O1017 C998 1.247 . S
C1018 O1015 1.244 . S
C1018 O1016 1.240 . S
H1019 C993 0.931 . S
H1020 C1002 0.931 . S
H1021 C1006 0.929 . S
H1022 C1008 0.930 . S
Co1023 N1027 2.148 . S
Co1023 N1033 2.128 . S
Co1023 N1043 2.194 . S
Co1023 O1048 2.351 . S
Co1023 O1049 2.155 . S
Co1023 O1050 2.096 . S
C1024 N1027 1.301 . S
C1024 N1028 1.328 . S
C1024 H1029 0.930 . S
C1025 C1026 1.333 . S
C1025 N1027 1.317 . S
C1025 H1030 0.930 . S
C1026 C1025 1.333 . S
C1026 N1028 1.350 . S
C1026 H1052 0.931 . S
N1027 Co1023 2.148 . S
N1027 C1024 1.301 . S
N1027 C1025 1.317 . S
N1028 C1024 1.328 . S
N1028 C1026 1.350 . S
H1029 C1024 0.930 . S
H1030 C1025 0.930 . S
C1031 O1032 1.224 . S
C1031 O1050 1.247 . S
O1032 C1031 1.224 . S
N1033 Co1023 2.128 . S
N1033 C1034 1.355 . S
N1033 C1036 1.311 . S
C1034 N1033 1.355 . S
C1034 C1035 1.363 . S
C1034 H1046 0.929 . S
C1035 C1034 1.363 . S
C1035 N1037 1.375 . S
C1035 H1053 0.931 . S
C1036 N1033 1.311 . S
C1036 N1037 1.347 . S
C1036 H1047 0.929 . S
N1037 C1035 1.375 . S
N1037 C1036 1.347 . S
C1038 C1041 1.365 . S
C1038 N1043 1.328 . S
C1038 H1044 0.929 . S
C1039 C1040 1.362 . S
C1039 C1042 1.378 . S
C1039 H1054 0.929 . S
C1040 C1039 1.362 . S
C1040 C1041 1.366 . S
C1041 C1038 1.365 . S
C1041 C1040 1.366 . S
C1041 H1055 0.930 . S
C1042 C1039 1.378 . S
C1042 N1043 1.315 . S
C1042 H1045 0.930 . S
N1043 Co1023 2.194 . S
N1043 C1038 1.328 . S
N1043 C1042 1.315 . S
H1044 C1038 0.929 . S
H1045 C1042 0.930 . S
H1046 C1034 0.929 . S
H1047 C1036 0.929 . S
O1048 Co1023 2.351 . S
O1048 C1051 1.244 . S
O1049 Co1023 2.155 . S
O1049 C1051 1.240 . S
O1050 Co1023 2.096 . S
O1050 C1031 1.247 . S
C1051 O1048 1.244 . S
C1051 O1049 1.240 . S
H1052 C1026 0.931 . S
H1053 C1035 0.931 . S
H1054 C1039 0.929 . S
H1055 C1041 0.930 . S
Co1056 N1060 2.148 . S
Co1056 N1066 2.128 . S
Co1056 N1076 2.194 . S
Co1056 O1081 2.351 . S
Co1056 O1082 2.155 . S
Co1056 O1083 2.096 . S
C1057 N1060 1.301 . S
C1057 N1061 1.328 . S
C1057 H1062 0.930 . S
C1058 C1059 1.333 . S
C1058 N1060 1.317 . S
C1058 H1063 0.930 . S
C1059 C1058 1.333 . S
C1059 N1061 1.350 . S
C1059 H1085 0.931 . S
N1060 Co1056 2.148 . S
N1060 C1057 1.301 . S
N1060 C1058 1.317 . S
N1061 C1057 1.328 . S
N1061 C1059 1.350 . S
H1062 C1057 0.930 . S
H1063 C1058 0.930 . S
C1064 O1065 1.224 . S
C1064 O1083 1.247 . S
O1065 C1064 1.224 . S
N1066 Co1056 2.128 . S
N1066 C1067 1.355 . S
N1066 C1069 1.311 . S
C1067 N1066 1.355 . S
C1067 C1068 1.363 . S
C1067 H1079 0.929 . S
C1068 C1067 1.363 . S
C1068 N1070 1.375 . S
C1068 H1086 0.931 . S
C1069 N1066 1.311 . S
C1069 N1070 1.347 . S
C1069 H1080 0.929 . S
N1070 C1068 1.375 . S
N1070 C1069 1.347 . S
C1071 C1074 1.365 . S
C1071 N1076 1.328 . S
C1071 H1077 0.929 . S
C1072 C1073 1.362 . S
C1072 C1075 1.378 . S
C1072 H1087 0.929 . S
C1073 C1072 1.362 . S
C1073 C1074 1.366 . S
C1074 C1071 1.365 . S
C1074 C1073 1.366 . S
C1074 H1088 0.930 . S
C1075 C1072 1.378 . S
C1075 N1076 1.315 . S
C1075 H1078 0.930 . S
N1076 Co1056 2.194 . S
N1076 C1071 1.328 . S
N1076 C1075 1.315 . S
H1077 C1071 0.929 . S
H1078 C1075 0.930 . S
H1079 C1067 0.929 . S
H1080 C1069 0.929 . S
O1081 Co1056 2.351 . S
O1081 C1084 1.244 . S
O1082 Co1056 2.155 . S
O1082 C1084 1.240 . S
O1083 Co1056 2.096 . S
O1083 C1064 1.247 . S
C1084 O1081 1.244 . S
C1084 O1082 1.240 . S
H1085 C1059 0.931 . S
H1086 C1068 0.931 . S
H1087 C1072 0.929 . S
H1088 C1074 0.930 . S
Co1089 N1093 2.148 . S
Co1089 N1099 2.128 . S
Co1089 N1109 2.194 . S
Co1089 O1114 2.351 . S
Co1089 O1115 2.155 . S
Co1089 O1116 2.096 . S
C1090 N1093 1.301 . S
C1090 N1094 1.328 . S
C1090 H1095 0.930 . S
C1091 C1092 1.333 . S
C1091 N1093 1.317 . S
C1091 H1096 0.930 . S
C1092 C1091 1.333 . S
C1092 N1094 1.350 . S
C1092 H1118 0.931 . S
N1093 Co1089 2.148 . S
N1093 C1090 1.301 . S
N1093 C1091 1.317 . S
N1094 C1090 1.328 . S
N1094 C1092 1.350 . S
H1095 C1090 0.930 . S
H1096 C1091 0.930 . S
C1097 O1098 1.224 . S
C1097 O1116 1.247 . S
O1098 C1097 1.224 . S
N1099 Co1089 2.128 . S
N1099 C1100 1.355 . S
N1099 C1102 1.311 . S
C1100 N1099 1.355 . S
C1100 C1101 1.363 . S
C1100 H1112 0.929 . S
C1101 C1100 1.363 . S
C1101 N1103 1.375 . S
C1101 H1119 0.931 . S
C1102 N1099 1.311 . S
C1102 N1103 1.347 . S
C1102 H1113 0.929 . S
N1103 C1101 1.375 . S
N1103 C1102 1.347 . S
C1104 C1107 1.365 . S
C1104 N1109 1.328 . S
C1104 H1110 0.929 . S
C1105 C1106 1.362 . S
C1105 C1108 1.378 . S
C1105 H1120 0.929 . S
C1106 C1105 1.362 . S
C1106 C1107 1.366 . S
C1107 C1104 1.365 . S
C1107 C1106 1.366 . S
C1107 H1121 0.930 . S
C1108 C1105 1.378 . S
C1108 N1109 1.315 . S
C1108 H1111 0.930 . S
N1109 Co1089 2.194 . S
N1109 C1104 1.328 . S
N1109 C1108 1.315 . S
H1110 C1104 0.929 . S
H1111 C1108 0.930 . S
H1112 C1100 0.929 . S
H1113 C1102 0.929 . S
O1114 Co1089 2.351 . S
O1114 C1117 1.244 . S
O1115 Co1089 2.155 . S
O1115 C1117 1.240 . S
O1116 Co1089 2.096 . S
O1116 C1097 1.247 . S
C1117 O1114 1.244 . S
C1117 O1115 1.240 . S
H1118 C1092 0.931 . S
H1119 C1101 0.931 . S
H1120 C1105 0.929 . S
H1121 C1107 0.930 . S
Co1122 N1126 2.148 . S
Co1122 N1132 2.128 . S
Co1122 N1142 2.194 . S
Co1122 O1147 2.351 . S
Co1122 O1148 2.155 . S
Co1122 O1149 2.096 . S
C1123 N1126 1.301 . S
C1123 N1127 1.328 . S
C1123 H1128 0.930 . S
C1124 C1125 1.333 . S
C1124 N1126 1.317 . S
C1124 H1129 0.930 . S
C1125 C1124 1.333 . S
C1125 N1127 1.350 . S
C1125 H1151 0.931 . S
N1126 Co1122 2.148 . S
N1126 C1123 1.301 . S
N1126 C1124 1.317 . S
N1127 C1123 1.328 . S
N1127 C1125 1.350 . S
H1128 C1123 0.930 . S
H1129 C1124 0.930 . S
C1130 O1131 1.224 . S
C1130 O1149 1.247 . S
O1131 C1130 1.224 . S
N1132 Co1122 2.128 . S
N1132 C1133 1.355 . S
N1132 C1135 1.311 . S
C1133 N1132 1.355 . S
C1133 C1134 1.363 . S
C1133 H1145 0.929 . S
C1134 C1133 1.363 . S
C1134 N1136 1.375 . S
C1134 H1152 0.931 . S
C1135 N1132 1.311 . S
C1135 N1136 1.347 . S
C1135 H1146 0.929 . S
N1136 C1134 1.375 . S
N1136 C1135 1.347 . S
C1137 C1140 1.365 . S
C1137 N1142 1.328 . S
C1137 H1143 0.929 . S
C1138 C1139 1.362 . S
C1138 C1141 1.378 . S
C1138 H1153 0.929 . S
C1139 C1138 1.362 . S
C1139 C1140 1.366 . S
C1140 C1137 1.365 . S
C1140 C1139 1.366 . S
C1140 H1154 0.930 . S
C1141 C1138 1.378 . S
C1141 N1142 1.315 . S
C1141 H1144 0.930 . S
N1142 Co1122 2.194 . S
N1142 C1137 1.328 . S
N1142 C1141 1.315 . S
H1143 C1137 0.929 . S
H1144 C1141 0.930 . S
H1145 C1133 0.929 . S
H1146 C1135 0.929 . S
O1147 Co1122 2.351 . S
O1147 C1150 1.244 . S
O1148 Co1122 2.155 . S
O1148 C1150 1.240 . S
O1149 Co1122 2.096 . S
O1149 C1130 1.247 . S
C1150 O1147 1.244 . S
C1150 O1148 1.240 . S
H1151 C1125 0.931 . S
H1152 C1134 0.931 . S
H1153 C1138 0.929 . S
H1154 C1140 0.930 . S
Co1155 N1159 2.148 . S
Co1155 N1165 2.128 . S
Co1155 N1175 2.194 . S
Co1155 O1180 2.351 . S
Co1155 O1181 2.155 . S
Co1155 O1182 2.096 . S
C1156 N1159 1.301 . S
C1156 N1160 1.328 . S
C1156 H1161 0.930 . S
C1157 C1158 1.333 . S
C1157 N1159 1.317 . S
C1157 H1162 0.930 . S
C1158 C1157 1.333 . S
C1158 N1160 1.350 . S
C1158 H1184 0.931 . S
N1159 Co1155 2.148 . S
N1159 C1156 1.301 . S
N1159 C1157 1.317 . S
N1160 C1156 1.328 . S
N1160 C1158 1.350 . S
H1161 C1156 0.930 . S
H1162 C1157 0.930 . S
C1163 O1164 1.224 . S
C1163 O1182 1.247 . S
O1164 C1163 1.224 . S
N1165 Co1155 2.128 . S
N1165 C1166 1.355 . S
N1165 C1168 1.311 . S
C1166 N1165 1.355 . S
C1166 C1167 1.363 . S
C1166 H1178 0.929 . S
C1167 C1166 1.363 . S
C1167 N1169 1.375 . S
C1167 H1185 0.931 . S
C1168 N1165 1.311 . S
C1168 N1169 1.347 . S
C1168 H1179 0.929 . S
N1169 C1167 1.375 . S
N1169 C1168 1.347 . S
C1170 C1173 1.365 . S
C1170 N1175 1.328 . S
C1170 H1176 0.929 . S
C1171 C1172 1.362 . S
C1171 C1174 1.378 . S
C1171 H1186 0.929 . S
C1172 C1171 1.362 . S
C1172 C1173 1.366 . S
C1173 C1170 1.365 . S
C1173 C1172 1.366 . S
C1173 H1187 0.930 . S
C1174 C1171 1.378 . S
C1174 N1175 1.315 . S
C1174 H1177 0.930 . S
N1175 Co1155 2.194 . S
N1175 C1170 1.328 . S
N1175 C1174 1.315 . S
H1176 C1170 0.929 . S
H1177 C1174 0.930 . S
H1178 C1166 0.929 . S
H1179 C1168 0.929 . S
O1180 Co1155 2.351 . S
O1180 C1183 1.244 . S
O1181 Co1155 2.155 . S
O1181 C1183 1.240 . S
O1182 Co1155 2.096 . S
O1182 C1163 1.247 . S
C1183 O1180 1.244 . S
C1183 O1181 1.240 . S
H1184 C1158 0.931 . S
H1185 C1167 0.931 . S
H1186 C1171 0.929 . S
H1187 C1173 0.930 . S
H1188 C1194 0.930 . S
H1189 C1197 0.930 . S
H1190 C1198 0.930 . S
H1191 C1199 0.930 . S
H1192 C1202 0.930 . S
H1193 C1203 0.930 . S
C1194 H1188 0.930 . S
C1194 C1195 1.355 . S
C1194 C1196 1.415 . S
C1195 C1194 1.355 . S
C1195 C1197 1.419 . S
C1196 C1194 1.415 . S
C1196 C1201 1.425 . S
C1196 C1203 1.409 . S
C1197 H1189 0.930 . S
C1197 C1195 1.419 . S
C1197 C1198 1.362 . S
C1198 H1190 0.930 . S
C1198 C1197 1.362 . S
C1198 C1201 1.409 . S
C1199 H1191 0.930 . S
C1199 C1200 1.355 . S
C1199 C1201 1.415 . S
C1200 C1199 1.355 . S
C1200 C1202 1.419 . S
C1201 C1196 1.425 . S
C1201 C1198 1.409 . S
C1201 C1199 1.415 . S
C1202 H1192 0.930 . S
C1202 C1200 1.419 . S
C1202 C1203 1.362 . S
C1203 H1193 0.930 . S
C1203 C1196 1.409 . S
C1203 C1202 1.362 . S
H1204 C1210 0.930 . S
H1205 C1213 0.930 . S
H1206 C1214 0.930 . S
H1207 C1215 0.930 . S
H1208 C1218 0.930 1_556 S
H1209 C1219 0.930 . S
C1210 H1204 0.930 . S
C1210 C1211 1.355 . S
C1210 C1212 1.415 . S
C1211 C1210 1.355 . S
C1211 C1213 1.419 . S
C1212 C1210 1.415 . S
C1212 C1217 1.425 . S
C1212 C1219 1.409 . S
C1213 H1205 0.930 . S
C1213 C1211 1.419 . S
C1213 C1214 1.362 . S
C1214 H1206 0.930 . S
C1214 C1213 1.362 . S
C1214 C1217 1.409 . S
C1215 H1207 0.930 . S
C1215 C1216 1.355 . S
C1215 C1217 1.415 . S
C1216 C1215 1.355 . S
C1216 C1218 1.419 . S
C1217 C1212 1.425 . S
C1217 C1214 1.409 . S
C1217 C1215 1.415 . S
C1218 H1208 0.930 1_554 S
C1218 C1216 1.419 . S
C1218 C1219 1.362 . S
C1219 H1209 0.930 . S
C1219 C1212 1.409 . S
C1219 C1218 1.362 . S
H1220 C1226 0.930 . S
H1221 C1229 0.930 . S
H1222 C1230 0.930 . S
H1223 C1231 0.930 . S
H1224 C1234 0.930 . S
H1225 C1235 0.930 . S
C1226 H1220 0.930 . S
C1226 C1227 1.355 . S
C1226 C1228 1.415 . S
C1227 C1226 1.355 . S
C1227 C1229 1.419 . S
C1228 C1226 1.415 . S
C1228 C1233 1.425 . S
C1228 C1235 1.409 . S
C1229 H1221 0.930 . S
C1229 C1227 1.419 . S
C1229 C1230 1.362 . S
C1230 H1222 0.930 . S
C1230 C1229 1.362 . S
C1230 C1233 1.409 . S
C1231 H1223 0.930 . S
C1231 C1232 1.355 . S
C1231 C1233 1.415 . S
C1232 C1231 1.355 . S
C1232 C1234 1.419 . S
C1233 C1228 1.425 . S
C1233 C1230 1.409 . S
C1233 C1231 1.415 . S
C1234 H1224 0.930 . S
C1234 C1232 1.419 . S
C1234 C1235 1.362 . S
C1235 H1225 0.930 . S
C1235 C1228 1.409 . S
C1235 C1234 1.362 . S
H1236 C1242 0.930 . S
H1237 C1245 0.930 . S
H1238 C1246 0.930 . S
H1239 C1247 0.930 . S
H1240 C1250 0.930 1_554 S
H1241 C1251 0.930 . S
C1242 H1236 0.930 . S
C1242 C1243 1.355 . S
C1242 C1244 1.415 . S
C1243 C1242 1.355 . S
C1243 C1245 1.419 . S
C1244 C1242 1.415 . S
C1244 C1249 1.425 . S
C1244 C1251 1.409 . S
C1245 H1237 0.930 . S
C1245 C1243 1.419 . S
C1245 C1246 1.362 . S
C1246 H1238 0.930 . S
C1246 C1245 1.362 . S
C1246 C1249 1.409 . S
C1247 H1239 0.930 . S
C1247 C1248 1.355 . S
C1247 C1249 1.415 . S
C1248 C1247 1.355 . S
C1248 C1250 1.419 . S
C1249 C1244 1.425 . S
C1249 C1246 1.409 . S
C1249 C1247 1.415 . S
C1250 H1240 0.930 1_556 S
C1250 C1248 1.419 . S
C1250 C1251 1.362 . S
C1251 H1241 0.930 . S
C1251 C1244 1.409 . S
C1251 C1250 1.362 . S
H1252 C1258 0.930 . S
H1253 C1261 0.930 . S
H1254 C1262 0.930 . S
H1255 C1263 0.930 . S
H1256 C1266 0.930 . S
H1257 C1267 0.930 . S
C1258 H1252 0.930 . S
C1258 C1259 1.355 . S
C1258 C1260 1.415 . S
C1259 C1258 1.355 . S
C1259 C1261 1.419 . S
C1260 C1258 1.415 . S
C1260 C1265 1.425 . S
C1260 C1267 1.409 . S
C1261 H1253 0.930 . S
C1261 C1259 1.419 . S
C1261 C1262 1.362 . S
C1262 H1254 0.930 . S
C1262 C1261 1.362 . S
C1262 C1265 1.409 . S
C1263 H1255 0.930 . S
C1263 C1264 1.355 . S
C1263 C1265 1.415 . S
C1264 C1263 1.355 . S
C1264 C1266 1.419 . S
C1265 C1260 1.425 . S
C1265 C1262 1.409 . S
C1265 C1263 1.415 . S
C1266 H1256 0.930 . S
C1266 C1264 1.419 . S
C1266 C1267 1.362 . S
C1267 H1257 0.930 . S
C1267 C1260 1.409 . S
C1267 C1266 1.362 . S
H1268 C1274 0.930 . S
H1269 C1277 0.930 . S
H1270 C1278 0.930 . S
H1271 C1279 0.930 . S
H1272 C1282 0.930 . S
H1273 C1283 0.930 . S
C1274 H1268 0.930 . S
C1274 C1275 1.355 . S
C1274 C1276 1.415 . S
C1275 C1274 1.355 . S
C1275 C1277 1.419 . S
C1276 C1274 1.415 . S
C1276 C1281 1.425 . S
C1276 C1283 1.409 . S
C1277 H1269 0.930 . S
C1277 C1275 1.419 . S
C1277 C1278 1.362 . S
C1278 H1270 0.930 . S
C1278 C1277 1.362 . S
C1278 C1281 1.409 . S
C1279 H1271 0.930 . S
C1279 C1280 1.355 . S
C1279 C1281 1.415 . S
C1280 C1279 1.355 . S
C1280 C1282 1.419 . S
C1281 C1276 1.425 . S
C1281 C1278 1.409 . S
C1281 C1279 1.415 . S
C1282 H1272 0.930 . S
C1282 C1280 1.419 . S
C1282 C1283 1.362 . S
C1283 H1273 0.930 . S
C1283 C1276 1.409 . S
C1283 C1282 1.362 . S
H1284 C1290 0.930 . S
H1285 C1293 0.930 . S
H1286 C1294 0.930 . S
H1287 C1295 0.930 . S
H1288 C1298 0.930 . S
H1289 C1299 0.930 . S
C1290 H1284 0.930 . S
C1290 C1291 1.355 . S
C1290 C1292 1.415 . S
C1291 C1290 1.355 . S
C1291 C1293 1.419 . S
C1292 C1290 1.415 . S
C1292 C1297 1.425 . S
C1292 C1299 1.409 . S
C1293 H1285 0.930 . S
C1293 C1291 1.419 . S
C1293 C1294 1.362 . S
C1294 H1286 0.930 . S
C1294 C1293 1.362 . S
C1294 C1297 1.409 . S
C1295 H1287 0.930 . S
C1295 C1296 1.355 . S
C1295 C1297 1.415 . S
C1296 C1295 1.355 . S
C1296 C1298 1.419 . S
C1297 C1292 1.425 . S
C1297 C1294 1.409 . S
C1297 C1295 1.415 . S
C1298 H1288 0.930 . S
C1298 C1296 1.419 . S
C1298 C1299 1.362 . S
C1299 H1289 0.930 . S
C1299 C1292 1.409 . S
C1299 C1298 1.362 . S
H1300 C1306 0.930 . S
H1301 C1309 0.930 . S
H1302 C1310 0.930 . S
H1303 C1311 0.930 . S
H1304 C1314 0.930 . S
H1305 C1315 0.930 . S
C1306 H1300 0.930 . S
C1306 C1307 1.355 . S
C1306 C1308 1.415 . S
C1307 C1306 1.355 . S
C1307 C1309 1.419 . S
C1308 C1306 1.415 . S
C1308 C1313 1.425 . S
C1308 C1315 1.409 . S
C1309 H1301 0.930 . S
C1309 C1307 1.419 . S
C1309 C1310 1.362 . S
C1310 H1302 0.930 . S
C1310 C1309 1.362 . S
C1310 C1313 1.409 . S
C1311 H1303 0.930 . S
C1311 C1312 1.355 . S
C1311 C1313 1.415 . S
C1312 C1311 1.355 . S
C1312 C1314 1.419 . S
C1313 C1308 1.425 . S
C1313 C1310 1.409 . S
C1313 C1311 1.415 . S
C1314 H1304 0.930 . S
C1314 C1312 1.419 . S
C1314 C1315 1.362 . S
C1315 H1305 0.930 . S
C1315 C1308 1.409 . S
C1315 C1314 1.362 . S
H1316 C1322 0.930 . S
H1317 C1325 0.930 . S
H1318 C1326 0.930 . S
H1319 C1327 0.930 . S
H1320 C1330 0.930 . S
H1321 C1331 0.930 . S
C1322 H1316 0.930 . S
C1322 C1323 1.355 . S
C1322 C1324 1.415 . S
C1323 C1322 1.355 . S
C1323 C1325 1.419 . S
C1324 C1322 1.415 . S
C1324 C1329 1.425 . S
C1324 C1331 1.409 . S
C1325 H1317 0.930 . S
C1325 C1323 1.419 . S
C1325 C1326 1.362 . S
C1326 H1318 0.930 . S
C1326 C1325 1.362 . S
C1326 C1329 1.409 . S
C1327 H1319 0.930 . S
C1327 C1328 1.355 . S
C1327 C1329 1.415 . S
C1328 C1327 1.355 . S
C1328 C1330 1.419 . S
C1329 C1324 1.425 . S
C1329 C1326 1.409 . S
C1329 C1327 1.415 . S
C1330 H1320 0.930 . S
C1330 C1328 1.419 . S
C1330 C1331 1.362 . S
C1331 H1321 0.930 . S
C1331 C1324 1.409 . S
C1331 C1330 1.362 . S
H1332 C1338 0.930 . S
H1333 C1341 0.930 . S
H1334 C1342 0.930 . S
H1335 C1343 0.930 . S
H1336 C1346 0.930 1_556 S
H1337 C1347 0.930 . S
C1338 H1332 0.930 . S
C1338 C1339 1.355 . S
C1338 C1340 1.415 . S
C1339 C1338 1.355 . S
C1339 C1341 1.419 . S
C1340 C1338 1.415 . S
C1340 C1345 1.425 . S
C1340 C1347 1.409 . S
C1341 H1333 0.930 . S
C1341 C1339 1.419 . S
C1341 C1342 1.362 . S
C1342 H1334 0.930 . S
C1342 C1341 1.362 . S
C1342 C1345 1.409 . S
C1343 H1335 0.930 . S
C1343 C1344 1.355 . S
C1343 C1345 1.415 . S
C1344 C1343 1.355 . S
C1344 C1346 1.419 . S
C1345 C1340 1.425 . S
C1345 C1342 1.409 . S
C1345 C1343 1.415 . S
C1346 H1336 0.930 1_554 S
C1346 C1344 1.419 . S
C1346 C1347 1.362 . S
C1347 H1337 0.930 . S
C1347 C1340 1.409 . S
C1347 C1346 1.362 . S
H1348 C1354 0.930 . S
H1349 C1357 0.930 . S
H1350 C1358 0.930 . S
H1351 C1359 0.930 . S
H1352 C1362 0.930 . S
H1353 C1363 0.930 . S
C1354 H1348 0.930 . S
C1354 C1355 1.355 . S
C1354 C1356 1.415 . S
C1355 C1354 1.355 . S
C1355 C1357 1.419 . S
C1356 C1354 1.415 . S
C1356 C1361 1.425 . S
C1356 C1363 1.409 . S
C1357 H1349 0.930 . S
C1357 C1355 1.419 . S
C1357 C1358 1.362 . S
C1358 H1350 0.930 . S
C1358 C1357 1.362 . S
C1358 C1361 1.409 . S
C1359 H1351 0.930 . S
C1359 C1360 1.355 . S
C1359 C1361 1.415 . S
C1360 C1359 1.355 . S
C1360 C1362 1.419 . S
C1361 C1356 1.425 . S
C1361 C1358 1.409 . S
C1361 C1359 1.415 . S
C1362 H1352 0.930 . S
C1362 C1360 1.419 . S
C1362 C1363 1.362 . S
C1363 H1353 0.930 . S
C1363 C1356 1.409 . S
C1363 C1362 1.362 . S
H1364 C1370 0.930 . S
H1365 C1373 0.930 . S
H1366 C1374 0.930 . S
H1367 C1375 0.930 . S
H1368 C1378 0.930 . S
H1369 C1379 0.930 . S
C1370 H1364 0.930 . S
C1370 C1371 1.355 . S
C1370 C1372 1.415 . S
C1371 C1370 1.355 . S
C1371 C1373 1.419 . S
C1372 C1370 1.415 . S
C1372 C1377 1.425 . S
C1372 C1379 1.409 . S
C1373 H1365 0.930 . S
C1373 C1371 1.419 . S
C1373 C1374 1.362 . S
C1374 H1366 0.930 . S
C1374 C1373 1.362 . S
C1374 C1377 1.409 . S
C1375 H1367 0.930 . S
C1375 C1376 1.355 . S
C1375 C1377 1.415 . S
C1376 C1375 1.355 . S
C1376 C1378 1.419 . S
C1377 C1372 1.425 . S
C1377 C1374 1.409 . S
C1377 C1375 1.415 . S
C1378 H1368 0.930 . S
C1378 C1376 1.419 . S
C1378 C1379 1.362 . S
C1379 H1369 0.930 . S
C1379 C1372 1.409 . S
C1379 C1378 1.362 . S
H1380 C1386 0.930 . S
H1381 C1389 0.930 . S
H1382 C1390 0.930 . S
H1383 C1391 0.930 . S
H1384 C1394 0.930 . S
H1385 C1395 0.930 . S
C1386 H1380 0.930 . S
C1386 C1387 1.355 . S
C1386 C1388 1.415 . S
C1387 C1386 1.355 . S
C1387 C1389 1.419 . S
C1388 C1386 1.415 . S
C1388 C1393 1.425 . S
C1388 C1395 1.409 . S
C1389 H1381 0.930 . S
C1389 C1387 1.419 . S
C1389 C1390 1.362 . S
C1390 H1382 0.930 . S
C1390 C1389 1.362 . S
C1390 C1393 1.409 . S
C1391 H1383 0.930 . S
C1391 C1392 1.355 . S
C1391 C1393 1.415 . S
C1392 C1391 1.355 . S
C1392 C1394 1.419 . S
C1393 C1388 1.425 . S
C1393 C1390 1.409 . S
C1393 C1391 1.415 . S
C1394 H1384 0.930 . S
C1394 C1392 1.419 . S
C1394 C1395 1.362 . S
C1395 H1385 0.930 . S
C1395 C1388 1.409 . S
C1395 C1394 1.362 . S
H1396 C1402 0.930 . S
H1397 C1405 0.930 . S
H1398 C1406 0.930 . S
H1399 C1407 0.930 . S
H1400 C1410 0.930 . S
H1401 C1411 0.930 . S
C1402 H1396 0.930 . S
C1402 C1403 1.355 . S
C1402 C1404 1.415 1_545 S
C1403 C1402 1.355 . S
C1403 C1405 1.419 . S
C1404 C1402 1.415 1_565 S
C1404 C1409 1.425 1_565 S
C1404 C1411 1.409 . S
C1405 H1397 0.930 . S
C1405 C1403 1.419 . S
C1405 C1406 1.362 . S
C1406 H1398 0.930 . S
C1406 C1405 1.362 . S
C1406 C1409 1.409 . S
C1407 H1399 0.930 . S
C1407 C1408 1.355 . S
C1407 C1409 1.415 1_565 S
C1408 C1407 1.355 . S
C1408 C1410 1.419 . S
C1409 C1404 1.425 1_545 S
C1409 C1406 1.409 . S
C1409 C1407 1.415 1_545 S
C1410 H1400 0.930 . S
C1410 C1408 1.419 . S
C1410 C1411 1.362 . S
C1411 H1401 0.930 . S
C1411 C1404 1.409 . S
C1411 C1410 1.362 . S
H1412 C1418 0.930 . S
H1413 C1421 0.930 . S
H1414 C1422 0.930 . S
H1415 C1423 0.930 . S
H1416 C1426 0.930 . S
H1417 C1427 0.930 . S
C1418 H1412 0.930 . S
C1418 C1419 1.355 . S
C1418 C1420 1.415 . S
C1419 C1418 1.355 . S
C1419 C1421 1.419 . S
C1420 C1418 1.415 . S
C1420 C1425 1.425 1_455 S
C1420 C1427 1.409 1_455 S
C1421 H1413 0.930 . S
C1421 C1419 1.419 . S
C1421 C1422 1.362 . S
C1422 H1414 0.930 . S
C1422 C1421 1.362 . S
C1422 C1425 1.409 1_455 S
C1423 H1415 0.930 . S
C1423 C1424 1.355 . S
C1423 C1425 1.415 . S
C1424 C1423 1.355 . S
C1424 C1426 1.419 . S
C1425 C1420 1.425 1_655 S
C1425 C1422 1.409 1_655 S
C1425 C1423 1.415 . S
C1426 H1416 0.930 . S
C1426 C1424 1.419 . S
C1426 C1427 1.362 . S
C1427 H1417 0.930 . S
C1427 C1420 1.409 1_655 S
C1427 C1426 1.362 . S
H1428 C1434 0.930 . S
H1429 C1437 0.930 . S
H1430 C1438 0.930 . S
H1431 C1439 0.930 . S
H1432 C1442 0.930 . S
H1433 C1443 0.930 . S
C1434 H1428 0.930 . S
C1434 C1435 1.355 . S
C1434 C1436 1.415 . S
C1435 C1434 1.355 . S
C1435 C1437 1.419 . S
C1436 C1434 1.415 . S
C1436 C1441 1.425 . S
C1436 C1443 1.409 . S
C1437 H1429 0.930 . S
C1437 C1435 1.419 . S
C1437 C1438 1.362 . S
C1438 H1430 0.930 . S
C1438 C1437 1.362 . S
C1438 C1441 1.409 . S
C1439 H1431 0.930 . S
C1439 C1440 1.355 . S
C1439 C1441 1.415 . S
C1440 C1439 1.355 . S
C1440 C1442 1.419 . S
C1441 C1436 1.425 . S
C1441 C1438 1.409 . S
C1441 C1439 1.415 . S
C1442 H1432 0.930 . S
C1442 C1440 1.419 . S
C1442 C1443 1.362 . S
C1443 H1433 0.930 . S
C1443 C1436 1.409 . S
C1443 C1442 1.362 . S
H1444 C1450 0.930 . S
H1445 C1453 0.930 . S
H1446 C1454 0.930 . S
H1447 C1455 0.930 . S
H1448 C1458 0.930 . S
H1449 C1459 0.930 . S
C1450 H1444 0.930 . S
C1450 C1451 1.355 . S
C1450 C1452 1.415 . S
C1451 C1450 1.355 . S
C1451 C1453 1.419 . S
C1452 C1450 1.415 . S
C1452 C1457 1.425 1_565 S
C1452 C1459 1.409 . S
C1453 H1445 0.930 . S
C1453 C1451 1.419 . S
C1453 C1454 1.362 1_565 S
C1454 H1446 0.930 . S
C1454 C1453 1.362 1_545 S
C1454 C1457 1.409 . S
C1455 H1447 0.930 . S
C1455 C1456 1.355 . S
C1455 C1457 1.415 . S
C1456 C1455 1.355 . S
C1456 C1458 1.419 . S
C1457 C1452 1.425 1_545 S
C1457 C1454 1.409 . S
C1457 C1455 1.415 . S
C1458 H1448 0.930 . S
C1458 C1456 1.419 . S
C1458 C1459 1.362 1_545 S
C1459 H1449 0.930 . S
C1459 C1452 1.409 . S
C1459 C1458 1.362 1_565 S
H1460 C1466 0.930 . S
H1461 C1469 0.930 . S
H1462 C1470 0.930 . S
H1463 C1471 0.930 . S
H1464 C1474 0.930 . S
H1465 C1475 0.930 . S
C1466 H1460 0.930 . S
C1466 C1467 1.355 . S
C1466 C1468 1.418 . S
C1467 C1466 1.355 . S
C1467 C1469 1.419 . S
C1468 C1466 1.418 . S
C1468 C1473 1.430 1_655 S
C1468 C1475 1.404 1_655 S
C1469 H1461 0.930 . S
C1469 C1467 1.419 . S
C1469 C1470 1.362 . S
C1470 H1462 0.930 . S
C1470 C1469 1.362 . S
C1470 C1473 1.403 1_655 S
C1471 H1463 0.930 . S
C1471 C1472 1.355 . S
C1471 C1473 1.418 . S
C1472 C1471 1.355 . S
C1472 C1474 1.419 . S
C1473 C1468 1.430 1_455 S
C1473 C1470 1.403 1_455 S
C1473 C1471 1.418 . S
C1474 H1464 0.930 . S
C1474 C1472 1.419 . S
C1474 C1475 1.362 . S
C1475 H1465 0.930 . S
C1475 C1468 1.404 1_455 S
C1475 C1474 1.362 . S
H1476 C1482 0.930 . S
H1477 C1485 0.930 . S
H1478 C1486 0.930 . S
H1479 C1487 0.930 . S
H1480 C1490 0.930 . S
H1481 C1491 0.930 . S
C1482 H1476 0.930 . S
C1482 C1483 1.355 . S
C1482 C1484 1.415 . S
C1483 C1482 1.355 . S
C1483 C1485 1.419 1_554 S
C1484 C1482 1.415 . S
C1484 C1489 1.425 . S
C1484 C1491 1.409 . S
C1485 H1477 0.930 . S
C1485 C1483 1.419 1_556 S
C1485 C1486 1.362 . S
C1486 H1478 0.930 . S
C1486 C1485 1.362 . S
C1486 C1489 1.409 1_556 S
C1487 H1479 0.930 . S
C1487 C1488 1.355 1_556 S
C1487 C1489 1.415 1_556 S
C1488 C1487 1.355 1_554 S
C1488 C1490 1.419 . S
C1489 C1484 1.425 . S
C1489 C1486 1.409 1_554 S
C1489 C1487 1.415 1_554 S
C1490 H1480 0.930 . S
C1490 C1488 1.419 . S
C1490 C1491 1.362 . S
C1491 H1481 0.930 . S
C1491 C1484 1.409 . S
C1491 C1490 1.362 . S
H1492 C1498 0.930 . S
H1493 C1501 0.930 . S
H1494 C1502 0.930 . S
H1495 C1503 0.930 . S
H1496 C1506 0.930 . S
H1497 C1507 0.930 . S
C1498 H1492 0.930 . S
C1498 C1499 1.355 1_556 S
C1498 C1500 1.415 . S
C1499 C1498 1.355 1_554 S
C1499 C1501 1.419 . S
C1500 C1498 1.415 . S
C1500 C1505 1.425 1_556 S
C1500 C1507 1.409 . S
C1501 H1493 0.930 . S
C1501 C1499 1.419 . S
C1501 C1502 1.362 . S
C1502 H1494 0.930 . S
C1502 C1501 1.362 . S
C1502 C1505 1.409 . S
C1503 H1495 0.930 . S
C1503 C1504 1.355 . S
C1503 C1505 1.415 . S
C1504 C1503 1.355 . S
C1504 C1506 1.419 1_554 S
C1505 C1500 1.425 1_554 S
C1505 C1502 1.409 . S
C1505 C1503 1.415 . S
C1506 H1496 0.930 . S
C1506 C1504 1.419 1_556 S
C1506 C1507 1.362 . S
C1507 H1497 0.930 . S
C1507 C1500 1.409 . S
C1507 C1506 1.362 . S
H1508 C1514 0.930 . S
H1509 C1517 0.930 . S
H1510 C1518 0.930 . S
H1511 C1519 0.930 . S
H1512 C1522 0.930 . S
H1513 C1523 0.930 . S
C1514 H1508 0.930 . S
C1514 C1515 1.354 1_556 S
C1514 C1516 1.415 1_556 S
C1515 C1514 1.354 1_554 S
C1515 C1517 1.419 . S
C1516 C1514 1.415 1_554 S
C1516 C1521 1.425 . S
C1516 C1523 1.409 1_554 S
C1517 H1509 0.930 . S
C1517 C1515 1.419 . S
C1517 C1518 1.362 . S
C1518 H1510 0.930 . S
C1518 C1517 1.362 . S
C1518 C1521 1.409 . S
C1519 H1511 0.930 . S
C1519 C1520 1.355 . S
C1519 C1521 1.415 . S
C1520 C1519 1.355 . S
C1520 C1522 1.419 1_554 S
C1521 C1516 1.425 . S
C1521 C1518 1.409 . S
C1521 C1519 1.415 . S
C1522 H1512 0.930 . S
C1522 C1520 1.419 1_556 S
C1522 C1523 1.362 . S
C1523 H1513 0.930 . S
C1523 C1516 1.409 1_556 S
C1523 C1522 1.362 . S
H1524 C1530 0.930 . S
H1525 C1533 0.930 . S
H1526 C1534 0.930 . S
H1527 C1535 0.930 . S
H1528 C1538 0.930 . S
H1529 C1539 0.930 . S
C1530 H1524 0.930 . S
C1530 C1531 1.355 . S
C1530 C1532 1.415 . S
C1531 C1530 1.355 . S
C1531 C1533 1.419 . S
C1532 C1530 1.415 . S
C1532 C1537 1.425 . S
C1532 C1539 1.409 . S
C1533 H1525 0.930 . S
C1533 C1531 1.419 . S
C1533 C1534 1.362 . S
C1534 H1526 0.930 . S
C1534 C1533 1.362 . S
C1534 C1537 1.409 . S
C1535 H1527 0.930 . S
C1535 C1536 1.355 . S
C1535 C1537 1.415 . S
C1536 C1535 1.355 . S
C1536 C1538 1.419 . S
C1537 C1532 1.425 . S
C1537 C1534 1.409 . S
C1537 C1535 1.415 . S
C1538 H1528 0.930 . S
C1538 C1536 1.419 . S
C1538 C1539 1.362 . S
C1539 H1529 0.930 . S
C1539 C1532 1.409 . S
C1539 C1538 1.362 . S
H1540 C1546 0.930 . S
H1541 C1549 0.930 . S
H1542 C1550 0.930 . S
H1543 C1551 0.930 . S
H1544 C1554 0.930 . S
H1545 C1555 0.930 . S
C1546 H1540 0.930 . S
C1546 C1547 1.355 1_554 S
C1546 C1548 1.415 . S
C1547 C1546 1.355 1_556 S
C1547 C1549 1.419 . S
C1548 C1546 1.415 . S
C1548 C1553 1.425 1_554 S
C1548 C1555 1.409 . S
C1549 H1541 0.930 . S
C1549 C1547 1.419 . S
C1549 C1550 1.362 . S
C1550 H1542 0.930 . S
C1550 C1549 1.362 . S
C1550 C1553 1.409 . S
C1551 H1543 0.930 . S
C1551 C1552 1.355 . S
C1551 C1553 1.415 . S
C1552 C1551 1.355 . S
C1552 C1554 1.419 1_556 S
C1553 C1548 1.425 1_556 S
C1553 C1550 1.409 . S
C1553 C1551 1.415 . S
C1554 H1544 0.930 . S
C1554 C1552 1.419 1_554 S
C1554 C1555 1.362 . S
C1555 H1545 0.930 . S
C1555 C1548 1.409 . S
C1555 C1554 1.362 . S
H1556 C1562 0.930 . S
H1557 C1565 0.930 . S
H1558 C1566 0.930 . S
H1559 C1567 0.930 . S
H1560 C1570 0.930 . S
H1561 C1571 0.930 . S
C1562 H1556 0.930 . S
C1562 C1563 1.355 1_554 S
C1562 C1564 1.415 . S
C1563 C1562 1.355 1_556 S
C1563 C1565 1.419 . S
C1564 C1562 1.415 . S
C1564 C1569 1.425 1_554 S
C1564 C1571 1.409 . S
C1565 H1557 0.930 . S
C1565 C1563 1.419 . S
C1565 C1566 1.362 . S
C1566 H1558 0.930 . S
C1566 C1565 1.362 . S
C1566 C1569 1.409 . S
C1567 H1559 0.930 . S
C1567 C1568 1.355 . S
C1567 C1569 1.415 . S
C1568 C1567 1.355 . S
C1568 C1570 1.419 1_556 S
C1569 C1564 1.425 1_556 S
C1569 C1566 1.409 . S
C1569 C1567 1.415 . S
C1570 H1560 0.930 . S
C1570 C1568 1.419 1_554 S
C1570 C1571 1.362 . S
C1571 H1561 0.930 . S
C1571 C1564 1.409 . S
C1571 C1570 1.362 . S
H1572 C1578 0.930 . S
H1573 C1581 0.930 . S
H1574 C1582 0.930 . S
H1575 C1583 0.930 . S
H1576 C1586 0.930 . S
H1577 C1587 0.930 . S
C1578 H1572 0.930 . S
C1578 C1579 1.355 . S
C1578 C1580 1.415 . S
C1579 C1578 1.355 . S
C1579 C1581 1.419 . S
C1580 C1578 1.415 . S
C1580 C1585 1.425 . S
C1580 C1587 1.409 . S
C1581 H1573 0.930 . S
C1581 C1579 1.419 . S
C1581 C1582 1.362 . S
C1582 H1574 0.930 . S
C1582 C1581 1.362 . S
C1582 C1585 1.409 . S
C1583 H1575 0.930 . S
C1583 C1584 1.355 . S
C1583 C1585 1.415 . S
C1584 C1583 1.355 . S
C1584 C1586 1.419 . S
C1585 C1580 1.425 . S
C1585 C1582 1.409 . S
C1585 C1583 1.415 . S
C1586 H1576 0.930 . S
C1586 C1584 1.419 . S
C1586 C1587 1.362 . S
C1587 H1577 0.930 . S
C1587 C1580 1.409 . S
C1587 C1586 1.362 . S
H1588 C1594 0.930 . S
H1589 C1597 0.930 . S
H1590 C1598 0.930 . S
H1591 C1599 0.930 . S
H1592 C1602 0.930 . S
H1593 C1603 0.930 . S
C1594 H1588 0.930 . S
C1594 C1595 1.355 . S
C1594 C1596 1.415 . S
C1595 C1594 1.355 . S
C1595 C1597 1.419 . S
C1596 C1594 1.415 . S
C1596 C1601 1.425 . S
C1596 C1603 1.409 . S
C1597 H1589 0.930 . S
C1597 C1595 1.419 . S
C1597 C1598 1.362 . S
C1598 H1590 0.930 . S
C1598 C1597 1.362 . S
C1598 C1601 1.409 . S
C1599 H1591 0.930 . S
C1599 C1600 1.355 . S
C1599 C1601 1.415 . S
C1600 C1599 1.355 . S
C1600 C1602 1.419 . S
C1601 C1596 1.425 . S
C1601 C1598 1.409 . S
C1601 C1599 1.415 . S
C1602 H1592 0.930 . S
C1602 C1600 1.419 . S
C1602 C1603 1.362 . S
C1603 H1593 0.930 . S
C1603 C1596 1.409 . S
C1603 C1602 1.362 . S
H1604 C1610 0.930 . S
H1605 C1613 0.930 . S
H1606 C1614 0.930 . S
H1607 C1615 0.930 . S
H1608 C1618 0.930 . S
H1609 C1619 0.930 . S
C1610 H1604 0.930 . S
C1610 C1611 1.355 . S
C1610 C1612 1.415 . S
C1611 C1610 1.355 . S
C1611 C1613 1.419 . S
C1612 C1610 1.415 . S
C1612 C1617 1.425 . S
C1612 C1619 1.409 . S
C1613 H1605 0.930 . S
C1613 C1611 1.419 . S
C1613 C1614 1.362 . S
C1614 H1606 0.930 . S
C1614 C1613 1.362 . S
C1614 C1617 1.409 . S
C1615 H1607 0.930 . S
C1615 C1616 1.355 . S
C1615 C1617 1.415 . S
C1616 C1615 1.355 . S
C1616 C1618 1.419 . S
C1617 C1612 1.425 . S
C1617 C1614 1.409 . S
C1617 C1615 1.415 . S
C1618 H1608 0.930 . S
C1618 C1616 1.419 . S
C1618 C1619 1.362 . S
C1619 H1609 0.930 . S
C1619 C1612 1.409 . S
C1619 C1618 1.362 . S
H1620 C1626 0.930 . S
H1621 C1629 0.930 . S
H1622 C1630 0.930 . S
H1623 C1631 0.930 . S
H1624 C1634 0.930 . S
H1625 C1635 0.930 . S
C1626 H1620 0.930 . S
C1626 C1627 1.355 . S
C1626 C1628 1.415 . S
C1627 C1626 1.355 . S
C1627 C1629 1.419 . S
C1628 C1626 1.415 . S
C1628 C1633 1.425 . S
C1628 C1635 1.409 . S
C1629 H1621 0.930 . S
C1629 C1627 1.419 . S
C1629 C1630 1.362 . S
C1630 H1622 0.930 . S
C1630 C1629 1.362 . S
C1630 C1633 1.409 . S
C1631 H1623 0.930 . S
C1631 C1632 1.355 . S
C1631 C1633 1.415 . S
C1632 C1631 1.355 . S
C1632 C1634 1.419 . S
C1633 C1628 1.425 . S
C1633 C1630 1.409 . S
C1633 C1631 1.415 . S
C1634 H1624 0.930 . S
C1634 C1632 1.419 . S
C1634 C1635 1.362 . S
C1635 H1625 0.930 . S
C1635 C1628 1.409 . S
C1635 C1634 1.362 . S
H1636 C1642 0.930 . S
H1637 C1645 0.930 . S
H1638 C1646 0.930 . S
H1639 C1647 0.930 . S
H1640 C1650 0.930 . S
H1641 C1651 0.930 . S
C1642 H1636 0.930 . S
C1642 C1643 1.355 . S
C1642 C1644 1.415 . S
C1643 C1642 1.355 . S
C1643 C1645 1.419 . S
C1644 C1642 1.415 . S
C1644 C1649 1.425 . S
C1644 C1651 1.409 . S
C1645 H1637 0.930 . S
C1645 C1643 1.419 . S
C1645 C1646 1.362 . S
C1646 H1638 0.930 . S
C1646 C1645 1.362 . S
C1646 C1649 1.409 . S
C1647 H1639 0.930 . S
C1647 C1648 1.355 . S
C1647 C1649 1.415 . S
C1648 C1647 1.355 . S
C1648 C1650 1.419 . S
C1649 C1644 1.425 . S
C1649 C1646 1.409 . S
C1649 C1647 1.415 . S
C1650 H1640 0.930 . S
C1650 C1648 1.419 . S
C1650 C1651 1.362 . S
C1651 H1641 0.930 . S
C1651 C1644 1.409 . S
C1651 C1650 1.362 . S
H1652 C1658 0.930 . S
H1653 C1661 0.930 . S
H1654 C1662 0.930 . S
H1655 C1663 0.930 . S
H1656 C1666 0.930 . S
H1657 C1667 0.930 . S
C1658 H1652 0.930 . S
C1658 C1659 1.355 . S
C1658 C1660 1.415 . S
C1659 C1658 1.355 . S
C1659 C1661 1.419 . S
C1660 C1658 1.415 . S
C1660 C1665 1.425 . S
C1660 C1667 1.409 . S
C1661 H1653 0.930 . S
C1661 C1659 1.419 . S
C1661 C1662 1.362 . S
C1662 H1654 0.930 . S
C1662 C1661 1.362 . S
C1662 C1665 1.409 . S
C1663 H1655 0.930 . S
C1663 C1664 1.355 . S
C1663 C1665 1.415 . S
C1664 C1663 1.355 . S
C1664 C1666 1.419 . S
C1665 C1660 1.425 . S
C1665 C1662 1.409 . S
C1665 C1663 1.415 . S
C1666 H1656 0.930 . S
C1666 C1664 1.419 . S
C1666 C1667 1.362 . S
C1667 H1657 0.930 . S
C1667 C1660 1.409 . S
C1667 C1666 1.362 . S
H1668 C1674 0.930 . S
H1669 C1677 0.930 . S
H1670 C1678 0.930 . S
H1671 C1679 0.930 . S
H1672 C1682 0.930 . S
H1673 C1683 0.930 . S
C1674 H1668 0.930 . S
C1674 C1675 1.355 . S
C1674 C1676 1.415 . S
C1675 C1674 1.355 . S
C1675 C1677 1.419 . S
C1676 C1674 1.415 . S
C1676 C1681 1.425 . S
C1676 C1683 1.409 . S
C1677 H1669 0.930 . S
C1677 C1675 1.419 . S
C1677 C1678 1.362 . S
C1678 H1670 0.930 . S
C1678 C1677 1.362 . S
C1678 C1681 1.409 . S
C1679 H1671 0.930 . S
C1679 C1680 1.355 . S
C1679 C1681 1.415 . S
C1680 C1679 1.355 . S
C1680 C1682 1.419 . S
C1681 C1676 1.425 . S
C1681 C1678 1.409 . S
C1681 C1679 1.415 . S
C1682 H1672 0.930 . S
C1682 C1680 1.419 . S
C1682 C1683 1.362 . S
C1683 H1673 0.930 . S
C1683 C1676 1.409 . S
C1683 C1682 1.362 . S
H1684 C1690 0.930 . S
H1685 C1693 0.930 . S
H1686 C1694 0.930 . S
H1687 C1695 0.930 . S
H1688 C1698 0.930 . S
H1689 C1699 0.930 . S
C1690 H1684 0.930 . S
C1690 C1691 1.355 . S
C1690 C1692 1.415 . S
C1691 C1690 1.355 . S
C1691 C1693 1.419 . S
C1692 C1690 1.415 . S
C1692 C1697 1.425 . S
C1692 C1699 1.409 . S
C1693 H1685 0.930 . S
C1693 C1691 1.419 . S
C1693 C1694 1.362 . S
C1694 H1686 0.930 . S
C1694 C1693 1.362 . S
C1694 C1697 1.409 . S
C1695 H1687 0.930 . S
C1695 C1696 1.355 . S
C1695 C1697 1.415 . S
C1696 C1695 1.355 . S
C1696 C1698 1.419 . S
C1697 C1692 1.425 . S
C1697 C1694 1.409 . S
C1697 C1695 1.415 . S
C1698 H1688 0.930 . S
C1698 C1696 1.419 . S
C1698 C1699 1.362 . S
C1699 H1689 0.930 . S
C1699 C1692 1.409 . S
C1699 C1698 1.362 . S
H1700 C1706 0.930 . S
H1701 C1709 0.930 . S
H1702 C1710 0.930 . S
H1703 C1711 0.930 . S
H1704 C1714 0.930 . S
H1705 C1715 0.930 . S
C1706 H1700 0.930 . S
C1706 C1707 1.355 . S
C1706 C1708 1.415 . S
C1707 C1706 1.355 . S
C1707 C1709 1.419 . S
C1708 C1706 1.415 . S
C1708 C1713 1.425 . S
C1708 C1715 1.409 . S
C1709 H1701 0.930 . S
C1709 C1707 1.419 . S
C1709 C1710 1.362 . S
C1710 H1702 0.930 . S
C1710 C1709 1.362 . S
C1710 C1713 1.409 . S
C1711 H1703 0.930 . S
C1711 C1712 1.355 . S
C1711 C1713 1.415 . S
C1712 C1711 1.355 . S
C1712 C1714 1.419 . S
C1713 C1708 1.425 . S
C1713 C1710 1.409 . S
C1713 C1711 1.415 . S
C1714 H1704 0.930 . S
C1714 C1712 1.419 . S
C1714 C1715 1.362 . S
C1715 H1705 0.930 . S
C1715 C1708 1.409 . S
C1715 C1714 1.362 . S
H1716 C1722 0.930 . S
H1717 C1725 0.930 . S
H1718 C1726 0.930 . S
H1719 C1727 0.930 . S
H1720 C1730 0.930 . S
H1721 C1731 0.930 . S
C1722 H1716 0.930 . S
C1722 C1723 1.355 . S
C1722 C1724 1.415 . S
C1723 C1722 1.355 . S
C1723 C1725 1.419 . S
C1724 C1722 1.415 . S
C1724 C1729 1.425 . S
C1724 C1731 1.409 . S
C1725 H1717 0.930 . S
C1725 C1723 1.419 . S
C1725 C1726 1.362 . S
C1726 H1718 0.930 . S
C1726 C1725 1.362 . S
C1726 C1729 1.409 . S
C1727 H1719 0.930 . S
C1727 C1728 1.355 . S
C1727 C1729 1.415 . S
C1728 C1727 1.355 . S
C1728 C1730 1.419 . S
C1729 C1724 1.425 . S
C1729 C1726 1.409 . S
C1729 C1727 1.415 . S
C1730 H1720 0.930 . S
C1730 C1728 1.419 . S
C1730 C1731 1.362 . S
C1731 H1721 0.930 . S
C1731 C1724 1.409 . S
C1731 C1730 1.362 . S
H1732 C1738 0.930 . S
H1733 C1741 0.930 . S
H1734 C1742 0.930 . S
H1735 C1743 0.930 . S
H1736 C1746 0.930 . S
H1737 C1747 0.930 . S
C1738 H1732 0.930 . S
C1738 C1739 1.355 . S
C1738 C1740 1.415 . S
C1739 C1738 1.355 . S
C1739 C1741 1.419 . S
C1740 C1738 1.415 . S
C1740 C1745 1.425 . S
C1740 C1747 1.409 . S
C1741 H1733 0.930 . S
C1741 C1739 1.419 . S
C1741 C1742 1.362 . S
C1742 H1734 0.930 . S
C1742 C1741 1.362 . S
C1742 C1745 1.409 . S
C1743 H1735 0.930 . S
C1743 C1744 1.355 . S
C1743 C1745 1.415 . S
C1744 C1743 1.355 . S
C1744 C1746 1.419 . S
C1745 C1740 1.425 . S
C1745 C1742 1.409 . S
C1745 C1743 1.415 . S
C1746 H1736 0.930 . S
C1746 C1744 1.419 . S
C1746 C1747 1.362 . S
C1747 H1737 0.930 . S
C1747 C1740 1.409 . S
C1747 C1746 1.362 . S
H1748 C1754 0.930 . S
H1749 C1757 0.930 . S
H1750 C1758 0.930 . S
H1751 C1759 0.930 . S
H1752 C1762 0.930 . S
H1753 C1763 0.930 . S
C1754 H1748 0.930 . S
C1754 C1755 1.355 . S
C1754 C1756 1.415 . S
C1755 C1754 1.355 . S
C1755 C1757 1.419 . S
C1756 C1754 1.415 . S
C1756 C1761 1.425 . S
C1756 C1763 1.409 . S
C1757 H1749 0.930 . S
C1757 C1755 1.419 . S
C1757 C1758 1.362 . S
C1758 H1750 0.930 . S
C1758 C1757 1.362 . S
C1758 C1761 1.409 . S
C1759 H1751 0.930 . S
C1759 C1760 1.355 . S
C1759 C1761 1.415 . S
C1760 C1759 1.355 . S
C1760 C1762 1.419 . S
C1761 C1756 1.425 . S
C1761 C1758 1.409 . S
C1761 C1759 1.415 . S
C1762 H1752 0.930 . S
C1762 C1760 1.419 . S
C1762 C1763 1.362 . S
C1763 H1753 0.930 . S
C1763 C1756 1.409 . S
C1763 C1762 1.362 . S
H1764 C1770 0.930 . S
H1765 C1773 0.930 . S
H1766 C1774 0.930 . S
H1767 C1775 0.930 . S
H1768 C1778 0.930 1_554 S
H1769 C1779 0.930 . S
C1770 H1764 0.930 . S
C1770 C1771 1.355 . S
C1770 C1772 1.415 . S
C1771 C1770 1.355 . S
C1771 C1773 1.419 . S
C1772 C1770 1.415 . S
C1772 C1777 1.425 . S
C1772 C1779 1.409 . S
C1773 H1765 0.930 . S
C1773 C1771 1.419 . S
C1773 C1774 1.362 . S
C1774 H1766 0.930 . S
C1774 C1773 1.362 . S
C1774 C1777 1.409 . S
C1775 H1767 0.930 . S
C1775 C1776 1.355 . S
C1775 C1777 1.415 . S
C1776 C1775 1.355 . S
C1776 C1778 1.419 . S
C1777 C1772 1.425 . S
C1777 C1774 1.409 . S
C1777 C1775 1.415 . S
C1778 H1768 0.930 1_556 S
C1778 C1776 1.419 . S
C1778 C1779 1.362 . S
C1779 H1769 0.930 . S
C1779 C1772 1.409 . S
C1779 C1778 1.362 . S
H1780 C1786 0.930 . S
H1781 C1789 0.930 1_554 S
H1782 C1790 0.930 . S
H1783 C1791 0.930 . S
H1784 C1794 0.930 . S
H1785 C1795 0.930 . S
C1786 H1780 0.930 . S
C1786 C1787 1.355 . S
C1786 C1788 1.415 . S
C1787 C1786 1.355 . S
C1787 C1789 1.419 . S
C1788 C1786 1.415 . S
C1788 C1793 1.425 . S
C1788 C1795 1.409 . S
C1789 H1781 0.930 1_556 S
C1789 C1787 1.419 . S
C1789 C1790 1.362 . S
C1790 H1782 0.930 . S
C1790 C1789 1.362 . S
C1790 C1793 1.409 . S
C1791 H1783 0.930 . S
C1791 C1792 1.355 . S
C1791 C1793 1.415 . S
C1792 C1791 1.355 . S
C1792 C1794 1.419 . S
C1793 C1788 1.425 . S
C1793 C1790 1.409 . S
C1793 C1791 1.415 . S
C1794 H1784 0.930 . S
C1794 C1792 1.419 . S
C1794 C1795 1.362 . S
C1795 H1785 0.930 . S
C1795 C1788 1.409 . S
C1795 C1794 1.362 . S
H1796 C1802 0.930 . S
H1797 C1805 0.930 . S
H1798 C1806 0.930 . S
H1799 C1807 0.930 . S
H1800 C1810 0.930 . S
H1801 C1811 0.930 . S
C1802 H1796 0.930 . S
C1802 C1803 1.355 . S
C1802 C1804 1.415 . S
C1803 C1802 1.355 . S
C1803 C1805 1.419 . S
C1804 C1802 1.415 . S
C1804 C1809 1.425 . S
C1804 C1811 1.409 . S
C1805 H1797 0.930 . S
C1805 C1803 1.419 . S
C1805 C1806 1.362 . S
C1806 H1798 0.930 . S
C1806 C1805 1.362 . S
C1806 C1809 1.409 . S
C1807 H1799 0.930 . S
C1807 C1808 1.355 . S
C1807 C1809 1.415 . S
C1808 C1807 1.355 . S
C1808 C1810 1.419 . S
C1809 C1804 1.425 . S
C1809 C1806 1.409 . S
C1809 C1807 1.415 . S
C1810 H1800 0.930 . S
C1810 C1808 1.419 . S
C1810 C1811 1.362 . S
C1811 H1801 0.930 . S
C1811 C1804 1.409 . S
C1811 C1810 1.362 . S
H1812 C1818 0.930 . S
H1813 C1821 0.930 . S
H1814 C1822 0.930 . S
H1815 C1823 0.930 . S
H1816 C1826 0.930 . S
H1817 C1827 0.930 . S
C1818 H1812 0.930 . S
C1818 C1819 1.355 . S
C1818 C1820 1.415 . S
C1819 C1818 1.355 . S
C1819 C1821 1.419 . S
C1820 C1818 1.415 . S
C1820 C1825 1.425 . S
C1820 C1827 1.409 . S
C1821 H1813 0.930 . S
C1821 C1819 1.419 . S
C1821 C1822 1.362 . S
C1822 H1814 0.930 . S
C1822 C1821 1.362 . S
C1822 C1825 1.409 . S
C1823 H1815 0.930 . S
C1823 C1824 1.355 . S
C1823 C1825 1.415 . S
C1824 C1823 1.355 . S
C1824 C1826 1.419 . S
C1825 C1820 1.425 . S
C1825 C1822 1.409 . S
C1825 C1823 1.415 . S
C1826 H1816 0.930 . S
C1826 C1824 1.419 . S
C1826 C1827 1.362 . S
C1827 H1817 0.930 . S
C1827 C1820 1.409 . S
C1827 C1826 1.362 . S
H1828 C1834 0.930 . S
H1829 C1837 0.930 1_556 S
H1830 C1838 0.930 . S
H1831 C1839 0.930 . S
H1832 C1842 0.930 . S
H1833 C1843 0.930 . S
C1834 H1828 0.930 . S
C1834 C1835 1.355 . S
C1834 C1836 1.415 . S
C1835 C1834 1.355 . S
C1835 C1837 1.419 . S
C1836 C1834 1.415 . S
C1836 C1841 1.425 . S
C1836 C1843 1.409 . S
C1837 H1829 0.930 1_554 S
C1837 C1835 1.419 . S
C1837 C1838 1.362 . S
C1838 H1830 0.930 . S
C1838 C1837 1.362 . S
C1838 C1841 1.409 . S
C1839 H1831 0.930 . S
C1839 C1840 1.355 . S
C1839 C1841 1.415 . S
C1840 C1839 1.355 . S
C1840 C1842 1.419 . S
C1841 C1836 1.425 . S
C1841 C1838 1.409 . S
C1841 C1839 1.415 . S
C1842 H1832 0.930 . S
C1842 C1840 1.419 . S
C1842 C1843 1.362 . S
C1843 H1833 0.930 . S
C1843 C1836 1.409 . S
C1843 C1842 1.362 . S
H1844 C1850 0.930 . S
H1845 C1853 0.930 1_556 S
H1846 C1854 0.930 . S
H1847 C1855 0.930 . S
H1848 C1858 0.930 . S
H1849 C1859 0.930 . S
C1850 H1844 0.930 . S
C1850 C1851 1.355 . S
C1850 C1852 1.415 . S
C1851 C1850 1.355 . S
C1851 C1853 1.419 . S
C1852 C1850 1.415 . S
C1852 C1857 1.425 . S
C1852 C1859 1.409 . S
C1853 H1845 0.930 1_554 S
C1853 C1851 1.419 . S
C1853 C1854 1.362 . S
C1854 H1846 0.930 . S
C1854 C1853 1.362 . S
C1854 C1857 1.409 . S
C1855 H1847 0.930 . S
C1855 C1856 1.355 . S
C1855 C1857 1.415 . S
C1856 C1855 1.355 . S
C1856 C1858 1.419 . S
C1857 C1852 1.425 . S
C1857 C1854 1.409 . S
C1857 C1855 1.415 . S
C1858 H1848 0.930 . S
C1858 C1856 1.419 . S
C1858 C1859 1.362 . S
C1859 H1849 0.930 . S
C1859 C1852 1.409 . S
C1859 C1858 1.362 . S
H1860 C1866 0.930 . S
H1861 C1869 0.930 . S
H1862 C1870 0.930 . S
H1863 C1871 0.930 . S
H1864 C1874 0.930 . S
H1865 C1875 0.930 . S
C1866 H1860 0.930 . S
C1866 C1867 1.355 . S
C1866 C1868 1.415 . S
C1867 C1866 1.355 . S
C1867 C1869 1.419 . S
C1868 C1866 1.415 . S
C1868 C1873 1.425 . S
C1868 C1875 1.409 . S
C1869 H1861 0.930 . S
C1869 C1867 1.419 . S
C1869 C1870 1.362 . S
C1870 H1862 0.930 . S
C1870 C1869 1.362 . S
C1870 C1873 1.409 . S
C1871 H1863 0.930 . S
C1871 C1872 1.355 . S
C1871 C1873 1.415 . S
C1872 C1871 1.355 . S
C1872 C1874 1.419 . S
C1873 C1868 1.425 . S
C1873 C1870 1.409 . S
C1873 C1871 1.415 . S
C1874 H1864 0.930 . S
C1874 C1872 1.419 . S
C1874 C1875 1.362 . S
C1875 H1865 0.930 . S
C1875 C1868 1.409 . S
C1875 C1874 1.362 . S
H1876 C1882 0.930 . S
H1877 C1885 0.930 . S
H1878 C1886 0.930 . S
H1879 C1887 0.930 . S
H1880 C1890 0.930 . S
H1881 C1891 0.930 . S
C1882 H1876 0.930 . S
C1882 C1883 1.355 . S
C1882 C1884 1.415 . S
C1883 C1882 1.355 . S
C1883 C1885 1.419 . S
C1884 C1882 1.415 . S
C1884 C1889 1.425 . S
C1884 C1891 1.409 . S
C1885 H1877 0.930 . S
C1885 C1883 1.419 . S
C1885 C1886 1.362 . S
C1886 H1878 0.930 . S
C1886 C1885 1.362 . S
C1886 C1889 1.409 . S
C1887 H1879 0.930 . S
C1887 C1888 1.355 . S
C1887 C1889 1.415 . S
C1888 C1887 1.355 . S
C1888 C1890 1.419 . S
C1889 C1884 1.425 . S
C1889 C1886 1.409 . S
C1889 C1887 1.415 . S
C1890 H1880 0.930 . S
C1890 C1888 1.419 . S
C1890 C1891 1.362 . S
C1891 H1881 0.930 . S
C1891 C1884 1.409 . S
C1891 C1890 1.362 . S
H1892 C1898 0.930 . S
H1893 C1901 0.930 . S
H1894 C1902 0.930 . S
H1895 C1903 0.930 . S
H1896 C1906 0.930 . S
H1897 C1907 0.930 . S
C1898 H1892 0.930 . S
C1898 C1899 1.355 . S
C1898 C1900 1.415 . S
C1899 C1898 1.355 . S
C1899 C1901 1.419 . S
C1900 C1898 1.415 . S
C1900 C1905 1.425 . S
C1900 C1907 1.409 . S
C1901 H1893 0.930 . S
C1901 C1899 1.419 . S
C1901 C1902 1.362 . S
C1902 H1894 0.930 . S
C1902 C1901 1.362 . S
C1902 C1905 1.409 . S
C1903 H1895 0.930 . S
C1903 C1904 1.355 . S
C1903 C1905 1.415 . S
C1904 C1903 1.355 . S
C1904 C1906 1.419 . S
C1905 C1900 1.425 . S
C1905 C1902 1.409 . S
C1905 C1903 1.415 . S
C1906 H1896 0.930 . S
C1906 C1904 1.419 . S
C1906 C1907 1.362 . S
C1907 H1897 0.930 . S
C1907 C1900 1.409 . S
C1907 C1906 1.362 . S
H1908 C1914 0.930 . S
H1909 C1917 0.930 . S
H1910 C1918 0.930 . S
H1911 C1919 0.930 . S
H1912 C1922 0.930 . S
H1913 C1923 0.930 . S
C1914 H1908 0.930 . S
C1914 C1915 1.355 . S
C1914 C1916 1.415 . S
C1915 C1914 1.355 . S
C1915 C1917 1.419 . S
C1916 C1914 1.415 . S
C1916 C1921 1.425 . S
C1916 C1923 1.409 . S
C1917 H1909 0.930 . S
C1917 C1915 1.419 . S
C1917 C1918 1.362 . S
C1918 H1910 0.930 . S
C1918 C1917 1.362 . S
C1918 C1921 1.409 . S
C1919 H1911 0.930 . S
C1919 C1920 1.355 . S
C1919 C1921 1.415 . S
C1920 C1919 1.355 . S
C1920 C1922 1.419 . S
C1921 C1916 1.425 . S
C1921 C1918 1.409 . S
C1921 C1919 1.415 . S
C1922 H1912 0.930 . S
C1922 C1920 1.419 . S
C1922 C1923 1.362 . S
C1923 H1913 0.930 . S
C1923 C1916 1.409 . S
C1923 C1922 1.362 . S
H1924 C1930 0.930 . S
H1925 C1933 0.930 . S
H1926 C1934 0.930 . S
H1927 C1935 0.930 . S
H1928 C1938 0.930 . S
H1929 C1939 0.930 . S
C1930 H1924 0.930 . S
C1930 C1931 1.355 . S
C1930 C1932 1.415 . S
C1931 C1930 1.355 . S
C1931 C1933 1.419 . S
C1932 C1930 1.415 . S
C1932 C1937 1.425 . S
C1932 C1939 1.409 . S
C1933 H1925 0.930 . S
C1933 C1931 1.419 . S
C1933 C1934 1.362 . S
C1934 H1926 0.930 . S
C1934 C1933 1.362 . S
C1934 C1937 1.409 . S
C1935 H1927 0.930 . S
C1935 C1936 1.355 . S
C1935 C1937 1.415 . S
C1936 C1935 1.355 . S
C1936 C1938 1.419 . S
C1937 C1932 1.425 . S
C1937 C1934 1.409 . S
C1937 C1935 1.415 . S
C1938 H1928 0.930 . S
C1938 C1936 1.419 . S
C1938 C1939 1.362 . S
C1939 H1929 0.930 . S
C1939 C1932 1.409 . S
C1939 C1938 1.362 . S
H1940 C1946 0.930 . S
H1941 C1949 0.930 . S
H1942 C1950 0.930 . S
H1943 C1951 0.930 . S
H1944 C1954 0.930 . S
H1945 C1955 0.930 . S
C1946 H1940 0.930 . S
C1946 C1947 1.355 . S
C1946 C1948 1.415 . S
C1947 C1946 1.355 . S
C1947 C1949 1.419 . S
C1948 C1946 1.415 . S
C1948 C1953 1.425 . S
C1948 C1955 1.409 . S
C1949 H1941 0.930 . S
C1949 C1947 1.419 . S
C1949 C1950 1.362 . S
C1950 H1942 0.930 . S
C1950 C1949 1.362 . S
C1950 C1953 1.409 . S
C1951 H1943 0.930 . S
C1951 C1952 1.355 . S
C1951 C1953 1.415 . S
C1952 C1951 1.355 . S
C1952 C1954 1.419 . S
C1953 C1948 1.425 . S
C1953 C1950 1.409 . S
C1953 C1951 1.415 . S
C1954 H1944 0.930 . S
C1954 C1952 1.419 . S
C1954 C1955 1.362 . S
C1955 H1945 0.930 . S
C1955 C1948 1.409 . S
C1955 C1954 1.362 . S
H1956 C1962 0.930 . S
H1957 C1965 0.930 . S
H1958 C1966 0.915 1_655 S
H1959 C1967 0.930 . S
H1960 C1970 0.930 . S
H1961 C1971 0.915 1_455 S
C1962 H1956 0.930 . S
C1962 C1963 1.355 . S
C1962 C1964 1.415 . S
C1963 C1962 1.355 . S
C1963 C1965 1.419 . S
C1964 C1962 1.415 . S
C1964 C1969 1.425 1_455 S
C1964 C1971 1.409 1_455 S
C1965 H1957 0.930 . S
C1965 C1963 1.419 . S
C1965 C1966 1.362 . S
C1966 H1958 0.915 1_455 S
C1966 C1965 1.362 . S
C1966 C1969 1.409 1_455 S
C1967 H1959 0.930 . S
C1967 C1968 1.355 . S
C1967 C1969 1.415 . S
C1968 C1967 1.355 . S
C1968 C1970 1.419 . S
C1969 C1964 1.425 1_655 S
C1969 C1966 1.409 1_655 S
C1969 C1967 1.415 . S
C1970 H1960 0.930 . S
C1970 C1968 1.419 . S
C1970 C1971 1.362 . S
C1971 H1961 0.915 1_655 S
C1971 C1964 1.409 1_655 S
C1971 C1970 1.362 . S
H1972 C1978 0.930 . S
H1973 C1981 0.930 . S
H1974 C1982 0.930 . S
H1975 C1983 0.930 . S
H1976 C1986 0.930 . S
H1977 C1987 0.930 . S
C1978 H1972 0.930 . S
C1978 C1979 1.355 . S
C1978 C1980 1.415 . S
C1979 C1978 1.355 . S
C1979 C1981 1.419 . S
C1980 C1978 1.415 . S
C1980 C1985 1.425 . S
C1980 C1987 1.409 . S
C1981 H1973 0.930 . S
C1981 C1979 1.419 . S
C1981 C1982 1.362 . S
C1982 H1974 0.930 . S
C1982 C1981 1.362 . S
C1982 C1985 1.409 . S
C1983 H1975 0.930 . S
C1983 C1984 1.355 . S
C1983 C1985 1.415 . S
C1984 C1983 1.355 . S
C1984 C1986 1.419 . S
C1985 C1980 1.425 . S
C1985 C1982 1.409 . S
C1985 C1983 1.415 . S
C1986 H1976 0.930 . S
C1986 C1984 1.419 . S
C1986 C1987 1.362 . S
C1987 H1977 0.930 . S
C1987 C1980 1.409 . S
C1987 C1986 1.362 . S
H1988 C1994 0.930 . S
H1989 C1997 0.930 . S
H1990 C1998 0.930 . S
H1991 C1999 0.930 . S
H1992 C2002 0.930 . S
H1993 C2003 0.930 . S
C1994 H1988 0.930 . S
C1994 C1995 1.355 . S
C1994 C1996 1.410 . S
C1995 C1994 1.355 . S
C1995 C1997 1.419 . S
C1996 C1994 1.410 . S
C1996 C2001 1.420 1_565 S
C1996 C2003 1.417 1_565 S
C1997 H1989 0.930 . S
C1997 C1995 1.419 . S
C1997 C1998 1.362 . S
C1998 H1990 0.930 . S
C1998 C1997 1.362 . S
C1998 C2001 1.416 1_565 S
C1999 H1991 0.930 . S
C1999 C2000 1.355 . S
C1999 C2001 1.410 . S
C2000 C1999 1.355 . S
C2000 C2002 1.419 . S
C2001 C1996 1.420 1_545 S
C2001 C1998 1.416 1_545 S
C2001 C1999 1.410 . S
C2002 H1992 0.930 . S
C2002 C2000 1.419 . S
C2002 C2003 1.362 . S
C2003 H1993 0.930 . S
C2003 C1996 1.417 1_545 S
C2003 C2002 1.362 . S
H2004 C2010 0.930 . S
H2005 C2013 0.930 . S
H2006 C2014 0.962 . S
H2007 C2015 0.930 . S
H2008 C2018 0.930 . S
H2009 C2019 0.962 . S
C2010 H2004 0.930 . S
C2010 C2011 1.355 . S
C2010 C2012 1.415 . S
C2011 C2010 1.355 . S
C2011 C2013 1.419 . S
C2012 C2010 1.415 . S
C2012 C2017 1.425 1_565 S
C2012 C2019 1.445 . S
C2013 H2005 0.930 . S
C2013 C2011 1.419 . S
C2013 C2014 1.301 1_565 S
C2014 H2006 0.962 . S
C2014 C2013 1.301 1_545 S
C2014 C2017 1.445 . S
C2015 H2007 0.930 . S
C2015 C2016 1.355 . S
C2015 C2017 1.415 . S
C2016 C2015 1.355 . S
C2016 C2018 1.419 . S
C2017 C2012 1.425 1_545 S
C2017 C2014 1.445 . S
C2017 C2015 1.415 . S
C2018 H2008 0.930 . S
C2018 C2016 1.419 . S
C2018 C2019 1.301 1_545 S
C2019 H2009 0.962 . S
C2019 C2012 1.445 . S
C2019 C2018 1.301 1_565 S
H2020 C2026 0.930 . S
H2021 C2029 0.930 . S
H2022 C2030 0.930 . S
H2023 C2031 0.930 . S
H2024 C2034 0.930 . S
H2025 C2035 0.930 . S
C2026 H2020 0.930 . S
C2026 C2027 1.355 . S
C2026 C2028 1.415 . S
C2027 C2026 1.355 . S
C2027 C2029 1.419 . S
C2028 C2026 1.415 . S
C2028 C2033 1.425 1_455 S
C2028 C2035 1.409 1_455 S
C2029 H2021 0.930 . S
C2029 C2027 1.419 . S
C2029 C2030 1.362 . S
C2030 H2022 0.930 . S
C2030 C2029 1.362 . S
C2030 C2033 1.409 1_455 S
C2031 H2023 0.930 . S
C2031 C2032 1.355 . S
C2031 C2033 1.415 . S
C2032 C2031 1.355 . S
C2032 C2034 1.419 . S
C2033 C2028 1.425 1_655 S
C2033 C2030 1.409 1_655 S
C2033 C2031 1.415 . S
C2034 H2024 0.930 . S
C2034 C2032 1.419 . S
C2034 C2035 1.362 . S
C2035 H2025 0.930 . S
C2035 C2028 1.409 1_655 S
C2035 C2034 1.362 . S
H2036 C2042 0.930 . S
H2037 C2045 0.930 . S
H2038 C2046 0.930 . S
H2039 C2047 0.930 . S
H2040 C2050 0.930 . S
H2041 C2051 0.930 . S
C2042 H2036 0.930 . S
C2042 C2043 1.355 . S
C2042 C2044 1.415 . S
C2043 C2042 1.355 . S
C2043 C2045 1.419 . S
C2044 C2042 1.415 . S
C2044 C2049 1.425 . S
C2044 C2051 1.409 . S
C2045 H2037 0.930 . S
C2045 C2043 1.419 . S
C2045 C2046 1.362 . S
C2046 H2038 0.930 . S
C2046 C2045 1.362 . S
C2046 C2049 1.409 . S
C2047 H2039 0.930 . S
C2047 C2048 1.355 . S
C2047 C2049 1.415 . S
C2048 C2047 1.355 . S
C2048 C2050 1.419 . S
C2049 C2044 1.425 . S
C2049 C2046 1.409 . S
C2049 C2047 1.415 . S
C2050 H2040 0.930 . S
C2050 C2048 1.419 . S
C2050 C2051 1.362 . S
C2051 H2041 0.930 . S
C2051 C2044 1.409 . S
C2051 C2050 1.362 . S
H2052 C2058 0.930 . S
H2053 C2061 0.930 . S
H2054 C2062 0.930 . S
H2055 C2063 0.930 . S
H2056 C2066 0.930 . S
H2057 C2067 0.930 . S
C2058 H2052 0.930 . S
C2058 C2059 1.355 . S
C2058 C2060 1.415 . S
C2059 C2058 1.355 . S
C2059 C2061 1.419 . S
C2060 C2058 1.415 . S
C2060 C2065 1.425 . S
C2060 C2067 1.409 . S
C2061 H2053 0.930 . S
C2061 C2059 1.419 . S
C2061 C2062 1.362 . S
C2062 H2054 0.930 . S
C2062 C2061 1.362 . S
C2062 C2065 1.409 . S
C2063 H2055 0.930 . S
C2063 C2064 1.355 . S
C2063 C2065 1.415 . S
C2064 C2063 1.355 . S
C2064 C2066 1.419 . S
C2065 C2060 1.425 . S
C2065 C2062 1.409 . S
C2065 C2063 1.415 . S
C2066 H2056 0.930 . S
C2066 C2064 1.419 . S
C2066 C2067 1.362 . S
C2067 H2057 0.930 . S
C2067 C2060 1.409 . S
C2067 C2066 1.362 . S
H2068 C2074 0.930 . S
H2069 C2077 0.930 . S
H2070 C2078 0.930 . S
H2071 C2079 0.930 . S
H2072 C2082 0.930 . S
H2073 C2083 0.930 . S
C2074 H2068 0.930 . S
C2074 C2075 1.355 . S
C2074 C2076 1.415 . S
C2075 C2074 1.355 . S
C2075 C2077 1.419 . S
C2076 C2074 1.415 . S
C2076 C2081 1.425 . S
C2076 C2083 1.409 . S
C2077 H2069 0.930 . S
C2077 C2075 1.419 . S
C2077 C2078 1.362 . S
C2078 H2070 0.930 . S
C2078 C2077 1.362 . S
C2078 C2081 1.409 . S
C2079 H2071 0.930 . S
C2079 C2080 1.355 . S
C2079 C2081 1.415 . S
C2080 C2079 1.355 . S
C2080 C2082 1.419 . S
C2081 C2076 1.425 . S
C2081 C2078 1.409 . S
C2081 C2079 1.415 . S
C2082 H2072 0.930 . S
C2082 C2080 1.419 . S
C2082 C2083 1.362 . S
C2083 H2073 0.930 . S
C2083 C2076 1.409 . S
C2083 C2082 1.362 . S
H2084 C2090 0.930 . S
H2085 C2093 0.930 . S
H2086 C2094 0.930 . S
H2087 C2095 0.930 . S
H2088 C2098 0.930 . S
H2089 C2099 0.930 . S
C2090 H2084 0.930 . S
C2090 C2091 1.355 . S
C2090 C2092 1.415 . S
C2091 C2090 1.355 . S
C2091 C2093 1.419 . S
C2092 C2090 1.415 . S
C2092 C2097 1.425 . S
C2092 C2099 1.409 . S
C2093 H2085 0.930 . S
C2093 C2091 1.419 . S
C2093 C2094 1.362 . S
C2094 H2086 0.930 . S
C2094 C2093 1.362 . S
C2094 C2097 1.409 . S
C2095 H2087 0.930 . S
C2095 C2096 1.355 . S
C2095 C2097 1.415 . S
C2096 C2095 1.355 . S
C2096 C2098 1.419 . S
C2097 C2092 1.425 . S
C2097 C2094 1.409 . S
C2097 C2095 1.415 . S
C2098 H2088 0.930 . S
C2098 C2096 1.419 . S
C2098 C2099 1.362 . S
C2099 H2089 0.930 . S
C2099 C2092 1.409 . S
C2099 C2098 1.362 . S
H2100 C2106 0.930 . S
H2101 C2109 0.930 . S
H2102 C2110 0.930 . S
H2103 C2111 0.930 . S
H2104 C2114 0.930 . S
H2105 C2115 0.930 . S
C2106 H2100 0.930 . S
C2106 C2107 1.355 . S
C2106 C2108 1.415 . S
C2107 C2106 1.355 . S
C2107 C2109 1.419 . S
C2108 C2106 1.415 . S
C2108 C2113 1.425 . S
C2108 C2115 1.409 . S
C2109 H2101 0.930 . S
C2109 C2107 1.419 . S
C2109 C2110 1.362 . S
C2110 H2102 0.930 . S
C2110 C2109 1.362 . S
C2110 C2113 1.409 . S
C2111 H2103 0.930 . S
C2111 C2112 1.355 . S
C2111 C2113 1.415 . S
C2112 C2111 1.355 . S
C2112 C2114 1.419 . S
C2113 C2108 1.425 . S
C2113 C2110 1.409 . S
C2113 C2111 1.415 . S
C2114 H2104 0.930 . S
C2114 C2112 1.419 . S
C2114 C2115 1.362 . S
C2115 H2105 0.930 . S
C2115 C2108 1.409 . S
C2115 C2114 1.362 . S
H2116 C2122 0.930 . S
H2117 C2125 0.930 . S
H2118 C2126 0.930 . S
H2119 C2127 0.930 . S
H2120 C2130 0.930 . S
H2121 C2131 0.930 . S
C2122 H2116 0.930 . S
C2122 C2123 1.355 . S
C2122 C2124 1.415 . S
C2123 C2122 1.355 . S
C2123 C2125 1.419 . S
C2124 C2122 1.415 . S
C2124 C2129 1.425 . S
C2124 C2131 1.409 . S
C2125 H2117 0.930 . S
C2125 C2123 1.419 . S
C2125 C2126 1.362 . S
C2126 H2118 0.930 . S
C2126 C2125 1.362 . S
C2126 C2129 1.409 . S
C2127 H2119 0.930 . S
C2127 C2128 1.355 . S
C2127 C2129 1.415 . S
C2128 C2127 1.355 . S
C2128 C2130 1.419 . S
C2129 C2124 1.425 . S
C2129 C2126 1.409 . S
C2129 C2127 1.415 . S
C2130 H2120 0.930 . S
C2130 C2128 1.419 . S
C2130 C2131 1.362 . S
C2131 H2121 0.930 . S
C2131 C2124 1.409 . S
C2131 C2130 1.362 . S
H2132 C2138 0.930 . S
H2133 C2141 0.930 . S
H2134 C2142 0.930 . S
H2135 C2143 0.930 . S
H2136 C2146 0.930 . S
H2137 C2147 0.930 . S
C2138 H2132 0.930 . S
C2138 C2139 1.355 . S
C2138 C2140 1.415 . S
C2139 C2138 1.355 . S
C2139 C2141 1.419 . S
C2140 C2138 1.415 . S
C2140 C2145 1.425 . S
C2140 C2147 1.409 . S
C2141 H2133 0.930 . S
C2141 C2139 1.419 . S
C2141 C2142 1.362 . S
C2142 H2134 0.930 . S
C2142 C2141 1.362 . S
C2142 C2145 1.409 . S
C2143 H2135 0.930 . S
C2143 C2144 1.355 . S
C2143 C2145 1.415 . S
C2144 C2143 1.355 . S
C2144 C2146 1.419 . S
C2145 C2140 1.425 . S
C2145 C2142 1.409 . S
C2145 C2143 1.415 . S
C2146 H2136 0.930 . S
C2146 C2144 1.419 . S
C2146 C2147 1.362 . S
C2147 H2137 0.930 . S
C2147 C2140 1.409 . S
C2147 C2146 1.362 . S
H2148 C2154 0.930 . S
H2149 C2157 0.930 . S
H2150 C2158 0.930 . S
H2151 C2159 0.930 . S
H2152 C2162 0.930 . S
H2153 C2163 0.930 . S
C2154 H2148 0.930 . S
C2154 C2155 1.355 . S
C2154 C2156 1.415 . S
C2155 C2154 1.355 . S
C2155 C2157 1.419 . S
C2156 C2154 1.415 . S
C2156 C2161 1.425 . S
C2156 C2163 1.409 . S
C2157 H2149 0.930 . S
C2157 C2155 1.419 . S
C2157 C2158 1.362 . S
C2158 H2150 0.930 . S
C2158 C2157 1.362 . S
C2158 C2161 1.409 . S
C2159 H2151 0.930 . S
C2159 C2160 1.355 . S
C2159 C2161 1.415 . S
C2160 C2159 1.355 . S
C2160 C2162 1.419 . S
C2161 C2156 1.425 . S
C2161 C2158 1.409 . S
C2161 C2159 1.415 . S
C2162 H2152 0.930 . S
C2162 C2160 1.419 . S
C2162 C2163 1.362 . S
C2163 H2153 0.930 . S
C2163 C2156 1.409 . S
C2163 C2162 1.362 . S
H2164 C2170 0.930 . S
H2165 C2173 0.930 . S
H2166 C2174 0.930 . S
H2167 C2175 0.930 . S
H2168 C2178 0.930 . S
H2169 C2179 0.930 . S
C2170 H2164 0.930 . S
C2170 C2171 1.355 . S
C2170 C2172 1.415 . S
C2171 C2170 1.355 . S
C2171 C2173 1.419 . S
C2172 C2170 1.415 . S
C2172 C2177 1.425 . S
C2172 C2179 1.409 . S
C2173 H2165 0.930 . S
C2173 C2171 1.419 . S
C2173 C2174 1.362 . S
C2174 H2166 0.930 . S
C2174 C2173 1.362 . S
C2174 C2177 1.409 . S
C2175 H2167 0.930 . S
C2175 C2176 1.355 . S
C2175 C2177 1.415 . S
C2176 C2175 1.355 . S
C2176 C2178 1.419 . S
C2177 C2172 1.425 . S
C2177 C2174 1.409 . S
C2177 C2175 1.415 . S
C2178 H2168 0.930 . S
C2178 C2176 1.419 . S
C2178 C2179 1.362 . S
C2179 H2169 0.930 . S
C2179 C2172 1.409 . S
C2179 C2178 1.362 . S
H2180 C2186 0.930 . S
H2181 C2189 0.930 . S
H2182 C2190 0.930 . S
H2183 C2191 0.930 . S
H2184 C2194 0.930 . S
H2185 C2195 0.930 . S
C2186 H2180 0.930 . S
C2186 C2187 1.355 . S
C2186 C2188 1.415 . S
C2187 C2186 1.355 . S
C2187 C2189 1.419 . S
C2188 C2186 1.415 . S
C2188 C2193 1.425 . S
C2188 C2195 1.409 . S
C2189 H2181 0.930 . S
C2189 C2187 1.419 . S
C2189 C2190 1.362 . S
C2190 H2182 0.930 . S
C2190 C2189 1.362 . S
C2190 C2193 1.409 . S
C2191 H2183 0.930 . S
C2191 C2192 1.355 . S
C2191 C2193 1.415 . S
C2192 C2191 1.355 . S
C2192 C2194 1.419 . S
C2193 C2188 1.425 . S
C2193 C2190 1.409 . S
C2193 C2191 1.415 . S
C2194 H2184 0.930 . S
C2194 C2192 1.419 . S
C2194 C2195 1.362 . S
C2195 H2185 0.930 . S
C2195 C2188 1.409 . S
C2195 C2194 1.362 . S
H2196 C2202 0.930 . S
H2197 C2205 0.930 . S
H2198 C2206 0.930 . S
H2199 C2207 0.930 . S
H2200 C2210 0.930 . S
H2201 C2211 0.930 . S
C2202 H2196 0.930 . S
C2202 C2203 1.355 . S
C2202 C2204 1.415 . S
C2203 C2202 1.355 . S
C2203 C2205 1.419 . S
C2204 C2202 1.415 . S
C2204 C2209 1.425 . S
C2204 C2211 1.409 . S
C2205 H2197 0.930 . S
C2205 C2203 1.419 . S
C2205 C2206 1.362 . S
C2206 H2198 0.930 . S
C2206 C2205 1.362 . S
C2206 C2209 1.409 . S
C2207 H2199 0.930 . S
C2207 C2208 1.355 . S
C2207 C2209 1.415 . S
C2208 C2207 1.355 . S
C2208 C2210 1.419 . S
C2209 C2204 1.425 . S
C2209 C2206 1.409 . S
C2209 C2207 1.415 . S
C2210 H2200 0.930 . S
C2210 C2208 1.419 . S
C2210 C2211 1.362 . S
C2211 H2201 0.930 . S
C2211 C2204 1.409 . S
C2211 C2210 1.362 . S
H2212 C2218 0.930 . S
H2213 C2221 0.930 . S
H2214 C2222 0.930 . S
H2215 C2223 0.930 . S
H2216 C2226 0.930 . S
H2217 C2227 0.930 . S
C2218 H2212 0.930 . S
C2218 C2219 1.355 . S
C2218 C2220 1.415 . S
C2219 C2218 1.355 . S
C2219 C2221 1.419 . S
C2220 C2218 1.415 . S
C2220 C2225 1.425 . S
C2220 C2227 1.409 . S
C2221 H2213 0.930 . S
C2221 C2219 1.419 . S
C2221 C2222 1.362 . S
C2222 H2214 0.930 . S
C2222 C2221 1.362 . S
C2222 C2225 1.409 . S
C2223 H2215 0.930 . S
C2223 C2224 1.355 . S
C2223 C2225 1.415 . S
C2224 C2223 1.355 . S
C2224 C2226 1.419 . S
C2225 C2220 1.425 . S
C2225 C2222 1.409 . S
C2225 C2223 1.415 . S
C2226 H2216 0.930 . S
C2226 C2224 1.419 . S
C2226 C2227 1.362 . S
C2227 H2217 0.930 . S
C2227 C2220 1.409 . S
C2227 C2226 1.362 . S
H2228 C2234 0.930 . S
H2229 C2237 0.930 . S
H2230 C2238 0.930 . S
H2231 C2239 0.930 . S
H2232 C2242 0.930 . S
H2233 C2243 0.930 . S
C2234 H2228 0.930 . S
C2234 C2235 1.355 . S
C2234 C2236 1.415 . S
C2235 C2234 1.355 . S
C2235 C2237 1.419 . S
C2236 C2234 1.415 . S
C2236 C2241 1.425 . S
C2236 C2243 1.409 . S
C2237 H2229 0.930 . S
C2237 C2235 1.419 . S
C2237 C2238 1.362 . S
C2238 H2230 0.930 . S
C2238 C2237 1.362 . S
C2238 C2241 1.409 . S
C2239 H2231 0.930 . S
C2239 C2240 1.355 . S
C2239 C2241 1.415 . S
C2240 C2239 1.355 . S
C2240 C2242 1.419 . S
C2241 C2236 1.425 . S
C2241 C2238 1.409 . S
C2241 C2239 1.415 . S
C2242 H2232 0.930 . S
C2242 C2240 1.419 . S
C2242 C2243 1.362 . S
C2243 H2233 0.930 . S
C2243 C2236 1.409 . S
C2243 C2242 1.362 . S
H2244 C2250 0.930 . S
H2245 C2253 0.930 1_554 S
H2246 C2254 0.930 . S
H2247 C2255 0.930 . S
H2248 C2258 0.930 . S
H2249 C2259 0.930 . S
C2250 H2244 0.930 . S
C2250 C2251 1.355 . S
C2250 C2252 1.415 . S
C2251 C2250 1.355 . S
C2251 C2253 1.419 . S
C2252 C2250 1.415 . S
C2252 C2257 1.425 . S
C2252 C2259 1.409 . S
C2253 H2245 0.930 1_556 S
C2253 C2251 1.419 . S
C2253 C2254 1.362 . S
C2254 H2246 0.930 . S
C2254 C2253 1.362 . S
C2254 C2257 1.409 . S
C2255 H2247 0.930 . S
C2255 C2256 1.355 . S
C2255 C2257 1.415 . S
C2256 C2255 1.355 . S
C2256 C2258 1.419 . S
C2257 C2252 1.425 . S
C2257 C2254 1.409 . S
C2257 C2255 1.415 . S
C2258 H2248 0.930 . S
C2258 C2256 1.419 . S
C2258 C2259 1.362 . S
C2259 H2249 0.930 . S
C2259 C2252 1.409 . S
C2259 C2258 1.362 . S
H2260 C2266 0.930 . S
H2261 C2269 0.930 1_554 S
H2262 C2270 0.930 . S
H2263 C2271 0.930 . S
H2264 C2274 0.930 . S
H2265 C2275 0.930 . S
C2266 H2260 0.930 . S
C2266 C2267 1.355 . S
C2266 C2268 1.415 . S
C2267 C2266 1.355 . S
C2267 C2269 1.419 . S
C2268 C2266 1.415 . S
C2268 C2273 1.425 . S
C2268 C2275 1.409 . S
C2269 H2261 0.930 1_556 S
C2269 C2267 1.419 . S
C2269 C2270 1.362 . S
C2270 H2262 0.930 . S
C2270 C2269 1.362 . S
C2270 C2273 1.409 . S
C2271 H2263 0.930 . S
C2271 C2272 1.355 . S
C2271 C2273 1.415 . S
C2272 C2271 1.355 . S
C2272 C2274 1.419 . S
C2273 C2268 1.425 . S
C2273 C2270 1.409 . S
C2273 C2271 1.415 . S
C2274 H2264 0.930 . S
C2274 C2272 1.419 . S
C2274 C2275 1.362 . S
C2275 H2265 0.930 . S
C2275 C2268 1.409 . S
C2275 C2274 1.362 . S
H2276 C2282 0.930 . S
H2277 C2285 0.930 . S
H2278 C2286 0.930 . S
H2279 C2287 0.930 . S
H2280 C2290 0.930 . S
H2281 C2291 0.930 . S
C2282 H2276 0.930 . S
C2282 C2283 1.355 . S
C2282 C2284 1.415 . S
C2283 C2282 1.355 . S
C2283 C2285 1.419 . S
C2284 C2282 1.415 . S
C2284 C2289 1.425 . S
C2284 C2291 1.409 . S
C2285 H2277 0.930 . S
C2285 C2283 1.419 . S
C2285 C2286 1.362 . S
C2286 H2278 0.930 . S
C2286 C2285 1.362 . S
C2286 C2289 1.409 . S
C2287 H2279 0.930 . S
C2287 C2288 1.355 . S
C2287 C2289 1.415 . S
C2288 C2287 1.355 . S
C2288 C2290 1.419 . S
C2289 C2284 1.425 . S
C2289 C2286 1.409 . S
C2289 C2287 1.415 . S
C2290 H2280 0.930 . S
C2290 C2288 1.419 . S
C2290 C2291 1.362 . S
C2291 H2281 0.930 . S
C2291 C2284 1.409 . S
C2291 C2290 1.362 . S
H2292 C2298 0.930 . S
H2293 C2301 0.930 . S
H2294 C2302 0.930 . S
H2295 C2303 0.930 . S
H2296 C2306 0.930 . S
H2297 C2307 0.930 . S
C2298 H2292 0.930 . S
C2298 C2299 1.355 . S
C2298 C2300 1.415 . S
C2299 C2298 1.355 . S
C2299 C2301 1.419 . S
C2300 C2298 1.415 . S
C2300 C2305 1.425 . S
C2300 C2307 1.409 . S
C2301 H2293 0.930 . S
C2301 C2299 1.419 . S
C2301 C2302 1.362 . S
C2302 H2294 0.930 . S
C2302 C2301 1.362 . S
C2302 C2305 1.409 . S
C2303 H2295 0.930 . S
C2303 C2304 1.355 . S
C2303 C2305 1.415 . S
C2304 C2303 1.355 . S
C2304 C2306 1.419 . S
C2305 C2300 1.425 . S
C2305 C2302 1.409 . S
C2305 C2303 1.415 . S
C2306 H2296 0.930 . S
C2306 C2304 1.419 . S
C2306 C2307 1.362 . S
C2307 H2297 0.930 . S
C2307 C2300 1.409 . S
C2307 C2306 1.362 . S
H2308 C2314 0.930 . S
H2309 C2317 0.930 . S
H2310 C2318 0.930 . S
H2311 C2319 0.930 . S
H2312 C2322 0.930 1_554 S
H2313 C2323 0.930 . S
C2314 H2308 0.930 . S
C2314 C2315 1.355 . S
C2314 C2316 1.415 . S
C2315 C2314 1.355 . S
C2315 C2317 1.419 . S
C2316 C2314 1.415 . S
C2316 C2321 1.425 . S
C2316 C2323 1.409 . S
C2317 H2309 0.930 . S
C2317 C2315 1.419 . S
C2317 C2318 1.362 . S
C2318 H2310 0.930 . S
C2318 C2317 1.362 . S
C2318 C2321 1.409 . S
C2319 H2311 0.930 . S
C2319 C2320 1.355 . S
C2319 C2321 1.415 . S
C2320 C2319 1.355 . S
C2320 C2322 1.419 . S
C2321 C2316 1.425 . S
C2321 C2318 1.409 . S
C2321 C2319 1.415 . S
C2322 H2312 0.930 1_556 S
C2322 C2320 1.419 . S
C2322 C2323 1.362 . S
C2323 H2313 0.930 . S
C2323 C2316 1.409 . S
C2323 C2322 1.362 . S
H2324 C2330 0.930 . S
H2325 C2333 0.930 1_554 S
H2326 C2334 0.930 . S
H2327 C2335 0.930 . S
H2328 C2338 0.930 . S
H2329 C2339 0.930 . S
C2330 H2324 0.930 . S
C2330 C2331 1.355 . S
C2330 C2332 1.415 . S
C2331 C2330 1.355 . S
C2331 C2333 1.419 . S
C2332 C2330 1.415 . S
C2332 C2337 1.425 . S
C2332 C2339 1.409 . S
C2333 H2325 0.930 1_556 S
C2333 C2331 1.419 . S
C2333 C2334 1.362 . S
C2334 H2326 0.930 . S
C2334 C2333 1.362 . S
C2334 C2337 1.409 . S
C2335 H2327 0.930 . S
C2335 C2336 1.355 . S
C2335 C2337 1.415 . S
C2336 C2335 1.355 . S
C2336 C2338 1.419 . S
C2337 C2332 1.425 . S
C2337 C2334 1.409 . S
C2337 C2335 1.415 . S
C2338 H2328 0.930 . S
C2338 C2336 1.419 . S
C2338 C2339 1.362 . S
C2339 H2329 0.930 . S
C2339 C2332 1.409 . S
C2339 C2338 1.362 . S
H2340 C2346 0.930 . S
H2341 C2349 0.930 . S
H2342 C2350 0.930 . S
H2343 C2351 0.930 . S
H2344 C2354 0.930 1_554 S
H2345 C2355 0.930 . S
C2346 H2340 0.930 . S
C2346 C2347 1.355 . S
C2346 C2348 1.415 . S
C2347 C2346 1.355 . S
C2347 C2349 1.419 . S
C2348 C2346 1.415 . S
C2348 C2353 1.425 . S
C2348 C2355 1.409 . S
C2349 H2341 0.930 . S
C2349 C2347 1.419 . S
C2349 C2350 1.362 . S
C2350 H2342 0.930 . S
C2350 C2349 1.362 . S
C2350 C2353 1.409 . S
C2351 H2343 0.930 . S
C2351 C2352 1.355 . S
C2351 C2353 1.415 . S
C2352 C2351 1.355 . S
C2352 C2354 1.419 . S
C2353 C2348 1.425 . S
C2353 C2350 1.409 . S
C2353 C2351 1.415 . S
C2354 H2344 0.930 1_556 S
C2354 C2352 1.419 . S
C2354 C2355 1.362 . S
C2355 H2345 0.930 . S
C2355 C2348 1.409 . S
C2355 C2354 1.362 . S
H2356 C2362 0.930 . S
H2357 C2365 0.930 . S
H2358 C2366 0.930 . S
H2359 C2367 0.930 . S
H2360 C2370 0.930 . S
H2361 C2371 0.930 . S
C2362 H2356 0.930 . S
C2362 C2363 1.355 . S
C2362 C2364 1.415 . S
C2363 C2362 1.355 . S
C2363 C2365 1.419 . S
C2364 C2362 1.415 . S
C2364 C2369 1.425 . S
C2364 C2371 1.409 . S
C2365 H2357 0.930 . S
C2365 C2363 1.419 . S
C2365 C2366 1.362 . S
C2366 H2358 0.930 . S
C2366 C2365 1.362 . S
C2366 C2369 1.409 . S
C2367 H2359 0.930 . S
C2367 C2368 1.355 . S
C2367 C2369 1.415 . S
C2368 C2367 1.355 . S
C2368 C2370 1.419 . S
C2369 C2364 1.425 . S
C2369 C2366 1.409 . S
C2369 C2367 1.415 . S
C2370 H2360 0.930 . S
C2370 C2368 1.419 . S
C2370 C2371 1.362 . S
C2371 H2361 0.930 . S
C2371 C2364 1.409 . S
C2371 C2370 1.362 . S
H2372 C2378 0.930 . S
H2373 C2381 0.930 1_554 S
H2374 C2382 0.930 . S
H2375 C2383 0.930 . S
H2376 C2386 0.930 . S
H2377 C2387 0.930 . S
C2378 H2372 0.930 . S
C2378 C2379 1.355 . S
C2378 C2380 1.415 . S
C2379 C2378 1.355 . S
C2379 C2381 1.419 . S
C2380 C2378 1.415 . S
C2380 C2385 1.425 . S
C2380 C2387 1.409 . S
C2381 H2373 0.930 1_556 S
C2381 C2379 1.419 . S
C2381 C2382 1.362 . S
C2382 H2374 0.930 . S
C2382 C2381 1.362 . S
C2382 C2385 1.409 . S
C2383 H2375 0.930 . S
C2383 C2384 1.355 . S
C2383 C2385 1.415 . S
C2384 C2383 1.355 . S
C2384 C2386 1.419 . S
C2385 C2380 1.425 . S
C2385 C2382 1.409 . S
C2385 C2383 1.415 . S
C2386 H2376 0.930 . S
C2386 C2384 1.419 . S
C2386 C2387 1.362 . S
C2387 H2377 0.930 . S
C2387 C2380 1.409 . S
C2387 C2386 1.362 . S
H2388 C2394 0.930 . S
H2389 C2397 0.930 1_554 S
H2390 C2398 0.930 . S
H2391 C2399 0.930 . S
H2392 C2402 0.930 . S
H2393 C2403 0.930 . S
C2394 H2388 0.930 . S
C2394 C2395 1.355 . S
C2394 C2396 1.415 . S
C2395 C2394 1.355 . S
C2395 C2397 1.419 . S
C2396 C2394 1.415 . S
C2396 C2401 1.425 . S
C2396 C2403 1.409 . S
C2397 H2389 0.930 1_556 S
C2397 C2395 1.419 . S
C2397 C2398 1.362 . S
C2398 H2390 0.930 . S
C2398 C2397 1.362 . S
C2398 C2401 1.409 . S
C2399 H2391 0.930 . S
C2399 C2400 1.355 . S
C2399 C2401 1.415 . S
C2400 C2399 1.355 . S
C2400 C2402 1.419 . S
C2401 C2396 1.425 . S
C2401 C2398 1.409 . S
C2401 C2399 1.415 . S
C2402 H2392 0.930 . S
C2402 C2400 1.419 . S
C2402 C2403 1.362 . S
C2403 H2393 0.930 . S
C2403 C2396 1.409 . S
C2403 C2402 1.362 . S
H2404 C2410 0.930 . S
H2405 C2413 0.930 1_554 S
H2406 C2414 0.930 . S
H2407 C2415 0.930 . S
H2408 C2418 0.930 . S
H2409 C2419 0.930 . S
C2410 H2404 0.930 . S
C2410 C2411 1.355 . S
C2410 C2412 1.415 . S
C2411 C2410 1.355 . S
C2411 C2413 1.419 . S
C2412 C2410 1.415 . S
C2412 C2417 1.425 . S
C2412 C2419 1.409 . S
C2413 H2405 0.930 1_556 S
C2413 C2411 1.419 . S
C2413 C2414 1.362 . S
C2414 H2406 0.930 . S
C2414 C2413 1.362 . S
C2414 C2417 1.409 . S
C2415 H2407 0.930 . S
C2415 C2416 1.355 . S
C2415 C2417 1.415 . S
C2416 C2415 1.355 . S
C2416 C2418 1.419 . S
C2417 C2412 1.425 . S
C2417 C2414 1.409 . S
C2417 C2415 1.415 . S
C2418 H2408 0.930 . S
C2418 C2416 1.419 . S
C2418 C2419 1.362 . S
C2419 H2409 0.930 . S
C2419 C2412 1.409 . S
C2419 C2418 1.362 . S
H2420 C2426 0.930 . S
H2421 C2429 0.930 1_554 S
H2422 C2430 0.930 . S
H2423 C2431 0.930 . S
H2424 C2434 0.930 . S
H2425 C2435 0.930 . S
C2426 H2420 0.930 . S
C2426 C2427 1.355 . S
C2426 C2428 1.415 . S
C2427 C2426 1.355 . S
C2427 C2429 1.419 . S
C2428 C2426 1.415 . S
C2428 C2433 1.425 . S
C2428 C2435 1.409 . S
C2429 H2421 0.930 1_556 S
C2429 C2427 1.419 . S
C2429 C2430 1.362 . S
C2430 H2422 0.930 . S
C2430 C2429 1.362 . S
C2430 C2433 1.409 . S
C2431 H2423 0.930 . S
C2431 C2432 1.355 . S
C2431 C2433 1.415 . S
C2432 C2431 1.355 . S
C2432 C2434 1.419 . S
C2433 C2428 1.425 . S
C2433 C2430 1.409 . S
C2433 C2431 1.415 . S
C2434 H2424 0.930 . S
C2434 C2432 1.419 . S
C2434 C2435 1.362 . S
C2435 H2425 0.930 . S
C2435 C2428 1.409 . S
C2435 C2434 1.362 . S
H2436 C2442 0.930 . S
H2437 C2445 0.930 . S
H2438 C2446 0.930 . S
H2439 C2447 0.930 . S
H2440 C2450 0.930 . S
H2441 C2451 0.930 . S
C2442 H2436 0.930 . S
C2442 C2443 1.355 . S
C2442 C2444 1.415 . S
C2443 C2442 1.355 . S
C2443 C2445 1.419 . S
C2444 C2442 1.415 . S
C2444 C2449 1.425 . S
C2444 C2451 1.409 . S
C2445 H2437 0.930 . S
C2445 C2443 1.419 . S
C2445 C2446 1.362 . S
C2446 H2438 0.930 . S
C2446 C2445 1.362 . S
C2446 C2449 1.409 . S
C2447 H2439 0.930 . S
C2447 C2448 1.355 . S
C2447 C2449 1.415 . S
C2448 C2447 1.355 . S
C2448 C2450 1.419 . S
C2449 C2444 1.425 . S
C2449 C2446 1.409 . S
C2449 C2447 1.415 . S
C2450 H2440 0.930 . S
C2450 C2448 1.419 . S
C2450 C2451 1.362 . S
C2451 H2441 0.930 . S
C2451 C2444 1.409 . S
C2451 C2450 1.362 . S
H2452 C2458 0.930 . S
H2453 C2461 0.930 . S
H2454 C2462 0.930 . S
H2455 C2463 0.930 . S
H2456 C2466 0.930 1_556 S
H2457 C2467 0.930 . S
C2458 H2452 0.930 . S
C2458 C2459 1.355 . S
C2458 C2460 1.415 . S
C2459 C2458 1.355 . S
C2459 C2461 1.419 . S
C2460 C2458 1.415 . S
C2460 C2465 1.425 . S
C2460 C2467 1.409 . S
C2461 H2453 0.930 . S
C2461 C2459 1.419 . S
C2461 C2462 1.362 . S
C2462 H2454 0.930 . S
C2462 C2461 1.362 . S
C2462 C2465 1.409 . S
C2463 H2455 0.930 . S
C2463 C2464 1.355 . S
C2463 C2465 1.415 . S
C2464 C2463 1.355 . S
C2464 C2466 1.419 . S
C2465 C2460 1.425 . S
C2465 C2462 1.409 . S
C2465 C2463 1.415 . S
C2466 H2456 0.930 1_554 S
C2466 C2464 1.419 . S
C2466 C2467 1.362 . S
C2467 H2457 0.930 . S
C2467 C2460 1.409 . S
C2467 C2466 1.362 . S
H2468 C2474 0.930 . S
H2469 C2477 0.930 1_556 S
H2470 C2478 0.930 . S
H2471 C2479 0.930 . S
H2472 C2482 0.930 . S
H2473 C2483 0.930 . S
C2474 H2468 0.930 . S
C2474 C2475 1.355 . S
C2474 C2476 1.415 . S
C2475 C2474 1.355 . S
C2475 C2477 1.419 . S
C2476 C2474 1.415 . S
C2476 C2481 1.425 . S
C2476 C2483 1.409 . S
C2477 H2469 0.930 1_554 S
C2477 C2475 1.419 . S
C2477 C2478 1.362 . S
C2478 H2470 0.930 . S
C2478 C2477 1.362 . S
C2478 C2481 1.409 . S
C2479 H2471 0.930 . S
C2479 C2480 1.355 . S
C2479 C2481 1.415 . S
C2480 C2479 1.355 . S
C2480 C2482 1.419 . S
C2481 C2476 1.425 . S
C2481 C2478 1.409 . S
C2481 C2479 1.415 . S
C2482 H2472 0.930 . S
C2482 C2480 1.419 . S
C2482 C2483 1.362 . S
C2483 H2473 0.930 . S
C2483 C2476 1.409 . S
C2483 C2482 1.362 . S
H2484 C2490 0.930 . S
H2485 C2493 0.930 . S
H2486 C2494 0.930 . S
H2487 C2495 0.930 . S
H2488 C2498 0.930 . S
H2489 C2499 0.930 . S
C2490 H2484 0.930 . S
C2490 C2491 1.355 . S
C2490 C2492 1.415 . S
C2491 C2490 1.355 . S
C2491 C2493 1.419 . S
C2492 C2490 1.415 . S
C2492 C2497 1.425 . S
C2492 C2499 1.409 . S
C2493 H2485 0.930 . S
C2493 C2491 1.419 . S
C2493 C2494 1.362 . S
C2494 H2486 0.930 . S
C2494 C2493 1.362 . S
C2494 C2497 1.409 . S
C2495 H2487 0.930 . S
C2495 C2496 1.355 . S
C2495 C2497 1.415 . S
C2496 C2495 1.355 . S
C2496 C2498 1.419 . S
C2497 C2492 1.425 . S
C2497 C2494 1.409 . S
C2497 C2495 1.415 . S
C2498 H2488 0.930 . S
C2498 C2496 1.419 . S
C2498 C2499 1.362 . S
C2499 H2489 0.930 . S
C2499 C2492 1.409 . S
C2499 C2498 1.362 . S
H2500 C2506 0.930 . S
H2501 C2509 0.930 . S
H2502 C2510 0.930 . S
H2503 C2511 0.930 . S
H2504 C2514 0.930 1_556 S
H2505 C2515 0.930 . S
C2506 H2500 0.930 . S
C2506 C2507 1.355 . S
C2506 C2508 1.415 . S
C2507 C2506 1.355 . S
C2507 C2509 1.419 . S
C2508 C2506 1.415 . S
C2508 C2513 1.425 . S
C2508 C2515 1.409 . S
C2509 H2501 0.930 . S
C2509 C2507 1.419 . S
C2509 C2510 1.362 . S
C2510 H2502 0.930 . S
C2510 C2509 1.362 . S
C2510 C2513 1.409 . S
C2511 H2503 0.930 . S
C2511 C2512 1.355 . S
C2511 C2513 1.415 . S
C2512 C2511 1.355 . S
C2512 C2514 1.419 . S
C2513 C2508 1.425 . S
C2513 C2510 1.409 . S
C2513 C2511 1.415 . S
C2514 H2504 0.930 1_554 S
C2514 C2512 1.419 . S
C2514 C2515 1.362 . S
C2515 H2505 0.930 . S
C2515 C2508 1.409 . S
C2515 C2514 1.362 . S
H2516 C2522 0.930 . S
H2517 C2525 0.930 . S
H2518 C2526 0.930 . S
H2519 C2527 0.930 . S
H2520 C2530 0.930 1_556 S
H2521 C2531 0.930 . S
C2522 H2516 0.930 . S
C2522 C2523 1.355 . S
C2522 C2524 1.415 . S
C2523 C2522 1.355 . S
C2523 C2525 1.419 . S
C2524 C2522 1.415 . S
C2524 C2529 1.425 . S
C2524 C2531 1.409 . S
C2525 H2517 0.930 . S
C2525 C2523 1.419 . S
C2525 C2526 1.362 . S
C2526 H2518 0.930 . S
C2526 C2525 1.362 . S
C2526 C2529 1.409 . S
C2527 H2519 0.930 . S
C2527 C2528 1.355 . S
C2527 C2529 1.415 . S
C2528 C2527 1.355 . S
C2528 C2530 1.419 . S
C2529 C2524 1.425 . S
C2529 C2526 1.409 . S
C2529 C2527 1.415 . S
C2530 H2520 0.930 1_554 S
C2530 C2528 1.419 . S
C2530 C2531 1.362 . S
C2531 H2521 0.930 . S
C2531 C2524 1.409 . S
C2531 C2530 1.362 . S
H2532 C2538 0.930 . S
H2533 C2541 0.930 . S
H2534 C2542 0.930 . S
H2535 C2543 0.930 . S
H2536 C2546 0.930 . S
H2537 C2547 0.930 . S
C2538 H2532 0.930 . S
C2538 C2539 1.355 . S
C2538 C2540 1.415 . S
C2539 C2538 1.355 . S
C2539 C2541 1.419 . S
C2540 C2538 1.415 . S
C2540 C2545 1.425 . S
C2540 C2547 1.409 . S
C2541 H2533 0.930 . S
C2541 C2539 1.419 . S
C2541 C2542 1.362 . S
C2542 H2534 0.930 . S
C2542 C2541 1.362 . S
C2542 C2545 1.409 . S
C2543 H2535 0.930 . S
C2543 C2544 1.355 . S
C2543 C2545 1.415 . S
C2544 C2543 1.355 . S
C2544 C2546 1.419 . S
C2545 C2540 1.425 . S
C2545 C2542 1.409 . S
C2545 C2543 1.415 . S
C2546 H2536 0.930 . S
C2546 C2544 1.419 . S
C2546 C2547 1.362 . S
C2547 H2537 0.930 . S
C2547 C2540 1.409 . S
C2547 C2546 1.362 . S
H2548 C2554 0.930 . S
H2549 C2557 0.930 . S
H2550 C2558 0.930 . S
H2551 C2559 0.930 . S
H2552 C2562 0.930 . S
H2553 C2563 0.930 . S
C2554 H2548 0.930 . S
C2554 C2555 1.355 . S
C2554 C2556 1.415 . S
C2555 C2554 1.355 . S
C2555 C2557 1.419 . S
C2556 C2554 1.415 . S
C2556 C2561 1.425 . S
C2556 C2563 1.409 . S
C2557 H2549 0.930 . S
C2557 C2555 1.419 . S
C2557 C2558 1.362 . S
C2558 H2550 0.930 . S
C2558 C2557 1.362 . S
C2558 C2561 1.409 . S
C2559 H2551 0.930 . S
C2559 C2560 1.355 . S
C2559 C2561 1.415 . S
C2560 C2559 1.355 . S
C2560 C2562 1.419 . S
C2561 C2556 1.425 . S
C2561 C2558 1.409 . S
C2561 C2559 1.415 . S
C2562 H2552 0.930 . S
C2562 C2560 1.419 . S
C2562 C2563 1.362 . S
C2563 H2553 0.930 . S
C2563 C2556 1.409 . S
C2563 C2562 1.362 . S
H2564 C2570 0.930 . S
H2565 C2573 0.930 . S
H2566 C2574 0.930 . S
H2567 C2575 0.930 . S
H2568 C2578 0.930 . S
H2569 C2579 0.930 . S
C2570 H2564 0.930 . S
C2570 C2571 1.355 . S
C2570 C2572 1.415 . S
C2571 C2570 1.355 . S
C2571 C2573 1.419 . S
C2572 C2570 1.415 . S
C2572 C2577 1.425 . S
C2572 C2579 1.409 . S
C2573 H2565 0.930 . S
C2573 C2571 1.419 . S
C2573 C2574 1.362 . S
C2574 H2566 0.930 . S
C2574 C2573 1.362 . S
C2574 C2577 1.409 . S
C2575 H2567 0.930 . S
C2575 C2576 1.355 . S
C2575 C2577 1.415 . S
C2576 C2575 1.355 . S
C2576 C2578 1.419 . S
C2577 C2572 1.425 . S
C2577 C2574 1.409 . S
C2577 C2575 1.415 . S
C2578 H2568 0.930 . S
C2578 C2576 1.419 . S
C2578 C2579 1.362 . S
C2579 H2569 0.930 . S
C2579 C2572 1.409 . S
C2579 C2578 1.362 . S
H2580 C2586 0.930 . S
H2581 C2589 0.936 . S
H2582 C2590 0.930 . S
H2583 C2591 0.930 . S
H2584 C2594 0.930 . S
H2585 C2595 0.930 . S
C2586 H2580 0.930 . S
C2586 C2587 1.355 . S
C2586 C2588 1.415 . S
C2587 C2586 1.355 . S
C2587 C2589 1.419 . S
C2588 C2586 1.415 . S
C2588 C2593 1.425 . S
C2588 C2595 1.409 . S
C2589 H2581 0.936 . S
C2589 C2587 1.419 . S
C2589 C2590 1.362 . S
C2590 H2582 0.930 . S
C2590 C2589 1.362 . S
C2590 C2593 1.409 . S
C2591 H2583 0.930 . S
C2591 C2592 1.355 . S
C2591 C2593 1.415 . S
C2592 C2591 1.355 . S
C2592 C2594 1.419 . S
C2593 C2588 1.425 . S
C2593 C2590 1.409 . S
C2593 C2591 1.415 . S
C2594 H2584 0.930 . S
C2594 C2592 1.419 . S
C2594 C2595 1.362 . S
C2595 H2585 0.930 . S
C2595 C2588 1.409 . S
C2595 C2594 1.362 . S
H2596 C2602 0.930 . S
H2597 C2605 0.930 . S
H2598 C2606 0.930 . S
H2599 C2607 0.930 . S
H2600 C2610 0.930 . S
H2601 C2611 0.930 . S
C2602 H2596 0.930 . S
C2602 C2603 1.355 . S
C2602 C2604 1.415 . S
C2603 C2602 1.355 . S
C2603 C2605 1.419 . S
C2604 C2602 1.415 . S
C2604 C2609 1.425 . S
C2604 C2611 1.409 . S
C2605 H2597 0.930 . S
C2605 C2603 1.419 . S
C2605 C2606 1.362 . S
C2606 H2598 0.930 . S
C2606 C2605 1.362 . S
C2606 C2609 1.409 . S
C2607 H2599 0.930 . S
C2607 C2608 1.355 . S
C2607 C2609 1.415 . S
C2608 C2607 1.355 . S
C2608 C2610 1.419 . S
C2609 C2604 1.425 . S
C2609 C2606 1.409 . S
C2609 C2607 1.415 . S
C2610 H2600 0.930 . S
C2610 C2608 1.419 . S
C2610 C2611 1.362 . S
C2611 H2601 0.930 . S
C2611 C2604 1.409 . S
C2611 C2610 1.362 . S
H2612 C2618 0.930 . S
H2613 C2621 0.930 . S
H2614 C2622 0.930 . S
H2615 C2623 0.930 . S
H2616 C2626 0.930 1_556 S
H2617 C2627 0.930 . S
C2618 H2612 0.930 . S
C2618 C2619 1.355 . S
C2618 C2620 1.415 . S
C2619 C2618 1.355 . S
C2619 C2621 1.419 . S
C2620 C2618 1.415 . S
C2620 C2625 1.425 . S
C2620 C2627 1.409 . S
C2621 H2613 0.930 . S
C2621 C2619 1.419 . S
C2621 C2622 1.362 . S
C2622 H2614 0.930 . S
C2622 C2621 1.362 . S
C2622 C2625 1.409 . S
C2623 H2615 0.930 . S
C2623 C2624 1.355 . S
C2623 C2625 1.415 . S
C2624 C2623 1.355 . S
C2624 C2626 1.419 . S
C2625 C2620 1.425 . S
C2625 C2622 1.409 . S
C2625 C2623 1.415 . S
C2626 H2616 0.930 1_554 S
C2626 C2624 1.419 . S
C2626 C2627 1.362 . S
C2627 H2617 0.930 . S
C2627 C2620 1.409 . S
C2627 C2626 1.362 . S
C1195 C28 1.066 . S
C1200 C523 1.076 . S
C1211 C556 1.128 . S
C1216 C61 1.114 . S
C1227 C94 1.071 . S
C1232 C589 1.113 . S
C1243 C820 1.110 . S
C1248 C127 1.129 . S
C1259 C853 1.077 . S
C1264 C160 1.066 . S
C1275 C193 1.119 . S
C1280 C886 1.078 . S
C1291 C226 1.068 . S
C1296 C1117 1.108 . S
C1307 C1150 1.066 . S
C1312 C259 1.105 . S
C1323 C292 1.063 . S
C1328 C1183 1.091 . S
C1339 C622 1.128 . S
C1344 C325 1.114 . S
C1355 C358 1.072 . S
C1360 C655 1.114 . S
C1371 C688 1.070 . S
C1376 C391 1.112 . S
C1387 C424 1.077 . S
C1392 C919 1.119 . S
C1403 C457 1.069 . S
C1408 C952 1.072 . S
C1419 C985 1.071 . S
C1424 C490 1.112 . S
C1435 C1018 1.097 . S
C1440 C721 1.064 . S
C1451 C1051 1.130 . S
C1456 C754 1.098 . S
C1467 C787 1.092 . S
C1472 C1084 1.063 . S
C1483 C17 1.520 . S
C1488 C380 1.480 . S
C1499 C50 1.494 . S
C1504 C314 1.506 . S
C1515 C83 1.513 . S
C1520 C347 1.488 . S
C1531 C248 1.521 . S
C1536 C116 1.479 . S
C1547 C281 1.488 . S
C1552 C149 1.513 . S
C1563 C182 1.489 . S
C1568 C215 1.512 . S
C1579 C413 1.520 . S
C1584 C776 1.480 . S
C1595 C710 1.481 . S
C1600 C446 1.520 . S
C1611 C479 1.513 . S
C1616 C743 1.487 . S
C1627 C512 1.486 . S
C1632 C644 1.515 . S
C1643 C545 1.521 . S
C1648 C677 1.480 . S
C1659 C578 1.483 . S
C1664 C611 1.517 . S
C1675 C809 1.509 . S
C1680 C1172 1.492 . S
C1691 C1106 1.481 . S
C1696 C842 1.520 . S
C1707 C1139 1.488 . S
C1712 C875 1.512 . S
C1723 C1040 1.494 . S
C1728 C908 1.506 . S
C1739 C941 1.487 . S
C1744 C1073 1.514 . S
C1755 C974 1.493 . S
C1760 C1007 1.507 . S
C1771 C965 1.546 . S
C1776 C8 1.555 . S
C1787 C41 1.559 . S
C1792 C899 1.535 . S
C1803 C74 1.531 . S
C1808 C932 1.521 . S
C1819 C437 1.535 . S
C1824 C107 1.519 . S
C1835 C140 1.559 . S
C1840 C470 1.533 . S
C1851 C173 1.559 . S
C1856 C404 1.530 . S
C1867 C767 1.558 . S
C1872 C206 1.538 . S
C1883 C239 1.542 . S
C1888 C701 1.517 . S
C1899 C734 1.550 . S
C1904 C272 1.518 . S
C1915 C1031 1.559 . S
C1920 C305 1.537 . S
C1931 C1064 1.517 . S
C1936 C338 1.548 . S
C1947 C998 1.519 . S
C1952 C371 1.552 . S
C1963 C503 1.532 . S
C1968 C833 1.559 . S
C1979 C866 1.524 . S
C1984 C536 1.526 . S
C1995 C569 1.518 . S
C2000 C800 1.550 . S
C2011 C602 1.554 . S
C2016 C1163 1.548 . S
C2027 C635 1.555 . S
C2032 C1097 1.522 . S
C2043 C668 1.557 . S
C2048 C1130 1.541 . S
C2059 N5 1.283 . S
C2064 N14 1.276 . S
C2075 N38 1.285 . S
C2080 N47 1.278 . S
C2091 N71 1.305 . S
C2096 N80 1.307 . S
C2107 N113 1.305 . S
C2112 N104 1.304 . S
C2123 N137 1.287 . S
C2128 N146 1.282 . S
C2139 N179 1.275 . S
C2144 N170 1.283 . S
C2155 N203 1.293 . S
C2160 N212 1.290 . S
C2171 N245 1.280 . S
C2176 N236 1.285 . S
C2187 N278 1.277 . S
C2192 N269 1.284 . S
C2203 N302 1.296 . S
C2208 N311 1.293 . S
C2219 N335 1.300 . S
C2224 N344 1.299 . S
C2235 N377 1.297 . S
C2240 N368 1.298 . S
C2251 N410 1.304 1_556 S
C2256 N401 1.303 . S
C2267 N443 1.286 1_556 S
C2272 N434 1.291 . S
C2283 N467 1.295 . S
C2288 N476 1.294 1_556 S
C2299 N509 1.304 . S
C2304 N500 1.303 1_556 S
C2315 N542 1.291 . S
C2320 N533 1.295 1_556 S
C2331 N566 1.288 1_556 S
C2336 N575 1.282 . S
C2347 N608 1.279 . S
C2352 N599 1.286 1_556 S
C2363 N632 1.287 1_556 S
C2368 N641 1.280 . S
C2379 N665 1.292 1_556 S
C2384 N674 1.286 . S
C2395 N707 1.304 1_556 S
C2400 N698 1.304 . S
C2411 N740 1.278 1_556 S
C2416 N731 1.285 . S
C2427 N773 1.307 1_556 S
C2432 N764 1.305 . S
C2443 N806 1.280 . S
C2448 N797 1.286 1_554 S
C2459 N839 1.305 . S
C2464 N830 1.304 1_554 S
C2475 N863 1.300 1_554 S
C2480 N872 1.297 . S
C2491 N896 1.298 . S
C2496 N905 1.297 1_554 S
C2507 N929 1.300 . S
C2512 N938 1.298 1_554 S
C2523 N962 1.304 . S
C2528 N971 1.304 1_554 S
C2539 N995 1.283 . S
C2544 N1004 1.275 1_554 S
C2555 N1028 1.285 . S
C2560 N1037 1.279 1_554 S
C2571 N1070 1.305 1_554 S
C2576 N1061 1.304 . S
C2587 N1094 1.303 1_554 S
C2592 N1103 1.304 . S
C2603 N1127 1.285 1_554 S
C2608 N1136 1.279 . S
C2619 N1169 1.283 . S
C2624 N1160 1.289 1_554 S
