# Generated by pormake.
# Topology fst, (5)-cn, num edge types: 1
# Building blocks:
#     Node 0, Type 0, BuildingBlock: XOMCOT_clean_sbu_0, # of connection points: 5
#     Node 1, Type 0, BuildingBlock: XOMCOT_clean_sbu_0, # of connection points: 5
#     Node 2, Type 0, BuildingBlock: XOMCOT_clean_sbu_0, # of connection points: 5
#     Node 3, Type 0, BuildingBlock: XOMCOT_clean_sbu_0, # of connection points: 5
#     Node 4, Type 0, BuildingBlock: XOMCOT_clean_sbu_0, # of connection points: 5
#     Node 5, Type 0, BuildingBlock: XOMCOT_clean_sbu_0, # of connection points: 5
#     Node 6, Type 0, BuildingBlock: XOMCOT_clean_sbu_0, # of connection points: 5
#     Node 7, Type 0, BuildingBlock: XOMCOT_clean_sbu_0, # of connection points: 5
#     Node 8, Type 0, BuildingBlock: XOMCOT_clean_sbu_0, # of connection points: 5
#     Node 9, Type 0, BuildingBlock: XOMCOT_clean_sbu_0, # of connection points: 5
#     Node 10, Type 0, BuildingBlock: XOMCOT_clean_sbu_0, # of connection points: 5
#     Node 11, Type 0, BuildingBlock: XOMCOT_clean_sbu_0, # of connection points: 5
#     Edge 12, Type (0, 0), BuildingBlock: ZUJKAS_clean_linker_0, # of connection points: 2
#     Edge 13, Type (0, 0), BuildingBlock: ZUJKAS_clean_linker_0, # of connection points: 2
#     Edge 14, Type (0, 0), BuildingBlock: ZUJKAS_clean_linker_0, # of connection points: 2
#     Edge 15, Type (0, 0), BuildingBlock: ZUJKAS_clean_linker_0, # of connection points: 2
#     Edge 16, Type (0, 0), BuildingBlock: ZUJKAS_clean_linker_0, # of connection points: 2
#     Edge 17, Type (0, 0), BuildingBlock: ZUJKAS_clean_linker_0, # of connection points: 2
#     Edge 18, Type (0, 0), BuildingBlock: ZUJKAS_clean_linker_0, # of connection points: 2
#     Edge 19, Type (0, 0), BuildingBlock: ZUJKAS_clean_linker_0, # of connection points: 2
#     Edge 20, Type (0, 0), BuildingBlock: ZUJKAS_clean_linker_0, # of connection points: 2
#     Edge 21, Type (0, 0), BuildingBlock: ZUJKAS_clean_linker_0, # of connection points: 2
#     Edge 22, Type (0, 0), BuildingBlock: ZUJKAS_clean_linker_0, # of connection points: 2
#     Edge 23, Type (0, 0), BuildingBlock: ZUJKAS_clean_linker_0, # of connection points: 2
#     Edge 24, Type (0, 0), BuildingBlock: ZUJKAS_clean_linker_0, # of connection points: 2
#     Edge 25, Type (0, 0), BuildingBlock: ZUJKAS_clean_linker_0, # of connection points: 2
#     Edge 26, Type (0, 0), BuildingBlock: ZUJKAS_clean_linker_0, # of connection points: 2
#     Edge 27, Type (0, 0), BuildingBlock: ZUJKAS_clean_linker_0, # of connection points: 2
#     Edge 28, Type (0, 0), BuildingBlock: ZUJKAS_clean_linker_0, # of connection points: 2
#     Edge 29, Type (0, 0), BuildingBlock: ZUJKAS_clean_linker_0, # of connection points: 2
#     Edge 30, Type (0, 0), BuildingBlock: ZUJKAS_clean_linker_0, # of connection points: 2
#     Edge 31, Type (0, 0), BuildingBlock: ZUJKAS_clean_linker_0, # of connection points: 2
#     Edge 32, Type (0, 0), BuildingBlock: ZUJKAS_clean_linker_0, # of connection points: 2
#     Edge 33, Type (0, 0), BuildingBlock: ZUJKAS_clean_linker_0, # of connection points: 2
#     Edge 34, Type (0, 0), BuildingBlock: ZUJKAS_clean_linker_0, # of connection points: 2
#     Edge 35, Type (0, 0), BuildingBlock: ZUJKAS_clean_linker_0, # of connection points: 2
#     Edge 36, Type (0, 0), BuildingBlock: ZUJKAS_clean_linker_0, # of connection points: 2
#     Edge 37, Type (0, 0), BuildingBlock: ZUJKAS_clean_linker_0, # of connection points: 2
#     Edge 38, Type (0, 0), BuildingBlock: ZUJKAS_clean_linker_0, # of connection points: 2
#     Edge 39, Type (0, 0), BuildingBlock: ZUJKAS_clean_linker_0, # of connection points: 2
#     Edge 40, Type (0, 0), BuildingBlock: ZUJKAS_clean_linker_0, # of connection points: 2
#     Edge 41, Type (0, 0), BuildingBlock: ZUJKAS_clean_linker_0, # of connection points: 2
# Relax obj value: 0.188
# Max RMSD: 0.164
# Mean RMSD: 0.164
data_MOF--net-fst--node1-XOMCOT_clean_sbu_0--edge1-ZUJKAS_clean_linker_0
_symmetry_space_group_name_H-M    P1
_symmetry_Int_Tables_number       1
_symmetry_cell_setting            triclinic
loop_
_symmetry_equiv_pos_as_xyz
'x, y, z'
_cell_length_a     94.546395
_cell_length_b     94.541047
_cell_length_c     22.169365
_cell_angle_alpha  89.982091
_cell_angle_beta   89.948248
_cell_angle_gamma 119.99145
loop_
_atom_site_label
_atom_site_type_symbol
_atom_site_fract_x
_atom_site_fract_y
_atom_site_fract_z
_atom_type_partial_charge
Co0 Co 0.11693 0.43568 0.06377 0.0
C1 C 0.11446 0.43378 0.19871 0.0
C2 C 0.10261 0.41028 0.15609 0.0
C3 C 0.10071 0.40802 0.21735 0.0
N4 N 0.11106 0.42642 0.14413 0.0
N5 N 0.10813 0.42278 0.2442 0.0
H6 H 0.12136 0.44682 0.20542 0.0
H7 H 0.09834 0.40072 0.1227 0.0
C8 C 0.0866 0.40682 0.01774 0.0
O9 O 0.09516 0.39992 1.00232 0.0
N10 N 0.12279 0.44483 0.98348 0.0
C11 C 0.13372 0.46052 0.97102 0.0
C12 C 0.13515 0.46255 0.90959 0.0
C13 C 0.11777 0.43743 0.92933 0.0
N14 N 0.12517 0.44804 0.88323 0.0
C15 C 0.124 0.46671 0.11368 0.0
C16 C 0.09767 0.46717 0.06187 0.0
C17 C 0.10985 0.4814 0.0891 0.0
C18 C 0.1229 0.48094 0.11707 0.0
C19 C 0.09922 0.4533 0.05928 0.0
N20 N 0.1124 0.45315 0.08415 0.0
H21 H 0.13474 0.46697 0.13167 0.0
H22 H 0.0902 0.44324 0.03329 0.0
H23 H 0.14034 0.46988 1.00436 0.0
H24 H 0.10921 0.42457 0.92371 0.0
O25 O 0.13989 0.44616 0.08408 0.0
O26 O 0.1254 0.42128 0.04615 0.0
O27 O 0.09363 0.42117 0.03985 0.0
C28 C 0.13943 0.43292 0.06514 0.0
H29 H 0.09468 0.39637 0.24042 0.0
H30 H 0.14288 0.47392 0.88627 0.0
H31 H 0.08729 0.46694 0.04014 0.0
H32 H 0.13268 0.49174 0.13811 0.0
Co33 Co 0.6769 0.11707 0.06867 0.0
C34 C 0.67755 0.11508 0.20234 0.0
C35 C 0.68435 0.09912 0.15836 0.0
C36 C 0.68531 0.09762 0.21966 0.0
N37 N 0.67943 0.10999 0.14756 0.0
N38 N 0.6811 0.10769 0.24749 0.0
H39 H 0.67401 0.12424 0.20879 0.0
H40 H 0.68723 0.09284 0.12395 0.0
C41 C 0.65558 0.08512 1.00457 0.0
O42 O 0.64738 0.09133 0.97884 0.0
N43 N 0.67483 0.12432 0.98829 0.0
C44 C 0.67299 0.13721 0.97443 0.0
C45 C 0.67306 0.13881 0.91289 0.0
C46 C 0.67687 0.11883 0.93435 0.0
N47 N 0.67537 0.12718 0.88751 0.0
C48 C 0.65349 0.12686 0.09846 0.0
C49 C 0.62661 0.0959 0.10606 0.0
C50 C 0.62415 0.10932 0.10095 0.0
C51 C 0.63793 0.12502 0.10144 0.0
C52 C 0.6425 0.0984 0.10369 0.0
N53 N 0.65548 0.1136 0.0926 0.0
H54 H 0.6639 0.13902 0.09869 0.0
H55 H 0.64419 0.08797 0.1081 0.0
H56 H 0.67241 0.14552 1.00613 0.0
H57 H 0.67932 0.10887 0.92948 0.0
O58 O 0.69025 0.13955 0.09308 0.0
O59 O 0.69959 0.1245 0.05133 0.0
O60 O 0.66746 0.09382 0.03992 0.0
C61 C 0.70267 0.13852 0.07334 0.0
H62 H 0.68877 0.08961 0.24187 0.0
H63 H 0.67202 0.14821 0.88876 0.0
H64 H 0.6164 0.08354 0.10863 0.0
H65 H 0.6367 0.13581 0.10198 0.0
Co66 Co 0.56336 0.68213 0.05191 0.0
C67 C 0.56616 0.683 0.18553 0.0
C68 C 0.58846 0.68817 0.14126 0.0
C69 C 0.59092 0.68898 0.20256 0.0
N70 N 0.57295 0.68438 0.13066 0.0
N71 N 0.57693 0.68577 0.23056 0.0
H72 H 0.5537 0.68028 0.1921 0.0
H73 H 0.59739 0.69029 0.10674 0.0
C74 C 0.57114 0.65836 0.99067 0.0
O75 O 0.55653 0.65099 0.96618 0.0
N76 N 0.5541 0.68034 0.9716 0.0
C77 C 0.54002 0.67994 0.95751 0.0
C78 C 0.53853 0.67993 0.89593 0.0
C79 C 0.56136 0.68144 0.91769 0.0
N80 N 0.55189 0.68076 0.87073 0.0
C81 C 0.52968 0.66045 0.0819 0.0
C82 C 0.53197 0.63266 0.09626 0.0
C83 C 0.51646 0.63105 0.0898 0.0
C84 C 0.51545 0.64534 0.08684 0.0
C85 C 0.5459 0.64814 0.09186 0.0
N86 N 0.54455 0.66148 0.07746 0.0
H87 H 0.52865 0.67128 0.08001 0.0
H88 H 0.55774 0.6492 0.09729 0.0
H89 H 0.53166 0.68053 0.989 0.0
H90 H 0.57334 0.68273 0.91294 0.0
O91 O 0.55572 0.69678 0.07543 0.0
O92 O 0.57974 0.70439 0.03305 0.0
O93 O 0.57562 0.67095 0.02383 0.0
C94 C 0.5695 0.70852 0.05482 0.0
H95 H 0.60216 0.69157 0.22464 0.0
H96 H 0.52862 0.67995 0.87162 0.0
H97 H 0.53342 0.62207 0.10145 0.0
H98 H 0.50375 0.64482 0.08633 0.0
Co99 Co 0.87327 0.55868 0.04193 0.0
C100 C 0.86786 0.55783 0.17597 0.0
C101 C 0.88197 0.58201 0.13935 0.0
C102 C 0.88094 0.58324 0.20061 0.0
N103 N 0.87383 0.56615 0.1237 0.0
N104 N 0.87219 0.56808 0.22396 0.0
H105 H 0.86101 0.54464 0.17909 0.0
H106 H 0.8885 0.59204 0.10823 0.0
C107 C 0.90727 0.58248 1.01222 0.0
O108 O 0.90126 0.5887 0.97393 0.0
N109 N 0.87358 0.55168 0.95943 0.0
C110 C 0.88213 0.54444 0.94237 0.0
C111 C 0.88119 0.54249 0.88104 0.0
C112 C 0.86768 0.55425 0.9073 0.0
N113 N 0.87223 0.54875 0.85865 0.0
C114 C 0.85813 0.52438 0.05364 0.0
C115 C 0.88433 0.52335 0.10419 0.0
C116 C 0.87124 0.50896 0.08063 0.0
C117 C 0.85767 0.50949 0.05829 0.0
C118 C 0.88424 0.53809 0.09924 0.0
N119 N 0.87165 0.53853 0.07078 0.0
H120 H 0.84812 0.52467 0.03148 0.0
H121 H 0.8947 0.5492 0.11504 0.0
H122 H 0.88907 0.54119 0.97233 0.0
H123 H 0.86081 0.56056 0.90445 0.0
O124 O 0.85032 0.5514 0.03728 0.0
O125 O 0.86994 0.57627 0.01308 0.0
O126 O 0.89767 0.56997 0.04321 0.0
C127 C 0.85439 0.56602 0.01948 0.0
H128 H 0.88631 0.59452 0.226 0.0
H129 H 0.88689 0.53702 0.8549 0.0
H130 H 0.89498 0.52345 0.12262 0.0
H131 H 0.84709 0.4986 0.04128 0.0
Co132 Co 0.31146 0.87577 0.05904 0.0
C133 C 0.30866 0.87496 0.19534 0.0
C134 C 0.29689 0.88643 0.15088 0.0
C135 C 0.29502 0.88719 0.21194 0.0
N136 N 0.30548 0.87882 0.14011 0.0
N137 N 0.30244 0.88001 0.24 0.0
H138 H 0.31547 0.86882 0.20339 0.0
H139 H 0.29262 0.8915 0.11643 0.0
C140 C 0.33239 0.91061 0.08791 0.0
O141 O 0.33539 0.90525 0.13824 0.0
N142 N 0.31676 0.87259 0.97784 0.0
C143 C 0.32123 0.86166 0.96148 0.0
C144 C 0.32332 0.86236 0.90011 0.0
C145 C 0.31584 0.8796 0.92603 0.0
N146 N 0.31992 0.87359 0.87779 0.0
C147 C 0.33017 0.863 0.11518 0.0
C148 C 0.3598 0.88576 0.06586 0.0
C149 C 0.35865 0.87214 0.09532 0.0
C150 C 0.34367 0.86077 0.12099 0.0
C151 C 0.34601 0.88736 0.06014 0.0
N152 N 0.3314 0.87623 0.08537 0.0
H153 H 0.31846 0.85346 0.1312 0.0
H154 H 0.34689 0.89688 0.03086 0.0
H155 H 0.32257 0.85348 0.99197 0.0
H156 H 0.31214 0.88872 0.92368 0.0
O157 O 0.2966 0.85263 0.06537 0.0
O158 O 0.28988 0.8706 0.03209 0.0
O159 O 0.32324 0.90038 0.04768 0.0
C160 C 0.28541 0.85546 0.0446 0.0
H161 H 0.28912 0.8931 0.23392 0.0
H162 H 0.3265 0.85473 0.87363 0.0
H163 H 0.37097 0.89447 0.04324 0.0
H164 H 0.34222 0.84991 0.14315 0.0
Co165 Co 0.43583 0.31735 0.04624 0.0
C166 C 0.4333 0.31665 0.1801 0.0
C167 C 0.4102 0.30831 0.13636 0.0
C168 C 0.40785 0.30784 0.1977 0.0
N169 N 0.42613 0.31392 0.12539 0.0
N170 N 0.42237 0.31311 0.22524 0.0
H171 H 0.44624 0.32138 0.18663 0.0
H172 H 0.40092 0.30479 0.10201 0.0
C173 C 0.42499 0.33909 0.98643 0.0
O174 O 0.43901 0.34701 0.95779 0.0
N175 N 0.44519 0.32033 0.96557 0.0
C176 C 0.46015 0.32295 0.95062 0.0
C177 C 0.46127 0.32238 0.88908 0.0
C178 C 0.43721 0.31756 0.91229 0.0
N179 N 0.44686 0.31899 0.86478 0.0
C180 C 0.46893 0.34065 0.0788 0.0
C181 C 0.46435 0.36708 0.09299 0.0
C182 C 0.48033 0.36981 0.08933 0.0
C183 C 0.4825 0.35622 0.08564 0.0
C184 C 0.45114 0.35124 0.08639 0.0
N185 N 0.45365 0.33856 0.07266 0.0
H186 H 0.47084 0.33034 0.07651 0.0
H187 H 0.43896 0.34934 0.09095 0.0
H188 H 0.46952 0.32435 0.98152 0.0
H189 H 0.42448 0.3141 0.90858 0.0
O190 O 0.44501 0.30378 0.06722 0.0
O191 O 0.42065 0.29487 0.02602 0.0
O192 O 0.42202 0.32707 0.02084 0.0
C193 C 0.43159 0.29158 0.04634 0.0
H194 H 0.39628 0.30371 0.22026 0.0
H195 H 0.47191 0.32418 0.86427 0.0
H196 H 0.46207 0.37712 0.09959 0.0
H197 H 0.49458 0.3576 0.08495 0.0
Co198 Co 0.55881 0.87614 1.00178 0.0
C199 C 0.56038 0.87828 0.86543 0.0
C200 C 0.58358 0.89178 0.90945 0.0
C201 C 0.58606 0.89402 0.84845 0.0
N202 N 0.56749 0.8821 0.92046 0.0
N203 N 0.57149 0.88557 0.82082 0.0
H204 H 0.54748 0.87068 0.85749 0.0
H205 H 0.59291 0.89701 0.94387 0.0
C206 C 0.57073 0.91122 0.98868 0.0
O207 O 0.56182 0.90678 0.93941 0.0
N208 N 0.55073 0.87005 0.08307 0.0
C209 C 0.53599 0.85739 0.09775 0.0
C210 C 0.53481 0.85605 0.15934 0.0
C211 C 0.55845 0.87621 0.13588 0.0
N212 N 0.54894 0.8678 0.18341 0.0
C213 C 0.52676 0.86415 0.94984 0.0
C214 C 0.5193 0.88395 0.01853 0.0
C215 C 0.50686 0.8713 0.98525 0.0
C216 C 0.5108 0.86156 0.94922 0.0
C217 C 0.5349 0.88599 0.01838 0.0
N218 N 0.53869 0.87637 0.9837 0.0
H219 H 0.52913 0.85548 0.92688 0.0
H220 H 0.54354 0.89454 0.0503 0.0
H221 H 0.52677 0.84953 0.06574 0.0
H222 H 0.57086 0.88627 0.13927 0.0
O223 O 0.55139 0.85353 0.98447 0.0
O224 O 0.57597 0.87123 0.01938 0.0
O225 O 0.57082 0.9003 0.02287 0.0
C226 C 0.56568 0.85637 1.00229 0.0
H227 H 0.59772 0.90115 0.82607 0.0
H228 H 0.5243 0.84708 0.1844 0.0
H229 H 0.51683 0.89174 0.04721 0.0
H230 H 0.50143 0.85137 0.92403 0.0
Co231 Co 0.68263 0.56492 0.99673 0.0
C232 C 0.68187 0.56696 0.86313 0.0
C233 C 0.68462 0.58848 0.90665 0.0
C234 C 0.68481 0.59063 0.8453 0.0
N235 N 0.68271 0.57363 0.9178 0.0
N236 N 0.68317 0.57715 0.81772 0.0
H237 H 0.68076 0.55509 0.85697 0.0
H238 H 0.68604 0.59726 0.94075 0.0
C239 C 0.65871 0.57181 0.06209 0.0
O240 O 0.65156 0.55706 0.0855 0.0
N241 N 0.6831 0.55657 0.07713 0.0
C242 C 0.68596 0.54427 0.09032 0.0
C243 C 0.68645 0.54282 0.15178 0.0
C244 C 0.68291 0.56303 0.13152 0.0
N245 N 0.68442 0.55454 0.17782 0.0
C246 C 0.66057 0.53052 0.98023 0.0
C247 C 0.63289 0.5327 0.96046 0.0
C248 C 0.63116 0.51733 0.97271 0.0
C249 C 0.64537 0.51629 0.97888 0.0
C250 C 0.64844 0.54661 0.96154 0.0
N251 N 0.66179 0.54549 0.97781 0.0
H252 H 0.67132 0.52944 0.98427 0.0
H253 H 0.64957 0.55838 0.9527 0.0
H254 H 0.68847 0.53728 0.05805 0.0
H255 H 0.68188 0.57383 0.13732 0.0
O256 O 0.69723 0.55777 0.96749 0.0
O257 O 0.705 0.582 1.00826 0.0
O258 O 0.67138 0.57674 0.02891 0.0
C259 C 0.70908 0.57197 0.98421 0.0
H260 H 0.68605 0.60137 0.82294 0.0
H261 H 0.68878 0.53417 0.17541 0.0
H262 H 0.62235 0.53412 0.95324 0.0
H263 H 0.64474 0.50461 0.9842 0.0
Co264 Co 0.11231 0.68231 0.01864 0.0
C265 C 0.1095 0.6811 0.88509 0.0
C266 C 0.09195 0.68595 0.92774 0.0
C267 C 0.08985 0.68572 0.86631 0.0
N268 N 0.10416 0.68294 0.93946 0.0
N269 N 0.10088 0.68268 0.83946 0.0
H270 H 0.11943 0.67863 0.87919 0.0
H271 H 0.08523 0.68844 0.96148 0.0
C272 C 0.08111 0.66001 0.086 0.0
O273 O 0.08813 0.65257 0.11169 0.0
N274 N 0.12062 0.68216 0.09918 0.0
C275 C 0.13487 0.68289 0.11305 0.0
C276 C 0.13696 0.68405 0.17446 0.0
C277 C 0.11467 0.68371 0.15287 0.0
N278 N 0.12424 0.68452 0.1997 0.0
C279 C 0.12386 0.65991 0.99582 0.0
C280 C 0.09364 0.63216 0.98463 0.0
C281 C 0.10754 0.63052 0.98993 0.0
C282 C 0.12287 0.64472 0.99239 0.0
C283 C 0.09528 0.6477 0.98746 0.0
N284 N 0.11011 0.66114 0.99933 0.0
H285 H 0.13576 0.67067 0.99664 0.0
H286 H 0.08453 0.64879 0.98194 0.0
H287 H 0.14373 0.68338 0.08129 0.0
H288 H 0.10382 0.68472 0.15752 0.0
O289 O 0.13434 0.69628 0.99065 0.0
O290 O 0.11854 0.70495 0.03074 0.0
O291 O 0.0892 0.67197 0.05002 0.0
C292 C 0.1326 0.70849 1.00765 0.0
H293 H 0.08117 0.68808 0.84316 0.0
H294 H 0.14717 0.68458 0.19849 0.0
H295 H 0.08162 0.62154 0.97936 0.0
H296 H 0.134 0.64412 0.99436 0.0
Co297 Co 0.43152 0.11684 1.00359 0.0
C298 C 0.42916 0.11453 0.86994 0.0
C299 C 0.40616 0.09909 0.91352 0.0
C300 C 0.40392 0.09718 0.85215 0.0
N301 N 0.42196 0.10986 0.9246 0.0
N302 N 0.41837 0.10687 0.8247 0.0
H303 H 0.442 0.12321 0.86356 0.0
H304 H 0.39685 0.09317 0.94774 0.0
C305 C 0.42049 0.08496 0.06813 0.0
O306 O 0.43493 0.09118 0.09359 0.0
N307 N 0.44074 0.12401 0.0841 0.0
C308 C 0.45539 0.13696 0.09837 0.0
C309 C 0.45652 0.13888 0.15985 0.0
C310 C 0.4329 0.11875 0.13767 0.0
N311 N 0.44239 0.12741 0.18477 0.0
C312 C 0.46462 0.12542 0.97602 0.0
C313 C 0.45879 0.09395 0.96175 0.0
C314 C 0.47498 0.10673 0.96699 0.0
C315 C 0.47781 0.12275 0.97085 0.0
C316 C 0.44598 0.09727 0.96666 0.0
N317 N 0.44904 0.11265 0.9803 0.0
H318 H 0.46703 0.13781 0.97782 0.0
H319 H 0.43363 0.08733 0.96137 0.0
H320 H 0.46447 0.14516 0.06696 0.0
H321 H 0.42034 0.10907 0.14195 0.0
O322 O 0.44122 0.13937 0.97866 0.0
O323 O 0.41669 0.12484 0.02012 0.0
O324 O 0.41729 0.09368 0.03283 0.0
C325 C 0.42793 0.13874 0.99818 0.0
H326 H 0.39244 0.0895 0.82947 0.0
H327 H 0.46696 0.14816 0.18416 0.0
H328 H 0.45605 0.08148 0.95517 0.0
H329 H 0.49009 0.13311 0.9727 0.0
Co330 Co 0.31626 0.43678 1.00861 0.0
C331 C 0.31555 0.43424 0.8748 0.0
C332 C 0.3072 0.41113 0.91866 0.0
C333 C 0.30669 0.40879 0.85732 0.0
N334 N 0.31285 0.42707 0.92956 0.0
N335 N 0.31196 0.42331 0.8297 0.0
H336 H 0.32027 0.44719 0.86823 0.0
H337 H 0.30368 0.40185 0.95305 0.0
C338 C 0.33752 0.4256 0.0697 0.0
O339 O 0.34546 0.43964 0.09809 0.0
N340 N 0.31922 0.44616 0.08919 0.0
C341 C 0.32221 0.46126 0.10396 0.0
C342 C 0.32154 0.46238 0.16549 0.0
C343 C 0.31613 0.43813 0.14251 0.0
N344 N 0.31773 0.44785 0.18991 0.0
C345 C 0.33982 0.46971 0.97549 0.0
C346 C 0.36618 0.46492 0.96332 0.0
C347 C 0.36898 0.48094 0.9662 0.0
C348 C 0.35543 0.4832 0.96884 0.0
C349 C 0.35028 0.45178 0.96959 0.0
N350 N 0.33762 0.4544 0.98238 0.0
H351 H 0.32957 0.47171 0.97725 0.0
H352 H 0.34833 0.43956 0.9656 0.0
H353 H 0.32398 0.47076 0.07294 0.0
H354 H 0.31238 0.42532 0.14633 0.0
O355 O 0.30308 0.44632 0.98707 0.0
O356 O 0.29364 0.42189 0.02855 0.0
O357 O 0.32564 0.42271 0.0347 0.0
C358 C 0.29068 0.43306 1.00805 0.0
H359 H 0.30252 0.39722 0.8348 0.0
H360 H 0.32359 0.47311 0.1902 0.0
H361 H 0.37621 0.46258 0.95763 0.0
H362 H 0.35688 0.49531 0.96904 0.0
Co363 Co 0.87746 0.31298 1.00843 0.0
C364 C 0.87702 0.31091 0.87188 0.0
C365 C 0.8839 0.29507 0.91615 0.0
C366 C 0.885 0.29357 0.85505 0.0
N367 N 0.87904 0.30603 0.92713 0.0
N368 N 0.88078 0.30358 0.82721 0.0
H369 H 0.87377 0.32017 0.8639 0.0
H370 H 0.88699 0.28896 0.95051 0.0
C371 C 0.91248 0.32848 0.9792 0.0
O372 O 0.90845 0.33253 0.92805 0.0
N373 N 0.87554 0.31922 0.08973 0.0
C374 C 0.86634 0.3258 0.10615 0.0
C375 C 0.8674 0.32802 0.16745 0.0
C376 C 0.88186 0.31722 0.14149 0.0
N377 N 0.87712 0.32262 0.18975 0.0
C378 C 0.86957 0.3358 0.9538 0.0
C379 C 0.8953 0.36318 1.00543 0.0
C380 C 0.88255 0.36454 0.97953 0.0
C381 C 0.86984 0.35074 0.9514 0.0
C382 C 0.89446 0.34807 1.00766 0.0
N383 N 0.88167 0.33449 0.9824 0.0
H384 H 0.85895 0.32501 0.93683 0.0
H385 H 0.90337 0.34718 0.03513 0.0
H386 H 0.85908 0.32851 0.07574 0.0
H387 H 0.8896 0.31183 0.14378 0.0
O388 O 0.85394 0.30107 1.0022 0.0
O389 O 0.86899 0.29073 0.03537 0.0
O390 O 0.90161 0.32111 0.02006 0.0
C391 C 0.85457 0.28853 0.02297 0.0
H392 H 0.88884 0.28585 0.83282 0.0
H393 H 0.86101 0.33271 0.1939 0.0
H394 H 0.90541 0.3735 0.0275 0.0
H395 H 0.85957 0.35115 0.93171 0.0
H396 H 0.08596 0.60513 0.0601 0.0
H397 H 0.08581 0.57967 0.08159 0.0
H398 H 0.12584 0.59369 0.95755 0.0
H399 H 0.12616 0.61926 0.93631 0.0
H400 H 0.08147 0.55431 1.01187 0.0
H401 H 0.1436 0.58476 0.11039 0.0
H402 H 0.13277 0.59554 0.09453 0.0
H403 H 0.14323 0.5915 0.03505 0.0
C404 C 0.09457 0.60268 0.03671 0.0
C405 C 0.10615 0.61425 0.9968 0.0
C406 C 0.09455 0.58818 0.04937 0.0
C407 C 0.10609 0.58497 0.02237 0.0
C408 C 0.11715 0.59614 0.98033 0.0
H409 H 0.10327 0.49328 0.98789 0.0
H410 H 0.10195 0.51823 0.97651 0.0
C411 C 0.11726 0.61069 0.96795 0.0
C412 C 0.10652 0.56994 0.03811 0.0
H413 H 0.13163 0.55626 0.0895 0.0
C414 C 0.0924 0.55474 0.02922 0.0
C415 C 0.12068 0.57051 0.06207 0.0
C416 C 0.13588 0.58645 0.07671 0.0
C417 C 0.09222 0.54009 0.04157 0.0
C418 C 0.10667 0.54066 0.0621 0.0
C419 C 0.12062 0.55585 0.0731 0.0
C420 C 0.10774 0.52563 0.06975 0.0
C421 C 0.07652 0.52416 0.03275 0.0
C422 C 0.11208 0.5218 0.12549 0.0
C423 C 0.11296 0.50751 0.13209 0.0
C424 C 0.10948 0.49685 0.08303 0.0
C425 C 0.10557 0.501 0.027 0.0
C426 C 0.10479 0.51526 0.02039 0.0
H427 H 0.06571 0.52583 0.03583 0.0
H428 H 0.07652 0.5193 0.9872 0.0
H429 H 0.0752 0.51494 0.06672 0.0
H430 H 0.11459 0.52975 0.16401 0.0
H431 H 0.11606 0.50464 0.1757 0.0
H432 H 0.61607 0.12686 0.02515 0.0
H433 H 0.58913 0.12301 1.0038 0.0
H434 H 0.56749 0.08233 0.12732 0.0
H435 H 0.59466 0.08648 0.15092 0.0
H436 H 0.56236 0.09544 0.95569 0.0
H437 H 0.5482 0.11062 0.18215 0.0
H438 H 0.56857 0.11553 0.16055 0.0
H439 H 0.55366 0.09494 0.18047 0.0
C440 C 0.60567 0.1173 0.04896 0.0
C441 C 0.60761 0.10712 0.09048 0.0
C442 C 0.59023 0.115 0.03609 0.0
C443 C 0.57632 0.10249 0.06432 0.0
C444 C 0.57811 0.09222 0.10567 0.0
H445 H 0.47576 0.08272 0.03275 0.0
H446 H 0.49935 0.07933 0.05275 0.0
C447 C 0.59362 0.09453 0.11873 0.0
C448 C 0.56004 0.1002 0.04912 0.0
H449 H 0.52814 0.10318 0.10697 0.0
C450 C 0.55482 0.09702 0.98883 0.0
C451 C 0.5502 0.10222 0.09248 0.0
C452 C 0.55543 0.10614 0.15749 0.0
C453 C 0.54016 0.09608 0.97052 0.0
C454 C 0.53059 0.0986 0.01349 0.0
C455 C 0.53552 0.10125 0.07413 0.0
C456 C 0.51592 0.09951 0.99609 0.0
C457 C 0.53506 0.09243 0.90532 0.0
C458 C 0.51737 0.11185 0.957 0.0
C459 C 0.5039 0.11378 0.94524 0.0
C460 C 0.48873 0.10342 0.97258 0.0
C461 C 0.4872 0.09074 1.01024 0.0
C462 C 0.50069 0.08887 0.02213 0.0
H463 H 0.54093 0.08619 0.88268 0.0
H464 H 0.5216 0.08466 0.90119 0.0
H465 H 0.53888 0.10407 0.88109 0.0
H466 H 0.52907 0.12037 0.93718 0.0
H467 H 0.50546 0.12359 0.91577 0.0
H468 H 0.39413 0.4832 0.03397 0.0
H469 H 0.4202 0.50779 0.05574 0.0
H470 H 0.4078 0.53545 0.93381 0.0
H471 H 0.38171 0.51092 0.91157 0.0
H472 H 0.44671 0.53053 0.98314 0.0
H473 H 0.41469 0.55885 0.09708 0.0
H474 H 0.4046 0.53744 0.07793 0.0
H475 H 0.40802 0.5524 0.0211 0.0
C476 C 0.3971 0.49443 1.01069 0.0
C477 C 0.38577 0.49515 0.97147 0.0
C478 C 0.41197 0.50848 0.02349 0.0
C479 C 0.41574 0.52349 0.99743 0.0
C480 C 0.40492 0.52405 0.95548 0.0
H481 H 0.4911 0.62331 0.01325 0.0
H482 H 0.46713 0.5967 0.99541 0.0
C483 C 0.39005 0.51002 0.94275 0.0
C484 C 0.43058 0.53869 0.01622 0.0
H485 H 0.44317 0.5759 0.08069 0.0
C486 C 0.44598 0.54042 1.00488 0.0
C487 C 0.42954 0.55147 0.04519 0.0
C488 C 0.41333 0.54994 0.06164 0.0
C489 C 0.46041 0.55492 0.01954 0.0
C490 C 0.45933 0.56786 0.04694 0.0
C491 C 0.44393 0.56595 0.05956 0.0
C492 C 0.47396 0.5839 0.05936 0.0
C493 C 0.47667 0.55653 1.00374 0.0
C494 C 0.48566 0.58556 0.10202 0.0
C495 C 0.4994 0.60089 0.11296 0.0
C496 C 0.50158 0.61479 0.08157 0.0
C497 C 0.48969 0.61299 0.03929 0.0
C498 C 0.47602 0.59774 0.02855 0.0
H499 H 0.47534 0.54663 0.97316 0.0
H500 H 0.48475 0.56849 0.98183 0.0
H501 H 0.48276 0.55594 0.04565 0.0
H502 H 0.48413 0.57504 0.12702 0.0
H503 H 0.50823 0.60186 0.14618 0.0
H504 H 0.8725 0.37997 0.89912 0.0
H505 H 0.87077 0.40473 0.91668 0.0
H506 H 0.88859 0.40777 0.09785 0.0
H507 H 0.89009 0.3831 0.08135 0.0
H508 H 0.85255 0.4099 1.01036 0.0
H509 H 0.91915 0.45364 0.02665 0.0
H510 H 0.91099 0.43367 0.99298 0.0
H511 H 0.91186 0.43585 0.07362 0.0
C512 C 0.87605 0.38593 0.94262 0.0
C513 C 0.88171 0.3797 0.9884 0.0
C514 C 0.87511 0.40008 0.95252 0.0
C515 C 0.87987 0.40823 1.00817 0.0
C516 C 0.88527 0.40191 0.05409 0.0
H517 H 0.88292 0.49492 0.16074 0.0
H518 H 0.88465 0.47007 0.14539 0.0
C519 C 0.88618 0.38782 0.04438 0.0
C520 C 0.87871 0.42305 0.01944 0.0
H521 H 0.90145 0.46353 0.05492 0.0
C522 C 0.86323 0.42165 0.01972 0.0
C523 C 0.89267 0.4383 0.03232 0.0
C524 C 0.90964 0.44057 0.03096 0.0
C525 C 0.86131 0.4351 0.0333 0.0
C526 C 0.87528 0.4504 0.04572 0.0
C527 C 0.89076 0.45177 0.04568 0.0
C528 C 0.87415 0.46529 0.05584 0.0
C529 C 0.8443 0.43272 0.03532 0.0
C530 C 0.86799 0.47096 1.01024 0.0
C531 C 0.86701 0.48505 0.01883 0.0
C532 C 0.87225 0.49386 0.07319 0.0
C533 C 0.87875 0.48837 0.11851 0.0
C534 C 0.8797 0.47418 0.10985 0.0
H535 H 0.83493 0.4197 0.04242 0.0
H536 H 0.84313 0.44012 0.07181 0.0
H537 H 0.84164 0.43667 0.9917 0.0
H538 H 0.86411 0.46458 0.96755 0.0
H539 H 0.86241 0.4892 0.98223 0.0
H540 H 0.35795 0.84399 0.06227 0.0
H541 H 0.38136 0.84031 0.04168 0.0
H542 H 0.41408 0.88978 0.09917 0.0
H543 H 0.39073 0.89359 0.11884 0.0
H544 H 0.4222 0.88328 0.98922 0.0
H545 H 0.41229 0.83432 0.15122 0.0
H546 H 0.39523 0.82941 0.10284 0.0
H547 H 0.40161 0.84563 0.15696 0.0
C548 C 0.37013 0.85392 0.07202 0.0
C549 C 0.37255 0.86907 0.09237 0.0
C550 C 0.38349 0.85181 0.06016 0.0
C551 C 0.39947 0.86473 0.06926 0.0
C552 C 0.40185 0.87965 0.09173 0.0
H553 H 0.49172 0.87062 0.09049 0.0
H554 H 0.46466 0.86723 0.10434 0.0
C555 C 0.38853 0.88181 0.10309 0.0
C556 C 0.41378 0.86321 0.05162 0.0
H557 H 0.43387 0.84238 0.08113 0.0
C558 C 0.42474 0.8743 1.00915 0.0
C559 C 0.41703 0.85147 0.07766 0.0
C560 C 0.40601 0.83961 0.12509 0.0
C561 C 0.4391 0.8743 0.99317 0.0
C562 C 0.44239 0.8626 0.01931 0.0
C563 C 0.43122 0.85122 0.06066 0.0
C564 C 0.45821 0.86321 1.00979 0.0
C565 C 0.45096 0.88732 0.95063 0.0
C566 C 0.46347 0.86167 0.95206 0.0
C567 C 0.47915 0.86387 0.94378 0.0
C568 C 0.48974 0.8676 0.99319 0.0
C569 C 0.48405 0.86825 0.05121 0.0
C570 C 0.4685 0.86613 0.05935 0.0
H571 H 0.44817 0.89734 0.94445 0.0
H572 H 0.46368 0.89267 0.96743 0.0
H573 H 0.45028 0.88179 0.90582 0.0
H574 H 0.45558 0.85908 0.91334 0.0
H575 H 0.48315 0.86317 0.89866 0.0
H576 H 0.60221 0.50822 0.91325 0.0
H577 H 0.57522 0.48476 0.93559 0.0
H578 H 0.59626 0.46973 0.07669 0.0
H579 H 0.62298 0.49334 0.05656 0.0
H580 H 0.56491 0.45173 0.93245 0.0
H581 H 0.5586 0.46999 0.16378 0.0
H582 H 0.57385 0.48395 0.11146 0.0
H583 H 0.57721 0.46958 0.15331 0.0
C584 C 0.60106 0.50001 0.9494 0.0
C585 C 0.61481 0.5027 0.98304 0.0
C586 C 0.58565 0.48657 0.96193 0.0
C587 C 0.58368 0.47569 1.00861 0.0
C588 C 0.59741 0.47817 0.0414 0.0
H589 H 0.51037 0.38227 0.1433 0.0
H590 H 0.53476 0.40878 0.12388 0.0
C591 C 0.61276 0.49156 0.02907 0.0
C592 C 0.56743 0.4614 0.02218 0.0
H593 H 0.54021 0.44214 0.13669 0.0
C594 C 0.55939 0.44973 0.97684 0.0
C595 C 0.56025 0.45883 0.08018 0.0
C596 C 0.56784 0.47133 0.1298 0.0
C597 C 0.54468 0.43525 0.9886 0.0
C598 C 0.53777 0.43249 0.04704 0.0
C599 C 0.5456 0.44429 0.09203 0.0
C600 C 0.52267 0.41713 0.0626 0.0
C601 C 0.53693 0.42274 0.93906 0.0
C602 C 0.50773 0.4133 0.03599 0.0
C603 C 0.4938 0.39819 0.04697 0.0
C604 C 0.49456 0.38663 0.08478 0.0
C605 C 0.50942 0.39082 0.11341 0.0
C606 C 0.52334 0.40597 0.10257 0.0
H607 H 0.54533 0.42534 0.90028 0.0
H608 H 0.53307 0.4103 0.95638 0.0
H609 H 0.52588 0.42278 0.92242 0.0
H610 H 0.50694 0.42185 1.00557 0.0
H611 H 0.48259 0.3953 0.02375 0.0
H612 H 0.28127 0.45416 0.96572 0.0
H613 H 0.25459 0.45213 0.97654 0.0
H614 H 0.23622 0.40599 0.06823 0.0
H615 H 0.26298 0.40797 0.05801 0.0
H616 H 0.2234 0.4274 0.93655 0.0
H617 H 0.22668 0.43418 0.18617 0.0
H618 H 0.24437 0.43916 0.14036 0.0
H619 H 0.22979 0.41822 0.15681 0.0
C620 C 0.27155 0.44354 0.98799 0.0
C621 C 0.27424 0.43125 1.01129 0.0
C622 C 0.25631 0.4424 0.99407 0.0
C623 C 0.24352 0.42903 0.02388 0.0
C624 C 0.24603 0.41654 0.04593 0.0
H625 H 0.14209 0.40718 0.02321 0.0
H626 H 0.16693 0.40534 0.01433 0.0
C627 C 0.26128 0.41764 0.03974 0.0
C628 C 0.22765 0.42835 0.0322 0.0
H629 H 0.20235 0.4297 0.13929 0.0
C630 C 0.21873 0.42782 0.98084 0.0
C631 C 0.22174 0.4291 0.09006 0.0
C632 C 0.23116 0.43033 0.14661 0.0
C633 C 0.20403 0.42803 0.98577 0.0
C634 C 0.19803 0.42861 0.04366 0.0
C635 C 0.20694 0.42913 0.09504 0.0
C636 C 0.18285 0.42932 0.05163 0.0
C637 C 0.19527 0.42809 0.92899 0.0
C638 C 0.18352 0.44322 0.07714 0.0
C639 C 0.16935 0.44429 0.08248 0.0
C640 C 0.15425 0.43142 0.06269 0.0
C641 C 0.15355 0.41733 0.03862 0.0
C642 C 0.16774 0.41628 0.03322 0.0
H643 H 0.20323 0.43118 0.88852 0.0
H644 H 0.1845 0.41577 0.92212 0.0
H645 H 0.19086 0.43696 0.9327 0.0
H646 H 0.19507 0.45339 0.09183 0.0
H647 H 0.17027 0.45529 0.10134 0.0
H648 H 0.8521 0.26064 0.06999 0.0
H649 H 0.82735 0.23388 0.08052 0.0
H650 H 0.7987 0.25342 1.00455 0.0
H651 H 0.82333 0.28015 0.99367 0.0
H652 H 0.79793 0.22579 0.14526 0.0
H653 H 0.78714 0.21259 0.90035 0.0
H654 H 0.80653 0.22809 0.9302 0.0
H655 H 0.78995 0.23212 0.92236 0.0
C656 C 0.84053 0.25923 0.0555 0.0
C657 C 0.83966 0.27247 0.03076 0.0
C658 C 0.82642 0.24395 0.06159 0.0
C659 C 0.81127 0.24165 0.04252 0.0
C660 C 0.81034 0.2549 0.01857 0.0
H661 H 0.71247 0.16857 0.12125 0.0
H662 H 0.73965 0.19277 0.11662 0.0
C663 C 0.82441 0.27017 1.01269 0.0
C664 C 0.79634 0.22547 0.04834 0.0
H665 H 0.76549 0.19523 0.96651 0.0
C666 C 0.79088 0.21902 0.10623 0.0
C667 C 0.78734 0.21659 0.99726 0.0
C668 C 0.79308 0.22259 0.93395 0.0
C669 C 0.77628 0.20417 0.11448 0.0
C670 C 0.76689 0.19568 0.0635 0.0
C671 C 0.77266 0.20184 1.00554 0.0
C672 C 0.75071 0.18073 0.06928 0.0
C673 C 0.77102 0.1977 0.17762 0.0
C674 C 0.74789 0.16598 0.04357 0.0
C675 C 0.73233 0.15211 0.04603 0.0
C676 C 0.71933 0.15283 0.07372 0.0
C677 C 0.72225 0.1676 0.09981 0.0
C678 C 0.73779 0.18142 0.09753 0.0
H679 H 0.78146 0.20312 0.20959 0.0
H680 H 0.76182 0.20088 0.19351 0.0
H681 H 0.76535 0.1842 0.17878 0.0
H682 H 0.75769 0.16524 0.0212 0.0
H683 H 0.73044 0.14092 0.02532 0.0
H684 H 0.55032 0.72006 0.0987 0.0
H685 H 0.55467 0.74769 0.09002 0.0
H686 H 0.60058 0.76325 0.9999 0.0
H687 H 0.59623 0.73546 1.00778 0.0
H688 H 0.58039 0.77802 0.13085 0.0
H689 H 0.57473 0.77524 0.88056 0.0
H690 H 0.56869 0.75728 0.92608 0.0
H691 H 0.58993 0.77129 0.91209 0.0
C692 C 0.5614 0.72936 0.07732 0.0
C693 C 0.57288 0.72556 0.05351 0.0
C694 C 0.56388 0.74516 0.07255 0.0
C695 C 0.57784 0.75745 0.04369 0.0
C696 C 0.58961 0.75386 0.02154 0.0
H697 H 0.59369 0.85787 0.04417 0.0
H698 H 0.5993 0.83524 0.05285 0.0
C699 C 0.58714 0.73801 0.02632 0.0
C700 C 0.57957 0.77379 0.03524 0.0
H701 H 0.57797 0.79889 0.92803 0.0
C702 C 0.58009 0.78273 0.08653 0.0
C703 C 0.57904 0.77977 0.97729 0.0
C704 C 0.57795 0.7704 0.92072 0.0
C705 C 0.57958 0.79728 0.08155 0.0
C706 C 0.57872 0.80309 0.02365 0.0
C707 C 0.57873 0.79442 0.97229 0.0
C708 C 0.57605 0.81714 0.01564 0.0
C709 C 0.57912 0.80586 0.13827 0.0
C710 C 0.56134 0.81452 0.99042 0.0
C711 C 0.55814 0.82736 0.98523 0.0
C712 C 0.56964 0.84312 1.00495 0.0
C713 C 0.58458 0.84584 0.02881 0.0
C714 C 0.58777 0.83294 0.03405 0.0
H715 H 0.57707 0.79829 0.17922 0.0
H716 H 0.59094 0.81738 0.1435 0.0
H717 H 0.56932 0.80905 0.13549 0.0
H718 H 0.55215 0.80242 0.97587 0.0
H719 H 0.54654 0.82486 0.96649 0.0
H720 H 0.73634 0.59921 0.02601 0.0
H721 H 0.76462 0.6048 0.02287 0.0
H722 H 0.74884 0.55958 0.9276 0.0
H723 H 0.72071 0.55398 0.93012 0.0
H724 H 0.77521 0.58535 0.07523 0.0
H725 H 0.78904 0.59145 0.83114 0.0
H726 H 0.77225 0.59309 0.86241 0.0
H727 H 0.77004 0.57334 0.8479 0.0
C728 C 0.73896 0.5906 1.00355 0.0
C729 C 0.72631 0.57614 0.97836 0.0
C730 C 0.75511 0.59382 1.00174 0.0
C731 C 0.75887 0.58275 0.9741 0.0
C732 C 0.74629 0.5685 0.94782 0.0
H733 H 0.82184 0.54724 0.03933 0.0
H734 H 0.80083 0.55476 0.02752 0.0
C735 C 0.73018 0.56524 0.9498 0.0
C736 C 0.77554 0.58504 0.97806 0.0
H737 H 0.80504 0.5836 0.89368 0.0
C738 C 0.78192 0.58536 0.0355 0.0
C739 C 0.7844 0.58524 0.92624 0.0
C740 C 0.77866 0.58594 0.86344 0.0
C741 C 0.79629 0.58464 0.04247 0.0
C742 C 0.80437 0.58346 0.99074 0.0
C743 C 0.7987 0.58435 0.93325 0.0
C744 C 0.81741 0.57924 0.99593 0.0
C745 C 0.80235 0.58444 0.10519 0.0
C746 C 0.83367 0.59046 0.98076 0.0
C747 C 0.84582 0.58621 0.98768 0.0
C748 C 0.84177 0.57062 1.00915 0.0
C749 C 0.82539 0.55936 0.02279 0.0
C750 C 0.81335 0.56363 0.01631 0.0
H751 H 0.79746 0.5896 0.13884 0.0
H752 H 0.79828 0.57163 0.1183 0.0
H753 H 0.81591 0.59145 0.10683 0.0
H754 H 0.83696 0.60253 0.96458 0.0
H755 H 0.85835 0.59512 0.97671 0.0
H756 H 0.1626 0.71889 0.95845 0.0
H757 H 0.18622 0.74645 0.96017 0.0
H758 H 0.15749 0.76409 0.04947 0.0
H759 H 0.13372 0.73639 0.0485 0.0
H760 H 0.19116 0.77691 0.91511 0.0
H761 H 0.19618 0.77599 0.16525 0.0
H762 H 0.18363 0.75774 0.12211 0.0
H763 H 0.17689 0.77215 0.13556 0.0
C764 C 0.16124 0.72864 0.97804 0.0
C765 C 0.14634 0.72545 1.00386 0.0
C766 C 0.17474 0.74439 0.97879 0.0
C767 C 0.17364 0.75724 1.00555 0.0
C768 C 0.15863 0.75426 0.02931 0.0
H769 H 0.25918 0.85717 1.00047 0.0
H770 H 0.23096 0.8346 0.98963 0.0
C771 C 0.14506 0.73847 0.02852 0.0
C772 C 0.18855 0.77345 1.01129 0.0
H773 H 0.21653 0.79892 0.11424 0.0
C774 C 0.19662 0.78188 0.95861 0.0
C775 C 0.19567 0.77978 0.06818 0.0
C776 C 0.18777 0.77095 0.12613 0.0
C777 C 0.21189 0.79626 0.96127 0.0
C778 C 0.21916 0.80236 0.0181 0.0
C779 C 0.21084 0.79422 0.0708 0.0
C780 C 0.23607 0.81617 0.02384 0.0
C781 C 0.22052 0.80439 0.90334 0.0
C782 C 0.24816 0.81328 0.04717 0.0
C783 C 0.26418 0.82606 0.05342 0.0
C784 C 0.26842 0.84204 0.03676 0.0
C785 C 0.25628 0.84497 0.0135 0.0
C786 C 0.24019 0.83211 1.0071 0.0
H787 H 0.21428 0.79683 0.86311 0.0
H788 H 0.22091 0.81627 0.89865 0.0
H789 H 0.23331 0.80689 0.90412 0.0
H790 H 0.2452 0.80106 0.06036 0.0
H791 H 0.27323 0.82339 0.07157 0.0
H792 H 0.40266 0.14166 0.04411 0.0
H793 H 0.40054 0.16642 0.04971 0.0
H794 H 0.44706 0.19366 0.95992 0.0
H795 H 0.44922 0.16899 0.95371 0.0
H796 H 0.4224 0.19555 0.10818 0.0
H797 H 0.41759 0.20611 0.8649 0.0
H798 H 0.4141 0.18677 0.89398 0.0
H799 H 0.43458 0.20335 0.88281 0.0
C800 C 0.41234 0.15288 0.02491 0.0
C801 C 0.42609 0.15337 0.99831 0.0
C802 C 0.41113 0.16701 0.02825 0.0
C803 C 0.42355 0.18182 1.00458 0.0
C804 C 0.43719 0.18229 0.97743 0.0
H805 H 0.45206 0.28127 0.08821 0.0
H806 H 0.44871 0.25397 0.07994 0.0
C807 C 0.43844 0.1682 0.9742 0.0
C808 C 0.42273 0.19699 1.0112 0.0
H809 H 0.42364 0.22832 0.93133 0.0
C810 C 0.42252 0.20264 0.06954 0.0
C811 C 0.42269 0.20612 0.96072 0.0
C812 C 0.42209 0.20023 0.89704 0.0
C813 C 0.42284 0.21749 0.07878 0.0
C814 C 0.4236 0.227 0.02832 0.0
C815 C 0.42322 0.22107 0.96995 0.0
C816 C 0.42528 0.24337 0.03511 0.0
C817 C 0.42238 0.22288 0.14244 0.0
C818 C 0.41333 0.24652 1.01184 0.0
C819 C 0.41523 0.26213 0.01639 0.0
C820 C 0.42919 0.27489 0.04381 0.0
C821 C 0.44112 0.27168 0.06712 0.0
C822 C 0.43919 0.25607 0.06271 0.0
H823 H 0.41737 0.21244 0.17448 0.0
H824 H 0.43498 0.23181 0.15699 0.0
H825 H 0.41488 0.2289 0.14527 0.0
H826 H 0.40255 0.2369 0.99006 0.0
H827 H 0.40585 0.26425 0.99777 0.0
H828 H 0.13249 0.44835 0.30466 0.0
H829 H 0.13486 0.45239 0.41428 0.0
H830 H 0.08854 0.40826 0.43829 0.0
H831 H 0.08614 0.40414 0.32926 0.0
H832 H 0.11473 0.45577 0.49721 0.0
H833 H 0.11839 0.40017 0.54713 0.0
H834 H 0.12066 0.4083 0.47184 0.0
H835 H 0.10067 0.39623 0.50441 0.0
C836 C 0.12277 0.43959 0.33329 0.0
C837 C 0.10923 0.42581 0.30827 0.0
C838 C 0.12417 0.44186 0.3959 0.0
C839 C 0.11206 0.43042 0.43454 0.0
C840 C 0.09827 0.41699 0.40951 0.0
H841 H 0.09878 0.42371 0.82561 0.0
H842 H 0.09518 0.41919 0.71639 0.0
C843 C 0.0969 0.41467 0.34713 0.0
C844 C 0.11375 0.43254 0.50099 0.0
H845 H 0.11553 0.41411 0.63121 0.0
C846 C 0.11498 0.4467 0.52648 0.0
C847 C 0.11402 0.42066 0.53917 0.0
C848 C 0.11352 0.40555 0.51431 0.0
C849 C 0.11627 0.4492 0.58915 0.0
C850 C 0.11654 0.43733 0.62723 0.0
C851 C 0.11523 0.42314 0.60186 0.0
C852 C 0.11879 0.43974 0.69335 0.0
C853 C 0.11711 0.46444 0.61424 0.0
C854 C 0.13339 0.45251 0.71648 0.0
C855 C 0.13554 0.45503 0.77862 0.0
C856 C 0.12312 0.44482 0.81918 0.0
C857 C 0.10863 0.43175 0.79584 0.0
C858 C 0.10651 0.42921 0.73345 0.0
H859 H 0.11272 0.47022 0.5812 0.0
H860 H 0.10975 0.46169 0.65615 0.0
H861 H 0.12998 0.47342 0.62549 0.0
H862 H 0.14318 0.46053 0.68637 0.0
H863 H 0.14702 0.46496 0.79478 0.0
H864 H 0.69803 0.10201 0.33382 0.0
H865 H 0.69655 0.10465 0.44258 0.0
H866 H 0.66267 0.12211 0.41741 0.0
H867 H 0.66356 0.11887 0.30816 0.0
H868 H 0.70437 0.1314 0.51158 0.0
H869 H 0.6387 0.08561 0.53918 0.0
H870 H 0.64978 0.08749 0.47052 0.0
H871 H 0.64257 0.10148 0.48606 0.0
C872 C 0.69006 0.10619 0.35115 0.0
C873 C 0.68074 0.11001 0.31186 0.0
C874 C 0.68934 0.10783 0.41354 0.0
C875 C 0.67928 0.11329 0.43836 0.0
C876 C 0.67025 0.11751 0.39941 0.0
H877 H 0.66023 0.13418 0.79862 0.0
H878 H 0.66169 0.13055 0.69034 0.0
C879 C 0.67093 0.11584 0.33681 0.0
C880 C 0.67849 0.11475 0.50495 0.0
H881 H 0.65236 0.10153 0.62528 0.0
C882 C 0.69301 0.1248 0.53649 0.0
C883 C 0.66368 0.10608 0.53749 0.0
C884 C 0.64781 0.09443 0.50676 0.0
C885 C 0.69307 0.12671 0.59939 0.0
C886 C 0.67823 0.11817 0.63178 0.0
C887 C 0.66373 0.10805 0.60035 0.0
C888 C 0.67737 0.12008 0.69799 0.0
C889 C 0.70892 0.13819 0.6305 0.0
C890 C 0.68553 0.11518 0.73854 0.0
C891 C 0.68477 0.11732 0.80085 0.0
C892 C 0.67587 0.12442 0.82363 0.0
C893 C 0.66748 0.12899 0.78272 0.0
C894 C 0.66819 0.12681 0.72073 0.0
H895 H 0.71847 0.14641 0.59801 0.0
H896 H 0.70709 0.14577 0.66442 0.0
H897 H 0.71349 0.13095 0.65442 0.0
H898 H 0.69248 0.10971 0.72201 0.0
H899 H 0.69139 0.11368 0.83098 0.0
H900 H 0.59992 0.70119 0.31723 0.0
H901 H 0.59579 0.69971 0.42602 0.0
H902 H 0.54391 0.66899 0.40035 0.0
H903 H 0.54799 0.66984 0.29108 0.0
H904 H 0.57844 0.70933 0.49577 0.0
H905 H 0.55359 0.64263 0.52089 0.0
H906 H 0.56335 0.6535 0.45248 0.0
H907 H 0.54251 0.64784 0.46822 0.0
C908 C 0.58762 0.69391 0.33444 0.0
C909 C 0.57431 0.68546 0.29499 0.0
C910 C 0.58528 0.69319 0.39686 0.0
C911 C 0.56959 0.684 0.42156 0.0
C912 C 0.55619 0.67586 0.38246 0.0
H913 H 0.52952 0.66709 0.7817 0.0
H914 H 0.53458 0.66826 0.67338 0.0
C915 C 0.55852 0.67653 0.31984 0.0
C916 C 0.56732 0.68321 0.48816 0.0
H917 H 0.55252 0.65683 0.60758 0.0
C918 C 0.57285 0.69785 0.52026 0.0
C919 C 0.5601 0.66824 0.52017 0.0
C920 C 0.55468 0.65216 0.48885 0.0
C921 C 0.57102 0.69791 0.58318 0.0
C922 C 0.56365 0.68294 0.61504 0.0
C923 C 0.55819 0.6683 0.58306 0.0
C924 C 0.56087 0.68214 0.68125 0.0
C925 C 0.57659 0.71396 0.6149 0.0
C926 C 0.57401 0.68935 0.72194 0.0
C927 C 0.57114 0.68874 0.78423 0.0
C928 C 0.55509 0.68095 0.80689 0.0
C929 C 0.54202 0.67347 0.76587 0.0
C930 C 0.54488 0.67402 0.70386 0.0
H931 H 0.57877 0.72388 0.58279 0.0
H932 H 0.56742 0.71282 0.64881 0.0
H933 H 0.5882 0.71759 0.63893 0.0
H934 H 0.58647 0.69545 0.7055 0.0
H935 H 0.58147 0.69465 0.81446 0.0
H936 H 0.84659 0.54123 0.27529 0.0
H937 H 0.84127 0.53561 0.3839 0.0
H938 H 0.88575 0.58029 0.4244 0.0
H939 H 0.89115 0.58586 0.31733 0.0
H940 H 0.85978 0.53183 0.47276 0.0
H941 H 0.85257 0.5849 0.52701 0.0
H942 H 0.85188 0.57795 0.45062 0.0
H943 H 0.87119 0.59091 0.48675 0.0
C944 C 0.85523 0.5498 0.30744 0.0
C945 C 0.86915 0.56414 0.28743 0.0
C946 C 0.85213 0.54664 0.36944 0.0
C947 C 0.86287 0.55778 0.41238 0.0
C948 C 0.87698 0.57179 0.39232 0.0
H949 H 0.89155 0.55094 0.76481 0.0
H950 H 0.88614 0.55138 0.65793 0.0
C951 C 0.88006 0.57495 0.33081 0.0
C952 C 0.85998 0.55466 0.47831 0.0
H953 H 0.85967 0.57316 0.61044 0.0
C954 C 0.85944 0.54071 0.50278 0.0
C955 C 0.85921 0.56607 0.51766 0.0
C956 C 0.85856 0.58071 0.49411 0.0
C957 C 0.85932 0.53846 0.56552 0.0
C958 C 0.86003 0.55061 0.60484 0.0
C959 C 0.85938 0.56397 0.58041 0.0
C960 C 0.86299 0.5504 0.67067 0.0
C961 C 0.85882 0.52325 0.58911 0.0
C962 C 0.85209 0.55039 0.71392 0.0
C963 C 0.85518 0.55013 0.77583 0.0
C964 C 0.86925 0.54997 0.79538 0.0
C965 C 0.88035 0.55055 0.75167 0.0
C966 C 0.87727 0.5508 0.69028 0.0
H967 H 0.85298 0.51307 0.55617 0.0
H968 H 0.87149 0.52582 0.59674 0.0
H969 H 0.85207 0.51925 0.6325 0.0
H970 H 0.84109 0.55031 0.69979 0.0
H971 H 0.8464 0.5497 0.80823 0.0
H972 H 0.33987 0.87365 0.79082 0.0
H973 H 0.33743 0.87628 0.68224 0.0
H974 H 0.29652 0.88368 0.71282 0.0
H975 H 0.29906 0.8812 0.82196 0.0
H976 H 0.31103 0.85594 0.6144 0.0
H977 H 0.32356 0.91968 0.59253 0.0
H978 H 0.32836 0.91222 0.65997 0.0
H979 H 0.30775 0.90755 0.64576 0.0
C980 C 0.33046 0.87601 0.77441 0.0
C981 C 0.31961 0.87715 0.81479 0.0
C982 C 0.3291 0.87754 0.71241 0.0
C983 C 0.31686 0.88027 0.68935 0.0
C984 C 0.30627 0.8819 0.72962 0.0
H985 H 0.28226 0.87996 0.32712 0.0
H986 H 0.28586 0.87985 0.43612 0.0
C987 C 0.30771 0.88048 0.79194 0.0
C988 C 0.31456 0.8802 0.6231 0.0
H989 H 0.31357 0.90296 0.5052 0.0
C990 C 0.31167 0.86626 0.59049 0.0
C991 C 0.31535 0.89365 0.59202 0.0
C992 C 0.31907 0.90919 0.62419 0.0
C993 C 0.30939 0.86534 0.52777 0.0
C994 C 0.31019 0.87877 0.49674 0.0
C995 C 0.31298 0.89268 0.52924 0.0
C996 C 0.30802 0.87857 0.43051 0.0
C997 C 0.30584 0.84988 0.49532 0.0
C998 C 0.31932 0.8779 0.39121 0.0
C999 C 0.31737 0.87807 0.32869 0.0
C1000 C 0.3041 0.87897 0.30436 0.0
C1001 C 0.29274 0.87949 0.34413 0.0
C1002 C 0.29473 0.87937 0.40651 0.0
H1003 H 0.30204 0.83947 0.52696 0.0
H1004 H 0.29609 0.8465 0.46115 0.0
H1005 H 0.31703 0.85189 0.47151 0.0
H1006 H 0.3298 0.87753 0.40891 0.0
H1007 H 0.32648 0.87792 0.29958 0.0
H1008 H 0.40549 0.31913 0.31032 0.0
H1009 H 0.40953 0.32045 0.41937 0.0
H1010 H 0.44968 0.31151 0.39573 0.0
H1011 H 0.44575 0.31029 0.28621 0.0
H1012 H 0.40735 0.29702 0.49585 0.0
H1013 H 0.4697 0.35094 0.50562 0.0
H1014 H 0.4573 0.34549 0.43847 0.0
H1015 H 0.46821 0.33503 0.45727 0.0
C1016 C 0.41518 0.31743 0.32824 0.0
C1017 C 0.42529 0.31458 0.28946 0.0
C1018 C 0.41751 0.31825 0.39066 0.0
C1019 C 0.43002 0.31628 0.41585 0.0
C1020 C 0.44018 0.31345 0.37733 0.0
H1021 H 0.46045 0.3098 0.77644 0.0
H1022 H 0.4555 0.30898 0.66829 0.0
C1023 C 0.43791 0.31274 0.31471 0.0
C1024 C 0.43202 0.31663 0.4825 0.0
H1025 H 0.4594 0.33571 0.59637 0.0
C1026 C 0.4187 0.30555 0.51786 0.0
C1027 C 0.44681 0.32781 0.51127 0.0
C1028 C 0.46127 0.3406 0.47632 0.0
C1029 C 0.41989 0.30508 0.58096 0.0
C1030 C 0.43475 0.31609 0.60953 0.0
C1031 C 0.44802 0.32725 0.5743 0.0
C1032 C 0.437 0.31595 0.67577 0.0
C1033 C 0.4054 0.29254 0.61648 0.0
C1034 C 0.42816 0.32007 0.71614 0.0
C1035 C 0.43105 0.32066 0.77839 0.0
C1036 C 0.4429 0.31724 0.80127 0.0
C1037 C 0.45146 0.31281 0.76054 0.0
C1038 C 0.44859 0.31225 0.69858 0.0
H1039 H 0.39611 0.28286 0.587 0.0
H1040 H 0.40932 0.28673 0.65116 0.0
H1041 H 0.39955 0.29865 0.64004 0.0
H1042 H 0.41932 0.3232 0.69941 0.0
H1043 H 0.42439 0.32429 0.80834 0.0
H1044 H 0.57014 0.8962 0.23932 0.0
H1045 H 0.57559 0.90031 0.34804 0.0
H1046 H 0.54154 0.84927 0.37942 0.0
H1047 H 0.53654 0.84497 0.27162 0.0
H1048 H 0.55336 0.89501 0.43916 0.0
H1049 H 0.58103 0.85603 0.4743 0.0
H1050 H 0.57858 0.8625 0.40033 0.0
H1051 H 0.56165 0.84541 0.43685 0.0
C1052 C 0.56406 0.88582 0.26935 0.0
C1053 C 0.55286 0.87027 0.24675 0.0
C1054 C 0.5671 0.8882 0.33141 0.0
C1055 C 0.55912 0.87505 0.37168 0.0
C1056 C 0.54807 0.85953 0.34913 0.0
H1057 H 0.54841 0.8598 0.75779 0.0
H1058 H 0.54504 0.85783 0.64772 0.0
C1059 C 0.54505 0.85715 0.2874 0.0
C1060 C 0.56164 0.87753 0.43764 0.0
H1061 H 0.57179 0.8635 0.56287 0.0
C1062 C 0.55757 0.88827 0.46618 0.0
C1063 C 0.5671 0.86868 0.47276 0.0
C1064 C 0.5725 0.85763 0.44444 0.0
C1065 C 0.55835 0.89003 0.52917 0.0
C1066 C 0.56342 0.88089 0.56422 0.0
C1067 C 0.56772 0.87034 0.53572 0.0
C1068 C 0.56475 0.88239 0.63059 0.0
C1069 C 0.5534 0.90135 0.55803 0.0
C1070 C 0.5769 0.89684 0.65701 0.0
C1071 C 0.57885 0.89796 0.71952 0.0
C1072 C 0.56869 0.88465 0.75677 0.0
C1073 C 0.5563 0.87028 0.73023 0.0
C1074 C 0.55443 0.86912 0.66751 0.0
H1075 H 0.54679 0.90505 0.52601 0.0
H1076 H 0.54549 0.89546 0.59793 0.0
H1077 H 0.56449 0.91254 0.57372 0.0
H1078 H 0.58507 0.90715 0.62916 0.0
H1079 H 0.58838 0.90924 0.73875 0.0
H1080 H 0.69592 0.60041 0.73021 0.0
H1081 H 0.69531 0.59625 0.62177 0.0
H1082 H 0.67108 0.54415 0.64907 0.0
H1083 H 0.67095 0.54816 0.75806 0.0
H1084 H 0.70894 0.58242 0.55432 0.0
H1085 H 0.64166 0.54789 0.52535 0.0
H1086 H 0.65126 0.55857 0.59413 0.0
H1087 H 0.64905 0.53888 0.57892 0.0
C1088 C 0.6902 0.58802 0.71349 0.0
C1089 C 0.68328 0.57461 0.75336 0.0
C1090 C 0.69 0.58568 0.65122 0.0
C1091 C 0.6829 0.56989 0.62702 0.0
C1092 C 0.67629 0.55645 0.66652 0.0
H1093 H 0.67434 0.53173 0.26596 0.0
H1094 H 0.67424 0.53603 0.37453 0.0
C1095 C 0.67641 0.55878 0.72902 0.0
C1096 C 0.68276 0.56764 0.56053 0.0
H1097 H 0.6576 0.54961 0.43981 0.0
C1098 C 0.6977 0.57531 0.52927 0.0
C1099 C 0.66809 0.55841 0.52775 0.0
C1100 C 0.65159 0.55059 0.55808 0.0
C1101 C 0.69839 0.57376 0.46644 0.0
C1102 C 0.68375 0.56443 0.43383 0.0
C1103 C 0.66881 0.55677 0.46496 0.0
C1104 C 0.68372 0.56205 0.36761 0.0
C1105 C 0.71482 0.5818 0.43554 0.0
C1106 C 0.68888 0.57524 0.32748 0.0
C1107 C 0.68899 0.57282 0.26511 0.0
C1108 C 0.68398 0.55717 0.24183 0.0
C1109 C 0.67858 0.54399 0.28232 0.0
C1110 C 0.67839 0.54639 0.34442 0.0
H1111 H 0.725 0.58568 0.46822 0.0
H1112 H 0.71549 0.5734 0.40214 0.0
H1113 H 0.71659 0.5928 0.411 0.0
H1114 H 0.69283 0.58739 0.34441 0.0
H1115 H 0.69325 0.58324 0.23529 0.0
H1116 H 0.14713 0.69702 0.28806 0.0
H1117 H 0.14245 0.69622 0.39642 0.0
H1118 H 0.09063 0.67384 0.36565 0.0
H1119 H 0.09516 0.67397 0.25678 0.0
H1120 H 0.12872 0.70986 0.46589 0.0
H1121 H 0.09277 0.6423 0.48451 0.0
H1122 H 0.1041 0.65255 0.41746 0.0
H1123 H 0.08455 0.65077 0.43201 0.0
C1124 C 0.1347 0.69177 0.30412 0.0
C1125 C 0.1215 0.68534 0.26346 0.0
C1126 C 0.13206 0.69144 0.36624 0.0
C1127 C 0.11617 0.68467 0.38937 0.0
C1128 C 0.10298 0.67878 0.34897 0.0
H1129 H 0.07775 0.67309 0.75275 0.0
H1130 H 0.08177 0.67365 0.64363 0.0
C1131 C 0.10561 0.67906 0.28663 0.0
C1132 C 0.11356 0.68383 0.45577 0.0
H1133 H 0.09483 0.65735 0.57281 0.0
C1134 C 0.12135 0.69838 0.48926 0.0
C1135 C 0.10399 0.66882 0.48634 0.0
C1136 C 0.09599 0.6527 0.45342 0.0
C1137 C 0.11964 0.69835 0.55226 0.0
C1138 C 0.11005 0.68336 0.5827 0.0
C1139 C 0.1022 0.66882 0.54931 0.0
C1140 C 0.10771 0.68257 0.64911 0.0
C1141 C 0.12787 0.71439 0.58568 0.0
C1142 C 0.12092 0.68708 0.68853 0.0
C1143 C 0.11866 0.68677 0.7511 0.0
C1144 C 0.10315 0.68199 0.77532 0.0
C1145 C 0.0899 0.6771 0.73559 0.0
C1146 C 0.09215 0.67732 0.67321 0.0
H1147 H 0.13186 0.72497 0.55474 0.0
H1148 H 0.11955 0.71478 0.62018 0.0
H1149 H 0.13882 0.71572 0.60923 0.0
H1150 H 0.133 0.69095 0.67085 0.0
H1151 H 0.12911 0.69068 0.78038 0.0
H1152 H 0.45548 0.15022 0.27323 0.0
H1153 H 0.45089 0.14588 0.38147 0.0
H1154 H 0.41556 0.09521 0.35033 0.0
H1155 H 0.4206 0.09932 0.24154 0.0
H1156 H 0.42358 0.13582 0.44969 0.0
H1157 H 0.44602 0.09184 0.4711 0.0
H1158 H 0.44913 0.1038 0.40381 0.0
H1159 H 0.42969 0.08586 0.41793 0.0
C1160 C 0.44684 0.13809 0.28918 0.0
C1161 C 0.43859 0.12506 0.24845 0.0
C1162 C 0.44414 0.13566 0.35124 0.0
C1163 C 0.43313 0.12016 0.37425 0.0
C1164 C 0.42441 0.10721 0.33375 0.0
H1165 H 0.40219 0.0841 0.73861 0.0
H1166 H 0.4059 0.08757 0.62941 0.0
C1167 C 0.42714 0.10963 0.27146 0.0
C1168 C 0.43089 0.1177 0.44063 0.0
H1169 H 0.43458 0.0965 0.55876 0.0
C1170 C 0.42602 0.12725 0.47353 0.0
C1171 C 0.43414 0.10655 0.47181 0.0
C1172 C 0.44018 0.09652 0.43955 0.0
C1173 C 0.42413 0.12582 0.53652 0.0
C1174 C 0.42737 0.11468 0.56759 0.0
C1175 C 0.43214 0.10505 0.53479 0.0
C1176 C 0.42557 0.11262 0.63409 0.0
C1177 C 0.41839 0.13603 0.56925 0.0
C1178 C 0.43562 0.12547 0.6731 0.0
C1179 C 0.43352 0.12352 0.73574 0.0
C1180 C 0.42129 0.1087 0.76045 0.0
C1181 C 0.41152 0.09576 0.72111 0.0
C1182 C 0.41369 0.09769 0.65866 0.0
H1183 H 0.41305 0.14128 0.5379 0.0
H1184 H 0.40912 0.12866 0.60397 0.0
H1185 H 0.42892 0.14627 0.59246 0.0
H1186 H 0.44503 0.13703 0.65507 0.0
H1187 H 0.44119 0.13373 0.76469 0.0
H1188 H 0.31772 0.40634 0.74423 0.0
H1189 H 0.31889 0.41039 0.63517 0.0
H1190 H 0.31027 0.45072 0.65947 0.0
H1191 H 0.30919 0.44678 0.76899 0.0
H1192 H 0.29539 0.40838 0.55935 0.0
H1193 H 0.34959 0.47055 0.54863 0.0
H1194 H 0.34416 0.45812 0.61578 0.0
H1195 H 0.33379 0.46915 0.59746 0.0
C1196 C 0.31606 0.41607 0.72647 0.0
C1197 C 0.31334 0.42623 0.76543 0.0
C1198 C 0.31679 0.4184 0.66404 0.0
C1199 C 0.31486 0.43097 0.63901 0.0
C1200 C 0.31217 0.44117 0.67772 0.0
H1201 H 0.30889 0.4618 0.27801 0.0
H1202 H 0.30793 0.45684 0.38626 0.0
C1203 C 0.31154 0.4389 0.74035 0.0
C1204 C 0.31515 0.43298 0.57237 0.0
H1205 H 0.3343 0.46032 0.45817 0.0
C1206 C 0.30396 0.41971 0.53719 0.0
C1207 C 0.32638 0.44774 0.5434 0.0
C1208 C 0.33927 0.46215 0.57814 0.0
C1209 C 0.30345 0.42092 0.4741 0.0
C1210 C 0.31453 0.43574 0.44533 0.0
C1211 C 0.32578 0.44897 0.48038 0.0
C1212 C 0.31442 0.43798 0.37904 0.0
C1213 C 0.29079 0.40648 0.43884 0.0
C1214 C 0.31831 0.42895 0.33877 0.0
C1215 C 0.31897 0.43184 0.27649 0.0
C1216 C 0.31586 0.44389 0.25345 0.0
C1217 C 0.31165 0.45264 0.29405 0.0
C1218 C 0.31101 0.44977 0.35606 0.0
H1219 H 0.28102 0.39731 0.46848 0.0
H1220 H 0.28511 0.41047 0.40393 0.0
H1221 H 0.29676 0.40044 0.41561 0.0
H1222 H 0.32122 0.41996 0.35561 0.0
H1223 H 0.32243 0.42502 0.24663 0.0
H1224 H 0.8613 0.31135 0.76223 0.0
H1225 H 0.86195 0.31529 0.6524 0.0
H1226 H 0.9024 0.30652 0.63797 0.0
H1227 H 0.9019 0.30271 0.74713 0.0
H1228 H 0.90564 0.33496 0.57191 0.0
H1229 H 0.84785 0.27705 0.5261 0.0
H1230 H 0.84709 0.29003 0.58383 0.0
H1231 H 0.85922 0.28053 0.59525 0.0
C1232 C 0.87038 0.31038 0.73559 0.0
C1233 C 0.88143 0.30655 0.7632 0.0
C1234 C 0.87067 0.31252 0.67295 0.0
C1235 C 0.88211 0.311 0.63714 0.0
C1236 C 0.89341 0.30762 0.66479 0.0
H1237 H 0.88144 0.29955 0.246 0.0
H1238 H 0.88415 0.29701 0.35516 0.0
C1239 C 0.89303 0.30534 0.72711 0.0
C1240 C 0.88232 0.31281 0.57072 0.0
H1241 H 0.86066 0.29456 0.44307 0.0
C1242 C 0.89582 0.32615 0.54365 0.0
C1243 C 0.8696 0.30114 0.53409 0.0
C1244 C 0.85514 0.28629 0.56095 0.0
C1245 C 0.89679 0.3283 0.48077 0.0
C1246 C 0.88388 0.31684 0.44421 0.0
C1247 C 0.87053 0.30333 0.47125 0.0
C1248 C 0.88364 0.31901 0.37805 0.0
C1249 C 0.91167 0.34275 0.45389 0.0
C1250 C 0.8826 0.33225 0.3549 0.0
C1251 C 0.88106 0.3337 0.29293 0.0
C1252 C 0.88048 0.32192 0.25273 0.0
C1253 C 0.88201 0.30889 0.2758 0.0
C1254 C 0.88345 0.30738 0.33807 0.0
H1255 H 0.92215 0.34791 0.48568 0.0
H1256 H 0.91541 0.33929 0.41141 0.0
H1257 H 0.90874 0.35246 0.44317 0.0
H1258 H 0.88252 0.34124 0.38495 0.0
H1259 H 0.88005 0.34394 0.27644 0.0
H1260 H 0.06569 0.41545 0.06775 0.0
H1261 H 0.03602 0.40006 0.06851 0.0
H1262 H 0.03661 0.36183 0.96439 0.0
H1263 H 0.06658 0.37708 0.9646 0.0
H1264 H 0.01575 0.39144 0.97487 0.0
H1265 H 0.00497 0.33595 0.09905 0.0
H1266 H 0.02471 0.35431 0.09627 0.0
H1267 H 0.01775 0.34034 0.03372 0.0
C1268 C 0.05959 0.40377 0.04488 0.0
C1269 C 0.06854 0.39751 0.01588 0.0
C1270 C 0.04258 0.39495 0.04565 0.0
C1271 C 0.03408 0.37968 0.01737 0.0
C1272 C 0.04293 0.37341 0.98781 0.0
H1273 H 0.93544 0.33576 0.89344 0.0
H1274 H 0.96468 0.34707 0.90708 0.0
C1275 C 0.06004 0.38221 0.98743 0.0
C1276 C 0.01598 0.37093 0.01624 0.0
H1277 H 0.98168 0.33505 0.05321 0.0
C1278 C 0.00833 0.37914 0.99233 0.0
C1279 C 0.00629 0.35498 0.03989 0.0
C1280 C 0.01382 0.34591 0.06925 0.0
C1281 C 0.9913 0.37176 0.99025 0.0
C1282 C 0.98161 0.35556 1.01136 0.0
C1283 C 0.98918 0.34742 0.03664 0.0
C1284 C 0.96365 0.34679 1.00453 0.0
C1285 C 0.9838 0.3814 0.96557 0.0
C1286 C 0.95328 0.34217 0.05503 0.0
C1287 C 0.9364 0.33554 0.0474 0.0
C1288 C 0.9298 0.33355 0.98916 0.0
C1289 C 0.94019 0.33742 0.93894 0.0
C1290 C 0.95691 0.34388 0.94656 0.0
H1291 H 0.99253 0.39476 0.967 0.0
H1292 H 0.98028 0.37793 0.91781 0.0
H1293 H 0.97266 0.3788 0.99126 0.0
H1294 H 0.95831 0.34426 0.10017 0.0
H1295 H 0.92866 0.33261 0.08684 0.0
H1296 H 0.59783 0.9273 0.06172 0.0
H1297 H 0.61549 0.95711 0.07154 0.0
H1298 H 0.583 0.96437 0.95588 0.0
H1299 H 0.5656 0.935 0.94549 0.0
H1300 H 0.61626 0.98121 0.91926 0.0
H1301 H 0.60824 0.99177 0.16108 0.0
H1302 H 0.61343 0.9763 0.14391 0.0
H1303 H 0.59389 0.97336 0.12199 0.0
C1304 C 0.59436 0.9353 0.03939 0.0
C1305 C 0.58042 0.92884 1.00249 0.0
C1306 C 0.60443 0.95229 0.04499 0.0
C1307 C 0.60054 0.96291 0.01428 0.0
C1308 C 0.58628 0.95639 0.97961 0.0
H1309 H 0.62941 0.06208 0.94045 0.0
H1310 H 0.61802 0.03248 0.94234 0.0
C1311 C 0.57634 0.93957 0.97377 0.0
C1312 C 0.61155 0.98084 0.0145 0.0
H1313 H 0.62456 0.01491 0.10143 0.0
C1314 C 0.61823 0.98859 0.95923 0.0
C1315 C 0.61415 0.99039 0.06675 0.0
C1316 C 0.60702 0.98263 0.1269 0.0
C1317 C 0.62701 0.00565 0.95436 0.0
C1318 C 0.62895 0.01522 1.00597 0.0
C1319 C 0.62294 0.00751 0.06187 0.0
C1320 C 0.63644 0.0332 1.00225 0.0
C1321 C 0.63397 0.0133 0.89386 0.0
C1322 C 0.65051 0.04339 0.0355 0.0
C1323 C 0.65706 0.06031 0.0345 0.0
C1324 C 0.64953 0.06735 1.00071 0.0
C1325 C 0.63556 0.05709 0.96669 0.0
C1326 C 0.62906 0.04017 0.96758 0.0
H1327 H 0.63548 0.00475 0.86382 0.0
H1328 H 0.62548 0.01656 0.87147 0.0
H1329 H 0.64598 0.02462 0.89903 0.0
H1330 H 0.65635 0.03824 0.06266 0.0
H1331 H 0.66781 0.06782 0.06135 0.0
H1332 H 0.62805 0.5627 0.10433 0.0
H1333 H 0.61322 0.57762 0.09269 0.0
H1334 H 0.65582 0.61794 1.01198 0.0
H1335 H 0.67071 0.60317 0.02316 0.0
H1336 H 0.61998 0.60912 0.13255 0.0
H1337 H 0.61979 0.60458 0.88281 0.0
H1338 H 0.62469 0.59233 0.93159 0.0
H1339 H 0.63967 0.61326 0.91654 0.0
C1340 C 0.63435 0.57484 0.08494 0.0
C1341 C 0.65051 0.58166 0.06403 0.0
C1342 C 0.62583 0.58332 0.07814 0.0
C1343 C 0.63332 0.5987 0.05021 0.0
C1344 C 0.64971 0.60591 0.03238 0.0
H1345 H 0.60162 0.66998 0.0383 0.0
H1346 H 0.61652 0.65527 0.05096 0.0
C1347 C 0.65822 0.59747 0.03912 0.0
C1348 C 0.62392 0.60707 0.03811 0.0
H1349 H 0.61043 0.62163 0.92408 0.0
C1350 C 0.61784 0.61182 0.08703 0.0
C1351 C 0.62093 0.61033 0.97857 0.0
C1352 C 0.62647 0.60474 0.92426 0.0
C1353 C 0.60919 0.62015 0.07801 0.0
C1354 C 0.60678 0.62398 0.01855 0.0
C1355 C 0.61248 0.61885 0.96959 0.0
C1356 C 0.59832 0.6333 1.00646 0.0
C1357 C 0.60257 0.62464 0.13217 0.0
C1358 C 0.58351 0.62609 0.9747 0.0
C1359 C 0.57496 0.63451 0.96698 0.0
C1360 C 0.58115 0.65031 0.99074 0.0
C1361 C 0.59641 0.65778 0.01988 0.0
C1362 C 0.60492 0.64936 0.02754 0.0
H1363 H 0.60186 0.61734 0.17254 0.0
H1364 H 0.61079 0.63773 0.14299 0.0
H1365 H 0.59023 0.6228 0.1228 0.0
H1366 H 0.5783 0.61375 0.9576 0.0
H1367 H 0.56327 0.62841 0.94428 0.0
H1368 H 0.06284 0.67226 0.03801 0.0
H1369 H 0.03316 0.65893 0.03209 0.0
H1370 H 0.02883 0.61825 0.135 0.0
H1371 H 0.05865 0.6315 0.14124 0.0
H1372 H 0.0136 0.62742 0.97798 0.0
H1373 H 0.99573 0.62931 0.21571 0.0
H1374 H 0.01613 0.64271 0.18765 0.0
H1375 H 0.0096 0.62173 0.20394 0.0
C1376 C 0.05563 0.66058 0.06017 0.0
C1377 C 0.06316 0.65291 0.08984 0.0
C1378 C 0.03865 0.65298 0.05668 0.0
C1379 C 0.02881 0.63765 0.08324 0.0
C1380 C 0.03621 0.63019 0.11484 0.0
H1381 H 0.92372 0.57151 0.08175 0.0
H1382 H 0.95318 0.58453 0.09779 0.0
C1383 C 0.05326 0.63778 0.11826 0.0
C1384 C 0.01091 0.62902 0.07376 0.0
H1385 H 0.97436 0.61461 0.14613 0.0
C1386 C 0.005 0.62464 0.01469 0.0
C1387 C -0.00023 0.62531 0.12183 0.0
C1388 C 0.00555 0.63008 0.1859 0.0
C1389 C 0.9882 0.61654 1.00232 0.0
C1390 C 0.97704 0.61309 0.05022 0.0
C1391 C 0.98295 0.61732 0.10945 0.0
C1392 C 0.95918 0.60518 0.03972 0.0
C1393 C 0.98258 0.61149 0.93822 0.0
C1394 C 0.95274 0.61252 1.00205 0.0
C1395 C 0.9359 0.60506 0.99244 0.0
C1396 C 0.92515 0.59019 0.0209 0.0
C1397 C 0.93164 0.58294 0.05901 0.0
C1398 C 0.94848 0.59038 0.06837 0.0
H1399 H 0.99203 0.61076 0.91073 0.0
H1400 H 0.97116 0.59946 0.93675 0.0
H1401 H 0.98014 0.62069 0.91704 0.0
H1402 H 0.96074 0.62412 0.98052 0.0
H1403 H 0.93132 0.61105 0.96327 0.0
H1404 H 0.35612 0.93436 0.15635 0.0
H1405 H 0.36798 0.96372 0.14735 0.0
H1406 H 0.33807 0.95713 0.99142 0.0
H1407 H 0.32612 0.92732 0.99959 0.0
H1408 H 0.37085 0.98217 0.97857 0.0
H1409 H 0.3451 0.98899 0.19352 0.0
H1410 H 0.35587 0.97801 0.20308 0.0
H1411 H 0.33775 0.96945 0.15719 0.0
C1412 C 0.35198 0.93905 0.12003 0.0
C1413 C 0.34002 0.92846 0.07901 0.0
C1414 C 0.35873 0.95589 0.11523 0.0
C1415 C 0.35359 0.96259 0.06979 0.0
C1416 C 0.34204 0.95215 0.02734 0.0
H1417 H 0.39217 0.06719 1.00455 0.0
H1418 H 0.37451 0.03753 1.00292 0.0
C1419 C 0.33526 0.93517 0.03197 0.0
C1420 C 0.36068 0.98054 0.06692 0.0
H1421 H 0.36808 0.01337 0.15388 0.0
C1422 C 0.37001 0.98901 0.01633 0.0
C1423 C 0.35952 0.98941 0.11627 0.0
C1424 C 0.34888 0.98098 0.1703 0.0
C1425 C 0.37893 0.00616 0.01525 0.0
C1426 C 0.37839 0.01497 0.06589 0.0
C1427 C 0.36857 0.00653 0.11542 0.0
C1428 C 0.38851 0.03296 0.06923 0.0
C1429 C 0.38944 0.01478 0.96117 0.0
C1430 C 0.40195 0.04019 0.10835 0.0
C1431 C 0.4121 0.05715 0.10944 0.0
C1432 C 0.40889 0.06717 0.07173 0.0
C1433 C 0.39503 0.05987 0.03418 0.0
C1434 C 0.38496 0.04291 0.03288 0.0
H1435 H 0.39022 0.00615 0.92918 0.0
H1436 H 0.38422 0.02139 0.9369 0.0
H1437 H 0.40197 0.02394 0.97575 0.0
H1438 H 0.4048 0.03266 0.13698 0.0
H1439 H 0.42264 0.06237 0.13895 0.0
H1440 H 0.33067 0.40141 0.98819 0.0
H1441 H 0.34432 0.38558 0.97619 0.0
H1442 H 0.37367 0.40877 0.13356 0.0
H1443 H 0.36043 0.42526 0.14449 0.0
H1444 H 0.39216 0.40892 0.04502 0.0
H1445 H 0.33924 0.34642 0.06227 0.0
H1446 H 0.33621 0.35786 1.00434 0.0
H1447 H 0.33789 0.36422 0.08189 0.0
C1448 C 0.33982 0.40297 0.02102 0.0
C1449 C 0.34441 0.41457 0.06756 0.0
C1450 C 0.34758 0.39381 0.0142 0.0
C1451 C 0.35983 0.39572 0.05456 0.0
C1452 C 0.36419 0.40702 0.10197 0.0
H1453 H 0.40056 0.33166 0.06767 0.0
H1454 H 0.38498 0.34549 0.08243 0.0
C1455 C 0.35658 0.4164 0.10833 0.0
C1456 C 0.36882 0.38674 0.04471 0.0
H1457 H 0.36358 0.3488 0.01906 0.0
C1458 C 0.38591 0.39575 0.03991 0.0
C1459 C 0.36071 0.36954 0.03861 0.0
C1460 C 0.34252 0.35895 0.0477 0.0
C1461 C 0.3951 0.3881 0.02843 0.0
C1462 C 0.38693 0.37099 0.01929 0.0
C1463 C 0.36985 0.36195 0.02494 0.0
C1464 C 0.39589 0.36209 1.00719 0.0
C1465 C 0.41349 0.39842 0.02784 0.0
C1466 C 0.40694 0.36646 0.95881 0.0
C1467 C 0.4161 0.35868 0.95067 0.0
C1468 C 0.41411 0.34614 0.98997 0.0
C1469 C 0.40242 0.34124 0.03638 0.0
C1470 C 0.39348 0.34917 0.04501 0.0
H1471 H 0.41778 0.41008 0.05262 0.0
H1472 H 0.41924 0.39181 0.04839 0.0
H1473 H 0.4178 0.40149 0.98053 0.0
H1474 H 0.40864 0.37604 0.92783 0.0
H1475 H 0.4249 0.36264 0.9142 0.0
loop_
_geom_bond_atom_site_label_1
_geom_bond_atom_site_label_2
_geom_bond_distance
_geom_bond_site_symmetry_2
_ccdc_geom_bond_type
Co0 N4 2.148 . S
Co0 N10 2.128 1_554 S
Co0 N20 2.194 . S
Co0 O25 2.351 . S
Co0 O26 2.155 . S
Co0 O27 2.096 . S
C1 N4 1.301 . S
C1 N5 1.328 . S
C1 H6 0.930 . S
C2 C3 1.333 . S
C2 N4 1.317 . S
C2 H7 0.930 . S
C3 C2 1.333 . S
C3 N5 1.350 . S
C3 H29 0.931 . S
N4 Co0 2.148 . S
N4 C1 1.301 . S
N4 C2 1.317 . S
N5 C1 1.328 . S
N5 C3 1.350 . S
H6 C1 0.930 . S
H7 C2 0.930 . S
C8 O9 1.224 . S
C8 O27 1.247 . S
O9 C8 1.224 . S
N10 Co0 2.128 1_556 S
N10 C11 1.355 . S
N10 C13 1.311 . S
C11 N10 1.355 . S
C11 C12 1.363 . S
C11 H23 0.929 . S
C12 C11 1.363 . S
C12 N14 1.375 . S
C12 H30 0.931 . S
C13 N10 1.311 . S
C13 N14 1.347 . S
C13 H24 0.929 . S
N14 C12 1.375 . S
N14 C13 1.347 . S
C15 C18 1.365 . S
C15 N20 1.328 . S
C15 H21 0.929 . S
C16 C17 1.362 . S
C16 C19 1.378 . S
C16 H31 0.929 . S
C17 C16 1.362 . S
C17 C18 1.366 . S
C18 C15 1.365 . S
C18 C17 1.366 . S
C18 H32 0.930 . S
C19 C16 1.378 . S
C19 N20 1.315 . S
C19 H22 0.930 . S
N20 Co0 2.194 . S
N20 C15 1.328 . S
N20 C19 1.315 . S
H21 C15 0.929 . S
H22 C19 0.930 . S
H23 C11 0.929 . S
H24 C13 0.929 . S
O25 Co0 2.351 . S
O25 C28 1.244 . S
O26 Co0 2.155 . S
O26 C28 1.240 . S
O27 Co0 2.096 . S
O27 C8 1.247 . S
C28 O25 1.244 . S
C28 O26 1.240 . S
H29 C3 0.931 . S
H30 C12 0.931 . S
H31 C16 0.929 . S
H32 C18 0.930 . S
Co33 N37 2.148 . S
Co33 N43 2.128 1_554 S
Co33 N53 2.194 . S
Co33 O58 2.351 . S
Co33 O59 2.155 . S
Co33 O60 2.096 . S
C34 N37 1.301 . S
C34 N38 1.328 . S
C34 H39 0.930 . S
C35 C36 1.333 . S
C35 N37 1.317 . S
C35 H40 0.930 . S
C36 C35 1.333 . S
C36 N38 1.350 . S
C36 H62 0.931 . S
N37 Co33 2.148 . S
N37 C34 1.301 . S
N37 C35 1.317 . S
N38 C34 1.328 . S
N38 C36 1.350 . S
H39 C34 0.930 . S
H40 C35 0.930 . S
C41 O42 1.224 . S
C41 O60 1.247 . S
O42 C41 1.224 . S
N43 Co33 2.128 1_556 S
N43 C44 1.355 . S
N43 C46 1.311 . S
C44 N43 1.355 . S
C44 C45 1.363 . S
C44 H56 0.929 . S
C45 C44 1.363 . S
C45 N47 1.375 . S
C45 H63 0.931 . S
C46 N43 1.311 . S
C46 N47 1.347 . S
C46 H57 0.929 . S
N47 C45 1.375 . S
N47 C46 1.347 . S
C48 C51 1.365 . S
C48 N53 1.328 . S
C48 H54 0.929 . S
C49 C50 1.362 . S
C49 C52 1.378 . S
C49 H64 0.929 . S
C50 C49 1.362 . S
C50 C51 1.366 . S
C51 C48 1.365 . S
C51 C50 1.366 . S
C51 H65 0.930 . S
C52 C49 1.378 . S
C52 N53 1.315 . S
C52 H55 0.930 . S
N53 Co33 2.194 . S
N53 C48 1.328 . S
N53 C52 1.315 . S
H54 C48 0.929 . S
H55 C52 0.930 . S
H56 C44 0.929 . S
H57 C46 0.929 . S
O58 Co33 2.351 . S
O58 C61 1.244 . S
O59 Co33 2.155 . S
O59 C61 1.240 . S
O60 Co33 2.096 . S
O60 C41 1.247 . S
C61 O58 1.244 . S
C61 O59 1.240 . S
H62 C36 0.931 . S
H63 C45 0.931 . S
H64 C49 0.929 . S
H65 C51 0.930 . S
Co66 N70 2.148 . S
Co66 N76 2.128 1_554 S
Co66 N86 2.194 . S
Co66 O91 2.351 . S
Co66 O92 2.155 . S
Co66 O93 2.096 . S
C67 N70 1.301 . S
C67 N71 1.328 . S
C67 H72 0.930 . S
C68 C69 1.333 . S
C68 N70 1.317 . S
C68 H73 0.930 . S
C69 C68 1.333 . S
C69 N71 1.350 . S
C69 H95 0.931 . S
N70 Co66 2.148 . S
N70 C67 1.301 . S
N70 C68 1.317 . S
N71 C67 1.328 . S
N71 C69 1.350 . S
H72 C67 0.930 . S
H73 C68 0.930 . S
C74 O75 1.224 . S
C74 O93 1.247 . S
O75 C74 1.224 . S
N76 Co66 2.128 1_556 S
N76 C77 1.355 . S
N76 C79 1.311 . S
C77 N76 1.355 . S
C77 C78 1.363 . S
C77 H89 0.929 . S
C78 C77 1.363 . S
C78 N80 1.375 . S
C78 H96 0.931 . S
C79 N76 1.311 . S
C79 N80 1.347 . S
C79 H90 0.929 . S
N80 C78 1.375 . S
N80 C79 1.347 . S
C81 C84 1.365 . S
C81 N86 1.328 . S
C81 H87 0.929 . S
C82 C83 1.362 . S
C82 C85 1.378 . S
C82 H97 0.929 . S
C83 C82 1.362 . S
C83 C84 1.366 . S
C84 C81 1.365 . S
C84 C83 1.366 . S
C84 H98 0.930 . S
C85 C82 1.378 . S
C85 N86 1.315 . S
C85 H88 0.930 . S
N86 Co66 2.194 . S
N86 C81 1.328 . S
N86 C85 1.315 . S
H87 C81 0.929 . S
H88 C85 0.930 . S
H89 C77 0.929 . S
H90 C79 0.929 . S
O91 Co66 2.351 . S
O91 C94 1.244 . S
O92 Co66 2.155 . S
O92 C94 1.240 . S
O93 Co66 2.096 . S
O93 C74 1.247 . S
C94 O91 1.244 . S
C94 O92 1.240 . S
H95 C69 0.931 . S
H96 C78 0.931 . S
H97 C82 0.929 . S
H98 C84 0.930 . S
Co99 N103 2.148 . S
Co99 N109 2.128 1_554 S
Co99 N119 2.194 . S
Co99 O124 2.351 . S
Co99 O125 2.155 . S
Co99 O126 2.096 . S
C100 N103 1.301 . S
C100 N104 1.328 . S
C100 H105 0.930 . S
C101 C102 1.333 . S
C101 N103 1.317 . S
C101 H106 0.930 . S
C102 C101 1.333 . S
C102 N104 1.350 . S
C102 H128 0.931 . S
N103 Co99 2.148 . S
N103 C100 1.301 . S
N103 C101 1.317 . S
N104 C100 1.328 . S
N104 C102 1.350 . S
H105 C100 0.930 . S
H106 C101 0.930 . S
C107 O108 1.224 . S
C107 O126 1.247 . S
O108 C107 1.224 . S
N109 Co99 2.128 1_556 S
N109 C110 1.355 . S
N109 C112 1.311 . S
C110 N109 1.355 . S
C110 C111 1.363 . S
C110 H122 0.929 . S
C111 C110 1.363 . S
C111 N113 1.375 . S
C111 H129 0.931 . S
C112 N109 1.311 . S
C112 N113 1.347 . S
C112 H123 0.929 . S
N113 C111 1.375 . S
N113 C112 1.347 . S
C114 C117 1.365 . S
C114 N119 1.328 . S
C114 H120 0.929 . S
C115 C116 1.362 . S
C115 C118 1.378 . S
C115 H130 0.929 . S
C116 C115 1.362 . S
C116 C117 1.366 . S
C117 C114 1.365 . S
C117 C116 1.366 . S
C117 H131 0.930 . S
C118 C115 1.378 . S
C118 N119 1.315 . S
C118 H121 0.930 . S
N119 Co99 2.194 . S
N119 C114 1.328 . S
N119 C118 1.315 . S
H120 C114 0.929 . S
H121 C118 0.930 . S
H122 C110 0.929 . S
H123 C112 0.929 . S
O124 Co99 2.351 . S
O124 C127 1.244 . S
O125 Co99 2.155 . S
O125 C127 1.240 . S
O126 Co99 2.096 . S
O126 C107 1.247 . S
C127 O124 1.244 . S
C127 O125 1.240 . S
H128 C102 0.931 . S
H129 C111 0.931 . S
H130 C115 0.929 . S
H131 C117 0.930 . S
Co132 N136 2.148 . S
Co132 N142 2.128 1_554 S
Co132 N152 2.194 . S
Co132 O157 2.351 . S
Co132 O158 2.155 . S
Co132 O159 2.096 . S
C133 N136 1.301 . S
C133 N137 1.328 . S
C133 H138 0.930 . S
C134 C135 1.333 . S
C134 N136 1.317 . S
C134 H139 0.930 . S
C135 C134 1.333 . S
C135 N137 1.350 . S
C135 H161 0.931 . S
N136 Co132 2.148 . S
N136 C133 1.301 . S
N136 C134 1.317 . S
N137 C133 1.328 . S
N137 C135 1.350 . S
H138 C133 0.930 . S
H139 C134 0.930 . S
C140 O141 1.224 . S
C140 O159 1.247 . S
O141 C140 1.224 . S
N142 Co132 2.128 1_556 S
N142 C143 1.355 . S
N142 C145 1.311 . S
C143 N142 1.355 . S
C143 C144 1.363 . S
C143 H155 0.929 . S
C144 C143 1.363 . S
C144 N146 1.375 . S
C144 H162 0.931 . S
C145 N142 1.311 . S
C145 N146 1.347 . S
C145 H156 0.929 . S
N146 C144 1.375 . S
N146 C145 1.347 . S
C147 C150 1.365 . S
C147 N152 1.328 . S
C147 H153 0.929 . S
C148 C149 1.362 . S
C148 C151 1.378 . S
C148 H163 0.929 . S
C149 C148 1.362 . S
C149 C150 1.366 . S
C150 C147 1.365 . S
C150 C149 1.366 . S
C150 H164 0.930 . S
C151 C148 1.378 . S
C151 N152 1.315 . S
C151 H154 0.930 . S
N152 Co132 2.194 . S
N152 C147 1.328 . S
N152 C151 1.315 . S
H153 C147 0.929 . S
H154 C151 0.930 . S
H155 C143 0.929 . S
H156 C145 0.929 . S
O157 Co132 2.351 . S
O157 C160 1.244 . S
O158 Co132 2.155 . S
O158 C160 1.240 . S
O159 Co132 2.096 . S
O159 C140 1.247 . S
C160 O157 1.244 . S
C160 O158 1.240 . S
H161 C135 0.931 . S
H162 C144 0.931 . S
H163 C148 0.929 . S
H164 C150 0.930 . S
Co165 N169 2.148 . S
Co165 N175 2.128 1_554 S
Co165 N185 2.194 . S
Co165 O190 2.351 . S
Co165 O191 2.155 . S
Co165 O192 2.096 . S
C166 N169 1.301 . S
C166 N170 1.328 . S
C166 H171 0.930 . S
C167 C168 1.333 . S
C167 N169 1.317 . S
C167 H172 0.930 . S
C168 C167 1.333 . S
C168 N170 1.350 . S
C168 H194 0.931 . S
N169 Co165 2.148 . S
N169 C166 1.301 . S
N169 C167 1.317 . S
N170 C166 1.328 . S
N170 C168 1.350 . S
H171 C166 0.930 . S
H172 C167 0.930 . S
C173 O174 1.224 . S
C173 O192 1.247 . S
O174 C173 1.224 . S
N175 Co165 2.128 1_556 S
N175 C176 1.355 . S
N175 C178 1.311 . S
C176 N175 1.355 . S
C176 C177 1.363 . S
C176 H188 0.929 . S
C177 C176 1.363 . S
C177 N179 1.375 . S
C177 H195 0.931 . S
C178 N175 1.311 . S
C178 N179 1.347 . S
C178 H189 0.929 . S
N179 C177 1.375 . S
N179 C178 1.347 . S
C180 C183 1.365 . S
C180 N185 1.328 . S
C180 H186 0.929 . S
C181 C182 1.362 . S
C181 C184 1.378 . S
C181 H196 0.929 . S
C182 C181 1.362 . S
C182 C183 1.366 . S
C183 C180 1.365 . S
C183 C182 1.366 . S
C183 H197 0.930 . S
C184 C181 1.378 . S
C184 N185 1.315 . S
C184 H187 0.930 . S
N185 Co165 2.194 . S
N185 C180 1.328 . S
N185 C184 1.315 . S
H186 C180 0.929 . S
H187 C184 0.930 . S
H188 C176 0.929 . S
H189 C178 0.929 . S
O190 Co165 2.351 . S
O190 C193 1.244 . S
O191 Co165 2.155 . S
O191 C193 1.240 . S
O192 Co165 2.096 . S
O192 C173 1.247 . S
C193 O190 1.244 . S
C193 O191 1.240 . S
H194 C168 0.931 . S
H195 C177 0.931 . S
H196 C181 0.929 . S
H197 C183 0.930 . S
Co198 N202 2.148 1_554 S
Co198 N208 2.128 . S
Co198 N218 2.194 . S
Co198 O223 2.351 . S
Co198 O224 2.155 . S
Co198 O225 2.096 . S
C199 N202 1.301 . S
C199 N203 1.328 . S
C199 H204 0.930 . S
C200 C201 1.333 . S
C200 N202 1.317 . S
C200 H205 0.930 . S
C201 C200 1.333 . S
C201 N203 1.350 . S
C201 H227 0.931 . S
N202 Co198 2.148 1_556 S
N202 C199 1.301 . S
N202 C200 1.317 . S
N203 C199 1.328 . S
N203 C201 1.350 . S
H204 C199 0.930 . S
H205 C200 0.930 . S
C206 O207 1.224 . S
C206 O225 1.247 . S
O207 C206 1.224 . S
N208 Co198 2.128 . S
N208 C209 1.355 . S
N208 C211 1.311 . S
C209 N208 1.355 . S
C209 C210 1.363 . S
C209 H221 0.929 . S
C210 C209 1.363 . S
C210 N212 1.375 . S
C210 H228 0.931 . S
C211 N208 1.311 . S
C211 N212 1.347 . S
C211 H222 0.929 . S
N212 C210 1.375 . S
N212 C211 1.347 . S
C213 C216 1.365 . S
C213 N218 1.328 1_556 S
C213 H219 0.929 . S
C214 C215 1.362 . S
C214 C217 1.378 . S
C214 H229 0.929 . S
C215 C214 1.362 . S
C215 C216 1.366 1_554 S
C216 C213 1.365 . S
C216 C215 1.366 1_556 S
C216 H230 0.930 . S
C217 C214 1.378 . S
C217 N218 1.315 . S
C217 H220 0.930 . S
N218 Co198 2.194 . S
N218 C213 1.328 1_554 S
N218 C217 1.315 . S
H219 C213 0.929 . S
H220 C217 0.930 . S
H221 C209 0.929 . S
H222 C211 0.929 . S
O223 Co198 2.351 . S
O223 C226 1.244 . S
O224 Co198 2.155 . S
O224 C226 1.240 . S
O225 Co198 2.096 . S
O225 C206 1.247 . S
C226 O223 1.244 . S
C226 O224 1.240 . S
H227 C201 0.931 . S
H228 C210 0.931 . S
H229 C214 0.929 . S
H230 C216 0.930 . S
Co231 N235 2.148 1_554 S
Co231 N241 2.128 . S
Co231 N251 2.194 . S
Co231 O256 2.351 . S
Co231 O257 2.155 . S
Co231 O258 2.096 . S
C232 N235 1.301 . S
C232 N236 1.328 . S
C232 H237 0.930 . S
C233 C234 1.333 . S
C233 N235 1.317 . S
C233 H238 0.930 . S
C234 C233 1.333 . S
C234 N236 1.350 . S
C234 H260 0.931 . S
N235 Co231 2.148 1_556 S
N235 C232 1.301 . S
N235 C233 1.317 . S
N236 C232 1.328 . S
N236 C234 1.350 . S
H237 C232 0.930 . S
H238 C233 0.930 . S
C239 O240 1.224 . S
C239 O258 1.247 . S
O240 C239 1.224 . S
N241 Co231 2.128 . S
N241 C242 1.355 . S
N241 C244 1.311 . S
C242 N241 1.355 . S
C242 C243 1.363 . S
C242 H254 0.929 . S
C243 C242 1.363 . S
C243 N245 1.375 . S
C243 H261 0.931 . S
C244 N241 1.311 . S
C244 N245 1.347 . S
C244 H255 0.929 . S
N245 C243 1.375 . S
N245 C244 1.347 . S
C246 C249 1.365 . S
C246 N251 1.328 1_556 S
C246 H252 0.929 . S
C247 C248 1.362 . S
C247 C250 1.378 . S
C247 H262 0.929 . S
C248 C247 1.362 . S
C248 C249 1.366 1_554 S
C249 C246 1.365 . S
C249 C248 1.366 1_556 S
C249 H263 0.930 . S
C250 C247 1.378 . S
C250 N251 1.315 . S
C250 H253 0.930 . S
N251 Co231 2.194 . S
N251 C246 1.328 1_554 S
N251 C250 1.315 . S
H252 C246 0.929 . S
H253 C250 0.930 . S
H254 C242 0.929 . S
H255 C244 0.929 . S
O256 Co231 2.351 . S
O256 C259 1.244 . S
O257 Co231 2.155 . S
O257 C259 1.240 . S
O258 Co231 2.096 . S
O258 C239 1.247 . S
C259 O256 1.244 . S
C259 O257 1.240 . S
H260 C234 0.931 . S
H261 C243 0.931 . S
H262 C247 0.929 . S
H263 C249 0.930 . S
Co264 N268 2.148 1_554 S
Co264 N274 2.128 . S
Co264 N284 2.194 . S
Co264 O289 2.351 . S
Co264 O290 2.155 . S
Co264 O291 2.096 . S
C265 N268 1.301 . S
C265 N269 1.328 . S
C265 H270 0.930 . S
C266 C267 1.333 . S
C266 N268 1.317 . S
C266 H271 0.930 . S
C267 C266 1.333 . S
C267 N269 1.350 . S
C267 H293 0.931 . S
N268 Co264 2.148 1_556 S
N268 C265 1.301 . S
N268 C266 1.317 . S
N269 C265 1.328 . S
N269 C267 1.350 . S
H270 C265 0.930 . S
H271 C266 0.930 . S
C272 O273 1.224 . S
C272 O291 1.247 . S
O273 C272 1.224 . S
N274 Co264 2.128 . S
N274 C275 1.355 . S
N274 C277 1.311 . S
C275 N274 1.355 . S
C275 C276 1.363 . S
C275 H287 0.929 . S
C276 C275 1.363 . S
C276 N278 1.375 . S
C276 H294 0.931 . S
C277 N274 1.311 . S
C277 N278 1.347 . S
C277 H288 0.929 . S
N278 C276 1.375 . S
N278 C277 1.347 . S
C279 C282 1.365 . S
C279 N284 1.328 1_556 S
C279 H285 0.929 . S
C280 C281 1.362 . S
C280 C283 1.378 . S
C280 H295 0.929 . S
C281 C280 1.362 . S
C281 C282 1.366 1_554 S
C282 C279 1.365 . S
C282 C281 1.366 1_556 S
C282 H296 0.930 . S
C283 C280 1.378 . S
C283 N284 1.315 . S
C283 H286 0.930 . S
N284 Co264 2.194 . S
N284 C279 1.328 1_554 S
N284 C283 1.315 . S
H285 C279 0.929 . S
H286 C283 0.930 . S
H287 C275 0.929 . S
H288 C277 0.929 . S
O289 Co264 2.351 . S
O289 C292 1.244 . S
O290 Co264 2.155 . S
O290 C292 1.240 . S
O291 Co264 2.096 . S
O291 C272 1.247 . S
C292 O289 1.244 . S
C292 O290 1.240 . S
H293 C267 0.931 . S
H294 C276 0.931 . S
H295 C280 0.929 . S
H296 C282 0.930 . S
Co297 N301 2.148 1_554 S
Co297 N307 2.128 . S
Co297 N317 2.194 . S
Co297 O322 2.351 . S
Co297 O323 2.155 . S
Co297 O324 2.096 . S
C298 N301 1.301 . S
C298 N302 1.328 . S
C298 H303 0.930 . S
C299 C300 1.333 . S
C299 N301 1.317 . S
C299 H304 0.930 . S
C300 C299 1.333 . S
C300 N302 1.350 . S
C300 H326 0.931 . S
N301 Co297 2.148 1_556 S
N301 C298 1.301 . S
N301 C299 1.317 . S
N302 C298 1.328 . S
N302 C300 1.350 . S
H303 C298 0.930 . S
H304 C299 0.930 . S
C305 O306 1.224 . S
C305 O324 1.247 . S
O306 C305 1.224 . S
N307 Co297 2.128 . S
N307 C308 1.355 . S
N307 C310 1.311 . S
C308 N307 1.355 . S
C308 C309 1.363 . S
C308 H320 0.929 . S
C309 C308 1.363 . S
C309 N311 1.375 . S
C309 H327 0.931 . S
C310 N307 1.311 . S
C310 N311 1.347 . S
C310 H321 0.929 . S
N311 C309 1.375 . S
N311 C310 1.347 . S
C312 C315 1.365 . S
C312 N317 1.328 1_556 S
C312 H318 0.929 . S
C313 C314 1.362 . S
C313 C316 1.378 . S
C313 H328 0.929 . S
C314 C313 1.362 . S
C314 C315 1.366 1_554 S
C315 C312 1.365 . S
C315 C314 1.366 1_556 S
C315 H329 0.930 . S
C316 C313 1.378 . S
C316 N317 1.315 . S
C316 H319 0.930 . S
N317 Co297 2.194 . S
N317 C312 1.328 1_554 S
N317 C316 1.315 . S
H318 C312 0.929 . S
H319 C316 0.930 . S
H320 C308 0.929 . S
H321 C310 0.929 . S
O322 Co297 2.351 . S
O322 C325 1.244 . S
O323 Co297 2.155 . S
O323 C325 1.240 . S
O324 Co297 2.096 . S
O324 C305 1.247 . S
C325 O322 1.244 . S
C325 O323 1.240 . S
H326 C300 0.931 . S
H327 C309 0.931 . S
H328 C313 0.929 . S
H329 C315 0.930 . S
Co330 N334 2.148 1_554 S
Co330 N340 2.128 . S
Co330 N350 2.194 . S
Co330 O355 2.351 . S
Co330 O356 2.155 . S
Co330 O357 2.096 . S
C331 N334 1.301 . S
C331 N335 1.328 . S
C331 H336 0.930 . S
C332 C333 1.333 . S
C332 N334 1.317 . S
C332 H337 0.930 . S
C333 C332 1.333 . S
C333 N335 1.350 . S
C333 H359 0.931 . S
N334 Co330 2.148 1_556 S
N334 C331 1.301 . S
N334 C332 1.317 . S
N335 C331 1.328 . S
N335 C333 1.350 . S
H336 C331 0.930 . S
H337 C332 0.930 . S
C338 O339 1.224 . S
C338 O357 1.247 . S
O339 C338 1.224 . S
N340 Co330 2.128 . S
N340 C341 1.355 . S
N340 C343 1.311 . S
C341 N340 1.355 . S
C341 C342 1.363 . S
C341 H353 0.929 . S
C342 C341 1.363 . S
C342 N344 1.375 . S
C342 H360 0.931 . S
C343 N340 1.311 . S
C343 N344 1.347 . S
C343 H354 0.929 . S
N344 C342 1.375 . S
N344 C343 1.347 . S
C345 C348 1.365 . S
C345 N350 1.328 1_556 S
C345 H351 0.929 . S
C346 C347 1.362 . S
C346 C349 1.378 . S
C346 H361 0.929 . S
C347 C346 1.362 . S
C347 C348 1.366 1_554 S
C348 C345 1.365 . S
C348 C347 1.366 1_556 S
C348 H362 0.930 . S
C349 C346 1.378 . S
C349 N350 1.315 . S
C349 H352 0.930 . S
N350 Co330 2.194 . S
N350 C345 1.328 1_554 S
N350 C349 1.315 . S
H351 C345 0.929 . S
H352 C349 0.930 . S
H353 C341 0.929 . S
H354 C343 0.929 . S
O355 Co330 2.351 . S
O355 C358 1.244 . S
O356 Co330 2.155 . S
O356 C358 1.240 . S
O357 Co330 2.096 . S
O357 C338 1.247 . S
C358 O355 1.244 . S
C358 O356 1.240 . S
H359 C333 0.931 . S
H360 C342 0.931 . S
H361 C346 0.929 . S
H362 C348 0.930 . S
Co363 N367 2.148 1_554 S
Co363 N373 2.128 . S
Co363 N383 2.194 . S
Co363 O388 2.351 . S
Co363 O389 2.155 . S
Co363 O390 2.096 . S
C364 N367 1.301 . S
C364 N368 1.328 . S
C364 H369 0.930 . S
C365 C366 1.333 . S
C365 N367 1.317 . S
C365 H370 0.930 . S
C366 C365 1.333 . S
C366 N368 1.350 . S
C366 H392 0.931 . S
N367 Co363 2.148 1_556 S
N367 C364 1.301 . S
N367 C365 1.317 . S
N368 C364 1.328 . S
N368 C366 1.350 . S
H369 C364 0.930 . S
H370 C365 0.930 . S
C371 O372 1.224 . S
C371 O390 1.247 . S
O372 C371 1.224 . S
N373 Co363 2.128 . S
N373 C374 1.355 . S
N373 C376 1.311 . S
C374 N373 1.355 . S
C374 C375 1.363 . S
C374 H386 0.929 . S
C375 C374 1.363 . S
C375 N377 1.375 . S
C375 H393 0.931 . S
C376 N373 1.311 . S
C376 N377 1.347 . S
C376 H387 0.929 . S
N377 C375 1.375 . S
N377 C376 1.347 . S
C378 C381 1.365 . S
C378 N383 1.328 1_556 S
C378 H384 0.929 . S
C379 C380 1.362 . S
C379 C382 1.378 . S
C379 H394 0.929 . S
C380 C379 1.362 . S
C380 C381 1.366 1_554 S
C381 C378 1.365 . S
C381 C380 1.366 1_556 S
C381 H395 0.930 . S
C382 C379 1.378 . S
C382 N383 1.315 . S
C382 H385 0.930 . S
N383 Co363 2.194 . S
N383 C378 1.328 1_554 S
N383 C382 1.315 . S
H384 C378 0.929 . S
H385 C382 0.930 . S
H386 C374 0.929 . S
H387 C376 0.929 . S
O388 Co363 2.351 . S
O388 C391 1.244 . S
O389 Co363 2.155 . S
O389 C391 1.240 . S
O390 Co363 2.096 . S
O390 C371 1.247 . S
C391 O388 1.244 . S
C391 O389 1.240 . S
H392 C366 0.931 . S
H393 C375 0.931 . S
H394 C379 0.929 . S
H395 C381 0.930 . S
H396 C404 0.929 . S
H397 C406 0.930 . S
H398 C408 0.930 . S
H399 C411 0.929 . S
H400 C414 0.930 . S
H401 C416 0.960 . S
H402 C416 0.960 . S
H403 C416 0.960 1_556 S
C404 H396 0.929 . S
C404 C405 1.377 . S
C404 C406 1.384 . S
C405 C404 1.377 . S
C405 C411 1.390 1_554 S
C406 H397 0.930 . S
C406 C404 1.384 . S
C406 C407 1.372 . S
C407 C406 1.372 . S
C407 C408 1.400 1_554 S
C407 C412 1.490 . S
C408 H398 0.930 . S
C408 C407 1.400 1_556 S
C408 C411 1.386 . S
H409 C425 0.930 . S
H410 C426 0.931 . S
C411 H399 0.929 . S
C411 C405 1.390 1_556 S
C411 C408 1.386 . S
C412 C407 1.490 . S
C412 C414 1.395 . S
C412 C415 1.403 . S
H413 C419 0.930 . S
C414 H400 0.930 . S
C414 C412 1.395 . S
C414 C417 1.403 . S
C415 C412 1.403 . S
C415 C416 1.524 . S
C415 C419 1.400 . S
C416 H401 0.960 . S
C416 H402 0.960 . S
C416 H403 0.960 1_554 S
C416 C415 1.524 . S
C417 C414 1.403 . S
C417 C418 1.392 . S
C417 C421 1.495 . S
C418 C417 1.392 . S
C418 C419 1.385 . S
C418 C420 1.478 . S
C419 H413 0.930 . S
C419 C415 1.400 . S
C419 C418 1.385 . S
C420 C418 1.478 . S
C420 C422 1.381 . S
C420 C426 1.383 1_554 S
C421 C417 1.495 . S
C421 H427 0.959 . S
C421 H428 0.961 . S
C421 H429 0.960 . S
C422 C420 1.381 . S
C422 C423 1.394 . S
C422 H430 0.930 . S
C423 C422 1.394 . S
C423 C424 1.383 . S
C423 H431 0.929 . S
C424 C423 1.383 . S
C424 C425 1.377 1_554 S
C425 H409 0.930 . S
C425 C424 1.377 1_556 S
C425 C426 1.379 . S
C426 H410 0.931 . S
C426 C420 1.383 1_556 S
C426 C425 1.379 . S
H427 C421 0.959 . S
H428 C421 0.961 . S
H429 C421 0.960 . S
H430 C422 0.930 . S
H431 C423 0.929 . S
H432 C440 0.929 . S
H433 C442 0.930 . S
H434 C444 0.930 . S
H435 C447 0.929 . S
H436 C450 0.930 . S
H437 C452 0.960 . S
H438 C452 0.960 . S
H439 C452 0.960 . S
C440 H432 0.929 . S
C440 C441 1.377 1_556 S
C440 C442 1.384 . S
C441 C440 1.377 1_554 S
C441 C447 1.390 . S
C442 H433 0.930 . S
C442 C440 1.384 . S
C442 C443 1.372 1_556 S
C443 C442 1.372 1_554 S
C443 C444 1.400 . S
C443 C448 1.490 . S
C444 H434 0.930 . S
C444 C443 1.400 . S
C444 C447 1.386 . S
H445 C461 0.930 . S
H446 C462 0.931 . S
C447 H435 0.929 . S
C447 C441 1.390 . S
C447 C444 1.386 . S
C448 C443 1.490 . S
C448 C450 1.395 1_554 S
C448 C451 1.403 . S
H449 C455 0.930 . S
C450 H436 0.930 . S
C450 C448 1.395 1_556 S
C450 C453 1.403 . S
C451 C448 1.403 . S
C451 C452 1.524 . S
C451 C455 1.400 . S
C452 H437 0.960 . S
C452 H438 0.960 . S
C452 H439 0.960 . S
C452 C451 1.524 . S
C453 C450 1.403 . S
C453 C454 1.392 1_556 S
C453 C457 1.495 . S
C454 C453 1.392 1_554 S
C454 C455 1.385 . S
C454 C456 1.478 . S
C455 H449 0.930 . S
C455 C451 1.400 . S
C455 C454 1.385 . S
C456 C454 1.478 . S
C456 C458 1.381 1_554 S
C456 C462 1.383 . S
C457 C453 1.495 . S
C457 H463 0.959 . S
C457 H464 0.961 . S
C457 H465 0.960 . S
C458 C456 1.381 1_556 S
C458 C459 1.394 . S
C458 H466 0.930 . S
C459 C458 1.394 . S
C459 C460 1.383 1_556 S
C459 H467 0.929 . S
C460 C459 1.383 1_554 S
C460 C461 1.377 . S
C461 H445 0.930 . S
C461 C460 1.377 . S
C461 C462 1.379 . S
C462 H446 0.931 . S
C462 C456 1.383 . S
C462 C461 1.379 . S
H463 C457 0.959 . S
H464 C457 0.961 . S
H465 C457 0.960 . S
H466 C458 0.930 . S
H467 C459 0.929 . S
H468 C476 0.929 . S
H469 C478 0.930 . S
H470 C480 0.930 . S
H471 C483 0.929 . S
H472 C486 0.930 . S
H473 C488 0.960 . S
H474 C488 0.960 . S
H475 C488 0.960 1_556 S
C476 H468 0.929 . S
C476 C477 1.377 . S
C476 C478 1.384 . S
C477 C476 1.377 . S
C477 C483 1.390 1_554 S
C478 H469 0.930 . S
C478 C476 1.384 . S
C478 C479 1.372 . S
C479 C478 1.372 . S
C479 C480 1.400 1_554 S
C479 C484 1.490 . S
C480 H470 0.930 . S
C480 C479 1.400 1_556 S
C480 C483 1.386 . S
H481 C497 0.930 . S
H482 C498 0.931 . S
C483 H471 0.929 . S
C483 C477 1.390 1_556 S
C483 C480 1.386 . S
C484 C479 1.490 . S
C484 C486 1.395 . S
C484 C487 1.403 . S
H485 C491 0.930 . S
C486 H472 0.930 . S
C486 C484 1.395 . S
C486 C489 1.403 . S
C487 C484 1.403 . S
C487 C488 1.524 . S
C487 C491 1.400 . S
C488 H473 0.960 . S
C488 H474 0.960 . S
C488 H475 0.960 1_554 S
C488 C487 1.524 . S
C489 C486 1.403 . S
C489 C490 1.392 . S
C489 C493 1.495 . S
C490 C489 1.392 . S
C490 C491 1.385 . S
C490 C492 1.478 . S
C491 H485 0.930 . S
C491 C487 1.400 . S
C491 C490 1.385 . S
C492 C490 1.478 . S
C492 C494 1.381 . S
C492 C498 1.383 1_554 S
C493 C489 1.495 . S
C493 H499 0.959 . S
C493 H500 0.961 1_554 S
C493 H501 0.960 . S
C494 C492 1.381 . S
C494 C495 1.394 . S
C494 H502 0.930 . S
C495 C494 1.394 . S
C495 C496 1.383 . S
C495 H503 0.929 . S
C496 C495 1.383 . S
C496 C497 1.377 1_554 S
C497 H481 0.930 . S
C497 C496 1.377 1_556 S
C497 C498 1.379 . S
C498 H482 0.931 . S
C498 C492 1.383 1_556 S
C498 C497 1.379 . S
H499 C493 0.959 . S
H500 C493 0.961 1_556 S
H501 C493 0.960 . S
H502 C494 0.930 . S
H503 C495 0.929 . S
H504 C512 0.929 . S
H505 C514 0.930 . S
H506 C516 0.930 . S
H507 C519 0.929 . S
H508 C522 0.930 . S
H509 C524 0.960 . S
H510 C524 0.960 1_556 S
H511 C524 0.960 . S
C512 H504 0.929 . S
C512 C513 1.377 1_556 S
C512 C514 1.384 . S
C513 C512 1.377 1_554 S
C513 C519 1.390 . S
C514 H505 0.930 . S
C514 C512 1.384 . S
C514 C515 1.372 1_556 S
C515 C514 1.372 1_554 S
C515 C516 1.400 . S
C515 C520 1.490 . S
C516 H506 0.930 . S
C516 C515 1.400 . S
C516 C519 1.386 . S
H517 C533 0.930 . S
H518 C534 0.931 . S
C519 H507 0.929 . S
C519 C513 1.390 . S
C519 C516 1.386 . S
C520 C515 1.490 . S
C520 C522 1.395 . S
C520 C523 1.403 . S
H521 C527 0.930 . S
C522 H508 0.930 . S
C522 C520 1.395 . S
C522 C525 1.403 . S
C523 C520 1.403 . S
C523 C524 1.524 . S
C523 C527 1.400 . S
C524 H509 0.960 . S
C524 H510 0.960 1_554 S
C524 H511 0.960 . S
C524 C523 1.524 . S
C525 C522 1.403 . S
C525 C526 1.392 . S
C525 C529 1.495 . S
C526 C525 1.392 . S
C526 C527 1.385 . S
C526 C528 1.478 . S
C527 H521 0.930 . S
C527 C523 1.400 . S
C527 C526 1.385 . S
C528 C526 1.478 . S
C528 C530 1.381 1_554 S
C528 C534 1.383 . S
C529 C525 1.495 . S
C529 H535 0.959 . S
C529 H536 0.961 . S
C529 H537 0.960 1_554 S
C530 C528 1.381 1_556 S
C530 C531 1.394 . S
C530 H538 0.930 . S
C531 C530 1.394 . S
C531 C532 1.383 1_556 S
C531 H539 0.929 . S
C532 C531 1.383 1_554 S
C532 C533 1.377 . S
C533 H517 0.930 . S
C533 C532 1.377 . S
C533 C534 1.379 . S
C534 H518 0.931 . S
C534 C528 1.383 . S
C534 C533 1.379 . S
H535 C529 0.959 . S
H536 C529 0.961 . S
H537 C529 0.960 1_556 S
H538 C530 0.930 . S
H539 C531 0.929 . S
H540 C548 0.929 . S
H541 C550 0.930 . S
H542 C552 0.930 . S
H543 C555 0.929 . S
H544 C558 0.930 . S
H545 C560 0.960 . S
H546 C560 0.960 . S
H547 C560 0.960 . S
C548 H540 0.929 . S
C548 C549 1.377 1_556 S
C548 C550 1.384 . S
C549 C548 1.377 1_554 S
C549 C555 1.390 . S
C550 H541 0.930 . S
C550 C548 1.384 . S
C550 C551 1.372 1_556 S
C551 C550 1.372 1_554 S
C551 C552 1.400 . S
C551 C556 1.490 . S
C552 H542 0.930 . S
C552 C551 1.400 . S
C552 C555 1.386 . S
H553 C569 0.930 . S
H554 C570 0.931 . S
C555 H543 0.929 . S
C555 C549 1.390 . S
C555 C552 1.386 . S
C556 C551 1.490 . S
C556 C558 1.395 1_554 S
C556 C559 1.403 . S
H557 C563 0.930 . S
C558 H544 0.930 . S
C558 C556 1.395 1_556 S
C558 C561 1.403 . S
C559 C556 1.403 . S
C559 C560 1.524 . S
C559 C563 1.400 . S
C560 H545 0.960 . S
C560 H546 0.960 . S
C560 H547 0.960 . S
C560 C559 1.524 . S
C561 C558 1.403 . S
C561 C562 1.392 1_556 S
C561 C565 1.495 . S
C562 C561 1.392 1_554 S
C562 C563 1.385 . S
C562 C564 1.478 . S
C563 H557 0.930 . S
C563 C559 1.400 . S
C563 C562 1.385 . S
C564 C562 1.478 . S
C564 C566 1.381 1_554 S
C564 C570 1.383 . S
C565 C561 1.495 . S
C565 H571 0.959 . S
C565 H572 0.961 . S
C565 H573 0.960 . S
C566 C564 1.381 1_556 S
C566 C567 1.394 . S
C566 H574 0.930 . S
C567 C566 1.394 . S
C567 C568 1.383 1_556 S
C567 H575 0.929 . S
C568 C567 1.383 1_554 S
C568 C569 1.377 . S
C569 H553 0.930 . S
C569 C568 1.377 . S
C569 C570 1.379 . S
C570 H554 0.931 . S
C570 C564 1.383 . S
C570 C569 1.379 . S
H571 C565 0.959 . S
H572 C565 0.961 . S
H573 C565 0.960 . S
H574 C566 0.930 . S
H575 C567 0.929 . S
H576 C584 0.929 . S
H577 C586 0.930 . S
H578 C588 0.930 . S
H579 C591 0.929 . S
H580 C594 0.930 . S
H581 C596 0.960 . S
H582 C596 0.960 . S
H583 C596 0.960 . S
C584 H576 0.929 . S
C584 C585 1.377 1_556 S
C584 C586 1.384 . S
C585 C584 1.377 1_554 S
C585 C591 1.390 . S
C586 H577 0.930 . S
C586 C584 1.384 . S
C586 C587 1.372 1_556 S
C587 C586 1.372 1_554 S
C587 C588 1.400 . S
C587 C592 1.490 . S
C588 H578 0.930 . S
C588 C587 1.400 . S
C588 C591 1.386 . S
H589 C605 0.930 . S
H590 C606 0.931 . S
C591 H579 0.929 . S
C591 C585 1.390 . S
C591 C588 1.386 . S
C592 C587 1.490 . S
C592 C594 1.395 1_554 S
C592 C595 1.403 . S
H593 C599 0.930 . S
C594 H580 0.930 . S
C594 C592 1.395 1_556 S
C594 C597 1.403 . S
C595 C592 1.403 . S
C595 C596 1.524 . S
C595 C599 1.400 . S
C596 H581 0.960 . S
C596 H582 0.960 . S
C596 H583 0.960 . S
C596 C595 1.524 . S
C597 C594 1.403 . S
C597 C598 1.392 1_556 S
C597 C601 1.495 . S
C598 C597 1.392 1_554 S
C598 C599 1.385 . S
C598 C600 1.478 . S
C599 H593 0.930 . S
C599 C595 1.400 . S
C599 C598 1.385 . S
C600 C598 1.478 . S
C600 C602 1.381 1_554 S
C600 C606 1.383 . S
C601 C597 1.495 . S
C601 H607 0.959 . S
C601 H608 0.961 . S
C601 H609 0.960 . S
C602 C600 1.381 1_556 S
C602 C603 1.394 . S
C602 H610 0.930 . S
C603 C602 1.394 . S
C603 C604 1.383 1_556 S
C603 H611 0.929 . S
C604 C603 1.383 1_554 S
C604 C605 1.377 . S
C605 H589 0.930 . S
C605 C604 1.377 . S
C605 C606 1.379 . S
C606 H590 0.931 . S
C606 C600 1.383 . S
C606 C605 1.379 . S
H607 C601 0.959 . S
H608 C601 0.961 . S
H609 C601 0.960 . S
H610 C602 0.930 . S
H611 C603 0.929 . S
H612 C620 0.929 . S
H613 C622 0.930 . S
H614 C624 0.930 . S
H615 C627 0.929 . S
H616 C630 0.930 . S
H617 C632 0.960 . S
H618 C632 0.960 . S
H619 C632 0.960 . S
C620 H612 0.929 . S
C620 C621 1.377 1_556 S
C620 C622 1.384 . S
C621 C620 1.377 1_554 S
C621 C627 1.390 . S
C622 H613 0.930 . S
C622 C620 1.384 . S
C622 C623 1.372 1_556 S
C623 C622 1.372 1_554 S
C623 C624 1.400 . S
C623 C628 1.490 . S
C624 H614 0.930 . S
C624 C623 1.400 . S
C624 C627 1.386 . S
H625 C641 0.930 . S
H626 C642 0.931 . S
C627 H615 0.929 . S
C627 C621 1.390 . S
C627 C624 1.386 . S
C628 C623 1.490 . S
C628 C630 1.395 1_554 S
C628 C631 1.403 . S
H629 C635 0.930 . S
C630 H616 0.930 . S
C630 C628 1.395 1_556 S
C630 C633 1.403 . S
C631 C628 1.403 . S
C631 C632 1.524 . S
C631 C635 1.400 . S
C632 H617 0.960 . S
C632 H618 0.960 . S
C632 H619 0.960 . S
C632 C631 1.524 . S
C633 C630 1.403 . S
C633 C634 1.392 1_556 S
C633 C637 1.495 . S
C634 C633 1.392 1_554 S
C634 C635 1.385 . S
C634 C636 1.478 . S
C635 H629 0.930 . S
C635 C631 1.400 . S
C635 C634 1.385 . S
C636 C634 1.478 . S
C636 C638 1.381 . S
C636 C642 1.383 . S
C637 C633 1.495 . S
C637 H643 0.959 . S
C637 H644 0.961 . S
C637 H645 0.960 . S
C638 C636 1.381 . S
C638 C639 1.394 . S
C638 H646 0.930 1_554 S
C639 C638 1.394 . S
C639 C640 1.383 . S
C639 H647 0.929 . S
C640 C639 1.383 . S
C640 C641 1.377 . S
C641 H625 0.930 . S
C641 C640 1.377 . S
C641 C642 1.379 . S
C642 H626 0.931 . S
C642 C636 1.383 . S
C642 C641 1.379 . S
H643 C637 0.959 . S
H644 C637 0.961 . S
H645 C637 0.960 . S
H646 C638 0.930 1_556 S
H647 C639 0.929 . S
H648 C656 0.929 . S
H649 C658 0.930 . S
H650 C660 0.930 . S
H651 C663 0.929 . S
H652 C666 0.930 . S
H653 C668 0.960 . S
H654 C668 0.960 . S
H655 C668 0.960 . S
C656 H648 0.929 . S
C656 C657 1.377 . S
C656 C658 1.384 . S
C657 C656 1.377 . S
C657 C663 1.390 1_554 S
C658 H649 0.930 . S
C658 C656 1.384 . S
C658 C659 1.372 . S
C659 C658 1.372 . S
C659 C660 1.400 1_554 S
C659 C664 1.490 . S
C660 H650 0.930 . S
C660 C659 1.400 1_556 S
C660 C663 1.386 . S
H661 C677 0.930 . S
H662 C678 0.931 . S
C663 H651 0.929 . S
C663 C657 1.390 1_556 S
C663 C660 1.386 . S
C664 C659 1.490 . S
C664 C666 1.395 . S
C664 C667 1.403 1_554 S
H665 C671 0.930 . S
C666 H652 0.930 . S
C666 C664 1.395 . S
C666 C669 1.403 . S
C667 C664 1.403 1_556 S
C667 C668 1.524 . S
C667 C671 1.400 . S
C668 H653 0.960 . S
C668 H654 0.960 . S
C668 H655 0.960 . S
C668 C667 1.524 . S
C669 C666 1.403 . S
C669 C670 1.392 . S
C669 C673 1.495 . S
C670 C669 1.392 . S
C670 C671 1.385 1_554 S
C670 C672 1.478 . S
C671 H665 0.930 . S
C671 C667 1.400 . S
C671 C670 1.385 1_556 S
C672 C670 1.478 . S
C672 C674 1.381 . S
C672 C678 1.383 1_554 S
C673 C669 1.495 . S
C673 H679 0.959 . S
C673 H680 0.961 . S
C673 H681 0.960 . S
C674 C672 1.381 . S
C674 C675 1.394 . S
C674 H682 0.930 . S
C675 C674 1.394 . S
C675 C676 1.383 . S
C675 H683 0.929 . S
C676 C675 1.383 . S
C676 C677 1.377 1_554 S
C677 H661 0.930 . S
C677 C676 1.377 1_556 S
C677 C678 1.379 . S
C678 H662 0.931 . S
C678 C672 1.383 1_556 S
C678 C677 1.379 . S
H679 C673 0.959 . S
H680 C673 0.961 . S
H681 C673 0.960 . S
H682 C674 0.930 . S
H683 C675 0.929 . S
H684 C692 0.929 . S
H685 C694 0.930 . S
H686 C696 0.930 . S
H687 C699 0.929 . S
H688 C702 0.930 . S
H689 C704 0.960 . S
H690 C704 0.960 . S
H691 C704 0.960 1_554 S
C692 H684 0.929 . S
C692 C693 1.377 1_556 S
C692 C694 1.384 . S
C693 C692 1.377 1_554 S
C693 C699 1.390 . S
C694 H685 0.930 . S
C694 C692 1.384 . S
C694 C695 1.372 1_556 S
C695 C694 1.372 1_554 S
C695 C696 1.400 . S
C695 C700 1.490 . S
C696 H686 0.930 . S
C696 C695 1.400 . S
C696 C699 1.386 . S
H697 C713 0.930 . S
H698 C714 0.931 . S
C699 H687 0.929 . S
C699 C693 1.390 . S
C699 C696 1.386 . S
C700 C695 1.490 . S
C700 C702 1.395 . S
C700 C703 1.403 . S
H701 C707 0.930 1_556 S
C702 H688 0.930 . S
C702 C700 1.395 . S
C702 C705 1.403 . S
C703 C700 1.403 . S
C703 C704 1.524 1_554 S
C703 C707 1.400 . S
C704 H689 0.960 . S
C704 H690 0.960 . S
C704 H691 0.960 1_556 S
C704 C703 1.524 1_556 S
C705 C702 1.403 . S
C705 C706 1.392 . S
C705 C709 1.495 . S
C706 C705 1.392 . S
C706 C707 1.385 . S
C706 C708 1.478 . S
C707 H701 0.930 1_554 S
C707 C703 1.400 . S
C707 C706 1.385 . S
C708 C706 1.478 . S
C708 C710 1.381 1_554 S
C708 C714 1.383 . S
C709 C705 1.495 . S
C709 H715 0.959 . S
C709 H716 0.961 . S
C709 H717 0.960 . S
C710 C708 1.381 1_556 S
C710 C711 1.394 . S
C710 H718 0.930 . S
C711 C710 1.394 . S
C711 C712 1.383 1_556 S
C711 H719 0.929 . S
C712 C711 1.383 1_554 S
C712 C713 1.377 . S
C713 H697 0.930 . S
C713 C712 1.377 . S
C713 C714 1.379 . S
C714 H698 0.931 . S
C714 C708 1.383 . S
C714 C713 1.379 . S
H715 C709 0.959 . S
H716 C709 0.961 . S
H717 C709 0.960 . S
H718 C710 0.930 . S
H719 C711 0.929 . S
H720 C728 0.929 . S
H721 C730 0.930 . S
H722 C732 0.930 . S
H723 C735 0.929 . S
H724 C738 0.930 . S
H725 C740 0.960 . S
H726 C740 0.960 . S
H727 C740 0.960 . S
C728 H720 0.929 . S
C728 C729 1.377 . S
C728 C730 1.384 . S
C729 C728 1.377 . S
C729 C735 1.390 1_554 S
C730 H721 0.930 . S
C730 C728 1.384 . S
C730 C731 1.372 . S
C731 C730 1.372 . S
C731 C732 1.400 1_554 S
C731 C736 1.490 . S
C732 H722 0.930 . S
C732 C731 1.400 1_556 S
C732 C735 1.386 . S
H733 C749 0.930 . S
H734 C750 0.931 . S
C735 H723 0.929 . S
C735 C729 1.390 1_556 S
C735 C732 1.386 . S
C736 C731 1.490 . S
C736 C738 1.395 . S
C736 C739 1.403 1_554 S
H737 C743 0.930 . S
C738 H724 0.930 . S
C738 C736 1.395 . S
C738 C741 1.403 . S
C739 C736 1.403 1_556 S
C739 C740 1.524 . S
C739 C743 1.400 . S
C740 H725 0.960 . S
C740 H726 0.960 . S
C740 H727 0.960 . S
C740 C739 1.524 . S
C741 C738 1.403 . S
C741 C742 1.392 . S
C741 C745 1.495 . S
C742 C741 1.392 . S
C742 C743 1.385 1_554 S
C742 C744 1.478 . S
C743 H737 0.930 . S
C743 C739 1.400 . S
C743 C742 1.385 1_556 S
C744 C742 1.478 . S
C744 C746 1.381 . S
C744 C750 1.383 . S
C745 C741 1.495 . S
C745 H751 0.959 . S
C745 H752 0.961 . S
C745 H753 0.960 . S
C746 C744 1.381 . S
C746 C747 1.394 . S
C746 H754 0.930 . S
C747 C746 1.394 . S
C747 C748 1.383 . S
C747 H755 0.929 . S
C748 C747 1.383 . S
C748 C749 1.377 . S
C749 H733 0.930 . S
C749 C748 1.377 . S
C749 C750 1.379 . S
C750 H734 0.931 . S
C750 C744 1.383 . S
C750 C749 1.379 . S
H751 C745 0.959 . S
H752 C745 0.961 . S
H753 C745 0.960 . S
H754 C746 0.930 . S
H755 C747 0.929 . S
H756 C764 0.929 . S
H757 C766 0.930 . S
H758 C768 0.930 . S
H759 C771 0.929 . S
H760 C774 0.930 . S
H761 C776 0.960 . S
H762 C776 0.960 . S
H763 C776 0.960 . S
C764 H756 0.929 . S
C764 C765 1.377 . S
C764 C766 1.384 . S
C765 C764 1.377 . S
C765 C771 1.390 1_554 S
C766 H757 0.930 . S
C766 C764 1.384 . S
C766 C767 1.372 . S
C767 C766 1.372 . S
C767 C768 1.400 1_554 S
C767 C772 1.490 . S
C768 H758 0.930 . S
C768 C767 1.400 1_556 S
C768 C771 1.386 . S
H769 C785 0.924 1_556 S
H770 C786 0.931 . S
C771 H759 0.929 . S
C771 C765 1.390 1_556 S
C771 C768 1.386 . S
C772 C767 1.490 . S
C772 C774 1.395 1_554 S
C772 C775 1.403 . S
H773 C779 0.930 . S
C774 H760 0.930 . S
C774 C772 1.395 1_556 S
C774 C777 1.403 . S
C775 C772 1.403 . S
C775 C776 1.524 . S
C775 C779 1.400 . S
C776 H761 0.960 . S
C776 H762 0.960 . S
C776 H763 0.960 . S
C776 C775 1.524 . S
C777 C774 1.403 . S
C777 C778 1.392 1_556 S
C777 C781 1.495 . S
C778 C777 1.392 1_554 S
C778 C779 1.385 . S
C778 C780 1.478 . S
C779 H773 0.930 . S
C779 C775 1.400 . S
C779 C778 1.385 . S
C780 C778 1.478 . S
C780 C782 1.381 . S
C780 C786 1.383 1_554 S
C781 C777 1.495 . S
C781 H787 0.959 . S
C781 H788 0.961 . S
C781 H789 0.960 . S
C782 C780 1.381 . S
C782 C783 1.394 . S
C782 H790 0.930 . S
C783 C782 1.394 . S
C783 C784 1.383 . S
C783 H791 0.929 . S
C784 C783 1.383 . S
C784 C785 1.384 . S
C785 H769 0.924 1_554 S
C785 C784 1.384 . S
C785 C786 1.378 1_554 S
C786 H770 0.931 . S
C786 C780 1.383 1_556 S
C786 C785 1.378 1_556 S
H787 C781 0.959 . S
H788 C781 0.961 . S
H789 C781 0.960 . S
H790 C782 0.930 . S
H791 C783 0.929 . S
H792 C800 0.929 . S
H793 C802 0.930 . S
H794 C804 0.930 . S
H795 C807 0.929 . S
H796 C810 0.930 . S
H797 C812 0.960 . S
H798 C812 0.960 . S
H799 C812 0.960 . S
C800 H792 0.929 . S
C800 C801 1.377 1_556 S
C800 C802 1.384 . S
C801 C800 1.377 1_554 S
C801 C807 1.390 . S
C802 H793 0.930 . S
C802 C800 1.384 . S
C802 C803 1.372 1_556 S
C803 C802 1.372 1_554 S
C803 C804 1.400 . S
C803 C808 1.490 . S
C804 H794 0.930 . S
C804 C803 1.400 . S
C804 C807 1.386 . S
H805 C821 0.930 . S
H806 C822 0.931 . S
C807 H795 0.929 . S
C807 C801 1.390 . S
C807 C804 1.386 . S
C808 C803 1.490 . S
C808 C810 1.395 . S
C808 C811 1.403 1_554 S
H809 C815 0.930 . S
C810 H796 0.930 . S
C810 C808 1.395 . S
C810 C813 1.403 . S
C811 C808 1.403 1_556 S
C811 C812 1.524 . S
C811 C815 1.400 . S
C812 H797 0.960 . S
C812 H798 0.960 . S
C812 H799 0.960 . S
C812 C811 1.524 . S
C813 C810 1.403 . S
C813 C814 1.392 . S
C813 C817 1.495 . S
C814 C813 1.392 . S
C814 C815 1.385 1_554 S
C814 C816 1.478 . S
C815 H809 0.930 . S
C815 C811 1.400 . S
C815 C814 1.385 1_556 S
C816 C814 1.478 . S
C816 C818 1.381 . S
C816 C822 1.383 . S
C817 C813 1.495 . S
C817 H823 0.959 . S
C817 H824 0.961 . S
C817 H825 0.960 . S
C818 C816 1.381 . S
C818 C819 1.394 . S
C818 H826 0.930 1_554 S
C819 C818 1.394 . S
C819 C820 1.383 . S
C819 H827 0.929 1_554 S
C820 C819 1.383 . S
C820 C821 1.377 . S
C821 H805 0.930 . S
C821 C820 1.377 . S
C821 C822 1.379 . S
C822 H806 0.931 . S
C822 C816 1.383 . S
C822 C821 1.379 . S
H823 C817 0.959 . S
H824 C817 0.961 . S
H825 C817 0.960 . S
H826 C818 0.930 1_556 S
H827 C819 0.929 1_556 S
H828 C836 0.929 . S
H829 C838 0.930 . S
H830 C840 0.930 . S
H831 C843 0.929 . S
H832 C846 0.930 . S
H833 C848 0.960 . S
H834 C848 0.960 . S
H835 C848 0.960 . S
C836 H828 0.929 . S
C836 C837 1.377 . S
C836 C838 1.384 . S
C837 C836 1.377 . S
C837 C843 1.390 . S
C838 H829 0.930 . S
C838 C836 1.384 . S
C838 C839 1.372 . S
C839 C838 1.372 . S
C839 C840 1.400 . S
C839 C844 1.490 . S
C840 H830 0.930 . S
C840 C839 1.400 . S
C840 C843 1.386 . S
H841 C857 0.930 . S
H842 C858 0.931 . S
C843 H831 0.929 . S
C843 C837 1.390 . S
C843 C840 1.386 . S
C844 C839 1.490 . S
C844 C846 1.395 . S
C844 C847 1.403 . S
H845 C851 0.930 . S
C846 H832 0.930 . S
C846 C844 1.395 . S
C846 C849 1.403 . S
C847 C844 1.403 . S
C847 C848 1.524 . S
C847 C851 1.400 . S
C848 H833 0.960 . S
C848 H834 0.960 . S
C848 H835 0.960 . S
C848 C847 1.524 . S
C849 C846 1.403 . S
C849 C850 1.392 . S
C849 C853 1.495 . S
C850 C849 1.392 . S
C850 C851 1.385 . S
C850 C852 1.478 . S
C851 H845 0.930 . S
C851 C847 1.400 . S
C851 C850 1.385 . S
C852 C850 1.478 . S
C852 C854 1.381 . S
C852 C858 1.383 . S
C853 C849 1.495 . S
C853 H859 0.959 . S
C853 H860 0.961 . S
C853 H861 0.960 . S
C854 C852 1.381 . S
C854 C855 1.394 . S
C854 H862 0.930 . S
C855 C854 1.394 . S
C855 C856 1.383 . S
C855 H863 0.929 . S
C856 C855 1.383 . S
C856 C857 1.377 . S
C857 H841 0.930 . S
C857 C856 1.377 . S
C857 C858 1.379 . S
C858 H842 0.931 . S
C858 C852 1.383 . S
C858 C857 1.379 . S
H859 C853 0.959 . S
H860 C853 0.961 . S
H861 C853 0.960 . S
H862 C854 0.930 . S
H863 C855 0.929 . S
H864 C872 0.929 . S
H865 C874 0.930 . S
H866 C876 0.930 . S
H867 C879 0.929 . S
H868 C882 0.930 . S
H869 C884 0.960 . S
H870 C884 0.960 . S
H871 C884 0.960 . S
C872 H864 0.929 . S
C872 C873 1.377 . S
C872 C874 1.384 . S
C873 C872 1.377 . S
C873 C879 1.390 . S
C874 H865 0.930 . S
C874 C872 1.384 . S
C874 C875 1.372 . S
C875 C874 1.372 . S
C875 C876 1.400 . S
C875 C880 1.490 . S
C876 H866 0.930 . S
C876 C875 1.400 . S
C876 C879 1.386 . S
H877 C893 0.930 . S
H878 C894 0.931 . S
C879 H867 0.929 . S
C879 C873 1.390 . S
C879 C876 1.386 . S
C880 C875 1.490 . S
C880 C882 1.395 . S
C880 C883 1.403 . S
H881 C887 0.930 . S
C882 H868 0.930 . S
C882 C880 1.395 . S
C882 C885 1.403 . S
C883 C880 1.403 . S
C883 C884 1.524 . S
C883 C887 1.400 . S
C884 H869 0.960 . S
C884 H870 0.960 . S
C884 H871 0.960 . S
C884 C883 1.524 . S
C885 C882 1.403 . S
C885 C886 1.392 . S
C885 C889 1.495 . S
C886 C885 1.392 . S
C886 C887 1.385 . S
C886 C888 1.478 . S
C887 H881 0.930 . S
C887 C883 1.400 . S
C887 C886 1.385 . S
C888 C886 1.478 . S
C888 C890 1.381 . S
C888 C894 1.383 . S
C889 C885 1.495 . S
C889 H895 0.959 . S
C889 H896 0.961 . S
C889 H897 0.960 . S
C890 C888 1.381 . S
C890 C891 1.394 . S
C890 H898 0.930 . S
C891 C890 1.394 . S
C891 C892 1.383 . S
C891 H899 0.929 . S
C892 C891 1.383 . S
C892 C893 1.377 . S
C893 H877 0.930 . S
C893 C892 1.377 . S
C893 C894 1.379 . S
C894 H878 0.931 . S
C894 C888 1.383 . S
C894 C893 1.379 . S
H895 C889 0.959 . S
H896 C889 0.961 . S
H897 C889 0.960 . S
H898 C890 0.930 . S
H899 C891 0.929 . S
H900 C908 0.929 . S
H901 C910 0.930 . S
H902 C912 0.930 . S
H903 C915 0.929 . S
H904 C918 0.930 . S
H905 C920 0.960 . S
H906 C920 0.960 . S
H907 C920 0.960 . S
C908 H900 0.929 . S
C908 C909 1.377 . S
C908 C910 1.384 . S
C909 C908 1.377 . S
C909 C915 1.390 . S
C910 H901 0.930 . S
C910 C908 1.384 . S
C910 C911 1.372 . S
C911 C910 1.372 . S
C911 C912 1.400 . S
C911 C916 1.490 . S
C912 H902 0.930 . S
C912 C911 1.400 . S
C912 C915 1.386 . S
H913 C929 0.930 . S
H914 C930 0.931 . S
C915 H903 0.929 . S
C915 C909 1.390 . S
C915 C912 1.386 . S
C916 C911 1.490 . S
C916 C918 1.395 . S
C916 C919 1.403 . S
H917 C923 0.930 . S
C918 H904 0.930 . S
C918 C916 1.395 . S
C918 C921 1.403 . S
C919 C916 1.403 . S
C919 C920 1.524 . S
C919 C923 1.400 . S
C920 H905 0.960 . S
C920 H906 0.960 . S
C920 H907 0.960 . S
C920 C919 1.524 . S
C921 C918 1.403 . S
C921 C922 1.392 . S
C921 C925 1.495 . S
C922 C921 1.392 . S
C922 C923 1.385 . S
C922 C924 1.478 . S
C923 H917 0.930 . S
C923 C919 1.400 . S
C923 C922 1.385 . S
C924 C922 1.478 . S
C924 C926 1.381 . S
C924 C930 1.383 . S
C925 C921 1.495 . S
C925 H931 0.959 . S
C925 H932 0.961 . S
C925 H933 0.960 . S
C926 C924 1.381 . S
C926 C927 1.394 . S
C926 H934 0.930 . S
C927 C926 1.394 . S
C927 C928 1.383 . S
C927 H935 0.929 . S
C928 C927 1.383 . S
C928 C929 1.377 . S
C929 H913 0.930 . S
C929 C928 1.377 . S
C929 C930 1.379 . S
C930 H914 0.931 . S
C930 C924 1.383 . S
C930 C929 1.379 . S
H931 C925 0.959 . S
H932 C925 0.961 . S
H933 C925 0.960 . S
H934 C926 0.930 . S
H935 C927 0.929 . S
H936 C944 0.929 . S
H937 C946 0.930 . S
H938 C948 0.930 . S
H939 C951 0.929 . S
H940 C954 0.930 . S
H941 C956 0.960 . S
H942 C956 0.960 . S
H943 C956 0.960 . S
C944 H936 0.929 . S
C944 C945 1.377 . S
C944 C946 1.384 . S
C945 C944 1.377 . S
C945 C951 1.390 . S
C946 H937 0.930 . S
C946 C944 1.384 . S
C946 C947 1.372 . S
C947 C946 1.372 . S
C947 C948 1.400 . S
C947 C952 1.490 . S
C948 H938 0.930 . S
C948 C947 1.400 . S
C948 C951 1.386 . S
H949 C965 0.930 . S
H950 C966 0.931 . S
C951 H939 0.929 . S
C951 C945 1.390 . S
C951 C948 1.386 . S
C952 C947 1.490 . S
C952 C954 1.395 . S
C952 C955 1.403 . S
H953 C959 0.930 . S
C954 H940 0.930 . S
C954 C952 1.395 . S
C954 C957 1.403 . S
C955 C952 1.403 . S
C955 C956 1.524 . S
C955 C959 1.400 . S
C956 H941 0.960 . S
C956 H942 0.960 . S
C956 H943 0.960 . S
C956 C955 1.524 . S
C957 C954 1.403 . S
C957 C958 1.392 . S
C957 C961 1.495 . S
C958 C957 1.392 . S
C958 C959 1.385 . S
C958 C960 1.478 . S
C959 H953 0.930 . S
C959 C955 1.400 . S
C959 C958 1.385 . S
C960 C958 1.478 . S
C960 C962 1.381 . S
C960 C966 1.383 . S
C961 C957 1.495 . S
C961 H967 0.959 . S
C961 H968 0.961 . S
C961 H969 0.960 . S
C962 C960 1.381 . S
C962 C963 1.394 . S
C962 H970 0.930 . S
C963 C962 1.394 . S
C963 C964 1.383 . S
C963 H971 0.929 . S
C964 C963 1.383 . S
C964 C965 1.377 . S
C965 H949 0.930 . S
C965 C964 1.377 . S
C965 C966 1.379 . S
C966 H950 0.931 . S
C966 C960 1.383 . S
C966 C965 1.379 . S
H967 C961 0.959 . S
H968 C961 0.961 . S
H969 C961 0.960 . S
H970 C962 0.930 . S
H971 C963 0.929 . S
H972 C980 0.929 . S
H973 C982 0.930 . S
H974 C984 0.930 . S
H975 C987 0.929 . S
H976 C990 0.930 . S
H977 C992 0.960 . S
H978 C992 0.960 . S
H979 C992 0.960 . S
C980 H972 0.929 . S
C980 C981 1.377 . S
C980 C982 1.384 . S
C981 C980 1.377 . S
C981 C987 1.390 . S
C982 H973 0.930 . S
C982 C980 1.384 . S
C982 C983 1.372 . S
C983 C982 1.372 . S
C983 C984 1.400 . S
C983 C988 1.490 . S
C984 H974 0.930 . S
C984 C983 1.400 . S
C984 C987 1.386 . S
H985 C1001 0.930 . S
H986 C1002 0.931 . S
C987 H975 0.929 . S
C987 C981 1.390 . S
C987 C984 1.386 . S
C988 C983 1.490 . S
C988 C990 1.395 . S
C988 C991 1.403 . S
H989 C995 0.930 . S
C990 H976 0.930 . S
C990 C988 1.395 . S
C990 C993 1.403 . S
C991 C988 1.403 . S
C991 C992 1.524 . S
C991 C995 1.400 . S
C992 H977 0.960 . S
C992 H978 0.960 . S
C992 H979 0.960 . S
C992 C991 1.524 . S
C993 C990 1.403 . S
C993 C994 1.392 . S
C993 C997 1.495 . S
C994 C993 1.392 . S
C994 C995 1.385 . S
C994 C996 1.478 . S
C995 H989 0.930 . S
C995 C991 1.400 . S
C995 C994 1.385 . S
C996 C994 1.478 . S
C996 C998 1.381 . S
C996 C1002 1.383 . S
C997 C993 1.495 . S
C997 H1003 0.959 . S
C997 H1004 0.961 . S
C997 H1005 0.960 . S
C998 C996 1.381 . S
C998 C999 1.394 . S
C998 H1006 0.930 . S
C999 C998 1.394 . S
C999 C1000 1.383 . S
C999 H1007 0.929 . S
C1000 C999 1.383 . S
C1000 C1001 1.377 . S
C1001 H985 0.930 . S
C1001 C1000 1.377 . S
C1001 C1002 1.379 . S
C1002 H986 0.931 . S
C1002 C996 1.383 . S
C1002 C1001 1.379 . S
H1003 C997 0.959 . S
H1004 C997 0.961 . S
H1005 C997 0.960 . S
H1006 C998 0.930 . S
H1007 C999 0.929 . S
H1008 C1016 0.929 . S
H1009 C1018 0.930 . S
H1010 C1020 0.930 . S
H1011 C1023 0.929 . S
H1012 C1026 0.930 . S
H1013 C1028 0.960 . S
H1014 C1028 0.960 . S
H1015 C1028 0.960 . S
C1016 H1008 0.929 . S
C1016 C1017 1.377 . S
C1016 C1018 1.384 . S
C1017 C1016 1.377 . S
C1017 C1023 1.390 . S
C1018 H1009 0.930 . S
C1018 C1016 1.384 . S
C1018 C1019 1.372 . S
C1019 C1018 1.372 . S
C1019 C1020 1.400 . S
C1019 C1024 1.490 . S
C1020 H1010 0.930 . S
C1020 C1019 1.400 . S
C1020 C1023 1.386 . S
H1021 C1037 0.930 . S
H1022 C1038 0.931 . S
C1023 H1011 0.929 . S
C1023 C1017 1.390 . S
C1023 C1020 1.386 . S
C1024 C1019 1.490 . S
C1024 C1026 1.395 . S
C1024 C1027 1.403 . S
H1025 C1031 0.930 . S
C1026 H1012 0.930 . S
C1026 C1024 1.395 . S
C1026 C1029 1.403 . S
C1027 C1024 1.403 . S
C1027 C1028 1.524 . S
C1027 C1031 1.400 . S
C1028 H1013 0.960 . S
C1028 H1014 0.960 . S
C1028 H1015 0.960 . S
C1028 C1027 1.524 . S
C1029 C1026 1.403 . S
C1029 C1030 1.392 . S
C1029 C1033 1.495 . S
C1030 C1029 1.392 . S
C1030 C1031 1.385 . S
C1030 C1032 1.478 . S
C1031 H1025 0.930 . S
C1031 C1027 1.400 . S
C1031 C1030 1.385 . S
C1032 C1030 1.478 . S
C1032 C1034 1.381 . S
C1032 C1038 1.383 . S
C1033 C1029 1.495 . S
C1033 H1039 0.959 . S
C1033 H1040 0.961 . S
C1033 H1041 0.960 . S
C1034 C1032 1.381 . S
C1034 C1035 1.394 . S
C1034 H1042 0.930 . S
C1035 C1034 1.394 . S
C1035 C1036 1.383 . S
C1035 H1043 0.929 . S
C1036 C1035 1.383 . S
C1036 C1037 1.377 . S
C1037 H1021 0.930 . S
C1037 C1036 1.377 . S
C1037 C1038 1.379 . S
C1038 H1022 0.931 . S
C1038 C1032 1.383 . S
C1038 C1037 1.379 . S
H1039 C1033 0.959 . S
H1040 C1033 0.961 . S
H1041 C1033 0.960 . S
H1042 C1034 0.930 . S
H1043 C1035 0.929 . S
H1044 C1052 0.929 . S
H1045 C1054 0.930 . S
H1046 C1056 0.930 . S
H1047 C1059 0.929 . S
H1048 C1062 0.930 . S
H1049 C1064 0.960 . S
H1050 C1064 0.960 . S
H1051 C1064 0.960 . S
C1052 H1044 0.929 . S
C1052 C1053 1.377 . S
C1052 C1054 1.384 . S
C1053 C1052 1.377 . S
C1053 C1059 1.390 . S
C1054 H1045 0.930 . S
C1054 C1052 1.384 . S
C1054 C1055 1.372 . S
C1055 C1054 1.372 . S
C1055 C1056 1.400 . S
C1055 C1060 1.490 . S
C1056 H1046 0.930 . S
C1056 C1055 1.400 . S
C1056 C1059 1.386 . S
H1057 C1073 0.930 . S
H1058 C1074 0.931 . S
C1059 H1047 0.929 . S
C1059 C1053 1.390 . S
C1059 C1056 1.386 . S
C1060 C1055 1.490 . S
C1060 C1062 1.395 . S
C1060 C1063 1.403 . S
H1061 C1067 0.930 . S
C1062 H1048 0.930 . S
C1062 C1060 1.395 . S
C1062 C1065 1.403 . S
C1063 C1060 1.403 . S
C1063 C1064 1.524 . S
C1063 C1067 1.400 . S
C1064 H1049 0.960 . S
C1064 H1050 0.960 . S
C1064 H1051 0.960 . S
C1064 C1063 1.524 . S
C1065 C1062 1.403 . S
C1065 C1066 1.392 . S
C1065 C1069 1.495 . S
C1066 C1065 1.392 . S
C1066 C1067 1.385 . S
C1066 C1068 1.478 . S
C1067 H1061 0.930 . S
C1067 C1063 1.400 . S
C1067 C1066 1.385 . S
C1068 C1066 1.478 . S
C1068 C1070 1.381 . S
C1068 C1074 1.383 . S
C1069 C1065 1.495 . S
C1069 H1075 0.959 . S
C1069 H1076 0.961 . S
C1069 H1077 0.960 . S
C1070 C1068 1.381 . S
C1070 C1071 1.394 . S
C1070 H1078 0.930 . S
C1071 C1070 1.394 . S
C1071 C1072 1.383 . S
C1071 H1079 0.929 . S
C1072 C1071 1.383 . S
C1072 C1073 1.377 . S
C1073 H1057 0.930 . S
C1073 C1072 1.377 . S
C1073 C1074 1.379 . S
C1074 H1058 0.931 . S
C1074 C1068 1.383 . S
C1074 C1073 1.379 . S
H1075 C1069 0.959 . S
H1076 C1069 0.961 . S
H1077 C1069 0.960 . S
H1078 C1070 0.930 . S
H1079 C1071 0.929 . S
H1080 C1088 0.929 . S
H1081 C1090 0.930 . S
H1082 C1092 0.930 . S
H1083 C1095 0.929 . S
H1084 C1098 0.930 . S
H1085 C1100 0.960 . S
H1086 C1100 0.960 . S
H1087 C1100 0.960 . S
C1088 H1080 0.929 . S
C1088 C1089 1.377 . S
C1088 C1090 1.384 . S
C1089 C1088 1.377 . S
C1089 C1095 1.390 . S
C1090 H1081 0.930 . S
C1090 C1088 1.384 . S
C1090 C1091 1.372 . S
C1091 C1090 1.372 . S
C1091 C1092 1.400 . S
C1091 C1096 1.490 . S
C1092 H1082 0.930 . S
C1092 C1091 1.400 . S
C1092 C1095 1.386 . S
H1093 C1109 0.930 . S
H1094 C1110 0.931 . S
C1095 H1083 0.929 . S
C1095 C1089 1.390 . S
C1095 C1092 1.386 . S
C1096 C1091 1.490 . S
C1096 C1098 1.395 . S
C1096 C1099 1.403 . S
H1097 C1103 0.930 . S
C1098 H1084 0.930 . S
C1098 C1096 1.395 . S
C1098 C1101 1.403 . S
C1099 C1096 1.403 . S
C1099 C1100 1.524 . S
C1099 C1103 1.400 . S
C1100 H1085 0.960 . S
C1100 H1086 0.960 . S
C1100 H1087 0.960 . S
C1100 C1099 1.524 . S
C1101 C1098 1.403 . S
C1101 C1102 1.392 . S
C1101 C1105 1.495 . S
C1102 C1101 1.392 . S
C1102 C1103 1.385 . S
C1102 C1104 1.478 . S
C1103 H1097 0.930 . S
C1103 C1099 1.400 . S
C1103 C1102 1.385 . S
C1104 C1102 1.478 . S
C1104 C1106 1.381 . S
C1104 C1110 1.383 . S
C1105 C1101 1.495 . S
C1105 H1111 0.959 . S
C1105 H1112 0.961 . S
C1105 H1113 0.960 . S
C1106 C1104 1.381 . S
C1106 C1107 1.394 . S
C1106 H1114 0.930 . S
C1107 C1106 1.394 . S
C1107 C1108 1.383 . S
C1107 H1115 0.929 . S
C1108 C1107 1.383 . S
C1108 C1109 1.377 . S
C1109 H1093 0.930 . S
C1109 C1108 1.377 . S
C1109 C1110 1.379 . S
C1110 H1094 0.931 . S
C1110 C1104 1.383 . S
C1110 C1109 1.379 . S
H1111 C1105 0.959 . S
H1112 C1105 0.961 . S
H1113 C1105 0.960 . S
H1114 C1106 0.930 . S
H1115 C1107 0.929 . S
H1116 C1124 0.929 . S
H1117 C1126 0.930 . S
H1118 C1128 0.930 . S
H1119 C1131 0.929 . S
H1120 C1134 0.930 . S
H1121 C1136 0.960 . S
H1122 C1136 0.960 . S
H1123 C1136 0.960 . S
C1124 H1116 0.929 . S
C1124 C1125 1.377 . S
C1124 C1126 1.384 . S
C1125 C1124 1.377 . S
C1125 C1131 1.390 . S
C1126 H1117 0.930 . S
C1126 C1124 1.384 . S
C1126 C1127 1.372 . S
C1127 C1126 1.372 . S
C1127 C1128 1.400 . S
C1127 C1132 1.490 . S
C1128 H1118 0.930 . S
C1128 C1127 1.400 . S
C1128 C1131 1.386 . S
H1129 C1145 0.930 . S
H1130 C1146 0.931 . S
C1131 H1119 0.929 . S
C1131 C1125 1.390 . S
C1131 C1128 1.386 . S
C1132 C1127 1.490 . S
C1132 C1134 1.395 . S
C1132 C1135 1.403 . S
H1133 C1139 0.930 . S
C1134 H1120 0.930 . S
C1134 C1132 1.395 . S
C1134 C1137 1.403 . S
C1135 C1132 1.403 . S
C1135 C1136 1.524 . S
C1135 C1139 1.400 . S
C1136 H1121 0.960 . S
C1136 H1122 0.960 . S
C1136 H1123 0.960 . S
C1136 C1135 1.524 . S
C1137 C1134 1.403 . S
C1137 C1138 1.392 . S
C1137 C1141 1.495 . S
C1138 C1137 1.392 . S
C1138 C1139 1.385 . S
C1138 C1140 1.478 . S
C1139 H1133 0.930 . S
C1139 C1135 1.400 . S
C1139 C1138 1.385 . S
C1140 C1138 1.478 . S
C1140 C1142 1.381 . S
C1140 C1146 1.383 . S
C1141 C1137 1.495 . S
C1141 H1147 0.959 . S
C1141 H1148 0.961 . S
C1141 H1149 0.960 . S
C1142 C1140 1.381 . S
C1142 C1143 1.394 . S
C1142 H1150 0.930 . S
C1143 C1142 1.394 . S
C1143 C1144 1.383 . S
C1143 H1151 0.929 . S
C1144 C1143 1.383 . S
C1144 C1145 1.377 . S
C1145 H1129 0.930 . S
C1145 C1144 1.377 . S
C1145 C1146 1.379 . S
C1146 H1130 0.931 . S
C1146 C1140 1.383 . S
C1146 C1145 1.379 . S
H1147 C1141 0.959 . S
H1148 C1141 0.961 . S
H1149 C1141 0.960 . S
H1150 C1142 0.930 . S
H1151 C1143 0.929 . S
H1152 C1160 0.929 . S
H1153 C1162 0.930 . S
H1154 C1164 0.930 . S
H1155 C1167 0.929 . S
H1156 C1170 0.930 . S
H1157 C1172 0.960 . S
H1158 C1172 0.960 . S
H1159 C1172 0.960 . S
C1160 H1152 0.929 . S
C1160 C1161 1.377 . S
C1160 C1162 1.384 . S
C1161 C1160 1.377 . S
C1161 C1167 1.390 . S
C1162 H1153 0.930 . S
C1162 C1160 1.384 . S
C1162 C1163 1.372 . S
C1163 C1162 1.372 . S
C1163 C1164 1.400 . S
C1163 C1168 1.490 . S
C1164 H1154 0.930 . S
C1164 C1163 1.400 . S
C1164 C1167 1.386 . S
H1165 C1181 0.930 . S
H1166 C1182 0.931 . S
C1167 H1155 0.929 . S
C1167 C1161 1.390 . S
C1167 C1164 1.386 . S
C1168 C1163 1.490 . S
C1168 C1170 1.395 . S
C1168 C1171 1.403 . S
H1169 C1175 0.930 . S
C1170 H1156 0.930 . S
C1170 C1168 1.395 . S
C1170 C1173 1.403 . S
C1171 C1168 1.403 . S
C1171 C1172 1.524 . S
C1171 C1175 1.400 . S
C1172 H1157 0.960 . S
C1172 H1158 0.960 . S
C1172 H1159 0.960 . S
C1172 C1171 1.524 . S
C1173 C1170 1.403 . S
C1173 C1174 1.392 . S
C1173 C1177 1.495 . S
C1174 C1173 1.392 . S
C1174 C1175 1.385 . S
C1174 C1176 1.478 . S
C1175 H1169 0.930 . S
C1175 C1171 1.400 . S
C1175 C1174 1.385 . S
C1176 C1174 1.478 . S
C1176 C1178 1.381 . S
C1176 C1182 1.383 . S
C1177 C1173 1.495 . S
C1177 H1183 0.959 . S
C1177 H1184 0.961 . S
C1177 H1185 0.960 . S
C1178 C1176 1.381 . S
C1178 C1179 1.394 . S
C1178 H1186 0.930 . S
C1179 C1178 1.394 . S
C1179 C1180 1.383 . S
C1179 H1187 0.929 . S
C1180 C1179 1.383 . S
C1180 C1181 1.377 . S
C1181 H1165 0.930 . S
C1181 C1180 1.377 . S
C1181 C1182 1.379 . S
C1182 H1166 0.931 . S
C1182 C1176 1.383 . S
C1182 C1181 1.379 . S
H1183 C1177 0.959 . S
H1184 C1177 0.961 . S
H1185 C1177 0.960 . S
H1186 C1178 0.930 . S
H1187 C1179 0.929 . S
H1188 C1196 0.929 . S
H1189 C1198 0.930 . S
H1190 C1200 0.930 . S
H1191 C1203 0.929 . S
H1192 C1206 0.930 . S
H1193 C1208 0.960 . S
H1194 C1208 0.960 . S
H1195 C1208 0.960 . S
C1196 H1188 0.929 . S
C1196 C1197 1.377 . S
C1196 C1198 1.384 . S
C1197 C1196 1.377 . S
C1197 C1203 1.390 . S
C1198 H1189 0.930 . S
C1198 C1196 1.384 . S
C1198 C1199 1.372 . S
C1199 C1198 1.372 . S
C1199 C1200 1.400 . S
C1199 C1204 1.490 . S
C1200 H1190 0.930 . S
C1200 C1199 1.400 . S
C1200 C1203 1.386 . S
H1201 C1217 0.930 . S
H1202 C1218 0.931 . S
C1203 H1191 0.929 . S
C1203 C1197 1.390 . S
C1203 C1200 1.386 . S
C1204 C1199 1.490 . S
C1204 C1206 1.395 . S
C1204 C1207 1.403 . S
H1205 C1211 0.930 . S
C1206 H1192 0.930 . S
C1206 C1204 1.395 . S
C1206 C1209 1.403 . S
C1207 C1204 1.403 . S
C1207 C1208 1.524 . S
C1207 C1211 1.400 . S
C1208 H1193 0.960 . S
C1208 H1194 0.960 . S
C1208 H1195 0.960 . S
C1208 C1207 1.524 . S
C1209 C1206 1.403 . S
C1209 C1210 1.392 . S
C1209 C1213 1.495 . S
C1210 C1209 1.392 . S
C1210 C1211 1.385 . S
C1210 C1212 1.478 . S
C1211 H1205 0.930 . S
C1211 C1207 1.400 . S
C1211 C1210 1.385 . S
C1212 C1210 1.478 . S
C1212 C1214 1.381 . S
C1212 C1218 1.383 . S
C1213 C1209 1.495 . S
C1213 H1219 0.959 . S
C1213 H1220 0.961 . S
C1213 H1221 0.960 . S
C1214 C1212 1.381 . S
C1214 C1215 1.394 . S
C1214 H1222 0.930 . S
C1215 C1214 1.394 . S
C1215 C1216 1.383 . S
C1215 H1223 0.929 . S
C1216 C1215 1.383 . S
C1216 C1217 1.377 . S
C1217 H1201 0.930 . S
C1217 C1216 1.377 . S
C1217 C1218 1.379 . S
C1218 H1202 0.931 . S
C1218 C1212 1.383 . S
C1218 C1217 1.379 . S
H1219 C1213 0.959 . S
H1220 C1213 0.961 . S
H1221 C1213 0.960 . S
H1222 C1214 0.930 . S
H1223 C1215 0.929 . S
H1224 C1232 0.929 . S
H1225 C1234 0.930 . S
H1226 C1236 0.930 . S
H1227 C1239 0.929 . S
H1228 C1242 0.930 . S
H1229 C1244 0.960 . S
H1230 C1244 0.960 . S
H1231 C1244 0.960 . S
C1232 H1224 0.929 . S
C1232 C1233 1.377 . S
C1232 C1234 1.384 . S
C1233 C1232 1.377 . S
C1233 C1239 1.390 . S
C1234 H1225 0.930 . S
C1234 C1232 1.384 . S
C1234 C1235 1.372 . S
C1235 C1234 1.372 . S
C1235 C1236 1.400 . S
C1235 C1240 1.490 . S
C1236 H1226 0.930 . S
C1236 C1235 1.400 . S
C1236 C1239 1.386 . S
H1237 C1253 0.930 . S
H1238 C1254 0.931 . S
C1239 H1227 0.929 . S
C1239 C1233 1.390 . S
C1239 C1236 1.386 . S
C1240 C1235 1.490 . S
C1240 C1242 1.395 . S
C1240 C1243 1.403 . S
H1241 C1247 0.930 . S
C1242 H1228 0.930 . S
C1242 C1240 1.395 . S
C1242 C1245 1.403 . S
C1243 C1240 1.403 . S
C1243 C1244 1.524 . S
C1243 C1247 1.400 . S
C1244 H1229 0.960 . S
C1244 H1230 0.960 . S
C1244 H1231 0.960 . S
C1244 C1243 1.524 . S
C1245 C1242 1.403 . S
C1245 C1246 1.392 . S
C1245 C1249 1.495 . S
C1246 C1245 1.392 . S
C1246 C1247 1.385 . S
C1246 C1248 1.478 . S
C1247 H1241 0.930 . S
C1247 C1243 1.400 . S
C1247 C1246 1.385 . S
C1248 C1246 1.478 . S
C1248 C1250 1.381 . S
C1248 C1254 1.383 . S
C1249 C1245 1.495 . S
C1249 H1255 0.959 . S
C1249 H1256 0.961 . S
C1249 H1257 0.960 . S
C1250 C1248 1.381 . S
C1250 C1251 1.394 . S
C1250 H1258 0.930 . S
C1251 C1250 1.394 . S
C1251 C1252 1.383 . S
C1251 H1259 0.929 . S
C1252 C1251 1.383 . S
C1252 C1253 1.377 . S
C1253 H1237 0.930 . S
C1253 C1252 1.377 . S
C1253 C1254 1.379 . S
C1254 H1238 0.931 . S
C1254 C1248 1.383 . S
C1254 C1253 1.379 . S
H1255 C1249 0.959 . S
H1256 C1249 0.961 . S
H1257 C1249 0.960 . S
H1258 C1250 0.930 . S
H1259 C1251 0.929 . S
H1260 C1268 0.929 . S
H1261 C1270 0.930 . S
H1262 C1272 0.930 . S
H1263 C1275 0.929 . S
H1264 C1278 0.930 . S
H1265 C1280 0.960 . S
H1266 C1280 0.960 . S
H1267 C1280 0.960 . S
C1268 H1260 0.929 . S
C1268 C1269 1.377 . S
C1268 C1270 1.384 . S
C1269 C1268 1.377 . S
C1269 C1275 1.390 1_554 S
C1270 H1261 0.930 . S
C1270 C1268 1.384 . S
C1270 C1271 1.372 . S
C1271 C1270 1.372 . S
C1271 C1272 1.400 1_554 S
C1271 C1276 1.490 . S
C1272 H1262 0.930 . S
C1272 C1271 1.400 1_556 S
C1272 C1275 1.386 . S
H1273 C1289 0.930 . S
H1274 C1290 0.931 . S
C1275 H1263 0.929 . S
C1275 C1269 1.390 1_556 S
C1275 C1272 1.386 . S
C1276 C1271 1.490 . S
C1276 C1278 1.395 1_554 S
C1276 C1279 1.403 . S
H1277 C1283 0.930 . S
C1278 H1264 0.930 . S
C1278 C1276 1.395 1_556 S
C1278 C1281 1.404 1_455 S
C1279 C1276 1.403 . S
C1279 C1280 1.524 . S
C1279 C1283 1.400 1_455 S
C1280 H1265 0.960 . S
C1280 H1266 0.960 . S
C1280 H1267 0.960 . S
C1280 C1279 1.524 . S
C1281 C1278 1.404 1_655 S
C1281 C1282 1.388 1_556 S
C1281 C1285 1.500 . S
C1282 C1281 1.388 1_554 S
C1282 C1283 1.385 . S
C1282 C1284 1.478 . S
C1283 H1277 0.930 . S
C1283 C1279 1.400 1_655 S
C1283 C1282 1.385 . S
C1284 C1282 1.478 . S
C1284 C1286 1.381 . S
C1284 C1290 1.383 1_554 S
C1285 C1281 1.500 . S
C1285 H1291 0.959 . S
C1285 H1292 0.961 . S
C1285 H1293 0.960 1_556 S
C1286 C1284 1.381 . S
C1286 C1287 1.394 . S
C1286 H1294 0.930 . S
C1287 C1286 1.394 . S
C1287 C1288 1.383 . S
C1287 H1295 0.929 . S
C1288 C1287 1.383 . S
C1288 C1289 1.377 1_554 S
C1289 H1273 0.930 . S
C1289 C1288 1.377 1_556 S
C1289 C1290 1.379 . S
C1290 H1274 0.931 . S
C1290 C1284 1.383 1_556 S
C1290 C1289 1.379 . S
H1291 C1285 0.959 . S
H1292 C1285 0.961 . S
H1293 C1285 0.960 1_554 S
H1294 C1286 0.930 . S
H1295 C1287 0.929 . S
H1296 C1304 0.929 1_556 S
H1297 C1306 0.929 . S
H1298 C1308 0.930 . S
H1299 C1311 0.929 . S
H1300 C1314 0.930 . S
H1301 C1316 0.960 . S
H1302 C1316 0.960 . S
H1303 C1316 0.960 . S
C1304 H1296 0.929 1_554 S
C1304 C1305 1.377 . S
C1304 C1306 1.384 1_554 S
C1305 C1304 1.377 . S
C1305 C1311 1.390 . S
C1306 H1297 0.929 . S
C1306 C1304 1.384 1_556 S
C1306 C1307 1.372 1_556 S
C1307 C1306 1.372 1_554 S
C1307 C1308 1.400 . S
C1307 C1312 1.490 . S
C1308 H1298 0.930 . S
C1308 C1307 1.400 . S
C1308 C1311 1.386 . S
H1309 C1325 0.930 . S
H1310 C1326 0.931 . S
C1311 H1299 0.929 . S
C1311 C1305 1.390 . S
C1311 C1308 1.386 . S
C1312 C1307 1.490 . S
C1312 C1314 1.395 1_554 S
C1312 C1315 1.403 . S
H1313 C1319 0.930 . S
C1314 H1300 0.930 . S
C1314 C1312 1.395 1_556 S
C1314 C1317 1.403 1_565 S
C1315 C1312 1.403 . S
C1315 C1316 1.524 . S
C1315 C1319 1.400 1_565 S
C1316 H1301 0.960 . S
C1316 H1302 0.960 . S
C1316 H1303 0.960 . S
C1316 C1315 1.524 . S
C1317 C1314 1.403 1_545 S
C1317 C1318 1.392 1_556 S
C1317 C1321 1.495 . S
C1318 C1317 1.392 1_554 S
C1318 C1319 1.385 . S
C1318 C1320 1.478 1_554 S
C1319 H1313 0.930 . S
C1319 C1315 1.400 1_545 S
C1319 C1318 1.385 . S
C1320 C1318 1.478 1_556 S
C1320 C1322 1.381 . S
C1320 C1326 1.383 1_556 S
C1321 C1317 1.495 . S
C1321 H1327 0.959 . S
C1321 H1328 0.961 . S
C1321 H1329 0.960 . S
C1322 C1320 1.381 . S
C1322 C1323 1.394 . S
C1322 H1330 0.930 . S
C1323 C1322 1.394 . S
C1323 C1324 1.383 . S
C1323 H1331 0.929 . S
C1324 C1323 1.383 . S
C1324 C1325 1.377 1_556 S
C1325 H1309 0.930 . S
C1325 C1324 1.377 1_554 S
C1325 C1326 1.379 . S
C1326 H1310 0.931 . S
C1326 C1320 1.383 1_554 S
C1326 C1325 1.379 . S
H1327 C1321 0.959 . S
H1328 C1321 0.961 . S
H1329 C1321 0.960 . S
H1330 C1322 0.930 . S
H1331 C1323 0.929 . S
H1332 C1340 0.929 . S
H1333 C1342 0.930 . S
H1334 C1344 0.930 . S
H1335 C1347 0.929 . S
H1336 C1350 0.930 . S
H1337 C1352 0.960 . S
H1338 C1352 0.960 . S
H1339 C1352 0.960 . S
C1340 H1332 0.929 . S
C1340 C1341 1.377 . S
C1340 C1342 1.384 . S
C1341 C1340 1.377 . S
C1341 C1347 1.390 . S
C1342 H1333 0.930 . S
C1342 C1340 1.384 . S
C1342 C1343 1.372 . S
C1343 C1342 1.372 . S
C1343 C1344 1.400 . S
C1343 C1348 1.490 . S
C1344 H1334 0.930 . S
C1344 C1343 1.400 . S
C1344 C1347 1.386 . S
H1345 C1361 0.930 . S
H1346 C1362 0.931 . S
C1347 H1335 0.929 . S
C1347 C1341 1.390 . S
C1347 C1344 1.386 . S
C1348 C1343 1.490 . S
C1348 C1350 1.395 . S
C1348 C1351 1.403 1_554 S
H1349 C1355 0.930 . S
C1350 H1336 0.930 . S
C1350 C1348 1.395 . S
C1350 C1353 1.403 . S
C1351 C1348 1.403 1_556 S
C1351 C1352 1.524 . S
C1351 C1355 1.400 . S
C1352 H1337 0.960 . S
C1352 H1338 0.960 . S
C1352 H1339 0.960 . S
C1352 C1351 1.524 . S
C1353 C1350 1.403 . S
C1353 C1354 1.392 . S
C1353 C1357 1.495 . S
C1354 C1353 1.392 . S
C1354 C1355 1.385 1_554 S
C1354 C1356 1.478 . S
C1355 H1349 0.930 . S
C1355 C1351 1.400 . S
C1355 C1354 1.385 1_556 S
C1356 C1354 1.478 . S
C1356 C1358 1.381 . S
C1356 C1362 1.383 . S
C1357 C1353 1.495 . S
C1357 H1363 0.959 . S
C1357 H1364 0.961 . S
C1357 H1365 0.960 . S
C1358 C1356 1.381 . S
C1358 C1359 1.394 1_554 S
C1358 H1366 0.930 1_554 S
C1359 C1358 1.394 1_556 S
C1359 C1360 1.383 1_556 S
C1359 H1367 0.929 . S
C1360 C1359 1.383 1_554 S
C1360 C1361 1.377 . S
C1361 H1345 0.930 . S
C1361 C1360 1.377 . S
C1361 C1362 1.379 . S
C1362 H1346 0.931 . S
C1362 C1356 1.383 . S
C1362 C1361 1.379 . S
H1363 C1357 0.959 . S
H1364 C1357 0.961 . S
H1365 C1357 0.960 . S
H1366 C1358 0.930 1_556 S
H1367 C1359 0.929 . S
H1368 C1376 0.929 . S
H1369 C1378 0.930 . S
H1370 C1380 0.930 . S
H1371 C1383 0.929 . S
H1372 C1386 0.930 . S
H1373 C1388 0.960 . S
H1374 C1388 0.960 . S
H1375 C1388 0.960 . S
C1376 H1368 0.929 . S
C1376 C1377 1.377 1_556 S
C1376 C1378 1.384 . S
C1377 C1376 1.377 1_554 S
C1377 C1383 1.390 . S
C1378 H1369 0.930 . S
C1378 C1376 1.384 . S
C1378 C1379 1.372 1_556 S
C1379 C1378 1.372 1_554 S
C1379 C1380 1.400 . S
C1379 C1384 1.490 . S
C1380 H1370 0.930 . S
C1380 C1379 1.400 . S
C1380 C1383 1.386 . S
H1381 C1397 0.930 . S
H1382 C1398 0.931 . S
C1383 H1371 0.929 . S
C1383 C1377 1.390 . S
C1383 C1380 1.386 . S
C1384 C1379 1.490 . S
C1384 C1386 1.395 1_554 S
C1384 C1387 1.403 . S
H1385 C1391 0.930 . S
C1386 H1372 0.930 . S
C1386 C1384 1.395 1_556 S
C1386 C1389 1.403 1_455 S
C1387 C1384 1.403 . S
C1387 C1388 1.524 . S
C1387 C1391 1.400 1_455 S
C1388 H1373 0.960 . S
C1388 H1374 0.960 . S
C1388 H1375 0.960 . S
C1388 C1387 1.524 . S
C1389 C1386 1.403 1_655 S
C1389 C1390 1.392 1_556 S
C1389 C1393 1.495 . S
C1390 C1389 1.392 1_554 S
C1390 C1391 1.385 . S
C1390 C1392 1.478 . S
C1391 H1385 0.930 . S
C1391 C1387 1.400 1_655 S
C1391 C1390 1.385 . S
C1392 C1390 1.478 . S
C1392 C1394 1.378 1_554 S
C1392 C1398 1.386 . S
C1393 C1389 1.495 . S
C1393 H1399 0.959 . S
C1393 H1400 0.961 . S
C1393 H1401 0.960 . S
C1394 C1392 1.378 1_556 S
C1394 C1395 1.394 . S
C1394 H1402 0.930 . S
C1395 C1394 1.394 . S
C1395 C1396 1.383 . S
C1395 H1403 0.929 . S
C1396 C1395 1.383 . S
C1396 C1397 1.377 1_556 S
C1397 H1381 0.930 . S
C1397 C1396 1.377 1_554 S
C1397 C1398 1.379 . S
C1398 H1382 0.931 . S
C1398 C1392 1.386 . S
C1398 C1397 1.379 . S
H1399 C1393 0.959 . S
H1400 C1393 0.961 . S
H1401 C1393 0.960 . S
H1402 C1394 0.930 . S
H1403 C1395 0.929 . S
H1404 C1412 0.929 . S
H1405 C1414 0.930 . S
H1406 C1416 0.930 . S
H1407 C1419 0.929 . S
H1408 C1422 0.930 . S
H1409 C1424 0.960 . S
H1410 C1424 0.960 . S
H1411 C1424 0.960 . S
C1412 H1404 0.929 . S
C1412 C1413 1.377 1_556 S
C1412 C1414 1.384 . S
C1413 C1412 1.377 1_554 S
C1413 C1419 1.390 . S
C1414 H1405 0.930 . S
C1414 C1412 1.384 . S
C1414 C1415 1.372 1_556 S
C1415 C1414 1.372 1_554 S
C1415 C1416 1.400 . S
C1415 C1420 1.490 . S
C1416 H1406 0.930 . S
C1416 C1415 1.400 . S
C1416 C1419 1.386 . S
H1417 C1433 0.930 . S
H1418 C1434 0.931 . S
C1419 H1407 0.929 . S
C1419 C1413 1.390 . S
C1419 C1416 1.386 . S
C1420 C1415 1.490 . S
C1420 C1422 1.395 1_554 S
C1420 C1423 1.403 . S
H1421 C1427 0.930 . S
C1422 H1408 0.930 . S
C1422 C1420 1.395 1_556 S
C1422 C1425 1.403 1_565 S
C1423 C1420 1.403 . S
C1423 C1424 1.524 . S
C1423 C1427 1.400 1_565 S
C1424 H1409 0.960 . S
C1424 H1410 0.960 . S
C1424 H1411 0.960 . S
C1424 C1423 1.524 . S
C1425 C1422 1.403 1_545 S
C1425 C1426 1.392 1_556 S
C1425 C1429 1.495 . S
C1426 C1425 1.392 1_554 S
C1426 C1427 1.385 . S
C1426 C1428 1.478 . S
C1427 H1421 0.930 . S
C1427 C1423 1.400 1_545 S
C1427 C1426 1.385 . S
C1428 C1426 1.478 . S
C1428 C1430 1.381 . S
C1428 C1434 1.383 . S
C1429 C1425 1.495 . S
C1429 H1435 0.959 . S
C1429 H1436 0.961 . S
C1429 H1437 0.960 . S
C1430 C1428 1.381 . S
C1430 C1431 1.394 . S
C1430 H1438 0.930 1_554 S
C1431 C1430 1.394 . S
C1431 C1432 1.383 . S
C1431 H1439 0.929 . S
C1432 C1431 1.383 . S
C1432 C1433 1.377 . S
C1433 H1417 0.930 . S
C1433 C1432 1.377 . S
C1433 C1434 1.379 . S
C1434 H1418 0.931 . S
C1434 C1428 1.383 . S
C1434 C1433 1.379 . S
H1435 C1429 0.959 . S
H1436 C1429 0.961 . S
H1437 C1429 0.960 . S
H1438 C1430 0.930 1_556 S
H1439 C1431 0.929 . S
H1440 C1448 0.929 . S
H1441 C1450 0.930 . S
H1442 C1452 0.930 . S
H1443 C1455 0.929 . S
H1444 C1458 0.930 . S
H1445 C1460 0.960 . S
H1446 C1460 0.960 . S
H1447 C1460 0.960 . S
C1448 H1440 0.929 . S
C1448 C1449 1.377 1_556 S
C1448 C1450 1.384 . S
C1449 C1448 1.377 1_554 S
C1449 C1455 1.390 . S
C1450 H1441 0.930 . S
C1450 C1448 1.384 . S
C1450 C1451 1.372 1_556 S
C1451 C1450 1.372 1_554 S
C1451 C1452 1.400 . S
C1451 C1456 1.490 . S
C1452 H1442 0.930 . S
C1452 C1451 1.400 . S
C1452 C1455 1.386 . S
H1453 C1469 0.930 . S
H1454 C1470 0.931 . S
C1455 H1443 0.929 . S
C1455 C1449 1.390 . S
C1455 C1452 1.386 . S
C1456 C1451 1.490 . S
C1456 C1458 1.395 1_554 S
C1456 C1459 1.403 . S
H1457 C1463 0.930 . S
C1458 H1444 0.930 . S
C1458 C1456 1.395 1_556 S
C1458 C1461 1.403 . S
C1459 C1456 1.403 . S
C1459 C1460 1.524 . S
C1459 C1463 1.400 . S
C1460 H1445 0.960 . S
C1460 H1446 0.960 . S
C1460 H1447 0.960 . S
C1460 C1459 1.524 . S
C1461 C1458 1.403 . S
C1461 C1462 1.392 1_556 S
C1461 C1465 1.495 . S
C1462 C1461 1.392 1_554 S
C1462 C1463 1.385 . S
C1462 C1464 1.478 1_554 S
C1463 H1457 0.930 . S
C1463 C1459 1.400 . S
C1463 C1462 1.385 . S
C1464 C1462 1.478 1_556 S
C1464 C1466 1.381 . S
C1464 C1470 1.382 1_556 S
C1465 C1461 1.495 . S
C1465 H1471 0.959 . S
C1465 H1472 0.961 . S
C1465 H1473 0.960 . S
C1466 C1464 1.381 . S
C1466 C1467 1.394 . S
C1466 H1474 0.930 . S
C1467 C1466 1.394 . S
C1467 C1468 1.383 . S
C1467 H1475 0.929 . S
C1468 C1467 1.383 . S
C1468 C1469 1.377 1_556 S
C1469 H1453 0.930 . S
C1469 C1468 1.377 1_554 S
C1469 C1470 1.379 . S
C1470 H1454 0.931 . S
C1470 C1464 1.382 1_554 S
C1470 C1469 1.379 . S
H1471 C1465 0.959 . S
H1472 C1465 0.961 . S
H1473 C1465 0.960 . S
H1474 C1466 0.930 . S
H1475 C1467 0.929 . S
C405 C281 1.626 . S
C424 C17 1.615 . S
C441 C50 1.626 . S
C460 C314 1.614 . S
C477 C347 1.625 . S
C496 C83 1.615 . S
C513 C380 1.623 . S
C532 C116 1.627 . S
C549 C149 1.625 . S
C568 C215 1.615 . S
C585 C248 1.623 . S
C604 C182 1.627 . S
C621 C358 1.020 . S
C640 C28 1.005 . S
C657 C391 1.024 . S
C676 C61 1.026 . S
C693 C94 1.020 . S
C712 C226 1.009 . S
C729 C259 1.026 . S
C748 C127 1.038 . S
C765 C292 1.020 . S
C784 C160 1.006 . S
C801 C325 1.027 . S
C820 C193 1.037 . S
C837 N5 1.474 . S
C856 N14 1.449 . S
C873 N38 1.464 . S
C892 N47 1.445 . S
C909 N71 1.465 . S
C928 N80 1.439 . S
C945 N104 1.469 . S
C964 N113 1.432 . S
C981 N146 1.464 . S
C1000 N137 1.493 . S
C1017 N170 1.470 . S
C1036 N179 1.487 . S
C1053 N212 1.469 . S
C1072 N203 1.469 . S
C1089 N236 1.467 . S
C1108 N245 1.431 . S
C1125 N278 1.457 . S
C1144 N269 1.462 . S
C1161 N311 1.458 . S
C1180 N302 1.470 . S
C1197 N335 1.465 . S
C1216 N344 1.466 . S
C1233 N368 1.475 . S
C1252 N377 1.461 . S
C1269 C8 1.064 . S
C1288 C371 1.035 . S
C1305 C206 1.073 . S
C1324 C41 1.071 1_556 S
C1341 C239 1.061 . S
C1360 C74 1.041 . S
C1377 C272 1.072 . S
C1396 C107 1.056 1_556 S
C1413 C140 1.060 . S
C1432 C305 1.053 . S
C1449 C338 1.071 . S
C1468 C173 1.057 1_556 S
