# Generated by pormake.
# Topology yfk, (5)-cn, num edge types: 1
# Building blocks:
#     Node 0, Type 0, BuildingBlock: BEQFEK_clean_sbu_0, # of connection points: 5
#     Node 1, Type 0, BuildingBlock: BEQFEK_clean_sbu_0, # of connection points: 5
#     Node 2, Type 0, BuildingBlock: BEQFEK_clean_sbu_0, # of connection points: 5
#     Node 3, Type 0, BuildingBlock: BEQFEK_clean_sbu_0, # of connection points: 5
#     Node 4, Type 0, BuildingBlock: BEQFEK_clean_sbu_0, # of connection points: 5
#     Node 5, Type 0, BuildingBlock: BEQFEK_clean_sbu_0, # of connection points: 5
#     Node 6, Type 0, BuildingBlock: BEQFEK_clean_sbu_0, # of connection points: 5
#     Node 7, Type 0, BuildingBlock: BEQFEK_clean_sbu_0, # of connection points: 5
#     Node 8, Type 0, BuildingBlock: BEQFEK_clean_sbu_0, # of connection points: 5
#     Node 9, Type 0, BuildingBlock: BEQFEK_clean_sbu_0, # of connection points: 5
#     Node 10, Type 0, BuildingBlock: BEQFEK_clean_sbu_0, # of connection points: 5
#     Node 11, Type 0, BuildingBlock: BEQFEK_clean_sbu_0, # of connection points: 5
#     Node 12, Type 0, BuildingBlock: BEQFEK_clean_sbu_0, # of connection points: 5
#     Node 13, Type 0, BuildingBlock: BEQFEK_clean_sbu_0, # of connection points: 5
#     Node 14, Type 0, BuildingBlock: BEQFEK_clean_sbu_0, # of connection points: 5
#     Node 15, Type 0, BuildingBlock: BEQFEK_clean_sbu_0, # of connection points: 5
#     Edge 16, Type (0, 0), BuildingBlock: ZUJKAS_clean_linker_0, # of connection points: 2
#     Edge 17, Type (0, 0), BuildingBlock: ZUJKAS_clean_linker_0, # of connection points: 2
#     Edge 18, Type (0, 0), BuildingBlock: ZUJKAS_clean_linker_0, # of connection points: 2
#     Edge 19, Type (0, 0), BuildingBlock: ZUJKAS_clean_linker_0, # of connection points: 2
#     Edge 20, Type (0, 0), BuildingBlock: ZUJKAS_clean_linker_0, # of connection points: 2
#     Edge 21, Type (0, 0), BuildingBlock: ZUJKAS_clean_linker_0, # of connection points: 2
#     Edge 22, Type (0, 0), BuildingBlock: ZUJKAS_clean_linker_0, # of connection points: 2
#     Edge 23, Type (0, 0), BuildingBlock: ZUJKAS_clean_linker_0, # of connection points: 2
#     Edge 24, Type (0, 0), BuildingBlock: ZUJKAS_clean_linker_0, # of connection points: 2
#     Edge 25, Type (0, 0), BuildingBlock: ZUJKAS_clean_linker_0, # of connection points: 2
#     Edge 26, Type (0, 0), BuildingBlock: ZUJKAS_clean_linker_0, # of connection points: 2
#     Edge 27, Type (0, 0), BuildingBlock: ZUJKAS_clean_linker_0, # of connection points: 2
#     Edge 28, Type (0, 0), BuildingBlock: ZUJKAS_clean_linker_0, # of connection points: 2
#     Edge 29, Type (0, 0), BuildingBlock: ZUJKAS_clean_linker_0, # of connection points: 2
#     Edge 30, Type (0, 0), BuildingBlock: ZUJKAS_clean_linker_0, # of connection points: 2
#     Edge 31, Type (0, 0), BuildingBlock: ZUJKAS_clean_linker_0, # of connection points: 2
#     Edge 32, Type (0, 0), BuildingBlock: ZUJKAS_clean_linker_0, # of connection points: 2
#     Edge 33, Type (0, 0), BuildingBlock: ZUJKAS_clean_linker_0, # of connection points: 2
#     Edge 34, Type (0, 0), BuildingBlock: ZUJKAS_clean_linker_0, # of connection points: 2
#     Edge 35, Type (0, 0), BuildingBlock: ZUJKAS_clean_linker_0, # of connection points: 2
#     Edge 36, Type (0, 0), BuildingBlock: ZUJKAS_clean_linker_0, # of connection points: 2
#     Edge 37, Type (0, 0), BuildingBlock: ZUJKAS_clean_linker_0, # of connection points: 2
#     Edge 38, Type (0, 0), BuildingBlock: ZUJKAS_clean_linker_0, # of connection points: 2
#     Edge 39, Type (0, 0), BuildingBlock: ZUJKAS_clean_linker_0, # of connection points: 2
#     Edge 40, Type (0, 0), BuildingBlock: ZUJKAS_clean_linker_0, # of connection points: 2
#     Edge 41, Type (0, 0), BuildingBlock: ZUJKAS_clean_linker_0, # of connection points: 2
#     Edge 42, Type (0, 0), BuildingBlock: ZUJKAS_clean_linker_0, # of connection points: 2
#     Edge 43, Type (0, 0), BuildingBlock: ZUJKAS_clean_linker_0, # of connection points: 2
#     Edge 44, Type (0, 0), BuildingBlock: ZUJKAS_clean_linker_0, # of connection points: 2
#     Edge 45, Type (0, 0), BuildingBlock: ZUJKAS_clean_linker_0, # of connection points: 2
#     Edge 46, Type (0, 0), BuildingBlock: ZUJKAS_clean_linker_0, # of connection points: 2
#     Edge 47, Type (0, 0), BuildingBlock: ZUJKAS_clean_linker_0, # of connection points: 2
#     Edge 48, Type (0, 0), BuildingBlock: ZUJKAS_clean_linker_0, # of connection points: 2
#     Edge 49, Type (0, 0), BuildingBlock: ZUJKAS_clean_linker_0, # of connection points: 2
#     Edge 50, Type (0, 0), BuildingBlock: ZUJKAS_clean_linker_0, # of connection points: 2
#     Edge 51, Type (0, 0), BuildingBlock: ZUJKAS_clean_linker_0, # of connection points: 2
#     Edge 52, Type (0, 0), BuildingBlock: ZUJKAS_clean_linker_0, # of connection points: 2
#     Edge 53, Type (0, 0), BuildingBlock: ZUJKAS_clean_linker_0, # of connection points: 2
#     Edge 54, Type (0, 0), BuildingBlock: ZUJKAS_clean_linker_0, # of connection points: 2
#     Edge 55, Type (0, 0), BuildingBlock: ZUJKAS_clean_linker_0, # of connection points: 2
# Relax obj value: 0.369
# Max RMSD: 0.206
# Mean RMSD: 0.206
data_MOF--net-yfk--node1-BEQFEK_clean_sbu_0--edge1-ZUJKAS_clean_linker_0
_symmetry_space_group_name_H-M    P1
_symmetry_Int_Tables_number       1
_symmetry_cell_setting            triclinic
loop_
_symmetry_equiv_pos_as_xyz
'x, y, z'
_cell_length_a     66.956546
_cell_length_b     66.954193
_cell_length_c     35.735261
_cell_angle_alpha  89.987365
_cell_angle_beta   90.003587
_cell_angle_gamma 90.001212
loop_
_atom_site_label
_atom_site_type_symbol
_atom_site_fract_x
_atom_site_fract_y
_atom_site_fract_z
_atom_type_partial_charge
Co0 Co 0.10364 0.06333 0.30684 0.0
Co1 Co 0.09603 0.10502 0.26997 0.0
C2 C 0.07758 0.06858 0.23805 0.0
O3 O 0.08641 0.05853 0.26329 0.0
O4 O 0.07923 0.08757 0.23624 0.0
C5 C 0.12248 0.0234 0.31703 0.0
O6 O 0.13422 0.02631 0.28812 0.0
C7 C 0.09298 0.14257 0.22403 0.0
C8 C 0.10061 0.16434 0.26835 0.0
C9 C 0.09573 0.16287 0.23086 0.0
N10 N 0.09624 0.1326 0.25621 0.0
N11 N 0.10059 0.14578 0.2825 0.0
C12 C 0.08852 0.13271 0.18747 0.0
H13 H 0.0943 0.11717 0.18741 0.0
H14 H 0.09517 0.14129 0.16399 0.0
H15 H 0.0721 0.13218 0.18345 0.0
C16 C 0.1453 0.07773 0.3046 0.0
N17 N 0.12604 0.0789 0.29403 0.0
N18 N 0.1231 0.09571 0.27567 0.0
C19 C 0.14076 0.10534 0.27259 0.0
C20 C 0.15538 0.09433 0.29101 0.0
C21 C 0.1529 0.06338 0.33347 0.0
H22 H 0.14043 0.05739 0.35046 0.0
H23 H 0.16072 0.05088 0.31935 0.0
H24 H 0.16373 0.07079 0.35246 0.0
O25 O 0.089 0.07694 0.34689 0.0
O26 O 0.08358 0.10631 0.32044 0.0
H27 H 0.1399 0.13723 0.27391 0.0
H28 H 0.1592 0.12706 0.24455 0.0
C29 C 0.1435 0.12513 0.25385 0.0
H30 H 0.13341 0.12635 0.22936 0.0
H31 H 0.10388 0.14204 0.31017 0.0
O32 O 0.1103 0.03685 0.3274 0.0
C33 C 0.08203 0.09456 0.34825 0.0
Co34 Co 0.05949 0.89702 0.68788 0.0
Co35 Co 0.10151 0.90446 0.72382 0.0
C36 C 0.06512 0.92346 0.75569 0.0
O37 O 0.0548 0.91466 0.73079 0.0
O38 O 0.08406 0.92136 0.7572 0.0
C39 C 0.01941 0.87841 0.6788 0.0
O40 O 0.02218 0.86725 0.70857 0.0
C41 C 0.13874 0.9068 0.7708 0.0
C42 C 0.16106 0.90464 0.72539 0.0
C43 C 0.15921 0.90681 0.76371 0.0
N44 N 0.12907 0.9047 0.73794 0.0
N45 N 0.14259 0.90337 0.7111 0.0
C46 C 0.12852 0.90956 0.80764 0.0
H47 H 0.11321 0.91545 0.80359 0.0
H48 H 0.12739 0.89488 0.82188 0.0
H49 H 0.13721 0.91984 0.82579 0.0
C50 C 0.07358 0.85526 0.69101 0.0
N51 N 0.07503 0.87458 0.7011 0.0
N52 N 0.09219 0.87749 0.71832 0.0
C53 C 0.10191 0.85986 0.72069 0.0
C54 C 0.09041 0.84521 0.70352 0.0
C55 C 0.05872 0.84752 0.66318 0.0
H56 H 0.05285 0.85984 0.64566 0.0
H57 H 0.04621 0.84026 0.67829 0.0
H58 H 0.06559 0.83619 0.64454 0.0
O59 O 0.07305 0.91148 0.64736 0.0
O60 O 0.10259 0.91672 0.67328 0.0
H61 H 0.13355 0.86268 0.71552 0.0
H62 H 0.1256 0.84143 0.74272 0.0
C63 C 0.12247 0.85734 0.73631 0.0
H64 H 0.12408 0.86635 0.76217 0.0
H65 H 0.13918 0.90167 0.68279 0.0
O66 O 0.03297 0.89025 0.66761 0.0
C67 C 0.09072 0.91831 0.64569 0.0
Co68 Co 0.89831 0.94113 0.30566 0.0
Co69 Co 0.90546 0.89944 0.2681 0.0
C70 C 0.92482 0.93606 0.23772 0.0
O71 O 0.91601 0.94608 0.26302 0.0
O72 O 0.92266 0.91713 0.23532 0.0
C73 C 0.88086 0.98178 0.31783 0.0
O74 O 0.86957 0.9804 0.28789 0.0
C75 C 0.90785 0.86198 0.22115 0.0
C76 C 0.90464 0.83993 0.26684 0.0
C77 C 0.90749 0.84153 0.22865 0.0
N78 N 0.90537 0.87186 0.25371 0.0
N79 N 0.90339 0.85849 0.28068 0.0
C80 C 0.91135 0.87192 0.18428 0.0
H81 H 0.91738 0.88718 0.18837 0.0
H82 H 0.89691 0.87315 0.1692 0.0
H83 H 0.92176 0.86296 0.1669 0.0
C84 C 0.85641 0.92766 0.30148 0.0
N85 N 0.87575 0.92602 0.29169 0.0
N86 N 0.87853 0.90901 0.27388 0.0
C87 C 0.86076 0.89959 0.27082 0.0
C88 C 0.84616 0.9111 0.2882 0.0
C89 C 0.84876 0.94249 0.32943 0.0
H90 H 0.86105 0.9479 0.34752 0.0
H91 H 0.84202 0.95532 0.3144 0.0
H92 H 0.83707 0.93577 0.34749 0.0
O93 O 0.91251 0.92698 0.3456 0.0
O94 O 0.91769 0.89772 0.31869 0.0
H95 H 0.86274 0.86782 0.27437 0.0
H96 H 0.84214 0.87671 0.24645 0.0
C97 C 0.85802 0.87934 0.25391 0.0
H98 H 0.86741 0.87791 0.2285 0.0
H99 H 0.90126 0.86206 0.30882 0.0
O100 O 0.89209 0.9674 0.3275 0.0
C101 C 0.91926 0.90928 0.34672 0.0
Co102 Co 0.9417 0.10654 0.69459 0.0
Co103 Co 0.89986 0.09669 0.72924 0.0
C104 C 0.93708 0.07921 0.76119 0.0
O105 O 0.94721 0.08889 0.73718 0.0
O106 O 0.91804 0.08014 0.76194 0.0
C107 C 0.98157 0.12634 0.68264 0.0
O108 O 0.97969 0.13783 0.7122 0.0
C109 C 0.8629 0.09335 0.77658 0.0
C110 C 0.8404 0.09293 0.73128 0.0
C111 C 0.84243 0.0921 0.76976 0.0
N112 N 0.87237 0.0949 0.74343 0.0
N113 N 0.85876 0.09465 0.71665 0.0
C114 C 0.87336 0.09245 0.8135 0.0
H115 H 0.88896 0.08725 0.80988 0.0
H116 H 0.87377 0.10764 0.82586 0.0
H117 H 0.86529 0.08239 0.83303 0.0
C118 C 0.92567 0.14759 0.69896 0.0
N119 N 0.92511 0.12813 0.70844 0.0
N120 N 0.9079 0.12417 0.72477 0.0
C121 C 0.89719 0.14123 0.72693 0.0
C122 C 0.90812 0.15661 0.71076 0.0
C123 C 0.94052 0.15636 0.67221 0.0
H124 H 0.9469 0.14459 0.65404 0.0
H125 H 0.95267 0.16363 0.68829 0.0
H126 H 0.93352 0.16788 0.65415 0.0
O127 O 0.92878 0.09188 0.65351 0.0
O128 O 0.89932 0.08505 0.67833 0.0
H129 H 0.86601 0.13579 0.71965 0.0
H130 H 0.87164 0.1582 0.74567 0.0
C131 C 0.87615 0.14246 0.74076 0.0
H132 H 0.87469 0.13394 0.76721 0.0
H133 H 0.86199 0.09573 0.68817 0.0
O134 O 0.96777 0.1143 0.67346 0.0
C135 C 0.91143 0.08435 0.65101 0.0
Co136 Co 0.10495 0.44271 0.94063 0.0
Co137 Co 0.09653 0.40111 0.97727 0.0
C138 C 0.07707 0.43769 0.00693 0.0
O139 O 0.08654 0.44759 0.98228 0.0
O140 O 0.07893 0.41873 0.00935 0.0
C141 C 0.12523 0.48187 0.93296 0.0
O142 O 0.13627 0.47804 0.96248 0.0
C143 C 0.09278 0.36378 0.02362 0.0
C144 C 0.10051 0.34176 0.97981 0.0
C145 C 0.0955 0.34344 0.0172 0.0
N146 N 0.09621 0.37357 0.99131 0.0
N147 N 0.1006 0.36024 0.96532 0.0
C148 C 0.08831 0.37384 0.05999 0.0
H149 H 0.09396 0.38943 0.05968 0.0
H150 H 0.09506 0.36544 0.08361 0.0
H151 H 0.07189 0.37425 0.0641 0.0
C152 C 0.14638 0.4277 0.94518 0.0
N153 N 0.12699 0.42692 0.95517 0.0
N154 N 0.12365 0.41028 0.97381 0.0
C155 C 0.14111 0.4004 0.97768 0.0
C156 C 0.15606 0.41104 0.95947 0.0
C157 C 0.15444 0.44155 0.91587 0.0
H158 H 0.14218 0.44773 0.89857 0.0
H159 H 0.16263 0.45393 0.92962 0.0
H160 H 0.16508 0.43365 0.89722 0.0
O161 O 0.0909 0.42939 0.89947 0.0
O162 O 0.08566 0.39979 0.92547 0.0
H163 H 0.13965 0.36853 0.97623 0.0
H164 H 0.15894 0.37829 0.00606 0.0
C165 C 0.14334 0.38054 0.99641 0.0
H166 H 0.13306 0.3795 0.02065 0.0
H167 H 0.10409 0.36382 0.93766 0.0
O168 O 0.11265 0.46914 0.92119 0.0
C169 C 0.08437 0.41161 0.89771 0.0
Co170 Co 0.4409 0.8952 0.03877 0.0
Co171 Co 0.39674 0.9063 0.01816 0.0
C172 C 0.43216 0.92759 0.98415 0.0
O173 O 0.44429 0.91613 0.00107 0.0
O174 O 0.41328 0.92605 0.98847 0.0
C175 C 0.48232 0.89611 0.05414 0.0
O176 O 0.48084 0.91373 0.03822 0.0
C177 C 0.35864 0.90789 0.97523 0.0
C178 C 0.33726 0.91165 0.02186 0.0
C179 C 0.33834 0.90931 0.98344 0.0
N180 N 0.36891 0.90915 0.00752 0.0
N181 N 0.35601 0.91161 0.03513 0.0
C182 C 0.36811 0.90359 0.93822 0.0
H183 H 0.38332 0.89734 0.94221 0.0
H184 H 0.35878 0.89302 0.92188 0.0
H185 H 0.36941 0.91771 0.92216 0.0
C186 C 0.42577 0.85497 0.02574 0.0
N187 N 0.4238 0.87481 0.02155 0.0
N188 N 0.4051 0.87909 0.01344 0.0
C189 C 0.39448 0.86194 0.01323 0.0
C190 C 0.40725 0.84609 0.02097 0.0
C191 C 0.44406 0.84523 0.04144 0.0
H192 H 0.45735 0.85009 0.0253 0.0
H193 H 0.44293 0.82869 0.0404 0.0
H194 H 0.44608 0.85001 0.07093 0.0
O195 O 0.43021 0.90683 0.08589 0.0
O196 O 0.39861 0.91303 0.07147 0.0
H197 H 0.36636 0.87044 0.03676 0.0
H198 H 0.36663 0.84557 0.01697 0.0
C199 C 0.37215 0.86109 0.01356 0.0
H200 H 0.36634 0.86716 0.98686 0.0
H201 H 0.35995 0.91274 0.06329 0.0
O202 O 0.4672 0.88465 0.05411 0.0
C203 C 0.41281 0.9127 0.09494 0.0
Co204 Co 0.88865 0.5572 0.95744 0.0
Co205 Co 0.89961 0.60053 0.98386 0.0
C206 C 0.91793 0.56432 0.01974 0.0
O207 O 0.90732 0.55323 -0.00117 0.0
O208 O 0.91712 0.58337 0.0174 0.0
C209 C 0.89105 0.51675 0.93846 0.0
O210 O 0.90914 0.51941 0.95183 0.0
C211 C 0.90238 0.63895 0.02661 0.0
C212 C 0.90311 0.66006 0.97905 0.0
C213 C 0.903 0.65924 0.01774 0.0
N214 N 0.90201 0.62846 0.99444 0.0
N215 N 0.90263 0.64124 0.96627 0.0
C216 C 0.90043 0.62965 0.06446 0.0
H217 H 0.89406 0.61439 0.06209 0.0
H218 H 0.89087 0.63901 0.08281 0.0
H219 H 0.91545 0.62849 0.07739 0.0
C220 C 0.84824 0.57308 0.96347 0.0
N221 N 0.86784 0.57452 0.9711 0.0
N222 N 0.87201 0.59266 0.98294 0.0
C223 C 0.85493 0.6034 0.98327 0.0
C224 C 0.83929 0.59138 0.97084 0.0
C225 C 0.83945 0.55577 0.94257 0.0
H226 H 0.84839 0.55298 0.91695 0.0
H227 H 0.84036 0.54219 0.9603 0.0
H228 H 0.82372 0.55828 0.9343 0.0
O229 O 0.90267 0.56795 0.91325 0.0
O230 O 0.9096 0.59874 0.93186 0.0
H231 H 0.86119 0.63367 0.96842 0.0
H232 H 0.83822 0.63041 0.99429 0.0
C233 C 0.85391 0.62528 0.99144 0.0
H234 H 0.86202 0.62851 0.01777 0.0
H235 H 0.90223 0.63713 0.93813 0.0
O236 O 0.87857 0.53099 0.94076 0.0
C237 C 0.90987 0.58518 0.90699 0.0
Co238 Co 0.56348 0.10904 0.05723 0.0
Co239 Co 0.60666 0.09742 0.03107 0.0
C240 C 0.5704 0.07705 -0.0001 0.0
O241 O 0.55912 0.08787 0.02005 0.0
O242 O 0.58939 0.07872 0.0008 0.0
C243 C 0.52067 0.11285 0.0636 0.0
O244 O 0.52005 0.0997 0.03635 0.0
C245 C 0.64401 0.09487 0.98584 0.0
C246 C 0.66618 0.09289 0.03156 0.0
C247 C 0.66445 0.09389 0.99303 0.0
N248 N 0.63429 0.09463 0.0188 0.0
N249 N 0.64766 0.09323 0.04587 0.0
C250 C 0.63389 0.09783 0.94896 0.0
H251 H 0.61873 0.10419 0.9531 0.0
H252 H 0.6429 0.10782 0.93078 0.0
H253 H 0.63237 0.08317 0.93479 0.0
C254 C 0.57837 0.1492 0.04156 0.0
N255 N 0.58016 0.12929 0.03818 0.0
N256 N 0.59855 0.1248 0.02821 0.0
C257 C 0.60918 0.1419 0.02586 0.0
C258 C 0.59673 0.15793 0.03411 0.0
C259 C 0.56061 0.15915 0.0589 0.0
H260 H 0.55923 0.15427 0.08847 0.0
H261 H 0.54688 0.15445 0.0439 0.0
H262 H 0.56182 0.17566 0.05799 0.0
O263 O 0.57545 0.09775 0.10342 0.0
O264 O 0.60569 0.08937 0.08404 0.0
H265 H 0.63846 0.13434 0.04509 0.0
H266 H 0.63696 0.15835 0.02201 0.0
C267 C 0.6314 0.14274 0.02184 0.0
H268 H 0.6358 0.13561 0.99511 0.0
H269 H 0.64421 0.09308 0.07432 0.0
O270 O 0.53746 0.11963 0.0742 0.0
C271 C 0.59269 0.09054 0.1098 0.0
Co272 Co 0.59956 0.56067 0.80329 0.0
Co273 Co 0.59394 0.60217 0.76448 0.0
C274 C 0.57337 0.56619 0.73489 0.0
O275 O 0.58186 0.55619 0.7606 0.0
O276 O 0.57607 0.58503 0.73187 0.0
C277 C 0.61657 0.52015 0.8144 0.0
O278 O 0.6282 0.52241 0.78511 0.0
C279 C 0.5922 0.63899 0.71627 0.0
C280 C 0.60173 0.66112 0.7586 0.0
C281 C 0.59615 0.65922 0.72152 0.0
N282 N 0.59547 0.62945 0.74891 0.0
N283 N 0.60096 0.64287 0.77402 0.0
C284 C 0.58645 0.62875 0.68072 0.0
H285 H 0.56993 0.62874 0.67823 0.0
H286 H 0.59166 0.61301 0.68104 0.0
H287 H 0.59277 0.63671 0.65618 0.0
C288 C 0.64175 0.57297 0.80054 0.0
N289 N 0.62263 0.57491 0.78952 0.0
N290 N 0.62056 0.5916 0.7704 0.0
C291 C 0.63869 0.60034 0.76724 0.0
C292 C 0.65269 0.58889 0.78643 0.0
C293 C 0.64845 0.55878 0.8305 0.0
H294 H 0.63558 0.55371 0.84749 0.0
H295 H 0.65575 0.54568 0.81737 0.0
H296 H 0.65946 0.56598 0.84938 0.0
O297 O 0.58577 0.57549 0.84266 0.0
O298 O 0.58185 0.60488 0.81527 0.0
H299 H 0.63959 0.63224 0.76761 0.0
H300 H 0.65825 0.62077 0.73853 0.0
C301 C 0.64247 0.61979 0.7479 0.0
H302 H 0.63243 0.62136 0.7234 0.0
H303 H 0.60447 0.63947 0.80175 0.0
O304 O 0.60504 0.53414 0.82478 0.0
C305 C 0.57978 0.59347 0.84348 0.0
Co306 Co 0.55973 0.39681 0.19531 0.0
Co307 Co 0.60217 0.40667 0.2278 0.0
C308 C 0.56535 0.42431 0.26136 0.0
O309 O 0.5549 0.41462 0.23788 0.0
O310 O 0.58442 0.42332 0.26133 0.0
C311 C 0.51941 0.37754 0.18575 0.0
O312 O 0.52129 0.36664 0.21608 0.0
C313 C 0.64007 0.40993 0.27288 0.0
C314 C 0.66167 0.41015 0.2261 0.0
C315 C 0.66041 0.41107 0.26468 0.0
N316 N 0.62994 0.40838 0.2404 0.0
N317 N 0.64304 0.4085 0.21273 0.0
C318 C 0.63033 0.41095 0.31047 0.0
H319 H 0.61465 0.41609 0.30782 0.0
H320 H 0.63021 0.3958 0.32307 0.0
H321 H 0.63875 0.42109 0.3293 0.0
C322 C 0.57543 0.35563 0.20066 0.0
N323 N 0.57642 0.37523 0.2089 0.0
N324 N 0.59398 0.37922 0.22387 0.0
C325 C 0.60456 0.36208 0.22603 0.0
C326 C 0.59311 0.34661 0.21167 0.0
C327 C 0.55975 0.34646 0.17617 0.0
H328 H 0.54772 0.34024 0.19401 0.0
H329 H 0.56596 0.33404 0.15921 0.0
H330 H 0.55338 0.3578 0.15704 0.0
O331 O 0.57216 0.41138 0.15354 0.0
O332 O 0.60194 0.41828 0.17689 0.0
H333 H 0.6355 0.36754 0.21585 0.0
H334 H 0.63059 0.34506 0.24214 0.0
C335 C 0.62595 0.3608 0.23783 0.0
H336 H 0.62813 0.36926 0.26418 0.0
H337 H 0.63927 0.40736 0.18449 0.0
O338 O 0.53336 0.38911 0.17529 0.0
C339 C 0.58945 0.41895 0.15018 0.0
Co340 Co 0.39346 0.43537 0.80914 0.0
Co341 Co 0.40447 0.39443 0.77221 0.0
C342 C 0.4204 0.43333 0.74216 0.0
O343 O 0.41062 0.4428 0.76704 0.0
O344 O 0.41998 0.41423 0.74019 0.0
C345 C 0.38052 0.47714 0.82401 0.0
O346 O 0.38398 0.48217 0.78907 0.0
C347 C 0.40693 0.3582 0.72247 0.0
C348 C 0.40658 0.33504 0.76661 0.0
C349 C 0.40679 0.3376 0.72823 0.0
N350 N 0.40662 0.36724 0.75617 0.0
N351 N 0.40664 0.35323 0.78224 0.0
C352 C 0.4056 0.36907 0.68604 0.0
H353 H 0.39966 0.38438 0.69043 0.0
H354 H 0.39596 0.36076 0.66613 0.0
H355 H 0.42076 0.37026 0.67373 0.0
C356 C 0.35294 0.41982 0.8007 0.0
N357 N 0.37259 0.41872 0.7934 0.0
N358 N 0.37678 0.40143 0.77778 0.0
C359 C 0.35965 0.39086 0.77476 0.0
C360 C 0.34399 0.40218 0.78912 0.0
C361 C 0.3438 0.43605 0.82393 0.0
H362 H 0.35215 0.43742 0.85062 0.0
H363 H 0.34513 0.45046 0.80879 0.0
H364 H 0.32788 0.43324 0.83045 0.0
O365 O 0.40892 0.42207 0.84873 0.0
O366 O 0.4167 0.39319 0.8227 0.0
H367 H 0.36557 0.35977 0.78206 0.0
H368 H 0.34271 0.36503 0.7571 0.0
C369 C 0.35844 0.36977 0.76124 0.0
H370 H 0.3666 0.36834 0.73439 0.0
H371 H 0.40605 0.35608 0.81091 0.0
O372 O 0.38325 0.45926 0.83459 0.0
C373 C 0.41716 0.40503 0.85043 0.0
Co374 Co 0.44519 0.60693 0.19198 0.0
Co375 Co 0.40294 0.60131 0.22817 0.0
C376 C 0.43855 0.58105 0.26034 0.0
O377 O 0.44918 0.58953 0.23547 0.0
O378 O 0.41964 0.58363 0.26167 0.0
C379 C 0.48549 0.62489 0.18107 0.0
O380 O 0.48287 0.63675 0.20991 0.0
C381 C 0.36511 0.59827 0.27316 0.0
C382 C 0.34384 0.60819 0.22959 0.0
C383 C 0.34493 0.60181 0.26633 0.0
N384 N 0.37537 0.6025 0.24172 0.0
N385 N 0.36248 0.60823 0.21585 0.0
C386 C 0.3746 0.59182 0.30904 0.0
H387 H 0.39016 0.59746 0.31065 0.0
H388 H 0.36585 0.59725 0.33338 0.0
H389 H 0.37504 0.57526 0.30996 0.0
C390 C 0.43227 0.64912 0.19338 0.0
N391 N 0.43039 0.62999 0.20447 0.0
N392 N 0.41346 0.62785 0.22284 0.0
C393 C 0.4045 0.64588 0.22538 0.0
C394 C 0.41606 0.6599 0.20665 0.0
C395 C 0.44669 0.65598 0.16396 0.0
H396 H 0.45219 0.64317 0.1473 0.0
H397 H 0.45947 0.66361 0.17756 0.0
H398 H 0.43952 0.66684 0.14469 0.0
O399 O 0.43124 0.59244 0.15209 0.0
O400 O 0.40121 0.58939 0.17743 0.0
H401 H 0.37264 0.64684 0.22238 0.0
H402 H 0.38343 0.66527 0.25274 0.0
C403 C 0.38462 0.64953 0.24318 0.0
H404 H 0.38246 0.63936 0.26732 0.0
H405 H 0.36648 0.61234 0.18869 0.0
O406 O 0.47183 0.61283 0.17118 0.0
C407 C 0.41317 0.58682 0.15026 0.0
Co408 Co 0.60393 0.94279 0.44709 0.0
Co409 Co 0.59559 0.8991 0.47446 0.0
C410 C 0.57692 0.93398 0.51261 0.0
O411 O 0.58632 0.94549 0.49048 0.0
O412 O 0.57841 0.915 0.51017 0.0
C413 C 0.62119 0.98438 0.44045 0.0
O414 O 0.63315 0.98229 0.46931 0.0
C415 C 0.59273 0.86041 0.51636 0.0
C416 C 0.59816 0.83954 0.46951 0.0
C417 C 0.59457 0.84023 0.5076 0.0
N418 N 0.59524 0.87106 0.48472 0.0
N419 N 0.59829 0.85842 0.4569 0.0
C420 C 0.59001 0.86954 0.55418 0.0
H421 H 0.59622 0.88491 0.55463 0.0
H422 H 0.59731 0.86026 0.57599 0.0
H423 H 0.57381 0.8704 0.56053 0.0
C424 C 0.64551 0.9283 0.44838 0.0
N425 N 0.62611 0.92649 0.45763 0.0
N426 N 0.62284 0.90848 0.47123 0.0
C427 C 0.64039 0.89852 0.47221 0.0
C428 C 0.65531 0.9107 0.4576 0.0
C429 C 0.65359 0.9448 0.42443 0.0
H430 H 0.6415 0.95161 0.40757 0.0
H431 H 0.66036 0.95639 0.44262 0.0
H432 H 0.66531 0.93922 0.40514 0.0
O433 O 0.58946 0.93123 0.40479 0.0
O434 O 0.58341 0.90037 0.42371 0.0
H435 H 0.63803 0.86719 0.46194 0.0
H436 H 0.65851 0.87405 0.49201 0.0
C437 C 0.64272 0.87735 0.48481 0.0
H438 H 0.63319 0.87454 0.50961 0.0
H439 H 0.6008 0.86274 0.42924 0.0
O440 O 0.61012 0.97007 0.42984 0.0
C441 C 0.58226 0.91398 0.39899 0.0
Co442 Co 0.93832 0.38842 0.55406 0.0
Co443 Co 0.89758 0.40407 0.52225 0.0
C444 C 0.93722 0.41934 0.49362 0.0
O445 O 0.94654 0.40782 0.51595 0.0
O446 O 0.91811 0.41959 0.49236 0.0
C447 C 0.97997 0.3769 0.56832 0.0
O448 O 0.98503 0.38639 0.53757 0.0
C449 C 0.8613 0.40716 0.47359 0.0
C450 C 0.83912 0.41559 0.51662 0.0
C451 C 0.84103 0.41072 0.4792 0.0
N452 N 0.87078 0.40956 0.50654 0.0
N453 N 0.85741 0.41491 0.53185 0.0
C454 C 0.87119 0.39977 0.43875 0.0
H455 H 0.88592 0.39303 0.44542 0.0
H456 H 0.86152 0.38869 0.4244 0.0
H457 H 0.87356 0.41253 0.41945 0.0
C458 C 0.91989 0.3498 0.53924 0.0
N459 N 0.92012 0.36971 0.53472 0.0
N460 N 0.90244 0.37582 0.52335 0.0
C461 C 0.89016 0.35981 0.52163 0.0
C462 C 0.90091 0.3428 0.53127 0.0
C463 C 0.93642 0.33829 0.55743 0.0
H464 H 0.95081 0.34208 0.54382 0.0
H465 H 0.93388 0.32194 0.55547 0.0
H466 H 0.9374 0.34258 0.58737 0.0
O467 O 0.92623 0.40229 0.59722 0.0
O468 O 0.8979 0.4139 0.57423 0.0
H469 H 0.86191 0.37259 0.53638 0.0
H470 H 0.86065 0.34655 0.52288 0.0
C471 C 0.86798 0.3611 0.51715 0.0
H472 H 0.86445 0.3656 0.48806 0.0
H473 H 0.86059 0.41734 0.56004 0.0
O474 O 0.96166 0.37544 0.57714 0.0
C475 C 0.90999 0.41183 0.60129 0.0
Co476 Co 0.38898 0.0586 0.44509 0.0
Co477 Co 0.40409 0.10032 0.47344 0.0
C478 C 0.4198 0.06188 0.50583 0.0
O479 O 0.40839 0.05193 0.4843 0.0
O480 O 0.41993 0.08098 0.50531 0.0
C481 C 0.3819 0.01639 0.43225 0.0
O482 O 0.39417 0.01311 0.46026 0.0
C483 C 0.40984 0.13746 0.51915 0.0
C484 C 0.41583 0.15891 0.47347 0.0
C485 C 0.41394 0.15753 0.51193 0.0
N486 N 0.40923 0.12763 0.48625 0.0
N487 N 0.41289 0.14061 0.45923 0.0
C488 C 0.40716 0.12758 0.55633 0.0
H489 H 0.41061 0.1114 0.55429 0.0
H490 H 0.39138 0.12916 0.56531 0.0
H491 H 0.41686 0.13471 0.57769 0.0
C492 C 0.35013 0.07728 0.45618 0.0
N493 N 0.36996 0.07718 0.46182 0.0
N494 N 0.37588 0.09495 0.47302 0.0
C495 C 0.35978 0.10707 0.47454 0.0
C496 C 0.3429 0.09629 0.46391 0.0
C497 C 0.33938 0.06066 0.43659 0.0
H498 H 0.34604 0.05851 0.40844 0.0
H499 H 0.34149 0.0466 0.45255 0.0
H500 H 0.32321 0.06357 0.43329 0.0
O501 O 0.40268 0.06958 0.40099 0.0
O502 O 0.41399 0.09863 0.42132 0.0
H503 H 0.36958 0.13635 0.45932 0.0
H504 H 0.34574 0.13584 0.48325 0.0
C505 C 0.36083 0.12904 0.48185 0.0
H506 H 0.3686 0.13169 0.50875 0.0
H507 H 0.41321 0.13704 0.43083 0.0
O508 O 0.37665 0.03417 0.42471 0.0
C509 C 0.41203 0.0858 0.3954 0.0
Co510 Co 0.06588 0.60051 0.56088 0.0
Co511 Co 0.10737 0.59363 0.52237 0.0
C512 C 0.06995 0.57415 0.49349 0.0
O513 O 0.05977 0.58291 0.5187 0.0
O514 O 0.08891 0.5763 0.49103 0.0
C515 C 0.02318 0.60743 0.57829 0.0
O516 O 0.01832 0.60204 0.54413 0.0
C517 C 0.14362 0.59191 0.47242 0.0
C518 C 0.16648 0.5985 0.5154 0.0
C519 C 0.16405 0.59472 0.47766 0.0
N520 N 0.13449 0.59413 0.50577 0.0
N521 N 0.14834 0.59784 0.53121 0.0
C522 C 0.13287 0.58839 0.43639 0.0
H523 H 0.11716 0.59354 0.43856 0.0
H524 H 0.14056 0.59618 0.41304 0.0
H525 H 0.13284 0.57214 0.43031 0.0
C526 C 0.07761 0.64229 0.55325 0.0
N527 N 0.08028 0.62293 0.54488 0.0
N528 N 0.0977 0.62052 0.52838 0.0
C529 C 0.10664 0.63859 0.52571 0.0
C530 C 0.09429 0.6529 0.54185 0.0
C531 C 0.06032 0.65006 0.57544 0.0
H532 H 0.04617 0.645 0.5624 0.0
H533 H 0.06036 0.66662 0.57681 0.0
H534 H 0.06097 0.64387 0.60423 0.0
O535 O 0.08112 0.58634 0.59958 0.0
O536 O 0.1104 0.58158 0.57259 0.0
H537 H 0.13803 0.63714 0.53562 0.0
H538 H 0.13049 0.65777 0.50662 0.0
C539 C 0.12767 0.6418 0.51304 0.0
H540 H 0.13071 0.63272 0.48775 0.0
H541 H 0.14534 0.60033 0.55948 0.0
O542 O 0.04143 0.60813 0.58784 0.0
C543 C 0.09893 0.57989 0.60068 0.0
H544 H 0.12055 0.31194 0.02035 0.0
H545 H 0.11688 0.28141 0.05693 0.0
H546 H 0.06336 0.30497 0.10761 0.0
H547 H 0.06728 0.33597 0.07141 0.0
H548 H 0.08622 0.28571 0.15816 0.0
H549 H 0.07756 0.23776 0.03354 0.0
H550 H 0.10033 0.25178 0.03123 0.0
H551 H 0.07669 0.26466 0.0309 0.0
C552 C 0.10808 0.31069 0.03953 0.0
C553 C 0.09421 0.3263 0.0431 0.0
C554 C 0.10589 0.29315 0.06013 0.0
C555 C 0.0895 0.29064 0.0841 0.0
C556 C 0.076 0.30653 0.08893 0.0
H557 H 0.0677 0.17037 0.1763 0.0
H558 H 0.06368 0.20146 0.14049 0.0
C559 C 0.07834 0.32427 0.06853 0.0
C560 C 0.08679 0.27142 0.10419 0.0
H561 H 0.08671 0.22091 0.09073 0.0
C562 C 0.08604 0.27156 0.1434 0.0
C563 C 0.08601 0.25293 0.08496 0.0
C564 C 0.08496 0.25177 0.04283 0.0
C565 C 0.08574 0.25368 0.16393 0.0
C566 C 0.0868 0.23519 0.14471 0.0
C567 C 0.08631 0.23506 0.10549 0.0
C568 C 0.0895 0.21598 0.16483 0.0
C569 C 0.08438 0.25483 0.20603 0.0
C570 C 0.10574 0.21356 0.18919 0.0
C571 C 0.10801 0.19595 0.20955 0.0
C572 C 0.09436 0.18018 0.20536 0.0
C573 C 0.07861 0.18217 0.17963 0.0
C574 C 0.07621 0.19997 0.15947 0.0
H575 H 0.0768 0.26877 0.21513 0.0
H576 H 0.07615 0.24186 0.21775 0.0
H577 H 0.09967 0.25494 0.218 0.0
H578 H 0.11658 0.2254 0.19282 0.0
H579 H 0.12037 0.19475 0.22899 0.0
H580 H 0.16361 0.89175 0.83508 0.0
H581 H 0.19367 0.89312 0.8742 0.0
H582 H 0.22409 0.9265 0.78816 0.0
H583 H 0.19408 0.92571 0.74956 0.0
H584 H 0.23101 0.87748 0.85434 0.0
H585 H 0.23662 0.95877 0.88211 0.0
H586 H 0.21395 0.94717 0.86548 0.0
H587 H 0.23388 0.9528 0.83342 0.0
C588 C 0.17646 0.89994 0.82505 0.0
C589 C 0.17635 0.90895 0.78954 0.0
C590 C 0.1937 0.90051 0.84723 0.0
C591 C 0.21099 0.91018 0.8343 0.0
C592 C 0.21079 0.91935 0.79905 0.0
H593 H 0.33356 0.92338 0.91151 0.0
H594 H 0.30301 0.92232 0.87363 0.0
C595 C 0.19366 0.91875 0.77693 0.0
C596 C 0.22974 0.9096 0.85627 0.0
H597 H 0.26549 0.93925 0.89573 0.0
C598 C 0.23847 0.89096 0.8637 0.0
C599 C 0.23951 0.92724 0.86811 0.0
C600 C 0.23043 0.94763 0.8622 0.0
C601 C 0.25693 0.8895 0.8821 0.0
C602 C 0.26674 0.90714 0.89375 0.0
C603 C 0.25799 0.92577 0.88642 0.0
C604 C 0.28562 0.90655 0.91525 0.0
C605 C 0.26598 0.86913 0.88832 0.0
C606 C 0.28589 0.89804 0.95106 0.0
C607 C 0.30326 0.89854 0.97255 0.0
C608 C 0.32074 0.90753 0.95866 0.0
C609 C 0.32053 0.91588 0.92259 0.0
C610 C 0.30304 0.91546 0.90109 0.0
H611 H 0.25935 0.85774 0.86941 0.0
H612 H 0.28239 0.86946 0.88389 0.0
H613 H 0.26313 0.86438 0.9176 0.0
H614 H 0.27252 0.89143 0.96277 0.0
H615 H 0.30294 0.89206 0.00032 0.0
H616 H 0.92643 0.80689 0.24423 0.0
H617 H 0.92689 0.77627 0.20722 0.0
H618 H 0.89327 0.80563 0.12019 0.0
H619 H 0.8928 0.83646 0.15721 0.0
H620 H 0.89348 0.75525 0.18611 0.0
H621 H 0.9377 0.7777 0.06154 0.0
H622 H 0.93755 0.79205 0.10431 0.0
H623 H 0.91703 0.79385 0.07205 0.0
C624 C 0.91941 0.80694 0.21691 0.0
C625 C 0.90978 0.82416 0.20342 0.0
C626 C 0.91967 0.78942 0.19584 0.0
C627 C 0.91027 0.7887 0.16084 0.0
C628 C 0.901 0.80599 0.1468 0.0
H629 H 0.88546 0.69474 0.00263 0.0
H630 H 0.887 0.72554 0.03891 0.0
C631 C 0.90081 0.82363 0.1679 0.0
C632 C 0.90906 0.76942 0.14053 0.0
H633 H 0.9216 0.74614 0.05889 0.0
C634 C 0.89972 0.75321 0.15835 0.0
C635 C 0.9172 0.76682 0.10436 0.0
C636 C 0.9281 0.78346 0.08449 0.0
C637 C 0.89797 0.73456 0.14072 0.0
C638 C 0.90605 0.73198 0.10451 0.0
C639 C 0.91544 0.74817 0.0867 0.0
C640 C 0.90439 0.71281 0.08399 0.0
C641 C 0.88707 0.71792 0.16058 0.0
C642 C 0.91357 0.69535 0.09744 0.0
C643 C 0.91266 0.6776 0.07671 0.0
C644 C 0.90262 0.67711 0.04219 0.0
C645 C 0.8933 0.69461 0.02914 0.0
C646 C 0.89418 0.71224 0.0498 0.0
H647 H 0.87786 0.72359 0.18416 0.0
H648 H 0.87724 0.70968 0.1409 0.0
H649 H 0.89813 0.70721 0.1721 0.0
H650 H 0.92189 0.69558 0.12342 0.0
H651 H 0.9205 0.66459 0.08703 0.0
H652 H 0.80797 0.07199 0.7582 0.0
H653 H 0.77781 0.07238 0.79649 0.0
H654 H 0.80777 0.10902 0.87836 0.0
H655 H 0.83786 0.1093 0.83944 0.0
H656 H 0.7705 0.06026 0.8693 0.0
H657 H 0.75813 0.1418 0.85206 0.0
H658 H 0.77586 0.12807 0.82406 0.0
H659 H 0.78205 0.1352 0.87115 0.0
C660 C 0.80821 0.08003 0.78451 0.0
C661 C 0.82538 0.09048 0.79591 0.0
C662 C 0.79097 0.08019 0.80637 0.0
C663 C 0.79047 0.09096 0.83995 0.0
C664 C 0.80778 0.10085 0.8522 0.0
H665 H 0.69996 0.1118 0.00599 0.0
H666 H 0.72991 0.11107 0.96713 0.0
C667 C 0.8251 0.10071 0.83024 0.0
C668 C 0.77158 0.09212 0.86141 0.0
H669 H 0.73604 0.12466 0.89264 0.0
C670 C 0.76293 0.07432 0.87436 0.0
C671 C 0.76168 0.11049 0.86763 0.0
C672 C 0.76977 0.12998 0.85274 0.0
C673 C 0.74481 0.07444 0.8941 0.0
C674 C 0.73499 0.09281 0.90051 0.0
C675 C 0.7436 0.1106 0.88748 0.0
C676 C 0.71632 0.094 0.92253 0.0
C677 C 0.73655 0.05497 0.90871 0.0
C678 C 0.69861 0.085 0.90988 0.0
C679 C 0.68138 0.0854 0.9321 0.0
C680 C 0.68166 0.09488 0.96716 0.0
C681 C 0.6993 0.10431 0.97915 0.0
C682 C 0.71641 0.10397 0.95697 0.0
H683 H 0.74786 0.04283 0.90801 0.0
H684 H 0.73113 0.05671 0.9379 0.0
H685 H 0.7237 0.05034 0.89112 0.0
H686 H 0.69821 0.07741 0.88313 0.0
H687 H 0.66817 0.07767 0.92241 0.0
H688 H 0.6226 0.68943 0.71492 0.0
H689 H 0.61934 0.71984 0.67777 0.0
H690 H 0.56352 0.69837 0.63285 0.0
H691 H 0.56702 0.66749 0.66951 0.0
H692 H 0.58554 0.7166 0.57976 0.0
H693 H 0.58254 0.76504 0.70471 0.0
H694 H 0.60481 0.75019 0.7045 0.0
H695 H 0.58077 0.7382 0.70769 0.0
C696 C 0.60973 0.6911 0.69681 0.0
C697 C 0.59508 0.67612 0.69502 0.0
C698 C 0.60778 0.70857 0.67589 0.0
C699 C 0.59088 0.71167 0.65344 0.0
C700 C 0.57659 0.69636 0.65031 0.0
H701 H 0.5686 0.8325 0.56549 0.0
H702 H 0.56548 0.80119 0.60083 0.0
C703 C 0.57867 0.67868 0.67098 0.0
C704 C 0.58832 0.73094 0.63343 0.0
H705 H 0.58992 0.78147 0.64643 0.0
C706 C 0.58626 0.73078 0.59437 0.0
C707 C 0.5887 0.74949 0.65254 0.0
C708 C 0.58909 0.75076 0.6947 0.0
C709 C 0.58564 0.74863 0.57376 0.0
C710 C 0.58773 0.76713 0.59265 0.0
C711 C 0.58871 0.76731 0.63185 0.0
C712 C 0.5898 0.78633 0.57217 0.0
C713 C 0.58271 0.74743 0.53195 0.0
C714 C 0.60488 0.78862 0.54526 0.0
C715 C 0.60661 0.80637 0.5251 0.0
C716 C 0.59363 0.82242 0.53203 0.0
C717 C 0.57902 0.82049 0.56 0.0
C718 C 0.57712 0.80256 0.57994 0.0
H719 H 0.57455 0.73362 0.52396 0.0
H720 H 0.5743 0.76053 0.5212 0.0
H721 H 0.59751 0.747 0.51803 0.0
H722 H 0.61529 0.77661 0.53966 0.0
H723 H 0.61811 0.80751 0.50387 0.0
H724 H 0.80534 0.39418 0.4957 0.0
H725 H 0.77532 0.39333 0.45698 0.0
H726 H 0.80754 0.42134 0.36663 0.0
H727 H 0.83785 0.42226 0.40555 0.0
H728 H 0.76965 0.44031 0.39114 0.0
H729 H 0.76181 0.35915 0.3622 0.0
H730 H 0.76701 0.36562 0.41005 0.0
H731 H 0.78539 0.3705 0.37462 0.0
C732 C 0.80613 0.39988 0.46737 0.0
C733 C 0.82394 0.40817 0.45349 0.0
C734 C 0.789 0.39929 0.44525 0.0
C735 C 0.78929 0.40709 0.4089 0.0
C736 C 0.80713 0.41507 0.39457 0.0
H737 H 0.69479 0.43076 0.2501 0.0
H738 H 0.72566 0.4305 0.28619 0.0
C739 C 0.82444 0.41546 0.41665 0.0
C740 C 0.77047 0.40825 0.38737 0.0
H741 H 0.73381 0.3796 0.34836 0.0
C742 C 0.76187 0.42708 0.38141 0.0
C743 C 0.76028 0.39092 0.37536 0.0
C744 C 0.76911 0.37038 0.38056 0.0
C745 C 0.74311 0.42904 0.36428 0.0
C746 C 0.73292 0.4117 0.35208 0.0
C747 C 0.74158 0.39286 0.35795 0.0
C748 C 0.71368 0.41282 0.33163 0.0
C749 C 0.73415 0.44962 0.36032 0.0
C750 C 0.6967 0.40272 0.34492 0.0
C751 C 0.67896 0.40271 0.3241 0.0
C752 C 0.678 0.41275 0.2896 0.0
C753 C 0.69499 0.42301 0.27672 0.0
C754 C 0.71263 0.42301 0.29744 0.0
H755 H 0.74069 0.46027 0.38077 0.0
H756 H 0.73731 0.45539 0.33182 0.0
H757 H 0.71771 0.44926 0.3643 0.0
H758 H 0.69728 0.39456 0.37107 0.0
H759 H 0.6664 0.39413 0.33427 0.0
H760 H 0.43751 0.19008 0.50374 0.0
H761 H 0.43702 0.22092 0.54022 0.0
H762 H 0.39225 0.19579 0.61303 0.0
H763 H 0.39243 0.16494 0.57634 0.0
H764 H 0.40291 0.2453 0.55045 0.0
H765 H 0.43428 0.21913 0.68579 0.0
H766 H 0.43718 0.20527 0.64278 0.0
H767 H 0.41395 0.20445 0.66786 0.0
C768 C 0.42776 0.19098 0.52788 0.0
C769 C 0.41526 0.17489 0.5375 0.0
C770 C 0.42749 0.20863 0.54862 0.0
C771 C 0.41475 0.21057 0.57949 0.0
C772 C 0.4025 0.19443 0.58972 0.0
H773 H 0.38547 0.30361 0.73543 0.0
H774 H 0.387 0.27375 0.69653 0.0
C775 C 0.40274 0.17671 0.56889 0.0
C776 C 0.41349 0.2299 0.59951 0.0
H777 H 0.42074 0.25182 0.68456 0.0
C778 C 0.40689 0.24679 0.57974 0.0
C779 C 0.41873 0.23175 0.63763 0.0
C780 C 0.4266 0.21425 0.65979 0.0
C781 C 0.40488 0.26543 0.59739 0.0
C782 C 0.40998 0.26725 0.63562 0.0
C783 C 0.41681 0.25038 0.65523 0.0
C784 C 0.40773 0.28628 0.65647 0.0
C785 C 0.39677 0.28284 0.57528 0.0
C786 C 0.41858 0.30345 0.64645 0.0
C787 C 0.41758 0.32072 0.66859 0.0
C788 C 0.40588 0.32091 0.70121 0.0
C789 C 0.39465 0.30388 0.71047 0.0
C790 C 0.39553 0.28679 0.68831 0.0
H791 H 0.38907 0.27786 0.54937 0.0
H792 H 0.38615 0.29173 0.59234 0.0
H793 H 0.40931 0.29274 0.56701 0.0
H794 H 0.42841 0.30326 0.6224 0.0
H795 H 0.42673 0.33346 0.66126 0.0
H796 H 0.33673 0.57162 0.31634 0.0
H797 H 0.30532 0.56634 0.35047 0.0
H798 H 0.28207 0.62133 0.30502 0.0
H799 H 0.31311 0.62644 0.27059 0.0
H800 H 0.28575 0.58771 0.40283 0.0
H801 H 0.23859 0.58268 0.27642 0.0
H802 H 0.26552 0.58188 0.27434 0.0
H803 H 0.25263 0.60547 0.27682 0.0
C804 C 0.32503 0.58272 0.3142 0.0
C805 C 0.32735 0.59948 0.29095 0.0
C806 C 0.30703 0.5796 0.33337 0.0
C807 C 0.29114 0.59316 0.32942 0.0
C808 C 0.29385 0.61032 0.30749 0.0
H809 H 0.19504 0.62037 0.47507 0.0
H810 H 0.22534 0.61774 0.43756 0.0
C811 C 0.31167 0.61333 0.28815 0.0
C812 C 0.27179 0.58981 0.34868 0.0
H813 H 0.22134 0.59007 0.33416 0.0
C814 C 0.27168 0.58793 0.38776 0.0
C815 C 0.25342 0.58957 0.32898 0.0
C816 C 0.25254 0.58978 0.28679 0.0
C817 C 0.25369 0.58707 0.40782 0.0
C818 C 0.23533 0.58867 0.38834 0.0
C819 C 0.23541 0.58927 0.34912 0.0
C820 C 0.21608 0.59097 0.4084 0.0
C821 C 0.25457 0.58464 0.44978 0.0
C822 C 0.20023 0.57752 0.40274 0.0
C823 C 0.18262 0.57924 0.42375 0.0
C824 C 0.18071 0.59445 0.4506 0.0
C825 C 0.19621 0.6084 0.45478 0.0
C826 C 0.2136 0.60681 0.43363 0.0
H827 H 0.26853 0.57698 0.45857 0.0
H828 H 0.25442 0.59961 0.46311 0.0
H829 H 0.24161 0.57599 0.46039 0.0
H830 H 0.20177 0.56531 0.38306 0.0
H831 H 0.171 0.56814 0.42035 0.0
H832 H 0.16735 0.13023 0.31998 0.0
H833 H 0.20021 0.13854 0.34577 0.0
H834 H 0.22168 0.07998 0.3154 0.0
H835 H 0.1892 0.07205 0.28804 0.0
H836 H 0.21743 0.12095 0.40374 0.0
H837 H 0.26787 0.11358 0.28252 0.0
H838 H 0.2411 0.11509 0.27732 0.0
H839 H 0.25294 0.09155 0.28771 0.0
C840 C 0.17932 0.11945 0.31752 0.0
C841 C 0.17584 0.10057 0.30162 0.0
C842 C 0.19802 0.12412 0.33265 0.0
C843 C 0.21354 0.11 0.33211 0.0
C844 C 0.21017 0.09133 0.31532 0.0
H845 H 0.30609 0.08384 0.48569 0.0
H846 H 0.27425 0.09152 0.45538 0.0
C847 C 0.19155 0.08673 0.29997 0.0
C848 C 0.23258 0.11389 0.35217 0.0
H849 H 0.28307 0.10921 0.34348 0.0
C850 C 0.23181 0.11876 0.39039 0.0
C851 C 0.25138 0.11145 0.33472 0.0
C852 C 0.25338 0.10785 0.29321 0.0
C853 C 0.24926 0.12006 0.41206 0.0
C854 C 0.26793 0.11584 0.39529 0.0
C855 C 0.26877 0.11218 0.3566 0.0
C856 C 0.28657 0.11359 0.41749 0.0
C857 C 0.24742 0.12574 0.45276 0.0
C858 C 0.30416 0.12342 0.40647 0.0
C859 C 0.32241 0.11874 0.42336 0.0
C860 C 0.32335 0.1042 0.45162 0.0
C861 C 0.30564 0.09522 0.46413 0.0
C862 C 0.28744 0.09972 0.44697 0.0
H863 H 0.23425 0.13552 0.45746 0.0
H864 H 0.24526 0.11203 0.46974 0.0
H865 H 0.26098 0.1336 0.46293 0.0
H866 H 0.3039 0.1341 0.38368 0.0
H867 H 0.33592 0.12566 0.41287 0.0
H868 H 0.12436 0.83374 0.66689 0.0
H869 H 0.13066 0.80119 0.6375 0.0
H870 H 0.07553 0.7787 0.68354 0.0
H871 H 0.06921 0.81116 0.71292 0.0
H872 H 0.1323 0.76035 0.6653 0.0
H873 H 0.0692 0.77405 0.56805 0.0
H874 H 0.08025 0.79359 0.59605 0.0
H875 H 0.06263 0.77654 0.61656 0.0
C876 C 0.11393 0.82164 0.67164 0.0
C877 C 0.09632 0.82483 0.69218 0.0
C878 C 0.11746 0.80315 0.65463 0.0
C879 C 0.10337 0.78773 0.65783 0.0
C880 C 0.08641 0.79055 0.68027 0.0
H881 H 0.09923 0.66368 0.61398 0.0
H882 H 0.10504 0.69719 0.63876 0.0
C883 C 0.08288 0.80899 0.6972 0.0
C884 C 0.10561 0.7691 0.63598 0.0
H885 H 0.08207 0.74085 0.5699 0.0
C886 C 0.12147 0.75613 0.64414 0.0
C887 C 0.09174 0.7639 0.60775 0.0
C888 C 0.0751 0.77782 0.59624 0.0
C889 C 0.12318 0.73754 0.62618 0.0
C890 C 0.10848 0.73176 0.59983 0.0
C891 C 0.09326 0.74523 0.59027 0.0
C892 C 0.10744 0.71125 0.58437 0.0
C893 C 0.14057 0.72419 0.6359 0.0
C894 C 0.10668 0.708 0.5455 0.0
C895 C 0.10316 0.68881 0.53132 0.0
C896 C 0.10018 0.67276 0.55587 0.0
C897 C 0.10151 0.67592 0.5946 0.0
C898 C 0.10502 0.695 0.60873 0.0
H899 H 0.15357 0.73304 0.64579 0.0
H900 H 0.13611 0.71397 0.65887 0.0
H901 H 0.14525 0.71504 0.61152 0.0
H902 H 0.10831 0.72038 0.52623 0.0
H903 H 0.10209 0.68663 0.50135 0.0
H904 H 0.81272 0.93352 0.28057 0.0
H905 H 0.77997 0.92731 0.3087 0.0
H906 H 0.80039 0.86989 0.34796 0.0
H907 H 0.83341 0.87638 0.32084 0.0
H908 H 0.75124 0.89778 0.30168 0.0
H909 H 0.78432 0.89848 0.44446 0.0
H910 H 0.79809 0.90627 0.4036 0.0
H911 H 0.79444 0.88016 0.41301 0.0
C912 C 0.81007 0.91944 0.29468 0.0
C913 C 0.82553 0.90545 0.2986 0.0
C914 C 0.79139 0.91589 0.31071 0.0
C915 C 0.78787 0.8983 0.33102 0.0
C916 C 0.80292 0.88372 0.33297 0.0
H917 H 0.66656 0.87774 0.41762 0.0
H918 H 0.69923 0.87138 0.38914 0.0
C919 C 0.82167 0.88731 0.31701 0.0
C920 C 0.76886 0.896 0.35191 0.0
H921 H 0.74952 0.89431 0.44034 0.0
C922 C 0.75083 0.89678 0.33197 0.0
C923 C 0.76842 0.89501 0.39149 0.0
C924 C 0.78731 0.8951 0.41454 0.0
C925 C 0.73234 0.89703 0.35053 0.0
C926 C 0.7319 0.89606 0.39011 0.0
C927 C 0.74992 0.89484 0.41001 0.0
C928 C 0.71298 0.89812 0.41138 0.0
C929 C 0.71352 0.89931 0.32767 0.0
C930 C 0.71022 0.91465 0.435 0.0
C931 C 0.69172 0.91808 0.45185 0.0
C932 C 0.67567 0.90503 0.44543 0.0
C933 C 0.67875 0.8879 0.42346 0.0
C934 C 0.69731 0.88441 0.40672 0.0
H935 H 0.71673 0.90418 0.29855 0.0
H936 H 0.70567 0.88474 0.32631 0.0
H937 H 0.70327 0.91034 0.34072 0.0
H938 H 0.72214 0.92536 0.43912 0.0
H939 H 0.68969 0.93136 0.46873 0.0
H940 H 0.8994 0.30725 0.49476 0.0
H941 H 0.89301 0.27439 0.52295 0.0
H942 H 0.88044 0.30289 0.62873 0.0
H943 H 0.88612 0.33558 0.6001 0.0
H944 H 0.91564 0.25975 0.57577 0.0
H945 H 0.83836 0.26056 0.62969 0.0
H946 H 0.84727 0.27873 0.59629 0.0
H947 H 0.85199 0.28198 0.64557 0.0
C948 C 0.89447 0.3064 0.52358 0.0
C949 C 0.8929 0.32374 0.54527 0.0
C950 C 0.89094 0.2877 0.53975 0.0
C951 C 0.88598 0.28613 0.57791 0.0
C952 C 0.88363 0.30365 0.59907 0.0
H953 H 0.92574 0.19236 0.72356 0.0
H954 H 0.91821 0.22412 0.69245 0.0
C955 C 0.88695 0.32232 0.58279 0.0
C956 C 0.88621 0.26638 0.59683 0.0
H957 H 0.86089 0.23696 0.659 0.0
C958 C 0.90351 0.25467 0.59349 0.0
C959 C 0.87036 0.25961 0.61982 0.0
C960 C 0.85088 0.2708 0.62273 0.0
C961 C 0.90571 0.23679 0.61344 0.0
C962 C 0.89043 0.2307 0.63828 0.0
C963 C 0.87276 0.24191 0.64055 0.0
C964 C 0.89275 0.21266 0.6619 0.0
C965 C 0.92442 0.22458 0.60768 0.0
C966 C 0.88019 0.19611 0.65674 0.0
C967 C 0.88431 0.17807 0.67493 0.0
C968 C 0.90101 0.17643 0.69853 0.0
C969 C 0.91276 0.19336 0.70554 0.0
C970 C 0.90856 0.2114 0.68759 0.0
H971 H 0.93181 0.22823 0.58068 0.0
H972 H 0.93516 0.22789 0.63051 0.0
H973 H 0.9211 0.20834 0.60821 0.0
H974 H 0.86788 0.19682 0.63709 0.0
H975 H 0.87523 0.1651 0.66868 0.0
H976 H 0.33415 0.37062 0.83335 0.0
H977 H 0.30142 0.3638 0.86147 0.0
H978 H 0.27613 0.41293 0.79928 0.0
H979 H 0.30867 0.41935 0.77053 0.0
H980 H 0.28295 0.38998 0.90656 0.0
H981 H 0.23252 0.3718 0.78911 0.0
H982 H 0.25938 0.37113 0.78456 0.0
H983 H 0.24608 0.39441 0.78028 0.0
C984 C 0.32138 0.37942 0.82469 0.0
C985 C 0.32377 0.39543 0.79972 0.0
C986 C 0.30276 0.37563 0.84094 0.0
C987 C 0.28626 0.38774 0.83228 0.0
C988 C 0.28848 0.40309 0.80579 0.0
H989 H 0.19072 0.43194 0.96339 0.0
H990 H 0.22294 0.42294 0.93582 0.0
C991 C 0.30707 0.40682 0.78948 0.0
C992 C 0.26749 0.3861 0.85414 0.0
H993 H 0.21678 0.38488 0.84496 0.0
C994 C 0.26849 0.38847 0.89316 0.0
C995 C 0.24863 0.38388 0.8368 0.0
C996 C 0.24659 0.37994 0.79542 0.0
C997 C 0.25112 0.38982 0.91499 0.0
C998 C 0.23226 0.38917 0.89725 0.0
C999 C 0.23125 0.38563 0.85854 0.0
C1000 C 0.21348 0.39356 0.91766 0.0
C1001 C 0.25318 0.39221 0.9568 0.0
C1002 C 0.19741 0.3801 0.91653 0.0
C1003 C 0.17895 0.38532 0.932 0.0
C1004 C 0.17626 0.40412 0.94874 0.0
C1005 C 0.1925 0.4173 0.95091 0.0
C1006 C 0.21093 0.41211 0.93538 0.0
H1007 H 0.26744 0.38571 0.96703 0.0
H1008 H 0.25323 0.40835 0.96384 0.0
H1009 H 0.24061 0.38498 0.97187 0.0
H1010 H 0.19899 0.3658 0.90266 0.0
H1011 H 0.16654 0.37508 0.92909 0.0
H1012 H 0.40119 0.81031 0.98635 0.0
H1013 H 0.39619 0.77773 0.01694 0.0
H1014 H 0.397 0.80664 0.1249 0.0
H1015 H 0.40146 0.83902 0.0943 0.0
H1016 H 0.42254 0.76078 0.06317 0.0
H1017 H 0.35095 0.76878 0.1386 0.0
H1018 H 0.35851 0.78577 0.10199 0.0
H1019 H 0.36761 0.78899 0.14905 0.0
C1020 C 0.39973 0.80961 0.01651 0.0
C1021 C 0.40151 0.82695 0.03816 0.0
C1022 C 0.39694 0.79109 0.03396 0.0
C1023 C 0.39589 0.78978 0.07321 0.0
C1024 C 0.39716 0.8073 0.09462 0.0
H1025 H 0.43782 0.69394 0.21154 0.0
H1026 H 0.43116 0.72572 0.17981 0.0
C1027 C 0.39985 0.82575 0.07721 0.0
C1028 C 0.39588 0.77006 0.09213 0.0
H1029 H 0.37332 0.74323 0.16166 0.0
C1030 C 0.41159 0.75684 0.0843 0.0
C1031 C 0.38151 0.76481 0.11949 0.0
C1032 C 0.36358 0.77776 0.12749 0.0
C1033 C 0.41381 0.73891 0.10413 0.0
C1034 C 0.40021 0.73431 0.13317 0.0
C1035 C 0.38396 0.74704 0.13991 0.0
C1036 C 0.40279 0.7163 0.1567 0.0
C1037 C 0.43076 0.72509 0.09385 0.0
C1038 C 0.38854 0.70094 0.15586 0.0
C1039 C 0.39225 0.68289 0.1743 0.0
C1040 C 0.4102 0.68005 0.19393 0.0
C1041 C 0.42388 0.69585 0.19658 0.0
C1042 C 0.42015 0.71389 0.17828 0.0
H1043 H 0.4363 0.728 0.06505 0.0
H1044 H 0.44337 0.72748 0.1135 0.0
H1045 H 0.42609 0.7092 0.09581 0.0
H1046 H 0.37505 0.70255 0.13941 0.0
H1047 H 0.38164 0.67079 0.17125 0.0
H1048 H 0.80315 0.57526 0.98768 0.0
H1049 H 0.77155 0.58101 0.95475 0.0
H1050 H 0.79927 0.62781 0.88997 0.0
H1051 H 0.83108 0.62142 0.92166 0.0
H1052 H 0.74623 0.61203 0.94351 0.0
H1053 H 0.78145 0.58958 0.80916 0.0
H1054 H 0.79387 0.58671 0.85359 0.0
H1055 H 0.79287 0.61077 0.83125 0.0
C1056 C 0.80233 0.58699 0.96684 0.0
C1057 C 0.81949 0.59779 0.95696 0.0
C1058 C 0.78433 0.59028 0.94805 0.0
C1059 C 0.78318 0.60451 0.91923 0.0
C1060 C 0.79994 0.61641 0.91143 0.0
H1061 H 0.66578 0.62459 0.81473 0.0
H1062 H 0.69829 0.63143 0.84336 0.0
C1063 C 0.81802 0.61296 0.92993 0.0
C1064 C 0.76488 0.60579 0.89591 0.0
H1065 H 0.7475 0.59857 0.80702 0.0
C1066 C 0.7465 0.60927 0.91361 0.0
C1067 C 0.76525 0.60186 0.85695 0.0
C1068 C 0.78437 0.59683 0.83659 0.0
C1069 C 0.72844 0.60852 0.89364 0.0
C1070 C 0.72884 0.60474 0.85463 0.0
C1071 C 0.74726 0.6017 0.8368 0.0
C1072 C 0.71025 0.60195 0.83259 0.0
C1073 C 0.70909 0.61081 0.91488 0.0
C1074 C 0.70665 0.58358 0.81488 0.0
C1075 C 0.68832 0.57985 0.79763 0.0
C1076 C 0.67322 0.59439 0.79787 0.0
C1077 C 0.67722 0.6132 0.81365 0.0
C1078 C 0.69567 0.617 0.83063 0.0
H1079 H 0.71122 0.60893 0.94552 0.0
H1080 H 0.70298 0.62599 0.90997 0.0
H1081 H 0.69785 0.59975 0.90525 0.0
H1082 H 0.71773 0.57179 0.81579 0.0
H1083 H 0.68561 0.56528 0.78549 0.0
H1084 H 0.61735 0.16597 0.09735 0.0
H1085 H 0.62148 0.19863 0.12734 0.0
H1086 H 0.59375 0.22697 0.0321 0.0
H1087 H 0.58896 0.19412 0.00277 0.0
H1088 H 0.63903 0.23424 0.1118 0.0
H1089 H 0.55661 0.24238 0.11615 0.0
H1090 H 0.56863 0.21947 0.10226 0.0
H1091 H 0.56627 0.23981 0.06959 0.0
C1092 C 0.61258 0.17927 0.08257 0.0
C1093 C 0.60287 0.17773 0.04791 0.0
C1094 C 0.61489 0.19788 0.09968 0.0
C1095 C 0.60753 0.21519 0.08232 0.0
C1096 C 0.59911 0.21375 0.04637 0.0
H1097 H 0.622 0.33739 0.16125 0.0
H1098 H 0.62759 0.30483 0.13178 0.0
C1099 C 0.59656 0.19509 0.02947 0.0
C1100 C 0.6072 0.23433 0.1032 0.0
H1101 H 0.57556 0.27 0.13678 0.0
C1102 C 0.62517 0.2421 0.11733 0.0
C1103 C 0.58904 0.24429 0.11116 0.0
C1104 C 0.56902 0.23598 0.09936 0.0
C1105 C 0.6255 0.25968 0.13885 0.0
C1106 C 0.6074 0.27 0.1456 0.0
C1107 C 0.58946 0.26214 0.13157 0.0
C1108 C 0.60644 0.28904 0.16689 0.0
C1109 C 0.64513 0.26669 0.15484 0.0
C1110 C 0.59275 0.29106 0.19649 0.0
C1111 C 0.58931 0.30971 0.21275 0.0
C1112 C 0.59973 0.32655 0.20013 0.0
C1113 C 0.61416 0.32444 0.17195 0.0
C1114 C 0.61738 0.30583 0.15519 0.0
H1115 H 0.65594 0.25418 0.15752 0.0
H1116 H 0.65178 0.27796 0.13576 0.0
H1117 H 0.64309 0.27366 0.18277 0.0
H1118 H 0.58409 0.27836 0.20593 0.0
H1119 H 0.57791 0.31115 0.2341 0.0
H1120 H 0.03865 0.0774 0.22199 0.0
H1121 H 0.01344 0.05314 0.20112 0.0
H1122 H 0.05989 0.01001 0.17995 0.0
H1123 H 0.08492 0.03388 0.2019 0.0
H1124 H 0.00532 0.02659 0.13876 0.0
H1125 H 0.02838 0.98602 0.26759 0.0
H1126 H 0.0364 0.01118 0.25775 0.0
H1127 H 0.04805 0.99043 0.23448 0.0
C1128 C 0.0435 0.06303 0.21141 0.0
C1129 C 0.06368 0.05744 0.21369 0.0
C1130 C 0.02909 0.04913 0.1997 0.0
C1131 C 0.03476 0.02959 0.18988 0.0
C1132 C 0.05514 0.02485 0.18811 0.0
H1133 H 0.96032 0.92257 0.20838 0.0
H1134 H 0.98782 0.94365 0.18569 0.0
C1135 C 0.06945 0.03856 0.20035 0.0
C1136 C 0.0195 0.01352 0.18696 0.0
H1137 H 0.00282 0.97171 0.23197 0.0
C1138 C 0.00485 0.01448 0.15891 0.0
C1139 C 0.01889 0.99769 0.21328 0.0
C1140 C 0.03363 0.99627 0.24519 0.0
C1141 C 0.98947 1.00015 0.15678 0.0
C1142 C 0.98857 0.98467 0.18376 0.0
C1143 C 0.00361 0.9834 0.211 0.0
C1144 C 0.97097 0.97123 0.18784 0.0
C1145 C 0.97427 0.00183 0.12582 0.0
C1146 C 0.95217 0.97956 0.19526 0.0
C1147 C 0.93655 0.96759 0.20816 0.0
C1148 C 0.93936 0.94701 0.21411 0.0
C1149 C 0.95765 0.93833 0.20376 0.0
C1150 C 0.9734 0.9504 0.19098 0.0
H1151 H 0.98079 0.00913 0.1007 0.0
H1152 H 0.96834 0.98697 0.11769 0.0
H1153 H 0.96163 0.01123 0.13551 0.0
H1154 H 0.94995 0.99557 0.19393 0.0
H1155 H 0.92262 0.97472 0.2159 0.0
H1156 H 0.0798 0.95785 0.7874 0.0
H1157 H 0.05977 0.98566 0.81191 0.0
H1158 H 0.00643 0.95005 0.8006 0.0
H1159 H 0.02623 0.9224 0.77676 0.0
H1160 H 0.0324 0.00237 0.76589 0.0
H1161 H 0.99395 0.97986 0.89582 0.0
H1162 H 0.01574 0.96693 0.87842 0.0
H1163 H 0.99134 0.96128 0.86004 0.0
C1164 C 0.06393 0.95571 0.79165 0.0
C1165 C 0.05457 0.93802 0.77985 0.0
C1166 C 0.05247 0.97163 0.80552 0.0
C1167 C 0.03157 0.96994 0.80835 0.0
C1168 C 0.02252 0.95166 0.7995 0.0
H1169 H 0.92762 0.0404 0.77684 0.0
H1170 H 0.95134 0.01466 0.79744 0.0
C1171 C 0.03388 0.93587 0.7855 0.0
C1172 C 0.01885 0.98797 0.81335 0.0
H1173 H 0.97744 0.0055 0.85882 0.0
C1174 C 0.02071 0.0033 0.78683 0.0
C1175 C 0.00337 0.98903 0.84029 0.0
C1176 C 0.0011 0.97346 0.87046 0.0
C1177 C 0.00694 0.01905 0.78509 0.0
C1178 C 0.99108 0.01984 0.81133 0.0
C1179 C 0.98959 0.0049 0.83877 0.0
C1180 C 0.97536 0.03546 0.80865 0.0
C1181 C 0.00887 0.03406 0.7537 0.0
C1182 C 0.98056 0.05574 0.81051 0.0
C1183 C 0.96717 0.07034 0.79829 0.0
C1184 C 0.94817 0.06498 0.78496 0.0
C1185 C 0.94212 0.04493 0.78728 0.0
C1186 C 0.9557 0.03023 0.79889 0.0
H1187 H 0.01899 0.02872 0.73119 0.0
H1188 H 0.99407 0.03738 0.74112 0.0
H1189 H 0.01512 0.04818 0.76493 0.0
H1190 H 0.99549 0.06015 0.81873 0.0
H1191 H 0.97217 0.08572 0.79687 0.0
H1192 H 0.04353 0.42338 0.04313 0.0
H1193 H 0.01561 0.44356 0.06696 0.0
H1194 H 0.04882 0.49736 0.04386 0.0
H1195 H 0.07673 0.47749 0.02135 0.0
H1196 H 0.02558 0.5018 0.10606 0.0
H1197 H 0.98147 0.47036 0.98788 0.0
H1198 H 0.99034 0.45244 0.02135 0.0
H1199 H 0.00787 0.46593 0.99281 0.0
C1200 C 0.04508 0.43947 0.04423 0.0
C1201 C 0.0622 0.44883 0.02965 0.0
C1202 C 0.02905 0.45101 0.0575 0.0
C1203 C 0.02989 0.47203 0.05617 0.0
C1204 C 0.0477 0.48122 0.04489 0.0
H1205 H 0.95679 0.57537 0.03189 0.0
H1206 H 0.98381 0.5528 0.05085 0.0
C1207 C 0.06365 0.46978 0.03183 0.0
C1208 C 0.01183 0.48463 0.06205 0.0
H1209 H 0.96665 0.49573 0.02287 0.0
C1210 C 0.01255 0.50031 0.08825 0.0
C1211 C 0.9949 0.48288 0.03849 0.0
C1212 C 0.99355 0.46713 0.00832 0.0
C1213 C 0.99699 0.5144 0.09109 0.0
C1214 C 0.98036 0.51287 0.06688 0.0
C1215 C 0.97936 0.49684 0.0416 0.0
C1216 C 0.96425 0.52818 0.06513 0.0
C1217 C 0.99856 0.53086 0.1197 0.0
C1218 C 0.94424 0.52219 0.06812 0.0
C1219 C 0.92887 0.53498 0.05704 0.0
C1220 C 0.93316 0.5541 0.04285 0.0
C1221 C 0.95303 0.56085 0.04326 0.0
C1222 C 0.9685 0.54791 0.05406 0.0
H1223 H 0.00873 0.52666 0.14298 0.0
H1224 H 0.00472 0.54443 0.1061 0.0
H1225 H 0.98368 0.53463 0.13146 0.0
H1226 H 0.94057 0.50708 0.07655 0.0
H1227 H 0.91369 0.52937 0.05695 0.0
H1228 H 0.42988 0.96594 0.00614 0.0
H1229 H 0.45328 0.99234 0.98963 0.0
H1230 H 0.47846 0.95474 0.90348 0.0
H1231 H 0.45602 0.92768 0.92257 0.0
H1232 H 0.50674 0.96725 0.93976 0.0
H1233 H 0.4616 0.0344 0.91679 0.0
H1234 H 0.45471 0.02456 0.96146 0.0
H1235 H 0.45024 0.01003 0.91963 0.0
C1236 C 0.43983 0.96368 0.98259 0.0
C1237 C 0.44092 0.94498 0.96508 0.0
C1238 C 0.45326 0.97884 0.97301 0.0
C1239 C 0.46763 0.97586 0.94478 0.0
C1240 C 0.4676 0.95756 0.92533 0.0
H1241 H 0.54815 0.07932 0.93633 0.0
H1242 H 0.52534 0.0536 0.91246 0.0
C1243 C 0.45461 0.94216 0.93583 0.0
C1244 C 0.48433 0.99046 0.93973 0.0
H1245 H 0.49502 0.04027 0.94319 0.0
C1246 C 0.50407 0.98322 0.93952 0.0
C1247 C 0.48123 0.01139 0.93834 0.0
C1248 C 0.46076 0.02046 0.93359 0.0
C1249 C 0.52056 0.99618 0.94056 0.0
C1250 C 0.51735 0.01701 0.94402 0.0
C1251 C 0.49769 0.02432 0.9415 0.0
C1252 C 0.53379 0.03126 0.95344 0.0
C1253 C 0.5412 0.98724 0.93803 0.0
C1254 C 0.54672 0.02722 0.98358 0.0
C1255 C 0.56027 0.04163 0.99612 0.0
C1256 C 0.56081 0.06057 0.97951 0.0
C1257 C 0.54834 0.06459 0.94886 0.0
C1258 C 0.53515 0.04996 0.93558 0.0
H1259 H 0.54115 0.97382 0.91972 0.0
H1260 H 0.55226 0.99805 0.92683 0.0
H1261 H 0.54604 0.9823 0.96626 0.0
H1262 H 0.54556 0.01337 -0.00098 0.0
H1263 H 0.56923 0.03849 0.02069 0.0
H1264 H 0.41279 0.46981 0.71288 0.0
H1265 H 0.43724 0.49376 0.68945 0.0
H1266 H 0.48327 0.44887 0.69707 0.0
H1267 H 0.45858 0.42461 0.71962 0.0
H1268 H 0.46657 0.50485 0.73531 0.0
H1269 H 0.50025 0.47829 0.60299 0.0
H1270 H 0.47682 0.46873 0.62056 0.0
H1271 H 0.50011 0.45956 0.63892 0.0
C1272 C 0.42797 0.46481 0.70814 0.0
C1273 C 0.4338 0.44535 0.71812 0.0
C1274 C 0.44196 0.47855 0.69482 0.0
C1275 C 0.46215 0.47321 0.69146 0.0
C1276 C 0.46775 0.4533 0.69869 0.0
H1277 H 0.5744 0.52715 0.71535 0.0
H1278 H 0.54627 0.50674 0.69546 0.0
C1279 C 0.45362 0.43941 0.71163 0.0
C1280 C 0.4775 0.48914 0.68691 0.0
H1281 H 0.51911 0.50275 0.63768 0.0
C1282 C 0.47781 0.50461 0.71345 0.0
C1283 C 0.49226 0.48878 0.6586 0.0
C1284 C 0.49228 0.47305 0.62843 0.0
C1285 C 0.49293 0.51911 0.71369 0.0
C1286 C 0.50806 0.51849 0.686 0.0
C1287 C 0.50742 0.50338 0.65865 0.0
C1288 C 0.52597 0.53159 0.68855 0.0
C1289 C 0.49323 0.53422 0.74509 0.0
C1290 C 0.52438 0.55257 0.68895 0.0
C1291 C 0.54057 0.5644 0.70056 0.0
C1292 C 0.55854 0.55534 0.71176 0.0
C1293 C 0.56066 0.53456 0.70733 0.0
C1294 C 0.54458 0.52283 0.69584 0.0
H1295 H 0.48268 0.53027 0.76792 0.0
H1296 H 0.50844 0.53551 0.75724 0.0
H1297 H 0.48886 0.54906 0.73401 0.0
H1298 H 0.51026 0.5597 0.68262 0.0
H1299 H 0.53849 0.58036 0.70365 0.0
H1300 H 0.42348 0.54626 0.28987 0.0
H1301 H 0.44331 0.51808 0.31349 0.0
H1302 H 0.49667 0.55397 0.30636 0.0
H1303 H 0.47706 0.58198 0.28351 0.0
H1304 H 0.47087 0.50204 0.26786 0.0
H1305 H 0.50868 0.52256 0.39952 0.0
H1306 H 0.48712 0.53592 0.38224 0.0
H1307 H 0.51172 0.54167 0.36485 0.0
C1308 C 0.43929 0.54837 0.29495 0.0
C1309 C 0.44874 0.56627 0.28458 0.0
C1310 C 0.45064 0.53223 0.30827 0.0
C1311 C 0.47152 0.53388 0.31194 0.0
C1312 C 0.48061 0.55234 0.30462 0.0
H1313 H 0.57518 0.46308 0.27701 0.0
H1314 H 0.55173 0.48893 0.29826 0.0
C1315 C 0.46935 0.56835 0.2912 0.0
C1316 C 0.48424 0.51579 0.31619 0.0
H1317 H 0.52552 0.4976 0.36128 0.0
C1318 C 0.48249 0.50083 0.2889 0.0
C1319 C 0.49963 0.51433 0.34326 0.0
C1320 C 0.50177 0.52941 0.37432 0.0
C1321 C 0.49626 0.48509 0.28662 0.0
C1322 C 0.51204 0.48394 0.31296 0.0
C1323 C 0.51345 0.49849 0.34111 0.0
C1324 C 0.52766 0.46825 0.30986 0.0
C1325 C 0.49439 0.47043 0.25465 0.0
C1326 C 0.52234 0.44801 0.31168 0.0
C1327 C 0.53558 0.43334 0.2992 0.0
C1328 C 0.55455 0.4386 0.2855 0.0
C1329 C 0.56072 0.45862 0.28775 0.0
C1330 C 0.54729 0.47339 0.29972 0.0
H1331 H 0.48423 0.47597 0.23235 0.0
H1332 H 0.5092 0.46731 0.24197 0.0
H1333 H 0.48822 0.45615 0.26535 0.0
H1334 H 0.50741 0.44369 0.32008 0.0
H1335 H 0.53048 0.418 0.29782 0.0
H1336 H 0.53805 0.9231 0.52344 0.0
H1337 H 0.5113 0.94585 0.54325 0.0
H1338 H 0.55525 0.98975 0.57497 0.0
H1339 H 0.58189 0.96734 0.55433 0.0
H1340 H 0.50025 0.97168 0.60756 0.0
H1341 H 0.52648 0.01333 0.48202 0.0
H1342 H 0.53445 0.98818 0.49206 0.0
H1343 H 0.54505 0.00883 0.51728 0.0
C1344 C 0.542 0.93721 0.53627 0.0
C1345 C 0.562 0.94354 0.53716 0.0
C1346 C 0.52671 0.95026 0.54737 0.0
C1347 C 0.53131 0.96965 0.55975 0.0
C1348 C 0.55137 0.97497 0.56494 0.0
H1349 H 0.45535 0.07509 0.53555 0.0
H1350 H 0.48271 0.05415 0.55897 0.0
C1351 C 0.56659 0.96211 0.5534 0.0
C1352 C 0.51553 0.98523 0.56106 0.0
H1353 H 0.49918 0.0266 0.51432 0.0
C1354 C 0.50006 0.9838 0.58743 0.0
C1355 C 0.51532 0.00105 0.53473 0.0
C1356 C 0.53109 0.00295 0.50469 0.0
C1357 C 0.48428 0.99772 0.58792 0.0
C1358 C 0.48381 0.01321 0.5609 0.0
C1359 C 0.49961 0.01489 0.53529 0.0
C1360 C 0.46617 0.02642 0.55537 0.0
C1361 C 0.46826 0.99565 0.61731 0.0
C1362 C 0.44759 0.01794 0.54668 0.0
C1363 C 0.432 0.02984 0.53344 0.0
C1364 C 0.43466 0.05051 0.52817 0.0
C1365 C 0.45279 0.05925 0.53938 0.0
C1366 C 0.46845 0.04727 0.55266 0.0
H1367 H 0.47421 0.98844 0.64301 0.0
H1368 H 0.46179 0.01037 0.62492 0.0
H1369 H 0.45613 0.98601 0.60632 0.0
H1370 H 0.44551 0.00191 0.54767 0.0
H1371 H 0.4182 0.02261 0.52529 0.0
H1372 H 0.92504 0.4552 0.46372 0.0
H1373 H 0.94674 0.48245 0.4424 0.0
H1374 H 0.9983 0.44458 0.45653 0.0
H1375 H 0.97686 0.4174 0.47712 0.0
H1376 H 0.97413 0.49799 0.49011 0.0
H1377 H 0.0133 0.47386 0.36179 0.0
H1378 H 0.99076 0.46188 0.37822 0.0
H1379 H 0.01463 0.45536 0.39799 0.0
C1380 C 0.94092 0.45247 0.46097 0.0
C1381 C 0.94922 0.43418 0.47245 0.0
C1382 C 0.95333 0.46808 0.44889 0.0
C1383 C 0.97418 0.46556 0.44757 0.0
C1384 C 0.98228 0.44684 0.45649 0.0
H1385 H 0.0795 0.53523 0.47933 0.0
H1386 H 0.05574 0.5093 0.45966 0.0
C1387 C 0.96995 0.43132 0.46865 0.0
C1388 C 0.98768 0.48306 0.44324 0.0
H1389 H 0.0297 0.49955 0.39831 0.0
C1390 C 0.986 0.49855 0.46948 0.0
C1391 C 0.00338 0.48364 0.41669 0.0
C1392 C 0.00552 0.46787 0.38686 0.0
C1393 C 1.00005 0.51406 0.47115 0.0
C1394 C 0.01603 0.51445 0.44514 0.0
C1395 C 0.01745 0.49927 0.41816 0.0
C1396 C 0.03181 0.53003 0.44734 0.0
C1397 C 0.99818 0.52933 0.50209 0.0
C1398 C 0.02669 0.55029 0.44453 0.0
C1399 C 0.04011 0.56501 0.45615 0.0
C1400 C 0.05908 0.55975 0.4698 0.0
C1401 C 0.06505 0.53966 0.46849 0.0
C1402 C 0.05144 0.52485 0.45746 0.0
H1403 H 0.988 0.52423 0.5247 0.0
H1404 H 0.01298 0.53267 0.51464 0.0
H1405 H 0.99202 0.5434 0.49043 0.0
H1406 H 0.01178 0.55465 0.43605 0.0
H1407 H 0.03515 0.58041 0.45697 0.0
H1408 H 0.12927 0.92739 0.62667 0.0
H1409 H 0.14148 0.93982 0.56655 0.0
H1410 H 0.08112 0.94144 0.52449 0.0
H1411 H 0.06881 0.92853 0.58409 0.0
H1412 H 0.10761 0.92421 0.47471 0.0
H1413 H 0.13699 0.99664 0.52807 0.0
H1414 H 0.14679 0.97462 0.55013 0.0
H1415 H 0.12087 0.98088 0.55569 0.0
C1416 C 0.11856 0.93054 0.60474 0.0
C1417 C 0.09803 0.92708 0.61025 0.0
C1418 C 0.12559 0.93767 0.57041 0.0
C1419 C 0.11219 0.94173 0.54122 0.0
C1420 C 0.09171 0.93836 0.54668 0.0
H1421 H 0.09222 0.00194 0.34585 0.0
H1422 H 0.09424 0.97725 0.3959 0.0
C1423 C 0.08469 0.93108 0.58083 0.0
C1424 C 0.11926 0.94956 0.50482 0.0
H1425 H 0.13915 0.99097 0.4635 0.0
C1426 C 0.11477 0.93869 0.47227 0.0
C1427 C 0.12881 0.96834 0.50174 0.0
C1428 C 0.13355 0.98092 0.53567 0.0
C1429 C 0.11858 0.9466 0.43665 0.0
C1430 C 0.12703 0.96584 0.43362 0.0
C1431 C 0.13279 0.97613 0.46606 0.0
C1432 C 0.12654 0.97712 0.39811 0.0
C1433 C 0.11283 0.93468 0.40252 0.0
C1434 C 0.14409 0.98488 0.38222 0.0
C1435 C 0.14295 0.99885 0.35309 0.0
C1436 C 0.12424 0.00549 0.34044 0.0
C1437 C 0.1068 0.99692 0.35511 0.0
C1438 C 0.10795 0.98277 0.38354 0.0
H1439 H 0.11257 0.91841 0.40863 0.0
H1440 H 0.09762 0.93915 0.39345 0.0
H1441 H 0.1233 0.93751 0.37901 0.0
H1442 H 0.15856 0.98086 0.39352 0.0
H1443 H 0.15656 0.00553 0.34247 0.0
H1444 H 0.99757 0.908 0.64868 0.0
H1445 H 0.97348 0.90511 0.59779 0.0
H1446 H 0.97833 0.8409 0.60214 0.0
H1447 H 0.00238 0.84379 0.65404 0.0
H1448 H 0.98889 0.85971 0.53222 0.0
H1449 H 0.91528 0.88577 0.58254 0.0
H1450 H 0.93547 0.90126 0.59837 0.0
H1451 H 0.93411 0.87566 0.61349 0.0
C1452 C 0.99291 0.89326 0.63971 0.0
C1453 C 0.00165 0.87611 0.65518 0.0
C1454 C 0.9791 0.89161 0.61078 0.0
C1455 C 0.97399 0.87279 0.5965 0.0
C1456 C 0.98191 0.85552 0.61321 0.0
H1457 H 0.92781 0.87046 0.36494 0.0
H1458 H 0.93924 0.85765 0.42539 0.0
C1459 C 0.99553 0.85718 0.64283 0.0
C1460 C 0.96323 0.87183 0.56047 0.0
H1461 H 0.92225 0.89095 0.51673 0.0
C1462 C 0.97407 0.86597 0.52871 0.0
C1463 C 0.94398 0.8801 0.5562 0.0
C1464 C 0.93144 0.88589 0.58953 0.0
C1465 C 0.96687 0.86982 0.49254 0.0
C1466 C 0.94816 0.87936 0.48828 0.0
C1467 C 0.93668 0.88381 0.5201 0.0
C1468 C 0.94115 0.88674 0.45152 0.0
C1469 C 0.98001 0.86502 0.4594 0.0
C1470 C 0.93822 0.9073 0.44633 0.0
C1471 C 0.93154 0.91466 0.41203 0.0
C1472 C 0.92771 0.90157 0.38213 0.0
C1473 C 0.93084 0.88096 0.38727 0.0
C1474 C 0.93738 0.8736 0.42178 0.0
H1475 H 0.9955 0.86121 0.46795 0.0
H1476 H 0.97371 0.85203 0.44418 0.0
H1477 H 0.9806 0.87784 0.43971 0.0
H1478 H 0.94111 0.9177 0.46892 0.0
H1479 H 0.92926 0.9306 0.40906 0.0
H1480 H 0.93392 0.07672 0.58879 0.0
H1481 H 0.92231 0.06491 0.52799 0.0
H1482 H 0.86194 0.06212 0.56978 0.0
H1483 H 0.87349 0.07342 0.63112 0.0
H1484 H 0.87127 0.02944 0.53121 0.0
H1485 H 0.89306 0.09531 0.4478 0.0
H1486 H 0.9139 0.08592 0.47388 0.0
H1487 H 0.89247 0.09568 0.49832 0.0
C1488 C 0.91817 0.07359 0.58512 0.0
C1489 C 0.90463 0.07607 0.6148 0.0
C1490 C 0.91151 0.06707 0.55018 0.0
C1491 C 0.89116 0.06323 0.54403 0.0
C1492 C 0.87766 0.06528 0.57379 0.0
H1493 H 0.84779 0.00334 0.33816 0.0
H1494 H 0.84585 0.02732 0.39042 0.0
C1495 C 0.88432 0.07164 0.60887 0.0
C1496 C 0.88432 0.05588 0.50711 0.0
H1497 H 0.88936 0.06418 0.41332 0.0
C1498 C 0.87471 0.03727 0.50544 0.0
C1499 C 0.88858 0.06626 0.47351 0.0
C1500 C 0.89737 0.087 0.47349 0.0
C1501 C 0.87079 0.02802 0.47103 0.0
C1502 C 0.8766 0.03769 0.4376 0.0
C1503 C 0.88495 0.05686 0.43911 0.0
C1504 C 0.87756 0.02654 0.40209 0.0
C1505 C 0.86183 0.00734 0.4706 0.0
C1506 C 0.89606 0.01887 0.39088 0.0
C1507 C 0.89715 0.00518 0.36169 0.0
C1508 C 0.87978 0.99915 0.34285 0.0
C1509 C 0.86139 0.00794 0.35216 0.0
C1510 C 0.86026 0.02151 0.38196 0.0
H1511 H 0.85854 0.00172 0.4992 0.0
H1512 H 0.84773 0.00748 0.45427 0.0
H1513 H 0.87222 0.99677 0.45668 0.0
H1514 H 0.90954 0.02257 0.40619 0.0
H1515 H 0.9115 0.99863 0.35488 0.0
H1516 H 0.99986 0.16055 0.65835 0.0
H1517 H 0.02282 0.16316 0.60459 0.0
H1518 H 0.02381 0.09894 0.59536 0.0
H1519 H 0.00086 0.0963 0.64819 0.0
H1520 H 0.06313 0.12233 0.58353 0.0
H1521 H 0.99694 0.14532 0.49887 0.0
H1522 H 0.00241 0.15788 0.54231 0.0
H1523 H 0.9939 0.13251 0.54294 0.0
C1524 C 0.00555 0.14705 0.64549 0.0
C1525 C 0.99865 0.12823 0.6571 0.0
C1526 C 0.01851 0.14855 0.6148 0.0
C1527 C 0.02482 0.13122 0.59606 0.0
C1528 C 0.0191 0.11245 0.60957 0.0
H1529 H 0.07525 0.07348 0.41246 0.0
H1530 H 0.06332 0.0862 0.47232 0.0
C1531 C 0.006 0.11096 0.63965 0.0
C1532 C 0.03529 0.13218 0.55979 0.0
H1533 H 0.02525 0.13436 0.4663 0.0
C1534 C 0.05507 0.12545 0.55785 0.0
C1535 C 0.02466 0.13627 0.52648 0.0
C1536 C 0.00328 0.14338 0.52737 0.0
C1537 C 0.06421 0.12168 0.52324 0.0
C1538 C 0.05302 0.12422 0.48997 0.0
C1539 C 0.03371 0.13228 0.49188 0.0
C1540 C 0.0603 0.11678 0.45343 0.0
C1541 C 0.08555 0.11449 0.52271 0.0
C1542 C 0.0617 0.12958 0.42246 0.0
C1543 C 0.06828 0.12229 0.38793 0.0
C1544 C 0.07347 0.10203 0.38378 0.0
C1545 C 0.07152 0.08918 0.41468 0.0
C1546 C 0.06491 0.09647 0.44907 0.0
H1547 H 0.09386 0.11984 0.54769 0.0
H1548 H 0.08572 0.09792 0.52324 0.0
H1549 H 0.09348 0.1196 0.49715 0.0
H1550 H 0.05793 0.14525 0.42514 0.0
H1551 H 0.06962 0.1326 0.36471 0.0
H1552 H 0.13788 0.57169 0.61864 0.0
H1553 H 0.15093 0.56079 0.67932 0.0
H1554 H 0.091 0.55894 0.72348 0.0
H1555 H 0.07787 0.57017 0.66341 0.0
H1556 H 0.11836 0.57884 0.77008 0.0
H1557 H 0.14712 0.50464 0.72405 0.0
H1558 H 0.15595 0.52622 0.69911 0.0
H1559 H 0.13016 0.51912 0.69569 0.0
C1560 C 0.12746 0.56876 0.64117 0.0
C1561 C 0.10681 0.57172 0.63616 0.0
C1562 C 0.13496 0.56255 0.6758 0.0
C1563 C 0.12191 0.55899 0.70577 0.0
C1564 C 0.10132 0.56171 0.70069 0.0
H1565 H 0.0972 0.50552 0.90236 0.0
H1566 H 0.10193 0.52948 0.85177 0.0
C1567 C 0.09383 0.56802 0.66628 0.0
C1568 C 0.12938 0.55237 0.74269 0.0
H1569 H 0.14769 0.51152 0.78819 0.0
C1570 C 0.12514 0.56428 0.77403 0.0
C1571 C 0.13848 0.5335 0.74768 0.0
C1572 C 0.14314 0.52 0.71498 0.0
C1573 C 0.12847 0.55721 0.81042 0.0
C1574 C 0.13607 0.53773 0.81544 0.0
C1575 C 0.1419 0.5265 0.78413 0.0
C1576 C 0.13419 0.52719 0.85157 0.0
C1577 C 0.12287 0.57022 0.84321 0.0
C1578 C 0.15081 0.5183 0.86884 0.0
C1579 C 0.14811 0.50474 0.89826 0.0
C1580 C 0.12873 0.49963 0.90986 0.0
C1581 C 0.11227 0.50938 0.89396 0.0
C1582 C 0.11498 0.52313 0.86521 0.0
H1583 H 0.12395 0.58631 0.83589 0.0
H1584 H 0.10716 0.56709 0.85125 0.0
H1585 H 0.13257 0.56717 0.86777 0.0
H1586 H 0.16572 0.52106 0.85827 0.0
H1587 H 0.16098 0.49711 0.90982 0.0
H1588 H 0.5144 0.91994 0.06913 0.0
H1589 H 0.53559 0.91824 0.1246 0.0
H1590 H 0.50857 0.86217 0.15545 0.0
H1591 H 0.48724 0.86368 0.10001 0.0
H1592 H 0.51151 0.9157 0.19547 0.0
H1593 H 0.57063 0.8575 0.18287 0.0
H1594 H 0.56083 0.87056 0.14253 0.0
H1595 H 0.54596 0.85198 0.16546 0.0
C1596 C 0.51341 0.90689 0.08695 0.0
C1597 C 0.49884 0.89215 0.08058 0.0
C1598 C 0.52556 0.90594 0.11861 0.0
C1599 C 0.52354 0.89013 0.14404 0.0
C1600 C 0.51044 0.8744 0.1359 0.0
H1601 H 0.56454 0.87914 0.37558 0.0
H1602 H 0.54994 0.87222 0.31397 0.0
C1603 C 0.49821 0.87535 0.10425 0.0
C1604 C 0.53209 0.89209 0.18188 0.0
H1605 H 0.56756 0.87385 0.24129 0.0
C1606 C 0.5238 0.90659 0.20551 0.0
C1607 C 0.54778 0.87987 0.19491 0.0
C1608 C 0.55697 0.8641 0.17024 0.0
C1609 C 0.53096 0.90941 0.24189 0.0
C1610 C 0.54718 0.89772 0.25461 0.0
C1611 C 0.55519 0.88284 0.2313 0.0
C1612 C 0.55649 0.90149 0.29143 0.0
C1613 C 0.52097 0.92478 0.2665 0.0
C1614 C 0.56516 0.92012 0.29882 0.0
C1615 C 0.57331 0.92418 0.33387 0.0
C1616 C 0.57314 0.90958 0.36219 0.0
C1617 C 0.56476 0.89075 0.35448 0.0
C1618 C 0.55652 0.88673 0.31929 0.0
H1619 H 0.50553 0.92808 0.25691 0.0
H1620 H 0.52036 0.9197 0.29606 0.0
H1621 H 0.52963 0.9389 0.2654 0.0
H1622 H 0.5656 0.93157 0.27741 0.0
H1623 H 0.57983 0.93876 0.33863 0.0
H1624 H 0.9162 0.48617 0.92043 0.0
H1625 H 0.91306 0.46374 0.86697 0.0
H1626 H 0.8539 0.48639 0.84523 0.0
H1627 H 0.85699 0.5092 0.89838 0.0
H1628 H 0.88536 0.43442 0.83944 0.0
H1629 H 0.88745 0.50394 0.75378 0.0
H1630 H 0.89306 0.50387 0.80314 0.0
H1631 H 0.86762 0.5022 0.78749 0.0
C1632 C 0.9023 0.48607 0.9049 0.0
C1633 C 0.88704 0.49981 0.91306 0.0
C1634 C 0.90053 0.47319 0.8744 0.0
C1635 C 0.88346 0.47381 0.85173 0.0
C1636 C 0.86735 0.48601 0.86207 0.0
H1637 H 0.87599 0.43194 0.62089 0.0
H1638 H 0.86709 0.44508 0.68241 0.0
C1639 C 0.86913 0.49898 0.89252 0.0
C1640 C 0.88379 0.46375 0.81495 0.0
H1641 H 0.88772 0.47353 0.72154 0.0
C1642 C 0.88565 0.4429 0.81358 0.0
C1643 C 0.88428 0.47495 0.78136 0.0
C1644 C 0.88316 0.49749 0.78127 0.0
C1645 C 0.88823 0.43292 0.77937 0.0
C1646 C 0.88935 0.44419 0.74595 0.0
C1647 C 0.88685 0.46497 0.74726 0.0
C1648 C 0.89418 0.435 0.70944 0.0
C1649 C 0.88984 0.41045 0.77932 0.0
C1650 C 0.9125 0.42521 0.7042 0.0
C1651 C 0.91768 0.41771 0.66906 0.0
C1652 C 0.90468 0.42002 0.63844 0.0
C1653 C 0.88636 0.42991 0.64382 0.0
C1654 C 0.8812 0.43736 0.67898 0.0
H1655 H 0.88278 0.40384 0.80458 0.0
H1656 H 0.88272 0.40396 0.75403 0.0
H1657 H 0.90584 0.40615 0.77935 0.0
H1658 H 0.92297 0.42371 0.72714 0.0
H1659 H 0.93192 0.41022 0.6659 0.0
H1660 H 0.51716 0.1383 0.12296 0.0
H1661 H 0.4923 0.13637 0.17278 0.0
H1662 H 0.45967 0.09206 0.11016 0.0
H1663 H 0.48458 0.09369 0.06019 0.0
H1664 H 0.44824 0.13792 0.17945 0.0
H1665 H 0.48207 0.06314 0.20546 0.0
H1666 H 0.49372 0.08148 0.17558 0.0
H1667 H 0.47248 0.06764 0.15923 0.0
C1668 C 0.50442 0.12852 0.11925 0.0
C1669 C 0.5031 0.11578 0.08804 0.0
C1670 C 0.4902 0.1275 0.14772 0.0
C1671 C 0.47445 0.11377 0.14537 0.0
C1672 C 0.47192 0.10255 0.11258 0.0
H1673 H 0.40655 0.06422 0.33128 0.0
H1674 H 0.41915 0.07178 0.26876 0.0
C1675 C 0.48615 0.10355 0.08403 0.0
C1676 C 0.46267 0.1092 0.17922 0.0
H1677 H 0.45758 0.07398 0.24752 0.0
C1678 C 0.45006 0.12388 0.19422 0.0
C1679 C 0.46526 0.0909 0.1984 0.0
C1680 C 0.4792 0.07488 0.18415 0.0
C1681 C 0.43998 0.12074 0.22819 0.0
C1682 C 0.44301 0.10264 0.24787 0.0
C1683 C 0.45527 0.08782 0.23234 0.0
C1684 C 0.43433 0.09891 0.28532 0.0
C1685 C 0.42614 0.13678 0.24256 0.0
C1686 C 0.4389 0.11154 0.31547 0.0
C1687 C 0.43169 0.10729 0.35128 0.0
C1688 C 0.42 0.09017 0.35767 0.0
C1689 C 0.41557 0.07749 0.32741 0.0
C1690 C 0.42268 0.08182 0.2916 0.0
H1691 H 0.4207 0.14649 0.21951 0.0
H1692 H 0.41306 0.1302 0.25717 0.0
H1693 H 0.43435 0.14635 0.26271 0.0
H1694 H 0.44835 0.12449 0.31147 0.0
H1695 H 0.43544 0.11733 0.37399 0.0
H1696 H 0.65029 0.50123 0.83877 0.0
H1697 H 0.6521 0.47718 0.89081 0.0
H1698 H 0.58776 0.47606 0.89664 0.0
H1699 H 0.58594 0.50019 0.84557 0.0
H1700 H 0.6337 0.48935 0.96117 0.0
H1701 H 0.60446 0.41665 0.91156 0.0
H1702 H 0.61557 0.43488 0.88051 0.0
H1703 H 0.59015 0.43773 0.89582 0.0
C1704 C 0.6366 0.49522 0.85036 0.0
C1705 C 0.61797 0.50243 0.83839 0.0
C1706 C 0.63764 0.4816 0.88005 0.0
C1707 C 0.62005 0.47474 0.8972 0.0
C1708 C 0.60148 0.48089 0.88331 0.0
H1709 H 0.56579 0.42811 0.09026 0.0
H1710 H 0.57638 0.44048 0.02907 0.0
C1711 C 0.60044 0.49472 0.85431 0.0
C1712 C 0.62067 0.46403 0.93328 0.0
H1713 H 0.6013 0.42331 0.97754 0.0
C1714 C 0.62712 0.47467 0.96485 0.0
C1715 C 0.61188 0.44503 0.93775 0.0
C1716 C 0.60527 0.4328 0.90456 0.0
C1717 C 0.62364 0.46745 0.00111 0.0
C1718 C 0.61393 0.44883 0.00568 0.0
C1719 C 0.6086 0.43765 0.97396 0.0
C1720 C 0.60784 0.44138 0.04297 0.0
C1721 C 0.62914 0.48046 0.03405 0.0
C1722 C 0.62201 0.43783 0.07108 0.0
C1723 C 0.61597 0.43107 0.10629 0.0
C1724 C 0.59566 0.4274 0.11378 0.0
C1725 C 0.58152 0.43084 0.08544 0.0
C1726 C 0.58756 0.43781 0.05041 0.0
H1727 H 0.63214 0.49613 0.02551 0.0
H1728 H 0.61705 0.4805 0.05532 0.0
H1729 H 0.64288 0.47451 0.04736 0.0
H1730 H 0.63777 0.44009 0.0657 0.0
H1731 H 0.62728 0.42833 0.12734 0.0
H1732 H 0.42607 0.42786 0.91148 0.0
H1733 H 0.43915 0.41666 0.97168 0.0
H1734 H 0.44072 0.35596 0.93134 0.0
H1735 H 0.42816 0.36712 0.87054 0.0
H1736 H 0.42275 0.39033 0.0216 0.0
H1737 H 0.49662 0.36273 0.97222 0.0
H1738 H 0.48056 0.37784 0.94324 0.0
H1739 H 0.47528 0.35176 0.94981 0.0
C1740 C 0.42938 0.41215 0.91523 0.0
C1741 C 0.42621 0.39841 0.88611 0.0
C1742 C 0.43677 0.40576 0.94973 0.0
C1743 C 0.44106 0.38551 0.95591 0.0
C1744 C 0.43788 0.37171 0.92696 0.0
H1745 H 0.50204 0.3433 0.15982 0.0
H1746 H 0.47856 0.34098 0.10687 0.0
C1747 C 0.43068 0.37812 0.89224 0.0
C1748 C 0.44873 0.37907 0.99289 0.0
H1749 H 0.4901 0.36055 0.0366 0.0
C1750 C 0.43738 0.38358 0.02485 0.0
C1751 C 0.46773 0.37009 0.99707 0.0
C1752 C 0.48087 0.36543 0.96386 0.0
C1753 C 0.44493 0.38024 0.06092 0.0
C1754 C 0.46431 0.37224 0.06504 0.0
C1755 C 0.47516 0.36655 0.0332 0.0
C1756 C 0.47499 0.37297 0.10118 0.0
C1757 C 0.43248 0.386 0.09437 0.0
C1758 C 0.48035 0.39165 0.11571 0.0
C1759 C 0.49384 0.39297 0.14525 0.0
C1760 C 0.50198 0.37563 0.1611 0.0
C1761 C 0.49564 0.35684 0.14833 0.0
C1762 C 0.48236 0.35552 0.11811 0.0
H1763 H 0.41631 0.38624 0.08743 0.0
H1764 H 0.43497 0.37552 0.11802 0.0
H1765 H 0.43682 0.4012 0.1037 0.0
H1766 H 0.47512 0.40528 0.10261 0.0
H1767 H 0.49868 0.4076 0.15452 0.0
H1768 H 0.37528 0.51778 0.81524 0.0
H1769 H 0.37286 0.54275 0.86541 0.0
H1770 H 0.37485 0.4956 0.94775 0.0
H1771 H 0.37607 0.47089 0.89855 0.0
H1772 H 0.35085 0.52352 0.97046 0.0
H1773 H 0.42164 0.55872 0.92181 0.0
H1774 H 0.401 0.5599 0.88986 0.0
H1775 H 0.41209 0.53616 0.90107 0.0
C1776 C 0.37483 0.5128 0.84407 0.0
C1777 C 0.37626 0.49238 0.85289 0.0
C1778 C 0.37362 0.52707 0.8727 0.0
C1779 C 0.37425 0.52109 0.91041 0.0
C1780 C 0.37442 0.50066 0.91895 0.0
H1781 H 0.43362 0.56415 0.10011 0.0
H1782 H 0.42139 0.5508 0.04074 0.0
C1783 C 0.37526 0.48649 0.89061 0.0
C1784 C 0.37636 0.53557 0.9416 0.0
H1785 H 0.4095 0.56837 0.98013 0.0
C1786 C 0.36353 0.53355 0.97248 0.0
C1787 C 0.39296 0.5486 0.94414 0.0
C1788 C 0.40782 0.55095 0.91264 0.0
C1789 C 0.36774 0.5428 0.0068 0.0
C1790 C 0.38473 0.55531 0.0097 0.0
C1791 C 0.3966 0.55863 0.97791 0.0
C1792 C 0.39171 0.56344 0.04605 0.0
C1793 C 0.35477 0.53784 0.0401 0.0
C1794 C 0.37912 0.57494 0.06893 0.0
C1795 C 0.38592 0.58199 0.10347 0.0
C1796 C 0.40563 0.57826 0.11505 0.0
C1797 C 0.41834 0.56717 0.09183 0.0
C1798 C 0.41138 0.55965 0.05784 0.0
H1799 H 0.34571 0.52417 0.0353 0.0
H1800 H 0.36392 0.53553 0.06564 0.0
H1801 H 0.34428 0.55036 0.04531 0.0
H1802 H 0.36412 0.57861 0.06001 0.0
H1803 H 0.37595 0.59087 0.12061 0.0
H1804 H 0.5062 0.59518 0.14843 0.0
H1805 H 0.52928 0.59814 0.09595 0.0
H1806 H 0.52568 0.66237 0.10258 0.0
H1807 H 0.50262 0.65942 0.156 0.0
H1808 H 0.51384 0.64466 0.03257 0.0
H1809 H 0.58751 0.61645 0.0782 0.0
H1810 H 0.56728 0.60112 0.09439 0.0
H1811 H 0.56931 0.62651 0.11051 0.0
C1812 C 0.51091 0.60993 0.13956 0.0
C1813 C 0.50279 0.62707 0.15617 0.0
C1814 C 0.52415 0.61162 0.10971 0.0
C1815 C 0.52932 0.63047 0.09565 0.0
C1816 C 0.52204 0.64771 0.11342 0.0
H1817 H 0.57308 0.63269 0.86191 0.0
H1818 H 0.56262 0.6459 0.92279 0.0
C1819 C 0.50899 0.64601 0.14392 0.0
C1820 C 0.53957 0.63159 0.0591 0.0
H1821 H 0.57938 0.61187 0.01263 0.0
C1822 C 0.52845 0.63807 0.0281 0.0
C1823 C 0.55856 0.62293 0.05355 0.0
C1824 C 0.57145 0.61653 0.08601 0.0
C1825 C 0.53503 0.63443 0.99144 0.0
C1826 C 0.55338 0.6244 0.98591 0.0
C1827 C 0.56522 0.61938 0.01697 0.0
C1828 C 0.55948 0.61686 0.94871 0.0
C1829 C 0.52163 0.63993 0.95908 0.0
C1830 C 0.56125 0.5962 0.94324 0.0
C1831 C 0.5673 0.58862 0.90873 0.0
C1832 C 0.57169 0.60157 0.87889 0.0
C1833 C 0.56961 0.6223 0.88423 0.0
C1834 C 0.56365 0.62989 0.91897 0.0
H1835 H 0.50653 0.64463 0.96851 0.0
H1836 H 0.5284 0.6525 0.94333 0.0
H1837 H 0.52 0.62713 0.93958 0.0
H1838 H 0.55801 0.58589 0.96582 0.0
H1839 H 0.56875 0.57259 0.90562 0.0
H1840 H 0.56777 0.08389 0.16939 0.0
H1841 H 0.57702 0.07234 0.23195 0.0
H1842 H 0.63909 0.07156 0.19958 0.0
H1843 H 0.62994 0.08244 0.13677 0.0
H1844 H 0.62924 0.03804 0.2326 0.0
H1845 H 0.60159 0.10025 0.31991 0.0
H1846 H 0.58225 0.09059 0.29034 0.0
H1847 H 0.60387 0.10223 0.2697 0.0
C1848 C 0.5834 0.08139 0.17568 0.0
C1849 C 0.5981 0.084 0.14804 0.0
C1850 C 0.5887 0.075 0.2116 0.0
C1851 C 0.60881 0.07151 0.22074 0.0
C1852 C 0.62351 0.07432 0.19327 0.0
H1853 H 0.65303 0.00801 0.42118 0.0
H1854 H 0.65325 0.03355 0.37151 0.0
C1855 C 0.61822 0.08046 0.15729 0.0
C1856 C 0.61434 0.06319 0.25778 0.0
H1857 H 0.60675 0.06868 0.35174 0.0
C1858 C 0.62475 0.045 0.25868 0.0
C1859 C 0.60858 0.07233 0.29184 0.0
C1860 C 0.59865 0.09254 0.29294 0.0
C1861 C 0.62843 0.03507 0.29251 0.0
C1862 C 0.6216 0.04362 0.32631 0.0
C1863 C 0.61203 0.06225 0.3257 0.0
C1864 C 0.62144 0.03184 0.36121 0.0
C1865 C 0.63849 0.01489 0.29172 0.0
C1866 C 0.60341 0.02318 0.37262 0.0
C1867 C 0.6033 0.00861 0.4004 0.0
C1868 C 0.62119 0.00265 0.4176 0.0
C1869 C 0.63906 0.01248 0.40842 0.0
C1870 C 0.6392 0.02696 0.38007 0.0
H1871 H 0.64152 0.00967 0.26277 0.0
H1872 H 0.65289 0.01571 0.30702 0.0
H1873 H 0.629 0.00362 0.30603 0.0
H1874 H 0.58959 0.02674 0.35831 0.0
H1875 H 0.58932 0.0013 0.40719 0.0
H1876 H 0.02089 0.37672 0.56115 0.0
H1877 H 0.04537 0.37413 0.61195 0.0
H1878 H 0.9974 0.36515 0.69093 0.0
H1879 H 0.97334 0.36635 0.64067 0.0
H1880 H 0.0502 0.39852 0.66389 0.0
H1881 H 0.03514 0.32794 0.73556 0.0
H1882 H 0.025 0.33299 0.68975 0.0
H1883 H 0.01166 0.34045 0.73148 0.0
C1884 C 0.01569 0.37351 0.58922 0.0
C1885 C 0.99517 0.37183 0.59684 0.0
C1886 C 0.02968 0.37209 0.61826 0.0
C1887 C 0.02334 0.36917 0.65542 0.0
C1888 C 0.00289 0.36666 0.66258 0.0
H1889 H 0.06291 0.43214 0.84576 0.0
H1890 H 0.05093 0.41996 0.78536 0.0
C1891 C 0.98902 0.36762 0.63363 0.0
C1892 C 0.03734 0.37173 0.68737 0.0
H1893 H 0.04478 0.35604 0.77706 0.0
C1894 C 0.04941 0.38889 0.68825 0.0
C1895 C 0.03701 0.35898 0.71898 0.0
C1896 C 0.02666 0.33896 0.71857 0.0
C1897 C 0.05968 0.39449 0.72079 0.0
C1898 C 0.05696 0.38324 0.75397 0.0
C1899 C 0.04637 0.36515 0.75214 0.0
C1900 C 0.06398 0.39046 0.79105 0.0
C1901 C 0.07317 0.41254 0.71909 0.0
C1902 C 0.07419 0.37761 0.81557 0.0
C1903 C 0.08024 0.38432 0.85082 0.0
C1904 C 0.07652 0.40411 0.86189 0.0
C1905 C 0.06613 0.41689 0.83765 0.0
C1906 C 0.05956 0.41 0.8029 0.0
H1907 H 0.07995 0.41408 0.69085 0.0
H1908 H 0.06423 0.42621 0.72432 0.0
H1909 H 0.08537 0.41168 0.74006 0.0
H1910 H 0.07765 0.36243 0.80733 0.0
H1911 H 0.08835 0.37421 0.86898 0.0
H1912 H 0.38778 0.9759 0.43863 0.0
H1913 H 0.38862 0.95161 0.38727 0.0
H1914 H 0.37144 0.99796 0.30969 0.0
H1915 H 0.3692 0.02167 0.36067 0.0
H1916 H 0.35569 0.96551 0.2884 0.0
H1917 H 0.43538 0.94942 0.32002 0.0
H1918 H 0.41839 0.94222 0.35637 0.0
H1919 H 0.42147 0.96822 0.34483 0.0
C1920 C 0.38372 0.98072 0.41071 0.0
C1921 C 0.37871 0.00076 0.40365 0.0
C1922 C 0.38446 0.9669 0.38131 0.0
C1923 C 0.38085 0.9731 0.34432 0.0
C1924 C 0.37448 0.99277 0.33784 0.0
H1925 H 0.43511 0.93701 0.13944 0.0
H1926 H 0.42633 0.94929 0.20193 0.0
C1927 C 0.37321 0.00638 0.36718 0.0
C1928 C 0.3848 0.9599 0.31171 0.0
H1929 H 0.4218 0.93426 0.26677 0.0
C1930 C 0.37013 0.95858 0.28374 0.0
C1931 C 0.40373 0.95102 0.30545 0.0
C1932 C 0.42071 0.9529 0.33305 0.0
C1933 C 0.37414 0.94973 0.24898 0.0
C1934 C 0.39303 0.94076 0.24279 0.0
C1935 C 0.40734 0.94112 0.27151 0.0
C1936 C 0.39882 0.93229 0.20589 0.0
C1937 C 0.35849 0.95136 0.21867 0.0
C1938 C 0.38661 0.9183 0.18762 0.0
C1939 C 0.39124 0.91194 0.15145 0.0
C1940 C 0.40865 0.91872 0.13366 0.0
C1941 C 0.42158 0.93166 0.15271 0.0
C1942 C 0.41657 0.9386 0.18839 0.0
H1943 H 0.34778 0.96367 0.22436 0.0
H1944 H 0.36539 0.95406 0.19088 0.0
H1945 H 0.34981 0.93727 0.21744 0.0
H1946 H 0.37331 0.91253 0.20102 0.0
H1947 H 0.38126 0.90164 0.1374 0.0
H1948 H 0.98235 0.61017 0.56989 0.0
H1949 H 0.95733 0.61236 0.62005 0.0
H1950 H 0.0045 0.61174 0.70234 0.0
H1951 H 0.02925 0.61055 0.65311 0.0
H1952 H 0.94869 0.58684 0.67229 0.0
H1953 H 0.97197 0.65553 0.74385 0.0
H1954 H 0.98132 0.64905 0.69808 0.0
H1955 H 0.99334 0.63965 0.73978 0.0
C1956 C 0.98732 0.61092 0.5987 0.0
C1957 C 0.00778 0.61031 0.60746 0.0
C1958 C 0.97304 0.61215 0.6273 0.0
C1959 C 0.97903 0.6127 0.66501 0.0
C1960 C 0.99946 0.61212 0.67355 0.0
H1961 H 0.92787 0.55985 0.85765 0.0
H1962 H 0.94155 0.56808 0.79615 0.0
C1963 C 0.01365 0.61123 0.6452 0.0
C1964 C 0.96427 0.61204 0.69595 0.0
H1965 H 0.95669 0.63004 0.78397 0.0
C1966 C 0.95009 0.59659 0.69639 0.0
C1967 C 0.96557 0.62508 0.72702 0.0
C1968 C 0.97873 0.64338 0.72687 0.0
C1969 C 0.93835 0.59288 0.72818 0.0
C1970 C 0.94152 0.60438 0.76092 0.0
C1971 C 0.95455 0.6208 0.75936 0.0
C1972 C 0.9324 0.59915 0.79757 0.0
C1973 C 0.92281 0.57659 0.72622 0.0
C1974 C 0.92348 0.614 0.81974 0.0
C1975 C 0.91641 0.60947 0.8555 0.0
C1976 C 0.9178 0.58993 0.86955 0.0
C1977 C 0.92648 0.575 0.84731 0.0
C1978 C 0.93405 0.57965 0.81193 0.0
H1979 H 0.9168 0.57514 0.69737 0.0
H1980 H 0.9298 0.56209 0.73365 0.0
H1981 H 0.91018 0.57947 0.74562 0.0
H1982 H 0.92209 0.62916 0.80948 0.0
H1983 H 0.9096 0.62123 0.87196 0.0
loop_
_geom_bond_atom_site_label_1
_geom_bond_atom_site_label_2
_geom_bond_distance
_geom_bond_site_symmetry_2
_ccdc_geom_bond_type
Co0 O3 1.970 . S
Co0 N17 1.989 . S
Co0 O25 1.967 . S
Co0 O32 1.920 . S
Co1 O4 1.966 . S
Co1 N10 2.022 . S
Co1 N18 1.993 . S
Co1 O26 1.941 . S
C2 O3 1.258 . S
C2 O4 1.263 . S
O3 Co0 1.970 . S
O3 C2 1.258 . S
O4 Co1 1.966 . S
O4 C2 1.263 . S
C5 O6 1.235 . S
C5 O32 1.289 . S
O6 C5 1.235 . S
C7 C9 1.400 . S
C7 N10 1.351 . S
C7 C12 1.501 . S
C8 C9 1.387 . S
C8 N11 1.341 . S
C9 C7 1.400 . S
C9 C8 1.387 . S
N10 Co1 2.022 . S
N10 C7 1.351 . S
N10 N11 1.365 . S
N11 C8 1.341 . S
N11 N10 1.365 . S
N11 H31 0.862 . S
C12 C7 1.501 . S
C12 H13 0.961 . S
C12 H14 0.961 . S
C12 H15 0.960 . S
H13 C12 0.961 . S
H14 C12 0.961 . S
H15 C12 0.960 . S
C16 N17 1.342 . S
C16 C20 1.401 . S
C16 C21 1.499 . S
N17 Co0 1.989 . S
N17 C16 1.342 . S
N17 N18 1.388 . S
N18 Co1 1.993 . S
N18 N17 1.388 . S
N18 C19 1.346 . S
C19 N18 1.346 . S
C19 C20 1.396 . S
C19 C29 1.510 . S
C20 C16 1.401 . S
C20 C19 1.396 . S
C21 C16 1.499 . S
C21 H22 0.959 . S
C21 H23 0.960 . S
C21 H24 0.961 . S
H22 C21 0.959 . S
H23 C21 0.960 . S
H24 C21 0.961 . S
O25 Co0 1.967 . S
O25 C33 1.258 . S
O26 Co1 1.941 . S
O26 C33 1.266 . S
H27 C29 0.959 . S
H28 C29 0.961 . S
C29 C19 1.510 . S
C29 H27 0.959 . S
C29 H28 0.961 . S
C29 H30 0.960 . S
H30 C29 0.960 . S
H31 N11 0.862 . S
O32 Co0 1.920 . S
O32 C5 1.289 . S
C33 O25 1.258 . S
C33 O26 1.266 . S
Co34 O37 1.970 . S
Co34 N51 1.989 . S
Co34 O59 1.967 . S
Co34 O66 1.920 . S
Co35 O38 1.966 . S
Co35 N44 2.022 . S
Co35 N52 1.993 . S
Co35 O60 1.941 . S
C36 O37 1.258 . S
C36 O38 1.263 . S
O37 Co34 1.970 . S
O37 C36 1.258 . S
O38 Co35 1.966 . S
O38 C36 1.263 . S
C39 O40 1.235 . S
C39 O66 1.289 . S
O40 C39 1.235 . S
C41 C43 1.400 . S
C41 N44 1.351 . S
C41 C46 1.501 . S
C42 C43 1.387 . S
C42 N45 1.341 . S
C43 C41 1.400 . S
C43 C42 1.387 . S
N44 Co35 2.022 . S
N44 C41 1.351 . S
N44 N45 1.365 . S
N45 C42 1.341 . S
N45 N44 1.365 . S
N45 H65 0.862 . S
C46 C41 1.501 . S
C46 H47 0.961 . S
C46 H48 0.961 . S
C46 H49 0.960 . S
H47 C46 0.961 . S
H48 C46 0.961 . S
H49 C46 0.960 . S
C50 N51 1.342 . S
C50 C54 1.401 . S
C50 C55 1.499 . S
N51 Co34 1.989 . S
N51 C50 1.342 . S
N51 N52 1.388 . S
N52 Co35 1.993 . S
N52 N51 1.388 . S
N52 C53 1.346 . S
C53 N52 1.346 . S
C53 C54 1.396 . S
C53 C63 1.510 . S
C54 C50 1.401 . S
C54 C53 1.396 . S
C55 C50 1.499 . S
C55 H56 0.959 . S
C55 H57 0.960 . S
C55 H58 0.961 . S
H56 C55 0.959 . S
H57 C55 0.960 . S
H58 C55 0.961 . S
O59 Co34 1.967 . S
O59 C67 1.258 . S
O60 Co35 1.941 . S
O60 C67 1.266 . S
H61 C63 0.959 . S
H62 C63 0.961 . S
C63 C53 1.510 . S
C63 H61 0.959 . S
C63 H62 0.961 . S
C63 H64 0.960 . S
H64 C63 0.960 . S
H65 N45 0.862 . S
O66 Co34 1.920 . S
O66 C39 1.289 . S
C67 O59 1.258 . S
C67 O60 1.266 . S
Co68 O71 1.970 . S
Co68 N85 1.989 . S
Co68 O93 1.967 . S
Co68 O100 1.920 . S
Co69 O72 1.966 . S
Co69 N78 2.022 . S
Co69 N86 1.993 . S
Co69 O94 1.941 . S
C70 O71 1.258 . S
C70 O72 1.263 . S
O71 Co68 1.970 . S
O71 C70 1.258 . S
O72 Co69 1.966 . S
O72 C70 1.263 . S
C73 O74 1.235 . S
C73 O100 1.289 . S
O74 C73 1.235 . S
C75 C77 1.400 . S
C75 N78 1.351 . S
C75 C80 1.501 . S
C76 C77 1.387 . S
C76 N79 1.341 . S
C77 C75 1.400 . S
C77 C76 1.387 . S
N78 Co69 2.022 . S
N78 C75 1.351 . S
N78 N79 1.365 . S
N79 C76 1.341 . S
N79 N78 1.365 . S
N79 H99 0.862 . S
C80 C75 1.501 . S
C80 H81 0.961 . S
C80 H82 0.961 . S
C80 H83 0.960 . S
H81 C80 0.961 . S
H82 C80 0.961 . S
H83 C80 0.960 . S
C84 N85 1.342 . S
C84 C88 1.401 . S
C84 C89 1.499 . S
N85 Co68 1.989 . S
N85 C84 1.342 . S
N85 N86 1.388 . S
N86 Co69 1.993 . S
N86 N85 1.388 . S
N86 C87 1.346 . S
C87 N86 1.346 . S
C87 C88 1.396 . S
C87 C97 1.510 . S
C88 C84 1.401 . S
C88 C87 1.396 . S
C89 C84 1.499 . S
C89 H90 0.959 . S
C89 H91 0.960 . S
C89 H92 0.961 . S
H90 C89 0.959 . S
H91 C89 0.960 . S
H92 C89 0.961 . S
O93 Co68 1.967 . S
O93 C101 1.258 . S
O94 Co69 1.941 . S
O94 C101 1.266 . S
H95 C97 0.959 . S
H96 C97 0.961 . S
C97 C87 1.510 . S
C97 H95 0.959 . S
C97 H96 0.961 . S
C97 H98 0.960 . S
H98 C97 0.960 . S
H99 N79 0.862 . S
O100 Co68 1.920 . S
O100 C73 1.289 . S
C101 O93 1.258 . S
C101 O94 1.266 . S
Co102 O105 1.970 . S
Co102 N119 1.989 . S
Co102 O127 1.967 . S
Co102 O134 1.920 . S
Co103 O106 1.966 . S
Co103 N112 2.022 . S
Co103 N120 1.993 . S
Co103 O128 1.941 . S
C104 O105 1.258 . S
C104 O106 1.263 . S
O105 Co102 1.970 . S
O105 C104 1.258 . S
O106 Co103 1.966 . S
O106 C104 1.263 . S
C107 O108 1.235 . S
C107 O134 1.289 . S
O108 C107 1.235 . S
C109 C111 1.400 . S
C109 N112 1.351 . S
C109 C114 1.501 . S
C110 C111 1.387 . S
C110 N113 1.341 . S
C111 C109 1.400 . S
C111 C110 1.387 . S
N112 Co103 2.022 . S
N112 C109 1.351 . S
N112 N113 1.365 . S
N113 C110 1.341 . S
N113 N112 1.365 . S
N113 H133 0.862 . S
C114 C109 1.501 . S
C114 H115 0.961 . S
C114 H116 0.961 . S
C114 H117 0.960 . S
H115 C114 0.961 . S
H116 C114 0.961 . S
H117 C114 0.960 . S
C118 N119 1.342 . S
C118 C122 1.401 . S
C118 C123 1.499 . S
N119 Co102 1.989 . S
N119 C118 1.342 . S
N119 N120 1.388 . S
N120 Co103 1.993 . S
N120 N119 1.388 . S
N120 C121 1.346 . S
C121 N120 1.346 . S
C121 C122 1.396 . S
C121 C131 1.510 . S
C122 C118 1.401 . S
C122 C121 1.396 . S
C123 C118 1.499 . S
C123 H124 0.959 . S
C123 H125 0.960 . S
C123 H126 0.961 . S
H124 C123 0.959 . S
H125 C123 0.960 . S
H126 C123 0.961 . S
O127 Co102 1.967 . S
O127 C135 1.258 . S
O128 Co103 1.941 . S
O128 C135 1.266 . S
H129 C131 0.959 . S
H130 C131 0.961 . S
C131 C121 1.510 . S
C131 H129 0.959 . S
C131 H130 0.961 . S
C131 H132 0.960 . S
H132 C131 0.960 . S
H133 N113 0.862 . S
O134 Co102 1.920 . S
O134 C107 1.289 . S
C135 O127 1.258 . S
C135 O128 1.266 . S
Co136 O139 1.970 . S
Co136 N153 1.989 . S
Co136 O161 1.967 . S
Co136 O168 1.920 . S
Co137 O140 1.966 . S
Co137 N146 2.022 . S
Co137 N154 1.993 . S
Co137 O162 1.941 . S
C138 O139 1.258 . S
C138 O140 1.263 . S
O139 Co136 1.970 . S
O139 C138 1.258 . S
O140 Co137 1.966 . S
O140 C138 1.263 . S
C141 O142 1.235 . S
C141 O168 1.289 . S
O142 C141 1.235 . S
C143 C145 1.400 . S
C143 N146 1.351 1_554 S
C143 C148 1.501 . S
C144 C145 1.387 . S
C144 N147 1.341 1_554 S
C145 C143 1.400 . S
C145 C144 1.387 . S
N146 Co137 2.022 . S
N146 C143 1.351 1_556 S
N146 N147 1.365 . S
N147 C144 1.341 1_556 S
N147 N146 1.365 . S
N147 H167 0.862 . S
C148 C143 1.501 . S
C148 H149 0.961 . S
C148 H150 0.961 . S
C148 H151 0.960 . S
H149 C148 0.961 . S
H150 C148 0.961 . S
H151 C148 0.960 . S
C152 N153 1.342 . S
C152 C156 1.401 . S
C152 C157 1.499 . S
N153 Co136 1.989 . S
N153 C152 1.342 . S
N153 N154 1.388 . S
N154 Co137 1.993 . S
N154 N153 1.388 . S
N154 C155 1.346 . S
C155 N154 1.346 . S
C155 C156 1.396 . S
C155 C165 1.510 . S
C156 C152 1.401 . S
C156 C155 1.396 . S
C157 C152 1.499 . S
C157 H158 0.959 . S
C157 H159 0.960 . S
C157 H160 0.961 . S
H158 C157 0.959 . S
H159 C157 0.960 . S
H160 C157 0.961 . S
O161 Co136 1.967 . S
O161 C169 1.258 . S
O162 Co137 1.941 . S
O162 C169 1.266 . S
H163 C165 0.959 . S
H164 C165 0.961 1_554 S
C165 C155 1.510 . S
C165 H163 0.959 . S
C165 H164 0.961 1_556 S
C165 H166 0.960 . S
H166 C165 0.960 . S
H167 N147 0.862 . S
O168 Co136 1.920 . S
O168 C141 1.289 . S
C169 O161 1.258 . S
C169 O162 1.266 . S
Co170 O173 1.970 . S
Co170 N187 1.989 . S
Co170 O195 1.967 . S
Co170 O202 1.920 . S
Co171 O174 1.966 . S
Co171 N180 2.022 . S
Co171 N188 1.993 . S
Co171 O196 1.941 . S
C172 O173 1.258 . S
C172 O174 1.263 . S
O173 Co170 1.970 . S
O173 C172 1.258 . S
O174 Co171 1.966 . S
O174 C172 1.263 . S
C175 O176 1.235 . S
C175 O202 1.289 . S
O176 C175 1.235 . S
C177 C179 1.400 . S
C177 N180 1.351 1_556 S
C177 C182 1.501 . S
C178 C179 1.387 . S
C178 N181 1.341 1_556 S
C179 C177 1.400 . S
C179 C178 1.387 . S
N180 Co171 2.022 . S
N180 C177 1.351 1_554 S
N180 N181 1.365 . S
N181 C178 1.341 1_554 S
N181 N180 1.365 . S
N181 H201 0.862 . S
C182 C177 1.501 . S
C182 H183 0.961 . S
C182 H184 0.961 . S
C182 H185 0.960 . S
H183 C182 0.961 . S
H184 C182 0.961 . S
H185 C182 0.960 . S
C186 N187 1.342 . S
C186 C190 1.401 . S
C186 C191 1.499 . S
N187 Co170 1.989 . S
N187 C186 1.342 . S
N187 N188 1.388 . S
N188 Co171 1.993 . S
N188 N187 1.388 . S
N188 C189 1.346 . S
C189 N188 1.346 . S
C189 C190 1.396 . S
C189 C199 1.510 . S
C190 C186 1.401 . S
C190 C189 1.396 . S
C191 C186 1.499 . S
C191 H192 0.959 . S
C191 H193 0.960 . S
C191 H194 0.961 . S
H192 C191 0.959 . S
H193 C191 0.960 . S
H194 C191 0.961 . S
O195 Co170 1.967 . S
O195 C203 1.258 . S
O196 Co171 1.941 . S
O196 C203 1.266 . S
H197 C199 0.959 . S
H198 C199 0.961 1_556 S
C199 C189 1.510 . S
C199 H197 0.959 . S
C199 H198 0.961 1_554 S
C199 H200 0.960 . S
H200 C199 0.960 . S
H201 N181 0.862 . S
O202 Co170 1.920 . S
O202 C175 1.289 . S
C203 O195 1.258 . S
C203 O196 1.266 . S
Co204 O207 1.970 . S
Co204 N221 1.989 . S
Co204 O229 1.967 . S
Co204 O236 1.920 . S
Co205 O208 1.966 . S
Co205 N214 2.022 . S
Co205 N222 1.993 . S
Co205 O230 1.941 . S
C206 O207 1.258 . S
C206 O208 1.263 . S
O207 Co204 1.970 . S
O207 C206 1.258 . S
O208 Co205 1.966 . S
O208 C206 1.263 . S
C209 O210 1.235 . S
C209 O236 1.289 . S
O210 C209 1.235 . S
C211 C213 1.400 . S
C211 N214 1.351 1_554 S
C211 C216 1.501 . S
C212 C213 1.387 . S
C212 N215 1.341 1_554 S
C213 C211 1.400 . S
C213 C212 1.387 . S
N214 Co205 2.022 . S
N214 C211 1.351 1_556 S
N214 N215 1.365 . S
N215 C212 1.341 1_556 S
N215 N214 1.365 . S
N215 H235 0.862 . S
C216 C211 1.501 . S
C216 H217 0.961 . S
C216 H218 0.961 . S
C216 H219 0.960 . S
H217 C216 0.961 . S
H218 C216 0.961 . S
H219 C216 0.960 . S
C220 N221 1.342 . S
C220 C224 1.401 . S
C220 C225 1.499 . S
N221 Co204 1.989 . S
N221 C220 1.342 . S
N221 N222 1.388 . S
N222 Co205 1.993 . S
N222 N221 1.388 . S
N222 C223 1.346 . S
C223 N222 1.346 . S
C223 C224 1.396 . S
C223 C233 1.510 . S
C224 C220 1.401 . S
C224 C223 1.396 . S
C225 C220 1.499 . S
C225 H226 0.959 . S
C225 H227 0.960 . S
C225 H228 0.961 . S
H226 C225 0.959 . S
H227 C225 0.960 . S
H228 C225 0.961 . S
O229 Co204 1.967 . S
O229 C237 1.258 . S
O230 Co205 1.941 . S
O230 C237 1.266 . S
H231 C233 0.959 . S
H232 C233 0.961 1_554 S
C233 C223 1.510 . S
C233 H231 0.959 . S
C233 H232 0.961 1_556 S
C233 H234 0.960 . S
H234 C233 0.960 . S
H235 N215 0.862 . S
O236 Co204 1.920 . S
O236 C209 1.289 . S
C237 O229 1.258 . S
C237 O230 1.266 . S
Co238 O241 1.970 . S
Co238 N255 1.989 . S
Co238 O263 1.967 . S
Co238 O270 1.920 . S
Co239 O242 1.966 . S
Co239 N248 2.022 . S
Co239 N256 1.993 . S
Co239 O264 1.941 . S
C240 O241 1.258 . S
C240 O242 1.263 . S
O241 Co238 1.970 . S
O241 C240 1.258 . S
O242 Co239 1.966 . S
O242 C240 1.263 . S
C243 O244 1.235 . S
C243 O270 1.289 . S
O244 C243 1.235 . S
C245 C247 1.400 . S
C245 N248 1.351 1_556 S
C245 C250 1.501 . S
C246 C247 1.387 . S
C246 N249 1.341 1_556 S
C247 C245 1.400 . S
C247 C246 1.387 . S
N248 Co239 2.022 . S
N248 C245 1.351 1_554 S
N248 N249 1.365 . S
N249 C246 1.341 1_554 S
N249 N248 1.365 . S
N249 H269 0.862 . S
C250 C245 1.501 . S
C250 H251 0.961 . S
C250 H252 0.961 . S
C250 H253 0.960 . S
H251 C250 0.961 . S
H252 C250 0.961 . S
H253 C250 0.960 . S
C254 N255 1.342 . S
C254 C258 1.401 . S
C254 C259 1.499 . S
N255 Co238 1.989 . S
N255 C254 1.342 . S
N255 N256 1.388 . S
N256 Co239 1.993 . S
N256 N255 1.388 . S
N256 C257 1.346 . S
C257 N256 1.346 . S
C257 C258 1.396 . S
C257 C267 1.510 . S
C258 C254 1.401 . S
C258 C257 1.396 . S
C259 C254 1.499 . S
C259 H260 0.959 . S
C259 H261 0.960 . S
C259 H262 0.961 . S
H260 C259 0.959 . S
H261 C259 0.960 . S
H262 C259 0.961 . S
O263 Co238 1.967 . S
O263 C271 1.258 . S
O264 Co239 1.941 . S
O264 C271 1.266 . S
H265 C267 0.959 . S
H266 C267 0.961 1_556 S
C267 C257 1.510 . S
C267 H265 0.959 . S
C267 H266 0.961 1_554 S
C267 H268 0.960 . S
H268 C267 0.960 . S
H269 N249 0.862 . S
O270 Co238 1.920 . S
O270 C243 1.289 . S
C271 O263 1.258 . S
C271 O264 1.266 . S
Co272 O275 1.970 . S
Co272 N289 1.989 . S
Co272 O297 1.967 . S
Co272 O304 1.920 . S
Co273 O276 1.966 . S
Co273 N282 2.022 . S
Co273 N290 1.993 . S
Co273 O298 1.941 . S
C274 O275 1.258 . S
C274 O276 1.263 . S
O275 Co272 1.970 . S
O275 C274 1.258 . S
O276 Co273 1.966 . S
O276 C274 1.263 . S
C277 O278 1.235 . S
C277 O304 1.289 . S
O278 C277 1.235 . S
C279 C281 1.400 . S
C279 N282 1.351 . S
C279 C284 1.501 . S
C280 C281 1.387 . S
C280 N283 1.341 . S
C281 C279 1.400 . S
C281 C280 1.387 . S
N282 Co273 2.022 . S
N282 C279 1.351 . S
N282 N283 1.365 . S
N283 C280 1.341 . S
N283 N282 1.365 . S
N283 H303 0.862 . S
C284 C279 1.501 . S
C284 H285 0.961 . S
C284 H286 0.961 . S
C284 H287 0.960 . S
H285 C284 0.961 . S
H286 C284 0.961 . S
H287 C284 0.960 . S
C288 N289 1.342 . S
C288 C292 1.401 . S
C288 C293 1.499 . S
N289 Co272 1.989 . S
N289 C288 1.342 . S
N289 N290 1.388 . S
N290 Co273 1.993 . S
N290 N289 1.388 . S
N290 C291 1.346 . S
C291 N290 1.346 . S
C291 C292 1.396 . S
C291 C301 1.510 . S
C292 C288 1.401 . S
C292 C291 1.396 . S
C293 C288 1.499 . S
C293 H294 0.959 . S
C293 H295 0.960 . S
C293 H296 0.961 . S
H294 C293 0.959 . S
H295 C293 0.960 . S
H296 C293 0.961 . S
O297 Co272 1.967 . S
O297 C305 1.258 . S
O298 Co273 1.941 . S
O298 C305 1.266 . S
H299 C301 0.959 . S
H300 C301 0.961 . S
C301 C291 1.510 . S
C301 H299 0.959 . S
C301 H300 0.961 . S
C301 H302 0.960 . S
H302 C301 0.960 . S
H303 N283 0.862 . S
O304 Co272 1.920 . S
O304 C277 1.289 . S
C305 O297 1.258 . S
C305 O298 1.266 . S
Co306 O309 1.970 . S
Co306 N323 1.989 . S
Co306 O331 1.967 . S
Co306 O338 1.920 . S
Co307 O310 1.966 . S
Co307 N316 2.022 . S
Co307 N324 1.993 . S
Co307 O332 1.941 . S
C308 O309 1.258 . S
C308 O310 1.263 . S
O309 Co306 1.970 . S
O309 C308 1.258 . S
O310 Co307 1.966 . S
O310 C308 1.263 . S
C311 O312 1.235 . S
C311 O338 1.289 . S
O312 C311 1.235 . S
C313 C315 1.400 . S
C313 N316 1.351 . S
C313 C318 1.501 . S
C314 C315 1.387 . S
C314 N317 1.341 . S
C315 C313 1.400 . S
C315 C314 1.387 . S
N316 Co307 2.022 . S
N316 C313 1.351 . S
N316 N317 1.365 . S
N317 C314 1.341 . S
N317 N316 1.365 . S
N317 H337 0.862 . S
C318 C313 1.501 . S
C318 H319 0.961 . S
C318 H320 0.961 . S
C318 H321 0.960 . S
H319 C318 0.961 . S
H320 C318 0.961 . S
H321 C318 0.960 . S
C322 N323 1.342 . S
C322 C326 1.401 . S
C322 C327 1.499 . S
N323 Co306 1.989 . S
N323 C322 1.342 . S
N323 N324 1.388 . S
N324 Co307 1.993 . S
N324 N323 1.388 . S
N324 C325 1.346 . S
C325 N324 1.346 . S
C325 C326 1.396 . S
C325 C335 1.510 . S
C326 C322 1.401 . S
C326 C325 1.396 . S
C327 C322 1.499 . S
C327 H328 0.959 . S
C327 H329 0.960 . S
C327 H330 0.961 . S
H328 C327 0.959 . S
H329 C327 0.960 . S
H330 C327 0.961 . S
O331 Co306 1.967 . S
O331 C339 1.258 . S
O332 Co307 1.941 . S
O332 C339 1.266 . S
H333 C335 0.959 . S
H334 C335 0.961 . S
C335 C325 1.510 . S
C335 H333 0.959 . S
C335 H334 0.961 . S
C335 H336 0.960 . S
H336 C335 0.960 . S
H337 N317 0.862 . S
O338 Co306 1.920 . S
O338 C311 1.289 . S
C339 O331 1.258 . S
C339 O332 1.266 . S
Co340 O343 1.970 . S
Co340 N357 1.989 . S
Co340 O365 1.967 . S
Co340 O372 1.920 . S
Co341 O344 1.966 . S
Co341 N350 2.022 . S
Co341 N358 1.993 . S
Co341 O366 1.941 . S
C342 O343 1.258 . S
C342 O344 1.263 . S
O343 Co340 1.970 . S
O343 C342 1.258 . S
O344 Co341 1.966 . S
O344 C342 1.263 . S
C345 O346 1.235 . S
C345 O372 1.289 . S
O346 C345 1.235 . S
C347 C349 1.400 . S
C347 N350 1.351 . S
C347 C352 1.501 . S
C348 C349 1.387 . S
C348 N351 1.341 . S
C349 C347 1.400 . S
C349 C348 1.387 . S
N350 Co341 2.022 . S
N350 C347 1.351 . S
N350 N351 1.365 . S
N351 C348 1.341 . S
N351 N350 1.365 . S
N351 H371 0.862 . S
C352 C347 1.501 . S
C352 H353 0.961 . S
C352 H354 0.961 . S
C352 H355 0.960 . S
H353 C352 0.961 . S
H354 C352 0.961 . S
H355 C352 0.960 . S
C356 N357 1.342 . S
C356 C360 1.401 . S
C356 C361 1.499 . S
N357 Co340 1.989 . S
N357 C356 1.342 . S
N357 N358 1.388 . S
N358 Co341 1.993 . S
N358 N357 1.388 . S
N358 C359 1.346 . S
C359 N358 1.346 . S
C359 C360 1.396 . S
C359 C369 1.510 . S
C360 C356 1.401 . S
C360 C359 1.396 . S
C361 C356 1.499 . S
C361 H362 0.959 . S
C361 H363 0.960 . S
C361 H364 0.961 . S
H362 C361 0.959 . S
H363 C361 0.960 . S
H364 C361 0.961 . S
O365 Co340 1.967 . S
O365 C373 1.258 . S
O366 Co341 1.941 . S
O366 C373 1.266 . S
H367 C369 0.959 . S
H368 C369 0.961 . S
C369 C359 1.510 . S
C369 H367 0.959 . S
C369 H368 0.961 . S
C369 H370 0.960 . S
H370 C369 0.960 . S
H371 N351 0.862 . S
O372 Co340 1.920 . S
O372 C345 1.289 . S
C373 O365 1.258 . S
C373 O366 1.266 . S
Co374 O377 1.970 . S
Co374 N391 1.989 . S
Co374 O399 1.967 . S
Co374 O406 1.920 . S
Co375 O378 1.966 . S
Co375 N384 2.022 . S
Co375 N392 1.993 . S
Co375 O400 1.941 . S
C376 O377 1.258 . S
C376 O378 1.263 . S
O377 Co374 1.970 . S
O377 C376 1.258 . S
O378 Co375 1.966 . S
O378 C376 1.263 . S
C379 O380 1.235 . S
C379 O406 1.289 . S
O380 C379 1.235 . S
C381 C383 1.400 . S
C381 N384 1.351 . S
C381 C386 1.501 . S
C382 C383 1.387 . S
C382 N385 1.341 . S
C383 C381 1.400 . S
C383 C382 1.387 . S
N384 Co375 2.022 . S
N384 C381 1.351 . S
N384 N385 1.365 . S
N385 C382 1.341 . S
N385 N384 1.365 . S
N385 H405 0.862 . S
C386 C381 1.501 . S
C386 H387 0.961 . S
C386 H388 0.961 . S
C386 H389 0.960 . S
H387 C386 0.961 . S
H388 C386 0.961 . S
H389 C386 0.960 . S
C390 N391 1.342 . S
C390 C394 1.401 . S
C390 C395 1.499 . S
N391 Co374 1.989 . S
N391 C390 1.342 . S
N391 N392 1.388 . S
N392 Co375 1.993 . S
N392 N391 1.388 . S
N392 C393 1.346 . S
C393 N392 1.346 . S
C393 C394 1.396 . S
C393 C403 1.510 . S
C394 C390 1.401 . S
C394 C393 1.396 . S
C395 C390 1.499 . S
C395 H396 0.959 . S
C395 H397 0.960 . S
C395 H398 0.961 . S
H396 C395 0.959 . S
H397 C395 0.960 . S
H398 C395 0.961 . S
O399 Co374 1.967 . S
O399 C407 1.258 . S
O400 Co375 1.941 . S
O400 C407 1.266 . S
H401 C403 0.959 . S
H402 C403 0.961 . S
C403 C393 1.510 . S
C403 H401 0.959 . S
C403 H402 0.961 . S
C403 H404 0.960 . S
H404 C403 0.960 . S
H405 N385 0.862 . S
O406 Co374 1.920 . S
O406 C379 1.289 . S
C407 O399 1.258 . S
C407 O400 1.266 . S
Co408 O411 1.970 . S
Co408 N425 1.989 . S
Co408 O433 1.967 . S
Co408 O440 1.920 . S
Co409 O412 1.966 . S
Co409 N418 2.022 . S
Co409 N426 1.993 . S
Co409 O434 1.941 . S
C410 O411 1.258 . S
C410 O412 1.263 . S
O411 Co408 1.970 . S
O411 C410 1.258 . S
O412 Co409 1.966 . S
O412 C410 1.263 . S
C413 O414 1.235 . S
C413 O440 1.289 . S
O414 C413 1.235 . S
C415 C417 1.400 . S
C415 N418 1.351 . S
C415 C420 1.501 . S
C416 C417 1.387 . S
C416 N419 1.341 . S
C417 C415 1.400 . S
C417 C416 1.387 . S
N418 Co409 2.022 . S
N418 C415 1.351 . S
N418 N419 1.365 . S
N419 C416 1.341 . S
N419 N418 1.365 . S
N419 H439 0.862 . S
C420 C415 1.501 . S
C420 H421 0.961 . S
C420 H422 0.961 . S
C420 H423 0.960 . S
H421 C420 0.961 . S
H422 C420 0.961 . S
H423 C420 0.960 . S
C424 N425 1.342 . S
C424 C428 1.401 . S
C424 C429 1.499 . S
N425 Co408 1.989 . S
N425 C424 1.342 . S
N425 N426 1.388 . S
N426 Co409 1.993 . S
N426 N425 1.388 . S
N426 C427 1.346 . S
C427 N426 1.346 . S
C427 C428 1.396 . S
C427 C437 1.510 . S
C428 C424 1.401 . S
C428 C427 1.396 . S
C429 C424 1.499 . S
C429 H430 0.959 . S
C429 H431 0.960 . S
C429 H432 0.961 . S
H430 C429 0.959 . S
H431 C429 0.960 . S
H432 C429 0.961 . S
O433 Co408 1.967 . S
O433 C441 1.258 . S
O434 Co409 1.941 . S
O434 C441 1.266 . S
H435 C437 0.959 . S
H436 C437 0.961 . S
C437 C427 1.510 . S
C437 H435 0.959 . S
C437 H436 0.961 . S
C437 H438 0.960 . S
H438 C437 0.960 . S
H439 N419 0.862 . S
O440 Co408 1.920 . S
O440 C413 1.289 . S
C441 O433 1.258 . S
C441 O434 1.266 . S
Co442 O445 1.970 . S
Co442 N459 1.989 . S
Co442 O467 1.967 . S
Co442 O474 1.920 . S
Co443 O446 1.966 . S
Co443 N452 2.022 . S
Co443 N460 1.993 . S
Co443 O468 1.941 . S
C444 O445 1.258 . S
C444 O446 1.263 . S
O445 Co442 1.970 . S
O445 C444 1.258 . S
O446 Co443 1.966 . S
O446 C444 1.263 . S
C447 O448 1.235 . S
C447 O474 1.289 . S
O448 C447 1.235 . S
C449 C451 1.400 . S
C449 N452 1.351 . S
C449 C454 1.501 . S
C450 C451 1.387 . S
C450 N453 1.341 . S
C451 C449 1.400 . S
C451 C450 1.387 . S
N452 Co443 2.022 . S
N452 C449 1.351 . S
N452 N453 1.365 . S
N453 C450 1.341 . S
N453 N452 1.365 . S
N453 H473 0.862 . S
C454 C449 1.501 . S
C454 H455 0.961 . S
C454 H456 0.961 . S
C454 H457 0.960 . S
H455 C454 0.961 . S
H456 C454 0.961 . S
H457 C454 0.960 . S
C458 N459 1.342 . S
C458 C462 1.401 . S
C458 C463 1.499 . S
N459 Co442 1.989 . S
N459 C458 1.342 . S
N459 N460 1.388 . S
N460 Co443 1.993 . S
N460 N459 1.388 . S
N460 C461 1.346 . S
C461 N460 1.346 . S
C461 C462 1.396 . S
C461 C471 1.510 . S
C462 C458 1.401 . S
C462 C461 1.396 . S
C463 C458 1.499 . S
C463 H464 0.959 . S
C463 H465 0.960 . S
C463 H466 0.961 . S
H464 C463 0.959 . S
H465 C463 0.960 . S
H466 C463 0.961 . S
O467 Co442 1.967 . S
O467 C475 1.258 . S
O468 Co443 1.941 . S
O468 C475 1.266 . S
H469 C471 0.959 . S
H470 C471 0.961 . S
C471 C461 1.510 . S
C471 H469 0.959 . S
C471 H470 0.961 . S
C471 H472 0.960 . S
H472 C471 0.960 . S
H473 N453 0.862 . S
O474 Co442 1.920 . S
O474 C447 1.289 . S
C475 O467 1.258 . S
C475 O468 1.266 . S
Co476 O479 1.970 . S
Co476 N493 1.989 . S
Co476 O501 1.967 . S
Co476 O508 1.920 . S
Co477 O480 1.966 . S
Co477 N486 2.022 . S
Co477 N494 1.993 . S
Co477 O502 1.941 . S
C478 O479 1.258 . S
C478 O480 1.263 . S
O479 Co476 1.970 . S
O479 C478 1.258 . S
O480 Co477 1.966 . S
O480 C478 1.263 . S
C481 O482 1.235 . S
C481 O508 1.289 . S
O482 C481 1.235 . S
C483 C485 1.400 . S
C483 N486 1.351 . S
C483 C488 1.501 . S
C484 C485 1.387 . S
C484 N487 1.341 . S
C485 C483 1.400 . S
C485 C484 1.387 . S
N486 Co477 2.022 . S
N486 C483 1.351 . S
N486 N487 1.365 . S
N487 C484 1.341 . S
N487 N486 1.365 . S
N487 H507 0.862 . S
C488 C483 1.501 . S
C488 H489 0.961 . S
C488 H490 0.961 . S
C488 H491 0.960 . S
H489 C488 0.961 . S
H490 C488 0.961 . S
H491 C488 0.960 . S
C492 N493 1.342 . S
C492 C496 1.401 . S
C492 C497 1.499 . S
N493 Co476 1.989 . S
N493 C492 1.342 . S
N493 N494 1.388 . S
N494 Co477 1.993 . S
N494 N493 1.388 . S
N494 C495 1.346 . S
C495 N494 1.346 . S
C495 C496 1.396 . S
C495 C505 1.510 . S
C496 C492 1.401 . S
C496 C495 1.396 . S
C497 C492 1.499 . S
C497 H498 0.959 . S
C497 H499 0.960 . S
C497 H500 0.961 . S
H498 C497 0.959 . S
H499 C497 0.960 . S
H500 C497 0.961 . S
O501 Co476 1.967 . S
O501 C509 1.258 . S
O502 Co477 1.941 . S
O502 C509 1.266 . S
H503 C505 0.959 . S
H504 C505 0.961 . S
C505 C495 1.510 . S
C505 H503 0.959 . S
C505 H504 0.961 . S
C505 H506 0.960 . S
H506 C505 0.960 . S
H507 N487 0.862 . S
O508 Co476 1.920 . S
O508 C481 1.289 . S
C509 O501 1.258 . S
C509 O502 1.266 . S
Co510 O513 1.970 . S
Co510 N527 1.989 . S
Co510 O535 1.967 . S
Co510 O542 1.920 . S
Co511 O514 1.966 . S
Co511 N520 2.022 . S
Co511 N528 1.993 . S
Co511 O536 1.941 . S
C512 O513 1.258 . S
C512 O514 1.263 . S
O513 Co510 1.970 . S
O513 C512 1.258 . S
O514 Co511 1.966 . S
O514 C512 1.263 . S
C515 O516 1.235 . S
C515 O542 1.289 . S
O516 C515 1.235 . S
C517 C519 1.400 . S
C517 N520 1.351 . S
C517 C522 1.501 . S
C518 C519 1.387 . S
C518 N521 1.341 . S
C519 C517 1.400 . S
C519 C518 1.387 . S
N520 Co511 2.022 . S
N520 C517 1.351 . S
N520 N521 1.365 . S
N521 C518 1.341 . S
N521 N520 1.365 . S
N521 H541 0.862 . S
C522 C517 1.501 . S
C522 H523 0.961 . S
C522 H524 0.961 . S
C522 H525 0.960 . S
H523 C522 0.961 . S
H524 C522 0.961 . S
H525 C522 0.960 . S
C526 N527 1.342 . S
C526 C530 1.401 . S
C526 C531 1.499 . S
N527 Co510 1.989 . S
N527 C526 1.342 . S
N527 N528 1.388 . S
N528 Co511 1.993 . S
N528 N527 1.388 . S
N528 C529 1.346 . S
C529 N528 1.346 . S
C529 C530 1.396 . S
C529 C539 1.510 . S
C530 C526 1.401 . S
C530 C529 1.396 . S
C531 C526 1.499 . S
C531 H532 0.959 . S
C531 H533 0.960 . S
C531 H534 0.961 . S
H532 C531 0.959 . S
H533 C531 0.960 . S
H534 C531 0.961 . S
O535 Co510 1.967 . S
O535 C543 1.258 . S
O536 Co511 1.941 . S
O536 C543 1.266 . S
H537 C539 0.959 . S
H538 C539 0.961 . S
C539 C529 1.510 . S
C539 H537 0.959 . S
C539 H538 0.961 . S
C539 H540 0.960 . S
H540 C539 0.960 . S
H541 N521 0.862 . S
O542 Co510 1.920 . S
O542 C515 1.289 . S
C543 O535 1.258 . S
C543 O536 1.266 . S
H544 C552 0.929 . S
H545 C554 0.930 . S
H546 C556 0.930 . S
H547 C559 0.929 . S
H548 C562 0.930 . S
H549 C564 0.960 . S
H550 C564 0.960 . S
H551 C564 0.960 . S
C552 H544 0.929 . S
C552 C553 1.377 . S
C552 C554 1.384 . S
C553 C552 1.377 . S
C553 C559 1.390 . S
C554 H545 0.930 . S
C554 C552 1.384 . S
C554 C555 1.372 . S
C555 C554 1.372 . S
C555 C556 1.400 . S
C555 C560 1.490 . S
C556 H546 0.930 . S
C556 C555 1.400 . S
C556 C559 1.386 . S
H557 C573 0.930 . S
H558 C574 0.931 . S
C559 H547 0.929 . S
C559 C553 1.390 . S
C559 C556 1.386 . S
C560 C555 1.490 . S
C560 C562 1.395 . S
C560 C563 1.403 . S
H561 C567 0.930 . S
C562 H548 0.930 . S
C562 C560 1.395 . S
C562 C565 1.403 . S
C563 C560 1.403 . S
C563 C564 1.524 . S
C563 C567 1.400 . S
C564 H549 0.960 . S
C564 H550 0.960 . S
C564 H551 0.960 . S
C564 C563 1.524 . S
C565 C562 1.403 . S
C565 C566 1.392 . S
C565 C569 1.495 . S
C566 C565 1.392 . S
C566 C567 1.385 . S
C566 C568 1.478 . S
C567 H561 0.930 . S
C567 C563 1.400 . S
C567 C566 1.385 . S
C568 C566 1.478 . S
C568 C570 1.381 . S
C568 C574 1.383 . S
C569 C565 1.495 . S
C569 H575 0.959 . S
C569 H576 0.961 . S
C569 H577 0.960 . S
C570 C568 1.381 . S
C570 C571 1.394 . S
C570 H578 0.930 . S
C571 C570 1.394 . S
C571 C572 1.383 . S
C571 H579 0.929 . S
C572 C571 1.383 . S
C572 C573 1.377 . S
C573 H557 0.930 . S
C573 C572 1.377 . S
C573 C574 1.379 . S
C574 H558 0.931 . S
C574 C568 1.383 . S
C574 C573 1.379 . S
H575 C569 0.959 . S
H576 C569 0.961 . S
H577 C569 0.960 . S
H578 C570 0.930 . S
H579 C571 0.929 . S
H580 C588 0.929 . S
H581 C590 0.930 . S
H582 C592 0.930 . S
H583 C595 0.929 . S
H584 C598 0.930 . S
H585 C600 0.960 . S
H586 C600 0.960 . S
H587 C600 0.960 . S
C588 H580 0.929 . S
C588 C589 1.377 . S
C588 C590 1.384 . S
C589 C588 1.377 . S
C589 C595 1.390 . S
C590 H581 0.930 . S
C590 C588 1.384 . S
C590 C591 1.372 . S
C591 C590 1.372 . S
C591 C592 1.400 . S
C591 C596 1.490 . S
C592 H582 0.930 . S
C592 C591 1.400 . S
C592 C595 1.386 . S
H593 C609 0.930 . S
H594 C610 0.931 . S
C595 H583 0.929 . S
C595 C589 1.390 . S
C595 C592 1.386 . S
C596 C591 1.490 . S
C596 C598 1.395 . S
C596 C599 1.403 . S
H597 C603 0.930 . S
C598 H584 0.930 . S
C598 C596 1.395 . S
C598 C601 1.403 . S
C599 C596 1.403 . S
C599 C600 1.524 . S
C599 C603 1.400 . S
C600 H585 0.960 . S
C600 H586 0.960 . S
C600 H587 0.960 . S
C600 C599 1.524 . S
C601 C598 1.403 . S
C601 C602 1.392 . S
C601 C605 1.495 . S
C602 C601 1.392 . S
C602 C603 1.385 . S
C602 C604 1.478 . S
C603 H597 0.930 . S
C603 C599 1.400 . S
C603 C602 1.385 . S
C604 C602 1.478 . S
C604 C606 1.381 . S
C604 C610 1.383 . S
C605 C601 1.495 . S
C605 H611 0.959 . S
C605 H612 0.961 . S
C605 H613 0.960 . S
C606 C604 1.381 . S
C606 C607 1.394 . S
C606 H614 0.930 . S
C607 C606 1.394 . S
C607 C608 1.383 . S
C607 H615 0.929 . S
C608 C607 1.383 . S
C608 C609 1.377 . S
C609 H593 0.930 . S
C609 C608 1.377 . S
C609 C610 1.379 . S
C610 H594 0.931 . S
C610 C604 1.383 . S
C610 C609 1.379 . S
H611 C605 0.959 . S
H612 C605 0.961 . S
H613 C605 0.960 . S
H614 C606 0.930 . S
H615 C607 0.929 . S
H616 C624 0.929 . S
H617 C626 0.930 . S
H618 C628 0.930 . S
H619 C631 0.929 . S
H620 C634 0.930 . S
H621 C636 0.960 . S
H622 C636 0.960 . S
H623 C636 0.960 . S
C624 H616 0.929 . S
C624 C625 1.377 . S
C624 C626 1.384 . S
C625 C624 1.377 . S
C625 C631 1.390 . S
C626 H617 0.930 . S
C626 C624 1.384 . S
C626 C627 1.372 . S
C627 C626 1.372 . S
C627 C628 1.400 . S
C627 C632 1.490 . S
C628 H618 0.930 . S
C628 C627 1.400 . S
C628 C631 1.386 . S
H629 C645 0.930 . S
H630 C646 0.931 . S
C631 H619 0.929 . S
C631 C625 1.390 . S
C631 C628 1.386 . S
C632 C627 1.490 . S
C632 C634 1.395 . S
C632 C635 1.403 . S
H633 C639 0.930 . S
C634 H620 0.930 . S
C634 C632 1.395 . S
C634 C637 1.403 . S
C635 C632 1.403 . S
C635 C636 1.524 . S
C635 C639 1.400 . S
C636 H621 0.960 . S
C636 H622 0.960 . S
C636 H623 0.960 . S
C636 C635 1.524 . S
C637 C634 1.403 . S
C637 C638 1.392 . S
C637 C641 1.495 . S
C638 C637 1.392 . S
C638 C639 1.385 . S
C638 C640 1.478 . S
C639 H633 0.930 . S
C639 C635 1.400 . S
C639 C638 1.385 . S
C640 C638 1.478 . S
C640 C642 1.381 . S
C640 C646 1.383 . S
C641 C637 1.495 . S
C641 H647 0.959 . S
C641 H648 0.961 . S
C641 H649 0.960 . S
C642 C640 1.381 . S
C642 C643 1.394 . S
C642 H650 0.930 . S
C643 C642 1.394 . S
C643 C644 1.383 . S
C643 H651 0.929 . S
C644 C643 1.383 . S
C644 C645 1.377 . S
C645 H629 0.930 . S
C645 C644 1.377 . S
C645 C646 1.379 . S
C646 H630 0.931 . S
C646 C640 1.383 . S
C646 C645 1.379 . S
H647 C641 0.959 . S
H648 C641 0.961 . S
H649 C641 0.960 . S
H650 C642 0.930 . S
H651 C643 0.929 . S
H652 C660 0.929 . S
H653 C662 0.930 . S
H654 C664 0.930 . S
H655 C667 0.929 . S
H656 C670 0.930 . S
H657 C672 0.960 . S
H658 C672 0.960 . S
H659 C672 0.960 . S
C660 H652 0.929 . S
C660 C661 1.377 . S
C660 C662 1.384 . S
C661 C660 1.377 . S
C661 C667 1.390 . S
C662 H653 0.930 . S
C662 C660 1.384 . S
C662 C663 1.372 . S
C663 C662 1.372 . S
C663 C664 1.400 . S
C663 C668 1.490 . S
C664 H654 0.930 . S
C664 C663 1.400 . S
C664 C667 1.386 . S
H665 C681 0.930 . S
H666 C682 0.931 . S
C667 H655 0.929 . S
C667 C661 1.390 . S
C667 C664 1.386 . S
C668 C663 1.490 . S
C668 C670 1.395 . S
C668 C671 1.403 . S
H669 C675 0.930 . S
C670 H656 0.930 . S
C670 C668 1.395 . S
C670 C673 1.403 . S
C671 C668 1.403 . S
C671 C672 1.524 . S
C671 C675 1.400 . S
C672 H657 0.960 . S
C672 H658 0.960 . S
C672 H659 0.960 . S
C672 C671 1.524 . S
C673 C670 1.403 . S
C673 C674 1.392 . S
C673 C677 1.495 . S
C674 C673 1.392 . S
C674 C675 1.385 . S
C674 C676 1.478 . S
C675 H669 0.930 . S
C675 C671 1.400 . S
C675 C674 1.385 . S
C676 C674 1.478 . S
C676 C678 1.381 . S
C676 C682 1.383 . S
C677 C673 1.495 . S
C677 H683 0.959 . S
C677 H684 0.961 . S
C677 H685 0.960 . S
C678 C676 1.381 . S
C678 C679 1.394 . S
C678 H686 0.930 . S
C679 C678 1.394 . S
C679 C680 1.383 . S
C679 H687 0.929 . S
C680 C679 1.383 . S
C680 C681 1.377 . S
C681 H665 0.930 . S
C681 C680 1.377 . S
C681 C682 1.379 . S
C682 H666 0.931 . S
C682 C676 1.383 . S
C682 C681 1.379 . S
H683 C677 0.959 . S
H684 C677 0.961 . S
H685 C677 0.960 . S
H686 C678 0.930 . S
H687 C679 0.929 . S
H688 C696 0.929 . S
H689 C698 0.930 . S
H690 C700 0.930 . S
H691 C703 0.929 . S
H692 C706 0.930 . S
H693 C708 0.960 . S
H694 C708 0.960 . S
H695 C708 0.960 . S
C696 H688 0.929 . S
C696 C697 1.377 . S
C696 C698 1.384 . S
C697 C696 1.377 . S
C697 C703 1.390 . S
C698 H689 0.930 . S
C698 C696 1.384 . S
C698 C699 1.372 . S
C699 C698 1.372 . S
C699 C700 1.400 . S
C699 C704 1.490 . S
C700 H690 0.930 . S
C700 C699 1.400 . S
C700 C703 1.386 . S
H701 C717 0.930 . S
H702 C718 0.931 . S
C703 H691 0.929 . S
C703 C697 1.390 . S
C703 C700 1.386 . S
C704 C699 1.490 . S
C704 C706 1.395 . S
C704 C707 1.403 . S
H705 C711 0.930 . S
C706 H692 0.930 . S
C706 C704 1.395 . S
C706 C709 1.403 . S
C707 C704 1.403 . S
C707 C708 1.524 . S
C707 C711 1.400 . S
C708 H693 0.960 . S
C708 H694 0.960 . S
C708 H695 0.960 . S
C708 C707 1.524 . S
C709 C706 1.403 . S
C709 C710 1.392 . S
C709 C713 1.495 . S
C710 C709 1.392 . S
C710 C711 1.385 . S
C710 C712 1.478 . S
C711 H705 0.930 . S
C711 C707 1.400 . S
C711 C710 1.385 . S
C712 C710 1.478 . S
C712 C714 1.381 . S
C712 C718 1.383 . S
C713 C709 1.495 . S
C713 H719 0.959 . S
C713 H720 0.961 . S
C713 H721 0.960 . S
C714 C712 1.381 . S
C714 C715 1.394 . S
C714 H722 0.930 . S
C715 C714 1.394 . S
C715 C716 1.383 . S
C715 H723 0.929 . S
C716 C715 1.383 . S
C716 C717 1.377 . S
C717 H701 0.930 . S
C717 C716 1.377 . S
C717 C718 1.379 . S
C718 H702 0.931 . S
C718 C712 1.383 . S
C718 C717 1.379 . S
H719 C713 0.959 . S
H720 C713 0.961 . S
H721 C713 0.960 . S
H722 C714 0.930 . S
H723 C715 0.929 . S
H724 C732 0.929 . S
H725 C734 0.930 . S
H726 C736 0.930 . S
H727 C739 0.929 . S
H728 C742 0.930 . S
H729 C744 0.960 . S
H730 C744 0.960 . S
H731 C744 0.960 . S
C732 H724 0.929 . S
C732 C733 1.377 . S
C732 C734 1.384 . S
C733 C732 1.377 . S
C733 C739 1.390 . S
C734 H725 0.930 . S
C734 C732 1.384 . S
C734 C735 1.372 . S
C735 C734 1.372 . S
C735 C736 1.400 . S
C735 C740 1.490 . S
C736 H726 0.930 . S
C736 C735 1.400 . S
C736 C739 1.386 . S
H737 C753 0.930 . S
H738 C754 0.931 . S
C739 H727 0.929 . S
C739 C733 1.390 . S
C739 C736 1.386 . S
C740 C735 1.490 . S
C740 C742 1.395 . S
C740 C743 1.403 . S
H741 C747 0.930 . S
C742 H728 0.930 . S
C742 C740 1.395 . S
C742 C745 1.403 . S
C743 C740 1.403 . S
C743 C744 1.524 . S
C743 C747 1.400 . S
C744 H729 0.960 . S
C744 H730 0.960 . S
C744 H731 0.960 . S
C744 C743 1.524 . S
C745 C742 1.403 . S
C745 C746 1.392 . S
C745 C749 1.495 . S
C746 C745 1.392 . S
C746 C747 1.385 . S
C746 C748 1.478 . S
C747 H741 0.930 . S
C747 C743 1.400 . S
C747 C746 1.385 . S
C748 C746 1.478 . S
C748 C750 1.381 . S
C748 C754 1.383 . S
C749 C745 1.495 . S
C749 H755 0.959 . S
C749 H756 0.961 . S
C749 H757 0.960 . S
C750 C748 1.381 . S
C750 C751 1.394 . S
C750 H758 0.930 . S
C751 C750 1.394 . S
C751 C752 1.383 . S
C751 H759 0.929 . S
C752 C751 1.383 . S
C752 C753 1.377 . S
C753 H737 0.930 . S
C753 C752 1.377 . S
C753 C754 1.379 . S
C754 H738 0.931 . S
C754 C748 1.383 . S
C754 C753 1.379 . S
H755 C749 0.959 . S
H756 C749 0.961 . S
H757 C749 0.960 . S
H758 C750 0.930 . S
H759 C751 0.929 . S
H760 C768 0.929 . S
H761 C770 0.930 . S
H762 C772 0.930 . S
H763 C775 0.929 . S
H764 C778 0.930 . S
H765 C780 0.960 . S
H766 C780 0.960 . S
H767 C780 0.960 . S
C768 H760 0.929 . S
C768 C769 1.377 . S
C768 C770 1.384 . S
C769 C768 1.377 . S
C769 C775 1.390 . S
C770 H761 0.930 . S
C770 C768 1.384 . S
C770 C771 1.372 . S
C771 C770 1.372 . S
C771 C772 1.400 . S
C771 C776 1.490 . S
C772 H762 0.930 . S
C772 C771 1.400 . S
C772 C775 1.386 . S
H773 C789 0.930 . S
H774 C790 0.931 . S
C775 H763 0.929 . S
C775 C769 1.390 . S
C775 C772 1.386 . S
C776 C771 1.490 . S
C776 C778 1.395 . S
C776 C779 1.403 . S
H777 C783 0.930 . S
C778 H764 0.930 . S
C778 C776 1.395 . S
C778 C781 1.403 . S
C779 C776 1.403 . S
C779 C780 1.524 . S
C779 C783 1.400 . S
C780 H765 0.960 . S
C780 H766 0.960 . S
C780 H767 0.960 . S
C780 C779 1.524 . S
C781 C778 1.403 . S
C781 C782 1.392 . S
C781 C785 1.495 . S
C782 C781 1.392 . S
C782 C783 1.385 . S
C782 C784 1.478 . S
C783 H777 0.930 . S
C783 C779 1.400 . S
C783 C782 1.385 . S
C784 C782 1.478 . S
C784 C786 1.381 . S
C784 C790 1.383 . S
C785 C781 1.495 . S
C785 H791 0.959 . S
C785 H792 0.961 . S
C785 H793 0.960 . S
C786 C784 1.381 . S
C786 C787 1.394 . S
C786 H794 0.930 . S
C787 C786 1.394 . S
C787 C788 1.383 . S
C787 H795 0.929 . S
C788 C787 1.383 . S
C788 C789 1.377 . S
C789 H773 0.930 . S
C789 C788 1.377 . S
C789 C790 1.379 . S
C790 H774 0.931 . S
C790 C784 1.383 . S
C790 C789 1.379 . S
H791 C785 0.959 . S
H792 C785 0.961 . S
H793 C785 0.960 . S
H794 C786 0.930 . S
H795 C787 0.929 . S
H796 C804 0.929 . S
H797 C806 0.930 . S
H798 C808 0.930 . S
H799 C811 0.929 . S
H800 C814 0.930 . S
H801 C816 0.960 . S
H802 C816 0.960 . S
H803 C816 0.960 . S
C804 H796 0.929 . S
C804 C805 1.377 . S
C804 C806 1.384 . S
C805 C804 1.377 . S
C805 C811 1.390 . S
C806 H797 0.930 . S
C806 C804 1.384 . S
C806 C807 1.372 . S
C807 C806 1.372 . S
C807 C808 1.400 . S
C807 C812 1.490 . S
C808 H798 0.930 . S
C808 C807 1.400 . S
C808 C811 1.386 . S
H809 C825 0.930 . S
H810 C826 0.931 . S
C811 H799 0.929 . S
C811 C805 1.390 . S
C811 C808 1.386 . S
C812 C807 1.490 . S
C812 C814 1.395 . S
C812 C815 1.403 . S
H813 C819 0.930 . S
C814 H800 0.930 . S
C814 C812 1.395 . S
C814 C817 1.403 . S
C815 C812 1.403 . S
C815 C816 1.524 . S
C815 C819 1.400 . S
C816 H801 0.960 . S
C816 H802 0.960 . S
C816 H803 0.960 . S
C816 C815 1.524 . S
C817 C814 1.403 . S
C817 C818 1.392 . S
C817 C821 1.495 . S
C818 C817 1.392 . S
C818 C819 1.385 . S
C818 C820 1.478 . S
C819 H813 0.930 . S
C819 C815 1.400 . S
C819 C818 1.385 . S
C820 C818 1.478 . S
C820 C822 1.381 . S
C820 C826 1.383 . S
C821 C817 1.495 . S
C821 H827 0.959 . S
C821 H828 0.961 . S
C821 H829 0.960 . S
C822 C820 1.381 . S
C822 C823 1.394 . S
C822 H830 0.930 . S
C823 C822 1.394 . S
C823 C824 1.383 . S
C823 H831 0.929 . S
C824 C823 1.383 . S
C824 C825 1.377 . S
C825 H809 0.930 . S
C825 C824 1.377 . S
C825 C826 1.379 . S
C826 H810 0.931 . S
C826 C820 1.383 . S
C826 C825 1.379 . S
H827 C821 0.959 . S
H828 C821 0.961 . S
H829 C821 0.960 . S
H830 C822 0.930 . S
H831 C823 0.929 . S
H832 C840 0.929 . S
H833 C842 0.930 . S
H834 C844 0.930 . S
H835 C847 0.929 . S
H836 C850 0.930 . S
H837 C852 0.960 . S
H838 C852 0.960 . S
H839 C852 0.960 . S
C840 H832 0.929 . S
C840 C841 1.377 . S
C840 C842 1.384 . S
C841 C840 1.377 . S
C841 C847 1.390 . S
C842 H833 0.930 . S
C842 C840 1.384 . S
C842 C843 1.372 . S
C843 C842 1.372 . S
C843 C844 1.400 . S
C843 C848 1.490 . S
C844 H834 0.930 . S
C844 C843 1.400 . S
C844 C847 1.386 . S
H845 C861 0.930 . S
H846 C862 0.931 . S
C847 H835 0.929 . S
C847 C841 1.390 . S
C847 C844 1.386 . S
C848 C843 1.490 . S
C848 C850 1.395 . S
C848 C851 1.403 . S
H849 C855 0.930 . S
C850 H836 0.930 . S
C850 C848 1.395 . S
C850 C853 1.403 . S
C851 C848 1.403 . S
C851 C852 1.524 . S
C851 C855 1.400 . S
C852 H837 0.960 . S
C852 H838 0.960 . S
C852 H839 0.960 . S
C852 C851 1.524 . S
C853 C850 1.403 . S
C853 C854 1.392 . S
C853 C857 1.495 . S
C854 C853 1.392 . S
C854 C855 1.385 . S
C854 C856 1.478 . S
C855 H849 0.930 . S
C855 C851 1.400 . S
C855 C854 1.385 . S
C856 C854 1.478 . S
C856 C858 1.381 . S
C856 C862 1.383 . S
C857 C853 1.495 . S
C857 H863 0.959 . S
C857 H864 0.961 . S
C857 H865 0.960 . S
C858 C856 1.381 . S
C858 C859 1.394 . S
C858 H866 0.930 . S
C859 C858 1.394 . S
C859 C860 1.383 . S
C859 H867 0.929 . S
C860 C859 1.383 . S
C860 C861 1.377 . S
C861 H845 0.930 . S
C861 C860 1.377 . S
C861 C862 1.379 . S
C862 H846 0.931 . S
C862 C856 1.383 . S
C862 C861 1.379 . S
H863 C857 0.959 . S
H864 C857 0.961 . S
H865 C857 0.960 . S
H866 C858 0.930 . S
H867 C859 0.929 . S
H868 C876 0.929 . S
H869 C878 0.930 . S
H870 C880 0.930 . S
H871 C883 0.929 . S
H872 C886 0.930 . S
H873 C888 0.960 . S
H874 C888 0.960 . S
H875 C888 0.960 . S
C876 H868 0.929 . S
C876 C877 1.377 . S
C876 C878 1.384 . S
C877 C876 1.377 . S
C877 C883 1.390 . S
C878 H869 0.930 . S
C878 C876 1.384 . S
C878 C879 1.372 . S
C879 C878 1.372 . S
C879 C880 1.400 . S
C879 C884 1.490 . S
C880 H870 0.930 . S
C880 C879 1.400 . S
C880 C883 1.386 . S
H881 C897 0.930 . S
H882 C898 0.931 . S
C883 H871 0.929 . S
C883 C877 1.390 . S
C883 C880 1.386 . S
C884 C879 1.490 . S
C884 C886 1.395 . S
C884 C887 1.403 . S
H885 C891 0.930 . S
C886 H872 0.930 . S
C886 C884 1.395 . S
C886 C889 1.403 . S
C887 C884 1.403 . S
C887 C888 1.524 . S
C887 C891 1.400 . S
C888 H873 0.960 . S
C888 H874 0.960 . S
C888 H875 0.960 . S
C888 C887 1.524 . S
C889 C886 1.403 . S
C889 C890 1.392 . S
C889 C893 1.495 . S
C890 C889 1.392 . S
C890 C891 1.385 . S
C890 C892 1.478 . S
C891 H885 0.930 . S
C891 C887 1.400 . S
C891 C890 1.385 . S
C892 C890 1.478 . S
C892 C894 1.381 . S
C892 C898 1.383 . S
C893 C889 1.495 . S
C893 H899 0.959 . S
C893 H900 0.961 . S
C893 H901 0.960 . S
C894 C892 1.381 . S
C894 C895 1.394 . S
C894 H902 0.930 . S
C895 C894 1.394 . S
C895 C896 1.383 . S
C895 H903 0.929 . S
C896 C895 1.383 . S
C896 C897 1.377 . S
C897 H881 0.930 . S
C897 C896 1.377 . S
C897 C898 1.379 . S
C898 H882 0.931 . S
C898 C892 1.383 . S
C898 C897 1.379 . S
H899 C893 0.959 . S
H900 C893 0.961 . S
H901 C893 0.960 . S
H902 C894 0.930 . S
H903 C895 0.929 . S
H904 C912 0.929 . S
H905 C914 0.930 . S
H906 C916 0.930 . S
H907 C919 0.929 . S
H908 C922 0.930 . S
H909 C924 0.960 . S
H910 C924 0.960 . S
H911 C924 0.960 . S
C912 H904 0.929 . S
C912 C913 1.377 . S
C912 C914 1.384 . S
C913 C912 1.377 . S
C913 C919 1.390 . S
C914 H905 0.930 . S
C914 C912 1.384 . S
C914 C915 1.372 . S
C915 C914 1.372 . S
C915 C916 1.400 . S
C915 C920 1.490 . S
C916 H906 0.930 . S
C916 C915 1.400 . S
C916 C919 1.386 . S
H917 C933 0.930 . S
H918 C934 0.931 . S
C919 H907 0.929 . S
C919 C913 1.390 . S
C919 C916 1.386 . S
C920 C915 1.490 . S
C920 C922 1.395 . S
C920 C923 1.403 . S
H921 C927 0.930 . S
C922 H908 0.930 . S
C922 C920 1.395 . S
C922 C925 1.403 . S
C923 C920 1.403 . S
C923 C924 1.524 . S
C923 C927 1.400 . S
C924 H909 0.960 . S
C924 H910 0.960 . S
C924 H911 0.960 . S
C924 C923 1.524 . S
C925 C922 1.403 . S
C925 C926 1.392 . S
C925 C929 1.495 . S
C926 C925 1.392 . S
C926 C927 1.385 . S
C926 C928 1.478 . S
C927 H921 0.930 . S
C927 C923 1.400 . S
C927 C926 1.385 . S
C928 C926 1.478 . S
C928 C930 1.381 . S
C928 C934 1.383 . S
C929 C925 1.495 . S
C929 H935 0.959 . S
C929 H936 0.961 . S
C929 H937 0.960 . S
C930 C928 1.381 . S
C930 C931 1.394 . S
C930 H938 0.930 . S
C931 C930 1.394 . S
C931 C932 1.383 . S
C931 H939 0.929 . S
C932 C931 1.383 . S
C932 C933 1.377 . S
C933 H917 0.930 . S
C933 C932 1.377 . S
C933 C934 1.379 . S
C934 H918 0.931 . S
C934 C928 1.383 . S
C934 C933 1.379 . S
H935 C929 0.959 . S
H936 C929 0.961 . S
H937 C929 0.960 . S
H938 C930 0.930 . S
H939 C931 0.929 . S
H940 C948 0.929 . S
H941 C950 0.930 . S
H942 C952 0.930 . S
H943 C955 0.929 . S
H944 C958 0.930 . S
H945 C960 0.960 . S
H946 C960 0.960 . S
H947 C960 0.960 . S
C948 H940 0.929 . S
C948 C949 1.377 . S
C948 C950 1.384 . S
C949 C948 1.377 . S
C949 C955 1.390 . S
C950 H941 0.930 . S
C950 C948 1.384 . S
C950 C951 1.372 . S
C951 C950 1.372 . S
C951 C952 1.400 . S
C951 C956 1.490 . S
C952 H942 0.930 . S
C952 C951 1.400 . S
C952 C955 1.386 . S
H953 C969 0.930 . S
H954 C970 0.931 . S
C955 H943 0.929 . S
C955 C949 1.390 . S
C955 C952 1.386 . S
C956 C951 1.490 . S
C956 C958 1.395 . S
C956 C959 1.403 . S
H957 C963 0.930 . S
C958 H944 0.930 . S
C958 C956 1.395 . S
C958 C961 1.403 . S
C959 C956 1.403 . S
C959 C960 1.524 . S
C959 C963 1.400 . S
C960 H945 0.960 . S
C960 H946 0.960 . S
C960 H947 0.960 . S
C960 C959 1.524 . S
C961 C958 1.403 . S
C961 C962 1.392 . S
C961 C965 1.495 . S
C962 C961 1.392 . S
C962 C963 1.385 . S
C962 C964 1.478 . S
C963 H957 0.930 . S
C963 C959 1.400 . S
C963 C962 1.385 . S
C964 C962 1.478 . S
C964 C966 1.381 . S
C964 C970 1.383 . S
C965 C961 1.495 . S
C965 H971 0.959 . S
C965 H972 0.961 . S
C965 H973 0.960 . S
C966 C964 1.381 . S
C966 C967 1.394 . S
C966 H974 0.930 . S
C967 C966 1.394 . S
C967 C968 1.383 . S
C967 H975 0.929 . S
C968 C967 1.383 . S
C968 C969 1.377 . S
C969 H953 0.930 . S
C969 C968 1.377 . S
C969 C970 1.379 . S
C970 H954 0.931 . S
C970 C964 1.383 . S
C970 C969 1.379 . S
H971 C965 0.959 . S
H972 C965 0.961 . S
H973 C965 0.960 . S
H974 C966 0.930 . S
H975 C967 0.929 . S
H976 C984 0.929 . S
H977 C986 0.930 . S
H978 C988 0.930 . S
H979 C991 0.929 . S
H980 C994 0.930 . S
H981 C996 0.960 . S
H982 C996 0.960 . S
H983 C996 0.960 . S
C984 H976 0.929 . S
C984 C985 1.377 . S
C984 C986 1.384 . S
C985 C984 1.377 . S
C985 C991 1.390 . S
C986 H977 0.930 . S
C986 C984 1.384 . S
C986 C987 1.372 . S
C987 C986 1.372 . S
C987 C988 1.400 . S
C987 C992 1.490 . S
C988 H978 0.930 . S
C988 C987 1.400 . S
C988 C991 1.386 . S
H989 C1005 0.930 . S
H990 C1006 0.931 . S
C991 H979 0.929 . S
C991 C985 1.390 . S
C991 C988 1.386 . S
C992 C987 1.490 . S
C992 C994 1.395 . S
C992 C995 1.403 . S
H993 C999 0.930 . S
C994 H980 0.930 . S
C994 C992 1.395 . S
C994 C997 1.403 . S
C995 C992 1.403 . S
C995 C996 1.524 . S
C995 C999 1.400 . S
C996 H981 0.960 . S
C996 H982 0.960 . S
C996 H983 0.960 . S
C996 C995 1.524 . S
C997 C994 1.403 . S
C997 C998 1.392 . S
C997 C1001 1.495 . S
C998 C997 1.392 . S
C998 C999 1.385 . S
C998 C1000 1.478 . S
C999 H993 0.930 . S
C999 C995 1.400 . S
C999 C998 1.385 . S
C1000 C998 1.478 . S
C1000 C1002 1.381 . S
C1000 C1006 1.383 . S
C1001 C997 1.495 . S
C1001 H1007 0.959 . S
C1001 H1008 0.961 . S
C1001 H1009 0.960 . S
C1002 C1000 1.381 . S
C1002 C1003 1.394 . S
C1002 H1010 0.930 . S
C1003 C1002 1.394 . S
C1003 C1004 1.383 . S
C1003 H1011 0.929 . S
C1004 C1003 1.383 . S
C1004 C1005 1.377 . S
C1005 H989 0.930 . S
C1005 C1004 1.377 . S
C1005 C1006 1.379 . S
C1006 H990 0.931 . S
C1006 C1000 1.383 . S
C1006 C1005 1.379 . S
H1007 C1001 0.959 . S
H1008 C1001 0.961 . S
H1009 C1001 0.960 . S
H1010 C1002 0.930 . S
H1011 C1003 0.929 . S
H1012 C1020 0.929 . S
H1013 C1022 0.930 . S
H1014 C1024 0.930 . S
H1015 C1027 0.929 . S
H1016 C1030 0.930 . S
H1017 C1032 0.960 . S
H1018 C1032 0.960 . S
H1019 C1032 0.960 . S
C1020 H1012 0.929 . S
C1020 C1021 1.377 . S
C1020 C1022 1.384 . S
C1021 C1020 1.377 . S
C1021 C1027 1.390 . S
C1022 H1013 0.930 . S
C1022 C1020 1.384 . S
C1022 C1023 1.372 . S
C1023 C1022 1.372 . S
C1023 C1024 1.400 . S
C1023 C1028 1.490 . S
C1024 H1014 0.930 . S
C1024 C1023 1.400 . S
C1024 C1027 1.386 . S
H1025 C1041 0.930 . S
H1026 C1042 0.931 . S
C1027 H1015 0.929 . S
C1027 C1021 1.390 . S
C1027 C1024 1.386 . S
C1028 C1023 1.490 . S
C1028 C1030 1.395 . S
C1028 C1031 1.403 . S
H1029 C1035 0.930 . S
C1030 H1016 0.930 . S
C1030 C1028 1.395 . S
C1030 C1033 1.403 . S
C1031 C1028 1.403 . S
C1031 C1032 1.524 . S
C1031 C1035 1.400 . S
C1032 H1017 0.960 . S
C1032 H1018 0.960 . S
C1032 H1019 0.960 . S
C1032 C1031 1.524 . S
C1033 C1030 1.403 . S
C1033 C1034 1.392 . S
C1033 C1037 1.495 . S
C1034 C1033 1.392 . S
C1034 C1035 1.385 . S
C1034 C1036 1.478 . S
C1035 H1029 0.930 . S
C1035 C1031 1.400 . S
C1035 C1034 1.385 . S
C1036 C1034 1.478 . S
C1036 C1038 1.381 . S
C1036 C1042 1.383 . S
C1037 C1033 1.495 . S
C1037 H1043 0.959 . S
C1037 H1044 0.961 . S
C1037 H1045 0.960 . S
C1038 C1036 1.381 . S
C1038 C1039 1.394 . S
C1038 H1046 0.930 . S
C1039 C1038 1.394 . S
C1039 C1040 1.383 . S
C1039 H1047 0.929 . S
C1040 C1039 1.383 . S
C1040 C1041 1.377 . S
C1041 H1025 0.930 . S
C1041 C1040 1.377 . S
C1041 C1042 1.379 . S
C1042 H1026 0.931 . S
C1042 C1036 1.383 . S
C1042 C1041 1.379 . S
H1043 C1037 0.959 . S
H1044 C1037 0.961 . S
H1045 C1037 0.960 . S
H1046 C1038 0.930 . S
H1047 C1039 0.929 . S
H1048 C1056 0.929 . S
H1049 C1058 0.930 . S
H1050 C1060 0.930 . S
H1051 C1063 0.929 . S
H1052 C1066 0.930 . S
H1053 C1068 0.960 . S
H1054 C1068 0.960 . S
H1055 C1068 0.960 . S
C1056 H1048 0.929 . S
C1056 C1057 1.377 . S
C1056 C1058 1.384 . S
C1057 C1056 1.377 . S
C1057 C1063 1.390 . S
C1058 H1049 0.930 . S
C1058 C1056 1.384 . S
C1058 C1059 1.372 . S
C1059 C1058 1.372 . S
C1059 C1060 1.400 . S
C1059 C1064 1.490 . S
C1060 H1050 0.930 . S
C1060 C1059 1.400 . S
C1060 C1063 1.386 . S
H1061 C1077 0.930 . S
H1062 C1078 0.931 . S
C1063 H1051 0.929 . S
C1063 C1057 1.390 . S
C1063 C1060 1.386 . S
C1064 C1059 1.490 . S
C1064 C1066 1.395 . S
C1064 C1067 1.403 . S
H1065 C1071 0.930 . S
C1066 H1052 0.930 . S
C1066 C1064 1.395 . S
C1066 C1069 1.403 . S
C1067 C1064 1.403 . S
C1067 C1068 1.524 . S
C1067 C1071 1.400 . S
C1068 H1053 0.960 . S
C1068 H1054 0.960 . S
C1068 H1055 0.960 . S
C1068 C1067 1.524 . S
C1069 C1066 1.403 . S
C1069 C1070 1.392 . S
C1069 C1073 1.495 . S
C1070 C1069 1.392 . S
C1070 C1071 1.385 . S
C1070 C1072 1.478 . S
C1071 H1065 0.930 . S
C1071 C1067 1.400 . S
C1071 C1070 1.385 . S
C1072 C1070 1.478 . S
C1072 C1074 1.381 . S
C1072 C1078 1.383 . S
C1073 C1069 1.495 . S
C1073 H1079 0.959 . S
C1073 H1080 0.961 . S
C1073 H1081 0.960 . S
C1074 C1072 1.381 . S
C1074 C1075 1.394 . S
C1074 H1082 0.930 . S
C1075 C1074 1.394 . S
C1075 C1076 1.383 . S
C1075 H1083 0.929 . S
C1076 C1075 1.383 . S
C1076 C1077 1.377 . S
C1077 H1061 0.930 . S
C1077 C1076 1.377 . S
C1077 C1078 1.379 . S
C1078 H1062 0.931 . S
C1078 C1072 1.383 . S
C1078 C1077 1.379 . S
H1079 C1073 0.959 . S
H1080 C1073 0.961 . S
H1081 C1073 0.960 . S
H1082 C1074 0.930 . S
H1083 C1075 0.929 . S
H1084 C1092 0.929 . S
H1085 C1094 0.930 . S
H1086 C1096 0.930 . S
H1087 C1099 0.929 . S
H1088 C1102 0.930 . S
H1089 C1104 0.960 . S
H1090 C1104 0.960 . S
H1091 C1104 0.960 . S
C1092 H1084 0.929 . S
C1092 C1093 1.377 . S
C1092 C1094 1.384 . S
C1093 C1092 1.377 . S
C1093 C1099 1.390 . S
C1094 H1085 0.930 . S
C1094 C1092 1.384 . S
C1094 C1095 1.372 . S
C1095 C1094 1.372 . S
C1095 C1096 1.400 . S
C1095 C1100 1.490 . S
C1096 H1086 0.930 . S
C1096 C1095 1.400 . S
C1096 C1099 1.386 . S
H1097 C1113 0.930 . S
H1098 C1114 0.931 . S
C1099 H1087 0.929 . S
C1099 C1093 1.390 . S
C1099 C1096 1.386 . S
C1100 C1095 1.490 . S
C1100 C1102 1.395 . S
C1100 C1103 1.403 . S
H1101 C1107 0.930 . S
C1102 H1088 0.930 . S
C1102 C1100 1.395 . S
C1102 C1105 1.403 . S
C1103 C1100 1.403 . S
C1103 C1104 1.524 . S
C1103 C1107 1.400 . S
C1104 H1089 0.960 . S
C1104 H1090 0.960 . S
C1104 H1091 0.960 . S
C1104 C1103 1.524 . S
C1105 C1102 1.403 . S
C1105 C1106 1.392 . S
C1105 C1109 1.495 . S
C1106 C1105 1.392 . S
C1106 C1107 1.385 . S
C1106 C1108 1.478 . S
C1107 H1101 0.930 . S
C1107 C1103 1.400 . S
C1107 C1106 1.385 . S
C1108 C1106 1.478 . S
C1108 C1110 1.381 . S
C1108 C1114 1.383 . S
C1109 C1105 1.495 . S
C1109 H1115 0.959 . S
C1109 H1116 0.961 . S
C1109 H1117 0.960 . S
C1110 C1108 1.381 . S
C1110 C1111 1.394 . S
C1110 H1118 0.930 . S
C1111 C1110 1.394 . S
C1111 C1112 1.383 . S
C1111 H1119 0.929 . S
C1112 C1111 1.383 . S
C1112 C1113 1.377 . S
C1113 H1097 0.930 . S
C1113 C1112 1.377 . S
C1113 C1114 1.379 . S
C1114 H1098 0.931 . S
C1114 C1108 1.383 . S
C1114 C1113 1.379 . S
H1115 C1109 0.959 . S
H1116 C1109 0.961 . S
H1117 C1109 0.960 . S
H1118 C1110 0.930 . S
H1119 C1111 0.929 . S
H1120 C1128 0.929 . S
H1121 C1130 0.930 . S
H1122 C1132 0.930 . S
H1123 C1135 0.929 . S
H1124 C1138 0.930 . S
H1125 C1140 0.960 . S
H1126 C1140 0.960 . S
H1127 C1140 0.960 . S
C1128 H1120 0.929 . S
C1128 C1129 1.377 . S
C1128 C1130 1.384 . S
C1129 C1128 1.377 . S
C1129 C1135 1.390 . S
C1130 H1121 0.930 . S
C1130 C1128 1.384 . S
C1130 C1131 1.372 . S
C1131 C1130 1.372 . S
C1131 C1132 1.400 . S
C1131 C1136 1.490 . S
C1132 H1122 0.930 . S
C1132 C1131 1.400 . S
C1132 C1135 1.386 . S
H1133 C1149 0.930 . S
H1134 C1150 0.931 . S
C1135 H1123 0.929 . S
C1135 C1129 1.390 . S
C1135 C1132 1.386 . S
C1136 C1131 1.490 . S
C1136 C1138 1.395 1_455 S
C1136 C1139 1.403 1_545 S
H1137 C1143 0.931 . S
C1138 H1124 0.930 . S
C1138 C1136 1.395 1_655 S
C1138 C1141 1.403 . S
C1139 C1136 1.403 1_565 S
C1139 C1140 1.524 . S
C1139 C1143 1.403 . S
C1140 H1125 0.960 . S
C1140 H1126 0.960 . S
C1140 H1127 0.960 . S
C1140 C1139 1.524 . S
C1141 C1138 1.403 . S
C1141 C1142 1.392 1_545 S
C1141 C1145 1.495 . S
C1142 C1141 1.392 1_565 S
C1142 C1143 1.382 1_655 S
C1142 C1144 1.478 . S
C1143 H1137 0.931 . S
C1143 C1139 1.403 . S
C1143 C1142 1.382 1_455 S
C1144 C1142 1.478 . S
C1144 C1146 1.381 . S
C1144 C1150 1.383 . S
C1145 C1141 1.495 . S
C1145 H1151 0.959 . S
C1145 H1152 0.961 . S
C1145 H1153 0.960 . S
C1146 C1144 1.381 . S
C1146 C1147 1.394 . S
C1146 H1154 0.930 . S
C1147 C1146 1.394 . S
C1147 C1148 1.383 . S
C1147 H1155 0.929 . S
C1148 C1147 1.383 . S
C1148 C1149 1.377 . S
C1149 H1133 0.930 . S
C1149 C1148 1.377 . S
C1149 C1150 1.379 . S
C1150 H1134 0.931 . S
C1150 C1144 1.383 . S
C1150 C1149 1.379 . S
H1151 C1145 0.959 . S
H1152 C1145 0.961 . S
H1153 C1145 0.960 . S
H1154 C1146 0.930 . S
H1155 C1147 0.929 . S
H1156 C1164 0.929 . S
H1157 C1166 0.930 . S
H1158 C1168 0.930 . S
H1159 C1171 0.929 . S
H1160 C1174 0.930 . S
H1161 C1176 0.960 . S
H1162 C1176 0.960 . S
H1163 C1176 0.960 . S
C1164 H1156 0.929 . S
C1164 C1165 1.377 . S
C1164 C1166 1.384 . S
C1165 C1164 1.377 . S
C1165 C1171 1.390 . S
C1166 H1157 0.930 . S
C1166 C1164 1.384 . S
C1166 C1167 1.372 . S
C1167 C1166 1.372 . S
C1167 C1168 1.400 . S
C1167 C1172 1.490 . S
C1168 H1158 0.930 . S
C1168 C1167 1.400 . S
C1168 C1171 1.386 . S
H1169 C1185 0.930 . S
H1170 C1186 0.931 . S
C1171 H1159 0.929 . S
C1171 C1165 1.390 . S
C1171 C1168 1.386 . S
C1172 C1167 1.490 . S
C1172 C1174 1.395 1_565 S
C1172 C1175 1.403 1_455 S
H1173 C1179 0.930 . S
C1174 H1160 0.930 . S
C1174 C1172 1.395 1_545 S
C1174 C1177 1.403 . S
C1175 C1172 1.403 1_655 S
C1175 C1176 1.524 . S
C1175 C1179 1.401 . S
C1176 H1161 0.960 . S
C1176 H1162 0.960 . S
C1176 H1163 0.960 . S
C1176 C1175 1.524 . S
C1177 C1174 1.403 . S
C1177 C1178 1.392 1_455 S
C1177 C1181 1.495 . S
C1178 C1177 1.392 1_655 S
C1178 C1179 1.384 1_545 S
C1178 C1180 1.478 . S
C1179 H1173 0.930 . S
C1179 C1175 1.401 . S
C1179 C1178 1.384 1_565 S
C1180 C1178 1.478 . S
C1180 C1182 1.381 . S
C1180 C1186 1.383 . S
C1181 C1177 1.495 . S
C1181 H1187 0.959 . S
C1181 H1188 0.961 . S
C1181 H1189 0.960 . S
C1182 C1180 1.381 . S
C1182 C1183 1.394 . S
C1182 H1190 0.930 . S
C1183 C1182 1.394 . S
C1183 C1184 1.383 . S
C1183 H1191 0.929 . S
C1184 C1183 1.383 . S
C1184 C1185 1.377 . S
C1185 H1169 0.930 . S
C1185 C1184 1.377 . S
C1185 C1186 1.379 . S
C1186 H1170 0.931 . S
C1186 C1180 1.383 . S
C1186 C1185 1.379 . S
H1187 C1181 0.959 . S
H1188 C1181 0.961 . S
H1189 C1181 0.960 . S
H1190 C1182 0.930 . S
H1191 C1183 0.929 . S
H1192 C1200 0.929 . S
H1193 C1202 0.930 . S
H1194 C1204 0.930 . S
H1195 C1207 0.929 . S
H1196 C1210 0.930 . S
H1197 C1212 0.960 . S
H1198 C1212 0.960 . S
H1199 C1212 0.960 1_455 S
C1200 H1192 0.929 . S
C1200 C1201 1.377 1_554 S
C1200 C1202 1.384 . S
C1201 C1200 1.377 1_556 S
C1201 C1207 1.390 . S
C1202 H1193 0.930 . S
C1202 C1200 1.384 . S
C1202 C1203 1.372 1_554 S
C1203 C1202 1.372 1_556 S
C1203 C1204 1.400 . S
C1203 C1208 1.490 . S
C1204 H1194 0.930 . S
C1204 C1203 1.400 . S
C1204 C1207 1.386 . S
H1205 C1221 0.930 . S
H1206 C1222 0.931 . S
C1207 H1195 0.929 . S
C1207 C1201 1.390 . S
C1207 C1204 1.386 . S
C1208 C1203 1.490 . S
C1208 C1210 1.395 1_556 S
C1208 C1211 1.387 1_455 S
H1209 C1215 0.930 . S
C1210 H1196 0.930 . S
C1210 C1208 1.395 1_554 S
C1210 C1213 1.403 . S
C1211 C1208 1.387 1_655 S
C1211 C1212 1.526 . S
C1211 C1215 1.415 . S
C1212 H1197 0.960 . S
C1212 H1198 0.960 . S
C1212 H1199 0.960 1_655 S
C1212 C1211 1.526 . S
C1213 C1210 1.403 . S
C1213 C1214 1.405 1_455 S
C1213 C1217 1.495 . S
C1214 C1213 1.405 1_655 S
C1214 C1215 1.372 1_554 S
C1214 C1216 1.477 . S
C1215 H1209 0.930 . S
C1215 C1211 1.415 . S
C1215 C1214 1.372 1_556 S
C1216 C1214 1.477 . S
C1216 C1218 1.382 . S
C1216 C1222 1.382 1_554 S
C1217 C1213 1.495 . S
C1217 H1223 0.959 . S
C1217 H1224 0.961 . S
C1217 H1225 0.960 1_455 S
C1218 C1216 1.382 . S
C1218 C1219 1.394 . S
C1218 H1226 0.930 . S
C1219 C1218 1.394 . S
C1219 C1220 1.383 1_554 S
C1219 H1227 0.929 . S
C1220 C1219 1.383 1_556 S
C1220 C1221 1.377 . S
C1221 H1205 0.930 . S
C1221 C1220 1.377 . S
C1221 C1222 1.379 . S
C1222 H1206 0.931 . S
C1222 C1216 1.382 1_556 S
C1222 C1221 1.379 . S
H1223 C1217 0.959 . S
H1224 C1217 0.961 . S
H1225 C1217 0.960 1_655 S
H1226 C1218 0.930 . S
H1227 C1219 0.929 . S
H1228 C1236 0.929 . S
H1229 C1238 0.930 . S
H1230 C1240 0.930 . S
H1231 C1243 0.929 . S
H1232 C1246 0.930 . S
H1233 C1248 0.960 1_556 S
H1234 C1248 0.960 . S
H1235 C1248 0.960 1_556 S
C1236 H1228 0.929 . S
C1236 C1237 1.377 . S
C1236 C1238 1.384 . S
C1237 C1236 1.377 . S
C1237 C1243 1.390 1_554 S
C1238 H1229 0.930 . S
C1238 C1236 1.384 . S
C1238 C1239 1.372 . S
C1239 C1238 1.372 . S
C1239 C1240 1.400 1_554 S
C1239 C1244 1.490 . S
C1240 H1230 0.930 . S
C1240 C1239 1.400 1_556 S
C1240 C1243 1.386 . S
H1241 C1257 0.930 . S
H1242 C1258 0.931 . S
C1243 H1231 0.929 . S
C1243 C1237 1.390 1_556 S
C1243 C1240 1.386 . S
C1244 C1239 1.490 . S
C1244 C1246 1.395 . S
C1244 C1247 1.403 1_565 S
H1245 C1251 0.932 . S
C1246 H1232 0.930 . S
C1246 C1244 1.395 . S
C1246 C1249 1.403 . S
C1247 C1244 1.403 1_545 S
C1247 C1248 1.524 . S
C1247 C1251 1.400 . S
C1248 H1233 0.960 1_554 S
C1248 H1234 0.960 . S
C1248 H1235 0.960 1_554 S
C1248 C1247 1.524 . S
C1249 C1246 1.403 . S
C1249 C1250 1.392 1_565 S
C1249 C1253 1.495 . S
C1250 C1249 1.392 1_545 S
C1250 C1251 1.385 . S
C1250 C1252 1.478 . S
C1251 H1245 0.932 . S
C1251 C1247 1.400 . S
C1251 C1250 1.385 . S
C1252 C1250 1.478 . S
C1252 C1254 1.381 . S
C1252 C1258 1.383 1_554 S
C1253 C1249 1.495 . S
C1253 H1259 0.959 . S
C1253 H1260 0.961 1_554 S
C1253 H1261 0.960 . S
C1254 C1252 1.381 . S
C1254 C1255 1.394 . S
C1254 H1262 0.930 . S
C1255 C1254 1.394 . S
C1255 C1256 1.383 . S
C1255 H1263 0.929 . S
C1256 C1255 1.383 . S
C1256 C1257 1.377 1_554 S
C1257 H1241 0.930 . S
C1257 C1256 1.377 1_556 S
C1257 C1258 1.379 . S
C1258 H1242 0.931 . S
C1258 C1252 1.383 1_556 S
C1258 C1257 1.379 . S
H1259 C1253 0.959 . S
H1260 C1253 0.961 1_556 S
H1261 C1253 0.960 . S
H1262 C1254 0.930 . S
H1263 C1255 0.929 . S
H1264 C1272 0.929 . S
H1265 C1274 0.930 . S
H1266 C1276 0.930 . S
H1267 C1279 0.929 . S
H1268 C1282 0.930 . S
H1269 C1284 0.960 . S
H1270 C1284 0.960 . S
H1271 C1284 0.960 . S
C1272 H1264 0.929 . S
C1272 C1273 1.377 . S
C1272 C1274 1.384 . S
C1273 C1272 1.377 . S
C1273 C1279 1.390 . S
C1274 H1265 0.930 . S
C1274 C1272 1.384 . S
C1274 C1275 1.372 . S
C1275 C1274 1.372 . S
C1275 C1276 1.400 . S
C1275 C1280 1.490 . S
C1276 H1266 0.930 . S
C1276 C1275 1.400 . S
C1276 C1279 1.386 . S
H1277 C1293 0.930 . S
H1278 C1294 0.931 . S
C1279 H1267 0.929 . S
C1279 C1273 1.390 . S
C1279 C1276 1.386 . S
C1280 C1275 1.490 . S
C1280 C1282 1.395 . S
C1280 C1283 1.403 . S
H1281 C1287 0.930 . S
C1282 H1268 0.930 . S
C1282 C1280 1.395 . S
C1282 C1285 1.403 . S
C1283 C1280 1.403 . S
C1283 C1284 1.524 . S
C1283 C1287 1.400 . S
C1284 H1269 0.960 . S
C1284 H1270 0.960 . S
C1284 H1271 0.960 . S
C1284 C1283 1.524 . S
C1285 C1282 1.403 . S
C1285 C1286 1.392 . S
C1285 C1289 1.495 . S
C1286 C1285 1.392 . S
C1286 C1287 1.385 . S
C1286 C1288 1.478 . S
C1287 H1281 0.930 . S
C1287 C1283 1.400 . S
C1287 C1286 1.385 . S
C1288 C1286 1.478 . S
C1288 C1290 1.381 . S
C1288 C1294 1.383 . S
C1289 C1285 1.495 . S
C1289 H1295 0.959 . S
C1289 H1296 0.961 . S
C1289 H1297 0.960 . S
C1290 C1288 1.381 . S
C1290 C1291 1.394 . S
C1290 H1298 0.930 . S
C1291 C1290 1.394 . S
C1291 C1292 1.383 . S
C1291 H1299 0.929 . S
C1292 C1291 1.383 . S
C1292 C1293 1.377 . S
C1293 H1277 0.930 . S
C1293 C1292 1.377 . S
C1293 C1294 1.379 . S
C1294 H1278 0.931 . S
C1294 C1288 1.383 . S
C1294 C1293 1.379 . S
H1295 C1289 0.959 . S
H1296 C1289 0.961 . S
H1297 C1289 0.960 . S
H1298 C1290 0.930 . S
H1299 C1291 0.929 . S
H1300 C1308 0.929 . S
H1301 C1310 0.930 . S
H1302 C1312 0.930 . S
H1303 C1315 0.929 . S
H1304 C1318 0.930 . S
H1305 C1320 0.960 . S
H1306 C1320 0.960 . S
H1307 C1320 0.960 . S
C1308 H1300 0.929 . S
C1308 C1309 1.377 . S
C1308 C1310 1.384 . S
C1309 C1308 1.377 . S
C1309 C1315 1.390 . S
C1310 H1301 0.930 . S
C1310 C1308 1.384 . S
C1310 C1311 1.372 . S
C1311 C1310 1.372 . S
C1311 C1312 1.400 . S
C1311 C1316 1.490 . S
C1312 H1302 0.930 . S
C1312 C1311 1.400 . S
C1312 C1315 1.386 . S
H1313 C1329 0.930 . S
H1314 C1330 0.931 . S
C1315 H1303 0.929 . S
C1315 C1309 1.390 . S
C1315 C1312 1.386 . S
C1316 C1311 1.490 . S
C1316 C1318 1.395 . S
C1316 C1319 1.403 . S
H1317 C1323 0.930 . S
C1318 H1304 0.930 . S
C1318 C1316 1.395 . S
C1318 C1321 1.403 . S
C1319 C1316 1.403 . S
C1319 C1320 1.524 . S
C1319 C1323 1.400 . S
C1320 H1305 0.960 . S
C1320 H1306 0.960 . S
C1320 H1307 0.960 . S
C1320 C1319 1.524 . S
C1321 C1318 1.403 . S
C1321 C1322 1.392 . S
C1321 C1325 1.495 . S
C1322 C1321 1.392 . S
C1322 C1323 1.385 . S
C1322 C1324 1.478 . S
C1323 H1317 0.930 . S
C1323 C1319 1.400 . S
C1323 C1322 1.385 . S
C1324 C1322 1.478 . S
C1324 C1326 1.381 . S
C1324 C1330 1.383 . S
C1325 C1321 1.495 . S
C1325 H1331 0.959 . S
C1325 H1332 0.961 . S
C1325 H1333 0.960 . S
C1326 C1324 1.381 . S
C1326 C1327 1.394 . S
C1326 H1334 0.930 . S
C1327 C1326 1.394 . S
C1327 C1328 1.383 . S
C1327 H1335 0.929 . S
C1328 C1327 1.383 . S
C1328 C1329 1.377 . S
C1329 H1313 0.930 . S
C1329 C1328 1.377 . S
C1329 C1330 1.379 . S
C1330 H1314 0.931 . S
C1330 C1324 1.383 . S
C1330 C1329 1.379 . S
H1331 C1325 0.959 . S
H1332 C1325 0.961 . S
H1333 C1325 0.960 . S
H1334 C1326 0.930 . S
H1335 C1327 0.929 . S
H1336 C1344 0.929 . S
H1337 C1346 0.930 . S
H1338 C1348 0.930 . S
H1339 C1351 0.929 . S
H1340 C1354 0.930 . S
H1341 C1356 0.960 . S
H1342 C1356 0.960 . S
H1343 C1356 0.960 . S
C1344 H1336 0.929 . S
C1344 C1345 1.377 . S
C1344 C1346 1.384 . S
C1345 C1344 1.377 . S
C1345 C1351 1.390 . S
C1346 H1337 0.930 . S
C1346 C1344 1.384 . S
C1346 C1347 1.372 . S
C1347 C1346 1.372 . S
C1347 C1348 1.400 . S
C1347 C1352 1.490 . S
C1348 H1338 0.930 . S
C1348 C1347 1.400 . S
C1348 C1351 1.386 . S
H1349 C1365 0.930 . S
H1350 C1366 0.931 . S
C1351 H1339 0.929 . S
C1351 C1345 1.390 . S
C1351 C1348 1.386 . S
C1352 C1347 1.490 . S
C1352 C1354 1.395 . S
C1352 C1355 1.403 1_565 S
H1353 C1359 0.930 . S
C1354 H1340 0.930 . S
C1354 C1352 1.395 . S
C1354 C1357 1.403 . S
C1355 C1352 1.403 1_545 S
C1355 C1356 1.524 . S
C1355 C1359 1.400 . S
C1356 H1341 0.960 . S
C1356 H1342 0.960 . S
C1356 H1343 0.960 . S
C1356 C1355 1.524 . S
C1357 C1354 1.403 . S
C1357 C1358 1.392 1_565 S
C1357 C1361 1.495 . S
C1358 C1357 1.392 1_545 S
C1358 C1359 1.385 . S
C1358 C1360 1.478 . S
C1359 H1353 0.930 . S
C1359 C1355 1.400 . S
C1359 C1358 1.385 . S
C1360 C1358 1.478 . S
C1360 C1362 1.381 . S
C1360 C1366 1.383 . S
C1361 C1357 1.495 . S
C1361 H1367 0.959 . S
C1361 H1368 0.961 . S
C1361 H1369 0.960 . S
C1362 C1360 1.381 . S
C1362 C1363 1.394 . S
C1362 H1370 0.930 . S
C1363 C1362 1.394 . S
C1363 C1364 1.383 . S
C1363 H1371 0.929 . S
C1364 C1363 1.383 . S
C1364 C1365 1.377 . S
C1365 H1349 0.930 . S
C1365 C1364 1.377 . S
C1365 C1366 1.379 . S
C1366 H1350 0.931 . S
C1366 C1360 1.383 . S
C1366 C1365 1.379 . S
H1367 C1361 0.959 . S
H1368 C1361 0.961 . S
H1369 C1361 0.960 . S
H1370 C1362 0.930 . S
H1371 C1363 0.929 . S
H1372 C1380 0.929 . S
H1373 C1382 0.930 . S
H1374 C1384 0.930 . S
H1375 C1387 0.929 . S
H1376 C1390 0.930 . S
H1377 C1392 0.960 . S
H1378 C1392 0.960 . S
H1379 C1392 0.960 . S
C1380 H1372 0.929 . S
C1380 C1381 1.377 . S
C1380 C1382 1.384 . S
C1381 C1380 1.377 . S
C1381 C1387 1.390 . S
C1382 H1373 0.930 . S
C1382 C1380 1.384 . S
C1382 C1383 1.372 . S
C1383 C1382 1.372 . S
C1383 C1384 1.400 . S
C1383 C1388 1.490 . S
C1384 H1374 0.930 . S
C1384 C1383 1.400 . S
C1384 C1387 1.386 . S
H1385 C1401 0.930 . S
H1386 C1402 0.931 . S
C1387 H1375 0.929 . S
C1387 C1381 1.390 . S
C1387 C1384 1.386 . S
C1388 C1383 1.490 . S
C1388 C1390 1.395 . S
C1388 C1391 1.403 1_655 S
H1389 C1395 0.930 . S
C1390 H1376 0.930 . S
C1390 C1388 1.395 . S
C1390 C1393 1.403 . S
C1391 C1388 1.403 1_455 S
C1391 C1392 1.524 . S
C1391 C1395 1.400 . S
C1392 H1377 0.960 . S
C1392 H1378 0.960 . S
C1392 H1379 0.960 . S
C1392 C1391 1.524 . S
C1393 C1390 1.403 . S
C1393 C1394 1.392 1_655 S
C1393 C1397 1.495 . S
C1394 C1393 1.392 1_455 S
C1394 C1395 1.385 . S
C1394 C1396 1.478 . S
C1395 H1389 0.930 . S
C1395 C1391 1.400 . S
C1395 C1394 1.385 . S
C1396 C1394 1.478 . S
C1396 C1398 1.381 . S
C1396 C1402 1.383 . S
C1397 C1393 1.495 . S
C1397 H1403 0.959 . S
C1397 H1404 0.961 . S
C1397 H1405 0.960 . S
C1398 C1396 1.381 . S
C1398 C1399 1.394 . S
C1398 H1406 0.930 . S
C1399 C1398 1.394 . S
C1399 C1400 1.383 . S
C1399 H1407 0.929 . S
C1400 C1399 1.383 . S
C1400 C1401 1.377 . S
C1401 H1385 0.930 . S
C1401 C1400 1.377 . S
C1401 C1402 1.379 . S
C1402 H1386 0.931 . S
C1402 C1396 1.383 . S
C1402 C1401 1.379 . S
H1403 C1397 0.959 . S
H1404 C1397 0.961 . S
H1405 C1397 0.960 . S
H1406 C1398 0.930 . S
H1407 C1399 0.929 . S
H1408 C1416 0.929 . S
H1409 C1418 0.930 . S
H1410 C1420 0.930 . S
H1411 C1423 0.929 . S
H1412 C1426 0.930 . S
H1413 C1428 0.961 1_545 S
H1414 C1428 0.960 . S
H1415 C1428 0.960 . S
C1416 H1408 0.929 . S
C1416 C1417 1.377 . S
C1416 C1418 1.384 . S
C1417 C1416 1.377 . S
C1417 C1423 1.390 . S
C1418 H1409 0.930 . S
C1418 C1416 1.384 . S
C1418 C1419 1.372 . S
C1419 C1418 1.372 . S
C1419 C1420 1.400 . S
C1419 C1424 1.490 . S
C1420 H1410 0.930 . S
C1420 C1419 1.400 . S
C1420 C1423 1.386 . S
H1421 C1437 0.930 . S
H1422 C1438 0.931 . S
C1423 H1411 0.929 . S
C1423 C1417 1.390 . S
C1423 C1420 1.386 . S
C1424 C1419 1.490 . S
C1424 C1426 1.395 . S
C1424 C1427 1.403 . S
H1425 C1431 0.928 . S
C1426 H1412 0.930 . S
C1426 C1424 1.395 . S
C1426 C1429 1.403 . S
C1427 C1424 1.403 . S
C1427 C1428 1.524 . S
C1427 C1431 1.400 . S
C1428 H1413 0.961 1_565 S
C1428 H1414 0.960 . S
C1428 H1415 0.960 . S
C1428 C1427 1.524 . S
C1429 C1426 1.403 . S
C1429 C1430 1.392 . S
C1429 C1433 1.495 . S
C1430 C1429 1.392 . S
C1430 C1431 1.385 . S
C1430 C1432 1.478 . S
C1431 H1425 0.928 . S
C1431 C1427 1.400 . S
C1431 C1430 1.385 . S
C1432 C1430 1.478 . S
C1432 C1434 1.381 1_565 S
C1432 C1438 1.383 . S
C1433 C1429 1.495 . S
C1433 H1439 0.959 . S
C1433 H1440 0.961 . S
C1433 H1441 0.960 . S
C1434 C1432 1.381 1_545 S
C1434 C1435 1.394 . S
C1434 H1442 0.930 . S
C1435 C1434 1.394 . S
C1435 C1436 1.383 . S
C1435 H1443 0.929 . S
C1436 C1435 1.383 . S
C1436 C1437 1.377 . S
C1437 H1421 0.930 . S
C1437 C1436 1.377 . S
C1437 C1438 1.379 1_545 S
C1438 H1422 0.931 . S
C1438 C1432 1.383 . S
C1438 C1437 1.379 1_565 S
H1439 C1433 0.959 . S
H1440 C1433 0.961 . S
H1441 C1433 0.960 . S
H1442 C1434 0.930 . S
H1443 C1435 0.929 . S
H1444 C1452 0.929 . S
H1445 C1454 0.930 . S
H1446 C1456 0.930 . S
H1447 C1459 0.929 1_655 S
H1448 C1462 0.930 1_455 S
H1449 C1464 0.960 . S
H1450 C1464 0.960 . S
H1451 C1464 0.960 . S
C1452 H1444 0.929 . S
C1452 C1453 1.377 . S
C1452 C1454 1.384 . S
C1453 C1452 1.377 . S
C1453 C1459 1.390 . S
C1454 H1445 0.930 . S
C1454 C1452 1.384 . S
C1454 C1455 1.372 1_455 S
C1455 C1454 1.372 1_655 S
C1455 C1456 1.400 . S
C1455 C1460 1.490 . S
C1456 H1446 0.930 . S
C1456 C1455 1.400 . S
C1456 C1459 1.386 1_655 S
H1457 C1473 0.930 . S
H1458 C1474 0.931 . S
C1459 H1447 0.929 1_455 S
C1459 C1453 1.390 . S
C1459 C1456 1.386 1_455 S
C1460 C1455 1.490 . S
C1460 C1462 1.395 . S
C1460 C1463 1.403 . S
H1461 C1467 0.930 . S
C1462 H1448 0.930 1_655 S
C1462 C1460 1.395 . S
C1462 C1465 1.403 . S
C1463 C1460 1.403 . S
C1463 C1464 1.524 . S
C1463 C1467 1.400 . S
C1464 H1449 0.960 . S
C1464 H1450 0.960 . S
C1464 H1451 0.960 . S
C1464 C1463 1.524 . S
C1465 C1462 1.403 . S
C1465 C1466 1.392 . S
C1465 C1469 1.495 . S
C1466 C1465 1.392 . S
C1466 C1467 1.385 . S
C1466 C1468 1.478 . S
C1467 H1461 0.930 . S
C1467 C1463 1.400 . S
C1467 C1466 1.385 . S
C1468 C1466 1.478 . S
C1468 C1470 1.381 . S
C1468 C1474 1.383 . S
C1469 C1465 1.495 . S
C1469 H1475 0.959 1_655 S
C1469 H1476 0.961 . S
C1469 H1477 0.960 . S
C1470 C1468 1.381 . S
C1470 C1471 1.394 . S
C1470 H1478 0.930 . S
C1471 C1470 1.394 . S
C1471 C1472 1.383 . S
C1471 H1479 0.929 . S
C1472 C1471 1.383 . S
C1472 C1473 1.377 . S
C1473 H1457 0.930 . S
C1473 C1472 1.377 . S
C1473 C1474 1.379 . S
C1474 H1458 0.931 . S
C1474 C1468 1.383 . S
C1474 C1473 1.379 . S
H1475 C1469 0.959 1_455 S
H1476 C1469 0.961 . S
H1477 C1469 0.960 . S
H1478 C1470 0.930 . S
H1479 C1471 0.929 . S
H1480 C1488 0.929 . S
H1481 C1490 0.930 . S
H1482 C1492 0.930 . S
H1483 C1495 0.929 . S
H1484 C1498 0.930 . S
H1485 C1500 0.960 . S
H1486 C1500 0.960 . S
H1487 C1500 0.960 . S
C1488 H1480 0.929 . S
C1488 C1489 1.377 . S
C1488 C1490 1.384 . S
C1489 C1488 1.377 . S
C1489 C1495 1.390 . S
C1490 H1481 0.930 . S
C1490 C1488 1.384 . S
C1490 C1491 1.372 . S
C1491 C1490 1.372 . S
C1491 C1492 1.400 . S
C1491 C1496 1.490 . S
C1492 H1482 0.930 . S
C1492 C1491 1.400 . S
C1492 C1495 1.386 . S
H1493 C1509 0.930 . S
H1494 C1510 0.931 . S
C1495 H1483 0.929 . S
C1495 C1489 1.390 . S
C1495 C1492 1.386 . S
C1496 C1491 1.490 . S
C1496 C1498 1.395 . S
C1496 C1499 1.403 . S
H1497 C1503 0.930 . S
C1498 H1484 0.930 . S
C1498 C1496 1.395 . S
C1498 C1501 1.403 . S
C1499 C1496 1.403 . S
C1499 C1500 1.524 . S
C1499 C1503 1.400 . S
C1500 H1485 0.960 . S
C1500 H1486 0.960 . S
C1500 H1487 0.960 . S
C1500 C1499 1.524 . S
C1501 C1498 1.403 . S
C1501 C1502 1.392 . S
C1501 C1505 1.495 1_545 S
C1502 C1501 1.392 . S
C1502 C1503 1.385 . S
C1502 C1504 1.478 . S
C1503 H1497 0.930 . S
C1503 C1499 1.400 . S
C1503 C1502 1.385 . S
C1504 C1502 1.478 . S
C1504 C1506 1.381 1_545 S
C1504 C1510 1.383 . S
C1505 C1501 1.495 1_565 S
C1505 H1511 0.959 . S
C1505 H1512 0.961 . S
C1505 H1513 0.960 . S
C1506 C1504 1.381 1_565 S
C1506 C1507 1.394 . S
C1506 H1514 0.930 . S
C1507 C1506 1.394 . S
C1507 C1508 1.383 . S
C1507 H1515 0.929 . S
C1508 C1507 1.383 . S
C1508 C1509 1.377 . S
C1509 H1493 0.930 . S
C1509 C1508 1.377 . S
C1509 C1510 1.379 1_565 S
C1510 H1494 0.931 . S
C1510 C1504 1.383 . S
C1510 C1509 1.379 1_545 S
H1511 C1505 0.959 . S
H1512 C1505 0.961 . S
H1513 C1505 0.960 . S
H1514 C1506 0.930 . S
H1515 C1507 0.929 . S
H1516 C1524 0.929 . S
H1517 C1526 0.930 . S
H1518 C1528 0.930 . S
H1519 C1531 0.929 . S
H1520 C1534 0.930 . S
H1521 C1536 0.960 . S
H1522 C1536 0.960 . S
H1523 C1536 0.960 . S
C1524 H1516 0.929 . S
C1524 C1525 1.377 . S
C1524 C1526 1.384 . S
C1525 C1524 1.377 . S
C1525 C1531 1.390 . S
C1526 H1517 0.930 . S
C1526 C1524 1.384 . S
C1526 C1527 1.372 1_655 S
C1527 C1526 1.372 1_455 S
C1527 C1528 1.400 . S
C1527 C1532 1.490 . S
C1528 H1518 0.930 . S
C1528 C1527 1.400 . S
C1528 C1531 1.386 1_455 S
H1529 C1545 0.930 . S
H1530 C1546 0.931 . S
C1531 H1519 0.929 . S
C1531 C1525 1.390 . S
C1531 C1528 1.386 1_655 S
C1532 C1527 1.490 . S
C1532 C1534 1.395 . S
C1532 C1535 1.403 . S
H1533 C1539 0.930 . S
C1534 H1520 0.930 . S
C1534 C1532 1.395 . S
C1534 C1537 1.403 . S
C1535 C1532 1.403 . S
C1535 C1536 1.524 1_455 S
C1535 C1539 1.400 . S
C1536 H1521 0.960 . S
C1536 H1522 0.960 . S
C1536 H1523 0.960 . S
C1536 C1535 1.524 1_655 S
C1537 C1534 1.403 . S
C1537 C1538 1.392 . S
C1537 C1541 1.495 . S
C1538 C1537 1.392 . S
C1538 C1539 1.385 . S
C1538 C1540 1.478 . S
C1539 H1533 0.930 . S
C1539 C1535 1.400 . S
C1539 C1538 1.385 . S
C1540 C1538 1.478 . S
C1540 C1542 1.381 . S
C1540 C1546 1.383 . S
C1541 C1537 1.495 . S
C1541 H1547 0.959 . S
C1541 H1548 0.961 . S
C1541 H1549 0.960 . S
C1542 C1540 1.381 . S
C1542 C1543 1.394 . S
C1542 H1550 0.930 . S
C1543 C1542 1.394 . S
C1543 C1544 1.383 . S
C1543 H1551 0.929 . S
C1544 C1543 1.383 . S
C1544 C1545 1.377 . S
C1545 H1529 0.930 . S
C1545 C1544 1.377 . S
C1545 C1546 1.379 . S
C1546 H1530 0.931 . S
C1546 C1540 1.383 . S
C1546 C1545 1.379 . S
H1547 C1541 0.959 . S
H1548 C1541 0.961 . S
H1549 C1541 0.960 . S
H1550 C1542 0.930 . S
H1551 C1543 0.929 . S
H1552 C1560 0.929 . S
H1553 C1562 0.930 . S
H1554 C1564 0.930 . S
H1555 C1567 0.929 . S
H1556 C1570 0.930 . S
H1557 C1572 0.960 . S
H1558 C1572 0.960 . S
H1559 C1572 0.960 . S
C1560 H1552 0.929 . S
C1560 C1561 1.377 . S
C1560 C1562 1.384 . S
C1561 C1560 1.377 . S
C1561 C1567 1.390 . S
C1562 H1553 0.930 . S
C1562 C1560 1.384 . S
C1562 C1563 1.372 . S
C1563 C1562 1.372 . S
C1563 C1564 1.400 . S
C1563 C1568 1.490 . S
C1564 H1554 0.930 . S
C1564 C1563 1.400 . S
C1564 C1567 1.386 . S
H1565 C1581 0.930 . S
H1566 C1582 0.931 . S
C1567 H1555 0.929 . S
C1567 C1561 1.390 . S
C1567 C1564 1.386 . S
C1568 C1563 1.490 . S
C1568 C1570 1.395 . S
C1568 C1571 1.403 . S
H1569 C1575 0.930 . S
C1570 H1556 0.930 . S
C1570 C1568 1.395 . S
C1570 C1573 1.403 . S
C1571 C1568 1.403 . S
C1571 C1572 1.524 . S
C1571 C1575 1.400 . S
C1572 H1557 0.960 . S
C1572 H1558 0.960 . S
C1572 H1559 0.960 . S
C1572 C1571 1.524 . S
C1573 C1570 1.403 . S
C1573 C1574 1.392 . S
C1573 C1577 1.495 . S
C1574 C1573 1.392 . S
C1574 C1575 1.385 . S
C1574 C1576 1.478 . S
C1575 H1569 0.930 . S
C1575 C1571 1.400 . S
C1575 C1574 1.385 . S
C1576 C1574 1.478 . S
C1576 C1578 1.381 . S
C1576 C1582 1.383 . S
C1577 C1573 1.495 . S
C1577 H1583 0.959 . S
C1577 H1584 0.961 . S
C1577 H1585 0.960 . S
C1578 C1576 1.381 . S
C1578 C1579 1.394 . S
C1578 H1586 0.930 . S
C1579 C1578 1.394 . S
C1579 C1580 1.383 . S
C1579 H1587 0.929 . S
C1580 C1579 1.383 . S
C1580 C1581 1.377 . S
C1581 H1565 0.930 . S
C1581 C1580 1.377 . S
C1581 C1582 1.379 . S
C1582 H1566 0.931 . S
C1582 C1576 1.383 . S
C1582 C1581 1.379 . S
H1583 C1577 0.959 . S
H1584 C1577 0.961 . S
H1585 C1577 0.960 . S
H1586 C1578 0.930 . S
H1587 C1579 0.929 . S
H1588 C1596 0.929 . S
H1589 C1598 0.930 . S
H1590 C1600 0.930 . S
H1591 C1603 0.929 . S
H1592 C1606 0.930 . S
H1593 C1608 0.960 . S
H1594 C1608 0.960 . S
H1595 C1608 0.960 . S
C1596 H1588 0.929 . S
C1596 C1597 1.377 . S
C1596 C1598 1.384 . S
C1597 C1596 1.377 . S
C1597 C1603 1.390 . S
C1598 H1589 0.930 . S
C1598 C1596 1.384 . S
C1598 C1599 1.372 . S
C1599 C1598 1.372 . S
C1599 C1600 1.400 . S
C1599 C1604 1.490 . S
C1600 H1590 0.930 . S
C1600 C1599 1.400 . S
C1600 C1603 1.386 . S
H1601 C1617 0.930 . S
H1602 C1618 0.931 . S
C1603 H1591 0.929 . S
C1603 C1597 1.390 . S
C1603 C1600 1.386 . S
C1604 C1599 1.490 . S
C1604 C1606 1.395 . S
C1604 C1607 1.403 . S
H1605 C1611 0.930 . S
C1606 H1592 0.930 . S
C1606 C1604 1.395 . S
C1606 C1609 1.403 . S
C1607 C1604 1.403 . S
C1607 C1608 1.524 . S
C1607 C1611 1.400 . S
C1608 H1593 0.960 . S
C1608 H1594 0.960 . S
C1608 H1595 0.960 . S
C1608 C1607 1.524 . S
C1609 C1606 1.403 . S
C1609 C1610 1.392 . S
C1609 C1613 1.495 . S
C1610 C1609 1.392 . S
C1610 C1611 1.385 . S
C1610 C1612 1.478 . S
C1611 H1605 0.930 . S
C1611 C1607 1.400 . S
C1611 C1610 1.385 . S
C1612 C1610 1.478 . S
C1612 C1614 1.381 . S
C1612 C1618 1.383 . S
C1613 C1609 1.495 . S
C1613 H1619 0.959 . S
C1613 H1620 0.961 . S
C1613 H1621 0.960 . S
C1614 C1612 1.381 . S
C1614 C1615 1.394 . S
C1614 H1622 0.930 . S
C1615 C1614 1.394 . S
C1615 C1616 1.383 . S
C1615 H1623 0.929 . S
C1616 C1615 1.383 . S
C1616 C1617 1.377 . S
C1617 H1601 0.930 . S
C1617 C1616 1.377 . S
C1617 C1618 1.379 . S
C1618 H1602 0.931 . S
C1618 C1612 1.383 . S
C1618 C1617 1.379 . S
H1619 C1613 0.959 . S
H1620 C1613 0.961 . S
H1621 C1613 0.960 . S
H1622 C1614 0.930 . S
H1623 C1615 0.929 . S
H1624 C1632 0.929 . S
H1625 C1634 0.930 . S
H1626 C1636 0.930 . S
H1627 C1639 0.929 . S
H1628 C1642 0.930 . S
H1629 C1644 0.960 . S
H1630 C1644 0.960 . S
H1631 C1644 0.960 . S
C1632 H1624 0.929 . S
C1632 C1633 1.377 . S
C1632 C1634 1.384 . S
C1633 C1632 1.377 . S
C1633 C1639 1.390 . S
C1634 H1625 0.930 . S
C1634 C1632 1.384 . S
C1634 C1635 1.372 . S
C1635 C1634 1.372 . S
C1635 C1636 1.400 . S
C1635 C1640 1.490 . S
C1636 H1626 0.930 . S
C1636 C1635 1.400 . S
C1636 C1639 1.386 . S
H1637 C1653 0.930 . S
H1638 C1654 0.931 . S
C1639 H1627 0.929 . S
C1639 C1633 1.390 . S
C1639 C1636 1.386 . S
C1640 C1635 1.490 . S
C1640 C1642 1.395 . S
C1640 C1643 1.403 . S
H1641 C1647 0.930 . S
C1642 H1628 0.930 . S
C1642 C1640 1.395 . S
C1642 C1645 1.403 . S
C1643 C1640 1.403 . S
C1643 C1644 1.524 . S
C1643 C1647 1.400 . S
C1644 H1629 0.960 . S
C1644 H1630 0.960 . S
C1644 H1631 0.960 . S
C1644 C1643 1.524 . S
C1645 C1642 1.403 . S
C1645 C1646 1.392 . S
C1645 C1649 1.495 . S
C1646 C1645 1.392 . S
C1646 C1647 1.385 . S
C1646 C1648 1.478 . S
C1647 H1641 0.930 . S
C1647 C1643 1.400 . S
C1647 C1646 1.385 . S
C1648 C1646 1.478 . S
C1648 C1650 1.381 . S
C1648 C1654 1.383 . S
C1649 C1645 1.495 . S
C1649 H1655 0.959 . S
C1649 H1656 0.961 . S
C1649 H1657 0.960 . S
C1650 C1648 1.381 . S
C1650 C1651 1.394 . S
C1650 H1658 0.930 . S
C1651 C1650 1.394 . S
C1651 C1652 1.383 . S
C1651 H1659 0.929 . S
C1652 C1651 1.383 . S
C1652 C1653 1.377 . S
C1653 H1637 0.930 . S
C1653 C1652 1.377 . S
C1653 C1654 1.379 . S
C1654 H1638 0.931 . S
C1654 C1648 1.383 . S
C1654 C1653 1.379 . S
H1655 C1649 0.959 . S
H1656 C1649 0.961 . S
H1657 C1649 0.960 . S
H1658 C1650 0.930 . S
H1659 C1651 0.929 . S
H1660 C1668 0.929 . S
H1661 C1670 0.930 . S
H1662 C1672 0.930 . S
H1663 C1675 0.929 . S
H1664 C1678 0.930 . S
H1665 C1680 0.960 . S
H1666 C1680 0.960 . S
H1667 C1680 0.960 . S
C1668 H1660 0.929 . S
C1668 C1669 1.377 . S
C1668 C1670 1.384 . S
C1669 C1668 1.377 . S
C1669 C1675 1.390 . S
C1670 H1661 0.930 . S
C1670 C1668 1.384 . S
C1670 C1671 1.372 . S
C1671 C1670 1.372 . S
C1671 C1672 1.400 . S
C1671 C1676 1.490 . S
C1672 H1662 0.930 . S
C1672 C1671 1.400 . S
C1672 C1675 1.386 . S
H1673 C1689 0.930 . S
H1674 C1690 0.931 . S
C1675 H1663 0.929 . S
C1675 C1669 1.390 . S
C1675 C1672 1.386 . S
C1676 C1671 1.490 . S
C1676 C1678 1.395 . S
C1676 C1679 1.403 . S
H1677 C1683 0.930 . S
C1678 H1664 0.930 . S
C1678 C1676 1.395 . S
C1678 C1681 1.403 . S
C1679 C1676 1.403 . S
C1679 C1680 1.524 . S
C1679 C1683 1.400 . S
C1680 H1665 0.960 . S
C1680 H1666 0.960 . S
C1680 H1667 0.960 . S
C1680 C1679 1.524 . S
C1681 C1678 1.403 . S
C1681 C1682 1.392 . S
C1681 C1685 1.495 . S
C1682 C1681 1.392 . S
C1682 C1683 1.385 . S
C1682 C1684 1.478 . S
C1683 H1677 0.930 . S
C1683 C1679 1.400 . S
C1683 C1682 1.385 . S
C1684 C1682 1.478 . S
C1684 C1686 1.381 . S
C1684 C1690 1.383 . S
C1685 C1681 1.495 . S
C1685 H1691 0.959 . S
C1685 H1692 0.961 . S
C1685 H1693 0.960 . S
C1686 C1684 1.381 . S
C1686 C1687 1.394 . S
C1686 H1694 0.930 . S
C1687 C1686 1.394 . S
C1687 C1688 1.383 . S
C1687 H1695 0.929 . S
C1688 C1687 1.383 . S
C1688 C1689 1.377 . S
C1689 H1673 0.930 . S
C1689 C1688 1.377 . S
C1689 C1690 1.379 . S
C1690 H1674 0.931 . S
C1690 C1684 1.383 . S
C1690 C1689 1.379 . S
H1691 C1685 0.959 . S
H1692 C1685 0.961 . S
H1693 C1685 0.960 . S
H1694 C1686 0.930 . S
H1695 C1687 0.929 . S
H1696 C1704 0.929 . S
H1697 C1706 0.930 . S
H1698 C1708 0.930 . S
H1699 C1711 0.929 . S
H1700 C1714 0.928 1_556 S
H1701 C1716 0.960 . S
H1702 C1716 0.960 . S
H1703 C1716 0.960 . S
C1704 H1696 0.929 . S
C1704 C1705 1.377 . S
C1704 C1706 1.384 . S
C1705 C1704 1.377 . S
C1705 C1711 1.390 . S
C1706 H1697 0.930 . S
C1706 C1704 1.384 . S
C1706 C1707 1.372 . S
C1707 C1706 1.372 . S
C1707 C1708 1.400 . S
C1707 C1712 1.490 . S
C1708 H1698 0.930 . S
C1708 C1707 1.400 . S
C1708 C1711 1.386 . S
H1709 C1725 0.930 . S
H1710 C1726 0.931 . S
C1711 H1699 0.929 . S
C1711 C1705 1.390 . S
C1711 C1708 1.386 . S
C1712 C1707 1.490 . S
C1712 C1714 1.395 1_556 S
C1712 C1715 1.403 . S
H1713 C1719 0.930 . S
C1714 H1700 0.928 1_554 S
C1714 C1712 1.395 1_554 S
C1714 C1717 1.403 . S
C1715 C1712 1.403 . S
C1715 C1716 1.524 . S
C1715 C1719 1.400 1_556 S
C1716 H1701 0.960 . S
C1716 H1702 0.960 . S
C1716 H1703 0.960 . S
C1716 C1715 1.524 . S
C1717 C1714 1.403 . S
C1717 C1718 1.392 . S
C1717 C1721 1.495 . S
C1718 C1717 1.392 . S
C1718 C1719 1.385 . S
C1718 C1720 1.478 . S
C1719 H1713 0.930 . S
C1719 C1715 1.400 1_554 S
C1719 C1718 1.385 . S
C1720 C1718 1.478 . S
C1720 C1722 1.381 . S
C1720 C1726 1.383 . S
C1721 C1717 1.495 . S
C1721 H1727 0.959 . S
C1721 H1728 0.961 . S
C1721 H1729 0.960 . S
C1722 C1720 1.381 . S
C1722 C1723 1.394 . S
C1722 H1730 0.930 . S
C1723 C1722 1.394 . S
C1723 C1724 1.383 . S
C1723 H1731 0.929 . S
C1724 C1723 1.383 . S
C1724 C1725 1.377 . S
C1725 H1709 0.930 . S
C1725 C1724 1.377 . S
C1725 C1726 1.379 . S
C1726 H1710 0.931 . S
C1726 C1720 1.383 . S
C1726 C1725 1.379 . S
H1727 C1721 0.959 . S
H1728 C1721 0.961 . S
H1729 C1721 0.960 . S
H1730 C1722 0.930 . S
H1731 C1723 0.929 . S
H1732 C1740 0.929 . S
H1733 C1742 0.930 . S
H1734 C1744 0.930 . S
H1735 C1747 0.929 . S
H1736 C1750 0.930 1_556 S
H1737 C1752 0.960 . S
H1738 C1752 0.960 . S
H1739 C1752 0.960 . S
C1740 H1732 0.929 . S
C1740 C1741 1.377 . S
C1740 C1742 1.384 . S
C1741 C1740 1.377 . S
C1741 C1747 1.390 . S
C1742 H1733 0.930 . S
C1742 C1740 1.384 . S
C1742 C1743 1.372 . S
C1743 C1742 1.372 . S
C1743 C1744 1.400 . S
C1743 C1748 1.490 . S
C1744 H1734 0.930 . S
C1744 C1743 1.400 . S
C1744 C1747 1.386 . S
H1745 C1761 0.930 . S
H1746 C1762 0.931 . S
C1747 H1735 0.929 . S
C1747 C1741 1.390 . S
C1747 C1744 1.386 . S
C1748 C1743 1.490 . S
C1748 C1750 1.379 1_556 S
C1748 C1751 1.403 . S
H1749 C1755 0.930 . S
C1750 H1736 0.930 1_554 S
C1750 C1748 1.379 1_554 S
C1750 C1753 1.420 . S
C1751 C1748 1.403 . S
C1751 C1752 1.524 . S
C1751 C1755 1.400 1_556 S
C1752 H1737 0.960 . S
C1752 H1738 0.960 . S
C1752 H1739 0.960 . S
C1752 C1751 1.524 . S
C1753 C1750 1.420 . S
C1753 C1754 1.392 . S
C1753 C1757 1.495 . S
C1754 C1753 1.392 . S
C1754 C1755 1.385 . S
C1754 C1756 1.478 . S
C1755 H1749 0.930 . S
C1755 C1751 1.400 1_554 S
C1755 C1754 1.385 . S
C1756 C1754 1.478 . S
C1756 C1758 1.381 . S
C1756 C1762 1.383 . S
C1757 C1753 1.495 . S
C1757 H1763 0.959 . S
C1757 H1764 0.961 . S
C1757 H1765 0.960 . S
C1758 C1756 1.381 . S
C1758 C1759 1.394 . S
C1758 H1766 0.930 . S
C1759 C1758 1.394 . S
C1759 C1760 1.383 . S
C1759 H1767 0.929 . S
C1760 C1759 1.383 . S
C1760 C1761 1.377 . S
C1761 H1745 0.930 . S
C1761 C1760 1.377 . S
C1761 C1762 1.379 . S
C1762 H1746 0.931 . S
C1762 C1756 1.383 . S
C1762 C1761 1.379 . S
H1763 C1757 0.959 . S
H1764 C1757 0.961 . S
H1765 C1757 0.960 . S
H1766 C1758 0.930 . S
H1767 C1759 0.929 . S
H1768 C1776 0.929 . S
H1769 C1778 0.930 . S
H1770 C1780 0.930 . S
H1771 C1783 0.929 . S
H1772 C1786 0.930 . S
H1773 C1788 0.960 . S
H1774 C1788 0.960 . S
H1775 C1788 0.960 . S
C1776 H1768 0.929 . S
C1776 C1777 1.377 . S
C1776 C1778 1.384 . S
C1777 C1776 1.377 . S
C1777 C1783 1.390 . S
C1778 H1769 0.930 . S
C1778 C1776 1.384 . S
C1778 C1779 1.372 . S
C1779 C1778 1.372 . S
C1779 C1780 1.400 . S
C1779 C1784 1.490 . S
C1780 H1770 0.930 . S
C1780 C1779 1.400 . S
C1780 C1783 1.386 . S
H1781 C1797 0.930 . S
H1782 C1798 0.931 . S
C1783 H1771 0.929 . S
C1783 C1777 1.390 . S
C1783 C1780 1.386 . S
C1784 C1779 1.490 . S
C1784 C1786 1.395 . S
C1784 C1787 1.403 . S
H1785 C1791 0.930 . S
C1786 H1772 0.930 . S
C1786 C1784 1.395 . S
C1786 C1789 1.403 1_556 S
C1787 C1784 1.403 . S
C1787 C1788 1.524 . S
C1787 C1791 1.400 1_556 S
C1788 H1773 0.960 . S
C1788 H1774 0.960 . S
C1788 H1775 0.960 . S
C1788 C1787 1.524 . S
C1789 C1786 1.403 1_554 S
C1789 C1790 1.392 . S
C1789 C1793 1.495 . S
C1790 C1789 1.392 . S
C1790 C1791 1.385 . S
C1790 C1792 1.478 . S
C1791 H1785 0.930 . S
C1791 C1787 1.400 1_554 S
C1791 C1790 1.385 . S
C1792 C1790 1.478 . S
C1792 C1794 1.381 . S
C1792 C1798 1.383 . S
C1793 C1789 1.495 . S
C1793 H1799 0.959 . S
C1793 H1800 0.961 . S
C1793 H1801 0.960 . S
C1794 C1792 1.381 . S
C1794 C1795 1.394 . S
C1794 H1802 0.930 . S
C1795 C1794 1.394 . S
C1795 C1796 1.383 . S
C1795 H1803 0.929 . S
C1796 C1795 1.383 . S
C1796 C1797 1.377 . S
C1797 H1781 0.930 . S
C1797 C1796 1.377 . S
C1797 C1798 1.379 . S
C1798 H1782 0.931 . S
C1798 C1792 1.383 . S
C1798 C1797 1.379 . S
H1799 C1793 0.959 . S
H1800 C1793 0.961 . S
H1801 C1793 0.960 . S
H1802 C1794 0.930 . S
H1803 C1795 0.929 . S
H1804 C1812 0.929 . S
H1805 C1814 0.930 . S
H1806 C1816 0.930 . S
H1807 C1819 0.929 . S
H1808 C1822 0.930 . S
H1809 C1824 0.960 . S
H1810 C1824 0.960 . S
H1811 C1824 0.960 . S
C1812 H1804 0.929 . S
C1812 C1813 1.377 . S
C1812 C1814 1.384 . S
C1813 C1812 1.377 . S
C1813 C1819 1.390 . S
C1814 H1805 0.930 . S
C1814 C1812 1.384 . S
C1814 C1815 1.372 . S
C1815 C1814 1.372 . S
C1815 C1816 1.400 . S
C1815 C1820 1.490 . S
C1816 H1806 0.930 . S
C1816 C1815 1.400 . S
C1816 C1819 1.386 . S
H1817 C1833 0.930 . S
H1818 C1834 0.931 . S
C1819 H1807 0.929 . S
C1819 C1813 1.390 . S
C1819 C1816 1.386 . S
C1820 C1815 1.490 . S
C1820 C1822 1.395 1_554 S
C1820 C1823 1.403 . S
H1821 C1827 0.930 . S
C1822 H1808 0.930 . S
C1822 C1820 1.395 1_556 S
C1822 C1825 1.403 . S
C1823 C1820 1.403 . S
C1823 C1824 1.524 . S
C1823 C1827 1.400 1_554 S
C1824 H1809 0.960 . S
C1824 H1810 0.960 . S
C1824 H1811 0.960 . S
C1824 C1823 1.524 . S
C1825 C1822 1.403 . S
C1825 C1826 1.392 . S
C1825 C1829 1.495 . S
C1826 C1825 1.392 . S
C1826 C1827 1.385 . S
C1826 C1828 1.478 . S
C1827 H1821 0.930 . S
C1827 C1823 1.400 1_556 S
C1827 C1826 1.385 . S
C1828 C1826 1.478 . S
C1828 C1830 1.381 . S
C1828 C1834 1.383 . S
C1829 C1825 1.495 . S
C1829 H1835 0.959 . S
C1829 H1836 0.961 . S
C1829 H1837 0.960 . S
C1830 C1828 1.381 . S
C1830 C1831 1.394 . S
C1830 H1838 0.930 . S
C1831 C1830 1.394 . S
C1831 C1832 1.383 . S
C1831 H1839 0.929 . S
C1832 C1831 1.383 . S
C1832 C1833 1.377 . S
C1833 H1817 0.930 . S
C1833 C1832 1.377 . S
C1833 C1834 1.379 . S
C1834 H1818 0.931 . S
C1834 C1828 1.383 . S
C1834 C1833 1.379 . S
H1835 C1829 0.959 . S
H1836 C1829 0.961 . S
H1837 C1829 0.960 . S
H1838 C1830 0.930 . S
H1839 C1831 0.929 . S
H1840 C1848 0.929 . S
H1841 C1850 0.930 . S
H1842 C1852 0.930 . S
H1843 C1855 0.929 . S
H1844 C1858 0.930 . S
H1845 C1860 0.960 . S
H1846 C1860 0.960 . S
H1847 C1860 0.960 . S
C1848 H1840 0.929 . S
C1848 C1849 1.377 . S
C1848 C1850 1.384 . S
C1849 C1848 1.377 . S
C1849 C1855 1.390 . S
C1850 H1841 0.930 . S
C1850 C1848 1.384 . S
C1850 C1851 1.372 . S
C1851 C1850 1.372 . S
C1851 C1852 1.400 . S
C1851 C1856 1.490 . S
C1852 H1842 0.930 . S
C1852 C1851 1.400 . S
C1852 C1855 1.386 . S
H1853 C1869 0.930 . S
H1854 C1870 0.931 1_545 S
C1855 H1843 0.929 . S
C1855 C1849 1.390 . S
C1855 C1852 1.386 . S
C1856 C1851 1.490 . S
C1856 C1858 1.395 . S
C1856 C1859 1.403 . S
H1857 C1863 0.930 . S
C1858 H1844 0.930 . S
C1858 C1856 1.395 . S
C1858 C1861 1.403 . S
C1859 C1856 1.403 . S
C1859 C1860 1.524 . S
C1859 C1863 1.400 . S
C1860 H1845 0.960 . S
C1860 H1846 0.960 . S
C1860 H1847 0.960 . S
C1860 C1859 1.524 . S
C1861 C1858 1.403 . S
C1861 C1862 1.392 . S
C1861 C1865 1.495 1_545 S
C1862 C1861 1.392 . S
C1862 C1863 1.385 . S
C1862 C1864 1.478 . S
C1863 H1857 0.930 . S
C1863 C1859 1.400 . S
C1863 C1862 1.385 . S
C1864 C1862 1.478 . S
C1864 C1866 1.381 1_545 S
C1864 C1870 1.383 1_545 S
C1865 C1861 1.495 1_565 S
C1865 H1871 0.959 . S
C1865 H1872 0.961 . S
C1865 H1873 0.960 . S
C1866 C1864 1.381 1_565 S
C1866 C1867 1.394 . S
C1866 H1874 0.930 . S
C1867 C1866 1.394 . S
C1867 C1868 1.383 . S
C1867 H1875 0.929 . S
C1868 C1867 1.383 . S
C1868 C1869 1.377 . S
C1869 H1853 0.930 . S
C1869 C1868 1.377 . S
C1869 C1870 1.379 . S
C1870 H1854 0.931 1_565 S
C1870 C1864 1.383 1_565 S
C1870 C1869 1.379 . S
H1871 C1865 0.959 . S
H1872 C1865 0.961 . S
H1873 C1865 0.960 . S
H1874 C1866 0.930 . S
H1875 C1867 0.929 . S
H1876 C1884 0.929 . S
H1877 C1886 0.930 . S
H1878 C1888 0.930 . S
H1879 C1891 0.929 . S
H1880 C1894 0.930 . S
H1881 C1896 0.960 . S
H1882 C1896 0.960 . S
H1883 C1896 0.960 . S
C1884 H1876 0.929 . S
C1884 C1885 1.377 1_455 S
C1884 C1886 1.384 . S
C1885 C1884 1.377 1_655 S
C1885 C1891 1.390 . S
C1886 H1877 0.930 . S
C1886 C1884 1.384 . S
C1886 C1887 1.372 . S
C1887 C1886 1.372 . S
C1887 C1888 1.400 1_455 S
C1887 C1892 1.490 . S
C1888 H1878 0.930 . S
C1888 C1887 1.400 1_655 S
C1888 C1891 1.386 . S
H1889 C1905 0.930 . S
H1890 C1906 0.931 . S
C1891 H1879 0.929 . S
C1891 C1885 1.390 . S
C1891 C1888 1.386 . S
C1892 C1887 1.490 . S
C1892 C1894 1.395 . S
C1892 C1895 1.403 . S
H1893 C1899 0.930 . S
C1894 H1880 0.930 . S
C1894 C1892 1.395 . S
C1894 C1897 1.403 . S
C1895 C1892 1.403 . S
C1895 C1896 1.524 1_455 S
C1895 C1899 1.400 . S
C1896 H1881 0.960 . S
C1896 H1882 0.960 . S
C1896 H1883 0.960 . S
C1896 C1895 1.524 1_655 S
C1897 C1894 1.403 . S
C1897 C1898 1.392 . S
C1897 C1901 1.495 . S
C1898 C1897 1.392 . S
C1898 C1899 1.385 . S
C1898 C1900 1.478 . S
C1899 H1893 0.930 . S
C1899 C1895 1.400 . S
C1899 C1898 1.385 . S
C1900 C1898 1.478 . S
C1900 C1902 1.381 . S
C1900 C1906 1.383 . S
C1901 C1897 1.495 . S
C1901 H1907 0.959 . S
C1901 H1908 0.961 . S
C1901 H1909 0.960 . S
C1902 C1900 1.381 . S
C1902 C1903 1.394 . S
C1902 H1910 0.930 . S
C1903 C1902 1.394 . S
C1903 C1904 1.383 . S
C1903 H1911 0.929 . S
C1904 C1903 1.383 . S
C1904 C1905 1.377 . S
C1905 H1889 0.930 . S
C1905 C1904 1.377 . S
C1905 C1906 1.379 . S
C1906 H1890 0.931 . S
C1906 C1900 1.383 . S
C1906 C1905 1.379 . S
H1907 C1901 0.959 . S
H1908 C1901 0.961 . S
H1909 C1901 0.960 . S
H1910 C1902 0.930 . S
H1911 C1903 0.929 . S
H1912 C1920 0.929 . S
H1913 C1922 0.930 . S
H1914 C1924 0.930 . S
H1915 C1927 0.929 . S
H1916 C1930 0.930 . S
H1917 C1932 0.960 . S
H1918 C1932 0.960 . S
H1919 C1932 0.960 . S
C1920 H1912 0.929 . S
C1920 C1921 1.377 1_565 S
C1920 C1922 1.384 . S
C1921 C1920 1.377 1_545 S
C1921 C1927 1.390 . S
C1922 H1913 0.930 . S
C1922 C1920 1.384 . S
C1922 C1923 1.372 . S
C1923 C1922 1.372 . S
C1923 C1924 1.400 1_565 S
C1923 C1928 1.490 . S
C1924 H1914 0.930 . S
C1924 C1923 1.400 1_545 S
C1924 C1927 1.386 . S
H1925 C1941 0.930 . S
H1926 C1942 0.931 . S
C1927 H1915 0.929 . S
C1927 C1921 1.390 . S
C1927 C1924 1.386 . S
C1928 C1923 1.490 . S
C1928 C1930 1.395 . S
C1928 C1931 1.403 . S
H1929 C1935 0.930 . S
C1930 H1916 0.930 . S
C1930 C1928 1.395 . S
C1930 C1933 1.403 . S
C1931 C1928 1.403 . S
C1931 C1932 1.524 . S
C1931 C1935 1.400 . S
C1932 H1917 0.960 . S
C1932 H1918 0.960 . S
C1932 H1919 0.960 . S
C1932 C1931 1.524 . S
C1933 C1930 1.403 . S
C1933 C1934 1.392 . S
C1933 C1937 1.495 . S
C1934 C1933 1.392 . S
C1934 C1935 1.385 . S
C1934 C1936 1.478 . S
C1935 H1929 0.930 . S
C1935 C1931 1.400 . S
C1935 C1934 1.385 . S
C1936 C1934 1.478 . S
C1936 C1938 1.381 . S
C1936 C1942 1.383 . S
C1937 C1933 1.495 . S
C1937 H1943 0.959 . S
C1937 H1944 0.961 . S
C1937 H1945 0.960 . S
C1938 C1936 1.381 . S
C1938 C1939 1.394 . S
C1938 H1946 0.930 . S
C1939 C1938 1.394 . S
C1939 C1940 1.383 . S
C1939 H1947 0.929 . S
C1940 C1939 1.383 . S
C1940 C1941 1.377 . S
C1941 H1925 0.930 . S
C1941 C1940 1.377 . S
C1941 C1942 1.379 . S
C1942 H1926 0.931 . S
C1942 C1936 1.383 . S
C1942 C1941 1.379 . S
H1943 C1937 0.959 . S
H1944 C1937 0.961 . S
H1945 C1937 0.960 . S
H1946 C1938 0.930 . S
H1947 C1939 0.929 . S
H1948 C1956 0.923 1_655 S
H1949 C1958 0.930 . S
H1950 C1960 0.930 . S
H1951 C1963 0.929 . S
H1952 C1966 0.930 . S
H1953 C1968 0.960 . S
H1954 C1968 0.960 . S
H1955 C1968 0.960 . S
C1956 H1948 0.923 1_455 S
C1956 C1957 1.377 . S
C1956 C1958 1.384 1_455 S
C1957 C1956 1.377 . S
C1957 C1963 1.390 . S
C1958 H1949 0.930 . S
C1958 C1956 1.384 1_655 S
C1958 C1959 1.372 . S
C1959 C1958 1.372 . S
C1959 C1960 1.400 1_655 S
C1959 C1964 1.490 . S
C1960 H1950 0.930 . S
C1960 C1959 1.400 1_455 S
C1960 C1963 1.386 . S
H1961 C1977 0.930 . S
H1962 C1978 0.931 . S
C1963 H1951 0.929 . S
C1963 C1957 1.390 . S
C1963 C1960 1.386 . S
C1964 C1959 1.490 . S
C1964 C1966 1.395 . S
C1964 C1967 1.403 . S
H1965 C1971 0.930 . S
C1966 H1952 0.930 . S
C1966 C1964 1.395 . S
C1966 C1969 1.403 . S
C1967 C1964 1.403 . S
C1967 C1968 1.524 1_655 S
C1967 C1971 1.400 . S
C1968 H1953 0.960 . S
C1968 H1954 0.960 . S
C1968 H1955 0.960 . S
C1968 C1967 1.524 1_455 S
C1969 C1966 1.403 . S
C1969 C1970 1.392 . S
C1969 C1973 1.495 . S
C1970 C1969 1.392 . S
C1970 C1971 1.385 . S
C1970 C1972 1.478 . S
C1971 H1965 0.930 . S
C1971 C1967 1.400 . S
C1971 C1970 1.385 . S
C1972 C1970 1.478 . S
C1972 C1974 1.381 . S
C1972 C1978 1.383 . S
C1973 C1969 1.495 . S
C1973 H1979 0.959 . S
C1973 H1980 0.961 . S
C1973 H1981 0.960 . S
C1974 C1972 1.381 . S
C1974 C1975 1.394 . S
C1974 H1982 0.930 . S
C1975 C1974 1.394 . S
C1975 C1976 1.383 . S
C1975 H1983 0.929 . S
C1976 C1975 1.383 . S
C1976 C1977 1.377 . S
C1977 H1961 0.930 . S
C1977 C1976 1.377 . S
C1977 C1978 1.379 . S
C1978 H1962 0.931 . S
C1978 C1972 1.383 . S
C1978 C1977 1.379 . S
H1979 C1973 0.959 . S
H1980 C1973 0.961 . S
H1981 C1973 0.960 . S
H1982 C1974 0.930 . S
H1983 C1975 0.929 . S
C553 C145 2.069 . S
C572 C9 2.039 . S
C589 C43 2.078 . S
C608 C179 2.073 . S
C625 C77 2.071 . S
C644 C213 2.096 . S
C661 C111 2.066 . S
C680 C247 2.054 . S
C697 C281 2.070 . S
C716 C417 2.038 . S
C733 C451 2.071 . S
C752 C315 2.088 . S
C769 C485 2.072 . S
C788 C349 2.097 . S
C805 C383 2.067 . S
C824 C519 2.039 . S
C841 C20 1.044 . S
C860 C496 1.057 . S
C877 C54 1.035 . S
C896 C530 1.045 . S
C913 C88 1.034 . S
C932 C428 1.018 . S
C949 C462 1.043 . S
C968 C122 1.012 . S
C985 C360 1.044 . S
C1004 C156 1.053 . S
C1021 C190 1.043 . S
C1040 C394 1.012 . S
C1057 C224 1.034 . S
C1076 C292 1.016 . S
C1093 C258 1.035 . S
C1112 C326 1.047 . S
C1129 C2 1.016 . S
C1148 C70 1.022 . S
C1165 C36 1.031 . S
C1184 C104 1.019 . S
C1201 C138 1.030 . S
C1220 C206 1.058 . S
C1237 C172 1.018 . S
C1256 C240 1.031 . S
C1273 C342 1.034 . S
C1292 C274 1.011 . S
C1309 C376 1.033 . S
C1328 C308 1.004 . S
C1345 C410 1.017 . S
C1364 C478 1.005 . S
C1381 C444 1.031 . S
C1400 C512 1.023 . S
C1417 C67 0.451 . S
C1436 C5 0.486 . S
C1453 C39 0.440 . S
C1472 C101 0.473 . S
C1489 C135 0.437 . S
C1508 C73 0.424 . S
C1525 C107 0.439 . S
C1544 C33 0.468 . S
C1561 C543 0.453 . S
C1580 C141 0.484 . S
C1597 C175 0.451 . S
C1616 C441 0.412 . S
C1633 C209 0.438 . S
C1652 C475 0.460 . S
C1669 C243 0.435 . S
C1688 C509 0.491 . S
C1705 C277 0.451 . S
C1724 C339 0.480 . S
C1741 C373 0.441 . S
C1760 C311 0.471 . S
C1777 C345 0.448 . S
C1796 C407 0.491 . S
C1813 C379 0.440 . S
C1832 C305 0.471 . S
C1849 C271 0.438 . S
C1868 C413 0.411 . S
C1885 C447 0.450 . S
C1904 C169 0.413 . S
C1921 C481 0.447 . S
C1940 C203 0.490 . S
C1957 C515 0.447 . S
C1976 C237 0.429 . S
