# Generated by pormake.
# Topology unf, (4)-cn, num edge types: 1
# Building blocks:
#     Node 0, Type 0, BuildingBlock: KUFVIS_clean_sbu_0, # of connection points: 4
#     Node 1, Type 0, BuildingBlock: KUFVIS_clean_sbu_0, # of connection points: 4
#     Node 2, Type 0, BuildingBlock: KUFVIS_clean_sbu_0, # of connection points: 4
#     Node 3, Type 0, BuildingBlock: KUFVIS_clean_sbu_0, # of connection points: 4
#     Node 4, Type 0, BuildingBlock: KUFVIS_clean_sbu_0, # of connection points: 4
#     Node 5, Type 0, BuildingBlock: KUFVIS_clean_sbu_0, # of connection points: 4
#     Node 6, Type 0, BuildingBlock: KUFVIS_clean_sbu_0, # of connection points: 4
#     Node 7, Type 0, BuildingBlock: KUFVIS_clean_sbu_0, # of connection points: 4
#     Node 8, Type 0, BuildingBlock: KUFVIS_clean_sbu_0, # of connection points: 4
#     Node 9, Type 0, BuildingBlock: KUFVIS_clean_sbu_0, # of connection points: 4
#     Node 10, Type 0, BuildingBlock: KUFVIS_clean_sbu_0, # of connection points: 4
#     Node 11, Type 0, BuildingBlock: KUFVIS_clean_sbu_0, # of connection points: 4
#     Edge 12, Type (0, 0), BuildingBlock: XIVTED_clean_linker_0, # of connection points: 2
#     Edge 13, Type (0, 0), BuildingBlock: XIVTED_clean_linker_0, # of connection points: 2
#     Edge 14, Type (0, 0), BuildingBlock: XIVTED_clean_linker_0, # of connection points: 2
#     Edge 15, Type (0, 0), BuildingBlock: XIVTED_clean_linker_0, # of connection points: 2
#     Edge 16, Type (0, 0), BuildingBlock: XIVTED_clean_linker_0, # of connection points: 2
#     Edge 17, Type (0, 0), BuildingBlock: XIVTED_clean_linker_0, # of connection points: 2
#     Edge 18, Type (0, 0), BuildingBlock: XIVTED_clean_linker_0, # of connection points: 2
#     Edge 19, Type (0, 0), BuildingBlock: XIVTED_clean_linker_0, # of connection points: 2
#     Edge 20, Type (0, 0), BuildingBlock: XIVTED_clean_linker_0, # of connection points: 2
#     Edge 21, Type (0, 0), BuildingBlock: XIVTED_clean_linker_0, # of connection points: 2
#     Edge 22, Type (0, 0), BuildingBlock: XIVTED_clean_linker_0, # of connection points: 2
#     Edge 23, Type (0, 0), BuildingBlock: XIVTED_clean_linker_0, # of connection points: 2
#     Edge 24, Type (0, 0), BuildingBlock: XIVTED_clean_linker_0, # of connection points: 2
#     Edge 25, Type (0, 0), BuildingBlock: XIVTED_clean_linker_0, # of connection points: 2
#     Edge 26, Type (0, 0), BuildingBlock: XIVTED_clean_linker_0, # of connection points: 2
#     Edge 27, Type (0, 0), BuildingBlock: XIVTED_clean_linker_0, # of connection points: 2
#     Edge 28, Type (0, 0), BuildingBlock: XIVTED_clean_linker_0, # of connection points: 2
#     Edge 29, Type (0, 0), BuildingBlock: XIVTED_clean_linker_0, # of connection points: 2
#     Edge 30, Type (0, 0), BuildingBlock: XIVTED_clean_linker_0, # of connection points: 2
#     Edge 31, Type (0, 0), BuildingBlock: XIVTED_clean_linker_0, # of connection points: 2
#     Edge 32, Type (0, 0), BuildingBlock: XIVTED_clean_linker_0, # of connection points: 2
#     Edge 33, Type (0, 0), BuildingBlock: XIVTED_clean_linker_0, # of connection points: 2
#     Edge 34, Type (0, 0), BuildingBlock: XIVTED_clean_linker_0, # of connection points: 2
#     Edge 35, Type (0, 0), BuildingBlock: XIVTED_clean_linker_0, # of connection points: 2
# Relax obj value: 0.237
# Max RMSD: 0.188
# Mean RMSD: 0.183
data_MOF--net-unf--node1-KUFVIS_clean_sbu_0--edge1-XIVTED_clean_linker_0
_symmetry_space_group_name_H-M    P1
_symmetry_Int_Tables_number       1
_symmetry_cell_setting            triclinic
loop_
_symmetry_equiv_pos_as_xyz
'x, y, z'
_cell_length_a     38.161938
_cell_length_b     38.81603
_cell_length_c     35.554061
_cell_angle_alpha  90.197742
_cell_angle_beta   89.873017
_cell_angle_gamma 119.37657
loop_
_atom_site_label
_atom_site_type_symbol
_atom_site_fract_x
_atom_site_fract_y
_atom_site_fract_z
_atom_type_partial_charge
Mn0 Mn 0.05661 0.37639 0.09873 0.0
Mn1 Mn 0.02444 0.28718 0.13902 0.0
C2 C 0.0049 0.3209 0.07196 0.0
C3 C 0.05239 0.43331 0.08964 0.0
C4 C 0.09659 0.32516 0.08788 0.0
O5 O 0.08391 0.39197 0.14989 0.0
O6 O 0.06158 0.33075 0.17279 0.0
C7 C 0.97566 0.29762 0.19812 0.0
N8 N 0.97838 0.27655 0.16865 0.0
C9 C 0.90793 0.22894 0.17285 0.0
C10 C 0.90442 0.25001 0.20339 0.0
C11 C 0.93842 0.28453 0.21603 0.0
C12 C 0.9458 0.24345 0.1561 0.0
H13 H 0.00168 0.32427 0.20781 0.0
C14 C 0.08294 0.36843 0.17532 0.0
O15 O 0.08469 0.43193 0.08049 0.0
O16 O 0.02488 0.40338 0.10793 0.0
N17 N 0.98852 0.24169 0.1103 0.0
C18 C -0.00269 0.22414 0.08128 0.0
C19 C 0.96659 0.18916 0.0654 0.0
C20 C 0.92741 0.1721 0.08006 0.0
C21 C 0.91944 0.18989 0.11084 0.0
C22 C 0.9513 0.22466 0.12556 0.0
H23 H 0.02742 0.23704 0.07003 0.0
O24 O 0.02496 0.35282 0.05259 0.0
O25 O 0.01421 0.32257 0.10747 0.0
O26 O 0.09581 0.35737 0.08291 0.0
O27 O 0.07104 0.2964 0.1079 0.0
C28 C 0.88109 0.17466 0.12733 0.0
C29 C 0.87531 0.19423 0.15824 0.0
H30 H 0.87574 0.24002 0.21726 0.0
H31 H 0.93592 0.30104 0.23949 0.0
H32 H 0.97308 0.17542 0.04187 0.0
H33 H 0.90374 0.14528 0.06756 0.0
H34 H 0.85581 0.14797 0.11639 0.0
H35 H 0.84565 0.18232 0.17059 0.0
Mn36 Mn 0.62111 0.69455 0.06349 0.0
Mn37 Mn 0.70945 0.7564 0.10545 0.0
C38 C 0.68024 0.70038 0.04062 0.0
C39 C 0.56661 0.63107 0.05626 0.0
C40 C 0.6691 0.78398 0.04937 0.0
O41 O 0.60202 0.70719 0.11288 0.0
O42 O 0.66307 0.7484 0.13673 0.0
C43 C 0.70088 0.70227 0.16762 0.0
N44 N 0.72237 0.72521 0.13808 0.0
C45 C 0.7745 0.70822 0.14721 0.0
C46 C 0.75305 0.6846 0.17789 0.0
C47 C 0.71603 0.68155 0.18807 0.0
C48 C 0.75784 0.72809 0.12786 0.0
H49 H 0.67235 0.69974 0.17544 0.0
C50 C 0.62465 0.73094 0.13836 0.0
O51 O 0.56514 0.66174 0.04353 0.0
O52 O 0.59761 0.63795 0.07633 0.0
N53 N 0.75764 0.76775 0.07902 0.0
C54 C 0.77512 0.79274 0.04949 0.0
C55 C 0.81251 0.79932 0.03593 0.0
C56 C 0.83188 0.78079 0.05334 0.0
C57 C 0.81397 0.75634 0.08454 0.0
C58 C 0.77683 0.75113 0.09696 0.0
H59 H 0.76047 0.80723 0.03615 0.0
O60 O 0.64845 0.68609 0.01981 0.0
O61 O 0.67644 0.70954 0.07507 0.0
O62 O 0.63752 0.75043 0.04411 0.0
O63 O 0.69787 0.78926 0.07132 0.0
C64 C 0.83141 0.73678 0.10371 0.0
C65 C 0.81162 0.71263 0.13494 0.0
H66 H 0.76463 0.66856 0.19373 0.0
H67 H 0.69922 0.66326 0.21161 0.0
H68 H 0.8263 0.81855 0.01206 0.0
H69 H 0.86053 0.78566 0.04259 0.0
H70 H 0.85997 0.74001 0.09458 0.0
H71 H 0.82524 0.69759 0.14934 0.0
Mn72 Mn 0.32535 0.9267 0.10048 0.0
Mn73 Mn 0.34076 0.85069 0.08099 0.0
C74 C 0.3901 0.93692 0.09681 0.0
C75 C 0.31965 0.98018 0.07927 0.0
C76 C 0.3018 0.85779 0.15315 0.0
O77 O 0.27348 0.88647 0.07529 0.0
O78 O 0.29054 0.84114 0.05509 0.0
C79 C 0.35606 0.85875 0.99896 0.0
N80 N 0.36934 0.85932 0.03461 0.0
C81 C 0.43515 0.87552 0.01206 0.0
C82 C 0.42228 0.87543 0.97513 0.0
C83 C 0.38251 0.86686 0.96855 0.0
C84 C 0.40731 0.86681 0.0412 0.0
H85 H 0.32568 0.85266 0.99381 0.0
C86 C 0.26657 0.85559 0.05645 0.0
O87 O 0.30407 0.96361 0.11129 0.0
O88 O 0.33671 0.96463 0.05926 0.0
N89 N 0.38956 0.85946 0.10452 0.0
C90 C 0.39767 0.85985 0.14187 0.0
C91 C 0.43632 0.86837 0.15326 0.0
C92 C 0.46625 0.8766 0.12618 0.0
C93 C 0.45722 0.87611 0.08791 0.0
C94 C 0.41807 0.86703 0.07822 0.0
H95 H 0.37489 0.85393 0.16281 0.0
O96 O 0.38252 0.96006 0.11767 0.0
O97 O 0.35859 0.90676 0.08308 0.0
O98 O 0.30934 0.89323 0.14788 0.0
O99 O 0.31132 0.83884 0.12955 0.0
C100 C 0.4857 0.88483 0.05903 0.0
C101 C 0.47467 0.88454 0.02114 0.0
H102 H 0.44271 0.88208 0.95164 0.0
H103 H 0.37237 0.86679 0.94014 0.0
H104 H 0.44309 0.86882 0.18286 0.0
H105 H 0.49612 0.88346 0.1351 0.0
H106 H 0.51625 0.89207 0.06568 0.0
H107 H 0.49691 0.89158 0.99921 0.0
Mn108 Mn 0.59585 0.91959 0.40217 0.0
Mn109 Mn 0.50175 0.84623 0.41443 0.0
C110 C 0.54447 0.93423 0.41056 0.0
C111 C 0.65663 0.96531 0.42886 0.0
C112 C 0.54959 0.85971 0.34205 0.0
O113 O 0.60219 0.87302 0.41951 0.0
O114 O 0.53867 0.83063 0.43886 0.0
C115 C 0.49061 0.84575 0.4969 0.0
N116 N 0.48033 0.85109 0.4616 0.0
C117 C 0.43236 0.86867 0.48614 0.0
C118 C 0.44252 0.86346 0.52275 0.0
C119 C 0.4717 0.85185 0.52813 0.0
C120 C 0.45186 0.86169 0.45608 0.0
H121 H 0.51343 0.8374 0.5012 0.0
C122 C 0.57649 0.84202 0.43704 0.0
O123 O 0.65482 0.95421 0.39405 0.0
O124 O 0.62356 0.94921 0.44808 0.0
N125 N 0.46539 0.86108 0.39228 0.0
C126 C 0.4603 0.86655 0.35528 0.0
C127 C 0.43266 0.8789 0.34514 0.0
C128 C 0.41068 0.88567 0.37311 0.0
C129 C 0.41642 0.87988 0.411 0.0
C130 C 0.44406 0.86712 0.41939 0.0
H131 H 0.47732 0.86172 0.33366 0.0
O132 O 0.57693 0.959 0.39285 0.0
O133 O 0.54282 0.90113 0.41907 0.0
O134 O 0.57761 0.89426 0.35053 0.0
O135 O 0.52088 0.83853 0.3646 0.0
C136 C 0.3963 0.8869 0.4408 0.0
C137 C 0.40428 0.88132 0.47834 0.0
H138 H 0.42838 0.86864 0.54692 0.0
H139 H 0.47984 0.84796 0.5563 0.0
H140 H 0.42847 0.88341 0.31583 0.0
H141 H 0.38964 0.89554 0.36518 0.0
H142 H 0.37489 0.89693 0.43517 0.0
H143 H 0.38893 0.8872 0.50103 0.0
Mn144 Mn 0.04813 0.6831 0.41271 0.0
Mn145 Mn 0.02639 0.74907 0.37221 0.0
C146 C -0.00312 0.69187 0.43613 0.0
C147 C 0.03765 0.61903 0.41833 0.0
C148 C 0.09383 0.77247 0.42824 0.0
O149 O 0.07959 0.69506 0.36357 0.0
O150 O 0.06268 0.73863 0.34016 0.0
C151 C 0.97844 0.69683 0.3096 0.0
N152 N 0.9815 0.72003 0.33963 0.0
C153 C 0.9135 0.70693 0.33121 0.0
C154 C 0.90968 0.68307 0.30006 0.0
C155 C 0.94228 0.67794 0.28927 0.0
C156 C 0.95022 0.72488 0.35045 0.0
H157 H 0.00338 0.69271 0.3013 0.0
C158 C 0.08183 0.71932 0.3383 0.0
O159 O 0.07013 0.64911 0.4313 0.0
O160 O 0.01343 0.62669 0.39921 0.0
N161 N 0.99173 0.76294 0.39935 0.0
C162 C 0.00097 0.78835 0.42896 0.0
C163 C 0.97179 0.79712 0.44298 0.0
C164 C 0.93375 0.78037 0.42593 0.0
C165 C 0.92548 0.75557 0.39457 0.0
C166 C 0.95586 0.74812 0.3817 0.0
H167 H 0.03026 0.80152 0.44201 0.0
O168 O 0.01283 0.67562 0.45641 0.0
O169 O 0.01001 0.70114 0.40177 0.0
O170 O 0.08934 0.73785 0.43297 0.0
O171 O 0.07184 0.77999 0.40638 0.0
C172 C 0.88831 0.73791 0.37558 0.0
C173 C 0.88227 0.71349 0.34401 0.0
H174 H 0.88185 0.66847 0.28429 0.0
H175 H 0.93952 0.65946 0.26534 0.0
H176 H 0.97857 0.81666 0.46693 0.0
H177 H 0.91121 0.78695 0.43701 0.0
H178 H 0.86415 0.74289 0.38505 0.0
H179 H 0.85352 0.69998 0.32971 0.0
Mn180 Mn 0.31353 0.37768 0.42745 0.0
Mn181 Mn 0.25782 0.28896 0.38524 0.0
C182 C 0.3137 0.32277 0.45082 0.0
C183 C 0.37359 0.43565 0.43649 0.0
C184 C 0.22359 0.32238 0.44189 0.0
O185 O 0.29827 0.39382 0.37837 0.0
O186 O 0.26026 0.33275 0.35461 0.0
C187 C 0.31528 0.30507 0.32282 0.0
N188 N 0.29335 0.28193 0.35209 0.0
C189 C 0.31922 0.23722 0.34199 0.0
C190 C 0.3419 0.26044 0.3116 0.0
C191 C 0.33997 0.29456 0.30203 0.0
C192 C 0.29533 0.24929 0.36178 0.0
H193 H 0.31403 0.33141 0.31546 0.0
C194 C 0.27504 0.37029 0.35319 0.0
O195 O 0.3397 0.43256 0.44769 0.0
O196 O 0.37167 0.40707 0.41601 0.0
N197 N 0.25178 0.24291 0.41053 0.0
C198 C 0.22608 0.2224 0.43905 0.0
C199 C 0.22371 0.18704 0.4516 0.0
C200 C 0.24699 0.17262 0.4341 0.0
C201 C 0.27184 0.1933 0.4037 0.0
C202 C 0.27277 0.22825 0.3923 0.0
H203 H 0.20786 0.23317 0.45238 0.0
O204 O 0.32534 0.35403 0.4713 0.0
O205 O 0.30409 0.32481 0.41602 0.0
O206 O 0.2557 0.35561 0.44604 0.0
O207 O 0.22084 0.29472 0.42024 0.0
C208 C 0.29563 0.18056 0.3842 0.0
C209 C 0.31945 0.20261 0.35347 0.0
H210 H 0.36093 0.2524 0.29546 0.0
H211 H 0.35749 0.31272 0.2787 0.0
H212 H 0.20406 0.17099 0.47476 0.0
H213 H 0.24531 0.1455 0.44405 0.0
H214 H 0.2958 0.15384 0.39257 0.0
H215 H 0.33767 0.19256 0.33872 0.0
Mn216 Mn 0.94807 0.63133 0.91527 0.0
Mn217 Mn 0.97802 0.71713 0.86907 0.0
C218 C 0.0031 0.68852 0.93563 0.0
C219 C 0.95198 0.57482 0.92786 0.0
C220 C 0.90884 0.68315 0.92419 0.0
O221 O 0.91682 0.61203 0.86615 0.0
O222 O 0.93997 0.67137 0.83801 0.0
C223 C 0.02455 0.70403 0.80946 0.0
N224 N 0.02289 0.72649 0.83818 0.0
C225 C 0.0931 0.77391 0.8311 0.0
C226 C 0.09545 0.75149 0.80118 0.0
C227 C 0.06103 0.71636 0.79038 0.0
C228 C 0.05588 0.76023 0.84894 0.0
H229 H -0.00172 0.67682 0.80131 0.0
C230 C 0.91794 0.63366 0.83866 0.0
O231 O 0.92082 0.57776 0.93805 0.0
O232 O 0.97824 0.60261 0.90657 0.0
N233 N 0.01503 0.76389 0.89567 0.0
C234 C 0.00772 0.782 0.92515 0.0
C235 C 0.03919 0.81732 0.93971 0.0
C236 C 0.07768 0.83386 0.92355 0.0
C237 C 0.08423 0.81518 0.89265 0.0
C238 C 0.05163 0.78023 0.87916 0.0
H239 H 0.9782 0.76937 0.93772 0.0
O240 O 0.98414 0.65904 0.95826 0.0
O241 O 0.99002 0.68353 0.9012 0.0
O242 O 0.91082 0.65207 0.93164 0.0
O243 O 0.93245 0.7098 0.90122 0.0
C244 C 0.12189 0.82968 0.87493 0.0
C245 C 0.12634 0.80903 0.8442 0.0
H246 H 0.12357 0.76081 0.78649 0.0
H247 H 0.06266 0.69875 0.76748 0.0
H248 H 0.03384 0.83167 0.96344 0.0
H249 H 0.10196 0.86092 0.93508 0.0
H250 H 0.1477 0.85656 0.88484 0.0
H251 H 0.15552 0.82032 0.83097 0.0
Mn252 Mn 0.37159 0.30133 0.93556 0.0
Mn253 Mn 0.27946 0.23236 0.90669 0.0
C254 C 0.31528 0.29961 0.96038 0.0
C255 C 0.42682 0.36477 0.93491 0.0
C256 C 0.32442 0.21606 0.96609 0.0
O257 O 0.38573 0.28147 0.88783 0.0
O258 O 0.32336 0.2308 0.8779 0.0
C259 C 0.28627 0.27073 0.83308 0.0
N260 N 0.26633 0.25624 0.86612 0.0
C261 C 0.21616 0.27393 0.84925 0.0
C262 C 0.23611 0.28891 0.81501 0.0
C263 C 0.27135 0.28735 0.80693 0.0
C264 C 0.23258 0.25791 0.87429 0.0
H265 H 0.31338 0.26966 0.82672 0.0
C266 C 0.36115 0.24957 0.87108 0.0
O267 O 0.42906 0.33548 0.95015 0.0
O268 O 0.39438 0.35603 0.91624 0.0
N269 N 0.23336 0.22918 0.93137 0.0
C270 C 0.21627 0.21106 0.96448 0.0
C271 C 0.18036 0.20937 0.97644 0.0
C272 C 0.1618 0.22533 0.95376 0.0
C273 C 0.17898 0.24225 0.91902 0.0
C274 C 0.21478 0.24301 0.90858 0.0
H275 H 0.23026 0.19847 0.98187 0.0
O276 O 0.34893 0.3163 0.97849 0.0
O277 O 0.31524 0.28494 0.92732 0.0
O278 O 0.35735 0.24862 0.96163 0.0
O279 O 0.29165 0.20753 0.94904 0.0
C280 C 0.16195 0.25827 0.89429 0.0
C281 C 0.18061 0.27423 0.85949 0.0
H282 H 0.22464 0.30167 0.79473 0.0
H283 H 0.28696 0.29891 0.78059 0.0
H284 H 0.16705 0.19585 0.00309 0.0
H285 H 0.13422 0.22417 0.96317 0.0
H286 H 0.13447 0.25837 0.90173 0.0
H287 H 0.16724 0.28646 0.84071 0.0
Mn288 Mn 0.68501 0.07918 0.91158 0.0
Mn289 Mn 0.74476 0.05362 0.86258 0.0
C290 C 0.69063 0.02534 0.9297 0.0
C291 C 0.62376 0.07426 0.92579 0.0
C292 C 0.7763 0.11937 0.92038 0.0
O293 O 0.69503 0.11104 0.86363 0.0
O294 O 0.73359 0.09071 0.83306 0.0
C295 C 0.6858 0.00797 0.80303 0.0
N296 N 0.71121 0.0099 0.83082 0.0
C297 C 0.69345 0.94187 0.82102 0.0
C298 C 0.66745 0.9393 0.792 0.0
C299 C 0.66354 0.97248 0.78304 0.0
C300 C 0.71492 0.97804 0.83989 0.0
H301 H 0.68237 0.03324 0.79632 0.0
C302 C 0.71555 0.11114 0.83524 0.0
O303 O 0.65715 0.10481 0.9363 0.0
O304 O 0.62629 0.04922 0.90319 0.0
N305 N 0.75812 0.01776 0.88711 0.0
C306 C 0.78459 0.02516 0.91576 0.0
C307 C 0.79167 0.99487 0.9284 0.0
C308 C 0.772 0.95753 0.91107 0.0
C309 C 0.74583 0.95097 0.8809 0.0
C310 C 0.74015 0.98236 0.86938 0.0
H311 H 0.79986 0.05381 0.92917 0.0
O312 O 0.67845 0.04275 0.95317 0.0
O313 O 0.69834 0.03918 0.89554 0.0
O314 O 0.74225 0.11608 0.9283 0.0
O315 O 0.78121 0.09791 0.89585 0.0
C316 C 0.72482 0.9144 0.86208 0.0
C317 C 0.69857 0.90982 0.83223 0.0
H318 H 0.65014 0.91194 0.77659 0.0
H319 H 0.64331 0.97065 0.76087 0.0
H320 H 0.81211 0.00025 0.95154 0.0
H321 H 0.77724 0.93414 0.92113 0.0
H322 H 0.72842 0.88953 0.87052 0.0
H323 H 0.68235 0.88147 0.81816 0.0
Mn324 Mn 0.36734 0.05455 0.59186 0.0
Mn325 Mn 0.27635 0.02719 0.63021 0.0
C326 C 0.31025 0.00415 0.5651 0.0
C327 C 0.42404 0.04834 0.58369 0.0
C328 C 0.32032 0.09852 0.58001 0.0
O329 O 0.38267 0.08157 0.64313 0.0
O330 O 0.32019 0.05999 0.66613 0.0
C331 C 0.27918 0.97436 0.68854 0.0
N332 N 0.26045 0.98005 0.65858 0.0
C333 C 0.20775 0.91216 0.65999 0.0
C334 C 0.22627 0.90567 0.69111 0.0
C335 C 0.26218 0.9369 0.70538 0.0
C336 C 0.22605 0.95013 0.64444 0.0
H337 H 0.30695 -0.00182 0.69939 0.0
C338 C 0.35858 0.07988 0.66895 0.0
O339 O 0.42391 0.08058 0.5743 0.0
O340 O 0.39301 0.02193 0.60197 0.0
N341 N 0.23081 0.99533 0.59912 0.0
C342 C 0.21659 0.00657 0.56915 0.0
C343 C 0.18094 0.97873 0.55143 0.0
C344 C 0.15998 0.93982 0.56503 0.0
C345 C 0.17456 0.92925 0.59657 0.0
C346 C 0.21008 0.95836 0.61325 0.0
H347 H 0.23255 0.03646 0.5586 0.0
O348 O 0.34305 0.02285 0.54583 0.0
O349 O 0.31177 0.01459 0.6002 0.0
O350 O 0.3512 0.09461 0.57482 0.0
O351 O 0.29036 0.07521 0.60038 0.0
C352 C 0.15546 0.8909 0.61193 0.0
C353 C 0.17209 0.88233 0.64356 0.0
H354 H 0.21331 0.8768 0.70412 0.0
H355 H 0.27679 0.93206 0.72924 0.0
H356 H 0.16975 0.98719 0.52724 0.0
H357 H 0.13271 0.91832 0.55105 0.0
H358 H 0.12809 0.86771 0.59949 0.0
H359 H 0.15728 0.85266 0.65496 0.0
Mn360 Mn 0.91408 0.29448 0.56046 0.0
Mn361 Mn 0.93466 0.23735 0.61766 0.0
C362 C 0.9694 0.28727 0.54925 0.0
C363 C 0.92292 0.3565 0.54511 0.0
C364 C 0.87194 0.20427 0.55578 0.0
O365 O 0.87718 0.28586 0.60515 0.0
O366 O 0.89635 0.25105 0.64236 0.0
C367 C 0.97856 0.29757 0.67632 0.0
N368 N 0.9775 0.27102 0.65057 0.0
C369 C 0.04511 0.2866 0.66581 0.0
C370 C 0.04681 0.31386 0.69274 0.0
C371 C 0.01341 0.31942 0.69794 0.0
C372 C 0.00953 0.26558 0.6452 0.0
H373 H 0.95306 0.30212 0.68022 0.0
C374 C 0.8755 0.26803 0.63575 0.0
O375 O 0.89283 0.32447 0.5316 0.0
O376 O 0.94531 0.35207 0.56976 0.0
N377 N 0.97143 0.22175 0.59778 0.0
C378 C 0.9651 0.19469 0.57034 0.0
C379 C -0.00415 0.18613 0.56123 0.0
C380 C 0.03253 0.20503 0.58075 0.0
C381 C 0.03798 0.23201 0.60951 0.0
C382 C 0.00616 0.23917 0.61752 0.0
H383 H 0.93694 0.18004 0.55527 0.0
O384 O 0.95481 0.29953 0.52299 0.0
O385 O 0.95215 0.28091 0.58204 0.0
O386 O 0.87713 0.23735 0.54342 0.0
O387 O 0.89117 0.20096 0.58372 0.0
C388 C 0.07392 0.2525 0.63021 0.0
C389 C 0.07751 0.27983 0.65828 0.0
H390 H 0.07368 0.33088 0.70937 0.0
H391 H 0.01456 0.34057 0.71851 0.0
H392 H 0.99133 0.16511 0.53914 0.0
H393 H 0.0563 0.19861 0.57342 0.0
H394 H 0.09911 0.24771 0.62454 0.0
H395 H 0.10542 0.29566 0.67377 0.0
Mn396 Mn 0.68028 0.63209 0.59623 0.0
Mn397 Mn 0.74005 0.72317 0.63104 0.0
C398 C 0.67552 0.68493 0.57404 0.0
C399 C 0.62054 0.57304 0.59175 0.0
C400 C 0.76701 0.68825 0.57031 0.0
O401 O 0.70107 0.61896 0.64365 0.0
O402 O 0.74631 0.6818 0.65824 0.0
C403 C 0.69587 0.70782 0.70314 0.0
N404 N 0.7101 0.72946 0.67109 0.0
C405 C 0.68166 0.77063 0.68824 0.0
C406 C 0.66684 0.74886 0.72149 0.0
C407 C 0.67396 0.7173 0.72894 0.0
C408 C 0.70326 0.75978 0.66358 0.0
H409 H 0.70114 0.68346 0.70895 0.0
C410 C 0.73109 0.6444 0.66248 0.0
O411 O 0.65375 0.5766 0.57801 0.0
O412 O 0.62342 0.60193 0.61243 0.0
N413 N 0.73787 0.76643 0.60774 0.0
C414 C 0.75582 0.78558 0.57528 0.0
C415 C 0.75177 0.81803 0.56378 0.0
C416 C 0.73014 0.83101 0.58621 0.0
C417 C 0.71329 0.81178 0.62025 0.0
C418 C 0.71836 0.77963 0.63025 0.0
H419 H 0.77257 0.77575 0.55802 0.0
O420 O 0.66333 0.65326 0.554 0.0
O421 O 0.68937 0.68478 0.60752 0.0
O422 O 0.73594 0.65397 0.5722 0.0
O423 O 0.77137 0.71811 0.58939 0.0
C424 C 0.69163 0.82321 0.64462 0.0
C425 C 0.67576 0.8026 0.67856 0.0
H426 H 0.64991 0.75607 0.74146 0.0
H427 H 0.66254 0.7003 0.7545 0.0
H428 H 0.76522 0.83296 0.53767 0.0
H429 H 0.72691 0.85592 0.57717 0.0
H430 H 0.68702 0.84782 0.63755 0.0
H431 H 0.65913 0.81164 0.69707 0.0
H432 H 0.12158 0.27168 0.10329 0.0
H433 H 0.27181 0.33069 0.92945 0.0
H434 H 0.14327 0.36763 0.02845 0.0
H435 H 0.2839 0.27481 0.02931 0.0
H436 H 0.21737 0.33698 0.96014 0.0
H437 H 0.17392 0.26425 0.07074 0.0
C438 C 0.13734 0.29118 0.08004 0.0
C439 C 0.12829 0.32052 0.06873 0.0
C440 C 0.23186 0.32319 0.9752 0.0
C441 C 0.18782 0.31196 0.03138 0.0
C442 C 0.26244 0.31928 0.95763 0.0
C443 C 0.28093 0.30101 0.97666 0.0
C444 C 0.22009 0.30867 0.01187 0.0
C445 C 0.26935 0.28815 0.01361 0.0
C446 C 0.16723 0.28699 0.06159 0.0
C447 C 0.1496 0.3449 0.03835 0.0
N448 N 0.23921 0.29177 0.02995 0.0
N449 N 0.17835 0.33999 0.02059 0.0
H450 H 0.72814 0.86054 0.05828 0.0
H451 H 0.64983 0.95117 0.89948 0.0
H452 H 0.62074 0.78776 0.9937 0.0
H453 H 0.72921 0.01853 0.98986 0.0
H454 H 0.64517 0.89055 0.92621 0.0
H455 H 0.7356 0.91843 0.02555 0.0
C456 C 0.706 0.8566 0.03721 0.0
C457 C 0.67346 0.81907 0.02905 0.0
C458 C 0.66388 0.91868 0.9399 0.0
C459 C 0.68208 0.88578 0.99129 0.0
C460 C 0.66688 0.95312 0.92449 0.0
C461 C 0.69106 0.98966 0.94198 0.0
C462 C 0.68508 0.92122 0.973 0.0
C463 C 0.71113 0.99085 0.97519 0.0
C464 C 0.71034 0.88982 0.01853 0.0
C465 C 0.64605 0.81612 0.00117 0.0
N466 N 0.70797 0.95715 0.98948 0.0
N467 N 0.65095 0.84913 0.98326 0.0
H468 H 0.24892 0.80403 0.99766 0.0
H469 H 0.01747 0.73483 0.99695 0.0
H470 H 0.19867 0.86191 0.0652 0.0
H471 H 0.07592 0.71323 0.90328 0.0
H472 H 0.08345 0.78168 0.02285 0.0
H473 H 0.18568 0.76979 0.96309 0.0
C474 C 0.22463 0.80959 0.0052 0.0
C475 C 0.22894 0.83557 0.03462 0.0
C476 C 0.08189 0.76737 0.99622 0.0
C477 C 0.15659 0.79646 0.99523 0.0
C478 C 0.04438 0.74077 0.98154 0.0
C479 C 0.0417 0.72128 0.94763 0.0
C480 C 0.11678 0.77308 0.97754 0.0
C481 C 0.07708 0.72873 0.92903 0.0
C482 C 0.18867 0.79028 0.98524 0.0
C483 C 0.1966 0.84201 0.04284 0.0
N484 N 0.11335 0.75387 0.94444 0.0
N485 N 0.16157 0.82218 0.02352 0.0
H486 H 0.63256 0.71525 0.60794 0.0
H487 H 0.5375 0.78762 0.49245 0.0
H488 H 0.69799 0.72136 0.50696 0.0
H489 H 0.65032 0.84646 0.43227 0.0
H490 H 0.56454 0.7545 0.53118 0.0
H491 H 0.60924 0.75735 0.578 0.0
C492 C 0.64262 0.72626 0.57976 0.0
C493 C 0.66771 0.71578 0.55993 0.0
C494 C 0.58359 0.77518 0.50994 0.0
C495 C 0.63986 0.76171 0.52506 0.0
C496 C 0.56798 0.79364 0.48736 0.0
C497 C 0.5917 0.81994 0.45904 0.0
C498 C 0.62308 0.78276 0.50393 0.0
C499 C 0.63099 0.82651 0.45382 0.0
C500 C 0.62882 0.74958 0.56249 0.0
C501 C 0.67903 0.72947 0.52312 0.0
N502 N 0.64533 0.80771 0.47585 0.0
N503 N 0.66512 0.75194 0.50683 0.0
H504 H 0.13782 0.76993 0.48834 0.0
H505 H 0.27451 0.00451 0.50006 0.0
H506 H 0.12201 0.85133 0.41724 0.0
H507 H 0.27096 0.9275 0.58868 0.0
H508 H 0.22115 0.94757 0.4672 0.0
H509 H 0.18934 0.82628 0.5237 0.0
C510 C 0.14525 0.79957 0.48004 0.0
C511 C 0.12564 0.80587 0.44964 0.0
C512 C 0.2316 0.94304 0.49404 0.0
C513 C 0.1844 0.87024 0.48991 0.0
C514 C 0.2619 0.97549 0.51274 0.0
C515 C 0.27568 0.97055 0.54761 0.0
C516 C 0.21592 0.90521 0.50984 0.0
C517 C 0.25978 0.9324 0.56243 0.0
C518 C 0.17447 0.83166 0.50037 0.0
C519 C 0.13627 0.84494 0.44041 0.0
N520 N 0.23056 0.90099 0.54343 0.0
N521 N 0.165 0.87557 0.46035 0.0
H522 H 0.04009 0.32739 0.58695 0.0
H523 H 0.21717 0.37107 0.49414 0.0
H524 H 0.98366 0.24898 0.49315 0.0
H525 H 0.14823 0.25756 0.43962 0.0
H526 H 0.15703 0.36022 0.52759 0.0
H527 H 0.10481 0.33371 0.56819 0.0
C528 C 0.04146 0.31103 0.56276 0.0
C529 C 0.00682 0.28689 0.54196 0.0
C530 C 0.15516 0.33721 0.50908 0.0
C531 C 0.08046 0.29584 0.51885 0.0
C532 C 0.18948 0.34364 0.48948 0.0
C533 C 0.18773 0.31537 0.46368 0.0
C534 C 0.11879 0.30221 0.50282 0.0
C535 C 0.15101 0.28036 0.45898 0.0
C536 C 0.07839 0.31518 0.55161 0.0
C537 C 0.00989 0.26735 0.5101 0.0
N538 N 0.1179 0.27499 0.47806 0.0
N539 N 0.04614 0.27216 0.49952 0.0
H540 H 0.71951 0.73612 0.97684 0.0
H541 H 0.8651 0.64361 0.98587 0.0
H542 H 0.72 0.66427 0.06867 0.0
H543 H 0.88096 0.73422 0.90652 0.0
H544 H 0.81113 0.64989 0.01584 0.0
H545 H 0.77745 0.73425 0.94924 0.0
C546 C 0.73232 0.72035 0.99129 0.0
C547 C 0.71643 0.70162 0.02562 0.0
C548 C 0.82649 0.6685 0.99197 0.0
C549 C 0.78135 0.69822 0.994 0.0
C550 C 0.85724 0.66486 0.97471 0.0
C551 C 0.87735 0.68819 0.94338 0.0
C552 C 0.81539 0.69536 0.97759 0.0
C553 C 0.86618 0.71555 0.93051 0.0
C554 C 0.76523 0.71926 0.97563 0.0
C555 C 0.73269 0.68029 0.04282 0.0
N556 N 0.83567 0.71817 0.94753 0.0
N557 N 0.76446 0.67922 0.02683 0.0
H558 H 0.26055 0.15515 0.00179 0.0
H559 H 0.37322 0.03423 0.03119 0.0
H560 H 0.38853 0.20652 0.98465 0.0
H561 H 0.2698 0.00979 0.09922 0.0
H562 H 0.3762 0.09511 0.00967 0.0
H563 H 0.26027 0.09972 0.03476 0.0
C564 C 0.28864 0.15499 0.00533 0.0
C565 C 0.3246 0.1853 0.9902 0.0
C566 C 0.353 0.0766 0.02949 0.0
C567 C 0.32425 0.12191 0.02726 0.0
C568 C 0.35102 0.04168 0.04152 0.0
C569 C 0.32099 0.01689 0.06678 0.0
C570 C 0.32425 0.08648 0.04216 0.0
C571 C 0.29333 0.02818 0.07965 0.0
C572 C 0.28844 0.12347 0.02425 0.0
C573 C 0.36016 0.18378 0.99584 0.0
N574 N 0.29527 0.06206 0.06676 0.0
N575 N 0.35897 0.15223 0.01339 0.0
H576 H 0.92603 0.28324 0.09207 0.0
H577 H 0.85625 0.14121 0.91142 0.0
H578 H 0.00859 0.28485 0.00837 0.0
H579 H 0.77574 0.16274 0.98074 0.0
H580 H 0.91253 0.18768 0.9506 0.0
H581 H 0.86998 0.23194 0.05577 0.0
C582 C 0.93222 0.27204 0.06641 0.0
C583 C 0.97166 0.2869 0.05361 0.0
C584 C 0.88247 0.18218 0.95706 0.0
C585 C 0.90831 0.22977 0.01144 0.0
C586 C 0.85039 0.15574 0.93469 0.0
C587 C 0.81121 0.14823 0.94255 0.0
C588 C 0.87521 0.20089 0.9876 0.0
C589 C 0.80539 0.16774 0.97331 0.0
C590 C 0.90039 0.24321 0.04551 0.0
C591 C 0.97841 0.2731 0.01941 0.0
N592 N 0.837 0.19308 0.99469 0.0
N593 N 0.94701 0.24504 0.99953 0.0
H594 H 0.37007 0.14488 0.52405 0.0
H595 H 0.27306 0.28542 0.51315 0.0
H596 H 0.2678 0.12688 0.59098 0.0
H597 H 0.35451 0.28483 0.42941 0.0
H598 H 0.27449 0.23045 0.54525 0.0
H599 H 0.36807 0.19907 0.4918 0.0
C600 C 0.34724 0.15238 0.53211 0.0
C601 C 0.31914 0.13139 0.56047 0.0
C602 C 0.29174 0.24201 0.51967 0.0
C603 C 0.31685 0.19352 0.52354 0.0
C604 C 0.29086 0.27319 0.50141 0.0
C605 C 0.31236 0.2881 0.46795 0.0
C606 C 0.31527 0.22657 0.50482 0.0
C607 C 0.33631 0.27277 0.45441 0.0
C608 C 0.34606 0.18325 0.51351 0.0
C609 C 0.29006 0.14227 0.56936 0.0
N610 N 0.33704 0.24256 0.47288 0.0
N611 N 0.28978 0.17276 0.55104 0.0
H612 H 0.83469 0.12908 0.58361 0.0
H613 H 0.72037 0.02626 0.39303 0.0
H614 H 0.84323 0.19579 0.48374 0.0
H615 H 0.67622 0.97709 0.50291 0.0
H616 H 0.77645 0.08413 0.42309 0.0
H617 H 0.7865 0.0686 0.55126 0.0
C618 C 0.82653 0.13101 0.55485 0.0
C619 C 0.8427 0.1676 0.53645 0.0
C620 C 0.75465 0.06039 0.44047 0.0
C621 C 0.78811 0.09844 0.49922 0.0
C622 C 0.72296 0.02732 0.4234 0.0
C623 C 0.69367 0.99712 0.44563 0.0
C624 C 0.75723 0.06267 0.47989 0.0
C625 C 0.69809 -5e-05 0.48483 0.0
C626 C 0.79904 0.0965 0.53646 0.0
C627 C 0.83109 0.16827 0.49913 0.0
N628 N 0.72926 0.03221 0.50075 0.0
N629 N 0.80451 0.13414 0.48166 0.0
H630 H -0.00108 0.73076 0.49964 0.0
H631 H 0.76326 0.64203 0.51069 0.0
H632 H 0.9202 0.66 0.41025 0.0
H633 H 0.84626 0.74491 0.57429 0.0
H634 H 0.81966 0.64633 0.47436 0.0
H635 H 0.94257 0.73379 0.52939 0.0
C636 C 0.9697 0.71632 0.48616 0.0
C637 C 0.96408 0.69635 0.45199 0.0
C638 C 0.82543 0.66818 0.496 0.0
C639 C 0.89959 0.69847 0.48609 0.0
C640 C 0.79333 0.66567 0.51685 0.0
C641 C 0.8002 0.69292 0.54581 0.0
C642 C 0.86465 0.6977 0.50466 0.0
C643 C 0.83966 0.72323 0.55229 0.0
C644 C 0.93769 0.71808 0.50299 0.0
C645 C 0.92567 0.67683 0.43603 0.0
N646 N 0.87053 0.72449 0.53218 0.0
N647 N 0.89465 0.67829 0.4533 0.0
H648 H 0.2516 0.34009 0.28294 0.0
H649 H 0.15649 0.43642 0.17725 0.0
H650 H 0.25981 0.43257 0.35632 0.0
H651 H 0.07778 0.33417 0.24336 0.0
H652 H 0.21195 0.4493 0.22058 0.0
H653 H 0.20778 0.3519 0.2411 0.0
C654 C 0.24524 0.36373 0.28964 0.0
C655 C 0.25919 0.38525 0.32325 0.0
C656 C 0.1821 0.42492 0.22605 0.0
C657 C 0.20904 0.3985 0.27565 0.0
C658 C 0.15041 0.41761 0.20158 0.0
C659 C 0.1125 0.38386 0.20647 0.0
C660 C 0.17548 0.3984 0.25538 0.0
C661 C 0.10657 0.36022 0.23825 0.0
C662 C 0.22025 0.37032 0.26583 0.0
C663 C 0.24985 0.4155 0.33057 0.0
N664 N 0.13795 0.36743 0.261 0.0
N665 N 0.22444 0.4207 0.30731 0.0
H666 H 0.54506 0.71179 0.15102 0.0
H667 H 0.61211 0.89097 0.29215 0.0
H668 H 0.6648 0.77944 0.19704 0.0
H669 H 0.49742 0.78644 0.3115 0.0
H670 H 0.62546 0.85636 0.24184 0.0
H671 H 0.52122 0.74257 0.19818 0.0
C672 C 0.56618 0.73255 0.17114 0.0
C673 C 0.60715 0.74325 0.16962 0.0
C674 C 0.59716 0.84118 0.25686 0.0
C675 C 0.58036 0.77914 0.22229 0.0
C676 C 0.58931 0.86099 0.28548 0.0
C677 C 0.5538 0.84148 0.30669 0.0
C678 C 0.56924 0.80164 0.24882 0.0
C679 C 0.52541 0.80254 0.29621 0.0
C680 C 0.55258 0.75018 0.19781 0.0
C681 C 0.6331 0.77045 0.19649 0.0
N682 N 0.53385 0.78368 0.26811 0.0
N683 N 0.61941 0.78776 0.22115 0.0
H684 H 0.28224 0.78375 0.18028 0.0
H685 H 0.0862 0.76012 0.27482 0.0
H686 H 0.25945 0.88118 0.19829 0.0
H687 H 0.14579 0.70474 0.33133 0.0
H688 H 0.14283 0.7918 0.23191 0.0
H689 H 0.22788 0.74409 0.2251 0.0
C690 C 0.26641 0.79705 0.19402 0.0
C691 C 0.27531 0.83585 0.18518 0.0
C692 C 0.14328 0.77236 0.25348 0.0
C693 C 0.21285 0.7904 0.23511 0.0
C694 C 0.11088 0.75403 0.27792 0.0
C695 C 0.11151 0.73029 0.30734 0.0
C696 C 0.1765 0.76664 0.25789 0.0
C697 C 0.14417 0.72303 0.30925 0.0
C698 C 0.23545 0.77436 0.21942 0.0
C699 C 0.25378 0.85149 0.20393 0.0
N700 N 0.17575 0.74149 0.28496 0.0
N701 N 0.22315 0.8285 0.22738 0.0
H702 H 0.93307 0.64688 0.76415 0.0
H703 H 0.70492 0.58326 0.7143 0.0
H704 H 0.83681 0.58386 0.84321 0.0
H705 H 0.81115 0.67568 0.66133 0.0
H706 H 0.74848 0.56695 0.75333 0.0
H707 H 0.88376 0.63786 0.71617 0.0
C708 C 0.90138 0.62995 0.77098 0.0
C709 C 0.88892 0.61628 0.80762 0.0
C710 C 0.76197 0.59046 0.7328 0.0
C711 C 0.83229 0.60743 0.75343 0.0
C712 C 0.73724 0.59976 0.71071 0.0
C713 C 0.75466 0.63136 0.68528 0.0
C714 C 0.80401 0.61232 0.72837 0.0
C715 C 0.79657 0.65169 0.68127 0.0
C716 C 0.87321 0.62516 0.74375 0.0
C717 C 0.84749 0.59468 0.81513 0.0
N718 N 0.81968 0.64187 0.70255 0.0
N719 N 0.82051 0.59169 0.78845 0.0
H720 H 0.34922 0.17624 0.88062 0.0
H721 H 0.41775 0.1574 0.67263 0.0
H722 H 0.4057 0.27567 0.80548 0.0
H723 H 0.33362 0.06045 0.74114 0.0
H724 H 0.43047 0.20262 0.72604 0.0
H725 H 0.36127 0.13597 0.83531 0.0
C726 C 0.36486 0.18972 0.85467 0.0
C727 C 0.37619 0.22909 0.84647 0.0
C728 C 0.40999 0.17131 0.72955 0.0
C729 C 0.3893 0.18291 0.79395 0.0
C730 C 0.40305 0.14547 0.6993 0.0
C731 C 0.37455 0.10521 0.7026 0.0
C732 C 0.38861 0.15647 0.76329 0.0
C733 C 0.35573 0.0913 0.73743 0.0
C734 C 0.37163 0.16671 0.82877 0.0
C735 C 0.39655 0.24534 0.81268 0.0
N736 N 0.36289 0.11689 0.76626 0.0
N737 N 0.40191 0.22191 0.7872 0.0
H738 H 0.70434 0.0956 0.76025 0.0
H739 H 0.88516 0.28905 0.70959 0.0
H740 H 0.7471 0.19071 0.84094 0.0
H741 H 0.795 0.22715 0.62497 0.0
H742 H 0.83385 0.25723 0.75843 0.0
H743 H 0.73399 0.14413 0.70964 0.0
C744 C 0.71892 0.12679 0.7671 0.0
C745 C 0.72329 0.13935 0.80462 0.0
C746 C 0.82494 0.25172 0.72916 0.0
C747 C 0.75857 0.19481 0.74729 0.0
C748 C 0.85416 0.26997 0.70136 0.0
C749 C 0.84403 0.26081 0.6634 0.0
C750 C 0.78586 0.22293 0.71882 0.0
C751 C 0.80372 0.23524 0.65402 0.0
C752 C 0.73579 0.15448 0.73828 0.0
C753 C 0.74289 0.18004 0.81222 0.0
N754 N 0.77623 0.21619 0.68162 0.0
N755 N 0.76089 0.20642 0.78385 0.0
H756 H 0.09556 0.48898 0.03628 0.0
H757 H 0.91014 0.52185 0.98364 0.0
H758 H 0.98508 0.44007 0.09992 0.0
H759 H 0.01943 0.56808 0.91841 0.0
H760 H 0.93662 0.49078 0.02608 0.0
H761 H 0.06964 0.52137 0.99485 0.0
C762 C 0.06627 0.48584 0.04214 0.0
C763 C 0.04236 0.46154 0.07148 0.0
C764 C 0.95465 0.5074 0.00226 0.0
C765 C 0.01201 0.49756 0.02349 0.0
C766 C 0.9393 0.52471 0.97771 0.0
C767 C 0.96264 0.54773 0.94747 0.0
C768 C 0.99364 0.51323 0.99659 0.0
C769 C 0.00038 0.55064 0.94137 0.0
C770 C 0.05124 0.5039 0.01813 0.0
C771 C 0.00451 0.45839 0.07755 0.0
N772 N 0.01486 0.53395 0.96593 0.0
N773 N 0.99033 0.47579 0.05351 0.0
H774 H 0.56049 0.56238 0.08213 0.0
H775 H 0.42836 0.43169 0.90867 0.0
H776 H 0.51445 0.6078 0.99626 0.0
H777 H 0.4849 0.39199 0.98955 0.0
H778 H 0.45993 0.49647 0.93931 0.0
H779 H 0.52985 0.49875 0.04985 0.0
C780 C 0.54322 0.55874 0.05684 0.0
C781 C 0.54007 0.59056 0.0419 0.0
C782 C 0.46584 0.47376 0.95008 0.0
C783 C 0.50563 0.51775 0.00413 0.0
C784 C 0.44818 0.43684 0.93234 0.0
C785 C 0.45388 0.40622 0.9466 0.0
C786 C 0.4892 0.4801 0.98249 0.0
C787 C 0.4797 0.41465 0.97748 0.0
C788 C 0.5261 0.52246 0.03816 0.0
C789 C 0.51742 0.58405 0.00894 0.0
N790 N 0.496 0.45061 0.99463 0.0
N791 N 0.50132 0.54845 0.99099 0.0
H792 H 0.46961 0.98283 0.11736 0.0
H793 H 0.54762 0.01918 0.90578 0.0
H794 H 0.3908 0.93865 0.02135 0.0
H795 H 0.61579 0.09942 0.99534 0.0
H796 H 0.4906 0.98582 0.94857 0.0
H797 H 0.5263 0.02155 0.07419 0.0
C798 C 0.46451 0.98057 0.08728 0.0
C799 C 0.42599 0.95614 0.07273 0.0
C800 C 0.5178 0.0112 0.95868 0.0
C801 C 0.48951 0.0007 0.02375 0.0
C802 C 0.55016 0.03047 0.93414 0.0
C803 C 0.58637 0.06211 0.94701 0.0
C804 C 0.52198 0.02326 0.99648 0.0
C805 C 0.58826 0.07529 0.98421 0.0
C806 C 0.49654 0.00286 0.06277 0.0
C807 C 0.4204 0.95533 0.03365 0.0
N808 N 0.5567 0.05533 0.00793 0.0
N809 N 0.45176 0.97699 0.01058 0.0
H810 H 0.54514 0.92913 0.48563 0.0
H811 H 0.43488 0.98565 0.60015 0.0
H812 H 0.50907 0.98026 0.39671 0.0
H813 H 0.47327 0.08368 0.52351 0.0
H814 H 0.46519 0.95717 0.55895 0.0
H815 H 0.5217 0.95929 0.53194 0.0
C816 C 0.5311 0.94586 0.47588 0.0
C817 C 0.52715 0.9507 0.43733 0.0
C818 C 0.46812 0.98554 0.5517 0.0
C819 C 0.50123 0.98636 0.49037 0.0
C820 C 0.4509 0.00186 0.57531 0.0
C821 C 0.45177 0.0372 0.5654 0.0
C822 C 0.48622 0.00463 0.51785 0.0
C823 C 0.47228 0.05658 0.53245 0.0
C824 C 0.51796 0.96328 0.50239 0.0
C825 C 0.51137 0.97489 0.42622 0.0
N826 N 0.48812 0.03967 0.50945 0.0
N827 N 0.49878 0.99186 0.45276 0.0
H828 H 0.9842 0.42723 0.5689 0.0
H829 H 0.97203 0.55067 0.39488 0.0
H830 H 0.89323 0.37539 0.48277 0.0
H831 H 0.07151 0.59484 0.47265 0.0
H832 H 0.94226 0.48641 0.42609 0.0
H833 H 0.01412 0.48988 0.53536 0.0
C834 C 0.97009 0.42917 0.54319 0.0
C835 C 0.93611 0.39593 0.52862 0.0
C836 C 0.97083 0.51001 0.43605 0.0
C837 C 0.97085 0.46769 0.48958 0.0
C838 C 0.98804 0.54665 0.41805 0.0
C839 C 0.02431 0.57826 0.43124 0.0
C840 C 0.98982 0.50504 0.46768 0.0
C841 C 0.04359 0.57134 0.46146 0.0
C842 C 0.98749 0.46493 0.52383 0.0
C843 C 0.91929 0.40028 0.49512 0.0
N844 N 0.02588 0.53562 0.4789 0.0
N845 N 0.93695 0.43548 0.4766 0.0
H846 H 0.38573 0.48677 0.49474 0.0
H847 H 0.60552 0.51809 0.53667 0.0
H848 H 0.4482 0.4455 0.42195 0.0
H849 H 0.54682 0.56554 0.60692 0.0
H850 H 0.54596 0.48749 0.49668 0.0
H851 H 0.44459 0.51675 0.53588 0.0
C852 C 0.41218 0.48489 0.48685 0.0
C853 C 0.41192 0.46337 0.45494 0.0
C854 C 0.54591 0.50423 0.52109 0.0
C855 C 0.47883 0.49645 0.50255 0.0
C856 C 0.57972 0.52122 0.5443 0.0
C857 C 0.58136 0.54473 0.57504 0.0
C858 C 0.5135 0.51079 0.52866 0.0
C859 C 0.547 0.54782 0.58342 0.0
C860 C 0.44557 0.50151 0.51067 0.0
C861 C 0.44696 0.46166 0.44633 0.0
N862 N 0.51467 0.5315 0.56008 0.0
N863 N 0.47879 0.47754 0.47022 0.0
loop_
_geom_bond_atom_site_label_1
_geom_bond_atom_site_label_2
_geom_bond_distance
_geom_bond_site_symmetry_2
_ccdc_geom_bond_type
Mn0 O5 2.095 . S
Mn0 O15 2.162 . S
Mn0 O16 2.297 . S
Mn0 O24 2.385 . S
Mn0 O25 2.209 . S
Mn0 O26 2.094 . S
Mn1 O6 2.121 . S
Mn1 N8 2.257 . S
Mn1 N17 2.282 . S
Mn1 O25 2.215 . S
Mn1 O27 2.117 . S
C2 O24 1.234 . S
C2 O25 1.283 . S
C3 O15 1.281 . S
C3 O16 1.236 . S
C4 O26 1.240 . S
C4 O27 1.264 . S
O5 Mn0 2.095 . S
O5 C14 1.250 . S
O6 Mn1 2.121 . S
O6 C14 1.258 . S
C7 N8 1.326 . S
C7 C11 1.460 1_455 S
C7 H13 0.929 . S
N8 Mn1 2.257 . S
N8 C7 1.326 . S
N8 C12 1.362 1_455 S
C9 C10 1.258 . S
C9 C12 1.431 . S
C9 C29 1.449 . S
C10 C9 1.258 . S
C10 C11 1.477 . S
C10 H30 0.931 . S
C11 C7 1.460 1_655 S
C11 C10 1.477 . S
C11 H31 0.930 . S
C12 N8 1.362 1_655 S
C12 C9 1.431 . S
C12 C22 1.476 1_655 S
H13 C7 0.929 . S
C14 O5 1.250 . S
C14 O6 1.258 . S
O15 Mn0 2.162 . S
O15 C3 1.281 . S
O16 Mn0 2.297 . S
O16 C3 1.236 . S
N17 Mn1 2.282 . S
N17 C18 1.328 . S
N17 C22 1.318 . S
C18 N17 1.328 . S
C18 C19 1.457 1_554 S
C18 H23 0.929 . S
C19 C18 1.457 1_556 S
C19 C20 1.291 1_456 S
C19 H32 0.931 . S
C20 C19 1.291 1_654 S
C20 C21 1.373 . S
C20 H33 0.929 1_554 S
C21 C20 1.373 . S
C21 C22 1.396 1_655 S
C21 C28 1.403 . S
C22 C12 1.476 1_455 S
C22 N17 1.318 . S
C22 C21 1.396 1_455 S
H23 C18 0.929 . S
O24 Mn0 2.385 . S
O24 C2 1.234 . S
O25 Mn0 2.209 . S
O25 Mn1 2.215 . S
O25 C2 1.283 . S
O26 Mn0 2.094 . S
O26 C4 1.240 . S
O27 Mn1 2.117 . S
O27 C4 1.264 . S
C28 C21 1.403 . S
C28 C29 1.399 . S
C28 H34 0.929 . S
C29 C9 1.449 . S
C29 C28 1.399 . S
C29 H35 0.930 . S
H30 C10 0.931 . S
H31 C11 0.930 . S
H32 C19 0.931 . S
H33 C20 0.929 1_556 S
H34 C28 0.929 . S
H35 C29 0.930 . S
Mn36 O41 2.095 . S
Mn36 O51 2.162 . S
Mn36 O52 2.297 . S
Mn36 O60 2.385 . S
Mn36 O61 2.209 . S
Mn36 O62 2.094 . S
Mn37 O42 2.121 . S
Mn37 N44 2.257 . S
Mn37 N53 2.282 . S
Mn37 O61 2.215 . S
Mn37 O63 2.117 . S
C38 O60 1.234 . S
C38 O61 1.283 . S
C39 O51 1.281 . S
C39 O52 1.236 . S
C40 O62 1.240 . S
C40 O63 1.264 . S
O41 Mn36 2.095 . S
O41 C50 1.250 . S
O42 Mn37 2.121 . S
O42 C50 1.258 . S
C43 N44 1.326 . S
C43 C47 1.460 . S
C43 H49 0.929 . S
N44 Mn37 2.257 . S
N44 C43 1.326 . S
N44 C48 1.362 . S
C45 C46 1.258 . S
C45 C48 1.431 . S
C45 C65 1.449 . S
C46 C45 1.258 . S
C46 C47 1.477 . S
C46 H66 0.931 . S
C47 C43 1.460 . S
C47 C46 1.477 . S
C47 H67 0.930 . S
C48 N44 1.362 . S
C48 C45 1.431 . S
C48 C58 1.476 . S
H49 C43 0.929 . S
C50 O41 1.250 . S
C50 O42 1.258 . S
O51 Mn36 2.162 . S
O51 C39 1.281 . S
O52 Mn36 2.297 . S
O52 C39 1.236 . S
N53 Mn37 2.282 . S
N53 C54 1.328 . S
N53 C58 1.318 . S
C54 N53 1.328 . S
C54 C55 1.457 1_554 S
C54 H59 0.928 . S
C55 C54 1.457 1_556 S
C55 C56 1.280 1_556 S
C55 H68 0.931 . S
C56 C55 1.280 1_554 S
C56 C57 1.402 . S
C56 H69 0.912 1_554 S
C57 C56 1.402 . S
C57 C58 1.396 . S
C57 C64 1.403 . S
C58 C48 1.476 . S
C58 N53 1.318 . S
C58 C57 1.396 . S
H59 C54 0.928 . S
O60 Mn36 2.385 . S
O60 C38 1.234 . S
O61 Mn36 2.209 . S
O61 Mn37 2.215 . S
O61 C38 1.283 . S
O62 Mn36 2.094 . S
O62 C40 1.240 . S
O63 Mn37 2.117 . S
O63 C40 1.264 . S
C64 C57 1.403 . S
C64 C65 1.399 . S
C64 H70 0.929 . S
C65 C45 1.449 . S
C65 C64 1.399 . S
C65 H71 0.930 . S
H66 C46 0.931 . S
H67 C47 0.930 . S
H68 C55 0.931 . S
H69 C56 0.912 1_556 S
H70 C64 0.929 . S
H71 C65 0.930 . S
Mn72 O77 2.095 . S
Mn72 O87 2.162 . S
Mn72 O88 2.297 . S
Mn72 O96 2.385 . S
Mn72 O97 2.209 . S
Mn72 O98 2.094 . S
Mn73 O78 2.121 . S
Mn73 N80 2.257 . S
Mn73 N89 2.282 . S
Mn73 O97 2.215 . S
Mn73 O99 2.117 . S
C74 O96 1.234 . S
C74 O97 1.283 . S
C75 O87 1.281 . S
C75 O88 1.236 . S
C76 O98 1.240 . S
C76 O99 1.264 . S
O77 Mn72 2.095 . S
O77 C86 1.250 . S
O78 Mn73 2.121 . S
O78 C86 1.258 . S
C79 N80 1.326 1_556 S
C79 C83 1.460 . S
C79 H85 0.929 . S
N80 Mn73 2.257 . S
N80 C79 1.326 1_554 S
N80 C84 1.362 . S
C81 C82 1.258 1_554 S
C81 C84 1.431 . S
C81 C101 1.449 . S
C82 C81 1.258 1_556 S
C82 C83 1.477 . S
C82 H102 0.931 . S
C83 C79 1.460 . S
C83 C82 1.477 . S
C83 H103 0.930 . S
C84 N80 1.362 . S
C84 C81 1.431 . S
C84 C94 1.476 . S
H85 C79 0.929 . S
C86 O77 1.250 . S
C86 O78 1.258 . S
O87 Mn72 2.162 . S
O87 C75 1.281 . S
O88 Mn72 2.297 . S
O88 C75 1.236 . S
N89 Mn73 2.282 . S
N89 C90 1.328 . S
N89 C94 1.318 . S
C90 N89 1.328 . S
C90 C91 1.457 . S
C90 H95 0.929 . S
C91 C90 1.457 . S
C91 C92 1.291 . S
C91 H104 0.931 . S
C92 C91 1.291 . S
C92 C93 1.373 . S
C92 H105 0.929 . S
C93 C92 1.373 . S
C93 C94 1.396 . S
C93 C100 1.403 . S
C94 C84 1.476 . S
C94 N89 1.318 . S
C94 C93 1.396 . S
H95 C90 0.929 . S
O96 Mn72 2.385 . S
O96 C74 1.234 . S
O97 Mn72 2.209 . S
O97 Mn73 2.215 . S
O97 C74 1.283 . S
O98 Mn72 2.094 . S
O98 C76 1.240 . S
O99 Mn73 2.117 . S
O99 C76 1.264 . S
C100 C93 1.403 . S
C100 C101 1.399 . S
C100 H106 0.929 . S
C101 C81 1.449 . S
C101 C100 1.399 . S
C101 H107 0.930 . S
H102 C82 0.931 . S
H103 C83 0.930 . S
H104 C91 0.931 . S
H105 C92 0.929 . S
H106 C100 0.929 . S
H107 C101 0.930 . S
Mn108 O113 2.095 . S
Mn108 O123 2.162 . S
Mn108 O124 2.297 . S
Mn108 O132 2.385 . S
Mn108 O133 2.209 . S
Mn108 O134 2.094 . S
Mn109 O114 2.121 . S
Mn109 N116 2.257 . S
Mn109 N125 2.282 . S
Mn109 O133 2.215 . S
Mn109 O135 2.117 . S
C110 O132 1.234 . S
C110 O133 1.283 . S
C111 O123 1.281 . S
C111 O124 1.236 . S
C112 O134 1.240 . S
C112 O135 1.264 . S
O113 Mn108 2.095 . S
O113 C122 1.250 . S
O114 Mn109 2.121 . S
O114 C122 1.258 . S
C115 N116 1.326 . S
C115 C119 1.460 . S
C115 H121 0.929 . S
N116 Mn109 2.257 . S
N116 C115 1.326 . S
N116 C120 1.362 . S
C117 C118 1.258 . S
C117 C120 1.431 . S
C117 C137 1.449 . S
C118 C117 1.258 . S
C118 C119 1.477 . S
C118 H138 0.931 . S
C119 C115 1.460 . S
C119 C118 1.477 . S
C119 H139 0.930 . S
C120 N116 1.362 . S
C120 C117 1.431 . S
C120 C130 1.476 . S
H121 C115 0.929 . S
C122 O113 1.250 . S
C122 O114 1.258 . S
O123 Mn108 2.162 . S
O123 C111 1.281 . S
O124 Mn108 2.297 . S
O124 C111 1.236 . S
N125 Mn109 2.282 . S
N125 C126 1.328 . S
N125 C130 1.318 . S
C126 N125 1.328 . S
C126 C127 1.457 . S
C126 H131 0.929 . S
C127 C126 1.457 . S
C127 C128 1.291 . S
C127 H140 0.931 . S
C128 C127 1.291 . S
C128 C129 1.373 . S
C128 H141 0.929 . S
C129 C128 1.373 . S
C129 C130 1.396 . S
C129 C136 1.403 . S
C130 C120 1.476 . S
C130 N125 1.318 . S
C130 C129 1.396 . S
H131 C126 0.929 . S
O132 Mn108 2.385 . S
O132 C110 1.234 . S
O133 Mn108 2.209 . S
O133 Mn109 2.215 . S
O133 C110 1.283 . S
O134 Mn108 2.094 . S
O134 C112 1.240 . S
O135 Mn109 2.117 . S
O135 C112 1.264 . S
C136 C129 1.403 . S
C136 C137 1.399 . S
C136 H142 0.929 . S
C137 C117 1.449 . S
C137 C136 1.399 . S
C137 H143 0.930 . S
H138 C118 0.931 . S
H139 C119 0.930 . S
H140 C127 0.931 . S
H141 C128 0.929 . S
H142 C136 0.929 . S
H143 C137 0.930 . S
Mn144 O149 2.095 . S
Mn144 O159 2.162 . S
Mn144 O160 2.297 . S
Mn144 O168 2.385 . S
Mn144 O169 2.209 . S
Mn144 O170 2.094 . S
Mn145 O150 2.121 . S
Mn145 N152 2.257 . S
Mn145 N161 2.282 . S
Mn145 O169 2.215 . S
Mn145 O171 2.117 . S
C146 O168 1.234 . S
C146 O169 1.283 . S
C147 O159 1.281 . S
C147 O160 1.236 . S
C148 O170 1.240 . S
C148 O171 1.264 . S
O149 Mn144 2.095 . S
O149 C158 1.250 . S
O150 Mn145 2.121 . S
O150 C158 1.258 . S
C151 N152 1.326 . S
C151 C155 1.460 1_455 S
C151 H157 0.929 . S
N152 Mn145 2.257 . S
N152 C151 1.326 . S
N152 C156 1.362 1_455 S
C153 C154 1.258 . S
C153 C156 1.431 . S
C153 C173 1.449 . S
C154 C153 1.258 . S
C154 C155 1.477 . S
C154 H174 0.931 . S
C155 C151 1.460 1_655 S
C155 C154 1.477 . S
C155 H175 0.930 . S
C156 N152 1.362 1_655 S
C156 C153 1.431 . S
C156 C166 1.476 1_655 S
H157 C151 0.929 . S
C158 O149 1.250 . S
C158 O150 1.258 . S
O159 Mn144 2.162 . S
O159 C147 1.281 . S
O160 Mn144 2.297 . S
O160 C147 1.236 . S
N161 Mn145 2.282 . S
N161 C162 1.328 . S
N161 C166 1.318 . S
C162 N161 1.328 . S
C162 C163 1.457 . S
C162 H167 0.929 . S
C163 C162 1.457 . S
C163 C164 1.291 1_455 S
C163 H176 0.931 . S
C164 C163 1.291 1_655 S
C164 C165 1.373 . S
C164 H177 0.929 . S
C165 C164 1.373 . S
C165 C166 1.396 1_655 S
C165 C172 1.403 . S
C166 C156 1.476 1_455 S
C166 N161 1.318 . S
C166 C165 1.396 1_455 S
H167 C162 0.929 . S
O168 Mn144 2.385 . S
O168 C146 1.234 . S
O169 Mn144 2.209 . S
O169 Mn145 2.215 . S
O169 C146 1.283 . S
O170 Mn144 2.094 . S
O170 C148 1.240 . S
O171 Mn145 2.117 . S
O171 C148 1.264 . S
C172 C165 1.403 . S
C172 C173 1.399 . S
C172 H178 0.929 . S
C173 C153 1.449 . S
C173 C172 1.399 . S
C173 H179 0.930 . S
H174 C154 0.931 . S
H175 C155 0.930 . S
H176 C163 0.931 . S
H177 C164 0.929 . S
H178 C172 0.929 . S
H179 C173 0.930 . S
Mn180 O185 2.095 . S
Mn180 O195 2.162 . S
Mn180 O196 2.297 . S
Mn180 O204 2.385 . S
Mn180 O205 2.209 . S
Mn180 O206 2.094 . S
Mn181 O186 2.121 . S
Mn181 N188 2.257 . S
Mn181 N197 2.282 . S
Mn181 O205 2.215 . S
Mn181 O207 2.117 . S
C182 O204 1.234 . S
C182 O205 1.283 . S
C183 O195 1.281 . S
C183 O196 1.236 . S
C184 O206 1.240 . S
C184 O207 1.264 . S
O185 Mn180 2.095 . S
O185 C194 1.250 . S
O186 Mn181 2.121 . S
O186 C194 1.258 . S
C187 N188 1.326 . S
C187 C191 1.460 . S
C187 H193 0.929 . S
N188 Mn181 2.257 . S
N188 C187 1.326 . S
N188 C192 1.362 . S
C189 C190 1.258 . S
C189 C192 1.431 . S
C189 C209 1.449 . S
C190 C189 1.258 . S
C190 C191 1.477 . S
C190 H210 0.931 . S
C191 C187 1.460 . S
C191 C190 1.477 . S
C191 H211 0.930 . S
C192 N188 1.362 . S
C192 C189 1.431 . S
C192 C202 1.476 . S
H193 C187 0.929 . S
C194 O185 1.250 . S
C194 O186 1.258 . S
O195 Mn180 2.162 . S
O195 C183 1.281 . S
O196 Mn180 2.297 . S
O196 C183 1.236 . S
N197 Mn181 2.282 . S
N197 C198 1.328 . S
N197 C202 1.318 . S
C198 N197 1.328 . S
C198 C199 1.457 . S
C198 H203 0.929 . S
C199 C198 1.457 . S
C199 C200 1.291 . S
C199 H212 0.931 . S
C200 C199 1.291 . S
C200 C201 1.373 . S
C200 H213 0.929 . S
C201 C200 1.373 . S
C201 C202 1.396 . S
C201 C208 1.403 . S
C202 C192 1.476 . S
C202 N197 1.318 . S
C202 C201 1.396 . S
H203 C198 0.929 . S
O204 Mn180 2.385 . S
O204 C182 1.234 . S
O205 Mn180 2.209 . S
O205 Mn181 2.215 . S
O205 C182 1.283 . S
O206 Mn180 2.094 . S
O206 C184 1.240 . S
O207 Mn181 2.117 . S
O207 C184 1.264 . S
C208 C201 1.403 . S
C208 C209 1.399 . S
C208 H214 0.929 . S
C209 C189 1.449 . S
C209 C208 1.399 . S
C209 H215 0.930 . S
H210 C190 0.931 . S
H211 C191 0.930 . S
H212 C199 0.931 . S
H213 C200 0.929 . S
H214 C208 0.929 . S
H215 C209 0.930 . S
Mn216 O221 2.095 . S
Mn216 O231 2.162 . S
Mn216 O232 2.297 . S
Mn216 O240 2.385 . S
Mn216 O241 2.209 . S
Mn216 O242 2.094 . S
Mn217 O222 2.121 . S
Mn217 N224 2.257 . S
Mn217 N233 2.282 . S
Mn217 O241 2.215 . S
Mn217 O243 2.117 . S
C218 O240 1.234 . S
C218 O241 1.283 . S
C219 O231 1.281 . S
C219 O232 1.236 . S
C220 O242 1.240 . S
C220 O243 1.264 . S
O221 Mn216 2.095 . S
O221 C230 1.250 . S
O222 Mn217 2.121 . S
O222 C230 1.258 . S
C223 N224 1.326 . S
C223 C227 1.460 1_655 S
C223 H229 0.929 . S
N224 Mn217 2.257 . S
N224 C223 1.326 . S
N224 C228 1.362 1_655 S
C225 C226 1.258 . S
C225 C228 1.431 . S
C225 C245 1.449 . S
C226 C225 1.258 . S
C226 C227 1.477 . S
C226 H246 0.931 . S
C227 C223 1.460 1_455 S
C227 C226 1.477 . S
C227 H247 0.930 . S
C228 N224 1.362 1_455 S
C228 C225 1.431 . S
C228 C238 1.486 . S
H229 C223 0.929 . S
C230 O221 1.250 . S
C230 O222 1.258 . S
O231 Mn216 2.162 . S
O231 C219 1.281 . S
O232 Mn216 2.297 . S
O232 C219 1.236 . S
N233 Mn217 2.282 . S
N233 C234 1.328 . S
N233 C238 1.302 1_655 S
C234 N233 1.328 . S
C234 C235 1.457 1_556 S
C234 H239 0.929 . S
C235 C234 1.457 1_554 S
C235 C236 1.291 1_654 S
C235 H248 0.931 . S
C236 C235 1.291 1_456 S
C236 C237 1.373 . S
C236 H249 0.929 1_556 S
C237 C236 1.373 . S
C237 C238 1.403 . S
C237 C244 1.403 . S
C238 C228 1.486 . S
C238 N233 1.302 1_455 S
C238 C237 1.403 . S
H239 C234 0.929 . S
O240 Mn216 2.385 . S
O240 C218 1.234 . S
O241 Mn216 2.209 . S
O241 Mn217 2.215 . S
O241 C218 1.283 . S
O242 Mn216 2.094 . S
O242 C220 1.240 . S
O243 Mn217 2.117 . S
O243 C220 1.264 . S
C244 C237 1.403 . S
C244 C245 1.399 . S
C244 H250 0.929 . S
C245 C225 1.449 . S
C245 C244 1.399 . S
C245 H251 0.930 . S
H246 C226 0.931 . S
H247 C227 0.930 . S
H248 C235 0.931 . S
H249 C236 0.929 1_554 S
H250 C244 0.929 . S
H251 C245 0.930 . S
Mn252 O257 2.095 . S
Mn252 O267 2.162 . S
Mn252 O268 2.297 . S
Mn252 O276 2.385 . S
Mn252 O277 2.209 . S
Mn252 O278 2.094 . S
Mn253 O258 2.121 . S
Mn253 N260 2.257 . S
Mn253 N269 2.282 . S
Mn253 O277 2.215 . S
Mn253 O279 2.117 . S
C254 O276 1.234 . S
C254 O277 1.283 . S
C255 O267 1.281 . S
C255 O268 1.236 . S
C256 O278 1.240 . S
C256 O279 1.264 . S
O257 Mn252 2.095 . S
O257 C266 1.250 . S
O258 Mn253 2.121 . S
O258 C266 1.258 . S
C259 N260 1.326 . S
C259 C263 1.460 . S
C259 H265 0.929 . S
N260 Mn253 2.257 . S
N260 C259 1.326 . S
N260 C264 1.362 . S
C261 C262 1.258 . S
C261 C264 1.431 . S
C261 C281 1.449 . S
C262 C261 1.258 . S
C262 C263 1.477 . S
C262 H282 0.931 . S
C263 C259 1.460 . S
C263 C262 1.477 . S
C263 H283 0.930 . S
C264 N260 1.362 . S
C264 C261 1.431 . S
C264 C274 1.476 . S
H265 C259 0.929 . S
C266 O257 1.250 . S
C266 O258 1.258 . S
O267 Mn252 2.162 . S
O267 C255 1.281 . S
O268 Mn252 2.297 . S
O268 C255 1.236 . S
N269 Mn253 2.282 . S
N269 C270 1.328 . S
N269 C274 1.318 . S
C270 N269 1.328 . S
C270 C271 1.457 . S
C270 H275 0.929 . S
C271 C270 1.457 . S
C271 C272 1.291 . S
C271 H284 0.931 1_556 S
C272 C271 1.291 . S
C272 C273 1.373 . S
C272 H285 0.929 . S
C273 C272 1.373 . S
C273 C274 1.396 . S
C273 C280 1.403 . S
C274 C264 1.476 . S
C274 N269 1.318 . S
C274 C273 1.396 . S
H275 C270 0.929 . S
O276 Mn252 2.385 . S
O276 C254 1.234 . S
O277 Mn252 2.209 . S
O277 Mn253 2.215 . S
O277 C254 1.283 . S
O278 Mn252 2.094 . S
O278 C256 1.240 . S
O279 Mn253 2.117 . S
O279 C256 1.264 . S
C280 C273 1.403 . S
C280 C281 1.399 . S
C280 H286 0.929 . S
C281 C261 1.449 . S
C281 C280 1.399 . S
C281 H287 0.930 . S
H282 C262 0.931 . S
H283 C263 0.930 . S
H284 C271 0.931 1_554 S
H285 C272 0.929 . S
H286 C280 0.929 . S
H287 C281 0.930 . S
Mn288 O293 2.095 . S
Mn288 O303 2.162 . S
Mn288 O304 2.297 . S
Mn288 O312 2.385 . S
Mn288 O313 2.209 . S
Mn288 O314 2.094 . S
Mn289 O294 2.121 . S
Mn289 N296 2.257 . S
Mn289 N305 2.282 . S
Mn289 O313 2.215 . S
Mn289 O315 2.117 . S
C290 O312 1.234 . S
C290 O313 1.283 . S
C291 O303 1.281 . S
C291 O304 1.236 . S
C292 O314 1.240 . S
C292 O315 1.264 . S
O293 Mn288 2.095 . S
O293 C302 1.250 . S
O294 Mn289 2.121 . S
O294 C302 1.258 . S
C295 N296 1.326 . S
C295 C299 1.460 1_545 S
C295 H301 0.929 . S
N296 Mn289 2.257 . S
N296 C295 1.326 . S
N296 C300 1.362 1_545 S
C297 C298 1.258 . S
C297 C300 1.431 . S
C297 C317 1.449 . S
C298 C297 1.258 . S
C298 C299 1.477 . S
C298 H318 0.931 . S
C299 C295 1.460 1_565 S
C299 C298 1.477 . S
C299 H319 0.930 . S
C300 N296 1.362 1_565 S
C300 C297 1.431 . S
C300 C310 1.476 1_565 S
H301 C295 0.929 . S
C302 O293 1.250 . S
C302 O294 1.258 . S
O303 Mn288 2.162 . S
O303 C291 1.281 . S
O304 Mn288 2.297 . S
O304 C291 1.236 . S
N305 Mn289 2.282 . S
N305 C306 1.328 . S
N305 C310 1.318 . S
C306 N305 1.328 . S
C306 C307 1.457 1_556 S
C306 H311 0.929 . S
C307 C306 1.457 1_554 S
C307 C308 1.291 1_544 S
C307 H320 0.931 . S
C308 C307 1.291 1_566 S
C308 C309 1.373 . S
C308 H321 0.929 1_556 S
C309 C308 1.373 . S
C309 C310 1.396 1_565 S
C309 C316 1.403 . S
C310 C300 1.476 1_545 S
C310 N305 1.318 . S
C310 C309 1.396 1_545 S
H311 C306 0.929 . S
O312 Mn288 2.385 . S
O312 C290 1.234 . S
O313 Mn288 2.209 . S
O313 Mn289 2.215 . S
O313 C290 1.283 . S
O314 Mn288 2.094 . S
O314 C292 1.240 . S
O315 Mn289 2.117 . S
O315 C292 1.264 . S
C316 C309 1.403 . S
C316 C317 1.399 . S
C316 H322 0.929 . S
C317 C297 1.449 . S
C317 C316 1.399 . S
C317 H323 0.930 . S
H318 C298 0.931 . S
H319 C299 0.930 . S
H320 C307 0.931 . S
H321 C308 0.929 1_554 S
H322 C316 0.929 . S
H323 C317 0.930 . S
Mn324 O329 2.095 . S
Mn324 O339 2.162 . S
Mn324 O340 2.297 . S
Mn324 O348 2.385 . S
Mn324 O349 2.209 . S
Mn324 O350 2.094 . S
Mn325 O330 2.121 . S
Mn325 N332 2.257 . S
Mn325 N341 2.282 . S
Mn325 O349 2.215 . S
Mn325 O351 2.117 . S
C326 O348 1.234 . S
C326 O349 1.283 . S
C327 O339 1.281 . S
C327 O340 1.236 . S
C328 O350 1.240 . S
C328 O351 1.264 . S
O329 Mn324 2.095 . S
O329 C338 1.250 . S
O330 Mn325 2.121 . S
O330 C338 1.258 . S
C331 N332 1.326 . S
C331 C335 1.460 1_545 S
C331 H337 0.929 . S
N332 Mn325 2.257 . S
N332 C331 1.326 . S
N332 C336 1.362 1_545 S
C333 C334 1.258 . S
C333 C336 1.431 . S
C333 C353 1.449 . S
C334 C333 1.258 . S
C334 C335 1.477 . S
C334 H354 0.931 . S
C335 C331 1.460 1_565 S
C335 C334 1.477 . S
C335 H355 0.930 . S
C336 N332 1.362 1_565 S
C336 C333 1.431 . S
C336 C346 1.476 1_565 S
H337 C331 0.929 . S
C338 O329 1.250 . S
C338 O330 1.258 . S
O339 Mn324 2.162 . S
O339 C327 1.281 . S
O340 Mn324 2.297 . S
O340 C327 1.236 . S
N341 Mn325 2.282 . S
N341 C342 1.328 . S
N341 C346 1.318 . S
C342 N341 1.328 . S
C342 C343 1.457 . S
C342 H347 0.929 . S
C343 C342 1.457 . S
C343 C344 1.291 1_545 S
C343 H356 0.931 . S
C344 C343 1.291 1_565 S
C344 C345 1.373 . S
C344 H357 0.929 . S
C345 C344 1.373 . S
C345 C346 1.396 1_565 S
C345 C352 1.403 . S
C346 C336 1.476 1_545 S
C346 N341 1.318 . S
C346 C345 1.396 1_545 S
H347 C342 0.929 . S
O348 Mn324 2.385 . S
O348 C326 1.234 . S
O349 Mn324 2.209 . S
O349 Mn325 2.215 . S
O349 C326 1.283 . S
O350 Mn324 2.094 . S
O350 C328 1.240 . S
O351 Mn325 2.117 . S
O351 C328 1.264 . S
C352 C345 1.403 . S
C352 C353 1.399 . S
C352 H358 0.929 . S
C353 C333 1.449 . S
C353 C352 1.399 . S
C353 H359 0.930 . S
H354 C334 0.931 . S
H355 C335 0.930 . S
H356 C343 0.931 . S
H357 C344 0.929 . S
H358 C352 0.929 . S
H359 C353 0.930 . S
Mn360 O365 2.095 . S
Mn360 O375 2.162 . S
Mn360 O376 2.297 . S
Mn360 O384 2.385 . S
Mn360 O385 2.209 . S
Mn360 O386 2.094 . S
Mn361 O366 2.121 . S
Mn361 N368 2.257 . S
Mn361 N377 2.282 . S
Mn361 O385 2.215 . S
Mn361 O387 2.117 . S
C362 O384 1.234 . S
C362 O385 1.283 . S
C363 O375 1.281 . S
C363 O376 1.236 . S
C364 O386 1.240 . S
C364 O387 1.264 . S
O365 Mn360 2.095 . S
O365 C374 1.250 . S
O366 Mn361 2.121 . S
O366 C374 1.258 . S
C367 N368 1.326 . S
C367 C371 1.460 1_655 S
C367 H373 0.929 . S
N368 Mn361 2.257 . S
N368 C367 1.326 . S
N368 C372 1.362 1_655 S
C369 C370 1.258 . S
C369 C372 1.431 . S
C369 C389 1.449 . S
C370 C369 1.258 . S
C370 C371 1.477 . S
C370 H390 0.931 . S
C371 C367 1.460 1_455 S
C371 C370 1.477 . S
C371 H391 0.930 . S
C372 N368 1.362 1_455 S
C372 C369 1.431 . S
C372 C382 1.476 1_455 S
H373 C367 0.929 . S
C374 O365 1.250 . S
C374 O366 1.258 . S
O375 Mn360 2.162 . S
O375 C363 1.281 . S
O376 Mn360 2.297 . S
O376 C363 1.236 . S
N377 Mn361 2.282 . S
N377 C378 1.328 . S
N377 C382 1.318 . S
C378 N377 1.328 . S
C378 C379 1.457 . S
C378 H383 0.929 . S
C379 C378 1.457 . S
C379 C380 1.291 1_655 S
C379 H392 0.931 . S
C380 C379 1.291 1_455 S
C380 C381 1.373 . S
C380 H393 0.929 . S
C381 C380 1.373 . S
C381 C382 1.396 1_455 S
C381 C388 1.403 . S
C382 C372 1.476 1_655 S
C382 N377 1.318 . S
C382 C381 1.396 1_655 S
H383 C378 0.929 . S
O384 Mn360 2.385 . S
O384 C362 1.234 . S
O385 Mn360 2.209 . S
O385 Mn361 2.215 . S
O385 C362 1.283 . S
O386 Mn360 2.094 . S
O386 C364 1.240 . S
O387 Mn361 2.117 . S
O387 C364 1.264 . S
C388 C381 1.403 . S
C388 C389 1.399 . S
C388 H394 0.929 . S
C389 C369 1.449 . S
C389 C388 1.399 . S
C389 H395 0.930 . S
H390 C370 0.931 . S
H391 C371 0.930 . S
H392 C379 0.931 . S
H393 C380 0.929 . S
H394 C388 0.929 . S
H395 C389 0.930 . S
Mn396 O401 2.095 . S
Mn396 O411 2.162 . S
Mn396 O412 2.297 . S
Mn396 O420 2.385 . S
Mn396 O421 2.209 . S
Mn396 O422 2.094 . S
Mn397 O402 2.121 . S
Mn397 N404 2.257 . S
Mn397 N413 2.282 . S
Mn397 O421 2.215 . S
Mn397 O423 2.117 . S
C398 O420 1.234 . S
C398 O421 1.283 . S
C399 O411 1.281 . S
C399 O412 1.236 . S
C400 O422 1.240 . S
C400 O423 1.264 . S
O401 Mn396 2.095 . S
O401 C410 1.250 . S
O402 Mn397 2.121 . S
O402 C410 1.258 . S
C403 N404 1.326 . S
C403 C407 1.460 . S
C403 H409 0.929 . S
N404 Mn397 2.257 . S
N404 C403 1.326 . S
N404 C408 1.362 . S
C405 C406 1.258 . S
C405 C408 1.431 . S
C405 C425 1.449 . S
C406 C405 1.258 . S
C406 C407 1.477 . S
C406 H426 0.931 . S
C407 C403 1.460 . S
C407 C406 1.477 . S
C407 H427 0.930 . S
C408 N404 1.362 . S
C408 C405 1.431 . S
C408 C418 1.476 . S
H409 C403 0.929 . S
C410 O401 1.250 . S
C410 O402 1.258 . S
O411 Mn396 2.162 . S
O411 C399 1.281 . S
O412 Mn396 2.297 . S
O412 C399 1.236 . S
N413 Mn397 2.282 . S
N413 C414 1.328 . S
N413 C418 1.318 . S
C414 N413 1.328 . S
C414 C415 1.457 . S
C414 H419 0.929 . S
C415 C414 1.457 . S
C415 C416 1.291 . S
C415 H428 0.931 . S
C416 C415 1.291 . S
C416 C417 1.373 . S
C416 H429 0.929 . S
C417 C416 1.373 . S
C417 C418 1.396 . S
C417 C424 1.403 . S
C418 C408 1.476 . S
C418 N413 1.318 . S
C418 C417 1.396 . S
H419 C414 0.929 . S
O420 Mn396 2.385 . S
O420 C398 1.234 . S
O421 Mn396 2.209 . S
O421 Mn397 2.215 . S
O421 C398 1.283 . S
O422 Mn396 2.094 . S
O422 C400 1.240 . S
O423 Mn397 2.117 . S
O423 C400 1.264 . S
C424 C417 1.403 . S
C424 C425 1.399 . S
C424 H430 0.929 . S
C425 C405 1.449 . S
C425 C424 1.399 . S
C425 H431 0.930 . S
H426 C406 0.931 . S
H427 C407 0.930 . S
H428 C415 0.931 . S
H429 C416 0.929 . S
H430 C424 0.929 . S
H431 C425 0.930 . S
H432 C438 0.930 . S
H433 C442 0.930 . S
H434 C447 0.929 . S
H435 C445 0.929 . S
H436 C440 0.929 . S
H437 C446 0.929 . S
C438 H432 0.930 . S
C438 C439 1.367 . S
C438 C446 1.378 . S
C439 C438 1.367 . S
C439 C447 1.433 . S
C440 H436 0.929 . S
C440 C442 1.378 . S
C440 C444 1.350 . S
C441 C444 1.463 . S
C441 C446 1.350 1_556 S
C441 N449 1.427 . S
C442 H433 0.930 . S
C442 C440 1.378 . S
C442 C443 1.367 . S
C443 C442 1.367 . S
C443 C445 1.433 . S
C444 C440 1.350 . S
C444 C441 1.463 . S
C444 N448 1.427 . S
C445 H435 0.929 . S
C445 C443 1.433 . S
C445 N448 1.384 . S
C446 H437 0.929 . S
C446 C438 1.378 . S
C446 C441 1.350 1_554 S
C447 H434 0.929 . S
C447 C439 1.433 . S
C447 N449 1.384 1_554 S
N448 C444 1.427 . S
N448 C445 1.384 . S
N449 C441 1.427 . S
N449 C447 1.384 1_556 S
H450 C456 0.930 . S
H451 C460 0.930 . S
H452 C465 0.929 . S
H453 C463 0.929 1_545 S
H454 C458 0.929 . S
H455 C464 0.929 . S
C456 H450 0.930 . S
C456 C457 1.367 . S
C456 C464 1.378 . S
C457 C456 1.367 . S
C457 C465 1.433 1_554 S
C458 H454 0.929 . S
C458 C460 1.378 . S
C458 C462 1.350 . S
C459 C462 1.463 . S
C459 C464 1.350 1_556 S
C459 N467 1.427 . S
C460 H451 0.930 . S
C460 C458 1.378 . S
C460 C461 1.367 . S
C461 C460 1.367 . S
C461 C463 1.433 . S
C462 C458 1.350 . S
C462 C459 1.463 . S
C462 N466 1.427 . S
C463 H453 0.929 1_565 S
C463 C461 1.433 . S
C463 N466 1.384 . S
C464 H455 0.929 . S
C464 C456 1.378 . S
C464 C459 1.350 1_554 S
C465 H452 0.929 . S
C465 C457 1.433 1_556 S
C465 N467 1.384 . S
N466 C462 1.427 . S
N466 C463 1.384 . S
N467 C459 1.427 . S
N467 C465 1.384 . S
H468 C474 0.930 . S
H469 C478 0.930 1_654 S
H470 C483 0.929 . S
H471 C481 0.929 . S
H472 C476 0.929 . S
H473 C482 0.929 . S
C474 H468 0.930 . S
C474 C475 1.367 1_556 S
C474 C482 1.378 . S
C475 C474 1.367 1_554 S
C475 C483 1.433 . S
C476 H472 0.929 . S
C476 C478 1.378 1_554 S
C476 C480 1.350 1_554 S
C477 C480 1.463 . S
C477 C482 1.350 . S
C477 N485 1.427 1_556 S
C478 H469 0.930 1_456 S
C478 C476 1.378 1_556 S
C478 C479 1.367 . S
C479 C478 1.367 . S
C479 C481 1.433 . S
C480 C476 1.350 1_556 S
C480 C477 1.463 . S
C480 N484 1.427 . S
C481 H471 0.929 . S
C481 C479 1.433 . S
C481 N484 1.384 . S
C482 H473 0.929 . S
C482 C474 1.378 . S
C482 C477 1.350 . S
C483 H470 0.929 . S
C483 C475 1.433 . S
C483 N485 1.384 . S
N484 C480 1.427 . S
N484 C481 1.384 . S
N485 C477 1.427 1_554 S
N485 C483 1.384 . S
H486 C492 0.930 . S
H487 C496 0.930 . S
H488 C501 0.929 . S
H489 C499 0.929 . S
H490 C494 0.929 . S
H491 C500 0.929 . S
C492 H486 0.930 . S
C492 C493 1.367 . S
C492 C500 1.378 . S
C493 C492 1.367 . S
C493 C501 1.433 . S
C494 H490 0.929 . S
C494 C496 1.378 . S
C494 C498 1.350 . S
C495 C498 1.463 . S
C495 C500 1.350 . S
C495 N503 1.427 . S
C496 H487 0.930 . S
C496 C494 1.378 . S
C496 C497 1.367 . S
C497 C496 1.367 . S
C497 C499 1.433 . S
C498 C494 1.350 . S
C498 C495 1.463 . S
C498 N502 1.427 . S
C499 H489 0.929 . S
C499 C497 1.433 . S
C499 N502 1.384 . S
C500 H491 0.929 . S
C500 C492 1.378 . S
C500 C495 1.350 . S
C501 H488 0.929 . S
C501 C493 1.433 . S
C501 N503 1.384 . S
N502 C498 1.427 . S
N502 C499 1.384 . S
N503 C495 1.427 . S
N503 C501 1.384 . S
H504 C510 0.930 . S
H505 C514 0.930 1_545 S
H506 C519 0.929 . S
H507 C517 0.929 . S
H508 C512 0.929 . S
H509 C518 0.929 . S
C510 H504 0.930 . S
C510 C511 1.367 . S
C510 C518 1.378 . S
C511 C510 1.367 . S
C511 C519 1.433 . S
C512 H508 0.929 . S
C512 C514 1.378 . S
C512 C516 1.350 . S
C513 C516 1.463 . S
C513 C518 1.350 . S
C513 N521 1.427 . S
C514 H505 0.930 1_565 S
C514 C512 1.378 . S
C514 C515 1.367 . S
C515 C514 1.367 . S
C515 C517 1.433 . S
C516 C512 1.350 . S
C516 C513 1.463 . S
C516 N520 1.427 . S
C517 H507 0.929 . S
C517 C515 1.433 . S
C517 N520 1.384 . S
C518 H509 0.929 . S
C518 C510 1.378 . S
C518 C513 1.350 . S
C519 H506 0.929 . S
C519 C511 1.433 . S
C519 N521 1.384 . S
N520 C516 1.427 . S
N520 C517 1.384 . S
N521 C513 1.427 . S
N521 C519 1.384 . S
H522 C528 0.930 . S
H523 C532 0.930 . S
H524 C537 0.929 . S
H525 C535 0.929 . S
H526 C530 0.929 . S
H527 C536 0.929 . S
C528 H522 0.930 . S
C528 C529 1.367 1_455 S
C528 C536 1.378 . S
C529 C528 1.367 1_655 S
C529 C537 1.433 1_655 S
C530 H526 0.929 . S
C530 C532 1.378 . S
C530 C534 1.350 . S
C531 C534 1.463 . S
C531 C536 1.350 . S
C531 N539 1.427 . S
C532 H523 0.930 . S
C532 C530 1.378 . S
C532 C533 1.367 . S
C533 C532 1.367 . S
C533 C535 1.433 . S
C534 C530 1.350 . S
C534 C531 1.463 . S
C534 N538 1.427 . S
C535 H525 0.929 . S
C535 C533 1.433 . S
C535 N538 1.384 . S
C536 H527 0.929 . S
C536 C528 1.378 . S
C536 C531 1.350 . S
C537 H524 0.929 . S
C537 C529 1.433 1_455 S
C537 N539 1.384 . S
N538 C534 1.427 . S
N538 C535 1.384 . S
N539 C531 1.427 . S
N539 C537 1.384 . S
H540 C546 0.929 . S
H541 C550 0.930 . S
H542 C555 0.929 . S
H543 C553 0.929 . S
H544 C548 0.929 . S
H545 C554 0.929 . S
C546 H540 0.929 . S
C546 C547 1.369 1_556 S
C546 C554 1.377 . S
C547 C546 1.369 1_554 S
C547 C555 1.433 . S
C548 H544 0.929 . S
C548 C550 1.378 . S
C548 C552 1.350 1_554 S
C549 C552 1.463 1_554 S
C549 C554 1.350 1_554 S
C549 N557 1.427 . S
C550 H541 0.930 . S
C550 C548 1.378 . S
C550 C551 1.367 1_554 S
C551 C550 1.367 1_556 S
C551 C553 1.433 . S
C552 C548 1.350 1_556 S
C552 C549 1.463 1_556 S
C552 N556 1.427 . S
C553 H543 0.929 . S
C553 C551 1.433 . S
C553 N556 1.384 . S
C554 H545 0.929 . S
C554 C546 1.377 . S
C554 C549 1.350 1_556 S
C555 H542 0.929 . S
C555 C547 1.433 . S
C555 N557 1.384 . S
N556 C552 1.427 . S
N556 C553 1.384 . S
N557 C549 1.427 . S
N557 C555 1.384 . S
H558 C564 0.930 . S
H559 C568 0.930 1_556 S
H560 C573 0.929 . S
H561 C571 0.929 . S
H562 C566 0.929 . S
H563 C572 0.929 . S
C564 H558 0.930 . S
C564 C565 1.367 1_554 S
C564 C572 1.378 . S
C565 C564 1.367 1_556 S
C565 C573 1.433 . S
C566 H562 0.929 . S
C566 C568 1.378 1_556 S
C566 C570 1.350 1_556 S
C567 C570 1.463 1_556 S
C567 C572 1.350 1_556 S
C567 N575 1.427 . S
C568 H559 0.930 1_554 S
C568 C566 1.378 1_554 S
C568 C569 1.367 . S
C569 C568 1.367 . S
C569 C571 1.433 . S
C570 C566 1.350 1_554 S
C570 C567 1.463 1_554 S
C570 N574 1.427 . S
C571 H561 0.929 . S
C571 C569 1.433 . S
C571 N574 1.384 . S
C572 H563 0.929 . S
C572 C564 1.378 . S
C572 C567 1.350 1_554 S
C573 H560 0.929 . S
C573 C565 1.433 . S
C573 N575 1.384 . S
N574 C570 1.427 . S
N574 C571 1.384 . S
N575 C567 1.427 . S
N575 C573 1.384 . S
H576 C582 0.930 . S
H577 C586 0.930 . S
H578 C591 0.929 1_456 S
H579 C589 0.929 . S
H580 C584 0.929 . S
H581 C590 0.929 . S
C582 H576 0.930 . S
C582 C583 1.367 . S
C582 C590 1.378 . S
C583 C582 1.367 . S
C583 C591 1.433 . S
C584 H580 0.929 . S
C584 C586 1.378 . S
C584 C588 1.350 1_556 S
C585 C588 1.463 . S
C585 C590 1.350 . S
C585 N593 1.427 1_554 S
C586 H577 0.930 . S
C586 C584 1.378 . S
C586 C587 1.367 . S
C587 C586 1.367 . S
C587 C589 1.433 1_556 S
C588 C584 1.350 1_554 S
C588 C585 1.463 . S
C588 N592 1.427 . S
C589 H579 0.929 . S
C589 C587 1.433 1_554 S
C589 N592 1.384 . S
C590 H581 0.929 . S
C590 C582 1.378 . S
C590 C585 1.350 . S
C591 H578 0.929 1_654 S
C591 C583 1.433 . S
C591 N593 1.384 1_554 S
N592 C588 1.427 . S
N592 C589 1.384 . S
N593 C585 1.427 1_556 S
N593 C591 1.384 1_556 S
H594 C600 0.930 . S
H595 C604 0.930 . S
H596 C609 0.929 . S
H597 C607 0.929 . S
H598 C602 0.929 . S
H599 C608 0.929 . S
C600 H594 0.930 . S
C600 C601 1.367 . S
C600 C608 1.378 . S
C601 C600 1.367 . S
C601 C609 1.433 . S
C602 H598 0.929 . S
C602 C604 1.378 . S
C602 C606 1.350 . S
C603 C606 1.463 . S
C603 C608 1.350 . S
C603 N611 1.427 . S
C604 H595 0.930 . S
C604 C602 1.378 . S
C604 C605 1.367 . S
C605 C604 1.367 . S
C605 C607 1.433 . S
C606 C602 1.350 . S
C606 C603 1.463 . S
C606 N610 1.427 . S
C607 H597 0.929 . S
C607 C605 1.433 . S
C607 N610 1.384 . S
C608 H599 0.929 . S
C608 C600 1.378 . S
C608 C603 1.350 . S
C609 H596 0.929 . S
C609 C601 1.433 . S
C609 N611 1.384 . S
N610 C606 1.427 . S
N610 C607 1.384 . S
N611 C603 1.427 . S
N611 C609 1.384 . S
H612 C618 0.930 . S
H613 C622 0.930 . S
H614 C627 0.929 . S
H615 C625 0.929 . S
H616 C620 0.929 . S
H617 C626 0.929 . S
C618 H612 0.930 . S
C618 C619 1.367 . S
C618 C626 1.378 . S
C619 C618 1.367 . S
C619 C627 1.433 . S
C620 H616 0.929 . S
C620 C622 1.378 . S
C620 C624 1.350 . S
C621 C624 1.463 . S
C621 C626 1.350 . S
C621 N629 1.427 . S
C622 H613 0.930 . S
C622 C620 1.378 . S
C622 C623 1.367 . S
C623 C622 1.367 . S
C623 C625 1.433 . S
C624 C620 1.350 . S
C624 C621 1.463 . S
C624 N628 1.427 . S
C625 H615 0.929 . S
C625 C623 1.433 . S
C625 N628 1.384 . S
C626 H617 0.929 . S
C626 C618 1.378 . S
C626 C621 1.350 . S
C627 H614 0.929 . S
C627 C619 1.433 . S
C627 N629 1.384 . S
N628 C624 1.427 . S
N628 C625 1.384 . S
N629 C621 1.427 . S
N629 C627 1.384 . S
H630 C636 0.930 1_455 S
H631 C640 0.930 . S
H632 C645 0.929 . S
H633 C643 0.929 . S
H634 C638 0.929 . S
H635 C644 0.929 . S
C636 H630 0.930 1_655 S
C636 C637 1.367 1_655 S
C636 C644 1.378 . S
C637 C636 1.367 1_455 S
C637 C645 1.433 1_455 S
C638 H634 0.929 . S
C638 C640 1.378 . S
C638 C642 1.350 . S
C639 C642 1.463 . S
C639 C644 1.350 . S
C639 N647 1.427 . S
C640 H631 0.930 . S
C640 C638 1.378 . S
C640 C641 1.367 . S
C641 C640 1.367 . S
C641 C643 1.433 . S
C642 C638 1.350 . S
C642 C639 1.463 . S
C642 N646 1.427 . S
C643 H633 0.929 . S
C643 C641 1.433 . S
C643 N646 1.384 . S
C644 H635 0.929 . S
C644 C636 1.378 . S
C644 C639 1.350 . S
C645 H632 0.929 . S
C645 C637 1.433 1_655 S
C645 N647 1.384 . S
N646 C642 1.427 . S
N646 C643 1.384 . S
N647 C639 1.427 . S
N647 C645 1.384 . S
H648 C654 0.930 . S
H649 C658 0.930 . S
H650 C663 0.929 . S
H651 C661 0.929 . S
H652 C656 0.929 . S
H653 C662 0.929 . S
C654 H648 0.930 . S
C654 C655 1.367 . S
C654 C662 1.378 . S
C655 C654 1.367 . S
C655 C663 1.433 . S
C656 H652 0.929 . S
C656 C658 1.378 . S
C656 C660 1.350 . S
C657 C660 1.463 . S
C657 C662 1.350 . S
C657 N665 1.427 . S
C658 H649 0.930 . S
C658 C656 1.378 . S
C658 C659 1.367 . S
C659 C658 1.367 . S
C659 C661 1.433 . S
C660 C656 1.350 . S
C660 C657 1.463 . S
C660 N664 1.427 . S
C661 H651 0.929 . S
C661 C659 1.433 . S
C661 N664 1.384 . S
C662 H653 0.929 . S
C662 C654 1.378 . S
C662 C657 1.350 . S
C663 H650 0.929 . S
C663 C655 1.433 . S
C663 N665 1.384 . S
N664 C660 1.427 . S
N664 C661 1.384 . S
N665 C657 1.427 . S
N665 C663 1.384 . S
H666 C672 0.930 . S
H667 C676 0.930 . S
H668 C681 0.929 . S
H669 C679 0.929 . S
H670 C674 0.929 . S
H671 C680 0.929 . S
C672 H666 0.930 . S
C672 C673 1.367 . S
C672 C680 1.378 . S
C673 C672 1.367 . S
C673 C681 1.433 . S
C674 H670 0.929 . S
C674 C676 1.378 . S
C674 C678 1.350 . S
C675 C678 1.463 . S
C675 C680 1.350 . S
C675 N683 1.427 . S
C676 H667 0.930 . S
C676 C674 1.378 . S
C676 C677 1.367 . S
C677 C676 1.367 . S
C677 C679 1.433 . S
C678 C674 1.350 . S
C678 C675 1.463 . S
C678 N682 1.427 . S
C679 H669 0.929 . S
C679 C677 1.433 . S
C679 N682 1.384 . S
C680 H671 0.929 . S
C680 C672 1.378 . S
C680 C675 1.350 . S
C681 H668 0.929 . S
C681 C673 1.433 . S
C681 N683 1.384 . S
N682 C678 1.427 . S
N682 C679 1.384 . S
N683 C675 1.427 . S
N683 C681 1.384 . S
H684 C690 0.930 . S
H685 C694 0.930 . S
H686 C699 0.929 . S
H687 C697 0.929 . S
H688 C692 0.929 . S
H689 C698 0.929 . S
C690 H684 0.930 . S
C690 C691 1.367 . S
C690 C698 1.378 . S
C691 C690 1.367 . S
C691 C699 1.433 . S
C692 H688 0.929 . S
C692 C694 1.378 . S
C692 C696 1.350 . S
C693 C696 1.463 . S
C693 C698 1.350 . S
C693 N701 1.427 . S
C694 H685 0.930 . S
C694 C692 1.378 . S
C694 C695 1.367 . S
C695 C694 1.367 . S
C695 C697 1.433 . S
C696 C692 1.350 . S
C696 C693 1.463 . S
C696 N700 1.427 . S
C697 H687 0.929 . S
C697 C695 1.433 . S
C697 N700 1.384 . S
C698 H689 0.929 . S
C698 C690 1.378 . S
C698 C693 1.350 . S
C699 H686 0.929 . S
C699 C691 1.433 . S
C699 N701 1.384 . S
N700 C696 1.427 . S
N700 C697 1.384 . S
N701 C693 1.427 . S
N701 C699 1.384 . S
H702 C708 0.930 . S
H703 C712 0.930 . S
H704 C717 0.929 . S
H705 C715 0.929 . S
H706 C710 0.929 . S
H707 C716 0.929 . S
C708 H702 0.930 . S
C708 C709 1.367 . S
C708 C716 1.378 . S
C709 C708 1.367 . S
C709 C717 1.433 . S
C710 H706 0.929 . S
C710 C712 1.378 . S
C710 C714 1.350 . S
C711 C714 1.463 . S
C711 C716 1.350 . S
C711 N719 1.427 . S
C712 H703 0.930 . S
C712 C710 1.378 . S
C712 C713 1.367 . S
C713 C712 1.367 . S
C713 C715 1.433 . S
C714 C710 1.350 . S
C714 C711 1.463 . S
C714 N718 1.427 . S
C715 H705 0.929 . S
C715 C713 1.433 . S
C715 N718 1.384 . S
C716 H707 0.929 . S
C716 C708 1.378 . S
C716 C711 1.350 . S
C717 H704 0.929 . S
C717 C709 1.433 . S
C717 N719 1.384 . S
N718 C714 1.427 . S
N718 C715 1.384 . S
N719 C711 1.427 . S
N719 C717 1.384 . S
H720 C726 0.930 . S
H721 C730 0.930 . S
H722 C735 0.929 . S
H723 C733 0.929 . S
H724 C728 0.929 . S
H725 C734 0.929 . S
C726 H720 0.930 . S
C726 C727 1.367 . S
C726 C734 1.378 . S
C727 C726 1.367 . S
C727 C735 1.433 . S
C728 H724 0.929 . S
C728 C730 1.378 . S
C728 C732 1.350 . S
C729 C732 1.463 . S
C729 C734 1.350 . S
C729 N737 1.427 . S
C730 H721 0.930 . S
C730 C728 1.378 . S
C730 C731 1.367 . S
C731 C730 1.367 . S
C731 C733 1.433 . S
C732 C728 1.350 . S
C732 C729 1.463 . S
C732 N736 1.427 . S
C733 H723 0.929 . S
C733 C731 1.433 . S
C733 N736 1.384 . S
C734 H725 0.929 . S
C734 C726 1.378 . S
C734 C729 1.350 . S
C735 H722 0.929 . S
C735 C727 1.433 . S
C735 N737 1.384 . S
N736 C732 1.427 . S
N736 C733 1.384 . S
N737 C729 1.427 . S
N737 C735 1.384 . S
H738 C744 0.930 . S
H739 C748 0.930 . S
H740 C753 0.929 . S
H741 C751 0.929 . S
H742 C746 0.929 . S
H743 C752 0.929 . S
C744 H738 0.930 . S
C744 C745 1.367 . S
C744 C752 1.378 . S
C745 C744 1.367 . S
C745 C753 1.433 . S
C746 H742 0.929 . S
C746 C748 1.378 . S
C746 C750 1.350 . S
C747 C750 1.463 . S
C747 C752 1.350 . S
C747 N755 1.427 . S
C748 H739 0.930 . S
C748 C746 1.378 . S
C748 C749 1.367 . S
C749 C748 1.367 . S
C749 C751 1.433 . S
C750 C746 1.350 . S
C750 C747 1.463 . S
C750 N754 1.427 . S
C751 H741 0.929 . S
C751 C749 1.433 . S
C751 N754 1.384 . S
C752 H743 0.929 . S
C752 C744 1.378 . S
C752 C747 1.350 . S
C753 H740 0.929 . S
C753 C745 1.433 . S
C753 N755 1.384 . S
N754 C750 1.427 . S
N754 C751 1.384 . S
N755 C747 1.427 . S
N755 C753 1.384 . S
H756 C762 0.930 . S
H757 C766 0.930 . S
H758 C771 0.929 1_655 S
H759 C769 0.933 . S
H760 C764 0.929 . S
H761 C770 0.929 . S
C762 H756 0.930 . S
C762 C763 1.367 . S
C762 C770 1.378 . S
C763 C762 1.367 . S
C763 C771 1.433 . S
C764 H760 0.929 . S
C764 C766 1.378 . S
C764 C768 1.350 . S
C765 C768 1.463 1_454 S
C765 C770 1.350 . S
C765 N773 1.427 1_455 S
C766 H757 0.930 . S
C766 C764 1.378 . S
C766 C767 1.367 . S
C767 C766 1.367 . S
C767 C769 1.408 1_655 S
C768 C764 1.350 . S
C768 C765 1.463 1_656 S
C768 N772 1.427 1_655 S
C769 H759 0.933 . S
C769 C767 1.408 1_455 S
C769 N772 1.407 . S
C770 H761 0.929 . S
C770 C762 1.378 . S
C770 C765 1.350 . S
C771 H758 0.929 1_455 S
C771 C763 1.433 . S
C771 N773 1.384 1_455 S
N772 C768 1.427 1_455 S
N772 C769 1.407 . S
N773 C765 1.427 1_655 S
N773 C771 1.384 1_655 S
H774 C780 0.930 1_556 S
H775 C784 0.930 . S
H776 C789 0.929 . S
H777 C787 0.929 . S
H778 C782 0.929 1_554 S
H779 C788 0.929 . S
C780 H774 0.930 1_554 S
C780 C781 1.367 . S
C780 C788 1.378 1_554 S
C781 C780 1.367 . S
C781 C789 1.433 . S
C782 H778 0.929 1_556 S
C782 C784 1.378 . S
C782 C786 1.350 . S
C783 C786 1.473 . S
C783 C788 1.359 . S
C783 N791 1.408 1_556 S
C784 H775 0.930 . S
C784 C782 1.378 . S
C784 C785 1.367 . S
C785 C784 1.367 . S
C785 C787 1.433 . S
C786 C782 1.350 . S
C786 C783 1.473 . S
C786 N790 1.427 . S
C787 H777 0.929 . S
C787 C785 1.433 . S
C787 N790 1.384 . S
C788 H779 0.929 . S
C788 C780 1.378 1_556 S
C788 C783 1.359 . S
C789 H776 0.929 . S
C789 C781 1.433 . S
C789 N791 1.384 . S
N790 C786 1.427 . S
N790 C787 1.384 . S
N791 C783 1.408 1_554 S
N791 C789 1.384 . S
H792 C798 0.930 . S
H793 C802 0.930 . S
H794 C807 0.929 1_556 S
H795 C805 0.931 . S
H796 C800 0.929 1_565 S
H797 C806 0.929 . S
C798 H792 0.930 . S
C798 C799 1.367 . S
C798 C806 1.378 . S
C799 C798 1.367 . S
C799 C807 1.433 . S
C800 H796 0.929 1_545 S
C800 C802 1.378 . S
C800 C804 1.350 . S
C801 C804 1.463 1_564 S
C801 C806 1.350 . S
C801 N809 1.427 1_554 S
C802 H793 0.930 . S
C802 C800 1.378 . S
C802 C803 1.367 . S
C803 C802 1.367 . S
C803 C805 1.429 1_556 S
C804 C800 1.350 . S
C804 C801 1.463 1_546 S
C804 N808 1.427 1_556 S
C805 H795 0.931 . S
C805 C803 1.429 1_554 S
C805 N808 1.385 . S
C806 H797 0.929 . S
C806 C798 1.378 . S
C806 C801 1.350 . S
C807 H794 0.929 1_554 S
C807 C799 1.433 . S
C807 N809 1.384 1_554 S
N808 C804 1.427 1_554 S
N808 C805 1.385 . S
N809 C801 1.427 1_556 S
N809 C807 1.384 1_556 S
H810 C816 0.930 . S
H811 C820 0.930 1_565 S
H812 C825 0.929 . S
H813 C823 0.929 . S
H814 C818 0.929 . S
H815 C824 0.929 . S
C816 H810 0.930 . S
C816 C817 1.367 . S
C816 C824 1.378 1_565 S
C817 C816 1.367 . S
C817 C825 1.433 . S
C818 H814 0.929 . S
C818 C820 1.378 1_565 S
C818 C822 1.350 1_565 S
C819 C822 1.463 1_565 S
C819 C824 1.350 1_565 S
C819 N827 1.427 . S
C820 H811 0.930 1_545 S
C820 C818 1.378 1_545 S
C820 C821 1.367 . S
C821 C820 1.367 . S
C821 C823 1.433 . S
C822 C818 1.350 1_545 S
C822 C819 1.463 1_545 S
C822 N826 1.427 . S
C823 H813 0.929 . S
C823 C821 1.433 . S
C823 N826 1.384 . S
C824 H815 0.929 . S
C824 C816 1.378 1_545 S
C824 C819 1.350 1_545 S
C825 H812 0.929 . S
C825 C817 1.433 . S
C825 N827 1.384 . S
N826 C822 1.427 . S
N826 C823 1.384 . S
N827 C819 1.427 . S
N827 C825 1.384 . S
H828 C834 0.930 . S
H829 C838 0.930 . S
H830 C843 0.929 . S
H831 C841 0.929 . S
H832 C836 0.929 . S
H833 C842 0.929 . S
C834 H828 0.930 . S
C834 C835 1.367 . S
C834 C842 1.378 . S
C835 C834 1.367 . S
C835 C843 1.433 . S
C836 H832 0.929 . S
C836 C838 1.378 . S
C836 C840 1.350 . S
C837 C840 1.463 1_655 S
C837 C842 1.350 . S
C837 N845 1.427 . S
C838 H829 0.930 . S
C838 C836 1.378 . S
C838 C839 1.367 . S
C839 C838 1.367 . S
C839 C841 1.433 . S
C840 C836 1.350 . S
C840 C837 1.463 1_455 S
C840 N844 1.427 . S
C841 H831 0.929 . S
C841 C839 1.433 . S
C841 N844 1.384 . S
C842 H833 0.929 . S
C842 C834 1.378 . S
C842 C837 1.350 . S
C843 H830 0.929 . S
C843 C835 1.433 . S
C843 N845 1.384 . S
N844 C840 1.427 . S
N844 C841 1.384 . S
N845 C837 1.427 . S
N845 C843 1.384 . S
H846 C852 0.930 . S
H847 C856 0.930 . S
H848 C861 0.929 . S
H849 C859 0.929 . S
H850 C854 0.929 . S
H851 C860 0.929 . S
C852 H846 0.930 . S
C852 C853 1.367 . S
C852 C860 1.378 . S
C853 C852 1.367 . S
C853 C861 1.433 . S
C854 H850 0.929 . S
C854 C856 1.378 . S
C854 C858 1.350 . S
C855 C858 1.463 . S
C855 C860 1.350 . S
C855 N863 1.427 . S
C856 H847 0.930 . S
C856 C854 1.378 . S
C856 C857 1.367 . S
C857 C856 1.367 . S
C857 C859 1.433 . S
C858 C854 1.350 . S
C858 C855 1.463 . S
C858 N862 1.427 . S
C859 H849 0.929 . S
C859 C857 1.433 . S
C859 N862 1.384 . S
C860 H851 0.929 . S
C860 C852 1.378 . S
C860 C855 1.350 . S
C861 H848 0.929 . S
C861 C853 1.433 . S
C861 N863 1.384 . S
N862 C858 1.427 . S
N862 C859 1.384 . S
N863 C855 1.427 . S
N863 C861 1.384 . S
C439 C4 0.692 . S
C443 C254 0.697 . S
C457 C40 0.662 . S
C461 C290 0.672 1_565 S
C475 C86 0.741 . S
C479 C218 0.722 1_455 S
C493 C398 0.738 . S
C497 C122 0.719 . S
C511 C148 0.683 . S
C515 C326 0.669 1_565 S
C529 C362 0.699 . S
C533 C184 0.691 . S
C547 C38 0.641 . S
C551 C220 0.655 . S
C565 C256 0.635 . S
C569 C75 0.625 1_545 S
C583 C2 0.747 1_655 S
C587 C292 0.734 . S
C601 C328 0.750 . S
C605 C182 0.742 . S
C619 C364 0.634 . S
C623 C111 0.627 1_545 S
C637 C146 0.637 . S
C641 C400 0.652 . S
C655 C194 1.493 . S
C659 C14 1.506 . S
C673 C50 1.449 . S
C677 C112 1.559 . S
C691 C76 1.562 . S
C695 C158 1.443 . S
C709 C230 1.474 . S
C713 C410 1.484 . S
C727 C266 1.468 . S
C731 C338 1.477 . S
C745 C302 1.488 . S
C749 C374 1.487 . S
C763 C3 1.651 . S
C767 C219 1.651 . S
C781 C39 1.626 . S
C785 C255 1.623 . S
C799 C74 1.649 . S
C803 C291 1.682 . S
C817 C110 1.641 . S
C821 C327 1.675 . S
C835 C363 1.633 . S
C839 C147 1.636 . S
C853 C183 1.646 . S
C857 C399 1.647 . S
