# Generated by pormake.
# Topology vmz, (8)-cn, num edge types: 1
# Building blocks:
#     Node 0, Type 0, BuildingBlock: TAGTUT_clean_sbu_3, # of connection points: 8
#     Node 1, Type 0, BuildingBlock: TAGTUT_clean_sbu_3, # of connection points: 8
#     Node 2, Type 0, BuildingBlock: TAGTUT_clean_sbu_3, # of connection points: 8
#     Node 3, Type 0, BuildingBlock: TAGTUT_clean_sbu_3, # of connection points: 8
#     Edge 4, Type (0, 0), BuildingBlock: TEMPAE_clean_linker_10, # of connection points: 2
#     Edge 5, Type (0, 0), BuildingBlock: TEMPAE_clean_linker_10, # of connection points: 2
#     Edge 6, Type (0, 0), BuildingBlock: TEMPAE_clean_linker_10, # of connection points: 2
#     Edge 7, Type (0, 0), BuildingBlock: TEMPAE_clean_linker_10, # of connection points: 2
#     Edge 8, Type (0, 0), BuildingBlock: TEMPAE_clean_linker_10, # of connection points: 2
#     Edge 9, Type (0, 0), BuildingBlock: TEMPAE_clean_linker_10, # of connection points: 2
#     Edge 10, Type (0, 0), BuildingBlock: TEMPAE_clean_linker_10, # of connection points: 2
#     Edge 11, Type (0, 0), BuildingBlock: TEMPAE_clean_linker_10, # of connection points: 2
#     Edge 12, Type (0, 0), BuildingBlock: TEMPAE_clean_linker_10, # of connection points: 2
#     Edge 13, Type (0, 0), BuildingBlock: TEMPAE_clean_linker_10, # of connection points: 2
#     Edge 14, Type (0, 0), BuildingBlock: TEMPAE_clean_linker_10, # of connection points: 2
#     Edge 15, Type (0, 0), BuildingBlock: TEMPAE_clean_linker_10, # of connection points: 2
#     Edge 16, Type (0, 0), BuildingBlock: TEMPAE_clean_linker_10, # of connection points: 2
#     Edge 17, Type (0, 0), BuildingBlock: TEMPAE_clean_linker_10, # of connection points: 2
#     Edge 18, Type (0, 0), BuildingBlock: TEMPAE_clean_linker_10, # of connection points: 2
#     Edge 19, Type (0, 0), BuildingBlock: TEMPAE_clean_linker_10, # of connection points: 2
# Relax obj value: 0.212
# Max RMSD: 0.273
# Mean RMSD: 0.270
data_MOF--net-vmz--node1-TAGTUT_clean_sbu_3--edge1-TEMPAE_clean_linker_10
_symmetry_space_group_name_H-M    P1
_symmetry_Int_Tables_number       1
_symmetry_cell_setting            triclinic
loop_
_symmetry_equiv_pos_as_xyz
'x, y, z'
_cell_length_a     24.744881
_cell_length_b     18.837534
_cell_length_c     33.105287
_cell_angle_alpha  89.717829
_cell_angle_beta   99.533944
_cell_angle_gamma 90.059504
loop_
_atom_site_label
_atom_site_type_symbol
_atom_site_fract_x
_atom_site_fract_y
_atom_site_fract_z
_atom_type_partial_charge
C0 C 0.19958 0.25528 0.14253 0.0
C1 C 0.20419 0.45125 0.02948 0.0
C2 C 0.22449 0.2653 0.95089 0.0
Mg3 Mg 0.24679 0.09943 0.14917 0.0
Mg4 Mg 0.35369 0.04772 0.10997 0.0
O5 O 0.28842 0.09739 0.10183 0.0
Mg6 Mg 0.27721 0.19698 0.08067 0.0
O7 O 0.2571 0.2954 0.06124 0.0
Mg8 Mg 0.17632 0.27946 0.04215 0.0
Mg9 Mg 0.29465 0.33888 0.02299 0.0
C10 C 0.35975 0.12645 0.02488 0.0
O11 O 0.36207 0.24074 0.1069 0.0
O12 O 0.25014 0.97713 0.14942 0.0
O13 O 0.37515 0.32333 0.05961 0.0
O14 O 0.32737 0.10518 0.19755 0.0
O15 O 0.31916 0.94472 0.11686 0.0
O16 O 0.39889 0.08236 0.16667 0.0
O17 O 0.19254 0.16201 0.05229 0.0
O18 O 0.16959 0.09283 0.10144 0.0
C19 C 0.15808 0.12262 0.06631 0.0
C20 C 0.27784 0.92977 0.13407 0.0
O21 O 0.31888 0.16825 0.02546 0.0
O22 O 0.17088 0.40159 0.0357 0.0
O23 O 0.37806 0.08314 0.05398 0.0
O24 O 0.18659 0.2637 0.97304 0.0
O25 O 0.25305 0.43906 0.02312 0.0
O26 O 0.27233 0.28828 0.9649 0.0
O27 O 0.24214 0.22025 0.13787 0.0
O28 O 0.1685 0.28477 0.11207 0.0
C29 C 0.37918 0.09863 0.1986 0.0
C30 C 0.3921 0.28697 0.09227 0.0
C31 C 0.6313 0.67564 0.48401 0.0
C32 C 0.76511 0.82951 0.57024 0.0
C33 C 0.75782 0.97067 0.46082 0.0
Mg34 Mg 0.62712 0.62144 0.3945 0.0
Mg35 Mg 0.73722 0.6153 0.35581 0.0
O36 O 0.68565 0.67629 0.3725 0.0
Mg37 Mg 0.71545 0.73211 0.42275 0.0
O38 O 0.73957 0.78403 0.4742 0.0
Mg39 Mg 0.67288 0.83758 0.48277 0.0
Mg40 Mg 0.80792 0.82748 0.48765 0.0
C41 C 0.79641 0.76254 0.35493 0.0
O42 O 0.792 0.66372 0.44087 0.0
O43 O 0.60365 0.57711 0.32894 0.0
O44 O 0.85613 0.74508 0.46586 0.0
O45 O 0.67715 0.51795 0.41162 0.0
O46 O 0.68382 0.5688 0.30537 0.0
O47 O 0.76136 0.53134 0.39776 0.0
O48 O 0.64273 0.80807 0.41217 0.0
O49 O 0.58107 0.72992 0.38137 0.0
C50 C 0.59445 0.79363 0.39334 0.0
C51 C 0.63199 0.55884 0.30139 0.0
O52 O 0.76773 0.79183 0.37969 0.0
O53 O 0.71603 0.8439 0.55206 0.0
O54 O 0.79542 0.69563 0.34779 0.0
O55 O 0.71195 0.9433 0.46553 0.0
O56 O 0.80562 0.82289 0.5511 0.0
O57 O 0.80218 0.93502 0.46641 0.0
O58 O 0.66061 0.66498 0.45653 0.0
O59 O 0.63109 0.73608 0.50086 0.0
C60 C 0.72612 0.49536 0.41297 0.0
C61 C 0.84191 0.68199 0.45399 0.0
C62 C 0.65949 0.86523 0.98551 0.0
C63 C 0.78927 0.70429 0.07059 0.0
C64 C 0.77035 0.5596 0.9607 0.0
Mg65 Mg 0.64077 0.90803 0.89329 0.0
Mg66 Mg 0.73883 0.90208 0.83953 0.0
O67 O 0.69437 0.84872 0.86928 0.0
Mg68 Mg 0.72901 0.79584 0.9197 0.0
O69 O 0.75835 0.74756 0.9722 0.0
Mg70 Mg 0.69196 0.69801 0.98577 0.0
Mg71 Mg 0.82674 0.70361 0.98502 0.0
C72 C 0.79799 0.75185 0.848 0.0
O73 O 0.80591 0.86156 0.92796 0.0
O74 O 0.6053 0.93655 0.82631 0.0
O75 O 0.87182 0.78546 0.95708 0.0
O76 O 0.69262 0.01147 0.89776 0.0
O77 O 0.67366 0.92383 0.78961 0.0
O78 O 0.76522 0.0031 0.8668 0.0
O79 O 0.65447 0.72275 0.91626 0.0
O80 O 0.59183 0.80331 0.89029 0.0
C81 C 0.60492 0.73926 0.90132 0.0
C82 C 0.62352 0.9372 0.7921 0.0
O83 O 0.77221 0.72816 0.87615 0.0
O84 O 0.73963 0.69083 0.05352 0.0
O85 O 0.79615 0.81706 0.8361 0.0
O86 O 0.72611 0.58876 0.96787 0.0
O87 O 0.8285 0.71165 0.05004 0.0
O88 O 0.81519 0.5946 0.96386 0.0
O89 O 0.68501 0.87098 0.95545 0.0
O90 O 0.65663 0.80533 0.00323 0.0
C91 C 0.73613 0.03803 0.88807 0.0
C92 C 0.85629 0.84518 0.93985 0.0
C93 C 0.38131 0.22061 0.60092 0.0
C94 C 0.36649 0.43618 0.70299 0.0
C95 C 0.24364 0.51138 0.60436 0.0
Mg96 Mg 0.29358 0.16448 0.52316 0.0
Mg97 Mg 0.1599 0.17345 0.52141 0.0
O98 O 0.22759 0.21824 0.53348 0.0
Mg99 Mg 0.2561 0.27368 0.58372 0.0
O100 O 0.29238 0.33174 0.63133 0.0
Mg101 Mg 0.34426 0.38892 0.60353 0.0
Mg102 Mg 0.25107 0.38596 0.66213 0.0
C103 C 0.12693 0.32056 0.55497 0.0
O104 O 0.21443 0.21091 0.63311 0.0
O105 O 0.2471 0.14513 0.4558 0.0
O106 O 0.19878 0.3012 0.67482 0.0
O107 O 0.2578 0.06005 0.54621 0.0
O108 O 0.15789 0.16654 0.45677 0.0
O109 O 0.16822 0.07004 0.54805 0.0
O110 O 0.30128 0.34343 0.54342 0.0
O111 O 0.3303 0.26662 0.50116 0.0
C112 C 0.32949 0.32933 0.51553 0.0
C113 C 0.19739 0.15381 0.43737 0.0
O114 O 0.17633 0.33895 0.56983 0.0
O115 O 0.38259 0.42937 0.66821 0.0
O116 O 0.11327 0.25807 0.54172 0.0
O117 O 0.28857 0.48861 0.59491 0.0
O118 O 0.31762 0.4208 0.70813 0.0
O119 O 0.21765 0.47628 0.62792 0.0
O120 O 0.33115 0.20227 0.58993 0.0
O121 O 0.39486 0.28542 0.60964 0.0
C122 C 0.21248 0.03413 0.55354 0.0
C123 C 0.19414 0.23597 0.66382 0.0
C124 C 0.16852 0.53802 0.07431 0.0
C125 C 0.19095 0.5247 0.03888 0.0
C126 C 0.17216 0.60566 0.09201 0.0
C127 C 0.19733 0.66115 0.07297 0.0
C128 C 0.21392 0.64972 0.03457 0.0
C129 C 0.21148 0.58107 0.01831 0.0
C130 C 0.15453 0.61551 0.13314 0.0
C131 C 0.23876 0.70847 0.01244 0.0
C132 C 0.19942 0.85181 0.10876 0.0
C133 C 0.25429 0.85852 0.12753 0.0
C134 C 0.17912 0.78691 0.09213 0.0
C135 C 0.21428 0.72727 0.09568 0.0
C136 C 0.26837 0.73264 0.11777 0.0
C137 C 0.28816 0.79882 0.13267 0.0
C138 C 0.12187 0.78411 0.0678 0.0
C139 C 0.30652 0.66952 0.12345 0.0
H140 H 0.1531 0.49417 0.09047 0.0
H141 H 0.2286 0.57063 0.99081 0.0
H142 H 0.19141 0.61674 0.15732 0.0
H143 H 0.13271 0.66664 0.13438 0.0
H144 H 0.12752 0.57169 0.14033 0.0
H145 H 0.24084 0.69419 0.98021 0.0
H146 H 0.21469 0.75811 0.01257 0.0
H147 H 0.28098 0.71948 0.02841 0.0
H148 H 0.17362 0.89865 0.10408 0.0
H149 H 0.33063 0.8045 0.14702 0.0
H150 H 0.10055 0.73458 0.07428 0.0
H151 H 0.12432 0.78458 0.03463 0.0
H152 H 0.0968 0.83031 0.07427 0.0
H153 H 0.28554 0.62261 0.13411 0.0
H154 H 0.34425 0.6803 0.14585 0.0
H155 H 0.31872 0.65565 0.09369 0.0
C156 C 0.79781 0.08956 0.47878 0.0
C157 C 0.76003 0.04748 0.4532 0.0
C158 C 0.79622 0.16386 0.4755 0.0
C159 C 0.75727 0.19634 0.44485 0.0
C160 C 0.72058 0.1536 0.41777 0.0
C161 C 0.72152 0.07961 0.42297 0.0
C162 C 0.83465 0.20763 0.50583 0.0
C163 C 0.6795 0.18575 0.38379 0.0
C164 C 0.70818 0.386 0.45183 0.0
C165 C 0.7398 0.42188 0.4268 0.0
C166 C 0.71553 0.31308 0.45982 0.0
C167 C 0.75425 0.27499 0.44133 0.0
C168 C 0.7877 0.31155 0.41732 0.0
C169 C 0.78068 0.38479 0.41092 0.0
C170 C 0.68041 0.27641 0.48678 0.0
C171 C 0.82819 0.27262 0.39598 0.0
H172 H 0.82694 0.0644 0.50264 0.0
H173 H 0.69227 0.04677 0.40333 0.0
H174 H 0.8592 0.24395 0.48959 0.0
H175 H 0.81051 0.24122 0.52377 0.0
H176 H 0.8631 0.17414 0.52741 0.0
H177 H 0.64434 0.20711 0.39677 0.0
H178 H 0.69787 0.23024 0.36864 0.0
H179 H 0.66362 0.14586 0.36017 0.0
H180 H 0.67681 0.41459 0.4644 0.0
H181 H 0.80504 0.41212 0.39131 0.0
H182 H 0.70603 0.2422 0.50975 0.0
H183 H 0.65016 0.24166 0.46784 0.0
H184 H 0.65774 0.31484 0.50309 0.0
H185 H 0.85594 0.23934 0.41805 0.0
H186 H 0.85345 0.30941 0.38053 0.0
H187 H 0.80565 0.23648 0.37265 0.0
C188 C 0.71928 0.44838 0.93587 0.0
C189 C 0.76933 0.48282 0.94943 0.0
C190 C 0.71716 0.37569 0.92607 0.0
C191 C 0.76626 0.33559 0.93041 0.0
C192 C 0.81693 0.36975 0.94446 0.0
C193 C 0.81793 0.44296 0.95333 0.0
C194 C 0.66223 0.34213 0.91047 0.0
C195 C 0.87 0.32856 0.95092 0.0
C196 C 0.74641 0.1356 0.93967 0.0
C197 C 0.75052 0.11221 0.90018 0.0
C198 C 0.75406 0.20749 0.95048 0.0
C199 C 0.76424 0.25785 0.92065 0.0
C200 C 0.76942 0.2341 0.88087 0.0
C201 C 0.76337 0.16139 0.87132 0.0
C202 C 0.7494 0.22983 0.99349 0.0
C203 C 0.77871 0.28592 0.84779 0.0
H204 H 0.68149 0.47846 0.93271 0.0
H205 H 0.85679 0.46865 0.9642 0.0
H206 H 0.65966 0.32965 0.87747 0.0
H207 H 0.65728 0.29153 0.92673 0.0
H208 H 0.62757 0.37758 0.91414 0.0
H209 H 0.90588 0.36243 0.96272 0.0
H210 H 0.86777 0.28449 0.97297 0.0
H211 H 0.87674 0.30429 0.9217 0.0
H212 H 0.73681 0.09757 0.96212 0.0
H213 H 0.76595 0.1435 0.84062 0.0
H214 H 0.71197 0.26242 0.99295 0.0
H215 H 0.78502 0.26313 0.00648 0.0
H216 H 0.74713 0.18358 0.0141 0.0
H217 H 0.74333 0.32277 0.84124 0.0
H218 H 0.78379 0.25887 0.81891 0.0
H219 H 0.81565 0.31856 0.85824 0.0
C220 C 0.16345 0.91821 0.5478 0.0
C221 C 0.21001 0.95803 0.56376 0.0
C222 C 0.16273 0.8442 0.55257 0.0
C223 C 0.20911 0.80967 0.57485 0.0
C224 C 0.2553 0.85005 0.59256 0.0
C225 C 0.25555 0.92374 0.5862 0.0
C226 C 0.11335 0.80272 0.53237 0.0
C227 C 0.30501 0.81525 0.61742 0.0
C228 C 0.19815 0.62454 0.61807 0.0
C229 C 0.22588 0.58434 0.59241 0.0
C230 C 0.19064 0.6978 0.61191 0.0
C231 C 0.21027 0.73109 0.57876 0.0
C232 C 0.2346 0.68974 0.55099 0.0
C233 C 0.24255 0.61682 0.55837 0.0
C234 C 0.16519 0.7402 0.6425 0.0
C235 C 0.25457 0.72297 0.51456 0.0
H236 H 0.12847 0.94457 0.52989 0.0
H237 H 0.29145 0.95457 0.59861 0.0
H238 H 0.12535 0.76728 0.50867 0.0
H239 H 0.09758 0.76835 0.5551 0.0
H240 H 0.07965 0.83784 0.51762 0.0
H241 H 0.33427 0.85473 0.63337 0.0
H242 H 0.29257 0.77872 0.64064 0.0
H243 H 0.32655 0.78318 0.597 0.0
H244 H 0.18537 0.59967 0.64455 0.0
H245 H 0.26316 0.58552 0.53814 0.0
H246 H 0.1321 0.77489 0.6266 0.0
H247 H 0.19673 0.77523 0.65997 0.0
H248 H 0.14797 0.70568 0.66454 0.0
H249 H 0.22217 0.75706 0.49716 0.0
H250 H 0.26688 0.68248 0.49354 0.0
H251 H 0.29045 0.75736 0.52527 0.0
C252 C 0.51318 0.84125 0.34635 0.0
C253 C 0.5578 0.85334 0.37757 0.0
C254 C 0.48457 0.8979 0.32519 0.0
C255 C 0.50027 0.96861 0.33597 0.0
C256 C 0.54188 0.9813 0.36993 0.0
C257 C 0.57059 0.92343 0.39017 0.0
C258 C 0.43986 0.88179 0.28944 0.0
C259 C 0.55728 0.05587 0.38383 0.0
C260 C 0.47171 0.0765 0.23948 0.0
C261 C 0.41619 0.09281 0.23866 0.0
C262 C 0.50248 0.04317 0.27367 0.0
C263 C 0.47736 0.02731 0.3081 0.0
C264 C 0.42473 0.05496 0.31008 0.0
C265 C 0.39455 0.08715 0.27511 0.0
C266 C 0.5591 0.0163 0.27045 0.0
C267 C 0.39738 0.04331 0.34703 0.0
H268 H 0.50248 0.78743 0.33669 0.0
H269 H 0.60429 0.93327 0.41489 0.0
H270 H 0.40134 0.90882 0.29346 0.0
H271 H 0.4518 0.90218 0.26065 0.0
H272 H 0.43152 0.82399 0.2859 0.0
H273 H 0.57298 0.08549 0.35917 0.0
H274 H 0.52046 0.08458 0.3901 0.0
H275 H 0.58893 0.05676 0.41186 0.0
H276 H 0.48964 0.08294 0.21194 0.0
H277 H 0.3524 0.10156 0.27528 0.0
H278 H 0.55717 0.95823 0.26482 0.0
H279 H 0.58792 0.02528 0.29936 0.0
H280 H 0.57586 0.04231 0.24498 0.0
H281 H 0.37126 0.99516 0.34225 0.0
H282 H 0.37047 0.08892 0.35125 0.0
H283 H 0.4276 0.03582 0.37545 0.0
C284 C 0.54835 0.52132 0.25372 0.0
C285 C 0.60515 0.51773 0.26596 0.0
C286 C 0.52185 0.47709 0.22278 0.0
C287 C 0.55293 0.42724 0.20433 0.0
C288 C 0.61041 0.42415 0.21604 0.0
C289 C 0.63596 0.46999 0.24655 0.0
C290 C 0.46043 0.48293 0.21034 0.0
C291 C 0.64459 0.37084 0.1975 0.0
C292 C 0.46006 0.28122 0.157 0.0
C293 C 0.44471 0.30816 0.11719 0.0
C294 C 0.49993 0.31578 0.18509 0.0
C295 C 0.52439 0.37858 0.1729 0.0
C296 C 0.51399 0.4007 0.1315 0.0
C297 C 0.47457 0.36464 0.10395 0.0
C298 C 0.5116 0.2892 0.22876 0.0
C299 C 0.53968 0.46705 0.11722 0.0
H300 H 0.52454 0.55831 0.2686 0.0
H301 H 0.67991 0.46638 0.25632 0.0
H302 H 0.4499 0.49256 0.17686 0.0
H303 H 0.4407 0.43231 0.21711 0.0
H304 H 0.44275 0.52647 0.22653 0.0
H305 H 0.68923 0.37966 0.20729 0.0
H306 H 0.63442 0.31647 0.20689 0.0
H307 H 0.63525 0.37307 0.16357 0.0
H308 H 0.43812 0.23657 0.16727 0.0
H309 H 0.46405 0.38473 0.07291 0.0
H310 H 0.48994 0.32325 0.2482 0.0
H311 H 0.55605 0.29212 0.24105 0.0
H312 H 0.49752 0.23362 0.23145 0.0
H313 H 0.51963 0.51431 0.12812 0.0
H314 H 0.53488 0.46997 0.08329 0.0
H315 H 0.58392 0.4699 0.13014 0.0
C316 C 0.47699 0.18371 0.62764 0.0
C317 C 0.42338 0.16486 0.61035 0.0
C318 C 0.513 0.13314 0.64798 0.0
C319 C 0.49491 0.06221 0.65045 0.0
C320 C 0.44426 0.04092 0.62745 0.0
C321 C 0.40862 0.09284 0.6078 0.0
C322 C 0.56744 0.15768 0.67128 0.0
C323 C 0.42493 0.96498 0.62741 0.0
C324 C 0.60046 0.94765 0.71583 0.0
C325 C 0.58611 0.95842 0.75462 0.0
C326 C 0.56853 0.9761 0.68055 0.0
C327 C 0.522 0.01721 0.68456 0.0
C328 C 0.50515 0.0237 0.72327 0.0
C329 C 0.53729 0.99376 0.75778 0.0
C330 C 0.58657 0.96537 0.63964 0.0
C331 C 0.45527 0.06654 0.72884 0.0
H332 H 0.48939 0.23897 0.6285 0.0
H333 H 0.36783 0.07739 0.59326 0.0
H334 H 0.56536 0.15902 0.70451 0.0
H335 H 0.60055 0.12035 0.66691 0.0
H336 H 0.57852 0.2116 0.6616 0.0
H337 H 0.39589 0.95289 0.59893 0.0
H338 H 0.45975 0.9272 0.63035 0.0
H339 H 0.40319 0.95641 0.65377 0.0
H340 H 0.6374 0.91863 0.71307 0.0
H341 H 0.52556 0.00149 0.78759 0.0
H342 H 0.61279 0.01055 0.63337 0.0
H343 H 0.55101 0.96291 0.61439 0.0
H344 H 0.61105 0.91596 0.6395 0.0
H345 H 0.4616 0.12312 0.72133 0.0
H346 H 0.44652 0.06345 0.76065 0.0
H347 H 0.41867 0.04748 0.70772 0.0
C348 C 0.51219 0.69988 0.86761 0.0
C349 C 0.56594 0.68218 0.88546 0.0
C350 C 0.47901 0.65152 0.84278 0.0
C351 C 0.49988 0.58349 0.83593 0.0
C352 C 0.5522 0.56299 0.85678 0.0
C353 C 0.58455 0.6125 0.88162 0.0
C354 C 0.42351 0.67564 0.82099 0.0
C355 C 0.57525 0.49029 0.85092 0.0
C356 C 0.39546 0.45692 0.77813 0.0
C357 C 0.40443 0.46697 0.73771 0.0
C358 C 0.42821 0.49143 0.81093 0.0
C359 C 0.46992 0.53828 0.80291 0.0
C360 C 0.48038 0.54658 0.76234 0.0
C361 C 0.44785 0.51026 0.7303 0.0
C362 C 0.41703 0.47958 0.85391 0.0
C363 C 0.52446 0.59625 0.75247 0.0
H364 H 0.49716 0.75325 0.87087 0.0
H365 H 0.62579 0.59795 0.89568 0.0
H366 H 0.42465 0.6816 0.78777 0.0
H367 H 0.39173 0.63551 0.82435 0.0
H368 H 0.41108 0.72725 0.83273 0.0
H369 H 0.61852 0.48504 0.86615 0.0
H370 H 0.55031 0.44946 0.86361 0.0
H371 H 0.57319 0.47875 0.81787 0.0
H372 H 0.36236 0.42274 0.7841 0.0
H373 H 0.45497 0.51829 0.69916 0.0
H374 H 0.40062 0.52897 0.86539 0.0
H375 H 0.45564 0.46653 0.8748 0.0
H376 H 0.38704 0.43613 0.85548 0.0
H377 H 0.51472 0.65149 0.76031 0.0
H378 H 0.52866 0.59472 0.71959 0.0
H379 H 0.56455 0.58232 0.77113 0.0
C380 C 0.09719 0.12272 0.99841 0.0
C381 C 0.10513 0.10781 0.04055 0.0
C382 C 0.05169 0.09574 0.97227 0.0
C383 C 0.01422 0.05259 0.98893 0.0
C384 C 0.01874 0.04431 0.03189 0.0
C385 C 0.06441 0.07201 0.05727 0.0
C386 C 0.04641 0.10845 0.92677 0.0
C387 C 0.97788 0.00103 0.05085 0.0
C388 C 0.88172 0.97269 0.93984 0.0
C389 C 0.89748 0.90116 0.93939 0.0
C390 C 0.92067 0.02576 0.95112 0.0
C391 C 0.97615 0.00605 0.96232 0.0
C392 C 0.99292 0.93555 0.95633 0.0
C393 C 0.9531 0.88359 0.945 0.0
C394 C 0.90111 0.10082 0.95542 0.0
C395 C 0.05226 0.91326 0.96665 0.0
H396 H 0.12813 0.15143 0.9854 0.0
H397 H 0.06964 0.0622 0.08999 0.0
H398 H 0.06674 0.06444 0.91297 0.0
H399 H 0.00287 0.11007 0.91177 0.0
H400 H 0.06639 0.15903 0.92013 0.0
H401 H 0.98407 0.0064 0.08471 0.0
H402 H 0.93545 0.01768 0.03815 0.0
H403 H 0.98201 0.9441 0.04341 0.0
H404 H 0.83874 0.98681 0.93531 0.0
H405 H 0.96538 0.82853 0.94356 0.0
H406 H 0.93459 0.14046 0.95731 0.0
H407 H 0.88225 0.10461 0.98351 0.0
H408 H 0.86905 0.11475 0.929 0.0
H409 H 0.07901 0.95189 0.95401 0.0
H410 H 0.05924 0.85969 0.95461 0.0
H411 H 0.06486 0.91209 1.00044 0.0
C412 C 0.06266 0.37597 0.49997 0.0
C413 C 0.08684 0.37596 0.54134 0.0
C414 C 0.02425 0.42714 0.48435 0.0
C415 C 0.00868 0.47841 0.51113 0.0
C416 C 0.03336 0.47933 0.553 0.0
C417 C 0.0733 0.42833 0.56762 0.0
C418 C 0.00037 0.42616 0.43923 0.0
C419 C 0.01672 0.533 0.58233 0.0
C420 C 0.93917 0.64435 0.4641 0.0
C421 C 0.88388 0.62676 0.46266 0.0
C422 C 0.98048 0.59635 0.4798 0.0
C423 C 0.96575 0.53001 0.49495 0.0
C424 C 0.90992 0.5112 0.49255 0.0
C425 C 0.86951 0.5598 0.47603 0.0
C426 C 0.03971 0.61686 0.48053 0.0
C427 C 0.89287 0.44069 0.50848 0.0
H428 H 0.07449 0.3361 0.47955 0.0
H429 H 0.09272 0.42814 0.59948 0.0
H430 H 0.95576 0.41513 0.43513 0.0
H431 H 0.00557 0.47886 0.42524 0.0
H432 H 0.01986 0.38538 0.42223 0.0
H433 H 0.03939 0.52582 0.61398 0.0
H434 H 0.02426 0.58757 0.57185 0.0
H435 H 0.97214 0.52837 0.58293 0.0
H436 H 0.95011 0.69634 0.45376 0.0
H437 H 0.82676 0.54683 0.47574 0.0
H438 H 0.06056 0.57625 0.46443 0.0
H439 H 0.06152 0.619 0.51259 0.0
H440 H 0.04392 0.66932 0.46588 0.0
H441 H 0.90781 0.39656 0.49122 0.0
H442 H 0.84766 0.43573 0.50583 0.0
H443 H 0.91165 0.43398 0.54112 0.0
C444 C 0.3961 0.08724 0.96451 0.0
C445 C 0.39656 0.13761 0.99538 0.0
C446 C 0.44564 0.05981 0.95606 0.0
C447 C 0.49522 0.08028 0.98114 0.0
C448 C 0.49588 0.1404 0.00664 0.0
C449 C 0.44593 0.17103 0.01159 0.0
C450 C 0.44434 0.00255 0.92424 0.0
C451 C 0.54797 0.16672 0.03264 0.0
C452 C 0.57767 0.91373 0.01178 0.0
C453 C 0.62327 0.92457 0.99263 0.0
C454 C 0.53769 0.96677 0.01067 0.0
C455 C 0.5418 0.0298 0.98749 0.0
C456 C 0.58967 0.04272 0.9706 0.0
C457 C 0.63086 0.99116 0.97534 0.0
C458 C 0.49049 0.95428 0.03355 0.0
C459 C 0.59786 0.10893 0.94639 0.0
H460 H 0.35771 0.06267 0.95104 0.0
H461 H 0.44573 0.21173 0.03459 0.0
H462 H 0.48199 0.00406 0.91005 0.0
H463 H 0.44197 0.94972 0.93878 0.0
H464 H 0.4079 0.00845 0.89988 0.0
H465 H 0.5712 0.12203 0.04923 0.0
H466 H 0.57441 0.19186 0.01269 0.0
H467 H 0.53985 0.2067 0.05547 0.0
H468 H 0.57228 0.86327 0.02649 0.0
H469 H 0.66833 0.00178 0.96389 0.0
H470 H 0.4536 0.93814 0.01178 0.0
H471 H 0.48043 0.00354 0.04901 0.0
H472 H 0.49983 0.91163 0.05697 0.0
H473 H 0.61222 0.09444 0.91748 0.0
H474 H 0.63058 0.14178 0.96427 0.0
H475 H 0.56035 0.14163 0.93853 0.0
C476 C 0.36612 0.4533 0.51575 0.0
C477 C 0.37189 0.38094 0.50765 0.0
C478 C 0.40854 0.5017 0.51279 0.0
C479 C 0.45807 0.47708 0.50164 0.0
C480 C 0.46395 0.40422 0.49297 0.0
C481 C 0.42067 0.35713 0.49581 0.0
C482 C 0.40034 0.5792 0.52156 0.0
C483 C 0.5163 0.37584 0.48128 0.0
C484 C 0.54738 0.60827 0.45558 0.0
C485 C 0.5879 0.62426 0.48908 0.0
C486 C 0.50499 0.56059 0.4593 0.0
C487 C 0.50302 0.52794 0.49758 0.0
C488 C 0.54374 0.54423 0.53175 0.0
C489 C 0.58556 0.59291 0.52715 0.0
C490 C 0.46202 0.54571 0.42227 0.0
C491 C 0.54316 0.5101 0.57301 0.0
H492 H 0.32842 0.47206 0.52461 0.0
H493 H 0.42582 0.30117 0.49002 0.0
H494 H 0.43389 0.59836 0.54546 0.0
H495 H 0.40171 0.61118 0.49352 0.0
H496 H 0.36066 0.58922 0.53198 0.0
H497 H 0.51474 0.31756 0.47622 0.0
H498 H 0.52441 0.40228 0.45286 0.0
H499 H 0.55145 0.38795 0.50572 0.0
H500 H 0.54792 0.63437 0.42655 0.0
H501 H 0.61671 0.60591 0.55312 0.0
H502 H 0.42089 0.56013 0.4288 0.0
H503 H 0.46119 0.48818 0.41518 0.0
H504 H 0.46951 0.5756 0.39471 0.0
H505 H 0.50434 0.52301 0.58398 0.0
H506 H 0.57804 0.52781 0.59636 0.0
H507 H 0.54497 0.45149 0.57029 0.0
C508 C 0.21705 0.14756 0.71892 0.0
C509 C 0.17669 0.18938 0.69528 0.0
C510 C 0.21881 0.14067 0.76155 0.0
C511 C 0.17939 0.17651 0.78053 0.0
C512 C 0.13333 0.20741 0.7556 0.0
C513 C 0.13219 0.21261 0.7131 0.0
C514 C 0.26665 0.10287 0.78674 0.0
C515 C 0.08925 0.24414 0.7742 0.0
C516 C 0.18158 0.18001 0.89653 0.0
C517 C 0.21291 0.24106 0.90772 0.0
C518 C 0.17182 0.15625 0.85561 0.0
C519 C 0.1924 0.19593 0.82493 0.0
C520 C 0.22429 0.25758 0.83635 0.0
C521 C 0.23478 0.27859 0.87756 0.0
C522 C 0.139 0.08926 0.84561 0.0
C523 C 0.24668 0.30242 0.8049 0.0
H524 H 0.25151 0.12906 0.70543 0.0
H525 H 0.10069 0.24462 0.69487 0.0
H526 H 0.2978 0.14245 0.79995 0.0
H527 H 0.25336 0.07339 0.81251 0.0
H528 H 0.2863 0.06525 0.76786 0.0
H529 H 0.05276 0.25671 0.7509 0.0
H530 H 0.07625 0.21063 0.79849 0.0
H531 H 0.10578 0.2945 0.78857 0.0
H532 H 0.16581 0.14978 0.91994 0.0
H533 H 0.25919 0.32566 0.88612 0.0
H534 H 0.14975 0.06196 0.8184 0.0
H535 H 0.09478 0.10282 0.8392 0.0
H536 H 0.14536 0.05172 0.87196 0.0
H537 H 0.27467 0.27029 0.78941 0.0
H538 H 0.26953 0.3496 0.81866 0.0
H539 H 0.21263 0.3209 0.78104 0.0
C540 C 0.7732 0.66738 0.79339 0.0
C541 C 0.81573 0.70328 0.81833 0.0
C542 C 0.76828 0.67178 0.75059 0.0
C543 C 0.80827 0.70997 0.73334 0.0
C544 C 0.85743 0.73099 0.7587 0.0
C545 C 0.86125 0.72521 0.80132 0.0
C546 C 0.7165 0.64509 0.72453 0.0
C547 C 0.9019 0.77039 0.7417 0.0
C548 C 0.8006 0.73447 0.61895 0.0
C549 C 0.77366 0.80018 0.61214 0.0
C550 C 0.81059 0.70317 0.65788 0.0
C551 C 0.79459 0.73942 0.69115 0.0
C552 C 0.7669 0.80571 0.68446 0.0
C553 C 0.75571 0.83474 0.64468 0.0
C554 C 0.83863 0.63174 0.6634 0.0
C555 C 0.7498 0.84646 0.71942 0.0
H556 H 0.73863 0.64814 0.80664 0.0
H557 H 0.89496 0.75116 0.82089 0.0
H558 H 0.68709 0.68972 0.71774 0.0
H559 H 0.72483 0.62411 0.69492 0.0
H560 H 0.69673 0.60287 0.74056 0.0
H561 H 0.94112 0.7702 0.76361 0.0
H562 H 0.90906 0.74719 0.71236 0.0
H563 H 0.88898 0.82639 0.73564 0.0
H564 H 0.81344 0.7069 0.59345 0.0
H565 H 0.7345 0.8851 0.63925 0.0
H566 H 0.81417 0.59428 0.67902 0.0
H567 H 0.87921 0.63713 0.68317 0.0
H568 H 0.84473 0.60823 0.63377 0.0
H569 H 0.71749 0.81654 0.73183 0.0
H570 H 0.73384 0.90006 0.70977 0.0
H571 H 0.78503 0.85274 0.74465 0.0
C572 C 0.86507 0.77563 0.31012 0.0
C573 C 0.81886 0.80412 0.3237 0.0
C574 C 0.8672 0.77088 0.26811 0.0
C575 C 0.82372 0.79945 0.23946 0.0
C576 C 0.78339 0.84158 0.25373 0.0
C577 C 0.78144 0.84354 0.29598 0.0
C578 C 0.91138 0.72587 0.25467 0.0
C579 C 0.73817 0.87683 0.22434 0.0
C580 C 0.83397 0.7837 0.12627 0.0
C581 C 0.79999 0.72504 0.11433 0.0
C582 C 0.84121 0.80969 0.16652 0.0
C583 C 0.81527 0.7748 0.19603 0.0
C584 C 0.78168 0.7146 0.18431 0.0
C585 C 0.77355 0.69137 0.14338 0.0
C586 C 0.87517 0.87574 0.17707 0.0
C587 C 0.75432 0.67456 0.21505 0.0
H588 H 0.8945 0.74587 0.33165 0.0
H589 H 0.74594 0.86657 0.30626 0.0
H590 H 0.89419 0.6728 0.24545 0.0
H591 H 0.92621 0.74958 0.22782 0.0
H592 H 0.94686 0.71846 0.2797 0.0
H593 H 0.71846 0.92002 0.23942 0.0
H594 H 0.75399 0.89906 0.19748 0.0
H595 H 0.70634 0.83691 0.21296 0.0
H596 H 0.85339 0.81115 0.10361 0.0
H597 H 0.74697 0.6465 0.13417 0.0
H598 H 0.90695 0.86647 0.20437 0.0
H599 H 0.84843 0.91909 0.18487 0.0
H600 H 0.89554 0.89389 0.15136 0.0
H601 H 0.78535 0.65781 0.24153 0.0
H602 H 0.73211 0.6267 0.20161 0.0
H603 H 0.72468 0.70966 0.22697 0.0
C604 C 0.14696 0.21086 0.37421 0.0
C605 C 0.18626 0.16128 0.39217 0.0
C606 C 0.1405 0.22731 0.3323 0.0
C607 C 0.1731 0.19202 0.30743 0.0
C608 C 0.21009 0.13836 0.32483 0.0
C609 C 0.21708 0.12455 0.3672 0.0
C610 C 0.10108 0.28533 0.3152 0.0
C611 C 0.2431 0.0968 0.29871 0.0
C612 C 0.14302 0.20414 0.19085 0.0
C613 C 0.18354 0.25197 0.18326 0.0
C614 C 0.13746 0.1858 0.23124 0.0
C615 C 0.1732 0.21645 0.2645 0.0
C616 C 0.21217 0.26778 0.25667 0.0
C617 C 0.2173 0.28417 0.21612 0.0
C618 C 0.09594 0.13023 0.2381 0.0
C619 C 0.25089 0.30212 0.29112 0.0
H620 H 0.1232 0.23992 0.39338 0.0
H621 H 0.24699 0.08566 0.38084 0.0
H622 H 0.12449 0.33182 0.30671 0.0
H623 H 0.07421 0.26714 0.28696 0.0
H624 H 0.07498 0.30283 0.33755 0.0
H625 H 0.2726 0.05999 0.31706 0.0
H626 H 0.21509 0.06535 0.27593 0.0
H627 H 0.26567 0.13367 0.28134 0.0
H628 H 0.11811 0.17767 0.16527 0.0
H629 H 0.24947 0.31984 0.21003 0.0
H630 H 0.07359 0.14621 0.26301 0.0
H631 H 0.11745 0.07972 0.24763 0.0
H632 H 0.06574 0.12024 0.20992 0.0
H633 H 0.22783 0.32367 0.31436 0.0
H634 H 0.27497 0.34582 0.28008 0.0
H635 H 0.27989 0.2617 0.30658 0.0
loop_
_geom_bond_atom_site_label_1
_geom_bond_atom_site_label_2
_geom_bond_distance
_geom_bond_site_symmetry_2
_ccdc_geom_bond_type
C0 O27 1.312 . S
C0 O28 1.208 . S
C1 O22 1.331 . S
C1 O25 1.244 . S
C2 O24 1.284 . S
C2 O26 1.278 . S
Mg3 O5 1.936 1_565 S
Mg3 O12 2.081 . S
Mg3 O14 2.023 . S
Mg3 O18 2.031 . S
Mg3 O27 2.291 1_565 S
Mg4 O5 1.963 1_565 S
Mg4 O15 1.942 . S
Mg4 O16 1.955 . S
Mg4 O23 1.986 . S
O5 Mg3 1.936 1_545 S
O5 Mg4 1.963 1_545 S
O5 Mg6 1.915 . S
Mg6 O5 1.915 . S
Mg6 O7 1.915 . S
Mg6 O11 2.013 . S
Mg6 O17 2.114 . S
Mg6 O21 2.013 . S
Mg6 O27 2.114 . S
O7 Mg6 1.915 . S
O7 Mg8 1.936 . S
O7 Mg9 1.963 . S
Mg8 O7 1.936 . S
Mg8 O17 2.291 . S
Mg8 O22 2.081 . S
Mg8 O24 2.023 . S
Mg8 O28 2.031 . S
Mg9 O7 1.963 . S
Mg9 O13 1.986 . S
Mg9 O25 1.942 . S
Mg9 O26 1.955 . S
C10 O21 1.191 . S
C10 O23 1.307 1_545 S
O11 Mg6 2.013 . S
O11 C30 1.191 . S
O12 Mg3 2.081 . S
O12 C20 1.331 . S
O13 Mg9 1.986 . S
O13 C30 1.307 . S
O14 Mg3 2.023 . S
O14 C29 1.264 . S
O15 Mg4 1.942 . S
O15 C20 1.244 . S
O16 Mg4 1.955 . S
O16 C29 1.273 . S
O17 Mg6 2.114 . S
O17 Mg8 2.291 . S
O17 C19 1.312 . S
O18 Mg3 2.031 . S
O18 C19 1.208 1_565 S
C19 O17 1.312 . S
C19 O18 1.208 1_545 S
C20 O12 1.331 . S
C20 O15 1.244 . S
O21 Mg6 2.013 . S
O21 C10 1.191 . S
O22 C1 1.331 . S
O22 Mg8 2.081 . S
O23 Mg4 1.986 . S
O23 C10 1.307 1_565 S
O24 C2 1.284 . S
O24 Mg8 2.023 . S
O25 C1 1.244 . S
O25 Mg9 1.942 . S
O26 C2 1.278 . S
O26 Mg9 1.955 . S
O27 C0 1.312 . S
O27 Mg3 2.291 1_545 S
O27 Mg6 2.114 . S
O28 C0 1.208 . S
O28 Mg8 2.031 . S
C29 O14 1.264 . S
C29 O16 1.273 . S
C30 O11 1.191 . S
C30 O13 1.307 . S
C31 O58 1.312 . S
C31 O59 1.208 . S
C32 O53 1.331 . S
C32 O56 1.244 . S
C33 O55 1.264 . S
C33 O57 1.273 . S
Mg34 O36 1.936 . S
Mg34 O43 2.081 . S
Mg34 O45 2.023 . S
Mg34 O49 2.031 . S
Mg34 O58 2.291 . S
Mg35 O36 1.963 . S
Mg35 O46 1.942 . S
Mg35 O47 1.955 . S
Mg35 O54 1.986 . S
O36 Mg34 1.936 . S
O36 Mg35 1.963 . S
O36 Mg37 1.915 . S
Mg37 O36 1.915 . S
Mg37 O38 1.915 . S
Mg37 O42 2.013 . S
Mg37 O48 2.114 . S
Mg37 O52 2.013 . S
Mg37 O58 2.114 . S
O38 Mg37 1.915 . S
O38 Mg39 1.936 . S
O38 Mg40 1.963 . S
Mg39 O38 1.936 . S
Mg39 O48 2.291 . S
Mg39 O53 2.081 . S
Mg39 O55 2.023 . S
Mg39 O59 2.031 . S
Mg40 O38 1.963 . S
Mg40 O44 1.986 . S
Mg40 O56 1.942 . S
Mg40 O57 1.955 . S
C41 O52 1.191 . S
C41 O54 1.307 . S
O42 Mg37 2.013 . S
O42 C61 1.191 . S
O43 Mg34 2.081 . S
O43 C51 1.331 . S
O44 Mg40 1.986 . S
O44 C61 1.307 . S
O45 Mg34 2.023 . S
O45 C60 1.264 . S
O46 Mg35 1.942 . S
O46 C51 1.244 . S
O47 Mg35 1.955 . S
O47 C60 1.273 . S
O48 Mg37 2.114 . S
O48 Mg39 2.291 . S
O48 C50 1.312 . S
O49 Mg34 2.031 . S
O49 C50 1.208 . S
C50 O48 1.312 . S
C50 O49 1.208 . S
C51 O43 1.331 . S
C51 O46 1.244 . S
O52 Mg37 2.013 . S
O52 C41 1.191 . S
O53 C32 1.331 . S
O53 Mg39 2.081 . S
O54 Mg35 1.986 . S
O54 C41 1.307 . S
O55 C33 1.264 . S
O55 Mg39 2.023 . S
O56 C32 1.244 . S
O56 Mg40 1.942 . S
O57 C33 1.273 . S
O57 Mg40 1.955 . S
O58 C31 1.312 . S
O58 Mg34 2.291 . S
O58 Mg37 2.114 . S
O59 C31 1.208 . S
O59 Mg39 2.031 . S
C60 O45 1.264 . S
C60 O47 1.273 . S
C61 O42 1.191 . S
C61 O44 1.307 . S
C62 O89 1.312 . S
C62 O90 1.208 . S
C63 O84 1.331 1_554 S
C63 O87 1.244 1_554 S
C64 O86 1.264 . S
C64 O88 1.273 . S
Mg65 O67 1.936 1_545 S
Mg65 O74 2.081 . S
Mg65 O76 2.023 . S
Mg65 O80 2.031 1_545 S
Mg65 O89 2.291 1_545 S
Mg66 O67 1.963 1_545 S
Mg66 O77 1.942 . S
Mg66 O78 1.955 . S
Mg66 O85 1.986 1_545 S
O67 Mg65 1.936 1_565 S
O67 Mg66 1.963 1_565 S
O67 Mg68 1.915 . S
Mg68 O67 1.915 . S
Mg68 O69 1.915 . S
Mg68 O73 2.013 . S
Mg68 O79 2.114 . S
Mg68 O83 2.013 . S
Mg68 O89 2.114 . S
O69 Mg68 1.915 . S
O69 Mg70 1.936 . S
O69 Mg71 1.963 . S
Mg70 O69 1.936 . S
Mg70 O79 2.291 . S
Mg70 O84 2.081 . S
Mg70 O86 2.023 . S
Mg70 O90 2.031 . S
Mg71 O69 1.963 . S
Mg71 O75 1.986 . S
Mg71 O87 1.942 . S
Mg71 O88 1.955 . S
C72 O83 1.191 . S
C72 O85 1.307 . S
O73 Mg68 2.013 . S
O73 C92 1.191 . S
O74 Mg65 2.081 . S
O74 C82 1.331 . S
O75 Mg71 1.986 . S
O75 C92 1.307 . S
O76 Mg65 2.023 . S
O76 C91 1.264 . S
O77 Mg66 1.942 . S
O77 C82 1.244 . S
O78 Mg66 1.955 . S
O78 C91 1.273 . S
O79 Mg68 2.114 . S
O79 Mg70 2.291 . S
O79 C81 1.312 . S
O80 Mg65 2.031 1_565 S
O80 C81 1.208 . S
C81 O79 1.312 . S
C81 O80 1.208 . S
C82 O74 1.331 . S
C82 O77 1.244 . S
O83 Mg68 2.013 . S
O83 C72 1.191 . S
O84 C63 1.331 1_556 S
O84 Mg70 2.081 . S
O85 Mg66 1.986 1_565 S
O85 C72 1.307 . S
O86 C64 1.264 . S
O86 Mg70 2.023 . S
O87 C63 1.244 1_556 S
O87 Mg71 1.942 . S
O88 C64 1.273 . S
O88 Mg71 1.955 . S
O89 C62 1.312 . S
O89 Mg65 2.291 1_565 S
O89 Mg68 2.114 . S
O90 C62 1.208 . S
O90 Mg70 2.031 . S
C91 O76 1.264 . S
C91 O78 1.273 . S
C92 O73 1.191 . S
C92 O75 1.307 . S
C93 O120 1.312 . S
C93 O121 1.208 . S
C94 O115 1.331 . S
C94 O118 1.244 . S
C95 O117 1.264 . S
C95 O119 1.273 . S
Mg96 O98 1.936 . S
Mg96 O105 2.081 . S
Mg96 O107 2.023 . S
Mg96 O111 2.031 . S
Mg96 O120 2.291 . S
Mg97 O98 1.963 . S
Mg97 O108 1.942 . S
Mg97 O109 1.955 . S
Mg97 O116 1.986 . S
O98 Mg96 1.936 . S
O98 Mg97 1.963 . S
O98 Mg99 1.915 . S
Mg99 O98 1.915 . S
Mg99 O100 1.915 . S
Mg99 O104 2.013 . S
Mg99 O110 2.114 . S
Mg99 O114 2.013 . S
Mg99 O120 2.114 . S
O100 Mg99 1.915 . S
O100 Mg101 1.936 . S
O100 Mg102 1.963 . S
Mg101 O100 1.936 . S
Mg101 O110 2.291 . S
Mg101 O115 2.081 . S
Mg101 O117 2.023 . S
Mg101 O121 2.031 . S
Mg102 O100 1.963 . S
Mg102 O106 1.986 . S
Mg102 O118 1.942 . S
Mg102 O119 1.955 . S
C103 O114 1.191 . S
C103 O116 1.307 . S
O104 Mg99 2.013 . S
O104 C123 1.191 . S
O105 Mg96 2.081 . S
O105 C113 1.331 . S
O106 Mg102 1.986 . S
O106 C123 1.307 . S
O107 Mg96 2.023 . S
O107 C122 1.264 . S
O108 Mg97 1.942 . S
O108 C113 1.244 . S
O109 Mg97 1.955 . S
O109 C122 1.273 . S
O110 Mg99 2.114 . S
O110 Mg101 2.291 . S
O110 C112 1.312 . S
O111 Mg96 2.031 . S
O111 C112 1.208 . S
C112 O110 1.312 . S
C112 O111 1.208 . S
C113 O105 1.331 . S
C113 O108 1.244 . S
O114 Mg99 2.013 . S
O114 C103 1.191 . S
O115 C94 1.331 . S
O115 Mg101 2.081 . S
O116 Mg97 1.986 . S
O116 C103 1.307 . S
O117 C95 1.264 . S
O117 Mg101 2.023 . S
O118 C94 1.244 . S
O118 Mg102 1.942 . S
O119 C95 1.273 . S
O119 Mg102 1.955 . S
O120 C93 1.312 . S
O120 Mg96 2.291 . S
O120 Mg99 2.114 . S
O121 C93 1.208 . S
O121 Mg101 2.031 . S
C122 O107 1.264 . S
C122 O109 1.273 . S
C123 O104 1.191 . S
C123 O106 1.307 . S
C124 C125 1.391 . S
C124 C126 1.394 . S
C124 H140 0.931 . S
C125 C124 1.391 . S
C125 C129 1.376 . S
C126 C124 1.394 . S
C126 C127 1.369 . S
C126 C130 1.531 . S
C127 C126 1.369 . S
C127 C128 1.410 . S
C127 C135 1.503 . S
C128 C127 1.410 . S
C128 C129 1.392 . S
C128 C131 1.511 . S
C129 C125 1.376 . S
C129 C128 1.392 . S
C129 H141 0.929 . S
C130 C126 1.531 . S
C130 H142 0.960 . S
C130 H143 0.962 . S
C130 H144 0.960 . S
C131 C128 1.511 . S
C131 H145 0.961 . S
C131 H146 0.961 . S
C131 H147 0.961 . S
C132 C133 1.370 . S
C132 C134 1.363 . S
C132 H148 0.931 . S
C133 C132 1.370 . S
C133 C137 1.408 . S
C134 C132 1.363 . S
C134 C135 1.370 . S
C134 C138 1.524 . S
C135 C127 1.503 . S
C135 C134 1.370 . S
C135 C136 1.403 . S
C136 C135 1.403 . S
C136 C137 1.404 . S
C136 C139 1.539 . S
C137 C133 1.408 . S
C137 C136 1.404 . S
C137 H149 0.930 . S
C138 C134 1.524 . S
C138 H150 0.956 . S
C138 H151 0.961 . S
C138 H152 0.961 . S
C139 C136 1.539 . S
C139 H153 0.958 . S
C139 H154 0.961 . S
C139 H155 0.960 . S
H140 C124 0.931 . S
H141 C129 0.929 . S
H142 C130 0.960 . S
H143 C130 0.962 . S
H144 C130 0.960 . S
H145 C131 0.961 . S
H146 C131 0.961 . S
H147 C131 0.961 . S
H148 C132 0.931 . S
H149 C137 0.930 . S
H150 C138 0.956 . S
H151 C138 0.961 . S
H152 C138 0.961 . S
H153 C139 0.958 . S
H154 C139 0.961 . S
H155 C139 0.960 . S
C156 C157 1.391 . S
C156 C158 1.394 1_565 S
C156 H172 0.931 . S
C157 C156 1.391 . S
C157 C161 1.376 . S
C158 C156 1.394 1_545 S
C158 C159 1.369 . S
C158 C162 1.531 . S
C159 C158 1.369 . S
C159 C160 1.410 . S
C159 C167 1.503 . S
C160 C159 1.410 . S
C160 C161 1.392 1_545 S
C160 C163 1.511 . S
C161 C157 1.376 . S
C161 C160 1.392 1_565 S
C161 H173 0.929 . S
C162 C158 1.531 . S
C162 H174 0.960 . S
C162 H175 0.962 . S
C162 H176 0.960 . S
C163 C160 1.511 . S
C163 H177 0.961 . S
C163 H178 0.961 . S
C163 H179 0.961 . S
C164 C165 1.370 . S
C164 C166 1.363 . S
C164 H180 0.931 . S
C165 C164 1.370 . S
C165 C169 1.408 . S
C166 C164 1.363 . S
C166 C167 1.370 . S
C166 C170 1.524 . S
C167 C159 1.503 . S
C167 C166 1.370 . S
C167 C168 1.403 . S
C168 C167 1.403 . S
C168 C169 1.404 . S
C168 C171 1.539 . S
C169 C165 1.408 . S
C169 C168 1.404 . S
C169 H181 0.930 . S
C170 C166 1.524 . S
C170 H182 0.956 . S
C170 H183 0.961 . S
C170 H184 0.961 . S
C171 C168 1.539 . S
C171 H185 0.958 . S
C171 H186 0.961 . S
C171 H187 0.960 . S
H172 C156 0.931 . S
H173 C161 0.929 . S
H174 C162 0.960 . S
H175 C162 0.962 . S
H176 C162 0.960 . S
H177 C163 0.961 . S
H178 C163 0.961 . S
H179 C163 0.961 . S
H180 C164 0.931 . S
H181 C169 0.930 . S
H182 C170 0.956 . S
H183 C170 0.961 . S
H184 C170 0.961 . S
H185 C171 0.958 . S
H186 C171 0.961 . S
H187 C171 0.960 . S
C188 C189 1.391 . S
C188 C190 1.394 . S
C188 H204 0.931 . S
C189 C188 1.391 . S
C189 C193 1.376 . S
C190 C188 1.394 . S
C190 C191 1.369 . S
C190 C194 1.531 . S
C191 C190 1.369 . S
C191 C192 1.410 . S
C191 C199 1.503 . S
C192 C191 1.410 . S
C192 C193 1.392 . S
C192 C195 1.511 . S
C193 C189 1.376 . S
C193 C192 1.392 . S
C193 H205 0.929 . S
C194 C190 1.531 . S
C194 H206 0.960 . S
C194 H207 0.962 . S
C194 H208 0.960 . S
C195 C192 1.511 . S
C195 H209 0.961 . S
C195 H210 0.961 . S
C195 H211 0.961 . S
C196 C197 1.370 . S
C196 C198 1.363 . S
C196 H212 0.931 . S
C197 C196 1.370 . S
C197 C201 1.408 . S
C198 C196 1.363 . S
C198 C199 1.370 . S
C198 C202 1.524 . S
C199 C191 1.503 . S
C199 C198 1.370 . S
C199 C200 1.403 . S
C200 C199 1.403 . S
C200 C201 1.404 . S
C200 C203 1.539 . S
C201 C197 1.408 . S
C201 C200 1.404 . S
C201 H213 0.930 . S
C202 C198 1.524 . S
C202 H214 0.956 . S
C202 H215 0.961 . S
C202 H216 0.961 . S
C203 C200 1.539 . S
C203 H217 0.958 . S
C203 H218 0.961 . S
C203 H219 0.960 . S
H204 C188 0.931 . S
H205 C193 0.929 . S
H206 C194 0.960 . S
H207 C194 0.962 . S
H208 C194 0.960 . S
H209 C195 0.961 . S
H210 C195 0.961 . S
H211 C195 0.961 . S
H212 C196 0.931 . S
H213 C201 0.930 . S
H214 C202 0.956 . S
H215 C202 0.961 . S
H216 C202 0.961 . S
H217 C203 0.958 . S
H218 C203 0.961 . S
H219 C203 0.960 . S
C220 C221 1.391 . S
C220 C222 1.394 1_545 S
C220 H236 0.931 . S
C221 C220 1.391 . S
C221 C225 1.376 . S
C222 C220 1.394 1_565 S
C222 C223 1.369 . S
C222 C226 1.531 . S
C223 C222 1.369 . S
C223 C224 1.410 . S
C223 C231 1.503 . S
C224 C223 1.410 . S
C224 C225 1.392 1_565 S
C224 C227 1.511 . S
C225 C221 1.376 . S
C225 C224 1.392 1_545 S
C225 H237 0.929 . S
C226 C222 1.531 . S
C226 H238 0.960 . S
C226 H239 0.962 . S
C226 H240 0.960 . S
C227 C224 1.511 . S
C227 H241 0.961 . S
C227 H242 0.961 . S
C227 H243 0.961 . S
C228 C229 1.370 . S
C228 C230 1.363 . S
C228 H244 0.931 . S
C229 C228 1.370 . S
C229 C233 1.408 . S
C230 C228 1.363 . S
C230 C231 1.370 . S
C230 C234 1.524 . S
C231 C223 1.503 . S
C231 C230 1.370 . S
C231 C232 1.403 . S
C232 C231 1.403 . S
C232 C233 1.404 . S
C232 C235 1.539 . S
C233 C229 1.408 . S
C233 C232 1.404 . S
C233 H245 0.930 . S
C234 C230 1.524 . S
C234 H246 0.956 . S
C234 H247 0.961 . S
C234 H248 0.961 . S
C235 C232 1.539 . S
C235 H249 0.958 . S
C235 H250 0.961 . S
C235 H251 0.960 . S
H236 C220 0.931 . S
H237 C225 0.929 . S
H238 C226 0.960 . S
H239 C226 0.962 . S
H240 C226 0.960 . S
H241 C227 0.961 . S
H242 C227 0.961 . S
H243 C227 0.961 . S
H244 C228 0.931 . S
H245 C233 0.930 . S
H246 C234 0.956 . S
H247 C234 0.961 . S
H248 C234 0.961 . S
H249 C235 0.958 . S
H250 C235 0.961 . S
H251 C235 0.960 . S
C252 C253 1.391 . S
C252 C254 1.394 . S
C252 H268 0.931 . S
C253 C252 1.391 . S
C253 C257 1.376 . S
C254 C252 1.394 . S
C254 C255 1.369 . S
C254 C258 1.531 . S
C255 C254 1.369 . S
C255 C256 1.410 . S
C255 C263 1.503 . S
C256 C255 1.410 . S
C256 C257 1.392 . S
C256 C259 1.511 . S
C257 C253 1.376 . S
C257 C256 1.392 . S
C257 H269 0.929 . S
C258 C254 1.531 . S
C258 H270 0.960 . S
C258 H271 0.962 . S
C258 H272 0.960 . S
C259 C256 1.511 . S
C259 H273 0.961 . S
C259 H274 0.961 . S
C259 H275 0.961 . S
C260 C261 1.370 . S
C260 C262 1.363 . S
C260 H276 0.931 . S
C261 C260 1.370 . S
C261 C265 1.408 . S
C262 C260 1.363 . S
C262 C263 1.370 . S
C262 C266 1.524 . S
C263 C255 1.503 . S
C263 C262 1.370 . S
C263 C264 1.403 . S
C264 C263 1.403 . S
C264 C265 1.404 . S
C264 C267 1.539 . S
C265 C261 1.408 . S
C265 C264 1.404 . S
C265 H277 0.930 . S
C266 C262 1.524 . S
C266 H278 0.956 . S
C266 H279 0.961 . S
C266 H280 0.961 . S
C267 C264 1.539 . S
C267 H281 0.958 . S
C267 H282 0.961 . S
C267 H283 0.960 . S
H268 C252 0.931 . S
H269 C257 0.929 . S
H270 C258 0.960 . S
H271 C258 0.962 . S
H272 C258 0.960 . S
H273 C259 0.961 . S
H274 C259 0.961 . S
H275 C259 0.961 . S
H276 C260 0.931 . S
H277 C265 0.930 . S
H278 C266 0.956 . S
H279 C266 0.961 . S
H280 C266 0.961 . S
H281 C267 0.958 . S
H282 C267 0.961 . S
H283 C267 0.960 . S
C284 C285 1.391 . S
C284 C286 1.394 . S
C284 H300 0.931 . S
C285 C284 1.391 . S
C285 C289 1.376 . S
C286 C284 1.394 . S
C286 C287 1.369 . S
C286 C290 1.531 . S
C287 C286 1.369 . S
C287 C288 1.410 . S
C287 C295 1.503 . S
C288 C287 1.410 . S
C288 C289 1.392 . S
C288 C291 1.511 . S
C289 C285 1.376 . S
C289 C288 1.392 . S
C289 H301 0.929 . S
C290 C286 1.531 . S
C290 H302 0.960 . S
C290 H303 0.962 . S
C290 H304 0.960 . S
C291 C288 1.511 . S
C291 H305 0.961 . S
C291 H306 0.961 . S
C291 H307 0.961 . S
C292 C293 1.370 . S
C292 C294 1.363 . S
C292 H308 0.931 . S
C293 C292 1.370 . S
C293 C297 1.408 . S
C294 C292 1.363 . S
C294 C295 1.370 . S
C294 C298 1.524 . S
C295 C287 1.503 . S
C295 C294 1.370 . S
C295 C296 1.403 . S
C296 C295 1.403 . S
C296 C297 1.404 . S
C296 C299 1.539 . S
C297 C293 1.408 . S
C297 C296 1.404 . S
C297 H309 0.930 . S
C298 C294 1.524 . S
C298 H310 0.956 . S
C298 H311 0.961 . S
C298 H312 0.961 . S
C299 C296 1.539 . S
C299 H313 0.958 . S
C299 H314 0.961 . S
C299 H315 0.960 . S
H300 C284 0.931 . S
H301 C289 0.929 . S
H302 C290 0.960 . S
H303 C290 0.962 . S
H304 C290 0.960 . S
H305 C291 0.961 . S
H306 C291 0.961 . S
H307 C291 0.961 . S
H308 C292 0.931 . S
H309 C297 0.930 . S
H310 C298 0.956 . S
H311 C298 0.961 . S
H312 C298 0.961 . S
H313 C299 0.958 . S
H314 C299 0.961 . S
H315 C299 0.960 . S
C316 C317 1.391 . S
C316 C318 1.394 . S
C316 H332 0.931 . S
C317 C316 1.391 . S
C317 C321 1.376 . S
C318 C316 1.394 . S
C318 C319 1.369 . S
C318 C322 1.531 . S
C319 C318 1.369 . S
C319 C320 1.410 . S
C319 C327 1.503 . S
C320 C319 1.410 . S
C320 C321 1.392 . S
C320 C323 1.511 . S
C321 C317 1.376 . S
C321 C320 1.392 . S
C321 H333 0.929 . S
C322 C318 1.531 . S
C322 H334 0.960 . S
C322 H335 0.962 . S
C322 H336 0.960 . S
C323 C320 1.511 . S
C323 H337 0.961 . S
C323 H338 0.961 . S
C323 H339 0.961 . S
C324 C325 1.370 . S
C324 C326 1.363 . S
C324 H340 0.931 . S
C325 C324 1.370 . S
C325 C329 1.408 . S
C326 C324 1.363 . S
C326 C327 1.370 . S
C326 C330 1.524 . S
C327 C319 1.503 . S
C327 C326 1.370 . S
C327 C328 1.403 . S
C328 C327 1.403 . S
C328 C329 1.404 . S
C328 C331 1.539 . S
C329 C325 1.408 . S
C329 C328 1.404 . S
C329 H341 0.930 1_545 S
C330 C326 1.524 . S
C330 H342 0.956 . S
C330 H343 0.961 . S
C330 H344 0.961 . S
C331 C328 1.539 . S
C331 H345 0.958 . S
C331 H346 0.961 . S
C331 H347 0.960 . S
H332 C316 0.931 . S
H333 C321 0.929 . S
H334 C322 0.960 . S
H335 C322 0.962 . S
H336 C322 0.960 . S
H337 C323 0.961 . S
H338 C323 0.961 . S
H339 C323 0.961 . S
H340 C324 0.931 . S
H341 C329 0.930 1_565 S
H342 C330 0.956 . S
H343 C330 0.961 . S
H344 C330 0.961 . S
H345 C331 0.958 . S
H346 C331 0.961 . S
H347 C331 0.960 . S
C348 C349 1.391 . S
C348 C350 1.394 . S
C348 H364 0.931 . S
C349 C348 1.391 . S
C349 C353 1.376 . S
C350 C348 1.394 . S
C350 C351 1.369 . S
C350 C354 1.531 . S
C351 C350 1.369 . S
C351 C352 1.410 . S
C351 C359 1.503 . S
C352 C351 1.410 . S
C352 C353 1.392 . S
C352 C355 1.511 . S
C353 C349 1.376 . S
C353 C352 1.392 . S
C353 H365 0.929 . S
C354 C350 1.531 . S
C354 H366 0.960 . S
C354 H367 0.962 . S
C354 H368 0.960 . S
C355 C352 1.511 . S
C355 H369 0.961 . S
C355 H370 0.961 . S
C355 H371 0.961 . S
C356 C357 1.370 . S
C356 C358 1.363 . S
C356 H372 0.931 . S
C357 C356 1.370 . S
C357 C361 1.408 . S
C358 C356 1.363 . S
C358 C359 1.370 . S
C358 C362 1.524 . S
C359 C351 1.503 . S
C359 C358 1.370 . S
C359 C360 1.403 . S
C360 C359 1.403 . S
C360 C361 1.404 . S
C360 C363 1.539 . S
C361 C357 1.408 . S
C361 C360 1.404 . S
C361 H373 0.930 . S
C362 C358 1.524 . S
C362 H374 0.956 . S
C362 H375 0.961 . S
C362 H376 0.961 . S
C363 C360 1.539 . S
C363 H377 0.958 . S
C363 H378 0.961 . S
C363 H379 0.960 . S
H364 C348 0.931 . S
H365 C353 0.929 . S
H366 C354 0.960 . S
H367 C354 0.962 . S
H368 C354 0.960 . S
H369 C355 0.961 . S
H370 C355 0.961 . S
H371 C355 0.961 . S
H372 C356 0.931 . S
H373 C361 0.930 . S
H374 C362 0.956 . S
H375 C362 0.961 . S
H376 C362 0.961 . S
H377 C363 0.958 . S
H378 C363 0.961 . S
H379 C363 0.960 . S
C380 C381 1.391 1_565 S
C380 C382 1.394 1_554 S
C380 H396 0.931 1_554 S
C381 C380 1.391 1_545 S
C381 C385 1.376 . S
C382 C380 1.394 1_556 S
C382 C383 1.369 1_556 S
C382 C386 1.531 . S
C383 C382 1.369 1_554 S
C383 C384 1.410 1_565 S
C383 C391 1.503 1_454 S
C384 C383 1.410 1_545 S
C384 C385 1.392 . S
C384 C387 1.511 1_455 S
C385 C381 1.376 . S
C385 C384 1.392 . S
C385 H397 0.929 . S
C386 C382 1.531 . S
C386 H398 0.960 . S
C386 H399 0.962 . S
C386 H400 0.960 . S
C387 C384 1.511 1_655 S
C387 H401 0.961 1_655 S
C387 H402 0.961 . S
C387 H403 0.961 1_545 S
C388 C389 1.370 1_545 S
C388 C390 1.363 . S
C388 H404 0.931 . S
C389 C388 1.370 1_565 S
C389 C393 1.408 . S
C390 C388 1.363 . S
C390 C391 1.370 1_545 S
C390 C394 1.524 . S
C391 C383 1.503 1_656 S
C391 C390 1.370 1_565 S
C391 C392 1.403 . S
C392 C391 1.403 . S
C392 C393 1.404 . S
C392 C395 1.539 1_556 S
C393 C389 1.408 . S
C393 C392 1.404 . S
C393 H405 0.930 . S
C394 C390 1.524 . S
C394 H406 0.956 1_655 S
C394 H407 0.961 . S
C394 H408 0.961 . S
C395 C392 1.539 1_554 S
C395 H409 0.958 . S
C395 H410 0.961 . S
C395 H411 0.953 1_655 S
H396 C380 0.931 1_556 S
H397 C385 0.929 . S
H398 C386 0.960 . S
H399 C386 0.962 . S
H400 C386 0.960 . S
H401 C387 0.961 1_455 S
H402 C387 0.961 . S
H403 C387 0.961 1_565 S
H404 C388 0.931 . S
H405 C393 0.930 . S
H406 C394 0.956 1_455 S
H407 C394 0.961 . S
H408 C394 0.961 . S
H409 C395 0.958 . S
H410 C395 0.961 . S
H411 C395 0.953 1_455 S
C412 C413 1.391 . S
C412 C414 1.394 . S
C412 H428 0.931 . S
C413 C412 1.391 . S
C413 C417 1.376 . S
C414 C412 1.394 . S
C414 C415 1.369 . S
C414 C418 1.531 . S
C415 C414 1.369 . S
C415 C416 1.410 . S
C415 C423 1.503 1_455 S
C416 C415 1.410 . S
C416 C417 1.392 . S
C416 C419 1.511 . S
C417 C413 1.376 . S
C417 C416 1.392 . S
C417 H429 0.929 . S
C418 C414 1.531 . S
C418 H430 0.960 . S
C418 H431 0.962 . S
C418 H432 0.960 . S
C419 C416 1.511 . S
C419 H433 0.960 . S
C419 H434 0.962 1_455 S
C419 H435 0.961 1_455 S
C420 C421 1.370 . S
C420 C422 1.363 . S
C420 H436 0.931 . S
C421 C420 1.370 . S
C421 C425 1.408 . S
C422 C420 1.363 . S
C422 C423 1.370 . S
C422 C426 1.519 1_655 S
C423 C415 1.503 1_655 S
C423 C422 1.370 . S
C423 C424 1.403 . S
C424 C423 1.403 . S
C424 C425 1.404 . S
C424 C427 1.539 . S
C425 C421 1.408 . S
C425 C424 1.404 . S
C425 H437 0.930 . S
C426 C422 1.519 1_455 S
C426 H438 0.962 . S
C426 H439 0.963 . S
C426 H440 0.958 1_455 S
C427 C424 1.539 . S
C427 H441 0.958 . S
C427 H442 0.961 . S
C427 H443 0.960 . S
H428 C412 0.931 . S
H429 C417 0.929 . S
H430 C418 0.960 . S
H431 C418 0.962 . S
H432 C418 0.960 . S
H433 C419 0.960 . S
H434 C419 0.962 1_655 S
H435 C419 0.961 1_655 S
H436 C420 0.931 . S
H437 C425 0.930 . S
H438 C426 0.962 . S
H439 C426 0.963 . S
H440 C426 0.958 1_655 S
H441 C427 0.958 . S
H442 C427 0.961 . S
H443 C427 0.960 . S
C444 C445 1.391 1_556 S
C444 C446 1.394 . S
C444 H460 0.931 . S
C445 C444 1.391 1_554 S
C445 C449 1.376 . S
C446 C444 1.394 . S
C446 C447 1.378 . S
C446 C450 1.531 1_545 S
C447 C446 1.378 . S
C447 C448 1.393 1_556 S
C447 C455 1.513 . S
C448 C447 1.393 1_554 S
C448 C449 1.392 . S
C448 C451 1.511 . S
C449 C445 1.376 . S
C449 C448 1.392 . S
C449 H461 0.929 . S
C450 C446 1.531 1_565 S
C450 H462 0.960 . S
C450 H463 0.962 . S
C450 H464 0.960 . S
C451 C448 1.511 . S
C451 H465 0.961 . S
C451 H466 0.961 . S
C451 H467 0.961 . S
C452 C453 1.370 . S
C452 C454 1.363 1_556 S
C452 H468 0.931 . S
C453 C452 1.370 . S
C453 C457 1.408 1_565 S
C454 C452 1.363 1_554 S
C454 C455 1.359 1_564 S
C454 C458 1.524 . S
C455 C447 1.513 . S
C455 C454 1.359 1_546 S
C455 C456 1.411 . S
C456 C455 1.411 . S
C456 C457 1.404 . S
C456 C459 1.539 . S
C457 C453 1.408 1_545 S
C457 C456 1.404 . S
C457 H469 0.930 . S
C458 C454 1.524 . S
C458 H470 0.956 . S
C458 H471 0.961 . S
C458 H472 0.961 . S
C459 C456 1.539 . S
C459 H473 0.958 . S
C459 H474 0.961 . S
C459 H475 0.960 . S
H460 C444 0.931 . S
H461 C449 0.929 . S
H462 C450 0.960 . S
H463 C450 0.962 . S
H464 C450 0.960 . S
H465 C451 0.961 . S
H466 C451 0.961 . S
H467 C451 0.961 . S
H468 C452 0.931 . S
H469 C457 0.930 . S
H470 C458 0.956 . S
H471 C458 0.961 . S
H472 C458 0.961 . S
H473 C459 0.958 . S
H474 C459 0.961 . S
H475 C459 0.960 . S
C476 C477 1.391 . S
C476 C478 1.394 . S
C476 H492 0.931 . S
C477 C476 1.391 . S
C477 C481 1.376 . S
C478 C476 1.394 . S
C478 C479 1.369 . S
C478 C482 1.531 . S
C479 C478 1.369 . S
C479 C480 1.410 . S
C479 C487 1.503 . S
C480 C479 1.410 . S
C480 C481 1.392 . S
C480 C483 1.511 . S
C481 C477 1.376 . S
C481 C480 1.392 . S
C481 H493 0.929 . S
C482 C478 1.531 . S
C482 H494 0.960 . S
C482 H495 0.962 . S
C482 H496 0.960 . S
C483 C480 1.511 . S
C483 H497 0.961 . S
C483 H498 0.961 . S
C483 H499 0.961 . S
C484 C485 1.370 . S
C484 C486 1.363 . S
C484 H500 0.931 . S
C485 C484 1.370 . S
C485 C489 1.408 . S
C486 C484 1.363 . S
C486 C487 1.370 . S
C486 C490 1.524 . S
C487 C479 1.503 . S
C487 C486 1.370 . S
C487 C488 1.403 . S
C488 C487 1.403 . S
C488 C489 1.404 . S
C488 C491 1.539 . S
C489 C485 1.408 . S
C489 C488 1.404 . S
C489 H501 0.930 . S
C490 C486 1.524 . S
C490 H502 0.956 . S
C490 H503 0.961 . S
C490 H504 0.961 . S
C491 C488 1.539 . S
C491 H505 0.958 . S
C491 H506 0.961 . S
C491 H507 0.960 . S
H492 C476 0.931 . S
H493 C481 0.929 . S
H494 C482 0.960 . S
H495 C482 0.962 . S
H496 C482 0.960 . S
H497 C483 0.961 . S
H498 C483 0.961 . S
H499 C483 0.961 . S
H500 C484 0.931 . S
H501 C489 0.930 . S
H502 C490 0.956 . S
H503 C490 0.961 . S
H504 C490 0.961 . S
H505 C491 0.958 . S
H506 C491 0.961 . S
H507 C491 0.960 . S
C508 C509 1.391 . S
C508 C510 1.394 . S
C508 H524 0.931 . S
C509 C508 1.391 . S
C509 C513 1.376 . S
C510 C508 1.394 . S
C510 C511 1.369 . S
C510 C514 1.531 . S
C511 C510 1.369 . S
C511 C512 1.410 . S
C511 C519 1.503 . S
C512 C511 1.410 . S
C512 C513 1.392 . S
C512 C515 1.511 . S
C513 C509 1.376 . S
C513 C512 1.392 . S
C513 H525 0.929 . S
C514 C510 1.531 . S
C514 H526 0.960 . S
C514 H527 0.962 . S
C514 H528 0.960 . S
C515 C512 1.511 . S
C515 H529 0.961 . S
C515 H530 0.961 . S
C515 H531 0.961 . S
C516 C517 1.370 . S
C516 C518 1.363 . S
C516 H532 0.931 . S
C517 C516 1.370 . S
C517 C521 1.408 . S
C518 C516 1.363 . S
C518 C519 1.370 . S
C518 C522 1.524 . S
C519 C511 1.503 . S
C519 C518 1.370 . S
C519 C520 1.403 . S
C520 C519 1.403 . S
C520 C521 1.404 . S
C520 C523 1.539 . S
C521 C517 1.408 . S
C521 C520 1.404 . S
C521 H533 0.930 . S
C522 C518 1.524 . S
C522 H534 0.956 . S
C522 H535 0.961 . S
C522 H536 0.961 . S
C523 C520 1.539 . S
C523 H537 0.958 . S
C523 H538 0.961 . S
C523 H539 0.960 . S
H524 C508 0.931 . S
H525 C513 0.929 . S
H526 C514 0.960 . S
H527 C514 0.962 . S
H528 C514 0.960 . S
H529 C515 0.961 . S
H530 C515 0.961 . S
H531 C515 0.961 . S
H532 C516 0.931 . S
H533 C521 0.930 . S
H534 C522 0.956 . S
H535 C522 0.961 . S
H536 C522 0.961 . S
H537 C523 0.958 . S
H538 C523 0.961 . S
H539 C523 0.960 . S
C540 C541 1.391 . S
C540 C542 1.394 . S
C540 H556 0.931 . S
C541 C540 1.391 . S
C541 C545 1.376 . S
C542 C540 1.394 . S
C542 C543 1.369 . S
C542 C546 1.531 . S
C543 C542 1.369 . S
C543 C544 1.410 . S
C543 C551 1.503 . S
C544 C543 1.410 . S
C544 C545 1.392 . S
C544 C547 1.511 . S
C545 C541 1.376 . S
C545 C544 1.392 . S
C545 H557 0.929 . S
C546 C542 1.531 . S
C546 H558 0.960 . S
C546 H559 0.962 . S
C546 H560 0.960 . S
C547 C544 1.511 . S
C547 H561 0.961 . S
C547 H562 0.961 . S
C547 H563 0.961 . S
C548 C549 1.370 . S
C548 C550 1.363 . S
C548 H564 0.931 . S
C549 C548 1.370 . S
C549 C553 1.408 . S
C550 C548 1.363 . S
C550 C551 1.370 . S
C550 C554 1.524 . S
C551 C543 1.503 . S
C551 C550 1.370 . S
C551 C552 1.403 . S
C552 C551 1.403 . S
C552 C553 1.404 . S
C552 C555 1.539 . S
C553 C549 1.408 . S
C553 C552 1.404 . S
C553 H565 0.930 . S
C554 C550 1.524 . S
C554 H566 0.956 . S
C554 H567 0.961 . S
C554 H568 0.961 . S
C555 C552 1.539 . S
C555 H569 0.958 . S
C555 H570 0.961 . S
C555 H571 0.960 . S
H556 C540 0.931 . S
H557 C545 0.929 . S
H558 C546 0.960 . S
H559 C546 0.962 . S
H560 C546 0.960 . S
H561 C547 0.961 . S
H562 C547 0.961 . S
H563 C547 0.961 . S
H564 C548 0.931 . S
H565 C553 0.930 . S
H566 C554 0.956 . S
H567 C554 0.961 . S
H568 C554 0.961 . S
H569 C555 0.958 . S
H570 C555 0.961 . S
H571 C555 0.960 . S
C572 C573 1.391 . S
C572 C574 1.394 . S
C572 H588 0.931 . S
C573 C572 1.391 . S
C573 C577 1.376 . S
C574 C572 1.394 . S
C574 C575 1.369 . S
C574 C578 1.531 . S
C575 C574 1.369 . S
C575 C576 1.410 . S
C575 C583 1.503 . S
C576 C575 1.410 . S
C576 C577 1.392 . S
C576 C579 1.511 . S
C577 C573 1.376 . S
C577 C576 1.392 . S
C577 H589 0.929 . S
C578 C574 1.531 . S
C578 H590 0.960 . S
C578 H591 0.962 . S
C578 H592 0.960 . S
C579 C576 1.511 . S
C579 H593 0.961 . S
C579 H594 0.961 . S
C579 H595 0.961 . S
C580 C581 1.370 . S
C580 C582 1.363 . S
C580 H596 0.931 . S
C581 C580 1.370 . S
C581 C585 1.408 . S
C582 C580 1.363 . S
C582 C583 1.370 . S
C582 C586 1.524 . S
C583 C575 1.503 . S
C583 C582 1.370 . S
C583 C584 1.403 . S
C584 C583 1.403 . S
C584 C585 1.404 . S
C584 C587 1.539 . S
C585 C581 1.408 . S
C585 C584 1.404 . S
C585 H597 0.930 . S
C586 C582 1.524 . S
C586 H598 0.956 . S
C586 H599 0.961 . S
C586 H600 0.961 . S
C587 C584 1.539 . S
C587 H601 0.958 . S
C587 H602 0.961 . S
C587 H603 0.960 . S
H588 C572 0.931 . S
H589 C577 0.929 . S
H590 C578 0.960 . S
H591 C578 0.962 . S
H592 C578 0.960 . S
H593 C579 0.961 . S
H594 C579 0.961 . S
H595 C579 0.961 . S
H596 C580 0.931 . S
H597 C585 0.930 . S
H598 C586 0.956 . S
H599 C586 0.961 . S
H600 C586 0.961 . S
H601 C587 0.958 . S
H602 C587 0.961 . S
H603 C587 0.960 . S
C604 C605 1.391 . S
C604 C606 1.394 . S
C604 H620 0.931 . S
C605 C604 1.391 . S
C605 C609 1.376 . S
C606 C604 1.394 . S
C606 C607 1.369 . S
C606 C610 1.531 . S
C607 C606 1.369 . S
C607 C608 1.410 . S
C607 C615 1.503 . S
C608 C607 1.410 . S
C608 C609 1.392 . S
C608 C611 1.511 . S
C609 C605 1.376 . S
C609 C608 1.392 . S
C609 H621 0.929 . S
C610 C606 1.531 . S
C610 H622 0.960 . S
C610 H623 0.962 . S
C610 H624 0.960 . S
C611 C608 1.511 . S
C611 H625 0.961 . S
C611 H626 0.961 . S
C611 H627 0.961 . S
C612 C613 1.370 . S
C612 C614 1.363 . S
C612 H628 0.931 . S
C613 C612 1.370 . S
C613 C617 1.408 . S
C614 C612 1.363 . S
C614 C615 1.370 . S
C614 C618 1.524 . S
C615 C607 1.503 . S
C615 C614 1.370 . S
C615 C616 1.403 . S
C616 C615 1.403 . S
C616 C617 1.404 . S
C616 C619 1.539 . S
C617 C613 1.408 . S
C617 C616 1.404 . S
C617 H629 0.930 . S
C618 C614 1.524 . S
C618 H630 0.956 . S
C618 H631 0.961 . S
C618 H632 0.961 . S
C619 C616 1.539 . S
C619 H633 0.958 . S
C619 H634 0.961 . S
C619 H635 0.960 . S
H620 C604 0.931 . S
H621 C609 0.929 . S
H622 C610 0.960 . S
H623 C610 0.962 . S
H624 C610 0.960 . S
H625 C611 0.961 . S
H626 C611 0.961 . S
H627 C611 0.961 . S
H628 C612 0.931 . S
H629 C617 0.930 . S
H630 C618 0.956 . S
H631 C618 0.961 . S
H632 C618 0.961 . S
H633 C619 0.958 . S
H634 C619 0.961 . S
H635 C619 0.960 . S
C125 C1 1.129 . S
C133 C20 1.104 . S
C157 C33 1.653 . S
C165 C60 1.626 . S
C189 C64 1.648 . S
C197 C91 1.629 . S
C221 C122 1.618 . S
C229 C95 1.635 . S
C253 C50 1.193 . S
C261 C29 1.111 . S
C285 C51 0.995 . S
C293 C30 0.939 . S
C317 C93 1.053 . S
C325 C82 0.967 . S
C349 C81 1.067 . S
C357 C94 0.942 . S
C381 C19 1.204 . S
C389 C92 1.176 . S
C413 C103 1.121 . S
C421 C61 1.187 . S
C445 C10 1.045 . S
C453 C62 1.036 . S
C477 C112 0.990 . S
C485 C31 1.077 . S
C509 C123 1.923 . S
C517 C2 1.985 1_556 S
C541 C72 1.717 . S
C549 C32 1.831 . S
C573 C41 1.687 . S
C581 C63 1.791 . S
C605 C113 1.929 . S
C613 C0 1.951 . S
