# Generated by pormake.
# Topology wje, (4)-cn, num edge types: 1
# Building blocks:
#     Node 0, Type 0, BuildingBlock: AZAVOO_clean_sbu_0, # of connection points: 4
#     Node 1, Type 0, BuildingBlock: AZAVOO_clean_sbu_0, # of connection points: 4
#     Node 2, Type 0, BuildingBlock: AZAVOO_clean_sbu_0, # of connection points: 4
#     Node 3, Type 0, BuildingBlock: AZAVOO_clean_sbu_0, # of connection points: 4
#     Node 4, Type 0, BuildingBlock: AZAVOO_clean_sbu_0, # of connection points: 4
#     Node 5, Type 0, BuildingBlock: AZAVOO_clean_sbu_0, # of connection points: 4
#     Node 6, Type 0, BuildingBlock: AZAVOO_clean_sbu_0, # of connection points: 4
#     Node 7, Type 0, BuildingBlock: AZAVOO_clean_sbu_0, # of connection points: 4
#     Node 8, Type 0, BuildingBlock: AZAVOO_clean_sbu_0, # of connection points: 4
#     Node 9, Type 0, BuildingBlock: AZAVOO_clean_sbu_0, # of connection points: 4
#     Node 10, Type 0, BuildingBlock: AZAVOO_clean_sbu_0, # of connection points: 4
#     Node 11, Type 0, BuildingBlock: AZAVOO_clean_sbu_0, # of connection points: 4
#     Edge 12, Type (0, 0), BuildingBlock: KIFKEQ_clean_linker_1, # of connection points: 2
#     Edge 13, Type (0, 0), BuildingBlock: KIFKEQ_clean_linker_1, # of connection points: 2
#     Edge 14, Type (0, 0), BuildingBlock: KIFKEQ_clean_linker_1, # of connection points: 2
#     Edge 15, Type (0, 0), BuildingBlock: KIFKEQ_clean_linker_1, # of connection points: 2
#     Edge 16, Type (0, 0), BuildingBlock: KIFKEQ_clean_linker_1, # of connection points: 2
#     Edge 17, Type (0, 0), BuildingBlock: KIFKEQ_clean_linker_1, # of connection points: 2
#     Edge 18, Type (0, 0), BuildingBlock: KIFKEQ_clean_linker_1, # of connection points: 2
#     Edge 19, Type (0, 0), BuildingBlock: KIFKEQ_clean_linker_1, # of connection points: 2
#     Edge 20, Type (0, 0), BuildingBlock: KIFKEQ_clean_linker_1, # of connection points: 2
#     Edge 21, Type (0, 0), BuildingBlock: KIFKEQ_clean_linker_1, # of connection points: 2
#     Edge 22, Type (0, 0), BuildingBlock: KIFKEQ_clean_linker_1, # of connection points: 2
#     Edge 23, Type (0, 0), BuildingBlock: KIFKEQ_clean_linker_1, # of connection points: 2
#     Edge 24, Type (0, 0), BuildingBlock: KIFKEQ_clean_linker_1, # of connection points: 2
#     Edge 25, Type (0, 0), BuildingBlock: KIFKEQ_clean_linker_1, # of connection points: 2
#     Edge 26, Type (0, 0), BuildingBlock: KIFKEQ_clean_linker_1, # of connection points: 2
#     Edge 27, Type (0, 0), BuildingBlock: KIFKEQ_clean_linker_1, # of connection points: 2
#     Edge 28, Type (0, 0), BuildingBlock: KIFKEQ_clean_linker_1, # of connection points: 2
#     Edge 29, Type (0, 0), BuildingBlock: KIFKEQ_clean_linker_1, # of connection points: 2
#     Edge 30, Type (0, 0), BuildingBlock: KIFKEQ_clean_linker_1, # of connection points: 2
#     Edge 31, Type (0, 0), BuildingBlock: KIFKEQ_clean_linker_1, # of connection points: 2
#     Edge 32, Type (0, 0), BuildingBlock: KIFKEQ_clean_linker_1, # of connection points: 2
#     Edge 33, Type (0, 0), BuildingBlock: KIFKEQ_clean_linker_1, # of connection points: 2
#     Edge 34, Type (0, 0), BuildingBlock: KIFKEQ_clean_linker_1, # of connection points: 2
#     Edge 35, Type (0, 0), BuildingBlock: KIFKEQ_clean_linker_1, # of connection points: 2
# Relax obj value: 0.162
# Max RMSD: 0.140
# Mean RMSD: 0.139
data_MOF--net-wje--node1-AZAVOO_clean_sbu_0--edge1-KIFKEQ_clean_linker_1
_symmetry_space_group_name_H-M    P1
_symmetry_Int_Tables_number       1
_symmetry_cell_setting            triclinic
loop_
_symmetry_equiv_pos_as_xyz
'x, y, z'
_cell_length_a     45.158857
_cell_length_b     45.150992
_cell_length_c     30.178804
_cell_angle_alpha  90.057259
_cell_angle_beta   89.943309
_cell_angle_gamma 119.91154
loop_
_atom_site_label
_atom_site_type_symbol
_atom_site_fract_x
_atom_site_fract_y
_atom_site_fract_z
_atom_type_partial_charge
Mg0 Mg 0.3196 0.98697 0.236 0.0
O1 O 0.32839 -0.00261 0.31023 0.0
O2 O 0.37839 0.04443 0.32262 0.0
Mg3 Mg 0.40136 0.06528 0.25427 0.0
C4 C 0.35089 0.01881 0.33667 0.0
C5 C 0.25657 0.9162 0.25128 0.0
O6 O 0.27848 0.90837 0.23393 0.0
O7 O 0.30647 0.02925 0.227 0.0
O8 O 0.35759 0.07575 0.23808 0.0
O9 O 0.34791 0.95846 0.2398 0.0
O10 O 0.37249 0.01362 0.22484 0.0
C11 C 0.32573 0.06164 0.22918 0.0
C12 C 0.37553 0.98722 0.23266 0.0
O13 O 0.26471 0.94746 0.2536 0.0
Mg14 Mg 0.32701 0.32178 0.56333 0.0
O15 O 0.32609 0.32986 0.63788 0.0
O16 O 0.32912 0.3798 0.6517 0.0
Mg17 Mg 0.33046 0.40335 0.58406 0.0
C18 C 0.32742 0.35217 0.66495 0.0
C19 C 0.3344 0.25825 0.57791 0.0
O20 O 0.36452 0.2802 0.56175 0.0
O21 O 0.27161 0.3088 0.55578 0.0
O22 O 0.27606 0.35972 0.56852 0.0
O23 O 0.38378 0.34994 0.56645 0.0
O24 O 0.35313 0.37477 0.55314 0.0
C25 C 0.25836 0.32793 0.55917 0.0
C26 C 0.38258 0.37768 0.56036 0.0
O27 O 0.31146 0.26666 0.57967 0.0
Mg28 Mg -0.00978 0.32493 0.91086 0.0
O29 O 0.97939 0.32327 0.98471 0.0
O30 O 0.93232 0.32611 0.99757 0.0
Mg31 Mg 0.91179 0.32814 0.92886 0.0
C32 C 0.95804 0.32427 0.01137 0.0
C33 C 0.05929 0.32354 0.91605 0.0
O34 O 0.06882 0.34709 0.88523 0.0
O35 O 0.94826 0.26979 0.90159 0.0
O36 O 0.90138 0.27385 0.9125 0.0
O37 O 0.01882 0.38152 0.91487 0.0
O38 O 0.96365 0.35118 0.89944 0.0
C39 C 0.91586 0.25639 0.90356 0.0
C40 C -0.00994 0.38051 0.90759 0.0
O41 O 0.02872 0.30887 0.93005 0.0
Mg42 Mg 0.66164 0.00228 0.23628 0.0
O43 O 0.65236 0.99188 0.31043 0.0
O44 O 0.60182 0.94544 0.32252 0.0
Mg45 Mg 0.57902 0.92491 0.25401 0.0
C46 C 0.62952 0.97072 0.33674 0.0
C47 C 0.72602 0.07245 0.2489 0.0
O48 O 0.70535 0.08053 0.22846 0.0
O49 O 0.6738 0.95928 0.2276 0.0
O50 O 0.62216 0.9134 0.23827 0.0
O51 O 0.63419 0.03169 0.23972 0.0
O52 O 0.60891 0.97647 0.22471 0.0
C53 C 0.65403 0.92696 0.22966 0.0
C54 C 0.60634 0.00317 0.23237 0.0
O55 O 0.71659 0.04107 0.25426 0.0
Mg56 Mg 0.65242 0.66434 0.56199 0.0
O57 O 0.65424 0.65708 0.63662 0.0
O58 O 0.6512 0.60722 0.65087 0.0
Mg59 Mg 0.6488 0.58283 0.58343 0.0
C60 C 0.65318 0.63505 0.6639 0.0
C61 C 0.64563 0.72848 0.57211 0.0
O62 O 0.61674 0.70713 0.55255 0.0
O63 O 0.70771 0.67703 0.55314 0.0
O64 O 0.70302 0.62606 0.56627 0.0
O65 O 0.59568 0.63642 0.56628 0.0
O66 O 0.62605 0.6113 0.55261 0.0
C67 C 0.72077 0.65771 0.55629 0.0
C68 C 0.59671 0.60857 0.5602 0.0
O69 O 0.66794 0.71952 0.57763 0.0
Mg70 Mg 0.98642 0.65721 0.91478 0.0
O71 O -0.00012 0.65699 0.98739 0.0
O72 O 0.04212 0.64531 0.99468 0.0
Mg73 Mg 0.05871 0.6422 0.92373 0.0
C74 C 0.01995 0.6517 0.01141 0.0
C75 C 0.92466 0.67077 0.92058 0.0
O76 O 0.91555 0.65258 0.88397 0.0
O77 O 0.03246 0.71055 0.90525 0.0
O78 O 0.07455 0.69824 0.90988 0.0
O79 O 0.95276 0.60034 0.91777 0.0
O80 O 0.00716 0.62636 0.89836 0.0
C81 C 0.06414 0.71961 0.90402 0.0
C82 C 0.97949 0.59835 0.90701 0.0
O83 O 0.95292 0.67826 0.93863 0.0
Mg84 Mg -0.00232 0.66486 0.43887 0.0
O85 O 0.98893 0.65437 0.36451 0.0
O86 O 0.9446 0.60217 0.35306 0.0
Mg87 Mg 0.92186 0.58111 0.4214 0.0
C88 C 0.96928 0.63019 0.33858 0.0
C89 C 0.06716 0.73086 0.4298 0.0
O90 O 0.07526 0.7115 0.45341 0.0
O91 O 0.95391 0.67604 0.44382 0.0
O92 O 0.90886 0.62397 0.43266 0.0
O93 O 0.02813 0.63835 0.43871 0.0
O94 O 0.97262 0.61235 0.45201 0.0
C95 C 0.92175 0.65592 0.44035 0.0
C96 C -0.00025 0.61027 0.44582 0.0
O97 O 0.03594 0.71985 0.42065 0.0
Mg98 Mg 0.32387 -0.00106 0.76626 0.0
O99 O 0.32507 0.99055 0.6918 0.0
O100 O 0.3323 0.94596 0.67885 0.0
Mg101 Mg 0.33477 0.92479 0.74681 0.0
C102 C 0.32856 0.97061 0.66511 0.0
C103 C 0.32601 0.06765 0.75842 0.0
O104 O 0.35334 0.07563 0.78219 0.0
O105 O 0.26929 0.95384 0.77202 0.0
O106 O 0.27946 0.91069 0.7613 0.0
O107 O 0.3809 0.03056 0.76539 0.0
O108 O 0.35256 0.97501 0.77805 0.0
C109 C 0.25901 0.9219 0.76938 0.0
C110 C 0.38136 0.0025 0.77214 0.0
O111 O 0.30591 0.03646 0.74903 0.0
Mg112 Mg 0.32162 0.32901 0.09289 0.0
O113 O 0.33109 0.32703 0.0192 0.0
O114 O 0.38158 0.33105 0.00687 0.0
Mg115 Mg 0.40421 0.33418 0.07588 0.0
C116 C 0.35373 0.32838 0.99278 0.0
C117 C 0.25014 0.32539 0.08761 0.0
O118 O 0.26336 0.34861 0.11897 0.0
O119 O 0.30986 0.27425 0.10289 0.0
O120 O 0.36133 0.2795 0.09242 0.0
O121 O 0.34835 0.38561 0.08813 0.0
O122 O 0.37431 0.35643 0.10449 0.0
C123 C 0.32948 0.26149 0.10127 0.0
C124 C 0.37646 0.38539 0.09581 0.0
O125 O 0.26689 0.31166 0.07329 0.0
Mg126 Mg 0.98348 0.32328 0.44052 0.0
O127 O -0.00861 0.33081 0.36582 0.0
O128 O 0.03826 0.38035 0.35084 0.0
Mg129 Mg 0.06149 0.40429 0.41799 0.0
C130 C 0.01204 0.35275 0.33822 0.0
C131 C 0.91213 0.25973 0.42927 0.0
O132 O 0.90454 0.28153 0.44751 0.0
O133 O 0.02565 0.30979 0.44682 0.0
O134 O 0.0721 0.36042 0.43321 0.0
O135 O 0.95522 0.35189 0.43841 0.0
O136 O 0.01081 0.37633 0.45028 0.0
C137 C 0.05796 0.32866 0.44276 0.0
C138 C 0.98431 0.3795 0.44397 0.0
O139 O 0.94337 0.26824 0.42495 0.0
Mg140 Mg 0.65149 0.9857 0.76639 0.0
O141 O 0.65325 -0.00405 0.69213 0.0
O142 O 0.65119 0.04351 0.67954 0.0
Mg143 Mg 0.64951 0.06481 0.74779 0.0
C144 C 0.65258 0.01755 0.6656 0.0
C145 C 0.6434 0.9144 0.75265 0.0
O146 O 0.61405 0.9067 0.77105 0.0
O147 O 0.70699 0.02718 0.77515 0.0
O148 O 0.7034 0.0743 0.76396 0.0
O149 O 0.59483 0.958 0.7626 0.0
O150 O 0.62603 0.01318 0.77738 0.0
C151 C 0.72064 0.05961 0.77288 0.0
C152 C 0.59645 0.98706 0.76959 0.0
O153 O 0.66618 0.94564 0.74904 0.0
Mg154 Mg 0.65915 0.65987 0.09239 0.0
O155 O 0.65037 0.66178 0.01837 0.0
O156 O 0.5997 0.65724 0.00563 0.0
Mg157 Mg 0.57618 0.6535 0.07424 0.0
C158 C 0.62776 0.66023 0.99176 0.0
C159 C 0.73151 0.66526 0.08933 0.0
O160 O 0.71785 0.64132 0.11973 0.0
O161 O 0.66994 0.71428 0.10243 0.0
O162 O 0.61825 0.70837 0.09154 0.0
O163 O 0.63306 0.60319 0.08763 0.0
O164 O 0.60647 0.63189 0.10323 0.0
C165 C 0.65001 0.72667 0.10076 0.0
C166 C 0.60473 0.60306 0.09493 0.0
O167 O 0.71445 0.67847 0.07444 0.0
H168 H 0.28366 0.05255 0.15969 0.0
H169 H 0.33968 0.12214 0.26599 0.0
H170 H 0.27405 0.09646 0.12576 0.0
H171 H 0.32885 0.16536 0.23303 0.0
H172 H 0.28369 0.22694 0.16699 0.0
H173 H 0.27177 0.17249 0.20028 0.0
H174 H 0.33376 0.16128 0.10026 0.0
H175 H 0.34682 0.21621 0.068 0.0
C176 C 0.29264 0.07668 0.17671 0.0
C177 C 0.31244 0.0841 0.21537 0.0
C178 C 0.28724 0.10172 0.15725 0.0
C179 C 0.30065 0.13404 0.17701 0.0
C180 C 0.31799 0.14043 0.21754 0.0
C181 C 0.32423 0.11581 0.23629 0.0
C182 C 0.29395 0.21234 0.15141 0.0
C183 C 0.31628 0.22573 0.11505 0.0
C184 C 0.28717 0.18133 0.1705 0.0
C185 C 0.30174 0.16285 0.15256 0.0
C186 C 0.32196 0.17499 0.11427 0.0
C187 C 0.32952 0.20639 0.09598 0.0
H188 H 0.22376 0.28492 0.49103 0.0
H189 H 0.21258 0.34211 0.59805 0.0
H190 H 0.16892 0.27395 0.4601 0.0
H191 H 0.1573 0.32999 0.5681 0.0
H192 H 0.04939 0.28495 0.51008 0.0
H193 H 0.09313 0.27362 0.54062 0.0
H194 H 0.16096 0.33049 0.43338 0.0
H195 H 0.11792 0.34297 0.4038 0.0
C196 C 0.20894 0.29395 0.50883 0.0
C197 C 0.22231 0.31443 0.54681 0.0
C198 C 0.17773 0.28775 0.49109 0.0
C199 C 0.15905 0.30104 0.51193 0.0
C200 C 0.17115 0.31917 0.5518 0.0
C201 C 0.20274 0.3262 0.5688 0.0
C202 C 0.07325 0.2941 0.49233 0.0
C203 C 0.08044 0.31493 0.45471 0.0
C204 C 0.09819 0.28768 0.50985 0.0
C205 C 0.13018 0.30112 0.48916 0.0
C206 C 0.1363 0.31958 0.44957 0.0
C207 C 0.11179 0.3268 0.43279 0.0
H208 H 0.75345 0.04863 0.84095 0.0
H209 H 0.76756 0.12047 0.73745 0.0
H210 H 0.8072 0.09138 0.87538 0.0
H211 H 0.8218 0.16253 0.7709 0.0
H212 H 0.92763 0.22322 0.8365 0.0
H213 H 0.88552 0.16913 0.80214 0.0
H214 H 0.81272 0.15524 0.90412 0.0
H215 H 0.85416 0.20984 0.93748 0.0
C216 C 0.76874 0.07301 0.82461 0.0
C217 C 0.75644 0.08143 0.78669 0.0
C218 C 0.79933 0.09737 0.84435 0.0
C219 C 0.81845 0.13 0.82557 0.0
C220 C 0.80759 0.13735 0.78562 0.0
C221 C 0.77659 0.1134 0.76662 0.0
C222 C 0.90299 0.20806 0.8523 0.0
C223 C 0.89398 0.22064 0.8895 0.0
C224 C 0.879 0.17726 0.83261 0.0
C225 C 0.84614 0.15819 0.85074 0.0
C226 C 0.8381 0.16942 0.88994 0.0
C227 C 0.86169 0.20062 0.90887 0.0
H228 H 0.69639 0.76174 0.16569 0.0
H229 H 0.63102 0.77113 0.06915 0.0
H230 H 0.70795 0.81596 0.19951 0.0
H231 H 0.6437 0.82583 0.10197 0.0
H232 H 0.69777 0.93609 0.16207 0.0
H233 H 0.70688 0.89181 0.1281 0.0
H234 H 0.64756 0.82165 0.23205 0.0
H235 H 0.63728 0.86527 0.26506 0.0
C236 C 0.68552 0.77598 0.15076 0.0
C237 C 0.66271 0.76228 0.11492 0.0
C238 C 0.6921 0.80686 0.17014 0.0
C239 C 0.67683 0.82489 0.15301 0.0
C240 C 0.65602 0.81243 0.11531 0.0
C241 C 0.64869 0.78117 0.09671 0.0
C242 C 0.68765 0.91157 0.17841 0.0
C243 C 0.66677 0.90396 0.21609 0.0
C244 C 0.69278 0.88633 0.15892 0.0
C245 C 0.67799 0.85361 0.17772 0.0
C246 C 0.65947 0.8469 0.21734 0.0
C247 C 0.65355 0.87175 0.23611 0.0
H248 H 0.85931 0.63558 0.40422 0.0
H249 H 0.93035 0.70352 0.5023 0.0
H250 H 0.81559 0.64764 0.43256 0.0
H251 H 0.88601 0.71448 0.53165 0.0
H252 H 0.76725 0.64488 0.59556 0.0
H253 H 0.82192 0.65582 0.56456 0.0
H254 H 0.80809 0.70768 0.45344 0.0
H255 H 0.7539 0.69801 0.4854 0.0
C256 C 0.86579 0.65372 0.43108 0.0
C257 C 0.89813 0.66859 0.45112 0.0
C258 C 0.84088 0.66069 0.44714 0.0
C259 C 0.84765 0.68199 0.48412 0.0
C260 C 0.88044 0.69821 0.50284 0.0
C261 C 0.90572 0.69198 0.48598 0.0
C262 C 0.7765 0.65967 0.56535 0.0
C263 C 0.75654 0.67071 0.54289 0.0
C264 C 0.80771 0.66597 0.54772 0.0
C265 C 0.819 0.6826 0.50678 0.0
C266 C 0.7999 0.69507 0.48526 0.0
C267 C 0.76909 0.68964 0.5036 0.0
H268 H 0.21431 0.93043 0.82265 0.0
H269 H 0.22398 0.85538 0.74458 0.0
H270 H 0.16251 0.88438 0.8575 0.0
H271 H 0.17284 0.80999 0.77944 0.0
H272 H 0.13328 0.74937 0.90846 0.0
H273 H 0.17537 0.80173 0.87251 0.0
H274 H 0.09602 0.82245 0.83169 0.0
H275 H 0.05307 0.76928 0.8675 0.0
C276 C 0.20479 0.90434 0.81184 0.0
C277 C 0.22351 0.89642 0.78146 0.0
C278 C 0.17526 0.8781 0.83185 0.0
C279 C 0.16428 0.84384 0.82148 0.0
C280 C 0.18117 0.83628 0.7882 0.0
C281 C 0.21042 0.86228 0.76831 0.0
C282 C 0.12462 0.76519 0.89252 0.0
C283 C 0.08968 0.75477 0.89024 0.0
C284 C 0.14878 0.79516 0.87195 0.0
C285 C 0.1387 0.81561 0.84891 0.0
C286 C 0.10422 0.80687 0.84925 0.0
C287 C 0.07977 0.77654 0.86978 0.0
H288 H 0.39047 0.93855 0.26015 0.0
H289 H 0.43734 0.04213 0.21121 0.0
H290 H 0.44635 0.9427 0.26305 0.0
H291 H 0.49309 0.04603 0.21312 0.0
H292 H 0.54442 0.94879 0.21041 0.0
H293 H 0.4889 0.9453 0.21254 0.0
H294 H 0.53619 0.04862 0.26279 0.0
H295 H 0.59194 0.05237 0.25969 0.0
C296 C 0.4127 0.96219 0.24998 0.0
C297 C 0.4095 0.99002 0.23548 0.0
C298 C 0.44471 0.96452 0.25142 0.0
C299 C 0.47421 -0.00534 0.23819 0.0
C300 C 0.47099 0.02261 0.22415 0.0
C301 C 0.43899 0.02032 0.22287 0.0
C302 C 0.54297 0.9707 0.22218 0.0
C303 C 0.57257 0.00085 0.23494 0.0
C304 C 0.51109 0.96864 0.22359 0.0
C305 C 0.50806 -0.00334 0.23791 0.0
C306 C 0.53768 0.02673 0.25104 0.0
C307 C 0.56961 0.02883 0.24948 0.0
H308 H 0.5333 0.59418 0.58809 0.0
H309 H 0.5896 0.54645 0.53997 0.0
H310 H 0.48156 0.53839 0.59191 0.0
H311 H 0.53781 0.49088 0.54265 0.0
H312 H 0.44599 0.3923 0.58822 0.0
H313 H 0.49761 0.44814 0.59205 0.0
H314 H 0.44123 0.49539 0.54269 0.0
H315 H 0.3895 0.43972 0.54002 0.0
C316 C 0.53463 0.57178 0.5783 0.0
C317 C 0.56554 0.57471 0.56375 0.0
C318 C 0.50494 0.53982 0.58027 0.0
C319 C 0.50548 0.51012 0.56748 0.0
C320 C 0.53655 0.51311 0.55341 0.0
C321 C 0.56624 0.54502 0.55166 0.0
C322 C 0.4446 0.41465 0.57839 0.0
C323 C 0.41368 0.41161 0.56379 0.0
C324 C 0.47423 0.44664 0.58037 0.0
C325 C 0.47363 0.47628 0.56754 0.0
C326 C 0.44253 0.4732 0.55346 0.0
C327 C 0.41288 0.44124 0.5517 0.0
H328 H 0.92944 0.53609 0.93789 0.0
H329 H 0.02959 0.58658 0.87759 0.0
H330 H 0.93113 0.48275 0.94075 0.0
H331 H 0.03112 0.53364 0.88008 0.0
H332 H 0.93437 0.38719 0.88921 0.0
H333 H 0.93067 0.43926 0.89083 0.0
H334 H 0.03563 0.49637 0.93445 0.0
H335 H 0.0395 0.44446 0.93227 0.0
C336 C 0.95172 0.53579 0.92517 0.0
C337 C 0.97952 0.56563 0.90794 0.0
C338 C 0.95266 0.50526 0.9267 0.0
C339 C 0.98142 0.50407 0.91104 0.0
C340 C 0.00892 0.53386 0.89332 0.0
C341 C 0.00798 0.56422 0.89177 0.0
C342 C 0.95657 0.4108 0.8995 0.0
C343 C 0.98727 0.41172 0.91049 0.0
C344 C 0.95439 0.44061 0.90059 0.0
C345 C 0.98289 0.47196 0.91255 0.0
C346 C 0.01336 0.4727 0.92441 0.0
C347 C 0.01554 0.44293 0.92333 0.0
H348 H 0.04929 0.59632 0.41842 0.0
H349 H 0.94608 0.5483 0.46896 0.0
H350 H 0.04584 0.54068 0.41491 0.0
H351 H 0.9429 0.49295 0.46655 0.0
H352 H 0.03984 0.44134 0.46381 0.0
H353 H 0.04387 0.49718 0.46272 0.0
H354 H 0.93968 0.45056 0.416 0.0
H355 H 0.9354 0.39462 0.41829 0.0
C356 C 0.02592 0.57391 0.42893 0.0
C357 C -0.00208 0.57668 0.44381 0.0
C358 C 0.02398 0.54203 0.4271 0.0
C359 C -0.00594 0.51228 0.44036 0.0
C360 C 0.96611 0.51519 0.45529 0.0
C361 C 0.96799 0.54699 0.4569 0.0
C362 C 0.01786 0.44305 0.45305 0.0
C363 C 0.98726 0.41356 0.44128 0.0
C364 C 0.02022 0.4751 0.45222 0.0
C365 C -0.00793 0.4784 0.43941 0.0
C366 C 0.96167 0.4489 0.42679 0.0
C367 C 0.95926 0.41684 0.42787 0.0
H368 H 0.5328 0.93913 0.74189 0.0
H369 H 0.59037 0.04258 0.79117 0.0
H370 H 0.48144 0.94392 0.73974 0.0
H371 H 0.5388 0.04711 0.79003 0.0
H372 H 0.4447 0.05284 0.74545 0.0
H373 H 0.49722 0.04981 0.74177 0.0
H374 H 0.44272 0.94653 0.79219 0.0
H375 H 0.39044 0.94933 0.79501 0.0
C376 C 0.53449 0.9629 0.75228 0.0
C377 C 0.56562 0.99045 0.76679 0.0
C378 C 0.50502 0.96559 0.75126 0.0
C379 C 0.50595 -0.00417 0.76499 0.0
C380 C 0.53726 0.02361 0.77874 0.0
C381 C 0.5668 0.02096 0.77959 0.0
C382 C 0.44401 0.02951 0.75566 0.0
C383 C 0.4134 0.00124 0.7702 0.0
C384 C 0.47409 0.02781 0.75371 0.0
C385 C 0.47412 -0.00216 0.76643 0.0
C386 C 0.44348 0.96974 0.78126 0.0
C387 C 0.41349 0.9714 0.78305 0.0
H388 H 0.439 0.39399 0.11733 0.0
H389 H 0.38984 0.44832 0.06734 0.0
H390 H 0.49408 0.44645 0.11467 0.0
H391 H 0.44509 0.5007 0.06373 0.0
H392 H 0.54203 0.59418 0.11589 0.0
H393 H 0.48719 0.54156 0.11371 0.0
H394 H 0.53674 0.4872 0.06479 0.0
H395 H 0.59187 0.53987 0.06789 0.0
C396 C 0.43999 0.41705 0.10529 0.0
C397 C 0.41003 0.417 0.0926 0.0
C398 C 0.47162 0.44712 0.10356 0.0
C399 C 0.47404 0.47783 0.08902 0.0
C400 C 0.44409 0.47762 0.07572 0.0
C401 C 0.41243 0.44756 0.07758 0.0
C402 C 0.54124 0.57107 0.10436 0.0
C403 C 0.57132 0.57121 0.09203 0.0
C404 C 0.50973 0.54089 0.10292 0.0
C405 C 0.50751 0.51012 0.08901 0.0
C406 C 0.53759 0.51035 0.07621 0.0
C407 C 0.56917 0.54057 0.07778 0.0
H408 H 0.05971 0.77522 0.37503 0.0
H409 H 0.13597 0.75665 0.43463 0.0
H410 H 0.10424 0.82152 0.33095 0.0
H411 H 0.18012 0.80269 0.39065 0.0
H412 H 0.23765 0.84925 0.26254 0.0
H413 H 0.19124 0.80702 0.30784 0.0
H414 H 0.15929 0.88034 0.33814 0.0
H415 H 0.20609 0.92307 0.29267 0.0
C416 C 0.08597 0.78132 0.37925 0.0
C417 C 0.09425 0.76201 0.40802 0.0
C418 C 0.11141 0.80783 0.35404 0.0
C419 C 0.14547 0.81525 0.35691 0.0
C420 C 0.15393 0.79705 0.38721 0.0
C421 C 0.12864 0.77082 0.4126 0.0
C422 C 0.22061 0.85641 0.27841 0.0
C423 C 0.22573 0.88963 0.27419 0.0
C424 C 0.19418 0.83225 0.30466 0.0
C425 C 0.17205 0.84061 0.32702 0.0
C426 C 0.17607 0.87329 0.3213 0.0
C427 C 0.20283 0.89769 0.29528 0.0
H428 H 0.38148 0.23806 0.58975 0.0
H429 H 0.27632 0.20811 0.618 0.0
H430 H 0.37613 0.19118 0.63521 0.0
H431 H 0.27109 0.16088 0.66362 0.0
H432 H 0.27489 0.06056 0.70257 0.0
H433 H 0.27414 0.10521 0.65744 0.0
H434 H 0.36844 0.1806 0.71821 0.0
H435 H 0.36931 0.13637 0.76324 0.0
C436 C 0.35708 0.22125 0.60521 0.0
C437 C 0.3294 0.227 0.60051 0.0
C438 C 0.35413 0.19456 0.63153 0.0
C439 C 0.32338 0.1728 0.65348 0.0
C440 C 0.29511 0.17737 0.64711 0.0
C441 C 0.29814 0.20438 0.62102 0.0
C442 C 0.29515 0.08675 0.70681 0.0
C443 C 0.32234 0.09486 0.7362 0.0
C444 C 0.29469 0.11225 0.68098 0.0
C445 C 0.32154 0.14618 0.68384 0.0
C446 C 0.34776 0.1545 0.71476 0.0
C447 C 0.3481 0.12916 0.74077 0.0
H448 H 0.22754 0.29562 0.00669 0.0
H449 H 0.20225 0.34164 0.11519 0.0
H450 H 0.17945 0.29107 0.96428 0.0
H451 H 0.15379 0.33658 0.07272 0.0
H452 H 0.05252 0.29294 0.99623 0.0
H453 H 0.09661 0.28926 0.03852 0.0
H454 H 0.16801 0.33777 0.93123 0.0
H455 H 0.12404 0.34195 0.88889 0.0
C456 C 0.2114 0.30425 0.0218 0.0
C457 C 0.21872 0.31908 0.06431 0.0
C458 C 0.18403 0.30182 0.99736 0.0
C459 C 0.16309 0.31359 0.0152 0.0
C460 C 0.1695 0.32714 0.05834 0.0
C461 C 0.19725 0.33012 0.08255 0.0
C462 C 0.07747 0.30242 0.98133 0.0
C463 C 0.08486 0.31782 0.9392 0.0
C464 C 0.10271 0.30048 0.00571 0.0
C465 C 0.13565 0.31334 0.98817 0.0
C466 C 0.1427 0.32749 0.94537 0.0
C467 C 0.11761 0.32996 0.92123 0.0
H468 H 0.84422 0.2386 0.42433 0.0
H469 H 0.919 0.21084 0.38363 0.0
H470 H 0.80113 0.19232 0.3796 0.0
H471 H 0.87553 0.16432 0.33868 0.0
H472 H 0.77246 0.06472 0.29901 0.0
H473 H 0.81835 0.1082 0.34472 0.0
H474 H 0.79432 0.18384 0.29686 0.0
H475 H 0.7487 0.14077 0.25136 0.0
C476 C 0.85141 0.22239 0.40629 0.0
C477 C 0.88515 0.22862 0.40727 0.0
C478 C 0.82675 0.19603 0.3804 0.0
C479 C 0.83517 0.17513 0.35511 0.0
C480 C 0.8684 0.18011 0.35782 0.0
C481 C 0.89324 0.20673 0.38354 0.0
C482 C 0.7773 0.09074 0.29778 0.0
C483 C 0.75674 0.09922 0.2718 0.0
C484 C 0.80356 0.11558 0.32395 0.0
C485 C 0.80946 0.14921 0.32485 0.0
C486 C 0.78986 0.15793 0.29746 0.0
C487 C 0.76389 0.13327 0.27113 0.0
H488 H 0.69988 0.77602 0.62095 0.0
H489 H 0.5994 0.75051 0.57431 0.0
H490 H 0.70188 0.82199 0.66617 0.0
H491 H 0.60156 0.7963 0.61928 0.0
H492 H 0.5968 0.8465 0.74693 0.0
H493 H 0.60014 0.80367 0.7016 0.0
H494 H 0.70213 0.87851 0.66059 0.0
H495 H 0.69895 0.92168 0.70619 0.0
C496 C 0.67847 0.78052 0.61979 0.0
C497 C 0.64934 0.7594 0.59431 0.0
C498 C 0.67965 0.80683 0.64568 0.0
C499 C 0.65164 0.81229 0.64677 0.0
C500 C 0.62324 0.79219 0.61976 0.0
C501 C 0.62214 0.76613 0.59372 0.0
C502 C 0.62013 0.85384 0.72871 0.0
C503 C 0.6475 0.88759 0.72993 0.0
C504 C 0.62191 0.82933 0.70246 0.0
C505 C 0.65117 0.83794 0.67702 0.0
C506 C 0.67925 0.87122 0.67983 0.0
C507 C 0.67739 0.89589 0.70594 0.0
H508 H 0.77717 0.64557 0.11528 0.0
H509 H 0.75934 0.70267 0.0142 0.0
H510 H 0.82719 0.65303 0.0745 0.0
H511 H 0.80923 0.70995 0.97358 0.0
H512 H 0.86411 0.66286 0.8901 0.0
H513 H 0.82057 0.66738 0.93283 0.0
H514 H 0.88599 0.69836 0.04794 0.0
H515 H 0.92961 0.69402 0.00538 0.0
C516 C 0.78418 0.66011 0.08474 0.0
C517 C 0.76415 0.67332 0.06787 0.0
C518 C 0.8129 0.66451 0.06151 0.0
C519 C 0.82192 0.6819 0.02076 0.0
C520 C 0.80264 0.69617 0.00469 0.0
C521 C 0.77418 0.69212 0.02813 0.0
C522 C 0.86942 0.67116 0.92432 0.0
C523 C 0.9002 0.67785 0.94439 0.0
C524 C 0.84456 0.67388 0.94872 0.0
C525 C 0.84987 0.683 0.99377 0.0
C526 C 0.88114 0.69095 0.01339 0.0
C527 C 0.90616 0.68863 0.98889 0.0
H528 H 0.38769 0.06199 0.40449 0.0
H529 H 0.30219 0.96125 0.37841 0.0
H530 H 0.38064 0.05012 0.48392 0.0
H531 H 0.2953 0.94958 0.45772 0.0
H532 H 0.32559 0.92919 0.59678 0.0
H533 H 0.32951 0.9413 0.51749 0.0
H534 H 0.338 0.03911 0.54489 0.0
H535 H 0.3341 0.02718 0.62413 0.0
C536 C 0.3673 0.03743 0.41564 0.0
C537 C 0.34557 0.01257 0.38502 0.0
C538 C 0.36318 0.0307 0.46114 0.0
C539 C 0.3375 -0.00113 0.47695 0.0
C540 C 0.31553 0.97419 0.44643 0.0
C541 C 0.31939 0.98102 0.40101 0.0
C542 C 0.32816 0.95322 0.58594 0.0
C543 C 0.32957 0.9772 0.61687 0.0
C544 C 0.33023 0.96007 0.54052 0.0
C545 C 0.33412 0.99117 0.52506 0.0
C546 C 0.33532 0.01506 0.55589 0.0
C547 C 0.33288 0.00808 0.60127 0.0
H548 H 0.30229 0.33289 0.95152 0.0
H549 H 0.39212 0.32488 0.9245 0.0
H550 H 0.29434 0.33679 0.87243 0.0
H551 H 0.38397 0.32883 0.84511 0.0
H552 H 0.33706 0.30331 0.70507 0.0
H553 H 0.34204 0.29555 0.78414 0.0
H554 H 0.32613 0.38027 0.81297 0.0
H555 H 0.3211 0.38817 0.7339 0.0
C556 C 0.32026 0.33174 0.92877 0.0
C557 C 0.34797 0.32869 0.94446 0.0
C558 C 0.31575 0.33419 0.88343 0.0
C559 C 0.33862 0.3333 0.85266 0.0
C560 C 0.36582 0.32937 0.86813 0.0
C561 C 0.37056 0.32726 0.91358 0.0
C562 C 0.3344 0.32019 0.72822 0.0
C563 C 0.32871 0.34642 0.71309 0.0
C564 C 0.33748 0.31583 0.77349 0.0
C565 C 0.33456 0.33734 0.80466 0.0
C566 C 0.32823 0.36313 0.78968 0.0
C567 C 0.3255 0.36774 0.74438 0.0
H568 H 0.05324 0.38815 0.26823 0.0
H569 H 0.95323 0.30334 0.29953 0.0
H570 H 0.03938 0.37916 0.18946 0.0
H571 H 0.93957 0.29448 0.22076 0.0
H572 H 0.9167 0.32113 0.08014 0.0
H573 H 0.92974 0.32639 0.15929 0.0
H574 H 0.02751 0.33513 0.13085 0.0
H575 H 0.01472 0.32996 0.05196 0.0
C576 C 0.02839 0.36752 0.25837 0.0
C577 C 0.00436 0.34652 0.29026 0.0
C578 C 0.02052 0.36228 0.21323 0.0
C579 C 0.98836 0.33615 0.19902 0.0
C580 C 0.96442 0.31501 0.2308 0.0
C581 C 0.97239 0.32 0.2759 0.0
C582 C 0.94088 0.32395 0.09076 0.0
C583 C 0.96468 0.32525 0.05962 0.0
C584 C 0.94828 0.32682 0.13609 0.0
C585 C 0.97973 0.33136 0.15117 0.0
C586 C 0.00325 0.33208 0.12015 0.0
C587 C -0.00423 0.3289 0.07493 0.0
H588 H 0.67991 0.02701 0.37883 0.0
H589 H 0.59099 0.92842 0.40432 0.0
H590 H 0.68709 0.03837 0.45819 0.0
H591 H 0.59829 0.94001 0.48378 0.0
H592 H 0.64374 0.95984 0.62399 0.0
H593 H 0.63963 0.94828 0.54466 0.0
H594 H 0.65498 0.04896 0.51829 0.0
H595 H 0.6592 0.06074 0.5977 0.0
C596 C 0.66198 0.00765 0.4013 0.0
C597 C 0.6348 0.97678 0.38512 0.0
C598 C 0.66602 0.01431 0.44677 0.0
C599 C 0.6432 0.99014 0.47714 0.0
C600 C 0.61644 0.959 0.46113 0.0
C601 C 0.61218 0.95244 0.4156 0.0
C602 C 0.64646 0.97966 0.60135 0.0
C603 C 0.65176 0.01125 0.61728 0.0
C604 C 0.64388 0.97289 0.5559 0.0
C605 C 0.64689 -0.00234 0.52532 0.0
C606 C 0.65284 0.02947 0.54111 0.0
C607 C 0.65509 0.03615 0.5866 0.0
H608 H 0.67937 0.65576 0.95063 0.0
H609 H 0.58967 0.66387 0.92336 0.0
H610 H 0.68746 0.65179 0.87151 0.0
H611 H 0.59795 0.65986 0.84403 0.0
H612 H 0.64419 0.68444 0.70383 0.0
H613 H 0.63977 0.69282 0.7829 0.0
H614 H 0.65568 0.60819 0.81211 0.0
H615 H 0.66014 0.59968 0.73304 0.0
C616 C 0.66147 0.65693 0.92781 0.0
C617 C 0.63374 0.66001 0.94345 0.0
C618 C 0.66606 0.65445 0.88247 0.0
C619 C 0.64326 0.65534 0.85164 0.0
C620 C 0.61606 0.65933 0.86706 0.0
C621 C 0.61125 0.66147 0.91251 0.0
C622 C 0.64699 0.66773 0.72706 0.0
C623 C 0.65246 0.64131 0.71203 0.0
C624 C 0.64424 0.67244 0.77234 0.0
C625 C 0.64728 0.65111 0.80363 0.0
C626 C 0.65349 0.6252 0.78873 0.0
C627 C 0.65589 0.62023 0.74343 0.0
H628 H 0.95115 0.5799 0.2766 0.0
H629 H 0.00461 0.68969 0.29204 0.0
H630 H 0.96602 0.58673 0.19785 0.0
H631 H 0.01885 0.69634 0.21308 0.0
H632 H -0.00647 0.68417 0.05962 0.0
H633 H 0.9823 0.67993 0.13926 0.0
H634 H 0.02441 0.61308 0.15267 0.0
H635 H 0.03633 0.61775 0.07296 0.0
C636 C 0.96579 0.60546 0.26313 0.0
C637 C 0.97663 0.63426 0.29049 0.0
C638 C 0.97452 0.60932 0.2182 0.0
C639 C -0.00632 0.64204 0.19962 0.0
C640 C 0.00401 0.67085 0.22669 0.0
C641 C -0.00412 0.66701 0.2718 0.0
C642 C 0.00073 0.66884 0.07961 0.0
C643 C 0.01582 0.65128 0.06006 0.0
C644 C -0.00563 0.66652 0.12514 0.0
C645 C 0.00235 0.64606 0.15188 0.0
C646 C 0.01784 0.62884 0.13258 0.0
C647 C 0.02486 0.63171 0.08712 0.0
loop_
_geom_bond_atom_site_label_1
_geom_bond_atom_site_label_2
_geom_bond_distance
_geom_bond_site_symmetry_2
_ccdc_geom_bond_type
Mg0 O1 2.028 . S
Mg0 O7 1.986 1_565 S
Mg0 O9 2.114 . S
Mg0 O10 2.251 1_565 S
Mg0 O13 2.010 . S
O1 Mg0 2.028 . S
O1 C4 1.250 1_565 S
O2 Mg3 2.028 . S
O2 C4 1.248 . S
Mg3 O2 2.028 . S
Mg3 O8 2.032 . S
Mg3 O10 2.079 . S
C4 O1 1.250 1_545 S
C4 O2 1.248 . S
C5 O6 1.264 . S
C5 O13 1.249 . S
O6 C5 1.264 . S
O7 Mg0 1.986 1_545 S
O7 C11 1.246 . S
O8 Mg3 2.032 . S
O8 C11 1.259 . S
O9 Mg0 2.114 . S
O9 C12 1.252 . S
O10 Mg0 2.251 1_545 S
O10 Mg3 2.079 . S
O10 C12 1.273 1_545 S
C11 O7 1.246 . S
C11 O8 1.259 . S
C12 O9 1.252 . S
C12 O10 1.273 1_565 S
O13 Mg0 2.010 . S
O13 C5 1.249 . S
Mg14 O15 2.028 . S
Mg14 O21 1.986 . S
Mg14 O23 2.114 . S
Mg14 O24 2.251 . S
Mg14 O27 2.010 . S
O15 Mg14 2.028 . S
O15 C18 1.250 . S
O16 Mg17 2.028 . S
O16 C18 1.248 . S
Mg17 O16 2.028 . S
Mg17 O22 2.032 . S
Mg17 O24 2.079 . S
C18 O15 1.250 . S
C18 O16 1.248 . S
C19 O20 1.264 . S
C19 O27 1.249 . S
O20 C19 1.264 . S
O21 Mg14 1.986 . S
O21 C25 1.246 . S
O22 Mg17 2.032 . S
O22 C25 1.259 . S
O23 Mg14 2.114 . S
O23 C26 1.252 . S
O24 Mg14 2.251 . S
O24 Mg17 2.079 . S
O24 C26 1.273 . S
C25 O21 1.246 . S
C25 O22 1.259 . S
C26 O23 1.252 . S
C26 O24 1.273 . S
O27 Mg14 2.010 . S
O27 C19 1.249 . S
Mg28 O29 2.028 . S
Mg28 O35 1.986 1_455 S
Mg28 O37 2.114 . S
Mg28 O38 2.251 1_455 S
Mg28 O41 2.010 . S
O29 Mg28 2.028 . S
O29 C32 1.250 1_456 S
O30 Mg31 2.028 1_554 S
O30 C32 1.248 . S
Mg31 O30 2.028 1_556 S
Mg31 O36 2.032 . S
Mg31 O38 2.079 . S
C32 O29 1.250 1_654 S
C32 O30 1.248 . S
C33 O34 1.264 . S
C33 O41 1.249 . S
O34 C33 1.264 . S
O35 Mg28 1.986 1_655 S
O35 C39 1.246 . S
O36 Mg31 2.032 . S
O36 C39 1.259 . S
O37 Mg28 2.114 . S
O37 C40 1.252 . S
O38 Mg28 2.251 1_655 S
O38 Mg31 2.079 . S
O38 C40 1.273 1_655 S
C39 O35 1.246 . S
C39 O36 1.259 . S
C40 O37 1.252 . S
C40 O38 1.273 1_455 S
O41 Mg28 2.010 . S
O41 C33 1.249 . S
Mg42 O43 2.028 . S
Mg42 O49 1.986 1_545 S
Mg42 O51 2.114 . S
Mg42 O52 2.251 1_545 S
Mg42 O55 2.010 . S
O43 Mg42 2.028 . S
O43 C46 1.250 1_545 S
O44 Mg45 2.028 . S
O44 C46 1.248 . S
Mg45 O44 2.028 . S
Mg45 O50 2.032 . S
Mg45 O52 2.079 . S
C46 O43 1.250 1_565 S
C46 O44 1.248 . S
C47 O48 1.264 . S
C47 O55 1.249 . S
O48 C47 1.264 . S
O49 Mg42 1.986 1_565 S
O49 C53 1.246 . S
O50 Mg45 2.032 . S
O50 C53 1.259 . S
O51 Mg42 2.114 . S
O51 C54 1.252 . S
O52 Mg42 2.251 1_565 S
O52 Mg45 2.079 . S
O52 C54 1.273 1_565 S
C53 O49 1.246 . S
C53 O50 1.259 . S
C54 O51 1.252 . S
C54 O52 1.273 1_545 S
O55 Mg42 2.010 . S
O55 C47 1.249 . S
Mg56 O57 2.028 . S
Mg56 O63 1.986 . S
Mg56 O65 2.114 . S
Mg56 O66 2.251 . S
Mg56 O69 2.010 . S
O57 Mg56 2.028 . S
O57 C60 1.250 . S
O58 Mg59 2.028 . S
O58 C60 1.248 . S
Mg59 O58 2.028 . S
Mg59 O64 2.032 . S
Mg59 O66 2.079 . S
C60 O57 1.250 . S
C60 O58 1.248 . S
C61 O62 1.264 . S
C61 O69 1.249 . S
O62 C61 1.264 . S
O63 Mg56 1.986 . S
O63 C67 1.246 . S
O64 Mg59 2.032 . S
O64 C67 1.259 . S
O65 Mg56 2.114 . S
O65 C68 1.252 . S
O66 Mg56 2.251 . S
O66 Mg59 2.079 . S
O66 C68 1.273 . S
C67 O63 1.246 . S
C67 O64 1.259 . S
C68 O65 1.252 . S
C68 O66 1.273 . S
O69 Mg56 2.010 . S
O69 C61 1.249 . S
Mg70 O71 2.028 . S
Mg70 O77 1.986 1_655 S
Mg70 O79 2.114 . S
Mg70 O80 2.251 1_655 S
Mg70 O83 2.010 . S
O71 Mg70 2.028 . S
O71 C74 1.250 1_656 S
O72 Mg73 2.028 1_554 S
O72 C74 1.248 . S
Mg73 O72 2.028 1_556 S
Mg73 O78 2.032 . S
Mg73 O80 2.079 . S
C74 O71 1.250 1_454 S
C74 O72 1.248 . S
C75 O76 1.264 . S
C75 O83 1.249 . S
O76 C75 1.264 . S
O77 Mg70 1.986 1_455 S
O77 C81 1.246 . S
O78 Mg73 2.032 . S
O78 C81 1.259 . S
O79 Mg70 2.114 . S
O79 C82 1.252 . S
O80 Mg70 2.251 1_455 S
O80 Mg73 2.079 . S
O80 C82 1.273 1_455 S
C81 O77 1.246 . S
C81 O78 1.259 . S
C82 O79 1.252 . S
C82 O80 1.273 1_655 S
O83 Mg70 2.010 . S
O83 C75 1.249 . S
Mg84 O85 2.028 . S
Mg84 O91 1.986 1_455 S
Mg84 O93 2.114 . S
Mg84 O94 2.251 1_455 S
Mg84 O97 2.010 . S
O85 Mg84 2.028 . S
O85 C88 1.250 1_455 S
O86 Mg87 2.028 . S
O86 C88 1.248 . S
Mg87 O86 2.028 . S
Mg87 O92 2.032 . S
Mg87 O94 2.079 . S
C88 O85 1.250 1_655 S
C88 O86 1.248 . S
C89 O90 1.264 . S
C89 O97 1.249 . S
O90 C89 1.264 . S
O91 Mg84 1.986 1_655 S
O91 C95 1.246 . S
O92 Mg87 2.032 . S
O92 C95 1.259 . S
O93 Mg84 2.114 . S
O93 C96 1.252 . S
O94 Mg84 2.251 1_655 S
O94 Mg87 2.079 . S
O94 C96 1.273 1_655 S
C95 O91 1.246 . S
C95 O92 1.259 . S
C96 O93 1.252 . S
C96 O94 1.273 1_455 S
O97 Mg84 2.010 . S
O97 C89 1.249 . S
Mg98 O99 2.028 . S
Mg98 O105 1.986 1_545 S
Mg98 O107 2.114 . S
Mg98 O108 2.251 1_545 S
Mg98 O111 2.010 . S
O99 Mg98 2.028 . S
O99 C102 1.250 1_545 S
O100 Mg101 2.028 . S
O100 C102 1.248 . S
Mg101 O100 2.028 . S
Mg101 O106 2.032 . S
Mg101 O108 2.079 . S
C102 O99 1.250 1_565 S
C102 O100 1.248 . S
C103 O104 1.264 . S
C103 O111 1.249 . S
O104 C103 1.264 . S
O105 Mg98 1.986 1_565 S
O105 C109 1.246 . S
O106 Mg101 2.032 . S
O106 C109 1.259 . S
O107 Mg98 2.114 . S
O107 C110 1.252 . S
O108 Mg98 2.251 1_565 S
O108 Mg101 2.079 . S
O108 C110 1.273 1_565 S
C109 O105 1.246 . S
C109 O106 1.259 . S
C110 O107 1.252 . S
C110 O108 1.273 1_545 S
O111 Mg98 2.010 . S
O111 C103 1.249 . S
Mg112 O113 2.028 . S
Mg112 O119 1.986 . S
Mg112 O121 2.114 . S
Mg112 O122 2.251 . S
Mg112 O125 2.010 . S
O113 Mg112 2.028 . S
O113 C116 1.250 1_554 S
O114 Mg115 2.028 1_556 S
O114 C116 1.248 . S
Mg115 O114 2.028 1_554 S
Mg115 O120 2.032 . S
Mg115 O122 2.079 . S
C116 O113 1.250 1_556 S
C116 O114 1.248 . S
C117 O118 1.264 . S
C117 O125 1.249 . S
O118 C117 1.264 . S
O119 Mg112 1.986 . S
O119 C123 1.246 . S
O120 Mg115 2.032 . S
O120 C123 1.259 . S
O121 Mg112 2.114 . S
O121 C124 1.252 . S
O122 Mg112 2.251 . S
O122 Mg115 2.079 . S
O122 C124 1.273 . S
C123 O119 1.246 . S
C123 O120 1.259 . S
C124 O121 1.252 . S
C124 O122 1.273 . S
O125 Mg112 2.010 . S
O125 C117 1.249 . S
Mg126 O127 2.028 . S
Mg126 O133 1.986 1_655 S
Mg126 O135 2.114 . S
Mg126 O136 2.251 1_655 S
Mg126 O139 2.010 . S
O127 Mg126 2.028 . S
O127 C130 1.250 1_655 S
O128 Mg129 2.028 . S
O128 C130 1.248 . S
Mg129 O128 2.028 . S
Mg129 O134 2.032 . S
Mg129 O136 2.079 . S
C130 O127 1.250 1_455 S
C130 O128 1.248 . S
C131 O132 1.264 . S
C131 O139 1.249 . S
O132 C131 1.264 . S
O133 Mg126 1.986 1_455 S
O133 C137 1.246 . S
O134 Mg129 2.032 . S
O134 C137 1.259 . S
O135 Mg126 2.114 . S
O135 C138 1.252 . S
O136 Mg126 2.251 1_455 S
O136 Mg129 2.079 . S
O136 C138 1.273 1_455 S
C137 O133 1.246 . S
C137 O134 1.259 . S
C138 O135 1.252 . S
C138 O136 1.273 1_655 S
O139 Mg126 2.010 . S
O139 C131 1.249 . S
Mg140 O141 2.028 . S
Mg140 O147 1.986 1_565 S
Mg140 O149 2.114 . S
Mg140 O150 2.251 1_565 S
Mg140 O153 2.010 . S
O141 Mg140 2.028 . S
O141 C144 1.250 1_565 S
O142 Mg143 2.028 . S
O142 C144 1.248 . S
Mg143 O142 2.028 . S
Mg143 O148 2.032 . S
Mg143 O150 2.079 . S
C144 O141 1.250 1_545 S
C144 O142 1.248 . S
C145 O146 1.264 . S
C145 O153 1.249 . S
O146 C145 1.264 . S
O147 Mg140 1.986 1_545 S
O147 C151 1.246 . S
O148 Mg143 2.032 . S
O148 C151 1.259 . S
O149 Mg140 2.114 . S
O149 C152 1.252 . S
O150 Mg140 2.251 1_545 S
O150 Mg143 2.079 . S
O150 C152 1.273 1_545 S
C151 O147 1.246 . S
C151 O148 1.259 . S
C152 O149 1.252 . S
C152 O150 1.273 1_565 S
O153 Mg140 2.010 . S
O153 C145 1.249 . S
Mg154 O155 2.028 . S
Mg154 O161 1.986 . S
Mg154 O163 2.114 . S
Mg154 O164 2.251 . S
Mg154 O167 2.010 . S
O155 Mg154 2.028 . S
O155 C158 1.250 1_554 S
O156 Mg157 2.028 1_556 S
O156 C158 1.248 . S
Mg157 O156 2.028 1_554 S
Mg157 O162 2.032 . S
Mg157 O164 2.079 . S
C158 O155 1.250 1_556 S
C158 O156 1.248 . S
C159 O160 1.264 . S
C159 O167 1.249 . S
O160 C159 1.264 . S
O161 Mg154 1.986 . S
O161 C165 1.246 . S
O162 Mg157 2.032 . S
O162 C165 1.259 . S
O163 Mg154 2.114 . S
O163 C166 1.252 . S
O164 Mg154 2.251 . S
O164 Mg157 2.079 . S
O164 C166 1.273 . S
C165 O161 1.246 . S
C165 O162 1.259 . S
C166 O163 1.252 . S
C166 O164 1.273 . S
O167 Mg154 2.010 . S
O167 C159 1.249 . S
H168 C176 0.950 . S
H169 C181 0.950 . S
H170 C178 0.950 . S
H171 C180 0.950 . S
H172 C182 0.950 . S
H173 C184 0.950 . S
H174 C186 0.950 . S
H175 C187 0.950 . S
C176 H168 0.950 . S
C176 C177 1.386 . S
C176 C178 1.391 . S
C177 C176 1.386 . S
C177 C181 1.393 . S
C178 H170 0.950 . S
C178 C176 1.391 . S
C178 C179 1.400 . S
C179 C178 1.400 . S
C179 C180 1.398 . S
C179 C185 1.491 . S
C180 H171 0.950 . S
C180 C179 1.398 . S
C180 C181 1.391 . S
C181 H169 0.950 . S
C181 C177 1.393 . S
C181 C180 1.391 . S
C182 H172 0.950 . S
C182 C183 1.386 . S
C182 C184 1.391 . S
C183 C182 1.386 . S
C183 C187 1.393 . S
C184 H173 0.950 . S
C184 C182 1.391 . S
C184 C185 1.400 . S
C185 C179 1.491 . S
C185 C184 1.400 . S
C185 C186 1.398 . S
C186 H174 0.950 . S
C186 C185 1.398 . S
C186 C187 1.391 . S
C187 H175 0.950 . S
C187 C183 1.393 . S
C187 C186 1.391 . S
H188 C196 0.950 . S
H189 C201 0.950 . S
H190 C198 0.950 . S
H191 C200 0.950 . S
H192 C202 0.950 . S
H193 C204 0.950 . S
H194 C206 0.950 . S
H195 C207 0.950 . S
C196 H188 0.950 . S
C196 C197 1.386 . S
C196 C198 1.391 . S
C197 C196 1.386 . S
C197 C201 1.393 . S
C198 H190 0.950 . S
C198 C196 1.391 . S
C198 C199 1.400 . S
C199 C198 1.400 . S
C199 C200 1.398 . S
C199 C205 1.491 . S
C200 H191 0.950 . S
C200 C199 1.398 . S
C200 C201 1.391 . S
C201 H189 0.950 . S
C201 C197 1.393 . S
C201 C200 1.391 . S
C202 H192 0.950 . S
C202 C203 1.386 . S
C202 C204 1.391 . S
C203 C202 1.386 . S
C203 C207 1.393 . S
C204 H193 0.950 . S
C204 C202 1.391 . S
C204 C205 1.400 . S
C205 C199 1.491 . S
C205 C204 1.400 . S
C205 C206 1.398 . S
C206 H194 0.950 . S
C206 C205 1.398 . S
C206 C207 1.391 . S
C207 H195 0.950 . S
C207 C203 1.393 . S
C207 C206 1.391 . S
H208 C216 0.950 . S
H209 C221 0.950 . S
H210 C218 0.950 . S
H211 C220 0.950 . S
H212 C222 0.950 . S
H213 C224 0.950 . S
H214 C226 0.950 . S
H215 C227 0.950 . S
C216 H208 0.950 . S
C216 C217 1.386 . S
C216 C218 1.391 . S
C217 C216 1.386 . S
C217 C221 1.393 . S
C218 H210 0.950 . S
C218 C216 1.391 . S
C218 C219 1.400 . S
C219 C218 1.400 . S
C219 C220 1.398 . S
C219 C225 1.491 . S
C220 H211 0.950 . S
C220 C219 1.398 . S
C220 C221 1.391 . S
C221 H209 0.950 . S
C221 C217 1.393 . S
C221 C220 1.391 . S
C222 H212 0.950 . S
C222 C223 1.386 . S
C222 C224 1.391 . S
C223 C222 1.386 . S
C223 C227 1.393 . S
C224 H213 0.950 . S
C224 C222 1.391 . S
C224 C225 1.400 . S
C225 C219 1.491 . S
C225 C224 1.400 . S
C225 C226 1.398 . S
C226 H214 0.950 . S
C226 C225 1.398 . S
C226 C227 1.391 . S
C227 H215 0.950 . S
C227 C223 1.393 . S
C227 C226 1.391 . S
H228 C236 0.950 . S
H229 C241 0.950 . S
H230 C238 0.950 . S
H231 C240 0.950 . S
H232 C242 0.950 . S
H233 C244 0.950 . S
H234 C246 0.950 . S
H235 C247 0.950 . S
C236 H228 0.950 . S
C236 C237 1.386 . S
C236 C238 1.391 . S
C237 C236 1.386 . S
C237 C241 1.393 . S
C238 H230 0.950 . S
C238 C236 1.391 . S
C238 C239 1.400 . S
C239 C238 1.400 . S
C239 C240 1.398 . S
C239 C245 1.491 . S
C240 H231 0.950 . S
C240 C239 1.398 . S
C240 C241 1.391 . S
C241 H229 0.950 . S
C241 C237 1.393 . S
C241 C240 1.391 . S
C242 H232 0.950 . S
C242 C243 1.386 . S
C242 C244 1.391 . S
C243 C242 1.386 . S
C243 C247 1.393 . S
C244 H233 0.950 . S
C244 C242 1.391 . S
C244 C245 1.400 . S
C245 C239 1.491 . S
C245 C244 1.400 . S
C245 C246 1.398 . S
C246 H234 0.950 . S
C246 C245 1.398 . S
C246 C247 1.391 . S
C247 H235 0.950 . S
C247 C243 1.393 . S
C247 C246 1.391 . S
H248 C256 0.950 . S
H249 C261 0.950 . S
H250 C258 0.950 . S
H251 C260 0.950 . S
H252 C262 0.950 . S
H253 C264 0.950 . S
H254 C266 0.950 . S
H255 C267 0.950 . S
C256 H248 0.950 . S
C256 C257 1.386 . S
C256 C258 1.391 . S
C257 C256 1.386 . S
C257 C261 1.393 . S
C258 H250 0.950 . S
C258 C256 1.391 . S
C258 C259 1.400 . S
C259 C258 1.400 . S
C259 C260 1.398 . S
C259 C265 1.491 . S
C260 H251 0.950 . S
C260 C259 1.398 . S
C260 C261 1.391 . S
C261 H249 0.950 . S
C261 C257 1.393 . S
C261 C260 1.391 . S
C262 H252 0.950 . S
C262 C263 1.386 . S
C262 C264 1.391 . S
C263 C262 1.386 . S
C263 C267 1.393 . S
C264 H253 0.950 . S
C264 C262 1.391 . S
C264 C265 1.400 . S
C265 C259 1.491 . S
C265 C264 1.400 . S
C265 C266 1.398 . S
C266 H254 0.950 . S
C266 C265 1.398 . S
C266 C267 1.391 . S
C267 H255 0.950 . S
C267 C263 1.393 . S
C267 C266 1.391 . S
H268 C276 0.950 . S
H269 C281 0.950 . S
H270 C278 0.950 . S
H271 C280 0.950 . S
H272 C282 0.950 . S
H273 C284 0.950 . S
H274 C286 0.950 . S
H275 C287 0.950 . S
C276 H268 0.950 . S
C276 C277 1.386 . S
C276 C278 1.391 . S
C277 C276 1.386 . S
C277 C281 1.393 . S
C278 H270 0.950 . S
C278 C276 1.391 . S
C278 C279 1.400 . S
C279 C278 1.400 . S
C279 C280 1.398 . S
C279 C285 1.491 . S
C280 H271 0.950 . S
C280 C279 1.398 . S
C280 C281 1.391 . S
C281 H269 0.950 . S
C281 C277 1.393 . S
C281 C280 1.391 . S
C282 H272 0.950 . S
C282 C283 1.386 . S
C282 C284 1.391 . S
C283 C282 1.386 . S
C283 C287 1.393 . S
C284 H273 0.950 . S
C284 C282 1.391 . S
C284 C285 1.400 . S
C285 C279 1.491 . S
C285 C284 1.400 . S
C285 C286 1.398 . S
C286 H274 0.950 . S
C286 C285 1.398 . S
C286 C287 1.391 . S
C287 H275 0.950 . S
C287 C283 1.393 . S
C287 C286 1.391 . S
H288 C296 0.950 . S
H289 C301 0.950 . S
H290 C298 0.950 . S
H291 C300 0.950 . S
H292 C302 0.950 . S
H293 C304 0.950 . S
H294 C306 0.950 . S
H295 C307 0.950 . S
C296 H288 0.950 . S
C296 C297 1.386 . S
C296 C298 1.391 . S
C297 C296 1.386 . S
C297 C301 1.393 1_565 S
C298 H290 0.950 . S
C298 C296 1.391 . S
C298 C299 1.396 . S
C299 C298 1.396 . S
C299 C300 1.389 1_565 S
C299 C305 1.524 1_565 S
C300 H291 0.950 . S
C300 C299 1.389 1_545 S
C300 C301 1.391 . S
C301 H289 0.950 . S
C301 C297 1.393 1_545 S
C301 C300 1.391 . S
C302 H292 0.950 . S
C302 C303 1.386 . S
C302 C304 1.391 . S
C303 C302 1.386 . S
C303 C307 1.393 1_545 S
C304 H293 0.950 . S
C304 C302 1.391 . S
C304 C305 1.395 . S
C305 C299 1.524 1_545 S
C305 C304 1.395 . S
C305 C306 1.386 1_545 S
C306 H294 0.950 . S
C306 C305 1.386 1_565 S
C306 C307 1.391 . S
C307 H295 0.950 . S
C307 C303 1.393 1_565 S
C307 C306 1.391 . S
H308 C316 0.950 . S
H309 C321 0.950 . S
H310 C318 0.950 . S
H311 C320 0.950 . S
H312 C322 0.950 . S
H313 C324 0.950 . S
H314 C326 0.950 . S
H315 C327 0.950 . S
C316 H308 0.950 . S
C316 C317 1.386 . S
C316 C318 1.391 . S
C317 C316 1.386 . S
C317 C321 1.393 . S
C318 H310 0.950 . S
C318 C316 1.391 . S
C318 C319 1.400 . S
C319 C318 1.400 . S
C319 C320 1.398 . S
C319 C325 1.491 . S
C320 H311 0.950 . S
C320 C319 1.398 . S
C320 C321 1.391 . S
C321 H309 0.950 . S
C321 C317 1.393 . S
C321 C320 1.391 . S
C322 H312 0.950 . S
C322 C323 1.386 . S
C322 C324 1.391 . S
C323 C322 1.386 . S
C323 C327 1.393 . S
C324 H313 0.950 . S
C324 C322 1.391 . S
C324 C325 1.400 . S
C325 C319 1.491 . S
C325 C324 1.400 . S
C325 C326 1.398 . S
C326 H314 0.950 . S
C326 C325 1.398 . S
C326 C327 1.391 . S
C327 H315 0.950 . S
C327 C323 1.393 . S
C327 C326 1.391 . S
H328 C336 0.950 . S
H329 C341 0.950 . S
H330 C338 0.950 . S
H331 C340 0.950 . S
H332 C342 0.950 . S
H333 C344 0.950 . S
H334 C346 0.950 . S
H335 C347 0.950 . S
C336 H328 0.950 . S
C336 C337 1.386 . S
C336 C338 1.391 . S
C337 C336 1.386 . S
C337 C341 1.393 1_655 S
C338 H330 0.950 . S
C338 C336 1.391 . S
C338 C339 1.412 . S
C339 C338 1.412 . S
C339 C340 1.403 1_655 S
C339 C345 1.455 1_655 S
C340 H331 0.950 . S
C340 C339 1.403 1_455 S
C340 C341 1.391 . S
C341 H329 0.950 . S
C341 C337 1.393 1_455 S
C341 C340 1.391 . S
C342 H332 0.950 . S
C342 C343 1.386 . S
C342 C344 1.391 . S
C343 C342 1.386 . S
C343 C347 1.393 1_455 S
C344 H333 0.950 . S
C344 C342 1.391 . S
C344 C345 1.416 . S
C345 C339 1.455 1_455 S
C345 C344 1.416 . S
C345 C346 1.405 1_455 S
C346 H334 0.950 . S
C346 C345 1.405 1_655 S
C346 C347 1.391 . S
C347 H335 0.950 . S
C347 C343 1.393 1_655 S
C347 C346 1.391 . S
H348 C356 0.946 . S
H349 C361 0.950 . S
H350 C358 0.959 1_655 S
H351 C360 0.950 . S
H352 C362 0.959 . S
H353 C364 0.959 1_455 S
H354 C366 0.950 . S
H355 C367 0.950 . S
C356 H348 0.946 . S
C356 C357 1.377 . S
C356 C358 1.411 . S
C357 C356 1.377 . S
C357 C361 1.393 . S
C358 H350 0.959 1_455 S
C358 C356 1.411 . S
C358 C359 1.392 . S
C359 C358 1.392 . S
C359 C360 1.393 . S
C359 C365 1.525 1_455 S
C360 H351 0.950 . S
C360 C359 1.393 . S
C360 C361 1.391 . S
C361 H349 0.950 . S
C361 C357 1.393 . S
C361 C360 1.391 . S
C362 H352 0.959 . S
C362 C363 1.386 . S
C362 C364 1.387 . S
C363 C362 1.386 . S
C363 C367 1.393 . S
C364 H353 0.959 1_655 S
C364 C362 1.387 . S
C364 C365 1.392 . S
C365 C359 1.525 1_655 S
C365 C364 1.392 . S
C365 C366 1.391 . S
C366 H354 0.950 . S
C366 C365 1.391 . S
C366 C367 1.391 . S
C367 H355 0.950 . S
C367 C363 1.393 . S
C367 C366 1.391 . S
H368 C376 0.950 . S
H369 C381 0.950 . S
H370 C378 0.950 . S
H371 C380 0.950 . S
H372 C382 0.950 . S
H373 C384 0.950 . S
H374 C386 0.950 . S
H375 C387 0.950 . S
C376 H368 0.950 . S
C376 C377 1.386 . S
C376 C378 1.391 . S
C377 C376 1.386 . S
C377 C381 1.393 1_565 S
C378 H370 0.950 . S
C378 C376 1.391 . S
C378 C379 1.403 . S
C379 C378 1.403 . S
C379 C380 1.397 1_565 S
C379 C385 1.483 1_565 S
C380 H371 0.950 . S
C380 C379 1.397 1_545 S
C380 C381 1.391 . S
C381 H369 0.950 . S
C381 C377 1.393 1_545 S
C381 C380 1.391 . S
C382 H372 0.950 . S
C382 C383 1.386 . S
C382 C384 1.391 . S
C383 C382 1.386 . S
C383 C387 1.393 1_545 S
C384 H373 0.950 . S
C384 C382 1.391 . S
C384 C385 1.412 . S
C385 C379 1.483 1_545 S
C385 C384 1.412 . S
C385 C386 1.393 1_545 S
C386 H374 0.950 . S
C386 C385 1.393 1_565 S
C386 C387 1.391 . S
C387 H375 0.950 . S
C387 C383 1.393 1_565 S
C387 C386 1.391 . S
H388 C396 0.950 . S
H389 C401 0.950 . S
H390 C398 0.950 . S
H391 C400 0.950 . S
H392 C402 0.950 . S
H393 C404 0.950 . S
H394 C406 0.950 . S
H395 C407 0.950 . S
C396 H388 0.950 . S
C396 C397 1.386 . S
C396 C398 1.391 . S
C397 C396 1.386 . S
C397 C401 1.393 . S
C398 H390 0.950 . S
C398 C396 1.391 . S
C398 C399 1.400 . S
C399 C398 1.400 . S
C399 C400 1.398 . S
C399 C405 1.491 . S
C400 H391 0.950 . S
C400 C399 1.398 . S
C400 C401 1.391 . S
C401 H389 0.950 . S
C401 C397 1.393 . S
C401 C400 1.391 . S
C402 H392 0.950 . S
C402 C403 1.386 . S
C402 C404 1.391 . S
C403 C402 1.386 . S
C403 C407 1.393 . S
C404 H393 0.950 . S
C404 C402 1.391 . S
C404 C405 1.400 . S
C405 C399 1.491 . S
C405 C404 1.400 . S
C405 C406 1.398 . S
C406 H394 0.950 . S
C406 C405 1.398 . S
C406 C407 1.391 . S
C407 H395 0.950 . S
C407 C403 1.393 . S
C407 C406 1.391 . S
H408 C416 0.950 . S
H409 C421 0.950 . S
H410 C418 0.950 . S
H411 C420 0.950 . S
H412 C422 0.950 . S
H413 C424 0.950 . S
H414 C426 0.950 . S
H415 C427 0.950 . S
C416 H408 0.950 . S
C416 C417 1.386 . S
C416 C418 1.391 . S
C417 C416 1.386 . S
C417 C421 1.393 . S
C418 H410 0.950 . S
C418 C416 1.391 . S
C418 C419 1.400 . S
C419 C418 1.400 . S
C419 C420 1.398 . S
C419 C425 1.491 . S
C420 H411 0.950 . S
C420 C419 1.398 . S
C420 C421 1.391 . S
C421 H409 0.950 . S
C421 C417 1.393 . S
C421 C420 1.391 . S
C422 H412 0.950 . S
C422 C423 1.386 . S
C422 C424 1.391 . S
C423 C422 1.386 . S
C423 C427 1.393 . S
C424 H413 0.950 . S
C424 C422 1.391 . S
C424 C425 1.400 . S
C425 C419 1.491 . S
C425 C424 1.400 . S
C425 C426 1.398 . S
C426 H414 0.950 . S
C426 C425 1.398 . S
C426 C427 1.391 . S
C427 H415 0.950 . S
C427 C423 1.393 . S
C427 C426 1.391 . S
H428 C436 0.950 . S
H429 C441 0.950 . S
H430 C438 0.950 . S
H431 C440 0.950 . S
H432 C442 0.950 . S
H433 C444 0.950 . S
H434 C446 0.950 . S
H435 C447 0.950 . S
C436 H428 0.950 . S
C436 C437 1.386 . S
C436 C438 1.391 . S
C437 C436 1.386 . S
C437 C441 1.393 . S
C438 H430 0.950 . S
C438 C436 1.391 . S
C438 C439 1.400 . S
C439 C438 1.400 . S
C439 C440 1.398 . S
C439 C445 1.491 . S
C440 H431 0.950 . S
C440 C439 1.398 . S
C440 C441 1.391 . S
C441 H429 0.950 . S
C441 C437 1.393 . S
C441 C440 1.391 . S
C442 H432 0.950 . S
C442 C443 1.386 . S
C442 C444 1.391 . S
C443 C442 1.386 . S
C443 C447 1.393 . S
C444 H433 0.950 . S
C444 C442 1.391 . S
C444 C445 1.400 . S
C445 C439 1.491 . S
C445 C444 1.400 . S
C445 C446 1.398 . S
C446 H434 0.950 . S
C446 C445 1.398 . S
C446 C447 1.391 . S
C447 H435 0.950 . S
C447 C443 1.393 . S
C447 C446 1.391 . S
H448 C456 0.950 1_556 S
H449 C461 0.950 . S
H450 C458 0.950 . S
H451 C460 0.950 . S
H452 C462 0.950 1_554 S
H453 C464 0.950 . S
H454 C466 0.950 . S
H455 C467 0.950 . S
C456 H448 0.950 1_554 S
C456 C457 1.386 . S
C456 C458 1.391 1_554 S
C457 C456 1.386 . S
C457 C461 1.393 . S
C458 H450 0.950 . S
C458 C456 1.391 1_556 S
C458 C459 1.400 1_556 S
C459 C458 1.400 1_554 S
C459 C460 1.398 . S
C459 C465 1.491 1_554 S
C460 H451 0.950 . S
C460 C459 1.398 . S
C460 C461 1.391 . S
C461 H449 0.950 . S
C461 C457 1.393 . S
C461 C460 1.391 . S
C462 H452 0.950 1_556 S
C462 C463 1.386 . S
C462 C464 1.391 1_556 S
C463 C462 1.386 . S
C463 C467 1.393 . S
C464 H453 0.950 . S
C464 C462 1.391 1_554 S
C464 C465 1.400 1_554 S
C465 C459 1.491 1_556 S
C465 C464 1.400 1_556 S
C465 C466 1.398 . S
C466 H454 0.950 . S
C466 C465 1.398 . S
C466 C467 1.391 . S
C467 H455 0.950 . S
C467 C463 1.393 . S
C467 C466 1.391 . S
H468 C476 0.950 . S
H469 C481 0.950 . S
H470 C478 0.950 . S
H471 C480 0.950 . S
H472 C482 0.950 . S
H473 C484 0.950 . S
H474 C486 0.950 . S
H475 C487 0.950 . S
C476 H468 0.950 . S
C476 C477 1.386 . S
C476 C478 1.391 . S
C477 C476 1.386 . S
C477 C481 1.393 . S
C478 H470 0.950 . S
C478 C476 1.391 . S
C478 C479 1.400 . S
C479 C478 1.400 . S
C479 C480 1.398 . S
C479 C485 1.491 . S
C480 H471 0.950 . S
C480 C479 1.398 . S
C480 C481 1.391 . S
C481 H469 0.950 . S
C481 C477 1.393 . S
C481 C480 1.391 . S
C482 H472 0.950 . S
C482 C483 1.386 . S
C482 C484 1.391 . S
C483 C482 1.386 . S
C483 C487 1.393 . S
C484 H473 0.950 . S
C484 C482 1.391 . S
C484 C485 1.400 . S
C485 C479 1.491 . S
C485 C484 1.400 . S
C485 C486 1.398 . S
C486 H474 0.950 . S
C486 C485 1.398 . S
C486 C487 1.391 . S
C487 H475 0.950 . S
C487 C483 1.393 . S
C487 C486 1.391 . S
H488 C496 0.950 . S
H489 C501 0.950 . S
H490 C498 0.950 . S
H491 C500 0.950 . S
H492 C502 0.950 . S
H493 C504 0.950 . S
H494 C506 0.950 . S
H495 C507 0.950 . S
C496 H488 0.950 . S
C496 C497 1.386 . S
C496 C498 1.391 . S
C497 C496 1.386 . S
C497 C501 1.393 . S
C498 H490 0.950 . S
C498 C496 1.391 . S
C498 C499 1.400 . S
C499 C498 1.400 . S
C499 C500 1.398 . S
C499 C505 1.491 . S
C500 H491 0.950 . S
C500 C499 1.398 . S
C500 C501 1.391 . S
C501 H489 0.950 . S
C501 C497 1.393 . S
C501 C500 1.391 . S
C502 H492 0.950 . S
C502 C503 1.386 . S
C502 C504 1.391 . S
C503 C502 1.386 . S
C503 C507 1.393 . S
C504 H493 0.950 . S
C504 C502 1.391 . S
C504 C505 1.400 . S
C505 C499 1.491 . S
C505 C504 1.400 . S
C505 C506 1.398 . S
C506 H494 0.950 . S
C506 C505 1.398 . S
C506 C507 1.391 . S
C507 H495 0.950 . S
C507 C503 1.393 . S
C507 C506 1.391 . S
H508 C516 0.950 . S
H509 C521 0.950 1_556 S
H510 C518 0.950 . S
H511 C520 0.950 . S
H512 C522 0.950 . S
H513 C524 0.950 . S
H514 C526 0.950 . S
H515 C527 0.950 1_554 S
C516 H508 0.950 . S
C516 C517 1.386 . S
C516 C518 1.391 . S
C517 C516 1.386 . S
C517 C521 1.393 . S
C518 H510 0.950 . S
C518 C516 1.391 . S
C518 C519 1.400 . S
C519 C518 1.400 . S
C519 C520 1.398 1_554 S
C519 C525 1.491 1_554 S
C520 H511 0.950 . S
C520 C519 1.398 1_556 S
C520 C521 1.391 1_556 S
C521 H509 0.950 1_554 S
C521 C517 1.393 . S
C521 C520 1.391 1_554 S
C522 H512 0.950 . S
C522 C523 1.386 . S
C522 C524 1.391 . S
C523 C522 1.386 . S
C523 C527 1.393 . S
C524 H513 0.950 . S
C524 C522 1.391 . S
C524 C525 1.400 . S
C525 C519 1.491 1_556 S
C525 C524 1.400 . S
C525 C526 1.398 1_556 S
C526 H514 0.950 . S
C526 C525 1.398 1_554 S
C526 C527 1.391 1_554 S
C527 H515 0.950 1_556 S
C527 C523 1.393 . S
C527 C526 1.391 1_556 S
H528 C536 0.950 . S
H529 C541 0.950 . S
H530 C538 0.950 . S
H531 C540 0.950 1_565 S
H532 C542 0.950 . S
H533 C544 0.950 . S
H534 C546 0.950 1_545 S
H535 C547 0.950 . S
C536 H528 0.950 . S
C536 C537 1.386 . S
C536 C538 1.391 . S
C537 C536 1.386 . S
C537 C541 1.393 . S
C538 H530 0.950 . S
C538 C536 1.391 . S
C538 C539 1.400 . S
C539 C538 1.400 . S
C539 C540 1.398 . S
C539 C545 1.491 1_545 S
C540 H531 0.950 1_545 S
C540 C539 1.398 . S
C540 C541 1.391 . S
C541 H529 0.950 . S
C541 C537 1.393 . S
C541 C540 1.391 . S
C542 H532 0.950 . S
C542 C543 1.386 . S
C542 C544 1.391 . S
C543 C542 1.386 . S
C543 C547 1.393 . S
C544 H533 0.950 . S
C544 C542 1.391 . S
C544 C545 1.400 . S
C545 C539 1.491 1_565 S
C545 C544 1.400 . S
C545 C546 1.398 . S
C546 H534 0.950 1_565 S
C546 C545 1.398 . S
C546 C547 1.391 . S
C547 H535 0.950 . S
C547 C543 1.393 . S
C547 C546 1.391 . S
H548 C556 0.950 . S
H549 C561 0.950 . S
H550 C558 0.950 . S
H551 C560 0.950 . S
H552 C562 0.950 . S
H553 C564 0.950 . S
H554 C566 0.950 . S
H555 C567 0.950 . S
C556 H548 0.950 . S
C556 C557 1.386 . S
C556 C558 1.391 . S
C557 C556 1.386 . S
C557 C561 1.393 . S
C558 H550 0.950 . S
C558 C556 1.391 . S
C558 C559 1.400 . S
C559 C558 1.400 . S
C559 C560 1.398 . S
C559 C565 1.491 . S
C560 H551 0.950 . S
C560 C559 1.398 . S
C560 C561 1.391 . S
C561 H549 0.950 . S
C561 C557 1.393 . S
C561 C560 1.391 . S
C562 H552 0.950 . S
C562 C563 1.386 . S
C562 C564 1.391 . S
C563 C562 1.386 . S
C563 C567 1.393 . S
C564 H553 0.950 . S
C564 C562 1.391 . S
C564 C565 1.400 . S
C565 C559 1.491 . S
C565 C564 1.400 . S
C565 C566 1.398 . S
C566 H554 0.950 . S
C566 C565 1.398 . S
C566 C567 1.391 . S
C567 H555 0.950 . S
C567 C563 1.393 . S
C567 C566 1.391 . S
H568 C576 0.950 . S
H569 C581 0.950 . S
H570 C578 0.950 . S
H571 C580 0.950 . S
H572 C582 0.950 . S
H573 C584 0.950 . S
H574 C586 0.950 . S
H575 C587 0.950 . S
C576 H568 0.950 . S
C576 C577 1.386 . S
C576 C578 1.391 . S
C577 C576 1.386 . S
C577 C581 1.393 1_455 S
C578 H570 0.950 . S
C578 C576 1.391 . S
C578 C579 1.400 . S
C579 C578 1.400 . S
C579 C580 1.398 1_455 S
C579 C585 1.491 1_455 S
C580 H571 0.950 . S
C580 C579 1.398 1_655 S
C580 C581 1.391 . S
C581 H569 0.950 . S
C581 C577 1.393 1_655 S
C581 C580 1.391 . S
C582 H572 0.950 . S
C582 C583 1.386 . S
C582 C584 1.391 . S
C583 C582 1.386 . S
C583 C587 1.393 1_655 S
C584 H573 0.950 . S
C584 C582 1.391 . S
C584 C585 1.400 . S
C585 C579 1.491 1_655 S
C585 C584 1.400 . S
C585 C586 1.398 1_655 S
C586 H574 0.950 . S
C586 C585 1.398 1_455 S
C586 C587 1.391 . S
C587 H575 0.950 . S
C587 C583 1.393 1_455 S
C587 C586 1.391 . S
H588 C596 0.950 . S
H589 C601 0.950 . S
H590 C598 0.950 . S
H591 C600 0.950 . S
H592 C602 0.950 . S
H593 C604 0.950 . S
H594 C606 0.950 . S
H595 C607 0.950 . S
C596 H588 0.950 . S
C596 C597 1.386 . S
C596 C598 1.391 . S
C597 C596 1.386 . S
C597 C601 1.393 . S
C598 H590 0.950 . S
C598 C596 1.391 . S
C598 C599 1.400 . S
C599 C598 1.400 . S
C599 C600 1.398 . S
C599 C605 1.491 1_565 S
C600 H591 0.950 . S
C600 C599 1.398 . S
C600 C601 1.391 . S
C601 H589 0.950 . S
C601 C597 1.393 . S
C601 C600 1.391 . S
C602 H592 0.950 . S
C602 C603 1.386 . S
C602 C604 1.391 . S
C603 C602 1.386 . S
C603 C607 1.393 . S
C604 H593 0.950 . S
C604 C602 1.391 . S
C604 C605 1.400 . S
C605 C599 1.491 1_545 S
C605 C604 1.400 . S
C605 C606 1.398 . S
C606 H594 0.950 . S
C606 C605 1.398 . S
C606 C607 1.391 . S
C607 H595 0.950 . S
C607 C603 1.393 . S
C607 C606 1.391 . S
H608 C616 0.950 . S
H609 C621 0.950 . S
H610 C618 0.950 . S
H611 C620 0.950 . S
H612 C622 0.950 . S
H613 C624 0.950 . S
H614 C626 0.950 . S
H615 C627 0.950 . S
C616 H608 0.950 . S
C616 C617 1.386 . S
C616 C618 1.391 . S
C617 C616 1.386 . S
C617 C621 1.393 . S
C618 H610 0.950 . S
C618 C616 1.391 . S
C618 C619 1.400 . S
C619 C618 1.400 . S
C619 C620 1.398 . S
C619 C625 1.491 . S
C620 H611 0.950 . S
C620 C619 1.398 . S
C620 C621 1.391 . S
C621 H609 0.950 . S
C621 C617 1.393 . S
C621 C620 1.391 . S
C622 H612 0.950 . S
C622 C623 1.386 . S
C622 C624 1.391 . S
C623 C622 1.386 . S
C623 C627 1.393 . S
C624 H613 0.950 . S
C624 C622 1.391 . S
C624 C625 1.400 . S
C625 C619 1.491 . S
C625 C624 1.400 . S
C625 C626 1.398 . S
C626 H614 0.950 . S
C626 C625 1.398 . S
C626 C627 1.391 . S
C627 H615 0.950 . S
C627 C623 1.393 . S
C627 C626 1.391 . S
H628 C636 0.950 . S
H629 C641 0.950 . S
H630 C638 0.950 . S
H631 C640 0.950 . S
H632 C642 0.950 . S
H633 C644 0.950 . S
H634 C646 0.950 . S
H635 C647 0.950 . S
C636 H628 0.950 . S
C636 C637 1.386 1_455 S
C636 C638 1.391 . S
C637 C636 1.386 1_655 S
C637 C641 1.393 . S
C638 H630 0.950 . S
C638 C636 1.391 . S
C638 C639 1.400 1_455 S
C639 C638 1.400 1_655 S
C639 C640 1.398 . S
C639 C645 1.491 1_655 S
C640 H631 0.950 . S
C640 C639 1.398 . S
C640 C641 1.391 . S
C641 H629 0.950 . S
C641 C637 1.393 . S
C641 C640 1.391 . S
C642 H632 0.950 . S
C642 C643 1.386 1_655 S
C642 C644 1.391 . S
C643 C642 1.386 1_455 S
C643 C647 1.393 . S
C644 H633 0.950 . S
C644 C642 1.391 . S
C644 C645 1.400 1_655 S
C645 C639 1.491 1_455 S
C645 C644 1.400 1_455 S
C645 C646 1.398 . S
C646 H634 0.950 . S
C646 C645 1.398 . S
C646 C647 1.391 . S
C647 H635 0.950 . S
C647 C643 1.393 . S
C647 C646 1.391 . S
C177 C11 1.786 . S
C183 C123 1.768 . S
C197 C25 1.778 . S
C203 C137 1.766 . S
C217 C151 1.735 . S
C223 C39 1.721 . S
C237 C165 1.783 . S
C243 C53 1.773 . S
C257 C95 1.781 . S
C263 C67 1.777 . S
C277 C109 1.735 . S
C283 C81 1.721 . S
C297 C12 1.443 . S
C303 C54 1.445 . S
C317 C68 1.428 . S
C323 C26 1.418 . S
C337 C82 1.399 . S
C343 C40 1.391 . S
C357 C96 1.442 . S
C363 C138 1.446 . S
C377 C152 1.402 . S
C383 C110 1.387 . S
C397 C124 1.418 . S
C403 C166 1.428 . S
C417 C89 1.180 . S
C423 C5 1.180 . S
C437 C19 1.175 . S
C443 C103 1.172 . S
C457 C117 1.161 . S
C463 C33 1.154 . S
C477 C131 1.204 . S
C483 C47 1.211 . S
C497 C61 1.145 . S
C503 C145 1.154 . S
C517 C159 1.158 . S
C523 C75 1.170 . S
C537 C4 0.855 . S
C543 C102 0.850 . S
C557 C116 0.864 . S
C563 C18 0.885 . S
C577 C130 0.864 . S
C583 C32 0.845 . S
C597 C46 0.853 . S
C603 C144 0.859 . S
C617 C158 0.865 . S
C623 C60 0.887 . S
C637 C88 0.846 . S
C643 C74 0.859 . S
