# Generated by pormake.
# Topology wmi, (6)-cn, num edge types: 1
# Building blocks:
#     Node 0, Type 0, BuildingBlock: PAMTUU_clean_sbu_0, # of connection points: 6
#     Node 1, Type 0, BuildingBlock: PAMTUU_clean_sbu_0, # of connection points: 6
#     Node 2, Type 0, BuildingBlock: PAMTUU_clean_sbu_0, # of connection points: 6
#     Node 3, Type 0, BuildingBlock: PAMTUU_clean_sbu_0, # of connection points: 6
#     Node 4, Type 0, BuildingBlock: PAMTUU_clean_sbu_0, # of connection points: 6
#     Node 5, Type 0, BuildingBlock: PAMTUU_clean_sbu_0, # of connection points: 6
#     Node 6, Type 0, BuildingBlock: PAMTUU_clean_sbu_0, # of connection points: 6
#     Node 7, Type 0, BuildingBlock: PAMTUU_clean_sbu_0, # of connection points: 6
#     Node 8, Type 0, BuildingBlock: PAMTUU_clean_sbu_0, # of connection points: 6
#     Node 9, Type 0, BuildingBlock: PAMTUU_clean_sbu_0, # of connection points: 6
#     Node 10, Type 0, BuildingBlock: PAMTUU_clean_sbu_0, # of connection points: 6
#     Node 11, Type 0, BuildingBlock: PAMTUU_clean_sbu_0, # of connection points: 6
#     Node 12, Type 0, BuildingBlock: PAMTUU_clean_sbu_0, # of connection points: 6
#     Node 13, Type 0, BuildingBlock: PAMTUU_clean_sbu_0, # of connection points: 6
#     Node 14, Type 0, BuildingBlock: PAMTUU_clean_sbu_0, # of connection points: 6
#     Node 15, Type 0, BuildingBlock: PAMTUU_clean_sbu_0, # of connection points: 6
#     Node 16, Type 0, BuildingBlock: PAMTUU_clean_sbu_0, # of connection points: 6
#     Node 17, Type 0, BuildingBlock: PAMTUU_clean_sbu_0, # of connection points: 6
#     Edge 18, Type (0, 0), BuildingBlock: XIVTED_clean_linker_0, # of connection points: 2
#     Edge 19, Type (0, 0), BuildingBlock: XIVTED_clean_linker_0, # of connection points: 2
#     Edge 20, Type (0, 0), BuildingBlock: XIVTED_clean_linker_0, # of connection points: 2
#     Edge 21, Type (0, 0), BuildingBlock: XIVTED_clean_linker_0, # of connection points: 2
#     Edge 22, Type (0, 0), BuildingBlock: XIVTED_clean_linker_0, # of connection points: 2
#     Edge 23, Type (0, 0), BuildingBlock: XIVTED_clean_linker_0, # of connection points: 2
#     Edge 24, Type (0, 0), BuildingBlock: XIVTED_clean_linker_0, # of connection points: 2
#     Edge 25, Type (0, 0), BuildingBlock: XIVTED_clean_linker_0, # of connection points: 2
#     Edge 26, Type (0, 0), BuildingBlock: XIVTED_clean_linker_0, # of connection points: 2
#     Edge 27, Type (0, 0), BuildingBlock: XIVTED_clean_linker_0, # of connection points: 2
#     Edge 28, Type (0, 0), BuildingBlock: XIVTED_clean_linker_0, # of connection points: 2
#     Edge 29, Type (0, 0), BuildingBlock: XIVTED_clean_linker_0, # of connection points: 2
#     Edge 30, Type (0, 0), BuildingBlock: XIVTED_clean_linker_0, # of connection points: 2
#     Edge 31, Type (0, 0), BuildingBlock: XIVTED_clean_linker_0, # of connection points: 2
#     Edge 32, Type (0, 0), BuildingBlock: XIVTED_clean_linker_0, # of connection points: 2
#     Edge 33, Type (0, 0), BuildingBlock: XIVTED_clean_linker_0, # of connection points: 2
#     Edge 34, Type (0, 0), BuildingBlock: XIVTED_clean_linker_0, # of connection points: 2
#     Edge 35, Type (0, 0), BuildingBlock: XIVTED_clean_linker_0, # of connection points: 2
#     Edge 36, Type (0, 0), BuildingBlock: XIVTED_clean_linker_0, # of connection points: 2
#     Edge 37, Type (0, 0), BuildingBlock: XIVTED_clean_linker_0, # of connection points: 2
#     Edge 38, Type (0, 0), BuildingBlock: XIVTED_clean_linker_0, # of connection points: 2
#     Edge 39, Type (0, 0), BuildingBlock: XIVTED_clean_linker_0, # of connection points: 2
#     Edge 40, Type (0, 0), BuildingBlock: XIVTED_clean_linker_0, # of connection points: 2
#     Edge 41, Type (0, 0), BuildingBlock: XIVTED_clean_linker_0, # of connection points: 2
#     Edge 42, Type (0, 0), BuildingBlock: XIVTED_clean_linker_0, # of connection points: 2
#     Edge 43, Type (0, 0), BuildingBlock: XIVTED_clean_linker_0, # of connection points: 2
#     Edge 44, Type (0, 0), BuildingBlock: XIVTED_clean_linker_0, # of connection points: 2
#     Edge 45, Type (0, 0), BuildingBlock: XIVTED_clean_linker_0, # of connection points: 2
#     Edge 46, Type (0, 0), BuildingBlock: XIVTED_clean_linker_0, # of connection points: 2
#     Edge 47, Type (0, 0), BuildingBlock: XIVTED_clean_linker_0, # of connection points: 2
#     Edge 48, Type (0, 0), BuildingBlock: XIVTED_clean_linker_0, # of connection points: 2
#     Edge 49, Type (0, 0), BuildingBlock: XIVTED_clean_linker_0, # of connection points: 2
#     Edge 50, Type (0, 0), BuildingBlock: XIVTED_clean_linker_0, # of connection points: 2
#     Edge 51, Type (0, 0), BuildingBlock: XIVTED_clean_linker_0, # of connection points: 2
#     Edge 52, Type (0, 0), BuildingBlock: XIVTED_clean_linker_0, # of connection points: 2
#     Edge 53, Type (0, 0), BuildingBlock: XIVTED_clean_linker_0, # of connection points: 2
#     Edge 54, Type (0, 0), BuildingBlock: XIVTED_clean_linker_0, # of connection points: 2
#     Edge 55, Type (0, 0), BuildingBlock: XIVTED_clean_linker_0, # of connection points: 2
#     Edge 56, Type (0, 0), BuildingBlock: XIVTED_clean_linker_0, # of connection points: 2
#     Edge 57, Type (0, 0), BuildingBlock: XIVTED_clean_linker_0, # of connection points: 2
#     Edge 58, Type (0, 0), BuildingBlock: XIVTED_clean_linker_0, # of connection points: 2
#     Edge 59, Type (0, 0), BuildingBlock: XIVTED_clean_linker_0, # of connection points: 2
#     Edge 60, Type (0, 0), BuildingBlock: XIVTED_clean_linker_0, # of connection points: 2
#     Edge 61, Type (0, 0), BuildingBlock: XIVTED_clean_linker_0, # of connection points: 2
#     Edge 62, Type (0, 0), BuildingBlock: XIVTED_clean_linker_0, # of connection points: 2
#     Edge 63, Type (0, 0), BuildingBlock: XIVTED_clean_linker_0, # of connection points: 2
#     Edge 64, Type (0, 0), BuildingBlock: XIVTED_clean_linker_0, # of connection points: 2
#     Edge 65, Type (0, 0), BuildingBlock: XIVTED_clean_linker_0, # of connection points: 2
#     Edge 66, Type (0, 0), BuildingBlock: XIVTED_clean_linker_0, # of connection points: 2
#     Edge 67, Type (0, 0), BuildingBlock: XIVTED_clean_linker_0, # of connection points: 2
#     Edge 68, Type (0, 0), BuildingBlock: XIVTED_clean_linker_0, # of connection points: 2
#     Edge 69, Type (0, 0), BuildingBlock: XIVTED_clean_linker_0, # of connection points: 2
#     Edge 70, Type (0, 0), BuildingBlock: XIVTED_clean_linker_0, # of connection points: 2
#     Edge 71, Type (0, 0), BuildingBlock: XIVTED_clean_linker_0, # of connection points: 2
# Relax obj value: 0.082
# Max RMSD: 0.206
# Mean RMSD: 0.206
data_MOF--net-wmi--node1-PAMTUU_clean_sbu_0--edge1-XIVTED_clean_linker_0
_symmetry_space_group_name_H-M    P1
_symmetry_Int_Tables_number       1
_symmetry_cell_setting            triclinic
loop_
_symmetry_equiv_pos_as_xyz
'x, y, z'
_cell_length_a     40.106563
_cell_length_b     40.27829
_cell_length_c     80.154604
_cell_angle_alpha  89.574234
_cell_angle_beta   90.193123
_cell_angle_gamma 120.00334
loop_
_atom_site_label
_atom_site_type_symbol
_atom_site_fract_x
_atom_site_fract_y
_atom_site_fract_z
_atom_type_partial_charge
Tb0 Tb 0.46046 1.00399 0.09212 0.0
Tb1 Tb 0.54537 0.05507 0.1099 0.0
C2 C 0.53411 0.04226 0.07079 0.0
C3 C 0.36581 0.92109 0.08254 0.0
C4 C 0.31302 0.8422 0.08679 0.0
C5 C 0.31238 0.86161 0.07223 0.0
C6 C 0.33855 0.90077 0.07014 0.0
C7 C 0.36669 0.90181 0.09705 0.0
C8 C 0.34041 0.86278 0.0992 0.0
C9 C 0.39434 0.96183 0.07999 0.0
O10 O 0.48788 0.96874 0.09239 0.0
O11 O 0.52892 0.99582 0.11459 0.0
O12 O 0.50014 0.04071 0.12889 0.0
O13 O 0.45478 0.98429 0.11748 0.0
O14 O 0.60088 0.06448 0.11506 0.0
O15 O 0.58211 0.10216 0.12484 0.0
O16 O 0.5335 0.09477 0.09651 0.0
O17 O 0.4679 0.06031 0.09846 0.0
O18 O 0.49919 0.03673 0.07225 0.0
O19 O 0.55552 0.04559 0.08389 0.0
C20 C 0.5112 0.96795 0.10381 0.0
O21 O 0.40108 0.98405 0.09283 0.0
O22 O 0.4261 0.96857 0.07267 0.0
C23 C 0.46782 1.00749 0.13016 0.0
C24 C 0.64914 0.12994 0.11837 0.0
C25 C 0.72338 0.19363 0.11178 0.0
C26 C 0.7168 0.15592 0.11109 0.0
C27 C 0.68023 0.12454 0.1144 0.0
C28 C 0.65557 0.16759 0.11897 0.0
C29 C 0.69216 0.19898 0.1157 0.0
C30 C 0.61114 0.09643 0.12288 0.0
C31 C 0.50017 0.09333 0.09692 0.0
H32 H 0.29141 0.84661 0.06251 0.0
H33 H 0.33765 0.91514 0.05881 0.0
H34 H 0.38792 0.91686 0.10667 0.0
H35 H 0.34198 0.84857 0.11045 0.0
H36 H 0.73989 0.15053 0.10792 0.0
H37 H 0.67638 0.09595 0.11401 0.0
H38 H 0.63248 0.17294 0.1222 0.0
H39 H 0.69613 0.22754 0.11665 0.0
Tb40 Tb 0.07474 0.47724 0.09295 0.0
Tb41 Tb 0.02743 0.5148 0.11081 0.0
C42 C 0.03087 0.5068 0.07171 0.0
C43 C 0.15792 0.46608 0.08305 0.0
C44 C 0.23681 0.49105 0.08802 0.0
C45 C 0.21056 0.45254 0.08411 0.0
C46 C 0.1715 0.44022 0.08162 0.0
C47 C 0.18398 0.50453 0.08696 0.0
C48 C 0.22306 0.51693 0.08932 0.0
C49 C 0.11647 0.45258 0.08119 0.0
O50 O 0.10923 0.5396 0.0905 0.0
O51 O 0.08802 0.55611 0.11377 0.0
O52 O 0.0416 0.48449 0.13005 0.0
O53 O 0.09669 0.49342 0.11787 0.0
O54 O 1.02039 0.56266 0.11437 0.0
O55 O 0.98388 0.50916 0.1271 0.0
O56 O 0.98425 0.46117 0.10011 0.0
O57 O 1.0184 0.42936 0.10071 0.0
O58 O 0.03707 0.47808 0.07392 0.0
O59 O 0.03276 0.52904 0.08408 0.0
C60 C 0.11339 0.5649 0.10181 0.0
O61 O 0.09591 0.43894 0.09471 0.0
O62 O 0.10774 0.47542 0.07308 0.0
C63 C 0.07428 0.4842 0.13089 0.0
C64 C 0.95627 0.54804 0.11992 0.0
C65 C 0.8922 0.55864 0.1144 0.0
C66 C 0.88724 0.52155 0.11603 0.0
C67 C 0.91885 0.5163 0.11873 0.0
C68 C 0.96133 0.58501 0.11819 0.0
C69 C 0.92978 0.59027 0.11541 0.0
C70 C 0.99006 0.54354 0.12375 0.0
C71 C 0.98537 0.42916 0.10033 0.0
H72 H 0.22026 0.43196 0.08288 0.0
H73 H 0.15182 0.41041 0.07871 0.0
H74 H 0.17406 0.52492 0.08835 0.0
H75 H 0.24237 0.54662 0.09254 0.0
H76 H 0.85878 0.49646 0.11558 0.0
H77 H 0.91384 0.48738 0.12009 0.0
H78 H 0.98981 0.61 0.11912 0.0
H79 H 0.93494 0.61922 0.11399 0.0
Tb80 Tb 0.60343 0.61936 0.09928 0.0
Tb81 Tb 0.56602 0.53092 0.11327 0.0
C82 C 0.57328 0.55239 0.07487 0.0
C83 C 0.61599 0.71523 0.09178 0.0
C84 C 0.58943 0.76772 0.09549 0.0
C85 C 0.56359 0.72802 0.0964 0.0
C86 C 0.57678 0.70202 0.09465 0.0
C87 C 0.64187 0.75474 0.09088 0.0
C88 C 0.62874 0.7808 0.09276 0.0
C89 C 0.63003 0.68798 0.08996 0.0
O90 O 0.54088 0.59237 0.09636 0.0
O91 O 0.5222 0.54668 0.11701 0.0
O92 O 0.59414 0.57137 0.13411 0.0
O93 O 0.58283 0.6178 0.1241 0.0
O94 O 0.51876 0.475 0.11554 0.0
O95 O 0.57284 0.49057 0.12747 0.0
O96 O 0.62029 0.54525 0.1018 0.0
O97 O 0.65102 0.60984 0.10656 0.0
O98 O 0.60312 0.58556 0.07862 0.0
O99 O 0.55189 0.52777 0.08655 0.0
C100 C 0.51421 0.56655 0.10628 0.0
O101 O 0.64028 0.67812 0.10375 0.0
O102 O 0.60924 0.65844 0.08052 0.0
C103 C 0.59173 0.60248 0.13643 0.0
C104 C 0.5345 0.42561 0.11839 0.0
C105 C 0.52443 0.35262 0.11033 0.0
C106 C 0.49284 0.35877 0.11059 0.0
C107 C 0.49781 0.39473 0.11463 0.0
C108 C 0.56623 0.41975 0.11793 0.0
C109 C 0.56125 0.38373 0.11395 0.0
C110 C 0.53849 0.46264 0.12379 0.0
C111 C 0.65208 0.57807 0.10392 0.0
H112 H 0.53325 0.71708 0.09871 0.0
H113 H 0.55638 0.67158 0.09557 0.0
H114 H 0.67224 0.76542 0.08872 0.0
H115 H 0.64929 0.81119 0.09185 0.0
H116 H 0.46416 0.33578 0.10765 0.0
H117 H 0.47276 0.39827 0.115 0.0
H118 H 0.59487 0.44277 0.12092 0.0
H119 H 0.58622 0.38007 0.11414 0.0
Tb120 Tb 1.01894 0.44487 0.92475 0.0
Tb121 Tb 0.06989 0.53622 0.91352 0.0
C122 C 0.0378 0.51057 0.94977 0.0
C123 C 0.93476 0.34838 0.93136 0.0
C124 C 0.85474 0.29912 0.92765 0.0
C125 C 0.87994 0.28431 0.92843 0.0
C126 C 0.91958 0.30874 0.93021 0.0
C127 C 0.90969 0.36325 0.93141 0.0
C128 C 0.86994 0.3388 0.92962 0.0
C129 C 0.97661 0.37401 0.93016 0.0
O130 O 0.97714 0.45874 0.91365 0.0
O131 O 1.01151 0.52487 0.9143 0.0
O132 O 0.04496 0.49965 0.89142 0.0
O133 O 0.05326 0.45333 0.90286 0.0
O134 O 0.08022 0.59252 0.91497 0.0
O135 O 0.11406 0.57862 0.89861 0.0
O136 O 0.11199 0.51904 0.91917 0.0
O137 O 0.07695 0.46216 0.93392 0.0
O138 O 1.01107 0.47766 0.94386 0.0
O139 O 0.06828 0.53401 0.94087 0.0
C140 C 0.97915 0.49242 0.91264 0.0
O141 O 0.98847 0.38914 0.9154 0.0
O142 O 0.99322 0.39919 0.94201 0.0
C143 C 0.04717 0.46841 0.88967 0.0
C144 C 0.1454 0.64103 0.91091 0.0
C145 C 0.21183 0.71043 0.92032 0.0
C146 C 0.21456 0.68507 0.90914 0.0
C147 C 0.18176 0.65087 0.90447 0.0
C148 C 0.14267 0.66627 0.92215 0.0
C149 C 0.17546 0.70043 0.92683 0.0
C150 C 0.11013 0.60607 0.90518 0.0
C151 C 0.10994 0.49114 0.92856 0.0
H152 H 0.86909 0.25382 0.92727 0.0
H153 H 0.93852 0.2968 0.93006 0.0
H154 H 0.92104 0.39387 0.93216 0.0
H155 H 0.85139 0.35115 0.92899 0.0
H156 H 0.24194 0.69208 0.90363 0.0
H157 H 0.18486 0.63245 0.89559 0.0
H158 H 0.11507 0.65986 0.92722 0.0
H159 H 0.17226 0.719 0.93559 0.0
Tb160 Tb 0.63015 0.58108 0.92918 0.0
Tb161 Tb 0.54262 0.54423 0.91389 0.0
C162 C 0.56084 0.5565 0.95262 0.0
C163 C 0.72438 0.58907 0.93531 0.0
C164 C 0.77434 0.56058 0.92795 0.0
C165 C 0.78903 0.59857 0.9334 0.0
C166 C 0.76426 0.61264 0.93706 0.0
C167 C 0.70951 0.5511 0.92995 0.0
C168 C 0.73423 0.53692 0.92639 0.0
C169 C 0.6985 0.60451 0.93839 0.0
O170 O 0.60039 0.51917 0.93333 0.0
O171 O 0.55893 0.5007 0.91115 0.0
O172 O 0.58453 0.57273 0.89349 0.0
O173 O 0.62956 0.56062 0.90443 0.0
O174 O 0.48647 0.49722 0.91188 0.0
O175 O 0.5027 0.55014 0.89886 0.0
O176 O 0.55656 0.59919 0.92412 0.0
O177 O 0.62233 0.62945 0.9216 0.0
O178 O 0.59614 0.58364 0.94934 0.0
O179 O 0.53762 0.53359 0.94097 0.0
C180 C 0.57688 0.49277 0.92286 0.0
O181 O 0.68946 0.6176 0.92523 0.0
O182 O 0.66844 0.5833 0.94766 0.0
C183 C 0.6164 0.57117 0.89182 0.0
C184 C 0.43782 0.51442 0.90875 0.0
C185 C 0.36655 0.50837 0.91792 0.0
C186 C 0.3934 0.53922 0.90803 0.0
C187 C 0.42846 0.54214 0.90348 0.0
C188 C 0.411 0.48353 0.91861 0.0
C189 C 0.3759 0.4806 0.92317 0.0
C190 C 0.47429 0.51658 0.90322 0.0
C191 C 0.5901 0.63066 0.92283 0.0
H192 H 0.81973 0.61743 0.93492 0.0
H193 H 0.77628 0.64204 0.94112 0.0
H194 H 0.67878 0.53252 0.92833 0.0
H195 H 0.72199 0.50772 0.92205 0.0
H196 H 0.38701 0.5608 0.90346 0.0
H197 H 0.44806 0.56596 0.89564 0.0
H198 H 0.41699 0.46138 0.92275 0.0
H199 H 0.35617 0.45663 0.9309 0.0
Tb200 Tb 0.49484 0.05666 0.92867 0.0
Tb201 Tb 0.53334 1.00799 0.91222 0.0
C202 C 0.54248 0.03065 0.94986 0.0
C203 C 0.48457 0.13983 0.93947 0.0
C204 C 0.51085 0.21911 0.93838 0.0
C205 C 0.48144 0.195 0.94951 0.0
C206 C 0.46825 0.15555 0.94998 0.0
C207 C 0.51514 0.1642 0.92892 0.0
C208 C 0.52803 0.2034 0.92832 0.0
C209 C 0.46799 0.09799 0.93852 0.0
O210 O 0.54837 0.09987 0.91684 0.0
O211 O 0.58045 0.06588 0.91478 0.0
O212 O 0.52045 0.03774 0.89222 0.0
O213 O 0.46763 0.02989 0.90552 0.0
O214 O 0.57922 0.99712 0.91104 0.0
O215 O 0.52993 0.96722 0.89491 0.0
O216 O 0.47397 0.96601 0.91765 0.0
O217 O 0.45572 0.99739 0.93649 0.0
O218 O 0.538 0.05971 0.94577 0.0
O219 O 0.53351 1.00225 0.93944 0.0
C220 C 0.58005 0.09824 0.91462 0.0
O221 O 0.46401 0.08471 0.92343 0.0
O222 O 0.48213 0.08255 0.9486 0.0
C223 C 0.48802 0.03843 0.89193 0.0
C224 C 0.56331 0.93475 0.90297 0.0
C225 C 0.57037 0.86927 0.90933 0.0
C226 C 0.58589 0.89134 0.89474 0.0
C227 C 0.5824 0.9237 0.89162 0.0
C228 C 0.54728 0.91271 0.91746 0.0
C229 C 0.55073 0.88023 0.9206 0.0
C230 C 0.56247 0.97047 0.89985 0.0
C231 C 0.4502 0.96599 0.92893 0.0
H232 H 0.46762 0.20638 0.95735 0.0
H233 H 0.44461 0.1372 0.95818 0.0
H234 H 0.52827 0.15276 0.92071 0.0
H235 H 0.55106 0.22139 0.91978 0.0
H236 H 0.60057 0.88349 0.88562 0.0
H237 H 0.59501 0.94039 0.88037 0.0
H238 H 0.53263 0.92093 0.92644 0.0
H239 H 0.5387 0.86418 0.93203 0.0
Tb240 Tb 0.12866 0.3465 0.43296 0.0
Tb241 Tb 0.21901 0.39276 0.44686 0.0
C242 C 0.1979 0.36659 0.40963 0.0
C243 C 0.03076 0.26616 0.42388 0.0
C244 C 0.97495 0.18731 0.42495 0.0
C245 C 0.96529 0.2146 0.4192 0.0
C246 C 0.99292 0.25365 0.41874 0.0
C247 C 0.04103 0.23901 0.42889 0.0
C248 C 1.01343 0.19999 0.42944 0.0
C249 C 0.05802 0.30745 0.4258 0.0
O250 O 0.13912 0.302 0.44329 0.0
O251 O 0.20556 0.33396 0.44504 0.0
O252 O 0.17844 0.36496 0.46775 0.0
O253 O 0.13494 0.37696 0.45576 0.0
O254 O 0.27572 0.40324 0.44583 0.0
O255 O 0.25953 0.43235 0.46381 0.0
O256 O 0.20401 0.43665 0.44179 0.0
O257 O 0.15022 0.40583 0.42479 0.0
O258 O 0.16359 0.33982 0.41439 0.0
O259 O 0.22057 0.39516 0.4195 0.0
C260 C 0.17198 0.30236 0.44508 0.0
O261 O 0.07134 0.3176 0.44089 0.0
O262 O 0.08516 0.324 0.41459 0.0
C263 C 0.14713 0.36751 0.469 0.0
C264 C 0.3248 0.46458 0.45457 0.0
C265 C 0.39845 0.53009 0.44941 0.0
C266 C 0.38895 0.50982 0.46467 0.0
C267 C 0.35263 0.4776 0.4672 0.0
C268 C 0.33384 0.48451 0.43927 0.0
C269 C 0.37038 0.51696 0.4367 0.0
C270 C 0.28769 0.42901 0.45752 0.0
C271 C 0.17868 0.4372 0.43146 0.0
H272 H 0.93619 0.20588 0.41531 0.0
H273 H 0.98443 0.27419 0.41487 0.0
H274 H 0.07005 0.24809 0.433 0.0
H275 H 1.02196 0.18003 0.43409 0.0
H276 H 0.40985 0.51845 0.47466 0.0
H277 H 0.34645 0.46243 0.47903 0.0
H278 H 0.3128 0.47486 0.4293 0.0
H279 H 0.37647 0.53195 0.42485 0.0
Tb280 Tb 0.74454 0.82639 0.42933 0.0
Tb281 Tb 0.68529 0.84956 0.44789 0.0
C282 C 0.69727 0.8547 0.40915 0.0
C283 C 0.83179 0.82096 0.42045 0.0
C284 C 0.90919 0.84509 0.42879 0.0
C285 C 0.89854 0.84616 0.41214 0.0
C286 C 0.86021 0.83412 0.40802 0.0
C287 C 0.84233 0.81995 0.43711 0.0
C288 C 0.88058 0.83167 0.44122 0.0
C289 C 0.79203 0.81088 0.41599 0.0
O290 O 0.78009 0.8828 0.44024 0.0
O291 O 0.73552 0.90265 0.43991 0.0
O292 O 0.71773 0.8441 0.46891 0.0
O293 O 0.75024 0.81776 0.45544 0.0
O294 O 0.6723 0.88807 0.46014 0.0
O295 O 0.62775 0.8309 0.45375 0.0
O296 O 0.666 0.78955 0.45163 0.0
O297 O 0.68487 0.77871 0.42659 0.0
O298 O 0.73077 0.85725 0.41118 0.0
O299 O 0.67155 0.84272 0.42118 0.0
C300 C 0.77144 0.91028 0.44017 0.0
O301 O 0.76456 0.78756 0.42603 0.0
O302 O 0.78767 0.83957 0.41142 0.0
C303 C 0.74019 0.8287 0.46898 0.0
C304 C 0.6106 0.87904 0.45281 0.0
C305 C 0.55562 0.89914 0.44195 0.0
C306 C 0.57117 0.90822 0.45815 0.0
C307 C 0.59825 0.89812 0.46353 0.0
C308 C 0.59649 0.87148 0.43637 0.0
C309 C 0.56919 0.88129 0.43103 0.0
C310 C 0.6353 0.86424 0.45935 0.0
C311 C 0.66057 0.76654 0.43922 0.0
H312 H 0.91978 0.85593 0.40226 0.0
H313 H 0.85281 0.83545 0.39511 0.0
H314 H 0.82112 0.81049 0.447 0.0
H315 H 0.88789 0.83085 0.45418 0.0
H316 H 0.56117 0.92163 0.46694 0.0
H317 H 0.6086 0.90411 0.47627 0.0
H318 H 0.60568 0.85695 0.42781 0.0
H319 H 0.55823 0.87432 0.41841 0.0
Tb320 Tb 0.26759 0.95729 0.43092 0.0
Tb321 Tb 0.23262 0.86799 0.44446 0.0
C322 C 0.22753 0.88703 0.40693 0.0
C323 C 0.26846 0.04842 0.42547 0.0
C324 C 0.23413 0.0943 0.42986 0.0
C325 C 0.25658 0.09891 0.41564 0.0
C326 C 0.27378 0.07627 0.41351 0.0
C327 C 0.24474 0.0428 0.43934 0.0
C328 C 0.22803 0.06567 0.44156 0.0
C329 C 0.28848 0.02614 0.42381 0.0
O330 O 0.21303 0.94123 0.44332 0.0
O331 O 0.18361 0.87586 0.4409 0.0
O332 O 0.24385 0.90649 0.46574 0.0
O333 O 0.29593 0.95535 0.45346 0.0
O334 O 0.1871 0.81108 0.44507 0.0
O335 O 0.238 0.82849 0.45998 0.0
O336 O 0.29241 0.88788 0.43841 0.0
O337 O 0.31165 0.94371 0.42297 0.0
O338 O 0.23065 0.91969 0.41149 0.0
O339 O 0.23506 0.86608 0.41728 0.0
C340 C 0.18191 0.90714 0.44312 0.0
O341 O 0.29648 1.01505 0.43781 0.0
O342 O 0.27497 0.99883 0.41278 0.0
C343 C 0.27603 0.93953 0.46691 0.0
C344 C 0.20449 0.76418 0.45028 0.0
C345 C 0.1995 0.69428 0.4408 0.0
C346 C 0.17358 0.69476 0.45246 0.0
C347 C 0.1761 0.72932 0.45713 0.0
C348 C 0.23047 0.76409 0.43861 0.0
C349 C 0.22809 0.72944 0.43396 0.0
C350 C 0.2052 0.79982 0.45506 0.0
C351 C 0.31735 0.91613 0.42884 0.0
H352 H 0.26191 0.12089 0.40646 0.0
H353 H 0.2918 0.08099 0.4027 0.0
H354 H 0.23969 0.02119 0.44867 0.0
H355 H 0.21051 0.06117 0.45253 0.0
H356 H 0.15163 0.66842 0.45818 0.0
H357 H 0.1557 0.7288 0.46611 0.0
H358 H 0.25236 0.79071 0.43304 0.0
H359 H 0.24831 0.73012 0.42486 0.0
Tb360 Tb 0.67838 0.77864 0.26434 0.0
Tb361 Tb 0.73192 0.86743 0.25066 0.0
C362 C 0.71427 0.84546 0.28901 0.0
C363 C 0.59283 0.68341 0.2693 0.0
C364 C 0.5147 0.63239 0.2618 0.0
C365 C 0.53833 0.61866 0.26821 0.0
C366 C 0.57704 0.64397 0.27193 0.0
C367 C 0.56944 0.69735 0.26294 0.0
C368 C 0.53066 0.67208 0.2593 0.0
C369 C 0.63383 0.7098 0.27277 0.0
O370 O 0.64428 0.80683 0.26679 0.0
O371 O 0.67251 0.85212 0.24608 0.0
O372 O 0.72054 0.82722 0.22989 0.0
O373 O 0.66154 0.7814 0.23914 0.0
O374 O 0.73978 0.92268 0.24693 0.0
O375 O 0.78237 0.90882 0.23852 0.0
O376 O 0.77018 0.8519 0.26304 0.0
O377 O 0.73551 0.78744 0.25803 0.0
O378 O 0.70979 0.81165 0.28567 0.0
O379 O 0.71962 0.87047 0.27711 0.0
C380 C 0.6442 0.83259 0.25663 0.0
O381 O 0.65663 0.72 0.25985 0.0
O382 O 0.64135 0.73902 0.28217 0.0
C383 C 0.6868 0.79646 0.22718 0.0
C384 C 0.80432 0.97406 0.24591 0.0
C385 C 0.86419 0.0491 0.25379 0.0
C386 C 0.831 0.04324 0.24522 0.0
C387 C 0.80157 1.00627 0.24132 0.0
C388 C 0.83676 0.97948 0.25497 0.0
C389 C 0.86638 0.01667 0.25891 0.0
C390 C 0.77371 0.9358 0.24031 0.0
C391 C 0.7686 0.81892 0.26087 0.0
H392 H 0.52681 0.58831 0.27047 0.0
H393 H 0.59468 0.63272 0.2768 0.0
H394 H 0.58126 0.72776 0.26069 0.0
H395 H 0.51338 0.68353 0.25423 0.0
H396 H 0.82787 0.06736 0.24135 0.0
H397 H 0.7768 1.00286 0.2344 0.0
H398 H 0.83959 0.95511 0.25872 0.0
H399 H 0.89156 0.02004 0.26544 0.0
Tb400 Tb 0.294 0.92204 0.26134 0.0
Tb401 Tb 0.2051 0.87962 0.24644 0.0
C402 C 0.2231 0.87555 0.28414 0.0
C403 C 0.38951 0.93503 0.27039 0.0
C404 C 0.44238 0.90832 0.26915 0.0
C405 C 0.4466 0.93563 0.28107 0.0
C406 C 0.42042 0.94905 0.28162 0.0
C407 C 0.38451 0.90668 0.25892 0.0
C408 C 0.41078 0.89363 0.25825 0.0
C409 C 0.3635 0.95098 0.27003 0.0
O410 O 0.28465 0.86851 0.25031 0.0
O411 O 0.21833 0.8342 0.24951 0.0
O412 O 0.24589 0.89312 0.22573 0.0
O413 O 0.29132 0.94733 0.23795 0.0
O414 O 0.14903 0.83221 0.24647 0.0
O415 O 0.1648 0.87988 0.22961 0.0
O416 O 0.22059 0.93858 0.25094 0.0
O417 O 0.27251 0.96004 0.26897 0.0
O418 O 0.25672 0.88061 0.27969 0.0
O419 O 0.20164 0.88203 0.27364 0.0
C420 C 0.25185 0.83601 0.249 0.0
O421 O 0.35236 0.95465 0.25519 0.0
O422 O 0.33494 0.93654 0.28062 0.0
C423 C 0.27785 0.92642 0.22463 0.0
C424 C 0.09965 0.84552 0.23936 0.0
C425 C 0.02706 0.83865 0.246 0.0
C426 C 0.06002 0.87495 0.24352 0.0
C427 C 0.09595 0.87836 0.24027 0.0
C428 C 0.06693 0.80939 0.24191 0.0
C429 C 0.03114 0.80597 0.24525 0.0
C430 C 0.13677 0.84766 0.2355 0.0
C431 C 0.24491 0.96368 0.26166 0.0
H432 H 0.47081 0.94748 0.28959 0.0
H433 H 0.42473 0.97087 0.29057 0.0
H434 H 0.36076 0.8952 0.25018 0.0
H435 H 0.40653 0.87218 0.2491 0.0
H436 H 0.05801 0.90076 0.24379 0.0
H437 H 0.12068 0.90665 0.23836 0.0
H438 H 0.06904 0.78363 0.2413 0.0
H439 H 1.00672 0.77761 0.24738 0.0
Tb440 Tb 0.15522 0.39613 0.26484 0.0
Tb441 Tb 0.18658 0.34035 0.25005 0.0
C442 C 0.19485 0.3631 0.28736 0.0
C443 C 0.15443 0.48585 0.27094 0.0
C444 C 0.1878 0.56526 0.26439 0.0
C445 C 0.17071 0.54979 0.27996 0.0
C446 C 0.15401 0.51037 0.28317 0.0
C447 C 0.17255 0.50148 0.25557 0.0
C448 C 0.1888 0.54069 0.2523 0.0
C449 C 0.13622 0.44418 0.27417 0.0
O450 O 0.20842 0.43454 0.25154 0.0
O451 O 0.23642 0.39686 0.25252 0.0
O452 O 0.17784 0.36962 0.22865 0.0
O453 O 0.12895 0.37375 0.24095 0.0
O454 O 0.23141 0.328 0.24881 0.0
O455 O 0.1785 0.29346 0.23545 0.0
O456 O 0.12467 0.30525 0.2526 0.0
O457 O 0.11186 0.33792 0.27281 0.0
O458 O 0.1947 0.39419 0.28267 0.0
O459 O 0.18327 0.33386 0.27722 0.0
C460 C 0.23883 0.43033 0.25058 0.0
O461 O 0.12179 0.4223 0.26119 0.0
O462 O 0.15552 0.43307 0.28348 0.0
C463 C 0.14801 0.37486 0.22759 0.0
C464 C 0.21175 0.26205 0.2457 0.0
C465 C 0.21674 0.19627 0.25435 0.0
C466 C 0.19181 0.19478 0.24159 0.0
C467 C 0.18947 0.2273 0.23729 0.0
C468 C 0.23634 0.26346 0.25861 0.0
C469 C 0.23879 0.23097 0.26287 0.0
C470 C 0.21136 0.29708 0.24009 0.0
C471 C 0.10192 0.30679 0.26394 0.0
H472 H 0.1693 0.56799 0.28948 0.0
H473 H 0.14045 0.49898 0.29514 0.0
H474 H 0.17383 0.48332 0.24599 0.0
H475 H 0.20217 0.55182 0.24028 0.0
H476 H 0.17482 0.16872 0.23458 0.0
H477 H 0.17073 0.22544 0.22713 0.0
H478 H 0.25419 0.28981 0.26531 0.0
H479 H 0.25799 0.23306 0.27286 0.0
Tb480 Tb 0.7942 0.67784 0.7651 0.0
Tb481 Tb 0.88457 0.72631 0.77849 0.0
C482 C 0.86345 0.70008 0.74138 0.0
C483 C 0.69713 0.5959 0.75604 0.0
C484 C 0.6428 0.5167 0.75743 0.0
C485 C 0.63186 0.54334 0.75214 0.0
C486 C 0.65877 0.58258 0.75152 0.0
C487 C 0.70863 0.56941 0.76059 0.0
C488 C 0.68175 0.53019 0.76129 0.0
C489 C 0.72372 0.63732 0.75787 0.0
O490 O 0.806 0.63456 0.77599 0.0
O491 O 0.87243 0.66808 0.77645 0.0
O492 O 0.84501 0.69849 0.79961 0.0
O493 O 0.7995 0.70797 0.78791 0.0
O494 O 0.94128 0.73686 0.77757 0.0
O495 O 0.92505 0.76669 0.79517 0.0
O496 O 0.86853 0.76934 0.77344 0.0
O497 O 0.81371 0.73703 0.75712 0.0
O498 O 0.82976 0.67246 0.74638 0.0
O499 O 0.8857 0.72902 0.75116 0.0
C500 C 0.83946 0.636 0.77744 0.0
O501 O 0.73684 0.64785 0.77295 0.0
O502 O 0.75088 0.65411 0.74669 0.0
C503 C 0.81312 0.69989 0.80108 0.0
C504 C 0.99027 0.79806 0.7861 0.0
C505 C 0.06386 0.86288 0.78051 0.0
C506 C 0.05649 0.83958 0.79477 0.0
C507 C 1.02016 0.80767 0.79752 0.0
C508 C 0.99716 0.82095 0.77179 0.0
C509 C 0.03371 0.85312 0.76901 0.0
C510 C 0.95314 0.76288 0.78914 0.0
C511 C 0.84221 0.76892 0.76345 0.0
H512 H 0.60231 0.53396 0.74875 0.0
H513 H 0.64935 0.60261 0.74802 0.0
H514 H 0.73808 0.57918 0.76425 0.0
H515 H 0.69122 0.51068 0.76556 0.0
H516 H 0.07904 0.84561 0.80374 0.0
H517 H 1.01554 0.7901 0.80853 0.0
H518 H 0.97441 0.81382 0.76278 0.0
H519 H 0.03823 0.87054 0.75797 0.0
Tb520 Tb 0.40902 0.1574 0.76083 0.0
Tb521 Tb 0.35238 0.17983 0.78203 0.0
C522 C 0.36091 0.18783 0.74306 0.0
C523 C 0.49203 0.14787 0.74795 0.0
C524 C 0.56903 0.16644 0.75325 0.0
C525 C 0.55216 0.15558 0.73734 0.0
C526 C 0.51395 0.14631 0.73473 0.0
C527 C 0.50866 0.15862 0.76385 0.0
C528 C 0.54674 0.1676 0.7665 0.0
C529 C 0.45266 0.14036 0.74492 0.0
O530 O 0.44652 0.21301 0.77207 0.0
O531 O 0.40234 0.23323 0.77417 0.0
O532 O 0.38635 0.17205 0.80174 0.0
O533 O 0.41739 0.1467 0.78644 0.0
O534 O 0.34119 0.21725 0.79622 0.0
O535 O 0.29542 0.16143 0.78891 0.0
O536 O 0.33297 0.11956 0.78463 0.0
O537 O 0.34879 0.11106 0.75854 0.0
O538 O 0.39458 0.19048 0.74424 0.0
O539 O 0.33626 0.17511 0.75553 0.0
C540 C 0.43814 0.24058 0.77336 0.0
O541 O 0.42639 0.11729 0.75545 0.0
O542 O 0.44979 0.1706 0.74182 0.0
C543 C 0.40855 0.15643 0.80065 0.0
C544 C 0.27917 0.20996 0.79119 0.0
C545 C 0.22332 0.23118 0.78327 0.0
C546 C 0.23576 0.23254 0.79983 0.0
C547 C 0.26328 0.22193 0.80374 0.0
C548 C 0.26813 0.21011 0.77455 0.0
C549 C 0.24049 0.22056 0.77064 0.0
C550 C 0.30403 0.19391 0.79586 0.0
C551 C 0.32614 0.09769 0.77165 0.0
H552 H 0.56847 0.15408 0.72692 0.0
H553 H 0.50164 0.13832 0.72236 0.0
H554 H 0.49234 0.16058 0.77414 0.0
H555 H 0.55901 0.17634 0.77884 0.0
H556 H 0.223 0.24017 0.80991 0.0
H557 H 0.27118 0.2218 0.81667 0.0
H558 H 0.28002 0.20102 0.76464 0.0
H559 H 0.23209 0.21971 0.75773 0.0
Tb560 Tb 0.93454 0.29191 0.76298 0.0
Tb561 Tb 0.89919 0.20316 0.77611 0.0
C562 C 0.91028 0.22679 0.73778 0.0
C563 C 0.94117 0.38562 0.7578 0.0
C564 C 0.9104 0.43374 0.76456 0.0
C565 C 0.94963 0.44939 0.76056 0.0
C566 C 0.96483 0.42553 0.7572 0.0
C567 C 0.90197 0.3698 0.76174 0.0
C568 C 0.88667 0.39364 0.76499 0.0
C569 C 0.9577 0.36068 0.75493 0.0
O570 O 0.87241 0.2623 0.75875 0.0
O571 O 0.85333 0.21637 0.77927 0.0
O572 O 0.92522 0.24288 0.79734 0.0
O573 O 0.91091 0.28706 0.78743 0.0
O574 O 0.85305 0.14657 0.77763 0.0
O575 O 0.90681 0.16277 0.78996 0.0
O576 O 0.9552 0.22029 0.76563 0.0
O577 O 0.98334 0.28466 0.77072 0.0
O578 O 0.93826 0.26071 0.7421 0.0
O579 O 0.88829 0.20125 0.7491 0.0
C580 C 0.84547 0.2361 0.76841 0.0
O581 O 0.96924 0.35057 0.76827 0.0
O582 O 0.93822 0.33173 0.74499 0.0
C583 C 0.92133 0.27311 0.79976 0.0
C584 C 0.87099 0.09841 0.77999 0.0
C585 C 0.8635 0.02675 0.77121 0.0
C586 C 0.89255 0.05166 0.78224 0.0
C587 C 0.89615 0.08691 0.78661 0.0
C588 C 0.8421 0.0737 0.76884 0.0
C589 C 0.83845 0.03837 0.76449 0.0
C590 C 0.8731 0.13444 0.78579 0.0
C591 C 0.98603 0.25371 0.76822 0.0
H592 H 0.9686 0.48015 0.75993 0.0
H593 H 0.99515 0.43825 0.75424 0.0
H594 H 0.88325 0.33899 0.76244 0.0
H595 H 0.85648 0.38069 0.7682 0.0
H596 H 0.91196 0.04349 0.78791 0.0
H597 H 0.91825 0.10487 0.79545 0.0
H598 H 0.82189 0.08135 0.76362 0.0
H599 H 0.81597 0.02016 0.75585 0.0
Tb600 Tb 0.33896 0.10883 0.59849 0.0
Tb601 Tb 0.39338 0.19684 0.58462 0.0
C602 C 0.3758 0.17549 0.62303 0.0
C603 C 0.25159 0.01566 0.60421 0.0
C604 C 0.17271 0.96751 0.59705 0.0
C605 C 0.19597 0.95189 0.60167 0.0
C606 C 0.23506 0.97578 0.60523 0.0
C607 C 0.22853 0.03143 0.59964 0.0
C608 C 0.18938 1.00757 0.59619 0.0
C609 C 0.29304 0.04067 0.60733 0.0
O610 O 0.30541 0.13794 0.60039 0.0
O611 O 0.33463 0.18307 0.57969 0.0
O612 O 0.38066 0.15637 0.5638 0.0
O613 O 0.32185 0.11121 0.57333 0.0
O614 O 0.40432 0.25335 0.58199 0.0
O615 O 0.44286 0.23651 0.57134 0.0
O616 O 0.43118 0.18029 0.59677 0.0
O617 O 0.39544 0.11594 0.59181 0.0
O618 O 0.37124 0.1417 0.61968 0.0
O619 O 0.381 0.20029 0.61107 0.0
C620 C 0.30583 0.16371 0.59004 0.0
O621 O 0.31514 0.04979 0.5942 0.0
O622 O 0.30233 0.07034 0.61673 0.0
C623 C 0.3469 0.12542 0.56126 0.0
C624 C 0.47087 0.30124 0.58063 0.0
C625 C 0.5346 0.37306 0.58984 0.0
C626 C 0.53907 0.34894 0.57855 0.0
C627 C 0.50763 0.31361 0.57397 0.0
C628 C 0.46635 0.32514 0.59204 0.0
C629 C 0.49783 0.36058 0.59659 0.0
C630 C 0.43729 0.26505 0.57461 0.0
C631 C 0.42901 0.14708 0.59443 0.0
H632 H 0.18388 0.92114 0.60261 0.0
H633 H 0.25242 0.96311 0.60868 0.0
H634 H 0.24087 0.0622 0.5986 0.0
H635 H 0.17237 0.02046 0.5925 0.0
H636 H 0.56675 0.3578 0.57285 0.0
H637 H 0.51198 0.29624 0.56495 0.0
H638 H 0.4384 0.31676 0.59733 0.0
H639 H 0.49333 0.37818 0.60543 0.0
Tb640 Tb 0.95238 0.2494 0.59425 0.0
Tb641 Tb 0.86616 0.20939 0.57723 0.0
C642 C 0.88059 0.2234 0.6161 0.0
C643 C 0.04927 0.26509 0.60347 0.0
C644 C 0.10381 0.24062 0.60028 0.0
C645 C 0.09942 0.25524 0.6155 0.0
C646 C 0.07245 0.26743 0.61705 0.0
C647 C 0.05347 0.25038 0.58827 0.0
C648 C 0.08061 0.23848 0.58667 0.0
C649 C 1.01981 0.27651 0.60546 0.0
O650 O 0.92412 0.18751 0.59865 0.0
O651 O 0.88492 0.16755 0.57568 0.0
O652 O 0.91007 0.23789 0.55742 0.0
O653 O 0.95602 0.22915 0.56998 0.0
O654 O 0.81074 0.16114 0.57481 0.0
O655 O 0.82683 0.21306 0.56095 0.0
O656 O 0.87712 0.26394 0.58669 0.0
O657 O 0.94311 0.29603 0.58541 0.0
O658 O 0.9155 0.25152 0.61308 0.0
O659 O 0.85907 0.19927 0.60439 0.0
C660 C 0.90219 0.16057 0.58801 0.0
O661 O 1.01128 0.28951 0.59211 0.0
O662 O 0.98907 0.25249 0.61375 0.0
C663 C 0.9428 0.23756 0.55671 0.0
C664 C 0.76106 0.17578 0.56969 0.0
C665 C 0.68775 0.16714 0.57709 0.0
C666 C 0.72048 0.20382 0.57507 0.0
C667 C 0.75664 0.2081 0.57145 0.0
C668 C 0.72855 0.13921 0.57175 0.0
C669 C 0.69244 0.13492 0.57545 0.0
C670 C 0.79869 0.17928 0.56524 0.0
C671 C 0.91019 0.29601 0.58586 0.0
H672 H 0.1171 0.25759 0.62617 0.0
H673 H 0.06952 0.27849 0.6289 0.0
H674 H 0.03558 0.24779 0.57765 0.0
H675 H 0.08292 0.22691 0.57485 0.0
H676 H 0.71812 0.22937 0.57597 0.0
H677 H 0.78102 0.23674 0.56989 0.0
H678 H 0.73104 0.11379 0.57044 0.0
H679 H 0.66827 0.10623 0.57716 0.0
Tb680 Tb 0.81364 0.72308 0.59703 0.0
Tb681 Tb 0.85369 0.67501 0.58158 0.0
C682 C 0.86174 0.69885 0.61905 0.0
C683 C 0.80356 0.8066 0.60704 0.0
C684 C 0.83174 0.8863 0.60595 0.0
C685 C 0.80013 0.86227 0.61616 0.0
C686 C 0.78601 0.82263 0.61662 0.0
C687 C 0.83619 0.83085 0.59747 0.0
C688 C 0.85006 0.87023 0.59689 0.0
C689 C 0.78636 0.76467 0.60595 0.0
O690 O 0.86756 0.76631 0.58531 0.0
O691 O 0.90033 0.73294 0.58414 0.0
O692 O 0.84104 0.70423 0.56132 0.0
O693 O 0.78715 0.69478 0.57404 0.0
O694 O 0.90035 0.66525 0.58086 0.0
O695 O 0.85172 0.63474 0.5644 0.0
O696 O 0.79465 0.63218 0.58705 0.0
O697 O 0.77419 0.66368 0.60481 0.0
O698 O 0.85627 0.72716 0.61469 0.0
O699 O 0.85376 0.67032 0.60885 0.0
C700 C 0.89951 0.76501 0.58343 0.0
O701 O 0.78396 0.75185 0.59085 0.0
O702 O 0.79887 0.74847 0.61647 0.0
C703 C 0.8081 0.70379 0.56062 0.0
C704 C 0.88601 0.60287 0.57299 0.0
C705 C 0.89341 0.53688 0.57721 0.0
C706 C 0.85887 0.53371 0.57121 0.0
C707 C 0.85521 0.56631 0.56911 0.0
C708 C 0.92039 0.60602 0.57907 0.0
C709 C 0.924 0.57348 0.58122 0.0
C710 C 0.88407 0.63819 0.56981 0.0
C711 C 0.76988 0.63213 0.5978 0.0
H712 H 0.78538 0.8739 0.62322 0.0
H713 H 0.76077 0.8044 0.62406 0.0
H714 H 0.85026 0.81922 0.58998 0.0
H715 H 0.87475 0.88809 0.58909 0.0
H716 H 0.83486 0.50609 0.56776 0.0
H717 H 0.82846 0.56286 0.56421 0.0
H718 H 0.94476 0.63383 0.58202 0.0
H719 H 0.95082 0.57706 0.58609 0.0
H720 H 0.56264 0.96005 0.12355 0.0
H721 H 0.52514 0.76444 0.0817 0.0
H722 H 0.479 0.90303 0.08451 0.0
H723 H 0.62181 0.83395 0.11366 0.0
H724 H 0.50326 0.81099 0.08473 0.0
H725 H 0.57972 0.90995 0.12233 0.0
C726 C 0.54759 0.93685 0.1148 0.0
C727 C 0.51941 0.93593 0.10405 0.0
C728 C 0.52923 0.81602 0.09109 0.0
C729 C 0.5391 0.87838 0.10256 0.0
C730 C 0.54163 0.78937 0.08944 0.0
C731 C 0.57545 0.7954 0.09739 0.0
C732 C 0.55063 0.84879 0.10088 0.0
C733 C 0.59588 0.82841 0.10712 0.0
C734 C 0.55753 0.90829 0.11407 0.0
C735 C 0.501 0.90504 0.09298 0.0
N736 N 0.58313 0.85381 0.1086 0.0
N737 N 0.51124 0.87755 0.09249 0.0
H738 H 0.29057 0.78458 0.06389 0.0
H739 H 0.13522 0.6228 0.12439 0.0
H740 H 0.27233 0.80518 0.1149 0.0
H741 H 0.16521 0.59817 0.07618 0.0
H742 H 0.18535 0.68969 0.12108 0.0
H743 H 0.24421 0.71637 0.06792 0.0
C744 C 0.2767 0.77477 0.07592 0.0
C745 C 0.28526 0.80065 0.08907 0.0
C746 C 0.18116 0.66964 0.11126 0.0
C747 C 0.23236 0.72259 0.0938 0.0
C748 C 0.1525 0.63137 0.11314 0.0
C749 C 0.14584 0.60478 0.10051 0.0
C750 C 0.20322 0.68162 0.09658 0.0
C751 C 0.16929 0.61764 0.08624 0.0
C752 C 0.25046 0.73579 0.07825 0.0
C753 C 0.26687 0.78623 0.10447 0.0
N754 N 0.19674 0.6552 0.08461 0.0
N755 N 0.24118 0.74824 0.10638 0.0
H756 H 0.3004 0.55726 0.0771 0.0
H757 H 0.45074 0.51069 0.12254 0.0
H758 H 0.26762 0.45452 0.10588 0.0
H759 H 0.48511 0.60256 0.08662 0.0
H760 H 0.3838 0.49372 0.11861 0.0
H761 H 0.36825 0.57786 0.08232 0.0
C762 C 0.30745 0.53911 0.08458 0.0
C763 C 0.27821 0.50401 0.09101 0.0
C764 C 0.40595 0.51767 0.11161 0.0
C765 C 0.35585 0.52744 0.09703 0.0
C766 C 0.44432 0.52755 0.1139 0.0
C767 C 0.47377 0.55808 0.10485 0.0
C768 C 0.39669 0.5385 0.10024 0.0
C769 C 0.46343 0.57873 0.09383 0.0
C770 C 0.3462 0.55081 0.08748 0.0
C771 C 0.28913 0.48152 0.10048 0.0
N772 N 0.42575 0.56852 0.09181 0.0
N773 N 0.32698 0.49364 0.10322 0.0
H774 H 0.97315 0.54867 0.89668 0.0
H775 H 0.76717 0.49034 0.9354 0.0
H776 H 0.90578 0.44404 0.92462 0.0
H777 H 0.84191 0.59762 0.91045 0.0
H778 H 0.81281 0.4685 0.9288 0.0
H779 H 0.92023 0.56173 0.89825 0.0
C780 C 0.94685 0.52805 0.90293 0.0
C781 C 0.94398 0.49533 0.91063 0.0
C782 C 0.81906 0.49672 0.9247 0.0
C783 C 0.88322 0.5106 0.91283 0.0
C784 C 0.793 0.50919 0.92842 0.0
C785 C 0.80089 0.54608 0.92362 0.0
C786 C 0.85316 0.52121 0.91602 0.0
C787 C 0.83492 0.56929 0.91469 0.0
C788 C 0.91664 0.53564 0.9039 0.0
C789 C 0.90913 0.46952 0.91846 0.0
N790 N 0.85972 0.55652 0.91125 0.0
N791 N 0.88023 0.47798 0.91958 0.0
H792 H 0.52772 0.27249 0.9629 0.0
H793 H 0.54385 0.43455 0.90022 0.0
H794 H 0.51926 0.25862 0.90947 0.0
H795 H 0.59228 0.46036 0.9498 0.0
H796 H 0.52898 0.36825 0.90404 0.0
H797 H 0.54559 0.33998 0.9591 0.0
C798 C 0.52961 0.28368 0.95039 0.0
C799 C 0.52218 0.26007 0.93647 0.0
C800 C 0.54304 0.38848 0.91405 0.0
C801 C 0.54225 0.33682 0.93204 0.0
C802 C 0.55146 0.42631 0.9119 0.0
C803 C 0.56935 0.45304 0.92471 0.0
C804 C 0.55201 0.3771 0.92922 0.0
C805 C 0.57862 0.44074 0.93956 0.0
C806 C 0.53998 0.32215 0.94822 0.0
C807 C 0.52518 0.27598 0.92052 0.0
N808 N 0.56956 0.40357 0.94147 0.0
N809 N 0.53474 0.31326 0.91875 0.0
H810 H 0.60383 0.16887 0.92865 0.0
H811 H 0.82374 0.24173 0.90473 0.0
H812 H 0.64236 0.10769 0.89754 0.0
H813 H 0.79125 0.29839 0.94135 0.0
H814 H 0.75604 0.19779 0.89903 0.0
H815 H 0.67066 0.22238 0.93016 0.0
C816 C 0.62617 0.16711 0.92183 0.0
C817 C 0.61772 0.13375 0.91307 0.0
C818 C 0.76355 0.21983 0.9083 0.0
C819 C 0.6938 0.19427 0.91487 0.0
C820 C 0.80231 0.2448 0.91166 0.0
C821 C 0.81326 0.27337 0.92378 0.0
C822 C 0.73517 0.22316 0.91712 0.0
C823 C 0.7841 0.27668 0.93196 0.0
C824 C 0.66428 0.19744 0.92282 0.0
C825 C 0.64769 0.13272 0.90458 0.0
N826 N 0.74633 0.25163 0.92859 0.0
N827 N 0.68431 0.16232 0.90579 0.0
H828 H 0.195 0.11622 0.40834 0.0
H829 H 0.21713 0.28581 0.46467 0.0
H830 H 0.23899 0.13242 0.45858 0.0
H831 H 0.12969 0.23747 0.42663 0.0
H832 H 0.22714 0.23094 0.46215 0.0
H833 H 0.17294 0.16216 0.41378 0.0
C834 C 0.19987 0.12935 0.42052 0.0
C835 C 0.21889 0.12058 0.43302 0.0
C836 C 0.20527 0.23192 0.45455 0.0
C837 C 0.19406 0.17315 0.43928 0.0
C838 C 0.1995 0.26316 0.45602 0.0
C839 C 0.1724 0.26596 0.44592 0.0
C840 C 0.1846 0.20377 0.44254 0.0
C841 C 0.15053 0.23607 0.43478 0.0
C842 C 0.18704 0.15528 0.42365 0.0
C843 C 0.22423 0.13817 0.44863 0.0
N844 N 0.15759 0.20647 0.43316 0.0
N845 N 0.21232 0.16392 0.45124 0.0
H846 H 0.90047 0.15813 0.43569 0.0
H847 H 0.8488 0.93856 0.43485 0.0
H848 H 0.98039 0.12254 0.41956 0.0
H849 H 0.7653 0.97471 0.44281 0.0
H850 H 0.89878 1.00583 0.43129 0.0
H851 H 0.85177 0.09113 0.43993 0.0
C852 C 0.90775 0.13628 0.43285 0.0
C853 C 0.94471 0.14625 0.42713 0.0
C854 C 0.86952 0.99899 0.43386 0.0
C855 C 0.88895 0.06903 0.43237 0.0
C856 C 0.84099 0.96059 0.43598 0.0
C857 C 0.8027 0.95087 0.43911 0.0
C858 C 0.85978 0.02793 0.43496 0.0
C859 C 0.79434 0.98072 0.44036 0.0
C860 C 0.87993 0.09793 0.43542 0.0
C861 C 0.95251 0.11642 0.42413 0.0
N862 N 0.82258 0.01779 0.43828 0.0
N863 N 0.92491 0.07922 0.42679 0.0
H864 H 0.15966 0.95962 0.43461 0.0
H865 H 0.93567 0.80976 0.44999 0.0
H866 H 0.11585 0.84497 0.45397 0.0
H867 H 0.97538 0.90828 0.41751 0.0
H868 H 1.00258 0.8286 0.45606 0.0
H869 H 0.09322 0.94752 0.43289 0.0
C870 C 0.13618 0.93221 0.43878 0.0
C871 C 0.14323 0.90314 0.44432 0.0
C872 C 0.99668 0.84622 0.44767 0.0
C873 C 0.06749 0.88915 0.44236 0.0
C874 C 0.95847 0.83558 0.44426 0.0
C875 C 0.94985 0.85731 0.43313 0.0
C876 C 0.0267 0.87905 0.44001 0.0
C877 C 0.98069 0.89035 0.42596 0.0
C878 C 0.09831 0.92522 0.43767 0.0
C879 C 0.11172 0.86807 0.44946 0.0
N880 N 1.01774 0.9002 0.4295 0.0
N881 N 0.07532 0.86204 0.44831 0.0
H882 H 0.47392 0.88525 0.29389 0.0
H883 H 0.62447 0.87102 0.23394 0.0
H884 H 0.47707 0.90386 0.24072 0.0
H885 H 0.59211 0.8143 0.28193 0.0
H886 H 0.57451 0.88851 0.23691 0.0
H887 H 0.52187 0.86484 0.29063 0.0
C888 C 0.48481 0.88513 0.28155 0.0
C889 C 0.47149 0.89611 0.26755 0.0
C890 C 0.57822 0.87203 0.24674 0.0
C891 C 0.52623 0.87305 0.26372 0.0
C892 C 0.60675 0.86208 0.24506 0.0
C893 C 0.61245 0.84114 0.2577 0.0
C894 C 0.55565 0.86153 0.26128 0.0
C895 C 0.58859 0.8303 0.27184 0.0
C896 C 0.51192 0.87327 0.27968 0.0
C897 C 0.48632 0.89522 0.25182 0.0
N898 N 0.56144 0.8409 0.27332 0.0
N899 N 0.51304 0.88411 0.25034 0.0
H900 H 0.29881 0.81491 0.26529 0.0
H901 H 0.17542 0.59611 0.23622 0.0
H902 H 0.2026 0.77295 0.23142 0.0
H903 H 0.23442 0.62823 0.28354 0.0
H904 H 0.19768 0.66367 0.2303 0.0
H905 H 0.28814 0.74927 0.26788 0.0
C906 C 0.27613 0.79209 0.25808 0.0
C907 C 0.25144 0.79919 0.24816 0.0
C908 C 0.20601 0.65597 0.24192 0.0
C909 C 0.23911 0.72457 0.25108 0.0
C910 C 0.19346 0.61745 0.24529 0.0
C911 C 0.20293 0.6065 0.26044 0.0
C912 C 0.2286 0.68396 0.2537 0.0
C913 C 0.2261 0.63541 0.27179 0.0
C914 C 0.26982 0.75469 0.2597 0.0
C915 C 0.22215 0.76859 0.23925 0.0
N916 N 0.23817 0.67286 0.2682 0.0
N917 N 0.21675 0.73267 0.24094 0.0
H918 H 0.48503 0.56348 0.24596 0.0
H919 H 0.26418 0.50617 0.2579 0.0
H920 H 0.45102 0.63955 0.2679 0.0
H921 H 0.30256 0.43093 0.23889 0.0
H922 H 0.33156 0.55857 0.25846 0.0
H923 H 0.41761 0.5175 0.24044 0.0
C924 C 0.46333 0.57048 0.24966 0.0
C925 C 0.47372 0.60523 0.25761 0.0
C926 C 0.32508 0.53067 0.25399 0.0
C927 C 0.39607 0.55262 0.2512 0.0
C928 C 0.28664 0.50086 0.25357 0.0
C929 C 0.27782 0.46404 0.24852 0.0
C930 C 0.35464 0.52348 0.24925 0.0
C931 C 0.30804 0.4587 0.2431 0.0
C932 C 0.42477 0.54428 0.24641 0.0
C933 C 0.44432 0.61311 0.26173 0.0
N934 N 0.34496 0.48792 0.24372 0.0
N935 N 0.40678 0.58686 0.25862 0.0
H936 H 0.89182 0.62767 0.79553 0.0
H937 H 0.84177 0.42761 0.75444 0.0
H938 H 0.79338 0.56467 0.7636 0.0
H939 H 0.94296 0.49804 0.78389 0.0
H940 H 0.81833 0.47218 0.76031 0.0
H941 H 0.90473 0.57479 0.79459 0.0
C942 C 0.87249 0.6023 0.78852 0.0
C943 C 0.84162 0.60063 0.77955 0.0
C944 C 0.84553 0.47769 0.76555 0.0
C945 C 0.8568 0.54001 0.77805 0.0
C946 C 0.8589 0.45223 0.76225 0.0
C947 C 0.89465 0.45932 0.76853 0.0
C948 C 0.86796 0.51033 0.77529 0.0
C949 C 0.91565 0.49178 0.77851 0.0
C950 C 0.87999 0.57212 0.78791 0.0
C951 C 0.81738 0.56699 0.77076 0.0
N952 N 0.90208 0.51602 0.78151 0.0
N953 N 0.82582 0.53813 0.77001 0.0
H954 H 0.64906 0.45286 0.75089 0.0
H955 H 0.43279 0.30459 0.77898 0.0
H956 H 0.56947 0.48628 0.76974 0.0
H957 H 0.51461 0.26935 0.76556 0.0
H958 H 0.48289 0.37129 0.77547 0.0
H959 H 0.60062 0.38562 0.75585 0.0
C960 C 0.62149 0.44615 0.75609 0.0
C961 C 0.61339 0.47546 0.7598 0.0
C962 C 0.49003 0.34904 0.77336 0.0
C963 C 0.55767 0.3984 0.76541 0.0
C964 C 0.46137 0.31084 0.77538 0.0
C965 C 0.4694 0.28119 0.77252 0.0
C966 C 0.52711 0.35792 0.76833 0.0
C967 C 0.50709 0.29122 0.76793 0.0
C968 C 0.59381 0.40771 0.75888 0.0
C969 C 0.57691 0.46482 0.76635 0.0
N970 N 0.5345 0.32874 0.76587 0.0
N971 N 0.55051 0.42728 0.76892 0.0
H972 H 0.5998 0.14625 0.77937 0.0
H973 H 0.81673 0.26693 0.74586 0.0
H974 H 0.63139 0.21123 0.73338 0.0
H975 H 0.78242 0.18685 0.78708 0.0
H976 H 0.74977 0.25093 0.74245 0.0
H977 H 0.66731 0.16472 0.78367 0.0
C978 C 0.62097 0.16453 0.77021 0.0
C979 C 0.60989 0.17713 0.75597 0.0
C980 C 0.75691 0.2369 0.75225 0.0
C981 C 0.68726 0.19835 0.7608 0.0
C982 C 0.79519 0.24611 0.75425 0.0
C983 C 0.80529 0.22811 0.76674 0.0
C984 C 0.72843 0.20963 0.76287 0.0
C985 C 0.77604 0.20138 0.77724 0.0
C986 C 0.65948 0.17492 0.77263 0.0
C987 C 0.63853 0.20044 0.74442 0.0
N988 N 0.73897 0.19294 0.77506 0.0
N989 N 0.67587 0.21036 0.74711 0.0
H990 H 0.11915 0.19759 0.62237 0.0
H991 H 0.29298 0.20983 0.56881 0.0
H992 H 0.15345 0.2537 0.57435 0.0
H993 H 0.24614 0.13758 0.61242 0.0
H994 H 0.24279 0.22704 0.57089 0.0
H995 H 0.16664 0.17678 0.61941 0.0
C996 C 0.13678 0.20567 0.61123 0.0
C997 C 0.13236 0.22752 0.59861 0.0
C998 C 0.24334 0.20726 0.57996 0.0
C999 C 0.18667 0.20359 0.59508 0.0
C1000 C 0.27204 0.1974 0.57879 0.0
C1001 C 0.27392 0.17228 0.59049 0.0
C1002 C 0.21642 0.1922 0.59302 0.0
C1003 C 0.24586 0.15705 0.60312 0.0
C1004 C 0.1637 0.19354 0.60949 0.0
C1005 C 0.15562 0.23663 0.58433 0.0
N1006 N 0.21845 0.16744 0.60411 0.0
N1007 N 0.18186 0.2248 0.58299 0.0
H1008 H 0.84462 0.93946 0.63015 0.0
H1009 H 0.87518 0.103 0.56511 0.0
H1010 H 0.84678 0.9267 0.57685 0.0
H1011 H 0.91247 0.12811 0.61634 0.0
H1012 H 0.85976 0.03679 0.56963 0.0
H1013 H 0.86437 1.00735 0.6259 0.0
C1014 C 0.84925 0.95097 0.61758 0.0
C1015 C 0.84422 0.92753 0.60384 0.0
C1016 C 0.87155 0.05683 0.57986 0.0
C1017 C 0.86648 1.00475 0.59888 0.0
C1018 C 0.88028 0.09462 0.5773 0.0
C1019 C 0.89516 0.12112 0.59036 0.0
C1020 C 0.87711 0.04519 0.59568 0.0
C1021 C 0.90126 0.10865 0.60589 0.0
C1022 C 0.86071 0.98967 0.61517 0.0
C1023 C 0.85077 0.94387 0.5878 0.0
N1024 N 0.89188 0.07145 0.60818 0.0
N1025 N 0.8613 0.98135 0.58577 0.0
H1026 H 0.11028 0.97418 0.60637 0.0
H1027 H 0.96016 0.7736 0.5654 0.0
H1028 H 0.14108 0.9028 0.57804 0.0
H1029 H 0.92457 0.83637 0.59705 0.0
H1030 H 0.02601 0.82675 0.56637 0.0
H1031 H 0.04218 0.92964 0.60015 0.0
C1032 C 0.10275 0.94934 0.59873 0.0
C1033 C 0.1314 0.94195 0.59288 0.0
C1034 C 1.00389 0.8293 0.57298 0.0
C1035 C 0.05369 0.89105 0.5857 0.0
C1036 C 0.9662 0.79897 0.57236 0.0
C1037 C 0.93699 0.80048 0.58129 0.0
C1038 C 1.01281 0.86139 0.58281 0.0
C1039 C 0.94633 0.83415 0.58998 0.0
C1040 C 0.0639 0.92392 0.59522 0.0
C1041 C 0.11999 0.90927 0.5831 0.0
N1042 N 0.98366 0.86315 0.59075 0.0
N1043 N 0.08213 0.88507 0.57988 0.0
H1044 H 0.59817 0.09337 0.05291 0.0
H1045 H 0.51958 0.96731 0.96985 0.0
H1046 H 0.49641 0.98174 0.05058 0.0
H1047 H 0.58977 0.09057 0.96959 0.0
H1048 H 0.52669 0.96753 1.00031 0.0
H1049 H 0.61023 0.08789 0.02314 0.0
C1050 C 0.57895 0.06747 0.0462 0.0
C1051 C 0.5461 0.03813 0.05399 0.0
C1052 C 0.5412 0.99443 0.99351 0.0
C1053 C 0.55966 0.03144 0.02035 0.0
C1054 C 0.53739 0.99426 0.97614 0.0
C1055 C 0.55369 0.02899 0.96728 0.0
C1056 C 0.56179 0.02954 1.00195 0.0
C1057 C 0.57629 0.0632 0.97604 0.0
C1058 C 0.58569 0.06435 0.02928 0.0
C1059 C 0.52184 1.00513 0.04486 0.0
N1060 N 0.57937 0.06268 0.99291 0.0
N1061 N 0.52898 1.00272 0.02851 0.0
H1062 H 0.97261 0.47629 0.96846 0.0
H1063 H 0.07285 0.57405 0.05463 0.0
H1064 H 0.09231 0.56441 0.97102 0.0
H1065 H 0.97819 0.4586 0.04962 0.0
H1066 H 0.07226 0.58264 0.02413 0.0
H1067 H 0.96656 0.48252 0.99826 0.0
C1068 C 0.99765 0.49729 0.97526 0.0
C1069 C 0.03333 0.51926 0.96727 0.0
C1070 C 0.05112 0.5558 0.02981 0.0
C1071 C 0.02632 0.52651 1.00154 0.0
C1072 C 0.05117 0.55105 0.04714 0.0
C1073 C 0.02532 0.51566 0.05449 0.0
C1074 C 1.02458 0.52512 0.02 0.0
C1075 C 0.99839 0.48633 0.04435 0.0
C1076 C 0.99406 0.50081 0.99229 0.0
C1077 C 0.0644 0.5466 0.97672 0.0
N1078 N 0.99875 0.49169 0.02761 0.0
N1079 N 0.06034 0.54913 0.99348 0.0
H1080 H 0.52296 0.48913 0.97041 0.0
H1081 H 0.5709 0.60576 0.05566 0.0
H1082 H 0.57326 0.61153 0.97477 0.0
H1083 H 0.54512 0.48827 0.05455 0.0
H1084 H 0.55641 0.60278 0.02618 0.0
H1085 H 0.51635 0.48326 1.00106 0.0
C1086 C 0.53153 0.51455 0.9778 0.0
C1087 C 0.54874 0.5509 0.97019 0.0
C1088 C 0.55373 0.57745 0.03227 0.0
C1089 C 0.54156 0.54451 1.00489 0.0
C1090 C 0.56214 0.5792 0.04913 0.0
C1091 C 0.56014 0.54752 0.05741 0.0
C1092 C 0.54373 0.5439 0.02337 0.0
C1093 C 0.54745 0.51345 0.04848 0.0
C1094 C 0.52811 0.51124 0.99523 0.0
C1095 C 0.56 0.58304 0.98021 0.0
N1096 N 0.54031 0.51267 0.03176 0.0
N1097 N 0.55638 0.5791 0.99701 0.0
H1098 H 0.25084 0.42564 0.38992 0.0
H1099 H 0.1748 0.29942 0.30698 0.0
H1100 H 0.16955 0.30414 0.38953 0.0
H1101 H 0.24005 0.42305 0.30749 0.0
H1102 H 0.18499 0.29896 0.33719 0.0
H1103 H 0.25954 0.42337 0.35974 0.0
C1104 C 0.2354 0.39841 0.38355 0.0
C1105 C 0.20893 0.3652 0.39217 0.0
C1106 C 0.19754 0.32616 0.33061 0.0
C1107 C 0.21851 0.36235 0.35774 0.0
C1108 C 0.19188 0.32637 0.31337 0.0
C1109 C 0.20603 0.3613 0.30479 0.0
C1110 C 0.21765 0.3611 0.33923 0.0
C1111 C 0.22801 0.39545 0.31369 0.0
C1112 C 0.24021 0.39712 0.36632 0.0
C1113 C 0.18971 0.33062 0.3833 0.0
N1114 N 0.2328 0.39451 0.33042 0.0
N1115 N 0.19456 0.33017 0.36657 0.0
H1116 H 0.63428 0.80895 0.39018 0.0
H1117 H 0.74317 0.91421 0.30563 0.0
H1118 H 0.74206 0.91558 0.38944 0.0
H1119 H 0.66755 0.79227 0.31152 0.0
H1120 H 0.73042 0.92276 0.33492 0.0
H1121 H 0.63209 0.81157 0.35958 0.0
C1122 C 0.65659 0.83365 0.3836 0.0
C1123 C 0.68849 0.86195 0.39218 0.0
C1124 C 0.71642 0.89425 0.32966 0.0
C1125 C 0.6867 0.86483 0.35746 0.0
C1126 C 0.72383 0.88939 0.31305 0.0
C1127 C 0.70719 0.85244 0.30633 0.0
C1128 C 0.69146 0.86201 0.33933 0.0
C1129 C 0.68185 0.82119 0.31634 0.0
C1130 C 0.65564 0.83494 0.36618 0.0
C1131 C 0.7171 0.89313 0.38314 0.0
N1132 N 0.67483 0.82668 0.33231 0.0
N1133 N 0.71585 0.89352 0.36621 0.0
H1134 H 0.17499 0.89087 0.30277 0.0
H1135 H 0.23905 0.83594 0.38876 0.0
H1136 H 0.24685 0.83944 0.30592 0.0
H1137 H 0.19202 0.91149 0.38505 0.0
H1138 H 0.2286 0.82393 0.35871 0.0
H1139 H 0.16724 0.88515 0.33321 0.0
C1140 C 0.18843 0.87764 0.30982 0.0
C1141 C 0.212 0.86609 0.30186 0.0
C1142 C 0.22017 0.84278 0.36454 0.0
C1143 C 0.2035 0.85966 0.33657 0.0
C1144 C 0.226 0.84952 0.3817 0.0
C1145 C 0.21694 0.87519 0.38937 0.0
C1146 C 0.20488 0.8616 0.35507 0.0
C1147 C 0.20004 0.89196 0.3796 0.0
C1148 C 0.18423 0.87461 0.32718 0.0
C1149 C 0.22887 0.84925 0.31159 0.0
N1150 N 0.19482 0.8851 0.36296 0.0
N1151 N 0.22458 0.84685 0.32843 0.0
H1152 H 0.83808 0.63732 0.72165 0.0
H1153 H 0.90486 0.76063 0.63861 0.0
H1154 H 0.91304 0.76006 0.72117 0.0
H1155 H 0.84637 0.63705 0.63909 0.0
H1156 H 0.91512 0.76075 0.66861 0.0
H1157 H 0.8474 0.63614 0.69168 0.0
C1158 C 0.85694 0.66404 0.71525 0.0
C1159 C 0.87438 0.69896 0.72388 0.0
C1160 C 0.9006 0.73357 0.66217 0.0
C1161 C 0.88486 0.69781 0.68943 0.0
C1162 C 0.89468 0.73346 0.64503 0.0
C1163 C 0.87427 0.69871 0.6364 0.0
C1164 C 0.88543 0.69865 0.67087 0.0
C1165 C 0.86215 0.66445 0.64528 0.0
C1166 C 0.86232 0.6633 0.69812 0.0
C1167 C 0.89891 0.73255 0.71499 0.0
N1168 N 0.86729 0.66524 0.66211 0.0
N1169 N 0.9029 0.73123 0.69818 0.0
H1170 H 0.40243 0.24456 0.63926 0.0
H1171 H 0.29821 0.13938 0.7246 0.0
H1172 H 0.33171 0.12222 0.64614 0.0
H1173 H 0.40187 0.24968 0.72319 0.0
H1174 H 0.29541 0.14062 0.69401 0.0
H1175 H 0.38961 0.25338 0.66851 0.0
C1176 C 0.38418 0.21968 0.64687 0.0
C1177 C 0.36889 0.18261 0.64041 0.0
C1178 C 0.31811 0.16509 0.70044 0.0
C1179 C 0.35304 0.19244 0.67342 0.0
C1180 C 0.31932 0.16461 0.71788 0.0
C1181 C 0.35032 0.19443 0.7263 0.0
C1182 C 0.34804 0.19566 0.69152 0.0
C1183 C 0.37752 0.22615 0.71704 0.0
C1184 C 0.37671 0.2247 0.66347 0.0
C1185 C 0.34493 0.15131 0.65072 0.0
N1186 N 0.37612 0.22573 0.7001 0.0
N1187 N 0.3378 0.15693 0.66666 0.0
H1188 H 0.88618 0.27762 0.63714 0.0
H1189 H 0.85635 0.16049 0.72169 0.0
H1190 H 0.8499 0.15737 0.63492 0.0
H1191 H 0.94167 0.27917 0.71278 0.0
H1192 H 0.83817 0.15488 0.69188 0.0
H1193 H 0.88624 0.27413 0.66751 0.0
C1194 C 0.87705 0.25016 0.64312 0.0
C1195 C 0.86819 0.2178 0.63362 0.0
C1196 C 0.86086 0.18195 0.69662 0.0
C1197 C 0.86959 0.21384 0.66831 0.0
C1198 C 0.87139 0.18516 0.71353 0.0
C1199 C 0.90068 0.22032 0.71979 0.0
C1200 C 0.87915 0.21439 0.68619 0.0
C1201 C 0.91903 0.25141 0.70866 0.0
C1202 C 0.87748 0.24824 0.66042 0.0
C1203 C 0.85667 0.18287 0.64192 0.0
N1204 N 0.90775 0.24775 0.69255 0.0
N1205 N 0.8584 0.18188 0.65892 0.0
H1206 H 0.27413 0.8838 0.19715 0.0
H1207 H 0.47011 0.05231 0.15665 0.0
H1208 H 0.33921 0.99716 0.21801 0.0
H1209 H 0.40764 0.9368 0.13777 0.0
H1210 H 0.42249 0.03316 0.17923 0.0
H1211 H 0.32154 0.90372 0.17453 0.0
C1212 C 0.298 0.91298 0.19685 0.0
C1213 C 0.30264 0.93875 0.20952 0.0
C1214 C 0.41939 1.01201 0.17016 0.0
C1215 C 0.35745 0.96167 0.18385 0.0
C1216 C 0.44677 0.0229 0.15736 0.0
C1217 C 0.44291 0.99626 0.14524 0.0
C1218 C 0.38794 0.97425 0.17082 0.0
C1219 C 0.41177 0.95853 0.14672 0.0
C1220 C 0.3253 0.9243 0.18402 0.0
C1221 C 0.33448 0.97619 0.20856 0.0
N1222 N 0.38554 0.94877 0.15917 0.0
N1223 N 0.36064 0.98643 0.19603 0.0
H1224 H 0.03038 0.44705 0.15857 0.0
H1225 H 0.19158 0.40847 0.19935 0.0
H1226 H 0.14285 0.48752 0.13702 0.0
H1227 H 0.07836 0.36699 0.22018 0.0
H1228 H 0.17367 0.43557 0.17571 0.0
H1229 H 0.0476 0.41744 0.18133 0.0
C1230 C 0.0588 0.45012 0.15872 0.0
C1231 C 0.08512 0.46981 0.14585 0.0
C1232 C 0.15267 0.42023 0.1854 0.0
C1233 C 0.1049 0.43551 0.17169 0.0
C1234 C 0.1628 0.40444 0.19879 0.0
C1235 C 0.13653 0.38562 0.21178 0.0
C1236 C 0.11606 0.41709 0.18505 0.0
C1237 C 0.0997 0.3816 0.21052 0.0
C1238 C 0.06855 0.43294 0.17163 0.0
C1239 C 0.12149 0.47253 0.14663 0.0
N1240 N 0.09069 0.39737 0.1975 0.0
N1241 N 0.13022 0.45553 0.15927 0.0
H1242 H 0.62044 0.76847 0.21003 0.0
H1243 H 0.65551 0.62183 0.15595 0.0
H1244 H 0.72929 0.77144 0.21001 0.0
H1245 H 0.5565 0.63638 0.15136 0.0
H1246 H 0.68188 0.67254 0.17729 0.0
H1247 H 0.59656 0.71854 0.18894 0.0
C1248 C 0.63969 0.75926 0.20518 0.0
C1249 C 0.67709 0.77458 0.2115 0.0
C1250 C 0.65414 0.66419 0.17175 0.0
C1251 C 0.64939 0.7159 0.1878 0.0
C1252 C 0.63881 0.63481 0.15983 0.0
C1253 C 0.60356 0.62464 0.15208 0.0
C1254 C 0.63388 0.68318 0.17592 0.0
C1255 C 0.5836 0.64315 0.15715 0.0
C1256 C 0.62591 0.73037 0.19328 0.0
C1257 C 0.70056 0.76097 0.20512 0.0
N1258 N 0.59904 0.67147 0.16865 0.0
N1259 N 0.68619 0.73203 0.19371 0.0
H1260 H 0.06614 0.4156 0.87999 0.0
H1261 H 0.9005 0.3236 0.81092 0.0
H1262 H 0.99543 0.46392 0.86579 0.0
H1263 H 0.97603 0.2792 0.82248 0.0
H1264 H 0.93309 0.37319 0.83183 0.0
H1265 H 0.03396 0.36582 0.85904 0.0
C1266 C 0.04427 0.41615 0.87221 0.0
C1267 C 0.03355 0.44409 0.87461 0.0
C1268 C 0.94241 0.35248 0.82995 0.0
C1269 C 0.99578 0.38636 0.85079 0.0
C1270 C 0.92358 0.32385 0.8181 0.0
C1271 C 0.93553 0.29709 0.81493 0.0
C1272 C 0.97368 0.35467 0.83878 0.0
C1273 C 0.9656 0.29894 0.82461 0.0
C1274 C 0.02569 0.38748 0.86034 0.0
C1275 C 1.00493 0.44326 0.86424 0.0
N1276 N 0.98386 0.32747 0.83601 0.0
N1277 N 0.98678 0.41461 0.85288 0.0
H1278 H 0.6147 0.61714 0.86645 0.0
H1279 H 0.8152 0.65521 0.8269 0.0
H1280 H 0.67718 0.56197 0.88371 0.0
H1281 H 0.75135 0.70795 0.80847 0.0
H1282 H 0.76579 0.62224 0.84843 0.0
H1283 H 0.66396 0.65022 0.84483 0.0
C1284 C 0.63833 0.61146 0.86552 0.0
C1285 C 0.64172 0.58675 0.87694 0.0
C1286 C 0.76275 0.64125 0.83973 0.0
C1287 C 0.69866 0.62508 0.8525 0.0
C1288 C 0.7912 0.66038 0.82755 0.0
C1289 C 0.78747 0.68438 0.81585 0.0
C1290 C 0.73036 0.64618 0.84022 0.0
C1291 C 0.75541 0.6896 0.81719 0.0
C1292 C 0.66668 0.63064 0.8533 0.0
C1293 C 0.67333 0.58088 0.87525 0.0
N1294 N 0.72811 0.67059 0.82905 0.0
N1295 N 0.70056 0.59999 0.86338 0.0
H1296 H 0.37412 0.13248 0.83154 0.0
H1297 H 0.52928 0.07482 0.86345 0.0
H1298 H 0.47575 0.15607 0.80388 0.0
H1299 H 0.42184 0.04134 0.88853 0.0
H1300 H 0.5121 0.10793 0.84218 0.0
H1301 H 0.39424 0.10432 0.854 0.0
C1302 C 0.40103 0.1325 0.83036 0.0
C1303 C 0.42316 0.14645 0.81579 0.0
C1304 C 0.49226 0.0932 0.85233 0.0
C1305 C 0.44603 0.11367 0.84119 0.0
C1306 C 0.50196 0.07403 0.8644 0.0
C1307 C 0.47701 0.05512 0.87779 0.0
C1308 C 0.45742 0.09359 0.85371 0.0
C1309 C 0.4421 0.05549 0.87845 0.0
C1310 C 0.41231 0.11602 0.84306 0.0
C1311 C 0.45757 0.14527 0.81482 0.0
N1312 N 0.43346 0.07444 0.86667 0.0
N1313 N 0.46779 0.12899 0.82724 0.0
H1314 H 0.9998 0.22245 0.54887 0.0
H1315 H 0.08941 0.38156 0.47666 0.0
H1316 H 0.94695 0.28702 0.53166 0.0
H1317 H 0.14189 0.31639 0.49353 0.0
H1318 H 0.03787 0.34804 0.49695 0.0
H1319 H 0.0509 0.25526 0.52833 0.0
C1320 C 0.9986 0.24319 0.54058 0.0
C1321 C 0.96892 0.25199 0.54204 0.0
C1322 C 0.06072 0.34117 0.49634 0.0
C1323 C 0.02814 0.29033 0.51852 0.0
C1324 C 0.09041 0.36051 0.48482 0.0
C1325 C 0.12018 0.35185 0.48337 0.0
C1326 C 0.06044 0.31265 0.50658 0.0
C1327 C 0.1198 0.32427 0.49429 0.0
C1328 C 0.02803 0.2621 0.5289 0.0
C1329 C 0.96899 0.27906 0.5309 0.0
N1330 N 0.09025 0.30549 0.50536 0.0
N1331 N 0.99831 0.29748 0.51971 0.0
H1332 H 0.81066 0.83794 0.47508 0.0
H1333 H 0.73987 0.70164 0.55555 0.0
H1334 H 0.69972 0.79722 0.49799 0.0
H1335 H 0.85321 0.74725 0.53418 0.0
H1336 H 0.72528 0.73728 0.53495 0.0
H1337 H 0.8282 0.80842 0.49756 0.0
C1338 C 0.79031 0.8235 0.48512 0.0
C1339 C 0.75369 0.82008 0.48472 0.0
C1340 C 0.75331 0.73948 0.53469 0.0
C1341 C 0.7732 0.78514 0.51031 0.0
C1342 C 0.76165 0.71888 0.5464 0.0
C1343 C 0.79788 0.72132 0.5466 0.0
C1344 C 0.78132 0.76284 0.52298 0.0
C1345 C 0.82483 0.74421 0.53442 0.0
C1346 C 0.80024 0.80636 0.49788 0.0
C1347 C 0.72838 0.80093 0.49795 0.0
N1348 N 0.81602 0.76415 0.52314 0.0
N1349 N 0.73843 0.78372 0.51011 0.0
H1350 H 0.23103 0.93429 0.49384 0.0
H1351 H 0.39598 0.12744 0.53657 0.0
H1352 H 0.34648 1.00005 0.47437 0.0
H1353 H 0.27644 0.06883 0.5513 0.0
H1354 H 0.37953 0.08049 0.51409 0.0
H1355 H 0.24875 0.98115 0.51635 0.0
C1356 C 0.26025 0.95814 0.49447 0.0
C1357 C 0.28724 0.96324 0.4822 0.0
C1358 C 0.35691 0.07816 0.5222 0.0
C1359 C 0.30764 0.01743 0.5077 0.0
C1360 C 0.36627 0.10521 0.53491 0.0
C1361 C 0.33764 0.10212 0.54587 0.0
C1362 C 0.31872 0.0478 0.52051 0.0
C1363 C 0.29961 0.07232 0.54324 0.0
C1364 C 0.27029 0.98517 0.5072 0.0
C1365 C 0.32464 0.99505 0.48353 0.0
N1366 N 0.29137 0.04631 0.53096 0.0
N1367 N 0.33367 0.02094 0.49597 0.0
H1368 H 0.57191 0.33468 0.09258 0.0
H1369 H 0.4417 0.10702 0.10576 0.0
H1370 H 0.46438 0.2817 0.11963 0.0
H1371 H 0.5588 0.16393 0.08775 0.0
H1372 H 0.44553 0.16969 0.10775 0.0
H1373 H 0.56389 0.27132 0.08783 0.0
C1374 C 0.54664 0.30981 0.09758 0.0
C1375 C 0.51896 0.31384 0.10665 0.0
C1376 C 0.47026 0.16834 0.10326 0.0
C1377 C 0.50928 0.24072 0.10098 0.0
C1378 C 0.46801 0.13256 0.10203 0.0
C1379 C 0.50002 0.13015 0.09665 0.0
C1380 C 0.50465 0.20189 0.09894 0.0
C1381 C 0.53345 0.1643 0.09207 0.0
C1382 C 0.54197 0.27353 0.09476 0.0
C1383 C 0.48636 0.2802 0.11244 0.0
N1384 N 0.53489 0.19861 0.09336 0.0
N1385 N 0.4825 0.24516 0.10956 0.0
H1386 H 0.7426 0.2613 0.09554 0.0
H1387 H 0.9709 0.35625 0.10835 0.0
H1388 H 0.7941 0.203 0.12084 0.0
H1389 H 0.91445 0.41847 0.09249 0.0
H1390 H 0.90761 0.29751 0.1101 0.0
H1391 H 0.80653 0.31695 0.09162 0.0
C1392 C 0.76726 0.26015 0.10035 0.0
C1393 C 0.76263 0.22728 0.10867 0.0
C1394 C 0.90922 0.32405 0.10617 0.0
C1395 C 0.8365 0.29117 0.10396 0.0
C1396 C 0.94534 0.35753 0.10509 0.0
C1397 C 0.94808 0.39246 0.10034 0.0
C1398 C 0.87568 0.32547 0.10232 0.0
C1399 C 0.91388 0.39237 0.09633 0.0
C1400 C 0.8039 0.29197 0.09801 0.0
C1401 C 0.79608 0.22743 0.11421 0.0
N1402 N 0.87929 0.35955 0.09743 0.0
N1403 N 0.8315 0.25886 0.11181 0.0
H1404 H 0.66516 0.52219 0.09225 0.0
H1405 H 0.88008 0.61527 0.12713 0.0
H1406 H 0.72341 0.63347 0.11545 0.0
H1407 H 0.82665 0.51487 0.09594 0.0
H1408 H 0.82368 0.62282 0.1233 0.0
H1409 H 0.72426 0.51935 0.09386 0.0
C1410 C 0.69048 0.54622 0.09763 0.0
C1411 C 0.68917 0.57812 0.10377 0.0
C1412 C 0.82441 0.59925 0.11725 0.0
C1413 C 0.75737 0.57482 0.10578 0.0
C1414 C 0.85674 0.59497 0.11935 0.0
C1415 C 0.85833 0.56424 0.1119 0.0
C1416 C 0.79317 0.57252 0.10769 0.0
C1417 C 0.82668 0.53859 0.10221 0.0
C1418 C 0.72434 0.54455 0.09852 0.0
C1419 C 0.72309 0.60837 0.11052 0.0
N1420 N 0.7955 0.54323 0.10046 0.0
N1421 N 0.75573 0.60585 0.11147 0.0
H1422 H 0.35203 0.56589 0.92648 0.0
H1423 H 0.12253 0.43017 0.93277 0.0
H1424 H 0.29475 0.44328 0.91984 0.0
H1425 H 0.18148 0.5537 0.93063 0.0
H1426 H 0.18538 0.43316 0.93261 0.0
H1427 H 0.28988 0.56067 0.93214 0.0
C1428 C 0.32641 0.53782 0.92618 0.0
C1429 C 0.32883 0.50506 0.92246 0.0
C1430 C 0.18447 0.45958 0.93239 0.0
C1431 C 0.2571 0.49878 0.92919 0.0
C1432 C 0.14863 0.45788 0.93265 0.0
C1433 C 0.14675 0.49172 0.93162 0.0
C1434 C 0.21855 0.49538 0.93126 0.0
C1435 C 0.18151 0.52685 0.93128 0.0
C1436 C 0.29084 0.53483 0.92952 0.0
C1437 C 0.29449 0.46936 0.92271 0.0
N1438 N 0.2158 0.52773 0.93101 0.0
N1439 N 0.26008 0.4672 0.9259 0.0
H1440 H 0.51717 0.79968 0.92279 0.0
H1441 H 0.64957 0.7029 0.91429 0.0
H1442 H 0.63315 0.86032 0.90347 0.0
H1443 H 0.53101 0.64308 0.93048 0.0
H1444 H 0.64639 0.76218 0.912 0.0
H1445 H 0.52396 0.74343 0.92748 0.0
C1446 C 0.54421 0.80135 0.91965 0.0
C1447 C 0.57455 0.83494 0.91266 0.0
C1448 C 0.62118 0.73606 0.91613 0.0
C1449 C 0.58245 0.77007 0.91786 0.0
C1450 C 0.62304 0.70224 0.9175 0.0
C1451 C 0.59049 0.6678 0.9225 0.0
C1452 C 0.58658 0.73544 0.91986 0.0
C1453 C 0.55683 0.66875 0.92645 0.0
C1454 C 0.54801 0.76904 0.92224 0.0
C1455 C 0.60872 0.83495 0.90864 0.0
N1456 N 0.55577 0.70182 0.925 0.0
N1457 N 0.61172 0.80308 0.91127 0.0
H1458 H 0.37757 0.9517 0.9374 0.0
H1459 H 0.28531 0.72459 0.92619 0.0
H1460 H 0.44277 0.89536 0.92742 0.0
H1461 H 0.21794 0.7811 0.92473 0.0
H1462 H 0.34279 0.78626 0.93155 0.0
H1463 H 0.31834 0.8886 0.93805 0.0
C1464 C 0.37949 0.92606 0.93569 0.0
C1465 C 0.41502 0.92873 0.93221 0.0
C1466 C 0.31539 0.78517 0.93015 0.0
C1467 C 0.34775 0.85682 0.93284 0.0
C1468 C 0.28253 0.74993 0.92698 0.0
C1469 C 0.24664 0.74753 0.92479 0.0
C1470 C 0.31259 0.81851 0.93117 0.0
C1471 C 0.24487 0.7814 0.92641 0.0
C1472 C 0.34572 0.89014 0.93592 0.0
C1473 C 0.41591 0.89465 0.92995 0.0
N1474 N 0.27738 0.81549 0.92938 0.0
N1475 N 0.38284 0.86024 0.93022 0.0
H1476 H 0.25868 0.67946 0.43632 0.0
H1477 H 0.12114 0.453 0.42319 0.0
H1478 H 0.13473 0.6245 0.43485 0.0
H1479 H 0.24284 0.50767 0.43355 0.0
H1480 H 0.12621 0.51644 0.42283 0.0
H1481 H 0.25391 0.61767 0.43075 0.0
C1482 C 0.23045 0.65452 0.43463 0.0
C1483 C 0.19706 0.65727 0.4362 0.0
C1484 C 0.15184 0.51449 0.425 0.0
C1485 C 0.19133 0.58605 0.42996 0.0
C1486 C 0.149 0.47832 0.42508 0.0
C1487 C 0.18153 0.47498 0.42854 0.0
C1488 C 0.18753 0.54748 0.42824 0.0
C1489 C 0.21688 0.50879 0.43102 0.0
C1490 C 0.22772 0.61912 0.43155 0.0
C1491 C 0.16124 0.62369 0.43404 0.0
N1492 N 0.21888 0.54346 0.4309 0.0
N1493 N 0.15932 0.58951 0.43111 0.0
H1494 H 0.62156 0.71653 0.41315 0.0
H1495 H 0.44065 0.58601 0.47218 0.0
H1496 H 0.61763 0.72953 0.46637 0.0
H1497 H 0.44531 0.5541 0.42132 0.0
H1498 H 0.50518 0.64048 0.46915 0.0
H1499 H 0.55766 0.65784 0.41481 0.0
C1500 C 0.60764 0.70681 0.42517 0.0
C1501 C 0.62497 0.72822 0.43962 0.0
C1502 C 0.49233 0.62161 0.45861 0.0
C1503 C 0.55191 0.66177 0.44157 0.0
C1504 C 0.45531 0.59023 0.46036 0.0
C1505 C 0.4374 0.56486 0.44708 0.0
C1506 C 0.51208 0.62831 0.44339 0.0
C1507 C 0.4578 0.57287 0.43191 0.0
C1508 C 0.57109 0.6735 0.4261 0.0
C1509 C 0.60541 0.71438 0.45484 0.0
N1510 N 0.49406 0.60383 0.43048 0.0
N1511 N 0.57012 0.68244 0.45537 0.0
H1512 H 0.54757 0.96224 0.44778 0.0
H1513 H 0.32705 0.8558 0.42187 0.0
H1514 H 0.48991 0.85074 0.42482 0.0
H1515 H 0.39112 0.97778 0.4299 0.0
H1516 H 0.38711 0.85424 0.42235 0.0
H1517 H 0.49166 0.96951 0.44129 0.0
C1518 C 0.52329 0.93939 0.44129 0.0
C1519 C 0.52349 0.90575 0.43689 0.0
C1520 C 0.38829 0.88153 0.42373 0.0
C1521 C 0.45933 0.91387 0.42948 0.0
C1522 C 0.35398 0.88243 0.42341 0.0
C1523 C 0.35416 0.917 0.42577 0.0
C1524 C 0.42322 0.91531 0.42687 0.0
C1525 C 0.38981 0.95062 0.42784 0.0
C1526 C 0.49149 0.94368 0.4375 0.0
C1527 C 0.49131 0.8773 0.42834 0.0
N1528 N 0.42292 0.94887 0.42863 0.0
N1529 N 0.4605 0.88183 0.4251 0.0
H1530 H 0.78181 0.76197 0.24969 0.0
H1531 H 1.01006 0.88567 0.2645 0.0
H1532 H 0.83958 0.87529 0.271 0.0
H1533 H 0.95582 0.78259 0.23498 0.0
H1534 H 0.94695 0.87912 0.26929 0.0
H1535 H 0.84433 0.76528 0.24692 0.0
C1536 C 0.80751 0.78733 0.25396 0.0
C1537 C 0.80537 0.81843 0.26054 0.0
C1538 C 0.94885 0.85788 0.26179 0.0
C1539 C 0.87701 0.8225 0.25733 0.0
C1540 C 0.985 0.86175 0.25894 0.0
C1541 C 0.98856 0.83475 0.24925 0.0
C1542 C 0.91576 0.8267 0.25498 0.0
C1543 C 0.95466 0.80389 0.24272 0.0
C1544 C 0.84323 0.78931 0.25229 0.0
C1545 C 0.83974 0.85067 0.26578 0.0
N1546 N 0.91979 0.80075 0.24568 0.0
N1547 N 0.87402 0.85187 0.26403 0.0
H1548 H 0.30086 0.03659 0.27092 0.0
H1549 H 0.15925 0.12116 0.25644 0.0
H1550 H 0.18016 0.96876 0.25884 0.0
H1551 H 0.28231 0.19306 0.26155 0.0
H1552 H 0.16588 0.06486 0.26116 0.0
H1553 H 0.29403 0.09401 0.27168 0.0
C1554 C 0.27287 0.03368 0.26871 0.0
C1555 C 0.24114 0.99793 0.26465 0.0
C1556 C 0.19148 0.09294 0.26134 0.0
C1557 C 0.23313 0.0632 0.26541 0.0
C1558 C 0.18771 0.12514 0.25855 0.0
C1559 C 0.22028 0.16197 0.2584 0.0
C1560 C 0.22815 0.09734 0.26398 0.0
C1561 C 0.25635 0.16528 0.26162 0.0
C1562 C 0.26902 0.06644 0.26903 0.0
C1563 C 0.20555 0.9958 0.26181 0.0
N1564 N 0.25935 0.13339 0.26414 0.0
N1565 N 0.2026 0.0279 0.26216 0.0
H1566 H 0.89242 0.10973 0.232 0.0
H1567 H 0.06286 0.26044 0.29094 0.0
H1568 H 0.91123 0.07953 0.28151 0.0
H1569 H 0.05276 0.27602 0.23831 0.0
H1570 H 1.00232 0.19805 0.28962 0.0
H1571 H 0.94604 0.17435 0.23595 0.0
C1572 C 0.90755 0.11674 0.24381 0.0
C1573 C 0.89697 0.08892 0.25646 0.0
C1574 C 1.01315 0.21547 0.27844 0.0
C1575 C 0.95942 0.16354 0.26102 0.0
C1576 C 0.04736 0.25116 0.27924 0.0
C1577 C 0.0625 0.27337 0.26473 0.0
C1578 C 0.99408 0.20234 0.26304 0.0
C1579 C 0.0419 0.25978 0.2498 0.0
C1580 C 0.93847 0.15375 0.24603 0.0
C1581 C 0.91848 0.09985 0.27135 0.0
N1582 N 1.00895 0.22529 0.24934 0.0
N1583 N 0.94867 0.13628 0.27323 0.0
H1584 H 0.90694 0.83874 0.76217 0.0
H1585 H 0.79652 0.9573 0.76743 0.0
H1586 H 0.78344 0.78483 0.75811 0.0
H1587 H 0.92015 1.00874 0.7656 0.0
H1588 H 0.79032 0.89452 0.76236 0.0
H1589 H 0.91159 0.90133 0.76156 0.0
C1590 C 0.88073 0.84011 0.76095 0.0
C1591 C 0.84471 0.80644 0.76028 0.0
C1592 C 0.81878 0.91961 0.76294 0.0
C1593 C 0.84978 0.87851 0.75987 0.0
C1594 C 0.82238 0.95556 0.76577 0.0
C1595 C 0.85898 0.98854 0.7671 0.0
C1596 C 0.85199 0.91647 0.76145 0.0
C1597 C 0.89136 0.9842 0.76503 0.0
C1598 C 0.88342 0.87597 0.76062 0.0
C1599 C 0.8118 0.81006 0.75859 0.0
N1600 N 0.88708 0.94896 0.76241 0.0
N1601 N 0.81506 0.84548 0.75867 0.0
H1602 H 0.28854 0.05637 0.79901 0.0
H1603 H 0.10563 0.89094 0.75123 0.0
H1604 H 0.2824 0.05235 0.74526 0.0
H1605 H 0.11126 0.91354 0.80402 0.0
H1606 H 0.17113 0.94607 0.74813 0.0
H1607 H 0.22582 0.9989 0.80045 0.0
C1608 C 0.27408 0.04315 0.78745 0.0
C1609 C 0.29072 0.05945 0.77198 0.0
C1610 C 0.15791 0.93881 0.76036 0.0
C1611 C 0.21789 0.99322 0.77355 0.0
C1612 C 0.12043 0.90752 0.76215 0.0
C1613 C 0.10284 0.8972 0.77796 0.0
C1614 C 0.17795 0.95986 0.7745 0.0
C1615 C 0.1237 0.91965 0.79164 0.0
C1616 C 0.23802 1.01027 0.78829 0.0
C1617 C 0.27065 0.04067 0.75744 0.0
N1618 N 0.15994 0.94963 0.78959 0.0
N1619 N 0.23502 1.00863 0.75857 0.0
H1620 H 0.16328 0.19189 0.76161 0.0
H1621 H 0.05482 0.30912 0.78193 0.0
H1622 H 0.20865 0.2861 0.79621 0.0
H1623 H 1.00348 0.20135 0.75585 0.0
H1624 H 0.11482 0.30678 0.78454 0.0
H1625 H 0.10832 0.20085 0.75651 0.0
C1626 C 0.16202 0.21484 0.76799 0.0
C1627 C 0.19085 0.23825 0.77937 0.0
C1628 C 0.09043 0.28382 0.77817 0.0
C1629 C 0.1272 0.2484 0.77372 0.0
C1630 C 0.05626 0.28525 0.77659 0.0
C1631 C 1.02392 0.25532 0.76872 0.0
C1632 C 0.09237 0.25245 0.77166 0.0
C1633 C 0.02745 0.22497 0.76213 0.0
C1634 C 0.13035 0.21975 0.76517 0.0
C1635 C 0.18699 0.26706 0.78747 0.0
N1636 N 0.06087 0.22434 0.76376 0.0
N1637 N 0.15579 0.2713 0.78451 0.0
H1638 H 0.44164 0.09038 0.58209 0.0
H1639 H 0.67041 0.21259 0.59662 0.0
H1640 H 0.50042 0.20222 0.60475 0.0
H1641 H 0.61605 0.11104 0.56615 0.0
H1642 H 0.60737 0.20568 0.60189 0.0
H1643 H 0.50402 0.09342 0.57867 0.0
C1644 C 0.46751 0.11533 0.58653 0.0
C1645 C 0.46564 0.14611 0.59369 0.0
C1646 C 0.60918 0.18483 0.59407 0.0
C1647 C 0.53719 0.14987 0.58974 0.0
C1648 C 0.64535 0.18891 0.59094 0.0
C1649 C 0.64899 0.16255 0.5808 0.0
C1650 C 0.57599 0.15404 0.5871 0.0
C1651 C 0.61494 0.13192 0.57419 0.0
C1652 C 0.50315 0.11716 0.58448 0.0
C1653 C 0.50028 0.17784 0.59909 0.0
N1654 N 0.58002 0.12858 0.57742 0.0
N1655 N 0.53443 0.17888 0.59698 0.0
H1656 H 0.84841 0.30532 0.59152 0.0
H1657 H 0.95705 0.52979 0.57074 0.0
H1658 H 0.9696 0.36982 0.57964 0.0
H1659 H 0.83956 0.46481 0.58807 0.0
H1660 H 0.96293 0.47244 0.57379 0.0
H1661 H 0.84543 0.36396 0.59007 0.0
C1662 C 0.87456 0.33187 0.58863 0.0
C1663 C 0.90936 0.33247 0.58564 0.0
C1664 C 0.93592 0.4708 0.57696 0.0
C1665 C 0.90597 0.40032 0.5839 0.0
C1666 C 0.93254 0.50361 0.5753 0.0
C1667 C 0.89767 0.50229 0.57912 0.0
C1668 C 0.90419 0.43627 0.58242 0.0
C1669 C 0.86681 0.46724 0.58471 0.0
C1670 C 0.87278 0.36549 0.58782 0.0
C1671 C 0.94218 0.36796 0.58204 0.0
N1672 N 0.8708 0.43575 0.58615 0.0
N1673 N 0.93965 0.40047 0.58118 0.0
H1674 H 0.53622 0.4418 0.59413 0.0
H1675 H 0.76562 0.5629 0.59867 0.0
H1676 H 0.60962 0.39193 0.59546 0.0
H1677 H 0.69516 0.61526 0.6039 0.0
H1678 H 0.70799 0.49989 0.59941 0.0
H1679 H 0.59259 0.50488 0.59941 0.0
C1680 C 0.56404 0.44394 0.59573 0.0
C1681 C 0.56808 0.41134 0.59418 0.0
C1682 C 0.70491 0.52499 0.60059 0.0
C1683 C 0.63289 0.48372 0.60008 0.0
C1684 C 0.73791 0.56107 0.60019 0.0
C1685 C 0.73519 0.59442 0.60115 0.0
C1686 C 0.66853 0.5219 0.60168 0.0
C1687 C 0.69853 0.59027 0.6032 0.0
C1688 C 0.59627 0.48006 0.59869 0.0
C1689 C 0.60505 0.41618 0.5962 0.0
N1690 N 0.66652 0.55463 0.60316 0.0
N1691 N 0.63588 0.45156 0.59893 0.0
loop_
_geom_bond_atom_site_label_1
_geom_bond_atom_site_label_2
_geom_bond_distance
_geom_bond_site_symmetry_2
_ccdc_geom_bond_type
Tb0 C9 2.764 . S
Tb0 O10 2.325 . S
Tb0 O13 2.303 . S
Tb0 O17 2.322 1_565 S
Tb0 O18 2.349 . S
Tb0 O21 2.415 . S
Tb0 O22 2.399 . S
Tb1 O11 2.322 1_545 S
Tb1 O12 2.349 . S
Tb1 O14 2.415 . S
Tb1 O15 2.399 . S
Tb1 O16 2.325 . S
Tb1 O19 2.303 . S
Tb1 C30 2.764 . S
C2 O18 1.261 1_545 S
C2 O19 1.257 . S
C3 C6 1.358 . S
C3 C7 1.332 . S
C3 C9 1.504 . S
C4 C5 1.373 . S
C4 C8 1.308 . S
C5 C4 1.373 . S
C5 C6 1.429 . S
C5 H32 0.932 . S
C6 C3 1.358 . S
C6 C5 1.429 . S
C6 H33 0.930 . S
C7 C3 1.332 . S
C7 C8 1.394 . S
C7 H34 0.932 . S
C8 C4 1.308 . S
C8 C7 1.394 . S
C8 H35 0.929 . S
C9 Tb0 2.764 . S
C9 C3 1.504 . S
C9 O21 1.239 . S
C9 O22 1.263 . S
O10 Tb0 2.325 . S
O10 C20 1.236 . S
O11 Tb1 2.322 1_565 S
O11 C20 1.257 . S
O12 Tb1 2.349 . S
O12 C23 1.263 . S
O13 Tb0 2.303 . S
O13 C23 1.257 1_565 S
O14 Tb1 2.415 . S
O14 C30 1.239 . S
O15 Tb1 2.399 . S
O15 C30 1.263 . S
O16 Tb1 2.325 . S
O16 C31 1.236 . S
O17 Tb0 2.322 1_545 S
O17 C31 1.257 . S
O18 Tb0 2.349 . S
O18 C2 1.261 1_565 S
O19 Tb1 2.303 . S
O19 C2 1.257 . S
C20 O10 1.236 . S
C20 O11 1.257 . S
O21 Tb0 2.415 . S
O21 C9 1.239 . S
O22 Tb0 2.399 . S
O22 C9 1.263 . S
C23 O12 1.263 . S
C23 O13 1.257 1_545 S
C24 C27 1.358 . S
C24 C28 1.332 . S
C24 C30 1.504 . S
C25 C26 1.373 . S
C25 C29 1.308 . S
C26 C25 1.373 . S
C26 C27 1.429 . S
C26 H36 0.932 . S
C27 C24 1.358 . S
C27 C26 1.429 . S
C27 H37 0.930 . S
C28 C24 1.332 . S
C28 C29 1.394 . S
C28 H38 0.932 . S
C29 C25 1.308 . S
C29 C28 1.394 . S
C29 H39 0.929 . S
C30 Tb1 2.764 . S
C30 O14 1.239 . S
C30 O15 1.263 . S
C30 C24 1.504 . S
C31 O16 1.236 . S
C31 O17 1.257 . S
H32 C5 0.932 . S
H33 C6 0.930 . S
H34 C7 0.932 . S
H35 C8 0.929 . S
H36 C26 0.932 . S
H37 C27 0.930 . S
H38 C28 0.932 . S
H39 C29 0.929 . S
Tb40 C49 2.764 . S
Tb40 O50 2.325 . S
Tb40 O53 2.303 . S
Tb40 O57 2.322 1_455 S
Tb40 O58 2.349 . S
Tb40 O61 2.415 . S
Tb40 O62 2.399 . S
Tb41 O51 2.322 . S
Tb41 O52 2.349 . S
Tb41 O54 2.415 1_455 S
Tb41 O55 2.399 1_455 S
Tb41 O56 2.325 1_455 S
Tb41 O59 2.303 . S
Tb41 C70 2.764 1_455 S
C42 O58 1.261 . S
C42 O59 1.257 . S
C43 C46 1.358 . S
C43 C47 1.332 . S
C43 C49 1.504 . S
C44 C45 1.373 . S
C44 C48 1.308 . S
C45 C44 1.373 . S
C45 C46 1.429 . S
C45 H72 0.932 . S
C46 C43 1.358 . S
C46 C45 1.429 . S
C46 H73 0.930 . S
C47 C43 1.332 . S
C47 C48 1.394 . S
C47 H74 0.932 . S
C48 C44 1.308 . S
C48 C47 1.394 . S
C48 H75 0.929 . S
C49 Tb40 2.764 . S
C49 C43 1.504 . S
C49 O61 1.239 . S
C49 O62 1.263 . S
O50 Tb40 2.325 . S
O50 C60 1.236 . S
O51 Tb41 2.322 . S
O51 C60 1.257 . S
O52 Tb41 2.349 . S
O52 C63 1.261 . S
O53 Tb40 2.303 . S
O53 C63 1.257 . S
O54 Tb41 2.415 1_655 S
O54 C70 1.239 . S
O55 Tb41 2.399 1_655 S
O55 C70 1.263 . S
O56 Tb41 2.325 1_655 S
O56 C71 1.236 . S
O57 Tb40 2.322 1_655 S
O57 C71 1.257 . S
O58 Tb40 2.349 . S
O58 C42 1.261 . S
O59 Tb41 2.303 . S
O59 C42 1.257 . S
C60 O50 1.236 . S
C60 O51 1.257 . S
O61 Tb40 2.415 . S
O61 C49 1.239 . S
O62 Tb40 2.399 . S
O62 C49 1.263 . S
C63 O52 1.261 . S
C63 O53 1.257 . S
C64 C67 1.358 . S
C64 C68 1.332 . S
C64 C70 1.504 . S
C65 C66 1.373 . S
C65 C69 1.308 . S
C66 C65 1.373 . S
C66 C67 1.429 . S
C66 H76 0.932 . S
C67 C64 1.358 . S
C67 C66 1.429 . S
C67 H77 0.930 . S
C68 C64 1.332 . S
C68 C69 1.394 . S
C68 H78 0.932 . S
C69 C65 1.308 . S
C69 C68 1.394 . S
C69 H79 0.929 . S
C70 Tb41 2.764 1_655 S
C70 O54 1.239 . S
C70 O55 1.263 . S
C70 C64 1.504 . S
C71 O56 1.236 . S
C71 O57 1.257 . S
H72 C45 0.932 . S
H73 C46 0.930 . S
H74 C47 0.932 . S
H75 C48 0.929 . S
H76 C66 0.932 . S
H77 C67 0.930 . S
H78 C68 0.932 . S
H79 C69 0.929 . S
Tb80 C89 2.764 . S
Tb80 O90 2.325 . S
Tb80 O93 2.303 . S
Tb80 O97 2.322 . S
Tb80 O98 2.349 . S
Tb80 O101 2.415 . S
Tb80 O102 2.399 . S
Tb81 O91 2.322 . S
Tb81 O92 2.349 . S
Tb81 O94 2.415 . S
Tb81 O95 2.399 . S
Tb81 O96 2.325 . S
Tb81 O99 2.303 . S
Tb81 C110 2.764 . S
C82 O98 1.261 . S
C82 O99 1.257 . S
C83 C86 1.358 . S
C83 C87 1.332 . S
C83 C89 1.504 . S
C84 C85 1.373 . S
C84 C88 1.308 . S
C85 C84 1.373 . S
C85 C86 1.429 . S
C85 H112 0.932 . S
C86 C83 1.358 . S
C86 C85 1.429 . S
C86 H113 0.930 . S
C87 C83 1.332 . S
C87 C88 1.394 . S
C87 H114 0.932 . S
C88 C84 1.308 . S
C88 C87 1.394 . S
C88 H115 0.929 . S
C89 Tb80 2.764 . S
C89 C83 1.504 . S
C89 O101 1.239 . S
C89 O102 1.263 . S
O90 Tb80 2.325 . S
O90 C100 1.236 . S
O91 Tb81 2.322 . S
O91 C100 1.257 . S
O92 Tb81 2.349 . S
O92 C103 1.261 . S
O93 Tb80 2.303 . S
O93 C103 1.257 . S
O94 Tb81 2.415 . S
O94 C110 1.239 . S
O95 Tb81 2.399 . S
O95 C110 1.263 . S
O96 Tb81 2.325 . S
O96 C111 1.236 . S
O97 Tb80 2.322 . S
O97 C111 1.257 . S
O98 Tb80 2.349 . S
O98 C82 1.261 . S
O99 Tb81 2.303 . S
O99 C82 1.257 . S
C100 O90 1.236 . S
C100 O91 1.257 . S
O101 Tb80 2.415 . S
O101 C89 1.239 . S
O102 Tb80 2.399 . S
O102 C89 1.263 . S
C103 O92 1.261 . S
C103 O93 1.257 . S
C104 C107 1.358 . S
C104 C108 1.332 . S
C104 C110 1.504 . S
C105 C106 1.373 . S
C105 C109 1.308 . S
C106 C105 1.373 . S
C106 C107 1.429 . S
C106 H116 0.932 . S
C107 C104 1.358 . S
C107 C106 1.429 . S
C107 H117 0.930 . S
C108 C104 1.332 . S
C108 C109 1.394 . S
C108 H118 0.932 . S
C109 C105 1.308 . S
C109 C108 1.394 . S
C109 H119 0.929 . S
C110 Tb81 2.764 . S
C110 O94 1.239 . S
C110 O95 1.263 . S
C110 C104 1.504 . S
C111 O96 1.236 . S
C111 O97 1.257 . S
H112 C85 0.932 . S
H113 C86 0.930 . S
H114 C87 0.932 . S
H115 C88 0.929 . S
H116 C106 0.932 . S
H117 C107 0.930 . S
H118 C108 0.932 . S
H119 C109 0.929 . S
Tb120 C129 2.764 . S
Tb120 O130 2.325 . S
Tb120 O133 2.303 . S
Tb120 O137 2.322 1_655 S
Tb120 O138 2.349 . S
Tb120 O141 2.415 . S
Tb120 O142 2.399 . S
Tb121 O131 2.322 1_455 S
Tb121 O132 2.349 . S
Tb121 O134 2.415 . S
Tb121 O135 2.399 . S
Tb121 O136 2.325 . S
Tb121 O139 2.303 . S
Tb121 C150 2.764 . S
C122 O138 1.261 1_455 S
C122 O139 1.257 . S
C123 C126 1.358 . S
C123 C127 1.332 . S
C123 C129 1.504 . S
C124 C125 1.373 . S
C124 C128 1.308 . S
C125 C124 1.373 . S
C125 C126 1.429 . S
C125 H152 0.932 . S
C126 C123 1.358 . S
C126 C125 1.429 . S
C126 H153 0.930 . S
C127 C123 1.332 . S
C127 C128 1.394 . S
C127 H154 0.932 . S
C128 C124 1.308 . S
C128 C127 1.394 . S
C128 H155 0.929 . S
C129 Tb120 2.764 . S
C129 C123 1.504 . S
C129 O141 1.239 . S
C129 O142 1.263 . S
O130 Tb120 2.325 . S
O130 C140 1.236 . S
O131 Tb121 2.322 1_655 S
O131 C140 1.257 . S
O132 Tb121 2.349 . S
O132 C143 1.263 . S
O133 Tb120 2.303 . S
O133 C143 1.257 1_655 S
O134 Tb121 2.415 . S
O134 C150 1.239 . S
O135 Tb121 2.399 . S
O135 C150 1.263 . S
O136 Tb121 2.325 . S
O136 C151 1.236 . S
O137 Tb120 2.322 1_455 S
O137 C151 1.257 . S
O138 Tb120 2.349 . S
O138 C122 1.261 1_655 S
O139 Tb121 2.303 . S
O139 C122 1.257 . S
C140 O130 1.236 . S
C140 O131 1.257 . S
O141 Tb120 2.415 . S
O141 C129 1.239 . S
O142 Tb120 2.399 . S
O142 C129 1.263 . S
C143 O132 1.263 . S
C143 O133 1.257 1_455 S
C144 C147 1.358 . S
C144 C148 1.332 . S
C144 C150 1.504 . S
C145 C146 1.373 . S
C145 C149 1.308 . S
C146 C145 1.373 . S
C146 C147 1.429 . S
C146 H156 0.932 . S
C147 C144 1.358 . S
C147 C146 1.429 . S
C147 H157 0.930 . S
C148 C144 1.332 . S
C148 C149 1.394 . S
C148 H158 0.932 . S
C149 C145 1.308 . S
C149 C148 1.394 . S
C149 H159 0.929 . S
C150 Tb121 2.764 . S
C150 O134 1.239 . S
C150 O135 1.263 . S
C150 C144 1.504 . S
C151 O136 1.236 . S
C151 O137 1.257 . S
H152 C125 0.932 . S
H153 C126 0.930 . S
H154 C127 0.932 . S
H155 C128 0.929 . S
H156 C146 0.932 . S
H157 C147 0.930 . S
H158 C148 0.932 . S
H159 C149 0.929 . S
Tb160 C169 2.764 . S
Tb160 O170 2.325 . S
Tb160 O173 2.303 . S
Tb160 O177 2.322 . S
Tb160 O178 2.349 . S
Tb160 O181 2.415 . S
Tb160 O182 2.399 . S
Tb161 O171 2.322 . S
Tb161 O172 2.349 . S
Tb161 O174 2.415 . S
Tb161 O175 2.399 . S
Tb161 O176 2.325 . S
Tb161 O179 2.303 . S
Tb161 C190 2.764 . S
C162 O178 1.261 . S
C162 O179 1.257 . S
C163 C166 1.358 . S
C163 C167 1.332 . S
C163 C169 1.504 . S
C164 C165 1.373 . S
C164 C168 1.308 . S
C165 C164 1.373 . S
C165 C166 1.429 . S
C165 H192 0.932 . S
C166 C163 1.358 . S
C166 C165 1.429 . S
C166 H193 0.930 . S
C167 C163 1.332 . S
C167 C168 1.394 . S
C167 H194 0.932 . S
C168 C164 1.308 . S
C168 C167 1.394 . S
C168 H195 0.929 . S
C169 Tb160 2.764 . S
C169 C163 1.504 . S
C169 O181 1.239 . S
C169 O182 1.263 . S
O170 Tb160 2.325 . S
O170 C180 1.236 . S
O171 Tb161 2.322 . S
O171 C180 1.257 . S
O172 Tb161 2.349 . S
O172 C183 1.261 . S
O173 Tb160 2.303 . S
O173 C183 1.257 . S
O174 Tb161 2.415 . S
O174 C190 1.239 . S
O175 Tb161 2.399 . S
O175 C190 1.263 . S
O176 Tb161 2.325 . S
O176 C191 1.236 . S
O177 Tb160 2.322 . S
O177 C191 1.257 . S
O178 Tb160 2.349 . S
O178 C162 1.261 . S
O179 Tb161 2.303 . S
O179 C162 1.257 . S
C180 O170 1.236 . S
C180 O171 1.257 . S
O181 Tb160 2.415 . S
O181 C169 1.239 . S
O182 Tb160 2.399 . S
O182 C169 1.263 . S
C183 O172 1.261 . S
C183 O173 1.257 . S
C184 C187 1.358 . S
C184 C188 1.332 . S
C184 C190 1.504 . S
C185 C186 1.373 . S
C185 C189 1.308 . S
C186 C185 1.373 . S
C186 C187 1.429 . S
C186 H196 0.932 . S
C187 C184 1.358 . S
C187 C186 1.429 . S
C187 H197 0.930 . S
C188 C184 1.332 . S
C188 C189 1.394 . S
C188 H198 0.932 . S
C189 C185 1.308 . S
C189 C188 1.394 . S
C189 H199 0.929 . S
C190 Tb161 2.764 . S
C190 O174 1.239 . S
C190 O175 1.263 . S
C190 C184 1.504 . S
C191 O176 1.236 . S
C191 O177 1.257 . S
H192 C165 0.932 . S
H193 C166 0.930 . S
H194 C167 0.932 . S
H195 C168 0.929 . S
H196 C186 0.932 . S
H197 C187 0.930 . S
H198 C188 0.932 . S
H199 C189 0.929 . S
Tb200 C209 2.764 . S
Tb200 O210 2.325 . S
Tb200 O213 2.303 . S
Tb200 O217 2.322 1_545 S
Tb200 O218 2.349 . S
Tb200 O221 2.415 . S
Tb200 O222 2.399 . S
Tb201 O211 2.322 . S
Tb201 O212 2.349 . S
Tb201 O214 2.415 1_545 S
Tb201 O215 2.399 1_545 S
Tb201 O216 2.325 1_545 S
Tb201 O219 2.303 . S
Tb201 C230 2.764 1_545 S
C202 O218 1.261 . S
C202 O219 1.257 . S
C203 C206 1.358 . S
C203 C207 1.332 . S
C203 C209 1.504 . S
C204 C205 1.373 . S
C204 C208 1.308 . S
C205 C204 1.373 . S
C205 C206 1.429 . S
C205 H232 0.932 . S
C206 C203 1.358 . S
C206 C205 1.429 . S
C206 H233 0.930 . S
C207 C203 1.332 . S
C207 C208 1.394 . S
C207 H234 0.932 . S
C208 C204 1.308 . S
C208 C207 1.394 . S
C208 H235 0.929 . S
C209 Tb200 2.764 . S
C209 C203 1.504 . S
C209 O221 1.239 . S
C209 O222 1.263 . S
O210 Tb200 2.325 . S
O210 C220 1.236 . S
O211 Tb201 2.322 . S
O211 C220 1.257 . S
O212 Tb201 2.349 . S
O212 C223 1.261 . S
O213 Tb200 2.303 . S
O213 C223 1.257 . S
O214 Tb201 2.415 1_565 S
O214 C230 1.239 . S
O215 Tb201 2.399 1_565 S
O215 C230 1.263 . S
O216 Tb201 2.325 1_565 S
O216 C231 1.236 . S
O217 Tb200 2.322 1_565 S
O217 C231 1.257 . S
O218 Tb200 2.349 . S
O218 C202 1.261 . S
O219 Tb201 2.303 . S
O219 C202 1.257 . S
C220 O210 1.236 . S
C220 O211 1.257 . S
O221 Tb200 2.415 . S
O221 C209 1.239 . S
O222 Tb200 2.399 . S
O222 C209 1.263 . S
C223 O212 1.261 . S
C223 O213 1.257 . S
C224 C227 1.358 . S
C224 C228 1.332 . S
C224 C230 1.504 . S
C225 C226 1.373 . S
C225 C229 1.308 . S
C226 C225 1.373 . S
C226 C227 1.429 . S
C226 H236 0.932 . S
C227 C224 1.358 . S
C227 C226 1.429 . S
C227 H237 0.930 . S
C228 C224 1.332 . S
C228 C229 1.394 . S
C228 H238 0.932 . S
C229 C225 1.308 . S
C229 C228 1.394 . S
C229 H239 0.929 . S
C230 Tb201 2.764 1_565 S
C230 O214 1.239 . S
C230 O215 1.263 . S
C230 C224 1.504 . S
C231 O216 1.236 . S
C231 O217 1.257 . S
H232 C205 0.932 . S
H233 C206 0.930 . S
H234 C207 0.932 . S
H235 C208 0.929 . S
H236 C226 0.932 . S
H237 C227 0.930 . S
H238 C228 0.932 . S
H239 C229 0.929 . S
Tb240 C249 2.764 . S
Tb240 O250 2.325 . S
Tb240 O253 2.303 . S
Tb240 O257 2.322 . S
Tb240 O258 2.349 . S
Tb240 O261 2.415 . S
Tb240 O262 2.399 . S
Tb241 O251 2.322 . S
Tb241 O252 2.349 . S
Tb241 O254 2.415 . S
Tb241 O255 2.399 . S
Tb241 O256 2.325 . S
Tb241 O259 2.303 . S
Tb241 C270 2.764 . S
C242 O258 1.261 . S
C242 O259 1.257 . S
C243 C246 1.358 1_455 S
C243 C247 1.332 1_455 S
C243 C249 1.504 . S
C244 C245 1.373 . S
C244 C248 1.308 . S
C245 C244 1.373 . S
C245 C246 1.429 . S
C245 H272 0.932 . S
C246 C243 1.358 1_655 S
C246 C245 1.429 . S
C246 H273 0.930 . S
C247 C243 1.332 1_655 S
C247 C248 1.394 . S
C247 H274 0.932 1_655 S
C248 C244 1.308 . S
C248 C247 1.394 . S
C248 H275 0.929 . S
C249 Tb240 2.764 . S
C249 C243 1.504 . S
C249 O261 1.239 . S
C249 O262 1.263 . S
O250 Tb240 2.325 . S
O250 C260 1.236 . S
O251 Tb241 2.322 . S
O251 C260 1.257 . S
O252 Tb241 2.349 . S
O252 C263 1.261 . S
O253 Tb240 2.303 . S
O253 C263 1.257 . S
O254 Tb241 2.415 . S
O254 C270 1.239 . S
O255 Tb241 2.399 . S
O255 C270 1.263 . S
O256 Tb241 2.325 . S
O256 C271 1.236 . S
O257 Tb240 2.322 . S
O257 C271 1.257 . S
O258 Tb240 2.349 . S
O258 C242 1.261 . S
O259 Tb241 2.303 . S
O259 C242 1.257 . S
C260 O250 1.236 . S
C260 O251 1.257 . S
O261 Tb240 2.415 . S
O261 C249 1.239 . S
O262 Tb240 2.399 . S
O262 C249 1.263 . S
C263 O252 1.261 . S
C263 O253 1.257 . S
C264 C267 1.358 . S
C264 C268 1.332 . S
C264 C270 1.504 . S
C265 C266 1.373 . S
C265 C269 1.308 . S
C266 C265 1.373 . S
C266 C267 1.429 . S
C266 H276 0.932 . S
C267 C264 1.358 . S
C267 C266 1.429 . S
C267 H277 0.930 . S
C268 C264 1.332 . S
C268 C269 1.394 . S
C268 H278 0.932 . S
C269 C265 1.308 . S
C269 C268 1.394 . S
C269 H279 0.929 . S
C270 Tb241 2.764 . S
C270 O254 1.239 . S
C270 O255 1.263 . S
C270 C264 1.504 . S
C271 O256 1.236 . S
C271 O257 1.257 . S
H272 C245 0.932 . S
H273 C246 0.930 . S
H274 C247 0.932 1_455 S
H275 C248 0.929 . S
H276 C266 0.932 . S
H277 C267 0.930 . S
H278 C268 0.932 . S
H279 C269 0.929 . S
Tb280 C289 2.764 . S
Tb280 O290 2.325 . S
Tb280 O293 2.303 . S
Tb280 O297 2.322 . S
Tb280 O298 2.349 . S
Tb280 O301 2.415 . S
Tb280 O302 2.399 . S
Tb281 O291 2.322 . S
Tb281 O292 2.349 . S
Tb281 O294 2.415 . S
Tb281 O295 2.399 . S
Tb281 O296 2.325 . S
Tb281 O299 2.303 . S
Tb281 C310 2.764 . S
C282 O298 1.261 . S
C282 O299 1.257 . S
C283 C286 1.358 . S
C283 C287 1.332 . S
C283 C289 1.504 . S
C284 C285 1.373 . S
C284 C288 1.308 . S
C285 C284 1.373 . S
C285 C286 1.429 . S
C285 H312 0.932 . S
C286 C283 1.358 . S
C286 C285 1.429 . S
C286 H313 0.930 . S
C287 C283 1.332 . S
C287 C288 1.394 . S
C287 H314 0.932 . S
C288 C284 1.308 . S
C288 C287 1.394 . S
C288 H315 0.929 . S
C289 Tb280 2.764 . S
C289 C283 1.504 . S
C289 O301 1.239 . S
C289 O302 1.263 . S
O290 Tb280 2.325 . S
O290 C300 1.236 . S
O291 Tb281 2.322 . S
O291 C300 1.257 . S
O292 Tb281 2.349 . S
O292 C303 1.261 . S
O293 Tb280 2.303 . S
O293 C303 1.257 . S
O294 Tb281 2.415 . S
O294 C310 1.239 . S
O295 Tb281 2.399 . S
O295 C310 1.263 . S
O296 Tb281 2.325 . S
O296 C311 1.236 . S
O297 Tb280 2.322 . S
O297 C311 1.257 . S
O298 Tb280 2.349 . S
O298 C282 1.261 . S
O299 Tb281 2.303 . S
O299 C282 1.257 . S
C300 O290 1.236 . S
C300 O291 1.257 . S
O301 Tb280 2.415 . S
O301 C289 1.239 . S
O302 Tb280 2.399 . S
O302 C289 1.263 . S
C303 O292 1.261 . S
C303 O293 1.257 . S
C304 C307 1.358 . S
C304 C308 1.332 . S
C304 C310 1.504 . S
C305 C306 1.373 . S
C305 C309 1.308 . S
C306 C305 1.373 . S
C306 C307 1.429 . S
C306 H316 0.932 . S
C307 C304 1.358 . S
C307 C306 1.429 . S
C307 H317 0.930 . S
C308 C304 1.332 . S
C308 C309 1.394 . S
C308 H318 0.932 . S
C309 C305 1.308 . S
C309 C308 1.394 . S
C309 H319 0.929 . S
C310 Tb281 2.764 . S
C310 O294 1.239 . S
C310 O295 1.263 . S
C310 C304 1.504 . S
C311 O296 1.236 . S
C311 O297 1.257 . S
H312 C285 0.932 . S
H313 C286 0.930 . S
H314 C287 0.932 . S
H315 C288 0.929 . S
H316 C306 0.932 . S
H317 C307 0.930 . S
H318 C308 0.932 . S
H319 C309 0.929 . S
Tb320 C329 2.764 . S
Tb320 O330 2.325 . S
Tb320 O333 2.303 . S
Tb320 O337 2.322 . S
Tb320 O338 2.349 . S
Tb320 O341 2.415 . S
Tb320 O342 2.399 . S
Tb321 O331 2.322 . S
Tb321 O332 2.349 . S
Tb321 O334 2.415 . S
Tb321 O335 2.399 . S
Tb321 O336 2.325 . S
Tb321 O339 2.303 . S
Tb321 C350 2.764 . S
C322 O338 1.261 . S
C322 O339 1.257 . S
C323 C326 1.358 . S
C323 C327 1.332 . S
C323 C329 1.504 1_545 S
C324 C325 1.373 . S
C324 C328 1.308 . S
C325 C324 1.373 . S
C325 C326 1.429 . S
C325 H352 0.932 . S
C326 C323 1.358 . S
C326 C325 1.429 . S
C326 H353 0.930 . S
C327 C323 1.332 . S
C327 C328 1.394 . S
C327 H354 0.932 . S
C328 C324 1.308 . S
C328 C327 1.394 . S
C328 H355 0.929 . S
C329 Tb320 2.764 . S
C329 C323 1.504 1_565 S
C329 O341 1.239 . S
C329 O342 1.263 . S
O330 Tb320 2.325 . S
O330 C340 1.236 . S
O331 Tb321 2.322 . S
O331 C340 1.257 . S
O332 Tb321 2.349 . S
O332 C343 1.261 . S
O333 Tb320 2.303 . S
O333 C343 1.257 . S
O334 Tb321 2.415 . S
O334 C350 1.239 . S
O335 Tb321 2.399 . S
O335 C350 1.263 . S
O336 Tb321 2.325 . S
O336 C351 1.236 . S
O337 Tb320 2.322 . S
O337 C351 1.257 . S
O338 Tb320 2.349 . S
O338 C322 1.261 . S
O339 Tb321 2.303 . S
O339 C322 1.257 . S
C340 O330 1.236 . S
C340 O331 1.257 . S
O341 Tb320 2.415 . S
O341 C329 1.239 . S
O342 Tb320 2.399 . S
O342 C329 1.263 . S
C343 O332 1.261 . S
C343 O333 1.257 . S
C344 C347 1.358 . S
C344 C348 1.332 . S
C344 C350 1.504 . S
C345 C346 1.373 . S
C345 C349 1.308 . S
C346 C345 1.373 . S
C346 C347 1.429 . S
C346 H356 0.932 . S
C347 C344 1.358 . S
C347 C346 1.429 . S
C347 H357 0.930 . S
C348 C344 1.332 . S
C348 C349 1.394 . S
C348 H358 0.932 . S
C349 C345 1.308 . S
C349 C348 1.394 . S
C349 H359 0.929 . S
C350 Tb321 2.764 . S
C350 O334 1.239 . S
C350 O335 1.263 . S
C350 C344 1.504 . S
C351 O336 1.236 . S
C351 O337 1.257 . S
H352 C325 0.932 . S
H353 C326 0.930 . S
H354 C327 0.932 . S
H355 C328 0.929 . S
H356 C346 0.932 . S
H357 C347 0.930 . S
H358 C348 0.932 . S
H359 C349 0.929 . S
Tb360 C369 2.764 . S
Tb360 O370 2.325 . S
Tb360 O373 2.303 . S
Tb360 O377 2.322 . S
Tb360 O378 2.349 . S
Tb360 O381 2.415 . S
Tb360 O382 2.399 . S
Tb361 O371 2.322 . S
Tb361 O372 2.349 . S
Tb361 O374 2.415 . S
Tb361 O375 2.399 . S
Tb361 O376 2.325 . S
Tb361 O379 2.303 . S
Tb361 C390 2.764 . S
C362 O378 1.261 . S
C362 O379 1.257 . S
C363 C366 1.358 . S
C363 C367 1.332 . S
C363 C369 1.504 . S
C364 C365 1.373 . S
C364 C368 1.308 . S
C365 C364 1.373 . S
C365 C366 1.429 . S
C365 H392 0.932 . S
C366 C363 1.358 . S
C366 C365 1.429 . S
C366 H393 0.930 . S
C367 C363 1.332 . S
C367 C368 1.394 . S
C367 H394 0.932 . S
C368 C364 1.308 . S
C368 C367 1.394 . S
C368 H395 0.929 . S
C369 Tb360 2.764 . S
C369 C363 1.504 . S
C369 O381 1.239 . S
C369 O382 1.263 . S
O370 Tb360 2.325 . S
O370 C380 1.236 . S
O371 Tb361 2.322 . S
O371 C380 1.257 . S
O372 Tb361 2.349 . S
O372 C383 1.261 . S
O373 Tb360 2.303 . S
O373 C383 1.257 . S
O374 Tb361 2.415 . S
O374 C390 1.239 . S
O375 Tb361 2.399 . S
O375 C390 1.263 . S
O376 Tb361 2.325 . S
O376 C391 1.236 . S
O377 Tb360 2.322 . S
O377 C391 1.257 . S
O378 Tb360 2.349 . S
O378 C362 1.261 . S
O379 Tb361 2.303 . S
O379 C362 1.257 . S
C380 O370 1.236 . S
C380 O371 1.257 . S
O381 Tb360 2.415 . S
O381 C369 1.239 . S
O382 Tb360 2.399 . S
O382 C369 1.263 . S
C383 O372 1.261 . S
C383 O373 1.257 . S
C384 C387 1.358 . S
C384 C388 1.332 . S
C384 C390 1.504 . S
C385 C386 1.373 . S
C385 C389 1.308 . S
C386 C385 1.373 . S
C386 C387 1.429 1_545 S
C386 H396 0.932 . S
C387 C384 1.358 . S
C387 C386 1.429 1_565 S
C387 H397 0.930 . S
C388 C384 1.332 . S
C388 C389 1.394 1_565 S
C388 H398 0.932 . S
C389 C385 1.308 . S
C389 C388 1.394 1_545 S
C389 H399 0.929 . S
C390 Tb361 2.764 . S
C390 O374 1.239 . S
C390 O375 1.263 . S
C390 C384 1.504 . S
C391 O376 1.236 . S
C391 O377 1.257 . S
H392 C365 0.932 . S
H393 C366 0.930 . S
H394 C367 0.932 . S
H395 C368 0.929 . S
H396 C386 0.932 . S
H397 C387 0.930 . S
H398 C388 0.932 . S
H399 C389 0.929 . S
Tb400 C409 2.764 . S
Tb400 O410 2.325 . S
Tb400 O413 2.303 . S
Tb400 O417 2.322 . S
Tb400 O418 2.349 . S
Tb400 O421 2.415 . S
Tb400 O422 2.399 . S
Tb401 O411 2.322 . S
Tb401 O412 2.349 . S
Tb401 O414 2.415 . S
Tb401 O415 2.399 . S
Tb401 O416 2.325 . S
Tb401 O419 2.303 . S
Tb401 C430 2.764 . S
C402 O418 1.261 . S
C402 O419 1.257 . S
C403 C406 1.358 . S
C403 C407 1.332 . S
C403 C409 1.504 . S
C404 C405 1.373 . S
C404 C408 1.308 . S
C405 C404 1.373 . S
C405 C406 1.429 . S
C405 H432 0.932 . S
C406 C403 1.358 . S
C406 C405 1.429 . S
C406 H433 0.930 . S
C407 C403 1.332 . S
C407 C408 1.394 . S
C407 H434 0.932 . S
C408 C404 1.308 . S
C408 C407 1.394 . S
C408 H435 0.929 . S
C409 Tb400 2.764 . S
C409 C403 1.504 . S
C409 O421 1.239 . S
C409 O422 1.263 . S
O410 Tb400 2.325 . S
O410 C420 1.236 . S
O411 Tb401 2.322 . S
O411 C420 1.257 . S
O412 Tb401 2.349 . S
O412 C423 1.261 . S
O413 Tb400 2.303 . S
O413 C423 1.257 . S
O414 Tb401 2.415 . S
O414 C430 1.239 . S
O415 Tb401 2.399 . S
O415 C430 1.263 . S
O416 Tb401 2.325 . S
O416 C431 1.236 . S
O417 Tb400 2.322 . S
O417 C431 1.257 . S
O418 Tb400 2.349 . S
O418 C402 1.261 . S
O419 Tb401 2.303 . S
O419 C402 1.257 . S
C420 O410 1.236 . S
C420 O411 1.257 . S
O421 Tb400 2.415 . S
O421 C409 1.239 . S
O422 Tb400 2.399 . S
O422 C409 1.263 . S
C423 O412 1.261 . S
C423 O413 1.257 . S
C424 C427 1.358 . S
C424 C428 1.332 . S
C424 C430 1.504 . S
C425 C426 1.373 . S
C425 C429 1.308 . S
C426 C425 1.373 . S
C426 C427 1.429 . S
C426 H436 0.932 . S
C427 C424 1.358 . S
C427 C426 1.429 . S
C427 H437 0.930 . S
C428 C424 1.332 . S
C428 C429 1.394 . S
C428 H438 0.932 . S
C429 C425 1.308 . S
C429 C428 1.394 . S
C429 H439 0.929 . S
C430 Tb401 2.764 . S
C430 O414 1.239 . S
C430 O415 1.263 . S
C430 C424 1.504 . S
C431 O416 1.236 . S
C431 O417 1.257 . S
H432 C405 0.932 . S
H433 C406 0.930 . S
H434 C407 0.932 . S
H435 C408 0.929 . S
H436 C426 0.932 . S
H437 C427 0.930 . S
H438 C428 0.932 . S
H439 C429 0.929 . S
Tb440 C449 2.764 . S
Tb440 O450 2.325 . S
Tb440 O453 2.303 . S
Tb440 O457 2.322 . S
Tb440 O458 2.349 . S
Tb440 O461 2.415 . S
Tb440 O462 2.399 . S
Tb441 O451 2.322 . S
Tb441 O452 2.349 . S
Tb441 O454 2.415 . S
Tb441 O455 2.399 . S
Tb441 O456 2.325 . S
Tb441 O459 2.303 . S
Tb441 C470 2.764 . S
C442 O458 1.261 . S
C442 O459 1.257 . S
C443 C446 1.358 . S
C443 C447 1.332 . S
C443 C449 1.504 . S
C444 C445 1.373 . S
C444 C448 1.308 . S
C445 C444 1.373 . S
C445 C446 1.429 . S
C445 H472 0.932 . S
C446 C443 1.358 . S
C446 C445 1.429 . S
C446 H473 0.930 . S
C447 C443 1.332 . S
C447 C448 1.394 . S
C447 H474 0.932 . S
C448 C444 1.308 . S
C448 C447 1.394 . S
C448 H475 0.929 . S
C449 Tb440 2.764 . S
C449 C443 1.504 . S
C449 O461 1.239 . S
C449 O462 1.263 . S
O450 Tb440 2.325 . S
O450 C460 1.236 . S
O451 Tb441 2.322 . S
O451 C460 1.257 . S
O452 Tb441 2.349 . S
O452 C463 1.261 . S
O453 Tb440 2.303 . S
O453 C463 1.257 . S
O454 Tb441 2.415 . S
O454 C470 1.239 . S
O455 Tb441 2.399 . S
O455 C470 1.263 . S
O456 Tb441 2.325 . S
O456 C471 1.236 . S
O457 Tb440 2.322 . S
O457 C471 1.257 . S
O458 Tb440 2.349 . S
O458 C442 1.261 . S
O459 Tb441 2.303 . S
O459 C442 1.257 . S
C460 O450 1.236 . S
C460 O451 1.257 . S
O461 Tb440 2.415 . S
O461 C449 1.239 . S
O462 Tb440 2.399 . S
O462 C449 1.263 . S
C463 O452 1.261 . S
C463 O453 1.257 . S
C464 C467 1.358 . S
C464 C468 1.332 . S
C464 C470 1.504 . S
C465 C466 1.373 . S
C465 C469 1.308 . S
C466 C465 1.373 . S
C466 C467 1.429 . S
C466 H476 0.932 . S
C467 C464 1.358 . S
C467 C466 1.429 . S
C467 H477 0.930 . S
C468 C464 1.332 . S
C468 C469 1.394 . S
C468 H478 0.932 . S
C469 C465 1.308 . S
C469 C468 1.394 . S
C469 H479 0.929 . S
C470 Tb441 2.764 . S
C470 O454 1.239 . S
C470 O455 1.263 . S
C470 C464 1.504 . S
C471 O456 1.236 . S
C471 O457 1.257 . S
H472 C445 0.932 . S
H473 C446 0.930 . S
H474 C447 0.932 . S
H475 C448 0.929 . S
H476 C466 0.932 . S
H477 C467 0.930 . S
H478 C468 0.932 . S
H479 C469 0.929 . S
Tb480 C489 2.764 . S
Tb480 O490 2.325 . S
Tb480 O493 2.303 . S
Tb480 O497 2.322 . S
Tb480 O498 2.349 . S
Tb480 O501 2.415 . S
Tb480 O502 2.399 . S
Tb481 O491 2.322 . S
Tb481 O492 2.349 . S
Tb481 O494 2.415 . S
Tb481 O495 2.399 . S
Tb481 O496 2.325 . S
Tb481 O499 2.303 . S
Tb481 C510 2.764 . S
C482 O498 1.261 . S
C482 O499 1.257 . S
C483 C486 1.358 . S
C483 C487 1.332 . S
C483 C489 1.504 . S
C484 C485 1.373 . S
C484 C488 1.308 . S
C485 C484 1.373 . S
C485 C486 1.429 . S
C485 H512 0.932 . S
C486 C483 1.358 . S
C486 C485 1.429 . S
C486 H513 0.930 . S
C487 C483 1.332 . S
C487 C488 1.394 . S
C487 H514 0.932 . S
C488 C484 1.308 . S
C488 C487 1.394 . S
C488 H515 0.929 . S
C489 Tb480 2.764 . S
C489 C483 1.504 . S
C489 O501 1.239 . S
C489 O502 1.263 . S
O490 Tb480 2.325 . S
O490 C500 1.236 . S
O491 Tb481 2.322 . S
O491 C500 1.257 . S
O492 Tb481 2.349 . S
O492 C503 1.261 . S
O493 Tb480 2.303 . S
O493 C503 1.257 . S
O494 Tb481 2.415 . S
O494 C510 1.239 . S
O495 Tb481 2.399 . S
O495 C510 1.263 . S
O496 Tb481 2.325 . S
O496 C511 1.236 . S
O497 Tb480 2.322 . S
O497 C511 1.257 . S
O498 Tb480 2.349 . S
O498 C482 1.261 . S
O499 Tb481 2.303 . S
O499 C482 1.257 . S
C500 O490 1.236 . S
C500 O491 1.257 . S
O501 Tb480 2.415 . S
O501 C489 1.239 . S
O502 Tb480 2.399 . S
O502 C489 1.263 . S
C503 O492 1.261 . S
C503 O493 1.257 . S
C504 C507 1.358 . S
C504 C508 1.332 . S
C504 C510 1.504 . S
C505 C506 1.373 . S
C505 C509 1.308 . S
C506 C505 1.373 . S
C506 C507 1.429 1_455 S
C506 H516 0.932 . S
C507 C504 1.358 . S
C507 C506 1.429 1_655 S
C507 H517 0.930 . S
C508 C504 1.332 . S
C508 C509 1.394 1_655 S
C508 H518 0.932 . S
C509 C505 1.308 . S
C509 C508 1.394 1_455 S
C509 H519 0.929 . S
C510 Tb481 2.764 . S
C510 O494 1.239 . S
C510 O495 1.263 . S
C510 C504 1.504 . S
C511 O496 1.236 . S
C511 O497 1.257 . S
H512 C485 0.932 . S
H513 C486 0.930 . S
H514 C487 0.932 . S
H515 C488 0.929 . S
H516 C506 0.932 . S
H517 C507 0.930 . S
H518 C508 0.932 . S
H519 C509 0.929 . S
Tb520 C529 2.764 . S
Tb520 O530 2.325 . S
Tb520 O533 2.303 . S
Tb520 O537 2.322 . S
Tb520 O538 2.349 . S
Tb520 O541 2.415 . S
Tb520 O542 2.399 . S
Tb521 O531 2.322 . S
Tb521 O532 2.349 . S
Tb521 O534 2.415 . S
Tb521 O535 2.399 . S
Tb521 O536 2.325 . S
Tb521 O539 2.303 . S
Tb521 C550 2.764 . S
C522 O538 1.261 . S
C522 O539 1.257 . S
C523 C526 1.358 . S
C523 C527 1.332 . S
C523 C529 1.504 . S
C524 C525 1.373 . S
C524 C528 1.308 . S
C525 C524 1.373 . S
C525 C526 1.429 . S
C525 H552 0.932 . S
C526 C523 1.358 . S
C526 C525 1.429 . S
C526 H553 0.930 . S
C527 C523 1.332 . S
C527 C528 1.394 . S
C527 H554 0.932 . S
C528 C524 1.308 . S
C528 C527 1.394 . S
C528 H555 0.929 . S
C529 Tb520 2.764 . S
C529 C523 1.504 . S
C529 O541 1.239 . S
C529 O542 1.263 . S
O530 Tb520 2.325 . S
O530 C540 1.236 . S
O531 Tb521 2.322 . S
O531 C540 1.257 . S
O532 Tb521 2.349 . S
O532 C543 1.261 . S
O533 Tb520 2.303 . S
O533 C543 1.257 . S
O534 Tb521 2.415 . S
O534 C550 1.239 . S
O535 Tb521 2.399 . S
O535 C550 1.263 . S
O536 Tb521 2.325 . S
O536 C551 1.236 . S
O537 Tb520 2.322 . S
O537 C551 1.257 . S
O538 Tb520 2.349 . S
O538 C522 1.261 . S
O539 Tb521 2.303 . S
O539 C522 1.257 . S
C540 O530 1.236 . S
C540 O531 1.257 . S
O541 Tb520 2.415 . S
O541 C529 1.239 . S
O542 Tb520 2.399 . S
O542 C529 1.263 . S
C543 O532 1.261 . S
C543 O533 1.257 . S
C544 C547 1.358 . S
C544 C548 1.332 . S
C544 C550 1.504 . S
C545 C546 1.373 . S
C545 C549 1.308 . S
C546 C545 1.373 . S
C546 C547 1.429 . S
C546 H556 0.932 . S
C547 C544 1.358 . S
C547 C546 1.429 . S
C547 H557 0.930 . S
C548 C544 1.332 . S
C548 C549 1.394 . S
C548 H558 0.932 . S
C549 C545 1.308 . S
C549 C548 1.394 . S
C549 H559 0.929 . S
C550 Tb521 2.764 . S
C550 O534 1.239 . S
C550 O535 1.263 . S
C550 C544 1.504 . S
C551 O536 1.236 . S
C551 O537 1.257 . S
H552 C525 0.932 . S
H553 C526 0.930 . S
H554 C527 0.932 . S
H555 C528 0.929 . S
H556 C546 0.932 . S
H557 C547 0.930 . S
H558 C548 0.932 . S
H559 C549 0.929 . S
Tb560 C569 2.764 . S
Tb560 O570 2.325 . S
Tb560 O573 2.303 . S
Tb560 O577 2.322 . S
Tb560 O578 2.349 . S
Tb560 O581 2.415 . S
Tb560 O582 2.399 . S
Tb561 O571 2.322 . S
Tb561 O572 2.349 . S
Tb561 O574 2.415 . S
Tb561 O575 2.399 . S
Tb561 O576 2.325 . S
Tb561 O579 2.303 . S
Tb561 C590 2.764 . S
C562 O578 1.261 . S
C562 O579 1.257 . S
C563 C566 1.358 . S
C563 C567 1.332 . S
C563 C569 1.504 . S
C564 C565 1.373 . S
C564 C568 1.308 . S
C565 C564 1.373 . S
C565 C566 1.429 . S
C565 H592 0.932 . S
C566 C563 1.358 . S
C566 C565 1.429 . S
C566 H593 0.930 . S
C567 C563 1.332 . S
C567 C568 1.394 . S
C567 H594 0.932 . S
C568 C564 1.308 . S
C568 C567 1.394 . S
C568 H595 0.929 . S
C569 Tb560 2.764 . S
C569 C563 1.504 . S
C569 O581 1.239 . S
C569 O582 1.263 . S
O570 Tb560 2.325 . S
O570 C580 1.236 . S
O571 Tb561 2.322 . S
O571 C580 1.257 . S
O572 Tb561 2.349 . S
O572 C583 1.261 . S
O573 Tb560 2.303 . S
O573 C583 1.257 . S
O574 Tb561 2.415 . S
O574 C590 1.239 . S
O575 Tb561 2.399 . S
O575 C590 1.263 . S
O576 Tb561 2.325 . S
O576 C591 1.236 . S
O577 Tb560 2.322 . S
O577 C591 1.257 . S
O578 Tb560 2.349 . S
O578 C562 1.261 . S
O579 Tb561 2.303 . S
O579 C562 1.257 . S
C580 O570 1.236 . S
C580 O571 1.257 . S
O581 Tb560 2.415 . S
O581 C569 1.239 . S
O582 Tb560 2.399 . S
O582 C569 1.263 . S
C583 O572 1.261 . S
C583 O573 1.257 . S
C584 C587 1.358 . S
C584 C588 1.332 . S
C584 C590 1.504 . S
C585 C586 1.373 . S
C585 C589 1.308 . S
C586 C585 1.373 . S
C586 C587 1.429 . S
C586 H596 0.932 . S
C587 C584 1.358 . S
C587 C586 1.429 . S
C587 H597 0.930 . S
C588 C584 1.332 . S
C588 C589 1.394 . S
C588 H598 0.932 . S
C589 C585 1.308 . S
C589 C588 1.394 . S
C589 H599 0.929 . S
C590 Tb561 2.764 . S
C590 O574 1.239 . S
C590 O575 1.263 . S
C590 C584 1.504 . S
C591 O576 1.236 . S
C591 O577 1.257 . S
H592 C565 0.932 . S
H593 C566 0.930 . S
H594 C567 0.932 . S
H595 C568 0.929 . S
H596 C586 0.932 . S
H597 C587 0.930 . S
H598 C588 0.932 . S
H599 C589 0.929 . S
Tb600 C609 2.764 . S
Tb600 O610 2.325 . S
Tb600 O613 2.303 . S
Tb600 O617 2.322 . S
Tb600 O618 2.349 . S
Tb600 O621 2.415 . S
Tb600 O622 2.399 . S
Tb601 O611 2.322 . S
Tb601 O612 2.349 . S
Tb601 O614 2.415 . S
Tb601 O615 2.399 . S
Tb601 O616 2.325 . S
Tb601 O619 2.303 . S
Tb601 C630 2.764 . S
C602 O618 1.261 . S
C602 O619 1.257 . S
C603 C606 1.358 1_545 S
C603 C607 1.332 1_545 S
C603 C609 1.504 . S
C604 C605 1.373 . S
C604 C608 1.308 . S
C605 C604 1.373 . S
C605 C606 1.429 . S
C605 H632 0.932 . S
C606 C603 1.358 1_565 S
C606 C605 1.429 . S
C606 H633 0.930 . S
C607 C603 1.332 1_565 S
C607 C608 1.394 . S
C607 H634 0.932 1_565 S
C608 C604 1.308 . S
C608 C607 1.394 . S
C608 H635 0.929 . S
C609 Tb600 2.764 . S
C609 C603 1.504 . S
C609 O621 1.239 . S
C609 O622 1.263 . S
O610 Tb600 2.325 . S
O610 C620 1.236 . S
O611 Tb601 2.322 . S
O611 C620 1.257 . S
O612 Tb601 2.349 . S
O612 C623 1.261 . S
O613 Tb600 2.303 . S
O613 C623 1.257 . S
O614 Tb601 2.415 . S
O614 C630 1.239 . S
O615 Tb601 2.399 . S
O615 C630 1.263 . S
O616 Tb601 2.325 . S
O616 C631 1.236 . S
O617 Tb600 2.322 . S
O617 C631 1.257 . S
O618 Tb600 2.349 . S
O618 C602 1.261 . S
O619 Tb601 2.303 . S
O619 C602 1.257 . S
C620 O610 1.236 . S
C620 O611 1.257 . S
O621 Tb600 2.415 . S
O621 C609 1.239 . S
O622 Tb600 2.399 . S
O622 C609 1.263 . S
C623 O612 1.261 . S
C623 O613 1.257 . S
C624 C627 1.358 . S
C624 C628 1.332 . S
C624 C630 1.504 . S
C625 C626 1.373 . S
C625 C629 1.308 . S
C626 C625 1.373 . S
C626 C627 1.429 . S
C626 H636 0.932 . S
C627 C624 1.358 . S
C627 C626 1.429 . S
C627 H637 0.930 . S
C628 C624 1.332 . S
C628 C629 1.394 . S
C628 H638 0.932 . S
C629 C625 1.308 . S
C629 C628 1.394 . S
C629 H639 0.929 . S
C630 Tb601 2.764 . S
C630 O614 1.239 . S
C630 O615 1.263 . S
C630 C624 1.504 . S
C631 O616 1.236 . S
C631 O617 1.257 . S
H632 C605 0.932 . S
H633 C606 0.930 . S
H634 C607 0.932 1_545 S
H635 C608 0.929 . S
H636 C626 0.932 . S
H637 C627 0.930 . S
H638 C628 0.932 . S
H639 C629 0.929 . S
Tb640 C649 2.764 . S
Tb640 O650 2.325 . S
Tb640 O653 2.303 . S
Tb640 O657 2.322 . S
Tb640 O658 2.349 . S
Tb640 O661 2.415 . S
Tb640 O662 2.399 . S
Tb641 O651 2.322 . S
Tb641 O652 2.349 . S
Tb641 O654 2.415 . S
Tb641 O655 2.399 . S
Tb641 O656 2.325 . S
Tb641 O659 2.303 . S
Tb641 C670 2.764 . S
C642 O658 1.261 . S
C642 O659 1.257 . S
C643 C646 1.358 . S
C643 C647 1.332 . S
C643 C649 1.504 1_455 S
C644 C645 1.373 . S
C644 C648 1.308 . S
C645 C644 1.373 . S
C645 C646 1.429 . S
C645 H672 0.932 . S
C646 C643 1.358 . S
C646 C645 1.429 . S
C646 H673 0.930 . S
C647 C643 1.332 . S
C647 C648 1.394 . S
C647 H674 0.932 . S
C648 C644 1.308 . S
C648 C647 1.394 . S
C648 H675 0.929 . S
C649 Tb640 2.764 . S
C649 C643 1.504 1_655 S
C649 O661 1.239 . S
C649 O662 1.263 . S
O650 Tb640 2.325 . S
O650 C660 1.236 . S
O651 Tb641 2.322 . S
O651 C660 1.257 . S
O652 Tb641 2.349 . S
O652 C663 1.261 . S
O653 Tb640 2.303 . S
O653 C663 1.257 . S
O654 Tb641 2.415 . S
O654 C670 1.239 . S
O655 Tb641 2.399 . S
O655 C670 1.263 . S
O656 Tb641 2.325 . S
O656 C671 1.236 . S
O657 Tb640 2.322 . S
O657 C671 1.257 . S
O658 Tb640 2.349 . S
O658 C642 1.261 . S
O659 Tb641 2.303 . S
O659 C642 1.257 . S
C660 O650 1.236 . S
C660 O651 1.257 . S
O661 Tb640 2.415 . S
O661 C649 1.239 . S
O662 Tb640 2.399 . S
O662 C649 1.263 . S
C663 O652 1.261 . S
C663 O653 1.257 . S
C664 C667 1.358 . S
C664 C668 1.332 . S
C664 C670 1.504 . S
C665 C666 1.373 . S
C665 C669 1.308 . S
C666 C665 1.373 . S
C666 C667 1.429 . S
C666 H676 0.932 . S
C667 C664 1.358 . S
C667 C666 1.429 . S
C667 H677 0.930 . S
C668 C664 1.332 . S
C668 C669 1.394 . S
C668 H678 0.932 . S
C669 C665 1.308 . S
C669 C668 1.394 . S
C669 H679 0.929 . S
C670 Tb641 2.764 . S
C670 O654 1.239 . S
C670 O655 1.263 . S
C670 C664 1.504 . S
C671 O656 1.236 . S
C671 O657 1.257 . S
H672 C645 0.932 . S
H673 C646 0.930 . S
H674 C647 0.932 . S
H675 C648 0.929 . S
H676 C666 0.932 . S
H677 C667 0.930 . S
H678 C668 0.932 . S
H679 C669 0.929 . S
Tb680 C689 2.764 . S
Tb680 O690 2.325 . S
Tb680 O693 2.303 . S
Tb680 O697 2.322 . S
Tb680 O698 2.349 . S
Tb680 O701 2.415 . S
Tb680 O702 2.399 . S
Tb681 O691 2.322 . S
Tb681 O692 2.349 . S
Tb681 O694 2.415 . S
Tb681 O695 2.399 . S
Tb681 O696 2.325 . S
Tb681 O699 2.303 . S
Tb681 C710 2.764 . S
C682 O698 1.261 . S
C682 O699 1.257 . S
C683 C686 1.358 . S
C683 C687 1.332 . S
C683 C689 1.504 . S
C684 C685 1.373 . S
C684 C688 1.308 . S
C685 C684 1.373 . S
C685 C686 1.429 . S
C685 H712 0.932 . S
C686 C683 1.358 . S
C686 C685 1.429 . S
C686 H713 0.930 . S
C687 C683 1.332 . S
C687 C688 1.394 . S
C687 H714 0.932 . S
C688 C684 1.308 . S
C688 C687 1.394 . S
C688 H715 0.929 . S
C689 Tb680 2.764 . S
C689 C683 1.504 . S
C689 O701 1.239 . S
C689 O702 1.263 . S
O690 Tb680 2.325 . S
O690 C700 1.236 . S
O691 Tb681 2.322 . S
O691 C700 1.257 . S
O692 Tb681 2.349 . S
O692 C703 1.261 . S
O693 Tb680 2.303 . S
O693 C703 1.257 . S
O694 Tb681 2.415 . S
O694 C710 1.239 . S
O695 Tb681 2.399 . S
O695 C710 1.263 . S
O696 Tb681 2.325 . S
O696 C711 1.236 . S
O697 Tb680 2.322 . S
O697 C711 1.257 . S
O698 Tb680 2.349 . S
O698 C682 1.261 . S
O699 Tb681 2.303 . S
O699 C682 1.257 . S
C700 O690 1.236 . S
C700 O691 1.257 . S
O701 Tb680 2.415 . S
O701 C689 1.239 . S
O702 Tb680 2.399 . S
O702 C689 1.263 . S
C703 O692 1.261 . S
C703 O693 1.257 . S
C704 C707 1.358 . S
C704 C708 1.332 . S
C704 C710 1.504 . S
C705 C706 1.373 . S
C705 C709 1.308 . S
C706 C705 1.373 . S
C706 C707 1.429 . S
C706 H716 0.932 . S
C707 C704 1.358 . S
C707 C706 1.429 . S
C707 H717 0.930 . S
C708 C704 1.332 . S
C708 C709 1.394 . S
C708 H718 0.932 . S
C709 C705 1.308 . S
C709 C708 1.394 . S
C709 H719 0.929 . S
C710 Tb681 2.764 . S
C710 O694 1.239 . S
C710 O695 1.263 . S
C710 C704 1.504 . S
C711 O696 1.236 . S
C711 O697 1.257 . S
H712 C685 0.932 . S
H713 C686 0.930 . S
H714 C687 0.932 . S
H715 C688 0.929 . S
H716 C706 0.932 . S
H717 C707 0.930 . S
H718 C708 0.932 . S
H719 C709 0.929 . S
H720 C726 0.930 . S
H721 C730 0.930 . S
H722 C735 0.929 . S
H723 C733 0.929 . S
H724 C728 0.929 . S
H725 C734 0.929 . S
C726 H720 0.930 . S
C726 C727 1.367 . S
C726 C734 1.378 . S
C727 C726 1.367 . S
C727 C735 1.433 . S
C728 H724 0.929 . S
C728 C730 1.378 . S
C728 C732 1.350 . S
C729 C732 1.463 . S
C729 C734 1.350 . S
C729 N737 1.427 . S
C730 H721 0.930 . S
C730 C728 1.378 . S
C730 C731 1.367 . S
C731 C730 1.367 . S
C731 C733 1.433 . S
C732 C728 1.350 . S
C732 C729 1.463 . S
C732 N736 1.427 . S
C733 H723 0.929 . S
C733 C731 1.433 . S
C733 N736 1.384 . S
C734 H725 0.929 . S
C734 C726 1.378 . S
C734 C729 1.350 . S
C735 H722 0.929 . S
C735 C727 1.433 . S
C735 N737 1.384 . S
N736 C732 1.427 . S
N736 C733 1.384 . S
N737 C729 1.427 . S
N737 C735 1.384 . S
H738 C744 0.930 . S
H739 C748 0.930 . S
H740 C753 0.929 . S
H741 C751 0.929 . S
H742 C746 0.929 . S
H743 C752 0.929 . S
C744 H738 0.930 . S
C744 C745 1.367 . S
C744 C752 1.378 . S
C745 C744 1.367 . S
C745 C753 1.433 . S
C746 H742 0.929 . S
C746 C748 1.378 . S
C746 C750 1.350 . S
C747 C750 1.463 . S
C747 C752 1.350 . S
C747 N755 1.427 . S
C748 H739 0.930 . S
C748 C746 1.378 . S
C748 C749 1.367 . S
C749 C748 1.367 . S
C749 C751 1.433 . S
C750 C746 1.350 . S
C750 C747 1.463 . S
C750 N754 1.427 . S
C751 H741 0.929 . S
C751 C749 1.433 . S
C751 N754 1.384 . S
C752 H743 0.929 . S
C752 C744 1.378 . S
C752 C747 1.350 . S
C753 H740 0.929 . S
C753 C745 1.433 . S
C753 N755 1.384 . S
N754 C750 1.427 . S
N754 C751 1.384 . S
N755 C747 1.427 . S
N755 C753 1.384 . S
H756 C762 0.930 . S
H757 C766 0.930 . S
H758 C771 0.929 . S
H759 C769 0.929 . S
H760 C764 0.929 . S
H761 C770 0.929 . S
C762 H756 0.930 . S
C762 C763 1.367 . S
C762 C770 1.378 . S
C763 C762 1.367 . S
C763 C771 1.433 . S
C764 H760 0.929 . S
C764 C766 1.378 . S
C764 C768 1.350 . S
C765 C768 1.463 . S
C765 C770 1.350 . S
C765 N773 1.427 . S
C766 H757 0.930 . S
C766 C764 1.378 . S
C766 C767 1.367 . S
C767 C766 1.367 . S
C767 C769 1.433 . S
C768 C764 1.350 . S
C768 C765 1.463 . S
C768 N772 1.427 . S
C769 H759 0.929 . S
C769 C767 1.433 . S
C769 N772 1.384 . S
C770 H761 0.929 . S
C770 C762 1.378 . S
C770 C765 1.350 . S
C771 H758 0.929 . S
C771 C763 1.433 . S
C771 N773 1.384 . S
N772 C768 1.427 . S
N772 C769 1.384 . S
N773 C765 1.427 . S
N773 C771 1.384 . S
H774 C780 0.930 . S
H775 C784 0.930 . S
H776 C789 0.929 . S
H777 C787 0.929 . S
H778 C782 0.929 . S
H779 C788 0.929 . S
C780 H774 0.930 . S
C780 C781 1.367 . S
C780 C788 1.378 . S
C781 C780 1.367 . S
C781 C789 1.433 . S
C782 H778 0.929 . S
C782 C784 1.378 . S
C782 C786 1.350 . S
C783 C786 1.463 . S
C783 C788 1.350 . S
C783 N791 1.427 . S
C784 H775 0.930 . S
C784 C782 1.378 . S
C784 C785 1.367 . S
C785 C784 1.367 . S
C785 C787 1.433 . S
C786 C782 1.350 . S
C786 C783 1.463 . S
C786 N790 1.427 . S
C787 H777 0.929 . S
C787 C785 1.433 . S
C787 N790 1.384 . S
C788 H779 0.929 . S
C788 C780 1.378 . S
C788 C783 1.350 . S
C789 H776 0.929 . S
C789 C781 1.433 . S
C789 N791 1.384 . S
N790 C786 1.427 . S
N790 C787 1.384 . S
N791 C783 1.427 . S
N791 C789 1.384 . S
H792 C798 0.930 . S
H793 C802 0.930 . S
H794 C807 0.929 . S
H795 C805 0.929 . S
H796 C800 0.929 . S
H797 C806 0.929 . S
C798 H792 0.930 . S
C798 C799 1.367 . S
C798 C806 1.378 . S
C799 C798 1.367 . S
C799 C807 1.433 . S
C800 H796 0.929 . S
C800 C802 1.378 . S
C800 C804 1.350 . S
C801 C804 1.463 . S
C801 C806 1.350 . S
C801 N809 1.427 . S
C802 H793 0.930 . S
C802 C800 1.378 . S
C802 C803 1.367 . S
C803 C802 1.367 . S
C803 C805 1.433 . S
C804 C800 1.350 . S
C804 C801 1.463 . S
C804 N808 1.427 . S
C805 H795 0.929 . S
C805 C803 1.433 . S
C805 N808 1.384 . S
C806 H797 0.929 . S
C806 C798 1.378 . S
C806 C801 1.350 . S
C807 H794 0.929 . S
C807 C799 1.433 . S
C807 N809 1.384 . S
N808 C804 1.427 . S
N808 C805 1.384 . S
N809 C801 1.427 . S
N809 C807 1.384 . S
H810 C816 0.930 . S
H811 C820 0.930 . S
H812 C825 0.929 . S
H813 C823 0.929 . S
H814 C818 0.929 . S
H815 C824 0.929 . S
C816 H810 0.930 . S
C816 C817 1.367 . S
C816 C824 1.378 . S
C817 C816 1.367 . S
C817 C825 1.433 . S
C818 H814 0.929 . S
C818 C820 1.378 . S
C818 C822 1.350 . S
C819 C822 1.463 . S
C819 C824 1.350 . S
C819 N827 1.427 . S
C820 H811 0.930 . S
C820 C818 1.378 . S
C820 C821 1.367 . S
C821 C820 1.367 . S
C821 C823 1.433 . S
C822 C818 1.350 . S
C822 C819 1.463 . S
C822 N826 1.427 . S
C823 H813 0.929 . S
C823 C821 1.433 . S
C823 N826 1.384 . S
C824 H815 0.929 . S
C824 C816 1.378 . S
C824 C819 1.350 . S
C825 H812 0.929 . S
C825 C817 1.433 . S
C825 N827 1.384 . S
N826 C822 1.427 . S
N826 C823 1.384 . S
N827 C819 1.427 . S
N827 C825 1.384 . S
H828 C834 0.930 . S
H829 C838 0.930 . S
H830 C843 0.929 . S
H831 C841 0.929 . S
H832 C836 0.929 . S
H833 C842 0.929 . S
C834 H828 0.930 . S
C834 C835 1.367 . S
C834 C842 1.378 . S
C835 C834 1.367 . S
C835 C843 1.433 . S
C836 H832 0.929 . S
C836 C838 1.378 . S
C836 C840 1.350 . S
C837 C840 1.463 . S
C837 C842 1.350 . S
C837 N845 1.427 . S
C838 H829 0.930 . S
C838 C836 1.378 . S
C838 C839 1.367 . S
C839 C838 1.367 . S
C839 C841 1.433 . S
C840 C836 1.350 . S
C840 C837 1.463 . S
C840 N844 1.427 . S
C841 H831 0.929 . S
C841 C839 1.433 . S
C841 N844 1.384 . S
C842 H833 0.929 . S
C842 C834 1.378 . S
C842 C837 1.350 . S
C843 H830 0.929 . S
C843 C835 1.433 . S
C843 N845 1.384 . S
N844 C840 1.427 . S
N844 C841 1.384 . S
N845 C837 1.427 . S
N845 C843 1.384 . S
H846 C852 0.930 . S
H847 C856 0.930 . S
H848 C861 0.929 . S
H849 C859 0.929 . S
H850 C854 0.929 . S
H851 C860 0.929 . S
C852 H846 0.930 . S
C852 C853 1.367 . S
C852 C860 1.378 . S
C853 C852 1.367 . S
C853 C861 1.433 . S
C854 H850 0.929 . S
C854 C856 1.378 . S
C854 C858 1.350 . S
C855 C858 1.463 1_545 S
C855 C860 1.350 . S
C855 N863 1.427 . S
C856 H847 0.930 . S
C856 C854 1.378 . S
C856 C857 1.367 . S
C857 C856 1.367 . S
C857 C859 1.433 . S
C858 C854 1.350 . S
C858 C855 1.463 1_565 S
C858 N862 1.427 . S
C859 H849 0.929 . S
C859 C857 1.433 . S
C859 N862 1.384 . S
C860 H851 0.929 . S
C860 C852 1.378 . S
C860 C855 1.350 . S
C861 H848 0.929 . S
C861 C853 1.433 . S
C861 N863 1.384 . S
N862 C858 1.427 . S
N862 C859 1.384 . S
N863 C855 1.427 . S
N863 C861 1.384 . S
H864 C870 0.930 . S
H865 C874 0.930 . S
H866 C879 0.929 . S
H867 C877 0.929 . S
H868 C872 0.929 . S
H869 C878 0.929 . S
C870 H864 0.930 . S
C870 C871 1.367 . S
C870 C878 1.378 . S
C871 C870 1.367 . S
C871 C879 1.433 . S
C872 H868 0.929 . S
C872 C874 1.378 . S
C872 C876 1.350 1_655 S
C873 C876 1.463 . S
C873 C878 1.350 . S
C873 N881 1.427 . S
C874 H865 0.930 . S
C874 C872 1.378 . S
C874 C875 1.367 . S
C875 C874 1.367 . S
C875 C877 1.433 . S
C876 C872 1.350 1_455 S
C876 C873 1.463 . S
C876 N880 1.427 1_455 S
C877 H867 0.929 . S
C877 C875 1.433 . S
C877 N880 1.384 . S
C878 H869 0.929 . S
C878 C870 1.378 . S
C878 C873 1.350 . S
C879 H866 0.929 . S
C879 C871 1.433 . S
C879 N881 1.384 . S
N880 C876 1.427 1_655 S
N880 C877 1.384 . S
N881 C873 1.427 . S
N881 C879 1.384 . S
H882 C888 0.930 . S
H883 C892 0.930 . S
H884 C897 0.929 . S
H885 C895 0.929 . S
H886 C890 0.929 . S
H887 C896 0.929 . S
C888 H882 0.930 . S
C888 C889 1.367 . S
C888 C896 1.378 . S
C889 C888 1.367 . S
C889 C897 1.433 . S
C890 H886 0.929 . S
C890 C892 1.378 . S
C890 C894 1.350 . S
C891 C894 1.463 . S
C891 C896 1.350 . S
C891 N899 1.427 . S
C892 H883 0.930 . S
C892 C890 1.378 . S
C892 C893 1.367 . S
C893 C892 1.367 . S
C893 C895 1.433 . S
C894 C890 1.350 . S
C894 C891 1.463 . S
C894 N898 1.427 . S
C895 H885 0.929 . S
C895 C893 1.433 . S
C895 N898 1.384 . S
C896 H887 0.929 . S
C896 C888 1.378 . S
C896 C891 1.350 . S
C897 H884 0.929 . S
C897 C889 1.433 . S
C897 N899 1.384 . S
N898 C894 1.427 . S
N898 C895 1.384 . S
N899 C891 1.427 . S
N899 C897 1.384 . S
H900 C906 0.930 . S
H901 C910 0.930 . S
H902 C915 0.929 . S
H903 C913 0.929 . S
H904 C908 0.929 . S
H905 C914 0.929 . S
C906 H900 0.930 . S
C906 C907 1.367 . S
C906 C914 1.378 . S
C907 C906 1.367 . S
C907 C915 1.433 . S
C908 H904 0.929 . S
C908 C910 1.378 . S
C908 C912 1.350 . S
C909 C912 1.463 . S
C909 C914 1.350 . S
C909 N917 1.427 . S
C910 H901 0.930 . S
C910 C908 1.378 . S
C910 C911 1.367 . S
C911 C910 1.367 . S
C911 C913 1.433 . S
C912 C908 1.350 . S
C912 C909 1.463 . S
C912 N916 1.427 . S
C913 H903 0.929 . S
C913 C911 1.433 . S
C913 N916 1.384 . S
C914 H905 0.929 . S
C914 C906 1.378 . S
C914 C909 1.350 . S
C915 H902 0.929 . S
C915 C907 1.433 . S
C915 N917 1.384 . S
N916 C912 1.427 . S
N916 C913 1.384 . S
N917 C909 1.427 . S
N917 C915 1.384 . S
H918 C924 0.930 . S
H919 C928 0.930 . S
H920 C933 0.929 . S
H921 C931 0.929 . S
H922 C926 0.929 . S
H923 C932 0.929 . S
C924 H918 0.930 . S
C924 C925 1.367 . S
C924 C932 1.378 . S
C925 C924 1.367 . S
C925 C933 1.433 . S
C926 H922 0.929 . S
C926 C928 1.378 . S
C926 C930 1.350 . S
C927 C930 1.463 . S
C927 C932 1.350 . S
C927 N935 1.427 . S
C928 H919 0.930 . S
C928 C926 1.378 . S
C928 C929 1.367 . S
C929 C928 1.367 . S
C929 C931 1.433 . S
C930 C926 1.350 . S
C930 C927 1.463 . S
C930 N934 1.427 . S
C931 H921 0.929 . S
C931 C929 1.433 . S
C931 N934 1.384 . S
C932 H923 0.929 . S
C932 C924 1.378 . S
C932 C927 1.350 . S
C933 H920 0.929 . S
C933 C925 1.433 . S
C933 N935 1.384 . S
N934 C930 1.427 . S
N934 C931 1.384 . S
N935 C927 1.427 . S
N935 C933 1.384 . S
H936 C942 0.930 . S
H937 C946 0.930 . S
H938 C951 0.929 . S
H939 C949 0.929 . S
H940 C944 0.929 . S
H941 C950 0.929 . S
C942 H936 0.930 . S
C942 C943 1.367 . S
C942 C950 1.378 . S
C943 C942 1.367 . S
C943 C951 1.433 . S
C944 H940 0.929 . S
C944 C946 1.378 . S
C944 C948 1.350 . S
C945 C948 1.463 . S
C945 C950 1.350 . S
C945 N953 1.427 . S
C946 H937 0.930 . S
C946 C944 1.378 . S
C946 C947 1.367 . S
C947 C946 1.367 . S
C947 C949 1.433 . S
C948 C944 1.350 . S
C948 C945 1.463 . S
C948 N952 1.427 . S
C949 H939 0.929 . S
C949 C947 1.433 . S
C949 N952 1.384 . S
C950 H941 0.929 . S
C950 C942 1.378 . S
C950 C945 1.350 . S
C951 H938 0.929 . S
C951 C943 1.433 . S
C951 N953 1.384 . S
N952 C948 1.427 . S
N952 C949 1.384 . S
N953 C945 1.427 . S
N953 C951 1.384 . S
H954 C960 0.930 . S
H955 C964 0.930 . S
H956 C969 0.929 . S
H957 C967 0.929 . S
H958 C962 0.929 . S
H959 C968 0.929 . S
C960 H954 0.930 . S
C960 C961 1.367 . S
C960 C968 1.378 . S
C961 C960 1.367 . S
C961 C969 1.433 . S
C962 H958 0.929 . S
C962 C964 1.378 . S
C962 C966 1.350 . S
C963 C966 1.463 . S
C963 C968 1.350 . S
C963 N971 1.427 . S
C964 H955 0.930 . S
C964 C962 1.378 . S
C964 C965 1.367 . S
C965 C964 1.367 . S
C965 C967 1.433 . S
C966 C962 1.350 . S
C966 C963 1.463 . S
C966 N970 1.427 . S
C967 H957 0.929 . S
C967 C965 1.433 . S
C967 N970 1.384 . S
C968 H959 0.929 . S
C968 C960 1.378 . S
C968 C963 1.350 . S
C969 H956 0.929 . S
C969 C961 1.433 . S
C969 N971 1.384 . S
N970 C966 1.427 . S
N970 C967 1.384 . S
N971 C963 1.427 . S
N971 C969 1.384 . S
H972 C978 0.930 . S
H973 C982 0.930 . S
H974 C987 0.929 . S
H975 C985 0.929 . S
H976 C980 0.929 . S
H977 C986 0.929 . S
C978 H972 0.930 . S
C978 C979 1.367 . S
C978 C986 1.378 . S
C979 C978 1.367 . S
C979 C987 1.433 . S
C980 H976 0.929 . S
C980 C982 1.378 . S
C980 C984 1.350 . S
C981 C984 1.463 . S
C981 C986 1.350 . S
C981 N989 1.427 . S
C982 H973 0.930 . S
C982 C980 1.378 . S
C982 C983 1.367 . S
C983 C982 1.367 . S
C983 C985 1.433 . S
C984 C980 1.350 . S
C984 C981 1.463 . S
C984 N988 1.427 . S
C985 H975 0.929 . S
C985 C983 1.433 . S
C985 N988 1.384 . S
C986 H977 0.929 . S
C986 C978 1.378 . S
C986 C981 1.350 . S
C987 H974 0.929 . S
C987 C979 1.433 . S
C987 N989 1.384 . S
N988 C984 1.427 . S
N988 C985 1.384 . S
N989 C981 1.427 . S
N989 C987 1.384 . S
H990 C996 0.930 . S
H991 C1000 0.930 . S
H992 C1005 0.929 . S
H993 C1003 0.929 . S
H994 C998 0.929 . S
H995 C1004 0.929 . S
C996 H990 0.930 . S
C996 C997 1.367 . S
C996 C1004 1.378 . S
C997 C996 1.367 . S
C997 C1005 1.433 . S
C998 H994 0.929 . S
C998 C1000 1.378 . S
C998 C1002 1.350 . S
C999 C1002 1.463 . S
C999 C1004 1.350 . S
C999 N1007 1.427 . S
C1000 H991 0.930 . S
C1000 C998 1.378 . S
C1000 C1001 1.367 . S
C1001 C1000 1.367 . S
C1001 C1003 1.433 . S
C1002 C998 1.350 . S
C1002 C999 1.463 . S
C1002 N1006 1.427 . S
C1003 H993 0.929 . S
C1003 C1001 1.433 . S
C1003 N1006 1.384 . S
C1004 H995 0.929 . S
C1004 C996 1.378 . S
C1004 C999 1.350 . S
C1005 H992 0.929 . S
C1005 C997 1.433 . S
C1005 N1007 1.384 . S
N1006 C1002 1.427 . S
N1006 C1003 1.384 . S
N1007 C999 1.427 . S
N1007 C1005 1.384 . S
H1008 C1014 0.930 . S
H1009 C1018 0.930 . S
H1010 C1023 0.929 . S
H1011 C1021 0.929 . S
H1012 C1016 0.929 . S
H1013 C1022 0.929 1_545 S
C1014 H1008 0.930 . S
C1014 C1015 1.367 . S
C1014 C1022 1.378 . S
C1015 C1014 1.367 . S
C1015 C1023 1.433 . S
C1016 H1012 0.929 . S
C1016 C1018 1.378 . S
C1016 C1020 1.350 . S
C1017 C1020 1.463 . S
C1017 C1022 1.350 1_545 S
C1017 N1025 1.427 1_545 S
C1018 H1009 0.930 . S
C1018 C1016 1.378 . S
C1018 C1019 1.367 . S
C1019 C1018 1.367 . S
C1019 C1021 1.433 . S
C1020 C1016 1.350 . S
C1020 C1017 1.463 . S
C1020 N1024 1.427 . S
C1021 H1011 0.929 . S
C1021 C1019 1.433 . S
C1021 N1024 1.384 . S
C1022 H1013 0.929 1_565 S
C1022 C1014 1.378 . S
C1022 C1017 1.350 1_565 S
C1023 H1010 0.929 . S
C1023 C1015 1.433 . S
C1023 N1025 1.384 . S
N1024 C1020 1.427 . S
N1024 C1021 1.384 . S
N1025 C1017 1.427 1_565 S
N1025 C1023 1.384 . S
H1026 C1032 0.930 . S
H1027 C1036 0.930 . S
H1028 C1041 0.929 . S
H1029 C1039 0.929 . S
H1030 C1034 0.929 . S
H1031 C1040 0.929 . S
C1032 H1026 0.930 . S
C1032 C1033 1.367 . S
C1032 C1040 1.378 . S
C1033 C1032 1.367 . S
C1033 C1041 1.433 . S
C1034 H1030 0.929 . S
C1034 C1036 1.378 . S
C1034 C1038 1.350 . S
C1035 C1038 1.463 1_455 S
C1035 C1040 1.350 . S
C1035 N1043 1.427 . S
C1036 H1027 0.930 . S
C1036 C1034 1.378 . S
C1036 C1037 1.367 . S
C1037 C1036 1.367 . S
C1037 C1039 1.433 . S
C1038 C1034 1.350 . S
C1038 C1035 1.463 1_655 S
C1038 N1042 1.427 . S
C1039 H1029 0.929 . S
C1039 C1037 1.433 . S
C1039 N1042 1.384 . S
C1040 H1031 0.929 . S
C1040 C1032 1.378 . S
C1040 C1035 1.350 . S
C1041 H1028 0.929 . S
C1041 C1033 1.433 . S
C1041 N1043 1.384 . S
N1042 C1038 1.427 . S
N1042 C1039 1.384 . S
N1043 C1035 1.427 . S
N1043 C1041 1.384 . S
H1044 C1050 0.930 . S
H1045 C1054 0.930 . S
H1046 C1059 0.929 . S
H1047 C1057 0.929 . S
H1048 C1052 0.929 . S
H1049 C1058 0.929 . S
C1050 H1044 0.930 . S
C1050 C1051 1.367 . S
C1050 C1058 1.378 . S
C1051 C1050 1.367 . S
C1051 C1059 1.433 . S
C1052 H1048 0.929 . S
C1052 C1054 1.378 . S
C1052 C1056 1.350 . S
C1053 C1056 1.463 1_554 S
C1053 C1058 1.350 . S
C1053 N1061 1.427 . S
C1054 H1045 0.930 . S
C1054 C1052 1.378 . S
C1054 C1055 1.367 . S
C1055 C1054 1.367 . S
C1055 C1057 1.433 . S
C1056 C1052 1.350 . S
C1056 C1053 1.463 1_556 S
C1056 N1060 1.427 . S
C1057 H1047 0.929 . S
C1057 C1055 1.433 . S
C1057 N1060 1.384 . S
C1058 H1049 0.929 . S
C1058 C1050 1.378 . S
C1058 C1053 1.350 . S
C1059 H1046 0.929 . S
C1059 C1051 1.433 . S
C1059 N1061 1.384 . S
N1060 C1056 1.427 . S
N1060 C1057 1.384 . S
N1061 C1053 1.427 . S
N1061 C1059 1.384 . S
H1062 C1068 0.930 1_655 S
H1063 C1072 0.930 . S
H1064 C1077 0.929 . S
H1065 C1075 0.930 1_655 S
H1066 C1070 0.929 . S
H1067 C1076 0.929 1_655 S
C1068 H1062 0.930 1_455 S
C1068 C1069 1.367 . S
C1068 C1076 1.378 . S
C1069 C1068 1.367 . S
C1069 C1077 1.433 . S
C1070 H1066 0.929 . S
C1070 C1072 1.378 . S
C1070 C1074 1.350 . S
C1071 C1074 1.463 1_556 S
C1071 C1076 1.350 . S
C1071 N1079 1.427 . S
C1072 H1063 0.930 . S
C1072 C1070 1.378 . S
C1072 C1073 1.367 . S
C1073 C1072 1.367 . S
C1073 C1075 1.433 . S
C1074 C1070 1.350 . S
C1074 C1071 1.463 1_554 S
C1074 N1078 1.427 . S
C1075 H1065 0.930 1_455 S
C1075 C1073 1.433 . S
C1075 N1078 1.384 . S
C1076 H1067 0.929 1_455 S
C1076 C1068 1.378 . S
C1076 C1071 1.350 . S
C1077 H1064 0.929 . S
C1077 C1069 1.433 . S
C1077 N1079 1.384 . S
N1078 C1074 1.427 . S
N1078 C1075 1.384 . S
N1079 C1071 1.427 . S
N1079 C1077 1.384 . S
H1080 C1086 0.930 . S
H1081 C1090 0.930 . S
H1082 C1095 0.929 . S
H1083 C1093 0.929 . S
H1084 C1088 0.929 . S
H1085 C1094 0.929 . S
C1086 H1080 0.930 . S
C1086 C1087 1.367 . S
C1086 C1094 1.378 . S
C1087 C1086 1.367 . S
C1087 C1095 1.433 . S
C1088 H1084 0.929 . S
C1088 C1090 1.378 . S
C1088 C1092 1.350 . S
C1089 C1092 1.463 1_556 S
C1089 C1094 1.350 . S
C1089 N1097 1.427 . S
C1090 H1081 0.930 . S
C1090 C1088 1.378 . S
C1090 C1091 1.367 . S
C1091 C1090 1.367 . S
C1091 C1093 1.433 . S
C1092 C1088 1.350 . S
C1092 C1089 1.463 1_554 S
C1092 N1096 1.427 . S
C1093 H1083 0.929 . S
C1093 C1091 1.433 . S
C1093 N1096 1.384 . S
C1094 H1085 0.929 . S
C1094 C1086 1.378 . S
C1094 C1089 1.350 . S
C1095 H1082 0.929 . S
C1095 C1087 1.433 . S
C1095 N1097 1.384 . S
N1096 C1092 1.427 . S
N1096 C1093 1.384 . S
N1097 C1089 1.427 . S
N1097 C1095 1.384 . S
H1098 C1104 0.930 . S
H1099 C1108 0.930 . S
H1100 C1113 0.929 . S
H1101 C1111 0.929 . S
H1102 C1106 0.929 . S
H1103 C1112 0.929 . S
C1104 H1098 0.930 . S
C1104 C1105 1.367 . S
C1104 C1112 1.378 . S
C1105 C1104 1.367 . S
C1105 C1113 1.433 . S
C1106 H1102 0.929 . S
C1106 C1108 1.378 . S
C1106 C1110 1.350 . S
C1107 C1110 1.463 . S
C1107 C1112 1.350 . S
C1107 N1115 1.427 . S
C1108 H1099 0.930 . S
C1108 C1106 1.378 . S
C1108 C1109 1.367 . S
C1109 C1108 1.367 . S
C1109 C1111 1.433 . S
C1110 C1106 1.350 . S
C1110 C1107 1.463 . S
C1110 N1114 1.427 . S
C1111 H1101 0.929 . S
C1111 C1109 1.433 . S
C1111 N1114 1.384 . S
C1112 H1103 0.929 . S
C1112 C1104 1.378 . S
C1112 C1107 1.350 . S
C1113 H1100 0.929 . S
C1113 C1105 1.433 . S
C1113 N1115 1.384 . S
N1114 C1110 1.427 . S
N1114 C1111 1.384 . S
N1115 C1107 1.427 . S
N1115 C1113 1.384 . S
H1116 C1122 0.930 . S
H1117 C1126 0.930 . S
H1118 C1131 0.929 . S
H1119 C1129 0.929 . S
H1120 C1124 0.929 . S
H1121 C1130 0.929 . S
C1122 H1116 0.930 . S
C1122 C1123 1.367 . S
C1122 C1130 1.378 . S
C1123 C1122 1.367 . S
C1123 C1131 1.433 . S
C1124 H1120 0.929 . S
C1124 C1126 1.378 . S
C1124 C1128 1.350 . S
C1125 C1128 1.463 . S
C1125 C1130 1.350 . S
C1125 N1133 1.427 . S
C1126 H1117 0.930 . S
C1126 C1124 1.378 . S
C1126 C1127 1.367 . S
C1127 C1126 1.367 . S
C1127 C1129 1.433 . S
C1128 C1124 1.350 . S
C1128 C1125 1.463 . S
C1128 N1132 1.427 . S
C1129 H1119 0.929 . S
C1129 C1127 1.433 . S
C1129 N1132 1.384 . S
C1130 H1121 0.929 . S
C1130 C1122 1.378 . S
C1130 C1125 1.350 . S
C1131 H1118 0.929 . S
C1131 C1123 1.433 . S
C1131 N1133 1.384 . S
N1132 C1128 1.427 . S
N1132 C1129 1.384 . S
N1133 C1125 1.427 . S
N1133 C1131 1.384 . S
H1134 C1140 0.930 . S
H1135 C1144 0.930 . S
H1136 C1149 0.929 . S
H1137 C1147 0.929 . S
H1138 C1142 0.929 . S
H1139 C1148 0.929 . S
C1140 H1134 0.930 . S
C1140 C1141 1.367 . S
C1140 C1148 1.378 . S
C1141 C1140 1.367 . S
C1141 C1149 1.433 . S
C1142 H1138 0.929 . S
C1142 C1144 1.378 . S
C1142 C1146 1.350 . S
C1143 C1146 1.463 . S
C1143 C1148 1.350 . S
C1143 N1151 1.427 . S
C1144 H1135 0.930 . S
C1144 C1142 1.378 . S
C1144 C1145 1.367 . S
C1145 C1144 1.367 . S
C1145 C1147 1.433 . S
C1146 C1142 1.350 . S
C1146 C1143 1.463 . S
C1146 N1150 1.427 . S
C1147 H1137 0.929 . S
C1147 C1145 1.433 . S
C1147 N1150 1.384 . S
C1148 H1139 0.929 . S
C1148 C1140 1.378 . S
C1148 C1143 1.350 . S
C1149 H1136 0.929 . S
C1149 C1141 1.433 . S
C1149 N1151 1.384 . S
N1150 C1146 1.427 . S
N1150 C1147 1.384 . S
N1151 C1143 1.427 . S
N1151 C1149 1.384 . S
H1152 C1158 0.930 . S
H1153 C1162 0.930 . S
H1154 C1167 0.929 . S
H1155 C1165 0.929 . S
H1156 C1160 0.929 . S
H1157 C1166 0.929 . S
C1158 H1152 0.930 . S
C1158 C1159 1.367 . S
C1158 C1166 1.378 . S
C1159 C1158 1.367 . S
C1159 C1167 1.433 . S
C1160 H1156 0.929 . S
C1160 C1162 1.378 . S
C1160 C1164 1.350 . S
C1161 C1164 1.463 . S
C1161 C1166 1.350 . S
C1161 N1169 1.427 . S
C1162 H1153 0.930 . S
C1162 C1160 1.378 . S
C1162 C1163 1.367 . S
C1163 C1162 1.367 . S
C1163 C1165 1.433 . S
C1164 C1160 1.350 . S
C1164 C1161 1.463 . S
C1164 N1168 1.427 . S
C1165 H1155 0.929 . S
C1165 C1163 1.433 . S
C1165 N1168 1.384 . S
C1166 H1157 0.929 . S
C1166 C1158 1.378 . S
C1166 C1161 1.350 . S
C1167 H1154 0.929 . S
C1167 C1159 1.433 . S
C1167 N1169 1.384 . S
N1168 C1164 1.427 . S
N1168 C1165 1.384 . S
N1169 C1161 1.427 . S
N1169 C1167 1.384 . S
H1170 C1176 0.930 . S
H1171 C1180 0.930 . S
H1172 C1185 0.929 . S
H1173 C1183 0.929 . S
H1174 C1178 0.929 . S
H1175 C1184 0.929 . S
C1176 H1170 0.930 . S
C1176 C1177 1.367 . S
C1176 C1184 1.378 . S
C1177 C1176 1.367 . S
C1177 C1185 1.433 . S
C1178 H1174 0.929 . S
C1178 C1180 1.378 . S
C1178 C1182 1.350 . S
C1179 C1182 1.463 . S
C1179 C1184 1.350 . S
C1179 N1187 1.427 . S
C1180 H1171 0.930 . S
C1180 C1178 1.378 . S
C1180 C1181 1.367 . S
C1181 C1180 1.367 . S
C1181 C1183 1.433 . S
C1182 C1178 1.350 . S
C1182 C1179 1.463 . S
C1182 N1186 1.427 . S
C1183 H1173 0.929 . S
C1183 C1181 1.433 . S
C1183 N1186 1.384 . S
C1184 H1175 0.929 . S
C1184 C1176 1.378 . S
C1184 C1179 1.350 . S
C1185 H1172 0.929 . S
C1185 C1177 1.433 . S
C1185 N1187 1.384 . S
N1186 C1182 1.427 . S
N1186 C1183 1.384 . S
N1187 C1179 1.427 . S
N1187 C1185 1.384 . S
H1188 C1194 0.930 . S
H1189 C1198 0.930 . S
H1190 C1203 0.929 . S
H1191 C1201 0.929 . S
H1192 C1196 0.929 . S
H1193 C1202 0.929 . S
C1194 H1188 0.930 . S
C1194 C1195 1.367 . S
C1194 C1202 1.378 . S
C1195 C1194 1.367 . S
C1195 C1203 1.433 . S
C1196 H1192 0.929 . S
C1196 C1198 1.378 . S
C1196 C1200 1.350 . S
C1197 C1200 1.463 . S
C1197 C1202 1.350 . S
C1197 N1205 1.427 . S
C1198 H1189 0.930 . S
C1198 C1196 1.378 . S
C1198 C1199 1.367 . S
C1199 C1198 1.367 . S
C1199 C1201 1.433 . S
C1200 C1196 1.350 . S
C1200 C1197 1.463 . S
C1200 N1204 1.427 . S
C1201 H1191 0.929 . S
C1201 C1199 1.433 . S
C1201 N1204 1.384 . S
C1202 H1193 0.929 . S
C1202 C1194 1.378 . S
C1202 C1197 1.350 . S
C1203 H1190 0.929 . S
C1203 C1195 1.433 . S
C1203 N1205 1.384 . S
N1204 C1200 1.427 . S
N1204 C1201 1.384 . S
N1205 C1197 1.427 . S
N1205 C1203 1.384 . S
H1206 C1212 0.930 . S
H1207 C1216 0.930 . S
H1208 C1221 0.929 . S
H1209 C1219 0.929 . S
H1210 C1214 0.929 . S
H1211 C1220 0.929 . S
C1212 H1206 0.930 . S
C1212 C1213 1.367 . S
C1212 C1220 1.378 . S
C1213 C1212 1.367 . S
C1213 C1221 1.433 . S
C1214 H1210 0.929 . S
C1214 C1216 1.378 . S
C1214 C1218 1.350 . S
C1215 C1218 1.463 . S
C1215 C1220 1.350 . S
C1215 N1223 1.427 . S
C1216 H1207 0.930 . S
C1216 C1214 1.378 . S
C1216 C1217 1.367 . S
C1217 C1216 1.367 . S
C1217 C1219 1.433 . S
C1218 C1214 1.350 . S
C1218 C1215 1.463 . S
C1218 N1222 1.427 . S
C1219 H1209 0.929 . S
C1219 C1217 1.433 . S
C1219 N1222 1.384 . S
C1220 H1211 0.929 . S
C1220 C1212 1.378 . S
C1220 C1215 1.350 . S
C1221 H1208 0.929 . S
C1221 C1213 1.433 . S
C1221 N1223 1.384 . S
N1222 C1218 1.427 . S
N1222 C1219 1.384 . S
N1223 C1215 1.427 . S
N1223 C1221 1.384 . S
H1224 C1230 0.930 . S
H1225 C1234 0.930 . S
H1226 C1239 0.929 . S
H1227 C1237 0.929 . S
H1228 C1232 0.929 . S
H1229 C1238 0.929 . S
C1230 H1224 0.930 . S
C1230 C1231 1.367 . S
C1230 C1238 1.378 . S
C1231 C1230 1.367 . S
C1231 C1239 1.433 . S
C1232 H1228 0.929 . S
C1232 C1234 1.378 . S
C1232 C1236 1.350 . S
C1233 C1236 1.463 . S
C1233 C1238 1.350 . S
C1233 N1241 1.427 . S
C1234 H1225 0.930 . S
C1234 C1232 1.378 . S
C1234 C1235 1.367 . S
C1235 C1234 1.367 . S
C1235 C1237 1.433 . S
C1236 C1232 1.350 . S
C1236 C1233 1.463 . S
C1236 N1240 1.427 . S
C1237 H1227 0.929 . S
C1237 C1235 1.433 . S
C1237 N1240 1.384 . S
C1238 H1229 0.929 . S
C1238 C1230 1.378 . S
C1238 C1233 1.350 . S
C1239 H1226 0.929 . S
C1239 C1231 1.433 . S
C1239 N1241 1.384 . S
N1240 C1236 1.427 . S
N1240 C1237 1.384 . S
N1241 C1233 1.427 . S
N1241 C1239 1.384 . S
H1242 C1248 0.930 . S
H1243 C1252 0.930 . S
H1244 C1257 0.929 . S
H1245 C1255 0.929 . S
H1246 C1250 0.929 . S
H1247 C1256 0.929 . S
C1248 H1242 0.930 . S
C1248 C1249 1.367 . S
C1248 C1256 1.378 . S
C1249 C1248 1.367 . S
C1249 C1257 1.433 . S
C1250 H1246 0.929 . S
C1250 C1252 1.378 . S
C1250 C1254 1.350 . S
C1251 C1254 1.463 . S
C1251 C1256 1.350 . S
C1251 N1259 1.427 . S
C1252 H1243 0.930 . S
C1252 C1250 1.378 . S
C1252 C1253 1.367 . S
C1253 C1252 1.367 . S
C1253 C1255 1.433 . S
C1254 C1250 1.350 . S
C1254 C1251 1.463 . S
C1254 N1258 1.427 . S
C1255 H1245 0.929 . S
C1255 C1253 1.433 . S
C1255 N1258 1.384 . S
C1256 H1247 0.929 . S
C1256 C1248 1.378 . S
C1256 C1251 1.350 . S
C1257 H1244 0.929 . S
C1257 C1249 1.433 . S
C1257 N1259 1.384 . S
N1258 C1254 1.427 . S
N1258 C1255 1.384 . S
N1259 C1251 1.427 . S
N1259 C1257 1.384 . S
H1260 C1266 0.930 1_455 S
H1261 C1270 0.930 . S
H1262 C1275 0.929 . S
H1263 C1273 0.929 . S
H1264 C1268 0.929 . S
H1265 C1274 0.929 . S
C1266 H1260 0.930 1_655 S
C1266 C1267 1.367 . S
C1266 C1274 1.378 . S
C1267 C1266 1.367 . S
C1267 C1275 1.433 . S
C1268 H1264 0.929 . S
C1268 C1270 1.378 . S
C1268 C1272 1.350 . S
C1269 C1272 1.463 . S
C1269 C1274 1.350 . S
C1269 N1277 1.427 . S
C1270 H1261 0.930 . S
C1270 C1268 1.378 . S
C1270 C1271 1.367 . S
C1271 C1270 1.367 . S
C1271 C1273 1.433 . S
C1272 C1268 1.350 . S
C1272 C1269 1.463 . S
C1272 N1276 1.427 . S
C1273 H1263 0.929 . S
C1273 C1271 1.433 . S
C1273 N1276 1.384 . S
C1274 H1265 0.929 . S
C1274 C1266 1.378 . S
C1274 C1269 1.350 . S
C1275 H1262 0.929 . S
C1275 C1267 1.433 . S
C1275 N1277 1.384 . S
N1276 C1272 1.427 . S
N1276 C1273 1.384 . S
N1277 C1269 1.427 . S
N1277 C1275 1.384 . S
H1278 C1284 0.930 . S
H1279 C1288 0.930 . S
H1280 C1293 0.929 . S
H1281 C1291 0.929 . S
H1282 C1286 0.929 . S
H1283 C1292 0.929 . S
C1284 H1278 0.930 . S
C1284 C1285 1.367 . S
C1284 C1292 1.378 . S
C1285 C1284 1.367 . S
C1285 C1293 1.433 . S
C1286 H1282 0.929 . S
C1286 C1288 1.378 . S
C1286 C1290 1.350 . S
C1287 C1290 1.463 . S
C1287 C1292 1.350 . S
C1287 N1295 1.427 . S
C1288 H1279 0.930 . S
C1288 C1286 1.378 . S
C1288 C1289 1.367 . S
C1289 C1288 1.367 . S
C1289 C1291 1.433 . S
C1290 C1286 1.350 . S
C1290 C1287 1.463 . S
C1290 N1294 1.427 . S
C1291 H1281 0.929 . S
C1291 C1289 1.433 . S
C1291 N1294 1.384 . S
C1292 H1283 0.929 . S
C1292 C1284 1.378 . S
C1292 C1287 1.350 . S
C1293 H1280 0.929 . S
C1293 C1285 1.433 . S
C1293 N1295 1.384 . S
N1294 C1290 1.427 . S
N1294 C1291 1.384 . S
N1295 C1287 1.427 . S
N1295 C1293 1.384 . S
H1296 C1302 0.930 . S
H1297 C1306 0.930 . S
H1298 C1311 0.929 . S
H1299 C1309 0.929 . S
H1300 C1304 0.929 . S
H1301 C1310 0.929 . S
C1302 H1296 0.930 . S
C1302 C1303 1.367 . S
C1302 C1310 1.378 . S
C1303 C1302 1.367 . S
C1303 C1311 1.433 . S
C1304 H1300 0.929 . S
C1304 C1306 1.378 . S
C1304 C1308 1.350 . S
C1305 C1308 1.463 . S
C1305 C1310 1.350 . S
C1305 N1313 1.427 . S
C1306 H1297 0.930 . S
C1306 C1304 1.378 . S
C1306 C1307 1.367 . S
C1307 C1306 1.367 . S
C1307 C1309 1.433 . S
C1308 C1304 1.350 . S
C1308 C1305 1.463 . S
C1308 N1312 1.427 . S
C1309 H1299 0.929 . S
C1309 C1307 1.433 . S
C1309 N1312 1.384 . S
C1310 H1301 0.929 . S
C1310 C1302 1.378 . S
C1310 C1305 1.350 . S
C1311 H1298 0.929 . S
C1311 C1303 1.433 . S
C1311 N1313 1.384 . S
N1312 C1308 1.427 . S
N1312 C1309 1.384 . S
N1313 C1305 1.427 . S
N1313 C1311 1.384 . S
H1314 C1320 0.930 . S
H1315 C1324 0.930 . S
H1316 C1329 0.929 . S
H1317 C1327 0.929 . S
H1318 C1322 0.929 . S
H1319 C1328 0.929 . S
C1320 H1314 0.930 . S
C1320 C1321 1.367 . S
C1320 C1328 1.378 . S
C1321 C1320 1.367 . S
C1321 C1329 1.433 . S
C1322 H1318 0.929 . S
C1322 C1324 1.378 . S
C1322 C1326 1.350 . S
C1323 C1326 1.463 . S
C1323 C1328 1.350 1_455 S
C1323 N1331 1.427 . S
C1324 H1315 0.930 . S
C1324 C1322 1.378 . S
C1324 C1325 1.367 . S
C1325 C1324 1.367 . S
C1325 C1327 1.433 . S
C1326 C1322 1.350 . S
C1326 C1323 1.463 . S
C1326 N1330 1.427 . S
C1327 H1317 0.929 . S
C1327 C1325 1.433 . S
C1327 N1330 1.384 . S
C1328 H1319 0.929 . S
C1328 C1320 1.378 . S
C1328 C1323 1.350 1_655 S
C1329 H1316 0.929 . S
C1329 C1321 1.433 . S
C1329 N1331 1.384 1_655 S
N1330 C1326 1.427 . S
N1330 C1327 1.384 . S
N1331 C1323 1.427 . S
N1331 C1329 1.384 1_455 S
H1332 C1338 0.930 . S
H1333 C1342 0.930 . S
H1334 C1347 0.929 . S
H1335 C1345 0.929 . S
H1336 C1340 0.929 . S
H1337 C1346 0.929 . S
C1338 H1332 0.930 . S
C1338 C1339 1.367 . S
C1338 C1346 1.378 . S
C1339 C1338 1.367 . S
C1339 C1347 1.433 . S
C1340 H1336 0.929 . S
C1340 C1342 1.378 . S
C1340 C1344 1.350 . S
C1341 C1344 1.463 . S
C1341 C1346 1.350 . S
C1341 N1349 1.427 . S
C1342 H1333 0.930 . S
C1342 C1340 1.378 . S
C1342 C1343 1.367 . S
C1343 C1342 1.367 . S
C1343 C1345 1.433 . S
C1344 C1340 1.350 . S
C1344 C1341 1.463 . S
C1344 N1348 1.427 . S
C1345 H1335 0.929 . S
C1345 C1343 1.433 . S
C1345 N1348 1.384 . S
C1346 H1337 0.929 . S
C1346 C1338 1.378 . S
C1346 C1341 1.350 . S
C1347 H1334 0.929 . S
C1347 C1339 1.433 . S
C1347 N1349 1.384 . S
N1348 C1344 1.427 . S
N1348 C1345 1.384 . S
N1349 C1341 1.427 . S
N1349 C1347 1.384 . S
H1350 C1356 0.930 . S
H1351 C1360 0.930 . S
H1352 C1365 0.929 . S
H1353 C1363 0.929 . S
H1354 C1358 0.929 . S
H1355 C1364 0.929 . S
C1356 H1350 0.930 . S
C1356 C1357 1.367 . S
C1356 C1364 1.378 1_565 S
C1357 C1356 1.367 . S
C1357 C1365 1.433 . S
C1358 H1354 0.929 . S
C1358 C1360 1.378 . S
C1358 C1362 1.350 . S
C1359 C1362 1.463 . S
C1359 C1364 1.350 . S
C1359 N1367 1.427 1_545 S
C1360 H1351 0.930 . S
C1360 C1358 1.378 . S
C1360 C1361 1.367 . S
C1361 C1360 1.367 . S
C1361 C1363 1.433 . S
C1362 C1358 1.350 . S
C1362 C1359 1.463 . S
C1362 N1366 1.427 . S
C1363 H1353 0.929 . S
C1363 C1361 1.433 . S
C1363 N1366 1.384 . S
C1364 H1355 0.929 . S
C1364 C1356 1.378 1_545 S
C1364 C1359 1.350 . S
C1365 H1352 0.929 . S
C1365 C1357 1.433 . S
C1365 N1367 1.384 . S
N1366 C1362 1.427 . S
N1366 C1363 1.384 . S
N1367 C1359 1.427 1_565 S
N1367 C1365 1.384 . S
H1368 C1374 0.930 . S
H1369 C1378 0.930 . S
H1370 C1383 0.929 . S
H1371 C1381 0.929 . S
H1372 C1376 0.929 . S
H1373 C1382 0.929 . S
C1374 H1368 0.930 . S
C1374 C1375 1.367 . S
C1374 C1382 1.378 . S
C1375 C1374 1.367 . S
C1375 C1383 1.433 . S
C1376 H1372 0.929 . S
C1376 C1378 1.378 . S
C1376 C1380 1.350 . S
C1377 C1380 1.463 . S
C1377 C1382 1.350 . S
C1377 N1385 1.427 . S
C1378 H1369 0.930 . S
C1378 C1376 1.378 . S
C1378 C1379 1.367 . S
C1379 C1378 1.367 . S
C1379 C1381 1.433 . S
C1380 C1376 1.350 . S
C1380 C1377 1.463 . S
C1380 N1384 1.427 . S
C1381 H1371 0.929 . S
C1381 C1379 1.433 . S
C1381 N1384 1.384 . S
C1382 H1373 0.929 . S
C1382 C1374 1.378 . S
C1382 C1377 1.350 . S
C1383 H1370 0.929 . S
C1383 C1375 1.433 . S
C1383 N1385 1.384 . S
N1384 C1380 1.427 . S
N1384 C1381 1.384 . S
N1385 C1377 1.427 . S
N1385 C1383 1.384 . S
H1386 C1392 0.930 . S
H1387 C1396 0.930 . S
H1388 C1401 0.929 . S
H1389 C1399 0.929 . S
H1390 C1394 0.929 . S
H1391 C1400 0.929 . S
C1392 H1386 0.930 . S
C1392 C1393 1.367 . S
C1392 C1400 1.378 . S
C1393 C1392 1.367 . S
C1393 C1401 1.433 . S
C1394 H1390 0.929 . S
C1394 C1396 1.378 . S
C1394 C1398 1.350 . S
C1395 C1398 1.463 . S
C1395 C1400 1.350 . S
C1395 N1403 1.427 . S
C1396 H1387 0.930 . S
C1396 C1394 1.378 . S
C1396 C1397 1.367 . S
C1397 C1396 1.367 . S
C1397 C1399 1.433 . S
C1398 C1394 1.350 . S
C1398 C1395 1.463 . S
C1398 N1402 1.427 . S
C1399 H1389 0.929 . S
C1399 C1397 1.433 . S
C1399 N1402 1.384 . S
C1400 H1391 0.929 . S
C1400 C1392 1.378 . S
C1400 C1395 1.350 . S
C1401 H1388 0.929 . S
C1401 C1393 1.433 . S
C1401 N1403 1.384 . S
N1402 C1398 1.427 . S
N1402 C1399 1.384 . S
N1403 C1395 1.427 . S
N1403 C1401 1.384 . S
H1404 C1410 0.930 . S
H1405 C1414 0.930 . S
H1406 C1419 0.929 . S
H1407 C1417 0.929 . S
H1408 C1412 0.929 . S
H1409 C1418 0.929 . S
C1410 H1404 0.930 . S
C1410 C1411 1.367 . S
C1410 C1418 1.378 . S
C1411 C1410 1.367 . S
C1411 C1419 1.433 . S
C1412 H1408 0.929 . S
C1412 C1414 1.378 . S
C1412 C1416 1.350 . S
C1413 C1416 1.463 . S
C1413 C1418 1.350 . S
C1413 N1421 1.427 . S
C1414 H1405 0.930 . S
C1414 C1412 1.378 . S
C1414 C1415 1.367 . S
C1415 C1414 1.367 . S
C1415 C1417 1.433 . S
C1416 C1412 1.350 . S
C1416 C1413 1.463 . S
C1416 N1420 1.427 . S
C1417 H1407 0.929 . S
C1417 C1415 1.433 . S
C1417 N1420 1.384 . S
C1418 H1409 0.929 . S
C1418 C1410 1.378 . S
C1418 C1413 1.350 . S
C1419 H1406 0.929 . S
C1419 C1411 1.433 . S
C1419 N1421 1.384 . S
N1420 C1416 1.427 . S
N1420 C1417 1.384 . S
N1421 C1413 1.427 . S
N1421 C1419 1.384 . S
H1422 C1428 0.930 . S
H1423 C1432 0.930 . S
H1424 C1437 0.929 . S
H1425 C1435 0.929 . S
H1426 C1430 0.929 . S
H1427 C1436 0.929 . S
C1428 H1422 0.930 . S
C1428 C1429 1.367 . S
C1428 C1436 1.378 . S
C1429 C1428 1.367 . S
C1429 C1437 1.433 . S
C1430 H1426 0.929 . S
C1430 C1432 1.378 . S
C1430 C1434 1.350 . S
C1431 C1434 1.463 . S
C1431 C1436 1.350 . S
C1431 N1439 1.427 . S
C1432 H1423 0.930 . S
C1432 C1430 1.378 . S
C1432 C1433 1.367 . S
C1433 C1432 1.367 . S
C1433 C1435 1.433 . S
C1434 C1430 1.350 . S
C1434 C1431 1.463 . S
C1434 N1438 1.427 . S
C1435 H1425 0.929 . S
C1435 C1433 1.433 . S
C1435 N1438 1.384 . S
C1436 H1427 0.929 . S
C1436 C1428 1.378 . S
C1436 C1431 1.350 . S
C1437 H1424 0.929 . S
C1437 C1429 1.433 . S
C1437 N1439 1.384 . S
N1438 C1434 1.427 . S
N1438 C1435 1.384 . S
N1439 C1431 1.427 . S
N1439 C1437 1.384 . S
H1440 C1446 0.930 . S
H1441 C1450 0.930 . S
H1442 C1455 0.929 . S
H1443 C1453 0.929 . S
H1444 C1448 0.929 . S
H1445 C1454 0.929 . S
C1446 H1440 0.930 . S
C1446 C1447 1.367 . S
C1446 C1454 1.378 . S
C1447 C1446 1.367 . S
C1447 C1455 1.433 . S
C1448 H1444 0.929 . S
C1448 C1450 1.378 . S
C1448 C1452 1.350 . S
C1449 C1452 1.463 . S
C1449 C1454 1.350 . S
C1449 N1457 1.427 . S
C1450 H1441 0.930 . S
C1450 C1448 1.378 . S
C1450 C1451 1.367 . S
C1451 C1450 1.367 . S
C1451 C1453 1.433 . S
C1452 C1448 1.350 . S
C1452 C1449 1.463 . S
C1452 N1456 1.427 . S
C1453 H1443 0.929 . S
C1453 C1451 1.433 . S
C1453 N1456 1.384 . S
C1454 H1445 0.929 . S
C1454 C1446 1.378 . S
C1454 C1449 1.350 . S
C1455 H1442 0.929 . S
C1455 C1447 1.433 . S
C1455 N1457 1.384 . S
N1456 C1452 1.427 . S
N1456 C1453 1.384 . S
N1457 C1449 1.427 . S
N1457 C1455 1.384 . S
H1458 C1464 0.930 . S
H1459 C1468 0.930 . S
H1460 C1473 0.929 . S
H1461 C1471 0.929 . S
H1462 C1466 0.929 . S
H1463 C1472 0.929 . S
C1464 H1458 0.930 . S
C1464 C1465 1.367 . S
C1464 C1472 1.378 . S
C1465 C1464 1.367 . S
C1465 C1473 1.433 . S
C1466 H1462 0.929 . S
C1466 C1468 1.378 . S
C1466 C1470 1.350 . S
C1467 C1470 1.463 . S
C1467 C1472 1.350 . S
C1467 N1475 1.427 . S
C1468 H1459 0.930 . S
C1468 C1466 1.378 . S
C1468 C1469 1.367 . S
C1469 C1468 1.367 . S
C1469 C1471 1.433 . S
C1470 C1466 1.350 . S
C1470 C1467 1.463 . S
C1470 N1474 1.427 . S
C1471 H1461 0.929 . S
C1471 C1469 1.433 . S
C1471 N1474 1.384 . S
C1472 H1463 0.929 . S
C1472 C1464 1.378 . S
C1472 C1467 1.350 . S
C1473 H1460 0.929 . S
C1473 C1465 1.433 . S
C1473 N1475 1.384 . S
N1474 C1470 1.427 . S
N1474 C1471 1.384 . S
N1475 C1467 1.427 . S
N1475 C1473 1.384 . S
H1476 C1482 0.930 . S
H1477 C1486 0.930 . S
H1478 C1491 0.929 . S
H1479 C1489 0.929 . S
H1480 C1484 0.929 . S
H1481 C1490 0.929 . S
C1482 H1476 0.930 . S
C1482 C1483 1.367 . S
C1482 C1490 1.378 . S
C1483 C1482 1.367 . S
C1483 C1491 1.433 . S
C1484 H1480 0.929 . S
C1484 C1486 1.378 . S
C1484 C1488 1.350 . S
C1485 C1488 1.463 . S
C1485 C1490 1.350 . S
C1485 N1493 1.427 . S
C1486 H1477 0.930 . S
C1486 C1484 1.378 . S
C1486 C1487 1.367 . S
C1487 C1486 1.367 . S
C1487 C1489 1.433 . S
C1488 C1484 1.350 . S
C1488 C1485 1.463 . S
C1488 N1492 1.427 . S
C1489 H1479 0.929 . S
C1489 C1487 1.433 . S
C1489 N1492 1.384 . S
C1490 H1481 0.929 . S
C1490 C1482 1.378 . S
C1490 C1485 1.350 . S
C1491 H1478 0.929 . S
C1491 C1483 1.433 . S
C1491 N1493 1.384 . S
N1492 C1488 1.427 . S
N1492 C1489 1.384 . S
N1493 C1485 1.427 . S
N1493 C1491 1.384 . S
H1494 C1500 0.930 . S
H1495 C1504 0.930 . S
H1496 C1509 0.929 . S
H1497 C1507 0.929 . S
H1498 C1502 0.929 . S
H1499 C1508 0.929 . S
C1500 H1494 0.930 . S
C1500 C1501 1.367 . S
C1500 C1508 1.378 . S
C1501 C1500 1.367 . S
C1501 C1509 1.433 . S
C1502 H1498 0.929 . S
C1502 C1504 1.378 . S
C1502 C1506 1.350 . S
C1503 C1506 1.463 . S
C1503 C1508 1.350 . S
C1503 N1511 1.427 . S
C1504 H1495 0.930 . S
C1504 C1502 1.378 . S
C1504 C1505 1.367 . S
C1505 C1504 1.367 . S
C1505 C1507 1.433 . S
C1506 C1502 1.350 . S
C1506 C1503 1.463 . S
C1506 N1510 1.427 . S
C1507 H1497 0.929 . S
C1507 C1505 1.433 . S
C1507 N1510 1.384 . S
C1508 H1499 0.929 . S
C1508 C1500 1.378 . S
C1508 C1503 1.350 . S
C1509 H1496 0.929 . S
C1509 C1501 1.433 . S
C1509 N1511 1.384 . S
N1510 C1506 1.427 . S
N1510 C1507 1.384 . S
N1511 C1503 1.427 . S
N1511 C1509 1.384 . S
H1512 C1518 0.930 . S
H1513 C1522 0.930 . S
H1514 C1527 0.929 . S
H1515 C1525 0.929 . S
H1516 C1520 0.929 . S
H1517 C1526 0.929 . S
C1518 H1512 0.930 . S
C1518 C1519 1.367 . S
C1518 C1526 1.378 . S
C1519 C1518 1.367 . S
C1519 C1527 1.433 . S
C1520 H1516 0.929 . S
C1520 C1522 1.378 . S
C1520 C1524 1.350 . S
C1521 C1524 1.463 . S
C1521 C1526 1.350 . S
C1521 N1529 1.427 . S
C1522 H1513 0.930 . S
C1522 C1520 1.378 . S
C1522 C1523 1.367 . S
C1523 C1522 1.367 . S
C1523 C1525 1.433 . S
C1524 C1520 1.350 . S
C1524 C1521 1.463 . S
C1524 N1528 1.427 . S
C1525 H1515 0.929 . S
C1525 C1523 1.433 . S
C1525 N1528 1.384 . S
C1526 H1517 0.929 . S
C1526 C1518 1.378 . S
C1526 C1521 1.350 . S
C1527 H1514 0.929 . S
C1527 C1519 1.433 . S
C1527 N1529 1.384 . S
N1528 C1524 1.427 . S
N1528 C1525 1.384 . S
N1529 C1521 1.427 . S
N1529 C1527 1.384 . S
H1530 C1536 0.930 . S
H1531 C1540 0.930 . S
H1532 C1545 0.929 . S
H1533 C1543 0.929 . S
H1534 C1538 0.929 . S
H1535 C1544 0.929 . S
C1536 H1530 0.930 . S
C1536 C1537 1.367 . S
C1536 C1544 1.378 . S
C1537 C1536 1.367 . S
C1537 C1545 1.433 . S
C1538 H1534 0.929 . S
C1538 C1540 1.378 . S
C1538 C1542 1.350 . S
C1539 C1542 1.463 . S
C1539 C1544 1.350 . S
C1539 N1547 1.427 . S
C1540 H1531 0.930 . S
C1540 C1538 1.378 . S
C1540 C1541 1.367 . S
C1541 C1540 1.367 . S
C1541 C1543 1.433 . S
C1542 C1538 1.350 . S
C1542 C1539 1.463 . S
C1542 N1546 1.427 . S
C1543 H1533 0.929 . S
C1543 C1541 1.433 . S
C1543 N1546 1.384 . S
C1544 H1535 0.929 . S
C1544 C1536 1.378 . S
C1544 C1539 1.350 . S
C1545 H1532 0.929 . S
C1545 C1537 1.433 . S
C1545 N1547 1.384 . S
N1546 C1542 1.427 . S
N1546 C1543 1.384 . S
N1547 C1539 1.427 . S
N1547 C1545 1.384 . S
H1548 C1554 0.930 . S
H1549 C1558 0.930 . S
H1550 C1563 0.929 . S
H1551 C1561 0.929 . S
H1552 C1556 0.929 . S
H1553 C1562 0.929 . S
C1554 H1548 0.930 . S
C1554 C1555 1.367 1_545 S
C1554 C1562 1.378 . S
C1555 C1554 1.367 1_565 S
C1555 C1563 1.433 . S
C1556 H1552 0.929 . S
C1556 C1558 1.378 . S
C1556 C1560 1.350 . S
C1557 C1560 1.463 . S
C1557 C1562 1.350 . S
C1557 N1565 1.427 1_545 S
C1558 H1549 0.930 . S
C1558 C1556 1.378 . S
C1558 C1559 1.367 . S
C1559 C1558 1.367 . S
C1559 C1561 1.433 . S
C1560 C1556 1.350 . S
C1560 C1557 1.463 . S
C1560 N1564 1.427 . S
C1561 H1551 0.929 . S
C1561 C1559 1.433 . S
C1561 N1564 1.384 . S
C1562 H1553 0.929 . S
C1562 C1554 1.378 . S
C1562 C1557 1.350 . S
C1563 H1550 0.929 . S
C1563 C1555 1.433 . S
C1563 N1565 1.384 . S
N1564 C1560 1.427 . S
N1564 C1561 1.384 . S
N1565 C1557 1.427 1_565 S
N1565 C1563 1.384 . S
H1566 C1572 0.930 . S
H1567 C1576 0.930 . S
H1568 C1581 0.929 . S
H1569 C1579 0.929 . S
H1570 C1574 0.929 . S
H1571 C1580 0.929 . S
C1572 H1566 0.930 . S
C1572 C1573 1.367 . S
C1572 C1580 1.378 . S
C1573 C1572 1.367 . S
C1573 C1581 1.433 . S
C1574 H1570 0.929 . S
C1574 C1576 1.378 . S
C1574 C1578 1.350 . S
C1575 C1578 1.463 1_655 S
C1575 C1580 1.350 . S
C1575 N1583 1.427 . S
C1576 H1567 0.930 . S
C1576 C1574 1.378 . S
C1576 C1577 1.367 . S
C1577 C1576 1.367 . S
C1577 C1579 1.433 . S
C1578 C1574 1.350 . S
C1578 C1575 1.463 1_455 S
C1578 N1582 1.427 . S
C1579 H1569 0.929 . S
C1579 C1577 1.433 . S
C1579 N1582 1.384 . S
C1580 H1571 0.929 . S
C1580 C1572 1.378 . S
C1580 C1575 1.350 . S
C1581 H1568 0.929 . S
C1581 C1573 1.433 . S
C1581 N1583 1.384 . S
N1582 C1578 1.427 . S
N1582 C1579 1.384 . S
N1583 C1575 1.427 . S
N1583 C1581 1.384 . S
H1584 C1590 0.930 . S
H1585 C1594 0.930 . S
H1586 C1599 0.929 . S
H1587 C1597 0.929 . S
H1588 C1592 0.929 . S
H1589 C1598 0.929 . S
C1590 H1584 0.930 . S
C1590 C1591 1.367 . S
C1590 C1598 1.378 . S
C1591 C1590 1.367 . S
C1591 C1599 1.433 . S
C1592 H1588 0.929 . S
C1592 C1594 1.378 . S
C1592 C1596 1.350 . S
C1593 C1596 1.463 . S
C1593 C1598 1.350 . S
C1593 N1601 1.427 . S
C1594 H1585 0.930 . S
C1594 C1592 1.378 . S
C1594 C1595 1.367 . S
C1595 C1594 1.367 . S
C1595 C1597 1.433 . S
C1596 C1592 1.350 . S
C1596 C1593 1.463 . S
C1596 N1600 1.427 . S
C1597 H1587 0.929 . S
C1597 C1595 1.433 . S
C1597 N1600 1.384 . S
C1598 H1589 0.929 . S
C1598 C1590 1.378 . S
C1598 C1593 1.350 . S
C1599 H1586 0.929 . S
C1599 C1591 1.433 . S
C1599 N1601 1.384 . S
N1600 C1596 1.427 . S
N1600 C1597 1.384 . S
N1601 C1593 1.427 . S
N1601 C1599 1.384 . S
H1602 C1608 0.930 . S
H1603 C1612 0.930 . S
H1604 C1617 0.929 . S
H1605 C1615 0.929 . S
H1606 C1610 0.929 . S
H1607 C1616 0.929 . S
C1608 H1602 0.930 . S
C1608 C1609 1.367 . S
C1608 C1616 1.378 . S
C1609 C1608 1.367 . S
C1609 C1617 1.433 . S
C1610 H1606 0.929 . S
C1610 C1612 1.378 . S
C1610 C1614 1.350 . S
C1611 C1614 1.463 1_545 S
C1611 C1616 1.350 . S
C1611 N1619 1.427 . S
C1612 H1603 0.930 . S
C1612 C1610 1.378 . S
C1612 C1613 1.367 . S
C1613 C1612 1.367 . S
C1613 C1615 1.433 . S
C1614 C1610 1.350 . S
C1614 C1611 1.463 1_565 S
C1614 N1618 1.427 . S
C1615 H1605 0.929 . S
C1615 C1613 1.433 . S
C1615 N1618 1.384 . S
C1616 H1607 0.929 . S
C1616 C1608 1.378 . S
C1616 C1611 1.350 . S
C1617 H1604 0.929 . S
C1617 C1609 1.433 . S
C1617 N1619 1.384 . S
N1618 C1614 1.427 . S
N1618 C1615 1.384 . S
N1619 C1611 1.427 . S
N1619 C1617 1.384 . S
H1620 C1626 0.930 . S
H1621 C1630 0.930 . S
H1622 C1635 0.929 . S
H1623 C1633 0.929 . S
H1624 C1628 0.929 . S
H1625 C1634 0.929 . S
C1626 H1620 0.930 . S
C1626 C1627 1.367 . S
C1626 C1634 1.378 . S
C1627 C1626 1.367 . S
C1627 C1635 1.433 . S
C1628 H1624 0.929 . S
C1628 C1630 1.378 . S
C1628 C1632 1.350 . S
C1629 C1632 1.463 . S
C1629 C1634 1.350 . S
C1629 N1637 1.427 . S
C1630 H1621 0.930 . S
C1630 C1628 1.378 . S
C1630 C1631 1.367 1_455 S
C1631 C1630 1.367 1_655 S
C1631 C1633 1.433 . S
C1632 C1628 1.350 . S
C1632 C1629 1.463 . S
C1632 N1636 1.427 1_455 S
C1633 H1623 0.929 . S
C1633 C1631 1.433 . S
C1633 N1636 1.384 . S
C1634 H1625 0.929 . S
C1634 C1626 1.378 . S
C1634 C1629 1.350 . S
C1635 H1622 0.929 . S
C1635 C1627 1.433 . S
C1635 N1637 1.384 . S
N1636 C1632 1.427 1_655 S
N1636 C1633 1.384 . S
N1637 C1629 1.427 . S
N1637 C1635 1.384 . S
H1638 C1644 0.930 . S
H1639 C1648 0.930 . S
H1640 C1653 0.929 . S
H1641 C1651 0.929 . S
H1642 C1646 0.929 . S
H1643 C1652 0.929 . S
C1644 H1638 0.930 . S
C1644 C1645 1.367 . S
C1644 C1652 1.378 . S
C1645 C1644 1.367 . S
C1645 C1653 1.433 . S
C1646 H1642 0.929 . S
C1646 C1648 1.378 . S
C1646 C1650 1.350 . S
C1647 C1650 1.463 . S
C1647 C1652 1.350 . S
C1647 N1655 1.427 . S
C1648 H1639 0.930 . S
C1648 C1646 1.378 . S
C1648 C1649 1.367 . S
C1649 C1648 1.367 . S
C1649 C1651 1.433 . S
C1650 C1646 1.350 . S
C1650 C1647 1.463 . S
C1650 N1654 1.427 . S
C1651 H1641 0.929 . S
C1651 C1649 1.433 . S
C1651 N1654 1.384 . S
C1652 H1643 0.929 . S
C1652 C1644 1.378 . S
C1652 C1647 1.350 . S
C1653 H1640 0.929 . S
C1653 C1645 1.433 . S
C1653 N1655 1.384 . S
N1654 C1650 1.427 . S
N1654 C1651 1.384 . S
N1655 C1647 1.427 . S
N1655 C1653 1.384 . S
H1656 C1662 0.930 . S
H1657 C1666 0.930 . S
H1658 C1671 0.929 . S
H1659 C1669 0.929 . S
H1660 C1664 0.929 . S
H1661 C1670 0.929 . S
C1662 H1656 0.930 . S
C1662 C1663 1.367 . S
C1662 C1670 1.378 . S
C1663 C1662 1.367 . S
C1663 C1671 1.433 . S
C1664 H1660 0.929 . S
C1664 C1666 1.378 . S
C1664 C1668 1.350 . S
C1665 C1668 1.463 . S
C1665 C1670 1.350 . S
C1665 N1673 1.427 . S
C1666 H1657 0.930 . S
C1666 C1664 1.378 . S
C1666 C1667 1.367 . S
C1667 C1666 1.367 . S
C1667 C1669 1.433 . S
C1668 C1664 1.350 . S
C1668 C1665 1.463 . S
C1668 N1672 1.427 . S
C1669 H1659 0.929 . S
C1669 C1667 1.433 . S
C1669 N1672 1.384 . S
C1670 H1661 0.929 . S
C1670 C1662 1.378 . S
C1670 C1665 1.350 . S
C1671 H1658 0.929 . S
C1671 C1663 1.433 . S
C1671 N1673 1.384 . S
N1672 C1668 1.427 . S
N1672 C1669 1.384 . S
N1673 C1665 1.427 . S
N1673 C1671 1.384 . S
H1674 C1680 0.930 . S
H1675 C1684 0.930 . S
H1676 C1689 0.929 . S
H1677 C1687 0.929 . S
H1678 C1682 0.929 . S
H1679 C1688 0.929 . S
C1680 H1674 0.930 . S
C1680 C1681 1.367 . S
C1680 C1688 1.378 . S
C1681 C1680 1.367 . S
C1681 C1689 1.433 . S
C1682 H1678 0.929 . S
C1682 C1684 1.378 . S
C1682 C1686 1.350 . S
C1683 C1686 1.463 . S
C1683 C1688 1.350 . S
C1683 N1691 1.427 . S
C1684 H1675 0.930 . S
C1684 C1682 1.378 . S
C1684 C1685 1.367 . S
C1685 C1684 1.367 . S
C1685 C1687 1.433 . S
C1686 C1682 1.350 . S
C1686 C1683 1.463 . S
C1686 N1690 1.427 . S
C1687 H1677 0.929 . S
C1687 C1685 1.433 . S
C1687 N1690 1.384 . S
C1688 H1679 0.929 . S
C1688 C1680 1.378 . S
C1688 C1683 1.350 . S
C1689 H1676 0.929 . S
C1689 C1681 1.433 . S
C1689 N1691 1.384 . S
N1690 C1686 1.427 . S
N1690 C1687 1.384 . S
N1691 C1683 1.427 . S
N1691 C1689 1.384 . S
C727 C20 1.064 . S
C731 C84 1.068 . S
C745 C4 1.063 . S
C749 C60 1.060 . S
C763 C44 1.056 . S
C767 C100 1.052 . S
C781 C140 1.048 . S
C785 C164 1.053 . S
C799 C204 1.060 . S
C803 C180 1.056 . S
C817 C220 1.064 . S
C821 C124 1.068 . S
C835 C324 1.066 . S
C839 C260 1.062 . S
C853 C244 1.067 . S
C857 C300 1.064 . S
C871 C340 1.052 . S
C875 C284 1.057 . S
C889 C404 1.058 . S
C893 C380 1.054 . S
C907 C420 1.054 . S
C911 C444 1.059 . S
C925 C364 1.068 . S
C929 C460 1.064 . S
C943 C500 1.049 . S
C947 C564 1.054 . S
C961 C484 1.056 . S
C965 C540 1.051 . S
C979 C524 1.054 . S
C983 C580 1.048 . S
C997 C644 1.058 . S
C1001 C620 1.053 . S
C1015 C684 1.063 . S
C1019 C660 1.059 . S
C1033 C604 1.053 . S
C1037 C700 1.047 . S
C1051 C2 1.716 . S
C1055 C202 1.705 . S
C1069 C122 1.702 . S
C1073 C42 1.712 . S
C1087 C162 1.707 . S
C1091 C82 1.701 . S
C1105 C242 1.717 . S
C1109 C442 1.712 . S
C1123 C282 1.711 . S
C1127 C362 1.717 . S
C1141 C402 1.704 . S
C1145 C322 1.715 . S
C1159 C482 1.711 . S
C1163 C682 1.701 . S
C1177 C602 1.714 . S
C1181 C522 1.703 . S
C1195 C642 1.714 . S
C1199 C562 1.716 . S
C1213 C423 2.277 . S
C1217 C23 2.275 1_565 S
C1231 C63 2.277 . S
C1235 C463 2.280 . S
C1249 C383 2.282 . S
C1253 C103 2.281 . S
C1267 C143 2.278 1_655 S
C1271 C583 2.281 . S
C1285 C183 2.277 . S
C1289 C503 2.280 . S
C1303 C543 2.278 . S
C1307 C223 2.281 . S
C1321 C663 2.282 . S
C1325 C263 2.280 . S
C1339 C303 2.280 . S
C1343 C703 2.278 . S
C1357 C343 2.277 . S
C1361 C623 2.276 . S
C1375 C105 1.726 . S
C1379 C31 1.720 . S
C1393 C25 1.727 . S
C1397 C71 1.721 . S
C1411 C111 1.721 . S
C1415 C65 1.726 . S
C1429 C185 1.732 . S
C1433 C151 1.728 . S
C1447 C225 1.728 . S
C1451 C191 1.723 . S
C1465 C231 1.729 . S
C1469 C145 1.733 . S
C1483 C345 1.728 . S
C1487 C271 1.723 . S
C1501 C311 1.729 . S
C1505 C265 1.734 . S
C1519 C305 1.730 . S
C1523 C351 1.725 . S
C1537 C391 1.729 . S
C1541 C425 1.734 1_655 S
C1555 C431 1.728 . S
C1559 C465 1.733 . S
C1573 C385 1.733 . S
C1577 C471 1.728 . S
C1591 C511 1.721 . S
C1595 C585 1.726 1_565 S
C1609 C551 1.721 . S
C1613 C505 1.727 . S
C1627 C545 1.731 . S
C1631 C591 1.726 . S
C1645 C631 1.729 . S
C1649 C665 1.733 . S
C1663 C671 1.720 . S
C1667 C705 1.726 . S
C1681 C625 1.726 . S
C1685 C711 1.721 . S
