# Generated by pormake.
# Topology hcp, (12)-cn, num edge types: 1
# Building blocks:
#     Node 0, Type 0, BuildingBlock: EZIPEK_clean_sbu_0, # of connection points: 12
#     Node 1, Type 0, BuildingBlock: EZIPEK_clean_sbu_0, # of connection points: 12
#     Edge 2, Type (0, 0), BuildingBlock: XIVTED_clean_linker_0, # of connection points: 2
#     Edge 3, Type (0, 0), BuildingBlock: XIVTED_clean_linker_0, # of connection points: 2
#     Edge 4, Type (0, 0), BuildingBlock: XIVTED_clean_linker_0, # of connection points: 2
#     Edge 5, Type (0, 0), BuildingBlock: XIVTED_clean_linker_0, # of connection points: 2
#     Edge 6, Type (0, 0), BuildingBlock: XIVTED_clean_linker_0, # of connection points: 2
#     Edge 7, Type (0, 0), BuildingBlock: XIVTED_clean_linker_0, # of connection points: 2
#     Edge 8, Type (0, 0), BuildingBlock: XIVTED_clean_linker_0, # of connection points: 2
#     Edge 9, Type (0, 0), BuildingBlock: XIVTED_clean_linker_0, # of connection points: 2
#     Edge 10, Type (0, 0), BuildingBlock: XIVTED_clean_linker_0, # of connection points: 2
#     Edge 11, Type (0, 0), BuildingBlock: XIVTED_clean_linker_0, # of connection points: 2
#     Edge 12, Type (0, 0), BuildingBlock: XIVTED_clean_linker_0, # of connection points: 2
#     Edge 13, Type (0, 0), BuildingBlock: XIVTED_clean_linker_0, # of connection points: 2
# Relax obj value: 0.186
# Max RMSD: 0.270
# Mean RMSD: 0.270
data_MOF--net-hcp--node1-EZIPEK_clean_sbu_0--edge1-XIVTED_clean_linker_0
_symmetry_space_group_name_H-M    P1
_symmetry_Int_Tables_number       1
_symmetry_cell_setting            triclinic
loop_
_symmetry_equiv_pos_as_xyz
'x, y, z'
_cell_length_a     19.148748
_cell_length_b     19.167804
_cell_length_c     28.518472
_cell_angle_alpha  90.0884
_cell_angle_beta   89.754062
_cell_angle_gamma 120.0126
loop_
_atom_site_label
_atom_site_type_symbol
_atom_site_fract_x
_atom_site_fract_y
_atom_site_fract_z
_atom_type_partial_charge
C0 C 0.64982 0.08117 0.30521 0.0
C1 C 0.8135 0.39244 0.17388 0.0
C2 C 0.48949 0.22809 0.43534 0.0
C3 C 0.64307 0.55438 0.3013 0.0
C4 C 0.39886 0.31042 0.30462 0.0
C5 C 0.54778 0.14803 0.17469 0.0
C6 C 0.70436 0.46971 0.43536 0.0
C7 C 0.88067 0.32132 0.3003 0.0
C8 C 0.88141 0.56024 0.30361 0.0
C9 C 0.56076 0.41775 0.18156 0.0
C10 C 0.73254 0.25682 0.43538 0.0
C11 C 0.4096 0.07891 0.29995 0.0
Eu12 Eu 0.70128 0.25218 0.24986 0.0
O13 O 0.64333 0.31811 0.2259 0.0
O14 O 0.70285 0.26155 0.32542 0.0
Eu15 Eu 0.5196 0.25922 0.25054 0.0
Eu16 Eu 0.7661 0.38323 0.35321 0.0
O17 O 0.58359 0.20285 0.27877 0.0
O18 O 0.75713 0.37296 0.27813 0.0
Eu19 Eu 0.58427 0.19431 0.35387 0.0
Eu20 Eu 0.70889 0.44209 0.2496 0.0
O21 O 0.52598 0.25767 0.32603 0.0
O22 O 0.58854 0.37683 0.27866 0.0
O23 O 0.69925 0.43497 0.32522 0.0
O24 O 0.64236 0.31816 0.37475 0.0
Eu25 Eu 0.57731 0.37672 0.35356 0.0
O26 O 0.68507 0.13027 0.26882 0.0
O27 O 0.77868 0.31605 0.18774 0.0
O28 O 0.51864 0.30589 0.42309 0.0
O29 O 0.59629 0.49958 0.33329 0.0
O30 O 0.41261 0.27308 0.26939 0.0
O31 O 0.50821 0.18556 0.18731 0.0
O32 O 0.75325 0.44085 0.42293 0.0
O33 O 0.87072 0.36569 0.333 0.0
O34 O 0.83244 0.54625 0.26731 0.0
O35 O 0.63857 0.45971 0.19267 0.0
O36 O 0.6546 0.20817 0.42352 0.0
O37 O 0.46256 0.08902 0.33345 0.0
O38 O 0.6434 0.46265 0.41035 0.0
O39 O 0.45023 0.35025 0.33923 0.0
O40 O 0.82667 0.27586 0.26781 0.0
O41 O 0.61762 0.16124 0.19365 0.0
O42 O 0.79762 0.44827 0.19162 0.0
O43 O 0.68952 0.54564 0.2694 0.0
O44 O 0.61224 0.0947 0.3405 0.0
O45 O 0.49701 0.17429 0.41029 0.0
O46 O 0.41899 0.13311 0.26742 0.0
O47 O 0.50829 0.34341 0.1972 0.0
O48 O 0.78647 0.31704 0.40972 0.0
O49 O 0.86685 0.50999 0.33934 0.0
C50 C 0.30703 0.411 0.80629 0.0
C51 C 0.14026 0.55516 0.67575 0.0
C52 C 0.45862 0.71531 0.93069 0.0
C53 C 0.30742 0.88792 0.80214 0.0
C54 C 0.24267 0.73695 0.93871 0.0
C55 C 0.07284 0.41361 0.80466 0.0
C56 C 0.55052 0.8886 0.80778 0.0
C57 C 0.40455 0.58058 0.6754 0.0
C58 C 0.37853 0.82014 0.67626 0.0
C59 C 0.06772 0.65243 0.80648 0.0
C60 C 0.54054 0.6444 0.79941 0.0
C61 C 0.22674 0.50332 0.93863 0.0
Eu62 Eu 0.25061 0.52739 0.75185 0.0
O63 O 0.19227 0.5899 0.78064 0.0
O64 O 0.36824 0.59751 0.7793 0.0
Eu65 Eu 0.18414 0.59149 0.85593 0.0
Eu66 Eu 0.43118 0.71866 0.75151 0.0
O67 O 0.25029 0.53669 0.82696 0.0
O68 O 0.30725 0.65132 0.72879 0.0
Eu69 Eu 0.3693 0.58905 0.8542 0.0
Eu70 Eu 0.24019 0.70774 0.75249 0.0
O71 O 0.30791 0.65136 0.87632 0.0
O72 O 0.24891 0.71079 0.82815 0.0
O73 O 0.36089 0.76597 0.78074 0.0
O74 O 0.42302 0.71026 0.82659 0.0
Eu75 Eu 0.3706 0.77605 0.8561 0.0
O76 O 0.26985 0.42371 0.77066 0.0
O77 O 0.17597 0.51455 0.68937 0.0
O78 O 0.419 0.7561 0.9273 0.0
O79 O 0.35138 0.87908 0.83542 0.0
O80 O 0.19512 0.65943 0.926 0.0
O81 O 0.0825 0.46707 0.8378 0.0
O82 O 0.53619 0.8399 0.7712 0.0
O83 O 0.44406 0.65729 0.68847 0.0
O84 O 0.30196 0.78333 0.68993 0.0
O85 O 0.11775 0.68894 0.77074 0.0
O86 O 0.48645 0.59893 0.83191 0.0
O87 O 0.30382 0.5316 0.92498 0.0
O88 O 0.49944 0.87534 0.84321 0.0
O89 O 0.30215 0.79272 0.91327 0.0
O90 O 0.33494 0.52312 0.69454 0.0
O91 O 0.12604 0.424 0.77089 0.0
O92 O 0.15258 0.62478 0.69475 0.0
O93 O 0.26295 0.83322 0.76966 0.0
O94 O 0.34526 0.46263 0.84113 0.0
O95 O 0.47303 0.68695 0.89253 0.0
O96 O 0.17171 0.51109 0.91495 0.0
O97 O 0.08113 0.61509 0.84185 0.0
O98 O 0.53271 0.69281 0.76853 0.0
O99 O 0.43596 0.80762 0.69471 0.0
H100 H 0.19427 0.83883 0.97248 0.0
H101 H 0.55202 0.00657 0.16167 0.0
H102 H 0.31578 0.71037 1.01077 0.0
H103 H 0.43965 0.13783 0.1096 0.0
H104 H 0.45859 0.8905 0.11326 0.0
H105 H 0.26814 0.9376 1.03387 0.0
C106 C 0.23264 0.82844 0.99584 0.0
C107 C 0.24648 0.76422 0.98749 0.0
C108 C 0.45476 0.94496 0.11246 0.0
C109 C 0.33636 0.88055 1.05587 0.0
C110 C 0.50899 0.01166 0.1395 0.0
C111 C 0.50422 0.08247 0.13969 0.0
C112 C 0.39521 0.94908 0.08563 0.0
C113 C 0.44581 0.08471 0.11088 0.0
C114 C 0.27675 0.88618 1.03011 0.0
C115 C 0.30016 0.75627 1.0175 0.0
N116 N 0.39384 0.01934 0.0854 0.0
N117 N 0.34437 0.81445 1.0496 0.0
H118 H 0.39662 0.43436 0.6591 0.0
H119 H 0.75814 0.62149 0.47018 0.0
H120 H 0.51605 0.68144 0.61187 0.0
H121 H 0.61993 0.37074 0.50441 0.0
H122 H 0.6865 0.64959 0.53243 0.0
H123 H 0.48857 0.41159 0.60936 0.0
C124 C 0.44098 0.48331 0.63773 0.0
C125 C 0.4481 0.55974 0.63967 0.0
C126 C 0.67455 0.58852 0.52778 0.0
C127 C 0.55547 0.53513 0.58389 0.0
C128 C 0.71716 0.57288 0.49301 0.0
C129 C 0.69923 0.49359 0.48394 0.0
C130 C 0.61247 0.52408 0.55312 0.0
C131 C 0.64132 0.43259 0.51277 0.0
C132 C 0.49439 0.47076 0.60988 0.0
C133 C 0.50817 0.62144 0.61177 0.0
N134 N 0.59945 0.44861 0.54539 0.0
N135 N 0.55939 0.6079 0.58533 0.0
H136 H 0.96127 0.53329 0.16567 0.0
H137 H 0.10857 0.35202 0.95916 0.0
H138 H 0.81674 0.29881 0.10341 0.0
H139 H 0.26804 0.57974 1.0235 0.0
H140 H 0.00797 0.32578 1.01953 0.0
H141 H 0.07656 0.55254 0.1169 0.0
C142 C 0.95316 0.48677 0.14102 0.0
C143 C 0.87876 0.41464 0.13837 0.0
C144 C 0.06549 0.38112 1.02134 0.0
C145 C 0.01103 0.43484 0.08383 0.0
C146 C 0.12415 0.39499 0.98751 0.0
C147 C 0.19661 0.469 0.98573 0.0
C148 C 0.07883 0.44193 1.05377 0.0
C149 C 0.21231 0.52291 1.02297 0.0
C150 C 0.01938 0.49711 0.11383 0.0
C151 C 0.87262 0.35556 0.10665 0.0
N152 N 0.15313 0.50971 1.05465 0.0
N153 N 0.93742 0.36689 0.08095 0.0
H154 H 0.52474 0.95834 0.65905 0.0
H155 H 0.33705 0.12792 0.4692 0.0
H156 H 0.27697 0.82968 0.61333 0.0
H157 H 0.58715 0.24454 0.50527 0.0
H158 H 0.30876 0.02877 0.53154 0.0
H159 H 0.54709 0.07205 0.60891 0.0
C160 C 0.47554 0.95333 0.63794 0.0
C161 C 0.39906 0.88405 0.64041 0.0
C162 C 0.36966 0.07861 0.52725 0.0
C163 C 0.4232 0.01484 0.58412 0.0
C164 C 0.38536 0.13651 0.49241 0.0
C165 C 0.46456 0.19886 0.48382 0.0
C166 C 0.43399 0.08228 0.55313 0.0
C167 C 0.52526 0.2032 0.51317 0.0
C168 C 0.48785 0.01872 0.60985 0.0
C169 C 0.33704 0.88183 0.61281 0.0
N170 N 0.50925 0.14561 0.54582 0.0
N171 N 0.35037 0.94601 0.5861 0.0
H172 H 0.61668 0.57943 0.17895 0.0
H173 H 0.45684 0.57364 0.93483 0.0
H174 H 0.43624 0.35578 0.11745 0.0
H175 H 0.47024 0.76002 1.02646 0.0
H176 H 0.46271 0.50095 1.00119 0.0
H177 H 0.57629 0.6534 0.1259 0.0
C178 C 0.56824 0.54573 0.1544 0.0
C179 C 0.5311 0.4611 0.15179 0.0
C180 C 0.46339 0.55714 1.00717 0.0
C181 C 0.48462 0.54594 0.09136 0.0
C182 C 0.46063 0.59998 0.96901 0.0
C183 C 0.46179 0.6738 0.97442 0.0
C184 C 0.47159 0.58889 1.05203 0.0
C185 C 0.46799 0.7032 1.02035 0.0
C186 C 0.54461 0.58817 0.1247 0.0
C187 C 0.46737 0.4208 0.12023 0.0
N188 N 0.47437 0.66129 1.05757 0.0
N189 N 0.44747 0.46371 0.09051 0.0
H190 H 0.7127 0.33703 0.50498 0.0
H191 H 0.14003 0.45526 0.60801 0.0
H192 H 0.83676 0.21042 0.46943 0.0
H193 H -0.00316 0.5544 0.66135 0.0
H194 H 0.02804 0.36363 0.55863 0.0
H195 H 0.80615 0.40551 0.56784 0.0
C196 C 0.75474 0.31761 0.51327 0.0
C197 C 0.76178 0.26268 0.48389 0.0
C198 C 0.02085 0.40541 0.58093 0.0
C199 C 0.87868 0.35036 0.5525 0.0
C200 C 0.08521 0.45863 0.60889 0.0
C201 C 0.07817 0.51313 0.63897 0.0
C202 C 0.94816 0.40627 0.58253 0.0
C203 C 0.00555 0.51439 0.63835 0.0
C204 C 0.81139 0.36013 0.54796 0.0
C205 C 0.82637 0.24936 0.49242 0.0
N206 N 0.94328 0.46154 0.61069 0.0
N207 N 0.88301 0.29382 0.52534 0.0
H208 H 0.58253 0.96041 0.37088 0.0
H209 H 0.72057 0.68026 0.23958 0.0
H210 H 0.71913 0.02633 0.24145 0.0
H211 H 0.56941 0.6071 0.36345 0.0
H212 H 0.72369 0.80873 0.241 0.0
H213 H 0.5812 0.83268 0.37021 0.0
C214 C 0.61249 0.94834 0.34234 0.0
C215 C 0.65094 0.00452 0.3061 0.0
C216 C 0.68978 0.76454 0.26785 0.0
C217 C 0.64928 0.85778 0.30517 0.0
C218 C 0.68788 0.69093 0.2671 0.0
C219 C 0.64448 0.63231 0.30143 0.0
C220 C 0.64835 0.7801 0.30329 0.0
C221 C 0.6035 0.65012 0.33615 0.0
C222 C 0.61151 0.87514 0.34198 0.0
C223 C 0.68865 -0.01491 0.27014 0.0
N224 N 0.60656 0.72246 0.33621 0.0
N225 N 0.68677 0.91333 0.27059 0.0
H226 H 0.02142 0.73084 0.74482 0.0
H227 H 0.58333 0.55813 0.85724 0.0
H228 H 0.93759 0.57415 0.86595 0.0
H229 H 0.67195 0.72578 0.74113 0.0
H230 H 0.7109 0.55981 0.85903 0.0
H231 H 0.8928 0.72701 0.74188 0.0
C232 C -0.02386 0.69565 0.77095 0.0
C233 C -0.00937 0.65262 0.80575 0.0
C234 C 0.70246 0.59616 0.83312 0.0
C235 C 0.8426 0.64808 0.80231 0.0
C236 C 0.62937 0.59521 0.83192 0.0
C237 C 0.61666 0.64226 0.79902 0.0
C238 C 0.76358 0.64437 0.80121 0.0
C239 C 0.67891 0.68874 0.76719 0.0
C240 C 0.90253 0.69358 0.76915 0.0
C241 C 0.92937 0.60841 0.83857 0.0
N242 N 0.74978 0.68872 0.76916 0.0
N243 N 0.85794 0.60719 0.83598 0.0
H244 H 0.29338 0.0215 0.23183 0.0
H245 H -0.00184 0.61744 0.3715 0.0
H246 H 0.3504 0.95901 0.36627 0.0
H247 H 0.94258 0.67827 0.23612 0.0
H248 H 0.12735 0.74238 0.37014 0.0
H249 H 0.16508 0.89553 0.23258 0.0
C250 C 0.27909 0.98142 0.26155 0.0
C251 C 0.33289 0.00127 0.29916 0.0
C252 C 0.08686 0.72839 0.34075 0.0
C253 C 0.18565 0.85668 0.30016 0.0
C254 C 0.01285 0.65698 0.34148 0.0
C255 C 0.95906 0.63705 0.30386 0.0
C256 C 0.10748 0.78042 0.30212 0.0
C257 C -0.01819 0.69098 0.266 0.0
C258 C 0.20569 0.90936 0.26189 0.0
C259 C 0.31106 0.94639 0.33645 0.0
N260 N 0.05431 0.76013 0.26611 0.0
N261 N 0.23901 0.87673 0.33605 0.0
H262 H 0.37144 0.35528 0.87226 0.0
H263 H 0.24175 0.94276 0.7364 0.0
H264 H 0.24199 0.28992 0.74097 0.0
H265 H 0.37314 0.00956 0.86702 0.0
H266 H 0.24109 0.06968 0.73749 0.0
H267 H 0.3719 0.22835 0.87106 0.0
C268 C 0.34299 0.31438 0.84319 0.0
C269 C 0.30658 0.33359 0.80667 0.0
C270 C 0.27006 0.05648 0.76589 0.0
C271 C 0.30716 0.18802 0.80509 0.0
C272 C 0.27043 -0.0161 0.76533 0.0
C273 C 0.30748 0.96513 0.8017 0.0
C274 C 0.30683 0.11067 0.80311 0.0
C275 C 0.34399 0.02125 0.83811 0.0
C276 C 0.34337 0.24183 0.84253 0.0
C277 C 0.27072 0.27791 0.76998 0.0
N278 N 0.34261 0.09134 0.83789 0.0
N279 N 0.27199 0.20775 0.77013 0.0
H280 H 0.27591 0.23766 0.24099 0.0
H281 H 0.00377 0.39413 0.36384 0.0
H282 H 0.34386 0.38068 0.36761 0.0
H283 H 0.93427 0.24842 0.23825 0.0
H284 H 0.12891 0.39041 0.36542 0.0
H285 H 0.15033 0.24063 0.23965 0.0
C286 C 0.26451 0.2695 0.26866 0.0
C287 C 0.32092 0.30908 0.30449 0.0
C288 C 0.08631 0.35931 0.3375 0.0
C289 C 0.17683 0.31281 0.30293 0.0
C290 C 0.01471 0.36152 0.33645 0.0
C291 C 0.95799 0.32142 0.30084 0.0
C292 C 0.10161 0.31681 0.30269 0.0
C293 C -0.02412 0.28007 0.26648 0.0
C294 C 0.19264 0.27121 0.26778 0.0
C295 C 0.3024 0.34929 0.33928 0.0
N296 N 0.0461 0.27882 0.2683 0.0
N297 N 0.23201 0.35021 0.33756 0.0
H298 H 0.95301 0.36013 0.8711 0.0
H299 H 0.67384 0.93899 0.74391 0.0
H300 H 0.01771 0.28866 0.7416 0.0
H301 H 0.60762 0.01114 0.87261 0.0
H302 H 0.80132 0.06536 0.74367 0.0
H303 H 0.82757 0.2317 0.87296 0.0
C304 C 0.941 0.31766 0.84293 0.0
C305 C -0.00369 0.33567 0.806 0.0
C306 C 0.759 0.05351 0.77202 0.0
C307 C 0.85222 0.18789 0.80818 0.0
C308 C 0.68595 0.98117 0.77226 0.0
C309 C 0.6294 0.96415 0.80833 0.0
C310 C 0.77596 0.10959 0.80805 0.0
C311 C 0.64909 0.02145 0.84405 0.0
C312 C 0.8692 0.2441 0.84414 0.0
C313 C -0.02285 0.27766 0.77078 0.0
N314 N 0.72068 0.09167 0.84293 0.0
N315 N 0.90665 0.20645 0.77274 0.0
loop_
_geom_bond_atom_site_label_1
_geom_bond_atom_site_label_2
_geom_bond_distance
_geom_bond_site_symmetry_2
_ccdc_geom_bond_type
C0 O26 1.283 . S
C0 O44 1.283 . S
C1 O27 1.283 . S
C1 O42 1.283 . S
C2 O28 1.283 . S
C2 O45 1.283 . S
C3 O29 1.283 . S
C3 O43 1.283 . S
C4 O30 1.283 . S
C4 O39 1.283 . S
C5 O31 1.283 . S
C5 O41 1.283 . S
C6 O32 1.283 . S
C6 O38 1.283 . S
C7 O33 1.283 . S
C7 O40 1.283 . S
C8 O34 1.283 . S
C8 O49 1.283 . S
C9 O35 1.283 . S
C9 O47 1.283 . S
C10 O36 1.283 . S
C10 O48 1.283 . S
C11 O37 1.283 . S
C11 O46 1.283 . S
Eu12 O13 2.370 . S
Eu12 O14 2.370 . S
Eu12 O17 2.370 . S
Eu12 O18 2.370 . S
Eu12 O26 2.363 . S
Eu12 O27 2.363 . S
Eu12 O40 2.363 . S
Eu12 O41 2.363 . S
O13 Eu12 2.370 . S
O13 Eu15 2.370 . S
O13 Eu20 2.370 . S
O14 Eu12 2.370 . S
O14 Eu16 2.370 . S
O14 Eu19 2.370 . S
Eu15 O13 2.370 . S
Eu15 O17 2.370 . S
Eu15 O21 2.370 . S
Eu15 O22 2.370 . S
Eu15 O30 2.363 . S
Eu15 O31 2.363 . S
Eu15 O46 2.363 . S
Eu15 O47 2.363 . S
Eu16 O14 2.370 . S
Eu16 O18 2.370 . S
Eu16 O23 2.370 . S
Eu16 O24 2.370 . S
Eu16 O32 2.363 . S
Eu16 O33 2.363 . S
Eu16 O48 2.363 . S
Eu16 O49 2.363 . S
O17 Eu12 2.370 . S
O17 Eu15 2.370 . S
O17 Eu19 2.370 . S
O18 Eu12 2.370 . S
O18 Eu16 2.370 . S
O18 Eu20 2.370 . S
Eu19 O14 2.370 . S
Eu19 O17 2.370 . S
Eu19 O21 2.370 . S
Eu19 O24 2.370 . S
Eu19 O36 2.363 . S
Eu19 O37 2.363 . S
Eu19 O44 2.363 . S
Eu19 O45 2.363 . S
Eu20 O13 2.370 . S
Eu20 O18 2.370 . S
Eu20 O22 2.370 . S
Eu20 O23 2.370 . S
Eu20 O34 2.363 . S
Eu20 O35 2.363 . S
Eu20 O42 2.363 . S
Eu20 O43 2.363 . S
O21 Eu15 2.370 . S
O21 Eu19 2.370 . S
O21 Eu25 2.370 . S
O22 Eu15 2.370 . S
O22 Eu20 2.370 . S
O22 Eu25 2.370 . S
O23 Eu16 2.370 . S
O23 Eu20 2.370 . S
O23 Eu25 2.370 . S
O24 Eu16 2.370 . S
O24 Eu19 2.370 . S
O24 Eu25 2.370 . S
Eu25 O21 2.370 . S
Eu25 O22 2.370 . S
Eu25 O23 2.370 . S
Eu25 O24 2.370 . S
Eu25 O28 2.363 . S
Eu25 O29 2.363 . S
Eu25 O38 2.363 . S
Eu25 O39 2.363 . S
O26 C0 1.283 . S
O26 Eu12 2.363 . S
O27 C1 1.283 . S
O27 Eu12 2.363 . S
O28 C2 1.283 . S
O28 Eu25 2.363 . S
O29 C3 1.283 . S
O29 Eu25 2.363 . S
O30 C4 1.283 . S
O30 Eu15 2.363 . S
O31 C5 1.283 . S
O31 Eu15 2.363 . S
O32 C6 1.283 . S
O32 Eu16 2.363 . S
O33 C7 1.283 . S
O33 Eu16 2.363 . S
O34 C8 1.283 . S
O34 Eu20 2.363 . S
O35 C9 1.283 . S
O35 Eu20 2.363 . S
O36 C10 1.283 . S
O36 Eu19 2.363 . S
O37 C11 1.283 . S
O37 Eu19 2.363 . S
O38 C6 1.283 . S
O38 Eu25 2.363 . S
O39 C4 1.283 . S
O39 Eu25 2.363 . S
O40 C7 1.283 . S
O40 Eu12 2.363 . S
O41 C5 1.283 . S
O41 Eu12 2.363 . S
O42 C1 1.283 . S
O42 Eu20 2.363 . S
O43 C3 1.283 . S
O43 Eu20 2.363 . S
O44 C0 1.283 . S
O44 Eu19 2.363 . S
O45 C2 1.283 . S
O45 Eu19 2.363 . S
O46 C11 1.283 . S
O46 Eu15 2.363 . S
O47 C9 1.283 . S
O47 Eu15 2.363 . S
O48 C10 1.283 . S
O48 Eu16 2.363 . S
O49 C8 1.283 . S
O49 Eu16 2.363 . S
C50 O76 1.283 . S
C50 O94 1.283 . S
C51 O77 1.283 . S
C51 O92 1.283 . S
C52 O78 1.283 . S
C52 O95 1.283 . S
C53 O79 1.283 . S
C53 O93 1.283 . S
C54 O80 1.283 . S
C54 O89 1.283 . S
C55 O81 1.283 . S
C55 O91 1.283 . S
C56 O82 1.283 . S
C56 O88 1.283 . S
C57 O83 1.283 . S
C57 O90 1.283 . S
C58 O84 1.283 . S
C58 O99 1.283 . S
C59 O85 1.283 . S
C59 O97 1.283 . S
C60 O86 1.283 . S
C60 O98 1.283 . S
C61 O87 1.283 . S
C61 O96 1.283 . S
Eu62 O63 2.370 . S
Eu62 O64 2.370 . S
Eu62 O67 2.370 . S
Eu62 O68 2.370 . S
Eu62 O76 2.363 . S
Eu62 O77 2.363 . S
Eu62 O90 2.363 . S
Eu62 O91 2.363 . S
O63 Eu62 2.370 . S
O63 Eu65 2.370 . S
O63 Eu70 2.370 . S
O64 Eu62 2.370 . S
O64 Eu66 2.370 . S
O64 Eu69 2.370 . S
Eu65 O63 2.370 . S
Eu65 O67 2.370 . S
Eu65 O71 2.370 . S
Eu65 O72 2.370 . S
Eu65 O80 2.363 . S
Eu65 O81 2.363 . S
Eu65 O96 2.363 . S
Eu65 O97 2.363 . S
Eu66 O64 2.370 . S
Eu66 O68 2.370 . S
Eu66 O73 2.370 . S
Eu66 O74 2.370 . S
Eu66 O82 2.363 . S
Eu66 O83 2.363 . S
Eu66 O98 2.363 . S
Eu66 O99 2.363 . S
O67 Eu62 2.370 . S
O67 Eu65 2.370 . S
O67 Eu69 2.370 . S
O68 Eu62 2.370 . S
O68 Eu66 2.370 . S
O68 Eu70 2.370 . S
Eu69 O64 2.370 . S
Eu69 O67 2.370 . S
Eu69 O71 2.370 . S
Eu69 O74 2.370 . S
Eu69 O86 2.363 . S
Eu69 O87 2.363 . S
Eu69 O94 2.363 . S
Eu69 O95 2.363 . S
Eu70 O63 2.370 . S
Eu70 O68 2.370 . S
Eu70 O72 2.370 . S
Eu70 O73 2.370 . S
Eu70 O84 2.363 . S
Eu70 O85 2.363 . S
Eu70 O92 2.363 . S
Eu70 O93 2.363 . S
O71 Eu65 2.370 . S
O71 Eu69 2.370 . S
O71 Eu75 2.370 . S
O72 Eu65 2.370 . S
O72 Eu70 2.370 . S
O72 Eu75 2.370 . S
O73 Eu66 2.370 . S
O73 Eu70 2.370 . S
O73 Eu75 2.370 . S
O74 Eu66 2.370 . S
O74 Eu69 2.370 . S
O74 Eu75 2.370 . S
Eu75 O71 2.370 . S
Eu75 O72 2.370 . S
Eu75 O73 2.370 . S
Eu75 O74 2.370 . S
Eu75 O78 2.363 . S
Eu75 O79 2.363 . S
Eu75 O88 2.363 . S
Eu75 O89 2.363 . S
O76 C50 1.283 . S
O76 Eu62 2.363 . S
O77 C51 1.283 . S
O77 Eu62 2.363 . S
O78 C52 1.283 . S
O78 Eu75 2.363 . S
O79 C53 1.283 . S
O79 Eu75 2.363 . S
O80 C54 1.283 . S
O80 Eu65 2.363 . S
O81 C55 1.283 . S
O81 Eu65 2.363 . S
O82 C56 1.283 . S
O82 Eu66 2.363 . S
O83 C57 1.283 . S
O83 Eu66 2.363 . S
O84 C58 1.283 . S
O84 Eu70 2.363 . S
O85 C59 1.283 . S
O85 Eu70 2.363 . S
O86 C60 1.283 . S
O86 Eu69 2.363 . S
O87 C61 1.283 . S
O87 Eu69 2.363 . S
O88 C56 1.283 . S
O88 Eu75 2.363 . S
O89 C54 1.283 . S
O89 Eu75 2.363 . S
O90 C57 1.283 . S
O90 Eu62 2.363 . S
O91 C55 1.283 . S
O91 Eu62 2.363 . S
O92 C51 1.283 . S
O92 Eu70 2.363 . S
O93 C53 1.283 . S
O93 Eu70 2.363 . S
O94 C50 1.283 . S
O94 Eu69 2.363 . S
O95 C52 1.283 . S
O95 Eu69 2.363 . S
O96 C61 1.283 . S
O96 Eu65 2.363 . S
O97 C59 1.283 . S
O97 Eu65 2.363 . S
O98 C60 1.283 . S
O98 Eu66 2.363 . S
O99 C58 1.283 . S
O99 Eu66 2.363 . S
H100 C106 0.930 . S
H101 C110 0.930 . S
H102 C115 0.929 . S
H103 C113 0.929 . S
H104 C108 0.937 . S
H105 C114 0.929 . S
C106 H100 0.930 . S
C106 C107 1.367 . S
C106 C114 1.378 . S
C107 C106 1.367 . S
C107 C115 1.433 . S
C108 H104 0.937 . S
C108 C110 1.373 1_565 S
C108 C112 1.346 . S
C109 C112 1.463 1_556 S
C109 C114 1.350 . S
C109 N117 1.427 . S
C110 H101 0.930 . S
C110 C108 1.373 1_545 S
C110 C111 1.367 . S
C111 C110 1.367 . S
C111 C113 1.433 . S
C112 C108 1.346 . S
C112 C109 1.463 1_554 S
C112 N116 1.427 1_565 S
C113 H103 0.929 . S
C113 C111 1.433 . S
C113 N116 1.384 . S
C114 H105 0.929 . S
C114 C106 1.378 . S
C114 C109 1.350 . S
C115 H102 0.929 . S
C115 C107 1.433 . S
C115 N117 1.384 . S
N116 C112 1.427 1_545 S
N116 C113 1.384 . S
N117 C109 1.427 . S
N117 C115 1.384 . S
H118 C124 0.930 . S
H119 C128 0.930 . S
H120 C133 0.929 . S
H121 C131 0.929 . S
H122 C126 0.929 . S
H123 C132 0.929 . S
C124 H118 0.930 . S
C124 C125 1.367 . S
C124 C132 1.378 . S
C125 C124 1.367 . S
C125 C133 1.433 . S
C126 H122 0.929 . S
C126 C128 1.378 . S
C126 C130 1.350 . S
C127 C130 1.463 . S
C127 C132 1.350 . S
C127 N135 1.427 . S
C128 H119 0.930 . S
C128 C126 1.378 . S
C128 C129 1.367 . S
C129 C128 1.367 . S
C129 C131 1.433 . S
C130 C126 1.350 . S
C130 C127 1.463 . S
C130 N134 1.427 . S
C131 H121 0.929 . S
C131 C129 1.433 . S
C131 N134 1.384 . S
C132 H123 0.929 . S
C132 C124 1.378 . S
C132 C127 1.350 . S
C133 H120 0.929 . S
C133 C125 1.433 . S
C133 N135 1.384 . S
N134 C130 1.427 . S
N134 C131 1.384 . S
N135 C127 1.427 . S
N135 C133 1.384 . S
H136 C142 0.930 . S
H137 C146 0.930 . S
H138 C151 0.929 . S
H139 C149 0.929 . S
H140 C144 0.929 . S
H141 C150 0.929 . S
C142 H136 0.930 . S
C142 C143 1.367 . S
C142 C150 1.378 1_655 S
C143 C142 1.367 . S
C143 C151 1.433 . S
C144 H140 0.929 . S
C144 C146 1.378 . S
C144 C148 1.350 . S
C145 C148 1.463 1_554 S
C145 C150 1.350 . S
C145 N153 1.427 1_455 S
C146 H137 0.930 . S
C146 C144 1.378 . S
C146 C147 1.367 . S
C147 C146 1.367 . S
C147 C149 1.433 . S
C148 C144 1.350 . S
C148 C145 1.463 1_556 S
C148 N152 1.427 . S
C149 H139 0.929 . S
C149 C147 1.433 . S
C149 N152 1.384 . S
C150 H141 0.929 . S
C150 C142 1.378 1_455 S
C150 C145 1.350 . S
C151 H138 0.929 . S
C151 C143 1.433 . S
C151 N153 1.384 . S
N152 C148 1.427 . S
N152 C149 1.384 . S
N153 C145 1.427 1_655 S
N153 C151 1.384 . S
H154 C160 0.930 . S
H155 C164 0.930 . S
H156 C169 0.929 . S
H157 C167 0.929 . S
H158 C162 0.929 . S
H159 C168 0.929 1_545 S
C160 H154 0.930 . S
C160 C161 1.367 . S
C160 C168 1.378 . S
C161 C160 1.367 . S
C161 C169 1.433 . S
C162 H158 0.929 . S
C162 C164 1.378 . S
C162 C166 1.350 . S
C163 C166 1.463 . S
C163 C168 1.350 1_545 S
C163 N171 1.427 1_545 S
C164 H155 0.930 . S
C164 C162 1.378 . S
C164 C165 1.367 . S
C165 C164 1.367 . S
C165 C167 1.433 . S
C166 C162 1.350 . S
C166 C163 1.463 . S
C166 N170 1.427 . S
C167 H157 0.929 . S
C167 C165 1.433 . S
C167 N170 1.384 . S
C168 H159 0.929 1_565 S
C168 C160 1.378 . S
C168 C163 1.350 1_565 S
C169 H156 0.929 . S
C169 C161 1.433 . S
C169 N171 1.384 . S
N170 C166 1.427 . S
N170 C167 1.384 . S
N171 C163 1.427 1_565 S
N171 C169 1.384 . S
H172 C178 0.930 . S
H173 C182 0.930 . S
H174 C187 0.929 . S
H175 C185 0.929 . S
H176 C180 0.929 . S
H177 C186 0.929 . S
C178 H172 0.930 . S
C178 C179 1.367 . S
C178 C186 1.378 . S
C179 C178 1.367 . S
C179 C187 1.433 . S
C180 H176 0.929 . S
C180 C182 1.378 . S
C180 C184 1.350 . S
C181 C184 1.463 1_554 S
C181 C186 1.350 . S
C181 N189 1.427 . S
C182 H173 0.930 . S
C182 C180 1.378 . S
C182 C183 1.367 . S
C183 C182 1.367 . S
C183 C185 1.433 . S
C184 C180 1.350 . S
C184 C181 1.463 1_556 S
C184 N188 1.427 . S
C185 H175 0.929 . S
C185 C183 1.433 . S
C185 N188 1.384 . S
C186 H177 0.929 . S
C186 C178 1.378 . S
C186 C181 1.350 . S
C187 H174 0.929 . S
C187 C179 1.433 . S
C187 N189 1.384 . S
N188 C184 1.427 . S
N188 C185 1.384 . S
N189 C181 1.427 . S
N189 C187 1.384 . S
H190 C196 0.930 . S
H191 C200 0.930 . S
H192 C205 0.929 . S
H193 C203 0.929 . S
H194 C198 0.929 . S
H195 C204 0.929 . S
C196 H190 0.930 . S
C196 C197 1.367 . S
C196 C204 1.378 . S
C197 C196 1.367 . S
C197 C205 1.433 . S
C198 H194 0.929 . S
C198 C200 1.378 . S
C198 C202 1.350 1_455 S
C199 C202 1.463 . S
C199 C204 1.350 . S
C199 N207 1.427 . S
C200 H191 0.930 . S
C200 C198 1.378 . S
C200 C201 1.367 . S
C201 C200 1.367 . S
C201 C203 1.433 . S
C202 C198 1.350 1_655 S
C202 C199 1.463 . S
C202 N206 1.427 1_655 S
C203 H193 0.929 . S
C203 C201 1.433 . S
C203 N206 1.384 . S
C204 H195 0.929 . S
C204 C196 1.378 . S
C204 C199 1.350 . S
C205 H192 0.929 . S
C205 C197 1.433 . S
C205 N207 1.384 . S
N206 C202 1.427 1_455 S
N206 C203 1.384 . S
N207 C199 1.427 . S
N207 C205 1.384 . S
H208 C214 0.930 1_545 S
H209 C218 0.930 . S
H210 C223 0.929 1_545 S
H211 C221 0.929 . S
H212 C216 0.929 . S
H213 C222 0.929 . S
C214 H208 0.930 1_565 S
C214 C215 1.367 1_565 S
C214 C222 1.378 . S
C215 C214 1.367 1_545 S
C215 C223 1.433 1_545 S
C216 H212 0.929 . S
C216 C218 1.378 . S
C216 C220 1.350 . S
C217 C220 1.463 . S
C217 C222 1.350 . S
C217 N225 1.427 . S
C218 H209 0.930 . S
C218 C216 1.378 . S
C218 C219 1.367 . S
C219 C218 1.367 . S
C219 C221 1.433 . S
C220 C216 1.350 . S
C220 C217 1.463 . S
C220 N224 1.427 . S
C221 H211 0.929 . S
C221 C219 1.433 . S
C221 N224 1.384 . S
C222 H213 0.929 . S
C222 C214 1.378 . S
C222 C217 1.350 . S
C223 H210 0.929 1_565 S
C223 C215 1.433 1_565 S
C223 N225 1.384 . S
N224 C220 1.427 . S
N224 C221 1.384 . S
N225 C217 1.427 . S
N225 C223 1.384 . S
H226 C232 0.930 . S
H227 C236 0.930 . S
H228 C241 0.929 . S
H229 C239 0.929 . S
H230 C234 0.929 . S
H231 C240 0.929 . S
C232 H226 0.930 . S
C232 C233 1.367 1_655 S
C232 C240 1.378 . S
C233 C232 1.367 1_455 S
C233 C241 1.433 . S
C234 H230 0.929 . S
C234 C236 1.378 . S
C234 C238 1.350 . S
C235 C238 1.463 . S
C235 C240 1.350 . S
C235 N243 1.427 . S
C236 H227 0.930 . S
C236 C234 1.378 . S
C236 C237 1.367 . S
C237 C236 1.367 . S
C237 C239 1.433 . S
C238 C234 1.350 . S
C238 C235 1.463 . S
C238 N242 1.427 . S
C239 H229 0.929 . S
C239 C237 1.433 . S
C239 N242 1.384 . S
C240 H231 0.929 . S
C240 C232 1.378 . S
C240 C235 1.350 . S
C241 H228 0.929 . S
C241 C233 1.433 . S
C241 N243 1.384 1_455 S
N242 C238 1.427 . S
N242 C239 1.384 . S
N243 C235 1.427 . S
N243 C241 1.384 1_655 S
H244 C250 0.930 . S
H245 C254 0.926 1_655 S
H246 C259 0.929 1_545 S
H247 C257 0.929 1_655 S
H248 C252 0.929 . S
H249 C258 0.929 . S
C250 H244 0.930 . S
C250 C251 1.369 . S
C250 C258 1.378 . S
C251 C250 1.369 . S
C251 C259 1.434 . S
C252 H248 0.929 . S
C252 C254 1.385 . S
C252 C256 1.350 . S
C253 C256 1.463 . S
C253 C258 1.350 . S
C253 N261 1.427 . S
C254 H245 0.926 1_455 S
C254 C252 1.385 . S
C254 C255 1.364 1_455 S
C255 C254 1.364 1_655 S
C255 C257 1.433 1_655 S
C256 C252 1.350 . S
C256 C253 1.463 . S
C256 N260 1.427 . S
C257 H247 0.929 1_455 S
C257 C255 1.433 1_455 S
C257 N260 1.384 . S
C258 H249 0.929 . S
C258 C250 1.378 . S
C258 C253 1.350 . S
C259 H246 0.929 1_565 S
C259 C251 1.434 . S
C259 N261 1.384 . S
N260 C256 1.427 . S
N260 C257 1.384 . S
N261 C253 1.427 . S
N261 C259 1.384 . S
H262 C268 0.930 . S
H263 C272 0.930 . S
H264 C277 0.929 . S
H265 C275 0.929 . S
H266 C270 0.929 . S
H267 C276 0.929 . S
C268 H262 0.930 . S
C268 C269 1.367 . S
C268 C276 1.378 . S
C269 C268 1.367 . S
C269 C277 1.433 . S
C270 H266 0.929 . S
C270 C272 1.378 . S
C270 C274 1.350 . S
C271 C274 1.463 . S
C271 C276 1.350 . S
C271 N279 1.427 . S
C272 H263 0.930 . S
C272 C270 1.378 . S
C272 C273 1.367 . S
C273 C272 1.367 . S
C273 C275 1.433 1_545 S
C274 C270 1.350 . S
C274 C271 1.463 . S
C274 N278 1.427 . S
C275 H265 0.929 . S
C275 C273 1.433 1_565 S
C275 N278 1.384 1_565 S
C276 H267 0.929 . S
C276 C268 1.378 . S
C276 C271 1.350 . S
C277 H264 0.929 . S
C277 C269 1.433 . S
C277 N279 1.384 . S
N278 C274 1.427 . S
N278 C275 1.384 1_545 S
N279 C271 1.427 . S
N279 C277 1.384 . S
H280 C286 0.930 . S
H281 C290 0.930 . S
H282 C295 0.929 . S
H283 C293 0.929 1_655 S
H284 C288 0.929 . S
H285 C294 0.929 . S
C286 H280 0.930 . S
C286 C287 1.367 . S
C286 C294 1.378 . S
C287 C286 1.367 . S
C287 C295 1.433 . S
C288 H284 0.929 . S
C288 C290 1.378 . S
C288 C292 1.350 . S
C289 C292 1.463 . S
C289 C294 1.350 . S
C289 N297 1.427 . S
C290 H281 0.930 . S
C290 C288 1.378 . S
C290 C291 1.370 . S
C291 C290 1.370 . S
C291 C293 1.436 . S
C292 C288 1.350 . S
C292 C289 1.463 . S
C292 N296 1.427 . S
C293 H283 0.929 1_455 S
C293 C291 1.436 . S
C293 N296 1.384 . S
C294 H285 0.929 . S
C294 C286 1.378 . S
C294 C289 1.350 . S
C295 H282 0.929 . S
C295 C287 1.433 . S
C295 N297 1.384 . S
N296 C292 1.427 . S
N296 C293 1.384 . S
N297 C289 1.427 . S
N297 C295 1.384 . S
H298 C304 0.930 . S
H299 C308 0.930 . S
H300 C313 0.929 1_455 S
H301 C311 0.929 1_565 S
H302 C306 0.929 . S
H303 C312 0.929 . S
C304 H298 0.930 . S
C304 C305 1.373 . S
C304 C312 1.378 . S
C305 C304 1.373 . S
C305 C313 1.431 . S
C306 H302 0.929 . S
C306 C308 1.378 1_545 S
C306 C310 1.350 . S
C307 C310 1.463 . S
C307 C312 1.350 . S
C307 N315 1.427 . S
C308 H299 0.930 . S
C308 C306 1.378 1_565 S
C308 C309 1.367 . S
C309 C308 1.367 . S
C309 C311 1.433 1_565 S
C310 C306 1.350 . S
C310 C307 1.463 . S
C310 N314 1.427 . S
C311 H301 0.929 1_545 S
C311 C309 1.433 1_545 S
C311 N314 1.384 . S
C312 H303 0.929 . S
C312 C304 1.378 . S
C312 C307 1.350 . S
C313 H300 0.929 1_655 S
C313 C305 1.431 . S
C313 N315 1.384 . S
N314 C310 1.427 . S
N314 C311 1.384 . S
N315 C307 1.427 . S
N315 C313 1.384 . S
C107 C54 1.836 . S
C111 C5 1.962 . S
C125 C57 1.956 . S
C129 C6 1.822 . S
C143 C1 1.961 . S
C147 C61 1.835 . S
C161 C58 1.962 . S
C165 C2 1.837 . S
C179 C9 1.954 . S
C183 C52 1.820 . S
C197 C10 1.820 . S
C201 C51 1.954 . S
C215 C0 1.124 . S
C219 C3 1.124 . S
C233 C59 1.121 . S
C237 C60 1.121 . S
C251 C11 1.121 1_565 S
C255 C8 1.125 . S
C269 C50 1.128 . S
C273 C53 1.128 1_545 S
C287 C4 1.125 . S
C291 C7 1.118 1_455 S
C305 C55 1.120 1_655 S
C309 C56 1.126 . S
