# Generated by pormake.
# Topology ech, (8)-cn, num edge types: 1
# Building blocks:
#     Node 0, Type 0, BuildingBlock: AJUNOK_clean_sbu_0, # of connection points: 8
#     Node 1, Type 0, BuildingBlock: AJUNOK_clean_sbu_0, # of connection points: 8
#     Node 2, Type 0, BuildingBlock: AJUNOK_clean_sbu_0, # of connection points: 8
#     Node 3, Type 0, BuildingBlock: AJUNOK_clean_sbu_0, # of connection points: 8
#     Node 4, Type 0, BuildingBlock: AJUNOK_clean_sbu_0, # of connection points: 8
#     Node 5, Type 0, BuildingBlock: AJUNOK_clean_sbu_0, # of connection points: 8
#     Node 6, Type 0, BuildingBlock: AJUNOK_clean_sbu_0, # of connection points: 8
#     Node 7, Type 0, BuildingBlock: AJUNOK_clean_sbu_0, # of connection points: 8
#     Node 8, Type 0, BuildingBlock: AJUNOK_clean_sbu_0, # of connection points: 8
#     Node 9, Type 0, BuildingBlock: AJUNOK_clean_sbu_0, # of connection points: 8
#     Node 10, Type 0, BuildingBlock: AJUNOK_clean_sbu_0, # of connection points: 8
#     Node 11, Type 0, BuildingBlock: AJUNOK_clean_sbu_0, # of connection points: 8
#     Node 12, Type 0, BuildingBlock: AJUNOK_clean_sbu_0, # of connection points: 8
#     Node 13, Type 0, BuildingBlock: AJUNOK_clean_sbu_0, # of connection points: 8
#     Node 14, Type 0, BuildingBlock: AJUNOK_clean_sbu_0, # of connection points: 8
#     Node 15, Type 0, BuildingBlock: AJUNOK_clean_sbu_0, # of connection points: 8
#     Node 16, Type 0, BuildingBlock: AJUNOK_clean_sbu_0, # of connection points: 8
#     Node 17, Type 0, BuildingBlock: AJUNOK_clean_sbu_0, # of connection points: 8
#     Node 18, Type 0, BuildingBlock: AJUNOK_clean_sbu_0, # of connection points: 8
#     Node 19, Type 0, BuildingBlock: AJUNOK_clean_sbu_0, # of connection points: 8
#     Node 20, Type 0, BuildingBlock: AJUNOK_clean_sbu_0, # of connection points: 8
#     Node 21, Type 0, BuildingBlock: AJUNOK_clean_sbu_0, # of connection points: 8
#     Node 22, Type 0, BuildingBlock: AJUNOK_clean_sbu_0, # of connection points: 8
#     Node 23, Type 0, BuildingBlock: AJUNOK_clean_sbu_0, # of connection points: 8
#     Edge 24, Type (0, 0), BuildingBlock: AJUNOK_clean_linker_0, # of connection points: 2
#     Edge 25, Type (0, 0), BuildingBlock: AJUNOK_clean_linker_0, # of connection points: 2
#     Edge 26, Type (0, 0), BuildingBlock: AJUNOK_clean_linker_0, # of connection points: 2
#     Edge 27, Type (0, 0), BuildingBlock: AJUNOK_clean_linker_0, # of connection points: 2
#     Edge 28, Type (0, 0), BuildingBlock: AJUNOK_clean_linker_0, # of connection points: 2
#     Edge 29, Type (0, 0), BuildingBlock: AJUNOK_clean_linker_0, # of connection points: 2
#     Edge 30, Type (0, 0), BuildingBlock: AJUNOK_clean_linker_0, # of connection points: 2
#     Edge 31, Type (0, 0), BuildingBlock: AJUNOK_clean_linker_0, # of connection points: 2
#     Edge 32, Type (0, 0), BuildingBlock: AJUNOK_clean_linker_0, # of connection points: 2
#     Edge 33, Type (0, 0), BuildingBlock: AJUNOK_clean_linker_0, # of connection points: 2
#     Edge 34, Type (0, 0), BuildingBlock: AJUNOK_clean_linker_0, # of connection points: 2
#     Edge 35, Type (0, 0), BuildingBlock: AJUNOK_clean_linker_0, # of connection points: 2
#     Edge 36, Type (0, 0), BuildingBlock: AJUNOK_clean_linker_0, # of connection points: 2
#     Edge 37, Type (0, 0), BuildingBlock: AJUNOK_clean_linker_0, # of connection points: 2
#     Edge 38, Type (0, 0), BuildingBlock: AJUNOK_clean_linker_0, # of connection points: 2
#     Edge 39, Type (0, 0), BuildingBlock: AJUNOK_clean_linker_0, # of connection points: 2
#     Edge 40, Type (0, 0), BuildingBlock: AJUNOK_clean_linker_0, # of connection points: 2
#     Edge 41, Type (0, 0), BuildingBlock: AJUNOK_clean_linker_0, # of connection points: 2
#     Edge 42, Type (0, 0), BuildingBlock: AJUNOK_clean_linker_0, # of connection points: 2
#     Edge 43, Type (0, 0), BuildingBlock: AJUNOK_clean_linker_0, # of connection points: 2
#     Edge 44, Type (0, 0), BuildingBlock: AJUNOK_clean_linker_0, # of connection points: 2
#     Edge 45, Type (0, 0), BuildingBlock: AJUNOK_clean_linker_0, # of connection points: 2
#     Edge 46, Type (0, 0), BuildingBlock: AJUNOK_clean_linker_0, # of connection points: 2
#     Edge 47, Type (0, 0), BuildingBlock: AJUNOK_clean_linker_0, # of connection points: 2
#     Edge 48, Type (0, 0), BuildingBlock: AJUNOK_clean_linker_0, # of connection points: 2
#     Edge 49, Type (0, 0), BuildingBlock: AJUNOK_clean_linker_0, # of connection points: 2
#     Edge 50, Type (0, 0), BuildingBlock: AJUNOK_clean_linker_0, # of connection points: 2
#     Edge 51, Type (0, 0), BuildingBlock: AJUNOK_clean_linker_0, # of connection points: 2
#     Edge 52, Type (0, 0), BuildingBlock: AJUNOK_clean_linker_0, # of connection points: 2
#     Edge 53, Type (0, 0), BuildingBlock: AJUNOK_clean_linker_0, # of connection points: 2
#     Edge 54, Type (0, 0), BuildingBlock: AJUNOK_clean_linker_0, # of connection points: 2
#     Edge 55, Type (0, 0), BuildingBlock: AJUNOK_clean_linker_0, # of connection points: 2
#     Edge 56, Type (0, 0), BuildingBlock: AJUNOK_clean_linker_0, # of connection points: 2
#     Edge 57, Type (0, 0), BuildingBlock: AJUNOK_clean_linker_0, # of connection points: 2
#     Edge 58, Type (0, 0), BuildingBlock: AJUNOK_clean_linker_0, # of connection points: 2
#     Edge 59, Type (0, 0), BuildingBlock: AJUNOK_clean_linker_0, # of connection points: 2
#     Edge 60, Type (0, 0), BuildingBlock: AJUNOK_clean_linker_0, # of connection points: 2
#     Edge 61, Type (0, 0), BuildingBlock: AJUNOK_clean_linker_0, # of connection points: 2
#     Edge 62, Type (0, 0), BuildingBlock: AJUNOK_clean_linker_0, # of connection points: 2
#     Edge 63, Type (0, 0), BuildingBlock: AJUNOK_clean_linker_0, # of connection points: 2
#     Edge 64, Type (0, 0), BuildingBlock: AJUNOK_clean_linker_0, # of connection points: 2
#     Edge 65, Type (0, 0), BuildingBlock: AJUNOK_clean_linker_0, # of connection points: 2
#     Edge 66, Type (0, 0), BuildingBlock: AJUNOK_clean_linker_0, # of connection points: 2
#     Edge 67, Type (0, 0), BuildingBlock: AJUNOK_clean_linker_0, # of connection points: 2
#     Edge 68, Type (0, 0), BuildingBlock: AJUNOK_clean_linker_0, # of connection points: 2
#     Edge 69, Type (0, 0), BuildingBlock: AJUNOK_clean_linker_0, # of connection points: 2
#     Edge 70, Type (0, 0), BuildingBlock: AJUNOK_clean_linker_0, # of connection points: 2
#     Edge 71, Type (0, 0), BuildingBlock: AJUNOK_clean_linker_0, # of connection points: 2
#     Edge 72, Type (0, 0), BuildingBlock: AJUNOK_clean_linker_0, # of connection points: 2
#     Edge 73, Type (0, 0), BuildingBlock: AJUNOK_clean_linker_0, # of connection points: 2
#     Edge 74, Type (0, 0), BuildingBlock: AJUNOK_clean_linker_0, # of connection points: 2
#     Edge 75, Type (0, 0), BuildingBlock: AJUNOK_clean_linker_0, # of connection points: 2
#     Edge 76, Type (0, 0), BuildingBlock: AJUNOK_clean_linker_0, # of connection points: 2
#     Edge 77, Type (0, 0), BuildingBlock: AJUNOK_clean_linker_0, # of connection points: 2
#     Edge 78, Type (0, 0), BuildingBlock: AJUNOK_clean_linker_0, # of connection points: 2
#     Edge 79, Type (0, 0), BuildingBlock: AJUNOK_clean_linker_0, # of connection points: 2
#     Edge 80, Type (0, 0), BuildingBlock: AJUNOK_clean_linker_0, # of connection points: 2
#     Edge 81, Type (0, 0), BuildingBlock: AJUNOK_clean_linker_0, # of connection points: 2
#     Edge 82, Type (0, 0), BuildingBlock: AJUNOK_clean_linker_0, # of connection points: 2
#     Edge 83, Type (0, 0), BuildingBlock: AJUNOK_clean_linker_0, # of connection points: 2
#     Edge 84, Type (0, 0), BuildingBlock: AJUNOK_clean_linker_0, # of connection points: 2
#     Edge 85, Type (0, 0), BuildingBlock: AJUNOK_clean_linker_0, # of connection points: 2
#     Edge 86, Type (0, 0), BuildingBlock: AJUNOK_clean_linker_0, # of connection points: 2
#     Edge 87, Type (0, 0), BuildingBlock: AJUNOK_clean_linker_0, # of connection points: 2
#     Edge 88, Type (0, 0), BuildingBlock: AJUNOK_clean_linker_0, # of connection points: 2
#     Edge 89, Type (0, 0), BuildingBlock: AJUNOK_clean_linker_0, # of connection points: 2
#     Edge 90, Type (0, 0), BuildingBlock: AJUNOK_clean_linker_0, # of connection points: 2
#     Edge 91, Type (0, 0), BuildingBlock: AJUNOK_clean_linker_0, # of connection points: 2
#     Edge 92, Type (0, 0), BuildingBlock: AJUNOK_clean_linker_0, # of connection points: 2
#     Edge 93, Type (0, 0), BuildingBlock: AJUNOK_clean_linker_0, # of connection points: 2
#     Edge 94, Type (0, 0), BuildingBlock: AJUNOK_clean_linker_0, # of connection points: 2
#     Edge 95, Type (0, 0), BuildingBlock: AJUNOK_clean_linker_0, # of connection points: 2
#     Edge 96, Type (0, 0), BuildingBlock: AJUNOK_clean_linker_0, # of connection points: 2
#     Edge 97, Type (0, 0), BuildingBlock: AJUNOK_clean_linker_0, # of connection points: 2
#     Edge 98, Type (0, 0), BuildingBlock: AJUNOK_clean_linker_0, # of connection points: 2
#     Edge 99, Type (0, 0), BuildingBlock: AJUNOK_clean_linker_0, # of connection points: 2
#     Edge 100, Type (0, 0), BuildingBlock: AJUNOK_clean_linker_0, # of connection points: 2
#     Edge 101, Type (0, 0), BuildingBlock: AJUNOK_clean_linker_0, # of connection points: 2
#     Edge 102, Type (0, 0), BuildingBlock: AJUNOK_clean_linker_0, # of connection points: 2
#     Edge 103, Type (0, 0), BuildingBlock: AJUNOK_clean_linker_0, # of connection points: 2
#     Edge 104, Type (0, 0), BuildingBlock: AJUNOK_clean_linker_0, # of connection points: 2
#     Edge 105, Type (0, 0), BuildingBlock: AJUNOK_clean_linker_0, # of connection points: 2
#     Edge 106, Type (0, 0), BuildingBlock: AJUNOK_clean_linker_0, # of connection points: 2
#     Edge 107, Type (0, 0), BuildingBlock: AJUNOK_clean_linker_0, # of connection points: 2
#     Edge 108, Type (0, 0), BuildingBlock: AJUNOK_clean_linker_0, # of connection points: 2
#     Edge 109, Type (0, 0), BuildingBlock: AJUNOK_clean_linker_0, # of connection points: 2
#     Edge 110, Type (0, 0), BuildingBlock: AJUNOK_clean_linker_0, # of connection points: 2
#     Edge 111, Type (0, 0), BuildingBlock: AJUNOK_clean_linker_0, # of connection points: 2
#     Edge 112, Type (0, 0), BuildingBlock: AJUNOK_clean_linker_0, # of connection points: 2
#     Edge 113, Type (0, 0), BuildingBlock: AJUNOK_clean_linker_0, # of connection points: 2
#     Edge 114, Type (0, 0), BuildingBlock: AJUNOK_clean_linker_0, # of connection points: 2
#     Edge 115, Type (0, 0), BuildingBlock: AJUNOK_clean_linker_0, # of connection points: 2
#     Edge 116, Type (0, 0), BuildingBlock: AJUNOK_clean_linker_0, # of connection points: 2
#     Edge 117, Type (0, 0), BuildingBlock: AJUNOK_clean_linker_0, # of connection points: 2
#     Edge 118, Type (0, 0), BuildingBlock: AJUNOK_clean_linker_0, # of connection points: 2
#     Edge 119, Type (0, 0), BuildingBlock: AJUNOK_clean_linker_0, # of connection points: 2
# Relax obj value: 0.309
# Max RMSD: 0.227
# Mean RMSD: 0.227
data_MOF--net-ech--node1-AJUNOK_clean_sbu_0--edge1-AJUNOK_clean_linker_0
_symmetry_space_group_name_H-M    P1
_symmetry_Int_Tables_number       1
_symmetry_cell_setting            triclinic
loop_
_symmetry_equiv_pos_as_xyz
'x, y, z'
_cell_length_a     41.045809
_cell_length_b     41.026254
_cell_length_c     41.036198
_cell_angle_alpha  90.048676
_cell_angle_beta   90.039556
_cell_angle_gamma 89.974813
loop_
_atom_site_label
_atom_site_type_symbol
_atom_site_fract_x
_atom_site_fract_y
_atom_site_fract_z
_atom_type_partial_charge
Cd0 Cd 0.15669 0.32455 0.41884 0.0
Cd1 Cd 0.12032 0.27405 0.50187 0.0
C2 C 0.11853 0.38689 0.44613 0.0
N3 N 0.11349 0.35955 0.42798 0.0
C4 C 0.06925 0.38479 0.40005 0.0
C5 C 0.07521 0.41379 0.41698 0.0
C6 C 0.0992 0.41442 0.44123 0.0
C7 C 0.08876 0.35764 0.40605 0.0
H8 H 0.13928 0.38857 0.46218 0.0
H9 H 0.08659 0.33644 0.39058 0.0
C10 C 0.10189 0.2568 0.41969 0.0
C11 C 0.14052 0.19916 0.50947 0.0
C12 C 0.15866 0.17257 0.52058 0.0
C13 C 0.19117 0.17714 0.53035 0.0
C14 C 0.20513 0.20823 0.52695 0.0
C15 C 0.18605 0.23416 0.51591 0.0
N16 N 0.15424 0.22926 0.50814 0.0
H17 H 0.11494 0.19623 0.50384 0.0
H18 H 0.19607 0.25851 0.51531 0.0
C19 C 0.05024 0.2917 0.47151 0.0
N20 N 0.07687 0.30626 0.48484 0.0
C21 C 0.05069 0.35828 0.48264 0.0
C22 C 0.02446 0.34422 0.46587 0.0
C23 C 0.02388 0.31038 0.4613 0.0
C24 C 0.07695 0.33863 0.49196 0.0
H25 H 0.04929 0.26553 0.46882 0.0
H26 H 0.09761 0.34923 0.50444 0.0
C27 C 0.18003 0.33915 0.49736 0.0
C28 C 0.17982 0.35935 0.36318 0.0
N29 N 0.1932 0.28116 0.42227 0.0
C30 C 0.21645 0.27846 0.4458 0.0
C31 C 0.24262 0.25716 0.44158 0.0
C32 C 0.24506 0.23914 0.41262 0.0
C33 C 0.2192 0.24018 0.39026 0.0
C34 C 0.19341 0.26161 0.39556 0.0
C35 C 0.09009 0.27387 0.56399 0.0
O36 O 0.11742 0.28163 0.40976 0.0
O37 O 0.10308 0.24771 0.44941 0.0
O38 O 0.16138 0.31717 0.5086 0.0
O39 O 0.18122 0.34471 0.46712 0.0
O40 O 0.16106 0.335 0.36008 0.0
O41 O 0.18894 0.36622 0.39182 0.0
O42 O 0.11443 0.29149 0.5572 0.0
O43 O 0.0813 0.25337 0.54245 0.0
H44 H 0.21617 0.29417 0.46679 0.0
H45 H 0.17482 0.2645 0.3771 0.0
H46 H 0.05215 0.38429 0.37995 0.0
H47 H 0.1051 0.4369 0.45379 0.0
H48 H 0.14672 0.14922 0.52346 0.0
H49 H 0.23013 0.21273 0.53414 0.0
H50 H 0.05146 0.38425 0.48731 0.0
H51 H 0.00331 0.29852 0.44976 0.0
H52 H 0.26183 0.25648 0.45969 0.0
H53 H 0.22022 0.2267 0.36758 0.0
Cd54 Cd 0.37329 0.72057 -0.00116 0.0
Cd55 Cd 0.3362 0.66698 0.91814 0.0
C56 C 0.44371 0.70057 0.97138 0.0
N57 N 0.41716 0.68657 0.98534 0.0
C58 C 0.44662 0.63669 0.99287 0.0
C59 C 0.47425 0.65051 0.97801 0.0
C60 C 0.47213 0.68271 0.96662 0.0
C61 C 0.41817 0.6553 0.99636 0.0
H62 H 0.44333 0.72597 0.96459 0.0
H63 H 0.39717 0.64509 0.00856 0.0
C64 C 0.31288 0.65589 0.9967 0.0
C65 C 0.26512 0.69363 0.92724 0.0
C66 C 0.23841 0.71419 0.92325 0.0
C67 C 0.24356 0.7476 0.91847 0.0
C68 C 0.27523 0.76012 0.92147 0.0
C69 C 0.3013 0.73865 0.9258 0.0
N70 N 0.29585 0.70597 0.9271 0.0
H71 H 0.26152 0.66753 0.92782 0.0
H72 H 0.32581 0.74801 0.92564 0.0
C73 C 0.3745 0.60254 0.94082 0.0
N74 N 0.3803 0.63308 0.92931 0.0
C75 C 0.43274 0.61707 0.91003 0.0
C76 C 0.42621 0.58469 0.91875 0.0
C77 C 0.39741 0.57776 0.93589 0.0
C78 C 0.40911 0.64084 0.91511 0.0
H79 H 0.35087 0.5966 0.95081 0.0
H80 H 0.41255 0.66463 0.90492 0.0
C81 C 0.39036 0.73585 0.91618 0.0
C82 C 0.40597 0.72633 0.05928 0.0
N83 N 0.3401 0.7661 0.006 0.0
C84 C 0.35452 0.7959 0.00711 0.0
C85 C 0.33737 0.82288 0.01894 0.0
C86 C 0.30511 0.81906 0.02963 0.0
C87 C 0.29037 0.78826 0.02672 0.0
C88 C 0.30847 0.7619 0.01488 0.0
C89 C 0.31107 0.63281 0.86237 0.0
O90 O 0.33215 0.67838 0.00549 0.0
O91 O 0.31135 0.64728 0.96712 0.0
O92 O 0.37494 0.71108 0.90566 0.0
O93 O 0.38972 0.74433 0.94601 0.0
O94 O 0.38092 0.70862 0.05582 0.0
O95 O 0.41404 0.74389 0.03514 0.0
O96 O 0.32722 0.65896 0.85926 0.0
O97 O 0.30634 0.62311 0.89121 0.0
H98 H 0.37991 0.79833 0.00051 0.0
H99 H 0.2979 0.73776 0.01453 0.0
H100 H 0.44706 0.61192 0.00197 0.0
H101 H 0.49219 0.69419 0.95397 0.0
H102 H 0.2143 0.70369 0.9209 0.0
H103 H 0.27996 0.78588 0.91814 0.0
H104 H 0.45474 0.62341 0.8969 0.0
H105 H 0.39116 0.55296 0.94245 0.0
H106 H 0.34953 0.84623 0.02079 0.0
H107 H 0.26575 0.78416 0.03524 0.0
Cd108 Cd 0.65631 0.16437 0.57466 0.0
Cd109 Cd 0.61892 0.2232 0.49583 0.0
C110 C 0.62285 0.09998 0.54564 0.0
N111 N 0.61551 0.12695 0.56356 0.0
C112 C 0.5697 0.10016 0.58725 0.0
C113 C 0.57807 0.07142 0.57082 0.0
C114 C 0.60419 0.07171 0.54887 0.0
C115 C 0.58907 0.12782 0.58344 0.0
H116 H 0.6449 0.09926 0.53131 0.0
H117 H 0.58471 0.14898 0.59843 0.0
C118 C 0.60237 0.2341 0.5791 0.0
C119 C 0.65246 0.29612 0.50182 0.0
C120 C 0.67127 0.32216 0.4902 0.0
C121 C 0.6919 0.3174 0.46321 0.0
C122 C 0.69442 0.28601 0.44983 0.0
C123 C 0.67542 0.26083 0.46224 0.0
N124 N 0.65453 0.26639 0.48727 0.0
H125 H 0.63534 0.29997 0.52148 0.0
H126 H 0.67608 0.23708 0.45081 0.0
C127 C 0.55066 0.20408 0.52762 0.0
N128 N 0.57682 0.18962 0.51329 0.0
C129 C 0.55088 0.1376 0.5163 0.0
C130 C 0.52519 0.15163 0.53401 0.0
C131 C 0.52493 0.18535 0.53908 0.0
C132 C 0.57687 0.15723 0.50629 0.0
H133 H 0.54969 0.23026 0.53029 0.0
H134 H 0.59721 0.14666 0.49328 0.0
C135 C 0.68045 0.15874 0.49533 0.0
C136 C 0.68089 0.13016 0.63036 0.0
N137 N 0.69711 0.2028 0.56744 0.0
C138 C 0.72777 0.19061 0.56994 0.0
C139 C 0.75416 0.21153 0.57382 0.0
C140 C 0.74871 0.2452 0.57568 0.0
C141 C 0.7172 0.25734 0.57035 0.0
C142 C 0.69147 0.23546 0.56617 0.0
C143 C 0.585 0.22835 0.43555 0.0
O144 O 0.61772 0.2082 0.58648 0.0
O145 O 0.60371 0.24609 0.5504 0.0
O146 O 0.66089 0.18131 0.48717 0.0
O147 O 0.68185 0.14907 0.52457 0.0
O148 O 0.66482 0.1564 0.63349 0.0
O149 O 0.68616 0.12065 0.60153 0.0
O150 O 0.60882 0.2092 0.43977 0.0
O151 O 0.57763 0.24696 0.45922 0.0
H152 H 0.73144 0.16453 0.57111 0.0
H153 H 0.66697 0.2446 0.56402 0.0
H154 H 0.55041 0.10026 0.60526 0.0
H155 H 0.61191 0.04953 0.53679 0.0
H156 H 0.66908 0.34586 0.50161 0.0
H157 H 0.70977 0.28127 0.42888 0.0
H158 H 0.55152 0.11165 0.51149 0.0
H159 H 0.50484 0.19714 0.55152 0.0
H160 H 0.77817 0.20137 0.57803 0.0
H161 H 0.71228 0.28327 0.57139 0.0
Cd162 Cd 0.87235 0.77271 0.99471 0.0
Cd163 Cd 0.83596 0.82356 0.07811 0.0
C164 C 0.94237 0.79362 0.01632 0.0
N165 N 0.91353 0.8085 0.00989 0.0
C166 C 0.93808 0.86087 0.01677 0.0
C167 C 0.96746 0.84589 0.0262 0.0
C168 C 0.96972 0.81183 0.02441 0.0
C169 C 0.91117 0.84153 0.00859 0.0
H170 H 0.94421 0.76743 0.01483 0.0
H171 H 0.88839 0.85285 0.00174 0.0
C172 C 0.81698 0.8403 -0.00313 0.0
C173 C 0.76453 0.79991 0.06544 0.0
C174 C 0.73738 0.77991 0.0692 0.0
C175 C 0.7419 0.74636 0.07384 0.0
C176 C 0.77325 0.73313 0.07046 0.0
C177 C 0.79975 0.75406 0.06658 0.0
N178 N 0.79494 0.78684 0.06581 0.0
H179 H 0.76156 0.82611 0.0653 0.0
H180 H 0.82412 0.74423 0.06694 0.0
C181 C 0.87501 0.8886 0.06903 0.0
N182 N 0.88144 0.85708 0.07678 0.0
C183 C 0.93417 0.87175 0.09656 0.0
C184 C 0.92761 0.9049 0.09059 0.0
C185 C 0.89766 0.91294 0.07584 0.0
C186 C 0.91048 0.84821 0.09003 0.0
H187 H 0.85131 0.89515 0.05961 0.0
H188 H 0.91494 0.82318 0.09677 0.0
C189 C 0.89008 0.75593 0.07818 0.0
C190 C 0.90741 0.76231 0.93589 0.0
N191 N 0.83772 0.72787 0.99179 0.0
C192 C 0.85205 0.698 0.99139 0.0
C193 C 0.83487 0.67083 0.98011 0.0
C194 C 0.80268 0.67456 0.96911 0.0
C195 C 0.78779 0.70533 0.97214 0.0
C196 C 0.80594 0.73189 0.98342 0.0
C197 C 0.80834 0.85584 0.13305 0.0
O198 O 0.83282 0.81696 0.98397 0.0
O199 O 0.81753 0.84499 0.02734 0.0
O200 O 0.87288 0.77923 0.08903 0.0
O201 O 0.89169 0.74969 0.04777 0.0
O202 O 0.8814 0.77888 0.93642 0.0
O203 O 0.91533 0.74786 0.96198 0.0
O204 O 0.8185 0.82671 0.13517 0.0
O205 O 0.8097 0.86917 0.10533 0.0
H206 H 0.87762 0.69575 -0.00262 0.0
H207 H 0.79538 0.75606 0.98333 0.0
H208 H 0.93546 0.88713 0.01708 0.0
H209 H 0.99238 0.79924 0.02938 0.0
H210 H 0.71353 0.79091 0.07179 0.0
H211 H 0.77746 0.70724 0.07358 0.0
H212 H 0.95694 0.86382 0.10694 0.0
H213 H 0.89072 0.938 0.07138 0.0
H214 H 0.8475 0.64778 0.97764 0.0
H215 H 0.76296 0.7092 0.96405 0.0
Cd216 Cd 0.49744 0.12062 0.27582 0.0
Cd217 Cd 0.41731 0.1605 0.32102 0.0
C218 C 0.46608 0.05514 0.30318 0.0
N219 N 0.48361 0.08074 0.31456 0.0
C220 C 0.49354 0.05229 0.36475 0.0
C221 C 0.47495 0.02563 0.35358 0.0
C222 C 0.46051 0.02802 0.32259 0.0
C223 C 0.49743 0.07983 0.34475 0.0
H224 H 0.45746 0.05492 0.27842 0.0
H225 H 0.51266 0.09982 0.35274 0.0
C226 C 0.49564 0.18243 0.33831 0.0
C227 C 0.4274 0.22999 0.29429 0.0
C228 C 0.42457 0.25663 0.27364 0.0
C229 C 0.4224 0.25149 0.23995 0.0
C230 C 0.42714 0.21993 0.22754 0.0
C231 C 0.43002 0.19385 0.24921 0.0
N232 N 0.42849 0.19934 0.28187 0.0
H233 H 0.42598 0.23355 0.32036 0.0
H234 H 0.43107 0.16932 0.23986 0.0
C235 C 0.43755 0.12349 0.38393 0.0
N236 N 0.42546 0.11605 0.35409 0.0
C237 C 0.39688 0.07017 0.37564 0.0
C238 C 0.40595 0.07967 0.40719 0.0
C239 C 0.42787 0.10566 0.41095 0.0
C240 C 0.40643 0.08935 0.34923 0.0
H241 H 0.45106 0.14575 0.3876 0.0
H242 H 0.39546 0.08515 0.32574 0.0
C243 C 0.4155 0.10608 0.25384 0.0
C244 C 0.55754 0.08774 0.26716 0.0
N245 N 0.5046 0.15632 0.23224 0.0
C246 C 0.50154 0.14423 0.20155 0.0
C247 C 0.51411 0.16146 0.17502 0.0
C248 C 0.53042 0.19112 0.18028 0.0
C249 C 0.53118 0.20403 0.21201 0.0
C250 C 0.51821 0.18602 0.23783 0.0
C251 C 0.36151 0.18577 0.35431 0.0
O252 O 0.50581 0.1623 0.31719 0.0
O253 O 0.46548 0.18515 0.34397 0.0
O254 O 0.40401 0.12296 0.27707 0.0
O255 O 0.44598 0.10406 0.24848 0.0
O256 O 0.55518 0.11392 0.2833 0.0
O257 O 0.53195 0.07781 0.25287 0.0
O258 O 0.35845 0.16626 0.33056 0.0
O259 O 0.39019 0.19414 0.36173 0.0
H260 H 0.49119 0.12026 0.1979 0.0
H261 H 0.52097 0.19477 0.26254 0.0
H262 H 0.50607 0.05154 0.38791 0.0
H263 H 0.44553 0.00864 0.31279 0.0
H264 H 0.42085 0.2806 0.28412 0.0
H265 H 0.42606 0.21524 0.20158 0.0
H266 H 0.37969 0.05051 0.37179 0.0
H267 H 0.43487 0.1145 0.43467 0.0
H268 H 0.51233 0.15102 0.15085 0.0
H269 H 0.54352 0.2268 0.21713 0.0
Cd270 Cd 0.07625 0.8351 0.82479 0.0
Cd271 Cd 0.99313 0.87132 0.77538 0.0
C272 C 0.06624 0.87165 0.89005 0.0
N273 N 0.07154 0.87992 0.85848 0.0
C274 C 0.08937 0.93301 0.8742 0.0
C275 C 0.08677 0.92415 0.90722 0.0
C276 C 0.0737 0.89347 0.91491 0.0
C277 C 0.08208 0.91017 0.85005 0.0
H278 H 0.05894 0.84706 0.89605 0.0
H279 H 0.08665 0.91612 0.82487 0.0
C280 C 0.07482 0.88954 0.7568 0.0
C281 C 0.99552 0.84321 0.70195 0.0
C282 C 0.98271 0.82599 0.67545 0.0
C283 C 0.96131 0.79993 0.68113 0.0
C284 C 0.95585 0.78975 0.7133 0.0
C285 C 0.96933 0.80746 0.73901 0.0
N286 N 0.98775 0.83427 0.73289 0.0
H287 H 0.00944 0.86518 0.69778 0.0
H288 H 0.963 0.80138 0.76381 0.0
C289 C 0.01706 0.94125 0.7964 0.0
N290 N 0.00717 0.91328 0.81106 0.0
C291 C 0.00422 0.94044 0.86267 0.0
C292 C 0.01442 0.96965 0.84795 0.0
C293 C 0.0213 0.9696 0.81448 0.0
C294 C 0.00039 0.91237 0.84353 0.0
H295 H 0.02074 0.9419 0.77035 0.0
H296 H 0.9914 0.89014 0.85441 0.0
C297 C -0.00313 0.81433 0.84237 0.0
C298 C 0.13314 0.80895 0.85573 0.0
N299 N 0.06935 0.79869 0.7819 0.0
C300 C 0.04525 0.77596 0.78024 0.0
C301 C 0.04802 0.74965 0.7588 0.0
C302 C 0.0761 0.74661 0.73951 0.0
C303 C 0.09909 0.77191 0.73979 0.0
C304 C 0.09527 0.79777 0.76139 0.0
C305 C 0.93242 0.90377 0.76565 0.0
O306 O 0.08507 0.87326 0.78099 0.0
O307 O 0.04477 0.88971 0.74902 0.0
O308 O 0.98507 0.83153 0.81948 0.0
O309 O 0.02718 0.81389 0.84811 0.0
O310 O 0.13518 0.82808 0.83159 0.0
O311 O 0.1047 0.8013 0.86484 0.0
O312 O 0.93502 0.87874 0.78348 0.0
O313 O 0.95774 0.91242 0.75019 0.0
H314 H 0.02499 0.77678 0.79688 0.0
H315 H 0.11431 0.81586 0.76361 0.0
H316 H 0.098 0.95686 0.86703 0.0
H317 H 0.07148 0.88537 0.93992 0.0
H318 H 0.98741 0.83449 0.65091 0.0
H319 H 0.93976 0.76949 0.71854 0.0
H320 H -0.00105 0.93945 0.8885 0.0
H321 H 0.03003 0.99131 0.80228 0.0
H322 H 0.02945 0.73089 0.75879 0.0
H323 H 0.12118 0.77043 0.72544 0.0
Cd324 Cd 0.91623 0.33135 0.66853 0.0
Cd325 Cd 0.99609 0.37654 0.72176 0.0
C326 C 0.94466 0.36884 0.6058 0.0
N327 N 0.92631 0.37397 0.63298 0.0
C328 C 0.89841 0.41798 0.60732 0.0
C329 C 0.91552 0.41189 0.57842 0.0
C330 C 0.93987 0.388 0.57813 0.0
C331 C 0.90439 0.39873 0.63464 0.0
H332 H 0.96075 0.34811 0.60432 0.0
H333 H 0.88898 0.40113 0.65587 0.0
C334 C 0.9134 0.38876 0.73639 0.0
C335 C -0.00246 0.3517 0.79629 0.0
C336 C 0.00904 0.33332 0.82258 0.0
C337 C 0.02586 0.30404 0.81672 0.0
C338 C 0.02904 0.29307 0.78442 0.0
C339 C 0.01709 0.31213 0.75894 0.0
N340 N 0.00244 0.34114 0.76528 0.0
H341 H 0.98647 0.37526 0.80051 0.0
H342 H 0.0214 0.30483 0.73398 0.0
C343 C 0.97279 0.4486 0.705 0.0
N344 N 0.98122 0.42049 0.68956 0.0
C345 C 0.97808 0.44668 0.63772 0.0
C346 C 0.96864 0.47573 0.65307 0.0
C347 C 0.96624 0.47669 0.68708 0.0
C348 C 0.98492 0.41925 0.65669 0.0
H349 H 0.97158 0.44931 0.73131 0.0
H350 H 0.99339 0.39703 0.64532 0.0
C351 C 0.99329 0.31408 0.65692 0.0
C352 C 0.85869 0.3077 0.63709 0.0
N353 N 0.92719 0.29181 0.70702 0.0
C354 C 0.92483 0.26097 0.69525 0.0
C355 C 0.92265 0.23476 0.71655 0.0
C356 C 0.92235 0.24054 0.75022 0.0
C357 C 0.92775 0.27231 0.76178 0.0
C358 C 0.93009 0.29791 0.73947 0.0
C359 C 0.05694 0.40808 0.72754 0.0
O360 O 0.90557 0.37005 0.71292 0.0
O361 O 0.94303 0.39323 0.74442 0.0
O362 O -0.00301 0.3355 0.67893 0.0
O363 O 0.96491 0.30585 0.64827 0.0
O364 O 0.85719 0.32328 0.66372 0.0
O365 O 0.8869 0.30239 0.62588 0.0
O366 O 0.05273 0.38407 0.70856 0.0
O367 O 0.03344 0.41551 0.74623 0.0
H368 H 0.92219 0.25702 0.66932 0.0
H369 H 0.93198 0.32267 0.74819 0.0
H370 H 0.87853 0.43536 0.60782 0.0
H371 H 0.9527 0.3821 0.55581 0.0
H372 H 0.00608 0.34258 0.84712 0.0
H373 H 0.04251 0.27111 0.7787 0.0
H374 H 0.98026 0.44534 0.61145 0.0
H375 H 0.95895 0.49879 0.69958 0.0
H376 H 0.91826 0.21061 0.70678 0.0
H377 H 0.92791 0.2775 0.78766 0.0
Cd378 Cd 0.49288 0.61606 0.21798 0.0
Cd379 Cd 0.57646 0.65837 0.16973 0.0
C380 C 0.51194 0.54581 0.19669 0.0
N381 N 0.50596 0.57474 0.18185 0.0
C382 C 0.51363 0.5505 0.12943 0.0
C383 C 0.52344 0.52131 0.14449 0.0
C384 C 0.52058 0.51865 0.17844 0.0
C385 C 0.50502 0.57729 0.14881 0.0
H386 H 0.51036 0.54399 0.22291 0.0
H387 H 0.49857 0.60024 0.13759 0.0
C388 C 0.49615 0.67679 0.15411 0.0
C389 C 0.5627 0.72872 0.19639 0.0
C390 C 0.56726 0.75571 0.21649 0.0
C391 C 0.57606 0.75089 0.24912 0.0
C392 C 0.57613 0.71916 0.26186 0.0
C393 C 0.57118 0.69281 0.2409 0.0
N394 N 0.56622 0.69813 0.20856 0.0
H395 H 0.5594 0.73219 0.17047 0.0
H396 H 0.5742 0.66834 0.25001 0.0
C397 C 0.565 0.62274 0.10243 0.0
N398 N 0.57224 0.61506 0.13378 0.0
C399 C 0.58919 0.56178 0.11783 0.0
C400 C 0.58355 0.56926 0.08482 0.0
C401 C 0.57056 0.60025 0.07751 0.0
C402 C 0.58392 0.58519 0.14188 0.0
H403 H 0.557 0.64715 0.09648 0.0
H404 H 0.59029 0.57972 0.1668 0.0
C405 C 0.57588 0.60008 0.23521 0.0
C406 C 0.43183 0.58545 0.22856 0.0
N407 N 0.48988 0.65234 0.26106 0.0
C408 C 0.49775 0.64307 0.29189 0.0
C409 C 0.48697 0.66147 0.31853 0.0
C410 C 0.4677 0.68929 0.31318 0.0
C411 C 0.46125 0.69883 0.28091 0.0
C412 C 0.47273 0.67999 0.25513 0.0
C413 C 0.63249 0.68572 0.13889 0.0
O414 O 0.48544 0.65734 0.17563 0.0
O415 O 0.52636 0.67906 0.14854 0.0
O416 O 0.58596 0.61926 0.21313 0.0
O417 O 0.54559 0.59641 0.24092 0.0
O418 O 0.43511 0.60958 0.20965 0.0
O419 O 0.45681 0.57682 0.24465 0.0
O420 O 0.63491 0.66899 0.16475 0.0
O421 O 0.60398 0.69045 0.12813 0.0
H422 H 0.51052 0.62035 0.29587 0.0
H423 H 0.46579 0.68605 0.23045 0.0
H424 H 0.51461 0.55326 0.10321 0.0
H425 H 0.52595 0.49603 0.19093 0.0
H426 H 0.56719 0.77989 0.20589 0.0
H427 H 0.58267 0.71472 0.28705 0.0
H428 H 0.59798 0.53835 0.12549 0.0
H429 H 0.56652 0.60804 0.05264 0.0
H430 H 0.49241 0.65326 0.34301 0.0
H431 H 0.44563 0.71941 0.27555 0.0
Cd432 Cd 0.27392 0.49943 0.11912 0.0
Cd433 Cd 0.32092 0.41731 0.16135 0.0
C434 C 0.29562 0.46628 0.05102 0.0
N435 N 0.3082 0.48413 0.07598 0.0
C436 C 0.35781 0.49195 0.04619 0.0
C437 C 0.34547 0.47293 0.02057 0.0
C438 C 0.31416 0.45968 0.02348 0.0
C439 C 0.33846 0.49754 0.07378 0.0
H440 H 0.27074 0.458 0.05162 0.0
H441 H 0.34739 0.51291 0.09327 0.0
C442 C 0.33673 0.49563 0.18181 0.0
C443 C 0.29375 0.4289 0.23169 0.0
C444 C 0.27285 0.42687 0.25831 0.0
C445 C 0.23934 0.42277 0.25305 0.0
C446 C 0.22728 0.42383 0.22105 0.0
C447 C 0.24911 0.4262 0.19505 0.0
N448 N 0.28172 0.42735 0.20088 0.0
H449 H 0.31982 0.42924 0.23555 0.0
H450 H 0.24009 0.4248 0.1704 0.0
C451 C 0.37679 0.4438 0.11147 0.0
N452 N 0.35251 0.4217 0.1155 0.0
C453 C 0.37653 0.38582 0.07674 0.0
C454 C 0.40267 0.40751 0.07251 0.0
C455 C 0.40182 0.43754 0.08923 0.0
C456 C 0.35158 0.39357 0.09819 0.0
H457 H 0.37786 0.46518 0.12685 0.0
H458 H 0.33323 0.3755 0.10371 0.0
C459 C 0.25482 0.41766 0.10476 0.0
C460 C 0.26762 0.56062 0.08768 0.0
N461 N 0.22971 0.50673 0.15333 0.0
C462 C 0.19899 0.49735 0.14511 0.0
C463 C 0.17234 0.50839 0.1633 0.0
C464 C 0.17753 0.52943 0.18984 0.0
C465 C 0.20968 0.53802 0.19798 0.0
C466 C 0.23548 0.52621 0.17943 0.0
C467 C 0.35445 0.36106 0.18454 0.0
O468 O 0.31548 0.50539 0.16155 0.0
O469 O 0.34324 0.46563 0.18445 0.0
O470 O 0.27859 0.407 0.12141 0.0
O471 O 0.24725 0.44771 0.10407 0.0
O472 O 0.2858 0.55651 0.11229 0.0
O473 O 0.25047 0.53643 0.07879 0.0
O474 O 0.32616 0.35892 0.17229 0.0
O475 O 0.36601 0.38948 0.18763 0.0
H476 H 0.19504 0.48261 0.12361 0.0
H477 H 0.26005 0.53409 0.18469 0.0
H478 H 0.38187 0.50269 0.0447 0.0
H479 H 0.30383 0.44463 0.00438 0.0
H480 H 0.28314 0.4255 0.2826 0.0
H481 H 0.20154 0.42062 0.21616 0.0
H482 H 0.3766 0.36166 0.0662 0.0
H483 H 0.42137 0.45508 0.08678 0.0
H484 H 0.14793 0.50132 0.15617 0.0
H485 H 0.21483 0.55504 0.21749 0.0
Cd486 Cd 0.8263 0.07403 0.8335 0.0
Cd487 Cd 0.77362 -0.00284 0.87259 0.0
C488 C 0.88935 0.04816 0.87034 0.0
N489 N 0.86049 0.06289 0.87739 0.0
C490 C 0.88403 0.08949 0.92356 0.0
C491 C 0.91474 0.07761 0.91451 0.0
C492 C 0.91702 0.05523 0.88882 0.0
C493 C 0.857 0.082 0.90426 0.0
H494 H 0.892 0.03426 0.84814 0.0
H495 H 0.83424 0.09449 0.90855 0.0
C496 C 0.75621 0.0796 0.88493 0.0
C497 C 0.69782 0.98949 0.85532 0.0
C498 C 0.67025 0.97826 0.83875 0.0
C499 C 0.67335 0.96618 0.80687 0.0
C500 C 0.7042 0.96693 0.79197 0.0
C501 C 0.73111 0.97838 0.80943 0.0
N502 N 0.72751 0.9888 0.84066 0.0
H503 H 0.69585 -0.00266 0.88041 0.0
H504 H 0.75514 0.97743 0.79865 0.0
C505 C 0.79926 0.03379 0.93788 0.0
N506 N 0.80941 0.01239 0.91467 0.0
C507 C 0.85309 0.99485 0.94931 0.0
C508 C 0.84238 0.01624 0.97388 0.0
C509 C 0.8162 0.03707 0.96696 0.0
C510 C 0.8362 0.99343 0.91963 0.0
H511 H 0.77692 0.04705 0.93528 0.0
H512 H 0.84311 0.97563 0.90144 0.0
C513 C 0.837 0.99521 0.81049 0.0
C514 C 0.86006 0.13089 0.81153 0.0
N515 N 0.78832 0.06511 0.79208 0.0
C516 C 0.80066 0.06627 0.76137 0.0
C517 C 0.77985 0.06866 0.73462 0.0
C518 C 0.74614 0.07045 0.73973 0.0
C519 C 0.73391 0.06692 0.77141 0.0
C520 C 0.75563 0.06399 0.79745 0.0
C521 C 0.76767 0.93907 0.90959 0.0
O522 O 0.78182 0.08731 0.86951 0.0
O523 O 0.74645 0.0501 0.88583 0.0
O524 O 0.81501 0.98598 0.83024 0.0
O525 O 0.84481 0.02496 0.80858 0.0
O526 O 0.83343 0.13286 0.82697 0.0
O527 O 0.87031 0.10244 0.8054 0.0
O528 O 0.78188 0.93924 0.8822 0.0
O529 O 0.75316 0.96507 0.91799 0.0
H530 H 0.82674 0.06749 0.75783 0.0
H531 H 0.74626 0.06286 0.8219 0.0
H532 H 0.88163 0.10726 0.94296 0.0
H533 H 0.94048 0.0459 0.88117 0.0
H534 H 0.64691 0.97814 0.85105 0.0
H535 H 0.70785 0.95719 0.76771 0.0
H536 H 0.87335 0.97846 0.95344 0.0
H537 H 0.80792 0.05512 0.98434 0.0
H538 H 0.79009 0.07178 0.7105 0.0
H539 H 0.70797 0.06827 0.7761 0.0
Cd540 Cd 0.71961 0.00425 0.37346 0.0
Cd541 Cd 0.66994 0.91971 0.33375 0.0
C542 C 0.70218 0.98698 0.44473 0.0
N543 N 0.68601 0.99138 0.41623 0.0
C544 C 0.63498 0.98162 0.44222 0.0
C545 C 0.65165 0.97339 0.47095 0.0
C546 C 0.68542 0.97779 0.47254 0.0
C547 C 0.65294 0.99055 0.41468 0.0
H548 H 0.72833 0.98985 0.44559 0.0
H549 H 0.64068 0.99576 0.39193 0.0
C550 C 0.65434 -0.00115 0.31363 0.0
C551 C 0.69804 0.93664 0.26422 0.0
C552 C 0.71848 0.93291 0.2374 0.0
C553 C 0.75065 0.92276 0.24233 0.0
C554 C 0.76272 0.92 0.27412 0.0
C555 C 0.7415 0.9243 0.30033 0.0
N556 N 0.70949 0.93095 0.2948 0.0
H557 H 0.67232 0.94088 0.26038 0.0
H558 H 0.75002 0.91919 0.32466 0.0
C559 C 0.60369 0.932 0.37111 0.0
N560 N 0.63505 0.924 0.37814 0.0
C561 C 0.61935 0.90414 0.43047 0.0
C562 C 0.58641 0.90938 0.42281 0.0
C563 C 0.57885 0.92494 0.39323 0.0
C564 C 0.64334 0.91098 0.40746 0.0
H565 H 0.5976 0.94128 0.34721 0.0
H566 H 0.66816 0.90402 0.4125 0.0
C567 C 0.73529 0.9214 0.39223 0.0
C568 C 0.7282 0.06665 0.40259 0.0
N569 N 0.76306 0.0054 0.33806 0.0
C570 C 0.79304 0.99488 0.34742 0.0
C571 C 0.82063 0.00439 0.32991 0.0
C572 C 0.81709 0.02537 0.30309 0.0
C573 C 0.78553 0.03385 0.29281 0.0
C574 C 0.7587 0.0236 0.31081 0.0
C575 C 0.64036 0.86259 0.30681 0.0
O576 O 0.67654 0.00887 0.3327 0.0
O577 O 0.6475 0.96883 0.31182 0.0
O578 O 0.71295 0.91127 0.37335 0.0
O579 O 0.7418 0.95167 0.39478 0.0
O580 O 0.70847 0.06191 0.37933 0.0
O581 O 0.74616 0.04277 0.41064 0.0
O582 O 0.66722 0.86114 0.32203 0.0
O583 O 0.6279 0.8906 0.30347 0.0
H584 H 0.79576 0.98099 0.36964 0.0
H585 H 0.73459 0.03221 0.30453 0.0
H586 H 0.60877 0.97909 0.4405 0.0
H587 H 0.69887 0.97284 0.49472 0.0
H588 H 0.70839 0.93454 0.21304 0.0
H589 H 0.78736 0.91158 0.27852 0.0
H590 H 0.62646 0.89308 0.45323 0.0
H591 H 0.55383 0.92917 0.38598 0.0
H592 H 0.84449 0.9967 0.33814 0.0
H593 H 0.78168 0.05012 0.27238 0.0
Cd594 Cd 0.21946 0.4933 0.6208 0.0
Cd595 Cd 0.16702 0.57631 0.657 0.0
C596 C 0.2022 0.51287 0.54958 0.0
N597 N 0.18605 0.50563 0.57748 0.0
C598 C 0.13483 0.51128 0.55057 0.0
C599 C 0.15107 0.52253 0.52272 0.0
C600 C 0.18513 0.52195 0.52184 0.0
C601 C 0.15308 0.5028 0.5781 0.0
H602 H 0.22847 0.51192 0.54912 0.0
H603 H 0.14104 0.49473 0.60008 0.0
C604 C 0.15407 0.496 0.67894 0.0
C605 C 0.19269 0.56856 0.7283 0.0
C606 C 0.21282 0.57139 0.75548 0.0
C607 C 0.24657 0.57447 0.75119 0.0
C608 C 0.25949 0.57218 0.71958 0.0
C609 C 0.23839 0.56924 0.69298 0.0
N610 N 0.20561 0.56868 0.69783 0.0
H611 H 0.16653 0.56838 0.73139 0.0
H612 H 0.24817 0.56932 0.6686 0.0
C613 C 0.10433 0.55163 0.6173 0.0
N614 N 0.13282 0.56797 0.6128 0.0
C615 C 0.11131 0.59489 0.56597 0.0
C616 C 0.08106 0.5802 0.57152 0.0
C617 C 0.07812 0.55692 0.59625 0.0
C618 C 0.13719 0.58827 0.58699 0.0
H619 H 0.10091 0.53669 0.63869 0.0
H620 H 0.15947 0.60212 0.58482 0.0
C621 C 0.23449 0.57728 0.60233 0.0
C622 C 0.22905 0.43302 0.58864 0.0
N623 N 0.26291 0.49049 0.65628 0.0
C624 C 0.29338 0.49156 0.64341 0.0
C625 C 0.31969 0.4789 0.66089 0.0
C626 C 0.31419 0.46477 0.69151 0.0
C627 C 0.28296 0.4668 0.70536 0.0
C628 C 0.25738 0.47967 0.68705 0.0
C629 C 0.13196 0.63091 0.68231 0.0
O630 O 0.17655 0.48439 0.66115 0.0
O631 O 0.14792 0.52618 0.67896 0.0
O632 O 0.21118 0.58802 0.61961 0.0
O633 O 0.24113 0.54692 0.60097 0.0
O634 O 0.2094 0.43588 0.61224 0.0
O635 O 0.24698 0.45739 0.58235 0.0
O636 O 0.15546 0.63471 0.66264 0.0
O637 O 0.12536 0.60197 0.69057 0.0
H638 H 0.29677 0.49961 0.61855 0.0
H639 H 0.23276 0.47857 0.69634 0.0
H640 H 0.10848 0.51062 0.55151 0.0
H641 H 0.19835 0.52937 0.50024 0.0
H642 H 0.20183 0.57367 0.77936 0.0
H643 H 0.28545 0.57442 0.7154 0.0
H644 H 0.11389 0.61379 0.54774 0.0
H645 H 0.05493 0.54541 0.60117 0.0
H646 H 0.34346 0.47776 0.6495 0.0
H647 H 0.278 0.45662 0.7292 0.0
Cd648 Cd 0.82975 0.67276 0.57505 0.0
Cd649 Cd 0.87325 0.7251 0.49426 0.0
C650 C 0.87555 0.61227 0.55259 0.0
N651 N 0.87504 0.63968 0.57117 0.0
C652 C 0.91768 0.61924 0.60495 0.0
C653 C 0.9181 0.58994 0.58714 0.0
C654 C 0.89774 0.58742 0.55957 0.0
C655 C 0.89621 0.64399 0.59622 0.0
H656 H 0.85766 0.60879 0.53359 0.0
H657 H 0.89398 0.66519 0.61173 0.0
C658 C 0.88656 0.74068 0.5768 0.0
C659 C 0.84981 0.79924 0.49141 0.0
C660 C 0.83134 0.82573 0.48062 0.0
C661 C 0.79974 0.8205 0.46856 0.0
C662 C 0.78664 0.78886 0.46992 0.0
C663 C 0.80597 0.76307 0.48095 0.0
N664 N 0.83721 0.76863 0.49042 0.0
H665 H 0.875 0.80273 0.49834 0.0
H666 H 0.79682 0.73837 0.47987 0.0
C667 C 0.94362 0.70534 0.52002 0.0
N668 N 0.91569 0.69104 0.50949 0.0
C669 C 0.94052 0.63841 0.51194 0.0
C670 C 0.96903 0.65236 0.52473 0.0
C671 C 0.97056 0.6864 0.52805 0.0
C672 C 0.91406 0.65841 0.50412 0.0
H673 H 0.94513 0.73158 0.5218 0.0
H674 H 0.89217 0.64789 0.49393 0.0
C675 C 0.81507 0.65731 0.49644 0.0
C676 C 0.80497 0.64037 0.63143 0.0
N677 N 0.79098 0.7124 0.565 0.0
C678 C 0.76052 0.70007 0.56108 0.0
C679 C 0.73344 0.71977 0.56623 0.0
C680 C 0.73808 0.75215 0.57599 0.0
C681 C 0.76961 0.76532 0.5758 0.0
C682 C 0.79607 0.74474 0.57027 0.0
C683 C 0.90589 0.7316 0.43395 0.0
O684 O 0.86804 0.71744 0.58552 0.0
O685 O 0.89062 0.74803 0.54697 0.0
O686 O 0.8348 0.68034 0.49061 0.0
O687 O 0.80923 0.64895 0.52552 0.0
O688 O 0.82591 0.66291 0.63374 0.0
O689 O 0.79402 0.63429 0.60325 0.0
O690 O 0.88032 0.71458 0.43681 0.0
O691 O 0.91412 0.74864 0.45844 0.0
H692 H 0.75726 0.67419 0.55727 0.0
H693 H 0.82039 0.75412 0.5732 0.0
H694 H 0.93131 0.62218 0.62729 0.0
H695 H 0.89738 0.56558 0.54474 0.0
H696 H 0.84255 0.84959 0.47944 0.0
H697 H 0.76234 0.78388 0.46089 0.0
H698 H 0.93826 0.61233 0.50877 0.0
H699 H 0.99245 0.69835 0.5367 0.0
H700 H 0.7094 0.70887 0.56622 0.0
H701 H 0.77386 0.7904 0.58294 0.0
Cd702 Cd 0.61779 0.27431 -0.00274 0.0
Cd703 Cd 0.6631 0.32298 0.07517 0.0
C704 C 0.54788 0.293 0.02786 0.0
N705 N 0.57472 0.30722 0.01459 0.0
C706 C 0.54775 0.35893 0.0131 0.0
C707 C 0.52 0.34479 0.02702 0.0
C708 C 0.52021 0.31152 0.03456 0.0
C709 C 0.5749 0.33938 0.00653 0.0
H710 H 0.54745 0.26705 0.0323 0.0
H711 H 0.59597 0.34968 0.99454 0.0
C712 C 0.68298 0.33553 -0.00156 0.0
C713 C 0.73283 0.29262 0.06198 0.0
C714 C 0.75845 0.27057 0.06514 0.0
C715 C 0.75159 0.23796 0.0725 0.0
C716 C 0.71912 0.22748 0.07329 0.0
C717 C 0.69419 0.25027 0.06928 0.0
N718 N 0.70149 0.28235 0.06515 0.0
H719 H 0.73807 0.31834 0.05975 0.0
H720 H 0.66926 0.24262 0.07217 0.0
C721 C 0.62573 0.38634 0.04761 0.0
N722 N 0.62051 0.35849 0.06492 0.0
C723 C 0.57556 0.38262 0.09251 0.0
C724 C 0.58163 0.41218 0.07657 0.0
C725 C 0.60608 0.41369 0.05287 0.0
C726 C 0.59535 0.35586 0.08621 0.0
H727 H 0.64687 0.38851 0.03213 0.0
H728 H 0.59288 0.3343 0.10106 0.0
C729 C 0.60466 0.25731 0.0793 0.0
C730 C 0.58675 0.27429 0.93585 0.0
N731 N 0.65162 0.23072 0.98519 0.0
C732 C 0.6504 0.20059 -0.00103 0.0
C733 C 0.6688 0.17501 0.98571 0.0
C734 C 0.68831 0.18075 0.95813 0.0
C735 C 0.68918 0.21227 0.9449 0.0
C736 C 0.67074 0.23697 0.95897 0.0
C737 C 0.68673 0.35464 0.13231 0.0
O738 O 0.66071 0.31482 0.99306 0.0
O739 O 0.68983 0.34346 0.02739 0.0
O740 O 0.62207 0.28129 0.08838 0.0
O741 O 0.60309 0.24841 0.04959 0.0
O742 O 0.60909 0.29421 0.9434 0.0
O743 O 0.5796 0.25263 0.95683 0.0
O744 O 0.67394 0.32658 0.1335 0.0
O745 O 0.68946 0.36743 0.10443 0.0
H746 H 0.63445 0.19616 0.01946 0.0
H747 H 0.67057 0.26101 0.94816 0.0
H748 H 0.54817 0.38458 0.00685 0.0
H749 H 0.49905 0.29993 0.04524 0.0
H750 H 0.78329 0.27948 0.06501 0.0
H751 H 0.71315 0.20247 0.07927 0.0
H752 H 0.55765 0.38115 0.11184 0.0
H753 H 0.61199 0.43654 0.04106 0.0
H754 H 0.66743 0.15097 0.99652 0.0
H755 H 0.7031 0.21758 0.92313 0.0
Cd756 Cd 0.33786 0.82521 0.41508 0.0
Cd757 Cd 0.37512 0.76949 0.49546 0.0
C758 C 0.37295 0.89196 0.43321 0.0
N759 N 0.3809 0.86087 0.4249 0.0
C760 C 0.43436 0.87757 0.40921 0.0
C761 C 0.42617 0.91011 0.41572 0.0
C762 C 0.39552 0.91706 0.42922 0.0
C763 C 0.41123 0.85319 0.41421 0.0
H764 H 0.34826 0.89777 0.44029 0.0
H765 H 0.41685 0.82849 0.40773 0.0
C766 C 0.39135 0.75518 0.41298 0.0
C767 C 0.34916 0.69624 0.49869 0.0
C768 C 0.33071 0.67041 0.51095 0.0
C769 C 0.30071 0.67683 0.5261 0.0
C770 C 0.28898 0.70901 0.52654 0.0
C771 C 0.3082 0.73409 0.51391 0.0
N772 N 0.338 0.72732 0.50119 0.0
H773 H 0.37339 0.69177 0.48933 0.0
H774 H 0.30034 0.75915 0.5163 0.0
C775 C 0.44301 0.79231 0.4639 0.0
N776 N 0.41758 0.80479 0.48103 0.0
C777 C 0.44708 0.85443 0.49007 0.0
C778 C 0.47355 0.84204 0.47219 0.0
C779 C 0.47064 0.81094 0.45816 0.0
C780 C 0.41916 0.8352 0.49426 0.0
H781 H 0.44262 0.76743 0.4555 0.0
H782 H 0.39933 0.84397 0.50915 0.0
C783 C 0.32026 0.83858 0.49464 0.0
C784 C 0.31338 0.85796 0.35839 0.0
N785 N 0.29853 0.78461 0.4225 0.0
C786 C 0.27085 0.79126 0.4395 0.0
C787 C 0.24366 0.77109 0.43648 0.0
C788 C 0.24487 0.7442 0.41537 0.0
C789 C 0.27447 0.73652 0.40011 0.0
C790 C 0.30109 0.7573 0.40387 0.0
C791 C 0.40804 0.76125 0.55596 0.0
O792 O 0.37632 0.78092 0.40451 0.0
O793 O 0.39002 0.74438 0.4421 0.0
O794 O 0.33823 0.81497 0.50309 0.0
O795 O 0.31783 0.84722 0.46519 0.0
O796 O 0.33398 0.83505 0.35614 0.0
O797 O 0.30361 0.86486 0.38683 0.0
O798 O 0.38128 0.77647 0.55417 0.0
O799 O 0.41772 0.74697 0.53024 0.0
H800 H 0.26871 0.81355 0.45329 0.0
H801 H 0.32277 0.75305 0.3896 0.0
H802 H 0.45778 0.87128 0.3988 0.0
H803 H 0.38797 0.94195 0.43378 0.0
H804 H 0.34088 0.64605 0.51066 0.0
H805 H 0.26593 0.7149 0.53797 0.0
H806 H 0.44822 0.87829 0.50132 0.0
H807 H 0.48973 0.80071 0.44312 0.0
H808 H 0.22116 0.77784 0.44852 0.0
H809 H 0.27617 0.71645 0.38303 0.0
Cd810 Cd 0.11941 0.22458 -0.00315 0.0
Cd811 Cd 0.15883 0.17064 0.91915 0.0
C812 C 0.05182 0.20582 0.96084 0.0
N813 N 0.07746 0.19236 0.97703 0.0
C814 C 0.05116 0.1406 0.97741 0.0
C815 C 0.0258 0.15322 0.95821 0.0
C816 C 0.02613 0.1864 0.95024 0.0
C817 C 0.07699 0.16071 0.98649 0.0
H818 H 0.05081 0.23176 0.95658 0.0
H819 H 0.09666 0.15116 0.00121 0.0
C820 C 0.17696 0.1574 -0.00117 0.0
C821 C 0.22871 0.19927 0.93575 0.0
C822 C 0.25545 0.21999 0.93255 0.0
C823 C 0.25051 0.2522 0.92222 0.0
C824 C 0.21856 0.26379 0.91871 0.0
C825 C 0.19254 0.24226 0.9223 0.0
N826 N 0.19815 0.21037 0.92936 0.0
H827 H 0.23261 0.17364 0.94048 0.0
H828 H 0.16832 0.25055 0.91665 0.0
C829 C 0.11037 0.11056 0.94018 0.0
N830 N 0.11535 0.13479 0.91823 0.0
C831 C 0.07783 0.11041 0.88111 0.0
C832 C 0.0706 0.0856 0.90372 0.0
C833 C 0.08717 0.08634 0.9339 0.0
C834 C 0.09967 0.13505 0.88916 0.0
H835 H 0.12453 0.10984 0.9624 0.0
H836 H 0.10603 0.1532 0.87118 0.0
C837 C 0.10399 0.23868 0.91509 0.0
C838 C 0.08323 0.22849 0.05551 0.0
N839 N 0.15353 0.26874 0.00274 0.0
C840 C 0.14035 0.29907 0.00133 0.0
C841 C 0.15805 0.32586 0.01251 0.0
C842 C 0.18939 0.32115 0.02544 0.0
C843 C 0.20303 0.28972 0.02477 0.0
C844 C 0.18451 0.26365 0.01322 0.0
C845 C 0.18595 0.13995 0.8635 0.0
O846 O 0.15862 0.18084 0.00726 0.0
O847 O 0.17908 0.14884 0.96929 0.0
O848 O 0.11849 0.21263 0.90661 0.0
O849 O 0.10641 0.25021 0.94383 0.0
O850 O 0.10995 0.21316 0.05393 0.0
O851 O 0.07518 0.24525 0.03079 0.0
O852 O 0.17275 0.16781 0.86166 0.0
O853 O 0.18834 0.12752 0.89162 0.0
H854 H 0.1154 0.30213 0.99339 0.0
H855 H 0.194 0.23909 0.01463 0.0
H856 H 0.05154 0.11528 0.98472 0.0
H857 H 0.00626 0.19742 0.93679 0.0
H858 H 0.27979 0.21006 0.93493 0.0
H859 H 0.21394 0.2885 0.91063 0.0
H860 H 0.06866 0.11013 0.85646 0.0
H861 H 0.08292 0.0682 0.95251 0.0
H862 H 0.14679 0.34974 0.01254 0.0
H863 H 0.22683 0.28492 0.03512 0.0
Cd864 Cd 0.57314 0.83485 0.67514 0.0
Cd865 Cd 0.49229 0.87153 0.71952 0.0
C866 C 0.56771 0.86144 0.60432 0.0
N867 N 0.57532 0.87311 0.63431 0.0
C868 C 0.59883 0.92076 0.61094 0.0
C869 C 0.59027 0.90953 0.57988 0.0
C870 C 0.57417 0.87971 0.57657 0.0
C871 C 0.59095 0.90201 0.63815 0.0
H872 H 0.55953 0.83671 0.60191 0.0
H873 H 0.5993 0.90926 0.66189 0.0
C874 C 0.57281 0.89325 0.73912 0.0
C875 C 0.48515 0.85431 0.79422 0.0
C876 C 0.47425 0.83745 0.82162 0.0
C877 C 0.46599 0.80439 0.81883 0.0
C878 C 0.47088 0.78851 0.78886 0.0
C879 C 0.48174 0.80636 0.76202 0.0
N880 N 0.48777 0.83878 0.76509 0.0
H881 H 0.48956 0.88027 0.79566 0.0
H882 H 0.4833 0.79489 0.73834 0.0
C883 C 0.52288 0.93748 0.69417 0.0
N884 N 0.51203 0.90887 0.68147 0.0
C885 C 0.51679 0.93016 0.62735 0.0
C886 C 0.52996 0.95912 0.64001 0.0
C887 C 0.53259 0.96271 0.67385 0.0
C888 C 0.50786 0.9051 0.64875 0.0
H889 H 0.52339 0.94111 0.72023 0.0
H890 H 0.49745 0.88285 0.63926 0.0
C891 C 0.49209 0.81462 0.65571 0.0
C892 C 0.62854 0.80396 0.64745 0.0
N893 N 0.56215 0.79818 0.71673 0.0
C894 C 0.54725 0.76965 0.70885 0.0
C895 C 0.55029 0.74267 0.72922 0.0
C896 C 0.56959 0.74499 0.75737 0.0
C897 C 0.58191 0.77558 0.76651 0.0
C898 C 0.57798 0.80205 0.74557 0.0
C899 C 0.43211 0.90536 0.72039 0.0
O900 O 0.58417 0.87767 0.71491 0.0
O901 O 0.543 0.89096 0.74754 0.0
O902 O 0.47872 0.82886 0.67964 0.0
O903 O 0.5225 0.8168 0.6509 0.0
O904 O 0.63136 0.82299 0.67165 0.0
O905 O 0.59993 0.79765 0.63788 0.0
O906 O 0.4366 0.87913 0.70491 0.0
O907 O 0.45497 0.91475 0.73904 0.0
H908 H 0.53575 0.76675 0.68536 0.0
H909 H 0.59051 0.82461 0.75078 0.0
H910 H 0.61343 0.94252 0.61386 0.0
H911 H 0.5691 0.86954 0.55271 0.0
H912 H 0.47086 0.85043 0.84437 0.0
H913 H 0.46427 0.76315 0.78563 0.0
H914 H 0.51431 0.92661 0.60131 0.0
H915 H 0.54177 0.98505 0.68454 0.0
H916 H 0.54041 0.71946 0.72142 0.0
H917 H 0.59745 0.77825 0.78767 0.0
Cd918 Cd -0.00048 0.12007 0.22092 0.0
Cd919 Cd 0.91673 0.15073 0.1684 0.0
C920 C 0.97387 0.05016 0.2004 0.0
N921 N 0.98622 0.07723 0.18594 0.0
C922 C 0.99344 0.04804 0.13586 0.0
C923 C 0.98063 0.01974 0.15036 0.0
C924 C 0.96993 0.02152 0.18281 0.0
C925 C 0.9961 0.07673 0.15428 0.0
H926 H 0.96796 0.05029 0.22601 0.0
H927 H 0.00711 0.09817 0.14366 0.0
C928 C 0.9964 0.17248 0.15088 0.0
C929 C 0.9427 0.21693 0.2043 0.0
C930 C 0.93895 0.2446 0.22378 0.0
C931 C 0.91434 0.24527 0.2475 0.0
C932 C 0.89665 0.21667 0.25361 0.0
C933 C 0.90135 0.18948 0.23375 0.0
N934 N 0.92321 0.19049 0.20889 0.0
H935 H 0.95934 0.21783 0.18401 0.0
H936 H 0.88551 0.16862 0.23643 0.0
C937 C 0.92353 0.11127 0.10453 0.0
N938 N 0.92076 0.10382 0.13661 0.0
C939 C 0.90426 0.04935 0.12353 0.0
C940 C 0.90502 0.05724 0.09031 0.0
C941 C 0.91532 0.08838 0.08092 0.0
C942 C 0.91211 0.07333 0.14653 0.0
H943 H 0.92912 0.13598 0.0973 0.0
H944 H 0.90935 0.06803 0.17205 0.0
C945 C 0.91786 0.09992 0.23809 0.0
C946 C 0.05988 0.08722 0.23079 0.0
N947 N 0.00512 0.15665 0.26402 0.0
C948 C 0.99386 0.14932 0.29431 0.0
C949 C 0.00482 0.16688 0.32144 0.0
C950 C 0.02807 0.19169 0.31731 0.0
C951 C 0.03774 0.19983 0.28547 0.0
C952 C 0.02597 0.18186 0.25907 0.0
C953 C 0.86067 0.1758 0.13545 0.0
O954 O 0.00903 0.15837 0.17542 0.0
O955 O 0.96618 0.1704 0.1452 0.0
O956 O 0.90761 0.11402 0.21263 0.0
O957 O 0.94749 0.10214 0.24713 0.0
O958 O 0.0576 0.11282 0.21373 0.0
O959 O 0.03435 0.07825 0.24572 0.0
O960 O 0.85802 0.16019 0.16196 0.0
O961 O 0.88926 0.18075 0.12509 0.0
H962 H 0.9779 0.12866 0.29772 0.0
H963 H 0.03516 0.18658 0.23483 0.0
H964 H 0.00184 0.04787 0.11086 0.0
H965 H 0.95859 0.00094 0.19476 0.0
H966 H 0.95348 0.26604 0.21873 0.0
H967 H 0.87735 0.21624 0.27159 0.0
H968 H 0.89583 0.02567 0.13156 0.0
H969 H 0.91411 0.09596 0.05573 0.0
H970 H 0.99614 0.1603 0.34546 0.0
H971 H 0.05573 0.21863 0.28111 0.0
Cd972 Cd 0.99484 0.62093 0.27407 0.0
Cd973 Cd 0.07523 0.66051 0.32278 0.0
C974 C 0.02255 0.55244 0.29528 0.0
N975 N 0.01105 0.57994 0.30975 0.0
C976 C 0.01404 0.55464 0.3622 0.0
C977 C 0.02835 0.52702 0.34791 0.0
C978 C 0.0317 0.52577 0.31397 0.0
C979 C 0.0055 0.58116 0.34242 0.0
H980 H 0.02431 0.55099 0.26906 0.0
H981 H 0.99478 0.60273 0.35314 0.0
C982 C 0.99527 0.67981 0.33917 0.0
C983 C 0.04617 0.71877 0.27801 0.0
C984 C 0.04902 0.74476 0.25635 0.0
C985 C 0.07548 0.74569 0.23479 0.0
C986 C 0.09603 0.71847 0.23257 0.0
C987 C 0.09218 0.69287 0.25456 0.0
N988 N 0.06842 0.69418 0.27758 0.0
H989 H 0.02787 0.71989 0.29676 0.0
H990 H 0.11004 0.67351 0.25521 0.0
C991 C 0.05763 0.63144 0.39267 0.0
N992 N 0.06741 0.6215 0.36258 0.0
C993 C 0.09088 0.57318 0.38472 0.0
C994 C 0.08287 0.5838 0.41604 0.0
C995 C 0.06486 0.61257 0.41997 0.0
C996 C 0.08276 0.59254 0.35809 0.0
H997 H 0.04712 0.65535 0.39598 0.0
H998 H 0.09092 0.58574 0.33422 0.0
C999 C 0.07708 0.60273 0.25773 0.0
C1000 C 0.93456 0.58802 0.26448 0.0
N1001 N 0.99127 0.65675 0.23065 0.0
C1002 C 0.99362 0.64415 0.20011 0.0
C1003 C 0.98188 0.66171 0.17343 0.0
C1004 C 0.96752 0.69238 0.17843 0.0
C1005 C 0.96758 0.70568 0.21001 0.0
C1006 C 0.97943 0.68722 0.23599 0.0
C1007 C 0.13116 0.68785 0.35388 0.0
O1008 O 0.984 0.66127 0.31707 0.0
O1009 O 0.02558 0.68158 0.34427 0.0
O1010 O 0.08687 0.61946 0.28185 0.0
O1011 O 0.04737 0.60318 0.24864 0.0
O1012 O 0.93708 0.6132 0.28212 0.0
O1013 O 0.95993 0.57925 0.24913 0.0
O1014 O 0.13256 0.66081 0.33905 0.0
O1015 O 0.10434 0.70307 0.35255 0.0
H1016 H 0.00217 0.61942 0.1968 0.0
H1017 H 0.97696 0.69621 0.26064 0.0
H1018 H 0.01068 0.55618 0.38834 0.0
H1019 H 0.04136 0.5043 0.30197 0.0
H1020 H 0.03249 0.76526 0.25844 0.0
H1021 H 0.11683 0.71845 0.21633 0.0
H1022 H 0.10579 0.55173 0.38121 0.0
H1023 H 0.05898 0.62169 0.44405 0.0
H1024 H 0.98172 0.65031 0.14962 0.0
H1025 H 0.95678 0.7293 0.21482 0.0
Cd1026 Cd 0.49704 0.37664 0.77353 0.0
Cd1027 Cd 0.41782 0.33413 0.8239 0.0
C1028 C 0.4657 0.44209 0.80117 0.0
N1029 N 0.48437 0.41697 0.81178 0.0
C1030 C 0.49648 0.44601 0.8611 0.0
C1031 C 0.47634 0.47197 0.85107 0.0
C1032 C 0.46046 0.46914 0.82078 0.0
C1033 C 0.49991 0.41845 0.84108 0.0
H1034 H 0.45525 0.44169 0.77713 0.0
H1035 H 0.51607 0.3989 0.84827 0.0
C1036 C 0.49667 0.31575 0.83766 0.0
C1037 C 0.43071 0.26373 0.7976 0.0
C1038 C 0.42794 0.23707 0.77684 0.0
C1039 C 0.42314 0.24235 0.74344 0.0
C1040 C 0.42487 0.27414 0.73113 0.0
C1041 C 0.42829 0.30014 0.75277 0.0
N1042 N 0.42947 0.29447 0.78542 0.0
H1043 H 0.43098 0.25999 0.82369 0.0
H1044 H 0.42731 0.32467 0.74356 0.0
C1045 C 0.43613 0.37168 0.88754 0.0
N1046 N 0.42669 0.37915 0.85676 0.0
C1047 C 0.40795 0.43143 0.87424 0.0
C1048 C 0.4131 0.42255 0.90699 0.0
C1049 C 0.42955 0.39306 0.91306 0.0
C1050 C 0.41361 0.40869 0.84952 0.0
H1051 H 0.44549 0.34764 0.89291 0.0
H1052 H 0.40552 0.41391 0.82503 0.0
C1053 C 0.4143 0.38817 0.7554 0.0
C1054 C 0.55564 0.41135 0.76411 0.0
N1055 N 0.50553 0.33878 0.73205 0.0
C1056 C 0.49308 0.34254 0.70156 0.0
C1057 C 0.50465 0.32328 0.67584 0.0
C1058 C 0.52932 0.30022 0.68168 0.0
C1059 C 0.5408 0.29626 0.7137 0.0
C1060 C 0.52848 0.31584 0.73859 0.0
C1061 C 0.36208 0.30932 0.8578 0.0
O1062 O 0.50447 0.3363 0.81599 0.0
O1063 O 0.46714 0.31093 0.84493 0.0
O1064 O 0.40483 0.37092 0.77928 0.0
O1065 O 0.44437 0.39148 0.74859 0.0
O1066 O 0.55433 0.38559 0.78104 0.0
O1067 O 0.52996 0.41939 0.74881 0.0
O1068 O 0.35937 0.32295 0.83022 0.0
O1069 O 0.39067 0.30609 0.86879 0.0
H1070 H 0.47539 0.36151 0.69686 0.0
H1071 H 0.53863 0.31407 0.76286 0.0
H1072 H 0.51038 0.44717 0.88344 0.0
H1073 H 0.44404 0.48776 0.81187 0.0
H1074 H 0.42619 0.21283 0.78717 0.0
H1075 H 0.42112 0.27892 0.70543 0.0
H1076 H 0.3979 0.45487 0.86765 0.0
H1077 H 0.43485 0.38498 0.93747 0.0
H1078 H 0.4952 0.32709 0.65149 0.0
H1079 H 0.5604 0.27947 0.7192 0.0
Cd1080 Cd 0.71544 0.49301 0.87369 0.0
Cd1081 Cd 0.67029 0.57791 0.83628 0.0
C1082 C 0.69245 0.518 0.94256 0.0
N1083 N 0.67872 0.50663 0.91472 0.0
C1084 C 0.62698 0.50157 0.94131 0.0
C1085 C 0.64079 0.51333 0.97041 0.0
C1086 C 0.67377 0.52242 0.97036 0.0
C1087 C 0.64663 0.49821 0.91354 0.0
H1088 H 0.71825 0.52264 0.94364 0.0
H1089 H 0.63654 0.48803 0.89141 0.0
C1090 C 0.65081 0.50014 0.81423 0.0
C1091 C 0.71267 0.55011 0.77546 0.0
C1092 C 0.73341 0.55338 0.74873 0.0
C1093 C 0.75576 0.57921 0.74794 0.0
C1094 C 0.75884 0.59932 0.77544 0.0
C1095 C 0.73747 0.59533 0.80153 0.0
N1096 N 0.71422 0.57176 0.80057 0.0
H1097 H 0.69368 0.53203 0.77461 0.0
H1098 H 0.73759 0.6129 0.82117 0.0
C1099 C 0.60332 0.56605 0.87118 0.0
N1100 N 0.63495 0.57056 0.87982 0.0
C1101 C 0.61915 0.58607 0.93369 0.0
C1102 C 0.58616 0.58443 0.92457 0.0
C1103 C 0.57843 0.57277 0.89329 0.0
C1104 C 0.64331 0.57968 0.91057 0.0
H1105 H 0.59727 0.56016 0.84621 0.0
H1106 H 0.66853 0.58403 0.91669 0.0
C1107 C 0.73756 0.57463 0.8916 0.0
C1108 C 0.72077 0.43066 0.90378 0.0
N1109 N 0.7582 0.48612 0.83705 0.0
C1110 C 0.78925 0.48975 0.84802 0.0
C1111 C 0.81532 0.47705 0.83012 0.0
C1112 C 0.80917 0.46011 0.801 0.0
C1113 C 0.77705 0.45883 0.78919 0.0
C1114 C 0.75174 0.47188 0.80783 0.0
C1115 C 0.63814 0.63403 0.81094 0.0
O1116 O 0.67271 0.48821 0.83253 0.0
O1117 O 0.64566 0.53049 0.81358 0.0
O1118 O 0.71458 0.58572 0.87413 0.0
O1119 O 0.743 0.54406 0.89348 0.0
O1120 O 0.70194 0.43606 0.87994 0.0
O1121 O 0.73921 0.45399 0.91242 0.0
O1122 O 0.65378 0.63543 0.83754 0.0
O1123 O 0.63921 0.60736 0.79549 0.0
H1124 H 0.79358 0.50046 0.87172 0.0
H1125 H 0.72678 0.46874 0.79999 0.0
H1126 H 0.60157 0.49456 0.94022 0.0
H1127 H 0.6853 0.53273 0.99176 0.0
H1128 H 0.7303 0.5375 0.72785 0.0
H1129 H 0.77532 0.61992 0.77546 0.0
H1130 H 0.62628 0.59379 0.95789 0.0
H1131 H 0.55341 0.5714 0.88499 0.0
H1132 H 0.83973 0.47853 0.84003 0.0
H1133 H 0.7714 0.44651 0.76652 0.0
Cd1134 Cd 0.21739 -0.00049 0.12179 0.0
Cd1135 Cd 0.16613 0.91883 0.15695 0.0
C1136 C 0.19892 0.97068 0.0518 0.0
N1137 N 0.18456 0.98503 0.07796 0.0
C1138 C 0.13529 0.99274 0.04775 0.0
C1139 C 0.14953 0.97751 0.02055 0.0
C1140 C 0.1815 0.96572 0.02324 0.0
C1141 C 0.15344 0.99634 0.07642 0.0
H1142 H 0.22431 0.96398 0.05245 0.0
H1143 H 0.14307 0.00895 0.09713 0.0
C1144 C 0.15428 0.99599 0.18377 0.0
C1145 C 0.19385 0.92233 0.22766 0.0
C1146 C 0.21479 0.91863 0.25407 0.0
C1147 C 0.24855 0.91853 0.24892 0.0
C1148 C 0.26047 0.92529 0.21756 0.0
C1149 C 0.23852 0.92893 0.19172 0.0
N1150 N 0.20592 0.92604 0.19707 0.0
H1151 H 0.16787 0.92021 0.23131 0.0
H1152 H 0.24769 0.93224 0.16738 0.0
C1153 C 0.10122 0.94606 0.12312 0.0
N1154 N 0.13039 0.93242 0.11515 0.0
C1155 C 0.10783 0.90954 0.06666 0.0
C1156 C 0.07688 0.92037 0.07614 0.0
C1157 C 0.07388 0.94038 0.10364 0.0
C1158 C 0.13447 0.91569 0.08686 0.0
H1159 H 0.09809 0.95788 0.14644 0.0
H1160 H 0.15736 0.90377 0.08197 0.0
C1161 C 0.23524 0.91728 0.10387 0.0
C1162 C 0.22064 0.0612 0.09059 0.0
N1163 N 0.26279 0.00771 0.15393 0.0
C1164 C 0.29263 0.00612 0.13969 0.0
C1165 C 0.31987 0.01863 0.15579 0.0
C1166 C 0.31607 0.03259 0.18671 0.0
C1167 C 0.28529 0.03245 0.20152 0.0
C1168 C 0.25866 0.01997 0.18443 0.0
C1169 C 0.13262 0.86231 0.18035 0.0
O1170 O 0.17613 0.00565 0.16419 0.0
O1171 O 0.1463 0.96625 0.18465 0.0
O1172 O 0.21003 0.90665 0.11836 0.0
O1173 O 0.2437 0.94714 0.10538 0.0
O1174 O 0.20216 0.05589 0.11472 0.0
O1175 O 0.2397 0.03822 0.08238 0.0
O1176 O 0.15417 0.85982 0.1584 0.0
O1177 O 0.12705 0.8906 0.19117 0.0
H1178 H 0.29491 0.99689 0.1151 0.0
H1179 H 0.23446 0.02171 0.19469 0.0
H1180 H 0.11064 0.00212 0.04674 0.0
H1181 H 0.1932 0.95285 0.0034 0.0
H1182 H 0.2046 0.91345 0.27785 0.0
H1183 H 0.28642 0.92603 0.21281 0.0
H1184 H 0.1107 0.89334 0.04599 0.0
H1185 H 0.05011 0.94826 0.11201 0.0
H1186 H 0.34339 0.01846 0.14383 0.0
H1187 H 0.28164 0.0434 0.22528 0.0
Cd1188 Cd 0.27378 0.99316 0.61935 0.0
Cd1189 Cd 0.32252 0.07654 0.66515 0.0
C1190 C 0.28737 0.01353 0.54551 0.0
N1191 N 0.30349 0.00976 0.57421 0.0
C1192 C 0.35436 0.02133 0.54845 0.0
C1193 C 0.33796 0.02707 0.51907 0.0
C1194 C 0.30419 0.02275 0.51751 0.0
C1195 C 0.33645 0.01243 0.57598 0.0
H1196 H 0.26139 0.00938 0.54448 0.0
H1197 H 0.34874 0.00754 0.59873 0.0
C1198 C 0.33737 0.0014 0.6822 0.0
C1199 C 0.29368 0.06269 0.73396 0.0
C1200 C 0.27214 0.06524 0.75989 0.0
C1201 C 0.23917 0.0712 0.75354 0.0
C1202 C 0.22776 0.07003 0.72132 0.0
C1203 C 0.25021 0.06687 0.69599 0.0
N1204 N 0.28257 0.06501 0.70287 0.0
H1205 H 0.31957 0.06195 0.7387 0.0
H1206 H 0.24199 0.06882 0.67109 0.0
C1207 C 0.38895 0.05474 0.6322 0.0
N1208 N 0.35996 0.06865 0.62403 0.0
C1209 C 0.3843 0.09576 0.57881 0.0
C1210 C 0.41478 0.08364 0.58824 0.0
C1211 C 0.4169 0.0619 0.61438 0.0
C1212 C 0.35694 0.08811 0.5974 0.0
H1213 H 0.39129 0.04081 0.65435 0.0
H1214 H 0.33408 0.10025 0.59247 0.0
C1215 C 0.25785 0.07521 0.60362 0.0
C1216 C 0.27795 0.93148 0.59028 0.0
N1217 N 0.2292 0.98399 0.65291 0.0
C1218 C 0.19932 -0.00249 0.64808 0.0
C1219 C 0.17246 0.98639 0.66595 0.0
C1220 C 0.17655 0.96094 0.68856 0.0
C1221 C 0.20805 0.9486 0.69385 0.0
C1222 C 0.2341 0.96051 0.67567 0.0
C1223 C 0.35479 0.13301 0.68879 0.0
O1224 O 0.31552 -0.00161 0.66058 0.0
O1225 O 0.34528 0.02955 0.69156 0.0
O1226 O 0.28008 0.08426 0.62333 0.0
O1227 O 0.25055 0.04521 0.60022 0.0
O1228 O 0.29755 0.94084 0.61224 0.0
O1229 O 0.25378 0.94975 0.58387 0.0
O1230 O 0.32844 0.13582 0.67281 0.0
O1231 O 0.36395 0.10441 0.6955 0.0
H1232 H 0.19611 0.01601 0.62959 0.0
H1233 H 0.2581 0.95001 0.67861 0.0
H1234 H 0.38053 0.0243 0.55017 0.0
H1235 H 0.29099 0.02687 0.49502 0.0
H1236 H 0.28173 0.06637 0.78448 0.0
H1237 H 0.20236 0.07459 0.71577 0.0
H1238 H 0.38223 0.11328 0.5592 0.0
H1239 H 0.44028 0.05259 0.6224 0.0
H1240 H 0.14872 -0.00293 0.66165 0.0
H1241 H 0.21232 0.92889 0.71086 0.0
Cd1242 Cd 0.82588 0.41809 0.331 0.0
Cd1243 Cd 0.77625 0.49945 0.37109 0.0
C1244 C 0.89144 0.44377 0.36619 0.0
N1245 N 0.86327 0.42733 0.37223 0.0
C1246 C 0.88685 0.40149 0.41862 0.0
C1247 C 0.91668 0.41637 0.41164 0.0
C1248 C 0.91862 0.43883 0.38602 0.0
C1249 C 0.8602 0.40733 0.39844 0.0
H1250 H 0.89396 0.45833 0.34446 0.0
H1251 H 0.83815 0.39337 0.40178 0.0
C1252 C 0.76 0.41717 0.38879 0.0
C1253 C 0.70073 0.50102 0.34855 0.0
C1254 C 0.67383 0.51194 0.33063 0.0
C1255 C 0.67879 0.52766 0.30064 0.0
C1256 C 0.71064 0.52997 0.28835 0.0
C1257 C 0.73675 0.51862 0.30697 0.0
N1258 N 0.73141 0.50535 0.33682 0.0
H1259 H 0.69728 0.491 0.37267 0.0
H1260 H 0.76142 0.52222 0.29849 0.0
C1261 C 0.79494 0.46946 0.4409 0.0
N1262 N 0.80947 0.48203 0.41391 0.0
C1263 C 0.86178 0.47845 0.43944 0.0
C1264 C 0.84758 0.46257 0.46615 0.0
C1265 C 0.81366 0.45898 0.46712 0.0
C1266 C 0.84206 0.48797 0.41326 0.0
H1267 H 0.76872 0.46763 0.44226 0.0
H1268 H 0.85275 0.49979 0.39228 0.0
C1269 C 0.83972 0.49631 0.30911 0.0
C1270 C 0.85621 0.36155 0.30311 0.0
N1271 N 0.7837 0.42893 0.29454 0.0
C1272 C 0.79396 0.43462 0.26355 0.0
C1273 C 0.77245 0.43141 0.23754 0.0
C1274 C 0.74043 0.42152 0.24365 0.0
C1275 C 0.72948 0.41929 0.2759 0.0
C1276 C 0.75179 0.42302 0.30127 0.0
C1277 C 0.77542 0.56131 0.4019 0.0
O1278 O 0.78387 0.40701 0.37182 0.0
O1279 O 0.7516 0.44708 0.38869 0.0
O1280 O 0.81796 0.50534 0.3291 0.0
O1281 O 0.8473 0.46654 0.30675 0.0
O1282 O 0.83765 0.35917 0.32766 0.0
O1283 O 0.85984 0.38975 0.29129 0.0
O1284 O 0.79385 0.55448 0.37816 0.0
O1285 O 0.75471 0.53975 0.41 0.0
H1286 H 0.81954 0.43845 0.25866 0.0
H1287 H 0.744 0.4181 0.32578 0.0
H1288 H 0.88516 0.38296 0.43731 0.0
H1289 H 0.94168 0.44991 0.37955 0.0
H1290 H 0.6497 0.51011 0.34112 0.0
H1291 H 0.7154 0.54186 0.26528 0.0
H1292 H 0.88785 0.48235 0.43833 0.0
H1293 H 0.80172 0.44818 0.48803 0.0
H1294 H 0.78171 0.4329 0.21286 0.0
H1295 H 0.70484 0.41151 0.28126 0.0
C1296 C 0.02092 0.48379 0.39061 0.0
C1297 C 0.04104 0.49986 0.36792 0.0
C1298 C 0.03211 0.45611 0.40744 0.0
C1299 C 0.06394 0.44455 0.40261 0.0
H1300 H 0.99608 0.49188 0.39438 0.0
H1301 H 0.01574 0.44339 0.42376 0.0
S1302 S 0.12642 0.4784 0.34714 0.0
N1303 N 0.09436 0.50218 0.34206 0.0
N1304 N 0.11552 0.45117 0.37461 0.0
C1305 C 0.08448 0.46096 0.38089 0.0
C1306 C 0.07301 0.48843 0.36331 0.0
C1307 C 0.45232 0.55883 0.87062 0.0
C1308 C 0.44565 0.55792 0.90414 0.0
C1309 C 0.46522 0.53183 0.85452 0.0
C1310 C 0.47104 0.50219 0.87091 0.0
H1311 H 0.44592 0.57999 0.85619 0.0
H1312 H 0.4692 0.53393 0.82853 0.0
S1313 S 0.46922 0.49203 0.96095 0.0
N1314 N 0.45366 0.52857 0.95475 0.0
N1315 N 0.47717 0.47696 0.92446 0.0
C1316 C 0.46819 0.50231 0.90522 0.0
C1317 C 0.4553 0.53024 0.92175 0.0
C1318 C 0.57374 -0.00212 0.62463 0.0
C1319 C 0.54242 0.98537 0.61871 0.0
C1320 C 0.58559 0.02454 0.60726 0.0
C1321 C 0.56625 0.04024 0.58387 0.0
H1322 H 0.58903 0.98736 0.64339 0.0
H1323 H 0.60956 0.03391 0.61322 0.0
S1324 S 0.48294 0.01684 0.5585 0.0
N1325 N 0.49264 0.99001 0.5869 0.0
N1326 N 0.51477 0.04126 0.55476 0.0
C1327 C 0.53515 0.02782 0.57708 0.0
C1328 C 0.52326 5e-05 0.59438 0.0
C1329 C 0.95069 0.96146 0.08548 0.0
C1330 C 0.94958 0.93154 0.1024 0.0
C1331 C 0.96343 0.98963 0.10002 0.0
C1332 C 0.97619 0.98888 0.13174 0.0
H1333 H 0.93989 0.96367 0.06151 0.0
H1334 H 0.96125 0.01252 0.0872 0.0
S1335 S 0.98964 0.91512 0.1822 0.0
N1336 N 0.96873 0.90204 0.15046 0.0
N1337 N 0.99537 0.95438 0.17587 0.0
C1338 C 0.98 0.95832 0.14677 0.0
C1339 C 0.96609 0.92977 0.13256 0.0
C1340 C 0.36979 0.01949 0.46771 0.0
C1341 C 0.35548 0.04029 0.49082 0.0
C1342 C 0.38578 0.03229 0.44031 0.0
C1343 C 0.38872 0.06618 0.43588 0.0
H1344 H 0.36837 0.9933 0.47072 0.0
H1345 H 0.39624 0.01563 0.42271 0.0
S1346 S 0.35185 0.13033 0.48806 0.0
N1347 N 0.34254 0.09577 0.5064 0.0
N1348 N 0.37311 0.12002 0.4555 0.0
C1349 C 0.37361 0.08703 0.45858 0.0
C1350 C 0.35697 0.074 0.48601 0.0
C1351 C 0.09909 0.95951 0.99163 0.0
C1352 C 0.13093 0.97183 0.99002 0.0
C1353 C 0.08385 0.94649 0.96403 0.0
C1354 C 0.10005 0.94503 0.9338 0.0
H1355 H 0.08673 0.958 0.0148 0.0
H1356 H 0.05982 0.93594 0.96677 0.0
S1357 S 0.18092 0.9813 0.91534 0.0
N1358 N 0.1755 0.98813 0.95459 0.0
N1359 N 0.14806 0.96163 0.90307 0.0
C1360 C 0.13065 0.96034 0.9312 0.0
C1361 C 0.14581 0.9742 0.95924 0.0
C1362 C 0.88988 0.46848 0.51001 0.0
C1363 C 0.86771 0.4488 0.49269 0.0
C1364 C 0.90658 0.45625 0.53731 0.0
C1365 C 0.90197 0.4239 0.54748 0.0
H1366 H 0.89334 0.49375 0.5032 0.0
H1367 H 0.92263 0.47223 0.55081 0.0
S1368 S 0.84885 0.3619 0.50899 0.0
N1369 N 0.84342 0.39504 0.48684 0.0
N1370 N 0.87541 0.37203 0.53747 0.0
C1371 C 0.88111 0.40369 0.52951 0.0
C1372 C 0.86379 0.41616 0.50226 0.0
C1373 C 0.59114 0.5342 -0.00069 0.0
C1374 C 0.62131 0.51816 0.00057 0.0
C1375 C 0.57746 0.54803 0.02741 0.0
C1376 C 0.59373 0.5468 0.05777 0.0
H1377 H 0.57909 0.53802 0.97621 0.0
H1378 H 0.55483 0.56135 0.02479 0.0
S1379 S 0.66814 0.49745 0.07497 0.0
N1380 N 0.66209 0.49335 0.03547 0.0
N1381 N 0.63869 0.52157 0.08782 0.0
C1382 C 0.62179 0.52684 0.05984 0.0
C1383 C 0.63496 0.51196 0.03133 0.0
C1384 C 0.46343 0.40328 0.06981 0.0
C1385 C 0.43287 0.39625 0.05575 0.0
C1386 C 0.49176 0.38774 0.05908 0.0
C1387 C 0.49077 0.36445 0.03416 0.0
H1388 H 0.46542 0.41926 0.09073 0.0
H1389 H 0.51423 0.39256 0.07173 0.0
S1390 S 0.41825 0.33945 0.98668 0.0
N1391 N 0.40433 0.36692 0.0126 0.0
N1392 N 0.4577 0.3364 0.994 0.0
C1393 C 0.46097 0.35828 0.01867 0.0
C1394 C 0.43205 0.37458 0.02902 0.0
C1395 C 0.98719 0.13427 0.91497 0.0
C1396 C -0.00151 0.13234 0.94726 0.0
C1397 C 0.96049 0.11575 0.90459 0.0
C1398 C 0.94431 0.09453 0.92602 0.0
H1399 H -0.001 0.15026 0.89763 0.0
H1400 H 0.95201 0.1185 0.87973 0.0
S1401 S 0.96473 0.08058 0.01256 0.0
N1402 N 0.99142 0.10789 0.0005 0.0
N1403 N 0.94152 0.07245 0.98066 0.0
C1404 C 0.95545 0.09219 0.95817 0.0
C1405 C 0.98259 0.11113 0.96881 0.0
C1406 C 0.52985 0.91064 0.44638 0.0
C1407 C 0.55994 0.89449 0.44268 0.0
C1408 C 0.50243 0.89429 0.45859 0.0
C1409 C 0.50396 0.86116 0.46716 0.0
H1410 H 0.52704 0.93565 0.4384 0.0
H1411 H 0.47951 0.90714 0.45951 0.0
S1412 S 0.57841 0.80977 0.46929 0.0
N1413 N 0.59045 0.84453 0.4532 0.0
N1414 N 0.53941 0.81476 0.4774 0.0
C1415 C 0.53466 0.84589 0.46704 0.0
C1416 C 0.5625 0.86229 0.45444 0.0
C1417 C 0.01223 0.64018 0.5656 0.0
C1418 C -0.00326 0.632 0.5361 0.0
C1419 C 0.03928 0.62284 0.57666 0.0
C1420 C 0.0516 0.59629 0.55903 0.0
H1421 H 0.00339 0.6602 0.58038 0.0
H1422 H 0.05077 0.6303 0.59927 0.0
S1423 S 0.01951 0.56352 0.48143 0.0
N1424 N 0.99573 0.59496 0.48963 0.0
N1425 N 0.04614 0.56149 0.5116 0.0
C1426 C 0.03614 0.58707 0.53005 0.0
C1427 C 0.00869 0.60506 0.51837 0.0
C1428 C 0.9309 0.50264 0.61452 0.0
C1429 C 0.959 0.50437 0.6337 0.0
C1430 C 0.91887 0.53006 0.5984 0.0
C1431 C 0.93477 0.56047 0.60047 0.0
H1432 H 0.91717 0.48029 0.61325 0.0
H1433 H 0.89591 0.52749 0.58568 0.0
S1434 S 0.01076 0.57701 0.64709 0.0
N1435 N 0.00306 0.53811 0.65397 0.0
N1436 N 0.9818 0.58973 0.62219 0.0
C1437 C 0.96392 0.5621 0.61875 0.0
C1438 C 0.97568 0.53409 0.63577 0.0
C1439 C 0.52665 0.48411 0.09557 0.0
C1440 C 0.53934 0.49473 0.1257 0.0
C1441 C 0.54113 0.45811 0.07852 0.0
C1442 C 0.56869 0.44226 0.09116 0.0
H1443 H 0.50491 0.49529 0.0856 0.0
H1444 H 0.53027 0.44985 0.05592 0.0
S1445 S 0.61449 0.46377 0.16585 0.0
N1446 N 0.58348 0.48937 0.16521 0.0
N1447 N 0.61022 0.44079 0.13312 0.0
C1448 C 0.58261 0.45373 0.1201 0.0
C1449 C 0.56797 0.47981 0.13749 0.0
C1450 C 0.46821 0.96496 0.35551 0.0
C1451 C 0.47055 0.99477 0.3726 0.0
C1452 C 0.45608 0.93684 0.37034 0.0
C1453 C 0.44662 0.93705 0.40316 0.0
H1454 H 0.47412 0.96364 0.32983 0.0
H1455 H 0.4521 0.91546 0.35535 0.0
S1456 S 0.45992 0.00376 0.4621 0.0
N1457 N 0.47009 0.01983 0.4266 0.0
N1458 N 0.44833 0.9661 0.45444 0.0
C1459 C 0.45315 0.96496 0.42174 0.0
C1460 C 0.46514 0.99397 0.40657 0.0
C1461 C 0.05521 0.02607 0.90775 0.0
C1462 C 0.04935 0.05723 0.89428 0.0
C1463 C 0.04036 -0.00188 0.89505 0.0
C1464 C 0.02072 -0.00034 0.86721 0.0
H1465 H 0.07288 0.02243 0.92694 0.0
H1466 H 0.04612 0.9749 0.90576 0.0
S1467 S 0.98884 0.07489 0.82882 0.0
N1468 N 0.01448 0.08797 0.85693 0.0
N1469 N 0.98974 0.03476 0.83115 0.0
C1470 C 0.01155 0.03053 0.85574 0.0
C1471 C 0.0253 0.05936 0.8696 0.0
C1472 C 0.60718 0.97036 0.51274 0.0
C1473 C 0.63494 0.95672 0.49797 0.0
C1474 C 0.59228 0.95487 0.53931 0.0
C1475 C 0.60438 0.9251 0.55107 0.0
H1476 H 0.59749 0.99339 0.50422 0.0
H1477 H 0.57136 0.96616 0.55075 0.0
S1478 S 0.67468 0.87828 0.51935 0.0
N1479 N 0.67299 0.91116 0.49626 0.0
N1480 N 0.64435 0.88185 0.54551 0.0
C1481 C 0.63136 0.9108 0.53589 0.0
C1482 C 0.64685 0.92671 0.50948 0.0
C1483 C 0.90784 0.02592 0.03826 0.0
C1484 C 0.88978 0.03615 0.06544 0.0
C1485 C 0.89238 0.01699 0.00912 0.0
C1486 C 0.85824 0.01763 0.0065 0.0
H1487 H 0.9341 0.02678 0.03887 0.0
H1488 H 0.90736 0.01195 0.988 0.0
S1489 S 0.80012 0.03307 0.07423 0.0
N1490 N 0.83633 0.04031 0.09019 0.0
N1491 N 0.80695 0.02163 0.03626 0.0
C1492 C 0.84 0.02329 0.03512 0.0
C1493 C 0.85585 0.03292 0.06448 0.0
C1494 C 0.10964 0.52072 0.47794 0.0
C1495 C 0.13304 0.5381 0.49594 0.0
C1496 C 0.09318 0.53558 0.4519 0.0
C1497 C 0.09884 0.56848 0.4442 0.0
H1498 H 0.10456 0.49545 0.48362 0.0
H1499 H 0.07577 0.52146 0.43792 0.0
S1500 S 0.15872 0.62378 0.48314 0.0
N1501 N 0.16208 0.58921 0.50343 0.0
N1502 N 0.13023 0.61742 0.45543 0.0
C1503 C 0.12215 0.58597 0.46206 0.0
C1504 C 0.13945 0.5707 0.4878 0.0
C1505 C 0.39596 0.45239 0.99348 0.0
C1506 C 0.36483 0.46613 0.99086 0.0
C1507 C 0.41192 0.43971 0.96611 0.0
C1508 C 0.39783 0.44095 0.9347 0.0
H1509 H 0.40747 0.45004 0.01706 0.0
H1510 H 0.43546 0.42846 0.96993 0.0
S1511 S 0.31738 0.47836 0.915 0.0
N1512 N 0.32154 0.4836 0.95462 0.0
N1513 N 0.35059 0.45907 0.90317 0.0
C1514 C 0.36721 0.45654 0.93172 0.0
C1515 C 0.35106 0.4694 0.95972 0.0
C1516 C 0.52926 0.58315 0.9469 0.0
C1517 C 0.5599 0.59847 0.94538 0.0
C1518 C 0.50219 0.59915 0.96021 0.0
C1519 C 0.50446 0.63118 0.97208 0.0
H1520 H 0.52582 0.55915 0.93642 0.0
H1521 H 0.47893 0.5871 0.95944 0.0
S1522 S 0.58052 0.67925 0.98094 0.0
N1523 N 0.59187 0.64585 0.96159 0.0
N1524 N 0.54114 0.67501 0.98777 0.0
C1525 C 0.53563 0.64532 0.97409 0.0
C1526 C 0.56327 0.62921 0.9604 0.0
C1527 C 0.00396 0.89521 0.02494 0.0
C1528 C 0.9951 0.86531 0.03935 0.0
C1529 C 0.03005 0.91368 0.03716 0.0
C1530 C 0.0481 0.90271 0.06404 0.0
H1531 H 0.99096 0.90419 0.00379 0.0
H1532 H 0.03607 0.9365 0.0255 0.0
S1533 S 0.0332 0.82833 0.11285 0.0
N1534 N 0.00536 0.82718 0.08383 0.0
N1535 N 0.05447 0.86177 0.10612 0.0
C1536 C 0.03906 0.87353 0.07923 0.0
C1537 C 0.01265 0.85477 0.06697 0.0
C1538 C 0.46426 0.11784 0.59423 0.0
C1539 C 0.44453 0.09801 0.57449 0.0
C1540 C 0.49079 0.13464 0.58101 0.0
C1541 C 0.49873 0.13161 0.54781 0.0
H1542 H 0.45848 0.12122 0.61978 0.0
H1543 H 0.50503 0.15035 0.59678 0.0
S1544 S 0.45611 0.08061 0.48725 0.0
N1545 N 0.43509 0.07517 0.52101 0.0
N1546 N 0.4859 0.10603 0.49613 0.0
C1547 C 0.47987 0.11092 0.52824 0.0
C1548 C 0.45242 0.09438 0.54158 0.0
C1549 C 0.95484 0.4048 0.45786 0.0
C1550 C 0.94653 0.40165 0.4248 0.0
C1551 C 0.98091 0.38691 0.47101 0.0
C1552 C -0.00153 0.36466 0.45163 0.0
H1553 H 0.94076 0.42062 0.47364 0.0
H1554 H 0.98659 0.38956 0.49666 0.0
S1555 S 0.98531 0.34755 0.3638 0.0
N1556 N 0.95778 0.3754 0.37299 0.0
N1557 N 0.00559 0.34068 0.39785 0.0
C1558 C 0.99024 0.36155 0.41854 0.0
C1559 C 0.96453 0.38035 0.40507 0.0
C1560 C 0.20291 0.38057 0.27655 0.0
C1561 C 0.21879 0.41074 0.28006 0.0
C1562 C 0.18929 0.36465 0.30342 0.0
C1563 C 0.19122 0.37827 0.33479 0.0
H1564 H 0.20267 0.36821 0.2532 0.0
H1565 H 0.17851 0.34082 0.29977 0.0
S1566 S 0.22517 0.45951 0.35583 0.0
N1567 N 0.2321 0.45557 0.31637 0.0
N1568 N 0.20649 0.42571 0.36713 0.0
C1569 C 0.20507 0.40949 0.33826 0.0
C1570 C 0.21887 0.42571 0.31082 0.0
C1571 C 0.30068 0.62854 0.80252 0.0
C1572 C 0.29751 0.61516 0.8339 0.0
C1573 C 0.28574 0.61396 0.77551 0.0
C1574 C 0.26704 0.58544 0.77884 0.0
H1575 H 0.31389 0.65109 0.79885 0.0
H1576 H 0.2875 0.62607 0.75213 0.0
S1577 S 0.25461 0.53819 0.85477 0.0
N1578 N 0.27671 0.56984 0.86616 0.0
N1579 N 0.24869 0.54255 0.81521 0.0
C1580 C 0.26508 0.57079 0.8097 0.0
C1581 C 0.28031 0.5856 0.83726 0.0
C1582 C 0.69415 0.12725 0.68967 0.0
C1583 C 0.69402 0.1123 0.65882 0.0
C1584 C 0.70934 0.11237 0.71634 0.0
C1585 C 0.72493 0.08204 0.71309 0.0
H1586 H 0.68357 0.15122 0.69304 0.0
H1587 H 0.71036 0.12548 0.73925 0.0
S1588 S 0.72721 0.03034 0.63916 0.0
N1589 N 0.70759 0.06355 0.62762 0.0
N1590 N 0.73654 0.03594 0.67792 0.0
C1591 C 0.72341 0.06593 0.683 0.0
C1592 C 0.70781 0.08096 0.65582 0.0
C1593 C 0.77718 0.85649 0.18486 0.0
C1594 C 0.79536 0.87343 0.16141 0.0
C1595 C 0.76344 0.8729 0.21135 0.0
C1596 C 0.76782 0.90661 0.21544 0.0
H1597 H 0.77283 0.83056 0.18226 0.0
H1598 H 0.74875 0.85924 0.22851 0.0
S1599 S 0.81597 0.96151 0.16267 0.0
N1600 N 0.81875 0.92541 0.14494 0.0
N1601 N 0.79295 0.95616 0.19529 0.0
C1602 C 0.78667 0.92375 0.19281 0.0
C1603 C 0.80046 0.90712 0.16559 0.0
C1604 C 0.30408 0.18016 0.3733 0.0
C1605 C 0.33308 0.19835 0.37229 0.0
C1606 C 0.27612 0.19258 0.38843 0.0
C1607 C 0.27616 0.22369 0.40285 0.0
H1608 H 0.30283 0.15638 0.36189 0.0
H1609 H 0.25398 0.17821 0.3879 0.0
S1610 S 0.34622 0.28079 0.40704 0.0
N1611 N 0.3606 0.24847 0.38785 0.0
N1612 N 0.30787 0.27222 0.41551 0.0
C1613 C 0.30539 0.24162 0.40297 0.0
C1614 C 0.33391 0.22886 0.38784 0.0
C1615 C 0.15946 0.78268 0.90398 0.0
C1616 C 0.16231 0.79606 0.8725 0.0
C1617 C 0.18633 0.76857 0.91969 0.0
C1618 C 0.21698 0.76754 0.90453 0.0
H1619 H 0.13618 0.78262 0.9164 0.0
H1620 H 0.18295 0.75763 0.94347 0.0
S1621 S 0.23731 0.7986 0.82216 0.0
N1622 N 0.19834 0.80736 0.82686 0.0
N1623 N 0.2487 0.7807 0.85633 0.0
C1624 C 0.22036 0.7815 0.87345 0.0
C1625 C 0.19305 0.79581 0.85744 0.0
C1626 C 0.8058 0.26589 0.57395 0.0
C1627 C 0.77486 0.26632 0.58848 0.0
C1628 C 0.83254 0.28043 0.58937 0.0
C1629 C 0.82933 0.29556 0.62004 0.0
H1630 H 0.80955 0.25322 0.55108 0.0
H1631 H 0.85609 0.27887 0.57756 0.0
S1632 S 0.75287 0.30424 0.66752 0.0
N1633 N 0.74202 0.28406 0.63444 0.0
N1634 N 0.79224 0.31143 0.66353 0.0
C1635 C 0.79815 0.29735 0.63412 0.0
C1636 C 0.77091 0.28271 0.61829 0.0
C1637 C 0.6577 0.71272 0.0905 0.0
C1638 C 0.66128 0.69894 0.12176 0.0
C1639 C 0.68425 0.72668 0.07423 0.0
C1640 C 0.71533 0.72706 0.08851 0.0
H1641 H 0.63411 0.71321 0.07866 0.0
H1642 H 0.68033 0.73788 0.05064 0.0
S1643 S 0.73771 0.69479 0.16994 0.0
N1644 N 0.6985 0.68667 0.16627 0.0
N1645 N 0.74828 0.71297 0.13569 0.0
C1646 C 0.71942 0.71282 0.1194 0.0
C1647 C 0.69242 0.69874 0.13603 0.0
C1648 C 0.42121 0.30955 0.22211 0.0
C1649 C 0.40869 0.2778 0.21958 0.0
C1650 C 0.4039 0.33623 0.2098 0.0
C1651 C 0.37331 0.33211 0.19477 0.0
H1652 H 0.44382 0.31392 0.23503 0.0
H1653 H 0.41411 0.36034 0.21318 0.0
S1654 S 0.33127 0.25344 0.1797 0.0
N1655 N 0.36498 0.24337 0.19918 0.0
N1656 N 0.33254 0.29345 0.17571 0.0
C1657 C 0.36142 0.30026 0.19046 0.0
C1658 C 0.37913 0.2731 0.20289 0.0
C1659 C 0.908 0.15638 0.78413 0.0
C1660 C 0.87796 0.16008 0.80031 0.0
C1661 C 0.9238 0.18311 0.77005 0.0
C1662 C 0.91029 0.21451 0.77192 0.0
H1663 H 0.91886 0.13248 0.78121 0.0
H1664 H 0.94597 0.17899 0.75632 0.0
S1665 S 0.83366 0.23786 0.81373 0.0
N1666 N 0.83657 0.19813 0.81934 0.0
N1667 N 0.86626 0.24827 0.79264 0.0
C1668 C 0.88135 0.21891 0.78966 0.0
C1669 C 0.86516 0.1917 0.8039 0.0
C1670 C 0.57495 0.80771 0.27122 0.0
C1671 C 0.59134 0.77794 0.26729 0.0
C1672 C 0.59093 0.83487 0.28445 0.0
C1673 C 0.62391 0.83321 0.29392 0.0
H1674 H 0.54982 0.81013 0.26349 0.0
H1675 H 0.57739 0.8574 0.28695 0.0
S1676 S 0.67797 0.76106 0.28674 0.0
N1677 N 0.64241 0.74847 0.27279 0.0
N1678 N 0.67247 0.79939 0.2977 0.0
C1679 C 0.64044 0.80343 0.29026 0.0
C1680 C 0.62414 0.77582 0.27692 0.0
C1681 C 0.09806 0.71616 0.69154 0.0
C1682 C 0.08438 0.71558 0.72296 0.0
C1683 C 0.11263 0.68835 0.67816 0.0
C1684 C 0.11373 0.6589 0.69558 0.0
H1685 H 0.09866 0.73866 0.67775 0.0
H1686 H 0.12374 0.69014 0.65429 0.0
S1687 S 0.08003 0.64395 0.77807 0.0
N1688 N 0.072 0.68268 0.77073 0.0
N1689 N 0.09848 0.63018 0.74508 0.0
C1690 C 0.09856 0.65742 0.72623 0.0
C1691 C 0.08405 0.68583 0.74004 0.0
C1692 C 0.7501 0.59498 0.68968 0.0
C1693 C 0.77051 0.58958 0.71674 0.0
C1694 C 0.7617 0.6107 0.66175 0.0
C1695 C 0.79397 0.62189 0.66011 0.0
H1696 H 0.72453 0.58851 0.6907 0.0
H1697 H 0.74492 0.61531 0.64188 0.0
S1698 S 0.85862 0.60849 0.72181 0.0
N1699 N 0.8255 0.59276 0.7384 0.0
N1700 N 0.8473 0.62278 0.68592 0.0
C1701 C 0.81513 0.61496 0.68613 0.0
C1702 C 0.80339 0.59867 0.71446 0.0
C1703 C 0.7021 0.40585 0.1614 0.0
C1704 C 0.69789 0.37176 0.16184 0.0
C1705 C 0.71426 0.42245 0.18867 0.0
C1706 C 0.72223 0.40546 0.21725 0.0
H1707 H 0.69642 0.41975 0.13968 0.0
H1708 H 0.71825 0.44851 0.18718 0.0
S1709 S 0.71697 0.31624 0.23053 0.0
N1710 N 0.7032 0.32171 0.19313 0.0
N1711 N 0.726 0.35294 0.2443 0.0
C1712 C 0.71761 0.37156 0.2182 0.0
C1713 C 0.7054 0.35467 0.1905 0.0
C1714 C 0.26626 0.91879 0.30722 0.0
C1715 C 0.2702 0.9068 0.27536 0.0
C1716 C 0.28123 0.90344 0.33377 0.0
C1717 C 0.30068 0.87547 0.32949 0.0
H1718 H 0.25046 0.93945 0.31177 0.0
H1719 H 0.27672 0.91307 0.35794 0.0
S1720 S 0.32024 0.8356 0.25066 0.0
N1721 N 0.2961 0.86623 0.24077 0.0
N1722 N 0.32464 0.83763 0.2906 0.0
C1723 C 0.3062 0.86426 0.29756 0.0
C1724 C 0.2909 0.87989 0.27051 0.0
C1725 C 0.20513 0.08881 0.83683 0.0
C1726 C 0.19679 0.12203 0.83431 0.0
C1727 C 0.21658 0.07144 0.80981 0.0
C1728 C 0.21972 0.08664 0.77937 0.0
H1729 H 0.20346 0.07624 0.85997 0.0
H1730 H 0.22422 0.04635 0.81298 0.0
S1731 S 0.20082 0.17279 0.75962 0.0
N1732 N 0.19187 0.16917 0.79866 0.0
N1733 N 0.21344 0.13642 0.74793 0.0
C1734 C 0.21039 0.11943 0.7762 0.0
C1735 C 0.19893 0.13718 0.80369 0.0
C1736 C 0.68078 0.77237 0.5784 0.0
C1737 C 0.71143 0.76896 0.59317 0.0
C1738 C 0.65401 0.78365 0.59628 0.0
C1739 C 0.65706 0.79171 0.62952 0.0
H1740 H 0.67739 0.7657 0.55306 0.0
H1741 H 0.63078 0.78608 0.58396 0.0
S1742 S 0.73181 0.78511 0.67979 0.0
N1743 N 0.74316 0.77325 0.64306 0.0
N1744 N 0.69288 0.79479 0.67659 0.0
C1745 C 0.68764 0.7886 0.64446 0.0
C1746 C 0.71485 0.77712 0.62629 0.0
C1747 C 0.77655 0.20977 0.11962 0.0
C1748 C 0.77762 0.21746 0.08627 0.0
C1749 C 0.80325 0.19536 0.13518 0.0
C1750 C 0.83195 0.18836 0.1179 0.0
H1751 H 0.75546 0.21632 0.1341 0.0
H1752 H 0.80183 0.19088 0.16115 0.0
S1753 S 0.84505 0.19971 0.02913 0.0
N1754 N 0.80816 0.21443 0.03578 0.0
N1755 N 0.85856 0.18702 0.06488 0.0
C1756 C 0.83269 0.19448 0.08415 0.0
C1757 C 0.80544 0.20916 0.06835 0.0
C1758 C 0.16166 0.73485 0.37711 0.0
C1759 C 0.1593 0.70109 0.37192 0.0
C1760 C 0.18876 0.74833 0.39276 0.0
C1761 C 0.21438 0.72853 0.40409 0.0
H1762 H 0.14295 0.75114 0.36805 0.0
H1763 H 0.19028 0.77462 0.3947 0.0
S1764 S 0.21735 0.63826 0.40133 0.0
N1765 N 0.18307 0.64777 0.38247 0.0
N1766 N 0.23402 0.67325 0.41228 0.0
C1767 C 0.2115 0.69458 0.40066 0.0
C1768 C 0.18395 0.68083 0.38449 0.0
C1769 C 0.27629 0.28081 0.87561 0.0
C1770 C 0.27803 0.27079 0.90834 0.0
C1771 C 0.30342 0.29389 0.85974 0.0
C1772 C 0.33338 0.29735 0.87596 0.0
H1773 H 0.25414 0.27719 0.86168 0.0
H1774 H 0.3011 0.30036 0.83425 0.0
S1775 S 0.34935 0.27865 0.9631 0.0
N1776 N 0.31102 0.26779 0.95735 0.0
N1777 N 0.36232 0.29254 0.92763 0.0
C1778 C 0.33505 0.28879 0.90919 0.0
C1779 C 0.30732 0.27544 0.92535 0.0
C1780 C 0.59715 0.69131 0.75189 0.0
C1781 C 0.58317 0.71508 0.77233 0.0
C1782 C 0.61461 0.66506 0.76471 0.0
C1783 C 0.61915 0.66179 0.79844 0.0
H1784 H 0.59575 0.69365 0.72562 0.0
H1785 H 0.62541 0.64771 0.74797 0.0
S1786 S 0.58401 0.71487 0.86266 0.0
N1787 N 0.57237 0.73192 0.82809 0.0
N1788 N 0.60584 0.68263 0.85233 0.0
C1789 C 0.6044 0.68464 0.81931 0.0
C1790 C 0.58624 0.71128 0.80622 0.0
C1791 C 0.10956 0.80628 0.17399 0.0
C1792 C 0.1156 0.83369 0.19368 0.0
C1793 C 0.09484 0.77828 0.18692 0.0
C1794 C 0.08582 0.77685 0.21994 0.0
H1795 H 0.11654 0.80637 0.14853 0.0
H1796 H 0.0912 0.75733 0.17124 0.0
S1797 S 0.09789 0.84172 0.28192 0.0
N1798 N 0.11188 0.85762 0.24775 0.0
N1799 N 0.08486 0.80493 0.2722 0.0
C1800 C 0.09135 0.80435 0.2397 0.0
C1801 C 0.10609 0.83281 0.22652 0.0
C1802 C 0.36018 0.19266 0.69922 0.0
C1803 C 0.37423 0.16144 0.69902 0.0
C1804 C 0.37739 0.21945 0.71141 0.0
C1805 C 0.40919 0.21587 0.72367 0.0
H1806 H 0.33528 0.19622 0.6912 0.0
H1807 H 0.36502 0.24274 0.71301 0.0
S1808 S 0.45894 0.14064 0.72346 0.0
N1809 N 0.42342 0.12933 0.70829 0.0
N1810 N 0.45543 0.17992 0.73155 0.0
C1811 C 0.42429 0.18534 0.72165 0.0
C1812 C 0.40687 0.15804 0.70921 0.0
C1813 C 0.88096 0.30616 0.30872 0.0
C1814 C 0.87291 0.33298 0.28897 0.0
C1815 C 0.896 0.27842 0.29551 0.0
C1816 C 0.90331 0.2765 0.26207 0.0
H1817 H 0.87547 0.30653 0.33454 0.0
H1818 H 0.90133 0.25806 0.31144 0.0
S1819 S 0.8861 0.33994 0.19986 0.0
N1820 N 0.87326 0.356 0.23443 0.0
N1821 N 0.90068 0.30368 0.20942 0.0
C1822 C 0.89578 0.30344 0.24219 0.0
C1823 C 0.88076 0.33172 0.25569 0.0
C1824 C 0.1991 0.35378 0.55348 0.0
C1825 C 0.19849 0.36057 0.51986 0.0
C1826 C 0.21189 0.3763 0.57577 0.0
C1827 C 0.22487 0.40617 0.5652 0.0
H1828 H 0.18823 0.33164 0.56287 0.0
H1829 H 0.21001 0.37105 0.60157 0.0
S1830 S 0.23076 0.43521 0.47982 0.0
N1831 N 0.21361 0.39896 0.47707 0.0
N1832 N 0.23784 0.44081 0.51898 0.0
C1833 C 0.2264 0.41237 0.53158 0.0
C1834 C 0.21311 0.38969 0.50889 0.0
C1835 C 0.26336 0.5876 0.03365 0.0
C1836 C 0.27145 0.58967 0.06686 0.0
C1837 C 0.27506 0.61054 0.01135 0.0
C1838 C 0.29515 0.63649 0.02147 0.0
H1839 H 0.25001 0.56681 0.02433 0.0
H1840 H 0.26982 0.60671 0.98576 0.0
S1841 S 0.31705 0.65669 0.10699 0.0
N1842 N 0.29608 0.62247 0.10967 0.0
N1843 N 0.31789 0.66586 0.06785 0.0
C1844 C 0.30042 0.64074 0.05512 0.0
C1845 C 0.28861 0.61724 0.07781 0.0
C1846 C 0.71945 0.11458 0.47991 0.0
C1847 C 0.69913 0.14056 0.47022 0.0
C1848 C 0.73199 0.0925 0.45716 0.0
C1849 C 0.72457 0.09545 0.42387 0.0
H1850 H 0.72414 0.10996 0.50547 0.0
H1851 H 0.74526 0.0715 0.46614 0.0
S1852 S 0.67971 0.16345 0.38487 0.0
N1853 N 0.67747 0.17128 0.42427 0.0
N1854 N 0.70095 0.12944 0.38157 0.0
C1855 C 0.70746 0.12322 0.41344 0.0
C1856 C 0.69475 0.14587 0.4366 0.0
C1857 C 0.79362 0.85722 0.94293 0.0
C1858 C 0.79997 0.86436 0.9759 0.0
C1859 C 0.78099 0.881 0.92184 0.0
C1860 C 0.77395 0.91261 0.93305 0.0
H1861 H 0.79939 0.83342 0.93305 0.0
H1862 H 0.77783 0.87493 0.89633 0.0
S1863 S 0.7863 0.94406 0.01694 0.0
N1864 N 0.79786 0.90561 0.01866 0.0
N1865 N 0.77417 0.94994 0.97907 0.0
C1866 C 0.77901 0.91978 0.96615 0.0
C1867 C 0.79201 0.89573 0.98756 0.0
C1868 C 0.53001 0.22965 0.40997 0.0
C1869 C 0.56369 0.22444 0.40683 0.0
C1870 C 0.50818 0.2177 0.38658 0.0
C1871 C 0.51929 0.20022 0.35914 0.0
H1872 H 0.52022 0.24086 0.43179 0.0
H1873 H 0.48234 0.2206 0.39109 0.0
S1874 S 0.60579 0.18666 0.33634 0.0
N1875 N 0.60754 0.20539 0.37192 0.0
N1876 N 0.56667 0.18318 0.32771 0.0
C1877 C 0.55315 0.19776 0.35421 0.0
C1878 C 0.57531 0.2098 0.37813 0.0
C1879 C 0.9632 0.77662 0.91917 0.0
C1880 C 0.93142 0.76778 0.91002 0.0
C1881 C 0.98459 0.79055 0.89668 0.0
C1882 C 0.97499 0.79601 0.86423 0.0
H1883 H 0.97085 0.77497 0.9444 0.0
H1884 H 0.00821 0.79863 0.90529 0.0
S1885 S 0.89646 0.77117 0.82693 0.0
N1886 N 0.89263 0.76151 0.86583 0.0
N1887 N 0.9332 0.78715 0.82306 0.0
C1888 C 0.94409 0.78502 0.85424 0.0
C1889 C 0.9222 0.77101 0.87729 0.0
C1890 C 0.04307 0.26097 0.60041 0.0
C1891 C 0.06972 0.2811 0.59285 0.0
C1892 C 0.01933 0.27099 0.62281 0.0
C1893 C 0.02146 0.30143 0.6385 0.0
H1894 H 0.03962 0.23804 0.58777 0.0
H1895 H -0.00156 0.25536 0.62687 0.0
S1896 S 0.08711 0.36267 0.62846 0.0
N1897 N 0.09771 0.33229 0.60432 0.0
N1898 N 0.05285 0.35105 0.6459 0.0
C1899 C 0.04887 0.32097 0.63257 0.0
C1900 C 0.0731 0.3108 0.60987 0.0
C1901 C 0.43924 0.68948 0.13638 0.0
C1902 C 0.47292 0.69514 0.13338 0.0
C1903 C 0.41716 0.70226 0.11376 0.0
C1904 C 0.42788 0.72132 0.08738 0.0
H1905 H 0.42989 0.67366 0.15531 0.0
H1906 H 0.39173 0.69555 0.11594 0.0
S1907 S 0.51285 0.74777 0.07143 0.0
N1908 N 0.51542 0.72462 0.10419 0.0
N1909 N 0.47384 0.74852 0.06173 0.0
C1910 C 0.46107 0.72959 0.08571 0.0
C1911 C 0.48363 0.71647 0.10867 0.0
C1912 C 0.40694 0.5305 0.23022 0.0
C1913 C 0.40308 0.5642 0.22571 0.0
C1914 C 0.38415 0.5085 0.21767 0.0
C1915 C 0.35662 0.51945 0.20029 0.0
H1916 H 0.42902 0.52083 0.24101 0.0
H1917 H 0.38936 0.48271 0.21991 0.0
S1918 S 0.3314 0.6057 0.1896 0.0
N1919 N 0.36699 0.60781 0.20827 0.0
N1920 N 0.32379 0.56647 0.18487 0.0
C1921 C 0.35068 0.55321 0.19896 0.0
C1922 C 0.374 0.57561 0.21168 0.0
C1923 C 0.88505 0.98143 0.77576 0.0
C1924 C 0.85694 0.97094 0.79248 0.0
C1925 C 0.90803 0.95913 0.76406 0.0
C1926 C 0.90387 0.92548 0.76871 0.0
H1927 H 0.89052 0.00715 0.77337 0.0
H1928 H 0.93037 0.96856 0.75364 0.0
S1929 S 0.83114 0.88496 0.80375 0.0
N1930 N 0.8236 0.92431 0.80775 0.0
N1931 N 0.86712 0.88238 0.78595 0.0
C1932 C 0.87442 0.91448 0.78228 0.0
C1933 C 0.85087 0.93722 0.79413 0.0
C1934 C 0.58321 0.03296 0.26599 0.0
C1935 C 0.58643 0.06669 0.27084 0.0
C1936 C 0.60643 0.01126 0.27824 0.0
C1937 C 0.63379 0.0225 0.2957 0.0
H1938 H 0.56143 0.02298 0.25486 0.0
H1939 H 0.60181 0.9854 0.27554 0.0
S1940 S 0.65707 0.1091 0.30808 0.0
N1941 N 0.62158 0.11075 0.2892 0.0
N1942 N 0.66548 0.06997 0.31214 0.0
C1943 C 0.63897 0.05637 0.29765 0.0
C1944 C 0.61522 0.07847 0.2852 0.0
C1945 C 0.13614 0.43974 0.69404 0.0
C1946 C 0.13248 0.4737 0.69738 0.0
C1947 C 0.11279 0.41824 0.70644 0.0
C1948 C 0.08511 0.42985 0.72295 0.0
H1949 H 0.15624 0.42964 0.68022 0.0
H1950 H 0.11555 0.39243 0.70151 0.0
S1951 S 0.06585 0.51622 0.74176 0.0
N1952 N 0.10043 0.5177 0.72135 0.0
N1953 N 0.0567 0.47718 0.74458 0.0
C1954 C 0.08242 0.4635 0.72877 0.0
C1955 C 0.10605 0.48547 0.71596 0.0
C1956 C 0.76386 0.59536 0.45108 0.0
C1957 C 0.78174 0.59043 0.42226 0.0
C1958 C 0.7739 0.6183 0.47432 0.0
C1959 C 0.80203 0.63729 0.46948 0.0
H1960 H 0.74294 0.58025 0.45656 0.0
H1961 H 0.76018 0.62033 0.49677 0.0
S1962 S 0.85609 0.6356 0.39703 0.0
N1963 N 0.82778 0.60816 0.38923 0.0
N1964 N 0.84654 0.65098 0.43292 0.0
C1965 C 0.81897 0.63403 0.43992 0.0
C1966 C 0.80883 0.61069 0.41628 0.0
C1967 C 0.68903 0.38128 0.91904 0.0
C1968 C 0.7167 0.40102 0.92388 0.0
C1969 C 0.6796 0.35819 0.94226 0.0
C1970 C 0.69747 0.35402 0.97117 0.0
H1971 H 0.67317 0.38515 0.89829 0.0
H1972 H 0.6569 0.34525 0.93851 0.0
S1973 S 0.776 0.39382 0.99172 0.0
N1974 N 0.76494 0.41074 0.95692 0.0
N1975 N 0.74716 0.36725 0.00068 0.0
C1976 C 0.72694 0.37117 0.97474 0.0
C1977 C 0.7366 0.39467 0.95102 0.0
C1978 C 0.26887 0.87972 0.55915 0.0
C1979 C 0.28851 0.90658 0.56715 0.0
C1980 C 0.27937 0.85694 0.53579 0.0
C1981 C 0.30924 0.86123 0.51964 0.0
H1982 H 0.24557 0.87629 0.57104 0.0
H1983 H 0.26402 0.83625 0.53002 0.0
S1984 S 0.36766 0.92917 0.5299 0.0
N1985 N 0.33815 0.93696 0.55609 0.0
N1986 N 0.35727 0.89474 0.51186 0.0
C1987 C 0.32856 0.88829 0.52704 0.0
C1988 C 0.31829 0.91093 0.55095 0.0
C1989 C 0.19083 0.1126 0.07804 0.0
C1990 C 0.21567 0.09033 0.06992 0.0
C1991 C 0.17982 0.13574 0.05554 0.0
C1992 C 0.19314 0.13737 0.02404 0.0
H1993 H 0.17837 0.11097 0.10125 0.0
H1994 H 0.15937 0.15104 0.06227 0.0
S1995 S 0.26316 0.08923 0.993 0.0
N1996 N 0.25662 0.07477 0.02995 0.0
N1997 N 0.23579 0.11823 0.98758 0.0
C1998 C 0.21992 0.11726 0.01663 0.0
C1999 C 0.23128 0.09379 0.03963 0.0
C2000 C 0.44233 0.78233 0.6393 0.0
C2001 C 0.47164 0.79812 0.63089 0.0
C2002 C 0.42217 0.76851 0.61514 0.0
C2003 C 0.43117 0.76949 0.58207 0.0
H2004 H 0.4347 0.78119 0.66453 0.0
H2005 H 0.39919 0.75767 0.62222 0.0
S2006 S 0.50269 0.81175 0.54717 0.0
N2007 N 0.50616 0.81677 0.5868 0.0
N2008 N 0.46974 0.7894 0.54208 0.0
C2009 C 0.46028 0.78504 0.57354 0.0
C2010 C 0.48015 0.7997 0.5978 0.0
C2011 C 0.0502 0.19692 0.13527 0.0
C2012 C 0.01729 0.19077 0.12771 0.0
C2013 C 0.07111 0.21142 0.1125 0.0
C2014 C 0.05979 0.22076 0.08155 0.0
H2015 H 0.06021 0.18955 0.15856 0.0
H2016 H 0.09662 0.21424 0.11871 0.0
S2017 S 0.97601 0.21018 0.04931 0.0
N2018 N 0.97445 0.1956 0.08673 0.0
N2019 N 0.01373 0.22309 0.0444 0.0
C2020 C 0.02674 0.21601 0.07407 0.0
C2021 C 0.0055 0.20093 0.09702 0.0
C2022 C 0.93884 0.69563 0.35616 0.0
C2023 C 0.97274 0.69831 0.36057 0.0
C2024 C 0.91705 0.7091 0.3787 0.0
C2025 C 0.9283 0.72589 0.40641 0.0
H2026 H 0.92895 0.68178 0.33596 0.0
H2027 H 0.89123 0.70482 0.37526 0.0
S2028 S 0.01457 0.74282 0.42764 0.0
N2029 N 0.01642 0.72168 0.39348 0.0
N2030 N 0.97541 0.74681 0.43569 0.0
C2031 C 0.96201 0.73081 0.40992 0.0
C2032 C 0.98425 0.717 0.38708 0.0
C2033 C 0.55132 0.31788 0.86336 0.0
C2034 C 0.5223 0.30067 0.85772 0.0
C2035 C 0.57332 0.30761 0.88719 0.0
C2036 C 0.56716 0.27969 0.90616 0.0
H2037 H 0.55613 0.34061 0.85083 0.0
H2038 H 0.59433 0.32286 0.89198 0.0
S2039 S 0.49819 0.22225 0.89555 0.0
N2040 N 0.49097 0.2517 0.86909 0.0
N2041 N 0.53258 0.23216 0.91398 0.0
C2042 C 0.53978 0.26057 0.89858 0.0
C2043 C 0.51723 0.27117 0.87436 0.0
C2044 C 0.61187 0.42254 0.78331 0.0
C2045 C 0.58331 0.43389 0.76816 0.0
C2046 C 0.63459 0.44423 0.7965 0.0
C2047 C 0.62953 0.47811 0.79512 0.0
H2048 H 0.61577 0.39666 0.78686 0.0
H2049 H 0.65538 0.43421 0.80933 0.0
S2050 S 0.561 0.52028 0.75341 0.0
N2051 N 0.55306 0.48111 0.74892 0.0
N2052 N 0.59573 0.52205 0.7736 0.0
C2053 C 0.60247 0.48982 0.77742 0.0
C2054 C 0.57939 0.46765 0.76388 0.0
C2055 C 0.08427 0.03177 0.23198 0.0
C2056 C 0.08834 0.06545 0.22728 0.0
C2057 C 0.107 0.00946 0.21975 0.0
C2058 C 0.13473 0.02001 0.20247 0.0
H2059 H 0.06216 0.02233 0.24286 0.0
H2060 H 0.10163 0.98373 0.22216 0.0
S2061 S 0.1601 0.10604 0.19034 0.0
N2062 N 0.1246 0.10857 0.20907 0.0
N2063 N 0.16761 0.0667 0.18635 0.0
C2064 C 0.14075 0.05376 0.20072 0.0
C2065 C 0.11748 0.07646 0.21308 0.0
C2066 C 0.3919 0.94895 0.73469 0.0
C2067 C 0.40445 0.9266 0.71201 0.0
C2068 C 0.36852 0.97207 0.72528 0.0
C2069 C 0.35713 0.97353 0.69294 0.0
H2070 H 0.40081 0.94911 0.75955 0.0
H2071 H 0.36006 0.9896 0.74314 0.0
S2072 S 0.38508 0.92279 0.62368 0.0
N2073 N 0.40508 0.90851 0.65548 0.0
N2074 N 0.36171 0.95224 0.63797 0.0
C2075 C 0.36935 0.9512 0.67018 0.0
C2076 C 0.39293 0.92764 0.67969 0.0
C2077 C 0.9096 0.53295 0.26158 0.0
C2078 C 0.90595 0.56647 0.26755 0.0
C2079 C 0.88679 0.51053 0.27329 0.0
C2080 C 0.85941 0.52081 0.2913 0.0
H2081 H 0.93146 0.52365 0.25005 0.0
H2082 H 0.89182 0.48484 0.26983 0.0
S2083 S 0.83476 0.60664 0.30613 0.0
N2084 N 0.8702 0.6094 0.28733 0.0
N2085 N 0.82701 0.56728 0.30911 0.0
C2086 C 0.8537 0.55452 0.29423 0.0
C2087 C 0.87705 0.57736 0.28238 0.0
C2088 C 0.24052 0.13301 0.59503 0.0
C2089 C 0.24053 0.10043 0.58425 0.0
C2090 C 0.22503 0.1576 0.57712 0.0
C2091 C 0.20912 0.15074 0.54751 0.0
H2092 H 0.25223 0.13961 0.61776 0.0
H2093 H 0.22496 0.18211 0.58696 0.0
S2094 S 0.20434 0.07004 0.507 0.0
N2095 N 0.2243 0.06295 0.54121 0.0
N2096 N 0.19597 0.10941 0.50717 0.0
C2097 C 0.20947 0.11845 0.53604 0.0
C2098 C 0.22496 0.09327 0.55449 0.0
C2099 C 0.28622 0.88654 0.0906 0.0
C2100 C 0.25379 0.89448 0.08318 0.0
C2101 C 0.30299 0.86269 0.07255 0.0
C2102 C 0.28789 0.84621 0.0464 0.0
H2103 H 0.2983 0.89803 0.11109 0.0
H2104 H 0.32758 0.85638 0.07977 0.0
S2105 S 0.20469 0.86171 0.01475 0.0
N2106 N 0.20817 0.88633 0.04642 0.0
N2107 N 0.23966 0.84191 0.0123 0.0
C2108 C 0.25591 0.85506 0.03801 0.0
C2109 C 0.23888 0.87913 0.05645 0.0
C2110 C 0.74208 0.34076 0.43765 0.0
C2111 C 0.70949 0.3449 0.4474 0.0
C2112 C 0.75812 0.3644 0.41904 0.0
C2113 C 0.74234 0.39336 0.40951 0.0
H2114 H 0.7552 0.31873 0.44401 0.0
H2115 H 0.78312 0.35979 0.41195 0.0
S2116 S 0.65712 0.41637 0.42901 0.0
N2117 N 0.66197 0.38033 0.44624 0.0
N2118 N 0.69241 0.42519 0.41185 0.0
C2119 C 0.71006 0.39834 0.4199 0.0
C2120 C 0.69359 0.37406 0.43871 0.0
C2121 C 0.7575 0.63124 0.90099 0.0
C2122 C 0.75663 0.59847 0.91114 0.0
C2123 C 0.77215 0.65542 0.92006 0.0
C2124 C 0.78644 0.64806 0.95032 0.0
H2125 H 0.74657 0.63846 0.87807 0.0
H2126 H 0.77252 0.68014 0.91079 0.0
S2127 S 0.79011 0.5663 0.98876 0.0
N2128 N 0.7714 0.55994 0.95368 0.0
N2129 N 0.79844 0.60568 0.98992 0.0
C2130 C 0.78603 0.61539 0.9608 0.0
C2131 C 0.77128 0.59056 0.94114 0.0
C2132 C 0.54618 0.24128 0.14887 0.0
C2133 C 0.54866 0.20736 0.15344 0.0
C2134 C 0.5644 0.25722 0.12473 0.0
C2135 C 0.58547 0.23979 0.10408 0.0
H2136 H 0.53003 0.25561 0.16406 0.0
H2137 H 0.56178 0.28336 0.12201 0.0
S2138 S 0.6033 0.15144 0.10772 0.0
N2139 N 0.57593 0.15736 0.13662 0.0
N2140 N 0.6092 0.18738 0.09062 0.0
C2141 C 0.58837 0.20604 0.10836 0.0
C2142 C 0.57021 0.18981 0.1332 0.0
C2143 C 0.93924 0.75967 0.60054 0.0
C2144 C 0.90505 0.75812 0.60214 0.0
C2145 C 0.95747 0.77331 0.62613 0.0
C2146 C 0.942 0.78583 0.65404 0.0
H2147 H 0.95204 0.74939 0.57989 0.0
H2148 H 0.9838 0.77351 0.62438 0.0
S2149 S 0.8528 0.79111 0.66789 0.0
N2150 N 0.85635 0.77221 0.63251 0.0
N2151 N 0.89038 0.79854 0.68025 0.0
C2152 C 0.90773 0.78542 0.65527 0.0
C2153 C 0.8893 0.77134 0.62941 0.0
C2154 C 0.06271 0.30486 0.86549 0.0
C2155 C 0.04321 0.28694 0.84356 0.0
C2156 C 0.08193 0.28919 0.88904 0.0
C2157 C 0.08269 0.25504 0.89115 0.0
H2158 H 0.06394 0.33118 0.8638 0.0
H2159 H 0.09701 0.30383 0.90503 0.0
S2160 S 0.03293 0.19708 0.84271 0.0
N2161 N 0.02342 0.23329 0.82791 0.0
N2162 N 0.06005 0.20388 0.87165 0.0
C2163 C 0.06249 0.23688 0.87024 0.0
C2164 C 0.04265 0.25281 0.84655 0.0
C2165 C 0.43535 0.68883 0.36526 0.0
C2166 C 0.45152 0.70656 0.34067 0.0
C2167 C 0.41639 0.70465 0.38902 0.0
C2168 C 0.41234 0.73868 0.38859 0.0
H2169 H 0.43641 0.66245 0.36551 0.0
H2170 H 0.40397 0.69006 0.40716 0.0
S2171 S 0.45298 0.79652 0.33201 0.0
N2172 N 0.46541 0.76023 0.31995 0.0
N2173 N 0.4282 0.78969 0.36288 0.0
C2174 C 0.42922 0.75667 0.36473 0.0
C2175 C 0.44921 0.7407 0.34125 0.0
C2176 C 0.09943 0.57667 0.20696 0.0
C2177 C 0.10103 0.58157 0.24084 0.0
C2178 C 0.12359 0.55865 0.19061 0.0
C2179 C 0.14982 0.54445 0.20771 0.0
H2180 H 0.08015 0.58789 0.19284 0.0
H2181 H 0.12238 0.55692 0.1643 0.0
S2182 S 0.16224 0.5457 0.2972 0.0
N2183 N 0.12953 0.56825 0.29112 0.0
N2184 N 0.17355 0.53312 0.26074 0.0
C2185 C 0.15044 0.54745 0.24177 0.0
C2186 C 0.12642 0.56634 0.25824 0.0
C2187 C 0.60162 0.90947 0.79041 0.0
C2188 C 0.59523 0.91484 0.75724 0.0
C2189 C 0.62626 0.92696 0.80661 0.0
C2190 C 0.64521 0.95047 0.79018 0.0
H2191 H 0.5885 0.8907 0.80352 0.0
H2192 H 0.63136 0.9211 0.83184 0.0
S2193 S 0.63445 0.97674 0.7044 0.0
N2194 N 0.6073 0.9475 0.70946 0.0
N2195 N 0.65337 0.98037 0.73974 0.0
C2196 C 0.63779 0.95711 0.75743 0.0
C2197 C 0.61285 0.93929 0.74101 0.0
C2198 C 0.84641 0.04386 0.25323 0.0
C2199 C 0.84569 0.04088 0.2873 0.0
C2200 C 0.87019 0.06261 0.23778 0.0
C2201 C 0.89472 0.07867 0.25564 0.0
H2202 H 0.82787 0.03231 0.23837 0.0
H2203 H 0.86892 0.06488 0.21155 0.0
S2204 S 0.90417 0.07847 0.34537 0.0
N2205 N 0.87167 0.0557 0.33861 0.0
N2206 N 0.91736 0.08988 0.30912 0.0
C2207 C 0.89519 0.07492 0.2896 0.0
C2208 C 0.87048 0.05624 0.30553 0.0
C2209 C 0.37148 0.45716 0.71139 0.0
C2210 C 0.33985 0.44473 0.70709 0.0
C2211 C 0.396 0.43821 0.72587 0.0
C2212 C 0.38958 0.4063 0.73665 0.0
H2213 H 0.37715 0.48186 0.70401 0.0
H2214 H 0.41979 0.449 0.72953 0.0
S2215 S 0.31216 0.36087 0.72659 0.0
N2216 N 0.30449 0.39735 0.71144 0.0
N2217 N 0.35032 0.36208 0.73928 0.0
C2218 C 0.35842 0.39321 0.73136 0.0
C2219 C 0.3336 0.41235 0.71644 0.0
C2220 C 0.77044 0.84029 0.41904 0.0
C2221 C 0.78249 0.84674 0.45049 0.0
C2222 C 0.75582 0.86478 0.40033 0.0
C2223 C 0.75285 0.89687 0.41213 0.0
H2224 H 0.77281 0.81618 0.40851 0.0
H2225 H 0.74694 0.85851 0.37626 0.0
S2226 S 0.7782 0.92591 0.49395 0.0
N2227 N 0.78892 0.8871 0.49337 0.0
N2228 N 0.76181 0.93338 0.45795 0.0
C2229 C 0.76458 0.90367 0.44364 0.0
C2230 C 0.77929 0.87856 0.46286 0.0
C2231 C 0.69116 0.12449 0.93389 0.0
C2232 C 0.70666 0.15404 0.94191 0.0
C2233 C 0.70724 0.10042 0.91551 0.0
C2234 C 0.73929 0.10518 0.90427 0.0
H2235 H 0.66612 0.1203 0.94106 0.0
H2236 H 0.69424 0.07821 0.90961 0.0
S2237 S 0.79173 0.17705 0.92198 0.0
N2238 N 0.75674 0.18547 0.93987 0.0
N2239 N 0.78662 0.14112 0.90466 0.0
C2240 C 0.75529 0.13437 0.913 0.0
C2241 C 0.73909 0.15853 0.932 0.0
C2242 C 0.25904 0.63242 0.59571 0.0
C2243 C 0.2532 0.60117 0.58282 0.0
C2244 C 0.27415 0.65669 0.5771 0.0
C2245 C 0.28366 0.65085 0.54466 0.0
H2246 H 0.25188 0.63816 0.62048 0.0
H2247 H 0.2787 0.68017 0.58833 0.0
S2248 S 0.27136 0.57415 0.49846 0.0
N2249 N 0.257 0.5662 0.53518 0.0
N2250 N 0.28461 0.61213 0.49988 0.0
C2251 C 0.27766 0.61988 0.53132 0.0
C2252 C 0.26264 0.59498 0.55047 0.0
C2253 C 0.2044 0.38958 0.08594 0.0
C2254 C 0.23798 0.39486 0.08296 0.0
C2255 C 0.18869 0.36628 0.06648 0.0
C2256 C 0.20604 0.34791 0.04314 0.0
H2257 H 0.19045 0.40275 0.1041 0.0
H2258 H 0.16299 0.36188 0.0705 0.0
S2259 S 0.29375 0.35647 0.02314 0.0
N2260 N 0.28766 0.38236 0.05337 0.0
N2261 N 0.2581 0.33909 0.01622 0.0
C2262 C 0.23943 0.35421 0.03904 0.0
C2263 C 0.25541 0.37761 0.05909 0.0
C2264 C 0.42119 0.80211 0.86011 0.0
C2265 C 0.44887 0.7876 0.84582 0.0
C2266 C 0.40268 0.78555 0.88359 0.0
C2267 C 0.41121 0.75394 0.89335 0.0
H2268 H 0.41317 0.82604 0.85234 0.0
H2269 H 0.3811 0.79713 0.89345 0.0
S2270 S 0.48366 0.70689 0.86668 0.0
N2271 N 0.48541 0.74099 0.84539 0.0
N2272 N 0.45066 0.70996 0.88948 0.0
C2273 C 0.43948 0.7397 0.88029 0.0
C2274 C 0.45831 0.7565 0.85647 0.0
C2275 C 0.04925 0.24167 0.34524 0.0
C2276 C 0.044 0.20782 0.34573 0.0
C2277 C 0.06745 0.25711 0.36963 0.0
C2278 C 0.081 0.23947 0.39578 0.0
H2279 H 0.03965 0.25636 0.32552 0.0
H2280 H 0.07112 0.28317 0.36776 0.0
S2281 S 0.0742 0.15037 0.40889 0.0
N2282 N 0.05386 0.15702 0.37478 0.0
N2283 N 0.08732 0.18641 0.42116 0.0
C2284 C 0.07507 0.20579 0.39729 0.0
C2285 C 0.05677 0.1899 0.37216 0.0
C2286 C 0.91665 0.71899 0.1583 0.0
C2287 C 0.94861 0.70832 0.15199 0.0
C2288 C 0.89764 0.73332 0.13389 0.0
C2289 C 0.90962 0.73723 0.10203 0.0
H2290 H 0.90609 0.71606 0.18231 0.0
H2291 H 0.87333 0.74156 0.14011 0.0
S2292 S 0.99216 0.71451 0.07309 0.0
N2293 N 0.99181 0.70352 0.1118 0.0
N2294 N 0.95568 0.72976 0.06561 0.0
C2295 C 0.94137 0.7263 0.09521 0.0
C2296 C 0.96095 0.71203 0.12025 0.0
C2297 C 0.55571 0.29912 0.62641 0.0
C2298 C 0.54516 0.28227 0.65439 0.0
C2299 C 0.57379 0.28337 0.60193 0.0
C2300 C 0.58228 0.25024 0.60464 0.0
H2301 H 0.55087 0.32495 0.62387 0.0
H2302 H 0.58186 0.2975 0.58117 0.0
S2303 S 0.55696 0.19423 0.67121 0.0
N2304 N 0.5417 0.22993 0.68177 0.0
N2305 N 0.57625 0.20052 0.63651 0.0
C2306 C 0.57085 0.23289 0.63202 0.0
C2307 C 0.55218 0.24883 0.65667 0.0
C2308 C 0.86591 0.45638 0.77819 0.0
C2309 C 0.83566 0.44155 0.78462 0.0
C2310 C 0.89131 0.43893 0.76326 0.0
C2311 C 0.88727 0.40613 0.75408 0.0
H2312 H 0.86982 0.48175 0.78439 0.0
H2313 H 0.91398 0.45143 0.75817 0.0
S2314 S 0.81437 0.35497 0.76899 0.0
N2315 N 0.8043 0.39124 0.78328 0.0
N2316 N 0.8517 0.35885 0.75454 0.0
C2317 C 0.85747 0.39083 0.76102 0.0
C2318 C 0.83176 0.40844 0.77645 0.0
C2319 C 0.35553 0.07879 0.18936 0.0
C2320 C 0.34351 0.04951 0.20256 0.0
C2321 C 0.3798 0.09672 0.20554 0.0
C2322 C 0.39281 0.08563 0.23516 0.0
H2323 H 0.34538 0.08834 0.16693 0.0
H2324 H 0.3878 0.11971 0.19533 0.0
S2325 S 0.37065 0.00967 0.27875 0.0
N2326 N 0.34707 0.00975 0.24611 0.0
N2327 N 0.39273 0.04324 0.27646 0.0
C2328 C 0.38148 0.05606 0.24811 0.0
C2329 C 0.35677 0.03798 0.23179 0.0
C2330 C 0.15108 0.93847 0.73911 0.0
C2331 C 0.14838 0.94591 0.70578 0.0
C2332 C 0.12691 0.92069 0.75523 0.0
C2333 C 0.09874 0.90983 0.73887 0.0
H2334 H 0.17239 0.94595 0.75278 0.0
H2335 H 0.13055 0.91522 0.7808 0.0
S2336 S 0.07944 0.92331 0.65165 0.0
N2337 N 0.1151 0.9412 0.65689 0.0
N2338 N 0.06913 0.9085 0.68761 0.0
C2339 C 0.09509 0.91804 0.70582 0.0
C2340 C 0.11999 0.93592 0.68921 0.0
C2341 C 0.63078 0.5958 0.26064 0.0
C2342 C 0.60053 0.58129 0.25365 0.0
C2343 C 0.65578 0.57816 0.27574 0.0
C2344 C 0.65169 0.54519 0.2842 0.0
H2345 H 0.6352 0.62106 0.25436 0.0
H2346 H 0.67848 0.59056 0.28103 0.0
S2347 S 0.57813 0.49507 0.26879 0.0
N2348 N 0.56833 0.53163 0.25508 0.0
N2349 N 0.6156 0.49827 0.28318 0.0
C2350 C 0.62166 0.53027 0.27721 0.0
C2351 C 0.59602 0.54836 0.262 0.0
loop_
_geom_bond_atom_site_label_1
_geom_bond_atom_site_label_2
_geom_bond_distance
_geom_bond_site_symmetry_2
_ccdc_geom_bond_type
Cd0 N3 2.334 . S
Cd0 N29 2.304 . S
Cd0 O36 2.268 . S
Cd0 O39 2.273 . S
Cd0 O40 2.417 . S
Cd0 O41 2.330 . S
Cd1 N16 2.304 . S
Cd1 N20 2.334 . S
Cd1 O37 2.273 . S
Cd1 O38 2.268 . S
Cd1 O42 2.417 . S
Cd1 O43 2.330 . S
C2 N3 1.332 . S
C2 C6 1.381 . S
C2 H8 0.931 . S
N3 Cd0 2.334 . S
N3 C2 1.332 . S
N3 C7 1.328 . S
C4 C5 1.396 . S
C4 C7 1.378 . S
C4 H46 0.931 . S
C5 C4 1.396 . S
C5 C6 1.382 . S
C6 C2 1.381 . S
C6 C5 1.382 . S
C6 H47 0.930 . S
C7 N3 1.328 . S
C7 C4 1.378 . S
C7 H9 0.930 . S
H8 C2 0.931 . S
H9 C7 0.930 . S
C10 O36 1.238 . S
C10 O37 1.253 . S
C11 C12 1.379 . S
C11 N16 1.337 . S
C11 H17 0.929 . S
C12 C11 1.379 . S
C12 C13 1.380 . S
C12 H48 0.929 . S
C13 C12 1.380 . S
C13 C14 1.399 . S
C14 C13 1.399 . S
C14 C15 1.376 . S
C14 H49 0.931 . S
C15 C14 1.376 . S
C15 N16 1.338 . S
C15 H18 0.930 . S
N16 Cd1 2.304 . S
N16 C11 1.337 . S
N16 C15 1.338 . S
H17 C11 0.929 . S
H18 C15 0.930 . S
C19 N20 1.332 . S
C19 C23 1.381 . S
C19 H25 0.931 . S
N20 Cd1 2.334 . S
N20 C19 1.332 . S
N20 C24 1.328 . S
C21 C22 1.396 . S
C21 C24 1.378 . S
C21 H50 0.931 . S
C22 C21 1.396 . S
C22 C23 1.382 . S
C23 C19 1.381 . S
C23 C22 1.382 . S
C23 H51 0.930 . S
C24 N20 1.328 . S
C24 C21 1.378 . S
C24 H26 0.930 . S
H25 C19 0.931 . S
H26 C24 0.930 . S
C27 O38 1.238 . S
C27 O39 1.253 . S
C28 O40 1.239 . S
C28 O41 1.230 . S
N29 Cd0 2.304 . S
N29 C30 1.337 . S
N29 C34 1.338 . S
C30 N29 1.337 . S
C30 C31 1.379 . S
C30 H44 0.929 . S
C31 C30 1.379 . S
C31 C32 1.380 . S
C31 H52 0.929 . S
C32 C31 1.380 . S
C32 C33 1.399 . S
C33 C32 1.399 . S
C33 C34 1.376 . S
C33 H53 0.931 . S
C34 N29 1.338 . S
C34 C33 1.376 . S
C34 H45 0.930 . S
C35 O42 1.239 . S
C35 O43 1.230 . S
O36 Cd0 2.268 . S
O36 C10 1.238 . S
O37 Cd1 2.273 . S
O37 C10 1.253 . S
O38 Cd1 2.268 . S
O38 C27 1.238 . S
O39 Cd0 2.273 . S
O39 C27 1.253 . S
O40 Cd0 2.417 . S
O40 C28 1.239 . S
O41 Cd0 2.330 . S
O41 C28 1.230 . S
O42 Cd1 2.417 . S
O42 C35 1.239 . S
O43 Cd1 2.330 . S
O43 C35 1.230 . S
H44 C30 0.929 . S
H45 C34 0.930 . S
H46 C4 0.931 . S
H47 C6 0.930 . S
H48 C12 0.929 . S
H49 C14 0.931 . S
H50 C21 0.931 . S
H51 C23 0.930 . S
H52 C31 0.929 . S
H53 C33 0.931 . S
Cd54 N57 2.334 . S
Cd54 N83 2.304 1_556 S
Cd54 O90 2.268 . S
Cd54 O93 2.273 . S
Cd54 O94 2.417 1_556 S
Cd54 O95 2.330 1_556 S
Cd55 N70 2.304 . S
Cd55 N74 2.334 . S
Cd55 O91 2.273 . S
Cd55 O92 2.268 . S
Cd55 O96 2.417 . S
Cd55 O97 2.330 . S
C56 N57 1.332 . S
C56 C60 1.381 . S
C56 H62 0.931 . S
N57 Cd54 2.334 . S
N57 C56 1.332 . S
N57 C61 1.328 . S
C58 C59 1.396 . S
C58 C61 1.378 . S
C58 H100 0.931 . S
C59 C58 1.396 . S
C59 C60 1.382 . S
C60 C56 1.381 . S
C60 C59 1.382 . S
C60 H101 0.930 . S
C61 N57 1.328 . S
C61 C58 1.378 . S
C61 H63 0.930 . S
H62 C56 0.931 . S
H63 C61 0.930 . S
C64 O90 1.238 . S
C64 O91 1.253 . S
C65 C66 1.379 . S
C65 N70 1.337 . S
C65 H71 0.929 . S
C66 C65 1.379 . S
C66 C67 1.380 . S
C66 H102 0.929 . S
C67 C66 1.380 . S
C67 C68 1.399 . S
C68 C67 1.399 . S
C68 C69 1.376 . S
C68 H103 0.931 . S
C69 C68 1.376 . S
C69 N70 1.338 . S
C69 H72 0.930 . S
N70 Cd55 2.304 . S
N70 C65 1.337 . S
N70 C69 1.338 . S
H71 C65 0.929 . S
H72 C69 0.930 . S
C73 N74 1.332 . S
C73 C77 1.381 . S
C73 H79 0.931 . S
N74 Cd55 2.334 . S
N74 C73 1.332 . S
N74 C78 1.328 . S
C75 C76 1.396 . S
C75 C78 1.378 . S
C75 H104 0.931 . S
C76 C75 1.396 . S
C76 C77 1.382 . S
C77 C73 1.381 . S
C77 C76 1.382 . S
C77 H105 0.930 . S
C78 N74 1.328 . S
C78 C75 1.378 . S
C78 H80 0.930 . S
H79 C73 0.931 . S
H80 C78 0.930 . S
C81 O92 1.238 . S
C81 O93 1.253 . S
C82 O94 1.239 . S
C82 O95 1.230 . S
N83 Cd54 2.304 1_554 S
N83 C84 1.337 1_554 S
N83 C88 1.338 . S
C84 N83 1.337 1_556 S
C84 C85 1.379 1_556 S
C84 H98 0.929 . S
C85 C84 1.379 1_554 S
C85 C86 1.380 . S
C85 H106 0.929 1_554 S
C86 C85 1.380 . S
C86 C87 1.399 . S
C87 C86 1.399 . S
C87 C88 1.376 . S
C87 H107 0.931 . S
C88 N83 1.338 . S
C88 C87 1.376 . S
C88 H99 0.930 . S
C89 O96 1.239 . S
C89 O97 1.230 . S
O90 Cd54 2.268 . S
O90 C64 1.238 . S
O91 Cd55 2.273 . S
O91 C64 1.253 . S
O92 Cd55 2.268 . S
O92 C81 1.238 . S
O93 Cd54 2.273 . S
O93 C81 1.253 . S
O94 Cd54 2.417 1_554 S
O94 C82 1.239 . S
O95 Cd54 2.330 1_554 S
O95 C82 1.230 . S
O96 Cd55 2.417 . S
O96 C89 1.239 . S
O97 Cd55 2.330 . S
O97 C89 1.230 . S
H98 C84 0.929 . S
H99 C88 0.930 . S
H100 C58 0.931 . S
H101 C60 0.930 . S
H102 C66 0.929 . S
H103 C68 0.931 . S
H104 C75 0.931 . S
H105 C77 0.930 . S
H106 C85 0.929 1_556 S
H107 C87 0.931 . S
Cd108 N111 2.334 . S
Cd108 N137 2.304 . S
Cd108 O144 2.268 . S
Cd108 O147 2.273 . S
Cd108 O148 2.417 . S
Cd108 O149 2.330 . S
Cd109 N124 2.304 . S
Cd109 N128 2.334 . S
Cd109 O145 2.273 . S
Cd109 O146 2.268 . S
Cd109 O150 2.417 . S
Cd109 O151 2.330 . S
C110 N111 1.332 . S
C110 C114 1.381 . S
C110 H116 0.931 . S
N111 Cd108 2.334 . S
N111 C110 1.332 . S
N111 C115 1.328 . S
C112 C113 1.396 . S
C112 C115 1.378 . S
C112 H154 0.931 . S
C113 C112 1.396 . S
C113 C114 1.382 . S
C114 C110 1.381 . S
C114 C113 1.382 . S
C114 H155 0.930 . S
C115 N111 1.328 . S
C115 C112 1.378 . S
C115 H117 0.930 . S
H116 C110 0.931 . S
H117 C115 0.930 . S
C118 O144 1.238 . S
C118 O145 1.253 . S
C119 C120 1.379 . S
C119 N124 1.337 . S
C119 H125 0.929 . S
C120 C119 1.379 . S
C120 C121 1.380 . S
C120 H156 0.929 . S
C121 C120 1.380 . S
C121 C122 1.399 . S
C122 C121 1.399 . S
C122 C123 1.376 . S
C122 H157 0.931 . S
C123 C122 1.376 . S
C123 N124 1.338 . S
C123 H126 0.930 . S
N124 Cd109 2.304 . S
N124 C119 1.337 . S
N124 C123 1.338 . S
H125 C119 0.929 . S
H126 C123 0.930 . S
C127 N128 1.332 . S
C127 C131 1.381 . S
C127 H133 0.931 . S
N128 Cd109 2.334 . S
N128 C127 1.332 . S
N128 C132 1.328 . S
C129 C130 1.396 . S
C129 C132 1.378 . S
C129 H158 0.931 . S
C130 C129 1.396 . S
C130 C131 1.382 . S
C131 C127 1.381 . S
C131 C130 1.382 . S
C131 H159 0.930 . S
C132 N128 1.328 . S
C132 C129 1.378 . S
C132 H134 0.930 . S
H133 C127 0.931 . S
H134 C132 0.930 . S
C135 O146 1.238 . S
C135 O147 1.253 . S
C136 O148 1.239 . S
C136 O149 1.230 . S
N137 Cd108 2.304 . S
N137 C138 1.337 . S
N137 C142 1.338 . S
C138 N137 1.337 . S
C138 C139 1.379 . S
C138 H152 0.929 . S
C139 C138 1.379 . S
C139 C140 1.380 . S
C139 H160 0.929 . S
C140 C139 1.380 . S
C140 C141 1.399 . S
C141 C140 1.399 . S
C141 C142 1.376 . S
C141 H161 0.931 . S
C142 N137 1.338 . S
C142 C141 1.376 . S
C142 H153 0.930 . S
C143 O150 1.239 . S
C143 O151 1.230 . S
O144 Cd108 2.268 . S
O144 C118 1.238 . S
O145 Cd109 2.273 . S
O145 C118 1.253 . S
O146 Cd109 2.268 . S
O146 C135 1.238 . S
O147 Cd108 2.273 . S
O147 C135 1.253 . S
O148 Cd108 2.417 . S
O148 C136 1.239 . S
O149 Cd108 2.330 . S
O149 C136 1.230 . S
O150 Cd109 2.417 . S
O150 C143 1.239 . S
O151 Cd109 2.330 . S
O151 C143 1.230 . S
H152 C138 0.929 . S
H153 C142 0.930 . S
H154 C112 0.931 . S
H155 C114 0.930 . S
H156 C120 0.929 . S
H157 C122 0.931 . S
H158 C129 0.931 . S
H159 C131 0.930 . S
H160 C139 0.929 . S
H161 C141 0.931 . S
Cd162 N165 2.334 . S
Cd162 N191 2.304 1_554 S
Cd162 O198 2.268 . S
Cd162 O201 2.273 . S
Cd162 O202 2.417 1_554 S
Cd162 O203 2.330 1_554 S
Cd163 N178 2.304 . S
Cd163 N182 2.334 . S
Cd163 O199 2.273 . S
Cd163 O200 2.268 . S
Cd163 O204 2.417 . S
Cd163 O205 2.330 . S
C164 N165 1.332 . S
C164 C168 1.381 . S
C164 H170 0.931 . S
N165 Cd162 2.334 . S
N165 C164 1.332 . S
N165 C169 1.328 . S
C166 C167 1.396 . S
C166 C169 1.378 . S
C166 H208 0.931 . S
C167 C166 1.396 . S
C167 C168 1.382 . S
C168 C164 1.381 . S
C168 C167 1.382 . S
C168 H209 0.930 . S
C169 N165 1.328 . S
C169 C166 1.378 . S
C169 H171 0.930 . S
H170 C164 0.931 . S
H171 C169 0.930 . S
C172 O198 1.238 . S
C172 O199 1.253 . S
C173 C174 1.379 . S
C173 N178 1.337 . S
C173 H179 0.929 . S
C174 C173 1.379 . S
C174 C175 1.380 . S
C174 H210 0.929 . S
C175 C174 1.380 . S
C175 C176 1.399 . S
C176 C175 1.399 . S
C176 C177 1.376 . S
C176 H211 0.931 . S
C177 C176 1.376 . S
C177 N178 1.338 . S
C177 H180 0.930 . S
N178 Cd163 2.304 . S
N178 C173 1.337 . S
N178 C177 1.338 . S
H179 C173 0.929 . S
H180 C177 0.930 . S
C181 N182 1.332 . S
C181 C185 1.381 . S
C181 H187 0.931 . S
N182 Cd163 2.334 . S
N182 C181 1.332 . S
N182 C186 1.328 . S
C183 C184 1.396 . S
C183 C186 1.378 . S
C183 H212 0.931 . S
C184 C183 1.396 . S
C184 C185 1.382 . S
C185 C181 1.381 . S
C185 C184 1.382 . S
C185 H213 0.930 . S
C186 N182 1.328 . S
C186 C183 1.378 . S
C186 H188 0.930 . S
H187 C181 0.931 . S
H188 C186 0.930 . S
C189 O200 1.238 . S
C189 O201 1.253 . S
C190 O202 1.239 . S
C190 O203 1.230 . S
N191 Cd162 2.304 1_556 S
N191 C192 1.337 1_556 S
N191 C196 1.338 . S
C192 N191 1.337 1_554 S
C192 C193 1.379 1_554 S
C192 H206 0.929 . S
C193 C192 1.379 1_556 S
C193 C194 1.380 . S
C193 H214 0.929 1_556 S
C194 C193 1.380 . S
C194 C195 1.399 . S
C195 C194 1.399 . S
C195 C196 1.376 . S
C195 H215 0.931 . S
C196 N191 1.338 . S
C196 C195 1.376 . S
C196 H207 0.930 . S
C197 O204 1.239 . S
C197 O205 1.230 . S
O198 Cd162 2.268 . S
O198 C172 1.238 . S
O199 Cd163 2.273 . S
O199 C172 1.253 . S
O200 Cd163 2.268 . S
O200 C189 1.238 . S
O201 Cd162 2.273 . S
O201 C189 1.253 . S
O202 Cd162 2.417 1_556 S
O202 C190 1.239 . S
O203 Cd162 2.330 1_556 S
O203 C190 1.230 . S
O204 Cd163 2.417 . S
O204 C197 1.239 . S
O205 Cd163 2.330 . S
O205 C197 1.230 . S
H206 C192 0.929 . S
H207 C196 0.930 . S
H208 C166 0.931 . S
H209 C168 0.930 . S
H210 C174 0.929 . S
H211 C176 0.931 . S
H212 C183 0.931 . S
H213 C185 0.930 . S
H214 C193 0.929 1_554 S
H215 C195 0.931 . S
Cd216 N219 2.334 . S
Cd216 N245 2.304 . S
Cd216 O252 2.268 . S
Cd216 O255 2.273 . S
Cd216 O256 2.417 . S
Cd216 O257 2.330 . S
Cd217 N232 2.304 . S
Cd217 N236 2.334 . S
Cd217 O253 2.273 . S
Cd217 O254 2.268 . S
Cd217 O258 2.417 . S
Cd217 O259 2.330 . S
C218 N219 1.332 . S
C218 C222 1.381 . S
C218 H224 0.931 . S
N219 Cd216 2.334 . S
N219 C218 1.332 . S
N219 C223 1.328 . S
C220 C221 1.396 . S
C220 C223 1.378 . S
C220 H262 0.931 . S
C221 C220 1.396 . S
C221 C222 1.382 . S
C222 C218 1.381 . S
C222 C221 1.382 . S
C222 H263 0.930 . S
C223 N219 1.328 . S
C223 C220 1.378 . S
C223 H225 0.930 . S
H224 C218 0.931 . S
H225 C223 0.930 . S
C226 O252 1.238 . S
C226 O253 1.253 . S
C227 C228 1.379 . S
C227 N232 1.337 . S
C227 H233 0.929 . S
C228 C227 1.379 . S
C228 C229 1.380 . S
C228 H264 0.929 . S
C229 C228 1.380 . S
C229 C230 1.399 . S
C230 C229 1.399 . S
C230 C231 1.376 . S
C230 H265 0.931 . S
C231 C230 1.376 . S
C231 N232 1.338 . S
C231 H234 0.930 . S
N232 Cd217 2.304 . S
N232 C227 1.337 . S
N232 C231 1.338 . S
H233 C227 0.929 . S
H234 C231 0.930 . S
C235 N236 1.332 . S
C235 C239 1.381 . S
C235 H241 0.931 . S
N236 Cd217 2.334 . S
N236 C235 1.332 . S
N236 C240 1.328 . S
C237 C238 1.396 . S
C237 C240 1.378 . S
C237 H266 0.931 . S
C238 C237 1.396 . S
C238 C239 1.382 . S
C239 C235 1.381 . S
C239 C238 1.382 . S
C239 H267 0.930 . S
C240 N236 1.328 . S
C240 C237 1.378 . S
C240 H242 0.930 . S
H241 C235 0.931 . S
H242 C240 0.930 . S
C243 O254 1.238 . S
C243 O255 1.253 . S
C244 O256 1.239 . S
C244 O257 1.230 . S
N245 Cd216 2.304 . S
N245 C246 1.337 . S
N245 C250 1.338 . S
C246 N245 1.337 . S
C246 C247 1.379 . S
C246 H260 0.929 . S
C247 C246 1.379 . S
C247 C248 1.380 . S
C247 H268 0.929 . S
C248 C247 1.380 . S
C248 C249 1.399 . S
C249 C248 1.399 . S
C249 C250 1.376 . S
C249 H269 0.931 . S
C250 N245 1.338 . S
C250 C249 1.376 . S
C250 H261 0.930 . S
C251 O258 1.239 . S
C251 O259 1.230 . S
O252 Cd216 2.268 . S
O252 C226 1.238 . S
O253 Cd217 2.273 . S
O253 C226 1.253 . S
O254 Cd217 2.268 . S
O254 C243 1.238 . S
O255 Cd216 2.273 . S
O255 C243 1.253 . S
O256 Cd216 2.417 . S
O256 C244 1.239 . S
O257 Cd216 2.330 . S
O257 C244 1.230 . S
O258 Cd217 2.417 . S
O258 C251 1.239 . S
O259 Cd217 2.330 . S
O259 C251 1.230 . S
H260 C246 0.929 . S
H261 C250 0.930 . S
H262 C220 0.931 . S
H263 C222 0.930 . S
H264 C228 0.929 . S
H265 C230 0.931 . S
H266 C237 0.931 . S
H267 C239 0.930 . S
H268 C247 0.929 . S
H269 C249 0.931 . S
Cd270 N273 2.334 . S
Cd270 N299 2.304 . S
Cd270 O306 2.268 . S
Cd270 O309 2.273 . S
Cd270 O310 2.417 . S
Cd270 O311 2.330 . S
Cd271 N286 2.304 1_455 S
Cd271 N290 2.334 . S
Cd271 O307 2.273 . S
Cd271 O308 2.268 . S
Cd271 O312 2.417 1_455 S
Cd271 O313 2.330 1_455 S
C272 N273 1.332 . S
C272 C276 1.381 . S
C272 H278 0.931 . S
N273 Cd270 2.334 . S
N273 C272 1.332 . S
N273 C277 1.328 . S
C274 C275 1.396 . S
C274 C277 1.378 . S
C274 H316 0.931 . S
C275 C274 1.396 . S
C275 C276 1.382 . S
C276 C272 1.381 . S
C276 C275 1.382 . S
C276 H317 0.930 . S
C277 N273 1.328 . S
C277 C274 1.378 . S
C277 H279 0.930 . S
H278 C272 0.931 . S
H279 C277 0.930 . S
C280 O306 1.238 . S
C280 O307 1.253 . S
C281 C282 1.379 1_455 S
C281 N286 1.337 1_455 S
C281 H287 0.929 . S
C282 C281 1.379 1_655 S
C282 C283 1.380 . S
C282 H318 0.929 1_655 S
C283 C282 1.380 . S
C283 C284 1.399 . S
C284 C283 1.399 . S
C284 C285 1.376 . S
C284 H319 0.931 . S
C285 C284 1.376 . S
C285 N286 1.338 . S
C285 H288 0.930 . S
N286 Cd271 2.304 1_655 S
N286 C281 1.337 1_655 S
N286 C285 1.338 . S
H287 C281 0.929 . S
H288 C285 0.930 . S
C289 N290 1.332 . S
C289 C293 1.381 . S
C289 H295 0.931 . S
N290 Cd271 2.334 . S
N290 C289 1.332 . S
N290 C294 1.328 . S
C291 C292 1.396 . S
C291 C294 1.378 . S
C291 H320 0.931 . S
C292 C291 1.396 . S
C292 C293 1.382 . S
C293 C289 1.381 . S
C293 C292 1.382 . S
C293 H321 0.930 . S
C294 N290 1.328 . S
C294 C291 1.378 . S
C294 H296 0.930 . S
H295 C289 0.931 . S
H296 C294 0.930 . S
C297 O308 1.238 . S
C297 O309 1.253 . S
C298 O310 1.239 . S
C298 O311 1.230 . S
N299 Cd270 2.304 . S
N299 C300 1.337 . S
N299 C304 1.338 . S
C300 N299 1.337 . S
C300 C301 1.379 . S
C300 H314 0.929 . S
C301 C300 1.379 . S
C301 C302 1.380 . S
C301 H322 0.929 . S
C302 C301 1.380 . S
C302 C303 1.399 . S
C303 C302 1.399 . S
C303 C304 1.376 . S
C303 H323 0.931 . S
C304 N299 1.338 . S
C304 C303 1.376 . S
C304 H315 0.930 . S
C305 O312 1.239 . S
C305 O313 1.230 . S
O306 Cd270 2.268 . S
O306 C280 1.238 . S
O307 Cd271 2.273 . S
O307 C280 1.253 . S
O308 Cd271 2.268 . S
O308 C297 1.238 . S
O309 Cd270 2.273 . S
O309 C297 1.253 . S
O310 Cd270 2.417 . S
O310 C298 1.239 . S
O311 Cd270 2.330 . S
O311 C298 1.230 . S
O312 Cd271 2.417 1_655 S
O312 C305 1.239 . S
O313 Cd271 2.330 1_655 S
O313 C305 1.230 . S
H314 C300 0.929 . S
H315 C304 0.930 . S
H316 C274 0.931 . S
H317 C276 0.930 . S
H318 C282 0.929 1_455 S
H319 C284 0.931 . S
H320 C291 0.931 . S
H321 C293 0.930 . S
H322 C301 0.929 . S
H323 C303 0.931 . S
Cd324 N327 2.334 . S
Cd324 N353 2.304 . S
Cd324 O360 2.268 . S
Cd324 O363 2.273 . S
Cd324 O364 2.417 . S
Cd324 O365 2.330 . S
Cd325 N340 2.304 1_655 S
Cd325 N344 2.334 . S
Cd325 O361 2.273 . S
Cd325 O362 2.268 . S
Cd325 O366 2.417 1_655 S
Cd325 O367 2.330 1_655 S
C326 N327 1.332 . S
C326 C330 1.381 . S
C326 H332 0.931 . S
N327 Cd324 2.334 . S
N327 C326 1.332 . S
N327 C331 1.328 . S
C328 C329 1.396 . S
C328 C331 1.378 . S
C328 H370 0.931 . S
C329 C328 1.396 . S
C329 C330 1.382 . S
C330 C326 1.381 . S
C330 C329 1.382 . S
C330 H371 0.930 . S
C331 N327 1.328 . S
C331 C328 1.378 . S
C331 H333 0.930 . S
H332 C326 0.931 . S
H333 C331 0.930 . S
C334 O360 1.238 . S
C334 O361 1.253 . S
C335 C336 1.379 1_655 S
C335 N340 1.337 1_655 S
C335 H341 0.929 . S
C336 C335 1.379 1_455 S
C336 C337 1.380 . S
C336 H372 0.929 1_455 S
C337 C336 1.380 . S
C337 C338 1.399 . S
C338 C337 1.399 . S
C338 C339 1.376 . S
C338 H373 0.931 . S
C339 C338 1.376 . S
C339 N340 1.338 . S
C339 H342 0.930 . S
N340 Cd325 2.304 1_455 S
N340 C335 1.337 1_455 S
N340 C339 1.338 . S
H341 C335 0.929 . S
H342 C339 0.930 . S
C343 N344 1.332 . S
C343 C347 1.381 . S
C343 H349 0.931 . S
N344 Cd325 2.334 . S
N344 C343 1.332 . S
N344 C348 1.328 . S
C345 C346 1.396 . S
C345 C348 1.378 . S
C345 H374 0.931 . S
C346 C345 1.396 . S
C346 C347 1.382 . S
C347 C343 1.381 . S
C347 C346 1.382 . S
C347 H375 0.930 . S
C348 N344 1.328 . S
C348 C345 1.378 . S
C348 H350 0.930 . S
H349 C343 0.931 . S
H350 C348 0.930 . S
C351 O362 1.238 . S
C351 O363 1.253 . S
C352 O364 1.239 . S
C352 O365 1.230 . S
N353 Cd324 2.304 . S
N353 C354 1.337 . S
N353 C358 1.338 . S
C354 N353 1.337 . S
C354 C355 1.379 . S
C354 H368 0.929 . S
C355 C354 1.379 . S
C355 C356 1.380 . S
C355 H376 0.929 . S
C356 C355 1.380 . S
C356 C357 1.399 . S
C357 C356 1.399 . S
C357 C358 1.376 . S
C357 H377 0.931 . S
C358 N353 1.338 . S
C358 C357 1.376 . S
C358 H369 0.930 . S
C359 O366 1.239 . S
C359 O367 1.230 . S
O360 Cd324 2.268 . S
O360 C334 1.238 . S
O361 Cd325 2.273 . S
O361 C334 1.253 . S
O362 Cd325 2.268 . S
O362 C351 1.238 . S
O363 Cd324 2.273 . S
O363 C351 1.253 . S
O364 Cd324 2.417 . S
O364 C352 1.239 . S
O365 Cd324 2.330 . S
O365 C352 1.230 . S
O366 Cd325 2.417 1_455 S
O366 C359 1.239 . S
O367 Cd325 2.330 1_455 S
O367 C359 1.230 . S
H368 C354 0.929 . S
H369 C358 0.930 . S
H370 C328 0.931 . S
H371 C330 0.930 . S
H372 C336 0.929 1_655 S
H373 C338 0.931 . S
H374 C345 0.931 . S
H375 C347 0.930 . S
H376 C355 0.929 . S
H377 C357 0.931 . S
Cd378 N381 2.334 . S
Cd378 N407 2.304 . S
Cd378 O414 2.268 . S
Cd378 O417 2.273 . S
Cd378 O418 2.417 . S
Cd378 O419 2.330 . S
Cd379 N394 2.304 . S
Cd379 N398 2.334 . S
Cd379 O415 2.273 . S
Cd379 O416 2.268 . S
Cd379 O420 2.417 . S
Cd379 O421 2.330 . S
C380 N381 1.332 . S
C380 C384 1.381 . S
C380 H386 0.931 . S
N381 Cd378 2.334 . S
N381 C380 1.332 . S
N381 C385 1.328 . S
C382 C383 1.396 . S
C382 C385 1.378 . S
C382 H424 0.931 . S
C383 C382 1.396 . S
C383 C384 1.382 . S
C384 C380 1.381 . S
C384 C383 1.382 . S
C384 H425 0.930 . S
C385 N381 1.328 . S
C385 C382 1.378 . S
C385 H387 0.930 . S
H386 C380 0.931 . S
H387 C385 0.930 . S
C388 O414 1.238 . S
C388 O415 1.253 . S
C389 C390 1.379 . S
C389 N394 1.337 . S
C389 H395 0.929 . S
C390 C389 1.379 . S
C390 C391 1.380 . S
C390 H426 0.929 . S
C391 C390 1.380 . S
C391 C392 1.399 . S
C392 C391 1.399 . S
C392 C393 1.376 . S
C392 H427 0.931 . S
C393 C392 1.376 . S
C393 N394 1.338 . S
C393 H396 0.930 . S
N394 Cd379 2.304 . S
N394 C389 1.337 . S
N394 C393 1.338 . S
H395 C389 0.929 . S
H396 C393 0.930 . S
C397 N398 1.332 . S
C397 C401 1.381 . S
C397 H403 0.931 . S
N398 Cd379 2.334 . S
N398 C397 1.332 . S
N398 C402 1.328 . S
C399 C400 1.396 . S
C399 C402 1.378 . S
C399 H428 0.931 . S
C400 C399 1.396 . S
C400 C401 1.382 . S
C401 C397 1.381 . S
C401 C400 1.382 . S
C401 H429 0.930 . S
C402 N398 1.328 . S
C402 C399 1.378 . S
C402 H404 0.930 . S
H403 C397 0.931 . S
H404 C402 0.930 . S
C405 O416 1.238 . S
C405 O417 1.253 . S
C406 O418 1.239 . S
C406 O419 1.230 . S
N407 Cd378 2.304 . S
N407 C408 1.337 . S
N407 C412 1.338 . S
C408 N407 1.337 . S
C408 C409 1.379 . S
C408 H422 0.929 . S
C409 C408 1.379 . S
C409 C410 1.380 . S
C409 H430 0.929 . S
C410 C409 1.380 . S
C410 C411 1.399 . S
C411 C410 1.399 . S
C411 C412 1.376 . S
C411 H431 0.931 . S
C412 N407 1.338 . S
C412 C411 1.376 . S
C412 H423 0.930 . S
C413 O420 1.239 . S
C413 O421 1.230 . S
O414 Cd378 2.268 . S
O414 C388 1.238 . S
O415 Cd379 2.273 . S
O415 C388 1.253 . S
O416 Cd379 2.268 . S
O416 C405 1.238 . S
O417 Cd378 2.273 . S
O417 C405 1.253 . S
O418 Cd378 2.417 . S
O418 C406 1.239 . S
O419 Cd378 2.330 . S
O419 C406 1.230 . S
O420 Cd379 2.417 . S
O420 C413 1.239 . S
O421 Cd379 2.330 . S
O421 C413 1.230 . S
H422 C408 0.929 . S
H423 C412 0.930 . S
H424 C382 0.931 . S
H425 C384 0.930 . S
H426 C390 0.929 . S
H427 C392 0.931 . S
H428 C399 0.931 . S
H429 C401 0.930 . S
H430 C409 0.929 . S
H431 C411 0.931 . S
Cd432 N435 2.334 . S
Cd432 N461 2.304 . S
Cd432 O468 2.268 . S
Cd432 O471 2.273 . S
Cd432 O472 2.417 . S
Cd432 O473 2.330 . S
Cd433 N448 2.304 . S
Cd433 N452 2.334 . S
Cd433 O469 2.273 . S
Cd433 O470 2.268 . S
Cd433 O474 2.417 . S
Cd433 O475 2.330 . S
C434 N435 1.332 . S
C434 C438 1.381 . S
C434 H440 0.931 . S
N435 Cd432 2.334 . S
N435 C434 1.332 . S
N435 C439 1.328 . S
C436 C437 1.396 . S
C436 C439 1.378 . S
C436 H478 0.931 . S
C437 C436 1.396 . S
C437 C438 1.382 . S
C438 C434 1.381 . S
C438 C437 1.382 . S
C438 H479 0.930 . S
C439 N435 1.328 . S
C439 C436 1.378 . S
C439 H441 0.930 . S
H440 C434 0.931 . S
H441 C439 0.930 . S
C442 O468 1.238 . S
C442 O469 1.253 . S
C443 C444 1.379 . S
C443 N448 1.337 . S
C443 H449 0.929 . S
C444 C443 1.379 . S
C444 C445 1.380 . S
C444 H480 0.929 . S
C445 C444 1.380 . S
C445 C446 1.399 . S
C446 C445 1.399 . S
C446 C447 1.376 . S
C446 H481 0.931 . S
C447 C446 1.376 . S
C447 N448 1.338 . S
C447 H450 0.930 . S
N448 Cd433 2.304 . S
N448 C443 1.337 . S
N448 C447 1.338 . S
H449 C443 0.929 . S
H450 C447 0.930 . S
C451 N452 1.332 . S
C451 C455 1.381 . S
C451 H457 0.931 . S
N452 Cd433 2.334 . S
N452 C451 1.332 . S
N452 C456 1.328 . S
C453 C454 1.396 . S
C453 C456 1.378 . S
C453 H482 0.931 . S
C454 C453 1.396 . S
C454 C455 1.382 . S
C455 C451 1.381 . S
C455 C454 1.382 . S
C455 H483 0.930 . S
C456 N452 1.328 . S
C456 C453 1.378 . S
C456 H458 0.930 . S
H457 C451 0.931 . S
H458 C456 0.930 . S
C459 O470 1.238 . S
C459 O471 1.253 . S
C460 O472 1.239 . S
C460 O473 1.230 . S
N461 Cd432 2.304 . S
N461 C462 1.337 . S
N461 C466 1.338 . S
C462 N461 1.337 . S
C462 C463 1.379 . S
C462 H476 0.929 . S
C463 C462 1.379 . S
C463 C464 1.380 . S
C463 H484 0.929 . S
C464 C463 1.380 . S
C464 C465 1.399 . S
C465 C464 1.399 . S
C465 C466 1.376 . S
C465 H485 0.931 . S
C466 N461 1.338 . S
C466 C465 1.376 . S
C466 H477 0.930 . S
C467 O474 1.239 . S
C467 O475 1.230 . S
O468 Cd432 2.268 . S
O468 C442 1.238 . S
O469 Cd433 2.273 . S
O469 C442 1.253 . S
O470 Cd433 2.268 . S
O470 C459 1.238 . S
O471 Cd432 2.273 . S
O471 C459 1.253 . S
O472 Cd432 2.417 . S
O472 C460 1.239 . S
O473 Cd432 2.330 . S
O473 C460 1.230 . S
O474 Cd433 2.417 . S
O474 C467 1.239 . S
O475 Cd433 2.330 . S
O475 C467 1.230 . S
H476 C462 0.929 . S
H477 C466 0.930 . S
H478 C436 0.931 . S
H479 C438 0.930 . S
H480 C444 0.929 . S
H481 C446 0.931 . S
H482 C453 0.931 . S
H483 C455 0.930 . S
H484 C463 0.929 . S
H485 C465 0.931 . S
Cd486 N489 2.334 . S
Cd486 N515 2.304 . S
Cd486 O522 2.268 . S
Cd486 O525 2.273 . S
Cd486 O526 2.417 . S
Cd486 O527 2.330 . S
Cd487 N502 2.304 1_545 S
Cd487 N506 2.334 . S
Cd487 O523 2.273 . S
Cd487 O524 2.268 . S
Cd487 O528 2.417 1_545 S
Cd487 O529 2.330 1_545 S
C488 N489 1.332 . S
C488 C492 1.381 . S
C488 H494 0.931 . S
N489 Cd486 2.334 . S
N489 C488 1.332 . S
N489 C493 1.328 . S
C490 C491 1.396 . S
C490 C493 1.378 . S
C490 H532 0.931 . S
C491 C490 1.396 . S
C491 C492 1.382 . S
C492 C488 1.381 . S
C492 C491 1.382 . S
C492 H533 0.930 . S
C493 N489 1.328 . S
C493 C490 1.378 . S
C493 H495 0.930 . S
H494 C488 0.931 . S
H495 C493 0.930 . S
C496 O522 1.238 . S
C496 O523 1.253 . S
C497 C498 1.379 1_545 S
C497 N502 1.337 1_545 S
C497 H503 0.929 . S
C498 C497 1.379 1_565 S
C498 C499 1.380 . S
C498 H534 0.929 1_565 S
C499 C498 1.380 . S
C499 C500 1.399 . S
C500 C499 1.399 . S
C500 C501 1.376 . S
C500 H535 0.931 . S
C501 C500 1.376 . S
C501 N502 1.338 . S
C501 H504 0.930 . S
N502 Cd487 2.304 1_565 S
N502 C497 1.337 1_565 S
N502 C501 1.338 . S
H503 C497 0.929 . S
H504 C501 0.930 . S
C505 N506 1.332 . S
C505 C509 1.381 . S
C505 H511 0.931 . S
N506 Cd487 2.334 . S
N506 C505 1.332 . S
N506 C510 1.328 . S
C507 C508 1.396 . S
C507 C510 1.378 . S
C507 H536 0.931 . S
C508 C507 1.396 . S
C508 C509 1.382 . S
C509 C505 1.381 . S
C509 C508 1.382 . S
C509 H537 0.930 . S
C510 N506 1.328 . S
C510 C507 1.378 . S
C510 H512 0.930 . S
H511 C505 0.931 . S
H512 C510 0.930 . S
C513 O524 1.238 . S
C513 O525 1.253 . S
C514 O526 1.239 . S
C514 O527 1.230 . S
N515 Cd486 2.304 . S
N515 C516 1.337 . S
N515 C520 1.338 . S
C516 N515 1.337 . S
C516 C517 1.379 . S
C516 H530 0.929 . S
C517 C516 1.379 . S
C517 C518 1.380 . S
C517 H538 0.929 . S
C518 C517 1.380 . S
C518 C519 1.399 . S
C519 C518 1.399 . S
C519 C520 1.376 . S
C519 H539 0.931 . S
C520 N515 1.338 . S
C520 C519 1.376 . S
C520 H531 0.930 . S
C521 O528 1.239 . S
C521 O529 1.230 . S
O522 Cd486 2.268 . S
O522 C496 1.238 . S
O523 Cd487 2.273 . S
O523 C496 1.253 . S
O524 Cd487 2.268 . S
O524 C513 1.238 . S
O525 Cd486 2.273 . S
O525 C513 1.253 . S
O526 Cd486 2.417 . S
O526 C514 1.239 . S
O527 Cd486 2.330 . S
O527 C514 1.230 . S
O528 Cd487 2.417 1_565 S
O528 C521 1.239 . S
O529 Cd487 2.330 1_565 S
O529 C521 1.230 . S
H530 C516 0.929 . S
H531 C520 0.930 . S
H532 C490 0.931 . S
H533 C492 0.930 . S
H534 C498 0.929 1_545 S
H535 C500 0.931 . S
H536 C507 0.931 . S
H537 C509 0.930 . S
H538 C517 0.929 . S
H539 C519 0.931 . S
Cd540 N543 2.334 . S
Cd540 N569 2.304 1_565 S
Cd540 O576 2.268 . S
Cd540 O579 2.273 . S
Cd540 O580 2.417 1_565 S
Cd540 O581 2.330 1_565 S
Cd541 N556 2.304 . S
Cd541 N560 2.334 . S
Cd541 O577 2.273 . S
Cd541 O578 2.268 . S
Cd541 O582 2.417 . S
Cd541 O583 2.330 . S
C542 N543 1.332 . S
C542 C546 1.381 . S
C542 H548 0.931 . S
N543 Cd540 2.334 . S
N543 C542 1.332 . S
N543 C547 1.328 . S
C544 C545 1.396 . S
C544 C547 1.378 . S
C544 H586 0.931 . S
C545 C544 1.396 . S
C545 C546 1.382 . S
C546 C542 1.381 . S
C546 C545 1.382 . S
C546 H587 0.930 . S
C547 N543 1.328 . S
C547 C544 1.378 . S
C547 H549 0.930 . S
H548 C542 0.931 . S
H549 C547 0.930 . S
C550 O576 1.238 . S
C550 O577 1.253 . S
C551 C552 1.379 . S
C551 N556 1.337 . S
C551 H557 0.929 . S
C552 C551 1.379 . S
C552 C553 1.380 . S
C552 H588 0.929 . S
C553 C552 1.380 . S
C553 C554 1.399 . S
C554 C553 1.399 . S
C554 C555 1.376 . S
C554 H589 0.931 . S
C555 C554 1.376 . S
C555 N556 1.338 . S
C555 H558 0.930 . S
N556 Cd541 2.304 . S
N556 C551 1.337 . S
N556 C555 1.338 . S
H557 C551 0.929 . S
H558 C555 0.930 . S
C559 N560 1.332 . S
C559 C563 1.381 . S
C559 H565 0.931 . S
N560 Cd541 2.334 . S
N560 C559 1.332 . S
N560 C564 1.328 . S
C561 C562 1.396 . S
C561 C564 1.378 . S
C561 H590 0.931 . S
C562 C561 1.396 . S
C562 C563 1.382 . S
C563 C559 1.381 . S
C563 C562 1.382 . S
C563 H591 0.930 . S
C564 N560 1.328 . S
C564 C561 1.378 . S
C564 H566 0.930 . S
H565 C559 0.931 . S
H566 C564 0.930 . S
C567 O578 1.238 . S
C567 O579 1.253 . S
C568 O580 1.239 . S
C568 O581 1.230 . S
N569 Cd540 2.304 1_545 S
N569 C570 1.337 1_545 S
N569 C574 1.338 . S
C570 N569 1.337 1_565 S
C570 C571 1.379 1_565 S
C570 H584 0.929 . S
C571 C570 1.379 1_545 S
C571 C572 1.380 . S
C571 H592 0.929 1_545 S
C572 C571 1.380 . S
C572 C573 1.399 . S
C573 C572 1.399 . S
C573 C574 1.376 . S
C573 H593 0.931 . S
C574 N569 1.338 . S
C574 C573 1.376 . S
C574 H585 0.930 . S
C575 O582 1.239 . S
C575 O583 1.230 . S
O576 Cd540 2.268 . S
O576 C550 1.238 . S
O577 Cd541 2.273 . S
O577 C550 1.253 . S
O578 Cd541 2.268 . S
O578 C567 1.238 . S
O579 Cd540 2.273 . S
O579 C567 1.253 . S
O580 Cd540 2.417 1_545 S
O580 C568 1.239 . S
O581 Cd540 2.330 1_545 S
O581 C568 1.230 . S
O582 Cd541 2.417 . S
O582 C575 1.239 . S
O583 Cd541 2.330 . S
O583 C575 1.230 . S
H584 C570 0.929 . S
H585 C574 0.930 . S
H586 C544 0.931 . S
H587 C546 0.930 . S
H588 C552 0.929 . S
H589 C554 0.931 . S
H590 C561 0.931 . S
H591 C563 0.930 . S
H592 C571 0.929 1_565 S
H593 C573 0.931 . S
Cd594 N597 2.334 . S
Cd594 N623 2.304 . S
Cd594 O630 2.268 . S
Cd594 O633 2.273 . S
Cd594 O634 2.417 . S
Cd594 O635 2.330 . S
Cd595 N610 2.304 . S
Cd595 N614 2.334 . S
Cd595 O631 2.273 . S
Cd595 O632 2.268 . S
Cd595 O636 2.417 . S
Cd595 O637 2.330 . S
C596 N597 1.332 . S
C596 C600 1.381 . S
C596 H602 0.931 . S
N597 Cd594 2.334 . S
N597 C596 1.332 . S
N597 C601 1.328 . S
C598 C599 1.396 . S
C598 C601 1.378 . S
C598 H640 0.931 . S
C599 C598 1.396 . S
C599 C600 1.382 . S
C600 C596 1.381 . S
C600 C599 1.382 . S
C600 H641 0.930 . S
C601 N597 1.328 . S
C601 C598 1.378 . S
C601 H603 0.930 . S
H602 C596 0.931 . S
H603 C601 0.930 . S
C604 O630 1.238 . S
C604 O631 1.253 . S
C605 C606 1.379 . S
C605 N610 1.337 . S
C605 H611 0.929 . S
C606 C605 1.379 . S
C606 C607 1.380 . S
C606 H642 0.929 . S
C607 C606 1.380 . S
C607 C608 1.399 . S
C608 C607 1.399 . S
C608 C609 1.376 . S
C608 H643 0.931 . S
C609 C608 1.376 . S
C609 N610 1.338 . S
C609 H612 0.930 . S
N610 Cd595 2.304 . S
N610 C605 1.337 . S
N610 C609 1.338 . S
H611 C605 0.929 . S
H612 C609 0.930 . S
C613 N614 1.332 . S
C613 C617 1.381 . S
C613 H619 0.931 . S
N614 Cd595 2.334 . S
N614 C613 1.332 . S
N614 C618 1.328 . S
C615 C616 1.396 . S
C615 C618 1.378 . S
C615 H644 0.931 . S
C616 C615 1.396 . S
C616 C617 1.382 . S
C617 C613 1.381 . S
C617 C616 1.382 . S
C617 H645 0.930 . S
C618 N614 1.328 . S
C618 C615 1.378 . S
C618 H620 0.930 . S
H619 C613 0.931 . S
H620 C618 0.930 . S
C621 O632 1.238 . S
C621 O633 1.253 . S
C622 O634 1.239 . S
C622 O635 1.230 . S
N623 Cd594 2.304 . S
N623 C624 1.337 . S
N623 C628 1.338 . S
C624 N623 1.337 . S
C624 C625 1.379 . S
C624 H638 0.929 . S
C625 C624 1.379 . S
C625 C626 1.380 . S
C625 H646 0.929 . S
C626 C625 1.380 . S
C626 C627 1.399 . S
C627 C626 1.399 . S
C627 C628 1.376 . S
C627 H647 0.931 . S
C628 N623 1.338 . S
C628 C627 1.376 . S
C628 H639 0.930 . S
C629 O636 1.239 . S
C629 O637 1.230 . S
O630 Cd594 2.268 . S
O630 C604 1.238 . S
O631 Cd595 2.273 . S
O631 C604 1.253 . S
O632 Cd595 2.268 . S
O632 C621 1.238 . S
O633 Cd594 2.273 . S
O633 C621 1.253 . S
O634 Cd594 2.417 . S
O634 C622 1.239 . S
O635 Cd594 2.330 . S
O635 C622 1.230 . S
O636 Cd595 2.417 . S
O636 C629 1.239 . S
O637 Cd595 2.330 . S
O637 C629 1.230 . S
H638 C624 0.929 . S
H639 C628 0.930 . S
H640 C598 0.931 . S
H641 C600 0.930 . S
H642 C606 0.929 . S
H643 C608 0.931 . S
H644 C615 0.931 . S
H645 C617 0.930 . S
H646 C625 0.929 . S
H647 C627 0.931 . S
Cd648 N651 2.334 . S
Cd648 N677 2.304 . S
Cd648 O684 2.268 . S
Cd648 O687 2.273 . S
Cd648 O688 2.417 . S
Cd648 O689 2.330 . S
Cd649 N664 2.304 . S
Cd649 N668 2.334 . S
Cd649 O685 2.273 . S
Cd649 O686 2.268 . S
Cd649 O690 2.417 . S
Cd649 O691 2.330 . S
C650 N651 1.332 . S
C650 C654 1.381 . S
C650 H656 0.931 . S
N651 Cd648 2.334 . S
N651 C650 1.332 . S
N651 C655 1.328 . S
C652 C653 1.396 . S
C652 C655 1.378 . S
C652 H694 0.931 . S
C653 C652 1.396 . S
C653 C654 1.382 . S
C654 C650 1.381 . S
C654 C653 1.382 . S
C654 H695 0.930 . S
C655 N651 1.328 . S
C655 C652 1.378 . S
C655 H657 0.930 . S
H656 C650 0.931 . S
H657 C655 0.930 . S
C658 O684 1.238 . S
C658 O685 1.253 . S
C659 C660 1.379 . S
C659 N664 1.337 . S
C659 H665 0.929 . S
C660 C659 1.379 . S
C660 C661 1.380 . S
C660 H696 0.929 . S
C661 C660 1.380 . S
C661 C662 1.399 . S
C662 C661 1.399 . S
C662 C663 1.376 . S
C662 H697 0.931 . S
C663 C662 1.376 . S
C663 N664 1.338 . S
C663 H666 0.930 . S
N664 Cd649 2.304 . S
N664 C659 1.337 . S
N664 C663 1.338 . S
H665 C659 0.929 . S
H666 C663 0.930 . S
C667 N668 1.332 . S
C667 C671 1.381 . S
C667 H673 0.931 . S
N668 Cd649 2.334 . S
N668 C667 1.332 . S
N668 C672 1.328 . S
C669 C670 1.396 . S
C669 C672 1.378 . S
C669 H698 0.931 . S
C670 C669 1.396 . S
C670 C671 1.382 . S
C671 C667 1.381 . S
C671 C670 1.382 . S
C671 H699 0.930 . S
C672 N668 1.328 . S
C672 C669 1.378 . S
C672 H674 0.930 . S
H673 C667 0.931 . S
H674 C672 0.930 . S
C675 O686 1.238 . S
C675 O687 1.253 . S
C676 O688 1.239 . S
C676 O689 1.230 . S
N677 Cd648 2.304 . S
N677 C678 1.337 . S
N677 C682 1.338 . S
C678 N677 1.337 . S
C678 C679 1.379 . S
C678 H692 0.929 . S
C679 C678 1.379 . S
C679 C680 1.380 . S
C679 H700 0.929 . S
C680 C679 1.380 . S
C680 C681 1.399 . S
C681 C680 1.399 . S
C681 C682 1.376 . S
C681 H701 0.931 . S
C682 N677 1.338 . S
C682 C681 1.376 . S
C682 H693 0.930 . S
C683 O690 1.239 . S
C683 O691 1.230 . S
O684 Cd648 2.268 . S
O684 C658 1.238 . S
O685 Cd649 2.273 . S
O685 C658 1.253 . S
O686 Cd649 2.268 . S
O686 C675 1.238 . S
O687 Cd648 2.273 . S
O687 C675 1.253 . S
O688 Cd648 2.417 . S
O688 C676 1.239 . S
O689 Cd648 2.330 . S
O689 C676 1.230 . S
O690 Cd649 2.417 . S
O690 C683 1.239 . S
O691 Cd649 2.330 . S
O691 C683 1.230 . S
H692 C678 0.929 . S
H693 C682 0.930 . S
H694 C652 0.931 . S
H695 C654 0.930 . S
H696 C660 0.929 . S
H697 C662 0.931 . S
H698 C669 0.931 . S
H699 C671 0.930 . S
H700 C679 0.929 . S
H701 C681 0.931 . S
Cd702 N705 2.334 . S
Cd702 N731 2.304 1_554 S
Cd702 O738 2.268 . S
Cd702 O741 2.273 . S
Cd702 O742 2.417 1_554 S
Cd702 O743 2.330 1_554 S
Cd703 N718 2.304 . S
Cd703 N722 2.334 . S
Cd703 O739 2.273 . S
Cd703 O740 2.268 . S
Cd703 O744 2.417 . S
Cd703 O745 2.330 . S
C704 N705 1.332 . S
C704 C708 1.381 . S
C704 H710 0.931 . S
N705 Cd702 2.334 . S
N705 C704 1.332 . S
N705 C709 1.328 . S
C706 C707 1.396 . S
C706 C709 1.378 . S
C706 H748 0.931 . S
C707 C706 1.396 . S
C707 C708 1.382 . S
C708 C704 1.381 . S
C708 C707 1.382 . S
C708 H749 0.930 . S
C709 N705 1.328 . S
C709 C706 1.378 . S
C709 H711 0.930 . S
H710 C704 0.931 . S
H711 C709 0.930 . S
C712 O738 1.238 . S
C712 O739 1.253 . S
C713 C714 1.379 . S
C713 N718 1.337 . S
C713 H719 0.929 . S
C714 C713 1.379 . S
C714 C715 1.380 . S
C714 H750 0.929 . S
C715 C714 1.380 . S
C715 C716 1.399 . S
C716 C715 1.399 . S
C716 C717 1.376 . S
C716 H751 0.931 . S
C717 C716 1.376 . S
C717 N718 1.338 . S
C717 H720 0.930 . S
N718 Cd703 2.304 . S
N718 C713 1.337 . S
N718 C717 1.338 . S
H719 C713 0.929 . S
H720 C717 0.930 . S
C721 N722 1.332 . S
C721 C725 1.381 . S
C721 H727 0.931 . S
N722 Cd703 2.334 . S
N722 C721 1.332 . S
N722 C726 1.328 . S
C723 C724 1.396 . S
C723 C726 1.378 . S
C723 H752 0.931 . S
C724 C723 1.396 . S
C724 C725 1.382 . S
C725 C721 1.381 . S
C725 C724 1.382 . S
C725 H753 0.930 . S
C726 N722 1.328 . S
C726 C723 1.378 . S
C726 H728 0.930 . S
H727 C721 0.931 . S
H728 C726 0.930 . S
C729 O740 1.238 . S
C729 O741 1.253 . S
C730 O742 1.239 . S
C730 O743 1.230 . S
N731 Cd702 2.304 1_556 S
N731 C732 1.337 1_556 S
N731 C736 1.338 . S
C732 N731 1.337 1_554 S
C732 C733 1.379 1_554 S
C732 H746 0.929 . S
C733 C732 1.379 1_556 S
C733 C734 1.380 . S
C733 H754 0.929 1_556 S
C734 C733 1.380 . S
C734 C735 1.399 . S
C735 C734 1.399 . S
C735 C736 1.376 . S
C735 H755 0.931 . S
C736 N731 1.338 . S
C736 C735 1.376 . S
C736 H747 0.930 . S
C737 O744 1.239 . S
C737 O745 1.230 . S
O738 Cd702 2.268 . S
O738 C712 1.238 . S
O739 Cd703 2.273 . S
O739 C712 1.253 . S
O740 Cd703 2.268 . S
O740 C729 1.238 . S
O741 Cd702 2.273 . S
O741 C729 1.253 . S
O742 Cd702 2.417 1_556 S
O742 C730 1.239 . S
O743 Cd702 2.330 1_556 S
O743 C730 1.230 . S
O744 Cd703 2.417 . S
O744 C737 1.239 . S
O745 Cd703 2.330 . S
O745 C737 1.230 . S
H746 C732 0.929 . S
H747 C736 0.930 . S
H748 C706 0.931 . S
H749 C708 0.930 . S
H750 C714 0.929 . S
H751 C716 0.931 . S
H752 C723 0.931 . S
H753 C725 0.930 . S
H754 C733 0.929 1_554 S
H755 C735 0.931 . S
Cd756 N759 2.334 . S
Cd756 N785 2.304 . S
Cd756 O792 2.268 . S
Cd756 O795 2.273 . S
Cd756 O796 2.417 . S
Cd756 O797 2.330 . S
Cd757 N772 2.304 . S
Cd757 N776 2.334 . S
Cd757 O793 2.273 . S
Cd757 O794 2.268 . S
Cd757 O798 2.417 . S
Cd757 O799 2.330 . S
C758 N759 1.332 . S
C758 C762 1.381 . S
C758 H764 0.931 . S
N759 Cd756 2.334 . S
N759 C758 1.332 . S
N759 C763 1.328 . S
C760 C761 1.396 . S
C760 C763 1.378 . S
C760 H802 0.931 . S
C761 C760 1.396 . S
C761 C762 1.382 . S
C762 C758 1.381 . S
C762 C761 1.382 . S
C762 H803 0.930 . S
C763 N759 1.328 . S
C763 C760 1.378 . S
C763 H765 0.930 . S
H764 C758 0.931 . S
H765 C763 0.930 . S
C766 O792 1.238 . S
C766 O793 1.253 . S
C767 C768 1.379 . S
C767 N772 1.337 . S
C767 H773 0.929 . S
C768 C767 1.379 . S
C768 C769 1.380 . S
C768 H804 0.929 . S
C769 C768 1.380 . S
C769 C770 1.399 . S
C770 C769 1.399 . S
C770 C771 1.376 . S
C770 H805 0.931 . S
C771 C770 1.376 . S
C771 N772 1.338 . S
C771 H774 0.930 . S
N772 Cd757 2.304 . S
N772 C767 1.337 . S
N772 C771 1.338 . S
H773 C767 0.929 . S
H774 C771 0.930 . S
C775 N776 1.332 . S
C775 C779 1.381 . S
C775 H781 0.931 . S
N776 Cd757 2.334 . S
N776 C775 1.332 . S
N776 C780 1.328 . S
C777 C778 1.396 . S
C777 C780 1.378 . S
C777 H806 0.931 . S
C778 C777 1.396 . S
C778 C779 1.382 . S
C779 C775 1.381 . S
C779 C778 1.382 . S
C779 H807 0.930 . S
C780 N776 1.328 . S
C780 C777 1.378 . S
C780 H782 0.930 . S
H781 C775 0.931 . S
H782 C780 0.930 . S
C783 O794 1.238 . S
C783 O795 1.253 . S
C784 O796 1.239 . S
C784 O797 1.230 . S
N785 Cd756 2.304 . S
N785 C786 1.337 . S
N785 C790 1.338 . S
C786 N785 1.337 . S
C786 C787 1.379 . S
C786 H800 0.929 . S
C787 C786 1.379 . S
C787 C788 1.380 . S
C787 H808 0.929 . S
C788 C787 1.380 . S
C788 C789 1.399 . S
C789 C788 1.399 . S
C789 C790 1.376 . S
C789 H809 0.931 . S
C790 N785 1.338 . S
C790 C789 1.376 . S
C790 H801 0.930 . S
C791 O798 1.239 . S
C791 O799 1.230 . S
O792 Cd756 2.268 . S
O792 C766 1.238 . S
O793 Cd757 2.273 . S
O793 C766 1.253 . S
O794 Cd757 2.268 . S
O794 C783 1.238 . S
O795 Cd756 2.273 . S
O795 C783 1.253 . S
O796 Cd756 2.417 . S
O796 C784 1.239 . S
O797 Cd756 2.330 . S
O797 C784 1.230 . S
O798 Cd757 2.417 . S
O798 C791 1.239 . S
O799 Cd757 2.330 . S
O799 C791 1.230 . S
H800 C786 0.929 . S
H801 C790 0.930 . S
H802 C760 0.931 . S
H803 C762 0.930 . S
H804 C768 0.929 . S
H805 C770 0.931 . S
H806 C777 0.931 . S
H807 C779 0.930 . S
H808 C787 0.929 . S
H809 C789 0.931 . S
Cd810 N813 2.334 . S
Cd810 N839 2.304 1_556 S
Cd810 O846 2.268 . S
Cd810 O849 2.273 . S
Cd810 O850 2.417 1_556 S
Cd810 O851 2.330 1_556 S
Cd811 N826 2.304 . S
Cd811 N830 2.334 . S
Cd811 O847 2.273 . S
Cd811 O848 2.268 . S
Cd811 O852 2.417 . S
Cd811 O853 2.330 . S
C812 N813 1.332 . S
C812 C816 1.381 . S
C812 H818 0.931 . S
N813 Cd810 2.334 . S
N813 C812 1.332 . S
N813 C817 1.328 . S
C814 C815 1.396 . S
C814 C817 1.378 . S
C814 H856 0.931 . S
C815 C814 1.396 . S
C815 C816 1.382 . S
C816 C812 1.381 . S
C816 C815 1.382 . S
C816 H857 0.930 . S
C817 N813 1.328 . S
C817 C814 1.378 . S
C817 H819 0.930 . S
H818 C812 0.931 . S
H819 C817 0.930 . S
C820 O846 1.238 . S
C820 O847 1.253 . S
C821 C822 1.379 . S
C821 N826 1.337 . S
C821 H827 0.929 . S
C822 C821 1.379 . S
C822 C823 1.380 . S
C822 H858 0.929 . S
C823 C822 1.380 . S
C823 C824 1.399 . S
C824 C823 1.399 . S
C824 C825 1.376 . S
C824 H859 0.931 . S
C825 C824 1.376 . S
C825 N826 1.338 . S
C825 H828 0.930 . S
N826 Cd811 2.304 . S
N826 C821 1.337 . S
N826 C825 1.338 . S
H827 C821 0.929 . S
H828 C825 0.930 . S
C829 N830 1.332 . S
C829 C833 1.381 . S
C829 H835 0.931 . S
N830 Cd811 2.334 . S
N830 C829 1.332 . S
N830 C834 1.328 . S
C831 C832 1.396 . S
C831 C834 1.378 . S
C831 H860 0.931 . S
C832 C831 1.396 . S
C832 C833 1.382 . S
C833 C829 1.381 . S
C833 C832 1.382 . S
C833 H861 0.930 . S
C834 N830 1.328 . S
C834 C831 1.378 . S
C834 H836 0.930 . S
H835 C829 0.931 . S
H836 C834 0.930 . S
C837 O848 1.238 . S
C837 O849 1.253 . S
C838 O850 1.239 . S
C838 O851 1.230 . S
N839 Cd810 2.304 1_554 S
N839 C840 1.337 1_554 S
N839 C844 1.338 . S
C840 N839 1.337 1_556 S
C840 C841 1.379 1_556 S
C840 H854 0.929 . S
C841 C840 1.379 1_554 S
C841 C842 1.380 . S
C841 H862 0.929 1_554 S
C842 C841 1.380 . S
C842 C843 1.399 . S
C843 C842 1.399 . S
C843 C844 1.376 . S
C843 H863 0.931 . S
C844 N839 1.338 . S
C844 C843 1.376 . S
C844 H855 0.930 . S
C845 O852 1.239 . S
C845 O853 1.230 . S
O846 Cd810 2.268 . S
O846 C820 1.238 . S
O847 Cd811 2.273 . S
O847 C820 1.253 . S
O848 Cd811 2.268 . S
O848 C837 1.238 . S
O849 Cd810 2.273 . S
O849 C837 1.253 . S
O850 Cd810 2.417 1_554 S
O850 C838 1.239 . S
O851 Cd810 2.330 1_554 S
O851 C838 1.230 . S
O852 Cd811 2.417 . S
O852 C845 1.239 . S
O853 Cd811 2.330 . S
O853 C845 1.230 . S
H854 C840 0.929 . S
H855 C844 0.930 . S
H856 C814 0.931 . S
H857 C816 0.930 . S
H858 C822 0.929 . S
H859 C824 0.931 . S
H860 C831 0.931 . S
H861 C833 0.930 . S
H862 C841 0.929 1_556 S
H863 C843 0.931 . S
Cd864 N867 2.334 . S
Cd864 N893 2.304 . S
Cd864 O900 2.268 . S
Cd864 O903 2.273 . S
Cd864 O904 2.417 . S
Cd864 O905 2.330 . S
Cd865 N880 2.304 . S
Cd865 N884 2.334 . S
Cd865 O901 2.273 . S
Cd865 O902 2.268 . S
Cd865 O906 2.417 . S
Cd865 O907 2.330 . S
C866 N867 1.332 . S
C866 C870 1.381 . S
C866 H872 0.931 . S
N867 Cd864 2.334 . S
N867 C866 1.332 . S
N867 C871 1.328 . S
C868 C869 1.396 . S
C868 C871 1.378 . S
C868 H910 0.931 . S
C869 C868 1.396 . S
C869 C870 1.382 . S
C870 C866 1.381 . S
C870 C869 1.382 . S
C870 H911 0.930 . S
C871 N867 1.328 . S
C871 C868 1.378 . S
C871 H873 0.930 . S
H872 C866 0.931 . S
H873 C871 0.930 . S
C874 O900 1.238 . S
C874 O901 1.253 . S
C875 C876 1.379 . S
C875 N880 1.337 . S
C875 H881 0.929 . S
C876 C875 1.379 . S
C876 C877 1.380 . S
C876 H912 0.929 . S
C877 C876 1.380 . S
C877 C878 1.399 . S
C878 C877 1.399 . S
C878 C879 1.376 . S
C878 H913 0.931 . S
C879 C878 1.376 . S
C879 N880 1.338 . S
C879 H882 0.930 . S
N880 Cd865 2.304 . S
N880 C875 1.337 . S
N880 C879 1.338 . S
H881 C875 0.929 . S
H882 C879 0.930 . S
C883 N884 1.332 . S
C883 C887 1.381 . S
C883 H889 0.931 . S
N884 Cd865 2.334 . S
N884 C883 1.332 . S
N884 C888 1.328 . S
C885 C886 1.396 . S
C885 C888 1.378 . S
C885 H914 0.931 . S
C886 C885 1.396 . S
C886 C887 1.382 . S
C887 C883 1.381 . S
C887 C886 1.382 . S
C887 H915 0.930 . S
C888 N884 1.328 . S
C888 C885 1.378 . S
C888 H890 0.930 . S
H889 C883 0.931 . S
H890 C888 0.930 . S
C891 O902 1.238 . S
C891 O903 1.253 . S
C892 O904 1.239 . S
C892 O905 1.230 . S
N893 Cd864 2.304 . S
N893 C894 1.337 . S
N893 C898 1.338 . S
C894 N893 1.337 . S
C894 C895 1.379 . S
C894 H908 0.929 . S
C895 C894 1.379 . S
C895 C896 1.380 . S
C895 H916 0.929 . S
C896 C895 1.380 . S
C896 C897 1.399 . S
C897 C896 1.399 . S
C897 C898 1.376 . S
C897 H917 0.931 . S
C898 N893 1.338 . S
C898 C897 1.376 . S
C898 H909 0.930 . S
C899 O906 1.239 . S
C899 O907 1.230 . S
O900 Cd864 2.268 . S
O900 C874 1.238 . S
O901 Cd865 2.273 . S
O901 C874 1.253 . S
O902 Cd865 2.268 . S
O902 C891 1.238 . S
O903 Cd864 2.273 . S
O903 C891 1.253 . S
O904 Cd864 2.417 . S
O904 C892 1.239 . S
O905 Cd864 2.330 . S
O905 C892 1.230 . S
O906 Cd865 2.417 . S
O906 C899 1.239 . S
O907 Cd865 2.330 . S
O907 C899 1.230 . S
H908 C894 0.929 . S
H909 C898 0.930 . S
H910 C868 0.931 . S
H911 C870 0.930 . S
H912 C876 0.929 . S
H913 C878 0.931 . S
H914 C885 0.931 . S
H915 C887 0.930 . S
H916 C895 0.929 . S
H917 C897 0.931 . S
Cd918 N921 2.334 . S
Cd918 N947 2.304 1_655 S
Cd918 O954 2.268 . S
Cd918 O957 2.273 . S
Cd918 O958 2.417 1_655 S
Cd918 O959 2.330 1_655 S
Cd919 N934 2.304 . S
Cd919 N938 2.334 . S
Cd919 O955 2.273 . S
Cd919 O956 2.268 . S
Cd919 O960 2.417 . S
Cd919 O961 2.330 . S
C920 N921 1.332 . S
C920 C924 1.381 . S
C920 H926 0.931 . S
N921 Cd918 2.334 . S
N921 C920 1.332 . S
N921 C925 1.328 . S
C922 C923 1.396 . S
C922 C925 1.378 . S
C922 H964 0.931 . S
C923 C922 1.396 . S
C923 C924 1.382 . S
C924 C920 1.381 . S
C924 C923 1.382 . S
C924 H965 0.930 . S
C925 N921 1.328 . S
C925 C922 1.378 . S
C925 H927 0.930 . S
H926 C920 0.931 . S
H927 C925 0.930 . S
C928 O954 1.238 . S
C928 O955 1.253 . S
C929 C930 1.379 . S
C929 N934 1.337 . S
C929 H935 0.929 . S
C930 C929 1.379 . S
C930 C931 1.380 . S
C930 H966 0.929 . S
C931 C930 1.380 . S
C931 C932 1.399 . S
C932 C931 1.399 . S
C932 C933 1.376 . S
C932 H967 0.931 . S
C933 C932 1.376 . S
C933 N934 1.338 . S
C933 H936 0.930 . S
N934 Cd919 2.304 . S
N934 C929 1.337 . S
N934 C933 1.338 . S
H935 C929 0.929 . S
H936 C933 0.930 . S
C937 N938 1.332 . S
C937 C941 1.381 . S
C937 H943 0.931 . S
N938 Cd919 2.334 . S
N938 C937 1.332 . S
N938 C942 1.328 . S
C939 C940 1.396 . S
C939 C942 1.378 . S
C939 H968 0.931 . S
C940 C939 1.396 . S
C940 C941 1.382 . S
C941 C937 1.381 . S
C941 C940 1.382 . S
C941 H969 0.930 . S
C942 N938 1.328 . S
C942 C939 1.378 . S
C942 H944 0.930 . S
H943 C937 0.931 . S
H944 C942 0.930 . S
C945 O956 1.238 . S
C945 O957 1.253 . S
C946 O958 1.239 . S
C946 O959 1.230 . S
N947 Cd918 2.304 1_455 S
N947 C948 1.337 1_455 S
N947 C952 1.338 . S
C948 N947 1.337 1_655 S
C948 C949 1.379 1_655 S
C948 H962 0.929 . S
C949 C948 1.379 1_455 S
C949 C950 1.380 . S
C949 H970 0.929 1_455 S
C950 C949 1.380 . S
C950 C951 1.399 . S
C951 C950 1.399 . S
C951 C952 1.376 . S
C951 H971 0.931 . S
C952 N947 1.338 . S
C952 C951 1.376 . S
C952 H963 0.930 . S
C953 O960 1.239 . S
C953 O961 1.230 . S
O954 Cd918 2.268 . S
O954 C928 1.238 . S
O955 Cd919 2.273 . S
O955 C928 1.253 . S
O956 Cd919 2.268 . S
O956 C945 1.238 . S
O957 Cd918 2.273 . S
O957 C945 1.253 . S
O958 Cd918 2.417 1_455 S
O958 C946 1.239 . S
O959 Cd918 2.330 1_455 S
O959 C946 1.230 . S
O960 Cd919 2.417 . S
O960 C953 1.239 . S
O961 Cd919 2.330 . S
O961 C953 1.230 . S
H962 C948 0.929 . S
H963 C952 0.930 . S
H964 C922 0.931 . S
H965 C924 0.930 . S
H966 C930 0.929 . S
H967 C932 0.931 . S
H968 C939 0.931 . S
H969 C941 0.930 . S
H970 C949 0.929 1_655 S
H971 C951 0.931 . S
Cd972 N975 2.334 . S
Cd972 N1001 2.304 1_455 S
Cd972 O1008 2.268 . S
Cd972 O1011 2.273 . S
Cd972 O1012 2.417 1_455 S
Cd972 O1013 2.330 1_455 S
Cd973 N988 2.304 . S
Cd973 N992 2.334 . S
Cd973 O1009 2.273 . S
Cd973 O1010 2.268 . S
Cd973 O1014 2.417 . S
Cd973 O1015 2.330 . S
C974 N975 1.332 . S
C974 C978 1.381 . S
C974 H980 0.931 . S
N975 Cd972 2.334 . S
N975 C974 1.332 . S
N975 C979 1.328 . S
C976 C977 1.396 . S
C976 C979 1.378 . S
C976 H1018 0.931 . S
C977 C976 1.396 . S
C977 C978 1.382 . S
C978 C974 1.381 . S
C978 C977 1.382 . S
C978 H1019 0.930 . S
C979 N975 1.328 . S
C979 C976 1.378 . S
C979 H981 0.930 . S
H980 C974 0.931 . S
H981 C979 0.930 . S
C982 O1008 1.238 . S
C982 O1009 1.253 . S
C983 C984 1.379 . S
C983 N988 1.337 . S
C983 H989 0.929 . S
C984 C983 1.379 . S
C984 C985 1.380 . S
C984 H1020 0.929 . S
C985 C984 1.380 . S
C985 C986 1.399 . S
C986 C985 1.399 . S
C986 C987 1.376 . S
C986 H1021 0.931 . S
C987 C986 1.376 . S
C987 N988 1.338 . S
C987 H990 0.930 . S
N988 Cd973 2.304 . S
N988 C983 1.337 . S
N988 C987 1.338 . S
H989 C983 0.929 . S
H990 C987 0.930 . S
C991 N992 1.332 . S
C991 C995 1.381 . S
C991 H997 0.931 . S
N992 Cd973 2.334 . S
N992 C991 1.332 . S
N992 C996 1.328 . S
C993 C994 1.396 . S
C993 C996 1.378 . S
C993 H1022 0.931 . S
C994 C993 1.396 . S
C994 C995 1.382 . S
C995 C991 1.381 . S
C995 C994 1.382 . S
C995 H1023 0.930 . S
C996 N992 1.328 . S
C996 C993 1.378 . S
C996 H998 0.930 . S
H997 C991 0.931 . S
H998 C996 0.930 . S
C999 O1010 1.238 . S
C999 O1011 1.253 . S
C1000 O1012 1.239 . S
C1000 O1013 1.230 . S
N1001 Cd972 2.304 1_655 S
N1001 C1002 1.337 1_655 S
N1001 C1006 1.338 . S
C1002 N1001 1.337 1_455 S
C1002 C1003 1.379 1_455 S
C1002 H1016 0.929 . S
C1003 C1002 1.379 1_655 S
C1003 C1004 1.380 . S
C1003 H1024 0.929 1_655 S
C1004 C1003 1.380 . S
C1004 C1005 1.399 . S
C1005 C1004 1.399 . S
C1005 C1006 1.376 . S
C1005 H1025 0.931 . S
C1006 N1001 1.338 . S
C1006 C1005 1.376 . S
C1006 H1017 0.930 . S
C1007 O1014 1.239 . S
C1007 O1015 1.230 . S
O1008 Cd972 2.268 . S
O1008 C982 1.238 . S
O1009 Cd973 2.273 . S
O1009 C982 1.253 . S
O1010 Cd973 2.268 . S
O1010 C999 1.238 . S
O1011 Cd972 2.273 . S
O1011 C999 1.253 . S
O1012 Cd972 2.417 1_655 S
O1012 C1000 1.239 . S
O1013 Cd972 2.330 1_655 S
O1013 C1000 1.230 . S
O1014 Cd973 2.417 . S
O1014 C1007 1.239 . S
O1015 Cd973 2.330 . S
O1015 C1007 1.230 . S
H1016 C1002 0.929 . S
H1017 C1006 0.930 . S
H1018 C976 0.931 . S
H1019 C978 0.930 . S
H1020 C984 0.929 . S
H1021 C986 0.931 . S
H1022 C993 0.931 . S
H1023 C995 0.930 . S
H1024 C1003 0.929 1_455 S
H1025 C1005 0.931 . S
Cd1026 N1029 2.334 . S
Cd1026 N1055 2.304 . S
Cd1026 O1062 2.268 . S
Cd1026 O1065 2.273 . S
Cd1026 O1066 2.417 . S
Cd1026 O1067 2.330 . S
Cd1027 N1042 2.304 . S
Cd1027 N1046 2.334 . S
Cd1027 O1063 2.273 . S
Cd1027 O1064 2.268 . S
Cd1027 O1068 2.417 . S
Cd1027 O1069 2.330 . S
C1028 N1029 1.332 . S
C1028 C1032 1.381 . S
C1028 H1034 0.931 . S
N1029 Cd1026 2.334 . S
N1029 C1028 1.332 . S
N1029 C1033 1.328 . S
C1030 C1031 1.396 . S
C1030 C1033 1.378 . S
C1030 H1072 0.931 . S
C1031 C1030 1.396 . S
C1031 C1032 1.382 . S
C1032 C1028 1.381 . S
C1032 C1031 1.382 . S
C1032 H1073 0.930 . S
C1033 N1029 1.328 . S
C1033 C1030 1.378 . S
C1033 H1035 0.930 . S
H1034 C1028 0.931 . S
H1035 C1033 0.930 . S
C1036 O1062 1.238 . S
C1036 O1063 1.253 . S
C1037 C1038 1.379 . S
C1037 N1042 1.337 . S
C1037 H1043 0.929 . S
C1038 C1037 1.379 . S
C1038 C1039 1.380 . S
C1038 H1074 0.929 . S
C1039 C1038 1.380 . S
C1039 C1040 1.399 . S
C1040 C1039 1.399 . S
C1040 C1041 1.376 . S
C1040 H1075 0.931 . S
C1041 C1040 1.376 . S
C1041 N1042 1.338 . S
C1041 H1044 0.930 . S
N1042 Cd1027 2.304 . S
N1042 C1037 1.337 . S
N1042 C1041 1.338 . S
H1043 C1037 0.929 . S
H1044 C1041 0.930 . S
C1045 N1046 1.332 . S
C1045 C1049 1.381 . S
C1045 H1051 0.931 . S
N1046 Cd1027 2.334 . S
N1046 C1045 1.332 . S
N1046 C1050 1.328 . S
C1047 C1048 1.396 . S
C1047 C1050 1.378 . S
C1047 H1076 0.931 . S
C1048 C1047 1.396 . S
C1048 C1049 1.382 . S
C1049 C1045 1.381 . S
C1049 C1048 1.382 . S
C1049 H1077 0.930 . S
C1050 N1046 1.328 . S
C1050 C1047 1.378 . S
C1050 H1052 0.930 . S
H1051 C1045 0.931 . S
H1052 C1050 0.930 . S
C1053 O1064 1.238 . S
C1053 O1065 1.253 . S
C1054 O1066 1.239 . S
C1054 O1067 1.230 . S
N1055 Cd1026 2.304 . S
N1055 C1056 1.337 . S
N1055 C1060 1.338 . S
C1056 N1055 1.337 . S
C1056 C1057 1.379 . S
C1056 H1070 0.929 . S
C1057 C1056 1.379 . S
C1057 C1058 1.380 . S
C1057 H1078 0.929 . S
C1058 C1057 1.380 . S
C1058 C1059 1.399 . S
C1059 C1058 1.399 . S
C1059 C1060 1.376 . S
C1059 H1079 0.931 . S
C1060 N1055 1.338 . S
C1060 C1059 1.376 . S
C1060 H1071 0.930 . S
C1061 O1068 1.239 . S
C1061 O1069 1.230 . S
O1062 Cd1026 2.268 . S
O1062 C1036 1.238 . S
O1063 Cd1027 2.273 . S
O1063 C1036 1.253 . S
O1064 Cd1027 2.268 . S
O1064 C1053 1.238 . S
O1065 Cd1026 2.273 . S
O1065 C1053 1.253 . S
O1066 Cd1026 2.417 . S
O1066 C1054 1.239 . S
O1067 Cd1026 2.330 . S
O1067 C1054 1.230 . S
O1068 Cd1027 2.417 . S
O1068 C1061 1.239 . S
O1069 Cd1027 2.330 . S
O1069 C1061 1.230 . S
H1070 C1056 0.929 . S
H1071 C1060 0.930 . S
H1072 C1030 0.931 . S
H1073 C1032 0.930 . S
H1074 C1038 0.929 . S
H1075 C1040 0.931 . S
H1076 C1047 0.931 . S
H1077 C1049 0.930 . S
H1078 C1057 0.929 . S
H1079 C1059 0.931 . S
Cd1080 N1083 2.334 . S
Cd1080 N1109 2.304 . S
Cd1080 O1116 2.268 . S
Cd1080 O1119 2.273 . S
Cd1080 O1120 2.417 . S
Cd1080 O1121 2.330 . S
Cd1081 N1096 2.304 . S
Cd1081 N1100 2.334 . S
Cd1081 O1117 2.273 . S
Cd1081 O1118 2.268 . S
Cd1081 O1122 2.417 . S
Cd1081 O1123 2.330 . S
C1082 N1083 1.332 . S
C1082 C1086 1.381 . S
C1082 H1088 0.931 . S
N1083 Cd1080 2.334 . S
N1083 C1082 1.332 . S
N1083 C1087 1.328 . S
C1084 C1085 1.396 . S
C1084 C1087 1.378 . S
C1084 H1126 0.931 . S
C1085 C1084 1.396 . S
C1085 C1086 1.382 . S
C1086 C1082 1.381 . S
C1086 C1085 1.382 . S
C1086 H1127 0.930 . S
C1087 N1083 1.328 . S
C1087 C1084 1.378 . S
C1087 H1089 0.930 . S
H1088 C1082 0.931 . S
H1089 C1087 0.930 . S
C1090 O1116 1.238 . S
C1090 O1117 1.253 . S
C1091 C1092 1.379 . S
C1091 N1096 1.337 . S
C1091 H1097 0.929 . S
C1092 C1091 1.379 . S
C1092 C1093 1.380 . S
C1092 H1128 0.929 . S
C1093 C1092 1.380 . S
C1093 C1094 1.399 . S
C1094 C1093 1.399 . S
C1094 C1095 1.376 . S
C1094 H1129 0.931 . S
C1095 C1094 1.376 . S
C1095 N1096 1.338 . S
C1095 H1098 0.930 . S
N1096 Cd1081 2.304 . S
N1096 C1091 1.337 . S
N1096 C1095 1.338 . S
H1097 C1091 0.929 . S
H1098 C1095 0.930 . S
C1099 N1100 1.332 . S
C1099 C1103 1.381 . S
C1099 H1105 0.931 . S
N1100 Cd1081 2.334 . S
N1100 C1099 1.332 . S
N1100 C1104 1.328 . S
C1101 C1102 1.396 . S
C1101 C1104 1.378 . S
C1101 H1130 0.931 . S
C1102 C1101 1.396 . S
C1102 C1103 1.382 . S
C1103 C1099 1.381 . S
C1103 C1102 1.382 . S
C1103 H1131 0.930 . S
C1104 N1100 1.328 . S
C1104 C1101 1.378 . S
C1104 H1106 0.930 . S
H1105 C1099 0.931 . S
H1106 C1104 0.930 . S
C1107 O1118 1.238 . S
C1107 O1119 1.253 . S
C1108 O1120 1.239 . S
C1108 O1121 1.230 . S
N1109 Cd1080 2.304 . S
N1109 C1110 1.337 . S
N1109 C1114 1.338 . S
C1110 N1109 1.337 . S
C1110 C1111 1.379 . S
C1110 H1124 0.929 . S
C1111 C1110 1.379 . S
C1111 C1112 1.380 . S
C1111 H1132 0.929 . S
C1112 C1111 1.380 . S
C1112 C1113 1.399 . S
C1113 C1112 1.399 . S
C1113 C1114 1.376 . S
C1113 H1133 0.931 . S
C1114 N1109 1.338 . S
C1114 C1113 1.376 . S
C1114 H1125 0.930 . S
C1115 O1122 1.239 . S
C1115 O1123 1.230 . S
O1116 Cd1080 2.268 . S
O1116 C1090 1.238 . S
O1117 Cd1081 2.273 . S
O1117 C1090 1.253 . S
O1118 Cd1081 2.268 . S
O1118 C1107 1.238 . S
O1119 Cd1080 2.273 . S
O1119 C1107 1.253 . S
O1120 Cd1080 2.417 . S
O1120 C1108 1.239 . S
O1121 Cd1080 2.330 . S
O1121 C1108 1.230 . S
O1122 Cd1081 2.417 . S
O1122 C1115 1.239 . S
O1123 Cd1081 2.330 . S
O1123 C1115 1.230 . S
H1124 C1110 0.929 . S
H1125 C1114 0.930 . S
H1126 C1084 0.931 . S
H1127 C1086 0.930 . S
H1128 C1092 0.929 . S
H1129 C1094 0.931 . S
H1130 C1101 0.931 . S
H1131 C1103 0.930 . S
H1132 C1111 0.929 . S
H1133 C1113 0.931 . S
Cd1134 N1137 2.334 . S
Cd1134 N1163 2.304 1_565 S
Cd1134 O1170 2.268 . S
Cd1134 O1173 2.273 . S
Cd1134 O1174 2.417 1_565 S
Cd1134 O1175 2.330 1_565 S
Cd1135 N1150 2.304 . S
Cd1135 N1154 2.334 . S
Cd1135 O1171 2.273 . S
Cd1135 O1172 2.268 . S
Cd1135 O1176 2.417 . S
Cd1135 O1177 2.330 . S
C1136 N1137 1.332 . S
C1136 C1140 1.381 . S
C1136 H1142 0.931 . S
N1137 Cd1134 2.334 . S
N1137 C1136 1.332 . S
N1137 C1141 1.328 . S
C1138 C1139 1.396 . S
C1138 C1141 1.378 . S
C1138 H1180 0.931 . S
C1139 C1138 1.396 . S
C1139 C1140 1.382 . S
C1140 C1136 1.381 . S
C1140 C1139 1.382 . S
C1140 H1181 0.930 . S
C1141 N1137 1.328 . S
C1141 C1138 1.378 . S
C1141 H1143 0.930 . S
H1142 C1136 0.931 . S
H1143 C1141 0.930 . S
C1144 O1170 1.238 . S
C1144 O1171 1.253 . S
C1145 C1146 1.379 . S
C1145 N1150 1.337 . S
C1145 H1151 0.929 . S
C1146 C1145 1.379 . S
C1146 C1147 1.380 . S
C1146 H1182 0.929 . S
C1147 C1146 1.380 . S
C1147 C1148 1.399 . S
C1148 C1147 1.399 . S
C1148 C1149 1.376 . S
C1148 H1183 0.931 . S
C1149 C1148 1.376 . S
C1149 N1150 1.338 . S
C1149 H1152 0.930 . S
N1150 Cd1135 2.304 . S
N1150 C1145 1.337 . S
N1150 C1149 1.338 . S
H1151 C1145 0.929 . S
H1152 C1149 0.930 . S
C1153 N1154 1.332 . S
C1153 C1157 1.381 . S
C1153 H1159 0.931 . S
N1154 Cd1135 2.334 . S
N1154 C1153 1.332 . S
N1154 C1158 1.328 . S
C1155 C1156 1.396 . S
C1155 C1158 1.378 . S
C1155 H1184 0.931 . S
C1156 C1155 1.396 . S
C1156 C1157 1.382 . S
C1157 C1153 1.381 . S
C1157 C1156 1.382 . S
C1157 H1185 0.930 . S
C1158 N1154 1.328 . S
C1158 C1155 1.378 . S
C1158 H1160 0.930 . S
H1159 C1153 0.931 . S
H1160 C1158 0.930 . S
C1161 O1172 1.238 . S
C1161 O1173 1.253 . S
C1162 O1174 1.239 . S
C1162 O1175 1.230 . S
N1163 Cd1134 2.304 1_545 S
N1163 C1164 1.337 1_545 S
N1163 C1168 1.338 . S
C1164 N1163 1.337 1_565 S
C1164 C1165 1.379 1_565 S
C1164 H1178 0.929 . S
C1165 C1164 1.379 1_545 S
C1165 C1166 1.380 . S
C1165 H1186 0.929 1_545 S
C1166 C1165 1.380 . S
C1166 C1167 1.399 . S
C1167 C1166 1.399 . S
C1167 C1168 1.376 . S
C1167 H1187 0.931 . S
C1168 N1163 1.338 . S
C1168 C1167 1.376 . S
C1168 H1179 0.930 . S
C1169 O1176 1.239 . S
C1169 O1177 1.230 . S
O1170 Cd1134 2.268 . S
O1170 C1144 1.238 . S
O1171 Cd1135 2.273 . S
O1171 C1144 1.253 . S
O1172 Cd1135 2.268 . S
O1172 C1161 1.238 . S
O1173 Cd1134 2.273 . S
O1173 C1161 1.253 . S
O1174 Cd1134 2.417 1_545 S
O1174 C1162 1.239 . S
O1175 Cd1134 2.330 1_545 S
O1175 C1162 1.230 . S
O1176 Cd1135 2.417 . S
O1176 C1169 1.239 . S
O1177 Cd1135 2.330 . S
O1177 C1169 1.230 . S
H1178 C1164 0.929 . S
H1179 C1168 0.930 . S
H1180 C1138 0.931 . S
H1181 C1140 0.930 . S
H1182 C1146 0.929 . S
H1183 C1148 0.931 . S
H1184 C1155 0.931 . S
H1185 C1157 0.930 . S
H1186 C1165 0.929 1_565 S
H1187 C1167 0.931 . S
Cd1188 N1191 2.334 . S
Cd1188 N1217 2.304 1_545 S
Cd1188 O1224 2.268 . S
Cd1188 O1227 2.273 . S
Cd1188 O1228 2.417 1_545 S
Cd1188 O1229 2.330 1_545 S
Cd1189 N1204 2.304 . S
Cd1189 N1208 2.334 . S
Cd1189 O1225 2.273 . S
Cd1189 O1226 2.268 . S
Cd1189 O1230 2.417 . S
Cd1189 O1231 2.330 . S
C1190 N1191 1.332 . S
C1190 C1194 1.381 . S
C1190 H1196 0.931 . S
N1191 Cd1188 2.334 . S
N1191 C1190 1.332 . S
N1191 C1195 1.328 . S
C1192 C1193 1.396 . S
C1192 C1195 1.378 . S
C1192 H1234 0.931 . S
C1193 C1192 1.396 . S
C1193 C1194 1.382 . S
C1194 C1190 1.381 . S
C1194 C1193 1.382 . S
C1194 H1235 0.930 . S
C1195 N1191 1.328 . S
C1195 C1192 1.378 . S
C1195 H1197 0.930 . S
H1196 C1190 0.931 . S
H1197 C1195 0.930 . S
C1198 O1224 1.238 . S
C1198 O1225 1.253 . S
C1199 C1200 1.379 . S
C1199 N1204 1.337 . S
C1199 H1205 0.929 . S
C1200 C1199 1.379 . S
C1200 C1201 1.380 . S
C1200 H1236 0.929 . S
C1201 C1200 1.380 . S
C1201 C1202 1.399 . S
C1202 C1201 1.399 . S
C1202 C1203 1.376 . S
C1202 H1237 0.931 . S
C1203 C1202 1.376 . S
C1203 N1204 1.338 . S
C1203 H1206 0.930 . S
N1204 Cd1189 2.304 . S
N1204 C1199 1.337 . S
N1204 C1203 1.338 . S
H1205 C1199 0.929 . S
H1206 C1203 0.930 . S
C1207 N1208 1.332 . S
C1207 C1211 1.381 . S
C1207 H1213 0.931 . S
N1208 Cd1189 2.334 . S
N1208 C1207 1.332 . S
N1208 C1212 1.328 . S
C1209 C1210 1.396 . S
C1209 C1212 1.378 . S
C1209 H1238 0.931 . S
C1210 C1209 1.396 . S
C1210 C1211 1.382 . S
C1211 C1207 1.381 . S
C1211 C1210 1.382 . S
C1211 H1239 0.930 . S
C1212 N1208 1.328 . S
C1212 C1209 1.378 . S
C1212 H1214 0.930 . S
H1213 C1207 0.931 . S
H1214 C1212 0.930 . S
C1215 O1226 1.238 . S
C1215 O1227 1.253 . S
C1216 O1228 1.239 . S
C1216 O1229 1.230 . S
N1217 Cd1188 2.304 1_565 S
N1217 C1218 1.337 1_565 S
N1217 C1222 1.338 . S
C1218 N1217 1.337 1_545 S
C1218 C1219 1.379 1_545 S
C1218 H1232 0.929 . S
C1219 C1218 1.379 1_565 S
C1219 C1220 1.380 . S
C1219 H1240 0.929 1_565 S
C1220 C1219 1.380 . S
C1220 C1221 1.399 . S
C1221 C1220 1.399 . S
C1221 C1222 1.376 . S
C1221 H1241 0.931 . S
C1222 N1217 1.338 . S
C1222 C1221 1.376 . S
C1222 H1233 0.930 . S
C1223 O1230 1.239 . S
C1223 O1231 1.230 . S
O1224 Cd1188 2.268 . S
O1224 C1198 1.238 . S
O1225 Cd1189 2.273 . S
O1225 C1198 1.253 . S
O1226 Cd1189 2.268 . S
O1226 C1215 1.238 . S
O1227 Cd1188 2.273 . S
O1227 C1215 1.253 . S
O1228 Cd1188 2.417 1_565 S
O1228 C1216 1.239 . S
O1229 Cd1188 2.330 1_565 S
O1229 C1216 1.230 . S
O1230 Cd1189 2.417 . S
O1230 C1223 1.239 . S
O1231 Cd1189 2.330 . S
O1231 C1223 1.230 . S
H1232 C1218 0.929 . S
H1233 C1222 0.930 . S
H1234 C1192 0.931 . S
H1235 C1194 0.930 . S
H1236 C1200 0.929 . S
H1237 C1202 0.931 . S
H1238 C1209 0.931 . S
H1239 C1211 0.930 . S
H1240 C1219 0.929 1_545 S
H1241 C1221 0.931 . S
Cd1242 N1245 2.334 . S
Cd1242 N1271 2.304 . S
Cd1242 O1278 2.268 . S
Cd1242 O1281 2.273 . S
Cd1242 O1282 2.417 . S
Cd1242 O1283 2.330 . S
Cd1243 N1258 2.304 . S
Cd1243 N1262 2.334 . S
Cd1243 O1279 2.273 . S
Cd1243 O1280 2.268 . S
Cd1243 O1284 2.417 . S
Cd1243 O1285 2.330 . S
C1244 N1245 1.332 . S
C1244 C1248 1.381 . S
C1244 H1250 0.931 . S
N1245 Cd1242 2.334 . S
N1245 C1244 1.332 . S
N1245 C1249 1.328 . S
C1246 C1247 1.396 . S
C1246 C1249 1.378 . S
C1246 H1288 0.931 . S
C1247 C1246 1.396 . S
C1247 C1248 1.382 . S
C1248 C1244 1.381 . S
C1248 C1247 1.382 . S
C1248 H1289 0.930 . S
C1249 N1245 1.328 . S
C1249 C1246 1.378 . S
C1249 H1251 0.930 . S
H1250 C1244 0.931 . S
H1251 C1249 0.930 . S
C1252 O1278 1.238 . S
C1252 O1279 1.253 . S
C1253 C1254 1.379 . S
C1253 N1258 1.337 . S
C1253 H1259 0.929 . S
C1254 C1253 1.379 . S
C1254 C1255 1.380 . S
C1254 H1290 0.929 . S
C1255 C1254 1.380 . S
C1255 C1256 1.399 . S
C1256 C1255 1.399 . S
C1256 C1257 1.376 . S
C1256 H1291 0.931 . S
C1257 C1256 1.376 . S
C1257 N1258 1.338 . S
C1257 H1260 0.930 . S
N1258 Cd1243 2.304 . S
N1258 C1253 1.337 . S
N1258 C1257 1.338 . S
H1259 C1253 0.929 . S
H1260 C1257 0.930 . S
C1261 N1262 1.332 . S
C1261 C1265 1.381 . S
C1261 H1267 0.931 . S
N1262 Cd1243 2.334 . S
N1262 C1261 1.332 . S
N1262 C1266 1.328 . S
C1263 C1264 1.396 . S
C1263 C1266 1.378 . S
C1263 H1292 0.931 . S
C1264 C1263 1.396 . S
C1264 C1265 1.382 . S
C1265 C1261 1.381 . S
C1265 C1264 1.382 . S
C1265 H1293 0.930 . S
C1266 N1262 1.328 . S
C1266 C1263 1.378 . S
C1266 H1268 0.930 . S
H1267 C1261 0.931 . S
H1268 C1266 0.930 . S
C1269 O1280 1.238 . S
C1269 O1281 1.253 . S
C1270 O1282 1.239 . S
C1270 O1283 1.230 . S
N1271 Cd1242 2.304 . S
N1271 C1272 1.337 . S
N1271 C1276 1.338 . S
C1272 N1271 1.337 . S
C1272 C1273 1.379 . S
C1272 H1286 0.929 . S
C1273 C1272 1.379 . S
C1273 C1274 1.380 . S
C1273 H1294 0.929 . S
C1274 C1273 1.380 . S
C1274 C1275 1.399 . S
C1275 C1274 1.399 . S
C1275 C1276 1.376 . S
C1275 H1295 0.931 . S
C1276 N1271 1.338 . S
C1276 C1275 1.376 . S
C1276 H1287 0.930 . S
C1277 O1284 1.239 . S
C1277 O1285 1.230 . S
O1278 Cd1242 2.268 . S
O1278 C1252 1.238 . S
O1279 Cd1243 2.273 . S
O1279 C1252 1.253 . S
O1280 Cd1243 2.268 . S
O1280 C1269 1.238 . S
O1281 Cd1242 2.273 . S
O1281 C1269 1.253 . S
O1282 Cd1242 2.417 . S
O1282 C1270 1.239 . S
O1283 Cd1242 2.330 . S
O1283 C1270 1.230 . S
O1284 Cd1243 2.417 . S
O1284 C1277 1.239 . S
O1285 Cd1243 2.330 . S
O1285 C1277 1.230 . S
H1286 C1272 0.929 . S
H1287 C1276 0.930 . S
H1288 C1246 0.931 . S
H1289 C1248 0.930 . S
H1290 C1254 0.929 . S
H1291 C1256 0.931 . S
H1292 C1263 0.931 . S
H1293 C1265 0.930 . S
H1294 C1273 0.929 . S
H1295 C1275 0.931 . S
C1296 C1297 1.369 . S
C1296 C1298 1.419 . S
C1296 H1300 0.930 . S
C1297 C1296 1.369 . S
C1297 C1306 1.429 . S
C1298 C1296 1.419 . S
C1298 C1299 1.363 . S
C1298 H1301 0.929 . S
C1299 C1298 1.363 . S
C1299 C1305 1.428 . S
H1300 C1296 0.930 . S
H1301 C1298 0.929 . S
S1302 N1303 1.613 . S
S1302 N1304 1.610 . S
N1303 S1302 1.613 . S
N1303 C1306 1.350 . S
N1304 S1302 1.610 . S
N1304 C1305 1.351 . S
C1305 C1299 1.428 . S
C1305 N1304 1.351 . S
C1305 C1306 1.434 . S
C1306 C1297 1.429 . S
C1306 N1303 1.350 . S
C1306 C1305 1.434 . S
C1307 C1308 1.369 . S
C1307 C1309 1.419 . S
C1307 H1311 0.930 . S
C1308 C1307 1.369 . S
C1308 C1317 1.429 . S
C1309 C1307 1.419 . S
C1309 C1310 1.363 . S
C1309 H1312 0.929 . S
C1310 C1309 1.363 . S
C1310 C1316 1.428 . S
H1311 C1307 0.930 . S
H1312 C1309 0.929 . S
S1313 N1314 1.613 . S
S1313 N1315 1.610 . S
N1314 S1313 1.613 . S
N1314 C1317 1.350 . S
N1315 S1313 1.610 . S
N1315 C1316 1.351 . S
C1316 C1310 1.428 . S
C1316 N1315 1.351 . S
C1316 C1317 1.434 . S
C1317 C1308 1.429 . S
C1317 N1314 1.350 . S
C1317 C1316 1.434 . S
C1318 C1319 1.369 1_545 S
C1318 C1320 1.419 . S
C1318 H1322 0.930 1_545 S
C1319 C1318 1.369 1_565 S
C1319 C1328 1.429 1_565 S
C1320 C1318 1.419 . S
C1320 C1321 1.363 . S
C1320 H1323 0.929 . S
C1321 C1320 1.363 . S
C1321 C1327 1.428 . S
H1322 C1318 0.930 1_565 S
H1323 C1320 0.929 . S
S1324 N1325 1.613 . S
S1324 N1326 1.610 . S
N1325 S1324 1.613 . S
N1325 C1328 1.350 . S
N1326 S1324 1.610 . S
N1326 C1327 1.351 . S
C1327 C1321 1.428 . S
C1327 N1326 1.351 . S
C1327 C1328 1.434 . S
C1328 C1319 1.429 1_545 S
C1328 N1325 1.350 . S
C1328 C1327 1.434 . S
C1329 C1330 1.369 . S
C1329 C1331 1.419 . S
C1329 H1333 0.930 . S
C1330 C1329 1.369 . S
C1330 C1339 1.429 . S
C1331 C1329 1.419 . S
C1331 C1332 1.363 1_565 S
C1331 H1334 0.929 1_565 S
C1332 C1331 1.363 1_545 S
C1332 C1338 1.428 1_545 S
H1333 C1329 0.930 . S
H1334 C1331 0.929 1_545 S
S1335 N1336 1.613 1_455 S
S1335 N1337 1.610 1_455 S
N1336 S1335 1.613 1_655 S
N1336 C1339 1.350 . S
N1337 S1335 1.610 1_655 S
N1337 C1338 1.351 . S
C1338 C1332 1.428 1_565 S
C1338 N1337 1.351 . S
C1338 C1339 1.434 . S
C1339 C1330 1.429 . S
C1339 N1336 1.350 . S
C1339 C1338 1.434 . S
C1340 C1341 1.369 . S
C1340 C1342 1.419 . S
C1340 H1344 0.930 . S
C1341 C1340 1.369 . S
C1341 C1350 1.429 . S
C1342 C1340 1.419 . S
C1342 C1343 1.363 . S
C1342 H1345 0.929 . S
C1343 C1342 1.363 . S
C1343 C1349 1.428 . S
H1344 C1340 0.930 . S
H1345 C1342 0.929 . S
S1346 N1347 1.613 . S
S1346 N1348 1.610 . S
N1347 S1346 1.613 . S
N1347 C1350 1.350 . S
N1348 S1346 1.610 . S
N1348 C1349 1.351 . S
C1349 C1343 1.428 . S
C1349 N1348 1.351 . S
C1349 C1350 1.434 . S
C1350 C1341 1.429 . S
C1350 N1347 1.350 . S
C1350 C1349 1.434 . S
C1351 C1352 1.369 1_556 S
C1351 C1353 1.419 . S
C1351 H1355 0.930 1_556 S
C1352 C1351 1.369 1_554 S
C1352 C1361 1.429 1_554 S
C1353 C1351 1.419 . S
C1353 C1354 1.363 . S
C1353 H1356 0.929 . S
C1354 C1353 1.363 . S
C1354 C1360 1.428 . S
H1355 C1351 0.930 1_554 S
H1356 C1353 0.929 . S
S1357 N1358 1.613 . S
S1357 N1359 1.610 . S
N1358 S1357 1.613 . S
N1358 C1361 1.350 . S
N1359 S1357 1.610 . S
N1359 C1360 1.351 . S
C1360 C1354 1.428 . S
C1360 N1359 1.351 . S
C1360 C1361 1.434 . S
C1361 C1352 1.429 1_556 S
C1361 N1358 1.350 . S
C1361 C1360 1.434 . S
C1362 C1363 1.369 . S
C1362 C1364 1.419 . S
C1362 H1366 0.930 . S
C1363 C1362 1.369 . S
C1363 C1372 1.429 . S
C1364 C1362 1.419 . S
C1364 C1365 1.363 . S
C1364 H1367 0.929 . S
C1365 C1364 1.363 . S
C1365 C1371 1.428 . S
H1366 C1362 0.930 . S
H1367 C1364 0.929 . S
S1368 N1369 1.613 . S
S1368 N1370 1.610 . S
N1369 S1368 1.613 . S
N1369 C1372 1.350 . S
N1370 S1368 1.610 . S
N1370 C1371 1.351 . S
C1371 C1365 1.428 . S
C1371 N1370 1.351 . S
C1371 C1372 1.434 . S
C1372 C1363 1.429 . S
C1372 N1369 1.350 . S
C1372 C1371 1.434 . S
C1373 C1374 1.369 1_554 S
C1373 C1375 1.419 . S
C1373 H1377 0.930 1_554 S
C1374 C1373 1.369 1_556 S
C1374 C1383 1.429 1_556 S
C1375 C1373 1.419 . S
C1375 C1376 1.363 . S
C1375 H1378 0.929 . S
C1376 C1375 1.363 . S
C1376 C1382 1.428 . S
H1377 C1373 0.930 1_556 S
H1378 C1375 0.929 . S
S1379 N1380 1.613 . S
S1379 N1381 1.610 . S
N1380 S1379 1.613 . S
N1380 C1383 1.350 . S
N1381 S1379 1.610 . S
N1381 C1382 1.351 . S
C1382 C1376 1.428 . S
C1382 N1381 1.351 . S
C1382 C1383 1.434 . S
C1383 C1374 1.429 1_554 S
C1383 N1380 1.350 . S
C1383 C1382 1.434 . S
C1384 C1385 1.369 . S
C1384 C1386 1.419 . S
C1384 H1388 0.930 . S
C1385 C1384 1.369 . S
C1385 C1394 1.429 . S
C1386 C1384 1.419 . S
C1386 C1387 1.363 . S
C1386 H1389 0.929 . S
C1387 C1386 1.363 . S
C1387 C1393 1.428 . S
H1388 C1384 0.930 . S
H1389 C1386 0.929 . S
S1390 N1391 1.613 1_556 S
S1390 N1392 1.610 . S
N1391 S1390 1.613 1_554 S
N1391 C1394 1.350 . S
N1392 S1390 1.610 . S
N1392 C1393 1.351 1_556 S
C1393 C1387 1.428 . S
C1393 N1392 1.351 1_554 S
C1393 C1394 1.434 . S
C1394 C1385 1.429 . S
C1394 N1391 1.350 . S
C1394 C1393 1.434 . S
C1395 C1396 1.369 1_655 S
C1395 C1397 1.419 . S
C1395 H1399 0.930 1_655 S
C1396 C1395 1.369 1_455 S
C1396 C1405 1.429 1_455 S
C1397 C1395 1.419 . S
C1397 C1398 1.363 . S
C1397 H1400 0.929 . S
C1398 C1397 1.363 . S
C1398 C1404 1.428 . S
H1399 C1395 0.930 1_455 S
H1400 C1397 0.929 . S
S1401 N1402 1.613 . S
S1401 N1403 1.610 1_554 S
N1402 S1401 1.613 . S
N1402 C1405 1.350 1_554 S
N1403 S1401 1.610 1_556 S
N1403 C1404 1.351 . S
C1404 C1398 1.428 . S
C1404 N1403 1.351 . S
C1404 C1405 1.434 . S
C1405 C1396 1.429 1_655 S
C1405 N1402 1.350 1_556 S
C1405 C1404 1.434 . S
C1406 C1407 1.369 . S
C1406 C1408 1.419 . S
C1406 H1410 0.930 . S
C1407 C1406 1.369 . S
C1407 C1416 1.429 . S
C1408 C1406 1.419 . S
C1408 C1409 1.363 . S
C1408 H1411 0.929 . S
C1409 C1408 1.363 . S
C1409 C1415 1.428 . S
H1410 C1406 0.930 . S
H1411 C1408 0.929 . S
S1412 N1413 1.613 . S
S1412 N1414 1.610 . S
N1413 S1412 1.613 . S
N1413 C1416 1.350 . S
N1414 S1412 1.610 . S
N1414 C1415 1.351 . S
C1415 C1409 1.428 . S
C1415 N1414 1.351 . S
C1415 C1416 1.434 . S
C1416 C1407 1.429 . S
C1416 N1413 1.350 . S
C1416 C1415 1.434 . S
C1417 C1418 1.369 1_455 S
C1417 C1419 1.419 . S
C1417 H1421 0.930 1_455 S
C1418 C1417 1.369 1_655 S
C1418 C1427 1.429 1_655 S
C1419 C1417 1.419 . S
C1419 C1420 1.363 . S
C1419 H1422 0.929 . S
C1420 C1419 1.363 . S
C1420 C1426 1.428 . S
H1421 C1417 0.930 1_655 S
H1422 C1419 0.929 . S
S1423 N1424 1.613 . S
S1423 N1425 1.610 . S
N1424 S1423 1.613 . S
N1424 C1427 1.350 . S
N1425 S1423 1.610 . S
N1425 C1426 1.351 . S
C1426 C1420 1.428 . S
C1426 N1425 1.351 . S
C1426 C1427 1.434 . S
C1427 C1418 1.429 1_455 S
C1427 N1424 1.350 . S
C1427 C1426 1.434 . S
C1428 C1429 1.369 . S
C1428 C1430 1.419 . S
C1428 H1432 0.930 . S
C1429 C1428 1.369 . S
C1429 C1438 1.429 . S
C1430 C1428 1.419 . S
C1430 C1431 1.363 . S
C1430 H1433 0.929 . S
C1431 C1430 1.363 . S
C1431 C1437 1.428 . S
H1432 C1428 0.930 . S
H1433 C1430 0.929 . S
S1434 N1435 1.613 . S
S1434 N1436 1.610 1_455 S
N1435 S1434 1.613 . S
N1435 C1438 1.350 1_455 S
N1436 S1434 1.610 1_655 S
N1436 C1437 1.351 . S
C1437 C1431 1.428 . S
C1437 N1436 1.351 . S
C1437 C1438 1.434 . S
C1438 C1429 1.429 . S
C1438 N1435 1.350 1_655 S
C1438 C1437 1.434 . S
C1439 C1440 1.369 . S
C1439 C1441 1.419 . S
C1439 H1443 0.930 . S
C1440 C1439 1.369 . S
C1440 C1449 1.429 . S
C1441 C1439 1.419 . S
C1441 C1442 1.363 . S
C1441 H1444 0.929 . S
C1442 C1441 1.363 . S
C1442 C1448 1.428 . S
H1443 C1439 0.930 . S
H1444 C1441 0.929 . S
S1445 N1446 1.613 . S
S1445 N1447 1.610 . S
N1446 S1445 1.613 . S
N1446 C1449 1.350 . S
N1447 S1445 1.610 . S
N1447 C1448 1.351 . S
C1448 C1442 1.428 . S
C1448 N1447 1.351 . S
C1448 C1449 1.434 . S
C1449 C1440 1.429 . S
C1449 N1446 1.350 . S
C1449 C1448 1.434 . S
C1450 C1451 1.369 1_565 S
C1450 C1452 1.419 . S
C1450 H1454 0.932 . S
C1451 C1450 1.369 1_545 S
C1451 C1460 1.429 1_545 S
C1452 C1450 1.419 . S
C1452 C1453 1.363 . S
C1452 H1455 0.929 . S
C1453 C1452 1.363 . S
C1453 C1459 1.428 . S
H1454 C1450 0.932 . S
H1455 C1452 0.929 . S
S1456 N1457 1.613 . S
S1456 N1458 1.610 . S
N1457 S1456 1.613 . S
N1457 C1460 1.350 . S
N1458 S1456 1.610 . S
N1458 C1459 1.351 . S
C1459 C1453 1.428 . S
C1459 N1458 1.351 . S
C1459 C1460 1.434 . S
C1460 C1451 1.429 1_565 S
C1460 N1457 1.350 . S
C1460 C1459 1.434 . S
C1461 C1462 1.369 . S
C1461 C1463 1.419 . S
C1461 H1465 0.930 . S
C1462 C1461 1.369 . S
C1462 C1471 1.429 . S
C1463 C1461 1.419 . S
C1463 C1464 1.363 1_545 S
C1463 H1466 0.929 1_545 S
C1464 C1463 1.363 1_565 S
C1464 C1470 1.428 1_565 S
H1465 C1461 0.930 . S
H1466 C1463 0.929 1_565 S
S1467 N1468 1.613 1_655 S
S1467 N1469 1.610 . S
N1468 S1467 1.613 1_455 S
N1468 C1471 1.350 . S
N1469 S1467 1.610 . S
N1469 C1470 1.351 1_655 S
C1470 C1464 1.428 1_545 S
C1470 N1469 1.351 1_455 S
C1470 C1471 1.434 . S
C1471 C1462 1.429 . S
C1471 N1468 1.350 . S
C1471 C1470 1.434 . S
C1472 C1473 1.369 . S
C1472 C1474 1.419 . S
C1472 H1476 0.930 . S
C1473 C1472 1.369 . S
C1473 C1482 1.429 . S
C1474 C1472 1.419 . S
C1474 C1475 1.363 . S
C1474 H1477 0.929 . S
C1475 C1474 1.363 . S
C1475 C1481 1.428 . S
H1476 C1472 0.930 . S
H1477 C1474 0.929 . S
S1478 N1479 1.613 . S
S1478 N1480 1.610 . S
N1479 S1478 1.613 . S
N1479 C1482 1.350 . S
N1480 S1478 1.610 . S
N1480 C1481 1.351 . S
C1481 C1475 1.428 . S
C1481 N1480 1.351 . S
C1481 C1482 1.434 . S
C1482 C1473 1.429 . S
C1482 N1479 1.350 . S
C1482 C1481 1.434 . S
C1483 C1484 1.369 . S
C1483 C1485 1.419 . S
C1483 H1487 0.930 . S
C1484 C1483 1.369 . S
C1484 C1493 1.429 . S
C1485 C1483 1.419 . S
C1485 C1486 1.363 1_554 S
C1485 H1488 0.929 . S
C1486 C1485 1.363 1_556 S
C1486 C1492 1.428 1_556 S
H1487 C1483 0.930 . S
H1488 C1485 0.929 . S
S1489 N1490 1.613 . S
S1489 N1491 1.610 1_554 S
N1490 S1489 1.613 . S
N1490 C1493 1.350 . S
N1491 S1489 1.610 1_556 S
N1491 C1492 1.351 1_556 S
C1492 C1486 1.428 1_554 S
C1492 N1491 1.351 1_554 S
C1492 C1493 1.434 . S
C1493 C1484 1.429 . S
C1493 N1490 1.350 . S
C1493 C1492 1.434 . S
C1494 C1495 1.369 . S
C1494 C1496 1.419 . S
C1494 H1498 0.930 . S
C1495 C1494 1.369 . S
C1495 C1504 1.429 . S
C1496 C1494 1.419 . S
C1496 C1497 1.363 . S
C1496 H1499 0.929 . S
C1497 C1496 1.363 . S
C1497 C1503 1.428 . S
H1498 C1494 0.930 . S
H1499 C1496 0.929 . S
S1500 N1501 1.613 . S
S1500 N1502 1.610 . S
N1501 S1500 1.613 . S
N1501 C1504 1.350 . S
N1502 S1500 1.610 . S
N1502 C1503 1.351 . S
C1503 C1497 1.428 . S
C1503 N1502 1.351 . S
C1503 C1504 1.434 . S
C1504 C1495 1.429 . S
C1504 N1501 1.350 . S
C1504 C1503 1.434 . S
C1505 C1506 1.369 1_556 S
C1505 C1507 1.419 . S
C1505 H1509 0.930 1_556 S
C1506 C1505 1.369 1_554 S
C1506 C1515 1.429 1_554 S
C1507 C1505 1.419 . S
C1507 C1508 1.363 . S
C1507 H1510 0.929 . S
C1508 C1507 1.363 . S
C1508 C1514 1.428 . S
H1509 C1505 0.930 1_554 S
H1510 C1507 0.929 . S
S1511 N1512 1.613 . S
S1511 N1513 1.610 . S
N1512 S1511 1.613 . S
N1512 C1515 1.350 . S
N1513 S1511 1.610 . S
N1513 C1514 1.351 . S
C1514 C1508 1.428 . S
C1514 N1513 1.351 . S
C1514 C1515 1.434 . S
C1515 C1506 1.429 1_556 S
C1515 N1512 1.350 . S
C1515 C1514 1.434 . S
C1516 C1517 1.369 . S
C1516 C1518 1.419 . S
C1516 H1520 0.930 . S
C1517 C1516 1.369 . S
C1517 C1526 1.429 . S
C1518 C1516 1.419 . S
C1518 C1519 1.363 . S
C1518 H1521 0.929 . S
C1519 C1518 1.363 . S
C1519 C1525 1.428 . S
H1520 C1516 0.930 . S
H1521 C1518 0.929 . S
S1522 N1523 1.613 1_554 S
S1522 N1524 1.610 1_554 S
N1523 S1522 1.613 1_556 S
N1523 C1526 1.350 . S
N1524 S1522 1.610 1_556 S
N1524 C1525 1.351 . S
C1525 C1519 1.428 . S
C1525 N1524 1.351 . S
C1525 C1526 1.434 . S
C1526 C1517 1.429 . S
C1526 N1523 1.350 . S
C1526 C1525 1.434 . S
C1527 C1528 1.369 1_455 S
C1527 C1529 1.419 . S
C1527 H1531 0.930 . S
C1528 C1527 1.369 1_655 S
C1528 C1537 1.429 1_655 S
C1529 C1527 1.419 . S
C1529 C1530 1.363 . S
C1529 H1532 0.929 . S
C1530 C1529 1.363 . S
C1530 C1536 1.428 . S
H1531 C1527 0.930 . S
H1532 C1529 0.929 . S
S1533 N1534 1.613 1_455 S
S1533 N1535 1.610 . S
N1534 S1533 1.613 1_655 S
N1534 C1537 1.350 1_655 S
N1535 S1533 1.610 . S
N1535 C1536 1.351 . S
C1536 C1530 1.428 . S
C1536 N1535 1.351 . S
C1536 C1537 1.434 . S
C1537 C1528 1.429 1_455 S
C1537 N1534 1.350 1_455 S
C1537 C1536 1.434 . S
C1538 C1539 1.369 . S
C1538 C1540 1.419 . S
C1538 H1542 0.930 . S
C1539 C1538 1.369 . S
C1539 C1548 1.429 . S
C1540 C1538 1.419 . S
C1540 C1541 1.363 . S
C1540 H1543 0.929 . S
C1541 C1540 1.363 . S
C1541 C1547 1.428 . S
H1542 C1538 0.930 . S
H1543 C1540 0.929 . S
S1544 N1545 1.613 . S
S1544 N1546 1.610 . S
N1545 S1544 1.613 . S
N1545 C1548 1.350 . S
N1546 S1544 1.610 . S
N1546 C1547 1.351 . S
C1547 C1541 1.428 . S
C1547 N1546 1.351 . S
C1547 C1548 1.434 . S
C1548 C1539 1.429 . S
C1548 N1545 1.350 . S
C1548 C1547 1.434 . S
C1549 C1550 1.369 . S
C1549 C1551 1.419 . S
C1549 H1553 0.930 . S
C1550 C1549 1.369 . S
C1550 C1559 1.429 . S
C1551 C1549 1.419 . S
C1551 C1552 1.363 1_655 S
C1551 H1554 0.929 . S
C1552 C1551 1.363 1_455 S
C1552 C1558 1.428 1_455 S
H1553 C1549 0.930 . S
H1554 C1551 0.929 . S
S1555 N1556 1.613 . S
S1555 N1557 1.610 1_655 S
N1556 S1555 1.613 . S
N1556 C1559 1.350 . S
N1557 S1555 1.610 1_455 S
N1557 C1558 1.351 1_455 S
C1558 C1552 1.428 1_655 S
C1558 N1557 1.351 1_655 S
C1558 C1559 1.434 . S
C1559 C1550 1.429 . S
C1559 N1556 1.350 . S
C1559 C1558 1.434 . S
C1560 C1561 1.369 . S
C1560 C1562 1.419 . S
C1560 H1564 0.930 . S
C1561 C1560 1.369 . S
C1561 C1570 1.429 . S
C1562 C1560 1.419 . S
C1562 C1563 1.363 . S
C1562 H1565 0.929 . S
C1563 C1562 1.363 . S
C1563 C1569 1.428 . S
H1564 C1560 0.930 . S
H1565 C1562 0.929 . S
S1566 N1567 1.613 . S
S1566 N1568 1.610 . S
N1567 S1566 1.613 . S
N1567 C1570 1.350 . S
N1568 S1566 1.610 . S
N1568 C1569 1.351 . S
C1569 C1563 1.428 . S
C1569 N1568 1.351 . S
C1569 C1570 1.434 . S
C1570 C1561 1.429 . S
C1570 N1567 1.350 . S
C1570 C1569 1.434 . S
C1571 C1572 1.369 . S
C1571 C1573 1.419 . S
C1571 H1575 0.930 . S
C1572 C1571 1.369 . S
C1572 C1581 1.429 . S
C1573 C1571 1.419 . S
C1573 C1574 1.363 . S
C1573 H1576 0.929 . S
C1574 C1573 1.363 . S
C1574 C1580 1.428 . S
H1575 C1571 0.930 . S
H1576 C1573 0.929 . S
S1577 N1578 1.613 . S
S1577 N1579 1.610 . S
N1578 S1577 1.613 . S
N1578 C1581 1.350 . S
N1579 S1577 1.610 . S
N1579 C1580 1.351 . S
C1580 C1574 1.428 . S
C1580 N1579 1.351 . S
C1580 C1581 1.434 . S
C1581 C1572 1.429 . S
C1581 N1578 1.350 . S
C1581 C1580 1.434 . S
C1582 C1583 1.369 . S
C1582 C1584 1.419 . S
C1582 H1586 0.930 . S
C1583 C1582 1.369 . S
C1583 C1592 1.429 . S
C1584 C1582 1.419 . S
C1584 C1585 1.363 . S
C1584 H1587 0.929 . S
C1585 C1584 1.363 . S
C1585 C1591 1.428 . S
H1586 C1582 0.930 . S
H1587 C1584 0.929 . S
S1588 N1589 1.613 . S
S1588 N1590 1.610 . S
N1589 S1588 1.613 . S
N1589 C1592 1.350 . S
N1590 S1588 1.610 . S
N1590 C1591 1.351 . S
C1591 C1585 1.428 . S
C1591 N1590 1.351 . S
C1591 C1592 1.434 . S
C1592 C1583 1.429 . S
C1592 N1589 1.350 . S
C1592 C1591 1.434 . S
C1593 C1594 1.369 . S
C1593 C1595 1.419 . S
C1593 H1597 0.930 . S
C1594 C1593 1.369 . S
C1594 C1603 1.429 . S
C1595 C1593 1.419 . S
C1595 C1596 1.363 . S
C1595 H1598 0.929 . S
C1596 C1595 1.363 . S
C1596 C1602 1.428 . S
H1597 C1593 0.930 . S
H1598 C1595 0.929 . S
S1599 N1600 1.613 . S
S1599 N1601 1.610 . S
N1600 S1599 1.613 . S
N1600 C1603 1.350 . S
N1601 S1599 1.610 . S
N1601 C1602 1.351 . S
C1602 C1596 1.428 . S
C1602 N1601 1.351 . S
C1602 C1603 1.434 . S
C1603 C1594 1.429 . S
C1603 N1600 1.350 . S
C1603 C1602 1.434 . S
C1604 C1605 1.369 . S
C1604 C1606 1.419 . S
C1604 H1608 0.930 . S
C1605 C1604 1.369 . S
C1605 C1614 1.429 . S
C1606 C1604 1.419 . S
C1606 C1607 1.363 . S
C1606 H1609 0.929 . S
C1607 C1606 1.363 . S
C1607 C1613 1.428 . S
H1608 C1604 0.930 . S
H1609 C1606 0.929 . S
S1610 N1611 1.613 . S
S1610 N1612 1.610 . S
N1611 S1610 1.613 . S
N1611 C1614 1.350 . S
N1612 S1610 1.610 . S
N1612 C1613 1.351 . S
C1613 C1607 1.428 . S
C1613 N1612 1.351 . S
C1613 C1614 1.434 . S
C1614 C1605 1.429 . S
C1614 N1611 1.350 . S
C1614 C1613 1.434 . S
C1615 C1616 1.369 . S
C1615 C1617 1.419 . S
C1615 H1619 0.930 . S
C1616 C1615 1.369 . S
C1616 C1625 1.429 . S
C1617 C1615 1.419 . S
C1617 C1618 1.363 . S
C1617 H1620 0.929 . S
C1618 C1617 1.363 . S
C1618 C1624 1.428 . S
H1619 C1615 0.930 . S
H1620 C1617 0.929 . S
S1621 N1622 1.613 . S
S1621 N1623 1.610 . S
N1622 S1621 1.613 . S
N1622 C1625 1.350 . S
N1623 S1621 1.610 . S
N1623 C1624 1.351 . S
C1624 C1618 1.428 . S
C1624 N1623 1.351 . S
C1624 C1625 1.434 . S
C1625 C1616 1.429 . S
C1625 N1622 1.350 . S
C1625 C1624 1.434 . S
C1626 C1627 1.369 . S
C1626 C1628 1.419 . S
C1626 H1630 0.930 . S
C1627 C1626 1.369 . S
C1627 C1636 1.429 . S
C1628 C1626 1.419 . S
C1628 C1629 1.363 . S
C1628 H1631 0.929 . S
C1629 C1628 1.363 . S
C1629 C1635 1.428 . S
H1630 C1626 0.930 . S
H1631 C1628 0.929 . S
S1632 N1633 1.613 . S
S1632 N1634 1.610 . S
N1633 S1632 1.613 . S
N1633 C1636 1.350 . S
N1634 S1632 1.610 . S
N1634 C1635 1.351 . S
C1635 C1629 1.428 . S
C1635 N1634 1.351 . S
C1635 C1636 1.434 . S
C1636 C1627 1.429 . S
C1636 N1633 1.350 . S
C1636 C1635 1.434 . S
C1637 C1638 1.369 . S
C1637 C1639 1.419 . S
C1637 H1641 0.930 . S
C1638 C1637 1.369 . S
C1638 C1647 1.429 . S
C1639 C1637 1.419 . S
C1639 C1640 1.363 . S
C1639 H1642 0.929 . S
C1640 C1639 1.363 . S
C1640 C1646 1.428 . S
H1641 C1637 0.930 . S
H1642 C1639 0.929 . S
S1643 N1644 1.613 . S
S1643 N1645 1.610 . S
N1644 S1643 1.613 . S
N1644 C1647 1.350 . S
N1645 S1643 1.610 . S
N1645 C1646 1.351 . S
C1646 C1640 1.428 . S
C1646 N1645 1.351 . S
C1646 C1647 1.434 . S
C1647 C1638 1.429 . S
C1647 N1644 1.350 . S
C1647 C1646 1.434 . S
C1648 C1649 1.369 . S
C1648 C1650 1.419 . S
C1648 H1652 0.930 . S
C1649 C1648 1.369 . S
C1649 C1658 1.429 . S
C1650 C1648 1.419 . S
C1650 C1651 1.363 . S
C1650 H1653 0.929 . S
C1651 C1650 1.363 . S
C1651 C1657 1.428 . S
H1652 C1648 0.930 . S
H1653 C1650 0.929 . S
S1654 N1655 1.613 . S
S1654 N1656 1.610 . S
N1655 S1654 1.613 . S
N1655 C1658 1.350 . S
N1656 S1654 1.610 . S
N1656 C1657 1.351 . S
C1657 C1651 1.428 . S
C1657 N1656 1.351 . S
C1657 C1658 1.434 . S
C1658 C1649 1.429 . S
C1658 N1655 1.350 . S
C1658 C1657 1.434 . S
C1659 C1660 1.369 . S
C1659 C1661 1.419 . S
C1659 H1663 0.930 . S
C1660 C1659 1.369 . S
C1660 C1669 1.429 . S
C1661 C1659 1.419 . S
C1661 C1662 1.363 . S
C1661 H1664 0.929 . S
C1662 C1661 1.363 . S
C1662 C1668 1.428 . S
H1663 C1659 0.930 . S
H1664 C1661 0.929 . S
S1665 N1666 1.613 . S
S1665 N1667 1.610 . S
N1666 S1665 1.613 . S
N1666 C1669 1.350 . S
N1667 S1665 1.610 . S
N1667 C1668 1.351 . S
C1668 C1662 1.428 . S
C1668 N1667 1.351 . S
C1668 C1669 1.434 . S
C1669 C1660 1.429 . S
C1669 N1666 1.350 . S
C1669 C1668 1.434 . S
C1670 C1671 1.369 . S
C1670 C1672 1.419 . S
C1670 H1674 0.930 . S
C1671 C1670 1.369 . S
C1671 C1680 1.429 . S
C1672 C1670 1.419 . S
C1672 C1673 1.363 . S
C1672 H1675 0.929 . S
C1673 C1672 1.363 . S
C1673 C1679 1.428 . S
H1674 C1670 0.930 . S
H1675 C1672 0.929 . S
S1676 N1677 1.613 . S
S1676 N1678 1.610 . S
N1677 S1676 1.613 . S
N1677 C1680 1.350 . S
N1678 S1676 1.610 . S
N1678 C1679 1.351 . S
C1679 C1673 1.428 . S
C1679 N1678 1.351 . S
C1679 C1680 1.434 . S
C1680 C1671 1.429 . S
C1680 N1677 1.350 . S
C1680 C1679 1.434 . S
C1681 C1682 1.369 . S
C1681 C1683 1.419 . S
C1681 H1685 0.930 . S
C1682 C1681 1.369 . S
C1682 C1691 1.429 . S
C1683 C1681 1.419 . S
C1683 C1684 1.363 . S
C1683 H1686 0.929 . S
C1684 C1683 1.363 . S
C1684 C1690 1.428 . S
H1685 C1681 0.930 . S
H1686 C1683 0.929 . S
S1687 N1688 1.613 . S
S1687 N1689 1.610 . S
N1688 S1687 1.613 . S
N1688 C1691 1.350 . S
N1689 S1687 1.610 . S
N1689 C1690 1.351 . S
C1690 C1684 1.428 . S
C1690 N1689 1.351 . S
C1690 C1691 1.434 . S
C1691 C1682 1.429 . S
C1691 N1688 1.350 . S
C1691 C1690 1.434 . S
C1692 C1693 1.369 . S
C1692 C1694 1.419 . S
C1692 H1696 0.930 . S
C1693 C1692 1.369 . S
C1693 C1702 1.429 . S
C1694 C1692 1.419 . S
C1694 C1695 1.363 . S
C1694 H1697 0.929 . S
C1695 C1694 1.363 . S
C1695 C1701 1.428 . S
H1696 C1692 0.930 . S
H1697 C1694 0.929 . S
S1698 N1699 1.613 . S
S1698 N1700 1.610 . S
N1699 S1698 1.613 . S
N1699 C1702 1.350 . S
N1700 S1698 1.610 . S
N1700 C1701 1.351 . S
C1701 C1695 1.428 . S
C1701 N1700 1.351 . S
C1701 C1702 1.434 . S
C1702 C1693 1.429 . S
C1702 N1699 1.350 . S
C1702 C1701 1.434 . S
C1703 C1704 1.369 . S
C1703 C1705 1.419 . S
C1703 H1707 0.930 . S
C1704 C1703 1.369 . S
C1704 C1713 1.429 . S
C1705 C1703 1.419 . S
C1705 C1706 1.363 . S
C1705 H1708 0.929 . S
C1706 C1705 1.363 . S
C1706 C1712 1.428 . S
H1707 C1703 0.930 . S
H1708 C1705 0.929 . S
S1709 N1710 1.613 . S
S1709 N1711 1.610 . S
N1710 S1709 1.613 . S
N1710 C1713 1.350 . S
N1711 S1709 1.610 . S
N1711 C1712 1.351 . S
C1712 C1706 1.428 . S
C1712 N1711 1.351 . S
C1712 C1713 1.434 . S
C1713 C1704 1.429 . S
C1713 N1710 1.350 . S
C1713 C1712 1.434 . S
C1714 C1715 1.369 . S
C1714 C1716 1.419 . S
C1714 H1718 0.930 . S
C1715 C1714 1.369 . S
C1715 C1724 1.429 . S
C1716 C1714 1.419 . S
C1716 C1717 1.363 . S
C1716 H1719 0.929 . S
C1717 C1716 1.363 . S
C1717 C1723 1.428 . S
H1718 C1714 0.930 . S
H1719 C1716 0.929 . S
S1720 N1721 1.613 . S
S1720 N1722 1.610 . S
N1721 S1720 1.613 . S
N1721 C1724 1.350 . S
N1722 S1720 1.610 . S
N1722 C1723 1.351 . S
C1723 C1717 1.428 . S
C1723 N1722 1.351 . S
C1723 C1724 1.434 . S
C1724 C1715 1.429 . S
C1724 N1721 1.350 . S
C1724 C1723 1.434 . S
C1725 C1726 1.369 . S
C1725 C1727 1.419 . S
C1725 H1729 0.930 . S
C1726 C1725 1.369 . S
C1726 C1735 1.429 . S
C1727 C1725 1.419 . S
C1727 C1728 1.363 . S
C1727 H1730 0.929 . S
C1728 C1727 1.363 . S
C1728 C1734 1.428 . S
H1729 C1725 0.930 . S
H1730 C1727 0.929 . S
S1731 N1732 1.613 . S
S1731 N1733 1.610 . S
N1732 S1731 1.613 . S
N1732 C1735 1.350 . S
N1733 S1731 1.610 . S
N1733 C1734 1.351 . S
C1734 C1728 1.428 . S
C1734 N1733 1.351 . S
C1734 C1735 1.434 . S
C1735 C1726 1.429 . S
C1735 N1732 1.350 . S
C1735 C1734 1.434 . S
C1736 C1737 1.369 . S
C1736 C1738 1.419 . S
C1736 H1740 0.930 . S
C1737 C1736 1.369 . S
C1737 C1746 1.429 . S
C1738 C1736 1.419 . S
C1738 C1739 1.363 . S
C1738 H1741 0.929 . S
C1739 C1738 1.363 . S
C1739 C1745 1.428 . S
H1740 C1736 0.930 . S
H1741 C1738 0.929 . S
S1742 N1743 1.613 . S
S1742 N1744 1.610 . S
N1743 S1742 1.613 . S
N1743 C1746 1.350 . S
N1744 S1742 1.610 . S
N1744 C1745 1.351 . S
C1745 C1739 1.428 . S
C1745 N1744 1.351 . S
C1745 C1746 1.434 . S
C1746 C1737 1.429 . S
C1746 N1743 1.350 . S
C1746 C1745 1.434 . S
C1747 C1748 1.369 . S
C1747 C1749 1.419 . S
C1747 H1751 0.930 . S
C1748 C1747 1.369 . S
C1748 C1757 1.429 . S
C1749 C1747 1.419 . S
C1749 C1750 1.363 . S
C1749 H1752 0.929 . S
C1750 C1749 1.363 . S
C1750 C1756 1.428 . S
H1751 C1747 0.930 . S
H1752 C1749 0.929 . S
S1753 N1754 1.613 . S
S1753 N1755 1.610 . S
N1754 S1753 1.613 . S
N1754 C1757 1.350 . S
N1755 S1753 1.610 . S
N1755 C1756 1.351 . S
C1756 C1750 1.428 . S
C1756 N1755 1.351 . S
C1756 C1757 1.434 . S
C1757 C1748 1.429 . S
C1757 N1754 1.350 . S
C1757 C1756 1.434 . S
C1758 C1759 1.369 . S
C1758 C1760 1.419 . S
C1758 H1762 0.930 . S
C1759 C1758 1.369 . S
C1759 C1768 1.429 . S
C1760 C1758 1.419 . S
C1760 C1761 1.363 . S
C1760 H1763 0.929 . S
C1761 C1760 1.363 . S
C1761 C1767 1.428 . S
H1762 C1758 0.930 . S
H1763 C1760 0.929 . S
S1764 N1765 1.613 . S
S1764 N1766 1.610 . S
N1765 S1764 1.613 . S
N1765 C1768 1.350 . S
N1766 S1764 1.610 . S
N1766 C1767 1.351 . S
C1767 C1761 1.428 . S
C1767 N1766 1.351 . S
C1767 C1768 1.434 . S
C1768 C1759 1.429 . S
C1768 N1765 1.350 . S
C1768 C1767 1.434 . S
C1769 C1770 1.369 . S
C1769 C1771 1.419 . S
C1769 H1773 0.930 . S
C1770 C1769 1.369 . S
C1770 C1779 1.429 . S
C1771 C1769 1.419 . S
C1771 C1772 1.363 . S
C1771 H1774 0.929 . S
C1772 C1771 1.363 . S
C1772 C1778 1.428 . S
H1773 C1769 0.930 . S
H1774 C1771 0.929 . S
S1775 N1776 1.613 . S
S1775 N1777 1.610 . S
N1776 S1775 1.613 . S
N1776 C1779 1.350 . S
N1777 S1775 1.610 . S
N1777 C1778 1.351 . S
C1778 C1772 1.428 . S
C1778 N1777 1.351 . S
C1778 C1779 1.434 . S
C1779 C1770 1.429 . S
C1779 N1776 1.350 . S
C1779 C1778 1.434 . S
C1780 C1781 1.369 . S
C1780 C1782 1.419 . S
C1780 H1784 0.930 . S
C1781 C1780 1.369 . S
C1781 C1790 1.429 . S
C1782 C1780 1.419 . S
C1782 C1783 1.363 . S
C1782 H1785 0.929 . S
C1783 C1782 1.363 . S
C1783 C1789 1.428 . S
H1784 C1780 0.930 . S
H1785 C1782 0.929 . S
S1786 N1787 1.613 . S
S1786 N1788 1.610 . S
N1787 S1786 1.613 . S
N1787 C1790 1.350 . S
N1788 S1786 1.610 . S
N1788 C1789 1.351 . S
C1789 C1783 1.428 . S
C1789 N1788 1.351 . S
C1789 C1790 1.434 . S
C1790 C1781 1.429 . S
C1790 N1787 1.350 . S
C1790 C1789 1.434 . S
C1791 C1792 1.369 . S
C1791 C1793 1.419 . S
C1791 H1795 0.930 . S
C1792 C1791 1.369 . S
C1792 C1801 1.429 . S
C1793 C1791 1.419 . S
C1793 C1794 1.363 . S
C1793 H1796 0.929 . S
C1794 C1793 1.363 . S
C1794 C1800 1.428 . S
H1795 C1791 0.930 . S
H1796 C1793 0.929 . S
S1797 N1798 1.613 . S
S1797 N1799 1.610 . S
N1798 S1797 1.613 . S
N1798 C1801 1.350 . S
N1799 S1797 1.610 . S
N1799 C1800 1.351 . S
C1800 C1794 1.428 . S
C1800 N1799 1.351 . S
C1800 C1801 1.434 . S
C1801 C1792 1.429 . S
C1801 N1798 1.350 . S
C1801 C1800 1.434 . S
C1802 C1803 1.369 . S
C1802 C1804 1.419 . S
C1802 H1806 0.930 . S
C1803 C1802 1.369 . S
C1803 C1812 1.429 . S
C1804 C1802 1.419 . S
C1804 C1805 1.363 . S
C1804 H1807 0.929 . S
C1805 C1804 1.363 . S
C1805 C1811 1.428 . S
H1806 C1802 0.930 . S
H1807 C1804 0.929 . S
S1808 N1809 1.613 . S
S1808 N1810 1.610 . S
N1809 S1808 1.613 . S
N1809 C1812 1.350 . S
N1810 S1808 1.610 . S
N1810 C1811 1.351 . S
C1811 C1805 1.428 . S
C1811 N1810 1.351 . S
C1811 C1812 1.434 . S
C1812 C1803 1.429 . S
C1812 N1809 1.350 . S
C1812 C1811 1.434 . S
C1813 C1814 1.369 . S
C1813 C1815 1.419 . S
C1813 H1817 0.930 . S
C1814 C1813 1.369 . S
C1814 C1823 1.429 . S
C1815 C1813 1.419 . S
C1815 C1816 1.363 . S
C1815 H1818 0.929 . S
C1816 C1815 1.363 . S
C1816 C1822 1.428 . S
H1817 C1813 0.930 . S
H1818 C1815 0.929 . S
S1819 N1820 1.613 . S
S1819 N1821 1.610 . S
N1820 S1819 1.613 . S
N1820 C1823 1.350 . S
N1821 S1819 1.610 . S
N1821 C1822 1.351 . S
C1822 C1816 1.428 . S
C1822 N1821 1.351 . S
C1822 C1823 1.434 . S
C1823 C1814 1.429 . S
C1823 N1820 1.350 . S
C1823 C1822 1.434 . S
C1824 C1825 1.369 . S
C1824 C1826 1.419 . S
C1824 H1828 0.930 . S
C1825 C1824 1.369 . S
C1825 C1834 1.429 . S
C1826 C1824 1.419 . S
C1826 C1827 1.363 . S
C1826 H1829 0.929 . S
C1827 C1826 1.363 . S
C1827 C1833 1.428 . S
H1828 C1824 0.930 . S
H1829 C1826 0.929 . S
S1830 N1831 1.613 . S
S1830 N1832 1.610 . S
N1831 S1830 1.613 . S
N1831 C1834 1.350 . S
N1832 S1830 1.610 . S
N1832 C1833 1.351 . S
C1833 C1827 1.428 . S
C1833 N1832 1.351 . S
C1833 C1834 1.434 . S
C1834 C1825 1.429 . S
C1834 N1831 1.350 . S
C1834 C1833 1.434 . S
C1835 C1836 1.369 . S
C1835 C1837 1.419 . S
C1835 H1839 0.930 . S
C1836 C1835 1.369 . S
C1836 C1845 1.429 . S
C1837 C1835 1.419 . S
C1837 C1838 1.363 . S
C1837 H1840 0.929 1_554 S
C1838 C1837 1.363 . S
C1838 C1844 1.428 . S
H1839 C1835 0.930 . S
H1840 C1837 0.929 1_556 S
S1841 N1842 1.613 . S
S1841 N1843 1.610 . S
N1842 S1841 1.613 . S
N1842 C1845 1.350 . S
N1843 S1841 1.610 . S
N1843 C1844 1.351 . S
C1844 C1838 1.428 . S
C1844 N1843 1.351 . S
C1844 C1845 1.434 . S
C1845 C1836 1.429 . S
C1845 N1842 1.350 . S
C1845 C1844 1.434 . S
C1846 C1847 1.369 . S
C1846 C1848 1.419 . S
C1846 H1850 0.930 . S
C1847 C1846 1.369 . S
C1847 C1856 1.429 . S
C1848 C1846 1.419 . S
C1848 C1849 1.363 . S
C1848 H1851 0.929 . S
C1849 C1848 1.363 . S
C1849 C1855 1.428 . S
H1850 C1846 0.930 . S
H1851 C1848 0.929 . S
S1852 N1853 1.613 . S
S1852 N1854 1.610 . S
N1853 S1852 1.613 . S
N1853 C1856 1.350 . S
N1854 S1852 1.610 . S
N1854 C1855 1.351 . S
C1855 C1849 1.428 . S
C1855 N1854 1.351 . S
C1855 C1856 1.434 . S
C1856 C1847 1.429 . S
C1856 N1853 1.350 . S
C1856 C1855 1.434 . S
C1857 C1858 1.369 . S
C1857 C1859 1.419 . S
C1857 H1861 0.930 . S
C1858 C1857 1.369 . S
C1858 C1867 1.429 . S
C1859 C1857 1.419 . S
C1859 C1860 1.363 . S
C1859 H1862 0.929 . S
C1860 C1859 1.363 . S
C1860 C1866 1.428 . S
H1861 C1857 0.930 . S
H1862 C1859 0.929 . S
S1863 N1864 1.613 . S
S1863 N1865 1.610 . S
N1864 S1863 1.613 . S
N1864 C1867 1.350 . S
N1865 S1863 1.610 . S
N1865 C1866 1.351 . S
C1866 C1860 1.428 . S
C1866 N1865 1.351 . S
C1866 C1867 1.434 . S
C1867 C1858 1.429 . S
C1867 N1864 1.350 . S
C1867 C1866 1.434 . S
C1868 C1869 1.369 . S
C1868 C1870 1.419 . S
C1868 H1872 0.930 . S
C1869 C1868 1.369 . S
C1869 C1878 1.429 . S
C1870 C1868 1.419 . S
C1870 C1871 1.363 . S
C1870 H1873 0.929 . S
C1871 C1870 1.363 . S
C1871 C1877 1.428 . S
H1872 C1868 0.930 . S
H1873 C1870 0.929 . S
S1874 N1875 1.613 . S
S1874 N1876 1.610 . S
N1875 S1874 1.613 . S
N1875 C1878 1.350 . S
N1876 S1874 1.610 . S
N1876 C1877 1.351 . S
C1877 C1871 1.428 . S
C1877 N1876 1.351 . S
C1877 C1878 1.434 . S
C1878 C1869 1.429 . S
C1878 N1875 1.350 . S
C1878 C1877 1.434 . S
C1879 C1880 1.369 . S
C1879 C1881 1.419 . S
C1879 H1883 0.930 . S
C1880 C1879 1.369 . S
C1880 C1889 1.429 . S
C1881 C1879 1.419 . S
C1881 C1882 1.363 . S
C1881 H1884 0.929 . S
C1882 C1881 1.363 . S
C1882 C1888 1.428 . S
H1883 C1879 0.930 . S
H1884 C1881 0.929 . S
S1885 N1886 1.613 . S
S1885 N1887 1.610 . S
N1886 S1885 1.613 . S
N1886 C1889 1.350 . S
N1887 S1885 1.610 . S
N1887 C1888 1.351 . S
C1888 C1882 1.428 . S
C1888 N1887 1.351 . S
C1888 C1889 1.434 . S
C1889 C1880 1.429 . S
C1889 N1886 1.350 . S
C1889 C1888 1.434 . S
C1890 C1891 1.369 . S
C1890 C1892 1.419 . S
C1890 H1894 0.930 . S
C1891 C1890 1.369 . S
C1891 C1900 1.429 . S
C1892 C1890 1.419 . S
C1892 C1893 1.363 . S
C1892 H1895 0.929 . S
C1893 C1892 1.363 . S
C1893 C1899 1.428 . S
H1894 C1890 0.930 . S
H1895 C1892 0.929 . S
S1896 N1897 1.613 . S
S1896 N1898 1.610 . S
N1897 S1896 1.613 . S
N1897 C1900 1.350 . S
N1898 S1896 1.610 . S
N1898 C1899 1.351 . S
C1899 C1893 1.428 . S
C1899 N1898 1.351 . S
C1899 C1900 1.434 . S
C1900 C1891 1.429 . S
C1900 N1897 1.350 . S
C1900 C1899 1.434 . S
C1901 C1902 1.369 . S
C1901 C1903 1.419 . S
C1901 H1905 0.930 . S
C1902 C1901 1.369 . S
C1902 C1911 1.429 . S
C1903 C1901 1.419 . S
C1903 C1904 1.363 . S
C1903 H1906 0.929 . S
C1904 C1903 1.363 . S
C1904 C1910 1.428 . S
H1905 C1901 0.930 . S
H1906 C1903 0.929 . S
S1907 N1908 1.613 . S
S1907 N1909 1.610 . S
N1908 S1907 1.613 . S
N1908 C1911 1.350 . S
N1909 S1907 1.610 . S
N1909 C1910 1.351 . S
C1910 C1904 1.428 . S
C1910 N1909 1.351 . S
C1910 C1911 1.434 . S
C1911 C1902 1.429 . S
C1911 N1908 1.350 . S
C1911 C1910 1.434 . S
C1912 C1913 1.369 . S
C1912 C1914 1.419 . S
C1912 H1916 0.930 . S
C1913 C1912 1.369 . S
C1913 C1922 1.429 . S
C1914 C1912 1.419 . S
C1914 C1915 1.363 . S
C1914 H1917 0.929 . S
C1915 C1914 1.363 . S
C1915 C1921 1.428 . S
H1916 C1912 0.930 . S
H1917 C1914 0.929 . S
S1918 N1919 1.613 . S
S1918 N1920 1.610 . S
N1919 S1918 1.613 . S
N1919 C1922 1.350 . S
N1920 S1918 1.610 . S
N1920 C1921 1.351 . S
C1921 C1915 1.428 . S
C1921 N1920 1.351 . S
C1921 C1922 1.434 . S
C1922 C1913 1.429 . S
C1922 N1919 1.350 . S
C1922 C1921 1.434 . S
C1923 C1924 1.369 . S
C1923 C1925 1.419 . S
C1923 H1927 0.930 1_565 S
C1924 C1923 1.369 . S
C1924 C1933 1.429 . S
C1925 C1923 1.419 . S
C1925 C1926 1.363 . S
C1925 H1928 0.929 . S
C1926 C1925 1.363 . S
C1926 C1932 1.428 . S
H1927 C1923 0.930 1_545 S
H1928 C1925 0.929 . S
S1929 N1930 1.613 . S
S1929 N1931 1.610 . S
N1930 S1929 1.613 . S
N1930 C1933 1.350 . S
N1931 S1929 1.610 . S
N1931 C1932 1.351 . S
C1932 C1926 1.428 . S
C1932 N1931 1.351 . S
C1932 C1933 1.434 . S
C1933 C1924 1.429 . S
C1933 N1930 1.350 . S
C1933 C1932 1.434 . S
C1934 C1935 1.369 . S
C1934 C1936 1.419 . S
C1934 H1938 0.930 . S
C1935 C1934 1.369 . S
C1935 C1944 1.429 . S
C1936 C1934 1.419 . S
C1936 C1937 1.363 . S
C1936 H1939 0.929 1_545 S
C1937 C1936 1.363 . S
C1937 C1943 1.428 . S
H1938 C1934 0.930 . S
H1939 C1936 0.929 1_565 S
S1940 N1941 1.613 . S
S1940 N1942 1.610 . S
N1941 S1940 1.613 . S
N1941 C1944 1.350 . S
N1942 S1940 1.610 . S
N1942 C1943 1.351 . S
C1943 C1937 1.428 . S
C1943 N1942 1.351 . S
C1943 C1944 1.434 . S
C1944 C1935 1.429 . S
C1944 N1941 1.350 . S
C1944 C1943 1.434 . S
C1945 C1946 1.369 . S
C1945 C1947 1.419 . S
C1945 H1949 0.930 . S
C1946 C1945 1.369 . S
C1946 C1955 1.429 . S
C1947 C1945 1.419 . S
C1947 C1948 1.363 . S
C1947 H1950 0.929 . S
C1948 C1947 1.363 . S
C1948 C1954 1.428 . S
H1949 C1945 0.930 . S
H1950 C1947 0.929 . S
S1951 N1952 1.613 . S
S1951 N1953 1.610 . S
N1952 S1951 1.613 . S
N1952 C1955 1.350 . S
N1953 S1951 1.610 . S
N1953 C1954 1.351 . S
C1954 C1948 1.428 . S
C1954 N1953 1.351 . S
C1954 C1955 1.434 . S
C1955 C1946 1.429 . S
C1955 N1952 1.350 . S
C1955 C1954 1.434 . S
C1956 C1957 1.369 . S
C1956 C1958 1.419 . S
C1956 H1960 0.930 . S
C1957 C1956 1.369 . S
C1957 C1966 1.429 . S
C1958 C1956 1.419 . S
C1958 C1959 1.363 . S
C1958 H1961 0.929 . S
C1959 C1958 1.363 . S
C1959 C1965 1.428 . S
H1960 C1956 0.930 . S
H1961 C1958 0.929 . S
S1962 N1963 1.613 . S
S1962 N1964 1.610 . S
N1963 S1962 1.613 . S
N1963 C1966 1.350 . S
N1964 S1962 1.610 . S
N1964 C1965 1.351 . S
C1965 C1959 1.428 . S
C1965 N1964 1.351 . S
C1965 C1966 1.434 . S
C1966 C1957 1.429 . S
C1966 N1963 1.350 . S
C1966 C1965 1.434 . S
C1967 C1968 1.369 . S
C1967 C1969 1.419 . S
C1967 H1971 0.930 . S
C1968 C1967 1.369 . S
C1968 C1977 1.429 . S
C1969 C1967 1.419 . S
C1969 C1970 1.363 . S
C1969 H1972 0.929 . S
C1970 C1969 1.363 . S
C1970 C1976 1.428 . S
H1971 C1967 0.930 . S
H1972 C1969 0.929 . S
S1973 N1974 1.613 . S
S1973 N1975 1.610 . S
N1974 S1973 1.613 . S
N1974 C1977 1.350 . S
N1975 S1973 1.610 . S
N1975 C1976 1.351 . S
C1976 C1970 1.428 . S
C1976 N1975 1.351 . S
C1976 C1977 1.434 . S
C1977 C1968 1.429 . S
C1977 N1974 1.350 . S
C1977 C1976 1.434 . S
C1978 C1979 1.369 . S
C1978 C1980 1.419 . S
C1978 H1982 0.930 . S
C1979 C1978 1.369 . S
C1979 C1988 1.429 . S
C1980 C1978 1.419 . S
C1980 C1981 1.363 . S
C1980 H1983 0.929 . S
C1981 C1980 1.363 . S
C1981 C1987 1.428 . S
H1982 C1978 0.930 . S
H1983 C1980 0.929 . S
S1984 N1985 1.613 . S
S1984 N1986 1.610 . S
N1985 S1984 1.613 . S
N1985 C1988 1.350 . S
N1986 S1984 1.610 . S
N1986 C1987 1.351 . S
C1987 C1981 1.428 . S
C1987 N1986 1.351 . S
C1987 C1988 1.434 . S
C1988 C1979 1.429 . S
C1988 N1985 1.350 . S
C1988 C1987 1.434 . S
C1989 C1990 1.369 . S
C1989 C1991 1.419 . S
C1989 H1993 0.930 . S
C1990 C1989 1.369 . S
C1990 C1999 1.429 . S
C1991 C1989 1.419 . S
C1991 C1992 1.363 . S
C1991 H1994 0.929 . S
C1992 C1991 1.363 . S
C1992 C1998 1.428 . S
H1993 C1989 0.930 . S
H1994 C1991 0.929 . S
S1995 N1996 1.613 . S
S1995 N1997 1.610 1_554 S
N1996 S1995 1.613 . S
N1996 C1999 1.350 . S
N1997 S1995 1.610 1_556 S
N1997 C1998 1.351 1_556 S
C1998 C1992 1.428 . S
C1998 N1997 1.351 1_554 S
C1998 C1999 1.434 . S
C1999 C1990 1.429 . S
C1999 N1996 1.350 . S
C1999 C1998 1.434 . S
C2000 C2001 1.369 . S
C2000 C2002 1.419 . S
C2000 H2004 0.930 . S
C2001 C2000 1.369 . S
C2001 C2010 1.429 . S
C2002 C2000 1.419 . S
C2002 C2003 1.363 . S
C2002 H2005 0.929 . S
C2003 C2002 1.363 . S
C2003 C2009 1.428 . S
H2004 C2000 0.930 . S
H2005 C2002 0.929 . S
S2006 N2007 1.613 . S
S2006 N2008 1.610 . S
N2007 S2006 1.613 . S
N2007 C2010 1.350 . S
N2008 S2006 1.610 . S
N2008 C2009 1.351 . S
C2009 C2003 1.428 . S
C2009 N2008 1.351 . S
C2009 C2010 1.434 . S
C2010 C2001 1.429 . S
C2010 N2007 1.350 . S
C2010 C2009 1.434 . S
C2011 C2012 1.369 . S
C2011 C2013 1.419 . S
C2011 H2015 0.930 . S
C2012 C2011 1.369 . S
C2012 C2021 1.429 . S
C2013 C2011 1.419 . S
C2013 C2014 1.363 . S
C2013 H2016 0.929 . S
C2014 C2013 1.363 . S
C2014 C2020 1.428 . S
H2015 C2011 0.930 . S
H2016 C2013 0.929 . S
S2017 N2018 1.613 . S
S2017 N2019 1.610 1_655 S
N2018 S2017 1.613 . S
N2018 C2021 1.350 1_655 S
N2019 S2017 1.610 1_455 S
N2019 C2020 1.351 . S
C2020 C2014 1.428 . S
C2020 N2019 1.351 . S
C2020 C2021 1.434 . S
C2021 C2012 1.429 . S
C2021 N2018 1.350 1_455 S
C2021 C2020 1.434 . S
C2022 C2023 1.369 . S
C2022 C2024 1.419 . S
C2022 H2026 0.930 . S
C2023 C2022 1.369 . S
C2023 C2032 1.429 . S
C2024 C2022 1.419 . S
C2024 C2025 1.363 . S
C2024 H2027 0.929 . S
C2025 C2024 1.363 . S
C2025 C2031 1.428 . S
H2026 C2022 0.930 . S
H2027 C2024 0.929 . S
S2028 N2029 1.613 . S
S2028 N2030 1.610 1_455 S
N2029 S2028 1.613 . S
N2029 C2032 1.350 1_455 S
N2030 S2028 1.610 1_655 S
N2030 C2031 1.351 . S
C2031 C2025 1.428 . S
C2031 N2030 1.351 . S
C2031 C2032 1.434 . S
C2032 C2023 1.429 . S
C2032 N2029 1.350 1_655 S
C2032 C2031 1.434 . S
C2033 C2034 1.369 . S
C2033 C2035 1.419 . S
C2033 H2037 0.930 . S
C2034 C2033 1.369 . S
C2034 C2043 1.429 . S
C2035 C2033 1.419 . S
C2035 C2036 1.363 . S
C2035 H2038 0.929 . S
C2036 C2035 1.363 . S
C2036 C2042 1.428 . S
H2037 C2033 0.930 . S
H2038 C2035 0.929 . S
S2039 N2040 1.613 . S
S2039 N2041 1.610 . S
N2040 S2039 1.613 . S
N2040 C2043 1.350 . S
N2041 S2039 1.610 . S
N2041 C2042 1.351 . S
C2042 C2036 1.428 . S
C2042 N2041 1.351 . S
C2042 C2043 1.434 . S
C2043 C2034 1.429 . S
C2043 N2040 1.350 . S
C2043 C2042 1.434 . S
C2044 C2045 1.369 . S
C2044 C2046 1.419 . S
C2044 H2048 0.930 . S
C2045 C2044 1.369 . S
C2045 C2054 1.429 . S
C2046 C2044 1.419 . S
C2046 C2047 1.363 . S
C2046 H2049 0.929 . S
C2047 C2046 1.363 . S
C2047 C2053 1.428 . S
H2048 C2044 0.930 . S
H2049 C2046 0.929 . S
S2050 N2051 1.613 . S
S2050 N2052 1.610 . S
N2051 S2050 1.613 . S
N2051 C2054 1.350 . S
N2052 S2050 1.610 . S
N2052 C2053 1.351 . S
C2053 C2047 1.428 . S
C2053 N2052 1.351 . S
C2053 C2054 1.434 . S
C2054 C2045 1.429 . S
C2054 N2051 1.350 . S
C2054 C2053 1.434 . S
C2055 C2056 1.369 . S
C2055 C2057 1.419 . S
C2055 H2059 0.930 . S
C2056 C2055 1.369 . S
C2056 C2065 1.429 . S
C2057 C2055 1.419 . S
C2057 C2058 1.363 . S
C2057 H2060 0.929 1_545 S
C2058 C2057 1.363 . S
C2058 C2064 1.428 . S
H2059 C2055 0.930 . S
H2060 C2057 0.929 1_565 S
S2061 N2062 1.613 . S
S2061 N2063 1.610 . S
N2062 S2061 1.613 . S
N2062 C2065 1.350 . S
N2063 S2061 1.610 . S
N2063 C2064 1.351 . S
C2064 C2058 1.428 . S
C2064 N2063 1.351 . S
C2064 C2065 1.434 . S
C2065 C2056 1.429 . S
C2065 N2062 1.350 . S
C2065 C2064 1.434 . S
C2066 C2067 1.369 . S
C2066 C2068 1.419 . S
C2066 H2070 0.930 . S
C2067 C2066 1.369 . S
C2067 C2076 1.429 . S
C2068 C2066 1.419 . S
C2068 C2069 1.363 . S
C2068 H2071 0.929 . S
C2069 C2068 1.363 . S
C2069 C2075 1.428 . S
H2070 C2066 0.930 . S
H2071 C2068 0.929 . S
S2072 N2073 1.613 . S
S2072 N2074 1.610 . S
N2073 S2072 1.613 . S
N2073 C2076 1.350 . S
N2074 S2072 1.610 . S
N2074 C2075 1.351 . S
C2075 C2069 1.428 . S
C2075 N2074 1.351 . S
C2075 C2076 1.434 . S
C2076 C2067 1.429 . S
C2076 N2073 1.350 . S
C2076 C2075 1.434 . S
C2077 C2078 1.369 . S
C2077 C2079 1.419 . S
C2077 H2081 0.930 . S
C2078 C2077 1.369 . S
C2078 C2087 1.429 . S
C2079 C2077 1.419 . S
C2079 C2080 1.363 . S
C2079 H2082 0.929 . S
C2080 C2079 1.363 . S
C2080 C2086 1.428 . S
H2081 C2077 0.930 . S
H2082 C2079 0.929 . S
S2083 N2084 1.613 . S
S2083 N2085 1.610 . S
N2084 S2083 1.613 . S
N2084 C2087 1.350 . S
N2085 S2083 1.610 . S
N2085 C2086 1.351 . S
C2086 C2080 1.428 . S
C2086 N2085 1.351 . S
C2086 C2087 1.434 . S
C2087 C2078 1.429 . S
C2087 N2084 1.350 . S
C2087 C2086 1.434 . S
C2088 C2089 1.369 . S
C2088 C2090 1.419 . S
C2088 H2092 0.930 . S
C2089 C2088 1.369 . S
C2089 C2098 1.429 . S
C2090 C2088 1.419 . S
C2090 C2091 1.363 . S
C2090 H2093 0.929 . S
C2091 C2090 1.363 . S
C2091 C2097 1.428 . S
H2092 C2088 0.930 . S
H2093 C2090 0.929 . S
S2094 N2095 1.613 . S
S2094 N2096 1.610 . S
N2095 S2094 1.613 . S
N2095 C2098 1.350 . S
N2096 S2094 1.610 . S
N2096 C2097 1.351 . S
C2097 C2091 1.428 . S
C2097 N2096 1.351 . S
C2097 C2098 1.434 . S
C2098 C2089 1.429 . S
C2098 N2095 1.350 . S
C2098 C2097 1.434 . S
C2099 C2100 1.369 . S
C2099 C2101 1.419 . S
C2099 H2103 0.930 . S
C2100 C2099 1.369 . S
C2100 C2109 1.429 . S
C2101 C2099 1.419 . S
C2101 C2102 1.363 . S
C2101 H2104 0.929 . S
C2102 C2101 1.363 . S
C2102 C2108 1.428 . S
H2103 C2099 0.930 . S
H2104 C2101 0.929 . S
S2105 N2106 1.613 . S
S2105 N2107 1.610 . S
N2106 S2105 1.613 . S
N2106 C2109 1.350 . S
N2107 S2105 1.610 . S
N2107 C2108 1.351 . S
C2108 C2102 1.428 . S
C2108 N2107 1.351 . S
C2108 C2109 1.434 . S
C2109 C2100 1.429 . S
C2109 N2106 1.350 . S
C2109 C2108 1.434 . S
C2110 C2111 1.369 . S
C2110 C2112 1.419 . S
C2110 H2114 0.930 . S
C2111 C2110 1.369 . S
C2111 C2120 1.429 . S
C2112 C2110 1.419 . S
C2112 C2113 1.363 . S
C2112 H2115 0.929 . S
C2113 C2112 1.363 . S
C2113 C2119 1.428 . S
H2114 C2110 0.930 . S
H2115 C2112 0.929 . S
S2116 N2117 1.613 . S
S2116 N2118 1.610 . S
N2117 S2116 1.613 . S
N2117 C2120 1.350 . S
N2118 S2116 1.610 . S
N2118 C2119 1.351 . S
C2119 C2113 1.428 . S
C2119 N2118 1.351 . S
C2119 C2120 1.434 . S
C2120 C2111 1.429 . S
C2120 N2117 1.350 . S
C2120 C2119 1.434 . S
C2121 C2122 1.369 . S
C2121 C2123 1.419 . S
C2121 H2125 0.930 . S
C2122 C2121 1.369 . S
C2122 C2131 1.429 . S
C2123 C2121 1.419 . S
C2123 C2124 1.363 . S
C2123 H2126 0.929 . S
C2124 C2123 1.363 . S
C2124 C2130 1.428 . S
H2125 C2121 0.930 . S
H2126 C2123 0.929 . S
S2127 N2128 1.613 . S
S2127 N2129 1.610 . S
N2128 S2127 1.613 . S
N2128 C2131 1.350 . S
N2129 S2127 1.610 . S
N2129 C2130 1.351 . S
C2130 C2124 1.428 . S
C2130 N2129 1.351 . S
C2130 C2131 1.434 . S
C2131 C2122 1.429 . S
C2131 N2128 1.350 . S
C2131 C2130 1.434 . S
C2132 C2133 1.369 . S
C2132 C2134 1.419 . S
C2132 H2136 0.930 . S
C2133 C2132 1.369 . S
C2133 C2142 1.429 . S
C2134 C2132 1.419 . S
C2134 C2135 1.363 . S
C2134 H2137 0.929 . S
C2135 C2134 1.363 . S
C2135 C2141 1.428 . S
H2136 C2132 0.930 . S
H2137 C2134 0.929 . S
S2138 N2139 1.613 . S
S2138 N2140 1.610 . S
N2139 S2138 1.613 . S
N2139 C2142 1.350 . S
N2140 S2138 1.610 . S
N2140 C2141 1.351 . S
C2141 C2135 1.428 . S
C2141 N2140 1.351 . S
C2141 C2142 1.434 . S
C2142 C2133 1.429 . S
C2142 N2139 1.350 . S
C2142 C2141 1.434 . S
C2143 C2144 1.369 . S
C2143 C2145 1.419 . S
C2143 H2147 0.930 . S
C2144 C2143 1.369 . S
C2144 C2153 1.429 . S
C2145 C2143 1.419 . S
C2145 C2146 1.363 . S
C2145 H2148 0.929 . S
C2146 C2145 1.363 . S
C2146 C2152 1.428 . S
H2147 C2143 0.930 . S
H2148 C2145 0.929 . S
S2149 N2150 1.613 . S
S2149 N2151 1.610 . S
N2150 S2149 1.613 . S
N2150 C2153 1.350 . S
N2151 S2149 1.610 . S
N2151 C2152 1.351 . S
C2152 C2146 1.428 . S
C2152 N2151 1.351 . S
C2152 C2153 1.434 . S
C2153 C2144 1.429 . S
C2153 N2150 1.350 . S
C2153 C2152 1.434 . S
C2154 C2155 1.369 . S
C2154 C2156 1.419 . S
C2154 H2158 0.930 . S
C2155 C2154 1.369 . S
C2155 C2164 1.429 . S
C2156 C2154 1.419 . S
C2156 C2157 1.363 . S
C2156 H2159 0.929 . S
C2157 C2156 1.363 . S
C2157 C2163 1.428 . S
H2158 C2154 0.930 . S
H2159 C2156 0.929 . S
S2160 N2161 1.613 . S
S2160 N2162 1.610 . S
N2161 S2160 1.613 . S
N2161 C2164 1.350 . S
N2162 S2160 1.610 . S
N2162 C2163 1.351 . S
C2163 C2157 1.428 . S
C2163 N2162 1.351 . S
C2163 C2164 1.434 . S
C2164 C2155 1.429 . S
C2164 N2161 1.350 . S
C2164 C2163 1.434 . S
C2165 C2166 1.369 . S
C2165 C2167 1.419 . S
C2165 H2169 0.930 . S
C2166 C2165 1.369 . S
C2166 C2175 1.429 . S
C2167 C2165 1.419 . S
C2167 C2168 1.363 . S
C2167 H2170 0.929 . S
C2168 C2167 1.363 . S
C2168 C2174 1.428 . S
H2169 C2165 0.930 . S
H2170 C2167 0.929 . S
S2171 N2172 1.613 . S
S2171 N2173 1.610 . S
N2172 S2171 1.613 . S
N2172 C2175 1.350 . S
N2173 S2171 1.610 . S
N2173 C2174 1.351 . S
C2174 C2168 1.428 . S
C2174 N2173 1.351 . S
C2174 C2175 1.434 . S
C2175 C2166 1.429 . S
C2175 N2172 1.350 . S
C2175 C2174 1.434 . S
C2176 C2177 1.369 . S
C2176 C2178 1.419 . S
C2176 H2180 0.930 . S
C2177 C2176 1.369 . S
C2177 C2186 1.429 . S
C2178 C2176 1.419 . S
C2178 C2179 1.363 . S
C2178 H2181 0.929 . S
C2179 C2178 1.363 . S
C2179 C2185 1.428 . S
H2180 C2176 0.930 . S
H2181 C2178 0.929 . S
S2182 N2183 1.613 . S
S2182 N2184 1.610 . S
N2183 S2182 1.613 . S
N2183 C2186 1.350 . S
N2184 S2182 1.610 . S
N2184 C2185 1.351 . S
C2185 C2179 1.428 . S
C2185 N2184 1.351 . S
C2185 C2186 1.434 . S
C2186 C2177 1.429 . S
C2186 N2183 1.350 . S
C2186 C2185 1.434 . S
C2187 C2188 1.369 . S
C2187 C2189 1.419 . S
C2187 H2191 0.930 . S
C2188 C2187 1.369 . S
C2188 C2197 1.429 . S
C2189 C2187 1.419 . S
C2189 C2190 1.363 . S
C2189 H2192 0.929 . S
C2190 C2189 1.363 . S
C2190 C2196 1.428 . S
H2191 C2187 0.930 . S
H2192 C2189 0.929 . S
S2193 N2194 1.613 . S
S2193 N2195 1.610 . S
N2194 S2193 1.613 . S
N2194 C2197 1.350 . S
N2195 S2193 1.610 . S
N2195 C2196 1.351 . S
C2196 C2190 1.428 . S
C2196 N2195 1.351 . S
C2196 C2197 1.434 . S
C2197 C2188 1.429 . S
C2197 N2194 1.350 . S
C2197 C2196 1.434 . S
C2198 C2199 1.369 . S
C2198 C2200 1.419 . S
C2198 H2202 0.930 . S
C2199 C2198 1.369 . S
C2199 C2208 1.429 . S
C2200 C2198 1.419 . S
C2200 C2201 1.363 . S
C2200 H2203 0.929 . S
C2201 C2200 1.363 . S
C2201 C2207 1.428 . S
H2202 C2198 0.930 . S
H2203 C2200 0.929 . S
S2204 N2205 1.613 . S
S2204 N2206 1.610 . S
N2205 S2204 1.613 . S
N2205 C2208 1.350 . S
N2206 S2204 1.610 . S
N2206 C2207 1.351 . S
C2207 C2201 1.428 . S
C2207 N2206 1.351 . S
C2207 C2208 1.434 . S
C2208 C2199 1.429 . S
C2208 N2205 1.350 . S
C2208 C2207 1.434 . S
C2209 C2210 1.369 . S
C2209 C2211 1.419 . S
C2209 H2213 0.930 . S
C2210 C2209 1.369 . S
C2210 C2219 1.429 . S
C2211 C2209 1.419 . S
C2211 C2212 1.363 . S
C2211 H2214 0.929 . S
C2212 C2211 1.363 . S
C2212 C2218 1.428 . S
H2213 C2209 0.930 . S
H2214 C2211 0.929 . S
S2215 N2216 1.613 . S
S2215 N2217 1.610 . S
N2216 S2215 1.613 . S
N2216 C2219 1.350 . S
N2217 S2215 1.610 . S
N2217 C2218 1.351 . S
C2218 C2212 1.428 . S
C2218 N2217 1.351 . S
C2218 C2219 1.434 . S
C2219 C2210 1.429 . S
C2219 N2216 1.350 . S
C2219 C2218 1.434 . S
C2220 C2221 1.369 . S
C2220 C2222 1.419 . S
C2220 H2224 0.930 . S
C2221 C2220 1.369 . S
C2221 C2230 1.429 . S
C2222 C2220 1.419 . S
C2222 C2223 1.363 . S
C2222 H2225 0.929 . S
C2223 C2222 1.363 . S
C2223 C2229 1.428 . S
H2224 C2220 0.930 . S
H2225 C2222 0.929 . S
S2226 N2227 1.613 . S
S2226 N2228 1.610 . S
N2227 S2226 1.613 . S
N2227 C2230 1.350 . S
N2228 S2226 1.610 . S
N2228 C2229 1.351 . S
C2229 C2223 1.428 . S
C2229 N2228 1.351 . S
C2229 C2230 1.434 . S
C2230 C2221 1.429 . S
C2230 N2227 1.350 . S
C2230 C2229 1.434 . S
C2231 C2232 1.369 . S
C2231 C2233 1.419 . S
C2231 H2235 0.930 . S
C2232 C2231 1.369 . S
C2232 C2241 1.429 . S
C2233 C2231 1.419 . S
C2233 C2234 1.363 . S
C2233 H2236 0.929 . S
C2234 C2233 1.363 . S
C2234 C2240 1.428 . S
H2235 C2231 0.930 . S
H2236 C2233 0.929 . S
S2237 N2238 1.613 . S
S2237 N2239 1.610 . S
N2238 S2237 1.613 . S
N2238 C2241 1.350 . S
N2239 S2237 1.610 . S
N2239 C2240 1.351 . S
C2240 C2234 1.428 . S
C2240 N2239 1.351 . S
C2240 C2241 1.434 . S
C2241 C2232 1.429 . S
C2241 N2238 1.350 . S
C2241 C2240 1.434 . S
C2242 C2243 1.369 . S
C2242 C2244 1.419 . S
C2242 H2246 0.930 . S
C2243 C2242 1.369 . S
C2243 C2252 1.429 . S
C2244 C2242 1.419 . S
C2244 C2245 1.363 . S
C2244 H2247 0.929 . S
C2245 C2244 1.363 . S
C2245 C2251 1.428 . S
H2246 C2242 0.930 . S
H2247 C2244 0.929 . S
S2248 N2249 1.613 . S
S2248 N2250 1.610 . S
N2249 S2248 1.613 . S
N2249 C2252 1.350 . S
N2250 S2248 1.610 . S
N2250 C2251 1.351 . S
C2251 C2245 1.428 . S
C2251 N2250 1.351 . S
C2251 C2252 1.434 . S
C2252 C2243 1.429 . S
C2252 N2249 1.350 . S
C2252 C2251 1.434 . S
C2253 C2254 1.369 . S
C2253 C2255 1.419 . S
C2253 H2257 0.930 . S
C2254 C2253 1.369 . S
C2254 C2263 1.429 . S
C2255 C2253 1.419 . S
C2255 C2256 1.363 . S
C2255 H2258 0.929 . S
C2256 C2255 1.363 . S
C2256 C2262 1.428 . S
H2257 C2253 0.930 . S
H2258 C2255 0.929 . S
S2259 N2260 1.599 1_556 S
S2259 N2261 1.610 1_556 S
N2260 S2259 1.599 1_554 S
N2260 C2263 1.350 . S
N2261 S2259 1.610 1_554 S
N2261 C2262 1.351 . S
C2262 C2256 1.428 . S
C2262 N2261 1.351 . S
C2262 C2263 1.434 . S
C2263 C2254 1.429 . S
C2263 N2260 1.350 . S
C2263 C2262 1.434 . S
C2264 C2265 1.369 . S
C2264 C2266 1.419 . S
C2264 H2268 0.930 . S
C2265 C2264 1.369 . S
C2265 C2274 1.429 . S
C2266 C2264 1.419 . S
C2266 C2267 1.363 . S
C2266 H2269 0.929 . S
C2267 C2266 1.363 . S
C2267 C2273 1.428 . S
H2268 C2264 0.930 . S
H2269 C2266 0.929 . S
S2270 N2271 1.613 . S
S2270 N2272 1.610 . S
N2271 S2270 1.613 . S
N2271 C2274 1.350 . S
N2272 S2270 1.610 . S
N2272 C2273 1.351 . S
C2273 C2267 1.428 . S
C2273 N2272 1.351 . S
C2273 C2274 1.434 . S
C2274 C2265 1.429 . S
C2274 N2271 1.350 . S
C2274 C2273 1.434 . S
C2275 C2276 1.369 . S
C2275 C2277 1.419 . S
C2275 H2279 0.930 . S
C2276 C2275 1.369 . S
C2276 C2285 1.429 . S
C2277 C2275 1.419 . S
C2277 C2278 1.363 . S
C2277 H2280 0.929 . S
C2278 C2277 1.363 . S
C2278 C2284 1.428 . S
H2279 C2275 0.930 . S
H2280 C2277 0.929 . S
S2281 N2282 1.613 . S
S2281 N2283 1.610 . S
N2282 S2281 1.613 . S
N2282 C2285 1.350 . S
N2283 S2281 1.610 . S
N2283 C2284 1.351 . S
C2284 C2278 1.428 . S
C2284 N2283 1.351 . S
C2284 C2285 1.434 . S
C2285 C2276 1.429 . S
C2285 N2282 1.350 . S
C2285 C2284 1.434 . S
C2286 C2287 1.369 . S
C2286 C2288 1.419 . S
C2286 H2290 0.930 . S
C2287 C2286 1.369 . S
C2287 C2296 1.429 . S
C2288 C2286 1.419 . S
C2288 C2289 1.363 . S
C2288 H2291 0.929 . S
C2289 C2288 1.363 . S
C2289 C2295 1.428 . S
H2290 C2286 0.930 . S
H2291 C2288 0.929 . S
S2292 N2293 1.615 . S
S2292 N2294 1.610 1_455 S
N2293 S2292 1.615 . S
N2293 C2296 1.332 1_455 S
N2294 S2292 1.610 1_655 S
N2294 C2295 1.351 . S
C2295 C2289 1.428 . S
C2295 N2294 1.351 . S
C2295 C2296 1.434 . S
C2296 C2287 1.429 . S
C2296 N2293 1.332 1_655 S
C2296 C2295 1.434 . S
C2297 C2298 1.369 . S
C2297 C2299 1.419 . S
C2297 H2301 0.930 . S
C2298 C2297 1.369 . S
C2298 C2307 1.429 . S
C2299 C2297 1.419 . S
C2299 C2300 1.363 . S
C2299 H2302 0.929 . S
C2300 C2299 1.363 . S
C2300 C2306 1.428 . S
H2301 C2297 0.930 . S
H2302 C2299 0.929 . S
S2303 N2304 1.613 . S
S2303 N2305 1.610 . S
N2304 S2303 1.613 . S
N2304 C2307 1.350 . S
N2305 S2303 1.610 . S
N2305 C2306 1.351 . S
C2306 C2300 1.428 . S
C2306 N2305 1.351 . S
C2306 C2307 1.434 . S
C2307 C2298 1.429 . S
C2307 N2304 1.350 . S
C2307 C2306 1.434 . S
C2308 C2309 1.369 . S
C2308 C2310 1.419 . S
C2308 H2312 0.930 . S
C2309 C2308 1.369 . S
C2309 C2318 1.429 . S
C2310 C2308 1.419 . S
C2310 C2311 1.363 . S
C2310 H2313 0.929 . S
C2311 C2310 1.363 . S
C2311 C2317 1.428 . S
H2312 C2308 0.930 . S
H2313 C2310 0.929 . S
S2314 N2315 1.613 . S
S2314 N2316 1.610 . S
N2315 S2314 1.613 . S
N2315 C2318 1.350 . S
N2316 S2314 1.610 . S
N2316 C2317 1.351 . S
C2317 C2311 1.428 . S
C2317 N2316 1.351 . S
C2317 C2318 1.434 . S
C2318 C2309 1.429 . S
C2318 N2315 1.350 . S
C2318 C2317 1.434 . S
C2319 C2320 1.369 . S
C2319 C2321 1.419 . S
C2319 H2323 0.930 . S
C2320 C2319 1.369 . S
C2320 C2329 1.429 . S
C2321 C2319 1.419 . S
C2321 C2322 1.363 . S
C2321 H2324 0.929 . S
C2322 C2321 1.363 . S
C2322 C2328 1.428 . S
H2323 C2319 0.930 . S
H2324 C2321 0.929 . S
S2325 N2326 1.613 . S
S2325 N2327 1.610 . S
N2326 S2325 1.613 . S
N2326 C2329 1.350 . S
N2327 S2325 1.610 . S
N2327 C2328 1.351 . S
C2328 C2322 1.428 . S
C2328 N2327 1.351 . S
C2328 C2329 1.434 . S
C2329 C2320 1.429 . S
C2329 N2326 1.350 . S
C2329 C2328 1.434 . S
C2330 C2331 1.369 . S
C2330 C2332 1.419 . S
C2330 H2334 0.930 . S
C2331 C2330 1.369 . S
C2331 C2340 1.429 . S
C2332 C2330 1.419 . S
C2332 C2333 1.363 . S
C2332 H2335 0.929 . S
C2333 C2332 1.363 . S
C2333 C2339 1.428 . S
H2334 C2330 0.930 . S
H2335 C2332 0.929 . S
S2336 N2337 1.613 . S
S2336 N2338 1.610 . S
N2337 S2336 1.613 . S
N2337 C2340 1.350 . S
N2338 S2336 1.610 . S
N2338 C2339 1.351 . S
C2339 C2333 1.428 . S
C2339 N2338 1.351 . S
C2339 C2340 1.434 . S
C2340 C2331 1.429 . S
C2340 N2337 1.350 . S
C2340 C2339 1.434 . S
C2341 C2342 1.369 . S
C2341 C2343 1.419 . S
C2341 H2345 0.930 . S
C2342 C2341 1.369 . S
C2342 C2351 1.429 . S
C2343 C2341 1.419 . S
C2343 C2344 1.363 . S
C2343 H2346 0.929 . S
C2344 C2343 1.363 . S
C2344 C2350 1.428 . S
H2345 C2341 0.930 . S
H2346 C2343 0.929 . S
S2347 N2348 1.613 . S
S2347 N2349 1.610 . S
N2348 S2347 1.613 . S
N2348 C2351 1.350 . S
N2349 S2347 1.610 . S
N2349 C2350 1.351 . S
C2350 C2344 1.428 . S
C2350 N2349 1.351 . S
C2350 C2351 1.434 . S
C2351 C2342 1.429 . S
C2351 N2348 1.350 . S
C2351 C2350 1.434 . S
C1297 C977 0.963 . S
C1299 C5 0.985 . S
C1308 C76 0.988 . S
C1310 C1031 0.970 . S
C1319 C886 0.965 . S
C1321 C113 0.994 . S
C1330 C184 0.995 . S
C1332 C923 0.957 . S
C1341 C1193 0.956 . S
C1343 C238 0.989 . S
C1352 C1139 0.958 . S
C1354 C275 0.995 . S
C1363 C1264 0.961 . S
C1365 C329 0.985 . S
C1374 C1085 0.962 . S
C1376 C400 0.995 . S
C1385 C454 0.996 . S
C1387 C707 0.958 . S
C1396 C815 0.970 . S
C1398 C491 0.991 . S
C1407 C562 0.995 . S
C1409 C778 0.957 . S
C1418 C670 0.968 . S
C1420 C616 0.992 . S
C1429 C346 0.956 . S
C1431 C653 0.995 . S
C1440 C383 0.958 . S
C1442 C724 0.988 . S
C1451 C221 0.971 . S
C1453 C761 0.990 . S
C1462 C832 0.996 . S
C1464 C292 0.962 . S
C1473 C545 0.961 . S
C1475 C869 0.986 . S
C1484 C940 0.994 . S
C1486 C508 0.956 . S
C1495 C599 0.961 . S
C1497 C994 0.986 . S
C1506 C437 0.954 . S
C1508 C1048 0.992 . S
C1517 C1102 0.996 . S
C1519 C59 0.960 . S
C1528 C167 0.965 . S
C1530 C1156 0.985 . S
C1539 C1210 0.992 . S
C1541 C130 0.968 . S
C1550 C1247 0.986 . S
C1552 C22 0.961 . S
C1561 C445 1.903 . S
C1563 C28 2.157 . S
C1572 C89 2.156 . S
C1574 C607 1.903 . S
C1583 C136 2.154 . S
C1585 C518 1.906 . S
C1594 C197 2.155 . S
C1596 C553 1.906 . S
C1605 C251 2.157 . S
C1607 C32 1.903 . S
C1616 C298 2.162 . S
C1618 C67 1.897 . S
C1627 C140 1.899 . S
C1629 C352 2.159 . S
C1638 C413 2.161 . S
C1640 C175 1.897 . S
C1649 C229 1.902 . S
C1651 C467 2.158 . S
C1660 C514 2.161 . S
C1662 C356 1.898 . S
C1671 C391 1.897 . S
C1673 C575 2.160 . S
C1682 C302 1.899 . S
C1684 C629 2.159 . S
C1693 C1093 1.901 . S
C1695 C676 2.158 . S
C1704 C737 2.161 . S
C1706 C1274 1.897 . S
C1715 C1147 1.898 . S
C1717 C784 2.160 . S
C1726 C845 2.160 . S
C1728 C1201 1.898 . S
C1737 C680 1.895 . S
C1739 C892 2.161 . S
C1748 C715 1.907 . S
C1750 C953 2.155 . S
C1759 C1007 2.155 . S
C1761 C788 1.905 . S
C1770 C823 1.908 . S
C1772 C1061 2.155 . S
C1781 C896 1.903 . S
C1783 C1115 2.157 . S
C1792 C1169 2.162 . S
C1794 C985 1.897 . S
C1803 C1223 2.157 . S
C1805 C1039 1.904 . S
C1814 C1270 2.162 . S
C1816 C931 1.897 . S
C1825 C27 1.356 . S
C1827 C622 1.289 . S
C1836 C460 1.293 . S
C1838 C64 1.361 1_554 S
C1847 C135 1.362 . S
C1849 C568 1.292 . S
C1858 C172 1.358 1_556 S
C1860 C521 1.287 . S
C1869 C143 1.293 . S
C1871 C226 1.361 . S
C1880 C190 1.299 . S
C1882 C297 1.357 1_655 S
C1891 C35 1.285 . S
C1893 C351 1.361 1_455 S
C1902 C388 1.355 . S
C1904 C82 1.296 . S
C1913 C406 1.298 . S
C1915 C442 1.359 . S
C1924 C513 1.362 1_565 S
C1926 C305 1.293 . S
C1935 C244 1.293 . S
C1937 C550 1.361 1_545 S
C1946 C604 1.354 . S
C1948 C359 1.294 . S
C1957 C1277 1.285 . S
C1959 C675 1.360 . S
C1968 C1108 1.298 . S
C1970 C712 1.358 1_556 S
C1979 C1216 1.287 . S
C1981 C783 1.357 . S
C1990 C1162 1.299 . S
C1992 C820 1.357 1_554 S
C2001 C891 1.358 . S
C2003 C791 1.288 . S
C2012 C928 1.358 1_455 S
C2014 C838 1.287 . S
C2023 C982 1.357 1_655 S
C2025 C683 1.289 . S
C2034 C1036 1.355 . S
C2036 C730 1.297 . S
C2045 C1054 1.296 . S
C2047 C1090 1.355 . S
C2056 C946 1.291 . S
C2058 C1144 1.361 1_545 S
C2067 C899 1.286 . S
C2069 C1198 1.358 1_565 S
C2078 C1000 1.290 . S
C2080 C1269 1.362 . S
C2089 C1215 2.161 . S
C2091 C13 2.146 . S
C2100 C1161 2.161 . S
C2102 C86 2.147 . S
C2111 C121 2.143 . S
C2113 C1252 2.163 . S
C2122 C1107 2.161 . S
C2124 C194 2.146 . S
C2133 C248 2.143 . S
C2135 C729 2.164 . S
C2144 C658 2.164 . S
C2146 C283 2.143 . S
C2155 C337 2.148 . S
C2157 C837 2.161 . S
C2166 C410 2.148 . S
C2168 C766 2.161 . S
C2177 C999 2.162 . S
C2179 C464 2.147 . S
C2188 C874 2.161 . S
C2190 C499 2.147 . S
C2199 C572 2.142 . S
C2201 C945 2.164 . S
C2210 C626 2.143 . S
C2212 C1053 2.164 . S
C2221 C661 2.147 . S
C2223 C567 2.161 . S
C2232 C734 2.146 . S
C2234 C496 2.163 . S
C2243 C621 2.161 . S
C2245 C769 2.146 . S
C2254 C459 2.161 . S
C2256 C842 2.147 . S
C2265 C877 2.148 . S
C2267 C81 2.162 . S
C2276 C950 2.144 . S
C2278 C10 2.163 . S
C2287 C1004 2.147 . S
C2289 C189 2.161 . S
C2298 C1058 2.146 . S
C2300 C118 2.163 . S
C2309 C1112 2.142 . S
C2311 C334 2.164 . S
C2320 C1166 2.148 . S
C2322 C243 2.161 . S
C2331 C1220 2.145 . S
C2333 C280 2.162 . S
C2342 C405 2.161 . S
C2344 C1255 2.146 . S
