# Generated by pormake.
# Topology kag, (6)-cn, num edge types: 1
# Building blocks:
#     Node 0, Type 0, BuildingBlock: NUHQIS_clean_sbu_0, # of connection points: 6
#     Node 1, Type 0, BuildingBlock: NUHQIS_clean_sbu_0, # of connection points: 6
#     Node 2, Type 0, BuildingBlock: NUHQIS_clean_sbu_0, # of connection points: 6
#     Edge 3, Type (0, 0), BuildingBlock: XUDNAN_clean_linker_2, # of connection points: 2
#     Edge 4, Type (0, 0), BuildingBlock: XUDNAN_clean_linker_2, # of connection points: 2
#     Edge 5, Type (0, 0), BuildingBlock: XUDNAN_clean_linker_2, # of connection points: 2
#     Edge 6, Type (0, 0), BuildingBlock: XUDNAN_clean_linker_2, # of connection points: 2
#     Edge 7, Type (0, 0), BuildingBlock: XUDNAN_clean_linker_2, # of connection points: 2
#     Edge 8, Type (0, 0), BuildingBlock: XUDNAN_clean_linker_2, # of connection points: 2
#     Edge 9, Type (0, 0), BuildingBlock: XUDNAN_clean_linker_2, # of connection points: 2
#     Edge 10, Type (0, 0), BuildingBlock: XUDNAN_clean_linker_2, # of connection points: 2
#     Edge 11, Type (0, 0), BuildingBlock: XUDNAN_clean_linker_2, # of connection points: 2
# Relax obj value: 0.078
# Max RMSD: 0.192
# Mean RMSD: 0.110
data_MOF--net-kag--node1-NUHQIS_clean_sbu_0--edge1-XUDNAN_clean_linker_2
_symmetry_space_group_name_H-M    P1
_symmetry_Int_Tables_number       1
_symmetry_cell_setting            triclinic
loop_
_symmetry_equiv_pos_as_xyz
'x, y, z'
_cell_length_a     49.079956
_cell_length_b     30.914461
_cell_length_c     15.162089
_cell_angle_alpha  87.625372
_cell_angle_beta   95.975493
_cell_angle_gamma 121.75963
loop_
_atom_site_label
_atom_site_type_symbol
_atom_site_fract_x
_atom_site_fract_y
_atom_site_fract_z
_atom_type_partial_charge
Tb0 Tb 0.05215 0.50477 0.02802 0.0
Eu1 Eu 0.04579 0.6057 0.01973 0.0
C2 C 0.05444 0.55915 0.20152 0.0
C3 C 0.98374 0.49146 0.03647 0.0
C4 C 0.09142 0.43289 0.00417 0.0
C5 C 0.11732 0.38618 0.97985 0.0
C6 C 0.0904 0.38682 0.00096 0.0
C7 C 0.11964 0.47831 0.9853 0.0
C8 C 0.14664 0.4778 0.96511 0.0
C9 C 0.14584 0.43173 0.96227 0.0
C10 C 0.0635 0.43388 0.02917 0.0
O11 O 0.05947 0.53457 0.89308 0.0
O12 O 1.02528 0.56311 0.89043 0.0
O13 O 0.09748 0.63687 -0.00617 0.0
O14 O 0.10102 0.57034 0.05427 0.0
C15 C 1.04104 0.54851 0.84822 0.0
O16 O 0.04422 0.6669 0.94654 0.0
O17 O 1.0353 0.65622 0.08498 0.0
O18 O 0.06616 0.60146 0.15669 0.0
O19 O 1.04207 0.51493 0.16086 0.0
O20 O 0.99956 0.47103 0.0112 0.0
O21 O 0.99832 0.54016 0.05588 0.0
C22 C 0.11462 0.61701 0.02385 0.0
O23 O 0.06926 0.46239 0.09795 0.0
O24 O 0.0464 0.44067 0.96475 0.0
C25 C 1.00139 0.67327 0.98999 0.0
C26 C 0.93785 0.65356 0.97038 0.0
C27 C 0.96166 0.69153 0.03002 0.0
C28 C 0.99312 0.70122 0.03973 0.0
C29 C 0.97797 0.63652 0.9284 0.0
C30 C 0.94667 0.62705 0.91826 0.0
C31 C 1.03273 0.67737 0.01095 0.0
H32 H 0.11601 0.35012 0.97892 0.0
H33 H 0.06887 0.3514 0.01543 0.0
H34 H 0.12084 0.51425 0.98654 0.0
H35 H 0.16805 0.51343 0.95082 0.0
H36 H 0.95572 0.7123 0.072 0.0
H37 H 1.01066 0.72914 0.08864 0.0
H38 H 0.98355 0.61385 0.88999 0.0
H39 H 0.9292 0.59822 0.87056 0.0
Tb40 Tb 0.58696 0.09082 0.97165 0.0
Eu41 Eu 0.50602 1.02961 0.95586 0.0
C42 C 0.55073 0.0702 0.14152 0.0
C43 C 0.5444 0.96974 -0.00653 0.0
C44 C 0.68061 0.17808 0.98469 0.0
C45 C 0.72657 0.2412 0.08127 0.0
C46 C 0.69386 0.20275 0.0677 0.0
C47 C 0.70071 0.19309 0.91566 0.0
C48 C 0.73338 0.23127 0.92924 0.0
C49 C 0.74691 0.25563 0.01245 0.0
C50 C 0.64746 0.13266 0.97045 0.0
O51 O 0.56617 1.0491 0.84699 0.0
O52 O 0.52318 0.05829 0.8207 0.0
O53 O 0.52344 0.1137 0.96655 0.0
O54 O 0.57694 0.15125 0.94109 0.0
C55 C 0.54624 0.05511 0.79133 0.0
O56 O 0.45954 0.9776 0.88143 0.0
O57 O 0.46115 1.01455 0.0022 0.0
O58 O 0.52375 1.033 0.10104 0.0
O59 O 0.57492 0.10363 0.09774 0.0
O60 O 0.57101 1.01366 0.01535 0.0
O61 O 0.51773 0.96699 0.9583 0.0
C62 C 0.55154 0.15416 0.95177 0.0
O63 O 0.63173 0.10969 0.03883 0.0
O64 O 0.62845 0.13196 0.90299 0.0
C65 C 0.41103 0.93901 0.9539 0.0
C66 C 0.34788 0.85949 0.9853 0.0
C67 C 0.3541 0.88404 0.90312 0.0
C68 C 0.38526 0.92321 0.88772 0.0
C69 C 0.40514 0.91443 0.03592 0.0
C70 C 0.3739 0.87498 0.05135 0.0
C71 C 0.44293 0.98336 0.9366 0.0
H72 H 0.73612 0.25868 0.14655 0.0
H73 H 0.67918 0.19162 0.1227 0.0
H74 H 0.69127 0.17429 0.85128 0.0
H75 H 0.74803 0.24173 0.87433 0.0
H76 H 0.33489 0.87275 0.85022 0.0
H77 H 0.38917 0.94175 0.82404 0.0
H78 H 0.42454 0.92613 0.08836 0.0
H79 H 0.37003 0.85731 0.11572 0.0
Tb80 Tb 0.50715 0.5258 0.98239 0.0
Eu81 Eu 0.58723 0.5964 -0.00103 0.0
C82 C 0.54351 0.56492 0.81272 0.0
C83 C 0.54896 0.47347 0.97968 0.0
C84 C 0.4172 0.47671 0.95932 0.0
C85 C 0.37164 0.4643 0.85779 0.0
C86 C 0.4015 0.46813 0.87308 0.0
C87 C 0.40271 0.48267 0.02935 0.0
C88 C 0.37292 0.4789 0.01408 0.0
C89 C 0.35666 0.46863 0.9284 0.0
C90 C 0.44634 0.47336 0.97887 0.0
O91 O 0.52617 0.51722 0.11292 0.0
O92 O 0.57065 0.59654 0.13255 0.0
O93 O 0.57189 0.65321 0.98141 0.0
O94 O 0.51827 0.6038 0.00778 0.0
C95 C 0.54691 0.55568 0.16509 0.0
O96 O 0.63292 0.62306 0.07831 0.0
O97 O 0.63281 0.64881 0.94316 0.0
O98 O 0.56967 0.56994 0.85606 0.0
O99 O 0.52012 0.56067 0.85451 0.0
O100 O 0.52153 0.47106 0.95445 0.0
O101 O 0.57471 0.51553 0.01247 0.0
C102 C 0.54458 0.64853 -0.00324 0.0
O103 O 0.46213 0.47533 0.91308 0.0
O104 O 0.46572 0.49841 0.04838 0.0
C105 C 0.67629 0.63883 -0.00146 0.0
C106 C 0.7284 0.62622 0.97779 0.0
C107 C 0.70182 0.58927 0.02109 0.0
C108 C 0.67601 0.59536 0.03093 0.0
C109 C 0.70248 0.67542 0.95433 0.0
C110 C 0.72821 0.66915 0.94374 0.0
C111 C 0.65022 0.64753 0.01324 0.0
H112 H 0.35999 0.457 0.79076 0.0
H113 H 0.41179 0.46288 0.81767 0.0
H114 H 0.41385 0.48844 0.09684 0.0
H115 H 0.36198 0.48172 0.07029 0.0
H116 H 0.70121 0.55606 0.04936 0.0
H117 H 0.65608 0.56637 0.06514 0.0
H118 H 0.70316 0.70916 0.92854 0.0
H119 H 0.7479 0.69795 0.90862 0.0
H120 H 0.05577 0.50113 0.72543 0.0
H121 H 1.02524 0.60863 0.74942 0.0
H122 H 1.02538 0.62156 0.58862 0.0
H123 H 0.1079 0.5651 0.55228 0.0
H124 H 0.09657 0.50777 0.49297 0.0
H125 H 0.09447 0.50641 0.61108 0.0
H126 H 1.03438 0.43454 0.58974 0.0
H127 H 1.0363 0.43562 0.47155 0.0
H128 H 1.0067 0.44398 0.51614 0.0
H129 H 1.03143 0.62739 0.42901 0.0
H130 H 1.03863 0.62031 0.27329 0.0
H131 H 0.06131 0.50441 0.34342 0.0
C132 C 0.04909 0.52728 0.69656 0.0
C133 C 1.04055 0.55393 0.75037 0.0
C134 C 1.03172 0.58755 0.70998 0.0
C135 C 1.03182 0.59535 0.6185 0.0
C136 C 1.04035 0.56876 0.56743 0.0
C137 C 0.04844 0.53488 0.60425 0.0
C138 C 0.05585 0.51053 0.53252 0.0
C139 C 0.09078 0.52322 0.54817 0.0
C140 C 1.03187 0.45273 0.52719 0.0
C141 C 0.051 0.53659 0.45025 0.0
C142 C 1.04239 0.57036 0.47281 0.0
C143 C 1.03787 0.60076 0.41023 0.0
C144 C 1.04218 0.59662 0.32197 0.0
C145 C 0.05046 0.56179 0.29626 0.0
C146 C 0.05467 0.53099 0.36123 0.0
H147 H 0.50444 1.03395 0.26097 0.0
H148 H 0.60766 0.11389 0.24441 0.0
H149 H 0.61687 0.11841 0.40714 0.0
H150 H 0.50936 0.10727 0.45113 0.0
H151 H 0.47647 1.05376 0.50083 0.0
H152 H 0.47742 0.05586 0.38217 0.0
H153 H 0.47292 0.96854 0.38367 0.0
H154 H 0.47202 0.96621 0.50232 0.0
H155 H 0.50187 0.96025 0.45346 0.0
H156 H 0.61548 0.11057 0.56927 0.0
H157 H 0.60387 0.09742 0.72532 0.0
H158 H 0.50185 1.02825 0.64316 0.0
C159 C 0.52893 1.05242 0.29182 0.0
C160 C 0.55534 0.07353 0.23978 0.0
C161 C 0.58705 0.09773 0.28258 0.0
C162 C 0.59256 0.10034 0.37513 0.0
C163 C 0.56616 0.07922 0.42445 0.0
C164 C 0.53497 0.05628 0.38481 0.0
C165 C 0.51115 1.03782 0.45452 0.0
C166 C 0.4925 0.06533 0.44668 0.0
C167 C 0.48813 0.97975 0.44809 0.0
C168 C 0.5339 1.05352 0.53918 0.0
C169 C 0.56547 0.07685 0.51965 0.0
C170 C 0.59091 0.09284 0.58558 0.0
C171 C 0.58403 0.08499 0.67408 0.0
C172 C 0.552 0.06207 0.69642 0.0
C173 C 0.52658 1.0464 0.62794 0.0
H174 H 0.58967 0.60236 0.69298 0.0
H175 H 0.48642 0.51713 0.71087 0.0
H176 H 0.47692 0.50629 0.54865 0.0
H177 H 0.58672 0.66909 0.49144 0.0
H178 H 0.61869 0.66752 0.44594 0.0
H179 H 0.61792 0.66837 0.5644 0.0
H180 H 0.61977 0.58614 0.57667 0.0
H181 H 0.62049 0.58497 0.45825 0.0
H182 H 0.58977 0.53053 0.51231 0.0
H183 H 0.47791 0.50012 0.38767 0.0
H184 H 0.48923 0.50541 0.23207 0.0
H185 H 0.59172 0.60007 0.31145 0.0
C186 C 0.56512 0.58149 0.66249 0.0
C187 C 0.53877 0.56051 0.71468 0.0
C188 C 0.50698 0.53381 0.67241 0.0
C189 C 0.5013 0.52724 0.58023 0.0
C190 C 0.52764 0.54821 0.53071 0.0
C191 C 0.55894 0.57539 0.56975 0.0
C192 C 0.5827 0.59499 0.49977 0.0
C193 C 0.60269 0.65347 0.50044 0.0
C194 C 0.60447 0.57282 0.51253 0.0
C195 C 0.55978 0.574 0.41575 0.0
C196 C 0.52817 0.54671 0.43584 0.0
C197 C 0.50252 0.52176 0.37084 0.0
C198 C 0.50923 0.52483 0.28265 0.0
C199 C 0.54131 0.55328 0.25965 0.0
C200 C 0.56695 0.5785 0.32715 0.0
H201 H 0.20911 0.49618 0.02644 0.0
H202 H 0.1477 0.36589 0.85095 0.0
H203 H 0.19526 0.36388 0.81766 0.0
H204 H 0.27795 0.55727 0.89559 0.0
H205 H 0.30704 0.5782 0.99159 0.0
H206 H 0.26837 0.57074 -0.00134 0.0
H207 H 0.25836 0.50969 0.13043 0.0
H208 H 0.29697 0.51694 0.12379 0.0
H209 H 0.26104 0.45437 0.11742 0.0
H210 H 0.24933 0.37479 0.80616 0.0
H211 H 0.30543 0.39527 0.82212 0.0
H212 H 0.33199 0.51899 0.00451 0.0
C213 C 0.20572 0.46762 0.98014 0.0
C214 C 0.17464 0.4312 0.94114 0.0
C215 C 0.1712 0.39387 0.88219 0.0
C216 C 0.1981 0.39265 0.86243 0.0
C217 C 0.22835 0.42895 0.90226 0.0
C218 C 0.23231 0.46566 0.96009 0.0
C219 C 0.26727 0.49901 -0.00334 0.0
C220 C 0.28096 0.5546 0.96894 0.0
C221 C 0.27112 0.49472 0.09808 0.0
C222 C 0.28231 0.47503 0.95095 0.0
C223 C 0.25948 0.43497 0.89622 0.0
C224 C 0.26745 0.40633 0.84834 0.0
C225 C 0.2995 0.41853 0.85738 0.0
C226 C 0.32332 0.45895 0.91419 0.0
C227 C 0.31444 0.48772 0.96086 0.0
H228 H 0.79918 0.25836 0.95078 0.0
H229 H 0.77428 0.34506 0.10695 0.0
H230 H 0.83169 0.41211 0.13216 0.0
H231 H 0.87338 0.29051 0.08316 0.0
H232 H 0.89459 0.29532 0.98952 0.0
H233 H 0.85149 0.25335 0.98379 0.0
H234 H 0.84508 0.2983 0.84234 0.0
H235 H 0.88816 0.34028 0.84745 0.0
H236 H 0.86271 0.36626 0.84478 0.0
H237 H 0.89109 0.47068 0.13813 0.0
H238 H 0.94925 0.51765 0.12634 0.0
H239 H 0.93773 0.39453 0.96661 0.0
C240 C 0.80576 0.29156 0.98994 0.0
C241 C 0.78195 0.29608 0.02723 0.0
C242 C 0.79185 0.34006 0.07879 0.0
C243 C 0.82448 0.37859 0.0931 0.0
C244 C 0.84719 0.37283 0.05574 0.0
C245 C 0.83839 0.33049 0.00528 0.0
C246 C 0.86788 0.33419 0.97264 0.0
C247 C 0.87208 0.29075 0.00949 0.0
C248 C 0.86583 0.3348 0.87075 0.0
C249 C 0.8946 0.38534 0.01247 0.0
C250 C 0.88191 0.40678 0.05993 0.0
C251 C 0.9013 0.45418 0.10144 0.0
C252 C 0.93447 0.48065 0.09406 0.0
C253 C 0.94841 0.46 0.04561 0.0
C254 C 0.92803 0.41129 0.0048 0.0
H255 H 0.50178 0.86917 0.92933 0.0
H256 H 0.59075 0.96325 0.09667 0.0
H257 H 0.59758 0.89062 0.11979 0.0
H258 H 0.47565 0.75077 0.05847 0.0
H259 H 0.45944 0.70975 0.96157 0.0
H260 H 0.45969 0.76831 0.96054 0.0
H261 H 0.4909 0.79642 0.82113 0.0
H262 H 0.4908 0.73804 0.82182 0.0
H263 H 0.52834 0.79836 0.8237 0.0
H264 H 0.59826 0.81196 0.1178 0.0
H265 H 0.59143 0.72844 0.09475 0.0
H266 H 0.50122 0.67894 0.93375 0.0
C267 C 0.52241 0.8742 0.97184 0.0
C268 C 0.54575 0.92263 0.01082 0.0
C269 C 0.57253 0.92724 0.06528 0.0
C270 C 0.57667 0.88593 0.07926 0.0
C271 C 0.55379 0.83937 0.03904 0.0
C272 C 0.52701 0.83276 0.98693 0.0
C273 C 0.50681 0.77822 0.95005 0.0
C274 C 0.4734 0.7501 0.98473 0.0
C275 C 0.50406 0.77775 0.84812 0.0
C276 C 0.52687 0.756 0.98833 0.0
C277 C 0.55382 0.79239 0.03953 0.0
C278 C 0.57707 0.78293 0.07873 0.0
C279 C 0.57301 0.73528 0.06499 0.0
C280 C 0.54575 0.69686 0.01309 0.0
C281 C 0.52205 0.70719 0.97503 0.0
H282 H 0.91452 0.71726 0.98043 0.0
H283 H 0.88349 0.55808 0.95194 0.0
H284 H 0.82691 0.53438 0.94501 0.0
H285 H 0.8551 0.69629 0.12405 0.0
H286 H 0.84957 0.74593 0.07678 0.0
H287 H 0.8877 0.75073 0.07514 0.0
H288 H 0.88442 0.7608 0.90449 0.0
H289 H 0.84619 0.7558 0.90558 0.0
H290 H 0.84968 0.71312 0.83674 0.0
H291 H 0.77353 0.52761 0.94207 0.0
H292 H 0.72732 0.53802 0.94857 0.0
H293 H 0.79303 0.70094 0.98854 0.0
C294 C 0.89588 0.67739 0.973 0.0
C295 C 0.90364 0.63969 0.96559 0.0
C296 C 0.87833 0.58794 0.95551 0.0
C297 C 0.84603 0.57398 0.95213 0.0
C298 C 0.83928 0.61208 0.95936 0.0
C299 C 0.86346 0.6627 0.97001 0.0
C300 C 0.84965 0.69599 0.97859 0.0
C301 C 0.86119 0.72386 0.06903 0.0
C302 C 0.85798 0.73365 0.90177 0.0
C303 C 0.81396 0.65611 0.97174 0.0
C304 C 0.80851 0.60802 0.96003 0.0
C305 C 0.77752 0.56508 0.95173 0.0
C306 C 0.7514 0.57139 0.95618 0.0
C307 C 0.75633 0.62027 0.96965 0.0
C308 C 0.78819 0.66309 0.97706 0.0
H309 H 0.15429 0.71309 0.9558 0.0
H310 H 0.15668 0.59042 0.09965 0.0
H311 H 0.2157 0.63886 0.1058 0.0
H312 H 0.21955 0.74478 0.82419 0.0
H313 H 0.23584 0.81235 0.82808 0.0
H314 H 0.19345 0.76848 0.83537 0.0
H315 H 0.19727 0.81107 0.98346 0.0
H316 H 0.23967 0.8551 0.97656 0.0
H317 H 0.22602 0.81658 0.07354 0.0
H318 H 0.27474 0.70028 0.09779 0.0
H319 H 0.32966 0.77 0.07243 0.0
H320 H 0.29018 0.85378 0.93401 0.0
C321 C 0.16722 0.6965 0.98888 0.0
C322 C 0.15052 0.64773 0.02734 0.0
C323 C 0.16858 0.6275 0.06945 0.0
C324 C 0.20229 0.65482 0.07352 0.0
C325 C 0.21794 0.70257 0.03512 0.0
C326 C 0.20109 0.72331 -0.00663 0.0
C327 C 0.22404 0.77525 0.95656 0.0
C328 C 0.21784 0.77519 0.85502 0.0
C329 C 0.2216 0.81696 0.00015 0.0
C330 C 0.2563 0.78034 0.98439 0.0
C331 C 0.25217 0.73798 0.02983 0.0
C332 C 0.27829 0.73374 0.06246 0.0
C333 C 0.30947 0.77377 0.0482 0.0
C334 C 0.31449 0.81766 0.0014 0.0
C335 C 0.28732 0.82067 0.96926 0.0
H336 H 0.50355 0.36794 0.98137 0.0
H337 H 0.60399 0.47895 0.94936 0.0
H338 H 0.61416 0.41011 0.93439 0.0
H339 H 0.51889 0.28174 0.11377 0.0
H340 H 0.48417 0.22436 0.06566 0.0
H341 H 0.48346 0.28195 0.06902 0.0
H342 H 0.46904 0.27571 0.89909 0.0
H343 H 0.46966 0.21803 0.89527 0.0
H344 H 0.49454 0.27106 0.82747 0.0
H345 H 0.61491 0.33108 0.92566 0.0
H346 H 0.6064 0.24543 0.92734 0.0
H347 H 0.50592 0.18117 0.96891 0.0
C348 C 0.52754 0.37758 0.97017 0.0
C349 C 0.55294 0.42932 0.96652 0.0
C350 C 0.58409 0.44002 0.95301 0.0
C351 C 0.59017 0.40102 0.94406 0.0
C352 C 0.56499 0.35078 0.94917 0.0
C353 C 0.53427 0.33862 0.96214 0.0
C354 C 0.51213 0.28096 0.96851 0.0
C355 C 0.49888 0.2664 0.05967 0.0
C356 C 0.48471 0.26022 0.89309 0.0
C357 C 0.53531 0.2631 0.95733 0.0
C358 C 0.56558 0.30433 0.94572 0.0
C359 C 0.59127 0.29844 0.93457 0.0
C360 C 0.58612 0.24927 0.93563 0.0
C361 C 0.55547 0.20584 0.94818 0.0
C362 C 0.52967 0.21321 0.95893 0.0
loop_
_geom_bond_atom_site_label_1
_geom_bond_atom_site_label_2
_geom_bond_distance
_geom_bond_site_symmetry_2
_ccdc_geom_bond_type
Tb0 C10 2.825 . S
Tb0 O11 2.347 1_554 S
Tb0 O14 2.366 . S
Tb0 O19 2.418 . S
Tb0 O20 2.384 1_455 S
Tb0 O23 2.479 . S
Tb0 O24 2.471 1_554 S
Eu1 O12 2.418 . S
Eu1 O13 2.384 1_655 S
Eu1 O16 2.479 . S
Eu1 O17 2.471 1_556 S
Eu1 O18 2.347 1_556 S
Eu1 O21 2.366 . S
Eu1 C31 2.825 . S
C2 O18 1.259 1_455 S
C2 O19 1.265 . S
C3 O20 1.255 1_556 S
C3 O21 1.265 . S
C4 C6 1.379 1_556 S
C4 C7 1.375 . S
C4 C10 1.506 1_556 S
C5 C6 1.384 . S
C5 C9 1.387 1_554 S
C5 H32 0.930 . S
C6 C4 1.379 1_554 S
C6 C5 1.384 . S
C6 H33 0.931 . S
C7 C4 1.375 . S
C7 C8 1.390 . S
C7 H34 0.930 . S
C8 C7 1.390 . S
C8 C9 1.391 . S
C8 H35 0.930 . S
C9 C5 1.387 1_556 S
C9 C8 1.391 . S
C10 Tb0 2.825 . S
C10 C4 1.506 1_554 S
C10 O23 1.238 . S
C10 O24 1.247 1_554 S
O11 Tb0 2.347 1_556 S
O11 C15 1.259 1_455 S
O12 Eu1 2.418 . S
O12 C15 1.265 . S
O13 Eu1 2.384 1_455 S
O13 C22 1.255 1_556 S
O14 Tb0 2.366 . S
O14 C22 1.265 . S
C15 O11 1.259 1_655 S
C15 O12 1.265 . S
O16 Eu1 2.479 . S
O16 C31 1.238 . S
O17 Eu1 2.471 1_554 S
O17 C31 1.247 1_554 S
O18 Eu1 2.347 1_554 S
O18 C2 1.259 1_655 S
O19 Tb0 2.418 . S
O19 C2 1.265 . S
O20 Tb0 2.384 1_655 S
O20 C3 1.255 1_554 S
O21 Eu1 2.366 . S
O21 C3 1.265 . S
C22 O13 1.255 1_554 S
C22 O14 1.265 . S
O23 Tb0 2.479 . S
O23 C10 1.238 . S
O24 Tb0 2.471 1_556 S
O24 C10 1.247 1_556 S
C25 C28 1.375 1_554 S
C25 C29 1.380 . S
C25 C31 1.505 1_554 S
C26 C27 1.387 1_554 S
C26 C30 1.391 . S
C27 C26 1.387 1_556 S
C27 C28 1.384 . S
C27 H36 0.930 . S
C28 C25 1.375 1_556 S
C28 C27 1.384 . S
C28 H37 0.931 . S
C29 C25 1.380 . S
C29 C30 1.390 . S
C29 H38 0.930 . S
C30 C26 1.391 . S
C30 C29 1.390 . S
C30 H39 0.930 . S
C31 Eu1 2.825 . S
C31 O16 1.238 . S
C31 O17 1.247 1_556 S
C31 C25 1.505 1_556 S
H32 C5 0.930 . S
H33 C6 0.931 . S
H34 C7 0.930 . S
H35 C8 0.930 . S
H36 C27 0.930 . S
H37 C28 0.931 . S
H38 C29 0.930 . S
H39 C30 0.930 . S
Tb40 C50 2.825 . S
Tb40 O51 2.347 1_554 S
Tb40 O54 2.366 . S
Tb40 O59 2.418 . S
Tb40 O60 2.384 1_545 S
Tb40 O63 2.479 . S
Tb40 O64 2.471 1_554 S
Eu41 O52 2.418 . S
Eu41 O53 2.384 1_565 S
Eu41 O56 2.479 . S
Eu41 O57 2.471 1_556 S
Eu41 O58 2.347 1_556 S
Eu41 O61 2.366 . S
Eu41 C71 2.825 . S
C42 O58 1.259 1_545 S
C42 O59 1.265 . S
C43 O60 1.253 1_556 S
C43 O61 1.267 . S
C44 C46 1.380 . S
C44 C47 1.374 1_554 S
C44 C50 1.507 . S
C45 C46 1.384 . S
C45 C49 1.387 1_554 S
C45 H72 0.930 . S
C46 C44 1.380 . S
C46 C45 1.384 . S
C46 H73 0.931 . S
C47 C44 1.374 1_556 S
C47 C48 1.390 . S
C47 H74 0.930 . S
C48 C47 1.390 . S
C48 C49 1.391 . S
C48 H75 0.930 . S
C49 C45 1.387 1_556 S
C49 C48 1.391 . S
C50 Tb40 2.825 . S
C50 C44 1.507 . S
C50 O63 1.238 . S
C50 O64 1.247 1_554 S
O51 Tb40 2.347 1_556 S
O51 C55 1.259 1_545 S
O52 Eu41 2.418 . S
O52 C55 1.265 . S
O53 Eu41 2.384 1_545 S
O53 C62 1.255 1_556 S
O54 Tb40 2.366 . S
O54 C62 1.265 . S
C55 O51 1.259 1_565 S
C55 O52 1.265 . S
O56 Eu41 2.479 . S
O56 C71 1.238 . S
O57 Eu41 2.471 1_554 S
O57 C71 1.247 1_554 S
O58 Eu41 2.347 1_554 S
O58 C42 1.259 1_565 S
O59 Tb40 2.418 . S
O59 C42 1.265 . S
O60 Tb40 2.384 1_565 S
O60 C43 1.253 1_554 S
O61 Eu41 2.366 . S
O61 C43 1.267 . S
C62 O53 1.255 1_554 S
C62 O54 1.265 . S
O63 Tb40 2.479 . S
O63 C50 1.238 . S
O64 Tb40 2.471 1_556 S
O64 C50 1.247 1_556 S
C65 C68 1.380 . S
C65 C69 1.374 1_556 S
C65 C71 1.507 . S
C66 C67 1.387 1_554 S
C66 C70 1.391 . S
C67 C66 1.387 1_556 S
C67 C68 1.384 . S
C67 H76 0.930 . S
C68 C65 1.380 . S
C68 C67 1.384 . S
C68 H77 0.931 . S
C69 C65 1.374 1_554 S
C69 C70 1.390 . S
C69 H78 0.930 . S
C70 C66 1.391 . S
C70 C69 1.390 . S
C70 H79 0.930 . S
C71 Eu41 2.825 . S
C71 O56 1.238 . S
C71 O57 1.247 1_556 S
C71 C65 1.507 . S
H72 C45 0.930 . S
H73 C46 0.931 . S
H74 C47 0.930 . S
H75 C48 0.930 . S
H76 C67 0.930 . S
H77 C68 0.931 . S
H78 C69 0.930 . S
H79 C70 0.930 . S
Tb80 C90 2.825 . S
Tb80 O91 2.347 1_556 S
Tb80 O94 2.366 . S
Tb80 O99 2.418 . S
Tb80 O100 2.384 . S
Tb80 O103 2.479 . S
Tb80 O104 2.471 1_556 S
Eu81 O92 2.418 . S
Eu81 O93 2.384 . S
Eu81 O96 2.479 . S
Eu81 O97 2.471 1_554 S
Eu81 O98 2.347 1_554 S
Eu81 O101 2.366 . S
Eu81 C111 2.825 . S
C82 O98 1.259 . S
C82 O99 1.265 . S
C83 O100 1.255 1_554 S
C83 O101 1.265 . S
C84 C86 1.380 . S
C84 C87 1.374 1_556 S
C84 C90 1.507 . S
C85 C86 1.384 . S
C85 C89 1.387 1_556 S
C85 H112 0.930 . S
C86 C84 1.380 . S
C86 C85 1.384 . S
C86 H113 0.931 . S
C87 C84 1.374 1_554 S
C87 C88 1.390 . S
C87 H114 0.930 . S
C88 C87 1.390 . S
C88 C89 1.391 . S
C88 H115 0.930 . S
C89 C85 1.387 1_554 S
C89 C88 1.391 . S
C90 Tb80 2.825 . S
C90 C84 1.507 . S
C90 O103 1.238 . S
C90 O104 1.247 1_556 S
O91 Tb80 2.347 1_554 S
O91 C95 1.259 . S
O92 Eu81 2.418 . S
O92 C95 1.265 . S
O93 Eu81 2.384 . S
O93 C102 1.255 1_554 S
O94 Tb80 2.366 . S
O94 C102 1.265 . S
C95 O91 1.259 . S
C95 O92 1.265 . S
O96 Eu81 2.479 . S
O96 C111 1.238 . S
O97 Eu81 2.471 1_556 S
O97 C111 1.247 1_556 S
O98 Eu81 2.347 1_556 S
O98 C82 1.259 . S
O99 Tb80 2.418 . S
O99 C82 1.265 . S
O100 Tb80 2.384 . S
O100 C83 1.255 1_556 S
O101 Eu81 2.366 . S
O101 C83 1.265 . S
C102 O93 1.255 1_556 S
C102 O94 1.265 . S
O103 Tb80 2.479 . S
O103 C90 1.238 . S
O104 Tb80 2.471 1_554 S
O104 C90 1.247 1_554 S
C105 C108 1.380 . S
C105 C109 1.374 1_554 S
C105 C111 1.507 . S
C106 C107 1.387 1_556 S
C106 C110 1.391 . S
C107 C106 1.387 1_554 S
C107 C108 1.384 . S
C107 H116 0.930 . S
C108 C105 1.380 . S
C108 C107 1.384 . S
C108 H117 0.931 . S
C109 C105 1.374 1_556 S
C109 C110 1.390 . S
C109 H118 0.930 . S
C110 C106 1.391 . S
C110 C109 1.390 . S
C110 H119 0.930 . S
C111 Eu81 2.825 . S
C111 O96 1.238 . S
C111 O97 1.247 1_554 S
C111 C105 1.507 . S
H112 C85 0.930 . S
H113 C86 0.931 . S
H114 C87 0.930 . S
H115 C88 0.930 . S
H116 C107 0.930 . S
H117 C108 0.931 . S
H118 C109 0.930 . S
H119 C110 0.930 . S
H120 C132 0.930 . S
H121 C134 0.930 . S
H122 C135 0.930 . S
H123 C139 0.959 . S
H124 C139 0.959 . S
H125 C139 0.961 . S
H126 C140 0.960 . S
H127 C140 0.961 . S
H128 C140 0.959 . S
H129 C143 0.929 . S
H130 C144 0.931 . S
H131 C146 0.922 . S
C132 H120 0.930 . S
C132 C133 1.384 . S
C132 C137 1.399 . S
C133 C132 1.384 . S
C133 C134 1.392 1_655 S
C134 H121 0.930 . S
C134 C133 1.392 1_455 S
C134 C135 1.388 . S
C135 H122 0.930 . S
C135 C134 1.388 . S
C135 C136 1.376 . S
C136 C135 1.376 . S
C136 C137 1.407 1_455 S
C136 C142 1.470 . S
C137 C132 1.399 . S
C137 C136 1.407 1_655 S
C137 C138 1.516 . S
C138 C137 1.516 . S
C138 C139 1.502 1_655 S
C138 C140 1.561 . S
C138 C141 1.526 . S
C139 H123 0.959 . S
C139 H124 0.959 . S
C139 H125 0.961 . S
C139 C138 1.502 1_455 S
C140 H126 0.960 . S
C140 H127 0.961 . S
C140 H128 0.959 . S
C140 C138 1.561 . S
C141 C138 1.526 . S
C141 C142 1.396 1_655 S
C141 C146 1.394 . S
C142 C136 1.470 . S
C142 C141 1.396 1_455 S
C142 C143 1.399 . S
C143 H129 0.929 . S
C143 C142 1.399 . S
C143 C144 1.385 . S
C144 H130 0.931 . S
C144 C143 1.385 . S
C144 C145 1.389 . S
C145 C144 1.389 . S
C145 C146 1.390 1_455 S
C146 H131 0.922 . S
C146 C141 1.394 . S
C146 C145 1.390 1_655 S
H147 C159 0.930 . S
H148 C161 0.930 . S
H149 C162 0.930 . S
H150 C166 0.959 . S
H151 C166 0.959 . S
H152 C166 0.961 . S
H153 C167 0.960 . S
H154 C167 0.961 . S
H155 C167 0.959 . S
H156 C170 0.929 . S
H157 C171 0.931 . S
H158 C173 0.930 . S
C159 H147 0.930 . S
C159 C160 1.399 1_565 S
C159 C164 1.399 . S
C160 C159 1.399 1_545 S
C160 C161 1.376 . S
C161 H148 0.930 . S
C161 C160 1.376 . S
C161 C162 1.388 . S
C162 H149 0.930 . S
C162 C161 1.388 . S
C162 C163 1.390 . S
C163 C162 1.390 . S
C163 C164 1.394 1_545 S
C163 C169 1.465 . S
C164 C159 1.399 . S
C164 C163 1.394 1_565 S
C164 C165 1.516 . S
C165 C164 1.516 . S
C165 C166 1.502 . S
C165 C167 1.561 . S
C165 C168 1.526 . S
C166 H150 0.959 . S
C166 H151 0.959 . S
C166 H152 0.961 . S
C166 C165 1.502 . S
C167 H153 0.960 . S
C167 H154 0.961 . S
C167 H155 0.959 . S
C167 C165 1.561 . S
C168 C165 1.526 . S
C168 C169 1.396 1_565 S
C168 C173 1.390 . S
C169 C163 1.465 . S
C169 C168 1.396 1_545 S
C169 C170 1.399 . S
C170 H156 0.929 . S
C170 C169 1.399 . S
C170 C171 1.385 . S
C171 H157 0.931 . S
C171 C170 1.385 . S
C171 C172 1.389 . S
C172 C171 1.389 . S
C172 C173 1.387 1_545 S
C173 H158 0.930 . S
C173 C168 1.390 . S
C173 C172 1.387 1_565 S
H174 C186 0.930 . S
H175 C188 0.930 . S
H176 C189 0.930 . S
H177 C193 0.959 . S
H178 C193 0.959 . S
H179 C193 0.961 . S
H180 C194 0.960 . S
H181 C194 0.961 . S
H182 C194 0.959 . S
H183 C197 0.929 . S
H184 C198 0.931 . S
H185 C200 0.930 . S
C186 H174 0.930 . S
C186 C187 1.399 . S
C186 C191 1.399 . S
C187 C186 1.399 . S
C187 C188 1.376 . S
C188 H175 0.930 . S
C188 C187 1.376 . S
C188 C189 1.388 . S
C189 H176 0.930 . S
C189 C188 1.388 . S
C189 C190 1.390 . S
C190 C189 1.390 . S
C190 C191 1.394 . S
C190 C196 1.465 . S
C191 C186 1.399 . S
C191 C190 1.394 . S
C191 C192 1.516 . S
C192 C191 1.516 . S
C192 C193 1.502 . S
C192 C194 1.561 . S
C192 C195 1.526 . S
C193 H177 0.959 . S
C193 H178 0.959 . S
C193 H179 0.961 . S
C193 C192 1.502 . S
C194 H180 0.960 . S
C194 H181 0.961 . S
C194 H182 0.959 . S
C194 C192 1.561 . S
C195 C192 1.526 . S
C195 C196 1.396 . S
C195 C200 1.390 . S
C196 C190 1.465 . S
C196 C195 1.396 . S
C196 C197 1.399 . S
C197 H183 0.929 . S
C197 C196 1.399 . S
C197 C198 1.385 . S
C198 H184 0.931 . S
C198 C197 1.385 . S
C198 C199 1.389 . S
C199 C198 1.389 . S
C199 C200 1.387 . S
C200 H185 0.930 . S
C200 C195 1.390 . S
C200 C199 1.387 . S
H201 C213 0.930 . S
H202 C215 0.930 . S
H203 C216 0.930 . S
H204 C220 0.959 . S
H205 C220 0.959 . S
H206 C220 0.961 . S
H207 C221 0.960 . S
H208 C221 0.961 . S
H209 C221 0.959 . S
H210 C224 0.929 1_556 S
H211 C225 0.931 . S
H212 C227 0.930 . S
C213 H201 0.930 . S
C213 C214 1.399 . S
C213 C218 1.399 1_556 S
C214 C213 1.399 . S
C214 C215 1.376 . S
C215 H202 0.930 . S
C215 C214 1.376 . S
C215 C216 1.388 . S
C216 H203 0.930 . S
C216 C215 1.388 . S
C216 C217 1.390 . S
C217 C216 1.390 . S
C217 C218 1.394 1_556 S
C217 C223 1.465 1_556 S
C218 C213 1.399 1_554 S
C218 C217 1.394 1_554 S
C218 C219 1.516 . S
C219 C218 1.516 . S
C219 C220 1.502 1_554 S
C219 C221 1.561 . S
C219 C222 1.526 . S
C220 H204 0.959 . S
C220 H205 0.959 . S
C220 H206 0.961 . S
C220 C219 1.502 1_556 S
C221 H207 0.960 . S
C221 H208 0.961 . S
C221 H209 0.959 . S
C221 C219 1.561 . S
C222 C219 1.526 . S
C222 C223 1.396 . S
C222 C227 1.390 . S
C223 C217 1.465 1_554 S
C223 C222 1.396 . S
C223 C224 1.400 . S
C224 H210 0.929 1_554 S
C224 C223 1.400 . S
C224 C225 1.385 . S
C225 H211 0.931 . S
C225 C224 1.385 . S
C225 C226 1.389 . S
C226 C225 1.389 . S
C226 C227 1.387 . S
C227 H212 0.930 . S
C227 C222 1.390 . S
C227 C226 1.387 . S
H228 C240 0.930 . S
H229 C242 0.930 . S
H230 C243 0.930 . S
H231 C247 0.959 . S
H232 C247 0.959 . S
H233 C247 0.961 . S
H234 C248 0.960 . S
H235 C248 0.961 . S
H236 C248 0.959 . S
H237 C251 0.929 . S
H238 C252 0.931 . S
H239 C254 0.930 . S
C240 H228 0.930 . S
C240 C241 1.399 . S
C240 C245 1.399 . S
C241 C240 1.399 . S
C241 C242 1.376 1_556 S
C242 H229 0.930 . S
C242 C241 1.376 1_554 S
C242 C243 1.388 . S
C243 H230 0.930 . S
C243 C242 1.388 . S
C243 C244 1.390 . S
C244 C243 1.390 . S
C244 C245 1.394 1_554 S
C244 C250 1.465 . S
C245 C240 1.399 . S
C245 C244 1.394 1_556 S
C245 C246 1.516 . S
C246 C245 1.516 . S
C246 C247 1.502 . S
C246 C248 1.561 . S
C246 C249 1.526 . S
C247 H231 0.959 . S
C247 H232 0.959 . S
C247 H233 0.961 . S
C247 C246 1.502 . S
C248 H234 0.960 . S
C248 H235 0.961 . S
C248 H236 0.959 . S
C248 C246 1.561 . S
C249 C246 1.526 . S
C249 C250 1.396 1_556 S
C249 C254 1.390 . S
C250 C244 1.465 . S
C250 C249 1.396 1_554 S
C250 C251 1.399 . S
C251 H237 0.929 . S
C251 C250 1.399 . S
C251 C252 1.385 . S
C252 H238 0.931 . S
C252 C251 1.385 . S
C252 C253 1.389 1_554 S
C253 C252 1.389 1_556 S
C253 C254 1.387 . S
C254 H239 0.930 . S
C254 C249 1.390 . S
C254 C253 1.387 . S
H255 C267 0.930 . S
H256 C269 0.930 . S
H257 C270 0.930 . S
H258 C274 0.959 . S
H259 C274 0.959 . S
H260 C274 0.961 . S
H261 C275 0.960 . S
H262 C275 0.961 . S
H263 C275 0.959 . S
H264 C278 0.929 . S
H265 C279 0.931 . S
H266 C281 0.930 . S
C267 H255 0.930 . S
C267 C268 1.399 1_556 S
C267 C272 1.399 . S
C268 C267 1.399 1_554 S
C268 C269 1.376 . S
C269 H256 0.930 . S
C269 C268 1.376 . S
C269 C270 1.388 . S
C270 H257 0.930 . S
C270 C269 1.388 . S
C270 C271 1.390 . S
C271 C270 1.390 . S
C271 C272 1.394 1_554 S
C271 C277 1.465 . S
C272 C267 1.399 . S
C272 C271 1.394 1_556 S
C272 C273 1.516 . S
C273 C272 1.516 . S
C273 C274 1.502 . S
C273 C275 1.561 . S
C273 C276 1.526 . S
C274 H258 0.959 . S
C274 H259 0.959 . S
C274 H260 0.961 . S
C274 C273 1.502 . S
C275 H261 0.960 . S
C275 H262 0.961 . S
C275 H263 0.959 . S
C275 C273 1.561 . S
C276 C273 1.526 . S
C276 C277 1.396 1_556 S
C276 C281 1.390 . S
C277 C271 1.465 . S
C277 C276 1.396 1_554 S
C277 C278 1.399 . S
C278 H264 0.929 . S
C278 C277 1.399 . S
C278 C279 1.385 . S
C279 H265 0.931 . S
C279 C278 1.385 . S
C279 C280 1.389 . S
C280 C279 1.389 . S
C280 C281 1.387 1_554 S
C281 H266 0.930 . S
C281 C276 1.390 . S
C281 C280 1.387 1_556 S
H282 C294 0.930 . S
H283 C296 0.930 . S
H284 C297 0.930 . S
H285 C301 0.959 . S
H286 C301 0.959 . S
H287 C301 0.961 . S
H288 C302 0.960 . S
H289 C302 0.961 . S
H290 C302 0.959 . S
H291 C305 0.929 . S
H292 C306 0.931 . S
H293 C308 0.930 . S
C294 H282 0.930 . S
C294 C295 1.399 1_556 S
C294 C299 1.399 . S
C295 C294 1.399 1_554 S
C295 C296 1.376 . S
C296 H283 0.930 . S
C296 C295 1.376 . S
C296 C297 1.388 . S
C297 H284 0.930 . S
C297 C296 1.388 . S
C297 C298 1.390 . S
C298 C297 1.390 . S
C298 C299 1.394 1_554 S
C298 C304 1.465 . S
C299 C294 1.399 . S
C299 C298 1.394 1_556 S
C299 C300 1.516 . S
C300 C299 1.516 . S
C300 C301 1.502 . S
C300 C302 1.561 . S
C300 C303 1.526 . S
C301 H285 0.959 . S
C301 H286 0.959 . S
C301 H287 0.961 . S
C301 C300 1.502 . S
C302 H288 0.960 . S
C302 H289 0.961 . S
C302 H290 0.959 . S
C302 C300 1.561 . S
C303 C300 1.526 . S
C303 C304 1.396 1_556 S
C303 C308 1.390 . S
C304 C298 1.465 . S
C304 C303 1.396 1_554 S
C304 C305 1.399 . S
C305 H291 0.929 . S
C305 C304 1.399 . S
C305 C306 1.385 . S
C306 H292 0.931 . S
C306 C305 1.385 . S
C306 C307 1.389 1_554 S
C307 C306 1.389 1_556 S
C307 C308 1.387 . S
C308 H293 0.930 . S
C308 C303 1.390 . S
C308 C307 1.387 . S
H309 C321 0.930 . S
H310 C323 0.930 . S
H311 C324 0.930 . S
H312 C328 0.959 . S
H313 C328 0.959 . S
H314 C328 0.961 . S
H315 C329 0.960 . S
H316 C329 0.961 . S
H317 C329 0.959 . S
H318 C332 0.929 . S
H319 C333 0.931 . S
H320 C335 0.930 1_556 S
C321 H309 0.930 . S
C321 C322 1.399 1_556 S
C321 C326 1.399 1_556 S
C322 C321 1.399 1_554 S
C322 C323 1.376 . S
C323 H310 0.930 . S
C323 C322 1.376 . S
C323 C324 1.388 . S
C324 H311 0.930 . S
C324 C323 1.388 . S
C324 C325 1.390 . S
C325 C324 1.390 . S
C325 C326 1.394 . S
C325 C331 1.465 . S
C326 C321 1.399 1_554 S
C326 C325 1.394 . S
C326 C327 1.516 1_554 S
C327 C326 1.516 1_556 S
C327 C328 1.502 . S
C327 C329 1.561 1_556 S
C327 C330 1.526 1_556 S
C328 H312 0.959 . S
C328 H313 0.959 . S
C328 H314 0.961 . S
C328 C327 1.502 . S
C329 H315 0.960 . S
C329 H316 0.961 . S
C329 H317 0.959 . S
C329 C327 1.561 1_554 S
C330 C327 1.526 1_554 S
C330 C331 1.396 . S
C330 C335 1.389 . S
C331 C325 1.465 . S
C331 C330 1.396 . S
C331 C332 1.399 . S
C332 H318 0.929 . S
C332 C331 1.399 . S
C332 C333 1.385 . S
C333 H319 0.931 . S
C333 C332 1.385 . S
C333 C334 1.389 . S
C334 C333 1.389 . S
C334 C335 1.386 . S
C335 H320 0.930 1_554 S
C335 C330 1.389 . S
C335 C334 1.386 . S
H336 C348 0.930 . S
H337 C350 0.930 . S
H338 C351 0.930 . S
H339 C355 0.959 . S
H340 C355 0.959 . S
H341 C355 0.961 . S
H342 C356 0.960 . S
H343 C356 0.961 . S
H344 C356 0.959 . S
H345 C359 0.929 . S
H346 C360 0.931 . S
H347 C362 0.930 . S
C348 H336 0.930 . S
C348 C349 1.399 1_556 S
C348 C353 1.399 . S
C349 C348 1.399 1_554 S
C349 C350 1.376 . S
C350 H337 0.930 . S
C350 C349 1.376 . S
C350 C351 1.388 . S
C351 H338 0.930 . S
C351 C350 1.388 . S
C351 C352 1.390 . S
C352 C351 1.390 . S
C352 C353 1.394 1_554 S
C352 C358 1.465 . S
C353 C348 1.399 . S
C353 C352 1.394 1_556 S
C353 C354 1.516 . S
C354 C353 1.516 . S
C354 C355 1.502 . S
C354 C356 1.561 . S
C354 C357 1.526 . S
C355 H339 0.959 . S
C355 H340 0.959 . S
C355 H341 0.961 . S
C355 C354 1.502 . S
C356 H342 0.960 . S
C356 H343 0.961 . S
C356 H344 0.959 . S
C356 C354 1.561 . S
C357 C354 1.526 . S
C357 C358 1.396 1_556 S
C357 C362 1.390 . S
C358 C352 1.465 . S
C358 C357 1.396 1_554 S
C358 C359 1.399 . S
C359 H345 0.929 . S
C359 C358 1.399 . S
C359 C360 1.385 . S
C360 H346 0.931 . S
C360 C359 1.385 . S
C360 C361 1.389 . S
C361 C360 1.389 . S
C361 C362 1.387 1_554 S
C362 H347 0.930 . S
C362 C357 1.390 . S
C362 C361 1.387 1_556 S
C133 C15 1.439 . S
C145 C2 1.494 . S
C160 C42 1.423 . S
C172 C55 1.485 1_545 S
C187 C82 1.459 . S
C199 C95 1.471 . S
C214 C9 0.892 . S
C226 C89 0.840 . S
C241 C49 1.952 . S
C253 C3 1.995 . S
C268 C43 2.562 1_554 S
C280 C102 2.599 1_554 S
C295 C26 0.893 . S
C307 C106 0.888 . S
C322 C22 1.997 . S
C334 C66 1.961 . S
C349 C83 2.602 . S
C361 C62 2.574 . S
