# Generated by pormake.
# Topology xfa, (7)-cn, num edge types: 1
# Building blocks:
#     Node 0, Type 0, BuildingBlock: HICVOG_clean_sbu_0, # of connection points: 7
#     Node 1, Type 0, BuildingBlock: HICVOG_clean_sbu_0, # of connection points: 7
#     Node 2, Type 0, BuildingBlock: HICVOG_clean_sbu_0, # of connection points: 7
#     Node 3, Type 0, BuildingBlock: HICVOG_clean_sbu_0, # of connection points: 7
#     Node 4, Type 0, BuildingBlock: HICVOG_clean_sbu_0, # of connection points: 7
#     Node 5, Type 0, BuildingBlock: HICVOG_clean_sbu_0, # of connection points: 7
#     Node 6, Type 0, BuildingBlock: HICVOG_clean_sbu_0, # of connection points: 7
#     Node 7, Type 0, BuildingBlock: HICVOG_clean_sbu_0, # of connection points: 7
#     Edge 8, Type (0, 0), BuildingBlock: XIVTED_clean_linker_0, # of connection points: 2
#     Edge 9, Type (0, 0), BuildingBlock: XIVTED_clean_linker_0, # of connection points: 2
#     Edge 10, Type (0, 0), BuildingBlock: XIVTED_clean_linker_0, # of connection points: 2
#     Edge 11, Type (0, 0), BuildingBlock: XIVTED_clean_linker_0, # of connection points: 2
#     Edge 12, Type (0, 0), BuildingBlock: XIVTED_clean_linker_0, # of connection points: 2
#     Edge 13, Type (0, 0), BuildingBlock: XIVTED_clean_linker_0, # of connection points: 2
#     Edge 14, Type (0, 0), BuildingBlock: XIVTED_clean_linker_0, # of connection points: 2
#     Edge 15, Type (0, 0), BuildingBlock: XIVTED_clean_linker_0, # of connection points: 2
#     Edge 16, Type (0, 0), BuildingBlock: XIVTED_clean_linker_0, # of connection points: 2
#     Edge 17, Type (0, 0), BuildingBlock: XIVTED_clean_linker_0, # of connection points: 2
#     Edge 18, Type (0, 0), BuildingBlock: XIVTED_clean_linker_0, # of connection points: 2
#     Edge 19, Type (0, 0), BuildingBlock: XIVTED_clean_linker_0, # of connection points: 2
#     Edge 20, Type (0, 0), BuildingBlock: XIVTED_clean_linker_0, # of connection points: 2
#     Edge 21, Type (0, 0), BuildingBlock: XIVTED_clean_linker_0, # of connection points: 2
#     Edge 22, Type (0, 0), BuildingBlock: XIVTED_clean_linker_0, # of connection points: 2
#     Edge 23, Type (0, 0), BuildingBlock: XIVTED_clean_linker_0, # of connection points: 2
#     Edge 24, Type (0, 0), BuildingBlock: XIVTED_clean_linker_0, # of connection points: 2
#     Edge 25, Type (0, 0), BuildingBlock: XIVTED_clean_linker_0, # of connection points: 2
#     Edge 26, Type (0, 0), BuildingBlock: XIVTED_clean_linker_0, # of connection points: 2
#     Edge 27, Type (0, 0), BuildingBlock: XIVTED_clean_linker_0, # of connection points: 2
#     Edge 28, Type (0, 0), BuildingBlock: XIVTED_clean_linker_0, # of connection points: 2
#     Edge 29, Type (0, 0), BuildingBlock: XIVTED_clean_linker_0, # of connection points: 2
#     Edge 30, Type (0, 0), BuildingBlock: XIVTED_clean_linker_0, # of connection points: 2
#     Edge 31, Type (0, 0), BuildingBlock: XIVTED_clean_linker_0, # of connection points: 2
#     Edge 32, Type (0, 0), BuildingBlock: XIVTED_clean_linker_0, # of connection points: 2
#     Edge 33, Type (0, 0), BuildingBlock: XIVTED_clean_linker_0, # of connection points: 2
#     Edge 34, Type (0, 0), BuildingBlock: XIVTED_clean_linker_0, # of connection points: 2
#     Edge 35, Type (0, 0), BuildingBlock: XIVTED_clean_linker_0, # of connection points: 2
# Relax obj value: 0.163
# Max RMSD: 0.220
# Mean RMSD: 0.210
data_MOF--net-xfa--node1-HICVOG_clean_sbu_0--edge1-XIVTED_clean_linker_0
_symmetry_space_group_name_H-M    P1
_symmetry_Int_Tables_number       1
_symmetry_cell_setting            triclinic
loop_
_symmetry_equiv_pos_as_xyz
'x, y, z'
_cell_length_a     45.814727
_cell_length_b     45.811137
_cell_length_c     17.851273
_cell_angle_alpha  90.071189
_cell_angle_beta   89.740105
_cell_angle_gamma 89.989643
loop_
_atom_site_label
_atom_site_type_symbol
_atom_site_fract_x
_atom_site_fract_y
_atom_site_fract_z
_atom_type_partial_charge
Zn0 Zn 0.10188 0.28655 0.34766 0.0
C1 C 0.14569 0.23867 0.19819 0.0
N2 N 0.1679 0.24536 0.24377 0.0
C3 C 0.15458 0.25676 0.30411 0.0
N4 N 0.12535 0.2578 0.29464 0.0
N5 N 0.11963 0.24557 0.22909 0.0
C6 C 0.08377 0.25676 0.05547 0.0
O7 O 0.08485 0.2794 0.10062 0.0
O8 O 0.10343 0.27917 0.45849 0.0
Zn9 Zn 0.08173 0.23242 0.19689 0.0
N10 N 0.11959 0.32373 0.32189 0.0
C11 C 0.12796 0.3554 0.21852 0.0
C12 C 0.11514 0.33056 0.2488 0.0
C13 C 0.13622 0.34113 0.36695 0.0
N14 N 0.14487 0.37247 0.26257 0.0
C15 C 0.14939 0.36626 0.33616 0.0
O16 O 0.04902 0.25939 0.22471 0.0
C17 C 0.0415 0.28004 0.2683 0.0
O18 O 0.0592 0.29078 0.3158 0.0
H19 H 0.10204 0.3164 0.21405 0.0
H20 H 0.13987 0.33506 0.42472 0.0
C21 C 0.0479 0.18044 0.23102 0.0
C22 C 0.04178 0.15471 0.2714 0.0
C23 C 0.08755 0.15894 0.33239 0.0
C24 C 0.09342 0.18442 0.29274 0.0
N25 N 0.07354 0.19478 0.24302 0.0
N26 N 0.06193 0.14483 0.32115 0.0
H27 H 0.03219 0.18952 0.19241 0.0
C28 C 0.09124 0.29694 0.50338 0.0
O29 O 0.07845 0.32031 0.4763 0.0
O30 O 0.08192 0.23137 0.08382 0.0
H31 H 0.11356 0.19603 0.30246 0.0
H32 H 0.12477 0.36093 0.16024 0.0
H33 H 0.10312 0.15057 0.37236 0.0
Zn34 Zn 0.30495 0.58042 0.45437 0.0
C35 C 0.28021 0.65308 0.56372 0.0
N36 N 0.29194 0.6666 0.50422 0.0
C37 C 0.29899 0.64455 0.45814 0.0
N38 N 0.29194 0.61838 0.48782 0.0
N39 N 0.2794 0.62385 0.55333 0.0
C40 C 0.2752 0.59007 0.74569 0.0
O41 O 0.2942 0.57573 0.70433 0.0
O42 O 0.30896 0.58097 0.34161 0.0
Zn43 Zn 0.24946 0.60052 0.60217 0.0
N44 N 0.34159 0.5714 0.50403 0.0
C45 C 0.37617 0.5843 0.5975 0.0
C46 C 0.35141 0.59079 0.55587 0.0
C47 C 0.35585 0.54572 0.49156 0.0
N48 N 0.39023 0.55866 0.58567 0.0
C49 C 0.38095 0.53904 0.53361 0.0
O50 O 0.24571 0.55782 0.56963 0.0
C51 C 0.2563 0.54036 0.52095 0.0
O52 O 0.27705 0.54797 0.47765 0.0
H53 H 0.33996 0.61104 0.56558 0.0
H54 H 0.34722 0.53046 0.451 0.0
C55 C 0.19457 0.63433 0.61567 0.0
C56 C 0.17012 0.64785 0.5827 0.0
C57 C 0.18382 0.62796 0.46469 0.0
C58 C 0.20797 0.61483 0.49721 0.0
N59 N 0.21306 0.61836 0.57156 0.0
N60 N 0.16566 0.64424 0.50789 0.0
H61 H 0.19931 0.63719 0.67456 0.0
C62 C 0.28636 0.58952 0.30685 0.0
O63 O 0.26306 0.59677 0.34582 0.0
O64 O 0.25386 0.60271 0.71403 0.0
H65 H 0.22297 0.60218 0.46332 0.0
H66 H 0.38409 0.59946 0.63925 0.0
H67 H 0.17965 0.62551 0.40541 0.0
Zn68 Zn 0.93545 0.7489 0.84743 0.0
C69 C 0.89121 0.79996 0.70709 0.0
N70 N 0.86927 0.79266 0.75332 0.0
C71 C 0.88287 0.78006 0.8112 0.0
N72 N 0.91202 0.77894 0.79961 0.0
N73 N 0.91742 0.79219 0.73513 0.0
C74 C 0.94617 0.7872 0.55328 0.0
O75 O 0.93823 0.7639 0.59105 0.0
O76 O 0.93324 0.75303 0.95944 0.0
Zn77 Zn 0.95547 0.80512 0.70182 0.0
N78 N 0.91754 0.71254 0.81642 0.0
C79 C 0.90743 0.68339 0.70934 0.0
C80 C 0.92076 0.7075 0.74185 0.0
C81 C 0.90169 0.69407 0.86073 0.0
N82 N 0.89125 0.66527 0.75275 0.0
C83 C 0.88797 0.66971 0.82776 0.0
O84 O 0.98775 0.77704 0.72389 0.0
C85 C 0.99548 0.75605 0.76587 0.0
O86 O 0.97813 0.74513 0.8143 0.0
H87 H 0.9333 0.7225 0.7078 0.0
H88 H 0.89906 0.69878 0.9198 0.0
C89 C 0.99039 0.85584 0.73998 0.0
C90 C 0.99719 0.88087 0.78254 0.0
C91 C 0.9521 0.87593 0.84754 0.0
C92 C 0.94551 0.85125 0.80542 0.0
N93 N 0.96473 0.84156 0.75271 0.0
N94 N 0.9777 0.89004 0.83538 0.0
H95 H 1.00552 0.84727 0.69876 0.0
C96 C 0.94662 0.77362 0.99248 0.0
O97 O 0.96198 0.7922 0.95245 0.0
O98 O 0.95517 0.80941 0.58918 0.0
H99 H 0.92531 0.83975 0.81542 0.0
H100 H 0.90963 0.67926 0.64991 0.0
H101 H 0.93707 0.88376 0.88995 0.0
Zn102 Zn 0.78879 0.43487 0.09977 0.0
C103 C 0.73776 0.39119 0.95814 0.0
N104 N 0.74512 0.36904 0.00326 0.0
C105 C 0.75776 0.38239 0.06156 0.0
N106 N 0.7588 0.4116 0.05131 0.0
N107 N 0.74551 0.41727 0.98721 0.0
C108 C 0.7507 0.44648 0.80599 0.0
O109 O 0.77412 0.43883 0.84337 0.0
O110 O 0.78432 0.43277 0.2117 0.0
Zn111 Zn 0.73277 0.45542 0.95485 0.0
N112 N 0.8251 0.4166 0.06922 0.0
C113 C 0.85456 0.40601 0.9626 0.0
C114 C 0.83048 0.41966 0.99476 0.0
C115 C 0.84322 0.40059 0.11375 0.0
N116 N 0.87232 0.38967 0.00623 0.0
C117 C 0.86755 0.38654 0.08113 0.0
O118 O 0.76113 0.48746 0.97702 0.0
C119 C 0.78224 0.49496 0.01878 0.0
O120 O 0.79302 0.47749 0.06683 0.0
H121 H 0.81574 0.43231 0.96051 0.0
H122 H 0.83825 0.39808 0.17273 0.0
C123 C 0.68163 0.4901 0.99181 0.0
C124 C 0.65659 0.49705 0.03447 0.0
C125 C 0.66246 0.45297 0.10268 0.0
C126 C 0.68715 0.44622 0.06043 0.0
N127 N 0.69639 0.46489 0.00612 0.0
N128 N 0.64789 0.47814 0.08898 0.0
H129 H 0.68981 0.5048 0.94922 0.0
C130 C 0.76326 0.44551 0.24484 0.0
O131 O 0.74421 0.46018 0.20496 0.0
O132 O 0.7284 0.45519 0.8423 0.0
H133 H 0.69901 0.42635 0.07153 0.0
H134 H 0.85895 0.40808 0.90325 0.0
H135 H 0.655 0.43838 0.14636 0.0
Zn136 Zn 0.59601 0.25284 0.39084 0.0
C137 C 0.63387 0.30456 0.5436 0.0
N138 N 0.65773 0.29964 0.50189 0.0
C139 C 0.64693 0.28543 0.44224 0.0
N140 N 0.61768 0.28177 0.44778 0.0
N141 N 0.6095 0.29433 0.51123 0.0
C142 C 0.57135 0.28182 0.68236 0.0
O143 O 0.57209 0.25916 0.6372 0.0
O144 O 0.59746 0.26197 0.28043 0.0
Zn145 Zn 0.57104 0.30628 0.54066 0.0
N146 N 0.61549 0.21624 0.41279 0.0
C147 C 0.62713 0.18442 0.51353 0.0
C148 C 0.61276 0.20888 0.48619 0.0
C149 C 0.63189 0.19974 0.36465 0.0
N150 N 0.64382 0.16825 0.46634 0.0
C151 C 0.6466 0.17502 0.39245 0.0
O152 O 0.53975 0.27837 0.50974 0.0
C153 C 0.53409 0.25688 0.4671 0.0
O154 O 0.55323 0.24638 0.42243 0.0
H155 H 0.59984 0.22237 0.52345 0.0
H156 H 0.63418 0.20623 0.30664 0.0
C157 C 0.53773 0.35891 0.50908 0.0
C158 C 0.53207 0.38496 0.4697 0.0
C159 C 0.57774 0.38024 0.40746 0.0
C160 C 0.58316 0.35447 0.44608 0.0
N161 N 0.56311 0.34418 0.49591 0.0
N162 N 0.55239 0.39473 0.41981 0.0
H163 H 0.52188 0.34996 0.54786 0.0
C164 C 0.5848 0.24468 0.23539 0.0
O165 O 0.57198 0.22124 0.26223 0.0
O166 O 0.57034 0.30726 0.65392 0.0
H167 H 0.60307 0.34256 0.43519 0.0
H168 H 0.62533 0.17848 0.57201 0.0
H169 H 0.59344 0.38854 0.36737 0.0
Zn170 Zn 0.23051 0.06927 0.78202 0.0
C171 C 0.25241 0.14425 0.68084 0.0
N172 N 0.23909 0.15591 0.74099 0.0
C173 C 0.23361 0.13255 0.78372 0.0
N174 N 0.24278 0.10761 0.75164 0.0
N175 N 0.2552 0.11492 0.68727 0.0
C176 C 0.25868 0.0816 0.49208 0.0
O177 O 0.23974 0.06743 0.5339 0.0
O178 O 0.22543 0.06946 0.89479 0.0
Zn179 Zn 0.28561 0.09294 0.63539 0.0
N180 N 0.1944 0.05989 0.73013 0.0
C181 C 0.1619 0.07171 0.63099 0.0
C182 C 0.18617 0.0783 0.67434 0.0
C183 C 0.1789 0.03513 0.74501 0.0
N184 N 0.14666 0.04697 0.64514 0.0
C185 C 0.15426 0.02836 0.70117 0.0
O186 O 0.29176 0.05044 0.66945 0.0
C187 C 0.28161 0.03217 0.71681 0.0
O188 O 0.25993 0.03836 0.75862 0.0
H189 H 0.19858 0.09778 0.66259 0.0
H190 H 0.18618 0.02061 0.78889 0.0
C191 C 0.33942 0.12836 0.61702 0.0
C192 C 0.36335 0.14338 0.64825 0.0
C193 C 0.35032 0.12542 0.76861 0.0
C194 C 0.32664 0.11082 0.73783 0.0
N195 N 0.32146 0.11266 0.66313 0.0
N196 N 0.3679 0.14145 0.7234 0.0
H197 H 0.33463 0.12988 0.55784 0.0
C198 C 0.2487 0.07543 0.93032 0.0
O199 O 0.27273 0.08033 0.89189 0.0
O200 O 0.28005 0.09441 0.52332 0.0
H201 H 0.31205 0.09839 0.77335 0.0
H202 H 0.15531 0.08607 0.58605 0.0
H203 H 0.35454 0.12431 0.82811 0.0
Zn204 Zn 0.44364 0.78422 0.893 0.0
C205 C 0.40391 0.73377 0.04388 0.0
N206 N 0.38044 0.73931 0.00179 0.0
C207 C 0.39204 0.75212 0.9409 0.0
N208 N 0.4214 0.75458 0.9464 0.0
N209 N 0.42885 0.74241 0.0107 0.0
C210 C 0.46132 0.74854 0.18791 0.0
O211 O 0.45637 0.77254 0.14976 0.0
O212 O 0.441 0.7786 0.7813 0.0
Zn213 Zn 0.46715 0.72961 0.03959 0.0
N214 N 0.42557 0.82082 0.92221 0.0
C215 C 0.41669 0.85146 0.02749 0.0
C216 C 0.42973 0.82696 -0.00415 0.0
C217 C 0.40901 0.83856 0.87796 0.0
N218 N 0.39981 0.86885 0.98424 0.0
C219 C 0.39555 0.86331 0.91013 0.0
O220 O 0.49889 0.75788 0.01332 0.0
C221 C 0.50513 0.77887 0.96953 0.0
O222 O 0.48656 0.78899 0.92325 0.0
H223 H 0.44281 0.81253 0.02991 0.0
H224 H 0.40564 0.833 0.8197 0.0
C225 C 0.50016 0.67733 0.00348 0.0
C226 C 0.50613 0.65184 0.96178 0.0
C227 C 0.46188 0.65861 0.89518 0.0
C228 C 0.45609 0.68373 0.93648 0.0
N229 N 0.47532 0.69276 0.9895 0.0
N230 N 0.48669 0.64338 0.90852 0.0
H231 H 0.51531 0.68531 0.04507 0.0
C232 C 0.45363 0.75718 0.74944 0.0
O233 O 0.46803 0.73831 0.79057 0.0
O234 O 0.46731 0.72524 0.15221 0.0
H235 H 0.43654 0.69611 0.92546 0.0
H236 H 0.41966 0.85647 0.0862 0.0
H237 H 0.44686 0.65132 0.85248 0.0
Zn238 Zn 0.75385 0.94188 0.13847 0.0
C239 C 0.80423 0.90409 0.29313 0.0
N240 N 0.79891 0.88009 0.25255 0.0
C241 C 0.78534 0.89085 0.19199 0.0
N242 N 0.78245 0.9202 0.19591 0.0
N243 N 0.79483 0.9285 0.25923 0.0
C244 C 0.78321 0.96683 0.4304 0.0
O245 O 0.76029 0.96643 0.38644 0.0
O246 O 0.76256 0.93979 0.02766 0.0
Zn247 Zn 0.80721 0.96696 0.28741 0.0
N248 N 0.71695 0.9233 0.16278 0.0
C249 C 0.68468 0.91422 0.26488 0.0
C250 C 0.70938 0.92771 0.23559 0.0
C251 C 0.70047 0.90601 0.11709 0.0
N252 N 0.66851 0.89667 0.22019 0.0
C253 C 0.6755 0.89218 0.14689 0.0
O254 O 0.77962 0.99859 0.25616 0.0
C255 C 0.75845 1.00412 0.21257 0.0
O256 O 0.74819 0.98483 0.16833 0.0
H257 H 0.72287 0.94128 0.27094 0.0
H258 H 0.70714 0.90237 0.0596 0.0
C259 C 0.86019 0.99959 0.25401 0.0
C260 C 0.8863 1.00483 0.2141 0.0
C261 C 0.88107 0.95904 0.15321 0.0
C262 C 0.85525 0.95402 0.19236 0.0
N263 N 0.84516 0.97434 0.24175 0.0
N264 N 0.89584 0.98427 0.16463 0.0
H265 H 0.85142 1.01564 0.29252 0.0
C266 C 0.74469 0.95201 0.98342 0.0
O267 O 0.72123 0.96446 0.01156 0.0
O268 O 0.80848 0.96772 0.40064 0.0
H269 H 0.84314 0.9342 0.18229 0.0
H270 H 0.67857 0.91737 0.32293 0.0
H271 H 0.88921 0.94312 0.11346 0.0
H272 H 0.20303 0.38483 0.2957 0.0
H273 H 0.20593 0.51754 0.58381 0.0
H274 H 0.13894 0.3935 0.47169 0.0
H275 H 0.27633 0.49608 0.43182 0.0
H276 H 0.18224 0.47111 0.55157 0.0
H277 H 0.23155 0.42382 0.35246 0.0
C278 C 0.19525 0.3947 0.34727 0.0
C279 C 0.16869 0.38593 0.3792 0.0
C280 C 0.20305 0.47647 0.52612 0.0
C281 C 0.20084 0.4314 0.44381 0.0
C282 C 0.21662 0.50297 0.5445 0.0
C283 C 0.24305 0.51101 0.50986 0.0
C284 C 0.21596 0.45794 0.47254 0.0
C285 C 0.25583 0.49115 0.4594 0.0
C286 C 0.2115 0.41705 0.37966 0.0
C287 C 0.15949 0.3995 0.44582 0.0
N288 N 0.24207 0.46581 0.4419 0.0
N289 N 0.17534 0.42194 0.47541 0.0
H290 H 0.03951 0.77701 0.6775 0.0
H291 H 0.14439 0.63799 0.72092 0.0
H292 H 0.01868 0.70532 0.82517 0.0
H293 H 0.14777 0.69962 0.53877 0.0
H294 H 0.1043 0.66652 0.77764 0.0
H295 H 0.08527 0.7532 0.64514 0.0
C296 C 0.0446 0.75633 0.70371 0.0
C297 C 0.02487 0.74302 0.75349 0.0
C298 C 0.11415 0.67393 0.72579 0.0
C299 C 0.07765 0.71539 0.71602 0.0
C300 C 0.13714 0.65782 0.69381 0.0
C301 C 0.14933 0.66648 0.625 0.0
C302 C 0.1037 0.69897 0.68901 0.0
C303 C 0.13886 0.69209 0.59162 0.0
C304 C 0.07083 0.74269 0.68503 0.0
C305 C 0.03308 0.71632 0.78617 0.0
N306 N 0.1167 0.70732 0.62375 0.0
N307 N 0.05875 0.70323 0.76634 0.0
H308 H 0.83322 0.51764 0.07786 0.0
H309 H 0.83512 0.6492 0.7871 0.0
H310 H 0.76192 0.53907 0.93042 0.0
H311 H 0.89896 0.6424 0.96282 0.0
H312 H 0.80727 0.60988 0.8447 0.0
H313 H 0.857 0.56381 0.04315 0.0
C314 C 0.82237 0.53214 0.03905 0.0
C315 C 0.79563 0.52417 0.00641 0.0
C316 C 0.82714 0.6171 0.87157 0.0
C317 C 0.82282 0.5769 0.96622 0.0
C318 C 0.84305 0.63961 0.83861 0.0
C319 C 0.86934 0.64906 0.87027 0.0
C320 C 0.83782 0.60329 0.93612 0.0
C321 C 0.87863 0.63586 0.93704 0.0
C322 C 0.83598 0.55849 0.01925 0.0
C323 C 0.78265 0.54394 0.95649 0.0
N324 N 0.8631 0.6133 0.96727 0.0
N325 N 0.79645 0.5691 0.93756 0.0
H326 H 0.01913 0.33102 0.32898 0.0
H327 H 0.887 0.33309 0.04141 0.0
H328 H 0.99678 0.2594 0.18263 0.0
H329 H 0.89502 0.39771 0.21574 0.0
H330 H 0.92591 0.30486 0.09905 0.0
H331 H 0.97293 0.35493 0.29584 0.0
C332 C 1.0044 0.32011 0.29083 0.0
C333 C 1.01213 0.29327 0.25789 0.0
C334 C 0.91903 0.32499 0.12564 0.0
C335 C 0.95938 0.32061 0.21944 0.0
C336 C 0.89676 0.3411 0.09266 0.0
C337 C 0.8878 0.36772 0.12388 0.0
C338 C 0.93309 0.33579 0.18973 0.0
C339 C 0.90118 0.37714 0.1903 0.0
C340 C 0.97803 0.3338 0.2719 0.0
C341 C 0.99208 0.28021 0.20884 0.0
N342 N 0.92353 0.36139 0.22051 0.0
N343 N 0.96692 0.2941 0.19069 0.0
H344 H 0.70352 0.16353 0.41609 0.0
H345 H 0.70528 0.02213 0.15618 0.0
H346 H 0.63282 0.14308 0.2668 0.0
H347 H 0.77874 0.05244 0.28536 0.0
H348 H 0.67981 0.06808 0.18434 0.0
H349 H 0.73299 0.12549 0.35721 0.0
C350 C 0.69448 0.15133 0.3696 0.0
C351 C 0.66586 0.15647 0.34587 0.0
C352 C 0.70167 0.06478 0.20556 0.0
C353 C 0.69906 0.112 0.27954 0.0
C354 C 0.71626 0.03856 0.1894 0.0
C355 C 0.7441 0.03316 0.21923 0.0
C356 C 0.71501 0.08569 0.25193 0.0
C357 C 0.75718 0.05533 0.2619 0.0
C358 C 0.71123 0.12949 0.33612 0.0
C359 C 0.65498 0.13991 0.286 0.0
N360 N 0.74246 0.08035 0.27745 0.0
N361 N 0.67144 0.11803 0.25554 0.0
H362 H 0.39199 0.13087 0.5153 0.0
H363 H 0.48623 0.27798 0.54061 0.0
H364 H 0.38106 0.19793 0.68264 0.0
H365 H 0.5157 0.20303 0.41438 0.0
H366 H 0.4413 0.25228 0.57062 0.0
H367 H 0.43117 0.16019 0.45692 0.0
C368 C 0.39737 0.15203 0.5386 0.0
C369 C 0.38334 0.16207 0.60384 0.0
C370 C 0.45744 0.24145 0.53584 0.0
C371 C 0.42787 0.19545 0.53799 0.0
C372 C 0.48319 0.25617 0.51848 0.0
C373 C 0.50511 0.24255 0.47568 0.0
C374 C 0.45331 0.21272 0.51064 0.0
C375 C 0.49952 0.21434 0.44791 0.0
C376 C 0.41984 0.16859 0.50576 0.0
C377 C 0.39141 0.18937 0.63257 0.0
N378 N 0.47428 0.2002 0.46655 0.0
N379 N 0.41308 0.20501 0.59966 0.0
H380 H 0.33411 1.0122 0.65833 0.0
H381 H 0.34286 0.88326 0.95465 0.0
H382 H 0.26318 0.98701 0.80463 0.0
H383 H 0.40442 0.88933 0.77207 0.0
H384 H 0.31336 0.92115 0.89674 0.0
H385 H 0.36023 0.96743 0.69414 0.0
C386 C 0.32383 0.99716 0.69705 0.0
C387 C 0.29648 1.00368 0.7291 0.0
C388 C 0.33308 0.91405 0.86843 0.0
C389 C 0.32635 0.95264 0.77062 0.0
C390 C 0.34993 0.89237 0.9016 0.0
C391 C 0.37603 0.88311 0.868 0.0
C392 C 0.34261 0.92723 0.80165 0.0
C393 C 0.38425 0.89571 0.79935 0.0
C394 C 0.33878 0.97162 0.71746 0.0
C395 C 0.2843 0.98327 0.77897 0.0
N396 N 0.36779 0.9175 0.76884 0.0
N397 N 0.2994 0.95899 0.7986 0.0
H398 H 0.66084 0.83697 0.18314 0.0
H399 H 0.52493 0.83062 0.9078 0.0
H400 H 0.64661 0.90253 0.01447 0.0
H401 H 0.55166 0.75973 0.05113 0.0
H402 H 0.57074 0.85601 0.93691 0.0
H403 H 0.62296 0.80689 0.12666 0.0
C404 C 0.65003 0.84473 0.13309 0.0
C405 C 0.65688 0.87213 0.10316 0.0
C406 C 0.56668 0.83472 0.96108 0.0
C407 C 0.61262 0.83824 0.03916 0.0
C408 C 0.54053 0.82018 0.94445 0.0
C409 C 0.53415 0.79311 0.97778 0.0
C410 C 0.58651 0.82213 0.01157 0.0
C411 C 0.5553 0.78069 0.02478 0.0
C412 C 0.62829 0.82761 0.1009 0.0
C413 C 0.6421 0.88134 0.03865 0.0
N414 N 0.58025 0.79539 0.04072 0.0
N415 N 0.62027 0.86461 0.00937 0.0
H416 H 0.25698 0.14594 0.91642 0.0
H417 H 0.11631 0.19023 0.14263 0.0
H418 H 0.17491 0.12901 0.80811 0.0
H419 H 0.18946 0.24726 0.10156 0.0
H420 H 0.13507 0.15685 0.04506 0.0
H421 H 0.23077 0.16896 0.02051 0.0
C422 C 0.23332 0.14599 0.91636 0.0
C423 C 0.21792 0.13537 0.85476 0.0
C424 C 0.14657 0.17696 0.05705 0.0
C425 C 0.18804 0.16262 0.97114 0.0
C426 C 0.13569 0.19619 0.11169 0.0
C427 C 0.15117 0.22173 0.12939 0.0
C428 C 0.17347 0.18309 0.0227 0.0
C429 C 0.17681 0.22786 0.08942 0.0
C430 C 0.21844 0.15942 0.97497 0.0
C431 C 0.18732 0.13663 0.85577 0.0
N432 N 0.18738 0.2085 0.03889 0.0
N433 N 0.17319 0.15053 0.91292 0.0
H434 H 0.38939 0.75723 0.1762 0.0
H435 H 0.34885 0.61669 0.40569 0.0
H436 H 0.409 0.67522 0.06907 0.0
H437 H 0.28942 0.68735 0.36011 0.0
H438 H 0.38212 0.63593 0.30818 0.0
H439 H 0.36699 0.73078 0.28059 0.0
C440 C 0.39002 0.73357 0.17642 0.0
C441 C 0.40121 0.71824 0.11503 0.0
C442 C 0.36152 0.64675 0.31915 0.0
C443 C 0.37474 0.68804 0.23188 0.0
C444 C 0.3424 0.6356 0.37371 0.0
C445 C 0.31618 0.65024 0.3899 0.0
C446 C 0.35456 0.67312 0.2835 0.0
C447 C 0.30934 0.67534 0.34894 0.0
C448 C 0.37698 0.71855 0.23524 0.0
C449 C 0.40091 0.68761 0.11651 0.0
N450 N 0.32858 0.68622 0.29851 0.0
N451 N 0.38737 0.67331 0.17386 0.0
H452 H 0.92091 0.84862 0.65359 0.0
H453 H 0.78183 0.89726 0.43112 0.0
H454 H 0.84635 0.79342 0.61375 0.0
H455 H 0.8632 0.90406 0.31072 0.0
H456 H 0.80795 0.87594 0.53724 0.0
H457 H 0.90293 0.88248 0.55649 0.0
C458 C 0.90134 0.84319 0.62308 0.0
C459 C 0.88539 0.81789 0.64041 0.0
C460 C 0.8202 0.88308 0.48853 0.0
C461 C 0.86391 0.85716 0.53496 0.0
C462 C 0.80541 0.89549 0.42863 0.0
C463 C 0.82057 0.90261 0.36312 0.0
C464 C 0.85023 0.87754 0.4822 0.0
C465 C 0.851 0.89916 0.36125 0.0
C466 C 0.89091 0.8627 0.56887 0.0
C467 C 0.85942 0.81256 0.60163 0.0
N468 N 0.86497 0.88635 0.41982 0.0
N469 N 0.8493 0.83219 0.55155 0.0
H470 H 0.63943 0.28288 0.68242 0.0
H471 H 0.6889 0.42092 0.90716 0.0
H472 H 0.63524 0.3636 0.55956 0.0
H473 H 0.74458 0.34702 0.86202 0.0
H474 H 0.65506 0.40338 0.80951 0.0
H475 H 0.66064 0.30923 0.78857 0.0
C476 C 0.6417 0.3064 0.67938 0.0
C477 C 0.63536 0.32129 0.61322 0.0
C478 C 0.67495 0.39142 0.82083 0.0
C479 C 0.66024 0.35117 0.73238 0.0
C480 C 0.69443 0.40161 0.87536 0.0
C481 C 0.71985 0.3857 0.89135 0.0
C482 C 0.68064 0.3647 0.78523 0.0
C483 C 0.72534 0.36004 0.85093 0.0
C484 C 0.65403 0.32131 0.73932 0.0
C485 C 0.63953 0.35162 0.6106 0.0
N486 N 0.70573 0.35013 0.80054 0.0
N487 N 0.65223 0.36569 0.66925 0.0
H488 H 0.07188 0.3328 0.61531 0.0
H489 H 0.09386 0.2163 0.9441 0.0
H490 H 0.10914 0.24747 0.57686 0.0
H491 H 0.07626 0.30781 0.98059 0.0
H492 H 0.09616 0.22559 0.80863 0.0
H493 H 0.06997 0.32239 0.74914 0.0
C494 C 0.07969 0.31187 0.63501 0.0
C495 C 0.09067 0.29099 0.58478 0.0
C496 C 0.0918 0.24358 0.84648 0.0
C497 C 0.08843 0.27883 0.73824 0.0
C498 C 0.09035 0.23827 0.92362 0.0
C499 C 0.0848 0.26131 0.97359 0.0
C500 C 0.08736 0.27205 0.81943 0.0
C501 C 0.08066 0.28939 0.94419 0.0
C502 C 0.07864 0.30594 0.71152 0.0
C503 C 0.10053 0.26423 0.61365 0.0
N504 N 0.08192 0.29393 0.86919 0.0
N505 N 0.09907 0.25886 0.68853 0.0
H506 H 0.24297 0.61129 0.21909 0.0
H507 H 0.31962 0.56799 0.83117 0.0
H508 H 0.32864 0.57229 0.20611 0.0
H509 H 0.23841 0.61541 0.84798 0.0
H510 H 0.32377 0.56937 0.96776 0.0
H511 H 0.24137 0.61303 0.08288 0.0
C512 C 0.2615 0.60309 0.18758 0.0
C513 C 0.2859 0.59142 0.22415 0.0
C514 C 0.3051 0.57955 0.9415 0.0
C515 C 0.28418 0.59333 0.06751 0.0
C516 C 0.30268 0.57873 0.86351 0.0
C517 C 0.27853 0.59144 0.82805 0.0
C518 C 0.28314 0.59307 0.98437 0.0
C519 C 0.25735 0.6052 0.87283 0.0
C520 C 0.26059 0.60415 0.10963 0.0
C521 C 0.30933 0.58135 0.18022 0.0
N522 N 0.2601 0.60553 0.94856 0.0
N523 N 0.30783 0.58238 0.10412 0.0
H524 H 0.96432 0.82981 0.45512 0.0
H525 H 0.91846 0.73787 0.09191 0.0
H526 H 0.92429 0.74455 0.46283 0.0
H527 H 0.97011 0.81658 0.08084 0.0
H528 H 0.91655 0.74258 0.22797 0.0
H529 H 0.96285 0.82791 0.31791 0.0
C530 C 0.95517 0.81074 0.42803 0.0
C531 C 0.94464 0.7872 0.47052 0.0
C532 C 0.9283 0.75885 0.19585 0.0
C533 C 0.94279 0.78494 0.31387 0.0
C534 C 0.92938 0.75619 0.11806 0.0
C535 C 0.94468 0.77673 0.07487 0.0
C536 C 0.94252 0.7823 0.23098 0.0
C537 C 0.95825 0.80011 0.11194 0.0
C538 C 0.95437 0.80966 0.34976 0.0
C539 C 0.93287 0.76313 0.43246 0.0
N540 N 0.95691 0.80223 0.1879 0.0
N541 N 0.93232 0.76261 0.35645 0.0
H542 H 0.79996 0.41879 0.34384 0.0
H543 H 0.70755 0.46349 0.70867 0.0
H544 H 0.71978 0.46814 0.33385 0.0
H545 H 0.79375 0.42552 0.71466 0.0
H546 H 0.70924 0.46174 0.57141 0.0
H547 H 0.79559 0.41733 0.47998 0.0
C548 C 0.78139 0.42929 0.37024 0.0
C549 C 0.76032 0.4438 0.32732 0.0
C550 C 0.72774 0.45378 0.6029 0.0
C551 C 0.75514 0.44218 0.48358 0.0
C552 C 0.72678 0.45475 0.6812 0.0
C553 C 0.75064 0.44486 0.72322 0.0
C554 C 0.75267 0.44268 0.56652 0.0
C555 C 0.77493 0.43359 0.68467 0.0
C556 C 0.77891 0.42847 0.44809 0.0
C557 C 0.73664 0.45687 0.36474 0.0
N558 N 0.77532 0.43286 0.60866 0.0
N559 N 0.73472 0.4558 0.44077 0.0
H560 H 0.6032 0.29416 0.16175 0.0
H561 H 0.56301 0.23096 0.75749 0.0
H562 H 0.56381 0.20985 0.12388 0.0
H563 H 0.58335 0.32188 0.79357 0.0
H564 H 0.56683 0.22243 0.8915 0.0
H565 H 0.5998 0.30425 0.02707 0.0
C566 C 0.5939 0.27776 0.12519 0.0
C567 C 0.58372 0.25111 0.15419 0.0
C568 C 0.57037 0.2443 0.8704 0.0
C569 C 0.57985 0.26252 0.00041 0.0
C570 C 0.56823 0.24921 0.7937 0.0
C571 C 0.57275 0.27722 0.76426 0.0
C572 C 0.57736 0.2675 0.91851 0.0
C573 C 0.57945 0.29999 0.81406 0.0
C574 C 0.59189 0.28359 0.04844 0.0
C575 C 0.57188 0.2307 0.10422 0.0
N576 N 0.58169 0.29461 0.8889 0.0
N577 N 0.57034 0.23681 0.02996 0.0
H578 H 0.21382 0.05977 0.40734 0.0
H579 H 0.29284 0.0957 0.0179 0.0
H580 H 0.29603 0.10524 0.38851 0.0
H581 H 0.20523 0.06141 0.03132 0.0
H582 H 0.29408 0.09895 0.15395 0.0
H583 H 0.20992 0.0598 0.27056 0.0
C584 C 0.23103 0.06981 0.37453 0.0
C585 C 0.2554 0.08236 0.40954 0.0
C586 C 0.27452 0.09076 0.12736 0.0
C587 C 0.25107 0.0824 0.25294 0.0
C588 C 0.27382 0.0888 0.04948 0.0
C589 C 0.24897 0.078 0.01304 0.0
C590 C 0.25028 0.08169 0.16968 0.0
C591 C 0.2249 0.06971 0.0571 0.0
C592 C 0.22874 0.06987 0.29642 0.0
C593 C 0.27691 0.09521 0.3641 0.0
N594 N 0.22621 0.07155 0.1332 0.0
N595 N 0.27431 0.09475 0.28831 0.0
H596 H 0.4415 0.79287 0.27651 0.0
H597 H 0.47511 0.71227 0.66353 0.0
H598 H 0.47445 0.70472 0.28766 0.0
H599 H 0.43016 0.79483 0.64712 0.0
H600 H 0.47538 0.70877 0.52667 0.0
H601 H 0.43765 0.79375 0.41258 0.0
C602 C 0.44799 0.77367 0.3076 0.0
C603 C 0.45858 0.74876 0.27057 0.0
C604 C 0.46535 0.72757 0.55308 0.0
C605 C 0.45419 0.74963 0.42707 0.0
C606 C 0.46522 0.72963 0.63122 0.0
C607 C 0.45277 0.75399 0.66692 0.0
C608 C 0.45311 0.75014 0.51027 0.0
C609 C 0.44012 0.7757 0.62214 0.0
C610 C 0.44568 0.77416 0.38545 0.0
C611 C 0.46634 0.72444 0.31394 0.0
N612 N 0.44078 0.77334 0.54628 0.0
N613 N 0.46416 0.72554 0.38999 0.0
H614 H 0.7084 0.9718 0.874 0.0
H615 H 0.82397 0.95425 0.53888 0.0
H616 H 0.79428 0.93533 0.90685 0.0
H617 H 0.73282 0.97472 0.50877 0.0
H618 H 0.81517 0.94978 0.67435 0.0
H619 H 0.71849 0.97545 0.74033 0.0
C620 C 0.7294 0.96449 0.8531 0.0
C621 C 0.75052 0.95326 0.90182 0.0
C622 C 0.79717 0.95529 0.63792 0.0
C623 C 0.76234 0.95753 0.74815 0.0
C624 C 0.8022 0.95801 0.56077 0.0
C625 C 0.77911 0.96498 0.51252 0.0
C626 C 0.76892 0.95988 0.6668 0.0
C627 C 0.75128 0.96929 0.54373 0.0
C628 C 0.73516 0.96656 0.77658 0.0
C629 C 0.77734 0.9441 0.87127 0.0
N630 N 0.74702 0.96676 0.61868 0.0
N631 N 0.78255 0.94654 0.79635 0.0
H632 H 0.22387 0.12669 0.55695 0.0
H633 H 0.13229 0.22837 0.42452 0.0
H634 H 0.27211 0.19892 0.64899 0.0
H635 H 0.20989 0.27173 0.34447 0.0
H636 H 0.1622 0.20045 0.51176 0.0
H637 H 0.19983 0.16021 0.47069 0.0
C638 C 0.23074 0.14929 0.55596 0.0
C639 C 0.25029 0.16 0.60945 0.0
C640 C 0.17251 0.21668 0.47637 0.0
C641 C 0.22166 0.19862 0.51429 0.0
C642 C 0.15538 0.23325 0.4281 0.0
C643 C 0.16866 0.25243 0.37721 0.0
C644 C 0.203 0.2196 0.47417 0.0
C645 C 0.1989 0.25716 0.38309 0.0
C646 C 0.21632 0.16854 0.50844 0.0
C647 C 0.25733 0.18987 0.60788 0.0
N648 N 0.21526 0.24048 0.43001 0.0
N649 N 0.24273 0.20836 0.56158 0.0
H650 H 0.40935 0.72228 0.81846 0.0
H651 H 0.26071 0.70631 0.61063 0.0
H652 H 0.3374 0.77183 0.9087 0.0
H653 H 0.31337 0.63291 0.67678 0.0
H654 H 0.28785 0.73726 0.69919 0.0
H655 H 0.37589 0.69824 0.73217 0.0
C656 C 0.38684 0.72943 0.81701 0.0
C657 C 0.3762 0.74942 0.86987 0.0
C658 C 0.29271 0.71416 0.69575 0.0
C659 C 0.33761 0.72095 0.77417 0.0
C660 C 0.2769 0.6964 0.6466 0.0
C661 C 0.28452 0.66689 0.63723 0.0
C662 C 0.31672 0.70234 0.73343 0.0
C663 C 0.3063 0.6553 0.68335 0.0
C664 C 0.3676 0.71504 0.76939 0.0
C665 C 0.34642 0.75677 0.86792 0.0
N666 N 0.32222 0.67322 0.72785 0.0
N667 N 0.32794 0.74228 0.82129 0.0
H668 H 0.90434 0.81115 0.92659 0.0
H669 H 0.76509 0.83587 0.167 0.0
H670 H 0.82931 0.76128 0.85808 0.0
H671 H 0.81261 0.90647 0.06404 0.0
H672 H 0.78849 0.80153 0.07906 0.0
H673 H 0.87378 0.83755 0.01589 0.0
C674 C 0.88185 0.80442 0.93361 0.0
C675 C 0.86943 0.7837 0.88555 0.0
C676 C 0.79298 0.82467 0.07449 0.0
C677 C 0.83412 0.81484 0.98484 0.0
C678 C 0.77929 0.84429 0.12342 0.0
C679 C 0.78671 0.87405 0.12201 0.0
C680 C 0.81479 0.83498 0.02612 0.0
C681 C 0.80588 0.88382 0.06609 0.0
C682 C 0.86424 0.82015 0.98292 0.0
C683 C 0.8397 0.77691 0.89488 0.0
N684 N 0.81997 0.8642 0.02181 0.0
N685 N 0.82281 0.79276 0.94298 0.0
H686 H 0.62977 0.31077 0.31345 0.0
H687 H 0.77808 0.32927 0.1063 0.0
H688 H 0.70242 0.26667 0.41597 0.0
H689 H 0.72558 0.40233 0.1774 0.0
H690 H 0.75153 0.298 0.19581 0.0
H691 H 0.66358 0.33407 0.22566 0.0
C692 C 0.6526 0.30461 0.31463 0.0
C693 C 0.66335 0.28659 0.37149 0.0
C694 C 0.74661 0.3211 0.1932 0.0
C695 C 0.70207 0.31398 0.27358 0.0
C696 C 0.76209 0.33905 0.14355 0.0
C697 C 0.75429 0.36854 0.13528 0.0
C698 C 0.72275 0.33275 0.23246 0.0
C699 C 0.73276 0.37995 0.18306 0.0
C700 C 0.67195 0.31854 0.26595 0.0
C701 C 0.69338 0.28028 0.37227 0.0
N702 N 0.71712 0.36185 0.22796 0.0
N703 N 0.71192 0.29429 0.32455 0.0
H704 H 1.00999 0.14503 0.14273 0.0
H705 H 0.89695 0.03626 0.34317 0.0
H706 H 1.01133 0.12568 0.37921 0.0
H707 H 0.9162 0.03438 0.10637 0.0
H708 H 0.93101 0.07721 0.35721 0.0
H709 H 0.96775 0.11262 0.12901 0.0
C710 C 1.00109 0.13444 0.19198 0.0
C711 C 1.01426 0.13802 0.26224 0.0
C712 C 0.92747 0.06802 0.30208 0.0
C713 C 0.9661 0.10083 0.24682 0.0
C714 C 0.90787 0.04481 0.29394 0.0
C715 C 0.90379 0.03183 0.22348 0.0
C716 C 0.94283 0.07849 0.23924 0.0
C717 C 0.91889 0.04357 0.16182 0.0
C718 C 0.97713 0.11577 0.18401 0.0
C719 C 1.00201 0.12334 0.32389 0.0
N720 N 0.93776 0.06615 0.17112 0.0
N721 N 0.9787 0.10537 0.31476 0.0
H722 H 0.50064 0.39503 0.59954 0.0
H723 H 0.39151 0.50817 0.4033 0.0
H724 H 0.50209 0.41474 0.36325 0.0
H725 H 0.40939 0.50782 0.64047 0.0
H726 H 0.42413 0.46619 0.38794 0.0
H727 H 0.45933 0.42862 0.61509 0.0
C728 C 0.49193 0.40595 0.55073 0.0
C729 C 0.50489 0.40215 0.47998 0.0
C730 C 0.42062 0.47513 0.44345 0.0
C731 C 0.45784 0.44067 0.49747 0.0
C732 C 0.40181 0.49895 0.45235 0.0
C733 C 0.39774 0.51159 0.52332 0.0
C734 C 0.43527 0.46372 0.50596 0.0
C735 C 0.4121 0.49893 0.58463 0.0
C736 C 0.46851 0.42528 0.55973 0.0
C737 C 0.49293 0.41723 0.41891 0.0
N738 N 0.43026 0.47579 0.57455 0.0
N739 N 0.47018 0.43586 0.42905 0.0
H740 H 0.12684 0.99564 0.59559 0.0
H741 H 0.02789 0.91023 0.88895 0.0
H742 H 0.13968 1.00129 0.83446 0.0
H743 H 0.02866 0.89064 0.6524 0.0
H744 H 0.06994 0.94223 0.87075 0.0
H745 H 0.09227 0.95582 0.61542 0.0
C746 C 0.12261 0.98828 0.65227 0.0
C747 C 0.13619 1.00188 0.71344 0.0
C748 C 0.06118 0.93065 0.82295 0.0
C749 C 0.09621 0.95642 0.73667 0.0
C750 C 0.03708 0.91243 0.83322 0.0
C751 C 0.02465 0.89767 0.77215 0.0
C752 C 0.07276 0.93463 0.75078 0.0
C753 C 0.03762 0.90127 0.70132 0.0
C754 C 0.1029 0.96547 0.66351 0.0
C755 C 0.12997 0.99131 0.78557 0.0
N756 N 0.06074 0.91964 0.69248 0.0
N757 N 0.11015 0.96946 0.79524 0.0
H758 H 0.64563 0.52626 0.90213 0.0
H759 H 0.53558 0.64063 0.09347 0.0
H760 H 0.62741 0.52899 0.13948 0.0
H761 H 0.53671 0.62125 0.85679 0.0
H762 H 0.57617 0.60652 0.1108 0.0
H763 H 0.61272 0.5678 0.88459 0.0
C764 C 0.63518 0.53589 0.95074 0.0
C765 C 0.6393 0.52407 0.02246 0.0
C766 C 0.5677 0.61 0.05498 0.0
C767 C 0.60139 0.57144 0.00258 0.0
C768 C 0.54468 0.62966 0.04494 0.0
C769 C 0.53268 0.63382 0.9735 0.0
C770 C 0.57894 0.59455 0.99314 0.0
C771 C 0.54511 0.61854 0.91295 0.0
C772 C 0.61619 0.55946 0.94059 0.0
C773 C 0.62469 0.53722 0.08311 0.0
N774 N 0.56747 0.59957 0.92413 0.0
N775 N 0.60637 0.56011 0.07181 0.0
loop_
_geom_bond_atom_site_label_1
_geom_bond_atom_site_label_2
_geom_bond_distance
_geom_bond_site_symmetry_2
_ccdc_geom_bond_type
Zn0 N4 2.020 . S
Zn0 O8 2.019 . S
Zn0 N10 2.119 . S
Zn0 O18 1.975 . S
C1 N2 1.334 . S
C1 N5 1.336 . S
N2 C1 1.334 . S
N2 C3 1.334 . S
C3 N2 1.334 . S
C3 N4 1.336 . S
N4 Zn0 2.020 . S
N4 C3 1.336 . S
N4 N5 1.354 . S
N5 C1 1.336 . S
N5 N4 1.354 . S
N5 Zn9 2.020 . S
C6 O7 1.244 . S
C6 O30 1.257 . S
O7 C6 1.244 . S
O8 Zn0 2.019 . S
O8 C28 1.257 . S
Zn9 N5 2.020 . S
Zn9 O16 1.975 . S
Zn9 N25 2.119 . S
Zn9 O30 2.019 . S
N10 Zn0 2.119 . S
N10 C12 1.334 . S
N10 C13 1.328 . S
C11 C12 1.391 . S
C11 N14 1.329 . S
C11 H32 0.930 . S
C12 N10 1.334 . S
C12 C11 1.391 . S
C12 H19 0.930 . S
C13 N10 1.328 . S
C13 C15 1.392 . S
C13 H20 0.930 . S
N14 C11 1.329 . S
N14 C15 1.331 . S
C15 C13 1.392 . S
C15 N14 1.331 . S
O16 Zn9 1.975 . S
O16 C17 1.252 . S
C17 O16 1.252 . S
C17 O18 1.252 . S
O18 Zn0 1.975 . S
O18 C17 1.252 . S
H19 C12 0.930 . S
H20 C13 0.930 . S
C21 C22 1.392 . S
C21 N25 1.328 1_655 S
C21 H27 0.930 . S
C22 C21 1.392 . S
C22 N26 1.331 . S
C23 C24 1.391 . S
C23 N26 1.329 . S
C23 H33 0.930 . S
C24 C23 1.391 . S
C24 N25 1.334 1_655 S
C24 H31 0.930 1_655 S
N25 Zn9 2.119 . S
N25 C21 1.328 1_455 S
N25 C24 1.334 1_455 S
N26 C22 1.331 . S
N26 C23 1.329 . S
H27 C21 0.930 . S
C28 O8 1.257 . S
C28 O29 1.244 . S
O29 C28 1.244 . S
O30 C6 1.257 . S
O30 Zn9 2.019 . S
H31 C24 0.930 1_455 S
H32 C11 0.930 . S
H33 C23 0.930 . S
Zn34 N38 2.020 . S
Zn34 O42 2.019 . S
Zn34 N44 2.119 . S
Zn34 O52 1.975 . S
C35 N36 1.334 . S
C35 N39 1.336 . S
N36 C35 1.334 . S
N36 C37 1.334 . S
C37 N36 1.334 . S
C37 N38 1.336 . S
N38 Zn34 2.020 . S
N38 C37 1.336 . S
N38 N39 1.354 . S
N39 C35 1.336 . S
N39 N38 1.354 . S
N39 Zn43 2.020 . S
C40 O41 1.244 . S
C40 O64 1.257 . S
O41 C40 1.244 . S
O42 Zn34 2.019 . S
O42 C62 1.257 . S
Zn43 N39 2.020 . S
Zn43 O50 1.975 . S
Zn43 N59 2.119 . S
Zn43 O64 2.019 . S
N44 Zn34 2.119 . S
N44 C46 1.334 . S
N44 C47 1.328 . S
C45 C46 1.391 . S
C45 N48 1.329 . S
C45 H66 0.930 . S
C46 N44 1.334 . S
C46 C45 1.391 . S
C46 H53 0.930 . S
C47 N44 1.328 . S
C47 C49 1.392 . S
C47 H54 0.930 . S
N48 C45 1.329 . S
N48 C49 1.331 . S
C49 C47 1.392 . S
C49 N48 1.331 . S
O50 Zn43 1.975 . S
O50 C51 1.252 . S
C51 O50 1.252 . S
C51 O52 1.252 . S
O52 Zn34 1.975 . S
O52 C51 1.252 . S
H53 C46 0.930 . S
H54 C47 0.930 . S
C55 C56 1.392 . S
C55 N59 1.328 . S
C55 H61 0.930 . S
C56 C55 1.392 . S
C56 N60 1.331 . S
C57 C58 1.391 . S
C57 N60 1.329 . S
C57 H67 0.930 . S
C58 C57 1.391 . S
C58 N59 1.334 . S
C58 H65 0.930 . S
N59 Zn43 2.119 . S
N59 C55 1.328 . S
N59 C58 1.334 . S
N60 C56 1.331 . S
N60 C57 1.329 . S
H61 C55 0.930 . S
C62 O42 1.257 . S
C62 O63 1.244 . S
O63 C62 1.244 . S
O64 C40 1.257 . S
O64 Zn43 2.019 . S
H65 C58 0.930 . S
H66 C45 0.930 . S
H67 C57 0.930 . S
Zn68 N72 2.020 . S
Zn68 O76 2.019 1_556 S
Zn68 N78 2.119 . S
Zn68 O86 1.975 . S
C69 N70 1.334 . S
C69 N73 1.336 . S
N70 C69 1.334 . S
N70 C71 1.334 . S
C71 N70 1.334 . S
C71 N72 1.336 . S
N72 Zn68 2.020 . S
N72 C71 1.336 . S
N72 N73 1.354 . S
N73 C69 1.336 . S
N73 N72 1.354 . S
N73 Zn77 2.020 . S
C74 O75 1.244 . S
C74 O98 1.257 . S
O75 C74 1.244 . S
O76 Zn68 2.019 1_554 S
O76 C96 1.257 . S
Zn77 N73 2.020 . S
Zn77 O84 1.975 . S
Zn77 N93 2.119 . S
Zn77 O98 2.019 . S
N78 Zn68 2.119 . S
N78 C80 1.334 . S
N78 C81 1.328 . S
C79 C80 1.391 . S
C79 N82 1.329 . S
C79 H100 0.930 . S
C80 N78 1.334 . S
C80 C79 1.391 . S
C80 H87 0.930 . S
C81 N78 1.328 . S
C81 C83 1.392 . S
C81 H88 0.930 . S
N82 C79 1.329 . S
N82 C83 1.331 . S
C83 C81 1.392 . S
C83 N82 1.331 . S
O84 Zn77 1.975 . S
O84 C85 1.252 . S
C85 O84 1.252 . S
C85 O86 1.252 . S
O86 Zn68 1.975 . S
O86 C85 1.252 . S
H87 C80 0.930 . S
H88 C81 0.930 . S
C89 C90 1.392 . S
C89 N93 1.328 1_455 S
C89 H95 0.930 . S
C90 C89 1.392 . S
C90 N94 1.331 . S
C91 C92 1.416 . S
C91 N94 1.329 . S
C91 H101 0.930 . S
C92 C91 1.416 . S
C92 N93 1.325 1_455 S
C92 H99 0.914 1_455 S
N93 Zn77 2.119 . S
N93 C89 1.328 1_655 S
N93 C92 1.325 1_655 S
N94 C90 1.331 . S
N94 C91 1.329 . S
H95 C89 0.930 . S
C96 O76 1.257 . S
C96 O97 1.244 . S
O97 C96 1.244 . S
O98 C74 1.257 . S
O98 Zn77 2.019 . S
H99 C92 0.914 1_655 S
H100 C79 0.930 . S
H101 C91 0.930 . S
Zn102 N106 2.020 . S
Zn102 O110 2.019 . S
Zn102 N112 2.119 . S
Zn102 O120 1.975 . S
C103 N104 1.334 . S
C103 N107 1.336 . S
N104 C103 1.334 . S
N104 C105 1.334 1_556 S
C105 N104 1.334 1_554 S
C105 N106 1.336 . S
N106 Zn102 2.020 . S
N106 C105 1.336 . S
N106 N107 1.354 1_554 S
N107 C103 1.336 . S
N107 N106 1.354 1_556 S
N107 Zn111 2.020 . S
C108 O109 1.244 . S
C108 O132 1.257 . S
O109 C108 1.244 . S
O110 Zn102 2.019 . S
O110 C130 1.257 . S
Zn111 N107 2.020 . S
Zn111 O118 1.975 . S
Zn111 N127 2.119 . S
Zn111 O132 2.019 . S
N112 Zn102 2.119 . S
N112 C114 1.334 1_554 S
N112 C115 1.328 . S
C113 C114 1.391 . S
C113 N116 1.329 1_556 S
C113 H134 0.930 . S
C114 N112 1.334 1_556 S
C114 C113 1.391 . S
C114 H121 0.930 . S
C115 N112 1.328 . S
C115 C117 1.392 . S
C115 H122 0.930 . S
N116 C113 1.329 1_554 S
N116 C117 1.331 . S
C117 C115 1.392 . S
C117 N116 1.331 . S
O118 Zn111 1.975 . S
O118 C119 1.245 1_556 S
C119 O118 1.245 1_554 S
C119 O120 1.259 . S
O120 Zn102 1.975 . S
O120 C119 1.259 . S
H121 C114 0.930 . S
H122 C115 0.930 . S
C123 C124 1.392 . S
C123 N127 1.328 . S
C123 H129 0.930 . S
C124 C123 1.392 . S
C124 N128 1.331 . S
C125 C126 1.391 . S
C125 N128 1.329 1_554 S
C125 H135 0.930 . S
C126 C125 1.391 . S
C126 N127 1.334 1_554 S
C126 H133 0.930 . S
N127 Zn111 2.119 . S
N127 C123 1.328 . S
N127 C126 1.334 1_556 S
N128 C124 1.331 . S
N128 C125 1.329 1_556 S
H129 C123 0.930 . S
C130 O110 1.257 . S
C130 O131 1.244 . S
O131 C130 1.244 . S
O132 C108 1.257 . S
O132 Zn111 2.019 . S
H133 C126 0.930 . S
H134 C113 0.930 . S
H135 C125 0.930 . S
Zn136 N140 2.020 . S
Zn136 O144 2.019 . S
Zn136 N146 2.119 . S
Zn136 O154 1.975 . S
C137 N138 1.334 . S
C137 N141 1.336 . S
N138 C137 1.334 . S
N138 C139 1.334 . S
C139 N138 1.334 . S
C139 N140 1.336 . S
N140 Zn136 2.020 . S
N140 C139 1.336 . S
N140 N141 1.354 . S
N141 C137 1.336 . S
N141 N140 1.354 . S
N141 Zn145 2.020 . S
C142 O143 1.244 . S
C142 O166 1.257 . S
O143 C142 1.244 . S
O144 Zn136 2.019 . S
O144 C164 1.257 . S
Zn145 N141 2.020 . S
Zn145 O152 1.975 . S
Zn145 N161 2.119 . S
Zn145 O166 2.019 . S
N146 Zn136 2.119 . S
N146 C148 1.334 . S
N146 C149 1.328 . S
C147 C148 1.391 . S
C147 N150 1.329 . S
C147 H168 0.930 . S
C148 N146 1.334 . S
C148 C147 1.391 . S
C148 H155 0.930 . S
C149 N146 1.328 . S
C149 C151 1.392 . S
C149 H156 0.930 . S
N150 C147 1.329 . S
N150 C151 1.331 . S
C151 C149 1.392 . S
C151 N150 1.331 . S
O152 Zn145 1.975 . S
O152 C153 1.252 . S
C153 O152 1.252 . S
C153 O154 1.252 . S
O154 Zn136 1.975 . S
O154 C153 1.252 . S
H155 C148 0.930 . S
H156 C149 0.930 . S
C157 C158 1.392 . S
C157 N161 1.328 . S
C157 H163 0.930 . S
C158 C157 1.392 . S
C158 N162 1.331 . S
C159 C160 1.391 . S
C159 N162 1.329 . S
C159 H169 0.930 . S
C160 C159 1.391 . S
C160 N161 1.334 . S
C160 H167 0.930 . S
N161 Zn145 2.119 . S
N161 C157 1.328 . S
N161 C160 1.334 . S
N162 C158 1.331 . S
N162 C159 1.329 . S
H163 C157 0.930 . S
C164 O144 1.257 . S
C164 O165 1.244 . S
O165 C164 1.244 . S
O166 C142 1.257 . S
O166 Zn145 2.019 . S
H167 C160 0.930 . S
H168 C147 0.930 . S
H169 C159 0.930 . S
Zn170 N174 2.020 . S
Zn170 O178 2.019 . S
Zn170 N180 2.119 . S
Zn170 O188 1.975 . S
C171 N172 1.334 . S
C171 N175 1.336 . S
N172 C171 1.334 . S
N172 C173 1.334 . S
C173 N172 1.334 . S
C173 N174 1.336 . S
N174 Zn170 2.020 . S
N174 C173 1.336 . S
N174 N175 1.354 . S
N175 C171 1.336 . S
N175 N174 1.354 . S
N175 Zn179 2.020 . S
C176 O177 1.244 . S
C176 O200 1.257 . S
O177 C176 1.244 . S
O178 Zn170 2.019 . S
O178 C198 1.257 . S
Zn179 N175 2.020 . S
Zn179 O186 1.975 . S
Zn179 N195 2.119 . S
Zn179 O200 2.019 . S
N180 Zn170 2.119 . S
N180 C182 1.334 1_545 S
N180 C183 1.328 1_545 S
C181 C182 1.391 . S
C181 N184 1.329 . S
C181 H202 0.930 . S
C182 N180 1.334 1_565 S
C182 C181 1.391 . S
C182 H189 0.930 1_565 S
C183 N180 1.328 1_565 S
C183 C185 1.392 . S
C183 H190 0.930 . S
N184 C181 1.329 . S
N184 C185 1.331 . S
C185 C183 1.392 . S
C185 N184 1.331 . S
O186 Zn179 1.975 . S
O186 C187 1.252 . S
C187 O186 1.252 . S
C187 O188 1.252 . S
O188 Zn170 1.975 . S
O188 C187 1.252 . S
H189 C182 0.930 1_545 S
H190 C183 0.930 . S
C191 C192 1.392 . S
C191 N195 1.328 . S
C191 H197 0.930 . S
C192 C191 1.392 . S
C192 N196 1.331 . S
C193 C194 1.391 . S
C193 N196 1.329 . S
C193 H203 0.930 . S
C194 C193 1.391 . S
C194 N195 1.334 . S
C194 H201 0.930 . S
N195 Zn179 2.119 . S
N195 C191 1.328 . S
N195 C194 1.334 . S
N196 C192 1.331 . S
N196 C193 1.329 . S
H197 C191 0.930 . S
C198 O178 1.257 . S
C198 O199 1.244 . S
O199 C198 1.244 . S
O200 C176 1.257 . S
O200 Zn179 2.019 . S
H201 C194 0.930 . S
H202 C181 0.930 . S
H203 C193 0.930 . S
Zn204 N208 2.020 . S
Zn204 O212 2.019 . S
Zn204 N214 2.119 . S
Zn204 O222 1.975 . S
C205 N206 1.334 . S
C205 N209 1.336 . S
N206 C205 1.334 . S
N206 C207 1.334 1_554 S
C207 N206 1.334 1_556 S
C207 N208 1.336 . S
N208 Zn204 2.020 . S
N208 C207 1.336 . S
N208 N209 1.354 1_556 S
N209 C205 1.336 . S
N209 N208 1.354 1_554 S
N209 Zn213 2.020 . S
C210 O211 1.244 . S
C210 O234 1.257 . S
O211 C210 1.244 . S
O212 Zn204 2.019 . S
O212 C232 1.257 . S
Zn213 N209 2.020 . S
Zn213 O220 1.975 . S
Zn213 N229 2.119 . S
Zn213 O234 2.019 . S
N214 Zn204 2.119 . S
N214 C216 1.334 1_556 S
N214 C217 1.328 . S
C215 C216 1.391 . S
C215 N218 1.329 1_554 S
C215 H236 0.930 . S
C216 N214 1.334 1_554 S
C216 C215 1.391 . S
C216 H223 0.930 . S
C217 N214 1.328 . S
C217 C219 1.392 . S
C217 H224 0.930 . S
N218 C215 1.329 1_556 S
N218 C219 1.331 . S
C219 C217 1.392 . S
C219 N218 1.331 . S
O220 Zn213 1.975 . S
O220 C221 1.245 1_554 S
C221 O220 1.245 1_556 S
C221 O222 1.259 . S
O222 Zn204 1.975 . S
O222 C221 1.259 . S
H223 C216 0.930 . S
H224 C217 0.930 . S
C225 C226 1.392 . S
C225 N229 1.328 . S
C225 H231 0.930 . S
C226 C225 1.392 . S
C226 N230 1.331 . S
C227 C228 1.391 . S
C227 N230 1.329 1_556 S
C227 H237 0.930 . S
C228 C227 1.391 . S
C228 N229 1.334 1_556 S
C228 H235 0.930 . S
N229 Zn213 2.119 . S
N229 C225 1.328 . S
N229 C228 1.334 1_554 S
N230 C226 1.331 . S
N230 C227 1.329 1_554 S
H231 C225 0.930 . S
C232 O212 1.257 . S
C232 O233 1.244 . S
O233 C232 1.244 . S
O234 C210 1.257 . S
O234 Zn213 2.019 . S
H235 C228 0.930 . S
H236 C215 0.930 . S
H237 C227 0.930 . S
Zn238 N242 2.020 . S
Zn238 O246 2.019 1_554 S
Zn238 N248 2.119 . S
Zn238 O256 1.975 . S
C239 N240 1.334 . S
C239 N243 1.336 . S
N240 C239 1.334 . S
N240 C241 1.334 . S
C241 N240 1.334 . S
C241 N242 1.336 . S
N242 Zn238 2.020 . S
N242 C241 1.336 . S
N242 N243 1.354 . S
N243 C239 1.336 . S
N243 N242 1.354 . S
N243 Zn247 2.020 . S
C244 O245 1.244 . S
C244 O268 1.257 . S
O245 C244 1.244 . S
O246 Zn238 2.019 1_556 S
O246 C266 1.257 . S
Zn247 N243 2.020 . S
Zn247 O254 1.975 . S
Zn247 N263 2.119 . S
Zn247 O268 2.019 . S
N248 Zn238 2.119 . S
N248 C250 1.334 . S
N248 C251 1.328 . S
C249 C250 1.391 . S
C249 N252 1.329 . S
C249 H270 0.930 . S
C250 N248 1.334 . S
C250 C249 1.391 . S
C250 H257 0.930 . S
C251 N248 1.328 . S
C251 C253 1.392 . S
C251 H258 0.930 . S
N252 C249 1.329 . S
N252 C253 1.331 . S
C253 C251 1.392 . S
C253 N252 1.331 . S
O254 Zn247 1.975 . S
O254 C255 1.252 . S
C255 O254 1.252 . S
C255 O256 1.252 . S
O256 Zn238 1.975 . S
O256 C255 1.252 . S
H257 C250 0.930 . S
H258 C251 0.930 . S
C259 C260 1.392 . S
C259 N263 1.328 1_545 S
C259 H265 0.930 . S
C260 C259 1.392 . S
C260 N264 1.331 . S
C261 C262 1.416 . S
C261 N264 1.329 . S
C261 H271 0.930 . S
C262 C261 1.416 . S
C262 N263 1.325 1_545 S
C262 H269 0.914 1_545 S
N263 Zn247 2.119 . S
N263 C259 1.328 1_565 S
N263 C262 1.325 1_565 S
N264 C260 1.331 . S
N264 C261 1.329 . S
H265 C259 0.930 . S
C266 O246 1.257 . S
C266 O267 1.244 . S
O267 C266 1.244 . S
O268 C244 1.257 . S
O268 Zn247 2.019 . S
H269 C262 0.914 1_565 S
H270 C249 0.930 . S
H271 C261 0.930 . S
H272 C278 0.930 . S
H273 C282 0.930 . S
H274 C287 0.929 . S
H275 C285 0.929 . S
H276 C280 0.929 . S
H277 C286 0.929 . S
C278 H272 0.930 . S
C278 C279 1.367 . S
C278 C286 1.378 . S
C279 C278 1.367 . S
C279 C287 1.433 . S
C280 H276 0.929 . S
C280 C282 1.378 . S
C280 C284 1.350 . S
C281 C284 1.463 . S
C281 C286 1.350 . S
C281 N289 1.427 . S
C282 H273 0.930 . S
C282 C280 1.378 . S
C282 C283 1.367 . S
C283 C282 1.367 . S
C283 C285 1.433 . S
C284 C280 1.350 . S
C284 C281 1.463 . S
C284 N288 1.427 . S
C285 H275 0.929 . S
C285 C283 1.433 . S
C285 N288 1.384 . S
C286 H277 0.929 . S
C286 C278 1.378 . S
C286 C281 1.350 . S
C287 H274 0.929 . S
C287 C279 1.433 . S
C287 N289 1.384 . S
N288 C284 1.427 . S
N288 C285 1.384 . S
N289 C281 1.427 . S
N289 C287 1.384 . S
H290 C296 0.930 . S
H291 C300 0.930 . S
H292 C305 0.929 1_655 S
H293 C303 0.929 . S
H294 C298 0.929 . S
H295 C304 0.929 . S
C296 H290 0.930 . S
C296 C297 1.367 . S
C296 C304 1.378 . S
C297 C296 1.367 . S
C297 C305 1.433 . S
C298 H294 0.929 . S
C298 C300 1.378 . S
C298 C302 1.350 . S
C299 C302 1.463 . S
C299 C304 1.350 . S
C299 N307 1.427 . S
C300 H291 0.930 . S
C300 C298 1.378 . S
C300 C301 1.367 . S
C301 C300 1.367 . S
C301 C303 1.433 . S
C302 C298 1.350 . S
C302 C299 1.463 . S
C302 N306 1.427 . S
C303 H293 0.929 . S
C303 C301 1.433 . S
C303 N306 1.384 . S
C304 H295 0.929 . S
C304 C296 1.378 . S
C304 C299 1.350 . S
C305 H292 0.929 1_455 S
C305 C297 1.433 . S
C305 N307 1.384 . S
N306 C302 1.427 . S
N306 C303 1.384 . S
N307 C299 1.427 . S
N307 C305 1.384 . S
H308 C314 0.930 . S
H309 C318 0.930 . S
H310 C323 0.929 . S
H311 C321 0.929 1_554 S
H312 C316 0.929 . S
H313 C322 0.929 . S
C314 H308 0.930 . S
C314 C315 1.367 1_554 S
C314 C322 1.378 . S
C315 C314 1.367 1_556 S
C315 C323 1.433 . S
C316 H312 0.929 . S
C316 C318 1.378 . S
C316 C320 1.350 . S
C317 C320 1.463 . S
C317 C322 1.350 1_556 S
C317 N325 1.427 . S
C318 H309 0.930 . S
C318 C316 1.378 . S
C318 C319 1.367 . S
C319 C318 1.367 . S
C319 C321 1.433 . S
C320 C316 1.350 . S
C320 C317 1.463 . S
C320 N324 1.427 . S
C321 H311 0.929 1_556 S
C321 C319 1.433 . S
C321 N324 1.384 . S
C322 H313 0.929 . S
C322 C314 1.378 . S
C322 C317 1.350 1_554 S
C323 H310 0.929 . S
C323 C315 1.433 . S
C323 N325 1.384 . S
N324 C320 1.427 . S
N324 C321 1.384 . S
N325 C317 1.427 . S
N325 C323 1.384 . S
H326 C332 0.930 . S
H327 C336 0.930 . S
H328 C341 0.929 . S
H329 C339 0.929 . S
H330 C334 0.929 . S
H331 C340 0.929 . S
C332 H326 0.930 . S
C332 C333 1.367 . S
C332 C340 1.378 . S
C333 C332 1.367 . S
C333 C341 1.433 . S
C334 H330 0.929 . S
C334 C336 1.378 . S
C334 C338 1.350 . S
C335 C338 1.463 . S
C335 C340 1.350 . S
C335 N343 1.427 . S
C336 H327 0.930 . S
C336 C334 1.378 . S
C336 C337 1.367 . S
C337 C336 1.367 . S
C337 C339 1.433 . S
C338 C334 1.350 . S
C338 C335 1.463 . S
C338 N342 1.427 . S
C339 H329 0.929 . S
C339 C337 1.433 . S
C339 N342 1.384 . S
C340 H331 0.929 . S
C340 C332 1.378 . S
C340 C335 1.350 . S
C341 H328 0.929 . S
C341 C333 1.433 . S
C341 N343 1.384 . S
N342 C338 1.427 . S
N342 C339 1.384 . S
N343 C335 1.427 . S
N343 C341 1.384 . S
H344 C350 0.930 . S
H345 C354 0.930 1_565 S
H346 C359 0.929 . S
H347 C357 0.929 . S
H348 C352 0.929 . S
H349 C358 0.929 . S
C350 H344 0.930 . S
C350 C351 1.367 . S
C350 C358 1.378 . S
C351 C350 1.367 . S
C351 C359 1.433 . S
C352 H348 0.929 . S
C352 C354 1.378 . S
C352 C356 1.350 . S
C353 C356 1.463 . S
C353 C358 1.350 . S
C353 N361 1.427 . S
C354 H345 0.930 1_545 S
C354 C352 1.378 . S
C354 C355 1.367 . S
C355 C354 1.367 . S
C355 C357 1.433 . S
C356 C352 1.350 . S
C356 C353 1.463 . S
C356 N360 1.427 . S
C357 H347 0.929 . S
C357 C355 1.433 . S
C357 N360 1.384 . S
C358 H349 0.929 . S
C358 C350 1.378 . S
C358 C353 1.350 . S
C359 H346 0.929 . S
C359 C351 1.433 . S
C359 N361 1.384 . S
N360 C356 1.427 . S
N360 C357 1.384 . S
N361 C353 1.427 . S
N361 C359 1.384 . S
H362 C368 0.930 . S
H363 C372 0.930 . S
H364 C377 0.929 . S
H365 C375 0.929 . S
H366 C370 0.929 . S
H367 C376 0.929 . S
C368 H362 0.930 . S
C368 C369 1.367 . S
C368 C376 1.378 . S
C369 C368 1.367 . S
C369 C377 1.433 . S
C370 H366 0.929 . S
C370 C372 1.378 . S
C370 C374 1.350 . S
C371 C374 1.463 . S
C371 C376 1.350 . S
C371 N379 1.427 . S
C372 H363 0.930 . S
C372 C370 1.378 . S
C372 C373 1.367 . S
C373 C372 1.367 . S
C373 C375 1.433 . S
C374 C370 1.350 . S
C374 C371 1.463 . S
C374 N378 1.427 . S
C375 H365 0.929 . S
C375 C373 1.433 . S
C375 N378 1.384 . S
C376 H367 0.929 . S
C376 C368 1.378 . S
C376 C371 1.350 . S
C377 H364 0.929 . S
C377 C369 1.433 . S
C377 N379 1.384 . S
N378 C374 1.427 . S
N378 C375 1.384 . S
N379 C371 1.427 . S
N379 C377 1.384 . S
H380 C386 0.930 . S
H381 C390 0.930 . S
H382 C395 0.929 . S
H383 C393 0.929 . S
H384 C388 0.929 . S
H385 C394 0.929 . S
C386 H380 0.930 . S
C386 C387 1.367 . S
C386 C394 1.378 . S
C387 C386 1.367 . S
C387 C395 1.433 . S
C388 H384 0.929 . S
C388 C390 1.378 . S
C388 C392 1.350 . S
C389 C392 1.463 . S
C389 C394 1.350 . S
C389 N397 1.427 . S
C390 H381 0.930 . S
C390 C388 1.378 . S
C390 C391 1.367 . S
C391 C390 1.367 . S
C391 C393 1.433 . S
C392 C388 1.350 . S
C392 C389 1.463 . S
C392 N396 1.427 . S
C393 H383 0.929 . S
C393 C391 1.433 . S
C393 N396 1.384 . S
C394 H385 0.929 . S
C394 C386 1.378 . S
C394 C389 1.350 . S
C395 H382 0.929 . S
C395 C387 1.433 . S
C395 N397 1.384 . S
N396 C392 1.427 . S
N396 C393 1.384 . S
N397 C389 1.427 . S
N397 C395 1.384 . S
H398 C404 0.930 1_556 S
H399 C408 0.930 . S
H400 C413 0.929 . S
H401 C411 0.929 . S
H402 C406 0.929 . S
H403 C412 0.929 1_556 S
C404 H398 0.930 1_554 S
C404 C405 1.367 . S
C404 C412 1.378 . S
C405 C404 1.367 . S
C405 C413 1.433 . S
C406 H402 0.929 . S
C406 C408 1.378 . S
C406 C410 1.350 . S
C407 C410 1.463 . S
C407 C412 1.350 . S
C407 N415 1.427 . S
C408 H399 0.930 . S
C408 C406 1.378 . S
C408 C409 1.367 . S
C409 C408 1.367 . S
C409 C411 1.433 1_554 S
C410 C406 1.350 . S
C410 C407 1.463 . S
C410 N414 1.427 1_554 S
C411 H401 0.929 . S
C411 C409 1.433 1_556 S
C411 N414 1.384 . S
C412 H403 0.929 1_554 S
C412 C404 1.378 . S
C412 C407 1.350 . S
C413 H400 0.929 . S
C413 C405 1.433 . S
C413 N415 1.384 . S
N414 C410 1.427 1_556 S
N414 C411 1.384 . S
N415 C407 1.427 . S
N415 C413 1.384 . S
H416 C422 0.930 . S
H417 C426 0.930 . S
H418 C431 0.929 . S
H419 C429 0.929 . S
H420 C424 0.929 1_556 S
H421 C430 0.929 1_554 S
C422 H416 0.930 . S
C422 C423 1.367 . S
C422 C430 1.378 . S
C423 C422 1.367 . S
C423 C431 1.433 . S
C424 H420 0.929 1_554 S
C424 C426 1.378 . S
C424 C428 1.350 . S
C425 C428 1.463 1_556 S
C425 C430 1.350 . S
C425 N433 1.427 . S
C426 H417 0.930 . S
C426 C424 1.378 . S
C426 C427 1.367 . S
C427 C426 1.367 . S
C427 C429 1.433 . S
C428 C424 1.350 . S
C428 C425 1.463 1_554 S
C428 N432 1.427 . S
C429 H419 0.929 . S
C429 C427 1.433 . S
C429 N432 1.384 . S
C430 H421 0.929 1_556 S
C430 C422 1.378 . S
C430 C425 1.350 . S
C431 H418 0.929 . S
C431 C423 1.433 . S
C431 N433 1.384 . S
N432 C428 1.427 . S
N432 C429 1.384 . S
N433 C425 1.427 . S
N433 C431 1.384 . S
H434 C440 0.930 . S
H435 C444 0.930 . S
H436 C449 0.929 . S
H437 C447 0.929 . S
H438 C442 0.929 . S
H439 C448 0.929 . S
C440 H434 0.930 . S
C440 C441 1.367 . S
C440 C448 1.378 . S
C441 C440 1.367 . S
C441 C449 1.433 . S
C442 H438 0.929 . S
C442 C444 1.378 . S
C442 C446 1.350 . S
C443 C446 1.463 . S
C443 C448 1.350 . S
C443 N451 1.427 . S
C444 H435 0.930 . S
C444 C442 1.378 . S
C444 C445 1.367 . S
C445 C444 1.367 . S
C445 C447 1.433 . S
C446 C442 1.350 . S
C446 C443 1.463 . S
C446 N450 1.427 . S
C447 H437 0.929 . S
C447 C445 1.433 . S
C447 N450 1.384 . S
C448 H439 0.929 . S
C448 C440 1.378 . S
C448 C443 1.350 . S
C449 H436 0.929 . S
C449 C441 1.433 . S
C449 N451 1.384 . S
N450 C446 1.427 . S
N450 C447 1.384 . S
N451 C443 1.427 . S
N451 C449 1.384 . S
H452 C458 0.930 . S
H453 C462 0.930 . S
H454 C467 0.929 . S
H455 C465 0.929 . S
H456 C460 0.929 . S
H457 C466 0.929 . S
C458 H452 0.930 . S
C458 C459 1.367 . S
C458 C466 1.378 . S
C459 C458 1.367 . S
C459 C467 1.433 . S
C460 H456 0.929 . S
C460 C462 1.378 . S
C460 C464 1.350 . S
C461 C464 1.463 . S
C461 C466 1.350 . S
C461 N469 1.427 . S
C462 H453 0.930 . S
C462 C460 1.378 . S
C462 C463 1.367 . S
C463 C462 1.367 . S
C463 C465 1.433 . S
C464 C460 1.350 . S
C464 C461 1.463 . S
C464 N468 1.427 . S
C465 H455 0.929 . S
C465 C463 1.433 . S
C465 N468 1.384 . S
C466 H457 0.929 . S
C466 C458 1.378 . S
C466 C461 1.350 . S
C467 H454 0.929 . S
C467 C459 1.433 . S
C467 N469 1.384 . S
N468 C464 1.427 . S
N468 C465 1.384 . S
N469 C461 1.427 . S
N469 C467 1.384 . S
H470 C476 0.930 . S
H471 C480 0.930 . S
H472 C485 0.929 . S
H473 C483 0.929 . S
H474 C478 0.929 . S
H475 C484 0.929 . S
C476 H470 0.930 . S
C476 C477 1.367 . S
C476 C484 1.378 . S
C477 C476 1.367 . S
C477 C485 1.433 . S
C478 H474 0.929 . S
C478 C480 1.378 . S
C478 C482 1.350 . S
C479 C482 1.463 . S
C479 C484 1.350 . S
C479 N487 1.427 . S
C480 H471 0.930 . S
C480 C478 1.378 . S
C480 C481 1.367 . S
C481 C480 1.367 . S
C481 C483 1.433 . S
C482 C478 1.350 . S
C482 C479 1.463 . S
C482 N486 1.427 . S
C483 H473 0.929 . S
C483 C481 1.433 . S
C483 N486 1.384 . S
C484 H475 0.929 . S
C484 C476 1.378 . S
C484 C479 1.350 . S
C485 H472 0.929 . S
C485 C477 1.433 . S
C485 N487 1.384 . S
N486 C482 1.427 . S
N486 C483 1.384 . S
N487 C479 1.427 . S
N487 C485 1.384 . S
H488 C494 0.930 . S
H489 C498 0.930 . S
H490 C503 0.929 . S
H491 C501 0.929 1_554 S
H492 C496 0.929 . S
H493 C502 0.929 . S
C494 H488 0.930 . S
C494 C495 1.367 . S
C494 C502 1.378 . S
C495 C494 1.367 . S
C495 C503 1.433 . S
C496 H492 0.929 . S
C496 C498 1.378 . S
C496 C500 1.350 . S
C497 C500 1.463 . S
C497 C502 1.350 . S
C497 N505 1.427 . S
C498 H489 0.930 . S
C498 C496 1.378 . S
C498 C499 1.367 1_556 S
C499 C498 1.367 1_554 S
C499 C501 1.433 1_554 S
C500 C496 1.350 . S
C500 C497 1.463 . S
C500 N504 1.427 . S
C501 H491 0.929 1_556 S
C501 C499 1.433 1_556 S
C501 N504 1.384 . S
C502 H493 0.929 . S
C502 C494 1.378 . S
C502 C497 1.350 . S
C503 H490 0.929 . S
C503 C495 1.433 . S
C503 N505 1.384 . S
N504 C500 1.427 . S
N504 C501 1.384 . S
N505 C497 1.427 . S
N505 C503 1.384 . S
H506 C512 0.930 . S
H507 C516 0.930 . S
H508 C521 0.929 . S
H509 C519 0.929 . S
H510 C514 0.929 . S
H511 C520 0.929 . S
C512 H506 0.930 . S
C512 C513 1.367 . S
C512 C520 1.378 . S
C513 C512 1.367 . S
C513 C521 1.433 . S
C514 H510 0.929 . S
C514 C516 1.378 1_554 S
C514 C518 1.350 . S
C515 C518 1.463 . S
C515 C520 1.350 . S
C515 N523 1.427 . S
C516 H507 0.930 . S
C516 C514 1.378 1_556 S
C516 C517 1.367 . S
C517 C516 1.367 . S
C517 C519 1.433 . S
C518 C514 1.350 . S
C518 C515 1.463 . S
C518 N522 1.427 . S
C519 H509 0.929 . S
C519 C517 1.433 . S
C519 N522 1.384 1_556 S
C520 H511 0.929 . S
C520 C512 1.378 . S
C520 C515 1.350 . S
C521 H508 0.929 . S
C521 C513 1.433 . S
C521 N523 1.384 . S
N522 C518 1.427 . S
N522 C519 1.384 1_554 S
N523 C515 1.427 . S
N523 C521 1.384 . S
H524 C530 0.930 . S
H525 C534 0.930 . S
H526 C539 0.929 . S
H527 C537 0.929 . S
H528 C532 0.929 . S
H529 C538 0.929 . S
C530 H524 0.930 . S
C530 C531 1.367 . S
C530 C538 1.378 . S
C531 C530 1.367 . S
C531 C539 1.433 . S
C532 H528 0.929 . S
C532 C534 1.378 . S
C532 C536 1.350 . S
C533 C536 1.463 . S
C533 C538 1.350 . S
C533 N541 1.427 . S
C534 H525 0.930 . S
C534 C532 1.378 . S
C534 C535 1.367 . S
C535 C534 1.367 . S
C535 C537 1.433 . S
C536 C532 1.350 . S
C536 C533 1.463 . S
C536 N540 1.427 . S
C537 H527 0.929 . S
C537 C535 1.433 . S
C537 N540 1.384 . S
C538 H529 0.929 . S
C538 C530 1.378 . S
C538 C533 1.350 . S
C539 H526 0.929 . S
C539 C531 1.433 . S
C539 N541 1.384 . S
N540 C536 1.427 . S
N540 C537 1.384 . S
N541 C533 1.427 . S
N541 C539 1.384 . S
H542 C548 0.930 . S
H543 C552 0.930 . S
H544 C557 0.929 . S
H545 C555 0.929 . S
H546 C550 0.929 . S
H547 C556 0.929 . S
C548 H542 0.930 . S
C548 C549 1.367 . S
C548 C556 1.378 . S
C549 C548 1.367 . S
C549 C557 1.433 . S
C550 H546 0.929 . S
C550 C552 1.378 . S
C550 C554 1.350 . S
C551 C554 1.463 . S
C551 C556 1.350 . S
C551 N559 1.427 . S
C552 H543 0.930 . S
C552 C550 1.378 . S
C552 C553 1.367 . S
C553 C552 1.367 . S
C553 C555 1.433 . S
C554 C550 1.350 . S
C554 C551 1.463 . S
C554 N558 1.427 . S
C555 H545 0.929 . S
C555 C553 1.433 . S
C555 N558 1.384 . S
C556 H547 0.929 . S
C556 C548 1.378 . S
C556 C551 1.350 . S
C557 H544 0.929 . S
C557 C549 1.433 . S
C557 N559 1.384 . S
N558 C554 1.427 . S
N558 C555 1.384 . S
N559 C551 1.427 . S
N559 C557 1.384 . S
H560 C566 0.930 . S
H561 C570 0.930 . S
H562 C575 0.929 . S
H563 C573 0.929 . S
H564 C568 0.929 . S
H565 C574 0.929 . S
C566 H560 0.930 . S
C566 C567 1.367 . S
C566 C574 1.378 1_554 S
C567 C566 1.367 . S
C567 C575 1.433 . S
C568 H564 0.929 . S
C568 C570 1.378 . S
C568 C572 1.350 . S
C569 C572 1.463 . S
C569 C574 1.350 . S
C569 N577 1.427 . S
C570 H561 0.930 . S
C570 C568 1.378 . S
C570 C571 1.367 . S
C571 C570 1.367 . S
C571 C573 1.433 . S
C572 C568 1.350 . S
C572 C569 1.463 . S
C572 N576 1.427 . S
C573 H563 0.929 . S
C573 C571 1.433 . S
C573 N576 1.384 . S
C574 H565 0.929 . S
C574 C566 1.378 1_556 S
C574 C569 1.350 . S
C575 H562 0.929 . S
C575 C567 1.433 . S
C575 N577 1.384 1_554 S
N576 C572 1.427 . S
N576 C573 1.384 . S
N577 C569 1.427 . S
N577 C575 1.384 1_556 S
H578 C584 0.930 . S
H579 C588 0.930 1_556 S
H580 C593 0.929 . S
H581 C591 0.929 . S
H582 C586 0.929 . S
H583 C592 0.929 . S
C584 H578 0.930 . S
C584 C585 1.367 . S
C584 C592 1.378 . S
C585 C584 1.367 . S
C585 C593 1.433 . S
C586 H582 0.929 . S
C586 C588 1.378 . S
C586 C590 1.350 . S
C587 C590 1.463 . S
C587 C592 1.350 . S
C587 N595 1.427 . S
C588 H579 0.930 1_554 S
C588 C586 1.378 . S
C588 C589 1.367 1_554 S
C589 C588 1.367 1_556 S
C589 C591 1.433 1_556 S
C590 C586 1.350 . S
C590 C587 1.463 . S
C590 N594 1.427 . S
C591 H581 0.929 . S
C591 C589 1.433 1_554 S
C591 N594 1.384 . S
C592 H583 0.929 . S
C592 C584 1.378 . S
C592 C587 1.350 . S
C593 H580 0.929 . S
C593 C585 1.433 . S
C593 N595 1.384 . S
N594 C590 1.427 . S
N594 C591 1.384 . S
N595 C587 1.427 . S
N595 C593 1.384 . S
H596 C602 0.930 . S
H597 C606 0.930 . S
H598 C611 0.929 . S
H599 C609 0.929 . S
H600 C604 0.929 . S
H601 C610 0.929 . S
C602 H596 0.930 . S
C602 C603 1.367 . S
C602 C610 1.378 . S
C603 C602 1.367 . S
C603 C611 1.433 . S
C604 H600 0.929 . S
C604 C606 1.378 . S
C604 C608 1.350 . S
C605 C608 1.463 . S
C605 C610 1.350 . S
C605 N613 1.427 . S
C606 H597 0.930 . S
C606 C604 1.378 . S
C606 C607 1.367 . S
C607 C606 1.367 . S
C607 C609 1.433 . S
C608 C604 1.350 . S
C608 C605 1.463 . S
C608 N612 1.427 . S
C609 H599 0.929 . S
C609 C607 1.433 . S
C609 N612 1.384 . S
C610 H601 0.929 . S
C610 C602 1.378 . S
C610 C605 1.350 . S
C611 H598 0.929 . S
C611 C603 1.433 . S
C611 N613 1.384 . S
N612 C608 1.427 . S
N612 C609 1.384 . S
N613 C605 1.427 . S
N613 C611 1.384 . S
H614 C620 0.930 . S
H615 C624 0.930 . S
H616 C629 0.929 . S
H617 C627 0.929 . S
H618 C622 0.929 . S
H619 C628 0.929 . S
C620 H614 0.930 . S
C620 C621 1.367 . S
C620 C628 1.378 . S
C621 C620 1.367 . S
C621 C629 1.433 . S
C622 H618 0.929 . S
C622 C624 1.378 . S
C622 C626 1.350 . S
C623 C626 1.463 . S
C623 C628 1.350 . S
C623 N631 1.427 . S
C624 H615 0.930 . S
C624 C622 1.378 . S
C624 C625 1.367 . S
C625 C624 1.367 . S
C625 C627 1.433 . S
C626 C622 1.350 . S
C626 C623 1.463 . S
C626 N630 1.427 . S
C627 H617 0.929 . S
C627 C625 1.433 . S
C627 N630 1.384 . S
C628 H619 0.929 . S
C628 C620 1.378 . S
C628 C623 1.350 . S
C629 H616 0.929 . S
C629 C621 1.433 . S
C629 N631 1.384 . S
N630 C626 1.427 . S
N630 C627 1.384 . S
N631 C623 1.427 . S
N631 C629 1.384 . S
H632 C638 0.930 . S
H633 C642 0.930 . S
H634 C647 0.929 . S
H635 C645 0.929 . S
H636 C640 0.929 . S
H637 C646 0.929 . S
C638 H632 0.930 . S
C638 C639 1.367 . S
C638 C646 1.378 . S
C639 C638 1.367 . S
C639 C647 1.433 . S
C640 H636 0.929 . S
C640 C642 1.378 . S
C640 C644 1.350 . S
C641 C644 1.463 . S
C641 C646 1.350 . S
C641 N649 1.427 . S
C642 H633 0.930 . S
C642 C640 1.378 . S
C642 C643 1.367 . S
C643 C642 1.367 . S
C643 C645 1.433 . S
C644 C640 1.350 . S
C644 C641 1.463 . S
C644 N648 1.427 . S
C645 H635 0.929 . S
C645 C643 1.433 . S
C645 N648 1.384 . S
C646 H637 0.929 . S
C646 C638 1.378 . S
C646 C641 1.350 . S
C647 H634 0.929 . S
C647 C639 1.433 . S
C647 N649 1.384 . S
N648 C644 1.427 . S
N648 C645 1.384 . S
N649 C641 1.427 . S
N649 C647 1.384 . S
H650 C656 0.930 . S
H651 C660 0.930 . S
H652 C665 0.929 . S
H653 C663 0.929 . S
H654 C658 0.929 . S
H655 C664 0.929 . S
C656 H650 0.930 . S
C656 C657 1.367 . S
C656 C664 1.378 . S
C657 C656 1.367 . S
C657 C665 1.433 . S
C658 H654 0.929 . S
C658 C660 1.378 . S
C658 C662 1.350 . S
C659 C662 1.463 . S
C659 C664 1.350 . S
C659 N667 1.427 . S
C660 H651 0.930 . S
C660 C658 1.378 . S
C660 C661 1.367 . S
C661 C660 1.367 . S
C661 C663 1.433 . S
C662 C658 1.350 . S
C662 C659 1.463 . S
C662 N666 1.427 . S
C663 H653 0.929 . S
C663 C661 1.433 . S
C663 N666 1.384 . S
C664 H655 0.929 . S
C664 C656 1.378 . S
C664 C659 1.350 . S
C665 H652 0.929 . S
C665 C657 1.433 . S
C665 N667 1.384 . S
N666 C662 1.427 . S
N666 C663 1.384 . S
N667 C659 1.427 . S
N667 C665 1.384 . S
H668 C674 0.925 1_554 S
H669 C678 0.925 1_556 S
H670 C683 0.929 . S
H671 C681 0.929 . S
H672 C676 0.929 . S
H673 C682 0.929 . S
C674 H668 0.925 1_556 S
C674 C675 1.367 . S
C674 C682 1.378 1_556 S
C675 C674 1.367 . S
C675 C683 1.433 . S
C676 H672 0.929 . S
C676 C678 1.378 1_556 S
C676 C680 1.350 1_556 S
C677 C680 1.463 1_556 S
C677 C682 1.350 1_556 S
C677 N685 1.427 . S
C678 H669 0.925 1_554 S
C678 C676 1.378 1_554 S
C678 C679 1.367 . S
C679 C678 1.367 . S
C679 C681 1.433 . S
C680 C676 1.350 1_554 S
C680 C677 1.463 1_554 S
C680 N684 1.427 . S
C681 H671 0.929 . S
C681 C679 1.433 . S
C681 N684 1.384 . S
C682 H673 0.929 . S
C682 C674 1.378 1_554 S
C682 C677 1.350 1_554 S
C683 H670 0.929 . S
C683 C675 1.433 . S
C683 N685 1.384 . S
N684 C680 1.427 . S
N684 C681 1.384 . S
N685 C677 1.427 . S
N685 C683 1.384 . S
H686 C692 0.930 . S
H687 C696 0.930 . S
H688 C701 0.929 . S
H689 C699 0.929 . S
H690 C694 0.929 . S
H691 C700 0.929 . S
C692 H686 0.930 . S
C692 C693 1.367 . S
C692 C700 1.378 . S
C693 C692 1.367 . S
C693 C701 1.433 . S
C694 H690 0.929 . S
C694 C696 1.378 . S
C694 C698 1.350 . S
C695 C698 1.463 . S
C695 C700 1.350 . S
C695 N703 1.427 . S
C696 H687 0.930 . S
C696 C694 1.378 . S
C696 C697 1.367 . S
C697 C696 1.367 . S
C697 C699 1.433 . S
C698 C694 1.350 . S
C698 C695 1.463 . S
C698 N702 1.427 . S
C699 H689 0.929 . S
C699 C697 1.433 . S
C699 N702 1.384 . S
C700 H691 0.929 . S
C700 C692 1.378 . S
C700 C695 1.350 . S
C701 H688 0.929 . S
C701 C693 1.433 . S
C701 N703 1.384 . S
N702 C698 1.427 . S
N702 C699 1.384 . S
N703 C695 1.427 . S
N703 C701 1.384 . S
H704 C710 0.930 . S
H705 C714 0.930 . S
H706 C719 0.929 . S
H707 C717 0.929 . S
H708 C712 0.929 . S
H709 C718 0.929 . S
C710 H704 0.930 . S
C710 C711 1.367 . S
C710 C718 1.378 . S
C711 C710 1.367 . S
C711 C719 1.433 . S
C712 H708 0.929 . S
C712 C714 1.378 . S
C712 C716 1.350 . S
C713 C716 1.463 . S
C713 C718 1.350 . S
C713 N721 1.427 . S
C714 H705 0.930 . S
C714 C712 1.378 . S
C714 C715 1.367 . S
C715 C714 1.367 . S
C715 C717 1.433 . S
C716 C712 1.350 . S
C716 C713 1.463 . S
C716 N720 1.427 . S
C717 H707 0.929 . S
C717 C715 1.433 . S
C717 N720 1.384 . S
C718 H709 0.929 . S
C718 C710 1.378 . S
C718 C713 1.350 . S
C719 H706 0.929 . S
C719 C711 1.433 . S
C719 N721 1.384 . S
N720 C716 1.427 . S
N720 C717 1.384 . S
N721 C713 1.427 . S
N721 C719 1.384 . S
H722 C728 0.930 . S
H723 C732 0.930 . S
H724 C737 0.929 . S
H725 C735 0.929 . S
H726 C730 0.929 . S
H727 C736 0.929 . S
C728 H722 0.930 . S
C728 C729 1.367 . S
C728 C736 1.378 . S
C729 C728 1.367 . S
C729 C737 1.433 . S
C730 H726 0.929 . S
C730 C732 1.378 . S
C730 C734 1.350 . S
C731 C734 1.463 . S
C731 C736 1.350 . S
C731 N739 1.427 . S
C732 H723 0.930 . S
C732 C730 1.378 . S
C732 C733 1.367 . S
C733 C732 1.367 . S
C733 C735 1.433 . S
C734 C730 1.350 . S
C734 C731 1.463 . S
C734 N738 1.427 . S
C735 H725 0.929 . S
C735 C733 1.433 . S
C735 N738 1.384 . S
C736 H727 0.929 . S
C736 C728 1.378 . S
C736 C731 1.350 . S
C737 H724 0.929 . S
C737 C729 1.433 . S
C737 N739 1.384 . S
N738 C734 1.427 . S
N738 C735 1.384 . S
N739 C731 1.427 . S
N739 C737 1.384 . S
H740 C746 0.930 . S
H741 C750 0.930 . S
H742 C755 0.929 . S
H743 C753 0.929 . S
H744 C748 0.929 . S
H745 C754 0.929 . S
C746 H740 0.930 . S
C746 C747 1.367 . S
C746 C754 1.378 . S
C747 C746 1.367 . S
C747 C755 1.433 . S
C748 H744 0.929 . S
C748 C750 1.378 . S
C748 C752 1.350 . S
C749 C752 1.463 . S
C749 C754 1.350 . S
C749 N757 1.427 . S
C750 H741 0.930 . S
C750 C748 1.378 . S
C750 C751 1.367 . S
C751 C750 1.367 . S
C751 C753 1.433 . S
C752 C748 1.350 . S
C752 C749 1.463 . S
C752 N756 1.427 . S
C753 H743 0.929 . S
C753 C751 1.433 . S
C753 N756 1.384 . S
C754 H745 0.929 . S
C754 C746 1.378 . S
C754 C749 1.350 . S
C755 H742 0.929 . S
C755 C747 1.433 . S
C755 N757 1.384 . S
N756 C752 1.427 . S
N756 C753 1.384 . S
N757 C749 1.427 . S
N757 C755 1.384 . S
H758 C764 0.930 . S
H759 C768 0.930 . S
H760 C773 0.929 1_554 S
H761 C771 0.929 1_556 S
H762 C766 0.929 . S
H763 C772 0.929 . S
C764 H758 0.930 . S
C764 C765 1.367 . S
C764 C772 1.378 . S
C765 C764 1.367 . S
C765 C773 1.433 . S
C766 H762 0.929 . S
C766 C768 1.378 . S
C766 C770 1.350 . S
C767 C770 1.463 1_556 S
C767 C772 1.350 . S
C767 N775 1.427 1_556 S
C768 H759 0.930 . S
C768 C766 1.378 . S
C768 C769 1.367 . S
C769 C768 1.367 . S
C769 C771 1.433 . S
C770 C766 1.350 . S
C770 C767 1.463 1_554 S
C770 N774 1.427 1_554 S
C771 H761 0.929 1_554 S
C771 C769 1.433 . S
C771 N774 1.384 1_554 S
C772 H763 0.929 . S
C772 C764 1.378 . S
C772 C767 1.350 . S
C773 H760 0.929 1_556 S
C773 C765 1.433 . S
C773 N775 1.384 1_556 S
N774 C770 1.427 1_556 S
N774 C771 1.384 1_556 S
N775 C767 1.427 1_554 S
N775 C773 1.384 1_554 S
C279 C15 1.678 . S
C283 C51 1.718 . S
C297 C85 1.630 1_455 S
C301 C56 1.562 . S
C315 C119 1.606 1_556 S
C319 C83 1.524 . S
C333 C17 1.771 1_655 S
C337 C117 1.767 . S
C351 C151 1.571 . S
C355 C255 1.630 1_545 S
C369 C192 1.687 . S
C373 C153 1.712 . S
C387 C187 1.771 1_565 S
C391 C219 1.764 . S
C405 C253 1.534 . S
C409 C221 1.603 1_554 S
C423 C173 2.607 . S
C427 C1 2.612 . S
C441 C205 2.395 . S
C445 C37 2.403 . S
C459 C69 2.623 . S
C463 C239 2.618 . S
C477 C137 2.399 . S
C481 C103 2.400 . S
C495 C28 1.182 . S
C499 C6 1.181 . S
C513 C62 1.184 . S
C517 C40 1.184 . S
C531 C74 1.189 . S
C535 C96 1.192 . S
C549 C130 1.190 . S
C553 C108 1.189 . S
C567 C164 1.179 . S
C571 C142 1.186 . S
C585 C176 1.180 . S
C589 C198 1.181 . S
C603 C210 1.188 . S
C607 C232 1.188 . S
C621 C266 1.192 . S
C625 C244 1.188 . S
C639 C171 1.319 . S
C643 C3 1.319 . S
C657 C207 1.410 . S
C661 C35 1.420 . S
C675 C71 1.214 . S
C679 C241 1.224 . S
C693 C139 1.409 . S
C697 C105 1.419 . S
C711 C22 1.506 . S
C715 C260 1.515 . S
C729 C158 1.450 . S
C733 C49 1.449 . S
C747 C185 1.489 . S
C751 C90 1.498 . S
C765 C124 1.806 . S
C769 C226 1.805 . S
