# Generated by pormake.
# Topology noz, (5)-cn, num edge types: 1
# Building blocks:
#     Node 0, Type 0, BuildingBlock: XOMCOT_clean_sbu_1, # of connection points: 5
#     Node 1, Type 0, BuildingBlock: XOMCOT_clean_sbu_1, # of connection points: 5
#     Node 2, Type 0, BuildingBlock: XOMCOT_clean_sbu_1, # of connection points: 5
#     Node 3, Type 0, BuildingBlock: XOMCOT_clean_sbu_1, # of connection points: 5
#     Node 4, Type 0, BuildingBlock: XOMCOT_clean_sbu_1, # of connection points: 5
#     Node 5, Type 0, BuildingBlock: XOMCOT_clean_sbu_1, # of connection points: 5
#     Node 6, Type 0, BuildingBlock: XOMCOT_clean_sbu_1, # of connection points: 5
#     Node 7, Type 0, BuildingBlock: XOMCOT_clean_sbu_1, # of connection points: 5
#     Edge 8, Type (0, 0), BuildingBlock: KIFKEQ_clean_linker_1, # of connection points: 2
#     Edge 9, Type (0, 0), BuildingBlock: KIFKEQ_clean_linker_1, # of connection points: 2
#     Edge 10, Type (0, 0), BuildingBlock: KIFKEQ_clean_linker_1, # of connection points: 2
#     Edge 11, Type (0, 0), BuildingBlock: KIFKEQ_clean_linker_1, # of connection points: 2
#     Edge 12, Type (0, 0), BuildingBlock: KIFKEQ_clean_linker_1, # of connection points: 2
#     Edge 13, Type (0, 0), BuildingBlock: KIFKEQ_clean_linker_1, # of connection points: 2
#     Edge 14, Type (0, 0), BuildingBlock: KIFKEQ_clean_linker_1, # of connection points: 2
#     Edge 15, Type (0, 0), BuildingBlock: KIFKEQ_clean_linker_1, # of connection points: 2
#     Edge 16, Type (0, 0), BuildingBlock: KIFKEQ_clean_linker_1, # of connection points: 2
#     Edge 17, Type (0, 0), BuildingBlock: KIFKEQ_clean_linker_1, # of connection points: 2
#     Edge 18, Type (0, 0), BuildingBlock: KIFKEQ_clean_linker_1, # of connection points: 2
#     Edge 19, Type (0, 0), BuildingBlock: KIFKEQ_clean_linker_1, # of connection points: 2
#     Edge 20, Type (0, 0), BuildingBlock: KIFKEQ_clean_linker_1, # of connection points: 2
#     Edge 21, Type (0, 0), BuildingBlock: KIFKEQ_clean_linker_1, # of connection points: 2
#     Edge 22, Type (0, 0), BuildingBlock: KIFKEQ_clean_linker_1, # of connection points: 2
#     Edge 23, Type (0, 0), BuildingBlock: KIFKEQ_clean_linker_1, # of connection points: 2
#     Edge 24, Type (0, 0), BuildingBlock: KIFKEQ_clean_linker_1, # of connection points: 2
#     Edge 25, Type (0, 0), BuildingBlock: KIFKEQ_clean_linker_1, # of connection points: 2
#     Edge 26, Type (0, 0), BuildingBlock: KIFKEQ_clean_linker_1, # of connection points: 2
#     Edge 27, Type (0, 0), BuildingBlock: KIFKEQ_clean_linker_1, # of connection points: 2
# Relax obj value: 0.078
# Max RMSD: 0.163
# Mean RMSD: 0.163
data_MOF--net-noz--node1-XOMCOT_clean_sbu_1--edge1-KIFKEQ_clean_linker_1
_symmetry_space_group_name_H-M    P1
_symmetry_Int_Tables_number       1
_symmetry_cell_setting            triclinic
loop_
_symmetry_equiv_pos_as_xyz
'x, y, z'
_cell_length_a     24.105347
_cell_length_b     50.860706
_cell_length_c     37.294961
_cell_angle_alpha  90.038578
_cell_angle_beta   90.0089
_cell_angle_gamma 90.095522
loop_
_atom_site_label
_atom_site_type_symbol
_atom_site_fract_x
_atom_site_fract_y
_atom_site_fract_z
_atom_type_partial_charge
C0 C 0.13703 0.36966 0.34459 0.0
C1 C 0.0956 0.37126 0.31935 0.0
N2 N 0.05534 0.35389 0.32789 0.0
N3 N 0.12334 0.35144 0.36919 0.0
C4 C 0.0734 0.34209 0.35834 0.0
H5 H 0.17461 0.3813 0.3453 0.0
Co6 Co 0.1684 0.3436 0.40849 0.0
C7 C 0.09093 0.31968 0.46124 0.0
O8 O 0.11177 0.33523 0.48585 0.0
N9 N 0.2165 0.33549 0.44877 0.0
C10 C 0.26164 0.33656 0.50127 0.0
C11 C 0.22286 0.34872 0.48014 0.0
C12 C 0.25302 0.31522 0.452 0.0
N13 N 0.28088 0.31555 0.48352 0.0
O14 O 0.19904 0.31484 0.3814 0.0
H15 H 0.19992 0.36587 0.48838 0.0
H16 H 0.25902 0.30017 0.43193 0.0
O17 O 0.10954 0.32073 0.42907 0.0
C18 C 0.24346 0.32285 0.36622 0.0
O19 O 0.2617 0.34659 0.3736 0.0
N20 N 0.14177 0.37424 0.43099 0.0
C21 C 0.11603 0.42333 0.45989 0.0
C22 C 0.0744 0.40434 0.4549 0.0
C23 C 0.08803 0.37992 0.43976 0.0
C24 C 0.18112 0.3935 0.43217 0.0
C25 C 0.16963 0.41789 0.44747 0.0
H26 H 0.05542 0.36575 0.435 0.0
H27 H 0.22246 0.38947 0.42232 0.0
H28 H 0.05081 0.3269 0.37244 0.0
H29 H 0.09482 0.38475 0.29695 0.0
H30 H 0.27526 0.34297 0.52753 0.0
H31 H 0.03208 0.40817 0.46308 0.0
H32 H 0.20244 0.43239 0.44957 0.0
C33 C 0.59831 0.65903 0.83873 0.0
C34 C 0.63991 0.65809 0.81364 0.0
N35 N 0.68363 0.67216 0.82576 0.0
N36 N 0.61512 0.6735 0.86689 0.0
C37 C 0.6673 0.68125 0.85837 0.0
H38 H 0.55825 0.64953 0.83679 0.0
Co39 Co 0.56908 0.67869 0.90646 0.0
C40 C 0.63181 0.71083 0.95991 0.0
O41 O 0.6033 0.69967 0.98575 0.0
N42 N 0.51946 0.6835 0.94614 0.0
C43 C 0.46382 0.67636 0.99294 0.0
C44 C 0.50295 0.66554 0.9707 0.0
C45 C 0.48913 0.70519 0.95439 0.0
N46 N 0.45478 0.70133 0.98268 0.0
O47 O 0.53152 0.70609 0.88016 0.0
H48 H 0.51724 0.64553 0.97255 0.0
H49 H 0.49194 0.72347 0.9397 0.0
O50 O 0.62281 0.70414 0.92722 0.0
C51 C 0.48461 0.6978 0.86883 0.0
O52 O 0.46805 0.67424 0.87861 0.0
N53 N 0.60272 0.6496 0.9287 0.0
C54 C 0.63574 0.60088 0.9561 0.0
C55 C 0.66686 0.62373 0.96313 0.0
C56 C 0.65018 0.64792 0.94861 0.0
C57 C 0.57428 0.62738 0.91976 0.0
C58 C 0.58943 0.60297 0.93352 0.0
H59 H 0.67591 0.6649 0.95325 0.0
H60 H 0.53795 0.62887 0.90286 0.0
H61 H 0.69263 0.69327 0.87575 0.0
H62 H 0.63792 0.64733 0.78868 0.0
H63 H 0.44212 0.66614 1.01418 0.0
H64 H 0.704 0.6229 0.97941 0.0
H65 H 0.56382 0.58606 0.92733 0.0
C66 C 0.14406 0.66463 0.69255 0.0
C67 C 0.10222 0.66395 0.71745 0.0
N68 N 0.0565 0.67513 0.70318 0.0
N69 N 0.12551 0.67609 0.66237 0.0
C70 C 0.07191 0.68221 0.66947 0.0
H71 H 0.18549 0.65692 0.69603 0.0
Co72 Co 0.17159 0.67977 0.62243 0.0
C73 C 0.11175 0.71316 0.56854 0.0
O74 O 0.14286 0.70365 0.54274 0.0
N75 N 0.22132 0.68287 0.58263 0.0
C76 C 0.27894 0.67241 0.53808 0.0
C77 C 0.23754 0.66343 0.56018 0.0
C78 C 0.25389 0.70361 0.5732 0.0
N79 N 0.28947 0.69765 0.54634 0.0
O80 O 0.21089 0.70738 0.64746 0.0
H81 H 0.22196 0.64356 0.56012 0.0
H82 H 0.25318 0.72243 0.58674 0.0
O83 O 0.11878 0.7052 0.60087 0.0
C84 C 0.25751 0.69889 0.65892 0.0
O85 O 0.27295 0.67503 0.64982 0.0
N86 N 0.13632 0.65057 0.60142 0.0
C87 C 0.10344 0.60136 0.5754 0.0
C88 C 0.07698 0.62444 0.56371 0.0
C89 C 0.09359 0.64894 0.57742 0.0
C90 C 0.16034 0.62828 0.61433 0.0
C91 C 0.14499 0.6036 0.60155 0.0
H92 H 0.07204 0.66622 0.56845 0.0
H93 H 0.1936 0.62985 0.63369 0.0
H94 H 0.04488 0.69158 0.65026 0.0
H95 H 0.10544 0.65528 0.74381 0.0
H96 H 0.30051 0.66101 0.51792 0.0
H97 H 0.04381 0.62359 0.54416 0.0
H98 H 0.16718 0.58651 0.6112 0.0
C99 C 0.59979 0.36544 0.19108 0.0
C100 C 0.64208 0.36653 0.21572 0.0
N101 N 0.6853 0.35242 0.20318 0.0
N102 N 0.61577 0.35078 0.16291 0.0
C103 C 0.66818 0.34312 0.1709 0.0
H104 H 0.55981 0.37492 0.19336 0.0
Co105 Co 0.56887 0.34495 0.12396 0.0
C106 C 0.63503 0.31656 0.06903 0.0
O107 O 0.60873 0.32993 0.04421 0.0
N108 N 0.51863 0.33917 0.08453 0.0
C109 C 0.46584 0.34386 0.03563 0.0
C110 C 0.50433 0.35568 0.05753 0.0
C111 C 0.4875 0.31736 0.07805 0.0
N112 N 0.45497 0.31981 0.04867 0.0
O113 O 0.53437 0.31678 0.15058 0.0
H114 H 0.52084 0.37509 0.05307 0.0
H115 H 0.4886 0.29984 0.09445 0.0
O116 O 0.62353 0.32058 0.10217 0.0
C117 C 0.488 0.32425 0.16366 0.0
O118 O 0.46924 0.34768 0.15529 0.0
N119 N 0.59971 0.37479 0.10179 0.0
C120 C 0.63145 0.42424 0.07604 0.0
C121 C 0.66673 0.4024 0.07239 0.0
C122 C 0.65059 0.37789 0.08618 0.0
C123 C 0.56691 0.39614 0.10779 0.0
C124 C 0.5813 0.42083 0.09456 0.0
H125 H 0.67958 0.3618 0.08486 0.0
H126 H 0.52815 0.39367 0.12203 0.0
H127 H 0.6931 0.33087 0.15353 0.0
H128 H 0.64121 0.37741 0.24064 0.0
H129 H 0.44631 0.35258 1.01237 0.0
H130 H 0.70684 0.40432 0.05958 0.0
H131 H 0.55257 0.43695 0.0982 0.0
C132 C 0.63941 0.86449 0.34076 0.0
C133 C 0.59778 0.86556 0.31569 0.0
N134 N 0.55505 0.85051 0.32699 0.0
N135 N 0.6235 0.84898 0.36809 0.0
C136 C 0.57189 0.8407 0.35904 0.0
H137 H 0.67887 0.87458 0.33936 0.0
Co138 Co 0.66966 0.8431 0.40743 0.0
C139 C 0.60828 0.80831 0.45902 0.0
O140 O 0.63966 0.81645 0.48555 0.0
N141 N 0.7194 0.83768 0.44697 0.0
C142 C 0.77299 0.84413 0.49499 0.0
C143 C 0.73335 0.85492 0.47316 0.0
C144 C 0.75189 0.81643 0.45385 0.0
N145 N 0.78494 0.81988 0.48289 0.0
O146 O 0.70704 0.81609 0.38019 0.0
H147 H 0.71671 0.8744 0.4766 0.0
H148 H 0.75129 0.79869 0.43786 0.0
O149 O 0.61551 0.81746 0.4273 0.0
C150 C 0.7535 0.82482 0.36871 0.0
O151 O 0.76941 0.84842 0.37884 0.0
N152 N 0.63641 0.87175 0.43072 0.0
C153 C 0.6088 0.91928 0.46329 0.0
C154 C 0.5766 0.89669 0.46942 0.0
C155 C 0.59101 0.87293 0.45262 0.0
C156 C 0.66479 0.89407 0.42215 0.0
C157 C 0.65232 0.91792 0.43855 0.0
H158 H 0.56609 0.85575 0.45776 0.0
H159 H 0.6996 0.89293 0.40393 0.0
H160 H 0.54739 0.82765 0.37551 0.0
H161 H 0.5989 0.87708 0.29134 0.0
H162 H 0.79282 0.85389 0.51739 0.0
H163 H 0.54203 0.89719 0.48796 0.0
H164 H 0.67747 0.93505 0.43263 0.0
C165 C 0.09898 0.15438 0.84313 0.0
C166 C 0.14058 0.15309 0.818 0.0
N167 N 0.18173 0.16962 0.82783 0.0
N168 N 0.1134 0.17157 0.86893 0.0
C169 C 0.164 0.18061 0.85894 0.0
H170 H 0.06079 0.14319 0.84295 0.0
Co171 Co 0.06821 0.17834 0.9085 0.0
C172 C 0.14376 0.20276 0.96208 0.0
O173 O 0.12239 0.1873 0.98658 0.0
N174 N 1.01981 0.1852 0.94904 0.0
C175 C 0.97326 0.18168 1.0007 0.0
C176 C 1.01313 0.17074 0.97927 0.0
C177 C 0.98272 0.20512 0.95343 0.0
N178 N 0.95346 0.20327 0.98442 0.0
O179 O 0.03623 0.20727 0.8824 0.0
H180 H 0.03677 0.1536 0.98665 0.0
H181 H 0.97649 0.22058 0.93403 0.0
O182 O 0.12611 0.20145 0.92969 0.0
C183 C 0.99169 0.19936 0.86722 0.0
O184 O 0.97375 0.17549 0.87405 0.0
N185 N 0.09628 0.14763 0.92995 0.0
C186 C 0.12284 0.09851 0.95829 0.0
C187 C 0.16364 0.1181 0.9551 0.0
C188 C 0.14967 0.14254 0.9402 0.0
C189 C 0.05816 0.12782 0.92923 0.0
C190 C 0.07001 0.10337 0.94416 0.0
H191 H 0.1817 0.15721 0.93691 0.0
H192 H 1.01729 0.13149 0.91836 0.0
H193 H 0.18734 0.19494 0.87418 0.0
H194 H 0.14083 0.14034 0.79478 0.0
H195 H 0.96068 0.17433 0.02666 0.0
H196 H 0.20547 0.11475 0.96464 0.0
H197 H 0.03795 0.08842 0.94486 0.0
C198 C 0.63837 0.15719 0.69245 0.0
C199 C 0.59618 0.15624 0.71717 0.0
N200 N 0.55307 0.17048 0.70473 0.0
N201 N 0.62241 0.17188 0.66433 0.0
C202 C 0.57019 0.17973 0.67244 0.0
H203 H 0.6782 0.14757 0.69462 0.0
Co204 Co 0.66881 0.17745 0.62509 0.0
C205 C 0.60016 0.20339 0.56947 0.0
O206 O 0.62542 0.18893 0.54535 0.0
N207 N 0.71844 0.18304 0.58527 0.0
C208 C 0.77077 0.17812 0.53621 0.0
C209 C 0.73269 0.16636 0.55843 0.0
C210 C 0.74911 0.20491 0.57832 0.0
N211 N 0.78141 0.20232 0.54886 0.0
O212 O 0.7024 0.20631 0.65083 0.0
H213 H 0.71637 0.14687 0.55427 0.0
H214 H 0.7479 0.22256 0.59447 0.0
O215 O 0.61313 0.20094 0.60266 0.0
C216 C 0.74883 0.19913 0.66412 0.0
O217 O 0.76791 0.17567 0.65618 0.0
N218 N 0.63913 0.14689 0.60404 0.0
C219 C 0.60941 0.09632 0.5815 0.0
C220 C 0.57261 0.11752 0.57732 0.0
C221 C 0.58774 0.14263 0.58963 0.0
C222 C 0.67362 0.12622 0.61035 0.0
C223 C 0.66024 0.10099 0.5987 0.0
H224 H 0.5576 0.15824 0.58824 0.0
H225 H 0.71279 0.12962 0.62377 0.0
H226 H 0.54537 0.19204 0.65511 0.0
H227 H 0.59705 0.14533 0.74204 0.0
H228 H 0.79021 0.16926 0.513 0.0
H229 H 0.53207 0.11462 0.56543 0.0
H230 H 0.69013 0.08539 0.60264 0.0
C231 C 0.09732 0.86043 0.19136 0.0
C232 C 0.1391 0.86134 0.21633 0.0
N233 N 0.18379 0.84865 0.2031 0.0
N234 N 0.115 0.84732 0.16222 0.0
C235 C 0.16792 0.84041 0.16999 0.0
H236 H 0.05652 0.86901 0.19409 0.0
Co237 Co 0.06902 0.84248 0.12253 0.0
C238 C 0.13145 0.8103 0.06885 0.0
O239 O 0.10226 0.82103 0.04302 0.0
N240 N 1.01956 0.83805 0.08281 0.0
C241 C 0.96334 0.84575 0.0365 0.0
C242 C 1.00271 0.85635 0.05888 0.0
C243 C 0.98924 0.81641 0.07413 0.0
N244 N 0.95454 0.8206 0.04613 0.0
O245 O 0.03094 0.81494 0.14847 0.0
H246 H 1.01674 0.87646 0.05774 0.0
H247 H 0.99225 0.79795 0.08836 0.0
O248 O 0.12278 0.81719 0.10149 0.0
C249 C 0.98408 0.82335 0.15964 0.0
O250 O 0.9681 0.84698 0.14985 0.0
N251 N 0.10281 0.87173 0.10074 0.0
C252 C 0.13489 0.92106 0.0749 0.0
C253 C 0.16473 0.89834 0.06552 0.0
C254 C 0.14858 0.87379 0.07929 0.0
C255 C 0.07533 0.89374 0.11148 0.0
C256 C 0.09016 0.91846 0.09866 0.0
H257 H 0.17328 0.85685 0.07275 0.0
H258 H 0.0401 0.89187 0.12926 0.0
H259 H 0.19413 0.82957 0.15176 0.0
H260 H 0.13666 0.87117 0.242 0.0
H261 H 0.94125 0.85623 1.01571 0.0
H262 H 0.20046 0.89955 0.048 0.0
H263 H 0.06551 0.93528 0.10653 0.0
H264 H 0.21344 0.32082 0.29673 0.0
H265 H 0.33933 0.29504 0.37054 0.0
H266 H 0.27466 0.3117 0.24657 0.0
H267 H 0.40034 0.28411 0.32036 0.0
H268 H 0.51801 0.31796 0.23293 0.0
H269 H 0.45575 0.30806 0.28242 0.0
H270 H 0.32639 0.288 0.20663 0.0
H271 H 0.38839 0.29983 0.15744 0.0
C272 C 0.25329 0.31176 0.302 0.0
C273 C 0.27139 0.30821 0.33735 0.0
C274 C 0.28883 0.30653 0.27316 0.0
C275 C 0.34343 0.29745 0.279 0.0
C276 C 0.35939 0.2917 0.31455 0.0
C277 C 0.32408 0.29743 0.3434 0.0
C278 C 0.47693 0.31042 0.227 0.0
C279 C 0.45811 0.30934 0.19148 0.0
C280 C 0.44082 0.30474 0.25543 0.0
C281 C 0.38506 0.29759 0.24895 0.0
C282 C 0.36825 0.29414 0.21301 0.0
C283 C 0.40405 0.30042 0.18466 0.0
H284 H 0.37292 0.69838 0.86389 0.0
H285 H 0.52035 0.72815 0.81243 0.0
H286 H 0.31794 0.71018 0.81178 0.0
H287 H 0.46499 0.74032 0.75976 0.0
H288 H 0.36921 0.69927 0.66343 0.0
H289 H 0.42461 0.71045 0.71567 0.0
H290 H 0.2784 0.7407 0.76837 0.0
H291 H 0.22264 0.72915 0.71557 0.0
C292 C 0.39321 0.70834 0.8418 0.0
C293 C 0.45095 0.71213 0.84205 0.0
C294 C 0.36157 0.71528 0.81191 0.0
C295 C 0.387 0.72594 0.78125 0.0
C296 C 0.44417 0.73188 0.78277 0.0
C297 C 0.47586 0.72515 0.81303 0.0
C298 C 0.34925 0.70918 0.68568 0.0
C299 C 0.29161 0.71317 0.68557 0.0
C300 C 0.38112 0.71574 0.71566 0.0
C301 C 0.35599 0.72619 0.74655 0.0
C302 C 0.29898 0.7324 0.74518 0.0
C303 C 0.26707 0.72605 0.71483 0.0
H304 H 0.95677 0.68741 0.67222 0.0
H305 H 0.03284 0.66979 0.77441 0.0
H306 H 0.86689 0.69039 0.70155 0.0
H307 H 0.94321 0.67101 0.80295 0.0
H308 H 0.78033 0.69184 0.85366 0.0
H309 H 0.86918 0.69626 0.82353 0.0
H310 H 0.79774 0.66402 0.72674 0.0
H311 H 0.70861 0.66123 0.75583 0.0
C312 C 0.95474 0.68413 0.70083 0.0
C313 C 1.00283 0.67798 0.72054 0.0
C314 C 0.90275 0.68556 0.71771 0.0
C315 C 0.89715 0.68073 0.75478 0.0
C316 C 0.9454 0.67518 0.77453 0.0
C317 C 0.99726 0.67402 0.7578 0.0
C318 C 0.78307 0.686 0.82584 0.0
C319 C 0.73653 0.67582 0.80766 0.0
C320 C 0.83457 0.68829 0.80854 0.0
C321 C 0.84133 0.68028 0.77259 0.0
C322 C 0.79453 0.6707 0.75423 0.0
C323 C 0.74306 0.66868 0.77135 0.0
H324 H 0.70785 0.35714 0.27431 0.0
H325 H 0.78437 0.33952 0.1724 0.0
H326 H 0.79754 0.35511 0.3034 0.0
H327 H 0.87433 0.33607 0.20201 0.0
H328 H 0.03186 0.36628 0.25853 0.0
H329 H 0.94291 0.36341 0.22841 0.0
H330 H 0.87115 0.32816 0.32304 0.0
H331 H 0.95967 0.33239 0.35396 0.0
C332 C 0.74372 0.35272 0.258 0.0
C333 C 0.7385 0.34891 0.22073 0.0
C334 C 0.7954 0.35114 0.27491 0.0
C335 C 0.84368 0.34549 0.25521 0.0
C336 C 0.83834 0.34087 0.21808 0.0
C337 C 0.78648 0.34256 0.20108 0.0
C338 C 0.9972 0.35808 0.27316 0.0
C339 C 1.00329 0.34995 0.30906 0.0
C340 C 0.94605 0.35605 0.25556 0.0
C341 C 0.89932 0.34567 0.27318 0.0
C342 C 0.90581 0.3367 0.30869 0.0
C343 C 0.95699 0.33884 0.32639 0.0
H344 H 0.71931 0.79419 0.31207 0.0
H345 H 0.86522 0.82508 0.36419 0.0
H346 H 0.77574 0.78211 0.2598 0.0
H347 H 0.92124 0.81339 0.31249 0.0
H348 H 1.01873 0.79404 0.21726 0.0
H349 H 0.96232 0.78284 0.26988 0.0
H350 H 0.81628 0.81154 0.21543 0.0
H351 H 0.87232 0.82235 0.16335 0.0
C352 C 0.76371 0.79749 0.31288 0.0
C353 C 0.78786 0.81077 0.34199 0.0
C354 C 0.79601 0.79081 0.28286 0.0
C355 C 0.85306 0.79705 0.28165 0.0
C356 C 0.87773 0.80804 0.31237 0.0
C357 C 0.84548 0.81493 0.34203 0.0
C358 C 0.97424 0.79688 0.21613 0.0
C359 C 0.9499 0.80922 0.18639 0.0
C360 C 0.94194 0.79073 0.24637 0.0
C361 C 0.88474 0.79662 0.24718 0.0
C362 C 0.85991 0.80652 0.21588 0.0
C363 C 0.89215 0.81287 0.18598 0.0
H364 H 0.71794 0.20503 0.73325 0.0
H365 H 0.84789 0.22415 0.65852 0.0
H366 H 0.77968 0.21467 0.78311 0.0
H367 H 0.90937 0.23574 0.70813 0.0
H368 H 0.02207 0.20225 0.79786 0.0
H369 H 0.9611 0.21179 0.74773 0.0
H370 H 0.83462 0.23821 0.82177 0.0
H371 H 0.89539 0.22684 0.87187 0.0
C372 C 0.75894 0.21276 0.72758 0.0
C373 C 0.77801 0.21419 0.69215 0.0
C374 C 0.79477 0.21829 0.75624 0.0
C375 C 0.85051 0.22561 0.75009 0.0
C376 C 0.86753 0.22945 0.71427 0.0
C377 C 0.832 0.22332 0.68568 0.0
C378 C 0.98207 0.21113 0.80321 0.0
C379 C 0.96369 0.21421 0.83859 0.0
C380 C 0.94668 0.21662 0.77439 0.0
C381 C 0.89194 0.2255 0.78027 0.0
C382 C 0.87567 0.23079 0.8159 0.0
C383 C 0.91084 0.22479 0.84473 0.0
H384 H 0.20556 0.15869 0.75803 0.0
H385 H 0.27805 0.18954 0.85535 0.0
H386 H 0.29491 0.16133 0.72853 0.0
H387 H 0.36706 0.19365 0.82505 0.0
H388 H 0.52981 0.1647 0.77568 0.0
H389 H 0.44001 0.16686 0.80452 0.0
H390 H 0.36468 0.18831 0.70359 0.0
H391 H 0.45458 0.18462 0.67414 0.0
C392 C 0.24037 0.16617 0.77323 0.0
C393 C 0.23419 0.17349 0.80946 0.0
C394 C 0.29179 0.16809 0.75599 0.0
C395 C 0.33875 0.17759 0.77428 0.0
C396 C 0.33223 0.18578 0.81016 0.0
C397 C 0.28077 0.18371 0.82751 0.0
C398 C 0.49425 0.16966 0.75939 0.0
C399 C 0.49987 0.17406 0.72227 0.0
C400 C 0.44249 0.17133 0.77619 0.0
C401 C 0.39456 0.17768 0.75654 0.0
C402 C 0.40035 0.18293 0.71961 0.0
C403 C 0.45223 0.18111 0.7027 0.0
H404 H 0.20683 0.85483 0.27421 0.0
H405 H 0.28296 0.83473 0.17291 0.0
H406 H 0.29626 0.85308 0.30321 0.0
H407 H 0.37247 0.83127 0.20267 0.0
H408 H 0.53133 0.86043 0.25678 0.0
H409 H 0.44224 0.85775 0.22734 0.0
H410 H 0.36918 0.82722 0.3246 0.0
H411 H 0.45802 0.83156 0.35496 0.0
C412 C 0.24242 0.84993 0.25794 0.0
C413 C 0.23704 0.84542 0.22079 0.0
C414 C 0.29407 0.84848 0.27491 0.0
C415 C 0.3422 0.84212 0.25548 0.0
C416 C 0.33669 0.83672 0.21855 0.0
C417 C 0.28494 0.83841 0.20144 0.0
C418 C 0.49645 0.85338 0.27225 0.0
C419 C 0.50241 0.84669 0.30872 0.0
C420 C 0.44507 0.85142 0.25499 0.0
C421 C 0.39789 0.84237 0.27342 0.0
C422 C 0.40414 0.83476 0.30955 0.0
C423 C 0.45556 0.83697 0.32697 0.0
H424 H 0.09596 0.55393 0.60988 0.0
H425 H 0.08221 0.5892 0.50488 0.0
H426 H 0.09088 0.51035 0.58289 0.0
H427 H 0.0759 0.5454 0.47801 0.0
H428 H 0.03313 0.45903 0.44646 0.0
H429 H 1.01971 0.50209 0.47525 0.0
H430 H 0.16081 0.48725 0.5436 0.0
H431 H 0.17419 0.44465 0.51492 0.0
C432 C 0.09131 0.55242 0.58106 0.0
C433 C 0.09052 0.57513 0.55952 0.0
C434 C 0.08824 0.52743 0.56564 0.0
C435 C 0.08372 0.52446 0.52831 0.0
C436 C 0.07912 0.54709 0.50689 0.0
C437 C 0.08264 0.57218 0.52233 0.0
C438 C 0.06076 0.46496 0.46791 0.0
C439 C 0.1048 0.4486 0.47842 0.0
C440 C 0.05332 0.48959 0.48419 0.0
C441 C 0.0891 0.49798 0.51175 0.0
C442 C 0.13217 0.48124 0.52275 0.0
C443 C 0.1401 0.45694 0.50616 0.0
H444 H 0.63019 0.55174 0.92592 0.0
H445 H 0.67228 0.59149 0.02466 0.0
H446 H 0.63862 0.50955 0.95581 0.0
H447 H 0.68389 0.54909 0.05419 0.0
H448 H 0.61334 0.47317 0.10471 0.0
H449 H 0.62422 0.51554 0.07563 0.0
H450 H 0.69558 0.47729 0.98301 0.0
H451 H 0.68165 0.43461 1.01144 0.0
C452 C 0.64196 0.55149 0.95394 0.0
C453 C 0.64959 0.57511 0.97299 0.0
C454 C 0.6476 0.52718 0.97103 0.0
C455 C 0.66149 0.52577 1.00761 0.0
C456 C 0.67214 0.54938 0.02617 0.0
C457 C 0.66619 0.57374 1.00909 0.0
C458 C 0.63128 0.47373 0.07811 0.0
C459 C 0.64568 0.45034 0.06022 0.0
C460 C 0.63834 0.49816 0.06157 0.0
C461 C 0.66044 0.49997 0.02675 0.0
C462 C 0.67752 0.47667 1.00958 0.0
C463 C 0.67017 0.45217 0.02608 0.0
H464 H 0.63029 0.04908 0.61391 0.0
H465 H 0.55852 0.08259 0.51815 0.0
H466 H 0.62253 1.00531 0.58782 0.0
H467 H 0.54965 0.03847 0.49237 0.0
H468 H 0.5145 0.94933 0.46919 0.0
H469 H 0.50512 0.99182 0.50041 0.0
H470 H 0.67568 0.98641 0.53498 0.0
H471 H 0.68497 0.94454 0.50374 0.0
C472 C 0.61243 0.04712 0.58739 0.0
C473 C 0.59612 0.06946 0.56783 0.0
C474 C 0.60777 0.02201 0.57254 0.0
C475 C 0.58613 0.01851 0.5379 0.0
C476 C 0.56628 0.04057 0.51921 0.0
C477 C 0.57135 0.06584 0.534 0.0
C478 C 0.54958 0.95723 0.48382 0.0
C479 C 0.60048 0.9438 0.48407 0.0
C480 C 0.54437 0.98152 0.50145 0.0
C481 C 0.58962 0.99236 0.52023 0.0
C482 C 0.6399 0.97845 0.52112 0.0
C483 C 0.64535 0.95456 0.50308 0.0
H484 H 0.13602 0.96865 0.10914 0.0
H485 H 0.16326 0.93308 1.00543 0.0
H486 H 0.14145 0.01215 0.08206 0.0
H487 H 0.16964 0.97685 0.97842 0.0
H488 H 0.20909 0.06395 0.94807 0.0
H489 H 0.22254 0.02111 0.97742 0.0
H490 H 0.07425 0.03391 0.03993 0.0
H491 H 0.06093 0.07627 1.01077 0.0
C492 C 0.14373 0.9701 0.0806 0.0
C493 C 0.14814 0.94733 0.05936 0.0
C494 C 0.14697 0.99504 0.06513 0.0
C495 C 0.15517 0.9979 0.02805 0.0
C496 C 0.16348 0.97525 1.0071 0.0
C497 C 0.1599 0.95018 0.0226 0.0
C498 C 0.17984 0.05761 0.96835 0.0
C499 C 0.13385 0.07333 0.97708 0.0
C500 C 0.18733 0.0331 0.98496 0.0
C501 C 0.14957 0.02421 1.01107 0.0
C502 C 0.10443 0.04031 0.02025 0.0
C503 C 0.09654 0.06448 1.00336 0.0
H504 H 0.36118 0.29295 0.44332 0.0
H505 H 0.29914 0.29907 0.55136 0.0
H506 H 0.43879 0.26654 0.46464 0.0
H507 H 0.3751 0.27172 0.57285 0.0
H508 H 0.54741 0.24324 0.60624 0.0
H509 H 0.47003 0.27027 0.58535 0.0
H510 H 0.46573 0.226 0.48633 0.0
H511 H 0.54411 0.20027 0.50639 0.0
C512 C 0.36365 0.28818 0.47156 0.0
C513 C 0.32414 0.29808 0.49564 0.0
C514 C 0.40814 0.27298 0.48393 0.0
C515 C 0.41375 0.26686 0.52068 0.0
C516 C 0.37326 0.27639 0.54456 0.0
C517 C 0.32935 0.29193 0.53223 0.0
C518 C 0.52993 0.23944 0.57998 0.0
C519 C 0.55239 0.21977 0.55791 0.0
C520 C 0.48522 0.2548 0.568 0.0
C521 C 0.46134 0.25056 0.53389 0.0
C522 C 0.4835 0.23049 0.51228 0.0
C523 C 0.5285 0.21551 0.52398 0.0
H524 H 0.40388 0.74204 0.94869 0.0
H525 H 0.41027 0.70059 0.04963 0.0
H526 H 0.32831 0.769 0.97149 0.0
H527 H 0.33296 0.72663 0.07179 0.0
H528 H 0.21925 0.79366 0.11075 0.0
H529 H 0.30106 0.76908 0.09117 0.0
H530 H 0.23223 0.76357 0.98445 0.0
H531 H 0.15195 0.78852 1.00363 0.0
C532 C 0.38961 0.73878 0.97583 0.0
C533 C 0.41309 0.71888 0.9971 0.0
C534 C 0.34561 0.75403 0.9888 0.0
C535 C 0.32374 0.7498 0.02338 0.0
C536 C 0.34863 0.73058 0.04512 0.0
C537 C 0.3927 0.71538 0.03218 0.0
C538 C 0.22155 0.78709 0.08318 0.0
C539 C 0.1791 0.79328 0.05876 0.0
C540 C 0.26846 0.77295 0.07192 0.0
C541 C 0.27383 0.7646 0.03601 0.0
C542 C 0.2305 0.77023 1.01201 0.0
C543 C 0.184 0.78438 0.02318 0.0
H544 H 0.39108 0.68097 0.52643 0.0
H545 H 0.28874 0.75026 0.53374 0.0
H546 H 0.46687 0.70728 0.50209 0.0
H547 H 0.36515 0.77682 0.50895 0.0
H548 H 0.50434 0.80648 0.42836 0.0
H549 H 0.4247 0.7799 0.44824 0.0
H550 H 0.52692 0.74421 0.52972 0.0
H551 H 0.60565 0.77083 0.51038 0.0
C552 C 0.38461 0.70182 0.52249 0.0
C553 C 0.33388 0.71355 0.53194 0.0
C554 C 0.42813 0.7169 0.50871 0.0
C555 C 0.42188 0.74407 0.5035 0.0
C556 C 0.37091 0.75586 0.5124 0.0
C557 C 0.32747 0.74076 0.52686 0.0
C558 C 0.50985 0.79266 0.45012 0.0
C559 C 0.56131 0.79057 0.46765 0.0
C560 C 0.46419 0.7777 0.46176 0.0
C561 C 0.46964 0.76003 0.49057 0.0
C562 C 0.52152 0.75754 0.50735 0.0
C563 C 0.56659 0.77279 0.49626 0.0
H564 H 0.18252 0.24802 0.92984 0.0
H565 H 0.21508 0.19449 0.01704 0.0
H566 H 0.25903 0.27605 0.9502 0.0
H567 H 0.29264 0.2213 0.03617 0.0
H568 H 0.38836 0.28794 0.08755 0.0
H569 H 0.3139 0.25995 0.06532 0.0
H570 H 0.35481 0.28212 0.95651 0.0
H571 H 0.42763 0.31104 0.97933 0.0
C572 C 0.20644 0.2421 0.95305 0.0
C573 C 0.19221 0.21926 0.97209 0.0
C574 C 0.25059 0.25806 0.9647 0.0
C575 C 0.28206 0.25126 0.99527 0.0
C576 C 0.26868 0.22781 1.01329 0.0
C577 C 0.22421 0.21223 1.0021 0.0
C578 C 0.38171 0.28657 0.0589 0.0
C579 C 0.41388 0.30163 0.03522 0.0
C580 C 0.33901 0.27045 0.04598 0.0
C581 C 0.32794 0.26854 1.0089 0.0
C582 C 0.36104 0.28334 0.98521 0.0
C583 C 0.40315 0.2998 0.99823 0.0
H584 H 1.02076 0.72702 0.60934 0.0
H585 H 0.09342 0.73697 0.50437 0.0
H586 H 0.93838 0.75096 0.58952 0.0
H587 H 1.01245 0.76136 0.48498 0.0
H588 H 0.84092 0.78161 0.44697 0.0
H589 H 0.91757 0.75513 0.46938 0.0
H590 H 0.90451 0.79337 0.5725 0.0
H591 H 0.82622 0.8188 0.55066 0.0
C592 C 1.0195 0.73453 0.58222 0.0
C593 C 0.06365 0.72986 0.55843 0.0
C594 C 0.97225 0.74831 0.57081 0.0
C595 C 0.96822 0.75785 0.5354 0.0
C596 C 1.01319 0.75375 0.51209 0.0
C597 C 0.06005 0.73993 0.52339 0.0
C598 C 0.85364 0.78405 0.47459 0.0
C599 C 0.82749 0.8026 0.49681 0.0
C600 C 0.89822 0.76909 0.48737 0.0
C601 C 0.91798 0.77232 0.52269 0.0
C602 C 0.89051 0.79021 0.54525 0.0
C603 C 0.84587 0.80508 0.53251 0.0
H604 H 0.70374 0.28623 0.11137 0.0
H605 H 0.67379 0.3086 1.00129 0.0
H606 H 0.78283 0.25956 0.09184 0.0
H607 H 0.75193 0.2821 0.98206 0.0
H608 H 0.92932 0.2535 0.96374 0.0
H609 H 0.85384 0.28114 0.9855 0.0
H610 H 0.80109 0.21907 0.05666 0.0
H611 H 0.8754 0.19133 0.03474 0.0
C612 C 0.7138 0.28541 0.08309 0.0
C613 C 0.68222 0.29956 0.05798 0.0
C614 C 0.75905 0.27011 0.07187 0.0
C615 C 0.77397 0.26882 0.03536 0.0
C616 C 0.74228 0.28296 1.0104 0.0
C617 C 0.69703 0.29803 0.02151 0.0
C618 C 0.90158 0.24561 0.98384 0.0
C619 C 0.90911 0.22004 0.99738 0.0
C620 C 0.85827 0.26152 0.99641 0.0
C621 C 0.82147 0.25236 0.02297 0.0
C622 C 0.82919 0.22695 0.03669 0.0
C623 C 0.87213 0.21099 0.02399 0.0
H624 H 1.01774 0.32865 0.51489 0.0
H625 H 0.05375 0.27381 0.42971 0.0
H626 H 0.94047 0.3017 0.5341 0.0
H627 H 0.9774 0.24569 0.45017 0.0
H628 H 0.80903 0.21023 0.47936 0.0
H629 H 0.88131 0.23922 0.45605 0.0
H630 H 0.92082 0.26323 0.56438 0.0
H631 H 0.84705 0.23509 0.58712 0.0
C632 C 1.00938 0.31061 0.5004 0.0
C633 C 0.04231 0.30323 0.47097 0.0
C634 C 0.96509 0.29497 0.51164 0.0
C635 C 0.95281 0.27111 0.49427 0.0
C636 C 0.98507 0.26399 0.46417 0.0
C637 C 0.02908 0.28 0.45246 0.0
C638 C 0.8331 0.22187 0.49806 0.0
C639 C 0.82217 0.2205 0.53506 0.0
C640 C 0.87487 0.23838 0.48475 0.0
C641 C 0.90737 0.25373 0.50816 0.0
C642 C 0.89613 0.25229 0.54525 0.0
C643 C 0.85381 0.23609 0.55845 0.0
H644 H 0.7186 0.72838 0.91776 0.0
H645 H 0.65251 0.73235 0.02526 0.0
H646 H 0.80008 0.75339 0.93724 0.0
H647 H 0.73248 0.7577 0.04437 0.0
H648 H 0.9045 0.77933 0.07951 0.0
H649 H 0.82891 0.75235 0.05659 0.0
H650 H 0.83134 0.796 0.95729 0.0
H651 H 0.90872 0.82214 0.97957 0.0
C652 C 0.72109 0.73479 0.94539 0.0
C653 C 0.67912 0.72813 0.96996 0.0
C654 C 0.7678 0.74917 0.9566 0.0
C655 C 0.77343 0.75728 0.99259 0.0
C656 C 0.73052 0.75122 0.01672 0.0
C657 C 0.68422 0.73684 1.00561 0.0
C658 C 0.88975 0.78289 0.05255 0.0
C659 C 0.91266 0.80315 0.03159 0.0
C660 C 0.84573 0.76762 0.03952 0.0
C661 C 0.82326 0.7722 1.00521 0.0
C662 C 0.84751 0.79181 0.98376 0.0
C663 C 0.89161 0.80704 0.99676 0.0
loop_
_geom_bond_atom_site_label_1
_geom_bond_atom_site_label_2
_geom_bond_distance
_geom_bond_site_symmetry_2
_ccdc_geom_bond_type
C0 C1 1.351 . S
C0 N3 1.368 . S
C0 H5 0.931 . S
C1 C0 1.351 . S
C1 N2 1.373 . S
C1 H29 0.930 . S
N2 C1 1.373 . S
N2 C4 1.340 . S
N3 C0 1.368 . S
N3 C4 1.321 . S
N3 Co6 2.135 . S
C4 N2 1.340 . S
C4 N3 1.321 . S
C4 H28 0.930 . S
H5 C0 0.931 . S
Co6 N3 2.135 . S
Co6 N9 2.121 . S
Co6 O14 2.055 . S
Co6 O17 2.039 . S
Co6 N20 2.140 . S
C7 O8 1.227 . S
C7 O17 1.265 . S
O8 C7 1.227 . S
N9 Co6 2.121 . S
N9 C11 1.375 . S
N9 C12 1.313 . S
C10 C11 1.338 . S
C10 N13 1.377 . S
C10 H30 0.930 . S
C11 N9 1.375 . S
C11 C10 1.338 . S
C11 H15 0.931 . S
C12 N9 1.313 . S
C12 N13 1.344 . S
C12 H16 0.930 . S
N13 C10 1.377 . S
N13 C12 1.344 . S
O14 Co6 2.055 . S
O14 C18 1.253 . S
H15 C11 0.931 . S
H16 C12 0.930 . S
O17 Co6 2.039 . S
O17 C7 1.265 . S
C18 O14 1.253 . S
C18 O19 1.227 . S
O19 C18 1.227 . S
N20 Co6 2.140 . S
N20 C23 1.346 . S
N20 C24 1.345 . S
C21 C22 1.387 . S
C21 C25 1.391 . S
C22 C21 1.387 . S
C22 C23 1.369 . S
C22 H31 0.929 . S
C23 N20 1.346 . S
C23 C22 1.369 . S
C23 H26 0.928 . S
C24 N20 1.345 . S
C24 C25 1.371 . S
C24 H27 0.931 . S
C25 C21 1.391 . S
C25 C24 1.371 . S
C25 H32 0.930 . S
H26 C23 0.928 . S
H27 C24 0.931 . S
H28 C4 0.930 . S
H29 C1 0.930 . S
H30 C10 0.930 . S
H31 C22 0.929 . S
H32 C25 0.930 . S
C33 C34 1.351 . S
C33 N36 1.368 . S
C33 H38 0.931 . S
C34 C33 1.351 . S
C34 N35 1.373 . S
C34 H62 0.930 . S
N35 C34 1.373 . S
N35 C37 1.340 . S
N36 C33 1.368 . S
N36 C37 1.321 . S
N36 Co39 2.135 . S
C37 N35 1.340 . S
C37 N36 1.321 . S
C37 H61 0.930 . S
H38 C33 0.931 . S
Co39 N36 2.135 . S
Co39 N42 2.121 . S
Co39 O47 2.055 . S
Co39 O50 2.039 . S
Co39 N53 2.140 . S
C40 O41 1.227 . S
C40 O50 1.265 . S
O41 C40 1.227 . S
N42 Co39 2.121 . S
N42 C44 1.375 . S
N42 C45 1.313 . S
C43 C44 1.338 . S
C43 N46 1.377 . S
C43 H63 0.930 1_556 S
C44 N42 1.375 . S
C44 C43 1.338 . S
C44 H48 0.931 . S
C45 N42 1.313 . S
C45 N46 1.344 . S
C45 H49 0.930 . S
N46 C43 1.377 . S
N46 C45 1.344 . S
O47 Co39 2.055 . S
O47 C51 1.253 . S
H48 C44 0.931 . S
H49 C45 0.930 . S
O50 Co39 2.039 . S
O50 C40 1.265 . S
C51 O47 1.253 . S
C51 O52 1.227 . S
O52 C51 1.227 . S
N53 Co39 2.140 . S
N53 C56 1.346 . S
N53 C57 1.345 . S
C54 C55 1.387 . S
C54 C58 1.391 . S
C55 C54 1.387 . S
C55 C56 1.369 . S
C55 H64 0.929 . S
C56 N53 1.346 . S
C56 C55 1.369 . S
C56 H59 0.928 . S
C57 N53 1.345 . S
C57 C58 1.371 . S
C57 H60 0.931 . S
C58 C54 1.391 . S
C58 C57 1.371 . S
C58 H65 0.930 . S
H59 C56 0.928 . S
H60 C57 0.931 . S
H61 C37 0.930 . S
H62 C34 0.930 . S
H63 C43 0.930 1_554 S
H64 C55 0.929 . S
H65 C58 0.930 . S
C66 C67 1.351 . S
C66 N69 1.368 . S
C66 H71 0.931 . S
C67 C66 1.351 . S
C67 N68 1.373 . S
C67 H95 0.930 . S
N68 C67 1.373 . S
N68 C70 1.340 . S
N69 C66 1.368 . S
N69 C70 1.321 . S
N69 Co72 2.135 . S
C70 N68 1.340 . S
C70 N69 1.321 . S
C70 H94 0.930 . S
H71 C66 0.931 . S
Co72 N69 2.135 . S
Co72 N75 2.121 . S
Co72 O80 2.055 . S
Co72 O83 2.039 . S
Co72 N86 2.140 . S
C73 O74 1.227 . S
C73 O83 1.265 . S
O74 C73 1.227 . S
N75 Co72 2.121 . S
N75 C77 1.375 . S
N75 C78 1.313 . S
C76 C77 1.338 . S
C76 N79 1.377 . S
C76 H96 0.930 . S
C77 N75 1.375 . S
C77 C76 1.338 . S
C77 H81 0.931 . S
C78 N75 1.313 . S
C78 N79 1.344 . S
C78 H82 0.930 . S
N79 C76 1.377 . S
N79 C78 1.344 . S
O80 Co72 2.055 . S
O80 C84 1.253 . S
H81 C77 0.931 . S
H82 C78 0.930 . S
O83 Co72 2.039 . S
O83 C73 1.265 . S
C84 O80 1.253 . S
C84 O85 1.227 . S
O85 C84 1.227 . S
N86 Co72 2.140 . S
N86 C89 1.346 . S
N86 C90 1.345 . S
C87 C88 1.387 . S
C87 C91 1.391 . S
C88 C87 1.387 . S
C88 C89 1.369 . S
C88 H97 0.929 . S
C89 N86 1.346 . S
C89 C88 1.369 . S
C89 H92 0.928 . S
C90 N86 1.345 . S
C90 C91 1.371 . S
C90 H93 0.931 . S
C91 C87 1.391 . S
C91 C90 1.371 . S
C91 H98 0.930 . S
H92 C89 0.928 . S
H93 C90 0.931 . S
H94 C70 0.930 . S
H95 C67 0.930 . S
H96 C76 0.930 . S
H97 C88 0.929 . S
H98 C91 0.930 . S
C99 C100 1.351 . S
C99 N102 1.368 . S
C99 H104 0.931 . S
C100 C99 1.351 . S
C100 N101 1.373 . S
C100 H128 0.930 . S
N101 C100 1.373 . S
N101 C103 1.340 . S
N102 C99 1.368 . S
N102 C103 1.321 . S
N102 Co105 2.135 . S
C103 N101 1.340 . S
C103 N102 1.321 . S
C103 H127 0.930 . S
H104 C99 0.931 . S
Co105 N102 2.135 . S
Co105 N108 2.121 . S
Co105 O113 2.055 . S
Co105 O116 2.039 . S
Co105 N119 2.140 . S
C106 O107 1.227 . S
C106 O116 1.265 . S
O107 C106 1.227 . S
N108 Co105 2.121 . S
N108 C110 1.375 . S
N108 C111 1.313 . S
C109 C110 1.338 . S
C109 N112 1.377 . S
C109 H129 0.930 1_554 S
C110 N108 1.375 . S
C110 C109 1.338 . S
C110 H114 0.931 . S
C111 N108 1.313 . S
C111 N112 1.344 . S
C111 H115 0.930 . S
N112 C109 1.377 . S
N112 C111 1.344 . S
O113 Co105 2.055 . S
O113 C117 1.253 . S
H114 C110 0.931 . S
H115 C111 0.930 . S
O116 Co105 2.039 . S
O116 C106 1.265 . S
C117 O113 1.253 . S
C117 O118 1.227 . S
O118 C117 1.227 . S
N119 Co105 2.140 . S
N119 C122 1.346 . S
N119 C123 1.345 . S
C120 C121 1.387 . S
C120 C124 1.391 . S
C121 C120 1.387 . S
C121 C122 1.369 . S
C121 H130 0.929 . S
C122 N119 1.346 . S
C122 C121 1.369 . S
C122 H125 0.928 . S
C123 N119 1.345 . S
C123 C124 1.371 . S
C123 H126 0.931 . S
C124 C120 1.391 . S
C124 C123 1.371 . S
C124 H131 0.930 . S
H125 C122 0.928 . S
H126 C123 0.931 . S
H127 C103 0.930 . S
H128 C100 0.930 . S
H129 C109 0.930 1_556 S
H130 C121 0.929 . S
H131 C124 0.930 . S
C132 C133 1.351 . S
C132 N135 1.368 . S
C132 H137 0.931 . S
C133 C132 1.351 . S
C133 N134 1.373 . S
C133 H161 0.930 . S
N134 C133 1.373 . S
N134 C136 1.340 . S
N135 C132 1.368 . S
N135 C136 1.321 . S
N135 Co138 2.135 . S
C136 N134 1.340 . S
C136 N135 1.321 . S
C136 H160 0.930 . S
H137 C132 0.931 . S
Co138 N135 2.135 . S
Co138 N141 2.121 . S
Co138 O146 2.055 . S
Co138 O149 2.039 . S
Co138 N152 2.140 . S
C139 O140 1.227 . S
C139 O149 1.265 . S
O140 C139 1.227 . S
N141 Co138 2.121 . S
N141 C143 1.375 . S
N141 C144 1.313 . S
C142 C143 1.338 . S
C142 N145 1.377 . S
C142 H162 0.930 . S
C143 N141 1.375 . S
C143 C142 1.338 . S
C143 H147 0.931 . S
C144 N141 1.313 . S
C144 N145 1.344 . S
C144 H148 0.930 . S
N145 C142 1.377 . S
N145 C144 1.344 . S
O146 Co138 2.055 . S
O146 C150 1.253 . S
H147 C143 0.931 . S
H148 C144 0.930 . S
O149 Co138 2.039 . S
O149 C139 1.265 . S
C150 O146 1.253 . S
C150 O151 1.227 . S
O151 C150 1.227 . S
N152 Co138 2.140 . S
N152 C155 1.346 . S
N152 C156 1.345 . S
C153 C154 1.387 . S
C153 C157 1.391 . S
C154 C153 1.387 . S
C154 C155 1.369 . S
C154 H163 0.929 . S
C155 N152 1.346 . S
C155 C154 1.369 . S
C155 H158 0.928 . S
C156 N152 1.345 . S
C156 C157 1.371 . S
C156 H159 0.931 . S
C157 C153 1.391 . S
C157 C156 1.371 . S
C157 H164 0.930 . S
H158 C155 0.928 . S
H159 C156 0.931 . S
H160 C136 0.930 . S
H161 C133 0.930 . S
H162 C142 0.930 . S
H163 C154 0.929 . S
H164 C157 0.930 . S
C165 C166 1.351 . S
C165 N168 1.368 . S
C165 H170 0.931 . S
C166 C165 1.351 . S
C166 N167 1.373 . S
C166 H194 0.930 . S
N167 C166 1.373 . S
N167 C169 1.340 . S
N168 C165 1.368 . S
N168 C169 1.321 . S
N168 Co171 2.135 . S
C169 N167 1.340 . S
C169 N168 1.321 . S
C169 H193 0.930 . S
H170 C165 0.931 . S
Co171 N168 2.135 . S
Co171 N174 2.121 . S
Co171 O179 2.055 . S
Co171 O182 2.039 . S
Co171 N185 2.140 . S
C172 O173 1.227 . S
C172 O182 1.265 . S
O173 C172 1.227 . S
N174 Co171 2.121 . S
N174 C176 1.375 . S
N174 C177 1.313 1_455 S
C175 C176 1.338 1_655 S
C175 N178 1.377 . S
C175 H195 0.930 1_556 S
C176 N174 1.375 . S
C176 C175 1.338 1_455 S
C176 H180 0.931 . S
C177 N174 1.313 1_655 S
C177 N178 1.344 . S
C177 H181 0.930 . S
N178 C175 1.377 . S
N178 C177 1.344 . S
O179 Co171 2.055 . S
O179 C183 1.253 1_455 S
H180 C176 0.931 . S
H181 C177 0.930 . S
O182 Co171 2.039 . S
O182 C172 1.265 . S
C183 O179 1.253 1_655 S
C183 O184 1.227 . S
O184 C183 1.227 . S
N185 Co171 2.140 . S
N185 C188 1.346 . S
N185 C189 1.345 . S
C186 C187 1.387 . S
C186 C190 1.391 . S
C187 C186 1.387 . S
C187 C188 1.369 . S
C187 H196 0.929 . S
C188 N185 1.346 . S
C188 C187 1.369 . S
C188 H191 0.928 . S
C189 N185 1.345 . S
C189 C190 1.371 . S
C189 H192 0.931 1_455 S
C190 C186 1.391 . S
C190 C189 1.371 . S
C190 H197 0.930 1_455 S
H191 C188 0.928 . S
H192 C189 0.931 1_655 S
H193 C169 0.930 . S
H194 C166 0.930 . S
H195 C175 0.930 1_554 S
H196 C187 0.929 . S
H197 C190 0.930 1_655 S
C198 C199 1.351 . S
C198 N201 1.368 . S
C198 H203 0.931 . S
C199 C198 1.351 . S
C199 N200 1.373 . S
C199 H227 0.930 . S
N200 C199 1.373 . S
N200 C202 1.340 . S
N201 C198 1.368 . S
N201 C202 1.321 . S
N201 Co204 2.135 . S
C202 N200 1.340 . S
C202 N201 1.321 . S
C202 H226 0.930 . S
H203 C198 0.931 . S
Co204 N201 2.135 . S
Co204 N207 2.121 . S
Co204 O212 2.055 . S
Co204 O215 2.039 . S
Co204 N218 2.140 . S
C205 O206 1.227 . S
C205 O215 1.265 . S
O206 C205 1.227 . S
N207 Co204 2.121 . S
N207 C209 1.375 . S
N207 C210 1.313 . S
C208 C209 1.338 . S
C208 N211 1.377 . S
C208 H228 0.930 . S
C209 N207 1.375 . S
C209 C208 1.338 . S
C209 H213 0.931 . S
C210 N207 1.313 . S
C210 N211 1.344 . S
C210 H214 0.930 . S
N211 C208 1.377 . S
N211 C210 1.344 . S
O212 Co204 2.055 . S
O212 C216 1.253 . S
H213 C209 0.931 . S
H214 C210 0.930 . S
O215 Co204 2.039 . S
O215 C205 1.265 . S
C216 O212 1.253 . S
C216 O217 1.227 . S
O217 C216 1.227 . S
N218 Co204 2.140 . S
N218 C221 1.346 . S
N218 C222 1.345 . S
C219 C220 1.387 . S
C219 C223 1.391 . S
C220 C219 1.387 . S
C220 C221 1.369 . S
C220 H229 0.929 . S
C221 N218 1.346 . S
C221 C220 1.369 . S
C221 H224 0.928 . S
C222 N218 1.345 . S
C222 C223 1.371 . S
C222 H225 0.931 . S
C223 C219 1.391 . S
C223 C222 1.371 . S
C223 H230 0.930 . S
H224 C221 0.928 . S
H225 C222 0.931 . S
H226 C202 0.930 . S
H227 C199 0.930 . S
H228 C208 0.930 . S
H229 C220 0.929 . S
H230 C223 0.930 . S
C231 C232 1.351 . S
C231 N234 1.368 . S
C231 H236 0.931 . S
C232 C231 1.351 . S
C232 N233 1.373 . S
C232 H260 0.930 . S
N233 C232 1.373 . S
N233 C235 1.340 . S
N234 C231 1.368 . S
N234 C235 1.321 . S
N234 Co237 2.135 . S
C235 N233 1.340 . S
C235 N234 1.321 . S
C235 H259 0.930 . S
H236 C231 0.931 . S
Co237 N234 2.135 . S
Co237 N240 2.121 . S
Co237 O245 2.055 . S
Co237 O248 2.039 . S
Co237 N251 2.140 . S
C238 O239 1.227 . S
C238 O248 1.265 . S
O239 C238 1.227 . S
N240 Co237 2.121 . S
N240 C242 1.375 . S
N240 C243 1.313 1_455 S
C241 C242 1.338 1_655 S
C241 N244 1.377 . S
C241 H261 0.930 1_554 S
C242 N240 1.375 . S
C242 C241 1.338 1_455 S
C242 H246 0.931 . S
C243 N240 1.313 1_655 S
C243 N244 1.344 . S
C243 H247 0.930 . S
N244 C241 1.377 . S
N244 C243 1.344 . S
O245 Co237 2.055 . S
O245 C249 1.253 1_455 S
H246 C242 0.931 . S
H247 C243 0.930 . S
O248 Co237 2.039 . S
O248 C238 1.265 . S
C249 O245 1.253 1_655 S
C249 O250 1.227 . S
O250 C249 1.227 . S
N251 Co237 2.140 . S
N251 C254 1.346 . S
N251 C255 1.345 . S
C252 C253 1.387 . S
C252 C256 1.391 . S
C253 C252 1.387 . S
C253 C254 1.369 . S
C253 H262 0.929 . S
C254 N251 1.346 . S
C254 C253 1.369 . S
C254 H257 0.928 . S
C255 N251 1.345 . S
C255 C256 1.371 . S
C255 H258 0.931 1_455 S
C256 C252 1.391 . S
C256 C255 1.371 . S
C256 H263 0.930 1_455 S
H257 C254 0.928 . S
H258 C255 0.931 1_655 S
H259 C235 0.930 . S
H260 C232 0.930 . S
H261 C241 0.930 1_556 S
H262 C253 0.929 . S
H263 C256 0.930 1_655 S
H264 C272 0.950 . S
H265 C277 0.950 . S
H266 C274 0.950 . S
H267 C276 0.950 . S
H268 C278 0.950 . S
H269 C280 0.950 . S
H270 C282 0.950 . S
H271 C283 0.950 . S
C272 H264 0.950 . S
C272 C273 1.386 . S
C272 C274 1.391 . S
C273 C272 1.386 . S
C273 C277 1.393 . S
C274 H266 0.950 . S
C274 C272 1.391 . S
C274 C275 1.400 . S
C275 C274 1.400 . S
C275 C276 1.398 . S
C275 C281 1.491 . S
C276 H267 0.950 . S
C276 C275 1.398 . S
C276 C277 1.391 . S
C277 H265 0.950 . S
C277 C273 1.393 . S
C277 C276 1.391 . S
C278 H268 0.950 . S
C278 C279 1.386 . S
C278 C280 1.391 . S
C279 C278 1.386 . S
C279 C283 1.393 . S
C280 H269 0.950 . S
C280 C278 1.391 . S
C280 C281 1.400 . S
C281 C275 1.491 . S
C281 C280 1.400 . S
C281 C282 1.398 . S
C282 H270 0.950 . S
C282 C281 1.398 . S
C282 C283 1.391 . S
C283 H271 0.950 . S
C283 C279 1.393 . S
C283 C282 1.391 . S
H284 C292 0.950 . S
H285 C297 0.950 . S
H286 C294 0.950 . S
H287 C296 0.950 . S
H288 C298 0.950 . S
H289 C300 0.950 . S
H290 C302 0.950 . S
H291 C303 0.950 . S
C292 H284 0.950 . S
C292 C293 1.386 . S
C292 C294 1.391 . S
C293 C292 1.386 . S
C293 C297 1.393 . S
C294 H286 0.950 . S
C294 C292 1.391 . S
C294 C295 1.400 . S
C295 C294 1.400 . S
C295 C296 1.398 . S
C295 C301 1.491 . S
C296 H287 0.950 . S
C296 C295 1.398 . S
C296 C297 1.391 . S
C297 H285 0.950 . S
C297 C293 1.393 . S
C297 C296 1.391 . S
C298 H288 0.950 . S
C298 C299 1.386 . S
C298 C300 1.391 . S
C299 C298 1.386 . S
C299 C303 1.393 . S
C300 H289 0.950 . S
C300 C298 1.391 . S
C300 C301 1.400 . S
C301 C295 1.491 . S
C301 C300 1.400 . S
C301 C302 1.398 . S
C302 H290 0.950 . S
C302 C301 1.398 . S
C302 C303 1.391 . S
C303 H291 0.950 . S
C303 C299 1.393 . S
C303 C302 1.391 . S
H304 C312 0.950 . S
H305 C317 0.950 1_455 S
H306 C314 0.950 . S
H307 C316 0.950 . S
H308 C318 0.950 . S
H309 C320 0.950 . S
H310 C322 0.950 . S
H311 C323 0.950 . S
C312 H304 0.950 . S
C312 C313 1.386 . S
C312 C314 1.391 . S
C313 C312 1.386 . S
C313 C317 1.393 . S
C314 H306 0.950 . S
C314 C312 1.391 . S
C314 C315 1.400 . S
C315 C314 1.400 . S
C315 C316 1.398 . S
C315 C321 1.491 . S
C316 H307 0.950 . S
C316 C315 1.398 . S
C316 C317 1.391 . S
C317 H305 0.950 1_655 S
C317 C313 1.393 . S
C317 C316 1.391 . S
C318 H308 0.950 . S
C318 C319 1.386 . S
C318 C320 1.391 . S
C319 C318 1.386 . S
C319 C323 1.393 . S
C320 H309 0.950 . S
C320 C318 1.391 . S
C320 C321 1.400 . S
C321 C315 1.491 . S
C321 C320 1.400 . S
C321 C322 1.398 . S
C322 H310 0.950 . S
C322 C321 1.398 . S
C322 C323 1.391 . S
C323 H311 0.950 . S
C323 C319 1.393 . S
C323 C322 1.391 . S
H324 C332 0.950 . S
H325 C337 0.950 . S
H326 C334 0.950 . S
H327 C336 0.950 . S
H328 C338 0.950 . S
H329 C340 0.950 . S
H330 C342 0.950 . S
H331 C343 0.950 . S
C332 H324 0.950 . S
C332 C333 1.386 . S
C332 C334 1.391 . S
C333 C332 1.386 . S
C333 C337 1.393 . S
C334 H326 0.950 . S
C334 C332 1.391 . S
C334 C335 1.400 . S
C335 C334 1.400 . S
C335 C336 1.398 . S
C335 C341 1.491 . S
C336 H327 0.950 . S
C336 C335 1.398 . S
C336 C337 1.391 . S
C337 H325 0.950 . S
C337 C333 1.393 . S
C337 C336 1.391 . S
C338 H328 0.950 . S
C338 C339 1.386 . S
C338 C340 1.391 . S
C339 C338 1.386 . S
C339 C343 1.393 . S
C340 H329 0.950 . S
C340 C338 1.391 . S
C340 C341 1.400 . S
C341 C335 1.491 . S
C341 C340 1.400 . S
C341 C342 1.398 . S
C342 H330 0.950 . S
C342 C341 1.398 . S
C342 C343 1.391 . S
C343 H331 0.950 . S
C343 C339 1.393 . S
C343 C342 1.391 . S
H344 C352 0.950 . S
H345 C357 0.950 . S
H346 C354 0.950 . S
H347 C356 0.950 . S
H348 C358 0.950 . S
H349 C360 0.950 . S
H350 C362 0.950 . S
H351 C363 0.950 . S
C352 H344 0.950 . S
C352 C353 1.386 . S
C352 C354 1.391 . S
C353 C352 1.386 . S
C353 C357 1.393 . S
C354 H346 0.950 . S
C354 C352 1.391 . S
C354 C355 1.400 . S
C355 C354 1.400 . S
C355 C356 1.398 . S
C355 C361 1.491 . S
C356 H347 0.950 . S
C356 C355 1.398 . S
C356 C357 1.391 . S
C357 H345 0.950 . S
C357 C353 1.393 . S
C357 C356 1.391 . S
C358 H348 0.950 . S
C358 C359 1.386 . S
C358 C360 1.391 . S
C359 C358 1.386 . S
C359 C363 1.393 . S
C360 H349 0.950 . S
C360 C358 1.391 . S
C360 C361 1.400 . S
C361 C355 1.491 . S
C361 C360 1.400 . S
C361 C362 1.398 . S
C362 H350 0.950 . S
C362 C361 1.398 . S
C362 C363 1.391 . S
C363 H351 0.950 . S
C363 C359 1.393 . S
C363 C362 1.391 . S
H364 C372 0.950 . S
H365 C377 0.950 . S
H366 C374 0.950 . S
H367 C376 0.950 . S
H368 C378 0.950 . S
H369 C380 0.950 . S
H370 C382 0.950 . S
H371 C383 0.950 . S
C372 H364 0.950 . S
C372 C373 1.386 . S
C372 C374 1.391 . S
C373 C372 1.386 . S
C373 C377 1.393 . S
C374 H366 0.950 . S
C374 C372 1.391 . S
C374 C375 1.400 . S
C375 C374 1.400 . S
C375 C376 1.398 . S
C375 C381 1.491 . S
C376 H367 0.950 . S
C376 C375 1.398 . S
C376 C377 1.391 . S
C377 H365 0.950 . S
C377 C373 1.393 . S
C377 C376 1.391 . S
C378 H368 0.950 . S
C378 C379 1.386 . S
C378 C380 1.391 . S
C379 C378 1.386 . S
C379 C383 1.393 . S
C380 H369 0.950 . S
C380 C378 1.391 . S
C380 C381 1.400 . S
C381 C375 1.491 . S
C381 C380 1.400 . S
C381 C382 1.398 . S
C382 H370 0.950 . S
C382 C381 1.398 . S
C382 C383 1.391 . S
C383 H371 0.950 . S
C383 C379 1.393 . S
C383 C382 1.391 . S
H384 C392 0.950 . S
H385 C397 0.950 . S
H386 C394 0.950 . S
H387 C396 0.950 . S
H388 C398 0.950 . S
H389 C400 0.950 . S
H390 C402 0.950 . S
H391 C403 0.950 . S
C392 H384 0.950 . S
C392 C393 1.386 . S
C392 C394 1.391 . S
C393 C392 1.386 . S
C393 C397 1.393 . S
C394 H386 0.950 . S
C394 C392 1.391 . S
C394 C395 1.400 . S
C395 C394 1.400 . S
C395 C396 1.398 . S
C395 C401 1.491 . S
C396 H387 0.950 . S
C396 C395 1.398 . S
C396 C397 1.391 . S
C397 H385 0.950 . S
C397 C393 1.393 . S
C397 C396 1.391 . S
C398 H388 0.950 . S
C398 C399 1.386 . S
C398 C400 1.391 . S
C399 C398 1.386 . S
C399 C403 1.393 . S
C400 H389 0.950 . S
C400 C398 1.391 . S
C400 C401 1.400 . S
C401 C395 1.491 . S
C401 C400 1.400 . S
C401 C402 1.398 . S
C402 H390 0.950 . S
C402 C401 1.398 . S
C402 C403 1.391 . S
C403 H391 0.950 . S
C403 C399 1.393 . S
C403 C402 1.391 . S
H404 C412 0.950 . S
H405 C417 0.950 . S
H406 C414 0.950 . S
H407 C416 0.950 . S
H408 C418 0.950 . S
H409 C420 0.950 . S
H410 C422 0.950 . S
H411 C423 0.950 . S
C412 H404 0.950 . S
C412 C413 1.386 . S
C412 C414 1.391 . S
C413 C412 1.386 . S
C413 C417 1.393 . S
C414 H406 0.950 . S
C414 C412 1.391 . S
C414 C415 1.400 . S
C415 C414 1.400 . S
C415 C416 1.398 . S
C415 C421 1.491 . S
C416 H407 0.950 . S
C416 C415 1.398 . S
C416 C417 1.391 . S
C417 H405 0.950 . S
C417 C413 1.393 . S
C417 C416 1.391 . S
C418 H408 0.950 . S
C418 C419 1.386 . S
C418 C420 1.391 . S
C419 C418 1.386 . S
C419 C423 1.393 . S
C420 H409 0.950 . S
C420 C418 1.391 . S
C420 C421 1.400 . S
C421 C415 1.491 . S
C421 C420 1.400 . S
C421 C422 1.398 . S
C422 H410 0.950 . S
C422 C421 1.398 . S
C422 C423 1.391 . S
C423 H411 0.950 . S
C423 C419 1.393 . S
C423 C422 1.391 . S
H424 C432 0.950 . S
H425 C437 0.950 . S
H426 C434 0.950 . S
H427 C436 0.950 . S
H428 C438 0.950 . S
H429 C440 0.950 . S
H430 C442 0.950 . S
H431 C443 0.950 . S
C432 H424 0.950 . S
C432 C433 1.386 . S
C432 C434 1.391 . S
C433 C432 1.386 . S
C433 C437 1.393 . S
C434 H426 0.950 . S
C434 C432 1.391 . S
C434 C435 1.400 . S
C435 C434 1.400 . S
C435 C436 1.398 . S
C435 C441 1.491 . S
C436 H427 0.950 . S
C436 C435 1.398 . S
C436 C437 1.391 . S
C437 H425 0.950 . S
C437 C433 1.393 . S
C437 C436 1.391 . S
C438 H428 0.950 . S
C438 C439 1.386 . S
C438 C440 1.391 . S
C439 C438 1.386 . S
C439 C443 1.393 . S
C440 H429 0.950 . S
C440 C438 1.391 . S
C440 C441 1.400 . S
C441 C435 1.491 . S
C441 C440 1.400 . S
C441 C442 1.398 . S
C442 H430 0.950 . S
C442 C441 1.398 . S
C442 C443 1.391 . S
C443 H431 0.950 . S
C443 C439 1.393 . S
C443 C442 1.391 . S
H444 C452 0.950 . S
H445 C457 0.950 1_554 S
H446 C454 0.950 . S
H447 C456 0.950 . S
H448 C458 0.950 . S
H449 C460 0.950 . S
H450 C462 0.950 . S
H451 C463 0.950 1_556 S
C452 H444 0.950 . S
C452 C453 1.386 . S
C452 C454 1.391 . S
C453 C452 1.386 . S
C453 C457 1.393 . S
C454 H446 0.950 . S
C454 C452 1.391 . S
C454 C455 1.400 . S
C455 C454 1.400 . S
C455 C456 1.398 1_556 S
C455 C461 1.491 1_556 S
C456 H447 0.950 . S
C456 C455 1.398 1_554 S
C456 C457 1.391 1_554 S
C457 H445 0.950 1_556 S
C457 C453 1.393 . S
C457 C456 1.391 1_556 S
C458 H448 0.950 . S
C458 C459 1.386 . S
C458 C460 1.391 . S
C459 C458 1.386 . S
C459 C463 1.393 . S
C460 H449 0.950 . S
C460 C458 1.391 . S
C460 C461 1.400 . S
C461 C455 1.491 1_554 S
C461 C460 1.400 . S
C461 C462 1.398 1_554 S
C462 H450 0.950 . S
C462 C461 1.398 1_556 S
C462 C463 1.391 1_556 S
C463 H451 0.950 1_554 S
C463 C459 1.393 . S
C463 C462 1.391 1_554 S
H464 C472 0.950 . S
H465 C477 0.950 . S
H466 C474 0.950 . S
H467 C476 0.950 . S
H468 C478 0.950 . S
H469 C480 0.950 . S
H470 C482 0.950 . S
H471 C483 0.950 . S
C472 H464 0.950 . S
C472 C473 1.386 . S
C472 C474 1.391 . S
C473 C472 1.386 . S
C473 C477 1.393 . S
C474 H466 0.950 . S
C474 C472 1.391 . S
C474 C475 1.400 . S
C475 C474 1.400 . S
C475 C476 1.398 . S
C475 C481 1.491 1_545 S
C476 H467 0.950 . S
C476 C475 1.398 . S
C476 C477 1.391 . S
C477 H465 0.950 . S
C477 C473 1.393 . S
C477 C476 1.391 . S
C478 H468 0.950 . S
C478 C479 1.386 . S
C478 C480 1.391 . S
C479 C478 1.386 . S
C479 C483 1.393 . S
C480 H469 0.950 . S
C480 C478 1.391 . S
C480 C481 1.400 . S
C481 C475 1.491 1_565 S
C481 C480 1.400 . S
C481 C482 1.398 . S
C482 H470 0.950 . S
C482 C481 1.398 . S
C482 C483 1.391 . S
C483 H471 0.950 . S
C483 C479 1.393 . S
C483 C482 1.391 . S
H484 C492 0.950 . S
H485 C497 0.943 1_556 S
H486 C494 0.950 . S
H487 C496 0.950 . S
H488 C498 0.950 . S
H489 C500 0.950 . S
H490 C502 0.950 . S
H491 C503 0.943 1_554 S
C492 H484 0.950 . S
C492 C493 1.386 . S
C492 C494 1.391 . S
C493 C492 1.386 . S
C493 C497 1.403 . S
C494 H486 0.950 . S
C494 C492 1.391 . S
C494 C495 1.400 . S
C495 C494 1.400 . S
C495 C496 1.398 1_554 S
C495 C501 1.491 1_564 S
C496 H487 0.950 . S
C496 C495 1.398 1_556 S
C496 C497 1.387 1_556 S
C497 H485 0.943 1_554 S
C497 C493 1.403 . S
C497 C496 1.387 1_554 S
C498 H488 0.950 . S
C498 C499 1.386 . S
C498 C500 1.391 . S
C499 C498 1.386 . S
C499 C503 1.403 . S
C500 H489 0.950 . S
C500 C498 1.391 . S
C500 C501 1.400 . S
C501 C495 1.491 1_546 S
C501 C500 1.400 . S
C501 C502 1.398 1_556 S
C502 H490 0.950 . S
C502 C501 1.398 1_554 S
C502 C503 1.387 1_554 S
C503 H491 0.943 1_556 S
C503 C499 1.403 . S
C503 C502 1.387 1_556 S
H504 C512 0.950 . S
H505 C517 0.950 . S
H506 C514 0.950 . S
H507 C516 0.950 . S
H508 C518 0.950 . S
H509 C520 0.950 . S
H510 C522 0.950 . S
H511 C523 0.950 . S
C512 H504 0.950 . S
C512 C513 1.386 . S
C512 C514 1.391 . S
C513 C512 1.386 . S
C513 C517 1.393 . S
C514 H506 0.950 . S
C514 C512 1.391 . S
C514 C515 1.400 . S
C515 C514 1.400 . S
C515 C516 1.398 . S
C515 C521 1.491 . S
C516 H507 0.950 . S
C516 C515 1.398 . S
C516 C517 1.391 . S
C517 H505 0.950 . S
C517 C513 1.393 . S
C517 C516 1.391 . S
C518 H508 0.950 . S
C518 C519 1.386 . S
C518 C520 1.391 . S
C519 C518 1.386 . S
C519 C523 1.393 . S
C520 H509 0.950 . S
C520 C518 1.391 . S
C520 C521 1.400 . S
C521 C515 1.491 . S
C521 C520 1.400 . S
C521 C522 1.398 . S
C522 H510 0.950 . S
C522 C521 1.398 . S
C522 C523 1.391 . S
C523 H511 0.950 . S
C523 C519 1.393 . S
C523 C522 1.391 . S
H524 C532 0.950 . S
H525 C537 0.950 . S
H526 C534 0.950 . S
H527 C536 0.950 . S
H528 C538 0.950 . S
H529 C540 0.950 . S
H530 C542 0.950 1_556 S
H531 C543 0.950 . S
C532 H524 0.950 . S
C532 C533 1.386 . S
C532 C534 1.391 . S
C533 C532 1.386 . S
C533 C537 1.393 1_556 S
C534 H526 0.950 . S
C534 C532 1.391 . S
C534 C535 1.400 1_556 S
C535 C534 1.400 1_554 S
C535 C536 1.398 . S
C535 C541 1.491 . S
C536 H527 0.950 . S
C536 C535 1.398 . S
C536 C537 1.391 . S
C537 H525 0.950 . S
C537 C533 1.393 1_554 S
C537 C536 1.391 . S
C538 H528 0.950 . S
C538 C539 1.386 . S
C538 C540 1.391 . S
C539 C538 1.386 . S
C539 C543 1.393 . S
C540 H529 0.950 . S
C540 C538 1.391 . S
C540 C541 1.400 . S
C541 C535 1.491 . S
C541 C540 1.400 . S
C541 C542 1.398 . S
C542 H530 0.950 1_554 S
C542 C541 1.398 . S
C542 C543 1.391 . S
C543 H531 0.950 . S
C543 C539 1.393 . S
C543 C542 1.391 . S
H544 C552 0.950 . S
H545 C557 0.950 . S
H546 C554 0.950 . S
H547 C556 0.950 . S
H548 C558 0.950 . S
H549 C560 0.950 . S
H550 C562 0.950 . S
H551 C563 0.950 . S
C552 H544 0.950 . S
C552 C553 1.386 . S
C552 C554 1.391 . S
C553 C552 1.386 . S
C553 C557 1.393 . S
C554 H546 0.950 . S
C554 C552 1.391 . S
C554 C555 1.400 . S
C555 C554 1.400 . S
C555 C556 1.398 . S
C555 C561 1.491 . S
C556 H547 0.950 . S
C556 C555 1.398 . S
C556 C557 1.391 . S
C557 H545 0.950 . S
C557 C553 1.393 . S
C557 C556 1.391 . S
C558 H548 0.950 . S
C558 C559 1.386 . S
C558 C560 1.391 . S
C559 C558 1.386 . S
C559 C563 1.393 . S
C560 H549 0.950 . S
C560 C558 1.391 . S
C560 C561 1.400 . S
C561 C555 1.491 . S
C561 C560 1.400 . S
C561 C562 1.398 . S
C562 H550 0.950 . S
C562 C561 1.398 . S
C562 C563 1.391 . S
C563 H551 0.950 . S
C563 C559 1.393 . S
C563 C562 1.391 . S
H564 C572 0.950 . S
H565 C577 0.950 . S
H566 C574 0.950 . S
H567 C576 0.950 1_554 S
H568 C578 0.950 . S
H569 C580 0.950 . S
H570 C582 0.950 . S
H571 C583 0.956 . S
C572 H564 0.950 . S
C572 C573 1.386 . S
C572 C574 1.391 . S
C573 C572 1.386 . S
C573 C577 1.393 . S
C574 H566 0.950 . S
C574 C572 1.391 . S
C574 C575 1.400 . S
C575 C574 1.400 . S
C575 C576 1.398 . S
C575 C581 1.491 . S
C576 H567 0.950 1_556 S
C576 C575 1.398 . S
C576 C577 1.391 . S
C577 H565 0.950 . S
C577 C573 1.393 . S
C577 C576 1.391 . S
C578 H568 0.950 . S
C578 C579 1.386 . S
C578 C580 1.391 . S
C579 C578 1.386 . S
C579 C583 1.379 1_554 S
C580 H569 0.950 . S
C580 C578 1.391 . S
C580 C581 1.400 1_554 S
C581 C575 1.491 . S
C581 C580 1.400 1_556 S
C581 C582 1.398 . S
C582 H570 0.950 . S
C582 C581 1.398 . S
C582 C583 1.399 . S
C583 H571 0.956 . S
C583 C579 1.379 1_556 S
C583 C582 1.399 . S
H584 C592 0.950 . S
H585 C597 0.950 . S
H586 C594 0.950 . S
H587 C596 0.950 . S
H588 C598 0.950 . S
H589 C600 0.950 . S
H590 C602 0.950 . S
H591 C603 0.950 . S
C592 H584 0.950 . S
C592 C593 1.386 1_655 S
C592 C594 1.391 . S
C593 C592 1.386 1_455 S
C593 C597 1.393 . S
C594 H586 0.950 . S
C594 C592 1.391 . S
C594 C595 1.400 . S
C595 C594 1.400 . S
C595 C596 1.398 . S
C595 C601 1.491 . S
C596 H587 0.950 . S
C596 C595 1.398 . S
C596 C597 1.391 1_655 S
C597 H585 0.950 . S
C597 C593 1.393 . S
C597 C596 1.391 1_455 S
C598 H588 0.950 . S
C598 C599 1.386 . S
C598 C600 1.391 . S
C599 C598 1.386 . S
C599 C603 1.393 . S
C600 H589 0.950 . S
C600 C598 1.391 . S
C600 C601 1.400 . S
C601 C595 1.491 . S
C601 C600 1.400 . S
C601 C602 1.398 . S
C602 H590 0.950 . S
C602 C601 1.398 . S
C602 C603 1.391 . S
C603 H591 0.950 . S
C603 C599 1.393 . S
C603 C602 1.391 . S
H604 C612 0.950 . S
H605 C617 0.950 . S
H606 C614 0.950 . S
H607 C616 0.950 1_556 S
H608 C618 0.950 . S
H609 C620 0.950 . S
H610 C622 0.950 . S
H611 C623 0.950 . S
C612 H604 0.950 . S
C612 C613 1.386 . S
C612 C614 1.391 . S
C613 C612 1.386 . S
C613 C617 1.393 . S
C614 H606 0.950 . S
C614 C612 1.391 . S
C614 C615 1.400 . S
C615 C614 1.400 . S
C615 C616 1.398 . S
C615 C621 1.491 . S
C616 H607 0.950 1_554 S
C616 C615 1.398 . S
C616 C617 1.391 . S
C617 H605 0.950 . S
C617 C613 1.393 . S
C617 C616 1.391 . S
C618 H608 0.950 . S
C618 C619 1.386 . S
C618 C620 1.391 . S
C619 C618 1.386 . S
C619 C623 1.393 1_556 S
C620 H609 0.950 . S
C620 C618 1.391 . S
C620 C621 1.400 1_556 S
C621 C615 1.491 . S
C621 C620 1.400 1_554 S
C621 C622 1.398 . S
C622 H610 0.950 . S
C622 C621 1.398 . S
C622 C623 1.391 . S
C623 H611 0.950 . S
C623 C619 1.393 1_554 S
C623 C622 1.391 . S
H624 C632 0.950 . S
H625 C637 0.950 . S
H626 C634 0.950 . S
H627 C636 0.950 . S
H628 C638 0.950 . S
H629 C640 0.950 . S
H630 C642 0.950 . S
H631 C643 0.950 . S
C632 H624 0.950 . S
C632 C633 1.386 1_655 S
C632 C634 1.391 . S
C633 C632 1.386 1_455 S
C633 C637 1.393 . S
C634 H626 0.950 . S
C634 C632 1.391 . S
C634 C635 1.400 . S
C635 C634 1.400 . S
C635 C636 1.398 . S
C635 C641 1.491 . S
C636 H627 0.950 . S
C636 C635 1.398 . S
C636 C637 1.391 1_655 S
C637 H625 0.950 . S
C637 C633 1.393 . S
C637 C636 1.391 1_455 S
C638 H628 0.950 . S
C638 C639 1.386 . S
C638 C640 1.391 . S
C639 C638 1.386 . S
C639 C643 1.393 . S
C640 H629 0.950 . S
C640 C638 1.391 . S
C640 C641 1.400 . S
C641 C635 1.491 . S
C641 C640 1.400 . S
C641 C642 1.398 . S
C642 H630 0.950 . S
C642 C641 1.398 . S
C642 C643 1.391 . S
C643 H631 0.950 . S
C643 C639 1.393 . S
C643 C642 1.391 . S
H644 C652 0.950 . S
H645 C657 0.950 . S
H646 C654 0.950 . S
H647 C656 0.950 1_554 S
H648 C658 0.950 . S
H649 C660 0.950 . S
H650 C662 0.950 . S
H651 C663 0.950 . S
C652 H644 0.950 . S
C652 C653 1.386 . S
C652 C654 1.391 . S
C653 C652 1.386 . S
C653 C657 1.393 . S
C654 H646 0.950 . S
C654 C652 1.391 . S
C654 C655 1.400 . S
C655 C654 1.400 . S
C655 C656 1.398 . S
C655 C661 1.491 . S
C656 H647 0.950 1_556 S
C656 C655 1.398 . S
C656 C657 1.391 . S
C657 H645 0.950 . S
C657 C653 1.393 . S
C657 C656 1.391 . S
C658 H648 0.950 . S
C658 C659 1.386 . S
C658 C660 1.391 . S
C659 C658 1.386 . S
C659 C663 1.393 1_554 S
C660 H649 0.950 . S
C660 C658 1.391 . S
C660 C661 1.400 1_554 S
C661 C655 1.491 . S
C661 C660 1.400 1_556 S
C661 C662 1.398 . S
C662 H650 0.950 . S
C662 C661 1.398 . S
C662 C663 1.391 . S
C663 H651 0.950 . S
C663 C659 1.393 1_556 S
C663 C662 1.391 . S
C273 C18 1.315 . S
C279 C117 1.323 . S
C293 C51 1.327 . S
C299 C84 1.315 . S
C313 N68 1.574 1_655 S
C319 N35 1.566 . S
C333 N101 1.565 . S
C339 N2 1.572 1_655 S
C353 C150 1.314 . S
C359 C249 1.326 . S
C373 C216 1.315 . S
C379 C183 1.324 . S
C393 N167 1.579 . S
C399 N200 1.585 . S
C413 N233 1.580 . S
C419 N134 1.586 . S
C433 C87 1.500 . S
C439 C21 1.499 . S
C453 C54 1.501 . S
C459 C120 1.500 . S
C473 C219 1.500 . S
C479 C153 1.499 . S
C493 C252 1.500 . S
C499 C186 1.499 . S
C513 N13 1.459 . S
C519 C205 1.474 . S
C533 N46 1.458 . S
C539 C238 1.472 . S
C553 N79 1.446 . S
C559 C139 1.475 . S
C573 C172 1.483 . S
C579 N112 1.435 . S
C593 C73 1.487 . S
C599 N145 1.436 . S
C613 C106 1.484 . S
C619 N178 1.435 . S
C633 C7 1.481 . S
C639 N211 1.451 . S
C653 C40 1.487 . S
C659 N244 1.436 . S
