# Generated by pormake.
# Topology whz, (6)-cn, num edge types: 1
# Building blocks:
#     Node 0, Type 0, BuildingBlock: IZENUY_clean_sbu_0, # of connection points: 6
#     Node 1, Type 0, BuildingBlock: IZENUY_clean_sbu_0, # of connection points: 6
#     Node 2, Type 0, BuildingBlock: IZENUY_clean_sbu_0, # of connection points: 6
#     Node 3, Type 0, BuildingBlock: IZENUY_clean_sbu_0, # of connection points: 6
#     Node 4, Type 0, BuildingBlock: IZENUY_clean_sbu_0, # of connection points: 6
#     Node 5, Type 0, BuildingBlock: IZENUY_clean_sbu_0, # of connection points: 6
#     Node 6, Type 0, BuildingBlock: IZENUY_clean_sbu_0, # of connection points: 6
#     Node 7, Type 0, BuildingBlock: IZENUY_clean_sbu_0, # of connection points: 6
#     Node 8, Type 0, BuildingBlock: IZENUY_clean_sbu_0, # of connection points: 6
#     Node 9, Type 0, BuildingBlock: IZENUY_clean_sbu_0, # of connection points: 6
#     Node 10, Type 0, BuildingBlock: IZENUY_clean_sbu_0, # of connection points: 6
#     Node 11, Type 0, BuildingBlock: IZENUY_clean_sbu_0, # of connection points: 6
#     Node 12, Type 0, BuildingBlock: IZENUY_clean_sbu_0, # of connection points: 6
#     Node 13, Type 0, BuildingBlock: IZENUY_clean_sbu_0, # of connection points: 6
#     Node 14, Type 0, BuildingBlock: IZENUY_clean_sbu_0, # of connection points: 6
#     Node 15, Type 0, BuildingBlock: IZENUY_clean_sbu_0, # of connection points: 6
#     Edge 16, Type (0, 0), BuildingBlock: ZUJKAS_clean_linker_0, # of connection points: 2
#     Edge 17, Type (0, 0), BuildingBlock: ZUJKAS_clean_linker_0, # of connection points: 2
#     Edge 18, Type (0, 0), BuildingBlock: ZUJKAS_clean_linker_0, # of connection points: 2
#     Edge 19, Type (0, 0), BuildingBlock: ZUJKAS_clean_linker_0, # of connection points: 2
#     Edge 20, Type (0, 0), BuildingBlock: ZUJKAS_clean_linker_0, # of connection points: 2
#     Edge 21, Type (0, 0), BuildingBlock: ZUJKAS_clean_linker_0, # of connection points: 2
#     Edge 22, Type (0, 0), BuildingBlock: ZUJKAS_clean_linker_0, # of connection points: 2
#     Edge 23, Type (0, 0), BuildingBlock: ZUJKAS_clean_linker_0, # of connection points: 2
#     Edge 24, Type (0, 0), BuildingBlock: ZUJKAS_clean_linker_0, # of connection points: 2
#     Edge 25, Type (0, 0), BuildingBlock: ZUJKAS_clean_linker_0, # of connection points: 2
#     Edge 26, Type (0, 0), BuildingBlock: ZUJKAS_clean_linker_0, # of connection points: 2
#     Edge 27, Type (0, 0), BuildingBlock: ZUJKAS_clean_linker_0, # of connection points: 2
#     Edge 28, Type (0, 0), BuildingBlock: ZUJKAS_clean_linker_0, # of connection points: 2
#     Edge 29, Type (0, 0), BuildingBlock: ZUJKAS_clean_linker_0, # of connection points: 2
#     Edge 30, Type (0, 0), BuildingBlock: ZUJKAS_clean_linker_0, # of connection points: 2
#     Edge 31, Type (0, 0), BuildingBlock: ZUJKAS_clean_linker_0, # of connection points: 2
#     Edge 32, Type (0, 0), BuildingBlock: ZUJKAS_clean_linker_0, # of connection points: 2
#     Edge 33, Type (0, 0), BuildingBlock: ZUJKAS_clean_linker_0, # of connection points: 2
#     Edge 34, Type (0, 0), BuildingBlock: ZUJKAS_clean_linker_0, # of connection points: 2
#     Edge 35, Type (0, 0), BuildingBlock: ZUJKAS_clean_linker_0, # of connection points: 2
#     Edge 36, Type (0, 0), BuildingBlock: ZUJKAS_clean_linker_0, # of connection points: 2
#     Edge 37, Type (0, 0), BuildingBlock: ZUJKAS_clean_linker_0, # of connection points: 2
#     Edge 38, Type (0, 0), BuildingBlock: ZUJKAS_clean_linker_0, # of connection points: 2
#     Edge 39, Type (0, 0), BuildingBlock: ZUJKAS_clean_linker_0, # of connection points: 2
#     Edge 40, Type (0, 0), BuildingBlock: ZUJKAS_clean_linker_0, # of connection points: 2
#     Edge 41, Type (0, 0), BuildingBlock: ZUJKAS_clean_linker_0, # of connection points: 2
#     Edge 42, Type (0, 0), BuildingBlock: ZUJKAS_clean_linker_0, # of connection points: 2
#     Edge 43, Type (0, 0), BuildingBlock: ZUJKAS_clean_linker_0, # of connection points: 2
#     Edge 44, Type (0, 0), BuildingBlock: ZUJKAS_clean_linker_0, # of connection points: 2
#     Edge 45, Type (0, 0), BuildingBlock: ZUJKAS_clean_linker_0, # of connection points: 2
#     Edge 46, Type (0, 0), BuildingBlock: ZUJKAS_clean_linker_0, # of connection points: 2
#     Edge 47, Type (0, 0), BuildingBlock: ZUJKAS_clean_linker_0, # of connection points: 2
#     Edge 48, Type (0, 0), BuildingBlock: ZUJKAS_clean_linker_0, # of connection points: 2
#     Edge 49, Type (0, 0), BuildingBlock: ZUJKAS_clean_linker_0, # of connection points: 2
#     Edge 50, Type (0, 0), BuildingBlock: ZUJKAS_clean_linker_0, # of connection points: 2
#     Edge 51, Type (0, 0), BuildingBlock: ZUJKAS_clean_linker_0, # of connection points: 2
#     Edge 52, Type (0, 0), BuildingBlock: ZUJKAS_clean_linker_0, # of connection points: 2
#     Edge 53, Type (0, 0), BuildingBlock: ZUJKAS_clean_linker_0, # of connection points: 2
#     Edge 54, Type (0, 0), BuildingBlock: ZUJKAS_clean_linker_0, # of connection points: 2
#     Edge 55, Type (0, 0), BuildingBlock: ZUJKAS_clean_linker_0, # of connection points: 2
#     Edge 56, Type (0, 0), BuildingBlock: ZUJKAS_clean_linker_0, # of connection points: 2
#     Edge 57, Type (0, 0), BuildingBlock: ZUJKAS_clean_linker_0, # of connection points: 2
#     Edge 58, Type (0, 0), BuildingBlock: ZUJKAS_clean_linker_0, # of connection points: 2
#     Edge 59, Type (0, 0), BuildingBlock: ZUJKAS_clean_linker_0, # of connection points: 2
#     Edge 60, Type (0, 0), BuildingBlock: ZUJKAS_clean_linker_0, # of connection points: 2
#     Edge 61, Type (0, 0), BuildingBlock: ZUJKAS_clean_linker_0, # of connection points: 2
#     Edge 62, Type (0, 0), BuildingBlock: ZUJKAS_clean_linker_0, # of connection points: 2
#     Edge 63, Type (0, 0), BuildingBlock: ZUJKAS_clean_linker_0, # of connection points: 2
# Relax obj value: 0.407
# Max RMSD: 0.252
# Mean RMSD: 0.252
data_MOF--net-whz--node1-IZENUY_clean_sbu_0--edge1-ZUJKAS_clean_linker_0
_symmetry_space_group_name_H-M    P1
_symmetry_Int_Tables_number       1
_symmetry_cell_setting            triclinic
loop_
_symmetry_equiv_pos_as_xyz
'x, y, z'
_cell_length_a     43.95712
_cell_length_b     43.82578
_cell_length_c     66.499644
_cell_angle_alpha  90.036133
_cell_angle_beta   89.95473
_cell_angle_gamma 89.916809
loop_
_atom_site_label
_atom_site_type_symbol
_atom_site_fract_x
_atom_site_fract_y
_atom_site_fract_z
_atom_type_partial_charge
Fe0 Fe 0.33498 0.18672 0.13105 0.0
Fe1 Fe 0.26944 0.17364 0.11876 0.0
O2 O 0.30836 0.16385 0.11808 0.0
Fe3 Fe 0.32075 0.13099 0.10477 0.0
O4 O 0.3357 0.11424 0.12766 0.0
O5 O 0.36067 0.15487 0.13739 0.0
O6 O 0.31663 0.17971 0.15487 0.0
C7 C 0.28935 0.18642 0.15854 0.0
C8 C 0.36625 0.17527 0.09662 0.0
O9 O 0.27052 0.19015 0.1443 0.0
C10 C 0.27818 0.15269 0.07848 0.0
O11 O 0.31404 0.22277 0.1274 0.0
O12 O 0.2766 0.21037 0.1072 0.0
O13 O 0.35816 0.1475 0.09777 0.0
O14 O 0.35474 0.19512 0.10797 0.0
C15 C 0.26574 0.11186 0.12319 0.0
O16 O 0.26124 0.15881 0.09343 0.0
O17 O 0.30579 0.14547 0.08107 0.0
C18 C 0.29356 0.23037 0.11494 0.0
O19 O 0.25994 0.13777 0.13047 0.0
O20 O 0.28579 0.10874 0.10958 0.0
C21 C 0.35419 0.12687 0.13949 0.0
Fe22 Fe 0.55432 0.57471 0.38354 0.0
Fe23 Fe 0.5653 0.51252 0.36394 0.0
O24 O 0.57681 0.55065 0.36804 0.0
Fe25 Fe 0.61081 0.56477 0.35709 0.0
O26 O 0.62035 0.58982 0.37869 0.0
O27 O 0.58533 0.57876 0.40119 0.0
O28 O 0.53984 0.54427 0.39951 0.0
C29 C 0.55162 0.5189 0.40374 0.0
C30 C 0.57313 0.61429 0.35277 0.0
O31 O 0.56669 0.50416 0.39085 0.0
C32 C 0.58548 0.52696 0.32621 0.0
O33 O 0.52162 0.57142 0.3669 0.0
O34 O 0.52456 0.52134 0.36473 0.0
O35 O 0.58986 0.59498 0.34398 0.0
O36 O 0.56461 0.60998 0.37066 0.0
C37 C 0.62924 0.50705 0.36796 0.0
O38 O 0.56351 0.51806 0.33695 0.0
O39 O 0.60738 0.54184 0.33389 0.0
C40 C 0.50978 0.54599 0.36249 0.0
O41 O 0.60376 0.49705 0.36218 0.0
O42 O 0.63403 0.53542 0.36927 0.0
C43 C 0.61164 0.5882 0.39692 0.0
Fe44 Fe 0.24137 0.82195 0.61374 0.0
Fe45 Fe 0.18495 0.86286 0.60817 0.0
O46 O 0.20255 0.82976 0.61833 0.0
Fe47 Fe 0.18122 0.80444 0.63354 0.0
O48 O 0.21311 0.79193 0.64895 0.0
O49 O 0.25024 0.82271 0.6406 0.0
O50 O 0.25297 0.86193 0.61284 0.0
C51 C 0.24057 0.88612 0.61924 0.0
C52 C 0.21332 0.76337 0.61142 0.0
O53 O 0.21197 0.88817 0.62067 0.0
C54 C 0.1399 0.82013 0.60321 0.0
O55 O 0.23547 0.82098 0.58678 0.0
O56 O 0.20772 0.86274 0.58477 0.0
O57 O 0.18712 0.77292 0.61616 0.0
O58 O 0.23649 0.78031 0.61363 0.0
C59 C 0.16278 0.85992 0.64816 0.0
O60 O 0.15665 0.83979 0.59481 0.0
O61 O 0.14512 0.81202 0.62108 0.0
C62 C 0.22462 0.84271 0.57658 0.0
O63 O 0.15961 0.869 0.63011 0.0
O64 O 0.1747 0.83432 0.65186 0.0
C65 C 0.23766 0.80526 0.65316 0.0
Fe66 Fe 0.94776 0.43552 0.88508 0.0
Fe67 Fe 0.93449 0.49506 0.86264 0.0
O68 O 0.92476 0.45681 0.86829 0.0
Fe69 Fe 0.89189 0.43975 0.8575 0.0
O70 O 0.88314 0.41582 0.8797 0.0
O71 O 0.91625 0.43105 0.90231 0.0
O72 O 0.95958 0.468 0.90026 0.0
C73 C 0.94683 0.49341 0.90293 0.0
C74 C 0.93306 0.39257 0.85527 0.0
O75 O 0.93234 0.50631 0.88899 0.0
C76 C 0.91546 0.47647 0.82549 0.0
O77 O 0.98102 0.43915 0.86901 0.0
O78 O 0.97562 0.48854 0.864 0.0
O79 O 0.91495 0.40968 0.84566 0.0
O80 O 0.94012 0.39888 0.87319 0.0
C81 C 0.8707 0.49717 0.86715 0.0
O82 O 0.937 0.48699 0.83593 0.0
O83 O 0.89434 0.46108 0.83365 0.0
C84 C 0.99172 0.46452 0.86342 0.0
O85 O 0.89522 0.50812 0.86034 0.0
O86 O 0.86692 0.46864 0.86857 0.0
C87 C 0.89089 0.41939 0.89796 0.0
Fe88 Fe 0.67154 0.81658 0.87691 0.0
Fe89 Fe 0.738 0.82781 0.88819 0.0
O90 O 0.69931 0.83857 0.88947 0.0
Fe91 Fe 0.68808 0.87167 0.90294 0.0
O92 O 0.67341 0.88892 0.88014 0.0
O93 O 0.64648 0.84925 0.87111 0.0
O94 O 0.68909 0.82342 0.85291 0.0
C95 C 0.71599 0.81618 0.84858 0.0
C96 C 0.64158 0.8287 0.91161 0.0
O97 O 0.73561 0.81201 0.86235 0.0
C98 C 0.73038 0.84846 0.92882 0.0
O99 O 0.69155 0.77988 0.87999 0.0
O100 O 0.73039 0.79089 0.89936 0.0
O101 O 0.65026 0.85625 0.91015 0.0
O102 O 0.65253 0.80848 0.90031 0.0
C103 C 0.74344 0.88968 0.88447 0.0
O104 O 0.74703 0.84171 0.91378 0.0
O105 O 0.70297 0.85653 0.92638 0.0
C106 C 0.71251 0.77151 0.89186 0.0
O107 O 0.74835 0.86382 0.87682 0.0
O108 O 0.72351 0.89298 0.8981 0.0
C109 C 0.65405 0.87691 0.86864 0.0
Fe110 Fe 0.39557 0.44052 0.65188 0.0
Fe111 Fe 0.45144 0.43231 0.62479 0.0
O112 O 0.4288 0.45583 0.6405 0.0
Fe113 Fe 0.43929 0.49443 0.64424 0.0
O114 O 0.40026 0.50869 0.64581 0.0
O115 O 0.37119 0.46884 0.63988 0.0
O116 O 0.38623 0.41504 0.63041 0.0
C117 C 0.394 0.41776 0.61207 0.0
C118 C 0.41983 0.48002 0.6823 0.0
O119 O 0.41999 0.42775 0.60747 0.0
C120 C 0.49574 0.46218 0.64552 0.0
O121 O 0.41779 0.41103 0.66483 0.0
O122 O 0.44223 0.39686 0.63771 0.0
O123 O 0.44126 0.48961 0.67133 0.0
O124 O 0.39866 0.46377 0.67495 0.0
C125 C 0.45238 0.48763 0.60422 0.0
O126 O 0.48443 0.43644 0.64113 0.0
O127 O 0.48029 0.48651 0.6435 0.0
C128 C 0.43464 0.39216 0.65573 0.0
O129 O 0.46494 0.46279 0.60869 0.0
O130 O 0.43778 0.5026 0.61725 0.0
C131 C 0.37503 0.49738 0.64052 0.0
Fe132 Fe 0.81598 0.13371 0.40497 0.0
Fe133 Fe 0.82942 0.18934 0.37847 0.0
O134 O 0.80317 0.16679 0.39204 0.0
Fe135 Fe 0.76425 0.17698 0.39223 0.0
O136 O 0.75367 0.14099 0.38098 0.0
O137 O 0.78069 0.11177 0.40102 0.0
O138 O 0.82956 0.11685 0.38165 0.0
C139 C 0.84759 0.12931 0.36942 0.0
C140 C 0.775 0.15595 0.43233 0.0
O141 O 0.85445 0.15722 0.37146 0.0
C142 C 0.78917 0.23362 0.39533 0.0
O143 O 0.85392 0.14986 0.41108 0.0
O144 O 0.85048 0.19754 0.40107 0.0
O145 O 0.75737 0.16266 0.41787 0.0
O146 O 0.80231 0.14812 0.42906 0.0
C147 C 0.7824 0.18916 0.35198 0.0
O148 O 0.80917 0.22565 0.38261 0.0
O149 O 0.77216 0.21393 0.40336 0.0
C150 C 0.8625 0.17751 0.41202 0.0
O151 O 0.80983 0.1825 0.35512 0.0
O152 O 0.76417 0.19308 0.36656 0.0
C153 C 0.75978 0.11504 0.38806 0.0
Fe154 Fe 0.07342 0.5173 0.13951 0.0
Fe155 Fe 0.11856 0.56639 0.15351 0.0
O156 O 0.08532 0.5557 0.14015 0.0
Fe157 Fe 0.06416 0.58355 0.12704 0.0
O158 O 0.0708 0.56479 0.10334 0.0
O159 O 0.05731 0.5193 0.11379 0.0
O160 O 0.10872 0.50567 0.12798 0.0
C161 C 0.13471 0.5098 0.13545 0.0
C162 C 0.01824 0.54459 0.14293 0.0
O163 O 0.13889 0.52998 0.14889 0.0
C164 C 0.07643 0.61423 0.16153 0.0
O165 O 0.08741 0.50837 0.16504 0.0
O166 O 0.10318 0.55237 0.17717 0.0
O167 O 0.02711 0.56451 0.1304 0.0
O168 O 0.03714 0.52664 0.1509 0.0
C169 C 0.12475 0.59956 0.11875 0.0
O170 O 0.10383 0.6049 0.16044 0.0
O171 O 0.05634 0.6036 0.15007 0.0
C172 C 0.0945 0.52517 0.17991 0.0
O173 O 0.13625 0.58028 0.13059 0.0
O174 O 0.09726 0.60768 0.12093 0.0
C175 C 0.06242 0.53797 0.09958 0.0
Fe176 Fe 0.81818 0.70065 0.63481 0.0
Fe177 Fe 0.75895 0.68498 0.61286 0.0
O178 O 0.79757 0.6767 0.61825 0.0
Fe179 Fe 0.81563 0.64439 0.60732 0.0
O180 O 0.84016 0.63638 0.62931 0.0
O181 O 0.82464 0.66938 0.65201 0.0
O182 O 0.78561 0.71088 0.65031 0.0
C183 C 0.76101 0.69686 0.65326 0.0
C184 C 0.86118 0.68711 0.6047 0.0
O185 O 0.74826 0.68214 0.63932 0.0
C186 C 0.77783 0.66693 0.57557 0.0
O187 O 0.81264 0.73383 0.61878 0.0
O188 O 0.76356 0.72651 0.6145 0.0
O189 O 0.84453 0.66842 0.59527 0.0
O190 O 0.85474 0.69462 0.62253 0.0
C191 C 0.75954 0.62052 0.61645 0.0
O192 O 0.7667 0.68818 0.58611 0.0
O193 O 0.79385 0.64613 0.58363 0.0
C194 C 0.78674 0.74366 0.61365 0.0
O195 O 0.74752 0.64502 0.61024 0.0
O196 O 0.78804 0.6184 0.61857 0.0
C197 C 0.83698 0.64428 0.64758 0.0
Fe198 Fe 0.06203 0.01571 0.86472 0.0
Fe199 Fe 0.10974 0.06619 0.85871 0.0
O200 O 0.07441 0.05361 0.86862 0.0
Fe201 Fe 0.05142 0.0791 0.88283 0.0
O202 O 0.0343 0.04991 0.89868 0.0
O203 O 0.06025 0.00846 0.89178 0.0
O204 O 0.10008 0.99893 0.86511 0.0
C205 C 0.12539 0.00856 0.87151 0.0
C206 C 0.00793 0.05099 0.86039 0.0
O207 O 0.131 0.03681 0.87217 0.0
C208 C 0.07423 0.11669 0.85218 0.0
O209 O 0.06312 0.01995 0.83755 0.0
O210 O 0.10781 0.04238 0.83589 0.0
O211 O 0.0201 0.0762 0.86502 0.0
O212 O 0.02167 0.02595 0.86346 0.0
C213 C 0.10806 0.09106 0.8981 0.0
O214 O 0.09092 0.09646 0.84432 0.0
O215 O 0.06408 0.11346 0.86979 0.0
C216 C 0.08632 0.02773 0.82759 0.0
O217 O 0.1182 0.09171 0.88018 0.0
O218 O 0.08103 0.0829 0.90159 0.0
C219 C 0.04404 0.02397 0.90366 0.0
Fe220 Fe 0.67101 0.31269 0.1311 0.0
Fe221 Fe 0.73601 0.32225 0.11626 0.0
O222 O 0.69776 0.33438 0.11735 0.0
Fe223 Fe 0.68613 0.36831 0.10504 0.0
O224 O 0.67421 0.38507 0.12873 0.0
O225 O 0.64751 0.34569 0.13865 0.0
O226 O 0.69178 0.31826 0.15415 0.0
C227 C 0.71894 0.31002 0.1567 0.0
C228 C 0.6376 0.32679 0.09811 0.0
O229 O 0.73623 0.30528 0.14171 0.0
C230 C 0.72473 0.34499 0.07672 0.0
O231 O 0.68966 0.27559 0.12642 0.0
O232 O 0.72548 0.2864 0.10461 0.0
O233 O 0.64734 0.35404 0.09931 0.0
O234 O 0.64886 0.30596 0.10877 0.0
C235 C 0.7441 0.38357 0.12109 0.0
O236 O 0.74269 0.33717 0.09075 0.0
O237 O 0.69801 0.3539 0.08063 0.0
C238 C 0.70827 0.26719 0.11292 0.0
O239 O 0.74895 0.35716 0.12784 0.0
O240 O 0.72269 0.38839 0.10868 0.0
C241 C 0.65553 0.37327 0.14082 0.0
Fe242 Fe 0.45202 0.92985 0.38403 0.0
Fe243 Fe 0.4415 0.99101 0.36302 0.0
O244 O 0.42951 0.95338 0.36826 0.0
Fe245 Fe 0.39506 0.93897 0.35804 0.0
O246 O 0.386 0.91516 0.38025 0.0
O247 O 0.4214 0.92736 0.4022 0.0
O248 O 0.46784 0.96077 0.39897 0.0
C249 C 0.45777 0.98711 0.40252 0.0
C250 C 0.43322 0.88957 0.35409 0.0
O251 O 0.44186 1.00108 0.38972 0.0
C252 C 0.41936 0.97509 0.326 0.0
O253 O 0.48419 0.93146 0.36686 0.0
O254 O 0.48212 0.98138 0.36303 0.0
O255 O 0.4155 0.9079 0.34521 0.0
O256 O 0.44057 0.89432 0.37214 0.0
C257 C 0.37773 0.99737 0.36831 0.0
O258 O 0.44192 0.98403 0.33613 0.0
O259 O 0.39767 0.96082 0.33438 0.0
C260 C 0.49633 0.95627 0.36141 0.0
O261 O 0.40311 0.00693 0.36193 0.0
O262 O 0.37257 0.96909 0.36995 0.0
C263 C 0.39496 0.91776 0.39836 0.0
Fe264 Fe 0.17411 0.31284 0.37802 0.0
Fe265 Fe 0.23867 0.3251 0.393 0.0
O266 O 0.19987 0.33559 0.39188 0.0
Fe267 Fe 0.18668 0.36918 0.40411 0.0
O268 O 0.17446 0.38538 0.38027 0.0
O269 O 0.14962 0.34491 0.37021 0.0
O270 O 0.19491 0.31888 0.355 0.0
C271 C 0.22242 0.31186 0.35252 0.0
C272 C 0.13952 0.3259 0.41073 0.0
O273 O 0.23993 0.30842 0.36751 0.0
C274 C 0.22585 0.34704 0.43262 0.0
O275 O 0.19389 0.27651 0.3829 0.0
O276 O 0.22991 0.28849 0.40429 0.0
O277 O 0.14835 0.35346 0.4096 0.0
O278 O 0.15188 0.30544 0.40027 0.0
C279 C 0.24389 0.38695 0.38829 0.0
O280 O 0.24426 0.33984 0.41866 0.0
O281 O 0.19895 0.3555 0.42867 0.0
C282 C 0.21328 0.2687 0.39604 0.0
O283 O 0.25017 0.36075 0.38165 0.0
O284 O 0.22233 0.39074 0.40072 0.0
C285 C 0.1568 0.37269 0.3679 0.0
Fe286 Fe 0.93854 0.99464 0.14603 0.0
Fe287 Fe 0.89436 0.9405 0.14993 0.0
O288 O 0.92842 0.95662 0.14029 0.0
Fe289 Fe 0.95238 0.93455 0.12454 0.0
O290 O 0.96688 0.96655 0.10999 0.0
O291 O 0.93868 0.00529 0.11943 0.0
O292 O 0.89936 0.00866 0.14715 0.0
C293 C 0.87478 0.99812 0.14014 0.0
C294 C 0.99503 0.9626 0.14754 0.0
O295 O 0.87105 0.96973 0.13784 0.0
C296 C 0.9348 0.8931 0.15407 0.0
O297 O 0.93885 0.98689 0.17283 0.0
O298 O 0.89532 0.96221 0.17383 0.0
O299 O 0.98391 0.93738 0.14204 0.0
O300 O 0.97968 0.98706 0.14608 0.0
C301 C 0.89633 0.92007 0.10946 0.0
O302 O 0.91576 0.91027 0.16279 0.0
O303 O 0.94253 0.89828 0.13614 0.0
C304 C 0.91626 0.97709 0.18262 0.0
O305 O 0.88708 0.91649 0.12745 0.0
O306 O 0.92239 0.93097 0.10605 0.0
C307 C 0.95528 0.99228 0.10652 0.0
Fe308 Fe 0.31793 0.63817 0.904 0.0
Fe309 Fe 0.33372 0.69369 0.87805 0.0
O310 O 0.30655 0.67191 0.89135 0.0
Fe311 Fe 0.26809 0.68362 0.89162 0.0
O312 O 0.25615 0.64845 0.87981 0.0
O313 O 0.28171 0.61787 0.89983 0.0
O314 O 0.33083 0.62123 0.88057 0.0
C315 C 0.34957 0.63306 0.86854 0.0
C316 C 0.27789 0.66141 0.93151 0.0
O317 O 0.35749 0.66069 0.87072 0.0
C318 C 0.29509 0.73902 0.89546 0.0
O319 O 0.35649 0.65252 0.91026 0.0
O320 O 0.35508 0.70048 0.9007 0.0
O321 O 0.26042 0.66866 0.91706 0.0
O322 O 0.30493 0.65285 0.92815 0.0
C323 C 0.28702 0.69686 0.85158 0.0
O324 O 0.3148 0.73071 0.88262 0.0
O325 O 0.2776 0.71965 0.90337 0.0
C326 C 0.36624 0.67974 0.91146 0.0
O327 O 0.31388 0.68819 0.85465 0.0
O328 O 0.26884 0.70085 0.86619 0.0
C329 C 0.26106 0.62216 0.8868 0.0
Fe330 Fe 0.54684 0.07512 0.62618 0.0
Fe331 Fe 0.56126 0.01273 0.6443 0.0
O332 O 0.57108 0.05146 0.64072 0.0
Fe333 Fe 0.60503 0.06666 0.65123 0.0
O334 O 0.6126 0.09248 0.62974 0.0
O335 O 0.57681 0.08103 0.60786 0.0
O336 O 0.53253 0.0448 0.61007 0.0
C337 C 0.54438 0.01973 0.60514 0.0
C338 C 0.56487 0.11392 0.65734 0.0
O339 O 0.56134 0.00546 0.6172 0.0
C340 C 0.58262 0.02664 0.68193 0.0
O341 O 0.51525 0.06996 0.64356 0.0
O342 O 0.5201 0.01998 0.64473 0.0
O343 O 0.58373 0.09575 0.6652 0.0
O344 O 0.55636 0.11016 0.63942 0.0
C345 C 0.62533 0.01015 0.63908 0.0
O346 O 0.56074 0.01703 0.6714 0.0
O347 O 0.60346 0.04296 0.67419 0.0
C348 C 0.50448 0.04396 0.64773 0.0
O349 O 0.60041 0.99872 0.6448 0.0
O350 O 0.62884 0.03872 0.63826 0.0
C351 C 0.60318 0.09088 0.61167 0.0
H352 H 0.23772 0.21572 0.17127 0.0
H353 H 0.22762 0.23634 0.20484 0.0
H354 H 0.31208 0.19819 0.22623 0.0
H355 H 0.32258 0.17774 0.19276 0.0
H356 H 0.22372 0.20786 0.24301 0.0
H357 H 0.31991 0.28984 0.23895 0.0
H358 H 0.30556 0.27006 0.21712 0.0
H359 H 0.33004 0.25067 0.23458 0.0
C360 C 0.25399 0.21141 0.18316 0.0
C361 C 0.28114 0.19544 0.17928 0.0
C362 C 0.24822 0.22327 0.2023 0.0
C363 C 0.26946 0.21936 0.21783 0.0
C364 C 0.29578 0.20207 0.21429 0.0
H365 H 0.27469 0.2815 0.34203 0.0
H366 H 0.28704 0.25952 0.30912 0.0
C367 C 0.30163 0.19028 0.19518 0.0
C368 C 0.26437 0.23392 0.2376 0.0
H369 H 0.29324 0.2872 0.26985 0.0
C370 C 0.23886 0.22524 0.24888 0.0
C371 C 0.28424 0.25657 0.24517 0.0
C372 C 0.31135 0.2676 0.23329 0.0
C373 C 0.23281 0.23842 0.26769 0.0
C374 C 0.25256 0.26121 0.27518 0.0
C375 C 0.27821 0.26972 0.264 0.0
C376 C 0.24655 0.27673 0.29451 0.0
C377 C 0.20558 0.22757 0.27952 0.0
C378 C 0.22035 0.29461 0.29688 0.0
C379 C 0.21325 0.30721 0.31556 0.0
C380 C 0.23234 0.30222 0.33223 0.0
C381 C 0.25949 0.28569 0.32952 0.0
C382 C 0.26654 0.27305 0.31077 0.0
H383 H 0.19721 0.20515 0.27404 0.0
H384 H 0.21115 0.22555 0.29575 0.0
H385 H 0.18685 0.24439 0.27792 0.0
H386 H 0.20502 0.29825 0.28435 0.0
H387 H 0.19236 0.32016 0.31706 0.0
H388 H 0.44118 0.45491 0.57125 0.0
H389 H 0.45971 0.46457 0.53739 0.0
H390 H 0.4943 0.55199 0.55637 0.0
H391 H 0.47475 0.54257 0.59067 0.0
H392 H 0.46605 0.54752 0.51473 0.0
H393 H 0.55501 0.46108 0.53065 0.0
H394 H 0.51714 0.44849 0.53649 0.0
H395 H 0.53342 0.4798 0.55024 0.0
C396 C 0.4516 0.47674 0.56805 0.0
C397 C 0.45629 0.49816 0.58343 0.0
C398 C 0.46252 0.48205 0.54876 0.0
C399 C 0.47891 0.50863 0.54457 0.0
C400 C 0.4818 0.53124 0.55946 0.0
H401 H 0.59044 0.51633 0.43522 0.0
H402 H 0.57512 0.51439 0.47074 0.0
C403 C 0.47045 0.52602 0.57891 0.0
C404 C 0.49475 0.51098 0.52504 0.0
H405 H 0.54667 0.4732 0.49597 0.0
C406 C 0.484 0.53166 0.51067 0.0
C407 C 0.51849 0.49052 0.51994 0.0
C408 C 0.53194 0.46889 0.5352 0.0
C409 C 0.49529 0.53127 0.49091 0.0
C410 C 0.51735 0.50914 0.4854 0.0
C411 C 0.52935 0.4897 0.50012 0.0
C412 C 0.52766 0.5055 0.46433 0.0
C413 C 0.4833 0.5544 0.47609 0.0
C414 C 0.50646 0.49917 0.44913 0.0
C415 C 0.5152 0.50017 0.42898 0.0
C416 C 0.54541 0.50674 0.42378 0.0
C417 C 0.5672 0.51042 0.43898 0.0
C418 C 0.55837 0.50974 0.4592 0.0
H419 H 0.47406 0.57487 0.48386 0.0
H420 H 0.50135 0.56178 0.46547 0.0
H421 H 0.46455 0.54403 0.46728 0.0
H422 H 0.4828 0.49506 0.45281 0.0
H423 H 0.49797 0.4979 0.41742 0.0
H424 H 0.24457 0.74915 0.66874 0.0
H425 H 0.2555 0.7364 0.70372 0.0
H426 H 0.27159 0.83143 0.71677 0.0
H427 H 0.26101 0.84435 0.68135 0.0
H428 H 0.31209 0.78699 0.73709 0.0
H429 H 0.18941 0.76124 0.74585 0.0
H430 H 0.20668 0.7419 0.72493 0.0
H431 H 0.20429 0.78288 0.72494 0.0
C432 C 0.25129 0.76723 0.67895 0.0
C433 C 0.25194 0.7977 0.67249 0.0
C434 C 0.25729 0.75995 0.69891 0.0
C435 C 0.26357 0.78307 0.71285 0.0
C436 C 0.26653 0.81335 0.70618 0.0
H437 H 0.24386 0.73924 0.84117 0.0
H438 H 0.23771 0.76384 0.80829 0.0
C439 C 0.26076 0.82066 0.686 0.0
C440 C 0.26474 0.77533 0.73447 0.0
H441 H 0.22247 0.74192 0.77146 0.0
C442 C 0.29245 0.77753 0.74474 0.0
C443 C 0.23887 0.76363 0.74452 0.0
C444 C 0.20803 0.76253 0.73457 0.0
C445 C 0.2954 0.76663 0.7645 0.0
C446 C 0.2701 0.75265 0.77396 0.0
C447 C 0.24195 0.75217 0.76408 0.0
C448 C 0.27275 0.73707 0.79366 0.0
C449 C 0.32564 0.76996 0.77498 0.0
C450 C 0.2935 0.71302 0.79606 0.0
C451 C 0.29703 0.69898 0.81472 0.0
C452 C 0.27954 0.70842 0.83131 0.0
C453 C 0.25753 0.73137 0.82864 0.0
C454 C 0.25418 0.7456 0.80993 0.0
H455 H 0.33894 0.78927 0.76868 0.0
H456 H 0.32264 0.77367 0.79138 0.0
H457 H 0.33916 0.74882 0.77275 0.0
H458 H 0.30731 0.70535 0.78353 0.0
H459 H 0.31396 0.68114 0.81627 0.0
H460 H 0.98787 0.53682 0.91332 0.0
H461 H 0.00479 0.54784 0.94783 0.0
H462 H 0.93325 0.49059 0.97111 0.0
H463 H 0.91641 0.47963 0.93671 0.0
H464 H 0.97163 0.56785 0.98658 0.0
H465 H 0.01843 0.4497 0.98582 0.0
H466 H 0.00856 0.46986 0.96306 0.0
H467 H 0.9792 0.45413 0.97867 0.0
C468 C 0.97503 0.52779 0.92589 0.0
C469 C 0.95065 0.50782 0.92259 0.0
C470 C 0.9848 0.53384 0.94551 0.0
C471 C 0.97043 0.5197 0.96189 0.0
C472 C 0.94466 0.50156 0.95861 0.0
H473 H 0.02197 0.49438 0.08703 0.0
H474 H 0.99954 0.4896 0.05342 0.0
C475 C 0.93492 0.49554 0.93905 0.0
C476 C 0.98436 0.52096 0.98207 0.0
H477 H 0.02392 0.47772 0.01584 0.0
C478 C 0.98309 0.54823 0.99303 0.0
C479 C 0.99918 0.49519 0.99035 0.0
C480 C 1.00172 0.46555 0.97889 0.0
C481 C 0.99603 0.55032 0.01228 0.0
C482 C 0.01124 0.52465 0.02047 0.0
C483 C 0.0123 0.49733 0.00951 0.0
C484 C 0.02646 0.52583 0.04031 0.0
C485 C 0.99275 0.57981 0.02382 0.0
C486 C 0.04993 0.5468 0.04378 0.0
C487 C 0.0627 0.54959 0.06288 0.0
C488 C 0.0525 0.53118 0.07884 0.0
C489 C 0.03034 0.50882 0.07503 0.0
C490 C 0.01739 0.5062 0.05589 0.0
H491 H 0.97355 0.59381 0.01806 0.0
H492 H 0.98902 0.57542 0.04008 0.0
H493 H 0.0139 0.59336 0.02216 0.0
H494 H 0.05792 0.56149 0.03181 0.0
H495 H 0.08001 0.56678 0.0653 0.0
H496 H 0.76186 0.77933 0.83444 0.0
H497 H 0.76626 0.75771 0.80052 0.0
H498 H 0.68748 0.80912 0.78181 0.0
H499 H 0.68324 0.83114 0.81534 0.0
H500 H 0.72099 0.72226 0.78202 0.0
H501 H 0.74729 0.82477 0.73624 0.0
H502 H 0.75148 0.82413 0.76324 0.0
H503 H 0.71452 0.829 0.75212 0.0
C504 C 0.74598 0.78661 0.82295 0.0
C505 C 0.72219 0.80689 0.82758 0.0
C506 C 0.74837 0.77408 0.80364 0.0
C507 C 0.72727 0.78193 0.78864 0.0
C508 C 0.70427 0.80308 0.79304 0.0
H509 H 0.7076 0.72481 0.66336 0.0
H510 H 0.69373 0.7424 0.69734 0.0
C511 C 0.70182 0.81553 0.81227 0.0
C512 C 0.72793 0.76657 0.7688 0.0
H513 H 0.73431 0.77978 0.71841 0.0
C514 C 0.724 0.7348 0.7681 0.0
C515 C 0.73142 0.78306 0.75067 0.0
C516 C 0.73668 0.81709 0.75053 0.0
C517 C 0.72355 0.71903 0.74972 0.0
C518 C 0.7275 0.73545 0.73163 0.0
C519 C 0.73091 0.76728 0.73231 0.0
C520 C 0.73161 0.71995 0.71201 0.0
C521 C 0.71875 0.68495 0.74983 0.0
C522 C 0.75687 0.70087 0.70917 0.0
C523 C 0.76468 0.69095 0.68994 0.0
C524 C 0.74728 0.69976 0.67325 0.0
C525 C 0.72086 0.71719 0.67613 0.0
C526 C 0.71315 0.72741 0.69546 0.0
H527 H 0.70662 0.67744 0.76363 0.0
H528 H 0.70559 0.67745 0.73647 0.0
H529 H 0.7412 0.67335 0.74951 0.0
H530 H 0.77181 0.69538 0.7216 0.0
H531 H 0.78547 0.67797 0.68792 0.0
H532 H 0.68899 0.32066 0.19192 0.0
H533 H 0.70098 0.30022 0.22504 0.0
H534 H 0.78207 0.25808 0.20118 0.0
H535 H 0.76998 0.27806 0.16771 0.0
H536 H 0.74495 0.21823 0.22293 0.0
H537 H 0.76542 0.32469 0.26595 0.0
H538 H 0.73008 0.32473 0.25244 0.0
H539 H 0.76542 0.32359 0.2388 0.0
C540 C 0.70962 0.30737 0.19371 0.0
C541 C 0.72848 0.30086 0.17714 0.0
C542 C 0.71652 0.29588 0.21271 0.0
C543 C 0.74254 0.2779 0.21558 0.0
C544 C 0.76193 0.27204 0.19924 0.0
H545 H 0.8138 0.17842 0.31732 0.0
H546 H 0.8026 0.19813 0.28386 0.0
C547 C 0.75505 0.28357 0.18017 0.0
C548 C 0.7482 0.26352 0.23534 0.0
H549 H 0.75851 0.2793 0.28511 0.0
C550 C 0.74818 0.23154 0.23652 0.0
C551 C 0.75215 0.281 0.25302 0.0
C552 C 0.75357 0.3154 0.25252 0.0
C553 C 0.75143 0.21654 0.25502 0.0
C554 C 0.75519 0.23403 0.2727 0.0
C555 C 0.75533 0.266 0.27151 0.0
C556 C 0.76027 0.2197 0.29253 0.0
C557 C 0.75022 0.18214 0.25555 0.0
C558 C 0.7401 0.22526 0.30849 0.0
C559 C 0.74647 0.21409 0.32773 0.0
C560 C 0.77333 0.19751 0.33131 0.0
C561 C 0.79295 0.19118 0.31509 0.0
C562 C 0.78652 0.20227 0.29591 0.0
H563 H 0.7392 0.17265 0.24187 0.0
H564 H 0.77373 0.17297 0.25629 0.0
H565 H 0.73765 0.174 0.269 0.0
H566 H 0.71977 0.2388 0.30614 0.0
H567 H 0.73096 0.21944 0.3399 0.0
H568 H 0.01181 1.00193 0.09261 0.0
H569 H 0.02611 0.00988 0.05748 0.0
H570 H 0.93144 0.01963 0.04164 0.0
H571 H 0.9171 0.01218 0.07704 0.0
H572 H 0.00559 0.96757 0.02898 0.0
H573 H 0.97384 0.08606 0.00771 0.0
H574 H 0.97911 0.07448 0.03354 0.0
H575 H 0.94484 0.06455 0.02042 0.0
C576 C 0.99418 0.00713 0.08174 0.0
C577 C 0.96342 0.00687 0.08743 0.0
C578 C 0.00234 0.01139 0.06169 0.0
C579 C 0.97986 0.01526 0.04697 0.0
C580 C 0.94916 0.01715 0.05283 0.0
H581 H 0.98649 0.02148 0.9173 0.0
H582 H 0.97035 0.01509 0.95221 0.0
C583 C 0.94097 0.0131 0.07302 0.0
C584 C 0.98847 0.01336 0.02547 0.0
H585 H 0.9891 0.05301 0.98141 0.0
C586 C 1.00208 0.98627 0.01855 0.0
C587 C 0.98365 0.03768 0.01195 0.0
C588 C 0.96978 0.06747 0.01873 0.0
C589 C 0.01078 0.98274 0.99838 0.0
C590 C 0.00626 0.00718 0.98486 0.0
C591 C 0.99252 0.03424 0.99179 0.0
C592 C 0.01555 0.00549 0.96344 0.0
C593 C 0.02414 0.95267 0.99167 0.0
C594 C 0.04618 1.00093 0.95801 0.0
C595 C 0.05534 0.00391 0.93791 0.0
C596 C 0.03402 0.01197 0.92316 0.0
C597 C 0.00324 0.01493 0.92846 0.0
C598 C 0.99406 0.01155 0.94839 0.0
H599 H 0.01796 0.93387 1.0021 0.0
H600 H 0.01636 0.94657 0.97631 0.0
H601 H 0.04932 0.95449 0.99145 0.0
H602 H 0.06327 0.99686 0.96941 0.0
H603 H 0.07929 1.00229 0.93419 0.0
H604 H 0.42184 0.01197 0.43173 0.0
H605 H 0.43719 0.02028 0.46691 0.0
H606 H 0.5302 0.99956 0.45116 0.0
H607 H 0.51498 0.99141 0.41631 0.0
H608 H 0.46305 0.97129 0.48833 0.0
H609 H 0.54009 0.07134 0.4897 0.0
H610 H 0.51367 0.06445 0.4694 0.0
H611 H 0.54923 0.04416 0.47041 0.0
C612 C 0.4457 0.01065 0.4357 0.0
C613 C 0.46733 1.0014 0.42143 0.0
C614 C 0.45442 0.01506 0.45576 0.0
C615 C 0.48488 0.01069 0.46159 0.0
C616 C 0.50673 1.00363 0.44696 0.0
H617 H 0.5816 0.99687 0.57579 0.0
H618 H 0.56751 0.98975 0.54024 0.0
C619 C 0.49802 0.99898 0.42706 0.0
C620 C 0.49332 0.00909 0.48311 0.0
H621 H 0.542 0.03821 0.51813 0.0
C622 C 0.48008 0.98612 0.49492 0.0
C623 C 0.51598 0.02805 0.49151 0.0
C624 C 0.5304 0.05356 0.47966 0.0
C625 C 0.48912 0.9814 0.51491 0.0
C626 C 0.51166 1.00046 0.52336 0.0
C627 C 0.52499 0.02336 0.51152 0.0
C628 C 0.51963 0.99909 0.54496 0.0
C629 C 0.47476 0.95578 0.5267 0.0
C630 C 0.49728 0.00579 0.55933 0.0
C631 C 0.50526 0.00976 0.57941 0.0
C632 C 0.53572 0.00706 0.58552 0.0
C633 C 0.5579 0.99844 0.57144 0.0
C634 C 0.54991 0.99471 0.55118 0.0
H635 H 0.46558 0.9378 0.51661 0.0
H636 H 0.49136 0.94519 0.53718 0.0
H637 H 0.45555 0.96499 0.53569 0.0
H638 H 0.47394 0.00985 0.55485 0.0
H639 H 0.48784 0.01674 0.59002 0.0
H640 H 0.09168 0.09858 0.93751 0.0
H641 H 0.1242 0.11138 0.96598 0.0
H642 H 0.2018 0.11665 0.92644 0.0
H643 H 0.1692 0.10446 0.89768 0.0
H644 H 0.17198 0.0795 0.98054 0.0
H645 H 0.21064 0.19515 0.95807 0.0
H646 H 0.17939 0.17603 0.94582 0.0
H647 H 0.21798 0.16594 0.93975 0.0
C648 C 0.11559 0.10283 0.93475 0.0
C649 C 0.12772 0.10068 0.9152 0.0
C650 C 0.13421 0.11008 0.95111 0.0
C651 C 0.16544 0.11538 0.94841 0.0
C652 C 0.17768 0.11338 0.92891 0.0
H653 H 0.30533 0.13681 0.0425 0.0
H654 H 0.28021 0.12814 0.00997 0.0
C655 C 0.15899 0.10627 0.91246 0.0
C656 C 0.18514 0.12154 0.96622 0.0
H657 H 0.23287 0.17416 0.98746 0.0
C658 C 0.18531 0.10019 0.98198 0.0
C659 C 0.20267 0.14851 0.96815 0.0
C660 C 0.20255 0.17289 0.95215 0.0
C661 C 0.20219 0.10518 0.99961 0.0
C662 C 0.21935 0.13224 1.00163 0.0
C663 C 0.21979 0.15335 0.98578 0.0
C664 C 0.2352 0.13965 0.02073 0.0
C665 C 0.20137 0.08166 0.01616 0.0
C666 C 0.2183 0.14953 0.03738 0.0
C667 C 0.23249 0.15461 0.05588 0.0
C668 C 0.264 0.14978 0.05822 0.0
C669 C 0.28106 0.14069 0.04129 0.0
C670 C 0.26677 0.13574 0.02269 0.0
H671 H 0.19079 0.05995 0.01114 0.0
H672 H 0.22475 0.07683 0.02164 0.0
H673 H 0.18802 0.09074 0.02902 0.0
H674 H 0.19393 0.15278 0.03615 0.0
H675 H 0.21854 0.16169 0.06849 0.0
H676 H 0.62783 0.54256 0.29764 0.0
H677 H 0.63551 0.51918 0.26455 0.0
H678 H 0.55757 0.46149 0.27418 0.0
H679 H 0.5495 0.48477 0.3072 0.0
H680 H 0.61537 0.43102 0.26316 0.0
H681 H 0.58358 0.52534 0.21134 0.0
H682 H 0.60845 0.53494 0.23188 0.0
H683 H 0.57006 0.52345 0.23699 0.0
C684 C 0.61199 0.52525 0.29262 0.0
C685 C 0.58807 0.51556 0.30517 0.0
C686 C 0.61639 0.51197 0.27366 0.0
C687 C 0.59703 0.48869 0.26687 0.0
C688 C 0.57271 0.47949 0.2791 0.0
H689 H 0.61 0.35825 0.16733 0.0
H690 H 0.59388 0.38653 0.19724 0.0
C691 C 0.56811 0.49292 0.29798 0.0
C692 C 0.60344 0.47243 0.24771 0.0
H693 H 0.60578 0.4814 0.19669 0.0
C694 C 0.61309 0.44193 0.2486 0.0
C695 C 0.60072 0.48682 0.22878 0.0
C696 C 0.58995 0.51939 0.22702 0.0
C697 C 0.62074 0.42558 0.2311 0.0
C698 C 0.61773 0.43984 0.21207 0.0
C699 C 0.60793 0.47038 0.21121 0.0
C700 C 0.62558 0.42374 0.19299 0.0
C701 C 0.63301 0.39356 0.23329 0.0
C702 C 0.64769 0.43589 0.18002 0.0
C703 C 0.65658 0.42002 0.16271 0.0
C704 C 0.64359 0.39157 0.15795 0.0
C705 C 0.62065 0.37996 0.17058 0.0
C706 C 0.61158 0.39601 0.18781 0.0
H707 H 0.64197 0.38936 0.24866 0.0
H708 H 0.61441 0.377 0.23054 0.0
H709 H 0.6515 0.38906 0.22229 0.0
H710 H 0.65872 0.4573 0.1836 0.0
H711 H 0.67435 0.42966 0.15339 0.0
H712 H 0.26665 0.80856 0.55593 0.0
H713 H 0.29106 0.82074 0.52397 0.0
H714 H 0.23348 0.89987 0.51772 0.0
H715 H 0.20935 0.88831 0.55001 0.0
H716 H 0.27186 0.82785 0.4853 0.0
H717 H 0.31756 0.93729 0.51445 0.0
H718 H 0.30008 0.90927 0.53058 0.0
H719 H 0.27687 0.93437 0.51565 0.0
C720 C 0.25888 0.82843 0.54772 0.0
C721 C 0.23621 0.84766 0.55576 0.0
C722 C 0.27292 0.83535 0.52938 0.0
C723 C 0.26465 0.86162 0.51861 0.0
C724 C 0.24084 0.87991 0.52599 0.0
H725 H 0.33461 0.90132 0.39707 0.0
H726 H 0.3016 0.88762 0.42536 0.0
C727 C 0.22687 0.87311 0.54441 0.0
C728 C 0.28188 0.87032 0.50015 0.0
H729 H 0.32699 0.92621 0.48029 0.0
C730 C 0.28383 0.84941 0.48416 0.0
C731 C 0.29792 0.89826 0.49876 0.0
C732 C 0.29832 0.921 0.51583 0.0
C733 C 0.30137 0.85561 0.46691 0.0
C734 C 0.31698 0.88378 0.4654 0.0
C735 C 0.31487 0.90472 0.48134 0.0
C736 C 0.33686 0.8915 0.44793 0.0
C737 C 0.30386 0.83147 0.45081 0.0
C738 C 0.36755 0.89892 0.45114 0.0
C739 C 0.38636 0.90708 0.43505 0.0
C740 C 0.37499 0.90799 0.41527 0.0
C741 C 0.34424 0.9005 0.41204 0.0
C742 C 0.32534 0.89251 0.42822 0.0
H743 H 0.2973 0.80859 0.45653 0.0
H744 H 0.28832 0.83732 0.43824 0.0
H745 H 0.32738 0.83014 0.44476 0.0
H746 H 0.37701 0.89842 0.46618 0.0
H747 H 0.40985 0.91278 0.43818 0.0
H748 H 0.84302 0.65906 0.6873 0.0
H749 H 0.85926 0.62636 0.7149 0.0
H750 H 0.87249 0.55179 0.67345 0.0
H751 H 0.85677 0.58473 0.6455 0.0
H752 H 0.83273 0.57514 0.72827 0.0
H753 H 0.95131 0.5493 0.70504 0.0
H754 H 0.92906 0.57913 0.69346 0.0
H755 H 0.92307 0.53994 0.68655 0.0
C756 C 0.84966 0.6358 0.68393 0.0
C757 C 0.84868 0.6246 0.6641 0.0
C758 C 0.85893 0.61708 0.69979 0.0
C759 C 0.86744 0.58665 0.6963 0.0
C760 C 0.8667 0.57536 0.67651 0.0
H761 H 0.87258 0.45874 0.79787 0.0
H762 H 0.86185 0.48206 0.76522 0.0
C763 C 0.85757 0.5942 0.66054 0.0
C764 C 0.87562 0.5667 0.71364 0.0
H765 H 0.93274 0.5233 0.73377 0.0
C766 C 0.85458 0.56374 0.72943 0.0
C767 C 0.90424 0.55201 0.71527 0.0
C768 C 0.92837 0.5554 0.69929 0.0
C769 C 0.86139 0.54689 0.74682 0.0
C770 C 0.88982 0.53179 0.74835 0.0
C771 C 0.91083 0.53455 0.73251 0.0
C772 C 0.8987 0.51467 0.7668 0.0
C773 C 0.83844 0.54644 0.76373 0.0
C774 C 0.92407 0.52394 0.77805 0.0
C775 C 0.93056 0.51036 0.79662 0.0
C776 C 0.91172 0.4872 0.80439 0.0
C777 C 0.88739 0.47672 0.7925 0.0
C778 C 0.88107 0.49019 0.77386 0.0
H779 H 0.82152 0.56517 0.76231 0.0
H780 H 0.8259 0.52449 0.7634 0.0
H781 H 0.84982 0.54852 0.77857 0.0
H782 H 0.93816 0.54262 0.77287 0.0
H783 H 0.94956 0.51899 0.80527 0.0
H784 H 0.90664 0.93066 0.06954 0.0
H785 H 0.87515 0.91607 0.04091 0.0
H786 H 0.81113 0.87298 0.08091 0.0
H787 H 0.84262 0.88757 0.10988 0.0
H788 H 0.82881 0.83736 0.04507 0.0
H789 H 0.79103 0.95506 0.02686 0.0
H790 H 0.83141 0.95063 0.02998 0.0
H791 H 0.80655 0.9448 0.05108 0.0
C792 C 0.88593 0.91798 0.07235 0.0
C793 C 0.87724 0.91028 0.09211 0.0
C794 C 0.86785 0.9098 0.05592 0.0
C795 C 0.84063 0.89371 0.05876 0.0
C796 C 0.83202 0.8855 0.07838 0.0
H797 H 0.70484 0.87126 0.96348 0.0
H798 H 0.72971 0.87998 0.9959 0.0
C799 C 0.85003 0.89389 0.09492 0.0
C800 C 0.82139 0.88554 0.04114 0.0
H801 H 0.78099 0.91685 1.00237 0.0
C802 C 0.81814 0.8547 0.03582 0.0
C803 C 0.80722 0.90814 0.02917 0.0
C804 C 0.80892 0.94152 0.03459 0.0
C805 C 0.80194 0.84596 0.01848 0.0
C806 C 0.78881 0.86867 0.00605 0.0
C807 C 0.79122 0.89943 0.01178 0.0
C808 C 0.77311 0.86119 0.9868 0.0
C809 C 0.79895 0.81249 0.0136 0.0
C810 C 0.78916 0.8476 0.97086 0.0
C811 C 0.77504 0.84265 0.95225 0.0
C812 C 0.74452 0.85124 0.94912 0.0
C813 C 0.72832 0.86425 0.96529 0.0
C814 C 0.74253 0.86934 0.98386 0.0
H815 H 0.80302 0.798 0.02704 0.0
H816 H 0.77603 0.80729 0.0075 0.0
H817 H 0.81606 0.80625 1.00203 0.0
H818 H 0.81291 0.84158 0.97262 0.0
H819 H 0.78829 0.83265 0.94019 0.0
H820 H 0.39232 0.64953 0.84028 0.0
H821 H 0.40743 0.62112 0.81006 0.0
H822 H 0.34831 0.54723 0.82717 0.0
H823 H 0.33315 0.57522 0.85737 0.0
H824 H 0.43208 0.55658 0.80604 0.0
H825 H 0.32006 0.57604 0.76935 0.0
H826 H 0.33354 0.59937 0.78989 0.0
H827 H 0.31916 0.56178 0.7947 0.0
C828 C 0.38281 0.62707 0.83777 0.0
C829 C 0.36146 0.61475 0.85132 0.0
C830 C 0.39147 0.61087 0.82047 0.0
C831 C 0.37876 0.5822 0.81625 0.0
C832 C 0.3582 0.56943 0.83002 0.0
H833 H 0.37822 0.46349 0.71112 0.0
H834 H 0.37029 0.48654 0.74422 0.0
C835 C 0.34968 0.58547 0.84736 0.0
C836 C 0.386 0.56605 0.79712 0.0
H837 H 0.35476 0.54408 0.75237 0.0
C838 C 0.41525 0.55388 0.79425 0.0
C839 C 0.36397 0.56243 0.78182 0.0
C840 C 0.33244 0.57573 0.7839 0.0
C841 C 0.42287 0.53769 0.77662 0.0
C842 C 0.40088 0.53426 0.76119 0.0
C843 C 0.37164 0.54654 0.76414 0.0
C844 C 0.40761 0.51848 0.74174 0.0
C845 C 0.45419 0.52377 0.77497 0.0
C846 C 0.43142 0.52844 0.72926 0.0
C847 C 0.43621 0.51507 0.71036 0.0
C848 C 0.417 0.49168 0.70331 0.0
C849 C 0.39351 0.48138 0.71599 0.0
C850 C 0.38888 0.49463 0.73495 0.0
H851 H 0.46451 0.52008 0.79002 0.0
H852 H 0.45352 0.50161 0.76689 0.0
H853 H 0.46921 0.53953 0.76651 0.0
H854 H 0.44576 0.54727 0.73383 0.0
H855 H 0.45436 0.52386 0.70099 0.0
H856 H 0.79864 0.12616 0.46533 0.0
H857 H 0.77363 0.11727 0.49783 0.0
H858 H 0.6964 0.1702 0.47837 0.0
H859 H 0.72103 0.17912 0.44594 0.0
H860 H 0.71786 0.18175 0.51996 0.0
H861 H 0.69721 0.05932 0.50237 0.0
H862 H 0.73549 0.07312 0.49937 0.0
H863 H 0.706 0.08701 0.48313 0.0
C864 C 0.77651 0.13624 0.46804 0.0
C865 C 0.76179 0.15319 0.45291 0.0
C866 C 0.76218 0.131 0.4866 0.0
C867 C 0.733 0.1428 0.49046 0.0
C868 C 0.71886 0.16079 0.47573 0.0
H869 H 0.59004 0.08974 0.57145 0.0
H870 H 0.62302 0.10327 0.54333 0.0
C871 C 0.73299 0.1658 0.45715 0.0
C872 C 0.71642 0.13538 0.50938 0.0
H873 H 0.67961 0.07736 0.5336 0.0
C874 C 0.70971 0.15889 0.52306 0.0
C875 C 0.70547 0.10562 0.51327 0.0
C876 C 0.71113 0.07974 0.49876 0.0
C877 C 0.69223 0.15344 0.54047 0.0
C878 C 0.68125 0.12365 0.54435 0.0
C879 C 0.68816 0.10014 0.53071 0.0
C880 C 0.66117 0.11663 0.56184 0.0
C881 C 0.68481 0.17978 0.55424 0.0
C882 C 0.67155 0.11962 0.58174 0.0
C883 C 0.65263 0.11189 0.59799 0.0
C884 C 0.62293 0.10098 0.59467 0.0
C885 C 0.61264 0.09823 0.57469 0.0
C886 C 0.63154 0.10587 0.55852 0.0
H887 H 0.68964 0.20216 0.54709 0.0
H888 H 0.6605 0.17919 0.55878 0.0
H889 H 0.69883 0.17799 0.56806 0.0
H890 H 0.69449 0.12738 0.5847 0.0
H891 H 0.66146 0.11403 0.61313 0.0
H892 H 0.12131 0.35175 0.33687 0.0
H893 H 0.1073 0.37865 0.306 0.0
H894 H 0.15305 0.45937 0.32725 0.0
H895 H 0.16699 0.43277 0.35827 0.0
H896 H 0.09596 0.4714 0.30873 0.0
H897 H 0.16875 0.39717 0.26101 0.0
H898 H 0.1417 0.37707 0.2763 0.0
H899 H 0.17193 0.39807 0.28806 0.0
C900 C 0.12812 0.37534 0.33514 0.0
C901 C 0.14537 0.39 0.35013 0.0
C902 C 0.12028 0.39063 0.31737 0.0
C903 C 0.12957 0.42089 0.31411 0.0
C904 C 0.14575 0.43599 0.32935 0.0
H905 H 0.11648 0.55103 0.21473 0.0
H906 H 0.1236 0.52657 0.24745 0.0
C907 C 0.15367 0.42071 0.34712 0.0
C908 C 0.12312 0.43653 0.29464 0.0
H909 H 0.13741 0.43278 0.24414 0.0
C910 C 0.10506 0.46301 0.2946 0.0
C911 C 0.13503 0.42562 0.27618 0.0
C912 C 0.15566 0.39809 0.2753 0.0
C913 C 0.0981 0.47849 0.27661 0.0
C914 C 0.11004 0.4676 0.25814 0.0
C915 C 0.12814 0.44113 0.25823 0.0
C916 C 0.10426 0.48323 0.23853 0.0
C917 C 0.07741 0.50595 0.27751 0.0
C918 C 0.09138 0.46704 0.22241 0.0
C919 C 0.08751 0.4809 0.2036 0.0
C920 C 0.09655 0.51133 0.20037 0.0
C921 C 0.10904 0.52767 0.21663 0.0
C922 C 0.11299 0.51372 0.23545 0.0
H923 H 0.06341 0.50604 0.29144 0.0
H924 H 0.09142 0.52699 0.27749 0.0
H925 H 0.06197 0.50672 0.26431 0.0
H926 H 0.08453 0.44348 0.22434 0.0
H927 H 0.07782 0.46754 0.1915 0.0
H928 H 0.75026 0.70924 0.55113 0.0
H929 H 0.72657 0.70038 0.51833 0.0
H930 H 0.75562 0.60638 0.52009 0.0
H931 H 0.78036 0.61536 0.55239 0.0
H932 H 0.75986 0.62749 0.48288 0.0
H933 H 0.64635 0.65838 0.51321 0.0
H934 H 0.67341 0.68886 0.5148 0.0
H935 H 0.67933 0.65446 0.52908 0.0
C936 C 0.75196 0.68678 0.5444 0.0
C937 C 0.767 0.66295 0.55453 0.0
C938 C 0.73815 0.68167 0.5257 0.0
C939 C 0.73846 0.65245 0.51693 0.0
C940 C 0.75481 0.62908 0.52654 0.0
H941 H 0.60547 0.57606 0.43686 0.0
H942 H 0.63775 0.59256 0.46452 0.0
C943 C 0.76901 0.63427 0.54507 0.0
C944 C 0.72075 0.64569 0.49829 0.0
H945 H 0.64894 0.64699 0.47861 0.0
C946 C 0.73561 0.63183 0.48192 0.0
C947 C 0.68897 0.65089 0.49709 0.0
C948 C 0.67099 0.66367 0.51454 0.0
C949 C 0.71962 0.62275 0.46457 0.0
C950 C 0.68795 0.62849 0.46324 0.0
C951 C 0.67322 0.64276 0.4795 0.0
C952 C 0.66907 0.61809 0.44587 0.0
C953 C 0.73665 0.60599 0.44823 0.0
C954 C 0.67571 0.62686 0.42599 0.0
C955 C 0.65738 0.61701 0.40996 0.0
C956 C 0.63165 0.59873 0.41356 0.0
C957 C 0.62496 0.59027 0.43349 0.0
C958 C 0.64345 0.59973 0.44939 0.0
H959 H 0.75838 0.59622 0.45385 0.0
H960 H 0.72271 0.58721 0.44188 0.0
H961 H 0.74219 0.62215 0.43593 0.0
H962 H 0.69485 0.64163 0.42286 0.0
H963 H 0.66307 0.62409 0.39482 0.0
H964 H 0.04394 1.00051 0.80309 0.0
H965 H 0.0527 0.97548 0.77067 0.0
H966 H 0.14743 1.00062 0.77325 0.0
H967 H 0.13867 0.02654 0.80524 0.0
H968 H 0.1265 0.00631 0.7358 0.0
H969 H 0.09223 0.89328 0.76559 0.0
H970 H 0.06278 0.92154 0.76731 0.0
H971 H 0.09724 0.92608 0.7816 0.0
C972 C 0.06658 1.00098 0.79666 0.0
C973 C 0.09064 0.01535 0.80692 0.0
C974 C 0.07162 0.98642 0.77818 0.0
C975 C 0.10092 0.9854 0.7697 0.0
C976 C 0.12465 1.00087 0.77948 0.0
H977 H 0.17459 0.85187 0.68808 0.0
H978 H 0.15835 0.88345 0.71628 0.0
C979 C 0.11958 0.01572 0.79783 0.0
C980 C 0.10727 0.96753 0.75103 0.0
H981 H 0.10388 0.89575 0.73098 0.0
C982 C 0.12147 0.98215 0.73472 0.0
C983 C 0.10115 0.93585 0.74967 0.0
C984 C 0.0878 0.91816 0.76703 0.0
C985 C 0.12991 0.96602 0.71725 0.0
C986 C 0.12325 0.93447 0.71577 0.0
C987 C 0.10877 0.91996 0.73199 0.0
C988 C 0.13283 0.91553 0.69818 0.0
C989 C 0.14696 0.98274 0.70093 0.0
C990 C 0.12375 0.92274 0.67846 0.0
C991 C 0.13331 0.90476 0.66214 0.0
C992 C 0.15171 0.87888 0.66526 0.0
C993 C 0.16028 0.87148 0.68506 0.0
C994 C 0.151 0.88958 0.70127 0.0
H995 H 0.15727 0.00421 0.70661 0.0
H996 H 0.16529 0.96827 0.69448 0.0
H997 H 0.13093 0.9888 0.68869 0.0
H998 H 0.10912 0.94217 0.67566 0.0
H999 H 0.12617 0.91105 0.64712 0.0
H1000 H 0.77987 0.3256 0.06253 0.0
H1001 H 0.80249 0.3356 0.02964 0.0
H1002 H 0.7204 0.38122 0.0108 0.0
H1003 H 0.6975 0.3715 0.0438 0.0
H1004 H 0.78323 0.32125 0.98931 0.0
H1005 H 0.78854 0.44613 0.00421 0.0
H1006 H 0.7818 0.41861 0.02389 0.0
H1007 H 0.75181 0.42856 0.00679 0.0
C1008 C 0.76644 0.33754 0.05138 0.0
C1009 C 0.73694 0.34804 0.05595 0.0
C1010 C 0.77942 0.34315 0.03254 0.0
C1011 C 0.76331 0.35952 0.01787 0.0
C1012 C 0.73339 0.36891 0.02202 0.0
H1013 H 0.83462 0.39196 0.8954 0.0
H1014 H 0.80138 0.37647 0.92327 0.0
C1015 C 0.7203 0.3632 0.04087 0.0
C1016 C 0.77862 0.36801 0.99875 0.0
H1017 H 0.80805 0.42892 0.97328 0.0
C1018 C 0.7884 0.3448 0.98566 0.0
C1019 C 0.78563 0.39874 0.99416 0.0
C1020 C 0.77666 0.42453 0.00801 0.0
C1021 C 0.80532 0.35149 0.96824 0.0
C1022 C 0.8125 0.3822 0.96376 0.0
C1023 C 0.80233 0.40541 0.97669 0.0
C1024 C 0.83254 0.39065 0.94664 0.0
C1025 C 0.8164 0.32564 0.95515 0.0
C1026 C 0.86093 0.40395 0.95051 0.0
C1027 C 0.87991 0.41275 0.93471 0.0
C1028 C 0.87088 0.40869 0.91457 0.0
C1029 C 0.84238 0.39528 0.91069 0.0
C1030 C 0.82338 0.38633 0.9266 0.0
H1031 H 0.81323 0.30306 0.96245 0.0
H1032 H 0.80353 0.32569 0.9408 0.0
H1033 H 0.84087 0.32859 0.95149 0.0
H1034 H 0.86844 0.40753 0.96585 0.0
H1035 H 0.90163 0.42298 0.93834 0.0
H1036 H 0.34988 0.06537 0.14652 0.0
H1037 H 0.36471 0.03769 0.17693 0.0
H1038 H 0.4013 0.1205 0.20208 0.0
H1039 H 0.38657 0.14847 0.17174 0.0
H1040 H 0.42354 0.03147 0.19766 0.0
H1041 H 0.33496 0.09088 0.2429 0.0
H1042 H 0.33457 0.09057 0.21575 0.0
H1043 H 0.36039 0.11508 0.22899 0.0
C1044 C 0.3615 0.07767 0.15837 0.0
C1045 C 0.36696 0.10923 0.15665 0.0
C1046 C 0.36995 0.06177 0.17576 0.0
C1047 C 0.38375 0.0771 0.19187 0.0
C1048 C 0.39036 0.10829 0.18991 0.0
H1049 H 0.46156 0.00457 0.30255 0.0
H1050 H 0.45383 0.02741 0.26937 0.0
C1051 C 0.3821 0.1242 0.17247 0.0
C1052 C 0.38982 0.06076 0.21106 0.0
H1053 H 0.36767 0.05722 0.26028 0.0
C1054 C 0.4114 0.0371 0.21137 0.0
C1055 C 0.37363 0.06788 0.22886 0.0
C1056 C 0.3494 0.09231 0.22922 0.0
C1057 C 0.41752 0.02067 0.22911 0.0
C1058 C 0.40171 0.02816 0.247 0.0
C1059 C 0.37987 0.05157 0.24659 0.0
C1060 C 0.40732 0.01205 0.26634 0.0
C1061 C 0.4405 0.9951 0.22854 0.0
C1062 C 0.38379 0.99569 0.27569 0.0
C1063 C 0.38814 0.98251 0.29466 0.0
C1064 C 0.41603 0.98574 0.30484 0.0
C1065 C 0.4398 1.00154 0.29519 0.0
C1066 C 0.43548 0.01455 0.27615 0.0
H1067 H 0.44562 0.98777 0.2129 0.0
H1068 H 0.46201 1.00298 0.23555 0.0
H1069 H 0.43223 0.9751 0.23719 0.0
H1070 H 0.36185 0.99355 0.26843 0.0
H1071 H 0.36926 0.97065 0.3016 0.0
H1072 H 0.35216 0.37085 0.61133 0.0
H1073 H 0.32071 0.35468 0.58259 0.0
H1074 H 0.35612 0.42942 0.54753 0.0
H1075 H 0.388 0.44478 0.57572 0.0
H1076 H 0.27637 0.37977 0.56063 0.0
H1077 H 0.37476 0.36036 0.51058 0.0
H1078 H 0.37918 0.36733 0.53713 0.0
H1079 H 0.37457 0.39873 0.51987 0.0
C1080 C 0.3532 0.3837 0.59744 0.0
C1081 C 0.37317 0.40858 0.59558 0.0
C1082 C 0.33523 0.37449 0.58102 0.0
C1083 C 0.33669 0.39022 0.56258 0.0
C1084 C 0.35541 0.41608 0.56122 0.0
H1085 H 0.20875 0.38696 0.46241 0.0
H1086 H 0.23381 0.39516 0.49484 0.0
C1087 C 0.37365 0.4249 0.5774 0.0
C1088 C 0.31899 0.37982 0.54465 0.0
H1089 H 0.32628 0.36447 0.4945 0.0
C1090 C 0.28731 0.37609 0.54621 0.0
C1091 C 0.33319 0.3743 0.52584 0.0
C1092 C 0.36732 0.37505 0.5233 0.0
C1093 C 0.26944 0.36805 0.52941 0.0
C1094 C 0.28345 0.36456 0.51031 0.0
C1095 C 0.31525 0.36743 0.50896 0.0
C1096 C 0.26602 0.358 0.49144 0.0
C1097 C 0.23584 0.36288 0.53248 0.0
C1098 C 0.27581 0.33472 0.47837 0.0
C1099 C 0.26205 0.33061 0.45958 0.0
C1100 C 0.23778 0.34934 0.45347 0.0
C1101 C 0.22711 0.37186 0.46681 0.0
C1102 C 0.24136 0.37643 0.48546 0.0
H1103 H 0.23083 0.35586 0.54819 0.0
H1104 H 0.22344 0.38451 0.52961 0.0
H1105 H 0.22697 0.34511 0.52213 0.0
H1106 H 0.29468 0.32009 0.48249 0.0
H1107 H 0.27077 0.31302 0.44967 0.0
H1108 H 0.86491 0.97267 0.20604 0.0
H1109 H 0.85576 0.99597 0.23898 0.0
H1110 H 0.94779 0.02962 0.23998 0.0
H1111 H 0.95724 0.00644 0.20704 0.0
H1112 H 0.9258 1.00368 0.27795 0.0
H1113 H 0.84789 0.09069 0.24549 0.0
H1114 H 0.8393 0.05166 0.2394 0.0
H1115 H 0.8738 0.06856 0.23023 0.0
C1116 C 0.88338 0.98466 0.21334 0.0
C1117 C 0.91179 0.98778 0.20373 0.0
C1118 C 0.87802 0.99815 0.23215 0.0
C1119 C 0.90094 0.01493 0.24183 0.0
C1120 C 0.92972 0.01691 0.23275 0.0
H1121 H 0.87913 0.15055 0.33668 0.0
H1122 H 0.89386 0.12223 0.30645 0.0
C1123 C 0.93506 1.00362 0.21389 0.0
C1124 C 0.8946 0.03143 0.261 0.0
H1125 H 0.85302 0.09022 0.28086 0.0
C1126 C 0.90987 0.02257 0.27861 0.0
C1127 C 0.87413 0.05638 0.2618 0.0
C1128 C 0.85795 0.06767 0.24323 0.0
C1129 C 0.90481 0.03766 0.29704 0.0
C1130 C 0.88386 0.0622 0.29791 0.0
C1131 C 0.86897 0.07133 0.28023 0.0
C1132 C 0.87695 0.07876 0.31699 0.0
C1133 C 0.92224 0.02753 0.31539 0.0
C1134 C 0.86266 0.06378 0.33308 0.0
C1135 C 0.85412 0.07993 0.35041 0.0
C1136 C 0.85975 0.11147 0.35207 0.0
C1137 C 0.8747 0.12626 0.33608 0.0
C1138 C 0.88302 0.11012 0.3187 0.0
H1139 H 0.94231 0.01336 0.31135 0.0
H1140 H 0.93004 0.04752 0.32426 0.0
H1141 H 0.9071 0.01367 0.32512 0.0
H1142 H 0.85727 0.03972 0.33201 0.0
H1143 H 0.84244 0.06779 0.36231 0.0
H1144 H 0.18515 0.58945 0.11071 0.0
H1145 H 0.21371 0.6041 0.08067 0.0
H1146 H 0.13432 0.64972 0.05729 0.0
H1147 H 0.10573 0.63564 0.08743 0.0
H1148 H 0.20176 0.58719 0.04226 0.0
H1149 H 0.19914 0.71333 0.04727 0.0
H1150 H 0.18935 0.68912 0.06824 0.0
H1151 H 0.16207 0.69637 0.04864 0.0
C1152 C 0.17387 0.60312 0.09938 0.0
C1153 C 0.14312 0.61154 0.10164 0.0
C1154 C 0.19025 0.61139 0.08214 0.0
C1155 C 0.17637 0.62836 0.06675 0.0
C1156 C 0.14584 0.63727 0.06911 0.0
H1157 H 0.22091 0.67801 0.94423 0.0
H1158 H 0.19814 0.67059 0.9774 0.0
C1159 C 0.12945 0.62909 0.08638 0.0
C1160 C 0.19319 0.63486 0.04769 0.0
H1161 H 0.21489 0.69215 0.01584 0.0
C1162 C 0.2049 0.61018 0.0366 0.0
C1163 C 0.19724 0.66485 0.04021 0.0
C1164 C 0.18655 0.69246 0.05179 0.0
C1165 C 0.21975 0.61454 0.01807 0.0
C1166 C 0.22351 0.64448 0.01049 0.0
C1167 C 0.21205 0.66921 0.02164 0.0
C1168 C 0.23831 0.65043 0.99067 0.0
C1169 C 0.23043 0.58694 0.00645 0.0
C1170 C 0.26879 0.64226 0.98715 0.0
C1171 C 0.28198 0.6465 0.96813 0.0
C1172 C 0.26496 0.65906 0.95221 0.0
C1173 C 0.23473 0.66811 0.95603 0.0
C1174 C 0.22162 0.66393 0.97504 0.0
H1175 H 0.2197 0.56559 0.01199 0.0
H1176 H 0.22531 0.58944 0.99018 0.0
H1177 H 0.25543 0.58457 0.00815 0.0
H1178 H 0.28233 0.63234 0.99907 0.0
H1179 H 0.30533 0.6394 0.96582 0.0
H1180 H 0.54844 0.98307 0.70099 0.0
H1181 H 0.55729 0.96015 0.73397 0.0
H1182 H 0.63362 0.02004 0.74335 0.0
H1183 H 0.62517 0.04308 0.71023 0.0
H1184 H 0.61633 0.93153 0.74556 0.0
H1185 H 0.57991 0.02586 0.7962 0.0
H1186 H 0.56682 0.02275 0.77052 0.0
H1187 H 0.60472 0.03569 0.77565 0.0
C1188 C 0.56691 0.99173 0.71011 0.0
C1189 C 0.58612 0.01499 0.70285 0.0
C1190 C 0.57195 0.9785 0.72897 0.0
C1191 C 0.596 0.98847 0.74115 0.0
C1192 C 0.61474 0.0122 0.73427 0.0
H1193 H 0.67087 0.93397 0.85621 0.0
H1194 H 0.65539 0.96058 0.82563 0.0
C1195 C 0.60989 0.02531 0.7153 0.0
C1196 C 0.60251 0.97281 0.76051 0.0
H1197 H 0.60236 0.98269 0.81149 0.0
C1198 C 0.61314 0.94261 0.76 0.0
C1199 C 0.59855 0.98743 0.77929 0.0
C1200 C 0.58669 0.01967 0.78062 0.0
C1201 C 0.62051 0.9268 0.77775 0.0
C1202 C 0.61621 0.94125 0.79662 0.0
C1203 C 0.60548 0.9715 0.79709 0.0
C1204 C 0.62377 0.92575 0.81596 0.0
C1205 C 0.63385 0.89513 0.77601 0.0
C1206 C 0.61049 0.89766 0.82114 0.0
C1207 C 0.61946 0.88221 0.83862 0.0
C1208 C 0.64157 0.89476 0.85148 0.0
C1209 C 0.65373 0.92359 0.84673 0.0
C1210 C 0.64493 0.93887 0.82919 0.0
H1211 H 0.64357 0.89093 0.76083 0.0
H1212 H 0.652 0.8914 0.78735 0.0
H1213 H 0.61566 0.87805 0.77858 0.0
H1214 H 0.5935 0.88741 0.81149 0.0
H1215 H 0.60952 0.86014 0.84182 0.0
H1216 H 0.37119 0.21454 0.06537 0.0
H1217 H 0.41777 0.24001 0.05409 0.0
H1218 H 0.46997 0.18515 0.09556 0.0
H1219 H 0.42374 0.15841 0.10563 0.0
H1220 H 0.44833 0.27563 0.07488 0.0
H1221 H 0.52972 0.18704 0.05205 0.0
H1222 H 0.48985 0.1787 0.05529 0.0
H1223 H 0.5156 0.17729 0.07644 0.0
C1224 C 0.39292 0.20697 0.07123 0.0
C1225 C 0.39416 0.18411 0.08596 0.0
C1226 C 0.4195 0.22172 0.06498 0.0
C1227 C 0.4477 0.21446 0.07377 0.0
C1228 C 0.44892 0.1906 0.08793 0.0
H1229 H 0.58251 0.335 0.11475 0.0
H1230 H 0.53517 0.31076 0.10431 0.0
C1231 C 0.42244 0.1753 0.09376 0.0
C1232 C 0.47468 0.23452 0.07053 0.0
H1233 H 0.55212 0.23304 0.06696 0.0
C1234 C 0.47092 0.26625 0.07264 0.0
C1235 C 0.50428 0.22281 0.06708 0.0
C1236 C 0.50996 0.18961 0.06235 0.0
C1237 C 0.49593 0.28615 0.07283 0.0
C1238 C 0.52573 0.27397 0.07181 0.0
C1239 C 0.5294 0.24254 0.06821 0.0
C1240 C 0.55322 0.29263 0.07637 0.0
C1241 C 0.48995 0.31999 0.07432 0.0
C1242 C 0.57949 0.29056 0.06432 0.0
C1243 C 0.60682 0.30396 0.07058 0.0
C1244 C 0.60813 0.32011 0.08877 0.0
C1245 C 0.58167 0.32351 0.10032 0.0
C1246 C 0.55456 0.30967 0.09429 0.0
H1247 H 0.46848 0.32613 0.06648 0.0
H1248 H 0.48717 0.32639 0.09037 0.0
H1249 H 0.50879 0.33357 0.06774 0.0
H1250 H 0.57921 0.27739 0.05053 0.0
H1251 H 0.62725 0.30041 0.06175 0.0
H1252 H 0.55514 0.62361 0.31361 0.0
H1253 H 0.52993 0.66977 0.30024 0.0
H1254 H 0.54414 0.71528 0.35692 0.0
H1255 H 0.56857 0.66962 0.37034 0.0
H1256 H 0.47491 0.7017 0.33008 0.0
H1257 H 0.57131 0.77191 0.30234 0.0
H1258 H 0.57117 0.73065 0.30094 0.0
H1259 H 0.57808 0.74929 0.32453 0.0
C1260 C 0.55354 0.6438 0.32296 0.0
C1261 C 0.56383 0.64312 0.34298 0.0
C1262 C 0.53898 0.66998 0.31538 0.0
C1263 C 0.53517 0.69582 0.32766 0.0
C1264 C 0.54692 0.69558 0.34723 0.0
H1265 H 0.48316 0.8586 0.36566 0.0
H1266 H 0.50429 0.81206 0.35194 0.0
C1267 C 0.56092 0.6695 0.35485 0.0
C1268 C 0.51705 0.72262 0.32122 0.0
H1269 H 0.52627 0.79863 0.3123 0.0
C1270 C 0.48574 0.72276 0.3254 0.0
C1271 C 0.53136 0.74993 0.31524 0.0
C1272 C 0.56483 0.75063 0.31035 0.0
C1273 C 0.46902 0.75017 0.32568 0.0
C1274 C 0.48406 0.77799 0.32151 0.0
C1275 C 0.5147 0.77731 0.31542 0.0
C1276 C 0.47108 0.80768 0.32815 0.0
C1277 C 0.43625 0.74961 0.3324 0.0
C1278 C 0.44531 0.82113 0.3192 0.0
C1279 C 0.43287 0.84825 0.32714 0.0
C1280 C 0.44591 0.86189 0.34426 0.0
C1281 C 0.4721 0.84855 0.35269 0.0
C1282 C 0.48447 0.82195 0.34475 0.0
H1283 H 0.4282 0.72613 0.33573 0.0
H1284 H 0.43338 0.76383 0.3461 0.0
H1285 H 0.4216 0.75945 0.32046 0.0
H1286 H 0.43474 0.81056 0.30625 0.0
H1287 H 0.41284 0.8581 0.32024 0.0
H1288 H 0.90248 0.72303 0.62352 0.0
H1289 H 0.94742 0.74694 0.60987 0.0
H1290 H 0.93021 0.70567 0.55213 0.0
H1291 H 0.8842 0.68099 0.56591 0.0
H1292 H 0.9918 0.70138 0.5652 0.0
H1293 H 0.95172 0.82003 0.57186 0.0
H1294 H 0.94446 0.79974 0.59476 0.0
H1295 H 0.92595 0.78792 0.57186 0.0
C1296 C 0.90789 0.71888 0.60786 0.0
C1297 C 0.88942 0.70008 0.5958 0.0
C1298 C 0.93364 0.73292 0.60002 0.0
C1299 C 0.94176 0.72887 0.57984 0.0
C1300 C 0.92403 0.7095 0.5677 0.0
H1301 H 0.10678 0.84223 0.57075 0.0
H1302 H 0.05956 0.82029 0.55685 0.0
C1303 C 0.89788 0.69533 0.5756 0.0
C1304 C 0.96986 0.74397 0.57241 0.0
H1305 H 0.00656 0.81222 0.5769 0.0
C1306 C 0.99486 0.72577 0.56707 0.0
C1307 C 0.97386 0.77592 0.57426 0.0
C1308 C 0.94742 0.79703 0.57827 0.0
C1309 C 0.02429 0.73819 0.56595 0.0
C1310 C 0.02883 0.76938 0.57075 0.0
C1311 C 0.00334 0.7882 0.57361 0.0
C1312 C 0.05918 0.78126 0.57681 0.0
C1313 C 0.05048 0.71736 0.56075 0.0
C1314 C 0.07451 0.76681 0.59264 0.0
C1315 C 0.10098 0.77929 0.6006 0.0
C1316 C 0.11291 0.80679 0.5931 0.0
C1317 C 0.09816 0.82102 0.57684 0.0
C1318 C 0.07125 0.80849 0.56889 0.0
H1319 H 0.04325 0.69973 0.54974 0.0
H1320 H 0.07 0.73022 0.5544 0.0
H1321 H 0.05812 0.7053 0.57453 0.0
H1322 H 0.06534 0.74637 0.59948 0.0
H1323 H 0.11183 0.76751 0.613 0.0
H1324 H 0.92222 0.36577 0.81794 0.0
H1325 H 0.94624 0.31897 0.80446 0.0
H1326 H 0.99738 0.3091 0.85934 0.0
H1327 H 0.97405 0.35476 0.87276 0.0
H1328 H 0.03177 0.30548 0.81982 0.0
H1329 H 0.93218 0.22768 0.82758 0.0
H1330 H 0.92806 0.26496 0.81635 0.0
H1331 H 0.93467 0.26167 0.84284 0.0
C1332 C 0.93848 0.35348 0.8271 0.0
C1333 C 0.94598 0.36408 0.84648 0.0
C1334 C 0.95218 0.32681 0.8194 0.0
C1335 C 0.97362 0.31064 0.83094 0.0
C1336 C 0.98099 0.32125 0.85016 0.0
H1337 H 0.08224 0.17329 0.867 0.0
H1338 H 0.05996 0.22058 0.85441 0.0
C1339 C 0.96739 0.34745 0.85783 0.0
C1340 C 0.98893 0.28246 0.82373 0.0
H1341 H 0.98072 0.20505 0.82559 0.0
C1342 C 0.02046 0.28351 0.82038 0.0
C1343 C 0.97419 0.25385 0.82442 0.0
C1344 C 0.94039 0.25164 0.82797 0.0
C1345 C 0.03795 0.25669 0.81941 0.0
C1346 C 0.02361 0.22813 0.82215 0.0
C1347 C 0.99173 0.22696 0.82355 0.0
C1348 C 0.04136 0.20034 0.82739 0.0
C1349 C 0.0719 0.25924 0.81667 0.0
C1350 C 0.0388 0.17318 0.81624 0.0
C1351 C 0.05209 0.14604 0.82333 0.0
C1352 C 0.06745 0.14569 0.84185 0.0
C1353 C 0.07092 0.1731 0.85252 0.0
C1354 C 0.05819 0.20014 0.84532 0.0
H1355 H 0.07793 0.28011 0.80807 0.0
H1356 H 0.08291 0.26087 0.83165 0.0
H1357 H 0.08126 0.23899 0.80874 0.0
H1358 H 0.0256 0.17275 0.8025 0.0
H1359 H 0.04853 0.12502 0.81509 0.0
H1360 H 0.6343 0.79392 0.94507 0.0
H1361 H 0.58704 0.76879 0.95564 0.0
H1362 H 0.5382 0.81702 0.90914 0.0
H1363 H 0.58493 0.84355 0.89965 0.0
H1364 H 0.50205 0.80854 0.93928 0.0
H1365 H 0.55967 0.69821 0.92344 0.0
H1366 H 0.57611 0.71907 0.9439 0.0
H1367 H 0.57772 0.73434 0.91877 0.0
C1368 C 0.61312 0.80001 0.93777 0.0
C1369 C 0.61298 0.82086 0.92177 0.0
C1370 C 0.58626 0.78524 0.94352 0.0
C1371 C 0.55918 0.79009 0.93271 0.0
C1372 C 0.55873 0.81267 0.91768 0.0
H1373 H 0.42079 0.67153 0.89413 0.0
H1374 H 0.46826 0.69651 0.90369 0.0
C1375 C 0.58539 0.82801 0.91232 0.0
C1376 C 0.53206 0.77013 0.93557 0.0
H1377 H 0.50817 0.69608 0.93217 0.0
C1378 C 0.5034 0.78391 0.9379 0.0
C1379 C 0.53375 0.73793 0.93355 0.0
C1380 C 0.56339 0.72149 0.92959 0.0
C1381 C 0.47641 0.76676 0.93725 0.0
C1382 C 0.47811 0.73457 0.93518 0.0
C1383 C 0.50685 0.72066 0.93392 0.0
C1384 C 0.45063 0.71546 0.93149 0.0
C1385 C 0.44644 0.78364 0.93743 0.0
C1386 C 0.42523 0.71634 0.94438 0.0
C1387 C 0.39787 0.70237 0.9387 0.0
C1388 C 0.39597 0.68637 0.92046 0.0
C1389 C 0.42201 0.68325 0.90847 0.0
C1390 C 0.44907 0.69771 0.9139 0.0
H1391 H 0.44936 0.80835 0.93425 0.0
H1392 H 0.43055 0.77405 0.92611 0.0
H1393 H 0.43585 0.78151 0.95251 0.0
H1394 H 0.42607 0.72904 0.95833 0.0
H1395 H 0.37784 0.70539 0.948 0.0
H1396 H 0.44108 0.37815 0.69617 0.0
H1397 H 0.46591 0.33223 0.71027 0.0
H1398 H 0.47713 0.29611 0.65042 0.0
H1399 H 0.45263 0.34093 0.63642 0.0
H1400 H 0.4513 0.26297 0.70132 0.0
H1401 H 0.56547 0.30242 0.6778 0.0
H1402 H 0.53423 0.32832 0.68267 0.0
H1403 H 0.53665 0.30845 0.65905 0.0
C1404 C 0.4484 0.36011 0.68613 0.0
C1405 C 0.44514 0.36334 0.66517 0.0
C1406 C 0.4627 0.33405 0.69417 0.0
C1407 C 0.47386 0.31114 0.6813 0.0
C1408 C 0.46917 0.31377 0.66057 0.0
H1409 H 0.50976 0.1393 0.65204 0.0
H1410 H 0.49 0.18634 0.66614 0.0
C1411 C 0.45506 0.33947 0.6526 0.0
C1412 C 0.49105 0.28431 0.68874 0.0
H1413 H 0.55804 0.24772 0.67907 0.0
C1414 C 0.47497 0.25986 0.69717 0.0
C1415 C 0.52206 0.28038 0.68365 0.0
C1416 C 0.54075 0.3064 0.67546 0.0
C1417 C 0.48821 0.2307 0.69854 0.0
C1418 C 0.51795 0.2259 0.69091 0.0
C1419 C 0.53513 0.25118 0.68472 0.0
C1420 C 0.52896 0.19498 0.68519 0.0
C1421 C 0.46952 0.2049 0.70699 0.0
C1422 C 0.55777 0.18399 0.69102 0.0
C1423 C 0.56933 0.15671 0.68282 0.0
C1424 C 0.5525 0.14061 0.66832 0.0
C1425 C 0.52342 0.1513 0.66306 0.0
C1426 C 0.51185 0.17806 0.67134 0.0
H1427 H 0.45418 0.21325 0.71909 0.0
H1428 H 0.45502 0.19525 0.69491 0.0
H1429 H 0.48415 0.18643 0.71311 0.0
H1430 H 0.57158 0.19692 0.70147 0.0
H1431 H 0.59184 0.14902 0.6871 0.0
H1432 H 0.0843 0.33762 0.39507 0.0
H1433 H 0.03653 0.31295 0.40424 0.0
H1434 H 0.08051 0.27076 0.45521 0.0
H1435 H 0.12892 0.29404 0.44506 0.0
H1436 H 0.0518 0.22989 0.43709 0.0
H1437 H 0.97078 0.32493 0.44305 0.0
H1438 H 0.98886 0.32715 0.419 0.0
H1439 H 0.01122 0.33142 0.44162 0.0
C1440 C 0.08338 0.324 0.40866 0.0
C1441 C 0.10994 0.31824 0.41968 0.0
C1442 C 0.05602 0.30991 0.41397 0.0
C1443 C 0.05448 0.29035 0.43072 0.0
C1444 C 0.08089 0.28584 0.44231 0.0
H1445 H 0.87077 0.21563 0.44367 0.0
H1446 H 0.91869 0.23982 0.45369 0.0
C1447 C 0.10847 0.29938 0.43668 0.0
C1448 C 0.02648 0.27194 0.43452 0.0
H1449 H 0.949 0.27596 0.43314 0.0
C1450 C 0.02934 0.24013 0.43668 0.0
C1451 C 0.99698 0.28498 0.43456 0.0
C1452 C 0.99187 0.31904 0.43468 0.0
C1453 C 0.00371 0.22102 0.4376 0.0
C1454 C 0.9743 0.23382 0.43534 0.0
C1455 C 0.97141 0.26578 0.43447 0.0
C1456 C 0.94648 0.21478 0.43235 0.0
C1457 C 0.00866 0.18734 0.44099 0.0
C1458 C 0.94604 0.19172 0.4176 0.0
C1459 C 0.91885 0.17709 0.41249 0.0
C1460 C 0.89143 0.18583 0.42162 0.0
C1461 C 0.89183 0.20807 0.43679 0.0
C1462 C 0.91916 0.22211 0.44232 0.0
H1463 H 0.02898 0.18335 0.45057 0.0
H1464 H 0.9887 0.17647 0.44828 0.0
H1465 H 0.01296 0.17601 0.42633 0.0
H1466 H 0.96631 0.18628 0.40908 0.0
H1467 H 0.91885 0.16074 0.40026 0.0
H1468 H 0.02992 0.62059 0.18775 0.0
H1469 H 0.00571 0.66862 0.19773 0.0
H1470 H 0.07736 0.71877 0.16826 0.0
H1471 H 0.10233 0.67059 0.15905 0.0
H1472 H 0.05506 0.74945 0.20162 0.0
H1473 H 0.96001 0.71027 0.15288 0.0
H1474 H 0.96783 0.68597 0.17395 0.0
H1475 H 0.99569 0.69013 0.15431 0.0
C1476 C 0.04112 0.64192 0.18417 0.0
C1477 C 0.06801 0.642 0.17274 0.0
C1478 C 0.02708 0.66933 0.18963 0.0
C1479 C 0.03916 0.69729 0.18317 0.0
C1480 C 0.06749 0.69747 0.1733 0.0
H1481 H 0.99214 0.87336 0.14891 0.0
H1482 H 0.01557 0.82691 0.16149 0.0
C1483 C 0.08189 0.66996 0.16816 0.0
C1484 C 0.0208 0.72581 0.18454 0.0
H1485 H 0.95564 0.75907 0.16687 0.0
C1486 C 0.03315 0.75143 0.19424 0.0
C1487 C 0.99212 0.72848 0.17489 0.0
C1488 C 0.97818 0.70238 0.16326 0.0
C1489 C 0.01805 0.77976 0.19404 0.0
C1490 C 0.99001 0.78262 0.18377 0.0
C1491 C 0.97695 0.75672 0.17494 0.0
C1492 C 0.97653 0.81284 0.17897 0.0
C1493 C 0.03265 0.80666 0.20435 0.0
C1494 C 0.9466 0.82056 0.18462 0.0
C1495 C 0.93302 0.84756 0.17748 0.0
C1496 C 0.949 0.86658 0.16416 0.0
C1497 C 0.97916 0.85906 0.15905 0.0
C1498 C 0.99275 0.83262 0.1664 0.0
H1499 H 0.04802 0.79919 0.21666 0.0
H1500 H 0.04648 0.81949 0.19324 0.0
H1501 H 0.01522 0.82238 0.21063 0.0
H1502 H 0.93356 0.80536 0.19412 0.0
H1503 H 0.90974 0.85278 0.18156 0.0
H1504 H 0.25062 0.25539 0.09007 0.0
H1505 H 0.23105 0.30757 0.0908 0.0
H1506 H 0.2968 0.33125 0.13626 0.0
H1507 H 0.31688 0.27928 0.13545 0.0
H1508 H 0.20539 0.33144 0.12512 0.0
H1509 H 0.29998 0.40555 0.09922 0.0
H1510 H 0.29923 0.36493 0.09458 0.0
H1511 H 0.30999 0.37928 0.11887 0.0
C1512 C 0.26142 0.27183 0.09991 0.0
C1513 C 0.28518 0.26302 0.11282 0.0
C1514 C 0.25018 0.30168 0.1003 0.0
C1515 C 0.26254 0.32337 0.11351 0.0
C1516 C 0.28726 0.31509 0.12569 0.0
H1517 H 0.18641 0.49587 0.15694 0.0
H1518 H 0.22073 0.45237 0.15119 0.0
C1519 C 0.2986 0.28526 0.12526 0.0
C1520 C 0.24716 0.35325 0.11624 0.0
H1521 H 0.25698 0.43056 0.11363 0.0
C1522 C 0.21667 0.35308 0.1225 0.0
C1523 C 0.26203 0.38148 0.11308 0.0
C1524 C 0.29454 0.38297 0.10591 0.0
C1525 C 0.20059 0.38029 0.12564 0.0
C1526 C 0.21525 0.40849 0.12219 0.0
C1527 C 0.24588 0.40884 0.11624 0.0
C1528 C 0.19825 0.43753 0.12397 0.0
C1529 C 0.16798 0.3787 0.1327 0.0
C1530 C 0.1751 0.44409 0.11017 0.0
C1531 C 0.15552 0.46866 0.11342 0.0
C1532 C 0.15876 0.48727 0.13053 0.0
C1533 C 0.18331 0.48193 0.14364 0.0
C1534 C 0.20291 0.45713 0.14039 0.0
H1535 H 0.16215 0.35581 0.13874 0.0
H1536 H 0.16354 0.39605 0.14453 0.0
H1537 H 0.15263 0.38356 0.11985 0.0
H1538 H 0.17135 0.42936 0.09732 0.0
H1539 H 0.1371 0.47237 0.10288 0.0
H1540 H 0.24461 0.44482 0.4043 0.0
H1541 H 0.28077 0.48587 0.39685 0.0
H1542 H 0.32517 0.4283 0.35313 0.0
H1543 H 0.28921 0.38753 0.36024 0.0
H1544 H 0.34247 0.48223 0.40232 0.0
H1545 H 0.31865 0.50821 0.32269 0.0
H1546 H 0.29219 0.48759 0.3384 0.0
H1547 H 0.32348 0.46801 0.32653 0.0
C1548 C 0.26179 0.44109 0.39288 0.0
C1549 C 0.26407 0.4128 0.38294 0.0
C1550 C 0.2824 0.46459 0.38862 0.0
C1551 C 0.30535 0.46036 0.37418 0.0
C1552 C 0.3072 0.43241 0.36396 0.0
H1553 H 0.48048 0.50157 0.34197 0.0
H1554 H 0.42645 0.48932 0.34362 0.0
C1555 C 0.28677 0.40895 0.36822 0.0
C1556 C 0.32946 0.48358 0.37115 0.0
H1557 H 0.36994 0.51948 0.33427 0.0
C1558 C 0.34803 0.49115 0.38756 0.0
C1559 C 0.33659 0.49528 0.35189 0.0
C1560 C 0.31645 0.4896 0.33393 0.0
C1561 C 0.37497 0.50787 0.38493 0.0
C1562 C 0.38324 0.51766 0.36539 0.0
C1563 C 0.36357 0.51193 0.34922 0.0
C1564 C 0.41427 0.52916 0.3611 0.0
C1565 C 0.39554 0.51286 0.40281 0.0
C1566 C 0.42509 0.5565 0.3695 0.0
C1567 C 0.45614 0.56367 0.36848 0.0
C1568 C 0.47665 0.54344 0.35917 0.0
C1569 C 0.46523 0.51746 0.34937 0.0
C1570 C 0.43434 0.51045 0.35028 0.0
H1571 H 0.38748 0.50057 0.41641 0.0
H1572 H 0.41903 0.50512 0.39932 0.0
H1573 H 0.39648 0.53757 0.40637 0.0
H1574 H 0.40984 0.57143 0.3777 0.0
H1575 H 0.46432 0.58381 0.37621 0.0
H1576 H 0.17459 0.71535 0.61898 0.0
H1577 H 0.18828 0.66106 0.61978 0.0
H1578 H 0.27764 0.68279 0.5972 0.0
H1579 H 0.2641 0.73666 0.59603 0.0
H1580 H 0.25466 0.62719 0.58218 0.0
H1581 H 0.2457 0.63567 0.66566 0.0
H1582 H 0.21217 0.64422 0.65127 0.0
H1583 H 0.24461 0.66896 0.64976 0.0
C1584 C 0.19686 0.70845 0.61367 0.0
C1585 C 0.21847 0.73039 0.60778 0.0
C1586 C 0.2047 0.67744 0.61426 0.0
C1587 C 0.2342 0.66799 0.60896 0.0
C1588 C 0.2548 0.68957 0.60146 0.0
H1589 H 0.3732 0.55852 0.64738 0.0
H1590 H 0.33287 0.59433 0.63916 0.0
C1591 C 0.24705 0.72042 0.60088 0.0
C1592 C 0.24535 0.63671 0.61334 0.0
H1593 H 0.26975 0.5926 0.65247 0.0
C1594 C 0.25727 0.61914 0.59751 0.0
C1595 C 0.24895 0.62645 0.63339 0.0
C1596 C 0.2374 0.64476 0.65107 0.0
C1597 C 0.2743 0.59256 0.60127 0.0
C1598 C 0.27929 0.58332 0.62136 0.0
C1599 C 0.26568 0.59974 0.63709 0.0
C1600 C 0.30278 0.56036 0.62656 0.0
C1601 C 0.28876 0.57581 0.58389 0.0
C1602 C 0.29913 0.52917 0.62233 0.0
C1603 C 0.32235 0.50835 0.62709 0.0
C1604 C 0.34953 0.51853 0.63606 0.0
C1605 C 0.35272 0.54978 0.64042 0.0
C1606 C 0.32961 0.57036 0.63578 0.0
H1607 H 0.28421 0.58709 0.56924 0.0
H1608 H 0.31376 0.57431 0.58612 0.0
H1609 H 0.27979 0.55217 0.58324 0.0
H1610 H 0.27844 0.521 0.61534 0.0
H1611 H 0.3192 0.48445 0.62351 0.0
H1612 H 0.01976 0.50899 0.84202 0.0
H1613 H 0.07364 0.52188 0.84237 0.0
H1614 H 0.09255 0.44199 0.87809 0.0
H1615 H 0.03827 0.42888 0.87784 0.0
H1616 H 0.11157 0.49636 0.89554 0.0
H1617 H 0.15225 0.49062 0.81705 0.0
H1618 H 0.11681 0.51075 0.81899 0.0
H1619 H 0.11849 0.4709 0.82549 0.0
C1620 C 0.03548 0.49366 0.84947 0.0
C1621 C 0.02477 0.46803 0.85999 0.0
C1622 C 0.06635 0.50094 0.84953 0.0
C1623 C 0.08719 0.48276 0.86009 0.0
C1624 C 0.07686 0.45616 0.86969 0.0
H1625 H 0.26167 0.56278 0.90012 0.0
H1626 H 0.22407 0.52293 0.89309 0.0
C1627 C 0.04588 0.44866 0.86948 0.0
C1628 C 0.11843 0.49438 0.86352 0.0
H1629 H 0.17872 0.52616 0.83892 0.0
C1630 C 0.12673 0.50215 0.88324 0.0
C1631 C 0.13806 0.50196 0.84744 0.0
C1632 C 0.13108 0.49283 0.82608 0.0
C1633 C 0.1529 0.51948 0.88717 0.0
C1634 C 0.17157 0.52871 0.87093 0.0
C1635 C 0.16431 0.51919 0.85134 0.0
C1636 C 0.1964 0.55122 0.87368 0.0
C1637 C 0.15909 0.52962 0.90848 0.0
C1638 C 0.19398 0.5799 0.86447 0.0
C1639 C 0.21545 0.60258 0.86832 0.0
C1640 C 0.23987 0.5971 0.88151 0.0
C1641 C 0.24297 0.56789 0.89007 0.0
C1642 C 0.22145 0.54511 0.88614 0.0
H1643 H 0.13955 0.52504 0.91865 0.0
H1644 H 0.17914 0.51712 0.91438 0.0
H1645 H 0.16425 0.55441 0.90898 0.0
H1646 H 0.17487 0.5851 0.85477 0.0
H1647 H 0.21242 0.62468 0.86131 0.0
H1648 H 0.76283 0.74544 0.90903 0.0
H1649 H 0.77831 0.69202 0.90762 0.0
H1650 H 0.69407 0.66896 0.87813 0.0
H1651 H 0.67873 0.72267 0.87892 0.0
H1652 H 0.75557 0.63827 0.92141 0.0
H1653 H 0.75577 0.63891 0.83768 0.0
H1654 H 0.75148 0.67334 0.85226 0.0
H1655 H 0.71993 0.64769 0.84928 0.0
C1656 C 0.74738 0.72903 0.90243 0.0
C1657 C 0.71971 0.7385 0.89382 0.0
C1658 C 0.75627 0.69842 0.90165 0.0
C1659 C 0.73769 0.67653 0.89235 0.0
C1660 C 0.70918 0.68554 0.88489 0.0
H1661 H 0.8082 0.48965 0.86643 0.0
H1662 H 0.76949 0.52896 0.87401 0.0
C1663 C 0.70035 0.71625 0.88549 0.0
C1664 C 0.74926 0.64487 0.88958 0.0
H1665 H 0.77354 0.59466 0.85356 0.0
C1666 C 0.759 0.62853 0.90658 0.0
C1667 C 0.75377 0.63207 0.8702 0.0
C1668 C 0.74495 0.64892 0.85128 0.0
C1669 C 0.77434 0.60053 0.90467 0.0
C1670 C 0.78004 0.58854 0.88532 0.0
C1671 C 0.76877 0.60385 0.86838 0.0
C1672 C 0.80229 0.56358 0.88218 0.0
C1673 C 0.7857 0.58457 0.92329 0.0
C1674 C 0.83327 0.57016 0.88428 0.0
C1675 C 0.85513 0.5482 0.8797 0.0
C1676 C 0.84655 0.51898 0.87306 0.0
C1677 C 0.81542 0.51195 0.87155 0.0
C1678 C 0.79337 0.53432 0.87584 0.0
H1679 H 0.77378 0.59269 0.93703 0.0
H1680 H 0.78267 0.55949 0.92193 0.0
H1681 H 0.81038 0.58916 0.92509 0.0
H1682 H 0.84059 0.59265 0.889 0.0
H1683 H 0.87891 0.55425 0.88122 0.0
H1684 H 0.77226 0.56734 0.63707 0.0
H1685 H 0.7368 0.52535 0.64449 0.0
H1686 H 0.66617 0.57222 0.61177 0.0
H1687 H 0.70097 0.61364 0.60426 0.0
H1688 H 0.68132 0.52958 0.66555 0.0
H1689 H 0.66132 0.48595 0.5889 0.0
H1690 H 0.69374 0.50943 0.59513 0.0
H1691 H 0.65744 0.52667 0.58967 0.0
C1692 C 0.74928 0.5684 0.63123 0.0
C1693 C 0.73949 0.59385 0.62005 0.0
C1694 C 0.72907 0.54445 0.63551 0.0
C1695 C 0.69898 0.5454 0.62838 0.0
C1696 C 0.68943 0.5706 0.61704 0.0
H1697 H 0.52465 0.50979 0.66317 0.0
H1698 H 0.57868 0.52128 0.66218 0.0
C1699 C 0.70938 0.59446 0.6129 0.0
C1700 C 0.67639 0.52159 0.63375 0.0
H1701 H 0.6195 0.47962 0.61259 0.0
C1702 C 0.66829 0.51794 0.65403 0.0
C1703 C 0.65977 0.50578 0.61881 0.0
C1704 C 0.66875 0.50689 0.59693 0.0
C1705 C 0.64223 0.50135 0.65954 0.0
C1706 C 0.62357 0.48861 0.64436 0.0
C1707 C 0.63344 0.48971 0.62428 0.0
C1708 C 0.59185 0.47846 0.6484 0.0
C1709 C 0.63433 0.49869 0.68154 0.0
C1710 C 0.58099 0.45035 0.64116 0.0
C1711 C 0.54976 0.44374 0.6416 0.0
C1712 C 0.52889 0.46538 0.64901 0.0
C1713 C 0.54009 0.49265 0.65732 0.0
C1714 C 0.57114 0.49915 0.65694 0.0
H1715 H 0.65526 0.49797 0.69089 0.0
H1716 H 0.62106 0.51905 0.68621 0.0
H1717 H 0.62062 0.47795 0.68464 0.0
H1718 H 0.5965 0.43413 0.63435 0.0
H1719 H 0.54184 0.42261 0.63497 0.0
H1720 H 0.82195 0.28268 0.38191 0.0
H1721 H 0.80604 0.33615 0.38125 0.0
H1722 H 0.72325 0.31243 0.41235 0.0
H1723 H 0.73932 0.25922 0.41358 0.0
H1724 H 0.75886 0.35676 0.3615 0.0
H1725 H 0.74378 0.39007 0.44085 0.0
H1726 H 0.76436 0.35608 0.43362 0.0
H1727 H 0.72346 0.35554 0.43567 0.0
C1728 C 0.80067 0.28895 0.38905 0.0
C1729 C 0.78186 0.26655 0.39772 0.0
C1730 C 0.79161 0.31957 0.38865 0.0
C1731 C 0.76356 0.32853 0.39693 0.0
C1732 C 0.74534 0.30639 0.40632 0.0
H1733 H 0.62971 0.44743 0.35695 0.0
H1734 H 0.66766 0.40879 0.36422 0.0
C1735 C 0.75449 0.27581 0.40687 0.0
C1736 C 0.75156 0.35991 0.39351 0.0
H1737 H 0.71353 0.41849 0.41645 0.0
C1738 C 0.74962 0.37052 0.37362 0.0
C1739 C 0.73985 0.37831 0.40925 0.0
C1740 C 0.74329 0.36953 0.43105 0.0
C1741 C 0.73442 0.39778 0.36893 0.0
C1742 C 0.72026 0.41466 0.38447 0.0
C1743 C 0.72408 0.40534 0.40451 0.0
C1744 C 0.69812 0.43931 0.3799 0.0
C1745 C 0.7327 0.4077 0.34724 0.0
C1746 C 0.70235 0.46945 0.3866 0.0
C1747 C 0.68042 0.49198 0.38241 0.0
C1748 C 0.65379 0.48446 0.37177 0.0
C1749 C 0.64986 0.45418 0.36519 0.0
C1750 C 0.67168 0.43197 0.36922 0.0
H1751 H 0.75227 0.39875 0.33843 0.0
H1752 H 0.71156 0.39855 0.34042 0.0
H1753 H 0.73227 0.43296 0.34594 0.0
H1754 H 0.72254 0.4755 0.39502 0.0
H1755 H 0.68402 0.51501 0.38781 0.0
H1756 H 0.74795 0.44128 0.10498 0.0
H1757 H 0.78808 0.47911 0.11079 0.0
H1758 H 0.83082 0.41861 0.1534 0.0
H1759 H 0.79083 0.38109 0.14802 0.0
H1760 H 0.83052 0.47993 0.16583 0.0
H1761 H 0.87373 0.46666 0.08754 0.0
H1762 H 0.83453 0.47769 0.09011 0.0
H1763 H 0.84657 0.4406 0.09839 0.0
C1764 C 0.76571 0.43618 0.11575 0.0
C1765 C 0.76637 0.40795 0.12582 0.0
C1766 C 0.78869 0.45776 0.11897 0.0
C1767 C 0.8127 0.45142 0.13227 0.0
C1768 C 0.81258 0.42392 0.14301 0.0
H1769 H 0.99091 0.50151 0.16664 0.0
H1770 H 0.93808 0.48473 0.16531 0.0
C1771 C 0.78972 0.40242 0.13983 0.0
C1772 C 0.83903 0.47233 0.13432 0.0
H1773 H 0.90158 0.49821 0.10915 0.0
C1774 C 0.84589 0.48428 0.15339 0.0
C1775 C 0.85902 0.47799 0.11806 0.0
C1776 C 0.85336 0.46494 0.09738 0.0
C1777 C 0.87263 0.50105 0.15675 0.0
C1778 C 0.89324 0.50555 0.14069 0.0
C1779 C 0.88572 0.49477 0.12144 0.0
C1780 C 0.92393 0.51885 0.14372 0.0
C1781 C 0.87872 0.51347 0.17751 0.0
C1782 C 0.9336 0.54376 0.13212 0.0
C1783 C 0.96393 0.55334 0.13275 0.0
C1784 C 0.98527 0.53794 0.14484 0.0
C1785 C 0.97515 0.51391 0.15716 0.0
C1786 C 0.94483 0.50439 0.15653 0.0
H1787 H 0.85722 0.51702 0.186 0.0
H1788 H 0.89274 0.49681 0.18601 0.0
H1789 H 0.89126 0.53542 0.17683 0.0
H1790 H 0.91789 0.55514 0.12205 0.0
H1791 H 0.97088 0.57193 0.12306 0.0
H1792 H 0.73756 0.77064 0.59639 0.0
H1793 H 0.7244 0.82455 0.59649 0.0
H1794 H 0.8109 0.846 0.62356 0.0
H1795 H 0.82419 0.79159 0.62375 0.0
H1796 H 0.76393 0.86866 0.645 0.0
H1797 H 0.74685 0.90035 0.56566 0.0
H1798 H 0.7269 0.86573 0.5712 0.0
H1799 H 0.76782 0.86663 0.57294 0.0
C1800 C 0.75415 0.78683 0.60195 0.0
C1801 C 0.78183 0.77674 0.61021 0.0
C1802 C 0.7467 0.81778 0.6018 0.0
C1803 C 0.76679 0.83948 0.6098 0.0
C1804 C 0.79515 0.8297 0.61715 0.0
H1805 H 0.67971 0.02225 0.61977 0.0
H1806 H 0.72102 0.98575 0.61248 0.0
C1807 C 0.80273 0.7986 0.61721 0.0
C1808 C 0.75595 0.87125 0.61306 0.0
H1809 H 0.71542 0.92802 0.59018 0.0
C1810 C 0.75414 0.88206 0.63291 0.0
C1811 C 0.7435 0.8891 0.59734 0.0
C1812 C 0.74668 0.87996 0.57557 0.0
C1813 C 0.73779 0.90865 0.63762 0.0
C1814 C 0.72258 0.92463 0.62213 0.0
C1815 C 0.72675 0.9155 0.60209 0.0
C1816 C 0.6987 0.94751 0.62679 0.0
C1817 C 0.73556 0.91854 0.6593 0.0
C1818 C 0.67247 0.93797 0.63695 0.0
C1819 C 0.64898 0.95845 0.64095 0.0
C1820 C 0.65109 0.98914 0.6349 0.0
C1821 C 0.67748 0.99883 0.62473 0.0
C1822 C 0.70103 0.97804 0.62054 0.0
H1823 H 0.75547 0.91049 0.66812 0.0
H1824 H 0.73398 0.94376 0.66056 0.0
H1825 H 0.71479 0.90849 0.6661 0.0
H1826 H 0.66996 0.9144 0.64159 0.0
H1827 H 0.62909 0.95009 0.64882 0.0
H1828 H 0.79066 0.88927 0.85771 0.0
H1829 H 0.827 0.92993 0.85096 0.0
H1830 H 0.77876 0.98941 0.89169 0.0
H1831 H 0.74242 0.94848 0.89892 0.0
H1832 H 0.82117 0.98944 0.83635 0.0
H1833 H 0.86463 0.9882 0.91504 0.0
H1834 H 0.84003 0.95871 0.90543 0.0
H1835 H 0.82467 0.9954 0.91195 0.0
C1836 C 0.78758 0.91101 0.86521 0.0
C1837 C 0.76382 0.91541 0.87911 0.0
C1838 C 0.80836 0.93431 0.86124 0.0
C1839 C 0.80589 0.96255 0.87105 0.0
C1840 C 0.78144 0.96759 0.88425 0.0
H1841 H 0.96203 0.08686 0.87529 0.0
H1842 H 0.90771 0.07383 0.87555 0.0
C1843 C 0.76063 0.94419 0.8883 0.0
C1844 C 0.83008 0.98575 0.86811 0.0
H1845 H 0.89048 0.01872 0.89189 0.0
C1846 C 0.83605 0.99628 0.84855 0.0
C1847 C 0.84937 0.99482 0.88406 0.0
C1848 C 0.84463 0.98362 0.9053 0.0
C1849 C 0.8616 0.01443 0.84436 0.0
C1850 C 0.88188 0.02191 0.8601 0.0
C1851 C 0.87484 0.01306 0.87985 0.0
C1852 C 0.91268 0.03443 0.85618 0.0
C1853 C 0.86714 0.02465 0.82303 0.0
C1854 C 0.93329 0.01724 0.84469 0.0
C1855 C 0.96416 0.02454 0.84459 0.0
C1856 C 0.97508 0.04923 0.85596 0.0
C1857 C 0.95417 0.06797 0.86617 0.0
C1858 C 0.92319 0.06042 0.86644 0.0
H1859 H 0.84539 0.02697 0.81466 0.0
H1860 H 0.8794 0.04678 0.82255 0.0
H1861 H 0.88116 0.00726 0.81517 0.0
H1862 H 0.92593 0.99674 0.837 0.0
H1863 H 0.97982 0.00964 0.83669 0.0
H1864 H 0.82825 0.99261 0.1126 0.0
H1865 H 0.79229 0.03295 0.10236 0.0
H1866 H 0.82973 0.09281 0.14745 0.0
H1867 H 0.86566 0.05332 0.1574 0.0
H1868 H 0.74772 0.06949 0.12341 0.0
H1869 H 0.84284 0.13922 0.09447 0.0
H1870 H 0.84697 0.09921 0.1003 0.0
H1871 H 0.84911 0.12741 0.11995 0.0
C1872 C 0.82842 0.01426 0.12046 0.0
C1873 C 0.85006 0.02 0.13558 0.0
C1874 C 0.80797 0.03725 0.11459 0.0
C1875 C 0.80889 0.06609 0.12384 0.0
C1876 C 0.82915 0.071 0.13978 0.0
H1877 H 0.69675 0.22079 0.13919 0.0
H1878 H 0.71682 0.16901 0.13785 0.0
C1879 C 0.84964 0.04835 0.14547 0.0
C1880 C 0.79002 0.09191 0.11656 0.0
H1881 H 0.79654 0.16609 0.10188 0.0
C1882 C 0.75825 0.09049 0.11833 0.0
C1883 C 0.8037 0.11902 0.10943 0.0
C1884 C 0.83751 0.12125 0.10571 0.0
C1885 C 0.73997 0.11624 0.11446 0.0
C1886 C 0.75399 0.14424 0.10918 0.0
C1887 C 0.78561 0.14488 0.10613 0.0
C1888 C 0.73717 0.17376 0.10833 0.0
C1889 C 0.70592 0.11314 0.11623 0.0
C1890 C 0.7418 0.19401 0.09222 0.0
C1891 C 0.73099 0.22402 0.0932 0.0
C1892 C 0.715 0.23431 0.11022 0.0
C1893 C 0.7087 0.2135 0.12576 0.0
C1894 C 0.72 0.18368 0.12494 0.0
H1895 H 0.69853 0.08964 0.11232 0.0
H1896 H 0.69903 0.11747 0.13204 0.0
H1897 H 0.69383 0.12955 0.10633 0.0
H1898 H 0.75499 0.18701 0.07924 0.0
H1899 H 0.73613 0.2395 0.08097 0.0
H1900 H 0.52616 0.99792 0.33876 0.0
H1901 H 0.58038 0.00921 0.33961 0.0
H1902 H 0.59572 0.93055 0.37723 0.0
H1903 H 0.54108 0.91909 0.37645 0.0
H1904 H 0.6143 0.98469 0.39435 0.0
H1905 H 0.66033 0.97699 0.31733 0.0
H1906 H 0.62502 0.99752 0.31775 0.0
H1907 H 0.62573 0.95785 0.32484 0.0
C1908 C 0.54122 0.9824 0.34664 0.0
C1909 C 0.5294 0.95774 0.35762 0.0
C1910 C 0.57228 0.98876 0.347 0.0
C1911 C 0.59219 0.9706 0.35835 0.0
C1912 C 0.58077 0.94469 0.36823 0.0
H1913 H 0.76219 0.05604 0.40213 0.0
H1914 H 0.72675 0.01439 0.39463 0.0
C1915 C 0.5496 0.9381 0.3677 0.0
C1916 C 0.62326 0.98205 0.36257 0.0
H1917 H 0.68463 0.01417 0.33938 0.0
C1918 C 0.6302 0.99034 0.38244 0.0
C1919 C 0.64389 0.98944 0.34701 0.0
C1920 C 0.63849 0.97968 0.32557 0.0
C1921 C 0.65581 0.00818 0.38693 0.0
C1922 C 0.6753 0.01744 0.37112 0.0
C1923 C 0.66958 0.00721 0.35147 0.0
C1924 C 0.69901 0.04101 0.37425 0.0
C1925 C 0.66043 0.01896 0.40828 0.0
C1926 C 0.69583 0.06937 0.36473 0.0
C1927 C 0.71602 0.09306 0.36887 0.0
C1928 C 0.73993 0.08895 0.38267 0.0
C1929 C 0.74385 0.06009 0.3916 0.0
C1930 C 0.72358 0.03628 0.38738 0.0
H1931 H 0.64059 0.01373 0.41804 0.0
H1932 H 0.6807 0.00748 0.41474 0.0
H1933 H 0.6645 0.04396 0.40866 0.0
H1934 H 0.67706 0.07351 0.35453 0.0
H1935 H 0.71242 0.11484 0.36155 0.0
H1936 H 0.18245 0.2194 0.38105 0.0
H1937 H 0.19951 0.16631 0.38024 0.0
H1938 H 0.27889 0.19065 0.41475 0.0
H1939 H 0.26166 0.24349 0.41609 0.0
H1940 H 0.24929 0.14816 0.36182 0.0
H1941 H 0.25758 0.11111 0.44089 0.0
H1942 H 0.23673 0.14484 0.43354 0.0
H1943 H 0.27732 0.14642 0.43721 0.0
C1944 C 0.20316 0.21334 0.38892 0.0
C1945 C 0.22076 0.23583 0.39853 0.0
C1946 C 0.21289 0.18293 0.38843 0.0
C1947 C 0.24038 0.17429 0.39758 0.0
C1948 C 0.25725 0.19645 0.408 0.0
H1949 H 0.37951 0.05813 0.3602 0.0
H1950 H 0.34143 0.09671 0.3675 0.0
C1951 C 0.24744 0.22682 0.40861 0.0
C1952 C 0.25347 0.14341 0.39397 0.0
H1953 H 0.29034 0.08435 0.41711 0.0
C1954 C 0.25762 0.13393 0.37397 0.0
C1955 C 0.26405 0.12446 0.40975 0.0
C1956 C 0.25838 0.1321 0.43154 0.0
C1957 C 0.2738 0.10723 0.36931 0.0
C1958 C 0.28666 0.08975 0.38503 0.0
C1959 C 0.28077 0.09797 0.40506 0.0
C1960 C 0.30924 0.06538 0.38079 0.0
C1961 C 0.27788 0.0985 0.34752 0.0
C1962 C 0.30408 0.03483 0.38622 0.0
C1963 C 0.32604 0.01236 0.38202 0.0
C1964 C 0.35361 0.02027 0.37257 0.0
C1965 C 0.35859 0.05102 0.36742 0.0
C1966 C 0.33674 0.07322 0.3715 0.0
H1967 H 0.25936 0.10801 0.33803 0.0
H1968 H 0.29976 0.10788 0.34196 0.0
H1969 H 0.2784 0.07332 0.34564 0.0
H1970 H 0.28305 0.02838 0.39357 0.0
H1971 H 0.32159 0.98895 0.38632 0.0
H1972 H 0.02485 0.009 0.16613 0.0
H1973 H 0.07941 0.01923 0.16523 0.0
H1974 H 0.0949 0.93311 0.13555 0.0
H1975 H 0.04011 0.92255 0.13642 0.0
H1976 H 0.13551 0.98367 0.17725 0.0
H1977 H 0.12044 1.00319 0.09493 0.0
H1978 H 0.08838 1.00253 0.1119 0.0
H1979 H 0.10763 0.96771 0.1056 0.0
C1980 C 0.0399 0.99186 0.15985 0.0
C1981 C 0.02814 0.96517 0.1511 0.0
C1982 C 0.07108 0.99771 0.1594 0.0
C1983 C 0.09103 0.9771 0.1501 0.0
C1984 C 0.07974 0.94936 0.14268 0.0
H1985 H 0.26295 0.05457 0.10628 0.0
H1986 H 0.22609 0.01421 0.11394 0.0
C1987 C 0.04847 0.94333 0.14328 0.0
C1988 C 0.12266 0.9868 0.1461 0.0
H1989 H 0.16582 0.01982 0.10946 0.0
C1990 C 0.1425 0.99096 0.16237 0.0
C1991 C 0.13173 0.9961 0.12663 0.0
C1992 C 0.11103 0.99236 0.10869 0.0
C1993 C 0.17061 0.00565 0.15984 0.0
C1994 C 0.1786 0.01718 0.14067 0.0
C1995 C 0.15967 0.01106 0.12416 0.0
C1996 C 0.20383 0.03924 0.13787 0.0
C1997 C 0.19106 0.00944 0.17787 0.0
C1998 C 0.20367 0.0666 0.14882 0.0
C1999 C 0.22456 0.08958 0.14451 0.0
C2000 C 0.24595 0.08593 0.12893 0.0
C2001 C 0.24678 0.05812 0.11836 0.0
C2002 C 0.22576 0.03503 0.12273 0.0
H2003 H 0.18819 0.99017 0.18855 0.0
H2004 H 0.21537 0.01085 0.17342 0.0
H2005 H 0.18478 0.0307 0.18594 0.0
H2006 H 0.18648 0.07082 0.16016 0.0
H2007 H 0.22326 0.11063 0.15301 0.0
H2008 H 0.11907 0.94688 0.87223 0.0
H2009 H 0.1576 0.90842 0.87878 0.0
H2010 H 0.22434 0.97875 0.88883 0.0
H2011 H 0.18547 0.01803 0.88228 0.0
H2012 H 0.21375 0.90282 0.8561 0.0
H2013 H 0.23113 0.91853 0.93846 0.0
H2014 H 0.19708 0.93171 0.92597 0.0
H2015 H 0.23228 0.95154 0.92232 0.0
C2016 C 0.14185 0.95443 0.87591 0.0
C2017 C 0.14915 0.98568 0.8766 0.0
C2018 C 0.16388 0.9323 0.87966 0.0
C2019 C 0.19377 0.9407 0.88431 0.0
C2020 C 0.20128 0.97182 0.88541 0.0
H2021 H 0.32359 0.78784 0.87778 0.0
H2022 H 0.30541 0.8406 0.87651 0.0
C2023 C 0.17909 0.9942 0.88161 0.0
C2024 C 0.21679 0.91631 0.88712 0.0
H2025 H 0.25514 0.87641 0.92325 0.0
C2026 C 0.22335 0.89733 0.87068 0.0
C2027 C 0.22895 0.90915 0.90622 0.0
C2028 C 0.22205 0.92861 0.92436 0.0
C2029 C 0.24055 0.87057 0.87296 0.0
C2030 C 0.25204 0.86285 0.8922 0.0
C2031 C 0.24652 0.8825 0.90851 0.0
C2032 C 0.26669 0.83282 0.89593 0.0
C2033 C 0.24464 0.84983 0.855 0.0
C2034 C 0.25202 0.81139 0.90823 0.0
C2035 C 0.26247 0.78128 0.90914 0.0
C2036 C 0.2878 0.77197 0.89771 0.0
C2037 C 0.30382 0.79409 0.88661 0.0
C2038 C 0.29339 0.82427 0.88578 0.0
H2039 H 0.22952 0.85629 0.84231 0.0
H2040 H 0.26851 0.85123 0.84966 0.0
H2041 H 0.23991 0.82575 0.85912 0.0
H2042 H 0.23145 0.81752 0.91627 0.0
H2043 H 0.2497 0.76499 0.918 0.0
H2044 H 0.30051 0.89187 0.61021 0.0
H2045 H 0.3348 0.93312 0.61882 0.0
H2046 H 0.26119 0.98202 0.64721 0.0
H2047 H 0.22614 0.9401 0.6387 0.0
H2048 H 0.33073 0.99642 0.60841 0.0
H2049 H 0.32933 0.97569 0.69112 0.0
H2050 H 0.31593 0.94727 0.67359 0.0
H2051 H 0.29384 0.98102 0.67804 0.0
C2052 C 0.29135 0.91132 0.61826 0.0
C2053 C 0.2605 0.91253 0.62385 0.0
C2054 C 0.31108 0.93501 0.62311 0.0
C2055 C 0.30064 0.96055 0.63374 0.0
C2056 C 0.26975 0.96234 0.63913 0.0
H2057 H 0.45801 0.08531 0.6416 0.0
H2058 H 0.40328 0.07407 0.64152 0.0
C2059 C 0.24976 0.93848 0.63417 0.0
C2060 C 0.32303 0.9844 0.63932 0.0
H2061 H 0.36869 0.00602 0.67831 0.0
C2062 C 0.33858 0.99935 0.62375 0.0
C2063 C 0.33317 0.98797 0.65935 0.0
C2064 C 0.3174 0.97215 0.67658 0.0
C2065 C 0.3655 0.01563 0.62742 0.0
C2066 C 0.37683 0.01752 0.64732 0.0
C2067 C 0.35989 0.00465 0.6631 0.0
C2068 C 0.40862 0.02728 0.65134 0.0
C2069 C 0.38295 0.02828 0.60973 0.0
C2070 C 0.42955 0.00541 0.65812 0.0
C2071 C 0.4606 0.0118 0.65834 0.0
C2072 C 0.47151 0.04025 0.65177 0.0
C2073 C 0.45037 0.0631 0.64662 0.0
C2074 C 0.4191 0.05664 0.64643 0.0
H2075 H 0.37297 0.02126 0.59509 0.0
H2076 H 0.38279 0.05357 0.61041 0.0
H2077 H 0.40701 0.02052 0.61018 0.0
H2078 H 0.42204 0.98265 0.66209 0.0
H2079 H 0.47621 0.99381 0.66265 0.0
loop_
_geom_bond_atom_site_label_1
_geom_bond_atom_site_label_2
_geom_bond_distance
_geom_bond_site_symmetry_2
_ccdc_geom_bond_type
Fe0 O2 1.918 . S
Fe0 O5 1.997 . S
Fe0 O6 2.002 . S
Fe0 O11 1.976 . S
Fe0 O14 1.996 . S
Fe1 O2 1.918 . S
Fe1 O9 1.997 . S
Fe1 O12 1.996 . S
Fe1 O16 1.976 . S
Fe1 O19 2.002 . S
O2 Fe0 1.918 . S
O2 Fe1 1.918 . S
O2 Fe3 1.918 . S
Fe3 O2 1.918 . S
Fe3 O4 2.002 . S
Fe3 O13 1.976 . S
Fe3 O17 1.996 . S
Fe3 O20 1.997 . S
O4 Fe3 2.002 . S
O4 C21 1.295 . S
O5 Fe0 1.997 . S
O5 C21 1.235 . S
O6 Fe0 2.002 . S
O6 C7 1.295 . S
C7 O6 1.295 . S
C7 O9 1.235 . S
C8 O13 1.287 . S
C8 O14 1.255 . S
O9 Fe1 1.997 . S
O9 C7 1.235 . S
C10 O16 1.287 . S
C10 O17 1.255 . S
O11 Fe0 1.976 . S
O11 C18 1.287 . S
O12 Fe1 1.996 . S
O12 C18 1.255 . S
O13 Fe3 1.976 . S
O13 C8 1.287 . S
O14 Fe0 1.996 . S
O14 C8 1.255 . S
C15 O19 1.295 . S
C15 O20 1.235 . S
O16 Fe1 1.976 . S
O16 C10 1.287 . S
O17 Fe3 1.996 . S
O17 C10 1.255 . S
C18 O11 1.287 . S
C18 O12 1.255 . S
O19 Fe1 2.002 . S
O19 C15 1.295 . S
O20 Fe3 1.997 . S
O20 C15 1.235 . S
C21 O4 1.295 . S
C21 O5 1.235 . S
Fe22 O24 1.918 . S
Fe22 O27 1.997 . S
Fe22 O28 2.002 . S
Fe22 O33 1.976 . S
Fe22 O36 1.996 . S
Fe23 O24 1.918 . S
Fe23 O31 1.997 . S
Fe23 O34 1.996 . S
Fe23 O38 1.976 . S
Fe23 O41 2.002 . S
O24 Fe22 1.918 . S
O24 Fe23 1.918 . S
O24 Fe25 1.918 . S
Fe25 O24 1.918 . S
Fe25 O26 2.002 . S
Fe25 O35 1.976 . S
Fe25 O39 1.996 . S
Fe25 O42 1.997 . S
O26 Fe25 2.002 . S
O26 C43 1.295 . S
O27 Fe22 1.997 . S
O27 C43 1.235 . S
O28 Fe22 2.002 . S
O28 C29 1.295 . S
C29 O28 1.295 . S
C29 O31 1.235 . S
C30 O35 1.287 . S
C30 O36 1.255 . S
O31 Fe23 1.997 . S
O31 C29 1.235 . S
C32 O38 1.287 . S
C32 O39 1.255 . S
O33 Fe22 1.976 . S
O33 C40 1.287 . S
O34 Fe23 1.996 . S
O34 C40 1.255 . S
O35 Fe25 1.976 . S
O35 C30 1.287 . S
O36 Fe22 1.996 . S
O36 C30 1.255 . S
C37 O41 1.295 . S
C37 O42 1.235 . S
O38 Fe23 1.976 . S
O38 C32 1.287 . S
O39 Fe25 1.996 . S
O39 C32 1.255 . S
C40 O33 1.287 . S
C40 O34 1.255 . S
O41 Fe23 2.002 . S
O41 C37 1.295 . S
O42 Fe25 1.997 . S
O42 C37 1.235 . S
C43 O26 1.295 . S
C43 O27 1.235 . S
Fe44 O46 1.918 . S
Fe44 O49 1.997 . S
Fe44 O50 2.002 . S
Fe44 O55 1.976 . S
Fe44 O58 1.996 . S
Fe45 O46 1.918 . S
Fe45 O53 1.997 . S
Fe45 O56 1.996 . S
Fe45 O60 1.976 . S
Fe45 O63 2.002 . S
O46 Fe44 1.918 . S
O46 Fe45 1.918 . S
O46 Fe47 1.918 . S
Fe47 O46 1.918 . S
Fe47 O48 2.002 . S
Fe47 O57 1.976 . S
Fe47 O61 1.996 . S
Fe47 O64 1.997 . S
O48 Fe47 2.002 . S
O48 C65 1.295 . S
O49 Fe44 1.997 . S
O49 C65 1.235 . S
O50 Fe44 2.002 . S
O50 C51 1.295 . S
C51 O50 1.295 . S
C51 O53 1.235 . S
C52 O57 1.287 . S
C52 O58 1.255 . S
O53 Fe45 1.997 . S
O53 C51 1.235 . S
C54 O60 1.287 . S
C54 O61 1.255 . S
O55 Fe44 1.976 . S
O55 C62 1.287 . S
O56 Fe45 1.996 . S
O56 C62 1.255 . S
O57 Fe47 1.976 . S
O57 C52 1.287 . S
O58 Fe44 1.996 . S
O58 C52 1.255 . S
C59 O63 1.295 . S
C59 O64 1.235 . S
O60 Fe45 1.976 . S
O60 C54 1.287 . S
O61 Fe47 1.996 . S
O61 C54 1.255 . S
C62 O55 1.287 . S
C62 O56 1.255 . S
O63 Fe45 2.002 . S
O63 C59 1.295 . S
O64 Fe47 1.997 . S
O64 C59 1.235 . S
C65 O48 1.295 . S
C65 O49 1.235 . S
Fe66 O68 1.918 . S
Fe66 O71 1.997 . S
Fe66 O72 2.002 . S
Fe66 O77 1.976 . S
Fe66 O80 1.996 . S
Fe67 O68 1.918 . S
Fe67 O75 1.997 . S
Fe67 O78 1.996 . S
Fe67 O82 1.976 . S
Fe67 O85 2.002 . S
O68 Fe66 1.918 . S
O68 Fe67 1.918 . S
O68 Fe69 1.918 . S
Fe69 O68 1.918 . S
Fe69 O70 2.002 . S
Fe69 O79 1.976 . S
Fe69 O83 1.996 . S
Fe69 O86 1.997 . S
O70 Fe69 2.002 . S
O70 C87 1.295 . S
O71 Fe66 1.997 . S
O71 C87 1.235 . S
O72 Fe66 2.002 . S
O72 C73 1.295 . S
C73 O72 1.295 . S
C73 O75 1.235 . S
C74 O79 1.287 . S
C74 O80 1.255 . S
O75 Fe67 1.997 . S
O75 C73 1.235 . S
C76 O82 1.287 . S
C76 O83 1.255 . S
O77 Fe66 1.976 . S
O77 C84 1.287 . S
O78 Fe67 1.996 . S
O78 C84 1.255 . S
O79 Fe69 1.976 . S
O79 C74 1.287 . S
O80 Fe66 1.996 . S
O80 C74 1.255 . S
C81 O85 1.295 . S
C81 O86 1.235 . S
O82 Fe67 1.976 . S
O82 C76 1.287 . S
O83 Fe69 1.996 . S
O83 C76 1.255 . S
C84 O77 1.287 . S
C84 O78 1.255 . S
O85 Fe67 2.002 . S
O85 C81 1.295 . S
O86 Fe69 1.997 . S
O86 C81 1.235 . S
C87 O70 1.295 . S
C87 O71 1.235 . S
Fe88 O90 1.918 . S
Fe88 O93 1.997 . S
Fe88 O94 2.002 . S
Fe88 O99 1.976 . S
Fe88 O102 1.996 . S
Fe89 O90 1.918 . S
Fe89 O97 1.997 . S
Fe89 O100 1.996 . S
Fe89 O104 1.976 . S
Fe89 O107 2.002 . S
O90 Fe88 1.918 . S
O90 Fe89 1.918 . S
O90 Fe91 1.918 . S
Fe91 O90 1.918 . S
Fe91 O92 2.002 . S
Fe91 O101 1.976 . S
Fe91 O105 1.996 . S
Fe91 O108 1.997 . S
O92 Fe91 2.002 . S
O92 C109 1.295 . S
O93 Fe88 1.997 . S
O93 C109 1.235 . S
O94 Fe88 2.002 . S
O94 C95 1.295 . S
C95 O94 1.295 . S
C95 O97 1.235 . S
C96 O101 1.287 . S
C96 O102 1.255 . S
O97 Fe89 1.997 . S
O97 C95 1.235 . S
C98 O104 1.287 . S
C98 O105 1.255 . S
O99 Fe88 1.976 . S
O99 C106 1.287 . S
O100 Fe89 1.996 . S
O100 C106 1.255 . S
O101 Fe91 1.976 . S
O101 C96 1.287 . S
O102 Fe88 1.996 . S
O102 C96 1.255 . S
C103 O107 1.295 . S
C103 O108 1.235 . S
O104 Fe89 1.976 . S
O104 C98 1.287 . S
O105 Fe91 1.996 . S
O105 C98 1.255 . S
C106 O99 1.287 . S
C106 O100 1.255 . S
O107 Fe89 2.002 . S
O107 C103 1.295 . S
O108 Fe91 1.997 . S
O108 C103 1.235 . S
C109 O92 1.295 . S
C109 O93 1.235 . S
Fe110 O112 1.918 . S
Fe110 O115 1.997 . S
Fe110 O116 2.002 . S
Fe110 O121 1.976 . S
Fe110 O124 1.996 . S
Fe111 O112 1.918 . S
Fe111 O119 1.997 . S
Fe111 O122 1.996 . S
Fe111 O126 1.976 . S
Fe111 O129 2.002 . S
O112 Fe110 1.918 . S
O112 Fe111 1.918 . S
O112 Fe113 1.918 . S
Fe113 O112 1.918 . S
Fe113 O114 2.002 . S
Fe113 O123 1.976 . S
Fe113 O127 1.996 . S
Fe113 O130 1.997 . S
O114 Fe113 2.002 . S
O114 C131 1.295 . S
O115 Fe110 1.997 . S
O115 C131 1.235 . S
O116 Fe110 2.002 . S
O116 C117 1.295 . S
C117 O116 1.295 . S
C117 O119 1.235 . S
C118 O123 1.287 . S
C118 O124 1.255 . S
O119 Fe111 1.997 . S
O119 C117 1.235 . S
C120 O126 1.287 . S
C120 O127 1.255 . S
O121 Fe110 1.976 . S
O121 C128 1.287 . S
O122 Fe111 1.996 . S
O122 C128 1.255 . S
O123 Fe113 1.976 . S
O123 C118 1.287 . S
O124 Fe110 1.996 . S
O124 C118 1.255 . S
C125 O129 1.295 . S
C125 O130 1.235 . S
O126 Fe111 1.976 . S
O126 C120 1.287 . S
O127 Fe113 1.996 . S
O127 C120 1.255 . S
C128 O121 1.287 . S
C128 O122 1.255 . S
O129 Fe111 2.002 . S
O129 C125 1.295 . S
O130 Fe113 1.997 . S
O130 C125 1.235 . S
C131 O114 1.295 . S
C131 O115 1.235 . S
Fe132 O134 1.918 . S
Fe132 O137 1.997 . S
Fe132 O138 2.002 . S
Fe132 O143 1.976 . S
Fe132 O146 1.996 . S
Fe133 O134 1.918 . S
Fe133 O141 1.997 . S
Fe133 O144 1.996 . S
Fe133 O148 1.976 . S
Fe133 O151 2.002 . S
O134 Fe132 1.918 . S
O134 Fe133 1.918 . S
O134 Fe135 1.918 . S
Fe135 O134 1.918 . S
Fe135 O136 2.002 . S
Fe135 O145 1.976 . S
Fe135 O149 1.996 . S
Fe135 O152 1.997 . S
O136 Fe135 2.002 . S
O136 C153 1.295 . S
O137 Fe132 1.997 . S
O137 C153 1.235 . S
O138 Fe132 2.002 . S
O138 C139 1.295 . S
C139 O138 1.295 . S
C139 O141 1.235 . S
C140 O145 1.287 . S
C140 O146 1.255 . S
O141 Fe133 1.997 . S
O141 C139 1.235 . S
C142 O148 1.287 . S
C142 O149 1.255 . S
O143 Fe132 1.976 . S
O143 C150 1.287 . S
O144 Fe133 1.996 . S
O144 C150 1.255 . S
O145 Fe135 1.976 . S
O145 C140 1.287 . S
O146 Fe132 1.996 . S
O146 C140 1.255 . S
C147 O151 1.295 . S
C147 O152 1.235 . S
O148 Fe133 1.976 . S
O148 C142 1.287 . S
O149 Fe135 1.996 . S
O149 C142 1.255 . S
C150 O143 1.287 . S
C150 O144 1.255 . S
O151 Fe133 2.002 . S
O151 C147 1.295 . S
O152 Fe135 1.997 . S
O152 C147 1.235 . S
C153 O136 1.295 . S
C153 O137 1.235 . S
Fe154 O156 1.918 . S
Fe154 O159 1.997 . S
Fe154 O160 2.002 . S
Fe154 O165 1.976 . S
Fe154 O168 1.996 . S
Fe155 O156 1.918 . S
Fe155 O163 1.997 . S
Fe155 O166 1.996 . S
Fe155 O170 1.976 . S
Fe155 O173 2.002 . S
O156 Fe154 1.918 . S
O156 Fe155 1.918 . S
O156 Fe157 1.918 . S
Fe157 O156 1.918 . S
Fe157 O158 2.002 . S
Fe157 O167 1.976 . S
Fe157 O171 1.996 . S
Fe157 O174 1.997 . S
O158 Fe157 2.002 . S
O158 C175 1.295 . S
O159 Fe154 1.997 . S
O159 C175 1.235 . S
O160 Fe154 2.002 . S
O160 C161 1.295 . S
C161 O160 1.295 . S
C161 O163 1.235 . S
C162 O167 1.287 . S
C162 O168 1.255 . S
O163 Fe155 1.997 . S
O163 C161 1.235 . S
C164 O170 1.287 . S
C164 O171 1.255 . S
O165 Fe154 1.976 . S
O165 C172 1.287 . S
O166 Fe155 1.996 . S
O166 C172 1.255 . S
O167 Fe157 1.976 . S
O167 C162 1.287 . S
O168 Fe154 1.996 . S
O168 C162 1.255 . S
C169 O173 1.295 . S
C169 O174 1.235 . S
O170 Fe155 1.976 . S
O170 C164 1.287 . S
O171 Fe157 1.996 . S
O171 C164 1.255 . S
C172 O165 1.287 . S
C172 O166 1.255 . S
O173 Fe155 2.002 . S
O173 C169 1.295 . S
O174 Fe157 1.997 . S
O174 C169 1.235 . S
C175 O158 1.295 . S
C175 O159 1.235 . S
Fe176 O178 1.918 . S
Fe176 O181 1.997 . S
Fe176 O182 2.002 . S
Fe176 O187 1.976 . S
Fe176 O190 1.996 . S
Fe177 O178 1.918 . S
Fe177 O185 1.997 . S
Fe177 O188 1.996 . S
Fe177 O192 1.976 . S
Fe177 O195 2.002 . S
O178 Fe176 1.918 . S
O178 Fe177 1.918 . S
O178 Fe179 1.918 . S
Fe179 O178 1.918 . S
Fe179 O180 2.002 . S
Fe179 O189 1.976 . S
Fe179 O193 1.996 . S
Fe179 O196 1.997 . S
O180 Fe179 2.002 . S
O180 C197 1.295 . S
O181 Fe176 1.997 . S
O181 C197 1.235 . S
O182 Fe176 2.002 . S
O182 C183 1.295 . S
C183 O182 1.295 . S
C183 O185 1.235 . S
C184 O189 1.287 . S
C184 O190 1.255 . S
O185 Fe177 1.997 . S
O185 C183 1.235 . S
C186 O192 1.287 . S
C186 O193 1.255 . S
O187 Fe176 1.976 . S
O187 C194 1.287 . S
O188 Fe177 1.996 . S
O188 C194 1.255 . S
O189 Fe179 1.976 . S
O189 C184 1.287 . S
O190 Fe176 1.996 . S
O190 C184 1.255 . S
C191 O195 1.295 . S
C191 O196 1.235 . S
O192 Fe177 1.976 . S
O192 C186 1.287 . S
O193 Fe179 1.996 . S
O193 C186 1.255 . S
C194 O187 1.287 . S
C194 O188 1.255 . S
O195 Fe177 2.002 . S
O195 C191 1.295 . S
O196 Fe179 1.997 . S
O196 C191 1.235 . S
C197 O180 1.295 . S
C197 O181 1.235 . S
Fe198 O200 1.918 . S
Fe198 O203 1.997 . S
Fe198 O204 2.002 . S
Fe198 O209 1.976 . S
Fe198 O212 1.996 . S
Fe199 O200 1.918 . S
Fe199 O207 1.997 . S
Fe199 O210 1.996 . S
Fe199 O214 1.976 . S
Fe199 O217 2.002 . S
O200 Fe198 1.918 . S
O200 Fe199 1.918 . S
O200 Fe201 1.918 . S
Fe201 O200 1.918 . S
Fe201 O202 2.002 . S
Fe201 O211 1.976 . S
Fe201 O215 1.996 . S
Fe201 O218 1.997 . S
O202 Fe201 2.002 . S
O202 C219 1.295 . S
O203 Fe198 1.997 . S
O203 C219 1.235 . S
O204 Fe198 2.002 . S
O204 C205 1.295 . S
C205 O204 1.295 . S
C205 O207 1.235 . S
C206 O211 1.287 . S
C206 O212 1.255 . S
O207 Fe199 1.997 . S
O207 C205 1.235 . S
C208 O214 1.287 . S
C208 O215 1.255 . S
O209 Fe198 1.976 . S
O209 C216 1.287 . S
O210 Fe199 1.996 . S
O210 C216 1.255 . S
O211 Fe201 1.976 . S
O211 C206 1.287 . S
O212 Fe198 1.996 . S
O212 C206 1.255 . S
C213 O217 1.295 . S
C213 O218 1.235 . S
O214 Fe199 1.976 . S
O214 C208 1.287 . S
O215 Fe201 1.996 . S
O215 C208 1.255 . S
C216 O209 1.287 . S
C216 O210 1.255 . S
O217 Fe199 2.002 . S
O217 C213 1.295 . S
O218 Fe201 1.997 . S
O218 C213 1.235 . S
C219 O202 1.295 . S
C219 O203 1.235 . S
Fe220 O222 1.918 . S
Fe220 O225 1.997 . S
Fe220 O226 2.002 . S
Fe220 O231 1.976 . S
Fe220 O234 1.996 . S
Fe221 O222 1.918 . S
Fe221 O229 1.997 . S
Fe221 O232 1.996 . S
Fe221 O236 1.976 . S
Fe221 O239 2.002 . S
O222 Fe220 1.918 . S
O222 Fe221 1.918 . S
O222 Fe223 1.918 . S
Fe223 O222 1.918 . S
Fe223 O224 2.002 . S
Fe223 O233 1.976 . S
Fe223 O237 1.996 . S
Fe223 O240 1.997 . S
O224 Fe223 2.002 . S
O224 C241 1.295 . S
O225 Fe220 1.997 . S
O225 C241 1.235 . S
O226 Fe220 2.002 . S
O226 C227 1.295 . S
C227 O226 1.295 . S
C227 O229 1.235 . S
C228 O233 1.287 . S
C228 O234 1.255 . S
O229 Fe221 1.997 . S
O229 C227 1.235 . S
C230 O236 1.287 . S
C230 O237 1.255 . S
O231 Fe220 1.976 . S
O231 C238 1.287 . S
O232 Fe221 1.996 . S
O232 C238 1.255 . S
O233 Fe223 1.976 . S
O233 C228 1.287 . S
O234 Fe220 1.996 . S
O234 C228 1.255 . S
C235 O239 1.295 . S
C235 O240 1.235 . S
O236 Fe221 1.976 . S
O236 C230 1.287 . S
O237 Fe223 1.996 . S
O237 C230 1.255 . S
C238 O231 1.287 . S
C238 O232 1.255 . S
O239 Fe221 2.002 . S
O239 C235 1.295 . S
O240 Fe223 1.997 . S
O240 C235 1.235 . S
C241 O224 1.295 . S
C241 O225 1.235 . S
Fe242 O244 1.918 . S
Fe242 O247 1.997 . S
Fe242 O248 2.002 . S
Fe242 O253 1.976 . S
Fe242 O256 1.996 . S
Fe243 O244 1.918 . S
Fe243 O251 1.997 . S
Fe243 O254 1.996 . S
Fe243 O258 1.976 . S
Fe243 O261 2.002 . S
O244 Fe242 1.918 . S
O244 Fe243 1.918 . S
O244 Fe245 1.918 . S
Fe245 O244 1.918 . S
Fe245 O246 2.002 . S
Fe245 O255 1.976 . S
Fe245 O259 1.996 . S
Fe245 O262 1.997 . S
O246 Fe245 2.002 . S
O246 C263 1.295 . S
O247 Fe242 1.997 . S
O247 C263 1.235 . S
O248 Fe242 2.002 . S
O248 C249 1.295 . S
C249 O248 1.295 . S
C249 O251 1.235 . S
C250 O255 1.287 . S
C250 O256 1.255 . S
O251 Fe243 1.997 . S
O251 C249 1.235 . S
C252 O258 1.287 . S
C252 O259 1.255 . S
O253 Fe242 1.976 . S
O253 C260 1.287 . S
O254 Fe243 1.996 . S
O254 C260 1.255 . S
O255 Fe245 1.976 . S
O255 C250 1.287 . S
O256 Fe242 1.996 . S
O256 C250 1.255 . S
C257 O261 1.295 . S
C257 O262 1.235 . S
O258 Fe243 1.976 . S
O258 C252 1.287 . S
O259 Fe245 1.996 . S
O259 C252 1.255 . S
C260 O253 1.287 . S
C260 O254 1.255 . S
O261 Fe243 2.002 . S
O261 C257 1.295 . S
O262 Fe245 1.997 . S
O262 C257 1.235 . S
C263 O246 1.295 . S
C263 O247 1.235 . S
Fe264 O266 1.918 . S
Fe264 O269 1.997 . S
Fe264 O270 2.002 . S
Fe264 O275 1.976 . S
Fe264 O278 1.996 . S
Fe265 O266 1.918 . S
Fe265 O273 1.997 . S
Fe265 O276 1.996 . S
Fe265 O280 1.976 . S
Fe265 O283 2.002 . S
O266 Fe264 1.918 . S
O266 Fe265 1.918 . S
O266 Fe267 1.918 . S
Fe267 O266 1.918 . S
Fe267 O268 2.002 . S
Fe267 O277 1.976 . S
Fe267 O281 1.996 . S
Fe267 O284 1.997 . S
O268 Fe267 2.002 . S
O268 C285 1.295 . S
O269 Fe264 1.997 . S
O269 C285 1.235 . S
O270 Fe264 2.002 . S
O270 C271 1.295 . S
C271 O270 1.295 . S
C271 O273 1.235 . S
C272 O277 1.287 . S
C272 O278 1.255 . S
O273 Fe265 1.997 . S
O273 C271 1.235 . S
C274 O280 1.287 . S
C274 O281 1.255 . S
O275 Fe264 1.976 . S
O275 C282 1.287 . S
O276 Fe265 1.996 . S
O276 C282 1.255 . S
O277 Fe267 1.976 . S
O277 C272 1.287 . S
O278 Fe264 1.996 . S
O278 C272 1.255 . S
C279 O283 1.295 . S
C279 O284 1.235 . S
O280 Fe265 1.976 . S
O280 C274 1.287 . S
O281 Fe267 1.996 . S
O281 C274 1.255 . S
C282 O275 1.287 . S
C282 O276 1.255 . S
O283 Fe265 2.002 . S
O283 C279 1.295 . S
O284 Fe267 1.997 . S
O284 C279 1.235 . S
C285 O268 1.295 . S
C285 O269 1.235 . S
Fe286 O288 1.918 . S
Fe286 O291 1.997 . S
Fe286 O292 2.002 . S
Fe286 O297 1.976 . S
Fe286 O300 1.996 . S
Fe287 O288 1.918 . S
Fe287 O295 1.997 . S
Fe287 O298 1.996 . S
Fe287 O302 1.976 . S
Fe287 O305 2.002 . S
O288 Fe286 1.918 . S
O288 Fe287 1.918 . S
O288 Fe289 1.918 . S
Fe289 O288 1.918 . S
Fe289 O290 2.002 . S
Fe289 O299 1.976 . S
Fe289 O303 1.996 . S
Fe289 O306 1.997 . S
O290 Fe289 2.002 . S
O290 C307 1.295 . S
O291 Fe286 1.997 . S
O291 C307 1.235 . S
O292 Fe286 2.002 . S
O292 C293 1.295 . S
C293 O292 1.295 . S
C293 O295 1.235 . S
C294 O299 1.287 . S
C294 O300 1.255 . S
O295 Fe287 1.997 . S
O295 C293 1.235 . S
C296 O302 1.287 . S
C296 O303 1.255 . S
O297 Fe286 1.976 . S
O297 C304 1.287 . S
O298 Fe287 1.996 . S
O298 C304 1.255 . S
O299 Fe289 1.976 . S
O299 C294 1.287 . S
O300 Fe286 1.996 . S
O300 C294 1.255 . S
C301 O305 1.295 . S
C301 O306 1.235 . S
O302 Fe287 1.976 . S
O302 C296 1.287 . S
O303 Fe289 1.996 . S
O303 C296 1.255 . S
C304 O297 1.287 . S
C304 O298 1.255 . S
O305 Fe287 2.002 . S
O305 C301 1.295 . S
O306 Fe289 1.997 . S
O306 C301 1.235 . S
C307 O290 1.295 . S
C307 O291 1.235 . S
Fe308 O310 1.918 . S
Fe308 O313 1.997 . S
Fe308 O314 2.002 . S
Fe308 O319 1.976 . S
Fe308 O322 1.996 . S
Fe309 O310 1.918 . S
Fe309 O317 1.997 . S
Fe309 O320 1.996 . S
Fe309 O324 1.976 . S
Fe309 O327 2.002 . S
O310 Fe308 1.918 . S
O310 Fe309 1.918 . S
O310 Fe311 1.918 . S
Fe311 O310 1.918 . S
Fe311 O312 2.002 . S
Fe311 O321 1.976 . S
Fe311 O325 1.996 . S
Fe311 O328 1.997 . S
O312 Fe311 2.002 . S
O312 C329 1.295 . S
O313 Fe308 1.997 . S
O313 C329 1.235 . S
O314 Fe308 2.002 . S
O314 C315 1.295 . S
C315 O314 1.295 . S
C315 O317 1.235 . S
C316 O321 1.287 . S
C316 O322 1.255 . S
O317 Fe309 1.997 . S
O317 C315 1.235 . S
C318 O324 1.287 . S
C318 O325 1.255 . S
O319 Fe308 1.976 . S
O319 C326 1.287 . S
O320 Fe309 1.996 . S
O320 C326 1.255 . S
O321 Fe311 1.976 . S
O321 C316 1.287 . S
O322 Fe308 1.996 . S
O322 C316 1.255 . S
C323 O327 1.295 . S
C323 O328 1.235 . S
O324 Fe309 1.976 . S
O324 C318 1.287 . S
O325 Fe311 1.996 . S
O325 C318 1.255 . S
C326 O319 1.287 . S
C326 O320 1.255 . S
O327 Fe309 2.002 . S
O327 C323 1.295 . S
O328 Fe311 1.997 . S
O328 C323 1.235 . S
C329 O312 1.295 . S
C329 O313 1.235 . S
Fe330 O332 1.918 . S
Fe330 O335 1.997 . S
Fe330 O336 2.002 . S
Fe330 O341 1.976 . S
Fe330 O344 1.996 . S
Fe331 O332 1.918 . S
Fe331 O339 1.997 . S
Fe331 O342 1.996 . S
Fe331 O346 1.976 . S
Fe331 O349 2.002 . S
O332 Fe330 1.918 . S
O332 Fe331 1.918 . S
O332 Fe333 1.918 . S
Fe333 O332 1.918 . S
Fe333 O334 2.002 . S
Fe333 O343 1.976 . S
Fe333 O347 1.996 . S
Fe333 O350 1.997 . S
O334 Fe333 2.002 . S
O334 C351 1.295 . S
O335 Fe330 1.997 . S
O335 C351 1.235 . S
O336 Fe330 2.002 . S
O336 C337 1.295 . S
C337 O336 1.295 . S
C337 O339 1.235 . S
C338 O343 1.287 . S
C338 O344 1.255 . S
O339 Fe331 1.997 . S
O339 C337 1.235 . S
C340 O346 1.287 . S
C340 O347 1.255 . S
O341 Fe330 1.976 . S
O341 C348 1.287 . S
O342 Fe331 1.996 . S
O342 C348 1.255 . S
O343 Fe333 1.976 . S
O343 C338 1.287 . S
O344 Fe330 1.996 . S
O344 C338 1.255 . S
C345 O349 1.295 . S
C345 O350 1.235 . S
O346 Fe331 1.976 . S
O346 C340 1.287 . S
O347 Fe333 1.996 . S
O347 C340 1.255 . S
C348 O341 1.287 . S
C348 O342 1.255 . S
O349 Fe331 2.002 . S
O349 C345 1.295 . S
O350 Fe333 1.997 . S
O350 C345 1.235 . S
C351 O334 1.295 . S
C351 O335 1.235 . S
H352 C360 0.929 . S
H353 C362 0.930 . S
H354 C364 0.930 . S
H355 C367 0.929 . S
H356 C370 0.930 . S
H357 C372 0.960 . S
H358 C372 0.960 . S
H359 C372 0.960 . S
C360 H352 0.929 . S
C360 C361 1.377 . S
C360 C362 1.384 . S
C361 C360 1.377 . S
C361 C367 1.390 . S
C362 H353 0.930 . S
C362 C360 1.384 . S
C362 C363 1.372 . S
C363 C362 1.372 . S
C363 C364 1.400 . S
C363 C368 1.490 . S
C364 H354 0.930 . S
C364 C363 1.400 . S
C364 C367 1.386 . S
H365 C381 0.930 . S
H366 C382 0.931 . S
C367 H355 0.929 . S
C367 C361 1.390 . S
C367 C364 1.386 . S
C368 C363 1.490 . S
C368 C370 1.395 . S
C368 C371 1.403 . S
H369 C375 0.930 . S
C370 H356 0.930 . S
C370 C368 1.395 . S
C370 C373 1.403 . S
C371 C368 1.403 . S
C371 C372 1.524 . S
C371 C375 1.400 . S
C372 H357 0.960 . S
C372 H358 0.960 . S
C372 H359 0.960 . S
C372 C371 1.524 . S
C373 C370 1.403 . S
C373 C374 1.392 . S
C373 C377 1.495 . S
C374 C373 1.392 . S
C374 C375 1.385 . S
C374 C376 1.478 . S
C375 H369 0.930 . S
C375 C371 1.400 . S
C375 C374 1.385 . S
C376 C374 1.478 . S
C376 C378 1.381 . S
C376 C382 1.383 . S
C377 C373 1.495 . S
C377 H383 0.959 . S
C377 H384 0.961 . S
C377 H385 0.960 . S
C378 C376 1.381 . S
C378 C379 1.394 . S
C378 H386 0.930 . S
C379 C378 1.394 . S
C379 C380 1.383 . S
C379 H387 0.929 . S
C380 C379 1.383 . S
C380 C381 1.377 . S
C381 H365 0.930 . S
C381 C380 1.377 . S
C381 C382 1.379 . S
C382 H366 0.931 . S
C382 C376 1.383 . S
C382 C381 1.379 . S
H383 C377 0.959 . S
H384 C377 0.961 . S
H385 C377 0.960 . S
H386 C378 0.930 . S
H387 C379 0.929 . S
H388 C396 0.929 . S
H389 C398 0.930 . S
H390 C400 0.930 . S
H391 C403 0.929 . S
H392 C406 0.930 . S
H393 C408 0.960 . S
H394 C408 0.960 . S
H395 C408 0.960 . S
C396 H388 0.929 . S
C396 C397 1.377 . S
C396 C398 1.384 . S
C397 C396 1.377 . S
C397 C403 1.390 . S
C398 H389 0.930 . S
C398 C396 1.384 . S
C398 C399 1.372 . S
C399 C398 1.372 . S
C399 C400 1.400 . S
C399 C404 1.490 . S
C400 H390 0.930 . S
C400 C399 1.400 . S
C400 C403 1.386 . S
H401 C417 0.930 . S
H402 C418 0.931 . S
C403 H391 0.929 . S
C403 C397 1.390 . S
C403 C400 1.386 . S
C404 C399 1.490 . S
C404 C406 1.395 . S
C404 C407 1.403 . S
H405 C411 0.930 . S
C406 H392 0.930 . S
C406 C404 1.395 . S
C406 C409 1.403 . S
C407 C404 1.403 . S
C407 C408 1.524 . S
C407 C411 1.400 . S
C408 H393 0.960 . S
C408 H394 0.960 . S
C408 H395 0.960 . S
C408 C407 1.524 . S
C409 C406 1.403 . S
C409 C410 1.392 . S
C409 C413 1.495 . S
C410 C409 1.392 . S
C410 C411 1.385 . S
C410 C412 1.478 . S
C411 H405 0.930 . S
C411 C407 1.400 . S
C411 C410 1.385 . S
C412 C410 1.478 . S
C412 C414 1.381 . S
C412 C418 1.383 . S
C413 C409 1.495 . S
C413 H419 0.959 . S
C413 H420 0.961 . S
C413 H421 0.960 . S
C414 C412 1.381 . S
C414 C415 1.394 . S
C414 H422 0.930 . S
C415 C414 1.394 . S
C415 C416 1.383 . S
C415 H423 0.929 . S
C416 C415 1.383 . S
C416 C417 1.377 . S
C417 H401 0.930 . S
C417 C416 1.377 . S
C417 C418 1.379 . S
C418 H402 0.931 . S
C418 C412 1.383 . S
C418 C417 1.379 . S
H419 C413 0.959 . S
H420 C413 0.961 . S
H421 C413 0.960 . S
H422 C414 0.930 . S
H423 C415 0.929 . S
H424 C432 0.929 . S
H425 C434 0.930 . S
H426 C436 0.930 . S
H427 C439 0.929 . S
H428 C442 0.930 . S
H429 C444 0.960 . S
H430 C444 0.960 . S
H431 C444 0.960 . S
C432 H424 0.929 . S
C432 C433 1.377 . S
C432 C434 1.384 . S
C433 C432 1.377 . S
C433 C439 1.390 . S
C434 H425 0.930 . S
C434 C432 1.384 . S
C434 C435 1.372 . S
C435 C434 1.372 . S
C435 C436 1.400 . S
C435 C440 1.490 . S
C436 H426 0.930 . S
C436 C435 1.400 . S
C436 C439 1.386 . S
H437 C453 0.930 . S
H438 C454 0.931 . S
C439 H427 0.929 . S
C439 C433 1.390 . S
C439 C436 1.386 . S
C440 C435 1.490 . S
C440 C442 1.395 . S
C440 C443 1.403 . S
H441 C447 0.930 . S
C442 H428 0.930 . S
C442 C440 1.395 . S
C442 C445 1.403 . S
C443 C440 1.403 . S
C443 C444 1.524 . S
C443 C447 1.400 . S
C444 H429 0.960 . S
C444 H430 0.960 . S
C444 H431 0.960 . S
C444 C443 1.524 . S
C445 C442 1.403 . S
C445 C446 1.392 . S
C445 C449 1.495 . S
C446 C445 1.392 . S
C446 C447 1.385 . S
C446 C448 1.478 . S
C447 H441 0.930 . S
C447 C443 1.400 . S
C447 C446 1.385 . S
C448 C446 1.478 . S
C448 C450 1.381 . S
C448 C454 1.383 . S
C449 C445 1.495 . S
C449 H455 0.959 . S
C449 H456 0.961 . S
C449 H457 0.960 . S
C450 C448 1.381 . S
C450 C451 1.394 . S
C450 H458 0.930 . S
C451 C450 1.394 . S
C451 C452 1.383 . S
C451 H459 0.929 . S
C452 C451 1.383 . S
C452 C453 1.377 . S
C453 H437 0.930 . S
C453 C452 1.377 . S
C453 C454 1.379 . S
C454 H438 0.931 . S
C454 C448 1.383 . S
C454 C453 1.379 . S
H455 C449 0.959 . S
H456 C449 0.961 . S
H457 C449 0.960 . S
H458 C450 0.930 . S
H459 C451 0.929 . S
H460 C468 0.929 . S
H461 C470 0.930 1_455 S
H462 C472 0.930 . S
H463 C475 0.929 . S
H464 C478 0.930 . S
H465 C480 0.960 1_554 S
H466 C480 0.951 1_455 S
H467 C480 0.960 . S
C468 H460 0.929 . S
C468 C469 1.377 . S
C468 C470 1.384 . S
C469 C468 1.377 . S
C469 C475 1.390 . S
C470 H461 0.930 1_655 S
C470 C468 1.384 . S
C470 C471 1.372 . S
C471 C470 1.372 . S
C471 C472 1.400 . S
C471 C476 1.490 . S
C472 H462 0.930 . S
C472 C471 1.400 . S
C472 C475 1.386 . S
H473 C489 0.930 . S
H474 C490 0.931 1_655 S
C475 H463 0.929 . S
C475 C469 1.390 . S
C475 C472 1.386 . S
C476 C471 1.490 . S
C476 C478 1.395 . S
C476 C479 1.403 . S
H477 C483 0.930 . S
C478 H464 0.930 . S
C478 C476 1.395 . S
C478 C481 1.403 1_656 S
C479 C476 1.403 . S
C479 C480 1.524 . S
C479 C483 1.400 1_656 S
C480 H465 0.960 1_556 S
C480 H466 0.951 1_655 S
C480 H467 0.960 . S
C480 C479 1.524 . S
C481 C478 1.403 1_454 S
C481 C482 1.392 . S
C481 C485 1.495 . S
C482 C481 1.392 . S
C482 C483 1.385 . S
C482 C484 1.478 . S
C483 H477 0.930 . S
C483 C479 1.400 1_454 S
C483 C482 1.385 . S
C484 C482 1.478 . S
C484 C486 1.381 . S
C484 C490 1.383 . S
C485 C481 1.495 . S
C485 H491 0.959 1_554 S
C485 H492 0.961 . S
C485 H493 0.960 . S
C486 C484 1.381 . S
C486 C487 1.394 . S
C486 H494 0.930 . S
C487 C486 1.394 . S
C487 C488 1.383 . S
C487 H495 0.929 . S
C488 C487 1.383 . S
C488 C489 1.377 . S
C489 H473 0.930 . S
C489 C488 1.377 . S
C489 C490 1.379 . S
C490 H474 0.931 1_455 S
C490 C484 1.383 . S
C490 C489 1.379 . S
H491 C485 0.959 1_556 S
H492 C485 0.961 . S
H493 C485 0.960 . S
H494 C486 0.930 . S
H495 C487 0.929 . S
H496 C504 0.929 . S
H497 C506 0.930 . S
H498 C508 0.930 . S
H499 C511 0.929 . S
H500 C514 0.930 . S
H501 C516 0.960 . S
H502 C516 0.960 . S
H503 C516 0.960 . S
C504 H496 0.929 . S
C504 C505 1.377 . S
C504 C506 1.384 . S
C505 C504 1.377 . S
C505 C511 1.390 . S
C506 H497 0.930 . S
C506 C504 1.384 . S
C506 C507 1.372 . S
C507 C506 1.372 . S
C507 C508 1.400 . S
C507 C512 1.490 . S
C508 H498 0.930 . S
C508 C507 1.400 . S
C508 C511 1.386 . S
H509 C525 0.930 . S
H510 C526 0.931 . S
C511 H499 0.929 . S
C511 C505 1.390 . S
C511 C508 1.386 . S
C512 C507 1.490 . S
C512 C514 1.395 . S
C512 C515 1.403 . S
H513 C519 0.930 . S
C514 H500 0.930 . S
C514 C512 1.395 . S
C514 C517 1.403 . S
C515 C512 1.403 . S
C515 C516 1.524 . S
C515 C519 1.400 . S
C516 H501 0.960 . S
C516 H502 0.960 . S
C516 H503 0.960 . S
C516 C515 1.524 . S
C517 C514 1.403 . S
C517 C518 1.392 . S
C517 C521 1.495 . S
C518 C517 1.392 . S
C518 C519 1.385 . S
C518 C520 1.478 . S
C519 H513 0.930 . S
C519 C515 1.400 . S
C519 C518 1.385 . S
C520 C518 1.478 . S
C520 C522 1.381 . S
C520 C526 1.383 . S
C521 C517 1.495 . S
C521 H527 0.959 . S
C521 H528 0.961 . S
C521 H529 0.960 . S
C522 C520 1.381 . S
C522 C523 1.394 . S
C522 H530 0.930 . S
C523 C522 1.394 . S
C523 C524 1.383 . S
C523 H531 0.929 . S
C524 C523 1.383 . S
C524 C525 1.377 . S
C525 H509 0.930 . S
C525 C524 1.377 . S
C525 C526 1.379 . S
C526 H510 0.931 . S
C526 C520 1.383 . S
C526 C525 1.379 . S
H527 C521 0.959 . S
H528 C521 0.961 . S
H529 C521 0.960 . S
H530 C522 0.930 . S
H531 C523 0.929 . S
H532 C540 0.929 . S
H533 C542 0.930 . S
H534 C544 0.930 . S
H535 C547 0.929 . S
H536 C550 0.930 . S
H537 C552 0.960 . S
H538 C552 0.960 . S
H539 C552 0.960 . S
C540 H532 0.929 . S
C540 C541 1.377 . S
C540 C542 1.384 . S
C541 C540 1.377 . S
C541 C547 1.390 . S
C542 H533 0.930 . S
C542 C540 1.384 . S
C542 C543 1.372 . S
C543 C542 1.372 . S
C543 C544 1.400 . S
C543 C548 1.490 . S
C544 H534 0.930 . S
C544 C543 1.400 . S
C544 C547 1.386 . S
H545 C561 0.930 . S
H546 C562 0.931 . S
C547 H535 0.929 . S
C547 C541 1.390 . S
C547 C544 1.386 . S
C548 C543 1.490 . S
C548 C550 1.395 . S
C548 C551 1.403 . S
H549 C555 0.930 . S
C550 H536 0.930 . S
C550 C548 1.395 . S
C550 C553 1.403 . S
C551 C548 1.403 . S
C551 C552 1.524 . S
C551 C555 1.400 . S
C552 H537 0.960 . S
C552 H538 0.960 . S
C552 H539 0.960 . S
C552 C551 1.524 . S
C553 C550 1.403 . S
C553 C554 1.392 . S
C553 C557 1.495 . S
C554 C553 1.392 . S
C554 C555 1.385 . S
C554 C556 1.478 . S
C555 H549 0.930 . S
C555 C551 1.400 . S
C555 C554 1.385 . S
C556 C554 1.478 . S
C556 C558 1.381 . S
C556 C562 1.383 . S
C557 C553 1.495 . S
C557 H563 0.959 . S
C557 H564 0.961 . S
C557 H565 0.960 . S
C558 C556 1.381 . S
C558 C559 1.394 . S
C558 H566 0.930 . S
C559 C558 1.394 . S
C559 C560 1.383 . S
C559 H567 0.929 . S
C560 C559 1.383 . S
C560 C561 1.377 . S
C561 H545 0.930 . S
C561 C560 1.377 . S
C561 C562 1.379 . S
C562 H546 0.931 . S
C562 C556 1.383 . S
C562 C561 1.379 . S
H563 C557 0.959 . S
H564 C557 0.961 . S
H565 C557 0.960 . S
H566 C558 0.930 . S
H567 C559 0.929 . S
H568 C576 0.929 . S
H569 C578 0.930 . S
H570 C580 0.930 . S
H571 C583 0.929 . S
H572 C586 0.930 . S
H573 C588 0.960 1_556 S
H574 C588 0.960 1_545 S
H575 C588 0.960 . S
C576 H568 0.929 . S
C576 C577 1.377 1_545 S
C576 C578 1.384 . S
C577 C576 1.377 1_565 S
C577 C583 1.390 . S
C578 H569 0.930 . S
C578 C576 1.384 . S
C578 C579 1.372 1_545 S
C579 C578 1.372 1_565 S
C579 C580 1.400 . S
C579 C584 1.490 . S
C580 H570 0.930 . S
C580 C579 1.400 . S
C580 C583 1.386 . S
H581 C597 0.930 . S
H582 C598 0.931 . S
C583 H571 0.929 . S
C583 C577 1.390 . S
C583 C580 1.386 . S
C584 C579 1.490 . S
C584 C586 1.391 1_665 S
C584 C587 1.403 . S
H585 C591 0.930 . S
C586 H572 0.930 . S
C586 C584 1.391 1_445 S
C586 C589 1.402 1_554 S
C587 C584 1.403 . S
C587 C588 1.524 . S
C587 C591 1.400 1_564 S
C588 H573 0.960 1_554 S
C588 H574 0.960 1_565 S
C588 H575 0.960 . S
C588 C587 1.524 . S
C589 C586 1.402 1_556 S
C589 C590 1.399 . S
C589 C593 1.495 . S
C590 C589 1.399 . S
C590 C591 1.385 1_455 S
C590 C592 1.478 . S
C591 H585 0.930 . S
C591 C587 1.400 1_546 S
C591 C590 1.385 1_655 S
C592 C590 1.478 . S
C592 C594 1.381 . S
C592 C598 1.383 1_545 S
C593 C589 1.495 . S
C593 H599 0.928 1_556 S
C593 H600 0.980 1_545 S
C593 H601 0.973 . S
C594 C592 1.381 . S
C594 C595 1.394 . S
C594 H602 0.930 . S
C595 C594 1.394 . S
C595 C596 1.383 . S
C595 H603 0.929 . S
C596 C595 1.383 . S
C596 C597 1.377 1_545 S
C597 H581 0.930 . S
C597 C596 1.377 1_565 S
C597 C598 1.379 . S
C598 H582 0.931 . S
C598 C592 1.383 1_565 S
C598 C597 1.379 . S
H599 C593 0.928 1_554 S
H600 C593 0.980 1_565 S
H601 C593 0.973 . S
H602 C594 0.930 . S
H603 C595 0.929 . S
H604 C612 0.929 . S
H605 C614 0.930 1_545 S
H606 C616 0.930 . S
H607 C619 0.929 . S
H608 C622 0.930 . S
H609 C624 0.960 . S
H610 C624 0.960 . S
H611 C624 0.960 . S
C612 H604 0.929 . S
C612 C613 1.377 . S
C612 C614 1.384 . S
C613 C612 1.377 . S
C613 C619 1.390 . S
C614 H605 0.930 1_565 S
C614 C612 1.384 . S
C614 C615 1.372 . S
C615 C614 1.372 . S
C615 C616 1.400 . S
C615 C620 1.490 . S
C616 H606 0.930 . S
C616 C615 1.400 . S
C616 C619 1.386 . S
H617 C633 0.930 1_565 S
H618 C634 0.931 . S
C619 H607 0.929 . S
C619 C613 1.390 . S
C619 C616 1.386 . S
C620 C615 1.490 . S
C620 C622 1.395 . S
C620 C623 1.403 1_565 S
H621 C627 0.930 . S
C622 H608 0.930 . S
C622 C620 1.395 . S
C622 C625 1.403 . S
C623 C620 1.403 1_545 S
C623 C624 1.524 . S
C623 C627 1.400 . S
C624 H609 0.960 . S
C624 H610 0.960 . S
C624 H611 0.960 . S
C624 C623 1.524 . S
C625 C622 1.403 . S
C625 C626 1.392 1_565 S
C625 C629 1.495 . S
C626 C625 1.392 1_545 S
C626 C627 1.385 . S
C626 C628 1.478 . S
C627 H621 0.930 . S
C627 C623 1.400 . S
C627 C626 1.385 . S
C628 C626 1.478 . S
C628 C630 1.381 . S
C628 C634 1.383 1_545 S
C629 C625 1.495 . S
C629 H635 0.959 . S
C629 H636 0.961 . S
C629 H637 0.960 . S
C630 C628 1.381 . S
C630 C631 1.394 . S
C630 H638 0.930 . S
C631 C630 1.394 . S
C631 C632 1.383 . S
C631 H639 0.929 . S
C632 C631 1.383 . S
C632 C633 1.377 . S
C633 H617 0.930 1_545 S
C633 C632 1.377 . S
C633 C634 1.379 1_545 S
C634 H618 0.931 . S
C634 C628 1.383 1_565 S
C634 C633 1.379 1_565 S
H635 C629 0.959 . S
H636 C629 0.961 . S
H637 C629 0.960 . S
H638 C630 0.930 . S
H639 C631 0.929 . S
H640 C648 0.929 . S
H641 C650 0.930 . S
H642 C652 0.930 . S
H643 C655 0.929 . S
H644 C658 0.930 . S
H645 C660 0.960 . S
H646 C660 0.960 . S
H647 C660 0.960 . S
C648 H640 0.929 . S
C648 C649 1.377 . S
C648 C650 1.384 . S
C649 C648 1.377 . S
C649 C655 1.390 . S
C650 H641 0.930 . S
C650 C648 1.384 . S
C650 C651 1.372 . S
C651 C650 1.372 . S
C651 C652 1.400 . S
C651 C656 1.490 . S
C652 H642 0.930 . S
C652 C651 1.400 . S
C652 C655 1.386 . S
H653 C669 0.930 . S
H654 C670 0.931 . S
C655 H643 0.929 . S
C655 C649 1.390 . S
C655 C652 1.386 . S
C656 C651 1.490 . S
C656 C658 1.395 . S
C656 C659 1.403 . S
H657 C663 0.930 . S
C658 H644 0.930 . S
C658 C656 1.395 . S
C658 C661 1.403 1_556 S
C659 C656 1.403 . S
C659 C660 1.524 . S
C659 C663 1.400 . S
C660 H645 0.960 . S
C660 H646 0.960 . S
C660 H647 0.960 . S
C660 C659 1.524 . S
C661 C658 1.403 1_554 S
C661 C662 1.392 . S
C661 C665 1.495 . S
C662 C661 1.392 . S
C662 C663 1.385 1_554 S
C662 C664 1.478 . S
C663 H657 0.930 . S
C663 C659 1.400 . S
C663 C662 1.385 1_556 S
C664 C662 1.478 . S
C664 C666 1.381 . S
C664 C670 1.383 . S
C665 C661 1.495 . S
C665 H671 0.959 . S
C665 H672 0.961 . S
C665 H673 0.960 . S
C666 C664 1.381 . S
C666 C667 1.394 . S
C666 H674 0.930 . S
C667 C666 1.394 . S
C667 C668 1.383 . S
C667 H675 0.929 . S
C668 C667 1.383 . S
C668 C669 1.377 . S
C669 H653 0.930 . S
C669 C668 1.377 . S
C669 C670 1.379 . S
C670 H654 0.931 . S
C670 C664 1.383 . S
C670 C669 1.379 . S
H671 C665 0.959 . S
H672 C665 0.961 . S
H673 C665 0.960 . S
H674 C666 0.930 . S
H675 C667 0.929 . S
H676 C684 0.929 . S
H677 C686 0.930 . S
H678 C688 0.930 . S
H679 C691 0.929 . S
H680 C694 0.930 . S
H681 C696 0.960 . S
H682 C696 0.960 . S
H683 C696 0.960 . S
C684 H676 0.929 . S
C684 C685 1.377 . S
C684 C686 1.384 . S
C685 C684 1.377 . S
C685 C691 1.390 . S
C686 H677 0.930 . S
C686 C684 1.384 . S
C686 C687 1.372 . S
C687 C686 1.372 . S
C687 C688 1.400 . S
C687 C692 1.490 . S
C688 H678 0.930 . S
C688 C687 1.400 . S
C688 C691 1.386 . S
H689 C705 0.930 . S
H690 C706 0.931 . S
C691 H679 0.929 . S
C691 C685 1.390 . S
C691 C688 1.386 . S
C692 C687 1.490 . S
C692 C694 1.395 . S
C692 C695 1.403 . S
H693 C699 0.930 . S
C694 H680 0.930 . S
C694 C692 1.395 . S
C694 C697 1.403 . S
C695 C692 1.403 . S
C695 C696 1.524 . S
C695 C699 1.400 . S
C696 H681 0.960 . S
C696 H682 0.960 . S
C696 H683 0.960 . S
C696 C695 1.524 . S
C697 C694 1.403 . S
C697 C698 1.392 . S
C697 C701 1.495 . S
C698 C697 1.392 . S
C698 C699 1.385 . S
C698 C700 1.478 . S
C699 H693 0.930 . S
C699 C695 1.400 . S
C699 C698 1.385 . S
C700 C698 1.478 . S
C700 C702 1.381 . S
C700 C706 1.383 . S
C701 C697 1.495 . S
C701 H707 0.959 . S
C701 H708 0.961 . S
C701 H709 0.960 . S
C702 C700 1.381 . S
C702 C703 1.394 . S
C702 H710 0.930 . S
C703 C702 1.394 . S
C703 C704 1.383 . S
C703 H711 0.929 . S
C704 C703 1.383 . S
C704 C705 1.377 . S
C705 H689 0.930 . S
C705 C704 1.377 . S
C705 C706 1.379 . S
C706 H690 0.931 . S
C706 C700 1.383 . S
C706 C705 1.379 . S
H707 C701 0.959 . S
H708 C701 0.961 . S
H709 C701 0.960 . S
H710 C702 0.930 . S
H711 C703 0.929 . S
H712 C720 0.929 . S
H713 C722 0.930 . S
H714 C724 0.930 . S
H715 C727 0.929 . S
H716 C730 0.930 . S
H717 C732 0.960 . S
H718 C732 0.960 . S
H719 C732 0.960 . S
C720 H712 0.929 . S
C720 C721 1.377 . S
C720 C722 1.384 . S
C721 C720 1.377 . S
C721 C727 1.390 . S
C722 H713 0.930 . S
C722 C720 1.384 . S
C722 C723 1.372 . S
C723 C722 1.372 . S
C723 C724 1.400 . S
C723 C728 1.490 . S
C724 H714 0.930 . S
C724 C723 1.400 . S
C724 C727 1.386 . S
H725 C741 0.930 . S
H726 C742 0.931 . S
C727 H715 0.929 . S
C727 C721 1.390 . S
C727 C724 1.386 . S
C728 C723 1.490 . S
C728 C730 1.395 . S
C728 C731 1.403 . S
H729 C735 0.930 . S
C730 H716 0.930 . S
C730 C728 1.395 . S
C730 C733 1.403 . S
C731 C728 1.403 . S
C731 C732 1.524 . S
C731 C735 1.400 . S
C732 H717 0.960 . S
C732 H718 0.960 . S
C732 H719 0.960 . S
C732 C731 1.524 . S
C733 C730 1.403 . S
C733 C734 1.392 . S
C733 C737 1.495 . S
C734 C733 1.392 . S
C734 C735 1.385 . S
C734 C736 1.478 . S
C735 H729 0.930 . S
C735 C731 1.400 . S
C735 C734 1.385 . S
C736 C734 1.478 . S
C736 C738 1.381 . S
C736 C742 1.383 . S
C737 C733 1.495 . S
C737 H743 0.959 . S
C737 H744 0.961 . S
C737 H745 0.960 . S
C738 C736 1.381 . S
C738 C739 1.394 . S
C738 H746 0.930 . S
C739 C738 1.394 . S
C739 C740 1.383 . S
C739 H747 0.929 . S
C740 C739 1.383 . S
C740 C741 1.377 . S
C741 H725 0.930 . S
C741 C740 1.377 . S
C741 C742 1.379 . S
C742 H726 0.931 . S
C742 C736 1.383 . S
C742 C741 1.379 . S
H743 C737 0.959 . S
H744 C737 0.961 . S
H745 C737 0.960 . S
H746 C738 0.930 . S
H747 C739 0.929 . S
H748 C756 0.929 . S
H749 C758 0.930 . S
H750 C760 0.930 . S
H751 C763 0.929 . S
H752 C766 0.930 . S
H753 C768 0.960 . S
H754 C768 0.960 . S
H755 C768 0.960 . S
C756 H748 0.929 . S
C756 C757 1.377 . S
C756 C758 1.384 . S
C757 C756 1.377 . S
C757 C763 1.390 . S
C758 H749 0.930 . S
C758 C756 1.384 . S
C758 C759 1.372 . S
C759 C758 1.372 . S
C759 C760 1.400 . S
C759 C764 1.490 . S
C760 H750 0.930 . S
C760 C759 1.400 . S
C760 C763 1.386 . S
H761 C777 0.930 . S
H762 C778 0.931 . S
C763 H751 0.929 . S
C763 C757 1.390 . S
C763 C760 1.386 . S
C764 C759 1.490 . S
C764 C766 1.395 . S
C764 C767 1.403 . S
H765 C771 0.930 . S
C766 H752 0.930 . S
C766 C764 1.395 . S
C766 C769 1.403 . S
C767 C764 1.403 . S
C767 C768 1.524 . S
C767 C771 1.400 . S
C768 H753 0.960 . S
C768 H754 0.960 . S
C768 H755 0.960 . S
C768 C767 1.524 . S
C769 C766 1.403 . S
C769 C770 1.392 . S
C769 C773 1.495 . S
C770 C769 1.392 . S
C770 C771 1.385 . S
C770 C772 1.478 . S
C771 H765 0.930 . S
C771 C767 1.400 . S
C771 C770 1.385 . S
C772 C770 1.478 . S
C772 C774 1.381 . S
C772 C778 1.383 . S
C773 C769 1.495 . S
C773 H779 0.959 . S
C773 H780 0.961 . S
C773 H781 0.960 . S
C774 C772 1.381 . S
C774 C775 1.394 . S
C774 H782 0.930 . S
C775 C774 1.394 . S
C775 C776 1.383 . S
C775 H783 0.929 . S
C776 C775 1.383 . S
C776 C777 1.377 . S
C777 H761 0.930 . S
C777 C776 1.377 . S
C777 C778 1.379 . S
C778 H762 0.931 . S
C778 C772 1.383 . S
C778 C777 1.379 . S
H779 C773 0.959 . S
H780 C773 0.961 . S
H781 C773 0.960 . S
H782 C774 0.930 . S
H783 C775 0.929 . S
H784 C792 0.929 . S
H785 C794 0.930 . S
H786 C796 0.930 . S
H787 C799 0.929 . S
H788 C802 0.930 . S
H789 C804 0.960 . S
H790 C804 0.960 . S
H791 C804 0.960 . S
C792 H784 0.929 . S
C792 C793 1.377 . S
C792 C794 1.384 . S
C793 C792 1.377 . S
C793 C799 1.390 . S
C794 H785 0.930 . S
C794 C792 1.384 . S
C794 C795 1.372 . S
C795 C794 1.372 . S
C795 C796 1.400 . S
C795 C800 1.490 . S
C796 H786 0.930 . S
C796 C795 1.400 . S
C796 C799 1.386 . S
H797 C813 0.930 . S
H798 C814 0.931 . S
C799 H787 0.929 . S
C799 C793 1.390 . S
C799 C796 1.386 . S
C800 C795 1.490 . S
C800 C802 1.395 . S
C800 C803 1.403 . S
H801 C807 0.931 1_556 S
C802 H788 0.930 . S
C802 C800 1.395 . S
C802 C805 1.403 . S
C803 C800 1.403 . S
C803 C804 1.524 . S
C803 C807 1.399 . S
C804 H789 0.960 . S
C804 H790 0.960 . S
C804 H791 0.960 . S
C804 C803 1.524 . S
C805 C802 1.403 . S
C805 C806 1.392 1_554 S
C805 C809 1.485 1_554 S
C806 C805 1.392 1_556 S
C806 C807 1.386 1_556 S
C806 C808 1.478 . S
C807 H801 0.931 1_554 S
C807 C803 1.399 . S
C807 C806 1.386 1_554 S
C808 C806 1.478 . S
C808 C810 1.381 . S
C808 C814 1.383 . S
C809 C805 1.485 1_556 S
C809 H815 0.932 1_556 S
C809 H816 0.960 . S
C809 H817 1.000 . S
C810 C808 1.381 . S
C810 C811 1.394 . S
C810 H818 0.930 . S
C811 C810 1.394 . S
C811 C812 1.383 . S
C811 H819 0.929 . S
C812 C811 1.383 . S
C812 C813 1.377 . S
C813 H797 0.930 . S
C813 C812 1.377 . S
C813 C814 1.379 . S
C814 H798 0.931 . S
C814 C808 1.383 . S
C814 C813 1.379 . S
H815 C809 0.932 1_554 S
H816 C809 0.960 . S
H817 C809 1.000 . S
H818 C810 0.930 . S
H819 C811 0.929 . S
H820 C828 0.929 . S
H821 C830 0.930 . S
H822 C832 0.930 . S
H823 C835 0.929 . S
H824 C838 0.930 . S
H825 C840 0.960 . S
H826 C840 0.960 . S
H827 C840 0.960 . S
C828 H820 0.929 . S
C828 C829 1.377 . S
C828 C830 1.384 . S
C829 C828 1.377 . S
C829 C835 1.390 . S
C830 H821 0.930 . S
C830 C828 1.384 . S
C830 C831 1.372 . S
C831 C830 1.372 . S
C831 C832 1.400 . S
C831 C836 1.490 . S
C832 H822 0.930 . S
C832 C831 1.400 . S
C832 C835 1.386 . S
H833 C849 0.930 . S
H834 C850 0.931 . S
C835 H823 0.929 . S
C835 C829 1.390 . S
C835 C832 1.386 . S
C836 C831 1.490 . S
C836 C838 1.395 . S
C836 C839 1.403 . S
H837 C843 0.930 . S
C838 H824 0.930 . S
C838 C836 1.395 . S
C838 C841 1.403 . S
C839 C836 1.403 . S
C839 C840 1.524 . S
C839 C843 1.400 . S
C840 H825 0.960 . S
C840 H826 0.960 . S
C840 H827 0.960 . S
C840 C839 1.524 . S
C841 C838 1.403 . S
C841 C842 1.392 . S
C841 C845 1.495 . S
C842 C841 1.392 . S
C842 C843 1.385 . S
C842 C844 1.478 . S
C843 H837 0.930 . S
C843 C839 1.400 . S
C843 C842 1.385 . S
C844 C842 1.478 . S
C844 C846 1.381 . S
C844 C850 1.383 . S
C845 C841 1.495 . S
C845 H851 0.959 . S
C845 H852 0.961 . S
C845 H853 0.960 . S
C846 C844 1.381 . S
C846 C847 1.394 . S
C846 H854 0.930 . S
C847 C846 1.394 . S
C847 C848 1.383 . S
C847 H855 0.929 . S
C848 C847 1.383 . S
C848 C849 1.377 . S
C849 H833 0.930 . S
C849 C848 1.377 . S
C849 C850 1.379 . S
C850 H834 0.931 . S
C850 C844 1.383 . S
C850 C849 1.379 . S
H851 C845 0.959 . S
H852 C845 0.961 . S
H853 C845 0.960 . S
H854 C846 0.930 . S
H855 C847 0.929 . S
H856 C864 0.929 . S
H857 C866 0.930 . S
H858 C868 0.930 . S
H859 C871 0.929 . S
H860 C874 0.930 . S
H861 C876 0.960 . S
H862 C876 0.960 . S
H863 C876 0.960 . S
C864 H856 0.929 . S
C864 C865 1.377 . S
C864 C866 1.384 . S
C865 C864 1.377 . S
C865 C871 1.390 . S
C866 H857 0.930 . S
C866 C864 1.384 . S
C866 C867 1.372 . S
C867 C866 1.372 . S
C867 C868 1.400 . S
C867 C872 1.490 . S
C868 H858 0.930 . S
C868 C867 1.400 . S
C868 C871 1.386 . S
H869 C885 0.930 . S
H870 C886 0.931 . S
C871 H859 0.929 . S
C871 C865 1.390 . S
C871 C868 1.386 . S
C872 C867 1.490 . S
C872 C874 1.395 . S
C872 C875 1.403 . S
H873 C879 0.930 . S
C874 H860 0.930 . S
C874 C872 1.395 . S
C874 C877 1.403 . S
C875 C872 1.403 . S
C875 C876 1.524 . S
C875 C879 1.400 . S
C876 H861 0.960 . S
C876 H862 0.960 . S
C876 H863 0.960 . S
C876 C875 1.524 . S
C877 C874 1.403 . S
C877 C878 1.392 . S
C877 C881 1.495 . S
C878 C877 1.392 . S
C878 C879 1.385 . S
C878 C880 1.478 . S
C879 H873 0.930 . S
C879 C875 1.400 . S
C879 C878 1.385 . S
C880 C878 1.478 . S
C880 C882 1.381 . S
C880 C886 1.383 . S
C881 C877 1.495 . S
C881 H887 0.959 . S
C881 H888 0.961 . S
C881 H889 0.960 . S
C882 C880 1.381 . S
C882 C883 1.394 . S
C882 H890 0.930 . S
C883 C882 1.394 . S
C883 C884 1.383 . S
C883 H891 0.929 . S
C884 C883 1.383 . S
C884 C885 1.377 . S
C885 H869 0.930 . S
C885 C884 1.377 . S
C885 C886 1.379 . S
C886 H870 0.931 . S
C886 C880 1.383 . S
C886 C885 1.379 . S
H887 C881 0.959 . S
H888 C881 0.961 . S
H889 C881 0.960 . S
H890 C882 0.930 . S
H891 C883 0.929 . S
H892 C900 0.929 . S
H893 C902 0.930 . S
H894 C904 0.930 . S
H895 C907 0.929 . S
H896 C910 0.930 . S
H897 C912 0.960 . S
H898 C912 0.960 . S
H899 C912 0.960 . S
C900 H892 0.929 . S
C900 C901 1.377 . S
C900 C902 1.384 . S
C901 C900 1.377 . S
C901 C907 1.390 . S
C902 H893 0.930 . S
C902 C900 1.384 . S
C902 C903 1.372 . S
C903 C902 1.372 . S
C903 C904 1.400 . S
C903 C908 1.490 . S
C904 H894 0.930 . S
C904 C903 1.400 . S
C904 C907 1.386 . S
H905 C921 0.930 . S
H906 C922 0.931 . S
C907 H895 0.929 . S
C907 C901 1.390 . S
C907 C904 1.386 . S
C908 C903 1.490 . S
C908 C910 1.395 . S
C908 C911 1.403 . S
H909 C915 0.930 . S
C910 H896 0.930 . S
C910 C908 1.395 . S
C910 C913 1.403 . S
C911 C908 1.403 . S
C911 C912 1.524 . S
C911 C915 1.400 . S
C912 H897 0.960 . S
C912 H898 0.960 . S
C912 H899 0.960 . S
C912 C911 1.524 . S
C913 C910 1.403 . S
C913 C914 1.392 . S
C913 C917 1.495 . S
C914 C913 1.392 . S
C914 C915 1.385 . S
C914 C916 1.478 . S
C915 H909 0.930 . S
C915 C911 1.400 . S
C915 C914 1.385 . S
C916 C914 1.478 . S
C916 C918 1.381 . S
C916 C922 1.383 . S
C917 C913 1.495 . S
C917 H923 0.959 . S
C917 H924 0.961 . S
C917 H925 0.960 . S
C918 C916 1.381 . S
C918 C919 1.394 . S
C918 H926 0.930 . S
C919 C918 1.394 . S
C919 C920 1.383 . S
C919 H927 0.929 . S
C920 C919 1.383 . S
C920 C921 1.377 . S
C921 H905 0.930 . S
C921 C920 1.377 . S
C921 C922 1.379 . S
C922 H906 0.931 . S
C922 C916 1.383 . S
C922 C921 1.379 . S
H923 C917 0.959 . S
H924 C917 0.961 . S
H925 C917 0.960 . S
H926 C918 0.930 . S
H927 C919 0.929 . S
H928 C936 0.929 . S
H929 C938 0.930 . S
H930 C940 0.930 . S
H931 C943 0.929 . S
H932 C946 0.930 . S
H933 C948 0.960 . S
H934 C948 0.960 . S
H935 C948 0.960 . S
C936 H928 0.929 . S
C936 C937 1.377 . S
C936 C938 1.384 . S
C937 C936 1.377 . S
C937 C943 1.390 . S
C938 H929 0.930 . S
C938 C936 1.384 . S
C938 C939 1.372 . S
C939 C938 1.372 . S
C939 C940 1.400 . S
C939 C944 1.490 . S
C940 H930 0.930 . S
C940 C939 1.400 . S
C940 C943 1.386 . S
H941 C957 0.930 . S
H942 C958 0.931 . S
C943 H931 0.929 . S
C943 C937 1.390 . S
C943 C940 1.386 . S
C944 C939 1.490 . S
C944 C946 1.395 . S
C944 C947 1.403 . S
H945 C951 0.930 . S
C946 H932 0.930 . S
C946 C944 1.395 . S
C946 C949 1.403 . S
C947 C944 1.403 . S
C947 C948 1.524 . S
C947 C951 1.400 . S
C948 H933 0.960 . S
C948 H934 0.960 . S
C948 H935 0.960 . S
C948 C947 1.524 . S
C949 C946 1.403 . S
C949 C950 1.392 . S
C949 C953 1.495 . S
C950 C949 1.392 . S
C950 C951 1.385 . S
C950 C952 1.478 . S
C951 H945 0.930 . S
C951 C947 1.400 . S
C951 C950 1.385 . S
C952 C950 1.478 . S
C952 C954 1.381 . S
C952 C958 1.383 . S
C953 C949 1.495 . S
C953 H959 0.959 . S
C953 H960 0.961 . S
C953 H961 0.960 . S
C954 C952 1.381 . S
C954 C955 1.394 . S
C954 H962 0.930 . S
C955 C954 1.394 . S
C955 C956 1.383 . S
C955 H963 0.929 . S
C956 C955 1.383 . S
C956 C957 1.377 . S
C957 H941 0.930 . S
C957 C956 1.377 . S
C957 C958 1.379 . S
C958 H942 0.931 . S
C958 C952 1.383 . S
C958 C957 1.379 . S
H959 C953 0.959 . S
H960 C953 0.961 . S
H961 C953 0.960 . S
H962 C954 0.930 . S
H963 C955 0.929 . S
H964 C972 0.929 . S
H965 C974 0.930 . S
H966 C976 0.930 . S
H967 C979 0.929 . S
H968 C982 0.930 1_545 S
H969 C984 0.960 . S
H970 C984 0.960 . S
H971 C984 0.960 . S
C972 H964 0.929 . S
C972 C973 1.377 . S
C972 C974 1.384 . S
C973 C972 1.377 . S
C973 C979 1.390 . S
C974 H965 0.930 . S
C974 C972 1.384 . S
C974 C975 1.372 1_545 S
C975 C974 1.372 1_565 S
C975 C976 1.400 . S
C975 C980 1.490 . S
C976 H966 0.930 . S
C976 C975 1.400 . S
C976 C979 1.386 1_565 S
H977 C993 0.930 . S
H978 C994 0.931 . S
C979 H967 0.929 . S
C979 C973 1.390 . S
C979 C976 1.386 1_545 S
C980 C975 1.490 . S
C980 C982 1.395 . S
C980 C983 1.403 . S
H981 C987 0.930 . S
C982 H968 0.930 1_565 S
C982 C980 1.395 . S
C982 C985 1.403 . S
C983 C980 1.403 . S
C983 C984 1.524 . S
C983 C987 1.400 . S
C984 H969 0.960 . S
C984 H970 0.960 . S
C984 H971 0.960 . S
C984 C983 1.524 . S
C985 C982 1.403 . S
C985 C986 1.392 . S
C985 C989 1.495 . S
C986 C985 1.392 . S
C986 C987 1.385 . S
C986 C988 1.478 . S
C987 H981 0.930 . S
C987 C983 1.400 . S
C987 C986 1.385 . S
C988 C986 1.478 . S
C988 C990 1.381 . S
C988 C994 1.383 . S
C989 C985 1.495 . S
C989 H995 0.959 1_565 S
C989 H996 0.961 . S
C989 H997 0.960 . S
C990 C988 1.381 . S
C990 C991 1.394 . S
C990 H998 0.930 . S
C991 C990 1.394 . S
C991 C992 1.383 . S
C991 H999 0.929 . S
C992 C991 1.383 . S
C992 C993 1.377 . S
C993 H977 0.930 . S
C993 C992 1.377 . S
C993 C994 1.379 . S
C994 H978 0.931 . S
C994 C988 1.383 . S
C994 C993 1.379 . S
H995 C989 0.959 1_545 S
H996 C989 0.961 . S
H997 C989 0.960 . S
H998 C990 0.930 . S
H999 C991 0.929 . S
H1000 C1008 0.929 . S
H1001 C1010 0.930 . S
H1002 C1012 0.930 . S
H1003 C1015 0.929 . S
H1004 C1018 0.930 . S
H1005 C1020 0.960 . S
H1006 C1020 0.960 . S
H1007 C1020 0.960 . S
C1008 H1000 0.929 . S
C1008 C1009 1.377 . S
C1008 C1010 1.384 . S
C1009 C1008 1.377 . S
C1009 C1015 1.390 . S
C1010 H1001 0.930 . S
C1010 C1008 1.384 . S
C1010 C1011 1.372 . S
C1011 C1010 1.372 . S
C1011 C1012 1.400 . S
C1011 C1016 1.490 . S
C1012 H1002 0.930 . S
C1012 C1011 1.400 . S
C1012 C1015 1.386 . S
H1013 C1029 0.930 . S
H1014 C1030 0.931 . S
C1015 H1003 0.929 . S
C1015 C1009 1.390 . S
C1015 C1012 1.386 . S
C1016 C1011 1.490 . S
C1016 C1018 1.395 1_554 S
C1016 C1019 1.403 . S
H1017 C1023 0.930 . S
C1018 H1004 0.930 . S
C1018 C1016 1.395 1_556 S
C1018 C1021 1.403 . S
C1019 C1016 1.403 . S
C1019 C1020 1.524 . S
C1019 C1023 1.400 1_554 S
C1020 H1005 0.960 . S
C1020 H1006 0.960 . S
C1020 H1007 0.960 . S
C1020 C1019 1.524 . S
C1021 C1018 1.403 . S
C1021 C1022 1.392 . S
C1021 C1025 1.495 . S
C1022 C1021 1.392 . S
C1022 C1023 1.385 . S
C1022 C1024 1.478 . S
C1023 H1017 0.930 . S
C1023 C1019 1.400 1_556 S
C1023 C1022 1.385 . S
C1024 C1022 1.478 . S
C1024 C1026 1.381 . S
C1024 C1030 1.383 . S
C1025 C1021 1.495 . S
C1025 H1031 0.959 . S
C1025 H1032 0.961 . S
C1025 H1033 0.960 . S
C1026 C1024 1.381 . S
C1026 C1027 1.394 . S
C1026 H1034 0.930 . S
C1027 C1026 1.394 . S
C1027 C1028 1.383 . S
C1027 H1035 0.929 . S
C1028 C1027 1.383 . S
C1028 C1029 1.377 . S
C1029 H1013 0.930 . S
C1029 C1028 1.377 . S
C1029 C1030 1.379 . S
C1030 H1014 0.931 . S
C1030 C1024 1.383 . S
C1030 C1029 1.379 . S
H1031 C1025 0.959 . S
H1032 C1025 0.961 . S
H1033 C1025 0.960 . S
H1034 C1026 0.930 . S
H1035 C1027 0.929 . S
H1036 C1044 0.929 . S
H1037 C1046 0.930 . S
H1038 C1048 0.930 . S
H1039 C1051 0.929 . S
H1040 C1054 0.930 . S
H1041 C1056 0.960 . S
H1042 C1056 0.960 . S
H1043 C1056 0.960 . S
C1044 H1036 0.929 . S
C1044 C1045 1.377 . S
C1044 C1046 1.384 . S
C1045 C1044 1.377 . S
C1045 C1051 1.390 . S
C1046 H1037 0.930 . S
C1046 C1044 1.384 . S
C1046 C1047 1.372 . S
C1047 C1046 1.372 . S
C1047 C1048 1.400 . S
C1047 C1052 1.490 . S
C1048 H1038 0.930 . S
C1048 C1047 1.400 . S
C1048 C1051 1.386 . S
H1049 C1065 0.930 . S
H1050 C1066 0.931 . S
C1051 H1039 0.929 . S
C1051 C1045 1.390 . S
C1051 C1048 1.386 . S
C1052 C1047 1.490 . S
C1052 C1054 1.395 . S
C1052 C1055 1.403 . S
H1053 C1059 0.930 . S
C1054 H1040 0.930 . S
C1054 C1052 1.395 . S
C1054 C1057 1.403 . S
C1055 C1052 1.403 . S
C1055 C1056 1.524 . S
C1055 C1059 1.400 . S
C1056 H1041 0.960 . S
C1056 H1042 0.960 . S
C1056 H1043 0.960 . S
C1056 C1055 1.524 . S
C1057 C1054 1.403 . S
C1057 C1058 1.392 . S
C1057 C1061 1.495 . S
C1058 C1057 1.392 . S
C1058 C1059 1.385 . S
C1058 C1060 1.478 . S
C1059 H1053 0.930 . S
C1059 C1055 1.400 . S
C1059 C1058 1.385 . S
C1060 C1058 1.478 . S
C1060 C1062 1.381 1_545 S
C1060 C1066 1.383 . S
C1061 C1057 1.495 . S
C1061 H1067 0.959 . S
C1061 H1068 0.961 . S
C1061 H1069 0.960 1_545 S
C1062 C1060 1.381 1_565 S
C1062 C1063 1.394 . S
C1062 H1070 0.930 . S
C1063 C1062 1.394 . S
C1063 C1064 1.383 . S
C1063 H1071 0.929 . S
C1064 C1063 1.383 . S
C1064 C1065 1.377 1_565 S
C1065 H1049 0.930 . S
C1065 C1064 1.377 1_545 S
C1065 C1066 1.379 . S
C1066 H1050 0.931 . S
C1066 C1060 1.383 . S
C1066 C1065 1.379 . S
H1067 C1061 0.959 . S
H1068 C1061 0.961 . S
H1069 C1061 0.960 1_565 S
H1070 C1062 0.930 . S
H1071 C1063 0.929 . S
H1072 C1080 0.929 . S
H1073 C1082 0.930 . S
H1074 C1084 0.930 . S
H1075 C1087 0.929 . S
H1076 C1090 0.930 . S
H1077 C1092 0.960 . S
H1078 C1092 0.960 . S
H1079 C1092 0.960 . S
C1080 H1072 0.929 . S
C1080 C1081 1.377 . S
C1080 C1082 1.384 . S
C1081 C1080 1.377 . S
C1081 C1087 1.390 . S
C1082 H1073 0.930 . S
C1082 C1080 1.384 . S
C1082 C1083 1.372 . S
C1083 C1082 1.372 . S
C1083 C1084 1.400 . S
C1083 C1088 1.490 . S
C1084 H1074 0.930 . S
C1084 C1083 1.400 . S
C1084 C1087 1.386 . S
H1085 C1101 0.930 . S
H1086 C1102 0.931 . S
C1087 H1075 0.929 . S
C1087 C1081 1.390 . S
C1087 C1084 1.386 . S
C1088 C1083 1.490 . S
C1088 C1090 1.395 . S
C1088 C1091 1.403 . S
H1089 C1095 0.930 . S
C1090 H1076 0.930 . S
C1090 C1088 1.395 . S
C1090 C1093 1.403 . S
C1091 C1088 1.403 . S
C1091 C1092 1.524 . S
C1091 C1095 1.400 . S
C1092 H1077 0.960 . S
C1092 H1078 0.960 . S
C1092 H1079 0.960 . S
C1092 C1091 1.524 . S
C1093 C1090 1.403 . S
C1093 C1094 1.392 . S
C1093 C1097 1.495 . S
C1094 C1093 1.392 . S
C1094 C1095 1.385 . S
C1094 C1096 1.478 . S
C1095 H1089 0.930 . S
C1095 C1091 1.400 . S
C1095 C1094 1.385 . S
C1096 C1094 1.478 . S
C1096 C1098 1.381 . S
C1096 C1102 1.383 . S
C1097 C1093 1.495 . S
C1097 H1103 0.959 . S
C1097 H1104 0.961 . S
C1097 H1105 0.960 . S
C1098 C1096 1.381 . S
C1098 C1099 1.394 . S
C1098 H1106 0.930 . S
C1099 C1098 1.394 . S
C1099 C1100 1.383 . S
C1099 H1107 0.929 . S
C1100 C1099 1.383 . S
C1100 C1101 1.377 . S
C1101 H1085 0.930 . S
C1101 C1100 1.377 . S
C1101 C1102 1.379 . S
C1102 H1086 0.931 . S
C1102 C1096 1.383 . S
C1102 C1101 1.379 . S
H1103 C1097 0.959 . S
H1104 C1097 0.961 . S
H1105 C1097 0.960 . S
H1106 C1098 0.930 . S
H1107 C1099 0.929 . S
H1108 C1116 0.929 . S
H1109 C1118 0.930 . S
H1110 C1120 0.930 . S
H1111 C1123 0.929 . S
H1112 C1126 0.930 . S
H1113 C1128 0.960 . S
H1114 C1128 0.960 . S
H1115 C1128 0.960 . S
C1116 H1108 0.929 . S
C1116 C1117 1.377 . S
C1116 C1118 1.384 . S
C1117 C1116 1.377 . S
C1117 C1123 1.390 1_565 S
C1118 H1109 0.930 . S
C1118 C1116 1.384 . S
C1118 C1119 1.372 1_565 S
C1119 C1118 1.372 1_545 S
C1119 C1120 1.400 . S
C1119 C1124 1.490 . S
C1120 H1110 0.930 . S
C1120 C1119 1.400 . S
C1120 C1123 1.386 . S
H1121 C1137 0.930 . S
H1122 C1138 0.931 . S
C1123 H1111 0.929 . S
C1123 C1117 1.390 1_545 S
C1123 C1120 1.386 . S
C1124 C1119 1.490 . S
C1124 C1126 1.395 . S
C1124 C1127 1.403 . S
H1125 C1131 0.930 . S
C1126 H1112 0.930 . S
C1126 C1124 1.395 . S
C1126 C1129 1.403 . S
C1127 C1124 1.403 . S
C1127 C1128 1.524 . S
C1127 C1131 1.400 . S
C1128 H1113 0.960 . S
C1128 H1114 0.960 . S
C1128 H1115 0.960 . S
C1128 C1127 1.524 . S
C1129 C1126 1.403 . S
C1129 C1130 1.392 . S
C1129 C1133 1.495 . S
C1130 C1129 1.392 . S
C1130 C1131 1.385 . S
C1130 C1132 1.478 . S
C1131 H1125 0.930 . S
C1131 C1127 1.400 . S
C1131 C1130 1.385 . S
C1132 C1130 1.478 . S
C1132 C1134 1.381 . S
C1132 C1138 1.383 . S
C1133 C1129 1.495 . S
C1133 H1139 0.959 . S
C1133 H1140 0.961 . S
C1133 H1141 0.960 . S
C1134 C1132 1.381 . S
C1134 C1135 1.394 . S
C1134 H1142 0.930 . S
C1135 C1134 1.394 . S
C1135 C1136 1.383 . S
C1135 H1143 0.929 . S
C1136 C1135 1.383 . S
C1136 C1137 1.377 . S
C1137 H1121 0.930 . S
C1137 C1136 1.377 . S
C1137 C1138 1.379 . S
C1138 H1122 0.931 . S
C1138 C1132 1.383 . S
C1138 C1137 1.379 . S
H1139 C1133 0.959 . S
H1140 C1133 0.961 . S
H1141 C1133 0.960 . S
H1142 C1134 0.930 . S
H1143 C1135 0.929 . S
H1144 C1152 0.929 . S
H1145 C1154 0.930 . S
H1146 C1156 0.930 . S
H1147 C1159 0.929 . S
H1148 C1162 0.930 . S
H1149 C1164 0.960 . S
H1150 C1164 0.960 . S
H1151 C1164 0.960 . S
C1152 H1144 0.929 . S
C1152 C1153 1.377 . S
C1152 C1154 1.384 . S
C1153 C1152 1.377 . S
C1153 C1159 1.390 . S
C1154 H1145 0.930 . S
C1154 C1152 1.384 . S
C1154 C1155 1.372 . S
C1155 C1154 1.372 . S
C1155 C1156 1.400 . S
C1155 C1160 1.490 . S
C1156 H1146 0.930 . S
C1156 C1155 1.400 . S
C1156 C1159 1.386 . S
H1157 C1173 0.930 . S
H1158 C1174 0.931 . S
C1159 H1147 0.929 . S
C1159 C1153 1.390 . S
C1159 C1156 1.386 . S
C1160 C1155 1.490 . S
C1160 C1162 1.395 . S
C1160 C1163 1.403 . S
H1161 C1167 0.930 . S
C1162 H1148 0.930 . S
C1162 C1160 1.395 . S
C1162 C1165 1.403 1_554 S
C1163 C1160 1.403 . S
C1163 C1164 1.524 . S
C1163 C1167 1.400 . S
C1164 H1149 0.960 . S
C1164 H1150 0.960 . S
C1164 H1151 0.960 . S
C1164 C1163 1.524 . S
C1165 C1162 1.403 1_556 S
C1165 C1166 1.392 . S
C1165 C1169 1.495 . S
C1166 C1165 1.392 . S
C1166 C1167 1.385 1_556 S
C1166 C1168 1.478 . S
C1167 H1161 0.930 . S
C1167 C1163 1.400 . S
C1167 C1166 1.385 1_554 S
C1168 C1166 1.478 . S
C1168 C1170 1.381 . S
C1168 C1174 1.383 . S
C1169 C1165 1.495 . S
C1169 H1175 0.959 . S
C1169 H1176 0.961 . S
C1169 H1177 0.960 . S
C1170 C1168 1.381 . S
C1170 C1171 1.394 . S
C1170 H1178 0.930 . S
C1171 C1170 1.394 . S
C1171 C1172 1.383 . S
C1171 H1179 0.929 . S
C1172 C1171 1.383 . S
C1172 C1173 1.377 . S
C1173 H1157 0.930 . S
C1173 C1172 1.377 . S
C1173 C1174 1.379 . S
C1174 H1158 0.931 . S
C1174 C1168 1.383 . S
C1174 C1173 1.379 . S
H1175 C1169 0.959 . S
H1176 C1169 0.961 . S
H1177 C1169 0.960 . S
H1178 C1170 0.930 . S
H1179 C1171 0.929 . S
H1180 C1188 0.929 . S
H1181 C1190 0.930 . S
H1182 C1192 0.930 . S
H1183 C1195 0.929 . S
H1184 C1198 0.930 . S
H1185 C1200 0.960 . S
H1186 C1200 0.960 . S
H1187 C1200 0.960 . S
C1188 H1180 0.929 . S
C1188 C1189 1.377 . S
C1188 C1190 1.384 1_545 S
C1189 C1188 1.377 . S
C1189 C1195 1.390 . S
C1190 H1181 0.930 . S
C1190 C1188 1.384 1_565 S
C1190 C1191 1.372 . S
C1191 C1190 1.372 . S
C1191 C1192 1.400 1_565 S
C1191 C1196 1.490 . S
C1192 H1182 0.930 . S
C1192 C1191 1.400 1_545 S
C1192 C1195 1.386 . S
H1193 C1209 0.930 . S
H1194 C1210 0.931 . S
C1195 H1183 0.929 . S
C1195 C1189 1.390 . S
C1195 C1192 1.386 . S
C1196 C1191 1.490 . S
C1196 C1198 1.395 . S
C1196 C1199 1.403 . S
H1197 C1203 0.930 . S
C1198 H1184 0.930 . S
C1198 C1196 1.395 . S
C1198 C1201 1.403 . S
C1199 C1196 1.403 . S
C1199 C1200 1.524 1_565 S
C1199 C1203 1.400 . S
C1200 H1185 0.960 . S
C1200 H1186 0.960 . S
C1200 H1187 0.960 . S
C1200 C1199 1.524 1_545 S
C1201 C1198 1.403 . S
C1201 C1202 1.392 . S
C1201 C1205 1.495 . S
C1202 C1201 1.392 . S
C1202 C1203 1.385 . S
C1202 C1204 1.478 . S
C1203 H1197 0.930 . S
C1203 C1199 1.400 . S
C1203 C1202 1.385 . S
C1204 C1202 1.478 . S
C1204 C1206 1.381 . S
C1204 C1210 1.383 . S
C1205 C1201 1.495 . S
C1205 H1211 0.959 . S
C1205 H1212 0.961 . S
C1205 H1213 0.960 . S
C1206 C1204 1.381 . S
C1206 C1207 1.394 . S
C1206 H1214 0.930 . S
C1207 C1206 1.394 . S
C1207 C1208 1.383 . S
C1207 H1215 0.929 . S
C1208 C1207 1.383 . S
C1208 C1209 1.377 . S
C1209 H1193 0.930 . S
C1209 C1208 1.377 . S
C1209 C1210 1.379 . S
C1210 H1194 0.931 . S
C1210 C1204 1.383 . S
C1210 C1209 1.379 . S
H1211 C1205 0.959 . S
H1212 C1205 0.961 . S
H1213 C1205 0.960 . S
H1214 C1206 0.930 . S
H1215 C1207 0.929 . S
H1216 C1224 0.929 . S
H1217 C1226 0.930 . S
H1218 C1228 0.930 . S
H1219 C1231 0.929 . S
H1220 C1234 0.930 . S
H1221 C1236 0.960 . S
H1222 C1236 0.960 . S
H1223 C1236 0.960 . S
C1224 H1216 0.929 . S
C1224 C1225 1.377 . S
C1224 C1226 1.384 . S
C1225 C1224 1.377 . S
C1225 C1231 1.390 . S
C1226 H1217 0.930 . S
C1226 C1224 1.384 . S
C1226 C1227 1.372 . S
C1227 C1226 1.372 . S
C1227 C1228 1.400 . S
C1227 C1232 1.490 . S
C1228 H1218 0.930 . S
C1228 C1227 1.400 . S
C1228 C1231 1.386 . S
H1229 C1245 0.930 . S
H1230 C1246 0.931 . S
C1231 H1219 0.929 . S
C1231 C1225 1.390 . S
C1231 C1228 1.386 . S
C1232 C1227 1.490 . S
C1232 C1234 1.395 . S
C1232 C1235 1.403 . S
H1233 C1239 0.930 . S
C1234 H1220 0.930 . S
C1234 C1232 1.395 . S
C1234 C1237 1.403 . S
C1235 C1232 1.403 . S
C1235 C1236 1.524 . S
C1235 C1239 1.400 . S
C1236 H1221 0.960 . S
C1236 H1222 0.960 . S
C1236 H1223 0.960 . S
C1236 C1235 1.524 . S
C1237 C1234 1.403 . S
C1237 C1238 1.392 . S
C1237 C1241 1.495 . S
C1238 C1237 1.392 . S
C1238 C1239 1.385 . S
C1238 C1240 1.478 . S
C1239 H1233 0.930 . S
C1239 C1235 1.400 . S
C1239 C1238 1.385 . S
C1240 C1238 1.478 . S
C1240 C1242 1.381 . S
C1240 C1246 1.383 . S
C1241 C1237 1.495 . S
C1241 H1247 0.959 . S
C1241 H1248 0.961 . S
C1241 H1249 0.960 . S
C1242 C1240 1.381 . S
C1242 C1243 1.394 . S
C1242 H1250 0.930 . S
C1243 C1242 1.394 . S
C1243 C1244 1.383 . S
C1243 H1251 0.929 . S
C1244 C1243 1.383 . S
C1244 C1245 1.377 . S
C1245 H1229 0.930 . S
C1245 C1244 1.377 . S
C1245 C1246 1.379 . S
C1246 H1230 0.931 . S
C1246 C1240 1.383 . S
C1246 C1245 1.379 . S
H1247 C1241 0.959 . S
H1248 C1241 0.961 . S
H1249 C1241 0.960 . S
H1250 C1242 0.930 . S
H1251 C1243 0.929 . S
H1252 C1260 0.929 . S
H1253 C1262 0.930 . S
H1254 C1264 0.930 . S
H1255 C1267 0.929 . S
H1256 C1270 0.930 . S
H1257 C1272 0.960 . S
H1258 C1272 0.960 . S
H1259 C1272 0.960 . S
C1260 H1252 0.929 . S
C1260 C1261 1.377 . S
C1260 C1262 1.384 . S
C1261 C1260 1.377 . S
C1261 C1267 1.390 . S
C1262 H1253 0.930 . S
C1262 C1260 1.384 . S
C1262 C1263 1.372 . S
C1263 C1262 1.372 . S
C1263 C1264 1.400 . S
C1263 C1268 1.490 . S
C1264 H1254 0.930 . S
C1264 C1263 1.400 . S
C1264 C1267 1.386 . S
H1265 C1281 0.930 . S
H1266 C1282 0.931 . S
C1267 H1255 0.929 . S
C1267 C1261 1.390 . S
C1267 C1264 1.386 . S
C1268 C1263 1.490 . S
C1268 C1270 1.395 . S
C1268 C1271 1.403 . S
H1269 C1275 0.930 . S
C1270 H1256 0.930 . S
C1270 C1268 1.395 . S
C1270 C1273 1.403 . S
C1271 C1268 1.403 . S
C1271 C1272 1.524 . S
C1271 C1275 1.400 . S
C1272 H1257 0.960 . S
C1272 H1258 0.960 . S
C1272 H1259 0.960 . S
C1272 C1271 1.524 . S
C1273 C1270 1.403 . S
C1273 C1274 1.392 . S
C1273 C1277 1.495 . S
C1274 C1273 1.392 . S
C1274 C1275 1.385 . S
C1274 C1276 1.478 . S
C1275 H1269 0.930 . S
C1275 C1271 1.400 . S
C1275 C1274 1.385 . S
C1276 C1274 1.478 . S
C1276 C1278 1.381 . S
C1276 C1282 1.383 . S
C1277 C1273 1.495 . S
C1277 H1283 0.959 . S
C1277 H1284 0.961 . S
C1277 H1285 0.960 . S
C1278 C1276 1.381 . S
C1278 C1279 1.394 . S
C1278 H1286 0.930 . S
C1279 C1278 1.394 . S
C1279 C1280 1.383 . S
C1279 H1287 0.929 . S
C1280 C1279 1.383 . S
C1280 C1281 1.377 . S
C1281 H1265 0.930 . S
C1281 C1280 1.377 . S
C1281 C1282 1.379 . S
C1282 H1266 0.931 . S
C1282 C1276 1.383 . S
C1282 C1281 1.379 . S
H1283 C1277 0.959 . S
H1284 C1277 0.961 . S
H1285 C1277 0.960 . S
H1286 C1278 0.930 . S
H1287 C1279 0.929 . S
H1288 C1296 0.929 . S
H1289 C1298 0.930 . S
H1290 C1300 0.930 . S
H1291 C1303 0.929 . S
H1292 C1306 0.930 . S
H1293 C1308 0.960 . S
H1294 C1308 0.960 . S
H1295 C1308 0.960 . S
C1296 H1288 0.929 . S
C1296 C1297 1.377 . S
C1296 C1298 1.384 . S
C1297 C1296 1.377 . S
C1297 C1303 1.390 . S
C1298 H1289 0.930 . S
C1298 C1296 1.384 . S
C1298 C1299 1.372 . S
C1299 C1298 1.372 . S
C1299 C1300 1.400 . S
C1299 C1304 1.490 . S
C1300 H1290 0.930 . S
C1300 C1299 1.400 . S
C1300 C1303 1.386 . S
H1301 C1317 0.930 . S
H1302 C1318 0.931 . S
C1303 H1291 0.929 . S
C1303 C1297 1.390 . S
C1303 C1300 1.386 . S
C1304 C1299 1.490 . S
C1304 C1306 1.395 . S
C1304 C1307 1.403 . S
H1305 C1311 0.930 . S
C1306 H1292 0.930 . S
C1306 C1304 1.395 . S
C1306 C1309 1.403 1_655 S
C1307 C1304 1.403 . S
C1307 C1308 1.524 . S
C1307 C1311 1.400 1_655 S
C1308 H1293 0.960 . S
C1308 H1294 0.960 . S
C1308 H1295 0.960 . S
C1308 C1307 1.524 . S
C1309 C1306 1.403 1_455 S
C1309 C1310 1.392 . S
C1309 C1313 1.495 . S
C1310 C1309 1.392 . S
C1310 C1311 1.385 . S
C1310 C1312 1.478 . S
C1311 H1305 0.930 . S
C1311 C1307 1.400 1_455 S
C1311 C1310 1.385 . S
C1312 C1310 1.478 . S
C1312 C1314 1.381 . S
C1312 C1318 1.383 . S
C1313 C1309 1.495 . S
C1313 H1319 0.959 . S
C1313 H1320 0.961 . S
C1313 H1321 0.960 . S
C1314 C1312 1.381 . S
C1314 C1315 1.394 . S
C1314 H1322 0.930 . S
C1315 C1314 1.394 . S
C1315 C1316 1.383 . S
C1315 H1323 0.929 . S
C1316 C1315 1.383 . S
C1316 C1317 1.377 . S
C1317 H1301 0.930 . S
C1317 C1316 1.377 . S
C1317 C1318 1.379 . S
C1318 H1302 0.931 . S
C1318 C1312 1.383 . S
C1318 C1317 1.379 . S
H1319 C1313 0.959 . S
H1320 C1313 0.961 . S
H1321 C1313 0.960 . S
H1322 C1314 0.930 . S
H1323 C1315 0.929 . S
H1324 C1332 0.929 . S
H1325 C1334 0.930 . S
H1326 C1336 0.930 . S
H1327 C1339 0.929 . S
H1328 C1342 0.930 . S
H1329 C1344 0.960 . S
H1330 C1344 0.960 . S
H1331 C1344 0.960 . S
C1332 H1324 0.929 . S
C1332 C1333 1.377 . S
C1332 C1334 1.384 . S
C1333 C1332 1.377 . S
C1333 C1339 1.390 . S
C1334 H1325 0.930 . S
C1334 C1332 1.384 . S
C1334 C1335 1.372 . S
C1335 C1334 1.372 . S
C1335 C1336 1.400 . S
C1335 C1340 1.490 . S
C1336 H1326 0.930 . S
C1336 C1335 1.400 . S
C1336 C1339 1.386 . S
H1337 C1353 0.930 . S
H1338 C1354 0.931 . S
C1339 H1327 0.929 . S
C1339 C1333 1.390 . S
C1339 C1336 1.386 . S
C1340 C1335 1.490 . S
C1340 C1342 1.395 . S
C1340 C1343 1.403 . S
H1341 C1347 0.930 . S
C1342 H1328 0.930 . S
C1342 C1340 1.395 . S
C1342 C1345 1.403 1_655 S
C1343 C1340 1.403 . S
C1343 C1344 1.524 . S
C1343 C1347 1.400 1_655 S
C1344 H1329 0.960 . S
C1344 H1330 0.960 . S
C1344 H1331 0.960 . S
C1344 C1343 1.524 . S
C1345 C1342 1.403 1_455 S
C1345 C1346 1.392 . S
C1345 C1349 1.495 . S
C1346 C1345 1.392 . S
C1346 C1347 1.385 . S
C1346 C1348 1.478 . S
C1347 H1341 0.930 . S
C1347 C1343 1.400 1_455 S
C1347 C1346 1.385 . S
C1348 C1346 1.478 . S
C1348 C1350 1.381 . S
C1348 C1354 1.383 . S
C1349 C1345 1.495 . S
C1349 H1355 0.959 . S
C1349 H1356 0.961 . S
C1349 H1357 0.960 . S
C1350 C1348 1.381 . S
C1350 C1351 1.394 . S
C1350 H1358 0.930 . S
C1351 C1350 1.394 . S
C1351 C1352 1.383 . S
C1351 H1359 0.929 . S
C1352 C1351 1.383 . S
C1352 C1353 1.377 . S
C1353 H1337 0.930 . S
C1353 C1352 1.377 . S
C1353 C1354 1.379 . S
C1354 H1338 0.931 . S
C1354 C1348 1.383 . S
C1354 C1353 1.379 . S
H1355 C1349 0.959 . S
H1356 C1349 0.961 . S
H1357 C1349 0.960 . S
H1358 C1350 0.930 . S
H1359 C1351 0.929 . S
H1360 C1368 0.929 . S
H1361 C1370 0.930 . S
H1362 C1372 0.930 . S
H1363 C1375 0.929 . S
H1364 C1378 0.930 . S
H1365 C1380 0.960 . S
H1366 C1380 0.960 . S
H1367 C1380 0.960 . S
C1368 H1360 0.929 . S
C1368 C1369 1.377 . S
C1368 C1370 1.384 . S
C1369 C1368 1.377 . S
C1369 C1375 1.390 . S
C1370 H1361 0.930 . S
C1370 C1368 1.384 . S
C1370 C1371 1.372 . S
C1371 C1370 1.372 . S
C1371 C1372 1.400 . S
C1371 C1376 1.490 . S
C1372 H1362 0.930 . S
C1372 C1371 1.400 . S
C1372 C1375 1.386 . S
H1373 C1389 0.930 . S
H1374 C1390 0.931 . S
C1375 H1363 0.929 . S
C1375 C1369 1.390 . S
C1375 C1372 1.386 . S
C1376 C1371 1.490 . S
C1376 C1378 1.395 . S
C1376 C1379 1.403 . S
H1377 C1383 0.930 . S
C1378 H1364 0.930 . S
C1378 C1376 1.395 . S
C1378 C1381 1.403 . S
C1379 C1376 1.403 . S
C1379 C1380 1.524 . S
C1379 C1383 1.400 . S
C1380 H1365 0.960 . S
C1380 H1366 0.960 . S
C1380 H1367 0.960 . S
C1380 C1379 1.524 . S
C1381 C1378 1.403 . S
C1381 C1382 1.392 . S
C1381 C1385 1.495 . S
C1382 C1381 1.392 . S
C1382 C1383 1.385 . S
C1382 C1384 1.478 . S
C1383 H1377 0.930 . S
C1383 C1379 1.400 . S
C1383 C1382 1.385 . S
C1384 C1382 1.478 . S
C1384 C1386 1.381 . S
C1384 C1390 1.383 . S
C1385 C1381 1.495 . S
C1385 H1391 0.959 . S
C1385 H1392 0.961 . S
C1385 H1393 0.960 . S
C1386 C1384 1.381 . S
C1386 C1387 1.394 . S
C1386 H1394 0.930 . S
C1387 C1386 1.394 . S
C1387 C1388 1.383 . S
C1387 H1395 0.929 . S
C1388 C1387 1.383 . S
C1388 C1389 1.377 . S
C1389 H1373 0.930 . S
C1389 C1388 1.377 . S
C1389 C1390 1.379 . S
C1390 H1374 0.931 . S
C1390 C1384 1.383 . S
C1390 C1389 1.379 . S
H1391 C1385 0.959 . S
H1392 C1385 0.961 . S
H1393 C1385 0.960 . S
H1394 C1386 0.930 . S
H1395 C1387 0.929 . S
H1396 C1404 0.929 . S
H1397 C1406 0.930 . S
H1398 C1408 0.930 . S
H1399 C1411 0.929 . S
H1400 C1414 0.930 . S
H1401 C1416 0.960 . S
H1402 C1416 0.960 . S
H1403 C1416 0.960 . S
C1404 H1396 0.929 . S
C1404 C1405 1.377 . S
C1404 C1406 1.384 . S
C1405 C1404 1.377 . S
C1405 C1411 1.390 . S
C1406 H1397 0.930 . S
C1406 C1404 1.384 . S
C1406 C1407 1.372 . S
C1407 C1406 1.372 . S
C1407 C1408 1.400 . S
C1407 C1412 1.490 . S
C1408 H1398 0.930 . S
C1408 C1407 1.400 . S
C1408 C1411 1.386 . S
H1409 C1425 0.930 . S
H1410 C1426 0.931 . S
C1411 H1399 0.929 . S
C1411 C1405 1.390 . S
C1411 C1408 1.386 . S
C1412 C1407 1.490 . S
C1412 C1414 1.395 . S
C1412 C1415 1.403 . S
H1413 C1419 0.930 . S
C1414 H1400 0.930 . S
C1414 C1412 1.395 . S
C1414 C1417 1.403 . S
C1415 C1412 1.403 . S
C1415 C1416 1.524 . S
C1415 C1419 1.400 . S
C1416 H1401 0.960 . S
C1416 H1402 0.960 . S
C1416 H1403 0.960 . S
C1416 C1415 1.524 . S
C1417 C1414 1.403 . S
C1417 C1418 1.392 . S
C1417 C1421 1.495 . S
C1418 C1417 1.392 . S
C1418 C1419 1.385 . S
C1418 C1420 1.478 . S
C1419 H1413 0.930 . S
C1419 C1415 1.400 . S
C1419 C1418 1.385 . S
C1420 C1418 1.478 . S
C1420 C1422 1.381 . S
C1420 C1426 1.383 . S
C1421 C1417 1.495 . S
C1421 H1427 0.959 . S
C1421 H1428 0.961 . S
C1421 H1429 0.960 . S
C1422 C1420 1.381 . S
C1422 C1423 1.394 . S
C1422 H1430 0.930 . S
C1423 C1422 1.394 . S
C1423 C1424 1.383 . S
C1423 H1431 0.929 . S
C1424 C1423 1.383 . S
C1424 C1425 1.377 . S
C1425 H1409 0.930 . S
C1425 C1424 1.377 . S
C1425 C1426 1.379 . S
C1426 H1410 0.931 . S
C1426 C1420 1.383 . S
C1426 C1425 1.379 . S
H1427 C1421 0.959 . S
H1428 C1421 0.961 . S
H1429 C1421 0.960 . S
H1430 C1422 0.930 . S
H1431 C1423 0.929 . S
H1432 C1440 0.929 . S
H1433 C1442 0.930 . S
H1434 C1444 0.930 . S
H1435 C1447 0.929 . S
H1436 C1450 0.930 . S
H1437 C1452 0.960 . S
H1438 C1452 0.960 . S
H1439 C1452 0.960 1_455 S
C1440 H1432 0.929 . S
C1440 C1441 1.377 . S
C1440 C1442 1.384 . S
C1441 C1440 1.377 . S
C1441 C1447 1.390 . S
C1442 H1433 0.930 . S
C1442 C1440 1.384 . S
C1442 C1443 1.372 . S
C1443 C1442 1.372 . S
C1443 C1444 1.400 . S
C1443 C1448 1.490 . S
C1444 H1434 0.930 . S
C1444 C1443 1.400 . S
C1444 C1447 1.386 . S
H1445 C1461 0.930 . S
H1446 C1462 0.931 . S
C1447 H1435 0.929 . S
C1447 C1441 1.390 . S
C1447 C1444 1.386 . S
C1448 C1443 1.490 . S
C1448 C1450 1.395 . S
C1448 C1451 1.403 1_455 S
H1449 C1455 0.930 . S
C1450 H1436 0.930 . S
C1450 C1448 1.395 . S
C1450 C1453 1.403 . S
C1451 C1448 1.403 1_655 S
C1451 C1452 1.524 . S
C1451 C1455 1.400 . S
C1452 H1437 0.960 . S
C1452 H1438 0.960 . S
C1452 H1439 0.960 1_655 S
C1452 C1451 1.524 . S
C1453 C1450 1.403 . S
C1453 C1454 1.392 1_455 S
C1453 C1457 1.495 . S
C1454 C1453 1.392 1_655 S
C1454 C1455 1.385 . S
C1454 C1456 1.478 . S
C1455 H1449 0.930 . S
C1455 C1451 1.400 . S
C1455 C1454 1.385 . S
C1456 C1454 1.478 . S
C1456 C1458 1.381 . S
C1456 C1462 1.383 . S
C1457 C1453 1.495 . S
C1457 H1463 0.959 . S
C1457 H1464 0.961 . S
C1457 H1465 0.960 1_455 S
C1458 C1456 1.381 . S
C1458 C1459 1.394 . S
C1458 H1466 0.930 . S
C1459 C1458 1.394 . S
C1459 C1460 1.383 . S
C1459 H1467 0.929 . S
C1460 C1459 1.383 . S
C1460 C1461 1.377 . S
C1461 H1445 0.930 . S
C1461 C1460 1.377 . S
C1461 C1462 1.379 . S
C1462 H1446 0.931 . S
C1462 C1456 1.383 . S
C1462 C1461 1.379 . S
H1463 C1457 0.959 . S
H1464 C1457 0.961 . S
H1465 C1457 0.960 1_655 S
H1466 C1458 0.930 . S
H1467 C1459 0.929 . S
H1468 C1476 0.929 . S
H1469 C1478 0.930 . S
H1470 C1480 0.930 . S
H1471 C1483 0.929 . S
H1472 C1486 0.930 . S
H1473 C1488 0.960 . S
H1474 C1488 0.960 . S
H1475 C1488 0.960 1_455 S
C1476 H1468 0.929 . S
C1476 C1477 1.377 . S
C1476 C1478 1.384 . S
C1477 C1476 1.377 . S
C1477 C1483 1.390 . S
C1478 H1469 0.930 . S
C1478 C1476 1.384 . S
C1478 C1479 1.372 . S
C1479 C1478 1.372 . S
C1479 C1480 1.400 . S
C1479 C1484 1.490 . S
C1480 H1470 0.930 . S
C1480 C1479 1.400 . S
C1480 C1483 1.386 . S
H1481 C1497 0.930 . S
H1482 C1498 0.931 . S
C1483 H1471 0.929 . S
C1483 C1477 1.390 . S
C1483 C1480 1.386 . S
C1484 C1479 1.490 . S
C1484 C1486 1.395 . S
C1484 C1487 1.403 1_455 S
H1485 C1491 0.930 . S
C1486 H1472 0.930 . S
C1486 C1484 1.395 . S
C1486 C1489 1.403 . S
C1487 C1484 1.403 1_655 S
C1487 C1488 1.524 . S
C1487 C1491 1.400 . S
C1488 H1473 0.960 . S
C1488 H1474 0.960 . S
C1488 H1475 0.960 1_655 S
C1488 C1487 1.524 . S
C1489 C1486 1.403 . S
C1489 C1490 1.392 1_455 S
C1489 C1493 1.495 . S
C1490 C1489 1.392 1_655 S
C1490 C1491 1.385 . S
C1490 C1492 1.478 . S
C1491 H1485 0.930 . S
C1491 C1487 1.400 . S
C1491 C1490 1.385 . S
C1492 C1490 1.478 . S
C1492 C1494 1.381 . S
C1492 C1498 1.383 . S
C1493 C1489 1.495 . S
C1493 H1499 0.959 . S
C1493 H1500 0.961 . S
C1493 H1501 0.960 1_455 S
C1494 C1492 1.381 . S
C1494 C1495 1.394 . S
C1494 H1502 0.930 . S
C1495 C1494 1.394 . S
C1495 C1496 1.383 . S
C1495 H1503 0.929 . S
C1496 C1495 1.383 . S
C1496 C1497 1.377 . S
C1497 H1481 0.930 . S
C1497 C1496 1.377 . S
C1497 C1498 1.379 . S
C1498 H1482 0.931 . S
C1498 C1492 1.383 . S
C1498 C1497 1.379 . S
H1499 C1493 0.959 . S
H1500 C1493 0.961 . S
H1501 C1493 0.960 1_655 S
H1502 C1494 0.930 . S
H1503 C1495 0.929 . S
H1504 C1512 0.929 . S
H1505 C1514 0.930 . S
H1506 C1516 0.930 . S
H1507 C1519 0.929 . S
H1508 C1522 0.930 . S
H1509 C1524 0.960 . S
H1510 C1524 0.960 . S
H1511 C1524 0.960 . S
C1512 H1504 0.929 . S
C1512 C1513 1.377 . S
C1512 C1514 1.384 . S
C1513 C1512 1.377 . S
C1513 C1519 1.390 . S
C1514 H1505 0.930 . S
C1514 C1512 1.384 . S
C1514 C1515 1.372 . S
C1515 C1514 1.372 . S
C1515 C1516 1.400 . S
C1515 C1520 1.490 . S
C1516 H1506 0.930 . S
C1516 C1515 1.400 . S
C1516 C1519 1.386 . S
H1517 C1533 0.930 . S
H1518 C1534 0.931 . S
C1519 H1507 0.929 . S
C1519 C1513 1.390 . S
C1519 C1516 1.386 . S
C1520 C1515 1.490 . S
C1520 C1522 1.395 . S
C1520 C1523 1.403 . S
H1521 C1527 0.930 . S
C1522 H1508 0.930 . S
C1522 C1520 1.395 . S
C1522 C1525 1.403 . S
C1523 C1520 1.403 . S
C1523 C1524 1.524 . S
C1523 C1527 1.400 . S
C1524 H1509 0.960 . S
C1524 H1510 0.960 . S
C1524 H1511 0.960 . S
C1524 C1523 1.524 . S
C1525 C1522 1.403 . S
C1525 C1526 1.392 . S
C1525 C1529 1.495 . S
C1526 C1525 1.392 . S
C1526 C1527 1.385 . S
C1526 C1528 1.478 . S
C1527 H1521 0.930 . S
C1527 C1523 1.400 . S
C1527 C1526 1.385 . S
C1528 C1526 1.478 . S
C1528 C1530 1.381 . S
C1528 C1534 1.383 . S
C1529 C1525 1.495 . S
C1529 H1535 0.959 . S
C1529 H1536 0.961 . S
C1529 H1537 0.960 . S
C1530 C1528 1.381 . S
C1530 C1531 1.394 . S
C1530 H1538 0.930 . S
C1531 C1530 1.394 . S
C1531 C1532 1.383 . S
C1531 H1539 0.929 . S
C1532 C1531 1.383 . S
C1532 C1533 1.377 . S
C1533 H1517 0.930 . S
C1533 C1532 1.377 . S
C1533 C1534 1.379 . S
C1534 H1518 0.931 . S
C1534 C1528 1.383 . S
C1534 C1533 1.379 . S
H1535 C1529 0.959 . S
H1536 C1529 0.961 . S
H1537 C1529 0.960 . S
H1538 C1530 0.930 . S
H1539 C1531 0.929 . S
H1540 C1548 0.929 . S
H1541 C1550 0.930 . S
H1542 C1552 0.930 . S
H1543 C1555 0.929 . S
H1544 C1558 0.930 . S
H1545 C1560 0.960 . S
H1546 C1560 0.960 . S
H1547 C1560 0.960 . S
C1548 H1540 0.929 . S
C1548 C1549 1.377 . S
C1548 C1550 1.384 . S
C1549 C1548 1.377 . S
C1549 C1555 1.390 . S
C1550 H1541 0.930 . S
C1550 C1548 1.384 . S
C1550 C1551 1.372 . S
C1551 C1550 1.372 . S
C1551 C1552 1.400 . S
C1551 C1556 1.490 . S
C1552 H1542 0.930 . S
C1552 C1551 1.400 . S
C1552 C1555 1.386 . S
H1553 C1569 0.930 . S
H1554 C1570 0.931 . S
C1555 H1543 0.929 . S
C1555 C1549 1.390 . S
C1555 C1552 1.386 . S
C1556 C1551 1.490 . S
C1556 C1558 1.395 . S
C1556 C1559 1.403 . S
H1557 C1563 0.930 . S
C1558 H1544 0.930 . S
C1558 C1556 1.395 . S
C1558 C1561 1.403 . S
C1559 C1556 1.403 . S
C1559 C1560 1.524 . S
C1559 C1563 1.400 . S
C1560 H1545 0.960 . S
C1560 H1546 0.960 . S
C1560 H1547 0.960 . S
C1560 C1559 1.524 . S
C1561 C1558 1.403 . S
C1561 C1562 1.392 . S
C1561 C1565 1.495 . S
C1562 C1561 1.392 . S
C1562 C1563 1.385 . S
C1562 C1564 1.478 . S
C1563 H1557 0.930 . S
C1563 C1559 1.400 . S
C1563 C1562 1.385 . S
C1564 C1562 1.478 . S
C1564 C1566 1.381 . S
C1564 C1570 1.383 . S
C1565 C1561 1.495 . S
C1565 H1571 0.959 . S
C1565 H1572 0.961 . S
C1565 H1573 0.960 . S
C1566 C1564 1.381 . S
C1566 C1567 1.394 . S
C1566 H1574 0.930 . S
C1567 C1566 1.394 . S
C1567 C1568 1.383 . S
C1567 H1575 0.929 . S
C1568 C1567 1.383 . S
C1568 C1569 1.377 . S
C1569 H1553 0.930 . S
C1569 C1568 1.377 . S
C1569 C1570 1.379 . S
C1570 H1554 0.931 . S
C1570 C1564 1.383 . S
C1570 C1569 1.379 . S
H1571 C1565 0.959 . S
H1572 C1565 0.961 . S
H1573 C1565 0.960 . S
H1574 C1566 0.930 . S
H1575 C1567 0.929 . S
H1576 C1584 0.929 . S
H1577 C1586 0.930 . S
H1578 C1588 0.930 . S
H1579 C1591 0.929 . S
H1580 C1594 0.930 . S
H1581 C1596 0.960 . S
H1582 C1596 0.960 . S
H1583 C1596 0.960 . S
C1584 H1576 0.929 . S
C1584 C1585 1.377 . S
C1584 C1586 1.384 . S
C1585 C1584 1.377 . S
C1585 C1591 1.390 . S
C1586 H1577 0.930 . S
C1586 C1584 1.384 . S
C1586 C1587 1.372 . S
C1587 C1586 1.372 . S
C1587 C1588 1.400 . S
C1587 C1592 1.490 . S
C1588 H1578 0.930 . S
C1588 C1587 1.400 . S
C1588 C1591 1.386 . S
H1589 C1605 0.930 . S
H1590 C1606 0.931 . S
C1591 H1579 0.929 . S
C1591 C1585 1.390 . S
C1591 C1588 1.386 . S
C1592 C1587 1.490 . S
C1592 C1594 1.395 . S
C1592 C1595 1.403 . S
H1593 C1599 0.930 . S
C1594 H1580 0.930 . S
C1594 C1592 1.395 . S
C1594 C1597 1.403 . S
C1595 C1592 1.403 . S
C1595 C1596 1.524 . S
C1595 C1599 1.400 . S
C1596 H1581 0.960 . S
C1596 H1582 0.960 . S
C1596 H1583 0.960 . S
C1596 C1595 1.524 . S
C1597 C1594 1.403 . S
C1597 C1598 1.392 . S
C1597 C1601 1.495 . S
C1598 C1597 1.392 . S
C1598 C1599 1.385 . S
C1598 C1600 1.478 . S
C1599 H1593 0.930 . S
C1599 C1595 1.400 . S
C1599 C1598 1.385 . S
C1600 C1598 1.478 . S
C1600 C1602 1.381 . S
C1600 C1606 1.383 . S
C1601 C1597 1.495 . S
C1601 H1607 0.959 . S
C1601 H1608 0.961 . S
C1601 H1609 0.960 . S
C1602 C1600 1.381 . S
C1602 C1603 1.394 . S
C1602 H1610 0.930 . S
C1603 C1602 1.394 . S
C1603 C1604 1.383 . S
C1603 H1611 0.929 . S
C1604 C1603 1.383 . S
C1604 C1605 1.377 . S
C1605 H1589 0.930 . S
C1605 C1604 1.377 . S
C1605 C1606 1.379 . S
C1606 H1590 0.931 . S
C1606 C1600 1.383 . S
C1606 C1605 1.379 . S
H1607 C1601 0.959 . S
H1608 C1601 0.961 . S
H1609 C1601 0.960 . S
H1610 C1602 0.930 . S
H1611 C1603 0.929 . S
H1612 C1620 0.929 . S
H1613 C1622 0.930 . S
H1614 C1624 0.930 . S
H1615 C1627 0.929 . S
H1616 C1630 0.930 . S
H1617 C1632 0.960 . S
H1618 C1632 0.960 . S
H1619 C1632 0.960 . S
C1620 H1612 0.929 . S
C1620 C1621 1.377 . S
C1620 C1622 1.384 . S
C1621 C1620 1.377 . S
C1621 C1627 1.390 . S
C1622 H1613 0.930 . S
C1622 C1620 1.384 . S
C1622 C1623 1.372 . S
C1623 C1622 1.372 . S
C1623 C1624 1.400 . S
C1623 C1628 1.490 . S
C1624 H1614 0.930 . S
C1624 C1623 1.400 . S
C1624 C1627 1.386 . S
H1625 C1641 0.930 . S
H1626 C1642 0.931 . S
C1627 H1615 0.929 . S
C1627 C1621 1.390 . S
C1627 C1624 1.386 . S
C1628 C1623 1.490 . S
C1628 C1630 1.395 . S
C1628 C1631 1.403 . S
H1629 C1635 0.930 . S
C1630 H1616 0.930 . S
C1630 C1628 1.395 . S
C1630 C1633 1.403 . S
C1631 C1628 1.403 . S
C1631 C1632 1.524 . S
C1631 C1635 1.400 . S
C1632 H1617 0.960 . S
C1632 H1618 0.960 . S
C1632 H1619 0.960 . S
C1632 C1631 1.524 . S
C1633 C1630 1.403 . S
C1633 C1634 1.392 . S
C1633 C1637 1.495 . S
C1634 C1633 1.392 . S
C1634 C1635 1.385 . S
C1634 C1636 1.478 . S
C1635 H1629 0.930 . S
C1635 C1631 1.400 . S
C1635 C1634 1.385 . S
C1636 C1634 1.478 . S
C1636 C1638 1.381 . S
C1636 C1642 1.383 . S
C1637 C1633 1.495 . S
C1637 H1643 0.959 . S
C1637 H1644 0.961 . S
C1637 H1645 0.960 . S
C1638 C1636 1.381 . S
C1638 C1639 1.394 . S
C1638 H1646 0.930 . S
C1639 C1638 1.394 . S
C1639 C1640 1.383 . S
C1639 H1647 0.929 . S
C1640 C1639 1.383 . S
C1640 C1641 1.377 . S
C1641 H1625 0.930 . S
C1641 C1640 1.377 . S
C1641 C1642 1.379 . S
C1642 H1626 0.931 . S
C1642 C1636 1.383 . S
C1642 C1641 1.379 . S
H1643 C1637 0.959 . S
H1644 C1637 0.961 . S
H1645 C1637 0.960 . S
H1646 C1638 0.930 . S
H1647 C1639 0.929 . S
H1648 C1656 0.929 . S
H1649 C1658 0.930 . S
H1650 C1660 0.930 . S
H1651 C1663 0.929 . S
H1652 C1666 0.930 . S
H1653 C1668 0.960 . S
H1654 C1668 0.960 . S
H1655 C1668 0.960 . S
C1656 H1648 0.929 . S
C1656 C1657 1.377 . S
C1656 C1658 1.384 . S
C1657 C1656 1.377 . S
C1657 C1663 1.390 . S
C1658 H1649 0.930 . S
C1658 C1656 1.384 . S
C1658 C1659 1.372 . S
C1659 C1658 1.372 . S
C1659 C1660 1.400 . S
C1659 C1664 1.490 . S
C1660 H1650 0.930 . S
C1660 C1659 1.400 . S
C1660 C1663 1.386 . S
H1661 C1677 0.930 . S
H1662 C1678 0.931 . S
C1663 H1651 0.929 . S
C1663 C1657 1.390 . S
C1663 C1660 1.386 . S
C1664 C1659 1.490 . S
C1664 C1666 1.395 . S
C1664 C1667 1.403 . S
H1665 C1671 0.930 . S
C1666 H1652 0.930 . S
C1666 C1664 1.395 . S
C1666 C1669 1.403 . S
C1667 C1664 1.403 . S
C1667 C1668 1.524 . S
C1667 C1671 1.400 . S
C1668 H1653 0.960 . S
C1668 H1654 0.960 . S
C1668 H1655 0.960 . S
C1668 C1667 1.524 . S
C1669 C1666 1.403 . S
C1669 C1670 1.392 . S
C1669 C1673 1.495 . S
C1670 C1669 1.392 . S
C1670 C1671 1.385 . S
C1670 C1672 1.478 . S
C1671 H1665 0.930 . S
C1671 C1667 1.400 . S
C1671 C1670 1.385 . S
C1672 C1670 1.478 . S
C1672 C1674 1.381 . S
C1672 C1678 1.383 . S
C1673 C1669 1.495 . S
C1673 H1679 0.959 . S
C1673 H1680 0.961 . S
C1673 H1681 0.960 . S
C1674 C1672 1.381 . S
C1674 C1675 1.394 . S
C1674 H1682 0.930 . S
C1675 C1674 1.394 . S
C1675 C1676 1.383 . S
C1675 H1683 0.929 . S
C1676 C1675 1.383 . S
C1676 C1677 1.377 . S
C1677 H1661 0.930 . S
C1677 C1676 1.377 . S
C1677 C1678 1.379 . S
C1678 H1662 0.931 . S
C1678 C1672 1.383 . S
C1678 C1677 1.379 . S
H1679 C1673 0.959 . S
H1680 C1673 0.961 . S
H1681 C1673 0.960 . S
H1682 C1674 0.930 . S
H1683 C1675 0.929 . S
H1684 C1692 0.929 . S
H1685 C1694 0.930 . S
H1686 C1696 0.930 . S
H1687 C1699 0.929 . S
H1688 C1702 0.930 . S
H1689 C1704 0.960 . S
H1690 C1704 0.960 . S
H1691 C1704 0.960 . S
C1692 H1684 0.929 . S
C1692 C1693 1.377 . S
C1692 C1694 1.384 . S
C1693 C1692 1.377 . S
C1693 C1699 1.390 . S
C1694 H1685 0.930 . S
C1694 C1692 1.384 . S
C1694 C1695 1.372 . S
C1695 C1694 1.372 . S
C1695 C1696 1.400 . S
C1695 C1700 1.490 . S
C1696 H1686 0.930 . S
C1696 C1695 1.400 . S
C1696 C1699 1.386 . S
H1697 C1713 0.930 . S
H1698 C1714 0.931 . S
C1699 H1687 0.929 . S
C1699 C1693 1.390 . S
C1699 C1696 1.386 . S
C1700 C1695 1.490 . S
C1700 C1702 1.395 . S
C1700 C1703 1.403 . S
H1701 C1707 0.930 . S
C1702 H1688 0.930 . S
C1702 C1700 1.395 . S
C1702 C1705 1.403 . S
C1703 C1700 1.403 . S
C1703 C1704 1.524 . S
C1703 C1707 1.400 . S
C1704 H1689 0.960 . S
C1704 H1690 0.960 . S
C1704 H1691 0.960 . S
C1704 C1703 1.524 . S
C1705 C1702 1.403 . S
C1705 C1706 1.392 . S
C1705 C1709 1.495 . S
C1706 C1705 1.392 . S
C1706 C1707 1.385 . S
C1706 C1708 1.478 . S
C1707 H1701 0.930 . S
C1707 C1703 1.400 . S
C1707 C1706 1.385 . S
C1708 C1706 1.478 . S
C1708 C1710 1.381 . S
C1708 C1714 1.383 . S
C1709 C1705 1.495 . S
C1709 H1715 0.959 . S
C1709 H1716 0.961 . S
C1709 H1717 0.960 . S
C1710 C1708 1.381 . S
C1710 C1711 1.394 . S
C1710 H1718 0.930 . S
C1711 C1710 1.394 . S
C1711 C1712 1.383 . S
C1711 H1719 0.929 . S
C1712 C1711 1.383 . S
C1712 C1713 1.377 . S
C1713 H1697 0.930 . S
C1713 C1712 1.377 . S
C1713 C1714 1.379 . S
C1714 H1698 0.931 . S
C1714 C1708 1.383 . S
C1714 C1713 1.379 . S
H1715 C1709 0.959 . S
H1716 C1709 0.961 . S
H1717 C1709 0.960 . S
H1718 C1710 0.930 . S
H1719 C1711 0.929 . S
H1720 C1728 0.929 . S
H1721 C1730 0.930 . S
H1722 C1732 0.930 . S
H1723 C1735 0.929 . S
H1724 C1738 0.930 . S
H1725 C1740 0.960 . S
H1726 C1740 0.960 . S
H1727 C1740 0.960 . S
C1728 H1720 0.929 . S
C1728 C1729 1.377 . S
C1728 C1730 1.384 . S
C1729 C1728 1.377 . S
C1729 C1735 1.390 . S
C1730 H1721 0.930 . S
C1730 C1728 1.384 . S
C1730 C1731 1.372 . S
C1731 C1730 1.372 . S
C1731 C1732 1.400 . S
C1731 C1736 1.490 . S
C1732 H1722 0.930 . S
C1732 C1731 1.400 . S
C1732 C1735 1.386 . S
H1733 C1749 0.930 . S
H1734 C1750 0.931 . S
C1735 H1723 0.929 . S
C1735 C1729 1.390 . S
C1735 C1732 1.386 . S
C1736 C1731 1.490 . S
C1736 C1738 1.395 . S
C1736 C1739 1.403 . S
H1737 C1743 0.930 . S
C1738 H1724 0.930 . S
C1738 C1736 1.395 . S
C1738 C1741 1.403 . S
C1739 C1736 1.403 . S
C1739 C1740 1.524 . S
C1739 C1743 1.400 . S
C1740 H1725 0.960 . S
C1740 H1726 0.960 . S
C1740 H1727 0.960 . S
C1740 C1739 1.524 . S
C1741 C1738 1.403 . S
C1741 C1742 1.392 . S
C1741 C1745 1.495 . S
C1742 C1741 1.392 . S
C1742 C1743 1.385 . S
C1742 C1744 1.478 . S
C1743 H1737 0.930 . S
C1743 C1739 1.400 . S
C1743 C1742 1.385 . S
C1744 C1742 1.478 . S
C1744 C1746 1.381 . S
C1744 C1750 1.383 . S
C1745 C1741 1.495 . S
C1745 H1751 0.959 . S
C1745 H1752 0.961 . S
C1745 H1753 0.960 . S
C1746 C1744 1.381 . S
C1746 C1747 1.394 . S
C1746 H1754 0.930 . S
C1747 C1746 1.394 . S
C1747 C1748 1.383 . S
C1747 H1755 0.929 . S
C1748 C1747 1.383 . S
C1748 C1749 1.377 . S
C1749 H1733 0.930 . S
C1749 C1748 1.377 . S
C1749 C1750 1.379 . S
C1750 H1734 0.931 . S
C1750 C1744 1.383 . S
C1750 C1749 1.379 . S
H1751 C1745 0.959 . S
H1752 C1745 0.961 . S
H1753 C1745 0.960 . S
H1754 C1746 0.930 . S
H1755 C1747 0.929 . S
H1756 C1764 0.929 . S
H1757 C1766 0.930 . S
H1758 C1768 0.930 . S
H1759 C1771 0.929 . S
H1760 C1774 0.930 . S
H1761 C1776 0.960 . S
H1762 C1776 0.960 . S
H1763 C1776 0.960 . S
C1764 H1756 0.929 . S
C1764 C1765 1.377 . S
C1764 C1766 1.384 . S
C1765 C1764 1.377 . S
C1765 C1771 1.390 . S
C1766 H1757 0.930 . S
C1766 C1764 1.384 . S
C1766 C1767 1.372 . S
C1767 C1766 1.372 . S
C1767 C1768 1.400 . S
C1767 C1772 1.490 . S
C1768 H1758 0.930 . S
C1768 C1767 1.400 . S
C1768 C1771 1.386 . S
H1769 C1785 0.930 . S
H1770 C1786 0.931 . S
C1771 H1759 0.929 . S
C1771 C1765 1.390 . S
C1771 C1768 1.386 . S
C1772 C1767 1.490 . S
C1772 C1774 1.395 . S
C1772 C1775 1.403 . S
H1773 C1779 0.930 . S
C1774 H1760 0.930 . S
C1774 C1772 1.395 . S
C1774 C1777 1.403 . S
C1775 C1772 1.403 . S
C1775 C1776 1.524 . S
C1775 C1779 1.400 . S
C1776 H1761 0.960 . S
C1776 H1762 0.960 . S
C1776 H1763 0.960 . S
C1776 C1775 1.524 . S
C1777 C1774 1.403 . S
C1777 C1778 1.392 . S
C1777 C1781 1.495 . S
C1778 C1777 1.392 . S
C1778 C1779 1.385 . S
C1778 C1780 1.478 . S
C1779 H1773 0.930 . S
C1779 C1775 1.400 . S
C1779 C1778 1.385 . S
C1780 C1778 1.478 . S
C1780 C1782 1.381 . S
C1780 C1786 1.383 . S
C1781 C1777 1.495 . S
C1781 H1787 0.959 . S
C1781 H1788 0.961 . S
C1781 H1789 0.960 . S
C1782 C1780 1.381 . S
C1782 C1783 1.394 . S
C1782 H1790 0.930 . S
C1783 C1782 1.394 . S
C1783 C1784 1.383 . S
C1783 H1791 0.929 . S
C1784 C1783 1.383 . S
C1784 C1785 1.377 . S
C1785 H1769 0.930 . S
C1785 C1784 1.377 . S
C1785 C1786 1.379 . S
C1786 H1770 0.931 . S
C1786 C1780 1.383 . S
C1786 C1785 1.379 . S
H1787 C1781 0.959 . S
H1788 C1781 0.961 . S
H1789 C1781 0.960 . S
H1790 C1782 0.930 . S
H1791 C1783 0.929 . S
H1792 C1800 0.929 . S
H1793 C1802 0.930 . S
H1794 C1804 0.930 . S
H1795 C1807 0.929 . S
H1796 C1810 0.930 . S
H1797 C1812 0.960 . S
H1798 C1812 0.960 . S
H1799 C1812 0.960 . S
C1800 H1792 0.929 . S
C1800 C1801 1.377 . S
C1800 C1802 1.384 . S
C1801 C1800 1.377 . S
C1801 C1807 1.390 . S
C1802 H1793 0.930 . S
C1802 C1800 1.384 . S
C1802 C1803 1.372 . S
C1803 C1802 1.372 . S
C1803 C1804 1.400 . S
C1803 C1808 1.490 . S
C1804 H1794 0.930 . S
C1804 C1803 1.400 . S
C1804 C1807 1.386 . S
H1805 C1821 0.930 . S
H1806 C1822 0.931 . S
C1807 H1795 0.929 . S
C1807 C1801 1.390 . S
C1807 C1804 1.386 . S
C1808 C1803 1.490 . S
C1808 C1810 1.395 . S
C1808 C1811 1.403 . S
H1809 C1815 0.930 . S
C1810 H1796 0.930 . S
C1810 C1808 1.395 . S
C1810 C1813 1.403 . S
C1811 C1808 1.403 . S
C1811 C1812 1.524 . S
C1811 C1815 1.400 . S
C1812 H1797 0.960 . S
C1812 H1798 0.960 . S
C1812 H1799 0.960 . S
C1812 C1811 1.524 . S
C1813 C1810 1.403 . S
C1813 C1814 1.392 . S
C1813 C1817 1.495 . S
C1814 C1813 1.392 . S
C1814 C1815 1.385 . S
C1814 C1816 1.478 . S
C1815 H1809 0.930 . S
C1815 C1811 1.400 . S
C1815 C1814 1.385 . S
C1816 C1814 1.478 . S
C1816 C1818 1.381 . S
C1816 C1822 1.383 . S
C1817 C1813 1.495 . S
C1817 H1823 0.959 . S
C1817 H1824 0.961 . S
C1817 H1825 0.960 . S
C1818 C1816 1.381 . S
C1818 C1819 1.394 . S
C1818 H1826 0.930 . S
C1819 C1818 1.394 . S
C1819 C1820 1.383 . S
C1819 H1827 0.929 . S
C1820 C1819 1.383 . S
C1820 C1821 1.377 . S
C1821 H1805 0.930 . S
C1821 C1820 1.377 . S
C1821 C1822 1.379 . S
C1822 H1806 0.931 . S
C1822 C1816 1.383 . S
C1822 C1821 1.379 . S
H1823 C1817 0.959 . S
H1824 C1817 0.961 . S
H1825 C1817 0.960 . S
H1826 C1818 0.930 . S
H1827 C1819 0.929 . S
H1828 C1836 0.929 . S
H1829 C1838 0.930 . S
H1830 C1840 0.930 . S
H1831 C1843 0.929 . S
H1832 C1846 0.930 . S
H1833 C1848 0.960 . S
H1834 C1848 0.960 . S
H1835 C1848 0.960 . S
C1836 H1828 0.929 . S
C1836 C1837 1.377 . S
C1836 C1838 1.384 . S
C1837 C1836 1.377 . S
C1837 C1843 1.390 . S
C1838 H1829 0.930 . S
C1838 C1836 1.384 . S
C1838 C1839 1.372 . S
C1839 C1838 1.372 . S
C1839 C1840 1.400 . S
C1839 C1844 1.490 . S
C1840 H1830 0.930 . S
C1840 C1839 1.400 . S
C1840 C1843 1.386 . S
H1841 C1857 0.930 . S
H1842 C1858 0.931 . S
C1843 H1831 0.929 . S
C1843 C1837 1.390 . S
C1843 C1840 1.386 . S
C1844 C1839 1.490 . S
C1844 C1846 1.395 . S
C1844 C1847 1.403 . S
H1845 C1851 0.930 . S
C1846 H1832 0.930 . S
C1846 C1844 1.395 . S
C1846 C1849 1.403 . S
C1847 C1844 1.403 . S
C1847 C1848 1.524 . S
C1847 C1851 1.400 . S
C1848 H1833 0.960 . S
C1848 H1834 0.960 . S
C1848 H1835 0.960 . S
C1848 C1847 1.524 . S
C1849 C1846 1.403 . S
C1849 C1850 1.392 . S
C1849 C1853 1.495 . S
C1850 C1849 1.392 . S
C1850 C1851 1.385 . S
C1850 C1852 1.478 1_565 S
C1851 H1845 0.930 . S
C1851 C1847 1.400 . S
C1851 C1850 1.385 . S
C1852 C1850 1.478 1_545 S
C1852 C1854 1.381 1_545 S
C1852 C1858 1.383 . S
C1853 C1849 1.495 . S
C1853 H1859 0.959 . S
C1853 H1860 0.961 1_565 S
C1853 H1861 0.960 . S
C1854 C1852 1.381 1_565 S
C1854 C1855 1.394 1_565 S
C1854 H1862 0.930 . S
C1855 C1854 1.394 1_545 S
C1855 C1856 1.383 . S
C1855 H1863 0.929 . S
C1856 C1855 1.383 . S
C1856 C1857 1.377 . S
C1857 H1841 0.930 . S
C1857 C1856 1.377 . S
C1857 C1858 1.379 . S
C1858 H1842 0.931 . S
C1858 C1852 1.383 . S
C1858 C1857 1.379 . S
H1859 C1853 0.959 . S
H1860 C1853 0.961 1_545 S
H1861 C1853 0.960 . S
H1862 C1854 0.930 . S
H1863 C1855 0.929 . S
H1864 C1872 0.929 1_565 S
H1865 C1874 0.930 . S
H1866 C1876 0.930 . S
H1867 C1879 0.929 . S
H1868 C1882 0.930 . S
H1869 C1884 0.960 . S
H1870 C1884 0.960 . S
H1871 C1884 0.960 . S
C1872 H1864 0.929 1_545 S
C1872 C1873 1.377 . S
C1872 C1874 1.384 . S
C1873 C1872 1.377 . S
C1873 C1879 1.390 . S
C1874 H1865 0.930 . S
C1874 C1872 1.384 . S
C1874 C1875 1.372 . S
C1875 C1874 1.372 . S
C1875 C1876 1.400 . S
C1875 C1880 1.490 . S
C1876 H1866 0.930 . S
C1876 C1875 1.400 . S
C1876 C1879 1.386 . S
H1877 C1893 0.930 . S
H1878 C1894 0.931 . S
C1879 H1867 0.929 . S
C1879 C1873 1.390 . S
C1879 C1876 1.386 . S
C1880 C1875 1.490 . S
C1880 C1882 1.395 . S
C1880 C1883 1.403 . S
H1881 C1887 0.930 . S
C1882 H1868 0.930 . S
C1882 C1880 1.395 . S
C1882 C1885 1.403 . S
C1883 C1880 1.403 . S
C1883 C1884 1.524 . S
C1883 C1887 1.400 . S
C1884 H1869 0.960 . S
C1884 H1870 0.960 . S
C1884 H1871 0.960 . S
C1884 C1883 1.524 . S
C1885 C1882 1.403 . S
C1885 C1886 1.392 . S
C1885 C1889 1.495 . S
C1886 C1885 1.392 . S
C1886 C1887 1.385 . S
C1886 C1888 1.478 . S
C1887 H1881 0.930 . S
C1887 C1883 1.400 . S
C1887 C1886 1.385 . S
C1888 C1886 1.478 . S
C1888 C1890 1.381 . S
C1888 C1894 1.383 . S
C1889 C1885 1.495 . S
C1889 H1895 0.959 . S
C1889 H1896 0.961 . S
C1889 H1897 0.960 . S
C1890 C1888 1.381 . S
C1890 C1891 1.394 . S
C1890 H1898 0.930 . S
C1891 C1890 1.394 . S
C1891 C1892 1.383 . S
C1891 H1899 0.929 . S
C1892 C1891 1.383 . S
C1892 C1893 1.377 . S
C1893 H1877 0.930 . S
C1893 C1892 1.377 . S
C1893 C1894 1.379 . S
C1894 H1878 0.931 . S
C1894 C1888 1.383 . S
C1894 C1893 1.379 . S
H1895 C1889 0.959 . S
H1896 C1889 0.961 . S
H1897 C1889 0.960 . S
H1898 C1890 0.930 . S
H1899 C1891 0.929 . S
H1900 C1908 0.929 . S
H1901 C1910 0.930 . S
H1902 C1912 0.930 . S
H1903 C1915 0.929 . S
H1904 C1918 0.930 . S
H1905 C1920 0.960 . S
H1906 C1920 0.960 . S
H1907 C1920 0.935 1_565 S
C1908 H1900 0.929 . S
C1908 C1909 1.377 . S
C1908 C1910 1.384 1_565 S
C1909 C1908 1.377 . S
C1909 C1915 1.390 . S
C1910 H1901 0.930 . S
C1910 C1908 1.384 1_545 S
C1910 C1911 1.372 1_545 S
C1911 C1910 1.372 1_565 S
C1911 C1912 1.400 . S
C1911 C1916 1.490 1_565 S
C1912 H1902 0.930 . S
C1912 C1911 1.400 . S
C1912 C1915 1.386 . S
H1913 C1929 0.930 . S
H1914 C1930 0.931 . S
C1915 H1903 0.929 . S
C1915 C1909 1.390 . S
C1915 C1912 1.386 . S
C1916 C1911 1.490 1_545 S
C1916 C1918 1.395 . S
C1916 C1919 1.403 . S
H1917 C1923 0.930 . S
C1918 H1904 0.930 . S
C1918 C1916 1.395 . S
C1918 C1921 1.403 . S
C1919 C1916 1.403 . S
C1919 C1920 1.524 . S
C1919 C1923 1.400 . S
C1920 H1905 0.960 . S
C1920 H1906 0.960 . S
C1920 H1907 0.935 1_545 S
C1920 C1919 1.524 . S
C1921 C1918 1.403 . S
C1921 C1922 1.392 . S
C1921 C1925 1.495 . S
C1922 C1921 1.392 . S
C1922 C1923 1.385 . S
C1922 C1924 1.478 . S
C1923 H1917 0.930 . S
C1923 C1919 1.400 . S
C1923 C1922 1.385 . S
C1924 C1922 1.478 . S
C1924 C1926 1.381 . S
C1924 C1930 1.383 . S
C1925 C1921 1.495 . S
C1925 H1931 0.959 . S
C1925 H1932 0.961 . S
C1925 H1933 0.960 . S
C1926 C1924 1.381 . S
C1926 C1927 1.394 . S
C1926 H1934 0.930 . S
C1927 C1926 1.394 . S
C1927 C1928 1.383 . S
C1927 H1935 0.929 . S
C1928 C1927 1.383 . S
C1928 C1929 1.377 . S
C1929 H1913 0.930 . S
C1929 C1928 1.377 . S
C1929 C1930 1.379 . S
C1930 H1914 0.931 . S
C1930 C1924 1.383 . S
C1930 C1929 1.379 . S
H1931 C1925 0.959 . S
H1932 C1925 0.961 . S
H1933 C1925 0.960 . S
H1934 C1926 0.930 . S
H1935 C1927 0.929 . S
H1936 C1944 0.929 . S
H1937 C1946 0.930 . S
H1938 C1948 0.930 . S
H1939 C1951 0.929 . S
H1940 C1954 0.930 . S
H1941 C1956 0.960 . S
H1942 C1956 0.960 . S
H1943 C1956 0.960 . S
C1944 H1936 0.929 . S
C1944 C1945 1.377 . S
C1944 C1946 1.384 . S
C1945 C1944 1.377 . S
C1945 C1951 1.390 . S
C1946 H1937 0.930 . S
C1946 C1944 1.384 . S
C1946 C1947 1.372 . S
C1947 C1946 1.372 . S
C1947 C1948 1.400 . S
C1947 C1952 1.490 . S
C1948 H1938 0.930 . S
C1948 C1947 1.400 . S
C1948 C1951 1.386 . S
H1949 C1965 0.930 . S
H1950 C1966 0.931 . S
C1951 H1939 0.929 . S
C1951 C1945 1.390 . S
C1951 C1948 1.386 . S
C1952 C1947 1.490 . S
C1952 C1954 1.395 . S
C1952 C1955 1.403 . S
H1953 C1959 0.930 . S
C1954 H1940 0.930 . S
C1954 C1952 1.395 . S
C1954 C1957 1.403 . S
C1955 C1952 1.403 . S
C1955 C1956 1.524 . S
C1955 C1959 1.400 . S
C1956 H1941 0.960 . S
C1956 H1942 0.960 . S
C1956 H1943 0.960 . S
C1956 C1955 1.524 . S
C1957 C1954 1.403 . S
C1957 C1958 1.392 . S
C1957 C1961 1.495 . S
C1958 C1957 1.392 . S
C1958 C1959 1.385 . S
C1958 C1960 1.478 . S
C1959 H1953 0.930 . S
C1959 C1955 1.400 . S
C1959 C1958 1.385 . S
C1960 C1958 1.478 . S
C1960 C1962 1.381 . S
C1960 C1966 1.383 . S
C1961 C1957 1.495 . S
C1961 H1967 0.959 . S
C1961 H1968 0.961 . S
C1961 H1969 0.960 . S
C1962 C1960 1.381 . S
C1962 C1963 1.394 . S
C1962 H1970 0.930 . S
C1963 C1962 1.394 . S
C1963 C1964 1.383 . S
C1963 H1971 0.929 1_545 S
C1964 C1963 1.383 . S
C1964 C1965 1.377 . S
C1965 H1949 0.930 . S
C1965 C1964 1.377 . S
C1965 C1966 1.379 . S
C1966 H1950 0.931 . S
C1966 C1960 1.383 . S
C1966 C1965 1.379 . S
H1967 C1961 0.959 . S
H1968 C1961 0.961 . S
H1969 C1961 0.960 . S
H1970 C1962 0.930 . S
H1971 C1963 0.929 1_565 S
H1972 C1980 0.929 . S
H1973 C1982 0.930 . S
H1974 C1984 0.930 . S
H1975 C1987 0.929 . S
H1976 C1990 0.930 . S
H1977 C1992 0.960 . S
H1978 C1992 0.960 . S
H1979 C1992 0.960 . S
C1980 H1972 0.929 . S
C1980 C1981 1.377 . S
C1980 C1982 1.384 . S
C1981 C1980 1.377 . S
C1981 C1987 1.390 . S
C1982 H1973 0.930 . S
C1982 C1980 1.384 . S
C1982 C1983 1.372 . S
C1983 C1982 1.372 . S
C1983 C1984 1.400 . S
C1983 C1988 1.490 1_565 S
C1984 H1974 0.930 . S
C1984 C1983 1.400 . S
C1984 C1987 1.386 . S
H1985 C2001 0.930 . S
H1986 C2002 0.931 . S
C1987 H1975 0.929 . S
C1987 C1981 1.390 . S
C1987 C1984 1.386 . S
C1988 C1983 1.490 1_545 S
C1988 C1990 1.395 1_545 S
C1988 C1991 1.403 . S
H1989 C1995 0.930 . S
C1990 H1976 0.930 . S
C1990 C1988 1.395 1_565 S
C1990 C1993 1.403 1_565 S
C1991 C1988 1.403 . S
C1991 C1992 1.524 . S
C1991 C1995 1.400 . S
C1992 H1977 0.960 . S
C1992 H1978 0.960 . S
C1992 H1979 0.960 . S
C1992 C1991 1.524 . S
C1993 C1990 1.403 1_545 S
C1993 C1994 1.392 . S
C1993 C1997 1.495 1_545 S
C1994 C1993 1.392 . S
C1994 C1995 1.385 . S
C1994 C1996 1.478 . S
C1995 H1989 0.930 . S
C1995 C1991 1.400 . S
C1995 C1994 1.385 . S
C1996 C1994 1.478 . S
C1996 C1998 1.381 . S
C1996 C2002 1.383 . S
C1997 C1993 1.495 1_565 S
C1997 H2003 0.959 . S
C1997 H2004 0.961 . S
C1997 H2005 0.960 1_565 S
C1998 C1996 1.381 . S
C1998 C1999 1.394 . S
C1998 H2006 0.930 . S
C1999 C1998 1.394 . S
C1999 C2000 1.383 . S
C1999 H2007 0.929 . S
C2000 C1999 1.383 . S
C2000 C2001 1.377 . S
C2001 H1985 0.930 . S
C2001 C2000 1.377 . S
C2001 C2002 1.379 . S
C2002 H1986 0.931 . S
C2002 C1996 1.383 . S
C2002 C2001 1.379 . S
H2003 C1997 0.959 . S
H2004 C1997 0.961 . S
H2005 C1997 0.960 1_545 S
H2006 C1998 0.930 . S
H2007 C1999 0.929 . S
H2008 C2016 0.929 . S
H2009 C2018 0.930 . S
H2010 C2020 0.930 . S
H2011 C2023 0.929 . S
H2012 C2026 0.930 . S
H2013 C2028 0.960 . S
H2014 C2028 0.960 . S
H2015 C2028 0.960 . S
C2016 H2008 0.929 . S
C2016 C2017 1.377 . S
C2016 C2018 1.384 . S
C2017 C2016 1.377 . S
C2017 C2023 1.390 . S
C2018 H2009 0.930 . S
C2018 C2016 1.384 . S
C2018 C2019 1.372 . S
C2019 C2018 1.372 . S
C2019 C2020 1.400 . S
C2019 C2024 1.490 . S
C2020 H2010 0.930 . S
C2020 C2019 1.400 . S
C2020 C2023 1.386 . S
H2021 C2037 0.930 . S
H2022 C2038 0.931 . S
C2023 H2011 0.929 . S
C2023 C2017 1.390 . S
C2023 C2020 1.386 . S
C2024 C2019 1.490 . S
C2024 C2026 1.395 . S
C2024 C2027 1.403 . S
H2025 C2031 0.930 . S
C2026 H2012 0.930 . S
C2026 C2024 1.395 . S
C2026 C2029 1.403 . S
C2027 C2024 1.403 . S
C2027 C2028 1.524 . S
C2027 C2031 1.400 . S
C2028 H2013 0.960 . S
C2028 H2014 0.960 . S
C2028 H2015 0.960 . S
C2028 C2027 1.524 . S
C2029 C2026 1.403 . S
C2029 C2030 1.392 . S
C2029 C2033 1.495 . S
C2030 C2029 1.392 . S
C2030 C2031 1.385 . S
C2030 C2032 1.478 . S
C2031 H2025 0.930 . S
C2031 C2027 1.400 . S
C2031 C2030 1.385 . S
C2032 C2030 1.478 . S
C2032 C2034 1.381 . S
C2032 C2038 1.383 . S
C2033 C2029 1.495 . S
C2033 H2039 0.959 . S
C2033 H2040 0.961 . S
C2033 H2041 0.960 . S
C2034 C2032 1.381 . S
C2034 C2035 1.394 . S
C2034 H2042 0.930 . S
C2035 C2034 1.394 . S
C2035 C2036 1.383 . S
C2035 H2043 0.929 . S
C2036 C2035 1.383 . S
C2036 C2037 1.377 . S
C2037 H2021 0.930 . S
C2037 C2036 1.377 . S
C2037 C2038 1.379 . S
C2038 H2022 0.931 . S
C2038 C2032 1.383 . S
C2038 C2037 1.379 . S
H2039 C2033 0.959 . S
H2040 C2033 0.961 . S
H2041 C2033 0.960 . S
H2042 C2034 0.930 . S
H2043 C2035 0.929 . S
H2044 C2052 0.929 . S
H2045 C2054 0.930 . S
H2046 C2056 0.930 . S
H2047 C2059 0.929 . S
H2048 C2062 0.930 . S
H2049 C2064 0.960 . S
H2050 C2064 0.960 . S
H2051 C2064 0.960 . S
C2052 H2044 0.929 . S
C2052 C2053 1.377 . S
C2052 C2054 1.384 . S
C2053 C2052 1.377 . S
C2053 C2059 1.390 . S
C2054 H2045 0.930 . S
C2054 C2052 1.384 . S
C2054 C2055 1.372 . S
C2055 C2054 1.372 . S
C2055 C2056 1.400 . S
C2055 C2060 1.490 . S
C2056 H2046 0.930 . S
C2056 C2055 1.400 . S
C2056 C2059 1.386 . S
H2057 C2073 0.930 . S
H2058 C2074 0.931 . S
C2059 H2047 0.929 . S
C2059 C2053 1.390 . S
C2059 C2056 1.386 . S
C2060 C2055 1.490 . S
C2060 C2062 1.395 . S
C2060 C2063 1.403 . S
H2061 C2067 0.930 . S
C2062 H2048 0.930 . S
C2062 C2060 1.395 . S
C2062 C2065 1.403 . S
C2063 C2060 1.403 . S
C2063 C2064 1.524 1_565 S
C2063 C2067 1.400 1_565 S
C2064 H2049 0.960 . S
C2064 H2050 0.960 . S
C2064 H2051 0.960 . S
C2064 C2063 1.524 1_545 S
C2065 C2062 1.403 . S
C2065 C2066 1.392 . S
C2065 C2069 1.495 . S
C2066 C2065 1.392 . S
C2066 C2067 1.385 1_565 S
C2066 C2068 1.478 1_565 S
C2067 H2061 0.930 . S
C2067 C2063 1.400 1_545 S
C2067 C2066 1.385 1_545 S
C2068 C2066 1.478 1_545 S
C2068 C2070 1.381 . S
C2068 C2074 1.383 . S
C2069 C2065 1.495 . S
C2069 H2075 0.959 . S
C2069 H2076 0.961 . S
C2069 H2077 0.960 . S
C2070 C2068 1.381 . S
C2070 C2071 1.394 . S
C2070 H2078 0.930 1_545 S
C2071 C2070 1.394 . S
C2071 C2072 1.383 . S
C2071 H2079 0.929 . S
C2072 C2071 1.383 . S
C2072 C2073 1.377 . S
C2073 H2057 0.930 . S
C2073 C2072 1.377 . S
C2073 C2074 1.379 . S
C2074 H2058 0.931 . S
C2074 C2068 1.383 . S
C2074 C2073 1.379 . S
H2075 C2069 0.959 . S
H2076 C2069 0.961 . S
H2077 C2069 0.960 . S
H2078 C2070 0.930 1_565 S
H2079 C2071 0.929 . S
C361 C7 0.832 . S
C380 C271 0.818 . S
C397 C125 0.832 . S
C416 C29 0.813 . S
C433 C65 0.834 . S
C452 C323 0.803 . S
C469 C73 0.832 . S
C488 C175 0.809 . S
C505 C95 0.847 . S
C524 C183 0.877 . S
C541 C227 0.837 . S
C560 C147 0.863 . S
C577 C307 0.848 . S
C596 C219 0.865 . S
C613 C249 0.848 . S
C632 C337 0.844 . S
C649 C213 1.515 . S
C668 C10 1.471 . S
C685 C32 1.493 . S
C704 C241 1.507 . S
C721 C62 1.489 . S
C740 C263 1.517 . S
C757 C197 1.515 . S
C776 C76 1.471 . S
C793 C301 1.511 . S
C812 C98 1.496 . S
C829 C315 1.513 . S
C848 C118 1.505 . S
C865 C140 1.491 . S
C884 C351 1.516 . S
C901 C285 1.513 . S
C920 C172 1.507 . S
C937 C186 1.494 . S
C956 C43 1.505 . S
C973 C216 1.493 . S
C992 C59 1.508 . S
C1009 C230 1.488 . S
C1028 C87 1.518 . S
C1045 C21 1.511 . S
C1064 C252 1.503 . S
C1081 C117 1.515 . S
C1100 C274 1.506 . S
C1117 C304 1.492 . S
C1136 C139 1.518 . S
C1153 C169 1.512 . S
C1172 C316 1.471 . S
C1189 C340 1.494 . S
C1208 C109 1.506 . S
C1225 C8 0.543 . S
C1244 C228 0.588 . S
C1261 C30 0.527 . S
C1280 C250 0.480 . S
C1297 C184 0.525 . S
C1316 C54 0.571 . S
C1333 C74 0.536 . S
C1352 C208 0.603 . S
C1369 C96 0.529 . S
C1388 C326 0.493 . S
C1405 C128 0.511 . S
C1424 C338 0.590 . S
C1441 C272 0.523 . S
C1460 C150 0.572 . S
C1477 C164 0.516 . S
C1496 C296 0.559 . S
C1513 C18 1.453 . S
C1532 C161 1.451 . S
C1549 C279 1.476 . S
C1568 C40 1.422 . S
C1585 C52 1.445 . S
C1604 C131 1.491 . S
C1621 C84 1.448 1_455 S
C1640 C329 1.458 . S
C1657 C106 1.444 . S
C1676 C81 1.485 . S
C1693 C191 1.480 . S
C1712 C120 1.434 . S
C1729 C142 1.455 . S
C1748 C37 1.470 . S
C1765 C235 1.478 . S
C1784 C162 1.461 1_655 S
C1801 C194 1.454 . S
C1820 C345 1.451 1_565 S
C1837 C103 1.471 . S
C1856 C206 1.460 1_655 S
C1873 C293 1.477 1_545 S
C1892 C238 1.466 . S
C1909 C260 1.446 . S
C1928 C153 1.466 . S
C1945 C282 1.452 . S
C1964 C257 1.486 1_545 S
C1981 C294 1.448 1_455 S
C2000 C15 1.494 . S
C2017 C205 1.480 1_565 S
C2036 C318 1.424 . S
C2053 C51 1.480 . S
C2072 C348 1.421 . S
