# Generated by pormake.
# Topology whw, (6)-cn, num edge types: 1
# Building blocks:
#     Node 0, Type 0, BuildingBlock: CIFDUS_clean_sbu_1, # of connection points: 6
#     Node 1, Type 0, BuildingBlock: CIFDUS_clean_sbu_1, # of connection points: 6
#     Node 2, Type 0, BuildingBlock: CIFDUS_clean_sbu_1, # of connection points: 6
#     Node 3, Type 0, BuildingBlock: CIFDUS_clean_sbu_1, # of connection points: 6
#     Node 4, Type 0, BuildingBlock: CIFDUS_clean_sbu_1, # of connection points: 6
#     Node 5, Type 0, BuildingBlock: CIFDUS_clean_sbu_1, # of connection points: 6
#     Node 6, Type 0, BuildingBlock: CIFDUS_clean_sbu_1, # of connection points: 6
#     Node 7, Type 0, BuildingBlock: CIFDUS_clean_sbu_1, # of connection points: 6
#     Node 8, Type 0, BuildingBlock: CIFDUS_clean_sbu_1, # of connection points: 6
#     Node 9, Type 0, BuildingBlock: CIFDUS_clean_sbu_1, # of connection points: 6
#     Node 10, Type 0, BuildingBlock: CIFDUS_clean_sbu_1, # of connection points: 6
#     Node 11, Type 0, BuildingBlock: CIFDUS_clean_sbu_1, # of connection points: 6
#     Node 12, Type 0, BuildingBlock: CIFDUS_clean_sbu_1, # of connection points: 6
#     Node 13, Type 0, BuildingBlock: CIFDUS_clean_sbu_1, # of connection points: 6
#     Node 14, Type 0, BuildingBlock: CIFDUS_clean_sbu_1, # of connection points: 6
#     Node 15, Type 0, BuildingBlock: CIFDUS_clean_sbu_1, # of connection points: 6
#     Edge 16, Type (0, 0), BuildingBlock: UVAHIK_clean_linker_0, # of connection points: 2
#     Edge 17, Type (0, 0), BuildingBlock: UVAHIK_clean_linker_0, # of connection points: 2
#     Edge 18, Type (0, 0), BuildingBlock: UVAHIK_clean_linker_0, # of connection points: 2
#     Edge 19, Type (0, 0), BuildingBlock: UVAHIK_clean_linker_0, # of connection points: 2
#     Edge 20, Type (0, 0), BuildingBlock: UVAHIK_clean_linker_0, # of connection points: 2
#     Edge 21, Type (0, 0), BuildingBlock: UVAHIK_clean_linker_0, # of connection points: 2
#     Edge 22, Type (0, 0), BuildingBlock: UVAHIK_clean_linker_0, # of connection points: 2
#     Edge 23, Type (0, 0), BuildingBlock: UVAHIK_clean_linker_0, # of connection points: 2
#     Edge 24, Type (0, 0), BuildingBlock: UVAHIK_clean_linker_0, # of connection points: 2
#     Edge 25, Type (0, 0), BuildingBlock: UVAHIK_clean_linker_0, # of connection points: 2
#     Edge 26, Type (0, 0), BuildingBlock: UVAHIK_clean_linker_0, # of connection points: 2
#     Edge 27, Type (0, 0), BuildingBlock: UVAHIK_clean_linker_0, # of connection points: 2
#     Edge 28, Type (0, 0), BuildingBlock: UVAHIK_clean_linker_0, # of connection points: 2
#     Edge 29, Type (0, 0), BuildingBlock: UVAHIK_clean_linker_0, # of connection points: 2
#     Edge 30, Type (0, 0), BuildingBlock: UVAHIK_clean_linker_0, # of connection points: 2
#     Edge 31, Type (0, 0), BuildingBlock: UVAHIK_clean_linker_0, # of connection points: 2
#     Edge 32, Type (0, 0), BuildingBlock: UVAHIK_clean_linker_0, # of connection points: 2
#     Edge 33, Type (0, 0), BuildingBlock: UVAHIK_clean_linker_0, # of connection points: 2
#     Edge 34, Type (0, 0), BuildingBlock: UVAHIK_clean_linker_0, # of connection points: 2
#     Edge 35, Type (0, 0), BuildingBlock: UVAHIK_clean_linker_0, # of connection points: 2
#     Edge 36, Type (0, 0), BuildingBlock: UVAHIK_clean_linker_0, # of connection points: 2
#     Edge 37, Type (0, 0), BuildingBlock: UVAHIK_clean_linker_0, # of connection points: 2
#     Edge 38, Type (0, 0), BuildingBlock: UVAHIK_clean_linker_0, # of connection points: 2
#     Edge 39, Type (0, 0), BuildingBlock: UVAHIK_clean_linker_0, # of connection points: 2
#     Edge 40, Type (0, 0), BuildingBlock: UVAHIK_clean_linker_0, # of connection points: 2
#     Edge 41, Type (0, 0), BuildingBlock: UVAHIK_clean_linker_0, # of connection points: 2
#     Edge 42, Type (0, 0), BuildingBlock: UVAHIK_clean_linker_0, # of connection points: 2
#     Edge 43, Type (0, 0), BuildingBlock: UVAHIK_clean_linker_0, # of connection points: 2
#     Edge 44, Type (0, 0), BuildingBlock: UVAHIK_clean_linker_0, # of connection points: 2
#     Edge 45, Type (0, 0), BuildingBlock: UVAHIK_clean_linker_0, # of connection points: 2
#     Edge 46, Type (0, 0), BuildingBlock: UVAHIK_clean_linker_0, # of connection points: 2
#     Edge 47, Type (0, 0), BuildingBlock: UVAHIK_clean_linker_0, # of connection points: 2
#     Edge 48, Type (0, 0), BuildingBlock: UVAHIK_clean_linker_0, # of connection points: 2
#     Edge 49, Type (0, 0), BuildingBlock: UVAHIK_clean_linker_0, # of connection points: 2
#     Edge 50, Type (0, 0), BuildingBlock: UVAHIK_clean_linker_0, # of connection points: 2
#     Edge 51, Type (0, 0), BuildingBlock: UVAHIK_clean_linker_0, # of connection points: 2
#     Edge 52, Type (0, 0), BuildingBlock: UVAHIK_clean_linker_0, # of connection points: 2
#     Edge 53, Type (0, 0), BuildingBlock: UVAHIK_clean_linker_0, # of connection points: 2
#     Edge 54, Type (0, 0), BuildingBlock: UVAHIK_clean_linker_0, # of connection points: 2
#     Edge 55, Type (0, 0), BuildingBlock: UVAHIK_clean_linker_0, # of connection points: 2
#     Edge 56, Type (0, 0), BuildingBlock: UVAHIK_clean_linker_0, # of connection points: 2
#     Edge 57, Type (0, 0), BuildingBlock: UVAHIK_clean_linker_0, # of connection points: 2
#     Edge 58, Type (0, 0), BuildingBlock: UVAHIK_clean_linker_0, # of connection points: 2
#     Edge 59, Type (0, 0), BuildingBlock: UVAHIK_clean_linker_0, # of connection points: 2
#     Edge 60, Type (0, 0), BuildingBlock: UVAHIK_clean_linker_0, # of connection points: 2
#     Edge 61, Type (0, 0), BuildingBlock: UVAHIK_clean_linker_0, # of connection points: 2
#     Edge 62, Type (0, 0), BuildingBlock: UVAHIK_clean_linker_0, # of connection points: 2
#     Edge 63, Type (0, 0), BuildingBlock: UVAHIK_clean_linker_0, # of connection points: 2
# Relax obj value: 0.550
# Max RMSD: 0.239
# Mean RMSD: 0.239
data_MOF--net-whw--node1-CIFDUS_clean_sbu_1--edge1-UVAHIK_clean_linker_0
_symmetry_space_group_name_H-M    P1
_symmetry_Int_Tables_number       1
_symmetry_cell_setting            triclinic
loop_
_symmetry_equiv_pos_as_xyz
'x, y, z'
_cell_length_a     64.302328
_cell_length_b     64.290744
_cell_length_c     31.228487
_cell_angle_alpha  89.997772
_cell_angle_beta   90.007042
_cell_angle_gamma 90.023472
loop_
_atom_site_label
_atom_site_type_symbol
_atom_site_fract_x
_atom_site_fract_y
_atom_site_fract_z
_atom_type_partial_charge
O0 O 0.05012 0.12933 0.08304 0.0
Mn1 Mn 0.02598 0.13453 0.12799 0.0
O2 O 0.06504 0.16037 0.07084 0.0
Mn3 Mn 0.04097 0.17493 0.08221 0.0
O4 O 0.00175 0.13983 0.17305 0.0
O5 O 0.02012 0.10366 0.12653 0.0
Mn6 Mn 0.01539 0.09522 0.17962 0.0
O7 O 0.04696 0.13029 0.17786 0.0
O8 O 0.99193 0.10868 0.19854 0.0
O9 O 0.0056 0.14011 0.07665 0.0
O10 O 0.01893 0.16906 0.04517 0.0
O11 O 0.01369 0.07175 0.14672 0.0
O12 O 0.03903 0.10061 0.21199 0.0
C13 C 0.03383 0.18291 0.14765 0.0
C14 C 0.06483 0.14066 0.06734 0.0
C15 C 0.9899 0.12833 0.1967 0.0
C16 C 0.01818 0.08431 0.11564 0.0
C17 C 0.05025 0.11681 0.20735 0.0
C18 C 0.00573 0.15411 0.04691 0.0
O19 O 0.0325 0.16474 0.13097 0.0
O20 O 0.04029 0.19691 0.1211 0.0
O21 O 0.12816 0.79993 0.39848 0.0
Mn22 Mn 0.12156 0.77965 0.34869 0.0
O23 O 0.15752 0.78966 0.43064 0.0
Mn24 Mn 0.16064 0.76613 0.39658 0.0
O25 O 0.11328 0.75949 0.2982 0.0
O26 O 0.09225 0.78833 0.35577 0.0
Mn27 Mn 0.07924 0.79447 0.30866 0.0
O28 O 0.12665 0.80372 0.30379 0.0
O29 O 0.08066 0.76938 0.27922 0.0
O30 O 0.11559 0.75555 0.39331 0.0
O31 O 0.14624 0.74336 0.41628 0.0
O32 O 0.06082 0.79922 0.35398 0.0
O33 O 0.09482 0.81595 0.28593 0.0
C34 C 0.17118 0.76826 0.33249 0.0
C35 C 0.142 0.8019 0.42768 0.0
C36 C 0.09631 0.75712 0.27646 0.0
C37 C 0.07618 0.79326 0.37763 0.0
C38 C 0.11463 0.81677 0.28438 0.0
C39 C 0.1265 0.74266 0.41555 0.0
O40 O 0.15206 0.77187 0.34372 0.0
O41 O 0.18358 0.7627 0.36313 0.0
O42 O 0.4429 0.85995 0.58744 0.0
Mn43 Mn 0.46347 0.86363 0.63965 0.0
O44 O 0.44843 0.8276 0.56155 0.0
Mn45 Mn 0.47356 0.82294 0.58876 0.0
O46 O 0.48328 0.86703 0.69261 0.0
O47 O 0.45701 0.89453 0.64122 0.0
Mn48 Mn 0.44826 0.9 0.69399 0.0
O49 O 0.43882 0.85612 0.6804 0.0
O50 O 0.47015 0.89372 0.73073 0.0
O51 O 0.48815 0.86936 0.59677 0.0
O52 O 0.496 0.83795 0.56784 0.0
O53 O 0.44726 0.9249 0.66586 0.0
O54 O 0.42427 0.88521 0.70495 0.0
C55 C 0.47237 0.81519 0.6559 0.0
C56 C 0.43815 0.84454 0.56282 0.0
C57 C 0.48327 0.879 0.72572 0.0
C58 C 0.45471 0.91431 0.63409 0.0
C59 C 0.42433 0.86558 0.70072 0.0
C60 C 0.49922 0.85744 0.57245 0.0
O61 O 0.46992 0.83338 0.63982 0.0
O62 O 0.47618 0.80109 0.62748 0.0
O63 O 0.39151 0.20025 0.8535 0.0
Mn64 Mn 0.38428 0.2214 0.90302 0.0
O65 O 0.42297 0.20998 0.82782 0.0
Mn66 Mn 0.42341 0.23643 0.85164 0.0
O67 O 0.3779 0.24198 0.9528 0.0
O68 O 0.35475 0.21061 0.90527 0.0
Mn69 Mn 0.34936 0.20349 0.95904 0.0
O70 O 0.39452 0.1996 0.94824 0.0
O71 O 0.35217 0.22763 0.99174 0.0
O72 O 0.37526 0.24384 0.85718 0.0
O73 O 0.40528 0.25548 0.82764 0.0
O74 O 0.32544 0.198 0.92913 0.0
O75 O 0.36726 0.18234 0.97476 0.0
C76 C 0.4298 0.23964 0.91929 0.0
C77 C 0.40768 0.19733 0.82971 0.0
C78 C 0.36556 0.242 0.98519 0.0
C79 C 0.33571 0.20542 0.89689 0.0
C80 C 0.38673 0.18495 0.97106 0.0
C81 C 0.38554 0.25603 0.83198 0.0
O82 O 0.41311 0.23237 0.90264 0.0
O83 O 0.44344 0.24508 0.89106 0.0
O84 O 0.02734 0.87026 0.89792 0.0
Mn85 Mn 0.00312 0.86298 0.85477 0.0
O86 O 0.0362 0.83973 0.92896 0.0
Mn87 Mn 0.01491 0.82346 0.9074 0.0
O88 O 0.97893 0.85506 0.81235 0.0
O89 O 0.99557 0.89326 0.85135 0.0
Mn90 Mn 0.98929 0.89978 0.79779 0.0
O91 O 0.02363 0.86672 0.80393 0.0
O92 O 0.96649 0.88409 0.78205 0.0
O93 O 0.98232 0.85867 0.90637 0.0
O94 O 0.9892 0.82677 0.93338 0.0
O95 O 0.9874 0.92411 0.82871 0.0
O96 O 0.01306 0.89437 0.76557 0.0
C97 C 0.01721 0.81546 0.84031 0.0
C98 C 0.03891 0.85917 0.92284 0.0
C99 C 0.96602 0.86448 0.78753 0.0
C100 C 0.99365 0.91275 0.86042 0.0
C101 C 0.02563 0.87934 0.77234 0.0
C102 C 0.97823 0.84329 0.93158 0.0
O103 O 0.01119 0.83305 0.85552 0.0
O104 O 0.02128 0.80196 0.86985 0.0
O105 O 0.37963 0.75878 0.16976 0.0
Mn106 Mn 0.39167 0.73676 0.12604 0.0
O107 O 0.40615 0.78066 0.18494 0.0
Mn108 Mn 0.42736 0.76443 0.16312 0.0
O109 O 0.40434 0.71529 0.08278 0.0
O110 O 0.36673 0.71896 0.13444 0.0
Mn111 Mn 0.36032 0.70473 0.08819 0.0
O112 O 0.37691 0.75094 0.07505 0.0
O113 O 0.38315 0.68773 0.07854 0.0
O114 O 0.40641 0.72156 0.17679 0.0
O115 O 0.43419 0.74096 0.19555 0.0
O116 O 0.33867 0.70142 0.12738 0.0
O117 O 0.35733 0.72529 0.04594 0.0
C118 C 0.43164 0.76252 0.09455 0.0
C119 C 0.3871 0.77522 0.18795 0.0
C120 C 0.40038 0.69665 0.07029 0.0
C121 C 0.34858 0.71516 0.14967 0.0
C122 C 0.3649 0.74377 0.04558 0.0
C123 C 0.42295 0.72461 0.1991 0.0
O124 O 0.41668 0.75433 0.11594 0.0
O125 O 0.44421 0.77325 0.1181 0.0
O126 O 0.5087 0.12269 0.44944 0.0
Mn127 Mn 0.53123 0.13043 0.40273 0.0
O128 O 0.49753 0.15334 0.4767 0.0
Mn129 Mn 0.51783 0.17022 0.45329 0.0
O130 O 0.55315 0.13936 0.35632 0.0
O131 O 0.54046 0.10032 0.40122 0.0
Mn132 Mn 0.54793 0.09454 0.34783 0.0
O133 O 0.51022 0.12445 0.35379 0.0
O134 O 0.57016 0.11129 0.33306 0.0
O135 O 0.55291 0.13699 0.45171 0.0
O136 O 0.54396 0.16852 0.4781 0.0
O137 O 0.55166 0.07035 0.378 0.0
O138 O 0.52414 0.09863 0.31434 0.0
C139 C 0.5161 0.17742 0.38617 0.0
C140 C 0.49656 0.13357 0.47364 0.0
C141 C 0.56779 0.13086 0.33447 0.0
C142 C 0.54419 0.08093 0.40975 0.0
C143 C 0.50998 0.11222 0.32122 0.0
C144 C 0.55624 0.15294 0.47591 0.0
O145 O 0.52167 0.1599 0.40222 0.0
O146 O 0.51115 0.19114 0.41463 0.0
O147 O 0.12711 0.22568 0.57901 0.0
Mn148 Mn 0.12044 0.2472 0.62678 0.0
O149 O 0.1548 0.23744 0.5424 0.0
Mn150 Mn 0.15665 0.26277 0.57093 0.0
O151 O 0.11339 0.26906 0.6751 0.0
O152 O 0.09145 0.23571 0.62692 0.0
Mn153 Mn 0.08163 0.23392 0.67921 0.0
O154 O 0.12934 0.22553 0.67404 0.0
O155 O 0.0813 0.26107 0.69903 0.0
O156 O 0.11073 0.26892 0.58012 0.0
O157 O 0.13903 0.28297 0.55001 0.0
O158 O 0.06129 0.22336 0.64341 0.0
O159 O 0.09958 0.21615 0.70755 0.0
C160 C 0.16884 0.26334 0.63442 0.0
C161 C 0.14065 0.22388 0.54902 0.0
C162 C 0.09705 0.2731 0.69756 0.0
C163 C 0.07443 0.22742 0.61316 0.0
C164 C 0.1192 0.21486 0.70214 0.0
C165 C 0.11938 0.28177 0.55393 0.0
O166 O 0.14998 0.2579 0.625 0.0
O167 O 0.17985 0.26954 0.60214 0.0
O168 O 0.87724 0.282 0.66445 0.0
Mn169 Mn 0.88455 0.25813 0.61993 0.0
O170 O 0.90676 0.30005 0.6746 0.0
Mn171 Mn 0.92373 0.27782 0.66221 0.0
O172 O 0.89202 0.23459 0.57492 0.0
O173 O 0.85474 0.24818 0.62439 0.0
Mn174 Mn 0.84577 0.24294 0.57186 0.0
O175 O 0.8768 0.27803 0.56999 0.0
O176 O 0.86192 0.22213 0.54894 0.0
O177 O 0.89346 0.2389 0.67119 0.0
O178 O 0.92133 0.25546 0.69998 0.0
O179 O 0.82377 0.2369 0.60674 0.0
O180 O 0.84653 0.26775 0.54141 0.0
C181 C 0.9314 0.27157 0.59635 0.0
C182 C 0.88722 0.29791 0.6792 0.0
C183 C 0.88169 0.22212 0.55042 0.0
C184 C 0.83615 0.24316 0.63683 0.0
C185 C 0.86181 0.28034 0.5433 0.0
C186 C 0.90791 0.24071 0.69973 0.0
O187 O 0.91373 0.26819 0.61419 0.0
O188 O 0.94496 0.27968 0.62193 0.0
O189 O 0.62643 0.75318 0.08662 0.0
Mn190 Mn 0.61666 0.76991 0.13971 0.0
O191 O 0.64753 0.77484 0.04997 0.0
Mn192 Mn 0.64751 0.79686 0.08904 0.0
O193 O 0.60666 0.78757 0.19276 0.0
O194 O 0.58999 0.75391 0.13723 0.0
Mn195 Mn 0.58064 0.74814 0.18857 0.0
O196 O 0.62935 0.74752 0.18163 0.0
O197 O 0.57607 0.77387 0.21368 0.0
O198 O 0.60258 0.79205 0.09916 0.0
O199 O 0.6263 0.8157 0.08069 0.0
O200 O 0.56233 0.73608 0.15011 0.0
O201 O 0.60149 0.73215 0.2127 0.0
C202 C 0.66263 0.79164 0.14914 0.0
C203 C 0.63773 0.7576 0.05391 0.0
C204 C 0.58984 0.78814 0.2152 0.0
C205 C 0.57475 0.74344 0.12126 0.0
C206 C 0.62107 0.734 0.20706 0.0
C207 C 0.6076 0.80934 0.08118 0.0
O208 O 0.64409 0.78519 0.13982 0.0
O209 O 0.67102 0.80321 0.11994 0.0
O210 O 0.60966 0.29855 0.94639 0.0
Mn211 Mn 0.61901 0.27638 0.90099 0.0
O212 O 0.63809 0.30998 0.9808 0.0
Mn213 Mn 0.65554 0.28979 0.95877 0.0
O214 O 0.62746 0.25377 0.85522 0.0
O215 O 0.58965 0.26665 0.89926 0.0
Mn216 Mn 0.57989 0.2634 0.84752 0.0
O217 O 0.61322 0.29806 0.85127 0.0
O218 O 0.59736 0.24364 0.82369 0.0
O219 O 0.62403 0.25516 0.95073 0.0
O220 O 0.65327 0.26412 0.98575 0.0
O221 O 0.55863 0.25607 0.88507 0.0
O222 O 0.58166 0.28979 0.82419 0.0
C223 C 0.66789 0.29113 0.8955 0.0
C224 C 0.61853 0.31026 0.97436 0.0
C225 C 0.617 0.24226 0.82903 0.0
C226 C 0.57211 0.2606 0.9143 0.0
C227 C 0.59744 0.30177 0.82679 0.0
C228 C 0.63778 0.25208 0.98002 0.0
O229 O 0.6489 0.28597 0.90425 0.0
O230 O 0.67898 0.29651 0.92831 0.0
O231 O 0.89351 0.70008 0.30312 0.0
Mn232 Mn 0.8929 0.72119 0.35546 0.0
O233 O 0.92694 0.69832 0.28196 0.0
Mn234 Mn 0.93467 0.72347 0.30521 0.0
O235 O 0.89261 0.74112 0.40895 0.0
O236 O 0.86131 0.7196 0.35569 0.0
Mn237 Mn 0.85361 0.71459 0.40933 0.0
O238 O 0.89554 0.69562 0.39652 0.0
O239 O 0.86199 0.73689 0.4428 0.0
O240 O 0.89155 0.74652 0.31258 0.0
O241 O 0.92317 0.74704 0.2804 0.0
O242 O 0.82935 0.71586 0.37924 0.0
O243 O 0.86443 0.68925 0.42588 0.0
C244 C 0.94251 0.72536 0.37173 0.0
C245 C 0.90833 0.69158 0.28133 0.0
C246 C 0.87978 0.74542 0.43942 0.0
C247 C 0.84153 0.71966 0.34714 0.0
C248 C 0.88341 0.68455 0.41993 0.0
C249 C 0.90493 0.75441 0.28627 0.0
O250 O 0.92399 0.72318 0.35664 0.0
O251 O 0.95685 0.72558 0.34275 0.0
O252 O 0.56567 0.63878 0.58693 0.0
Mn253 Mn 0.54209 0.63458 0.63348 0.0
O254 O 0.56455 0.67275 0.56873 0.0
Mn255 Mn 0.53712 0.67669 0.58438 0.0
O256 O 0.51919 0.63094 0.68033 0.0
O257 O 0.54785 0.60351 0.63465 0.0
Mn258 Mn 0.55243 0.59696 0.68921 0.0
O259 O 0.56415 0.64086 0.68096 0.0
O260 O 0.52809 0.60284 0.7191 0.0
O261 O 0.52024 0.63024 0.5841 0.0
O262 O 0.51788 0.6619 0.55216 0.0
O263 O 0.55518 0.57255 0.65984 0.0
O264 O 0.57545 0.61108 0.70926 0.0
C265 C 0.52999 0.68203 0.65101 0.0
C266 C 0.57338 0.655 0.56834 0.0
C267 C 0.51616 0.6183 0.71171 0.0
C268 C 0.5502 0.58378 0.62695 0.0
C269 C 0.57644 0.63072 0.70562 0.0
C270 C 0.51285 0.64272 0.55547 0.0
O271 O 0.53589 0.66479 0.63443 0.0
O272 O 0.52874 0.69696 0.62345 0.0
O273 O 0.95613 0.37231 0.07412 0.0
Mn274 Mn 0.97883 0.36841 0.12229 0.0
O275 O 0.95303 0.3411 0.04141 0.0
Mn276 Mn 0.97536 0.32817 0.06744 0.0
O277 O 0.00124 0.3644 0.17064 0.0
O278 O 0.98202 0.39954 0.12593 0.0
Mn279 Mn 0.98069 0.40708 0.18038 0.0
O280 O 0.95521 0.36858 0.16809 0.0
O281 O 0.00241 0.39404 0.20871 0.0
O282 O 0.00247 0.36748 0.07542 0.0
O283 O 0.0013 0.33532 0.04633 0.0
O284 O 0.98465 0.43127 0.15019 0.0
O285 O 0.95454 0.39976 0.20006 0.0
C286 C 0.97144 0.31879 0.13318 0.0
C287 C 0.94748 0.35994 0.04691 0.0
C288 C 0.0084 0.37543 0.20181 0.0
C289 C 0.98443 0.41905 0.11725 0.0
C290 C 0.94696 0.38171 0.19397 0.0
C291 C 0.0097 0.35317 0.05055 0.0
O292 O 0.97519 0.33747 0.12026 0.0
O293 O 0.97075 0.30536 0.10234 0.0
O294 O 0.49452 0.37476 0.44808 0.0
Mn295 Mn 0.47077 0.36687 0.40411 0.0
O296 O 0.50466 0.3442 0.47796 0.0
Mn297 Mn 0.48361 0.32737 0.45689 0.0
O298 O 0.44751 0.35703 0.36139 0.0
O299 O 0.46206 0.39715 0.40088 0.0
Mn300 Mn 0.45252 0.40119 0.34818 0.0
O301 O 0.49075 0.37151 0.35237 0.0
O302 O 0.42966 0.38449 0.33856 0.0
O303 O 0.44988 0.36183 0.45519 0.0
O304 O 0.45796 0.33041 0.4832 0.0
O305 O 0.4501 0.4264 0.37499 0.0
O306 O 0.4747 0.3956 0.3115 0.0
C307 C 0.4839 0.31959 0.38952 0.0
C308 C 0.5064 0.36385 0.47288 0.0
C309 C 0.43209 0.36495 0.341 0.0
C310 C 0.45871 0.41686 0.40694 0.0
C311 C 0.48935 0.38251 0.31805 0.0
C312 C 0.4463 0.34641 0.48061 0.0
O313 O 0.47967 0.3374 0.40559 0.0
O314 O 0.48839 0.30579 0.41813 0.0
O315 O 0.97613 0.62084 0.88773 0.0
Mn316 Mn 0.99733 0.63329 0.84239 0.0
O317 O 0.95043 0.64441 0.89405 0.0
Mn318 Mn 0.96695 0.66671 0.87932 0.0
O319 O 0.01769 0.64639 0.7971 0.0
O320 O 0.01563 0.60822 0.85058 0.0
Mn321 Mn 0.02832 0.60243 0.80187 0.0
O322 O 0.98245 0.61815 0.79244 0.0
O323 O 0.04461 0.62501 0.78734 0.0
O324 O 0.01239 0.64875 0.89239 0.0
O325 O 0.98887 0.67197 0.91736 0.0
O326 O 0.03671 0.58235 0.8402 0.0
O327 O 0.00678 0.5972 0.76313 0.0
C328 C 0.97209 0.6737 0.81242 0.0
C329 C 0.95806 0.62651 0.90163 0.0
C330 C 0.03563 0.64232 0.78108 0.0
C331 C 0.02391 0.59152 0.86602 0.0
C332 C 0.98854 0.60522 0.76361 0.0
C333 C 0.0067 0.66304 0.91886 0.0
O334 O 0.97933 0.65801 0.83295 0.0
O335 O 0.96008 0.68524 0.83554 0.0
C336 C 0.10032 0.13632 0.03734 0.0
C337 C 0.07893 0.13229 0.03443 0.0
C338 C 0.11265 0.137 1.00038 0.0
C339 C 0.10918 0.13427 0.87889 0.0
H340 H 0.14804 0.18008 0.88784 0.0
C341 C 0.13028 0.18006 0.72788 0.0
C342 C 0.1301 0.2017 0.7334 0.0
C343 C 0.1322 0.16681 0.76337 0.0
C344 C 0.13712 0.16738 0.88445 0.0
H345 H 0.0539 0.12433 0.9913 0.0
H346 H 0.07475 0.12646 0.92701 0.0
H347 H 0.13468 0.16425 0.95203 0.0
H348 H 0.13297 0.22657 0.77948 0.0
H349 H 0.13573 0.20396 0.84112 0.0
H350 H 0.10988 0.13902 0.81134 0.0
C351 C 0.08259 0.1284 0.95738 0.0
C352 C 0.12968 0.15784 0.92172 0.0
C353 C 0.07047 0.12703 0.99451 0.0
C354 C 0.1336 0.2099 0.77432 0.0
C355 C 0.13511 0.19676 0.80984 0.0
C356 C 0.11616 0.14423 0.84164 0.0
C357 C 0.10365 0.13461 0.95945 0.0
C358 C 0.11491 0.14164 0.91973 0.0
C359 C 0.13333 0.17499 0.80526 0.0
C360 C 0.12959 0.16153 0.84388 0.0
H361 H 0.10716 0.14061 0.06779 0.0
H362 H 0.12893 0.14088 0.00394 0.0
H363 H 0.0985 0.12138 0.87544 0.0
H364 H 0.1272 0.17338 0.69666 0.0
H365 H 0.13143 0.15019 0.75806 0.0
C366 C 0.13175 0.82486 0.21527 0.0
C367 C 0.12301 0.83203 0.2537 0.0
C368 C 0.13053 0.83704 0.17809 0.0
C369 C 0.1249 0.86571 0.1006 0.0
H370 H 0.06713 0.88282 0.09626 0.0
C371 C 0.07458 0.85742 0.95207 0.0
C372 C 0.05595 0.86863 0.9479 0.0
C373 C 0.08821 0.86143 0.9858 0.0
C374 C 0.08347 0.87881 0.09674 0.0
H375 H 0.10869 0.85838 0.28499 0.0
H376 H 0.10745 0.88001 0.22089 0.0
H377 H 0.08272 0.87419 0.16433 0.0
H378 H 0.03797 0.89432 0.97291 0.0
H379 H 0.06209 0.90177 0.03187 0.0
H380 H 0.12525 0.8695 0.03243 0.0
C381 C 0.11465 0.86481 0.21884 0.0
C382 C 0.09249 0.87376 0.1361 0.0
C383 C 0.11566 0.85257 0.25576 0.0
C384 C 0.05228 0.8855 0.97536 0.0
C385 C 0.06598 0.88954 0.00944 0.0
C386 C 0.1159 0.87093 0.06111 0.0
C387 C 0.12066 0.85662 0.17896 0.0
C388 C 0.11306 0.86633 0.13842 0.0
C389 C 0.08353 0.87676 0.01645 0.0
C390 C 0.09476 0.87664 0.05843 0.0
H391 H 0.13716 0.80894 0.21269 0.0
H392 H 0.13533 0.83018 0.14801 0.0
H393 H 0.14086 0.86036 0.10127 0.0
H394 H 0.07776 0.84432 0.93125 0.0
H395 H 0.10138 0.85114 0.98987 0.0
C396 C 0.37946 0.8082 0.22587 0.0
C397 C 0.37478 0.78706 0.21968 0.0
C398 C 0.37556 0.81781 0.26513 0.0
C399 C 0.37511 0.80074 0.37687 0.0
H400 H 0.37546 0.86015 0.39836 0.0
C401 C 0.42108 0.85803 0.49661 0.0
C402 C 0.42018 0.84572 0.53364 0.0
C403 C 0.40765 0.854 0.46213 0.0
C404 C 0.37531 0.84351 0.39296 0.0
H405 H 0.35952 0.76025 0.24745 0.0
H406 H 0.35201 0.77722 0.31587 0.0
H407 H 0.3636 0.84697 0.32909 0.0
H408 H 0.40369 0.82078 0.56538 0.0
H409 H 0.37977 0.81425 0.50621 0.0
H410 H 0.38753 0.79722 0.43979 0.0
C411 C 0.3594 0.78622 0.29082 0.0
C412 C 0.3685 0.83592 0.35322 0.0
C413 C 0.36337 0.77655 0.25133 0.0
C414 C 0.40454 0.83059 0.53721 0.0
C415 C 0.39103 0.82669 0.50309 0.0
C416 C 0.38175 0.80829 0.41653 0.0
C417 C 0.36679 0.80651 0.2992 0.0
C418 C 0.36904 0.81444 0.34405 0.0
C419 C 0.39313 0.83758 0.46425 0.0
C420 C 0.38261 0.82981 0.42468 0.0
H421 H 0.38816 0.81673 0.20186 0.0
H422 H 0.38146 0.83341 0.26988 0.0
H423 H 0.37619 0.78416 0.37114 0.0
H424 H 0.4333 0.86949 0.49285 0.0
H425 H 0.40983 0.86262 0.43268 0.0
C426 C 0.4248 0.16437 0.80825 0.0
C427 C 0.409 0.17903 0.80141 0.0
C428 C 0.43044 0.15043 0.77586 0.0
C429 C 0.41735 0.13244 0.66426 0.0
H430 H 0.47736 0.13033 0.65355 0.0
C431 C 0.46134 0.13148 0.50488 0.0
C432 C 0.48168 0.12358 0.50315 0.0
C433 C 0.4495 0.12969 0.54222 0.0
C434 C 0.46057 0.13019 0.65631 0.0
H435 H 0.38615 0.19025 0.75624 0.0
H436 H 0.3962 0.16631 0.6991 0.0
H437 H 0.46195 0.14382 0.71847 0.0
H438 H 0.50485 0.10577 0.53738 0.0
H439 H 0.48405 0.10232 0.6028 0.0
H440 H 0.41621 0.11988 0.60062 0.0
C441 C 0.40393 0.165 0.72978 0.0
C442 C 0.45164 0.13801 0.69381 0.0
C443 C 0.39808 0.17875 0.76254 0.0
C444 C 0.4891 0.11177 0.53771 0.0
C445 C 0.4773 0.11011 0.57538 0.0
C446 C 0.42632 0.12469 0.62653 0.0
C447 C 0.42079 0.15122 0.73538 0.0
C448 C 0.4299 0.13981 0.69798 0.0
C449 C 0.45786 0.12014 0.57889 0.0
C450 C 0.44808 0.12403 0.62159 0.0
H451 H 0.43359 0.16448 0.83786 0.0
H452 H 0.44311 0.13975 0.7819 0.0
H453 H 0.40056 0.1332 0.66648 0.0
H454 H 0.45538 0.14088 0.47881 0.0
H455 H 0.43469 0.13767 0.54356 0.0
C456 C 0.91294 0.78941 0.25785 0.0
C457 C 0.89949 0.77221 0.25864 0.0
C458 C 0.91345 0.80272 0.22247 0.0
C459 C 0.90699 0.7978 0.10736 0.0
H460 H 0.92356 0.85578 0.10676 0.0
C461 C 0.94293 0.83273 0.95562 0.0
C462 C 0.96095 0.84457 0.96242 0.0
C463 C 0.92929 0.82852 0.98954 0.0
C464 C 0.91901 0.83957 0.10626 0.0
H465 H 0.87499 0.7562 0.2245 0.0
H466 H 0.87574 0.77957 0.16237 0.0
H467 H 0.9097 0.84027 0.17226 0.0
H468 H 0.97864 0.86185 0.00927 0.0
H469 H 0.95521 0.85432 0.0687 0.0
H470 H 0.91738 0.79653 0.04254 0.0
C471 C 0.88592 0.78279 0.1892 0.0
C472 C 0.91095 0.83071 0.14383 0.0
C473 C 0.88524 0.76958 0.22501 0.0
C474 C 0.96454 0.85311 0.00307 0.0
C475 C 0.95106 0.84871 0.03716 0.0
C476 C 0.91517 0.80658 0.06998 0.0
C477 C 0.90074 0.79892 0.18667 0.0
C478 C 0.90537 0.80954 0.14518 0.0
C479 C 0.93367 0.83564 0.03129 0.0
C480 C 0.92186 0.82745 0.06913 0.0
H481 H 0.92432 0.79154 0.28307 0.0
H482 H 0.92516 0.81483 0.22166 0.0
H483 H 0.90321 0.78138 0.10728 0.0
H484 H 0.94005 0.82569 0.92466 0.0
H485 H 0.91587 0.8188 0.98339 0.0
C486 C 0.90799 0.20426 0.73016 0.0
C487 C 0.90912 0.2259 0.73599 0.0
C488 C 0.91266 0.19073 0.76429 0.0
C489 C 0.92071 0.18906 0.88301 0.0
H490 H 0.96397 0.14905 0.8572 0.0
C491 C 0.96921 0.15053 0.01796 0.0
C492 C 0.99065 0.15312 0.01112 0.0
C493 C 0.95509 0.15359 0.9841 0.0
C494 C 0.95173 0.15999 0.86498 0.0
H495 H 0.91461 0.25033 0.78242 0.0
H496 H 0.92233 0.22704 0.84145 0.0
H497 H 0.94543 0.16616 0.79879 0.0
H498 H 0.01421 0.15944 0.9633 0.0
H499 H 0.98991 0.16442 0.90473 0.0
H500 H 0.92793 0.18391 0.94914 0.0
C501 C 0.91798 0.22032 0.81093 0.0
C502 C 0.94096 0.16966 0.83144 0.0
C503 C 0.9137 0.23371 0.77694 0.0
C504 C 0.99775 0.15741 0.96951 0.0
C505 C 0.98378 0.16012 0.9358 0.0
C506 C 0.93144 0.17935 0.91654 0.0
C507 C 0.91807 0.19866 0.80493 0.0
C508 C 0.92592 0.18497 0.84002 0.0
C509 C 0.96223 0.15886 0.94277 0.0
C510 C 0.9477 0.16535 0.90792 0.0
H511 H 0.90459 0.19785 0.69886 0.0
H512 H 0.91253 0.17411 0.75866 0.0
H513 H 0.90901 0.20058 0.89075 0.0
H514 H 0.96334 0.14734 0.0498 0.0
H515 H 0.93857 0.15242 0.99049 0.0
C516 C 0.63421 0.23436 0.76025 0.0
C517 C 0.62752 0.2274 0.80051 0.0
C518 C 0.63546 0.22052 0.72571 0.0
C519 C 0.60839 0.17258 0.69259 0.0
H520 H 0.63805 0.18241 0.58651 0.0
C521 C 0.57791 0.13801 0.53513 0.0
C522 C 0.57447 0.15368 0.50465 0.0
C523 C 0.59119 0.14167 0.57006 0.0
C524 C 0.62975 0.17932 0.61601 0.0
H525 H 0.61875 0.20038 0.83749 0.0
H526 H 0.62215 0.17592 0.7781 0.0
H527 H 0.65032 0.19859 0.65267 0.0
H528 H 0.58334 0.18465 0.48458 0.0
H529 H 0.60671 0.19088 0.54447 0.0
H530 H 0.58738 0.154 0.65575 0.0
C531 C 0.62582 0.19213 0.77252 0.0
C532 C 0.63672 0.18867 0.65396 0.0
C533 C 0.62428 0.20605 0.80686 0.0
C534 C 0.58585 0.17227 0.50756 0.0
C535 C 0.5993 0.1758 0.5419 0.0
C536 C 0.60154 0.16313 0.65479 0.0
C537 C 0.6301 0.19939 0.73086 0.0
C538 C 0.62566 0.18609 0.69252 0.0
C539 C 0.60143 0.16095 0.57464 0.0
C540 C 0.61163 0.16702 0.61571 0.0
H541 H 0.63628 0.25085 0.75436 0.0
H542 H 0.6387 0.22685 0.6943 0.0
H543 H 0.59916 0.17037 0.72121 0.0
H544 H 0.5691 0.12365 0.53387 0.0
H545 H 0.59262 0.12986 0.5946 0.0
C546 C 0.53575 0.86101 0.54824 0.0
C547 C 0.51474 0.86625 0.54299 0.0
C548 C 0.54925 0.86087 0.51302 0.0
C549 C 0.55094 0.86917 0.39275 0.0
H550 H 0.58529 0.81967 0.39766 0.0
C551 C 0.56629 0.81311 0.25222 0.0
C552 C 0.58643 0.80511 0.24642 0.0
C553 C 0.56191 0.82652 0.28628 0.0
C554 C 0.57611 0.83378 0.39588 0.0
H555 H 0.49161 0.87677 0.49777 0.0
H556 H 0.51461 0.87593 0.43627 0.0
H557 H 0.57003 0.83323 0.46288 0.0
H558 H 0.61793 0.80534 0.27086 0.0
H559 H 0.61006 0.82833 0.33171 0.0
H560 H 0.55576 0.86829 0.32468 0.0
C561 C 0.5212 0.87252 0.46736 0.0
C562 C 0.56737 0.84173 0.43349 0.0
C563 C 0.50789 0.87315 0.50281 0.0
C564 C 0.60233 0.81146 0.27438 0.0
C565 C 0.59781 0.82449 0.30924 0.0
C566 C 0.55935 0.8609 0.35497 0.0
C567 C 0.5418 0.86522 0.47146 0.0
C568 C 0.55413 0.85923 0.43249 0.0
C569 C 0.57744 0.83183 0.31595 0.0
C570 C 0.5716 0.84283 0.35607 0.0
H571 H 0.5413 0.85531 0.57883 0.0
H572 H 0.56514 0.85591 0.51806 0.0
H573 H 0.54135 0.88295 0.39043 0.0
H574 H 0.55374 0.80841 0.23118 0.0
H575 H 0.54604 0.83173 0.29086 0.0
C576 C 0.62824 0.69957 0.23859 0.0
C577 C 0.63395 0.72056 0.23465 0.0
C578 C 0.63287 0.68843 0.27577 0.0
C579 C 0.63713 0.70153 0.38906 0.0
H580 H 0.63531 0.64158 0.40227 0.0
C581 C 0.60795 0.66803 0.54593 0.0
C582 C 0.59191 0.65343 0.54075 0.0
C583 C 0.62167 0.67231 0.51234 0.0
C584 C 0.63588 0.65835 0.39922 0.0
H585 H 0.65119 0.74567 0.26402 0.0
H586 H 0.65991 0.72605 0.32884 0.0
H587 H 0.64596 0.6567 0.33385 0.0
H588 H 0.5785 0.63075 0.49773 0.0
H589 H 0.60218 0.6384 0.43857 0.0
H590 H 0.6261 0.70335 0.45329 0.0
C591 C 0.65139 0.71828 0.30357 0.0
C592 C 0.64202 0.66704 0.35998 0.0
C593 C 0.64673 0.72944 0.26613 0.0
C594 C 0.591 0.6418 0.50278 0.0
C595 C 0.60456 0.6463 0.4688 0.0
C596 C 0.63107 0.69288 0.42815 0.0
C597 C 0.64329 0.6981 0.31002 0.0
C598 C 0.64196 0.68877 0.35385 0.0
C599 C 0.61933 0.66244 0.47241 0.0
C600 C 0.62965 0.67117 0.43341 0.0
H601 H 0.61824 0.69242 0.21483 0.0
H602 H 0.6263 0.67302 0.27921 0.0
H603 H 0.63647 0.71828 0.38569 0.0
H604 H 0.60886 0.6773 0.57486 0.0
H605 H 0.63317 0.68443 0.51674 0.0
C606 C 0.61216 0.3221 0.76544 0.0
C607 C 0.59716 0.31994 0.79779 0.0
C608 C 0.60825 0.33494 0.72992 0.0
C609 C 0.57127 0.37443 0.68466 0.0
H610 H 0.57754 0.34241 0.58044 0.0
C611 C 0.54304 0.36914 0.49441 0.0
C612 C 0.52196 0.37381 0.50078 0.0
C613 C 0.55712 0.36993 0.52862 0.0
C614 C 0.57607 0.35201 0.60876 0.0
H615 H 0.56716 0.33058 0.82019 0.0
H616 H 0.56054 0.35323 0.75928 0.0
H617 H 0.59413 0.33057 0.64562 0.0
H618 H 0.49928 0.38434 0.54696 0.0
H619 H 0.52354 0.3855 0.60679 0.0
H620 H 0.55256 0.39551 0.64797 0.0
C621 C 0.57531 0.34517 0.76087 0.0
C622 C 0.58565 0.34512 0.64641 0.0
C623 C 0.57909 0.33217 0.79589 0.0
C624 C 0.51558 0.38117 0.54096 0.0
C625 C 0.52956 0.38167 0.57541 0.0
C626 C 0.56178 0.38144 0.64684 0.0
C627 C 0.58937 0.346 0.72644 0.0
C628 C 0.58281 0.35583 0.6852 0.0
C629 C 0.55027 0.37489 0.57026 0.0
C630 C 0.56345 0.36994 0.60859 0.0
H631 H 0.62605 0.31257 0.7658 0.0
H632 H 0.6195 0.33537 0.70413 0.0
H633 H 0.56897 0.38322 0.71386 0.0
H634 H 0.54827 0.36307 0.46388 0.0
H635 H 0.57303 0.36519 0.52296 0.0
C636 C 0.91078 0.35761 0.02449 0.0
C637 C 0.93032 0.36702 0.01939 0.0
C638 C 0.89676 0.35676 0.99033 0.0
C639 C 0.8871 0.37253 0.87692 0.0
H640 H 0.87523 0.31383 0.86267 0.0
C641 C 0.88585 0.33254 0.71417 0.0
C642 C 0.87743 0.31246 0.70994 0.0
C643 C 0.88352 0.34372 0.75218 0.0
C644 C 0.87768 0.3304 0.86613 0.0
H645 H 0.95 0.38427 0.97596 0.0
H646 H 0.9255 0.38293 0.91604 0.0
H647 H 0.88767 0.32645 0.93078 0.0
H648 H 0.8576 0.28955 0.7401 0.0
H649 H 0.85244 0.30953 0.80573 0.0
H650 H 0.8776 0.37634 0.81166 0.0
C651 C 0.9208 0.37645 0.94656 0.0
C652 C 0.88497 0.33767 0.90552 0.0
C653 C 0.93482 0.37736 0.98093 0.0
C654 C 0.86421 0.30501 0.74225 0.0
C655 C 0.86165 0.31634 0.78031 0.0
C656 C 0.8795 0.36529 0.83752 0.0
C657 C 0.90214 0.36507 0.95017 0.0
C658 C 0.8905 0.35867 0.91101 0.0
C659 C 0.87249 0.33518 0.78691 0.0
C660 C 0.87552 0.34393 0.83098 0.0
H661 H 0.90713 0.34925 0.05367 0.0
H662 H 0.8824 0.34817 0.99437 0.0
H663 H 0.89098 0.38884 0.88027 0.0
H664 H 0.89605 0.33875 0.68966 0.0
H665 H 0.89213 0.35809 0.75547 0.0
C666 C 0.92036 0.6593 0.24566 0.0
C667 C 0.90441 0.67393 0.2519 0.0
C668 C 0.92 0.64574 0.21083 0.0
C669 C 0.8996 0.64495 0.10095 0.0
H670 H 0.93215 0.59422 0.09523 0.0
C671 C 0.92568 0.61597 0.93875 0.0
C672 C 0.94749 0.61494 0.9363 0.0
C673 C 0.91561 0.61493 0.97835 0.0
C674 C 0.92288 0.60828 0.09629 0.0
H675 H 0.87455 0.68454 0.22865 0.0
H676 H 0.87356 0.66039 0.16776 0.0
H677 H 0.92157 0.60803 0.16481 0.0
H678 H 0.97556 0.60908 0.97255 0.0
H679 H 0.95802 0.60709 0.04175 0.0
H680 H 0.90138 0.64557 0.03268 0.0
C681 C 0.88666 0.65974 0.18947 0.0
C682 C 0.91686 0.61628 0.13619 0.0
C683 C 0.88705 0.67341 0.22466 0.0
C684 C 0.95873 0.60975 0.97337 0.0
C685 C 0.94863 0.6088 0.01317 0.0
C686 C 0.9054 0.63683 0.06116 0.0
C687 C 0.9036 0.64634 0.18108 0.0
C688 C 0.90585 0.63522 0.13917 0.0
C689 C 0.92715 0.61287 0.01633 0.0
C690 C 0.91773 0.61879 0.05831 0.0
H691 H 0.93391 0.65924 0.26631 0.0
H692 H 0.93343 0.63592 0.20569 0.0
H693 H 0.89143 0.65967 0.10156 0.0
H694 H 0.91663 0.61994 0.91064 0.0
H695 H 0.89898 0.61757 0.97953 0.0
C696 C 0.41177 0.33251 0.50088 0.0
C697 C 0.42805 0.34647 0.50907 0.0
C698 C 0.39778 0.32706 0.53332 0.0
C699 C 0.38212 0.33776 0.64696 0.0
H700 H 0.3783 0.27765 0.65242 0.0
C701 C 0.38232 0.29155 0.803 0.0
C702 C 0.37489 0.27102 0.80378 0.0
C703 C 0.37994 0.30387 0.7665 0.0
C704 C 0.37858 0.29448 0.65121 0.0
H705 H 0.44208 0.36641 0.5567 0.0
H706 H 0.41778 0.35691 0.61367 0.0
H707 H 0.39111 0.29409 0.58793 0.0
H708 H 0.35723 0.24796 0.7689 0.0
H709 H 0.3525 0.26968 0.70512 0.0
H710 H 0.37043 0.33795 0.71127 0.0
C711 C 0.41539 0.35045 0.58203 0.0
C712 C 0.38603 0.30398 0.61397 0.0
C713 C 0.42931 0.356 0.54938 0.0
C714 C 0.36289 0.26384 0.7693 0.0
C715 C 0.36053 0.27618 0.7325 0.0
C716 C 0.37458 0.32822 0.68428 0.0
C717 C 0.40002 0.33518 0.57493 0.0
C718 C 0.38857 0.3257 0.61178 0.0
C719 C 0.37016 0.29588 0.72972 0.0
C720 C 0.37341 0.30639 0.68747 0.0
H721 H 0.41072 0.32472 0.47018 0.0
H722 H 0.38593 0.31556 0.52642 0.0
H723 H 0.38353 0.35454 0.64619 0.0
H724 H 0.39185 0.29734 0.82904 0.0
H725 H 0.38766 0.31884 0.76584 0.0
C726 C 0.47773 0.63755 0.52422 0.0
C727 C 0.49933 0.63507 0.52095 0.0
C728 C 0.46553 0.63953 0.4872 0.0
C729 C 0.4691 0.64158 0.36593 0.0
H730 H 0.42892 0.68596 0.38064 0.0
C731 C 0.45008 0.70587 0.24184 0.0
C732 C 0.42902 0.70889 0.23151 0.0
C733 C 0.45583 0.69198 0.27423 0.0
C734 C 0.43988 0.67336 0.37608 0.0
H735 H 0.52498 0.63129 0.47699 0.0
H736 H 0.50421 0.63518 0.41291 0.0
H737 H 0.44339 0.66885 0.4433 0.0
H738 H 0.39747 0.69961 0.24685 0.0
H739 H 0.40758 0.67591 0.30495 0.0
H740 H 0.46669 0.64767 0.29845 0.0
C741 C 0.4962 0.63505 0.44337 0.0
C742 C 0.44812 0.66333 0.41206 0.0
C743 C 0.50825 0.63269 0.4803 0.0
C744 C 0.41383 0.69751 0.25394 0.0
C745 C 0.41957 0.68401 0.28718 0.0
C746 C 0.46122 0.652 0.33002 0.0
C747 C 0.47482 0.63969 0.44623 0.0
C748 C 0.4633 0.64762 0.4077 0.0
C749 C 0.44063 0.68119 0.29768 0.0
C750 C 0.44686 0.66826 0.33487 0.0
H751 H 0.47056 0.63984 0.55526 0.0
H752 H 0.44904 0.64237 0.49096 0.0
H753 H 0.48026 0.62924 0.36082 0.0
H754 H 0.46213 0.71437 0.22504 0.0
H755 H 0.47216 0.6902 0.28199 0.0
C756 C 0.10953 0.73495 0.21564 0.0
C757 C 0.09403 0.73972 0.2458 0.0
C758 C 0.10505 0.72172 0.18094 0.0
C759 C 0.06463 0.68463 0.1396 0.0
H760 H 0.0789 0.70698 0.02805 0.0
C761 C 0.01223 0.67655 0.99298 0.0
C762 C 0.02077 0.66881 0.95471 0.0
C763 C 0.02496 0.6815 0.02769 0.0
C764 C 0.07511 0.70033 0.05896 0.0
H765 H 0.06231 0.73341 0.26506 0.0
H766 H 0.05457 0.71052 0.20565 0.0
H767 H 0.09525 0.72139 0.09243 0.0
H768 H 0.04953 0.66043 0.92285 0.0
H769 H 0.07203 0.66993 0.98368 0.0
H770 H 0.04341 0.66464 0.10631 0.0
C771 C 0.07018 0.71672 0.20822 0.0
C772 C 0.08453 0.7085 0.09588 0.0
C773 C 0.07457 0.72998 0.24232 0.0
C774 C 0.04249 0.66635 0.9519 0.0
C775 C 0.05535 0.67179 0.98657 0.0
C776 C 0.05507 0.67671 0.10288 0.0
C777 C 0.0851 0.71284 0.17629 0.0
C778 C 0.07879 0.70129 0.13682 0.0
C779 C 0.04663 0.67921 0.02494 0.0
C780 C 0.05969 0.68494 0.06236 0.0
H781 H 0.12461 0.74243 0.21738 0.0
H782 H 0.11696 0.71894 0.15711 0.0
H783 H 0.0602 0.67832 0.17043 0.0
H784 H 0.99558 0.67849 0.99645 0.0
H785 H 0.01785 0.68736 0.05674 0.0
C786 C 0.11238 0.2938 0.75759 0.0
C787 C 0.09667 0.29115 0.72681 0.0
C788 C 0.10921 0.30706 0.7927 0.0
C789 C 0.07581 0.34873 0.83753 0.0
H790 H 0.07804 0.31678 0.94257 0.0
C791 C 0.02206 0.36558 0.98019 0.0
C792 C 0.02687 0.35767 0.02082 0.0
C793 C 0.0359 0.36303 0.946 0.0
C794 C 0.07781 0.32635 0.91409 0.0
H795 H 0.0661 0.30127 0.7067 0.0
H796 H 0.06091 0.325 0.76681 0.0
H797 H 0.09334 0.30275 0.87779 0.0
H798 H 0.05035 0.34217 0.05861 0.0
H799 H 0.07526 0.33897 0.99989 0.0
H800 H 0.06011 0.3723 0.8735 0.0
C801 C 0.07557 0.31679 0.76423 0.0
C802 C 0.08658 0.31817 0.87671 0.0
C803 C 0.07853 0.30321 0.72981 0.0
C804 C 0.04647 0.34872 0.02765 0.0
C805 C 0.06053 0.34652 0.99366 0.0
C806 C 0.06737 0.35713 0.87513 0.0
C807 C 0.09049 0.31821 0.79699 0.0
C808 C 0.08505 0.32893 0.83772 0.0
C809 C 0.05499 0.3526 0.95176 0.0
C810 C 0.06751 0.34572 0.91371 0.0
H811 H 0.12637 0.28442 0.75633 0.0
H812 H 0.12097 0.30787 0.81749 0.0
H813 H 0.07455 0.35745 0.80796 0.0
H814 H 0.00679 0.37205 0.97394 0.0
H815 H 0.03075 0.36776 0.91449 0.0
C816 C 0.98014 0.3202 0.21173 0.0
C817 C 0.96834 0.31202 0.17798 0.0
C818 C 0.98327 0.30853 0.24912 0.0
C819 C 0.97304 0.25471 0.29287 0.0
H820 H 0.03181 0.2495 0.26844 0.0
C821 C 0.00412 0.19429 0.19042 0.0
C822 C 0.02511 0.18886 0.18915 0.0
C823 C 0.99635 0.20632 0.22389 0.0
C824 C 0.01556 0.25062 0.27732 0.0
H825 H 0.94694 0.28751 0.16018 0.0
H826 H 0.95196 0.26739 0.2244 0.0
H827 H 0.01592 0.28337 0.26767 0.0
H828 H 0.05464 0.19109 0.22193 0.0
H829 H 0.04119 0.21268 0.28068 0.0
H830 H 0.97239 0.22149 0.29678 0.0
C831 C 0.95944 0.28246 0.22262 0.0
C832 C 0.00633 0.27027 0.27693 0.0
C833 C 0.95667 0.29394 0.18525 0.0
C834 C 0.03818 0.19466 0.22309 0.0
C835 C 0.03049 0.20702 0.25656 0.0
C836 C 0.98226 0.23501 0.29296 0.0
C837 C 0.97431 0.28864 0.25321 0.0
C838 C 0.98455 0.27215 0.27935 0.0
C839 C 0.00968 0.21384 0.25614 0.0
C840 C 0.00312 0.23269 0.28025 0.0
H841 H 0.98865 0.33438 0.20766 0.0
H842 H 0.99437 0.31407 0.2726 0.0
H843 H 0.95634 0.25577 0.29687 0.0
H844 H 0.99412 0.19089 0.16337 0.0
H845 H 0.98041 0.21164 0.2216 0.0
C846 C 0.96297 0.71884 0.43709 0.0
C847 C 0.94773 0.73057 0.41612 0.0
C848 C 0.97435 0.72744 0.47085 0.0
C849 C 0.99128 0.78083 0.49709 0.0
H850 H 0.03564 0.74802 0.5466 0.0
C851 C 0.06693 0.80577 0.45021 0.0
C852 C 0.07342 0.78948 0.42356 0.0
C853 C 0.05499 0.80152 0.48667 0.0
C854 C 0.02327 0.75762 0.53384 0.0
H855 H 0.93125 0.75982 0.41554 0.0
H856 H 0.94963 0.77429 0.47668 0.0
H857 H 0.00073 0.73348 0.54191 0.0
H858 H 0.0745 0.75637 0.41569 0.0
H859 H 0.05409 0.74861 0.47863 0.0
H860 H 0.0137 0.80451 0.48707 0.0
C861 C 0.95365 0.75874 0.46641 0.0
C862 C 0.00323 0.74918 0.53053 0.0
C863 C 0.94266 0.75029 0.43185 0.0
C864 C 0.0704 0.76897 0.43686 0.0
C865 C 0.05839 0.76466 0.473 0.0
C866 C 0.01111 0.78933 0.50109 0.0
C867 C 0.9708 0.74812 0.48425 0.0
C868 C 0.98764 0.75979 0.50735 0.0
C869 C 0.04871 0.78097 0.49561 0.0
C870 C 0.02784 0.77691 0.51475 0.0
H871 H 0.96747 0.70375 0.4247 0.0
H872 H 0.98733 0.7185 0.48287 0.0
H873 H 0.97987 0.79012 0.48043 0.0
H874 H 0.06908 0.82179 0.44036 0.0
H875 H 0.04831 0.81445 0.50415 0.0
C876 C 0.53832 0.68911 0.72741 0.0
C877 C 0.52346 0.68513 0.69557 0.0
C878 C 0.53277 0.70042 0.76411 0.0
C879 C 0.52126 0.74423 0.78843 0.0
H880 H 0.4638 0.75314 0.82042 0.0
C881 C 0.45835 0.79361 0.71424 0.0
C882 C 0.47148 0.80986 0.7016 0.0
C883 C 0.46317 0.78165 0.75018 0.0
C884 C 0.48004 0.75103 0.81232 0.0
H885 H 0.49101 0.68762 0.67861 0.0
H886 H 0.48111 0.70655 0.74235 0.0
H887 H 0.47764 0.71786 0.81766 0.0
H888 H 0.49825 0.82804 0.71885 0.0
H889 H 0.50625 0.80808 0.78329 0.0
H890 H 0.52328 0.77675 0.7779 0.0
C891 C 0.49701 0.70112 0.73997 0.0
C892 C 0.48802 0.73076 0.8111 0.0
C893 C 0.50266 0.69029 0.70312 0.0
C894 C 0.4877 0.81591 0.72872 0.0
C895 C 0.49247 0.80409 0.76513 0.0
C896 C 0.51326 0.7644 0.78923 0.0
C897 C 0.51229 0.70786 0.76914 0.0
C898 C 0.50799 0.72709 0.7943 0.0
C899 C 0.48147 0.78556 0.77381 0.0
C900 C 0.49187 0.76775 0.79618 0.0
H901 H 0.55455 0.68557 0.7218 0.0
H902 H 0.54489 0.70522 0.78607 0.0
H903 H 0.53693 0.74214 0.77645 0.0
H904 H 0.44573 0.78866 0.6936 0.0
H905 H 0.45401 0.76776 0.7555 0.0
C906 C 0.55577 0.27486 0.97933 0.0
C907 C 0.56687 0.25877 0.95974 0.0
C908 C 0.54359 0.27086 0.01545 0.0
C909 C 0.51389 0.2248 0.04789 0.0
H910 H 0.47988 0.26962 0.09166 0.0
C911 C 0.43582 0.22324 0.99027 0.0
C912 C 0.43421 0.24125 0.9653 0.0
C913 C 0.44777 0.22336 0.02775 0.0
C914 C 0.48919 0.2567 0.08034 0.0
H915 H 0.57585 0.22649 0.96426 0.0
H916 H 0.55622 0.21977 0.02953 0.0
H917 H 0.51748 0.27379 0.08847 0.0
H918 H 0.44129 0.27405 0.96211 0.0
H919 H 0.46259 0.27433 0.02582 0.0
H920 H 0.48596 0.2082 0.03697 0.0
C921 C 0.55591 0.23532 0.01629 0.0
C922 C 0.51082 0.25915 0.07816 0.0
C923 C 0.56745 0.23918 0.97918 0.0
C924 C 0.4424 0.25993 0.98096 0.0
C925 C 0.45453 0.26004 0.01799 0.0
C926 C 0.49241 0.22232 0.05037 0.0
C927 C 0.54221 0.25054 0.03251 0.0
C928 C 0.52307 0.24424 0.05673 0.0
C929 C 0.45907 0.24128 0.03942 0.0
C930 C 0.47965 0.23928 0.06133 0.0
H931 H 0.55466 0.28994 0.96403 0.0
H932 H 0.53349 0.28321 0.02638 0.0
H933 H 0.52252 0.21235 0.03289 0.0
H934 H 0.43019 0.20853 0.9782 0.0
H935 H 0.45033 0.20875 0.04418 0.0
C936 C 0.03414 0.79462 0.7838 0.0
C937 C 0.01974 0.81012 0.79455 0.0
C938 C 0.03248 0.78395 0.74515 0.0
C939 C 0.98702 0.76608 0.69061 0.0
H940 H 0.02772 0.7233 0.66698 0.0
C941 C 0.96633 0.68611 0.73806 0.0
C942 C 0.98014 0.68137 0.77144 0.0
C943 C 0.97226 0.69989 0.70551 0.0
C944 C 0.01598 0.73512 0.67175 0.0
H945 H 0.99476 0.82905 0.7699 0.0
H946 H 0.99146 0.81039 0.70259 0.0
H947 H 0.03851 0.75956 0.6692 0.0
H948 H 0.011 0.68661 0.79662 0.0
H949 H 0.02148 0.71028 0.74039 0.0
H950 H 0.96485 0.74167 0.69689 0.0
C951 C 0.00388 0.80614 0.72435 0.0
C952 C 0.02217 0.75596 0.67333 0.0
C953 C 0.00572 0.81693 0.76316 0.0
C954 C 0.00038 0.68932 0.77027 0.0
C955 C 0.00633 0.70303 0.73789 0.0
C956 C 0.98076 0.74532 0.68833 0.0
C957 C 0.01608 0.78833 0.7166 0.0
C958 C 0.00829 0.77119 0.68861 0.0
C959 C 0.99197 0.70941 0.70646 0.0
C960 C 0.99572 0.7295 0.68413 0.0
H961 H 0.04553 0.78938 0.80699 0.0
H962 H 0.04246 0.77057 0.74067 0.0
H963 H 0.97559 0.77736 0.70097 0.0
H964 H 0.95045 0.68049 0.73902 0.0
H965 H 0.96082 0.70453 0.68191 0.0
C966 C 0.57544 0.75471 0.04379 0.0
C967 C 0.57046 0.73995 0.07524 0.0
C968 C 0.56436 0.75507 0.00504 0.0
C969 C 0.51777 0.7295 0.95256 0.0
H970 H 0.49401 0.78325 0.97881 0.0
C971 C 0.44649 0.7374 0.04378 0.0
C972 C 0.43749 0.75692 0.05063 0.0
C973 C 0.46049 0.73443 0.01015 0.0
C974 C 0.50023 0.76828 0.96943 0.0
H975 H 0.55378 0.71126 0.08722 0.0
H976 H 0.53495 0.71154 0.02068 0.0
H977 H 0.53083 0.77846 0.98431 0.0
H978 H 0.43404 0.78802 0.02541 0.0
H979 H 0.45806 0.78281 0.96571 0.0
H980 H 0.4866 0.71888 0.94208 0.0
C981 C 0.54668 0.72341 0.0254 0.0
C982 C 0.5217 0.76552 0.97257 0.0
C983 C 0.55738 0.72334 0.06415 0.0
C984 C 0.44067 0.77272 0.02038 0.0
C985 C 0.45457 0.76975 0.98641 0.0
C986 C 0.49621 0.73225 0.94943 0.0
C987 C 0.54853 0.74036 0.99715 0.0
C988 C 0.53034 0.7455 0.96938 0.0
C989 C 0.46604 0.75115 0.9832 0.0
C990 C 0.48708 0.75104 0.96286 0.0
H991 H 0.58625 0.76707 0.05052 0.0
H992 H 0.56671 0.76801 0.98335 0.0
H993 H 0.5241 0.71407 0.94768 0.0
H994 H 0.44471 0.72515 0.06734 0.0
H995 H 0.46886 0.71984 0.0091 0.0
C996 C 0.4972 0.18819 0.32141 0.0
C997 C 0.5161 0.1828 0.34059 0.0
C998 C 0.49681 0.20168 0.28639 0.0
C999 C 0.52907 0.2465 0.26068 0.0
H1000 H 0.47569 0.26268 0.2142 0.0
C1001 C 0.50018 0.32052 0.31744 0.0
C1002 C 0.48365 0.31436 0.34382 0.0
C1003 C 0.50497 0.30901 0.28059 0.0
C1004 C 0.49098 0.2585 0.22594 0.0
H1005 H 0.54949 0.18541 0.33619 0.0
H1006 H 0.5491 0.20781 0.27313 0.0
H1007 H 0.4858 0.22615 0.21385 0.0
H1008 H 0.45776 0.29321 0.35049 0.0
H1009 H 0.46558 0.27352 0.2866 0.0
H1010 H 0.5337 0.2784 0.27575 0.0
C1011 C 0.53441 0.20223 0.28558 0.0
C1012 C 0.49673 0.23748 0.22617 0.0
C1013 C 0.53472 0.18906 0.3213 0.0
C1014 C 0.47043 0.29839 0.33021 0.0
C1015 C 0.47496 0.28713 0.29326 0.0
C1016 C 0.52345 0.26744 0.25996 0.0
C1017 C 0.51542 0.2103 0.27022 0.0
C1018 C 0.51469 0.23106 0.24842 0.0
C1019 C 0.49337 0.29108 0.27022 0.0
C1020 C 0.50329 0.2733 0.24743 0.0
H1021 H 0.48262 0.18383 0.33636 0.0
H1022 H 0.48177 0.20724 0.27595 0.0
H1023 H 0.54342 0.24257 0.27685 0.0
H1024 H 0.51082 0.33252 0.32796 0.0
H1025 H 0.5191 0.31265 0.26326 0.0
C1026 C 0.05293 0.209 0.5598 0.0
C1027 C 0.0688 0.22343 0.56794 0.0
C1028 C 0.04114 0.21032 0.52249 0.0
C1029 C 0.02183 0.25554 0.47012 0.0
H1030 H 0.97836 0.21515 0.44911 0.0
C1031 C 0.94236 0.27717 0.52091 0.0
C1032 C 0.93782 0.26346 0.5546 0.0
C1033 C 0.95582 0.27104 0.48791 0.0
C1034 C 0.99034 0.22681 0.45337 0.0
H1035 H 0.08794 0.24715 0.53906 0.0
H1036 H 0.06683 0.25034 0.47439 0.0
H1037 H 0.01456 0.20408 0.44935 0.0
H1038 H 0.94311 0.2328 0.58011 0.0
H1039 H 0.96581 0.22171 0.52264 0.0
H1040 H 0.99769 0.27787 0.47827 0.0
C1041 C 0.06308 0.23829 0.49737 0.0
C1042 C 0.01115 0.22044 0.45366 0.0
C1043 C 0.07514 0.23664 0.53468 0.0
C1044 C 0.94551 0.24317 0.5532 0.0
C1045 C 0.9587 0.23693 0.5202 0.0
C1046 C 0.00108 0.26194 0.4694 0.0
C1047 C 0.0448 0.22639 0.4928 0.0
C1048 C 0.0268 0.23427 0.46733 0.0
C1049 C 0.9651 0.25119 0.48861 0.0
C1050 C 0.98505 0.24715 0.46589 0.0
H1051 H 0.04811 0.19808 0.58431 0.0
H1052 H 0.02749 0.20053 0.52026 0.0
H1053 H 0.0334 0.26686 0.47963 0.0
H1054 H 0.93702 0.29314 0.52213 0.0
H1055 H 0.96046 0.28241 0.46417 0.0
C1056 C 0.04081 0.0617 0.07383 0.0
C1057 C 0.0239 0.07543 0.07412 0.0
C1058 C 0.04123 0.0449 0.04561 0.0
C1059 C 0.00208 0.01253 0.98966 0.0
H1060 H 0.05034 0.97851 0.96525 0.0
C1061 C 0.9898 0.92941 0.93133 0.0
C1062 C 0.00274 0.923 0.89783 0.0
C1063 C 0.99524 0.94664 0.95635 0.0
C1064 C 0.03663 0.98779 0.97139 0.0
H1065 H 0.99552 0.08419 0.04185 0.0
H1066 H 0.99695 0.05581 0.98985 0.0
H1067 H 0.05506 0.01404 0.98927 0.0
H1068 H 0.03206 0.9283 0.86586 0.0
H1069 H 0.04137 0.95851 0.90801 0.0
H1070 H 0.98362 0.98688 0.9692 0.0
C1071 C 0.00945 0.05726 0.01288 0.0
C1072 C 0.03935 0.00824 0.9857 0.0
C1073 C 0.00886 0.0739 0.04186 0.0
C1074 C 0.02205 0.93275 0.89224 0.0
C1075 C 0.0273 0.95025 0.91642 0.0
C1076 C 0.99936 0.9923 0.97439 0.0
C1077 C 0.02479 0.04165 0.01659 0.0
C1078 C 0.02211 0.02087 0.99566 0.0
C1079 C 0.0134 0.95818 0.94719 0.0
C1080 C 0.01656 0.97947 0.96552 0.0
H1081 H 0.05242 0.06243 0.09897 0.0
H1082 H 0.05336 0.03344 0.04989 0.0
H1083 H 0.98832 0.02137 0.99774 0.0
H1084 H 0.97467 0.92228 0.93573 0.0
H1085 H 0.98449 0.95171 0.98088 0.0
C1086 C 0.19201 0.7916 0.28833 0.0
C1087 C 0.18036 0.77316 0.29078 0.0
C1088 C 0.2104 0.79222 0.26448 0.0
C1089 C 0.24482 0.76547 0.18846 0.0
H1090 H 0.28685 0.76971 0.27745 0.0
C1091 C 0.3246 0.7227 0.20978 0.0
C1092 C 0.33653 0.73002 0.17535 0.0
C1093 C 0.30745 0.73407 0.22429 0.0
C1094 C 0.27534 0.76889 0.25217 0.0
H1095 H 0.17711 0.74196 0.26596 0.0
H1096 H 0.2086 0.74339 0.22222 0.0
H1097 H 0.25078 0.77944 0.29309 0.0
H1098 H 0.34045 0.75518 0.12996 0.0
H1099 H 0.31015 0.77485 0.15476 0.0
H1100 H 0.26939 0.75439 0.14791 0.0
C1101 C 0.20376 0.75725 0.23924 0.0
C1102 C 0.25477 0.77452 0.26094 0.0
C1103 C 0.18556 0.75651 0.26382 0.0
C1104 C 0.33188 0.74953 0.15746 0.0
C1105 C 0.31442 0.76065 0.17121 0.0
C1106 C 0.26552 0.76033 0.17938 0.0
C1107 C 0.21708 0.77455 0.24197 0.0
C1108 C 0.23922 0.77235 0.22951 0.0
C1109 C 0.30165 0.7526 0.20364 0.0
C1110 C 0.2808 0.76149 0.2115 0.0
H1111 H 0.18853 0.80449 0.30953 0.0
H1112 H 0.22036 0.80577 0.26688 0.0
H1113 H 0.23309 0.76347 0.1639 0.0
H1114 H 0.32757 0.70745 0.22323 0.0
H1115 H 0.29769 0.72751 0.24914 0.0
C1116 C 0.54959 0.05382 0.46436 0.0
C1117 C 0.53685 0.06961 0.44781 0.0
C1118 C 0.54101 0.0373 0.48741 0.0
C1119 C 0.4927 0.01675 0.53768 0.0
H1120 H 0.51391 0.9638 0.49685 0.0
C1121 C 0.45016 0.94168 0.57987 0.0
C1122 C 0.46254 0.92563 0.59649 0.0
C1123 C 0.45914 0.95817 0.55746 0.0
C1124 C 0.5079 0.97842 0.50883 0.0
H1125 H 0.50535 0.08129 0.44472 0.0
H1126 H 0.49025 0.05262 0.48557 0.0
H1127 H 0.5302 0.99609 0.47335 0.0
H1128 H 0.49379 0.91333 0.6001 0.0
H1129 H 0.50966 0.94214 0.56056 0.0
H1130 H 0.47037 0.99909 0.57308 0.0
C1131 C 0.50695 0.05302 0.48113 0.0
C1132 C 0.51731 0.99698 0.49559 0.0
C1133 C 0.51562 0.06966 0.45819 0.0
C1134 C 0.48384 0.92528 0.58675 0.0
C1135 C 0.49293 0.94195 0.56452 0.0
C1136 C 0.48329 0.9982 0.5509 0.0
C1137 C 0.51942 0.03609 0.49396 0.0
C1138 C 0.50984 0.0164 0.50985 0.0
C1139 C 0.4808 0.95913 0.5517 0.0
C1140 C 0.49069 0.97878 0.53649 0.0
H1141 H 0.56598 0.05333 0.45636 0.0
H1142 H 0.55115 0.02485 0.49786 0.0
H1143 H 0.48666 0.03137 0.54961 0.0
H1144 H 0.43371 0.94236 0.58733 0.0
H1145 H 0.44925 0.9708 0.54691 0.0
C1146 C 0.32295 0.23076 0.84269 0.0
C1147 C 0.32448 0.21014 0.85708 0.0
C1148 C 0.30621 0.23681 0.81673 0.0
C1149 C 0.25183 0.22068 0.79987 0.0
H1150 H 0.25167 0.26277 0.71123 0.0
C1151 C 0.18087 0.23941 0.69168 0.0
C1152 C 0.17923 0.25972 0.67564 0.0
C1153 C 0.19739 0.23407 0.71884 0.0
C1154 C 0.25139 0.25124 0.7365 0.0
H1155 H 0.31111 0.17934 0.85275 0.0
H1156 H 0.28251 0.1896 0.80615 0.0
H1157 H 0.28463 0.25139 0.74186 0.0
H1158 H 0.19209 0.29078 0.67832 0.0
H1159 H 0.22026 0.28179 0.72715 0.0
H1160 H 0.21861 0.22049 0.7945 0.0
C1161 C 0.29374 0.20127 0.81571 0.0
C1162 C 0.27033 0.24463 0.75382 0.0
C1163 C 0.31032 0.19531 0.84174 0.0
C1164 C 0.19294 0.27505 0.69066 0.0
C1165 C 0.2093 0.26979 0.71795 0.0
C1166 C 0.23289 0.22729 0.78259 0.0
C1167 C 0.29081 0.22228 0.80494 0.0
C1168 C 0.2708 0.22917 0.78553 0.0
C1169 C 0.21244 0.24901 0.7303 0.0
C1170 C 0.23242 0.24265 0.75065 0.0
H1171 H 0.33334 0.24259 0.85502 0.0
H1172 H 0.30444 0.25313 0.80895 0.0
H1173 H 0.25157 0.20908 0.82503 0.0
H1174 H 0.17088 0.22719 0.67959 0.0
H1175 H 0.19932 0.21791 0.72773 0.0
C1176 C 0.69102 0.30454 0.83934 0.0
C1177 C 0.67818 0.28841 0.85398 0.0
C1178 C 0.70794 0.30026 0.81279 0.0
C1179 C 0.73536 0.25853 0.7519 0.0
H1180 H 0.78456 0.28731 0.79312 0.0
C1181 C 0.81526 0.23167 0.69805 0.0
C1182 C 0.82731 0.24738 0.67919 0.0
C1183 C 0.79863 0.23675 0.72475 0.0
C1184 C 0.77097 0.2792 0.78119 0.0
H1185 H 0.67172 0.25547 0.84972 0.0
H1186 H 0.7013 0.24782 0.80337 0.0
H1187 H 0.75044 0.2967 0.82111 0.0
H1188 H 0.83276 0.28054 0.6763 0.0
H1189 H 0.80395 0.28952 0.72391 0.0
H1190 H 0.75598 0.24087 0.71238 0.0
C1191 C 0.69828 0.26387 0.81183 0.0
C1192 C 0.75135 0.2847 0.79686 0.0
C1193 C 0.68114 0.26824 0.83802 0.0
C1194 C 0.82405 0.26812 0.69143 0.0
C1195 C 0.80733 0.27325 0.71819 0.0
C1196 C 0.75498 0.25296 0.73645 0.0
C1197 C 0.71257 0.27967 0.80106 0.0
C1198 C 0.73326 0.27446 0.78237 0.0
C1199 C 0.79367 0.25766 0.73279 0.0
C1200 C 0.77303 0.26317 0.75103 0.0
H1201 H 0.68912 0.32019 0.85165 0.0
H1202 H 0.7182 0.31291 0.80394 0.0
H1203 H 0.72181 0.25046 0.73968 0.0
H1204 H 0.81732 0.21559 0.68852 0.0
H1205 H 0.78869 0.22437 0.73641 0.0
C1206 C 0.82873 0.74669 0.29816 0.0
C1207 C 0.83207 0.72549 0.30617 0.0
C1208 C 0.81109 0.75315 0.27541 0.0
C1209 C 0.75773 0.73362 0.25969 0.0
H1210 H 0.75038 0.78491 0.1965 0.0
C1211 C 0.67956 0.7613 0.18408 0.0
C1212 C 0.67611 0.78286 0.18265 0.0
C1213 C 0.69798 0.75341 0.20179 0.0
C1214 C 0.75215 0.77066 0.21463 0.0
H1215 H 0.82122 0.69436 0.29267 0.0
H1216 H 0.79118 0.70545 0.25083 0.0
H1217 H 0.78539 0.77272 0.21274 0.0
H1218 H 0.68819 0.81288 0.20151 0.0
H1219 H 0.71992 0.79917 0.23363 0.0
H1220 H 0.72444 0.73161 0.26152 0.0
C1221 C 0.80163 0.7172 0.26328 0.0
C1222 C 0.77226 0.76361 0.2237 0.0
C1223 C 0.81913 0.7108 0.28633 0.0
C1224 C 0.69038 0.79618 0.20274 0.0
C1225 C 0.70872 0.78834 0.2204 0.0
C1226 C 0.73762 0.74063 0.25044 0.0
C1227 C 0.79661 0.73844 0.26014 0.0
C1228 C 0.77534 0.74507 0.24664 0.0
C1229 C 0.71326 0.76699 0.21801 0.0
C1230 C 0.73457 0.75937 0.22826 0.0
H1231 H 0.83822 0.75831 0.314 0.0
H1232 H 0.80783 0.76964 0.27361 0.0
H1233 H 0.75942 0.7195 0.27829 0.0
H1234 H 0.66924 0.75075 0.16742 0.0
H1235 H 0.70099 0.73688 0.19943 0.0
C1236 C 0.55668 0.55682 0.57265 0.0
C1237 C 0.54398 0.57307 0.58734 0.0
C1238 C 0.54826 0.54046 0.54886 0.0
C1239 C 0.50039 0.52074 0.49482 0.0
H1240 H 0.51931 0.46769 0.53967 0.0
C1241 C 0.45544 0.44628 0.45711 0.0
C1242 C 0.46726 0.4294 0.4423 0.0
C1243 C 0.46498 0.46301 0.47775 0.0
C1244 C 0.51395 0.48233 0.52654 0.0
H1245 H 0.51292 0.58591 0.58588 0.0
H1246 H 0.49807 0.55738 0.54413 0.0
H1247 H 0.53622 0.49972 0.56263 0.0
H1248 H 0.49816 0.41618 0.43964 0.0
H1249 H 0.51494 0.4453 0.47647 0.0
H1250 H 0.47798 0.50332 0.45907 0.0
C1251 C 0.51461 0.55728 0.55056 0.0
C1252 C 0.52374 0.50075 0.53946 0.0
C1253 C 0.52315 0.57381 0.57407 0.0
C1254 C 0.48858 0.4287 0.45181 0.0
C1255 C 0.49822 0.44556 0.4724 0.0
C1256 C 0.49058 0.50232 0.48199 0.0
C1257 C 0.52685 0.53983 0.53982 0.0
C1258 C 0.51707 0.52023 0.52384 0.0
C1259 C 0.48664 0.46336 0.48366 0.0
C1260 C 0.49714 0.48288 0.4979 0.0
H1261 H 0.57275 0.55581 0.58288 0.0
H1262 H 0.55829 0.52764 0.54 0.0
H1263 H 0.49496 0.53538 0.48179 0.0
H1264 H 0.43899 0.44727 0.44981 0.0
H1265 H 0.45551 0.47618 0.48706 0.0
C1266 C 0.99544 0.57382 0.9054 0.0
C1267 C 0.01635 0.58007 0.90361 0.0
C1268 C 0.98977 0.55604 0.92866 0.0
C1269 C 0.01393 0.50649 0.95432 0.0
H1270 H 0.96606 0.4958 0.02629 0.0
C1271 C 0.00658 0.43486 0.06229 0.0
C1272 C 0.98679 0.42792 0.0744 0.0
C1273 C 0.0087 0.45143 0.03371 0.0
C1274 C 0.97925 0.49839 0.0054 0.0
H1275 H 0.04733 0.57404 0.92749 0.0
H1276 H 0.03744 0.54341 0.96883 0.0
H1277 H 0.97216 0.53089 0.99887 0.0
H1278 H 0.95376 0.43146 0.06394 0.0
H1279 H 0.95737 0.45995 0.01251 0.0
H1280 H 0.02108 0.47415 0.96042 0.0
C1281 C 0.02546 0.55194 0.95191 0.0
C1282 C 0.98282 0.51856 0.99012 0.0
C1283 C 0.03107 0.56965 0.92885 0.0
C1284 C 0.9692 0.43631 0.05427 0.0
C1285 C 0.97128 0.45291 0.02557 0.0
C1286 C 0.01027 0.48634 0.96918 0.0
C1287 C 0.00503 0.54427 0.94996 0.0
C1288 C 0.00048 0.52289 0.9653 0.0
C1289 C 0.99101 0.46143 0.01692 0.0
C1290 C 0.99314 0.48208 0.99569 0.0
H1291 H 0.98394 0.58109 0.885 0.0
H1292 H 0.9739 0.55048 0.92664 0.0
H1293 H 0.02736 0.50925 0.93418 0.0
H1294 H 0.0203 0.42896 0.07836 0.0
H1295 H 0.02414 0.45758 0.0281 0.0
C1296 C 0.06386 0.11406 0.28202 0.0
C1297 C 0.06619 0.1215 0.24 0.0
C1298 C 0.07669 0.12138 0.31481 0.0
C1299 C 0.10922 0.16741 0.33937 0.0
H1300 H 0.11974 0.13729 0.44479 0.0
C1301 C 0.15051 0.20631 0.48037 0.0
C1302 C 0.13828 0.20668 0.51775 0.0
C1303 C 0.14582 0.1926 0.44709 0.0
C1304 C 0.11699 0.14579 0.41539 0.0
H1305 H 0.08485 0.14109 0.19863 0.0
H1306 H 0.10799 0.15302 0.25528 0.0
H1307 H 0.10493 0.11898 0.38328 0.0
H1308 H 0.1125 0.19177 0.55062 0.0
H1309 H 0.10456 0.16765 0.49248 0.0
H1310 H 0.12135 0.19414 0.37153 0.0
C1311 C 0.09568 0.14224 0.26346 0.0
C1312 C 0.10839 0.1354 0.38021 0.0
C1313 C 0.08254 0.13527 0.23084 0.0
C1314 C 0.12223 0.19195 0.52229 0.0
C1315 C 0.1177 0.17808 0.48908 0.0
C1316 C 0.11814 0.17764 0.37417 0.0
C1317 C 0.09243 0.13602 0.3062 0.0
C1318 C 0.10397 0.14619 0.34198 0.0
C1319 C 0.129 0.1788 0.45065 0.0
C1320 C 0.12175 0.16706 0.41274 0.0
H1321 H 0.05129 0.10356 0.29015 0.0
H1322 H 0.07345 0.11637 0.34722 0.0
H1323 H 0.10564 0.17646 0.3111 0.0
H1324 H 0.16305 0.21733 0.47577 0.0
H1325 H 0.15486 0.19332 0.41785 0.0
C1326 C 0.12166 0.83137 0.4591 0.0
C1327 C 0.13779 0.81671 0.46296 0.0
C1328 C 0.11428 0.84194 0.4951 0.0
C1329 C 0.10646 0.8319 0.60712 0.0
H1330 H 0.08979 0.88974 0.61394 0.0
C1331 C 0.05875 0.86165 0.75046 0.0
C1332 C 0.04256 0.87562 0.7411 0.0
C1333 C 0.07382 0.85698 0.71967 0.0
C1334 C 0.09418 0.8735 0.61244 0.0
H1335 H 0.15979 0.8028 0.50726 0.0
H1336 H 0.1467 0.82116 0.57012 0.0
H1337 H 0.11051 0.87779 0.55315 0.0
H1338 H 0.02973 0.89586 0.69218 0.0
H1339 H 0.05543 0.88719 0.63822 0.0
H1340 H 0.0892 0.8271 0.66461 0.0
C1341 C 0.13981 0.82439 0.53916 0.0
C1342 C 0.10618 0.86674 0.57778 0.0
C1343 C 0.14738 0.814 0.50307 0.0
C1344 C 0.04206 0.88515 0.70061 0.0
C1345 C 0.05695 0.88026 0.66966 0.0
C1346 C 0.09421 0.83855 0.64138 0.0
C1347 C 0.12275 0.83791 0.5357 0.0
C1348 C 0.1122 0.84582 0.57457 0.0
C1349 C 0.0729 0.86592 0.67855 0.0
C1350 C 0.08763 0.85938 0.64422 0.0
H1351 H 0.11393 0.83384 0.4287 0.0
H1352 H 0.10103 0.8522 0.49159 0.0
H1353 H 0.1106 0.8156 0.60504 0.0
H1354 H 0.05968 0.85413 0.78145 0.0
H1355 H 0.08608 0.84618 0.72804 0.0
C1356 C 0.36559 0.77814 0.00766 0.0
C1357 C 0.36152 0.75666 0.00699 0.0
C1358 C 0.36564 0.7896 0.96961 0.0
C1359 C 0.38083 0.7831 0.86116 0.0
H1360 H 0.35435 0.83619 0.83929 0.0
C1361 C 0.40672 0.83179 0.71752 0.0
C1362 C 0.40921 0.85314 0.72553 0.0
C1363 C 0.39529 0.81936 0.74573 0.0
C1364 C 0.36201 0.82146 0.84497 0.0
H1365 H 0.35336 0.73056 0.96609 0.0
H1366 H 0.35403 0.75055 0.8997 0.0
H1367 H 0.34469 0.81614 0.90275 0.0
H1368 H 0.4007 0.87841 0.76812 0.0
H1369 H 0.38175 0.85681 0.81802 0.0
H1370 H 0.39938 0.78882 0.80595 0.0
C1371 C 0.35691 0.75848 0.92975 0.0
C1372 C 0.35633 0.80996 0.88114 0.0
C1373 C 0.35647 0.7471 0.9678 0.0
C1374 C 0.39903 0.86201 0.76089 0.0
C1375 C 0.38799 0.84955 0.78952 0.0
C1376 C 0.38686 0.79475 0.82561 0.0
C1377 C 0.36197 0.77969 0.93027 0.0
C1378 C 0.36593 0.79085 0.88979 0.0
C1379 C 0.38649 0.82794 0.78309 0.0
C1380 C 0.37784 0.81431 0.81741 0.0
H1381 H 0.36949 0.78595 0.03734 0.0
H1382 H 0.36974 0.80594 0.97067 0.0
H1383 H 0.38863 0.76848 0.86753 0.0
H1384 H 0.4142 0.82453 0.69026 0.0
H1385 H 0.394 0.8029 0.73895 0.0
C1386 C 0.49236 0.10208 0.25238 0.0
C1387 C 0.49384 0.11548 0.28788 0.0
C1388 C 0.47916 0.10682 0.2181 0.0
C1389 C 0.43556 0.14179 0.18551 0.0
H1390 H 0.45739 0.13298 0.0711 0.0
C1391 C 0.40506 0.18652 0.04015 0.0
C1392 C 0.39998 0.17505 0.00345 0.0
C1393 C 0.41584 0.17724 0.07381 0.0
C1394 C 0.451 0.13529 0.10284 0.0
H1395 H 0.48191 0.14401 0.31567 0.0
H1396 H 0.45945 0.15254 0.25581 0.0
H1397 H 0.47674 0.12014 0.13304 0.0
H1398 H 0.40191 0.14499 0.97264 0.0
H1399 H 0.42141 0.1286 0.03175 0.0
H1400 H 0.41028 0.1577 0.15524 0.0
C1401 C 0.46815 0.13813 0.25458 0.0
C1402 C 0.46202 0.12788 0.1384 0.0
C1403 C 0.48117 0.13329 0.28898 0.0
C1404 C 0.40599 0.15413 1.00054 0.0
C1405 C 0.41706 0.14483 0.03423 0.0
C1406 C 0.42471 0.14938 0.15007 0.0
C1407 C 0.46721 0.12515 0.21833 0.0
C1408 C 0.45461 0.13133 0.18028 0.0
C1409 C 0.42177 0.15626 0.07147 0.0
C1410 C 0.43248 0.14651 0.10844 0.0
H1411 H 0.5018 0.08817 0.2505 0.0
H1412 H 0.47855 0.09625 0.19115 0.0
H1413 H 0.4291 0.14433 0.21709 0.0
H1414 H 0.4003 0.20263 0.04313 0.0
H1415 H 0.41948 0.18648 0.10184 0.0
C1416 C 0.87453 0.77437 0.49226 0.0
C1417 C 0.88686 0.75826 0.47583 0.0
C1418 C 0.88065 0.78511 0.52929 0.0
C1419 C 0.90069 0.81276 0.59588 0.0
H1420 H 0.93772 0.78628 0.67711 0.0
C1421 C 0.945 0.86117 0.72064 0.0
C1422 C 0.95239 0.8521 0.75868 0.0
C1423 C 0.93493 0.84923 0.68965 0.0
C1424 C 0.92707 0.79394 0.65542 0.0
H1425 H 0.91371 0.73906 0.488 0.0
H1426 H 0.92589 0.75901 0.54894 0.0
H1427 H 0.92364 0.76627 0.61852 0.0
H1428 H 0.95406 0.82334 0.79467 0.0
H1429 H 0.93528 0.80263 0.74173 0.0
H1430 H 0.90282 0.83995 0.63464 0.0
C1431 C 0.91137 0.76356 0.53419 0.0
C1432 C 0.91929 0.78248 0.62079 0.0
C1433 C 0.90489 0.75254 0.49799 0.0
C1434 C 0.94856 0.83084 0.76575 0.0
C1435 C 0.93799 0.8189 0.73497 0.0
C1436 C 0.90794 0.82401 0.6312 0.0
C1437 C 0.89935 0.78005 0.5507 0.0
C1438 C 0.90638 0.79183 0.58972 0.0
C1439 C 0.93136 0.82784 0.69595 0.0
C1440 C 0.92174 0.815 0.66098 0.0
H1441 H 0.86003 0.77848 0.47675 0.0
H1442 H 0.87044 0.79711 0.54137 0.0
H1443 H 0.89101 0.82083 0.57294 0.0
H1444 H 0.94792 0.8774 0.71358 0.0
H1445 H 0.93075 0.85681 0.65995 0.0
C1446 C 0.91379 0.20481 0.51972 0.0
C1447 C 0.89253 0.20961 0.51714 0.0
C1448 C 0.92415 0.19583 0.48471 0.0
C1449 C 0.91567 0.16422 0.38884 0.0
H1450 H 0.9646 0.19112 0.34174 0.0
C1451 C 0.96917 0.15864 0.22625 0.0
C1452 C 0.97563 0.13782 0.22875 0.0
C1453 C 0.95844 0.16794 0.26046 0.0
C1454 C 0.95081 0.18363 0.35435 0.0
H1455 H 0.86517 0.20729 0.47638 0.0
H1456 H 0.88293 0.19095 0.41682 0.0
H1457 H 0.94792 0.20545 0.40613 0.0
H1458 H 0.97431 0.10996 0.26829 0.0
H1459 H 0.95498 0.12579 0.32626 0.0
H1460 H 0.91852 0.14236 0.33741 0.0
C1461 C 0.89176 0.1946 0.4454 0.0
C1462 C 0.94153 0.19158 0.39152 0.0
C1463 C 0.88158 0.2039 0.47983 0.0
C1464 C 0.96975 0.1261 0.26493 0.0
C1465 C 0.9587 0.13516 0.29846 0.0
C1466 C 0.92506 0.15616 0.35209 0.0
C1467 C 0.91321 0.19087 0.44704 0.0
C1468 C 0.92386 0.18194 0.40909 0.0
C1469 C 0.95334 0.15627 0.2971 0.0
C1470 C 0.94269 0.16578 0.33442 0.0
H1471 H 0.92231 0.20798 0.54873 0.0
H1472 H 0.94065 0.19264 0.48711 0.0
H1473 H 0.90205 0.1565 0.40168 0.0
H1474 H 0.97239 0.16765 0.19791 0.0
H1475 H 0.95403 0.18416 0.25825 0.0
C1476 C 0.61352 0.23559 0.031 0.0
C1477 C 0.63345 0.2363 0.01309 0.0
C1478 C 0.6089 0.22186 0.06413 0.0
C1479 C 0.63118 0.19425 0.15457 0.0
H1480 H 0.57915 0.16381 0.14977 0.0
C1481 C 0.59973 0.14122 0.29305 0.0
C1482 C 0.57836 0.14331 0.30135 0.0
C1483 C 0.60872 0.15123 0.2576 0.0
C1484 C 0.59368 0.17229 0.15179 0.0
H1485 H 0.66481 0.22426 0.01768 0.0
H1486 H 0.65682 0.20004 0.07673 0.0
H1487 H 0.59096 0.18304 0.08723 0.0
H1488 H 0.54948 0.15608 0.27775 0.0
H1489 H 0.56506 0.17443 0.21784 0.0
H1490 H 0.63346 0.18399 0.21986 0.0
C1491 C 0.64458 0.20983 0.06402 0.0
C1492 C 0.60048 0.18321 0.11586 0.0
C1493 C 0.64912 0.22355 0.03024 0.0
C1494 C 0.56616 0.1553 0.27358 0.0
C1495 C 0.57504 0.16529 0.23848 0.0
C1496 C 0.62429 0.18334 0.19081 0.0
C1497 C 0.62433 0.20877 0.081 0.0
C1498 C 0.61901 0.19476 0.11717 0.0
C1499 C 0.59635 0.16311 0.22953 0.0
C1500 C 0.60513 0.17275 0.19015 0.0
H1501 H 0.60179 0.24651 0.02075 0.0
H1502 H 0.59336 0.222 0.07756 0.0
H1503 H 0.64548 0.20311 0.15651 0.0
H1504 H 0.60934 0.13156 0.31345 0.0
H1505 H 0.62514 0.14909 0.25135 0.0
C1506 C 0.51547 0.86232 0.75697 0.0
C1507 C 0.49744 0.8744 0.76215 0.0
C1508 C 0.52716 0.8561 0.79271 0.0
C1509 C 0.5224 0.84931 0.91074 0.0
H1510 H 0.58254 0.84664 0.90697 0.0
C1511 C 0.57244 0.81187 0.04563 0.0
C1512 C 0.59236 0.82019 0.05308 0.0
C1513 C 0.56003 0.81947 0.0122 0.0
C1514 C 0.56575 0.84752 0.90883 0.0
H1515 H 0.47825 0.89036 0.80901 0.0
H1516 H 0.49886 0.8802 0.87057 0.0
H1517 H 0.56342 0.85799 0.84392 0.0
H1518 H 0.61381 0.84457 0.03376 0.0
H1519 H 0.59202 0.8581 0.97683 0.0
H1520 H 0.52476 0.83929 0.97597 0.0
C1521 C 0.50367 0.87488 0.83919 0.0
C1522 C 0.55476 0.85374 0.87235 0.0
C1523 C 0.49198 0.88097 0.80365 0.0
C1524 C 0.59874 0.83746 0.02866 0.0
C1525 C 0.58632 0.84511 0.99551 0.0
C1526 C 0.5334 0.84313 0.94729 0.0
C1527 C 0.52117 0.86203 0.83438 0.0
C1528 C 0.53294 0.85485 0.87286 0.0
C1529 C 0.56716 0.83572 0.98572 0.0
C1530 C 0.55524 0.84228 0.94694 0.0
H1531 H 0.52034 0.85735 0.7254 0.0
H1532 H 0.54055 0.8462 0.78773 0.0
H1533 H 0.50558 0.84964 0.91216 0.0
H1534 H 0.56679 0.79885 0.06429 0.0
H1535 H 0.54527 0.81198 0.00596 0.0
C1536 C 0.59514 0.66328 0.72722 0.0
C1537 C 0.58995 0.64244 0.73539 0.0
C1538 C 0.605 0.67528 0.7586 0.0
C1539 C 0.63034 0.67215 0.86691 0.0
H1540 H 0.61001 0.72874 0.87624 0.0
C1541 C 0.62999 0.72267 0.02158 0.0
C1542 C 0.63784 0.74299 0.01724 0.0
C1543 C 0.62782 0.70983 0.98568 0.0
C1544 C 0.61598 0.71303 0.87373 0.0
H1545 H 0.59183 0.61757 0.78217 0.0
H1546 H 0.6082 0.6385 0.83714 0.0
H1547 H 0.59975 0.70758 0.81525 0.0
H1548 H 0.65001 0.76552 0.97183 0.0
H1549 H 0.64573 0.74322 0.90931 0.0
H1550 H 0.6455 0.67751 0.92719 0.0
C1551 C 0.60525 0.64561 0.80632 0.0
C1552 C 0.61026 0.7009 0.83859 0.0
C1553 C 0.59574 0.63356 0.77472 0.0
C1554 C 0.64402 0.74994 0.97644 0.0
C1555 C 0.6415 0.73724 0.94056 0.0
C1556 C 0.6357 0.68419 0.90254 0.0
C1557 C 0.60956 0.66679 0.79913 0.0
C1558 C 0.61721 0.68021 0.83479 0.0
C1559 C 0.63311 0.71721 0.94479 0.0
C1560 C 0.62846 0.70468 0.9063 0.0
H1561 H 0.59105 0.67049 0.69701 0.0
H1562 H 0.60855 0.69135 0.75136 0.0
H1563 H 0.63635 0.65646 0.86482 0.0
H1564 H 0.62504 0.71685 0.0525 0.0
H1565 H 0.62118 0.69446 0.98961 0.0
C1566 C 0.49676 0.38064 0.23984 0.0
C1567 C 0.50382 0.37833 0.28222 0.0
C1568 C 0.50931 0.37486 0.2054 0.0
C1569 C 0.56228 0.36854 0.16986 0.0
H1570 H 0.5403 0.3281 0.0895 0.0
C1571 C 0.61419 0.32922 0.04359 0.0
C1572 C 0.60555 0.32242 0.00463 0.0
C1573 C 0.60167 0.3378 0.07548 0.0
C1574 C 0.54657 0.33974 0.11099 0.0
H1575 H 0.52981 0.36871 0.32166 0.0
H1576 H 0.55216 0.35918 0.26088 0.0
H1577 H 0.51904 0.33951 0.14977 0.0
H1578 H 0.5771 0.32059 0.96771 0.0
H1579 H 0.55521 0.33624 0.02297 0.0
H1580 H 0.58952 0.36943 0.13077 0.0
C1581 C 0.53674 0.36526 0.2547 0.0
C1582 C 0.53443 0.3461 0.14575 0.0
C1583 C 0.52399 0.37069 0.28936 0.0
C1584 C 0.58418 0.32542 0.99755 0.0
C1585 C 0.57163 0.33427 0.02942 0.0
C1586 C 0.57429 0.3625 0.13466 0.0
C1587 C 0.52935 0.36702 0.21247 0.0
C1588 C 0.54226 0.3604 0.17567 0.0
C1589 C 0.58015 0.34017 0.06923 0.0
C1590 C 0.56672 0.34781 0.10495 0.0
H1591 H 0.48121 0.38628 0.23323 0.0
H1592 H 0.50332 0.37647 0.17313 0.0
H1593 H 0.56853 0.37981 0.19223 0.0
H1594 H 0.63055 0.32702 0.05048 0.0
H1595 H 0.60886 0.34174 0.10575 0.0
C1596 C 0.91912 0.38921 0.24786 0.0
C1597 C 0.92963 0.37483 0.22174 0.0
C1598 C 0.90545 0.38236 0.27962 0.0
C1599 C 0.87833 0.33552 0.32271 0.0
H1600 H 0.88986 0.36134 0.43242 0.0
C1601 C 0.8481 0.29937 0.47902 0.0
C1602 C 0.86354 0.29692 0.51056 0.0
C1603 C 0.85134 0.31268 0.44424 0.0
C1604 C 0.88638 0.35401 0.40202 0.0
H1605 H 0.93291 0.34205 0.20656 0.0
H1606 H 0.90949 0.33011 0.26237 0.0
H1607 H 0.90386 0.37669 0.36737 0.0
H1608 H 0.89395 0.30757 0.53156 0.0
H1609 H 0.89965 0.33041 0.47091 0.0
H1610 H 0.86205 0.31205 0.35775 0.0
C1611 C 0.91154 0.3467 0.25807 0.0
C1612 C 0.89419 0.36295 0.36459 0.0
C1613 C 0.92508 0.35356 0.22611 0.0
C1614 C 0.8817 0.30903 0.50788 0.0
C1615 C 0.88494 0.32227 0.47313 0.0
C1616 C 0.87059 0.32653 0.36019 0.0
C1617 C 0.90209 0.36099 0.28612 0.0
C1618 C 0.89079 0.35346 0.32461 0.0
C1619 C 0.87005 0.32381 0.44029 0.0
C1620 C 0.87509 0.33532 0.40038 0.0
H1621 H 0.92207 0.40574 0.24497 0.0
H1622 H 0.89809 0.39378 0.30011 0.0
H1623 H 0.87517 0.32799 0.29238 0.0
H1624 H 0.83386 0.29042 0.48023 0.0
H1625 H 0.83944 0.31378 0.4198 0.0
C1626 C 0.9544 0.60922 0.72565 0.0
C1627 C 0.97496 0.60176 0.72597 0.0
C1628 C 0.94319 0.61016 0.68735 0.0
C1629 C 0.92174 0.60493 0.59921 0.0
H1630 H 0.95273 0.64079 0.52243 0.0
C1631 C 0.91211 0.65923 0.43586 0.0
C1632 C 0.89225 0.66714 0.44499 0.0
C1633 C 0.9215 0.64493 0.46353 0.0
C1634 C 0.94392 0.63028 0.54253 0.0
H1635 H 0.9992 0.58787 0.68681 0.0
H1636 H 0.97971 0.58998 0.62006 0.0
H1637 H 0.96993 0.62577 0.58417 0.0
H1638 H 0.86624 0.66543 0.4892 0.0
H1639 H 0.88281 0.64152 0.53803 0.0
H1640 H 0.89566 0.60944 0.55779 0.0
C1641 C 0.97233 0.59501 0.64948 0.0
C1642 C 0.95382 0.62174 0.57815 0.0
C1643 C 0.98343 0.59377 0.68781 0.0
C1644 C 0.88156 0.65964 0.48108 0.0
C1645 C 0.89106 0.64569 0.50908 0.0
C1646 C 0.9119 0.61311 0.563 0.0
C1647 C 0.95243 0.60389 0.64871 0.0
C1648 C 0.94266 0.60955 0.6075 0.0
C1649 C 0.9114 0.63856 0.50138 0.0
C1650 C 0.92266 0.62655 0.53502 0.0
H1651 H 0.94736 0.61541 0.75448 0.0
H1652 H 0.92787 0.61719 0.68748 0.0
H1653 H 0.91288 0.59544 0.62133 0.0
H1654 H 0.92066 0.66454 0.40802 0.0
H1655 H 0.93696 0.63939 0.45588 0.0
C1656 C 0.42374 0.33001 0.30952 0.0
C1657 C 0.41947 0.3514 0.31245 0.0
C1658 C 0.4154 0.31808 0.27622 0.0
C1659 C 0.41024 0.30314 0.18437 0.0
H1660 H 0.3538 0.30797 0.14169 0.0
C1661 C 0.38669 0.27024 0.01977 0.0
C1662 C 0.36863 0.25788 0.01919 0.0
C1663 C 0.39146 0.28251 0.05544 0.0
C1664 C 0.3696 0.30643 0.1533 0.0
H1665 H 0.40147 0.37659 0.28464 0.0
H1666 H 0.3867 0.35573 0.22712 0.0
H1667 H 0.36382 0.32617 0.20737 0.0
H1668 H 0.34079 0.24982 0.05484 0.0
H1669 H 0.34897 0.27148 0.11665 0.0
H1670 H 0.41607 0.28344 0.13042 0.0
C1671 C 0.39672 0.34821 0.2503 0.0
C1672 C 0.37535 0.31692 0.19078 0.0
C1673 C 0.40523 0.36018 0.28337 0.0
C1674 C 0.35485 0.25908 0.05414 0.0
C1675 C 0.35952 0.27154 0.08961 0.0
C1676 C 0.40454 0.29282 0.14674 0.0
C1677 C 0.4023 0.32721 0.24544 0.0
C1678 C 0.39574 0.31537 0.20677 0.0
C1679 C 0.37814 0.28295 0.09115 0.0
C1680 C 0.38417 0.29437 0.13071 0.0
H1681 H 0.43429 0.32269 0.33183 0.0
H1682 H 0.41966 0.30181 0.27389 0.0
H1683 H 0.42615 0.30184 0.19547 0.0
H1684 H 0.39763 0.26979 0.99344 0.0
H1685 H 0.40578 0.29139 0.05538 0.0
C1686 C 0.41906 0.66673 0.0355 0.0
C1687 C 0.4134 0.68779 0.03594 0.0
C1688 C 0.42989 0.65844 1.00043 0.0
C1689 C 0.45915 0.67439 0.90162 0.0
H1690 H 0.44774 0.61767 0.86645 0.0
C1691 C 0.48788 0.64148 0.74022 0.0
C1692 C 0.49994 0.62335 0.74405 0.0
C1693 C 0.4759 0.64859 0.77466 0.0
C1694 C 0.45107 0.63354 0.87598 0.0
H1695 H 0.41347 0.7164 0.99941 0.0
H1696 H 0.43184 0.70212 0.93836 0.0
H1697 H 0.43075 0.63173 0.93005 0.0
H1698 H 0.50717 0.59736 0.78597 0.0
H1699 H 0.4857 0.60937 0.84526 0.0
H1700 H 0.47904 0.67626 0.84668 0.0
C1701 C 0.42894 0.69203 0.96547 0.0
C1702 C 0.4415 0.64157 0.91269 0.0
C1703 C 0.41842 0.7003 1.00061 0.0
C1704 C 0.49825 0.61149 0.78184 0.0
C1705 C 0.48595 0.61837 0.81593 0.0
C1706 C 0.46842 0.66646 0.86457 0.0
C1707 C 0.43482 0.67096 0.96468 0.0
C1708 C 0.44542 0.66212 0.92614 0.0
C1709 C 0.47524 0.63735 0.81323 0.0
C1710 C 0.46451 0.64595 0.85142 0.0
H1711 H 0.41507 0.65672 0.06217 0.0
H1712 H 0.43435 0.64222 1.00138 0.0
H1713 H 0.46298 0.69011 0.91121 0.0
H1714 H 0.4883 0.65059 0.71114 0.0
H1715 H 0.46746 0.66308 0.77144 0.0
C1716 C 0.09596 0.72144 0.44253 0.0
C1717 C 0.11634 0.72894 0.44757 0.0
C1718 C 0.08601 0.7109 0.47625 0.0
C1719 C 0.09678 0.6825 0.57718 0.0
H1720 H 0.04226 0.70135 0.61287 0.0
C1721 C 0.0648 0.66003 0.74258 0.0
C1722 C 0.04358 0.65534 0.74579 0.0
C1723 C 0.07273 0.66931 0.70543 0.0
C1724 C 0.05743 0.69578 0.60331 0.0
H1725 H 0.14264 0.73017 0.49118 0.0
H1726 H 0.12568 0.71158 0.54874 0.0
H1727 H 0.05756 0.71497 0.54704 0.0
H1728 H 0.01406 0.65606 0.71245 0.0
H1729 H 0.02775 0.67213 0.64769 0.0
H1730 H 0.09682 0.6633 0.63295 0.0
C1731 C 0.1172 0.71391 0.51915 0.0
C1732 C 0.06613 0.70352 0.56536 0.0
C1733 C 0.12695 0.72458 0.48594 0.0
C1734 C 0.03039 0.66023 0.71139 0.0
C1735 C 0.03829 0.66934 0.67412 0.0
C1736 C 0.0881 0.67474 0.61493 0.0
C1737 C 0.09652 0.70725 0.51511 0.0
C1738 C 0.08608 0.69725 0.55233 0.0
C1739 C 0.05966 0.67362 0.67023 0.0
C1740 C 0.06848 0.68157 0.62908 0.0
H1741 H 0.0877 0.7238 0.41275 0.0
H1742 H 0.07015 0.70564 0.47197 0.0
H1743 H 0.11203 0.67707 0.5676 0.0
H1744 H 0.07533 0.65609 0.76843 0.0
H1745 H 0.08919 0.67274 0.70406 0.0
C1746 C 0.02947 0.34512 0.23039 0.0
C1747 C 0.02202 0.36561 0.23479 0.0
C1748 C 0.03943 0.33512 0.26475 0.0
C1749 C 0.04343 0.33749 0.38312 0.0
H1750 H 0.09378 0.30526 0.36819 0.0
C1751 C 0.08467 0.29201 0.52164 0.0
C1752 C 0.10653 0.29341 0.52221 0.0
C1753 C 0.07323 0.30023 0.48723 0.0
C1754 C 0.07971 0.31423 0.3729 0.0
H1755 H 0.02043 0.39192 0.27843 0.0
H1756 H 0.03793 0.37472 0.33726 0.0
H1757 H 0.07661 0.32032 0.30568 0.0
H1758 H 0.13322 0.30584 0.48789 0.0
H1759 H 0.11339 0.32012 0.42894 0.0
H1760 H 0.04677 0.33173 0.45044 0.0
C1761 C 0.0356 0.36616 0.30776 0.0
C1762 C 0.06978 0.32269 0.33701 0.0
C1763 C 0.02576 0.37612 0.27362 0.0
C1764 C 0.11646 0.30421 0.48869 0.0
C1765 C 0.1051 0.31225 0.45442 0.0
C1766 C 0.05328 0.32889 0.419 0.0
C1767 C 0.04216 0.34541 0.30418 0.0
C1768 C 0.05176 0.3348 0.34176 0.0
C1769 C 0.08342 0.30993 0.45264 0.0
C1770 C 0.0718 0.31754 0.41441 0.0
H1771 H 0.02703 0.33657 0.20094 0.0
H1772 H 0.04437 0.31913 0.26089 0.0
H1773 H 0.02936 0.34647 0.38782 0.0
H1774 H 0.07645 0.284 0.54702 0.0
H1775 H 0.0565 0.29838 0.48699 0.0
loop_
_geom_bond_atom_site_label_1
_geom_bond_atom_site_label_2
_geom_bond_distance
_geom_bond_site_symmetry_2
_ccdc_geom_bond_type
O0 Mn1 2.201 . S
O0 C14 1.244 . S
Mn1 O0 2.201 . S
Mn1 O4 2.120 1_455 S
Mn1 O5 2.219 1_455 S
Mn1 O7 2.202 . S
Mn1 O9 2.120 1_455 S
Mn1 O19 2.220 1_455 S
O2 Mn3 2.087 . S
O2 C14 1.256 . S
Mn3 O2 2.087 . S
Mn3 O10 2.089 1_455 S
Mn3 O19 2.289 1_455 S
Mn3 O20 2.251 . S
O4 Mn1 2.120 1_655 S
O4 C15 1.239 . S
O5 Mn1 2.219 1_655 S
O5 Mn6 2.288 1_655 S
O5 C16 1.266 1_655 S
Mn6 O5 2.288 1_455 S
Mn6 O8 2.089 1_455 S
Mn6 O11 2.251 . S
Mn6 O12 2.087 . S
O7 Mn1 2.202 . S
O7 C17 1.244 . S
O8 Mn6 2.089 1_655 S
O8 C15 1.256 . S
O9 Mn1 2.120 1_655 S
O9 C18 1.239 . S
O10 Mn3 2.089 1_655 S
O10 C18 1.256 . S
O11 Mn6 2.251 . S
O11 C16 1.241 . S
O12 Mn6 2.087 . S
O12 C17 1.256 . S
C13 O19 1.271 1_455 S
C13 O20 1.241 . S
C14 O0 1.244 . S
C14 O2 1.256 . S
C15 O4 1.239 . S
C15 O8 1.256 . S
C16 O5 1.266 1_455 S
C16 O11 1.241 . S
C17 O7 1.244 . S
C17 O12 1.256 . S
C18 O9 1.239 . S
C18 O10 1.256 . S
O19 Mn1 2.220 1_655 S
O19 Mn3 2.289 1_655 S
O19 C13 1.271 1_655 S
O20 Mn3 2.251 . S
O20 C13 1.241 . S
O21 Mn22 2.163 . S
O21 C35 1.244 . S
Mn22 O21 2.163 . S
Mn22 O25 2.160 . S
Mn22 O26 2.221 . S
Mn22 O28 2.163 . S
Mn22 O30 2.160 . S
Mn22 O40 2.221 . S
O23 Mn24 2.087 . S
O23 C35 1.256 . S
Mn24 O23 2.087 . S
Mn24 O31 2.089 . S
Mn24 O40 2.290 . S
Mn24 O41 2.251 . S
O25 Mn22 2.160 . S
O25 C36 1.239 . S
O26 Mn22 2.221 . S
O26 Mn27 2.290 . S
O26 C37 1.278 . S
Mn27 O26 2.290 . S
Mn27 O29 2.089 . S
Mn27 O32 2.251 . S
Mn27 O33 2.087 . S
O28 Mn22 2.163 . S
O28 C38 1.244 . S
O29 Mn27 2.089 . S
O29 C36 1.256 . S
O30 Mn22 2.160 . S
O30 C39 1.239 . S
O31 Mn24 2.089 . S
O31 C39 1.256 . S
O32 Mn27 2.251 . S
O32 C37 1.241 . S
O33 Mn27 2.087 . S
O33 C38 1.256 . S
C34 O40 1.278 . S
C34 O41 1.241 . S
C35 O21 1.244 . S
C35 O23 1.256 . S
C36 O25 1.239 . S
C36 O29 1.256 . S
C37 O26 1.278 . S
C37 O32 1.241 . S
C38 O28 1.244 . S
C38 O33 1.256 . S
C39 O30 1.239 . S
C39 O31 1.256 . S
O40 Mn22 2.221 . S
O40 Mn24 2.290 . S
O40 C34 1.278 . S
O41 Mn24 2.251 . S
O41 C34 1.241 . S
O42 Mn43 2.163 . S
O42 C56 1.244 . S
Mn43 O42 2.163 . S
Mn43 O46 2.160 . S
Mn43 O47 2.221 . S
Mn43 O49 2.163 . S
Mn43 O51 2.160 . S
Mn43 O61 2.221 . S
O44 Mn45 2.087 . S
O44 C56 1.256 . S
Mn45 O44 2.087 . S
Mn45 O52 2.089 . S
Mn45 O61 2.290 . S
Mn45 O62 2.251 . S
O46 Mn43 2.160 . S
O46 C57 1.239 . S
O47 Mn43 2.221 . S
O47 Mn48 2.290 . S
O47 C58 1.278 . S
Mn48 O47 2.290 . S
Mn48 O50 2.089 . S
Mn48 O53 2.251 . S
Mn48 O54 2.087 . S
O49 Mn43 2.163 . S
O49 C59 1.244 . S
O50 Mn48 2.089 . S
O50 C57 1.256 . S
O51 Mn43 2.160 . S
O51 C60 1.239 . S
O52 Mn45 2.089 . S
O52 C60 1.256 . S
O53 Mn48 2.251 . S
O53 C58 1.241 . S
O54 Mn48 2.087 . S
O54 C59 1.256 . S
C55 O61 1.278 . S
C55 O62 1.241 . S
C56 O42 1.244 . S
C56 O44 1.256 . S
C57 O46 1.239 . S
C57 O50 1.256 . S
C58 O47 1.278 . S
C58 O53 1.241 . S
C59 O49 1.244 . S
C59 O54 1.256 . S
C60 O51 1.239 . S
C60 O52 1.256 . S
O61 Mn43 2.221 . S
O61 Mn45 2.290 . S
O61 C55 1.278 . S
O62 Mn45 2.251 . S
O62 C55 1.241 . S
O63 Mn64 2.163 . S
O63 C77 1.244 . S
Mn64 O63 2.163 . S
Mn64 O67 2.160 . S
Mn64 O68 2.221 . S
Mn64 O70 2.163 . S
Mn64 O72 2.160 . S
Mn64 O82 2.221 . S
O65 Mn66 2.087 . S
O65 C77 1.256 . S
Mn66 O65 2.087 . S
Mn66 O73 2.089 . S
Mn66 O82 2.290 . S
Mn66 O83 2.251 . S
O67 Mn64 2.160 . S
O67 C78 1.239 . S
O68 Mn64 2.221 . S
O68 Mn69 2.290 . S
O68 C79 1.278 . S
Mn69 O68 2.290 . S
Mn69 O71 2.089 . S
Mn69 O74 2.251 . S
Mn69 O75 2.087 . S
O70 Mn64 2.163 . S
O70 C80 1.244 . S
O71 Mn69 2.089 . S
O71 C78 1.256 . S
O72 Mn64 2.160 . S
O72 C81 1.239 . S
O73 Mn66 2.089 . S
O73 C81 1.256 . S
O74 Mn69 2.251 . S
O74 C79 1.241 . S
O75 Mn69 2.087 . S
O75 C80 1.256 . S
C76 O82 1.278 . S
C76 O83 1.241 . S
C77 O63 1.244 . S
C77 O65 1.256 . S
C78 O67 1.239 . S
C78 O71 1.256 . S
C79 O68 1.278 . S
C79 O74 1.241 . S
C80 O70 1.244 . S
C80 O75 1.256 . S
C81 O72 1.239 . S
C81 O73 1.256 . S
O82 Mn64 2.221 . S
O82 Mn66 2.290 . S
O82 C76 1.278 . S
O83 Mn66 2.251 . S
O83 C76 1.241 . S
O84 Mn85 2.201 . S
O84 C98 1.244 . S
Mn85 O84 2.201 . S
Mn85 O88 2.120 1_455 S
Mn85 O89 2.219 1_455 S
Mn85 O91 2.202 . S
Mn85 O93 2.120 1_455 S
Mn85 O103 2.220 1_455 S
O86 Mn87 2.087 . S
O86 C98 1.256 . S
Mn87 O86 2.087 . S
Mn87 O94 2.089 1_455 S
Mn87 O103 2.289 1_455 S
Mn87 O104 2.251 . S
O88 Mn85 2.120 1_655 S
O88 C99 1.239 . S
O89 Mn85 2.219 1_655 S
O89 Mn90 2.288 1_655 S
O89 C100 1.266 1_655 S
Mn90 O89 2.288 1_455 S
Mn90 O92 2.089 1_455 S
Mn90 O95 2.251 . S
Mn90 O96 2.087 . S
O91 Mn85 2.202 . S
O91 C101 1.244 . S
O92 Mn90 2.089 1_655 S
O92 C99 1.256 . S
O93 Mn85 2.120 1_655 S
O93 C102 1.239 . S
O94 Mn87 2.089 1_655 S
O94 C102 1.256 . S
O95 Mn90 2.251 . S
O95 C100 1.241 . S
O96 Mn90 2.087 . S
O96 C101 1.256 . S
C97 O103 1.271 1_455 S
C97 O104 1.241 . S
C98 O84 1.244 . S
C98 O86 1.256 . S
C99 O88 1.239 . S
C99 O92 1.256 . S
C100 O89 1.266 1_455 S
C100 O95 1.241 . S
C101 O91 1.244 . S
C101 O96 1.256 . S
C102 O93 1.239 . S
C102 O94 1.256 . S
O103 Mn85 2.220 1_655 S
O103 Mn87 2.289 1_655 S
O103 C97 1.271 1_655 S
O104 Mn87 2.251 . S
O104 C97 1.241 . S
O105 Mn106 2.163 . S
O105 C119 1.244 . S
Mn106 O105 2.163 . S
Mn106 O109 2.160 . S
Mn106 O110 2.221 . S
Mn106 O112 2.163 . S
Mn106 O114 2.160 . S
Mn106 O124 2.221 . S
O107 Mn108 2.087 . S
O107 C119 1.256 . S
Mn108 O107 2.087 . S
Mn108 O115 2.089 . S
Mn108 O124 2.290 . S
Mn108 O125 2.251 . S
O109 Mn106 2.160 . S
O109 C120 1.239 . S
O110 Mn106 2.221 . S
O110 Mn111 2.290 . S
O110 C121 1.278 . S
Mn111 O110 2.290 . S
Mn111 O113 2.089 . S
Mn111 O116 2.251 . S
Mn111 O117 2.087 . S
O112 Mn106 2.163 . S
O112 C122 1.244 . S
O113 Mn111 2.089 . S
O113 C120 1.256 . S
O114 Mn106 2.160 . S
O114 C123 1.239 . S
O115 Mn108 2.089 . S
O115 C123 1.256 . S
O116 Mn111 2.251 . S
O116 C121 1.241 . S
O117 Mn111 2.087 . S
O117 C122 1.256 . S
C118 O124 1.278 . S
C118 O125 1.241 . S
C119 O105 1.244 . S
C119 O107 1.256 . S
C120 O109 1.239 . S
C120 O113 1.256 . S
C121 O110 1.278 . S
C121 O116 1.241 . S
C122 O112 1.244 . S
C122 O117 1.256 . S
C123 O114 1.239 . S
C123 O115 1.256 . S
O124 Mn106 2.221 . S
O124 Mn108 2.290 . S
O124 C118 1.278 . S
O125 Mn108 2.251 . S
O125 C118 1.241 . S
O126 Mn127 2.163 . S
O126 C140 1.244 . S
Mn127 O126 2.163 . S
Mn127 O130 2.160 . S
Mn127 O131 2.221 . S
Mn127 O133 2.163 . S
Mn127 O135 2.160 . S
Mn127 O145 2.221 . S
O128 Mn129 2.087 . S
O128 C140 1.256 . S
Mn129 O128 2.087 . S
Mn129 O136 2.089 . S
Mn129 O145 2.290 . S
Mn129 O146 2.251 . S
O130 Mn127 2.160 . S
O130 C141 1.239 . S
O131 Mn127 2.221 . S
O131 Mn132 2.290 . S
O131 C142 1.278 . S
Mn132 O131 2.290 . S
Mn132 O134 2.089 . S
Mn132 O137 2.251 . S
Mn132 O138 2.087 . S
O133 Mn127 2.163 . S
O133 C143 1.244 . S
O134 Mn132 2.089 . S
O134 C141 1.256 . S
O135 Mn127 2.160 . S
O135 C144 1.239 . S
O136 Mn129 2.089 . S
O136 C144 1.256 . S
O137 Mn132 2.251 . S
O137 C142 1.241 . S
O138 Mn132 2.087 . S
O138 C143 1.256 . S
C139 O145 1.278 . S
C139 O146 1.241 . S
C140 O126 1.244 . S
C140 O128 1.256 . S
C141 O130 1.239 . S
C141 O134 1.256 . S
C142 O131 1.278 . S
C142 O137 1.241 . S
C143 O133 1.244 . S
C143 O138 1.256 . S
C144 O135 1.239 . S
C144 O136 1.256 . S
O145 Mn127 2.221 . S
O145 Mn129 2.290 . S
O145 C139 1.278 . S
O146 Mn129 2.251 . S
O146 C139 1.241 . S
O147 Mn148 2.163 . S
O147 C161 1.244 . S
Mn148 O147 2.163 . S
Mn148 O151 2.160 . S
Mn148 O152 2.221 . S
Mn148 O154 2.163 . S
Mn148 O156 2.160 . S
Mn148 O166 2.221 . S
O149 Mn150 2.087 . S
O149 C161 1.256 . S
Mn150 O149 2.087 . S
Mn150 O157 2.089 . S
Mn150 O166 2.290 . S
Mn150 O167 2.251 . S
O151 Mn148 2.160 . S
O151 C162 1.239 . S
O152 Mn148 2.221 . S
O152 Mn153 2.290 . S
O152 C163 1.278 . S
Mn153 O152 2.290 . S
Mn153 O155 2.089 . S
Mn153 O158 2.251 . S
Mn153 O159 2.087 . S
O154 Mn148 2.163 . S
O154 C164 1.244 . S
O155 Mn153 2.089 . S
O155 C162 1.256 . S
O156 Mn148 2.160 . S
O156 C165 1.239 . S
O157 Mn150 2.089 . S
O157 C165 1.256 . S
O158 Mn153 2.251 . S
O158 C163 1.241 . S
O159 Mn153 2.087 . S
O159 C164 1.256 . S
C160 O166 1.278 . S
C160 O167 1.241 . S
C161 O147 1.244 . S
C161 O149 1.256 . S
C162 O151 1.239 . S
C162 O155 1.256 . S
C163 O152 1.278 . S
C163 O158 1.241 . S
C164 O154 1.244 . S
C164 O159 1.256 . S
C165 O156 1.239 . S
C165 O157 1.256 . S
O166 Mn148 2.221 . S
O166 Mn150 2.290 . S
O166 C160 1.278 . S
O167 Mn150 2.251 . S
O167 C160 1.241 . S
O168 Mn169 2.163 . S
O168 C182 1.244 . S
Mn169 O168 2.163 . S
Mn169 O172 2.160 . S
Mn169 O173 2.221 . S
Mn169 O175 2.163 . S
Mn169 O177 2.160 . S
Mn169 O187 2.221 . S
O170 Mn171 2.087 . S
O170 C182 1.256 . S
Mn171 O170 2.087 . S
Mn171 O178 2.089 . S
Mn171 O187 2.290 . S
Mn171 O188 2.251 . S
O172 Mn169 2.160 . S
O172 C183 1.239 . S
O173 Mn169 2.221 . S
O173 Mn174 2.290 . S
O173 C184 1.278 . S
Mn174 O173 2.290 . S
Mn174 O176 2.089 . S
Mn174 O179 2.251 . S
Mn174 O180 2.087 . S
O175 Mn169 2.163 . S
O175 C185 1.244 . S
O176 Mn174 2.089 . S
O176 C183 1.256 . S
O177 Mn169 2.160 . S
O177 C186 1.239 . S
O178 Mn171 2.089 . S
O178 C186 1.256 . S
O179 Mn174 2.251 . S
O179 C184 1.241 . S
O180 Mn174 2.087 . S
O180 C185 1.256 . S
C181 O187 1.278 . S
C181 O188 1.241 . S
C182 O168 1.244 . S
C182 O170 1.256 . S
C183 O172 1.239 . S
C183 O176 1.256 . S
C184 O173 1.278 . S
C184 O179 1.241 . S
C185 O175 1.244 . S
C185 O180 1.256 . S
C186 O177 1.239 . S
C186 O178 1.256 . S
O187 Mn169 2.221 . S
O187 Mn171 2.290 . S
O187 C181 1.278 . S
O188 Mn171 2.251 . S
O188 C181 1.241 . S
O189 Mn190 2.163 . S
O189 C203 1.244 . S
Mn190 O189 2.163 . S
Mn190 O193 2.160 . S
Mn190 O194 2.221 . S
Mn190 O196 2.163 . S
Mn190 O198 2.160 . S
Mn190 O208 2.221 . S
O191 Mn192 2.087 . S
O191 C203 1.256 . S
Mn192 O191 2.087 . S
Mn192 O199 2.089 . S
Mn192 O208 2.290 . S
Mn192 O209 2.251 . S
O193 Mn190 2.160 . S
O193 C204 1.239 . S
O194 Mn190 2.221 . S
O194 Mn195 2.290 . S
O194 C205 1.278 . S
Mn195 O194 2.290 . S
Mn195 O197 2.089 . S
Mn195 O200 2.251 . S
Mn195 O201 2.087 . S
O196 Mn190 2.163 . S
O196 C206 1.244 . S
O197 Mn195 2.089 . S
O197 C204 1.256 . S
O198 Mn190 2.160 . S
O198 C207 1.239 . S
O199 Mn192 2.089 . S
O199 C207 1.256 . S
O200 Mn195 2.251 . S
O200 C205 1.241 . S
O201 Mn195 2.087 . S
O201 C206 1.256 . S
C202 O208 1.278 . S
C202 O209 1.241 . S
C203 O189 1.244 . S
C203 O191 1.256 . S
C204 O193 1.239 . S
C204 O197 1.256 . S
C205 O194 1.278 . S
C205 O200 1.241 . S
C206 O196 1.244 . S
C206 O201 1.256 . S
C207 O198 1.239 . S
C207 O199 1.256 . S
O208 Mn190 2.221 . S
O208 Mn192 2.290 . S
O208 C202 1.278 . S
O209 Mn192 2.251 . S
O209 C202 1.241 . S
O210 Mn211 2.163 . S
O210 C224 1.244 . S
Mn211 O210 2.163 . S
Mn211 O214 2.160 . S
Mn211 O215 2.221 . S
Mn211 O217 2.163 . S
Mn211 O219 2.160 . S
Mn211 O229 2.221 . S
O212 Mn213 2.087 . S
O212 C224 1.256 . S
Mn213 O212 2.087 . S
Mn213 O220 2.089 . S
Mn213 O229 2.290 . S
Mn213 O230 2.251 . S
O214 Mn211 2.160 . S
O214 C225 1.239 . S
O215 Mn211 2.221 . S
O215 Mn216 2.290 . S
O215 C226 1.278 . S
Mn216 O215 2.290 . S
Mn216 O218 2.089 . S
Mn216 O221 2.251 . S
Mn216 O222 2.087 . S
O217 Mn211 2.163 . S
O217 C227 1.244 . S
O218 Mn216 2.089 . S
O218 C225 1.256 . S
O219 Mn211 2.160 . S
O219 C228 1.239 . S
O220 Mn213 2.089 . S
O220 C228 1.256 . S
O221 Mn216 2.251 . S
O221 C226 1.241 . S
O222 Mn216 2.087 . S
O222 C227 1.256 . S
C223 O229 1.278 . S
C223 O230 1.241 . S
C224 O210 1.244 . S
C224 O212 1.256 . S
C225 O214 1.239 . S
C225 O218 1.256 . S
C226 O215 1.278 . S
C226 O221 1.241 . S
C227 O217 1.244 . S
C227 O222 1.256 . S
C228 O219 1.239 . S
C228 O220 1.256 . S
O229 Mn211 2.221 . S
O229 Mn213 2.290 . S
O229 C223 1.278 . S
O230 Mn213 2.251 . S
O230 C223 1.241 . S
O231 Mn232 2.163 . S
O231 C245 1.244 . S
Mn232 O231 2.163 . S
Mn232 O235 2.160 . S
Mn232 O236 2.221 . S
Mn232 O238 2.163 . S
Mn232 O240 2.160 . S
Mn232 O250 2.221 . S
O233 Mn234 2.087 . S
O233 C245 1.256 . S
Mn234 O233 2.087 . S
Mn234 O241 2.089 . S
Mn234 O250 2.290 . S
Mn234 O251 2.251 . S
O235 Mn232 2.160 . S
O235 C246 1.239 . S
O236 Mn232 2.221 . S
O236 Mn237 2.290 . S
O236 C247 1.278 . S
Mn237 O236 2.290 . S
Mn237 O239 2.089 . S
Mn237 O242 2.251 . S
Mn237 O243 2.087 . S
O238 Mn232 2.163 . S
O238 C248 1.244 . S
O239 Mn237 2.089 . S
O239 C246 1.256 . S
O240 Mn232 2.160 . S
O240 C249 1.239 . S
O241 Mn234 2.089 . S
O241 C249 1.256 . S
O242 Mn237 2.251 . S
O242 C247 1.241 . S
O243 Mn237 2.087 . S
O243 C248 1.256 . S
C244 O250 1.278 . S
C244 O251 1.241 . S
C245 O231 1.244 . S
C245 O233 1.256 . S
C246 O235 1.239 . S
C246 O239 1.256 . S
C247 O236 1.278 . S
C247 O242 1.241 . S
C248 O238 1.244 . S
C248 O243 1.256 . S
C249 O240 1.239 . S
C249 O241 1.256 . S
O250 Mn232 2.221 . S
O250 Mn234 2.290 . S
O250 C244 1.278 . S
O251 Mn234 2.251 . S
O251 C244 1.241 . S
O252 Mn253 2.163 . S
O252 C266 1.244 . S
Mn253 O252 2.163 . S
Mn253 O256 2.160 . S
Mn253 O257 2.221 . S
Mn253 O259 2.163 . S
Mn253 O261 2.160 . S
Mn253 O271 2.221 . S
O254 Mn255 2.087 . S
O254 C266 1.256 . S
Mn255 O254 2.087 . S
Mn255 O262 2.089 . S
Mn255 O271 2.290 . S
Mn255 O272 2.251 . S
O256 Mn253 2.160 . S
O256 C267 1.239 . S
O257 Mn253 2.221 . S
O257 Mn258 2.290 . S
O257 C268 1.278 . S
Mn258 O257 2.290 . S
Mn258 O260 2.089 . S
Mn258 O263 2.251 . S
Mn258 O264 2.087 . S
O259 Mn253 2.163 . S
O259 C269 1.244 . S
O260 Mn258 2.089 . S
O260 C267 1.256 . S
O261 Mn253 2.160 . S
O261 C270 1.239 . S
O262 Mn255 2.089 . S
O262 C270 1.256 . S
O263 Mn258 2.251 . S
O263 C268 1.241 . S
O264 Mn258 2.087 . S
O264 C269 1.256 . S
C265 O271 1.278 . S
C265 O272 1.241 . S
C266 O252 1.244 . S
C266 O254 1.256 . S
C267 O256 1.239 . S
C267 O260 1.256 . S
C268 O257 1.278 . S
C268 O263 1.241 . S
C269 O259 1.244 . S
C269 O264 1.256 . S
C270 O261 1.239 . S
C270 O262 1.256 . S
O271 Mn253 2.221 . S
O271 Mn255 2.290 . S
O271 C265 1.278 . S
O272 Mn255 2.251 . S
O272 C265 1.241 . S
O273 Mn274 2.163 1_655 S
O273 C287 1.244 . S
Mn274 O273 2.163 1_455 S
Mn274 O277 2.160 . S
Mn274 O278 2.221 . S
Mn274 O280 2.163 1_455 S
Mn274 O282 2.160 . S
Mn274 O292 2.221 . S
O275 Mn276 2.087 1_655 S
O275 C287 1.256 . S
Mn276 O275 2.087 1_455 S
Mn276 O283 2.089 . S
Mn276 O292 2.290 . S
Mn276 O293 2.251 1_455 S
O277 Mn274 2.160 . S
O277 C288 1.239 . S
O278 Mn274 2.221 . S
O278 Mn279 2.290 . S
O278 C289 1.278 1_455 S
Mn279 O278 2.290 . S
Mn279 O281 2.089 . S
Mn279 O284 2.251 1_455 S
Mn279 O285 2.087 1_455 S
O280 Mn274 2.163 1_655 S
O280 C290 1.244 . S
O281 Mn279 2.089 . S
O281 C288 1.256 . S
O282 Mn274 2.160 . S
O282 C291 1.239 . S
O283 Mn276 2.089 . S
O283 C291 1.256 . S
O284 Mn279 2.251 1_655 S
O284 C289 1.241 . S
O285 Mn279 2.087 1_655 S
O285 C290 1.256 . S
C286 O292 1.278 1_655 S
C286 O293 1.241 . S
C287 O273 1.244 . S
C287 O275 1.256 . S
C288 O277 1.239 . S
C288 O281 1.256 . S
C289 O278 1.278 1_655 S
C289 O284 1.241 . S
C290 O280 1.244 . S
C290 O285 1.256 . S
C291 O282 1.239 . S
C291 O283 1.256 . S
O292 Mn274 2.221 . S
O292 Mn276 2.290 . S
O292 C286 1.278 1_455 S
O293 Mn276 2.251 1_655 S
O293 C286 1.241 . S
O294 Mn295 2.163 . S
O294 C308 1.244 . S
Mn295 O294 2.163 . S
Mn295 O298 2.160 . S
Mn295 O299 2.221 . S
Mn295 O301 2.163 . S
Mn295 O303 2.160 . S
Mn295 O313 2.221 . S
O296 Mn297 2.087 . S
O296 C308 1.256 . S
Mn297 O296 2.087 . S
Mn297 O304 2.089 . S
Mn297 O313 2.290 . S
Mn297 O314 2.251 . S
O298 Mn295 2.160 . S
O298 C309 1.239 . S
O299 Mn295 2.221 . S
O299 Mn300 2.290 . S
O299 C310 1.278 . S
Mn300 O299 2.290 . S
Mn300 O302 2.089 . S
Mn300 O305 2.251 . S
Mn300 O306 2.087 . S
O301 Mn295 2.163 . S
O301 C311 1.244 . S
O302 Mn300 2.089 . S
O302 C309 1.256 . S
O303 Mn295 2.160 . S
O303 C312 1.239 . S
O304 Mn297 2.089 . S
O304 C312 1.256 . S
O305 Mn300 2.251 . S
O305 C310 1.241 . S
O306 Mn300 2.087 . S
O306 C311 1.256 . S
C307 O313 1.278 . S
C307 O314 1.241 . S
C308 O294 1.244 . S
C308 O296 1.256 . S
C309 O298 1.239 . S
C309 O302 1.256 . S
C310 O299 1.278 . S
C310 O305 1.241 . S
C311 O301 1.244 . S
C311 O306 1.256 . S
C312 O303 1.239 . S
C312 O304 1.256 . S
O313 Mn295 2.221 . S
O313 Mn297 2.290 . S
O313 C307 1.278 . S
O314 Mn297 2.251 . S
O314 C307 1.241 . S
O315 Mn316 2.163 1_655 S
O315 C329 1.244 . S
Mn316 O315 2.163 1_455 S
Mn316 O319 2.160 . S
Mn316 O320 2.221 . S
Mn316 O322 2.163 1_455 S
Mn316 O324 2.160 . S
Mn316 O334 2.221 . S
O317 Mn318 2.087 1_655 S
O317 C329 1.256 . S
Mn318 O317 2.087 1_455 S
Mn318 O325 2.089 . S
Mn318 O334 2.290 . S
Mn318 O335 2.251 1_455 S
O319 Mn316 2.160 . S
O319 C330 1.239 . S
O320 Mn316 2.221 . S
O320 Mn321 2.290 . S
O320 C331 1.278 1_455 S
Mn321 O320 2.290 . S
Mn321 O323 2.089 . S
Mn321 O326 2.251 1_455 S
Mn321 O327 2.087 1_455 S
O322 Mn316 2.163 1_655 S
O322 C332 1.244 . S
O323 Mn321 2.089 . S
O323 C330 1.256 . S
O324 Mn316 2.160 . S
O324 C333 1.239 . S
O325 Mn318 2.089 . S
O325 C333 1.256 . S
O326 Mn321 2.251 1_655 S
O326 C331 1.241 . S
O327 Mn321 2.087 1_655 S
O327 C332 1.256 . S
C328 O334 1.278 1_655 S
C328 O335 1.241 . S
C329 O315 1.244 . S
C329 O317 1.256 . S
C330 O319 1.239 . S
C330 O323 1.256 . S
C331 O320 1.278 1_655 S
C331 O326 1.241 . S
C332 O322 1.244 . S
C332 O327 1.256 . S
C333 O324 1.239 . S
C333 O325 1.256 . S
O334 Mn316 2.221 . S
O334 Mn318 2.290 . S
O334 C328 1.278 1_455 S
O335 Mn318 2.251 1_655 S
O335 C328 1.241 . S
C336 C337 1.349 . S
C336 C338 1.327 1_554 S
C336 H361 0.950 . S
C337 C336 1.349 . S
C337 C353 1.349 1_554 S
C338 C336 1.327 1_556 S
C338 C357 1.429 . S
C338 H362 0.950 . S
C339 C356 1.574 . S
C339 C358 1.368 . S
C339 H363 0.949 . S
H340 C344 0.949 . S
C341 C342 1.349 . S
C341 C343 1.327 . S
C341 H364 0.950 . S
C342 C341 1.349 . S
C342 C354 1.349 . S
C343 C341 1.327 . S
C343 C359 1.429 . S
C343 H365 0.950 . S
C344 H340 0.949 . S
C344 C352 1.574 . S
C344 C360 1.368 . S
H345 C353 0.950 . S
H346 C351 0.950 . S
H347 C352 0.949 . S
H348 C354 0.950 . S
H349 C355 0.950 . S
H350 C356 0.949 . S
C351 H346 0.950 . S
C351 C353 1.327 . S
C351 C357 1.429 . S
C352 C344 1.574 . S
C352 H347 0.949 . S
C352 C358 1.368 . S
C353 C337 1.349 1_556 S
C353 H345 0.950 . S
C353 C351 1.327 . S
C354 C342 1.349 . S
C354 H348 0.950 . S
C354 C355 1.327 . S
C355 H349 0.950 . S
C355 C354 1.327 . S
C355 C359 1.429 . S
C356 C339 1.574 . S
C356 H350 0.949 . S
C356 C360 1.368 . S
C357 C338 1.429 . S
C357 C351 1.429 . S
C357 C358 1.523 . S
C358 C339 1.368 . S
C358 C352 1.368 . S
C358 C357 1.523 . S
C359 C343 1.429 . S
C359 C355 1.429 . S
C359 C360 1.523 . S
C360 C344 1.368 . S
C360 C356 1.368 . S
C360 C359 1.523 . S
H361 C336 0.950 . S
H362 C338 0.950 . S
H363 C339 0.949 . S
H364 C341 0.950 . S
H365 C343 0.950 . S
C366 C367 1.349 . S
C366 C368 1.327 . S
C366 H391 0.950 . S
C367 C366 1.349 . S
C367 C383 1.349 . S
C368 C366 1.327 . S
C368 C387 1.429 . S
C368 H392 0.950 . S
C369 C386 1.574 . S
C369 C388 1.368 . S
C369 H393 0.949 . S
H370 C374 0.949 . S
C371 C372 1.349 1_554 S
C371 C373 1.327 . S
C371 H394 0.950 1_554 S
C372 C371 1.349 1_556 S
C372 C384 1.349 . S
C373 C371 1.327 . S
C373 C389 1.429 . S
C373 H395 0.950 . S
C374 H370 0.949 . S
C374 C382 1.574 . S
C374 C390 1.368 . S
H375 C383 0.950 . S
H376 C381 0.950 . S
H377 C382 0.949 . S
H378 C384 0.950 . S
H379 C385 0.950 . S
H380 C386 0.949 . S
C381 H376 0.950 . S
C381 C383 1.327 . S
C381 C387 1.429 . S
C382 C374 1.574 . S
C382 H377 0.949 . S
C382 C388 1.368 . S
C383 C367 1.349 . S
C383 H375 0.950 . S
C383 C381 1.327 . S
C384 C372 1.349 . S
C384 H378 0.950 . S
C384 C385 1.327 1_556 S
C385 H379 0.950 . S
C385 C384 1.327 1_554 S
C385 C389 1.429 . S
C386 C369 1.574 . S
C386 H380 0.949 . S
C386 C390 1.368 . S
C387 C368 1.429 . S
C387 C381 1.429 . S
C387 C388 1.523 . S
C388 C369 1.368 . S
C388 C382 1.368 . S
C388 C387 1.523 . S
C389 C373 1.429 . S
C389 C385 1.429 . S
C389 C390 1.523 . S
C390 C374 1.368 . S
C390 C386 1.368 . S
C390 C389 1.523 . S
H391 C366 0.950 . S
H392 C368 0.950 . S
H393 C369 0.949 . S
H394 C371 0.950 1_556 S
H395 C373 0.950 . S
C396 C397 1.349 . S
C396 C398 1.327 . S
C396 H421 0.950 . S
C397 C396 1.349 . S
C397 C413 1.349 . S
C398 C396 1.327 . S
C398 C417 1.429 . S
C398 H422 0.950 . S
C399 C416 1.574 . S
C399 C418 1.368 . S
C399 H423 0.949 . S
H400 C404 0.949 . S
C401 C402 1.349 . S
C401 C403 1.327 . S
C401 H424 0.950 . S
C402 C401 1.349 . S
C402 C414 1.349 . S
C403 C401 1.327 . S
C403 C419 1.429 . S
C403 H425 0.950 . S
C404 H400 0.949 . S
C404 C412 1.574 . S
C404 C420 1.368 . S
H405 C413 0.950 . S
H406 C411 0.950 . S
H407 C412 0.949 . S
H408 C414 0.950 . S
H409 C415 0.950 . S
H410 C416 0.949 . S
C411 H406 0.950 . S
C411 C413 1.327 . S
C411 C417 1.429 . S
C412 C404 1.574 . S
C412 H407 0.949 . S
C412 C418 1.368 . S
C413 C397 1.349 . S
C413 H405 0.950 . S
C413 C411 1.327 . S
C414 C402 1.349 . S
C414 H408 0.950 . S
C414 C415 1.327 . S
C415 H409 0.950 . S
C415 C414 1.327 . S
C415 C419 1.429 . S
C416 C399 1.574 . S
C416 H410 0.949 . S
C416 C420 1.368 . S
C417 C398 1.429 . S
C417 C411 1.429 . S
C417 C418 1.523 . S
C418 C399 1.368 . S
C418 C412 1.368 . S
C418 C417 1.523 . S
C419 C403 1.429 . S
C419 C415 1.429 . S
C419 C420 1.523 . S
C420 C404 1.368 . S
C420 C416 1.368 . S
C420 C419 1.523 . S
H421 C396 0.950 . S
H422 C398 0.950 . S
H423 C399 0.949 . S
H424 C401 0.950 . S
H425 C403 0.950 . S
C426 C427 1.349 . S
C426 C428 1.327 . S
C426 H451 0.950 . S
C427 C426 1.349 . S
C427 C443 1.349 . S
C428 C426 1.327 . S
C428 C447 1.429 . S
C428 H452 0.950 . S
C429 C446 1.574 . S
C429 C448 1.368 . S
C429 H453 0.949 . S
H430 C434 0.949 . S
C431 C432 1.349 . S
C431 C433 1.327 . S
C431 H454 0.950 . S
C432 C431 1.349 . S
C432 C444 1.349 . S
C433 C431 1.327 . S
C433 C449 1.429 . S
C433 H455 0.950 . S
C434 H430 0.949 . S
C434 C442 1.574 . S
C434 C450 1.368 . S
H435 C443 0.950 . S
H436 C441 0.950 . S
H437 C442 0.949 . S
H438 C444 0.950 . S
H439 C445 0.950 . S
H440 C446 0.949 . S
C441 H436 0.950 . S
C441 C443 1.327 . S
C441 C447 1.429 . S
C442 C434 1.574 . S
C442 H437 0.949 . S
C442 C448 1.368 . S
C443 C427 1.349 . S
C443 H435 0.950 . S
C443 C441 1.327 . S
C444 C432 1.349 . S
C444 H438 0.950 . S
C444 C445 1.327 . S
C445 H439 0.950 . S
C445 C444 1.327 . S
C445 C449 1.429 . S
C446 C429 1.574 . S
C446 H440 0.949 . S
C446 C450 1.368 . S
C447 C428 1.429 . S
C447 C441 1.429 . S
C447 C448 1.523 . S
C448 C429 1.368 . S
C448 C442 1.368 . S
C448 C447 1.523 . S
C449 C433 1.429 . S
C449 C445 1.429 . S
C449 C450 1.523 . S
C450 C434 1.368 . S
C450 C446 1.368 . S
C450 C449 1.523 . S
H451 C426 0.950 . S
H452 C428 0.950 . S
H453 C429 0.949 . S
H454 C431 0.950 . S
H455 C433 0.950 . S
C456 C457 1.349 . S
C456 C458 1.327 . S
C456 H481 0.950 . S
C457 C456 1.349 . S
C457 C473 1.349 . S
C458 C456 1.327 . S
C458 C477 1.429 . S
C458 H482 0.950 . S
C459 C476 1.574 . S
C459 C478 1.368 . S
C459 H483 0.949 . S
H460 C464 0.949 . S
C461 C462 1.349 . S
C461 C463 1.327 1_556 S
C461 H484 0.950 . S
C462 C461 1.349 . S
C462 C474 1.349 1_556 S
C463 C461 1.327 1_554 S
C463 C479 1.429 . S
C463 H485 0.950 . S
C464 H460 0.949 . S
C464 C472 1.574 . S
C464 C480 1.368 . S
H465 C473 0.950 . S
H466 C471 0.950 . S
H467 C472 0.949 . S
H468 C474 0.950 . S
H469 C475 0.950 . S
H470 C476 0.949 . S
C471 H466 0.950 . S
C471 C473 1.327 . S
C471 C477 1.429 . S
C472 C464 1.574 . S
C472 H467 0.949 . S
C472 C478 1.368 . S
C473 C457 1.349 . S
C473 H465 0.950 . S
C473 C471 1.327 . S
C474 C462 1.349 1_554 S
C474 H468 0.950 . S
C474 C475 1.327 . S
C475 H469 0.950 . S
C475 C474 1.327 . S
C475 C479 1.429 . S
C476 C459 1.574 . S
C476 H470 0.949 . S
C476 C480 1.368 . S
C477 C458 1.429 . S
C477 C471 1.429 . S
C477 C478 1.523 . S
C478 C459 1.368 . S
C478 C472 1.368 . S
C478 C477 1.523 . S
C479 C463 1.429 . S
C479 C475 1.429 . S
C479 C480 1.523 . S
C480 C464 1.368 . S
C480 C476 1.368 . S
C480 C479 1.523 . S
H481 C456 0.950 . S
H482 C458 0.950 . S
H483 C459 0.949 . S
H484 C461 0.950 . S
H485 C463 0.950 . S
C486 C487 1.349 . S
C486 C488 1.327 . S
C486 H511 0.950 . S
C487 C486 1.349 . S
C487 C503 1.349 . S
C488 C486 1.327 . S
C488 C507 1.429 . S
C488 H512 0.950 . S
C489 C506 1.574 . S
C489 C508 1.368 . S
C489 H513 0.949 . S
H490 C494 0.949 . S
C491 C492 1.349 . S
C491 C493 1.327 1_554 S
C491 H514 0.950 . S
C492 C491 1.349 . S
C492 C504 1.349 1_554 S
C493 C491 1.327 1_556 S
C493 C509 1.429 . S
C493 H515 0.950 . S
C494 H490 0.949 . S
C494 C502 1.574 . S
C494 C510 1.368 . S
H495 C503 0.950 . S
H496 C501 0.950 . S
H497 C502 0.949 . S
H498 C504 0.950 . S
H499 C505 0.950 . S
H500 C506 0.949 . S
C501 H496 0.950 . S
C501 C503 1.327 . S
C501 C507 1.429 . S
C502 C494 1.574 . S
C502 H497 0.949 . S
C502 C508 1.368 . S
C503 C487 1.349 . S
C503 H495 0.950 . S
C503 C501 1.327 . S
C504 C492 1.349 1_556 S
C504 H498 0.950 . S
C504 C505 1.327 . S
C505 H499 0.950 . S
C505 C504 1.327 . S
C505 C509 1.429 . S
C506 C489 1.574 . S
C506 H500 0.949 . S
C506 C510 1.368 . S
C507 C488 1.429 . S
C507 C501 1.429 . S
C507 C508 1.523 . S
C508 C489 1.368 . S
C508 C502 1.368 . S
C508 C507 1.523 . S
C509 C493 1.429 . S
C509 C505 1.429 . S
C509 C510 1.523 . S
C510 C494 1.368 . S
C510 C506 1.368 . S
C510 C509 1.523 . S
H511 C486 0.950 . S
H512 C488 0.950 . S
H513 C489 0.949 . S
H514 C491 0.950 . S
H515 C493 0.950 . S
C516 C517 1.349 . S
C516 C518 1.327 . S
C516 H541 0.950 . S
C517 C516 1.349 . S
C517 C533 1.349 . S
C518 C516 1.327 . S
C518 C537 1.429 . S
C518 H542 0.950 . S
C519 C536 1.574 . S
C519 C538 1.368 . S
C519 H543 0.949 . S
H520 C524 0.949 . S
C521 C522 1.349 . S
C521 C523 1.327 . S
C521 H544 0.950 . S
C522 C521 1.349 . S
C522 C534 1.349 . S
C523 C521 1.327 . S
C523 C539 1.429 . S
C523 H545 0.950 . S
C524 H520 0.949 . S
C524 C532 1.574 . S
C524 C540 1.368 . S
H525 C533 0.950 . S
H526 C531 0.950 . S
H527 C532 0.949 . S
H528 C534 0.950 . S
H529 C535 0.950 . S
H530 C536 0.949 . S
C531 H526 0.950 . S
C531 C533 1.327 . S
C531 C537 1.429 . S
C532 C524 1.574 . S
C532 H527 0.949 . S
C532 C538 1.368 . S
C533 C517 1.349 . S
C533 H525 0.950 . S
C533 C531 1.327 . S
C534 C522 1.349 . S
C534 H528 0.950 . S
C534 C535 1.327 . S
C535 H529 0.950 . S
C535 C534 1.327 . S
C535 C539 1.429 . S
C536 C519 1.574 . S
C536 H530 0.949 . S
C536 C540 1.368 . S
C537 C518 1.429 . S
C537 C531 1.429 . S
C537 C538 1.523 . S
C538 C519 1.368 . S
C538 C532 1.368 . S
C538 C537 1.523 . S
C539 C523 1.429 . S
C539 C535 1.429 . S
C539 C540 1.523 . S
C540 C524 1.368 . S
C540 C536 1.368 . S
C540 C539 1.523 . S
H541 C516 0.950 . S
H542 C518 0.950 . S
H543 C519 0.949 . S
H544 C521 0.950 . S
H545 C523 0.950 . S
C546 C547 1.349 . S
C546 C548 1.327 . S
C546 H571 0.950 . S
C547 C546 1.349 . S
C547 C563 1.349 . S
C548 C546 1.327 . S
C548 C567 1.429 . S
C548 H572 0.950 . S
C549 C566 1.574 . S
C549 C568 1.368 . S
C549 H573 0.949 . S
H550 C554 0.949 . S
C551 C552 1.349 . S
C551 C553 1.327 . S
C551 H574 0.950 . S
C552 C551 1.349 . S
C552 C564 1.349 . S
C553 C551 1.327 . S
C553 C569 1.429 . S
C553 H575 0.950 . S
C554 H550 0.949 . S
C554 C562 1.574 . S
C554 C570 1.368 . S
H555 C563 0.950 . S
H556 C561 0.950 . S
H557 C562 0.949 . S
H558 C564 0.950 . S
H559 C565 0.950 . S
H560 C566 0.949 . S
C561 H556 0.950 . S
C561 C563 1.327 . S
C561 C567 1.429 . S
C562 C554 1.574 . S
C562 H557 0.949 . S
C562 C568 1.368 . S
C563 C547 1.349 . S
C563 H555 0.950 . S
C563 C561 1.327 . S
C564 C552 1.349 . S
C564 H558 0.950 . S
C564 C565 1.327 . S
C565 H559 0.950 . S
C565 C564 1.327 . S
C565 C569 1.429 . S
C566 C549 1.574 . S
C566 H560 0.949 . S
C566 C570 1.368 . S
C567 C548 1.429 . S
C567 C561 1.429 . S
C567 C568 1.523 . S
C568 C549 1.368 . S
C568 C562 1.368 . S
C568 C567 1.523 . S
C569 C553 1.429 . S
C569 C565 1.429 . S
C569 C570 1.523 . S
C570 C554 1.368 . S
C570 C566 1.368 . S
C570 C569 1.523 . S
H571 C546 0.950 . S
H572 C548 0.950 . S
H573 C549 0.949 . S
H574 C551 0.950 . S
H575 C553 0.950 . S
C576 C577 1.349 . S
C576 C578 1.327 . S
C576 H601 0.950 . S
C577 C576 1.349 . S
C577 C593 1.349 . S
C578 C576 1.327 . S
C578 C597 1.429 . S
C578 H602 0.950 . S
C579 C596 1.574 . S
C579 C598 1.368 . S
C579 H603 0.949 . S
H580 C584 0.949 . S
C581 C582 1.349 . S
C581 C583 1.327 . S
C581 H604 0.950 . S
C582 C581 1.349 . S
C582 C594 1.349 . S
C583 C581 1.327 . S
C583 C599 1.429 . S
C583 H605 0.950 . S
C584 H580 0.949 . S
C584 C592 1.574 . S
C584 C600 1.368 . S
H585 C593 0.950 . S
H586 C591 0.950 . S
H587 C592 0.949 . S
H588 C594 0.950 . S
H589 C595 0.950 . S
H590 C596 0.949 . S
C591 H586 0.950 . S
C591 C593 1.327 . S
C591 C597 1.429 . S
C592 C584 1.574 . S
C592 H587 0.949 . S
C592 C598 1.368 . S
C593 C577 1.349 . S
C593 H585 0.950 . S
C593 C591 1.327 . S
C594 C582 1.349 . S
C594 H588 0.950 . S
C594 C595 1.327 . S
C595 H589 0.950 . S
C595 C594 1.327 . S
C595 C599 1.429 . S
C596 C579 1.574 . S
C596 H590 0.949 . S
C596 C600 1.368 . S
C597 C578 1.429 . S
C597 C591 1.429 . S
C597 C598 1.523 . S
C598 C579 1.368 . S
C598 C592 1.368 . S
C598 C597 1.523 . S
C599 C583 1.429 . S
C599 C595 1.429 . S
C599 C600 1.523 . S
C600 C584 1.368 . S
C600 C596 1.368 . S
C600 C599 1.523 . S
H601 C576 0.950 . S
H602 C578 0.950 . S
H603 C579 0.949 . S
H604 C581 0.950 . S
H605 C583 0.950 . S
C606 C607 1.349 . S
C606 C608 1.327 . S
C606 H631 0.950 . S
C607 C606 1.349 . S
C607 C623 1.349 . S
C608 C606 1.327 . S
C608 C627 1.429 . S
C608 H632 0.950 . S
C609 C626 1.574 . S
C609 C628 1.368 . S
C609 H633 0.949 . S
H610 C614 0.949 . S
C611 C612 1.349 . S
C611 C613 1.327 . S
C611 H634 0.950 . S
C612 C611 1.349 . S
C612 C624 1.349 . S
C613 C611 1.327 . S
C613 C629 1.429 . S
C613 H635 0.950 . S
C614 H610 0.949 . S
C614 C622 1.574 . S
C614 C630 1.368 . S
H615 C623 0.950 . S
H616 C621 0.950 . S
H617 C622 0.949 . S
H618 C624 0.950 . S
H619 C625 0.950 . S
H620 C626 0.949 . S
C621 H616 0.950 . S
C621 C623 1.327 . S
C621 C627 1.429 . S
C622 C614 1.574 . S
C622 H617 0.949 . S
C622 C628 1.368 . S
C623 C607 1.349 . S
C623 H615 0.950 . S
C623 C621 1.327 . S
C624 C612 1.349 . S
C624 H618 0.950 . S
C624 C625 1.327 . S
C625 H619 0.950 . S
C625 C624 1.327 . S
C625 C629 1.429 . S
C626 C609 1.574 . S
C626 H620 0.949 . S
C626 C630 1.368 . S
C627 C608 1.429 . S
C627 C621 1.429 . S
C627 C628 1.523 . S
C628 C609 1.368 . S
C628 C622 1.368 . S
C628 C627 1.523 . S
C629 C613 1.429 . S
C629 C625 1.429 . S
C629 C630 1.523 . S
C630 C614 1.368 . S
C630 C626 1.368 . S
C630 C629 1.523 . S
H631 C606 0.950 . S
H632 C608 0.950 . S
H633 C609 0.949 . S
H634 C611 0.950 . S
H635 C613 0.950 . S
C636 C637 1.349 . S
C636 C638 1.327 1_554 S
C636 H661 0.950 . S
C637 C636 1.349 . S
C637 C653 1.349 1_554 S
C638 C636 1.327 1_556 S
C638 C657 1.429 . S
C638 H662 0.950 . S
C639 C656 1.574 . S
C639 C658 1.368 . S
C639 H663 0.949 . S
H640 C644 0.949 . S
C641 C642 1.349 . S
C641 C643 1.327 . S
C641 H664 0.950 . S
C642 C641 1.349 . S
C642 C654 1.349 . S
C643 C641 1.327 . S
C643 C659 1.429 . S
C643 H665 0.950 . S
C644 H640 0.949 . S
C644 C652 1.574 . S
C644 C660 1.368 . S
H645 C653 0.950 . S
H646 C651 0.950 . S
H647 C652 0.949 . S
H648 C654 0.950 . S
H649 C655 0.950 . S
H650 C656 0.949 . S
C651 H646 0.950 . S
C651 C653 1.327 . S
C651 C657 1.429 . S
C652 C644 1.574 . S
C652 H647 0.949 . S
C652 C658 1.368 . S
C653 C637 1.349 1_556 S
C653 H645 0.950 . S
C653 C651 1.327 . S
C654 C642 1.349 . S
C654 H648 0.950 . S
C654 C655 1.327 . S
C655 H649 0.950 . S
C655 C654 1.327 . S
C655 C659 1.429 . S
C656 C639 1.574 . S
C656 H650 0.949 . S
C656 C660 1.368 . S
C657 C638 1.429 . S
C657 C651 1.429 . S
C657 C658 1.523 . S
C658 C639 1.368 . S
C658 C652 1.368 . S
C658 C657 1.523 . S
C659 C643 1.429 . S
C659 C655 1.429 . S
C659 C660 1.523 . S
C660 C644 1.368 . S
C660 C656 1.368 . S
C660 C659 1.523 . S
H661 C636 0.950 . S
H662 C638 0.950 . S
H663 C639 0.949 . S
H664 C641 0.950 . S
H665 C643 0.950 . S
C666 C667 1.349 . S
C666 C668 1.327 . S
C666 H691 0.950 . S
C667 C666 1.349 . S
C667 C683 1.349 . S
C668 C666 1.327 . S
C668 C687 1.429 . S
C668 H692 0.950 . S
C669 C686 1.574 . S
C669 C688 1.368 . S
C669 H693 0.949 . S
H670 C674 0.949 . S
C671 C672 1.349 . S
C671 C673 1.327 1_556 S
C671 H694 0.950 . S
C672 C671 1.349 . S
C672 C684 1.349 1_556 S
C673 C671 1.327 1_554 S
C673 C689 1.429 . S
C673 H695 0.950 . S
C674 H670 0.949 . S
C674 C682 1.574 . S
C674 C690 1.368 . S
H675 C683 0.950 . S
H676 C681 0.950 . S
H677 C682 0.949 . S
H678 C684 0.950 . S
H679 C685 0.950 . S
H680 C686 0.949 . S
C681 H676 0.950 . S
C681 C683 1.327 . S
C681 C687 1.429 . S
C682 C674 1.574 . S
C682 H677 0.949 . S
C682 C688 1.368 . S
C683 C667 1.349 . S
C683 H675 0.950 . S
C683 C681 1.327 . S
C684 C672 1.349 1_554 S
C684 H678 0.950 . S
C684 C685 1.327 . S
C685 H679 0.950 . S
C685 C684 1.327 . S
C685 C689 1.429 . S
C686 C669 1.574 . S
C686 H680 0.949 . S
C686 C690 1.368 . S
C687 C668 1.429 . S
C687 C681 1.429 . S
C687 C688 1.523 . S
C688 C669 1.368 . S
C688 C682 1.368 . S
C688 C687 1.523 . S
C689 C673 1.429 . S
C689 C685 1.429 . S
C689 C690 1.523 . S
C690 C674 1.368 . S
C690 C686 1.368 . S
C690 C689 1.523 . S
H691 C666 0.950 . S
H692 C668 0.950 . S
H693 C669 0.949 . S
H694 C671 0.950 . S
H695 C673 0.950 . S
C696 C697 1.349 . S
C696 C698 1.327 . S
C696 H721 0.950 . S
C697 C696 1.349 . S
C697 C713 1.349 . S
C698 C696 1.327 . S
C698 C717 1.429 . S
C698 H722 0.950 . S
C699 C716 1.574 . S
C699 C718 1.368 . S
C699 H723 0.949 . S
H700 C704 0.949 . S
C701 C702 1.349 . S
C701 C703 1.327 . S
C701 H724 0.950 . S
C702 C701 1.349 . S
C702 C714 1.349 . S
C703 C701 1.327 . S
C703 C719 1.429 . S
C703 H725 0.950 . S
C704 H700 0.949 . S
C704 C712 1.574 . S
C704 C720 1.368 . S
H705 C713 0.950 . S
H706 C711 0.950 . S
H707 C712 0.949 . S
H708 C714 0.950 . S
H709 C715 0.950 . S
H710 C716 0.949 . S
C711 H706 0.950 . S
C711 C713 1.327 . S
C711 C717 1.429 . S
C712 C704 1.574 . S
C712 H707 0.949 . S
C712 C718 1.368 . S
C713 C697 1.349 . S
C713 H705 0.950 . S
C713 C711 1.327 . S
C714 C702 1.349 . S
C714 H708 0.950 . S
C714 C715 1.327 . S
C715 H709 0.950 . S
C715 C714 1.327 . S
C715 C719 1.429 . S
C716 C699 1.574 . S
C716 H710 0.949 . S
C716 C720 1.368 . S
C717 C698 1.429 . S
C717 C711 1.429 . S
C717 C718 1.523 . S
C718 C699 1.368 . S
C718 C712 1.368 . S
C718 C717 1.523 . S
C719 C703 1.429 . S
C719 C715 1.429 . S
C719 C720 1.523 . S
C720 C704 1.368 . S
C720 C716 1.368 . S
C720 C719 1.523 . S
H721 C696 0.950 . S
H722 C698 0.950 . S
H723 C699 0.949 . S
H724 C701 0.950 . S
H725 C703 0.950 . S
C726 C727 1.349 . S
C726 C728 1.327 . S
C726 H751 0.950 . S
C727 C726 1.349 . S
C727 C743 1.349 . S
C728 C726 1.327 . S
C728 C747 1.429 . S
C728 H752 0.950 . S
C729 C746 1.574 . S
C729 C748 1.368 . S
C729 H753 0.949 . S
H730 C734 0.949 . S
C731 C732 1.349 . S
C731 C733 1.327 . S
C731 H754 0.950 . S
C732 C731 1.349 . S
C732 C744 1.349 . S
C733 C731 1.327 . S
C733 C749 1.429 . S
C733 H755 0.950 . S
C734 H730 0.949 . S
C734 C742 1.574 . S
C734 C750 1.368 . S
H735 C743 0.950 . S
H736 C741 0.950 . S
H737 C742 0.949 . S
H738 C744 0.950 . S
H739 C745 0.950 . S
H740 C746 0.949 . S
C741 H736 0.950 . S
C741 C743 1.327 . S
C741 C747 1.429 . S
C742 C734 1.574 . S
C742 H737 0.949 . S
C742 C748 1.368 . S
C743 C727 1.349 . S
C743 H735 0.950 . S
C743 C741 1.327 . S
C744 C732 1.349 . S
C744 H738 0.950 . S
C744 C745 1.327 . S
C745 H739 0.950 . S
C745 C744 1.327 . S
C745 C749 1.429 . S
C746 C729 1.574 . S
C746 H740 0.949 . S
C746 C750 1.368 . S
C747 C728 1.429 . S
C747 C741 1.429 . S
C747 C748 1.523 . S
C748 C729 1.368 . S
C748 C742 1.368 . S
C748 C747 1.523 . S
C749 C733 1.429 . S
C749 C745 1.429 . S
C749 C750 1.523 . S
C750 C734 1.368 . S
C750 C746 1.368 . S
C750 C749 1.523 . S
H751 C726 0.950 . S
H752 C728 0.950 . S
H753 C729 0.949 . S
H754 C731 0.950 . S
H755 C733 0.950 . S
C756 C757 1.349 . S
C756 C758 1.327 . S
C756 H781 0.950 . S
C757 C756 1.349 . S
C757 C773 1.349 . S
C758 C756 1.327 . S
C758 C777 1.429 . S
C758 H782 0.950 . S
C759 C776 1.574 . S
C759 C778 1.368 . S
C759 H783 0.949 . S
H760 C764 0.949 . S
C761 C762 1.349 1_554 S
C761 C763 1.327 . S
C761 H784 0.950 . S
C762 C761 1.349 1_556 S
C762 C774 1.349 . S
C763 C761 1.327 . S
C763 C779 1.429 . S
C763 H785 0.950 . S
C764 H760 0.949 . S
C764 C772 1.574 . S
C764 C780 1.368 . S
H765 C773 0.950 . S
H766 C771 0.950 . S
H767 C772 0.949 . S
H768 C774 0.950 . S
H769 C775 0.950 . S
H770 C776 0.949 . S
C771 H766 0.950 . S
C771 C773 1.327 . S
C771 C777 1.429 . S
C772 C764 1.574 . S
C772 H767 0.949 . S
C772 C778 1.368 . S
C773 C757 1.349 . S
C773 H765 0.950 . S
C773 C771 1.327 . S
C774 C762 1.349 . S
C774 H768 0.950 . S
C774 C775 1.327 1_556 S
C775 H769 0.950 . S
C775 C774 1.327 1_554 S
C775 C779 1.429 . S
C776 C759 1.574 . S
C776 H770 0.949 . S
C776 C780 1.368 . S
C777 C758 1.429 . S
C777 C771 1.429 . S
C777 C778 1.523 . S
C778 C759 1.368 . S
C778 C772 1.368 . S
C778 C777 1.523 . S
C779 C763 1.429 . S
C779 C775 1.429 . S
C779 C780 1.523 . S
C780 C764 1.368 . S
C780 C776 1.368 . S
C780 C779 1.523 . S
H781 C756 0.950 . S
H782 C758 0.950 . S
H783 C759 0.949 . S
H784 C761 0.950 . S
H785 C763 0.950 . S
C786 C787 1.349 . S
C786 C788 1.327 . S
C786 H811 0.950 . S
C787 C786 1.349 . S
C787 C803 1.349 . S
C788 C786 1.327 . S
C788 C807 1.429 . S
C788 H812 0.950 . S
C789 C806 1.574 . S
C789 C808 1.368 . S
C789 H813 0.949 . S
H790 C794 0.949 . S
C791 C792 1.349 1_556 S
C791 C793 1.327 . S
C791 H814 0.950 . S
C792 C791 1.349 1_554 S
C792 C804 1.349 . S
C793 C791 1.327 . S
C793 C809 1.429 . S
C793 H815 0.950 . S
C794 H790 0.949 . S
C794 C802 1.574 . S
C794 C810 1.368 . S
H795 C803 0.950 . S
H796 C801 0.950 . S
H797 C802 0.949 . S
H798 C804 0.950 . S
H799 C805 0.950 . S
H800 C806 0.949 . S
C801 H796 0.950 . S
C801 C803 1.327 . S
C801 C807 1.429 . S
C802 C794 1.574 . S
C802 H797 0.949 . S
C802 C808 1.368 . S
C803 C787 1.349 . S
C803 H795 0.950 . S
C803 C801 1.327 . S
C804 C792 1.349 . S
C804 H798 0.950 . S
C804 C805 1.327 1_554 S
C805 H799 0.950 . S
C805 C804 1.327 1_556 S
C805 C809 1.429 . S
C806 C789 1.574 . S
C806 H800 0.949 . S
C806 C810 1.368 . S
C807 C788 1.429 . S
C807 C801 1.429 . S
C807 C808 1.523 . S
C808 C789 1.368 . S
C808 C802 1.368 . S
C808 C807 1.523 . S
C809 C793 1.429 . S
C809 C805 1.429 . S
C809 C810 1.523 . S
C810 C794 1.368 . S
C810 C806 1.368 . S
C810 C809 1.523 . S
H811 C786 0.950 . S
H812 C788 0.950 . S
H813 C789 0.949 . S
H814 C791 0.950 . S
H815 C793 0.950 . S
C816 C817 1.349 1_455 S
C816 C818 1.327 . S
C816 H841 0.950 . S
C817 C816 1.349 1_655 S
C817 C833 1.349 . S
C818 C816 1.327 . S
C818 C837 1.429 1_455 S
C818 H842 0.950 . S
C819 C836 1.574 . S
C819 C838 1.356 1_655 S
C819 H843 0.949 . S
H820 C824 0.949 . S
C821 C822 1.369 . S
C821 C823 1.323 1_455 S
C821 H844 0.935 1_455 S
C822 C821 1.369 . S
C822 C834 1.349 . S
C823 C821 1.323 1_655 S
C823 C839 1.429 1_655 S
C823 H845 0.950 . S
C824 H820 0.949 . S
C824 C832 1.574 . S
C824 C840 1.368 . S
H825 C833 0.950 . S
H826 C831 0.950 . S
H827 C832 0.949 . S
H828 C834 0.950 . S
H829 C835 0.950 . S
H830 C836 0.949 . S
C831 H826 0.950 . S
C831 C833 1.327 . S
C831 C837 1.429 . S
C832 C824 1.574 . S
C832 H827 0.949 . S
C832 C838 1.384 . S
C833 C817 1.349 . S
C833 H825 0.950 . S
C833 C831 1.327 . S
C834 C822 1.349 . S
C834 H828 0.950 . S
C834 C835 1.327 . S
C835 H829 0.950 . S
C835 C834 1.327 . S
C835 C839 1.429 . S
C836 C819 1.574 . S
C836 H830 0.949 . S
C836 C840 1.368 1_655 S
C837 C818 1.429 1_655 S
C837 C831 1.429 . S
C837 C838 1.520 1_655 S
C838 C819 1.356 1_455 S
C838 C832 1.384 . S
C838 C837 1.520 1_455 S
C839 C823 1.429 1_455 S
C839 C835 1.429 . S
C839 C840 1.523 . S
C840 C824 1.368 . S
C840 C836 1.368 1_455 S
C840 C839 1.523 . S
H841 C816 0.950 . S
H842 C818 0.950 . S
H843 C819 0.949 . S
H844 C821 0.935 1_655 S
H845 C823 0.950 . S
C846 C847 1.349 . S
C846 C848 1.327 . S
C846 H871 0.950 . S
C847 C846 1.349 . S
C847 C863 1.349 . S
C848 C846 1.327 . S
C848 C867 1.429 . S
C848 H872 0.950 . S
C849 C866 1.574 1_655 S
C849 C868 1.368 . S
C849 H873 0.949 . S
H850 C854 0.949 . S
C851 C852 1.349 . S
C851 C853 1.327 . S
C851 H874 0.950 . S
C852 C851 1.349 . S
C852 C864 1.349 . S
C853 C851 1.327 . S
C853 C869 1.429 . S
C853 H875 0.950 . S
C854 H850 0.949 . S
C854 C862 1.574 1_455 S
C854 C870 1.368 . S
H855 C863 0.950 . S
H856 C861 0.950 . S
H857 C862 0.949 . S
H858 C864 0.950 . S
H859 C865 0.950 . S
H860 C866 0.949 . S
C861 H856 0.950 . S
C861 C863 1.327 . S
C861 C867 1.429 . S
C862 C854 1.574 1_655 S
C862 H857 0.949 . S
C862 C868 1.368 . S
C863 C847 1.349 . S
C863 H855 0.950 . S
C863 C861 1.327 . S
C864 C852 1.349 . S
C864 H858 0.950 . S
C864 C865 1.327 . S
C865 H859 0.950 . S
C865 C864 1.327 . S
C865 C869 1.429 . S
C866 C849 1.574 1_455 S
C866 H860 0.949 . S
C866 C870 1.368 . S
C867 C848 1.429 . S
C867 C861 1.429 . S
C867 C868 1.523 . S
C868 C849 1.368 . S
C868 C862 1.368 . S
C868 C867 1.523 . S
C869 C853 1.429 . S
C869 C865 1.429 . S
C869 C870 1.523 . S
C870 C854 1.368 . S
C870 C866 1.368 . S
C870 C869 1.523 . S
H871 C846 0.950 . S
H872 C848 0.950 . S
H873 C849 0.949 . S
H874 C851 0.950 . S
H875 C853 0.950 . S
C876 C877 1.349 . S
C876 C878 1.327 . S
C876 H901 0.950 . S
C877 C876 1.349 . S
C877 C893 1.349 . S
C878 C876 1.327 . S
C878 C897 1.429 . S
C878 H902 0.950 . S
C879 C896 1.574 . S
C879 C898 1.368 . S
C879 H903 0.949 . S
H880 C884 0.949 . S
C881 C882 1.349 . S
C881 C883 1.327 . S
C881 H904 0.950 . S
C882 C881 1.349 . S
C882 C894 1.349 . S
C883 C881 1.327 . S
C883 C899 1.429 . S
C883 H905 0.950 . S
C884 H880 0.949 . S
C884 C892 1.574 . S
C884 C900 1.368 . S
H885 C893 0.950 . S
H886 C891 0.950 . S
H887 C892 0.949 . S
H888 C894 0.950 . S
H889 C895 0.950 . S
H890 C896 0.949 . S
C891 H886 0.950 . S
C891 C893 1.327 . S
C891 C897 1.429 . S
C892 C884 1.574 . S
C892 H887 0.949 . S
C892 C898 1.368 . S
C893 C877 1.349 . S
C893 H885 0.950 . S
C893 C891 1.327 . S
C894 C882 1.349 . S
C894 H888 0.950 . S
C894 C895 1.327 . S
C895 H889 0.950 . S
C895 C894 1.327 . S
C895 C899 1.429 . S
C896 C879 1.574 . S
C896 H890 0.949 . S
C896 C900 1.368 . S
C897 C878 1.429 . S
C897 C891 1.429 . S
C897 C898 1.523 . S
C898 C879 1.368 . S
C898 C892 1.368 . S
C898 C897 1.523 . S
C899 C883 1.429 . S
C899 C895 1.429 . S
C899 C900 1.523 . S
C900 C884 1.368 . S
C900 C896 1.368 . S
C900 C899 1.523 . S
H901 C876 0.950 . S
H902 C878 0.950 . S
H903 C879 0.949 . S
H904 C881 0.950 . S
H905 C883 0.950 . S
C906 C907 1.349 . S
C906 C908 1.327 . S
C906 H931 0.950 . S
C907 C906 1.349 . S
C907 C923 1.349 . S
C908 C906 1.327 . S
C908 C927 1.429 . S
C908 H932 0.950 . S
C909 C926 1.574 . S
C909 C928 1.368 . S
C909 H933 0.949 . S
H910 C914 0.949 . S
C911 C912 1.349 . S
C911 C913 1.327 . S
C911 H934 0.950 . S
C912 C911 1.349 . S
C912 C924 1.349 . S
C913 C911 1.327 . S
C913 C929 1.429 . S
C913 H935 0.950 . S
C914 H910 0.949 . S
C914 C922 1.574 . S
C914 C930 1.368 . S
H915 C923 0.950 . S
H916 C921 0.950 . S
H917 C922 0.949 . S
H918 C924 0.950 . S
H919 C925 0.950 . S
H920 C926 0.949 . S
C921 H916 0.950 . S
C921 C923 1.327 . S
C921 C927 1.429 . S
C922 C914 1.574 . S
C922 H917 0.949 . S
C922 C928 1.368 . S
C923 C907 1.349 . S
C923 H915 0.950 . S
C923 C921 1.327 . S
C924 C912 1.349 . S
C924 H918 0.950 . S
C924 C925 1.327 . S
C925 H919 0.950 . S
C925 C924 1.327 . S
C925 C929 1.429 . S
C926 C909 1.574 . S
C926 H920 0.949 . S
C926 C930 1.368 . S
C927 C908 1.429 . S
C927 C921 1.429 . S
C927 C928 1.523 . S
C928 C909 1.368 . S
C928 C922 1.368 . S
C928 C927 1.523 . S
C929 C913 1.429 . S
C929 C925 1.429 . S
C929 C930 1.523 . S
C930 C914 1.368 . S
C930 C926 1.368 . S
C930 C929 1.523 . S
H931 C906 0.950 . S
H932 C908 0.950 . S
H933 C909 0.949 . S
H934 C911 0.950 . S
H935 C913 0.950 . S
C936 C937 1.349 . S
C936 C938 1.327 . S
C936 H961 0.950 . S
C937 C936 1.349 . S
C937 C953 1.369 . S
C938 C936 1.327 . S
C938 C957 1.429 . S
C938 H962 0.950 . S
C939 C956 1.574 . S
C939 C958 1.368 1_655 S
C939 H963 0.949 . S
H940 C944 0.949 . S
C941 C942 1.349 . S
C941 C943 1.327 . S
C941 H964 0.950 . S
C942 C941 1.349 . S
C942 C954 1.349 1_655 S
C943 C941 1.327 . S
C943 C959 1.429 . S
C943 H965 0.950 . S
C944 H940 0.949 . S
C944 C952 1.574 . S
C944 C960 1.384 . S
H945 C953 0.935 1_655 S
H946 C951 0.950 . S
H947 C952 0.949 . S
H948 C954 0.950 . S
H949 C955 0.950 . S
H950 C956 0.949 . S
C951 H946 0.950 . S
C951 C953 1.323 1_655 S
C951 C957 1.429 1_655 S
C952 C944 1.574 . S
C952 H947 0.949 . S
C952 C958 1.368 . S
C953 C937 1.369 . S
C953 H945 0.935 1_455 S
C953 C951 1.323 1_455 S
C954 C942 1.349 1_455 S
C954 H948 0.950 . S
C954 C955 1.327 . S
C955 H949 0.950 . S
C955 C954 1.327 . S
C955 C959 1.429 1_455 S
C956 C939 1.574 . S
C956 H950 0.949 . S
C956 C960 1.356 1_655 S
C957 C938 1.429 . S
C957 C951 1.429 1_455 S
C957 C958 1.523 . S
C958 C939 1.368 1_455 S
C958 C952 1.368 . S
C958 C957 1.523 . S
C959 C943 1.429 . S
C959 C955 1.429 1_655 S
C959 C960 1.520 1_655 S
C960 C944 1.384 . S
C960 C956 1.356 1_455 S
C960 C959 1.520 1_455 S
H961 C936 0.950 . S
H962 C938 0.950 . S
H963 C939 0.949 . S
H964 C941 0.950 . S
H965 C943 0.950 . S
C966 C967 1.349 . S
C966 C968 1.327 . S
C966 H991 0.950 . S
C967 C966 1.349 . S
C967 C983 1.349 . S
C968 C966 1.327 . S
C968 C987 1.429 . S
C968 H992 0.950 . S
C969 C986 1.574 . S
C969 C988 1.368 . S
C969 H993 0.949 . S
H970 C974 0.949 . S
C971 C972 1.349 . S
C971 C973 1.327 . S
C971 H994 0.950 . S
C972 C971 1.349 . S
C972 C984 1.349 . S
C973 C971 1.327 . S
C973 C989 1.429 . S
C973 H995 0.950 . S
C974 H970 0.949 . S
C974 C982 1.574 . S
C974 C990 1.368 . S
H975 C983 0.950 . S
H976 C981 0.950 . S
H977 C982 0.949 . S
H978 C984 0.950 . S
H979 C985 0.950 . S
H980 C986 0.949 . S
C981 H976 0.950 . S
C981 C983 1.327 . S
C981 C987 1.429 . S
C982 C974 1.574 . S
C982 H977 0.949 . S
C982 C988 1.368 . S
C983 C967 1.349 . S
C983 H975 0.950 . S
C983 C981 1.327 . S
C984 C972 1.349 . S
C984 H978 0.950 . S
C984 C985 1.327 . S
C985 H979 0.950 . S
C985 C984 1.327 . S
C985 C989 1.429 . S
C986 C969 1.574 . S
C986 H980 0.949 . S
C986 C990 1.368 . S
C987 C968 1.429 . S
C987 C981 1.429 . S
C987 C988 1.523 . S
C988 C969 1.368 . S
C988 C982 1.368 . S
C988 C987 1.523 . S
C989 C973 1.429 . S
C989 C985 1.429 . S
C989 C990 1.523 . S
C990 C974 1.368 . S
C990 C986 1.368 . S
C990 C989 1.523 . S
H991 C966 0.950 . S
H992 C968 0.950 . S
H993 C969 0.949 . S
H994 C971 0.950 . S
H995 C973 0.950 . S
C996 C997 1.349 . S
C996 C998 1.327 . S
C996 H1021 0.950 . S
C997 C996 1.349 . S
C997 C1013 1.349 . S
C998 C996 1.327 . S
C998 C1017 1.429 . S
C998 H1022 0.950 . S
C999 C1016 1.574 . S
C999 C1018 1.368 . S
C999 H1023 0.949 . S
H1000 C1004 0.949 . S
C1001 C1002 1.349 . S
C1001 C1003 1.327 . S
C1001 H1024 0.950 . S
C1002 C1001 1.349 . S
C1002 C1014 1.349 . S
C1003 C1001 1.327 . S
C1003 C1019 1.429 . S
C1003 H1025 0.950 . S
C1004 H1000 0.949 . S
C1004 C1012 1.574 . S
C1004 C1020 1.368 . S
H1005 C1013 0.950 . S
H1006 C1011 0.950 . S
H1007 C1012 0.949 . S
H1008 C1014 0.950 . S
H1009 C1015 0.950 . S
H1010 C1016 0.949 . S
C1011 H1006 0.950 . S
C1011 C1013 1.327 . S
C1011 C1017 1.429 . S
C1012 C1004 1.574 . S
C1012 H1007 0.949 . S
C1012 C1018 1.368 . S
C1013 C997 1.349 . S
C1013 H1005 0.950 . S
C1013 C1011 1.327 . S
C1014 C1002 1.349 . S
C1014 H1008 0.950 . S
C1014 C1015 1.327 . S
C1015 H1009 0.950 . S
C1015 C1014 1.327 . S
C1015 C1019 1.429 . S
C1016 C999 1.574 . S
C1016 H1010 0.949 . S
C1016 C1020 1.368 . S
C1017 C998 1.429 . S
C1017 C1011 1.429 . S
C1017 C1018 1.523 . S
C1018 C999 1.368 . S
C1018 C1012 1.368 . S
C1018 C1017 1.523 . S
C1019 C1003 1.429 . S
C1019 C1015 1.429 . S
C1019 C1020 1.523 . S
C1020 C1004 1.368 . S
C1020 C1016 1.368 . S
C1020 C1019 1.523 . S
H1021 C996 0.950 . S
H1022 C998 0.950 . S
H1023 C999 0.949 . S
H1024 C1001 0.950 . S
H1025 C1003 0.950 . S
C1026 C1027 1.349 . S
C1026 C1028 1.327 . S
C1026 H1051 0.950 . S
C1027 C1026 1.349 . S
C1027 C1043 1.349 . S
C1028 C1026 1.327 . S
C1028 C1047 1.429 . S
C1028 H1052 0.950 . S
C1029 C1046 1.574 1_455 S
C1029 C1048 1.368 . S
C1029 H1053 0.949 . S
H1030 C1034 0.949 . S
C1031 C1032 1.349 . S
C1031 C1033 1.327 . S
C1031 H1054 0.950 . S
C1032 C1031 1.349 . S
C1032 C1044 1.349 . S
C1033 C1031 1.327 . S
C1033 C1049 1.429 . S
C1033 H1055 0.950 . S
C1034 H1030 0.949 . S
C1034 C1042 1.574 1_655 S
C1034 C1050 1.368 . S
H1035 C1043 0.950 . S
H1036 C1041 0.950 . S
H1037 C1042 0.949 . S
H1038 C1044 0.950 . S
H1039 C1045 0.950 . S
H1040 C1046 0.949 . S
C1041 H1036 0.950 . S
C1041 C1043 1.327 . S
C1041 C1047 1.429 . S
C1042 C1034 1.574 1_455 S
C1042 H1037 0.949 . S
C1042 C1048 1.368 . S
C1043 C1027 1.349 . S
C1043 H1035 0.950 . S
C1043 C1041 1.327 . S
C1044 C1032 1.349 . S
C1044 H1038 0.950 . S
C1044 C1045 1.327 . S
C1045 H1039 0.950 . S
C1045 C1044 1.327 . S
C1045 C1049 1.429 . S
C1046 C1029 1.574 1_655 S
C1046 H1040 0.949 . S
C1046 C1050 1.368 . S
C1047 C1028 1.429 . S
C1047 C1041 1.429 . S
C1047 C1048 1.523 . S
C1048 C1029 1.368 . S
C1048 C1042 1.368 . S
C1048 C1047 1.523 . S
C1049 C1033 1.429 . S
C1049 C1045 1.429 . S
C1049 C1050 1.523 . S
C1050 C1034 1.368 . S
C1050 C1046 1.368 . S
C1050 C1049 1.523 . S
H1051 C1026 0.950 . S
H1052 C1028 0.950 . S
H1053 C1029 0.949 . S
H1054 C1031 0.950 . S
H1055 C1033 0.950 . S
C1056 C1057 1.349 . S
C1056 C1058 1.327 . S
C1056 H1081 0.950 . S
C1057 C1056 1.349 . S
C1057 C1073 1.349 . S
C1058 C1056 1.327 . S
C1058 C1077 1.429 . S
C1058 H1082 0.950 . S
C1059 C1076 1.585 . S
C1059 C1078 1.368 1_556 S
C1059 H1083 0.963 . S
H1060 C1064 0.949 . S
C1061 C1062 1.349 . S
C1061 C1063 1.327 . S
C1061 H1084 0.950 . S
C1062 C1061 1.349 . S
C1062 C1074 1.349 . S
C1063 C1061 1.327 . S
C1063 C1079 1.429 . S
C1063 H1085 0.950 . S
C1064 H1060 0.949 . S
C1064 C1072 1.585 . S
C1064 C1080 1.368 1_554 S
H1065 C1073 0.950 . S
H1066 C1071 0.950 . S
H1067 C1072 0.949 . S
H1068 C1074 0.950 . S
H1069 C1075 0.950 . S
H1070 C1076 0.963 . S
C1071 H1066 0.950 . S
C1071 C1073 1.327 . S
C1071 C1077 1.429 . S
C1072 C1064 1.585 . S
C1072 H1067 0.949 . S
C1072 C1078 1.357 1_565 S
C1073 C1057 1.349 . S
C1073 H1065 0.950 . S
C1073 C1071 1.327 . S
C1074 C1062 1.349 . S
C1074 H1068 0.950 . S
C1074 C1075 1.327 . S
C1075 H1069 0.950 . S
C1075 C1074 1.327 . S
C1075 C1079 1.429 . S
C1076 C1059 1.585 . S
C1076 H1070 0.963 . S
C1076 C1080 1.357 1_545 S
C1077 C1058 1.429 . S
C1077 C1071 1.429 . S
C1077 C1078 1.523 . S
C1078 C1059 1.368 1_554 S
C1078 C1072 1.357 1_545 S
C1078 C1077 1.523 . S
C1079 C1063 1.429 . S
C1079 C1075 1.429 . S
C1079 C1080 1.523 . S
C1080 C1064 1.368 1_556 S
C1080 C1076 1.357 1_565 S
C1080 C1079 1.523 . S
H1081 C1056 0.950 . S
H1082 C1058 0.950 . S
H1083 C1059 0.963 . S
H1084 C1061 0.950 . S
H1085 C1063 0.950 . S
C1086 C1087 1.349 . S
C1086 C1088 1.327 . S
C1086 H1111 0.950 . S
C1087 C1086 1.349 . S
C1087 C1103 1.349 . S
C1088 C1086 1.327 . S
C1088 C1107 1.429 . S
C1088 H1112 0.950 . S
C1089 C1106 1.574 . S
C1089 C1108 1.368 . S
C1089 H1113 0.949 . S
H1090 C1094 0.949 . S
C1091 C1092 1.349 . S
C1091 C1093 1.327 . S
C1091 H1114 0.950 . S
C1092 C1091 1.349 . S
C1092 C1104 1.349 . S
C1093 C1091 1.327 . S
C1093 C1109 1.429 . S
C1093 H1115 0.950 . S
C1094 H1090 0.949 . S
C1094 C1102 1.574 . S
C1094 C1110 1.368 . S
H1095 C1103 0.950 . S
H1096 C1101 0.950 . S
H1097 C1102 0.949 . S
H1098 C1104 0.950 . S
H1099 C1105 0.950 . S
H1100 C1106 0.949 . S
C1101 H1096 0.950 . S
C1101 C1103 1.327 . S
C1101 C1107 1.429 . S
C1102 C1094 1.574 . S
C1102 H1097 0.949 . S
C1102 C1108 1.368 . S
C1103 C1087 1.349 . S
C1103 H1095 0.950 . S
C1103 C1101 1.327 . S
C1104 C1092 1.349 . S
C1104 H1098 0.950 . S
C1104 C1105 1.327 . S
C1105 H1099 0.950 . S
C1105 C1104 1.327 . S
C1105 C1109 1.429 . S
C1106 C1089 1.574 . S
C1106 H1100 0.949 . S
C1106 C1110 1.368 . S
C1107 C1088 1.429 . S
C1107 C1101 1.429 . S
C1107 C1108 1.523 . S
C1108 C1089 1.368 . S
C1108 C1102 1.368 . S
C1108 C1107 1.523 . S
C1109 C1093 1.429 . S
C1109 C1105 1.429 . S
C1109 C1110 1.523 . S
C1110 C1094 1.368 . S
C1110 C1106 1.368 . S
C1110 C1109 1.523 . S
H1111 C1086 0.950 . S
H1112 C1088 0.950 . S
H1113 C1089 0.949 . S
H1114 C1091 0.950 . S
H1115 C1093 0.950 . S
C1116 C1117 1.349 . S
C1116 C1118 1.327 . S
C1116 H1141 0.950 . S
C1117 C1116 1.349 . S
C1117 C1133 1.349 . S
C1118 C1116 1.327 . S
C1118 C1137 1.429 . S
C1118 H1142 0.950 . S
C1119 C1136 1.574 1_545 S
C1119 C1138 1.368 . S
C1119 H1143 0.949 . S
H1120 C1124 0.949 . S
C1121 C1122 1.349 . S
C1121 C1123 1.327 . S
C1121 H1144 0.950 . S
C1122 C1121 1.349 . S
C1122 C1134 1.349 . S
C1123 C1121 1.327 . S
C1123 C1139 1.429 . S
C1123 H1145 0.950 . S
C1124 H1120 0.949 . S
C1124 C1132 1.574 1_565 S
C1124 C1140 1.368 . S
H1125 C1133 0.950 . S
H1126 C1131 0.950 . S
H1127 C1132 0.949 . S
H1128 C1134 0.950 . S
H1129 C1135 0.950 . S
H1130 C1136 0.949 . S
C1131 H1126 0.950 . S
C1131 C1133 1.327 . S
C1131 C1137 1.429 . S
C1132 C1124 1.574 1_545 S
C1132 H1127 0.949 . S
C1132 C1138 1.368 . S
C1133 C1117 1.349 . S
C1133 H1125 0.950 . S
C1133 C1131 1.327 . S
C1134 C1122 1.349 . S
C1134 H1128 0.950 . S
C1134 C1135 1.327 . S
C1135 H1129 0.950 . S
C1135 C1134 1.327 . S
C1135 C1139 1.429 . S
C1136 C1119 1.574 1_565 S
C1136 H1130 0.949 . S
C1136 C1140 1.368 . S
C1137 C1118 1.429 . S
C1137 C1131 1.429 . S
C1137 C1138 1.523 . S
C1138 C1119 1.368 . S
C1138 C1132 1.368 . S
C1138 C1137 1.523 . S
C1139 C1123 1.429 . S
C1139 C1135 1.429 . S
C1139 C1140 1.523 . S
C1140 C1124 1.368 . S
C1140 C1136 1.368 . S
C1140 C1139 1.523 . S
H1141 C1116 0.950 . S
H1142 C1118 0.950 . S
H1143 C1119 0.949 . S
H1144 C1121 0.950 . S
H1145 C1123 0.950 . S
C1146 C1147 1.349 . S
C1146 C1148 1.327 . S
C1146 H1171 0.950 . S
C1147 C1146 1.349 . S
C1147 C1163 1.349 . S
C1148 C1146 1.327 . S
C1148 C1167 1.429 . S
C1148 H1172 0.950 . S
C1149 C1166 1.574 . S
C1149 C1168 1.368 . S
C1149 H1173 0.949 . S
H1150 C1154 0.949 . S
C1151 C1152 1.349 . S
C1151 C1153 1.327 . S
C1151 H1174 0.950 . S
C1152 C1151 1.349 . S
C1152 C1164 1.349 . S
C1153 C1151 1.327 . S
C1153 C1169 1.429 . S
C1153 H1175 0.950 . S
C1154 H1150 0.949 . S
C1154 C1162 1.574 . S
C1154 C1170 1.368 . S
H1155 C1163 0.950 . S
H1156 C1161 0.950 . S
H1157 C1162 0.949 . S
H1158 C1164 0.950 . S
H1159 C1165 0.950 . S
H1160 C1166 0.949 . S
C1161 H1156 0.950 . S
C1161 C1163 1.327 . S
C1161 C1167 1.429 . S
C1162 C1154 1.574 . S
C1162 H1157 0.949 . S
C1162 C1168 1.368 . S
C1163 C1147 1.349 . S
C1163 H1155 0.950 . S
C1163 C1161 1.327 . S
C1164 C1152 1.349 . S
C1164 H1158 0.950 . S
C1164 C1165 1.327 . S
C1165 H1159 0.950 . S
C1165 C1164 1.327 . S
C1165 C1169 1.429 . S
C1166 C1149 1.574 . S
C1166 H1160 0.949 . S
C1166 C1170 1.368 . S
C1167 C1148 1.429 . S
C1167 C1161 1.429 . S
C1167 C1168 1.523 . S
C1168 C1149 1.368 . S
C1168 C1162 1.368 . S
C1168 C1167 1.523 . S
C1169 C1153 1.429 . S
C1169 C1165 1.429 . S
C1169 C1170 1.523 . S
C1170 C1154 1.368 . S
C1170 C1166 1.368 . S
C1170 C1169 1.523 . S
H1171 C1146 0.950 . S
H1172 C1148 0.950 . S
H1173 C1149 0.949 . S
H1174 C1151 0.950 . S
H1175 C1153 0.950 . S
C1176 C1177 1.349 . S
C1176 C1178 1.327 . S
C1176 H1201 0.950 . S
C1177 C1176 1.349 . S
C1177 C1193 1.349 . S
C1178 C1176 1.327 . S
C1178 C1197 1.429 . S
C1178 H1202 0.950 . S
C1179 C1196 1.574 . S
C1179 C1198 1.368 . S
C1179 H1203 0.949 . S
H1180 C1184 0.949 . S
C1181 C1182 1.349 . S
C1181 C1183 1.327 . S
C1181 H1204 0.950 . S
C1182 C1181 1.349 . S
C1182 C1194 1.349 . S
C1183 C1181 1.327 . S
C1183 C1199 1.429 . S
C1183 H1205 0.950 . S
C1184 H1180 0.949 . S
C1184 C1192 1.574 . S
C1184 C1200 1.368 . S
H1185 C1193 0.950 . S
H1186 C1191 0.950 . S
H1187 C1192 0.949 . S
H1188 C1194 0.950 . S
H1189 C1195 0.950 . S
H1190 C1196 0.949 . S
C1191 H1186 0.950 . S
C1191 C1193 1.327 . S
C1191 C1197 1.429 . S
C1192 C1184 1.574 . S
C1192 H1187 0.949 . S
C1192 C1198 1.368 . S
C1193 C1177 1.349 . S
C1193 H1185 0.950 . S
C1193 C1191 1.327 . S
C1194 C1182 1.349 . S
C1194 H1188 0.950 . S
C1194 C1195 1.327 . S
C1195 H1189 0.950 . S
C1195 C1194 1.327 . S
C1195 C1199 1.429 . S
C1196 C1179 1.574 . S
C1196 H1190 0.949 . S
C1196 C1200 1.368 . S
C1197 C1178 1.429 . S
C1197 C1191 1.429 . S
C1197 C1198 1.523 . S
C1198 C1179 1.368 . S
C1198 C1192 1.368 . S
C1198 C1197 1.523 . S
C1199 C1183 1.429 . S
C1199 C1195 1.429 . S
C1199 C1200 1.523 . S
C1200 C1184 1.368 . S
C1200 C1196 1.368 . S
C1200 C1199 1.523 . S
H1201 C1176 0.950 . S
H1202 C1178 0.950 . S
H1203 C1179 0.949 . S
H1204 C1181 0.950 . S
H1205 C1183 0.950 . S
C1206 C1207 1.349 . S
C1206 C1208 1.327 . S
C1206 H1231 0.950 . S
C1207 C1206 1.349 . S
C1207 C1223 1.349 . S
C1208 C1206 1.327 . S
C1208 C1227 1.429 . S
C1208 H1232 0.950 . S
C1209 C1226 1.574 . S
C1209 C1228 1.368 . S
C1209 H1233 0.949 . S
H1210 C1214 0.949 . S
C1211 C1212 1.349 . S
C1211 C1213 1.327 . S
C1211 H1234 0.950 . S
C1212 C1211 1.349 . S
C1212 C1224 1.349 . S
C1213 C1211 1.327 . S
C1213 C1229 1.429 . S
C1213 H1235 0.950 . S
C1214 H1210 0.949 . S
C1214 C1222 1.574 . S
C1214 C1230 1.368 . S
H1215 C1223 0.950 . S
H1216 C1221 0.950 . S
H1217 C1222 0.949 . S
H1218 C1224 0.950 . S
H1219 C1225 0.950 . S
H1220 C1226 0.949 . S
C1221 H1216 0.950 . S
C1221 C1223 1.327 . S
C1221 C1227 1.429 . S
C1222 C1214 1.574 . S
C1222 H1217 0.949 . S
C1222 C1228 1.368 . S
C1223 C1207 1.349 . S
C1223 H1215 0.950 . S
C1223 C1221 1.327 . S
C1224 C1212 1.349 . S
C1224 H1218 0.950 . S
C1224 C1225 1.327 . S
C1225 H1219 0.950 . S
C1225 C1224 1.327 . S
C1225 C1229 1.429 . S
C1226 C1209 1.574 . S
C1226 H1220 0.949 . S
C1226 C1230 1.368 . S
C1227 C1208 1.429 . S
C1227 C1221 1.429 . S
C1227 C1228 1.523 . S
C1228 C1209 1.368 . S
C1228 C1222 1.368 . S
C1228 C1227 1.523 . S
C1229 C1213 1.429 . S
C1229 C1225 1.429 . S
C1229 C1230 1.523 . S
C1230 C1214 1.368 . S
C1230 C1226 1.368 . S
C1230 C1229 1.523 . S
H1231 C1206 0.950 . S
H1232 C1208 0.950 . S
H1233 C1209 0.949 . S
H1234 C1211 0.950 . S
H1235 C1213 0.950 . S
C1236 C1237 1.349 . S
C1236 C1238 1.327 . S
C1236 H1261 0.950 . S
C1237 C1236 1.349 . S
C1237 C1253 1.349 . S
C1238 C1236 1.327 . S
C1238 C1257 1.429 . S
C1238 H1262 0.950 . S
C1239 C1256 1.574 . S
C1239 C1258 1.368 . S
C1239 H1263 0.949 . S
H1240 C1244 0.949 . S
C1241 C1242 1.349 . S
C1241 C1243 1.327 . S
C1241 H1264 0.950 . S
C1242 C1241 1.349 . S
C1242 C1254 1.349 . S
C1243 C1241 1.327 . S
C1243 C1259 1.429 . S
C1243 H1265 0.950 . S
C1244 H1240 0.949 . S
C1244 C1252 1.574 . S
C1244 C1260 1.368 . S
H1245 C1253 0.950 . S
H1246 C1251 0.950 . S
H1247 C1252 0.949 . S
H1248 C1254 0.950 . S
H1249 C1255 0.950 . S
H1250 C1256 0.949 . S
C1251 H1246 0.950 . S
C1251 C1253 1.327 . S
C1251 C1257 1.429 . S
C1252 C1244 1.574 . S
C1252 H1247 0.949 . S
C1252 C1258 1.368 . S
C1253 C1237 1.349 . S
C1253 H1245 0.950 . S
C1253 C1251 1.327 . S
C1254 C1242 1.349 . S
C1254 H1248 0.950 . S
C1254 C1255 1.327 . S
C1255 H1249 0.950 . S
C1255 C1254 1.327 . S
C1255 C1259 1.429 . S
C1256 C1239 1.574 . S
C1256 H1250 0.949 . S
C1256 C1260 1.368 . S
C1257 C1238 1.429 . S
C1257 C1251 1.429 . S
C1257 C1258 1.523 . S
C1258 C1239 1.368 . S
C1258 C1252 1.368 . S
C1258 C1257 1.523 . S
C1259 C1243 1.429 . S
C1259 C1255 1.429 . S
C1259 C1260 1.523 . S
C1260 C1244 1.368 . S
C1260 C1256 1.368 . S
C1260 C1259 1.523 . S
H1261 C1236 0.950 . S
H1262 C1238 0.950 . S
H1263 C1239 0.949 . S
H1264 C1241 0.950 . S
H1265 C1243 0.950 . S
C1266 C1267 1.349 . S
C1266 C1268 1.327 . S
C1266 H1291 0.950 . S
C1267 C1266 1.349 . S
C1267 C1283 1.349 1_655 S
C1268 C1266 1.327 . S
C1268 C1287 1.429 . S
C1268 H1292 0.950 . S
C1269 C1286 1.574 . S
C1269 C1288 1.368 1_455 S
C1269 H1293 0.949 . S
H1270 C1274 0.949 . S
C1271 C1272 1.349 1_455 S
C1271 C1273 1.327 . S
C1271 H1294 0.950 . S
C1272 C1271 1.349 1_655 S
C1272 C1284 1.349 . S
C1273 C1271 1.327 . S
C1273 C1289 1.429 1_455 S
C1273 H1295 0.950 . S
C1274 H1270 0.949 . S
C1274 C1282 1.574 . S
C1274 C1290 1.368 . S
H1275 C1283 0.950 . S
H1276 C1281 0.950 . S
H1277 C1282 0.949 . S
H1278 C1284 0.950 . S
H1279 C1285 0.950 . S
H1280 C1286 0.949 . S
C1281 H1276 0.950 . S
C1281 C1283 1.327 . S
C1281 C1287 1.429 1_455 S
C1282 C1274 1.574 . S
C1282 H1277 0.949 . S
C1282 C1288 1.368 1_554 S
C1283 C1267 1.349 1_455 S
C1283 H1275 0.950 . S
C1283 C1281 1.327 . S
C1284 C1272 1.349 . S
C1284 H1278 0.950 . S
C1284 C1285 1.327 . S
C1285 H1279 0.950 . S
C1285 C1284 1.327 . S
C1285 C1289 1.429 . S
C1286 C1269 1.574 . S
C1286 H1280 0.949 . S
C1286 C1290 1.368 1_456 S
C1287 C1268 1.429 . S
C1287 C1281 1.429 1_655 S
C1287 C1288 1.523 . S
C1288 C1269 1.368 1_655 S
C1288 C1282 1.368 1_556 S
C1288 C1287 1.523 . S
C1289 C1273 1.429 1_655 S
C1289 C1285 1.429 . S
C1289 C1290 1.523 . S
C1290 C1274 1.368 . S
C1290 C1286 1.368 1_654 S
C1290 C1289 1.523 . S
H1291 C1266 0.950 . S
H1292 C1268 0.950 . S
H1293 C1269 0.949 . S
H1294 C1271 0.950 . S
H1295 C1273 0.950 . S
C1296 C1297 1.349 . S
C1296 C1298 1.327 . S
C1296 H1321 0.950 . S
C1297 C1296 1.349 . S
C1297 C1313 1.349 . S
C1298 C1296 1.327 . S
C1298 C1317 1.429 . S
C1298 H1322 0.950 . S
C1299 C1316 1.574 . S
C1299 C1318 1.368 . S
C1299 H1323 0.949 . S
H1300 C1304 0.949 . S
C1301 C1302 1.349 . S
C1301 C1303 1.327 . S
C1301 H1324 0.950 . S
C1302 C1301 1.349 . S
C1302 C1314 1.349 . S
C1303 C1301 1.327 . S
C1303 C1319 1.429 . S
C1303 H1325 0.950 . S
C1304 H1300 0.949 . S
C1304 C1312 1.574 . S
C1304 C1320 1.368 . S
H1305 C1313 0.950 . S
H1306 C1311 0.950 . S
H1307 C1312 0.949 . S
H1308 C1314 0.950 . S
H1309 C1315 0.950 . S
H1310 C1316 0.949 . S
C1311 H1306 0.950 . S
C1311 C1313 1.327 . S
C1311 C1317 1.429 . S
C1312 C1304 1.574 . S
C1312 H1307 0.949 . S
C1312 C1318 1.368 . S
C1313 C1297 1.349 . S
C1313 H1305 0.950 . S
C1313 C1311 1.327 . S
C1314 C1302 1.349 . S
C1314 H1308 0.950 . S
C1314 C1315 1.327 . S
C1315 H1309 0.950 . S
C1315 C1314 1.327 . S
C1315 C1319 1.429 . S
C1316 C1299 1.574 . S
C1316 H1310 0.949 . S
C1316 C1320 1.368 . S
C1317 C1298 1.429 . S
C1317 C1311 1.429 . S
C1317 C1318 1.523 . S
C1318 C1299 1.368 . S
C1318 C1312 1.368 . S
C1318 C1317 1.523 . S
C1319 C1303 1.429 . S
C1319 C1315 1.429 . S
C1319 C1320 1.523 . S
C1320 C1304 1.368 . S
C1320 C1316 1.368 . S
C1320 C1319 1.523 . S
H1321 C1296 0.950 . S
H1322 C1298 0.950 . S
H1323 C1299 0.949 . S
H1324 C1301 0.950 . S
H1325 C1303 0.950 . S
C1326 C1327 1.349 . S
C1326 C1328 1.327 . S
C1326 H1351 0.950 . S
C1327 C1326 1.349 . S
C1327 C1343 1.349 . S
C1328 C1326 1.327 . S
C1328 C1347 1.429 . S
C1328 H1352 0.950 . S
C1329 C1346 1.574 . S
C1329 C1348 1.368 . S
C1329 H1353 0.949 . S
H1330 C1334 0.949 . S
C1331 C1332 1.349 . S
C1331 C1333 1.327 . S
C1331 H1354 0.950 . S
C1332 C1331 1.349 . S
C1332 C1344 1.349 . S
C1333 C1331 1.327 . S
C1333 C1349 1.429 . S
C1333 H1355 0.950 . S
C1334 H1330 0.949 . S
C1334 C1342 1.574 . S
C1334 C1350 1.368 . S
H1335 C1343 0.950 . S
H1336 C1341 0.950 . S
H1337 C1342 0.949 . S
H1338 C1344 0.950 . S
H1339 C1345 0.950 . S
H1340 C1346 0.949 . S
C1341 H1336 0.950 . S
C1341 C1343 1.327 . S
C1341 C1347 1.429 . S
C1342 C1334 1.574 . S
C1342 H1337 0.949 . S
C1342 C1348 1.368 . S
C1343 C1327 1.349 . S
C1343 H1335 0.950 . S
C1343 C1341 1.327 . S
C1344 C1332 1.349 . S
C1344 H1338 0.950 . S
C1344 C1345 1.327 . S
C1345 H1339 0.950 . S
C1345 C1344 1.327 . S
C1345 C1349 1.429 . S
C1346 C1329 1.574 . S
C1346 H1340 0.949 . S
C1346 C1350 1.368 . S
C1347 C1328 1.429 . S
C1347 C1341 1.429 . S
C1347 C1348 1.523 . S
C1348 C1329 1.368 . S
C1348 C1342 1.368 . S
C1348 C1347 1.523 . S
C1349 C1333 1.429 . S
C1349 C1345 1.429 . S
C1349 C1350 1.523 . S
C1350 C1334 1.368 . S
C1350 C1346 1.368 . S
C1350 C1349 1.523 . S
H1351 C1326 0.950 . S
H1352 C1328 0.950 . S
H1353 C1329 0.949 . S
H1354 C1331 0.950 . S
H1355 C1333 0.950 . S
C1356 C1357 1.349 . S
C1356 C1358 1.327 1_554 S
C1356 H1381 0.950 . S
C1357 C1356 1.349 . S
C1357 C1373 1.349 1_554 S
C1358 C1356 1.327 1_556 S
C1358 C1377 1.429 . S
C1358 H1382 0.950 . S
C1359 C1376 1.574 . S
C1359 C1378 1.368 . S
C1359 H1383 0.949 . S
H1360 C1364 0.949 . S
C1361 C1362 1.349 . S
C1361 C1363 1.327 . S
C1361 H1384 0.950 . S
C1362 C1361 1.349 . S
C1362 C1374 1.349 . S
C1363 C1361 1.327 . S
C1363 C1379 1.429 . S
C1363 H1385 0.950 . S
C1364 H1360 0.949 . S
C1364 C1372 1.574 . S
C1364 C1380 1.368 . S
H1365 C1373 0.950 . S
H1366 C1371 0.950 . S
H1367 C1372 0.949 . S
H1368 C1374 0.950 . S
H1369 C1375 0.950 . S
H1370 C1376 0.949 . S
C1371 H1366 0.950 . S
C1371 C1373 1.327 . S
C1371 C1377 1.429 . S
C1372 C1364 1.574 . S
C1372 H1367 0.949 . S
C1372 C1378 1.368 . S
C1373 C1357 1.349 1_556 S
C1373 H1365 0.950 . S
C1373 C1371 1.327 . S
C1374 C1362 1.349 . S
C1374 H1368 0.950 . S
C1374 C1375 1.327 . S
C1375 H1369 0.950 . S
C1375 C1374 1.327 . S
C1375 C1379 1.429 . S
C1376 C1359 1.574 . S
C1376 H1370 0.949 . S
C1376 C1380 1.368 . S
C1377 C1358 1.429 . S
C1377 C1371 1.429 . S
C1377 C1378 1.523 . S
C1378 C1359 1.368 . S
C1378 C1372 1.368 . S
C1378 C1377 1.523 . S
C1379 C1363 1.429 . S
C1379 C1375 1.429 . S
C1379 C1380 1.523 . S
C1380 C1364 1.368 . S
C1380 C1376 1.368 . S
C1380 C1379 1.523 . S
H1381 C1356 0.950 . S
H1382 C1358 0.950 . S
H1383 C1359 0.949 . S
H1384 C1361 0.950 . S
H1385 C1363 0.950 . S
C1386 C1387 1.349 . S
C1386 C1388 1.327 . S
C1386 H1411 0.950 . S
C1387 C1386 1.349 . S
C1387 C1403 1.349 . S
C1388 C1386 1.327 . S
C1388 C1407 1.429 . S
C1388 H1412 0.950 . S
C1389 C1406 1.574 . S
C1389 C1408 1.368 . S
C1389 H1413 0.949 . S
H1390 C1394 0.949 . S
C1391 C1392 1.349 1_554 S
C1391 C1393 1.327 . S
C1391 H1414 0.955 . S
C1392 C1391 1.349 1_556 S
C1392 C1404 1.349 . S
C1393 C1391 1.327 . S
C1393 C1409 1.429 . S
C1393 H1415 0.950 . S
C1394 H1390 0.949 . S
C1394 C1402 1.574 . S
C1394 C1410 1.368 . S
H1395 C1403 0.950 . S
H1396 C1401 0.950 . S
H1397 C1402 0.949 . S
H1398 C1404 0.950 . S
H1399 C1405 0.950 . S
H1400 C1406 0.949 . S
C1401 H1396 0.950 . S
C1401 C1403 1.327 . S
C1401 C1407 1.429 . S
C1402 C1394 1.574 . S
C1402 H1397 0.949 . S
C1402 C1408 1.368 . S
C1403 C1387 1.349 . S
C1403 H1395 0.950 . S
C1403 C1401 1.327 . S
C1404 C1392 1.349 . S
C1404 H1398 0.950 . S
C1404 C1405 1.327 1_556 S
C1405 H1399 0.950 . S
C1405 C1404 1.327 1_554 S
C1405 C1409 1.429 . S
C1406 C1389 1.574 . S
C1406 H1400 0.949 . S
C1406 C1410 1.368 . S
C1407 C1388 1.429 . S
C1407 C1401 1.429 . S
C1407 C1408 1.523 . S
C1408 C1389 1.368 . S
C1408 C1402 1.368 . S
C1408 C1407 1.523 . S
C1409 C1393 1.429 . S
C1409 C1405 1.429 . S
C1409 C1410 1.523 . S
C1410 C1394 1.368 . S
C1410 C1406 1.368 . S
C1410 C1409 1.523 . S
H1411 C1386 0.950 . S
H1412 C1388 0.950 . S
H1413 C1389 0.949 . S
H1414 C1391 0.955 . S
H1415 C1393 0.950 . S
C1416 C1417 1.349 . S
C1416 C1418 1.327 . S
C1416 H1441 0.950 . S
C1417 C1416 1.349 . S
C1417 C1433 1.349 . S
C1418 C1416 1.327 . S
C1418 C1437 1.429 . S
C1418 H1442 0.950 . S
C1419 C1436 1.574 . S
C1419 C1438 1.368 . S
C1419 H1443 0.949 . S
H1420 C1424 0.949 . S
C1421 C1422 1.349 . S
C1421 C1423 1.327 . S
C1421 H1444 0.950 . S
C1422 C1421 1.349 . S
C1422 C1434 1.349 . S
C1423 C1421 1.327 . S
C1423 C1439 1.429 . S
C1423 H1445 0.950 . S
C1424 H1420 0.949 . S
C1424 C1432 1.574 . S
C1424 C1440 1.368 . S
H1425 C1433 0.950 . S
H1426 C1431 0.950 . S
H1427 C1432 0.949 . S
H1428 C1434 0.950 . S
H1429 C1435 0.950 . S
H1430 C1436 0.949 . S
C1431 H1426 0.950 . S
C1431 C1433 1.327 . S
C1431 C1437 1.429 . S
C1432 C1424 1.574 . S
C1432 H1427 0.949 . S
C1432 C1438 1.368 . S
C1433 C1417 1.349 . S
C1433 H1425 0.950 . S
C1433 C1431 1.327 . S
C1434 C1422 1.349 . S
C1434 H1428 0.950 . S
C1434 C1435 1.327 . S
C1435 H1429 0.950 . S
C1435 C1434 1.327 . S
C1435 C1439 1.429 . S
C1436 C1419 1.574 . S
C1436 H1430 0.949 . S
C1436 C1440 1.368 . S
C1437 C1418 1.429 . S
C1437 C1431 1.429 . S
C1437 C1438 1.523 . S
C1438 C1419 1.368 . S
C1438 C1432 1.368 . S
C1438 C1437 1.523 . S
C1439 C1423 1.429 . S
C1439 C1435 1.429 . S
C1439 C1440 1.523 . S
C1440 C1424 1.368 . S
C1440 C1436 1.368 . S
C1440 C1439 1.523 . S
H1441 C1416 0.950 . S
H1442 C1418 0.950 . S
H1443 C1419 0.949 . S
H1444 C1421 0.950 . S
H1445 C1423 0.950 . S
C1446 C1447 1.349 . S
C1446 C1448 1.327 . S
C1446 H1471 0.950 . S
C1447 C1446 1.349 . S
C1447 C1463 1.349 . S
C1448 C1446 1.327 . S
C1448 C1467 1.429 . S
C1448 H1472 0.950 . S
C1449 C1466 1.574 . S
C1449 C1468 1.368 . S
C1449 H1473 0.949 . S
H1450 C1454 0.949 . S
C1451 C1452 1.349 . S
C1451 C1453 1.327 . S
C1451 H1474 0.950 . S
C1452 C1451 1.349 . S
C1452 C1464 1.349 . S
C1453 C1451 1.327 . S
C1453 C1469 1.429 . S
C1453 H1475 0.950 . S
C1454 H1450 0.949 . S
C1454 C1462 1.574 . S
C1454 C1470 1.368 . S
H1455 C1463 0.950 . S
H1456 C1461 0.950 . S
H1457 C1462 0.949 . S
H1458 C1464 0.950 . S
H1459 C1465 0.950 . S
H1460 C1466 0.949 . S
C1461 H1456 0.950 . S
C1461 C1463 1.327 . S
C1461 C1467 1.429 . S
C1462 C1454 1.574 . S
C1462 H1457 0.949 . S
C1462 C1468 1.368 . S
C1463 C1447 1.349 . S
C1463 H1455 0.950 . S
C1463 C1461 1.327 . S
C1464 C1452 1.349 . S
C1464 H1458 0.950 . S
C1464 C1465 1.327 . S
C1465 H1459 0.950 . S
C1465 C1464 1.327 . S
C1465 C1469 1.429 . S
C1466 C1449 1.574 . S
C1466 H1460 0.949 . S
C1466 C1470 1.368 . S
C1467 C1448 1.429 . S
C1467 C1461 1.429 . S
C1467 C1468 1.523 . S
C1468 C1449 1.368 . S
C1468 C1462 1.368 . S
C1468 C1467 1.523 . S
C1469 C1453 1.429 . S
C1469 C1465 1.429 . S
C1469 C1470 1.523 . S
C1470 C1454 1.368 . S
C1470 C1466 1.368 . S
C1470 C1469 1.523 . S
H1471 C1446 0.950 . S
H1472 C1448 0.950 . S
H1473 C1449 0.949 . S
H1474 C1451 0.950 . S
H1475 C1453 0.950 . S
C1476 C1477 1.349 . S
C1476 C1478 1.327 1_556 S
C1476 H1501 0.950 . S
C1477 C1476 1.349 . S
C1477 C1493 1.349 1_556 S
C1478 C1476 1.327 1_554 S
C1478 C1497 1.429 . S
C1478 H1502 0.950 . S
C1479 C1496 1.574 . S
C1479 C1498 1.368 . S
C1479 H1503 0.949 . S
H1480 C1484 0.949 . S
C1481 C1482 1.349 . S
C1481 C1483 1.327 . S
C1481 H1504 0.950 . S
C1482 C1481 1.349 . S
C1482 C1494 1.349 . S
C1483 C1481 1.327 . S
C1483 C1499 1.429 . S
C1483 H1505 0.950 . S
C1484 H1480 0.949 . S
C1484 C1492 1.574 . S
C1484 C1500 1.368 . S
H1485 C1493 0.950 . S
H1486 C1491 0.950 . S
H1487 C1492 0.949 . S
H1488 C1494 0.950 . S
H1489 C1495 0.950 . S
H1490 C1496 0.949 . S
C1491 H1486 0.950 . S
C1491 C1493 1.327 . S
C1491 C1497 1.429 . S
C1492 C1484 1.574 . S
C1492 H1487 0.949 . S
C1492 C1498 1.368 . S
C1493 C1477 1.349 1_554 S
C1493 H1485 0.950 . S
C1493 C1491 1.327 . S
C1494 C1482 1.349 . S
C1494 H1488 0.950 . S
C1494 C1495 1.327 . S
C1495 H1489 0.950 . S
C1495 C1494 1.327 . S
C1495 C1499 1.429 . S
C1496 C1479 1.574 . S
C1496 H1490 0.949 . S
C1496 C1500 1.368 . S
C1497 C1478 1.429 . S
C1497 C1491 1.429 . S
C1497 C1498 1.523 . S
C1498 C1479 1.368 . S
C1498 C1492 1.368 . S
C1498 C1497 1.523 . S
C1499 C1483 1.429 . S
C1499 C1495 1.429 . S
C1499 C1500 1.523 . S
C1500 C1484 1.368 . S
C1500 C1496 1.368 . S
C1500 C1499 1.523 . S
H1501 C1476 0.950 . S
H1502 C1478 0.950 . S
H1503 C1479 0.949 . S
H1504 C1481 0.950 . S
H1505 C1483 0.950 . S
C1506 C1507 1.349 . S
C1506 C1508 1.327 . S
C1506 H1531 0.950 . S
C1507 C1506 1.349 . S
C1507 C1523 1.349 . S
C1508 C1506 1.327 . S
C1508 C1527 1.429 . S
C1508 H1532 0.950 . S
C1509 C1526 1.574 . S
C1509 C1528 1.368 . S
C1509 H1533 0.949 . S
H1510 C1514 0.949 . S
C1511 C1512 1.349 . S
C1511 C1513 1.327 1_554 S
C1511 H1534 0.950 . S
C1512 C1511 1.349 . S
C1512 C1524 1.349 1_554 S
C1513 C1511 1.327 1_556 S
C1513 C1529 1.429 . S
C1513 H1535 0.950 . S
C1514 H1510 0.949 . S
C1514 C1522 1.574 . S
C1514 C1530 1.368 . S
H1515 C1523 0.950 . S
H1516 C1521 0.950 . S
H1517 C1522 0.949 . S
H1518 C1524 0.950 . S
H1519 C1525 0.950 . S
H1520 C1526 0.949 . S
C1521 H1516 0.950 . S
C1521 C1523 1.327 . S
C1521 C1527 1.429 . S
C1522 C1514 1.574 . S
C1522 H1517 0.949 . S
C1522 C1528 1.368 . S
C1523 C1507 1.349 . S
C1523 H1515 0.950 . S
C1523 C1521 1.327 . S
C1524 C1512 1.349 1_556 S
C1524 H1518 0.950 . S
C1524 C1525 1.327 . S
C1525 H1519 0.950 . S
C1525 C1524 1.327 . S
C1525 C1529 1.429 . S
C1526 C1509 1.574 . S
C1526 H1520 0.949 . S
C1526 C1530 1.368 . S
C1527 C1508 1.429 . S
C1527 C1521 1.429 . S
C1527 C1528 1.523 . S
C1528 C1509 1.368 . S
C1528 C1522 1.368 . S
C1528 C1527 1.523 . S
C1529 C1513 1.429 . S
C1529 C1525 1.429 . S
C1529 C1530 1.523 . S
C1530 C1514 1.368 . S
C1530 C1526 1.368 . S
C1530 C1529 1.523 . S
H1531 C1506 0.950 . S
H1532 C1508 0.950 . S
H1533 C1509 0.949 . S
H1534 C1511 0.950 . S
H1535 C1513 0.950 . S
C1536 C1537 1.349 . S
C1536 C1538 1.327 . S
C1536 H1561 0.950 . S
C1537 C1536 1.349 . S
C1537 C1553 1.349 . S
C1538 C1536 1.327 . S
C1538 C1557 1.429 . S
C1538 H1562 0.950 . S
C1539 C1556 1.574 . S
C1539 C1558 1.368 . S
C1539 H1563 0.949 . S
H1540 C1544 0.949 . S
C1541 C1542 1.349 . S
C1541 C1543 1.327 1_554 S
C1541 H1564 0.950 . S
C1542 C1541 1.349 . S
C1542 C1554 1.349 1_554 S
C1543 C1541 1.327 1_556 S
C1543 C1559 1.429 . S
C1543 H1565 0.950 . S
C1544 H1540 0.949 . S
C1544 C1552 1.574 . S
C1544 C1560 1.368 . S
H1545 C1553 0.950 . S
H1546 C1551 0.950 . S
H1547 C1552 0.949 . S
H1548 C1554 0.950 . S
H1549 C1555 0.950 . S
H1550 C1556 0.949 . S
C1551 H1546 0.950 . S
C1551 C1553 1.327 . S
C1551 C1557 1.429 . S
C1552 C1544 1.574 . S
C1552 H1547 0.949 . S
C1552 C1558 1.368 . S
C1553 C1537 1.349 . S
C1553 H1545 0.950 . S
C1553 C1551 1.327 . S
C1554 C1542 1.349 1_556 S
C1554 H1548 0.950 . S
C1554 C1555 1.327 . S
C1555 H1549 0.950 . S
C1555 C1554 1.327 . S
C1555 C1559 1.429 . S
C1556 C1539 1.574 . S
C1556 H1550 0.949 . S
C1556 C1560 1.368 . S
C1557 C1538 1.429 . S
C1557 C1551 1.429 . S
C1557 C1558 1.523 . S
C1558 C1539 1.368 . S
C1558 C1552 1.368 . S
C1558 C1557 1.523 . S
C1559 C1543 1.429 . S
C1559 C1555 1.429 . S
C1559 C1560 1.523 . S
C1560 C1544 1.368 . S
C1560 C1556 1.368 . S
C1560 C1559 1.523 . S
H1561 C1536 0.950 . S
H1562 C1538 0.950 . S
H1563 C1539 0.949 . S
H1564 C1541 0.950 . S
H1565 C1543 0.950 . S
C1566 C1567 1.349 . S
C1566 C1568 1.327 . S
C1566 H1591 0.950 . S
C1567 C1566 1.349 . S
C1567 C1583 1.349 . S
C1568 C1566 1.327 . S
C1568 C1587 1.429 . S
C1568 H1592 0.950 . S
C1569 C1586 1.574 . S
C1569 C1588 1.368 . S
C1569 H1593 0.949 . S
H1570 C1574 0.949 . S
C1571 C1572 1.349 1_554 S
C1571 C1573 1.327 . S
C1571 H1594 0.950 . S
C1572 C1571 1.349 1_556 S
C1572 C1584 1.349 . S
C1573 C1571 1.327 . S
C1573 C1589 1.429 . S
C1573 H1595 0.950 . S
C1574 H1570 0.949 . S
C1574 C1582 1.574 . S
C1574 C1590 1.368 . S
H1575 C1583 0.950 . S
H1576 C1581 0.950 . S
H1577 C1582 0.949 . S
H1578 C1584 0.950 . S
H1579 C1585 0.950 . S
H1580 C1586 0.949 . S
C1581 H1576 0.950 . S
C1581 C1583 1.327 . S
C1581 C1587 1.429 . S
C1582 C1574 1.574 . S
C1582 H1577 0.949 . S
C1582 C1588 1.368 . S
C1583 C1567 1.349 . S
C1583 H1575 0.950 . S
C1583 C1581 1.327 . S
C1584 C1572 1.349 . S
C1584 H1578 0.950 . S
C1584 C1585 1.327 1_556 S
C1585 H1579 0.950 . S
C1585 C1584 1.327 1_554 S
C1585 C1589 1.429 . S
C1586 C1569 1.574 . S
C1586 H1580 0.949 . S
C1586 C1590 1.368 . S
C1587 C1568 1.429 . S
C1587 C1581 1.429 . S
C1587 C1588 1.523 . S
C1588 C1569 1.368 . S
C1588 C1582 1.368 . S
C1588 C1587 1.523 . S
C1589 C1573 1.429 . S
C1589 C1585 1.429 . S
C1589 C1590 1.523 . S
C1590 C1574 1.368 . S
C1590 C1586 1.368 . S
C1590 C1589 1.523 . S
H1591 C1566 0.950 . S
H1592 C1568 0.950 . S
H1593 C1569 0.949 . S
H1594 C1571 0.950 . S
H1595 C1573 0.950 . S
C1596 C1597 1.349 . S
C1596 C1598 1.327 . S
C1596 H1621 0.950 . S
C1597 C1596 1.349 . S
C1597 C1613 1.349 . S
C1598 C1596 1.327 . S
C1598 C1617 1.429 . S
C1598 H1622 0.950 . S
C1599 C1616 1.574 . S
C1599 C1618 1.368 . S
C1599 H1623 0.949 . S
H1600 C1604 0.949 . S
C1601 C1602 1.349 . S
C1601 C1603 1.327 . S
C1601 H1624 0.950 . S
C1602 C1601 1.349 . S
C1602 C1614 1.349 . S
C1603 C1601 1.327 . S
C1603 C1619 1.429 . S
C1603 H1625 0.950 . S
C1604 H1600 0.949 . S
C1604 C1612 1.574 . S
C1604 C1620 1.368 . S
H1605 C1613 0.950 . S
H1606 C1611 0.950 . S
H1607 C1612 0.949 . S
H1608 C1614 0.950 . S
H1609 C1615 0.950 . S
H1610 C1616 0.949 . S
C1611 H1606 0.950 . S
C1611 C1613 1.327 . S
C1611 C1617 1.429 . S
C1612 C1604 1.574 . S
C1612 H1607 0.949 . S
C1612 C1618 1.368 . S
C1613 C1597 1.349 . S
C1613 H1605 0.950 . S
C1613 C1611 1.327 . S
C1614 C1602 1.349 . S
C1614 H1608 0.950 . S
C1614 C1615 1.327 . S
C1615 H1609 0.950 . S
C1615 C1614 1.327 . S
C1615 C1619 1.429 . S
C1616 C1599 1.574 . S
C1616 H1610 0.949 . S
C1616 C1620 1.368 . S
C1617 C1598 1.429 . S
C1617 C1611 1.429 . S
C1617 C1618 1.523 . S
C1618 C1599 1.368 . S
C1618 C1612 1.368 . S
C1618 C1617 1.523 . S
C1619 C1603 1.429 . S
C1619 C1615 1.429 . S
C1619 C1620 1.523 . S
C1620 C1604 1.368 . S
C1620 C1616 1.368 . S
C1620 C1619 1.523 . S
H1621 C1596 0.950 . S
H1622 C1598 0.950 . S
H1623 C1599 0.949 . S
H1624 C1601 0.950 . S
H1625 C1603 0.950 . S
C1626 C1627 1.349 . S
C1626 C1628 1.327 . S
C1626 H1651 0.950 . S
C1627 C1626 1.349 . S
C1627 C1643 1.349 . S
C1628 C1626 1.327 . S
C1628 C1647 1.429 . S
C1628 H1652 0.950 . S
C1629 C1646 1.574 . S
C1629 C1648 1.368 . S
C1629 H1653 0.949 . S
H1630 C1634 0.949 . S
C1631 C1632 1.349 . S
C1631 C1633 1.327 . S
C1631 H1654 0.950 . S
C1632 C1631 1.349 . S
C1632 C1644 1.349 . S
C1633 C1631 1.327 . S
C1633 C1649 1.429 . S
C1633 H1655 0.950 . S
C1634 H1630 0.949 . S
C1634 C1642 1.574 . S
C1634 C1650 1.368 . S
H1635 C1643 0.950 . S
H1636 C1641 0.950 . S
H1637 C1642 0.949 . S
H1638 C1644 0.950 . S
H1639 C1645 0.950 . S
H1640 C1646 0.949 . S
C1641 H1636 0.950 . S
C1641 C1643 1.327 . S
C1641 C1647 1.429 . S
C1642 C1634 1.574 . S
C1642 H1637 0.949 . S
C1642 C1648 1.368 . S
C1643 C1627 1.349 . S
C1643 H1635 0.950 . S
C1643 C1641 1.327 . S
C1644 C1632 1.349 . S
C1644 H1638 0.950 . S
C1644 C1645 1.327 . S
C1645 H1639 0.950 . S
C1645 C1644 1.327 . S
C1645 C1649 1.429 . S
C1646 C1629 1.574 . S
C1646 H1640 0.949 . S
C1646 C1650 1.368 . S
C1647 C1628 1.429 . S
C1647 C1641 1.429 . S
C1647 C1648 1.523 . S
C1648 C1629 1.368 . S
C1648 C1642 1.368 . S
C1648 C1647 1.523 . S
C1649 C1633 1.429 . S
C1649 C1645 1.429 . S
C1649 C1650 1.523 . S
C1650 C1634 1.368 . S
C1650 C1646 1.368 . S
C1650 C1649 1.523 . S
H1651 C1626 0.950 . S
H1652 C1628 0.950 . S
H1653 C1629 0.949 . S
H1654 C1631 0.950 . S
H1655 C1633 0.950 . S
C1656 C1657 1.349 . S
C1656 C1658 1.327 . S
C1656 H1681 0.950 . S
C1657 C1656 1.349 . S
C1657 C1673 1.349 . S
C1658 C1656 1.327 . S
C1658 C1677 1.429 . S
C1658 H1682 0.950 . S
C1659 C1676 1.574 . S
C1659 C1678 1.368 . S
C1659 H1683 0.949 . S
H1660 C1664 0.949 . S
C1661 C1662 1.349 . S
C1661 C1663 1.327 1_556 S
C1661 H1684 0.950 . S
C1662 C1661 1.349 . S
C1662 C1674 1.349 1_556 S
C1663 C1661 1.327 1_554 S
C1663 C1679 1.429 . S
C1663 H1685 0.950 . S
C1664 H1660 0.949 . S
C1664 C1672 1.574 . S
C1664 C1680 1.368 . S
H1665 C1673 0.950 . S
H1666 C1671 0.950 . S
H1667 C1672 0.949 . S
H1668 C1674 0.950 . S
H1669 C1675 0.950 . S
H1670 C1676 0.949 . S
C1671 H1666 0.950 . S
C1671 C1673 1.327 . S
C1671 C1677 1.429 . S
C1672 C1664 1.574 . S
C1672 H1667 0.949 . S
C1672 C1678 1.368 . S
C1673 C1657 1.349 . S
C1673 H1665 0.950 . S
C1673 C1671 1.327 . S
C1674 C1662 1.349 1_554 S
C1674 H1668 0.950 . S
C1674 C1675 1.327 . S
C1675 H1669 0.950 . S
C1675 C1674 1.327 . S
C1675 C1679 1.429 . S
C1676 C1659 1.574 . S
C1676 H1670 0.949 . S
C1676 C1680 1.368 . S
C1677 C1658 1.429 . S
C1677 C1671 1.429 . S
C1677 C1678 1.523 . S
C1678 C1659 1.368 . S
C1678 C1672 1.368 . S
C1678 C1677 1.523 . S
C1679 C1663 1.429 . S
C1679 C1675 1.429 . S
C1679 C1680 1.523 . S
C1680 C1664 1.368 . S
C1680 C1676 1.368 . S
C1680 C1679 1.523 . S
H1681 C1656 0.950 . S
H1682 C1658 0.950 . S
H1683 C1659 0.949 . S
H1684 C1661 0.950 . S
H1685 C1663 0.950 . S
C1686 C1687 1.349 . S
C1686 C1688 1.327 1_554 S
C1686 H1711 0.950 . S
C1687 C1686 1.349 . S
C1687 C1703 1.349 1_554 S
C1688 C1686 1.327 1_556 S
C1688 C1707 1.429 . S
C1688 H1712 0.950 . S
C1689 C1706 1.574 . S
C1689 C1708 1.368 . S
C1689 H1713 0.949 . S
H1690 C1694 0.949 . S
C1691 C1692 1.349 . S
C1691 C1693 1.327 . S
C1691 H1714 0.950 . S
C1692 C1691 1.349 . S
C1692 C1704 1.349 . S
C1693 C1691 1.327 . S
C1693 C1709 1.429 . S
C1693 H1715 0.950 . S
C1694 H1690 0.949 . S
C1694 C1702 1.574 . S
C1694 C1710 1.368 . S
H1695 C1703 0.950 1_554 S
H1696 C1701 0.950 . S
H1697 C1702 0.949 . S
H1698 C1704 0.950 . S
H1699 C1705 0.950 . S
H1700 C1706 0.949 . S
C1701 H1696 0.950 . S
C1701 C1703 1.327 . S
C1701 C1707 1.429 . S
C1702 C1694 1.574 . S
C1702 H1697 0.949 . S
C1702 C1708 1.368 . S
C1703 C1687 1.349 1_556 S
C1703 H1695 0.950 1_556 S
C1703 C1701 1.327 . S
C1704 C1692 1.349 . S
C1704 H1698 0.950 . S
C1704 C1705 1.327 . S
C1705 H1699 0.950 . S
C1705 C1704 1.327 . S
C1705 C1709 1.429 . S
C1706 C1689 1.574 . S
C1706 H1700 0.949 . S
C1706 C1710 1.368 . S
C1707 C1688 1.429 . S
C1707 C1701 1.429 . S
C1707 C1708 1.523 . S
C1708 C1689 1.368 . S
C1708 C1702 1.368 . S
C1708 C1707 1.523 . S
C1709 C1693 1.429 . S
C1709 C1705 1.429 . S
C1709 C1710 1.523 . S
C1710 C1694 1.368 . S
C1710 C1706 1.368 . S
C1710 C1709 1.523 . S
H1711 C1686 0.950 . S
H1712 C1688 0.950 . S
H1713 C1689 0.949 . S
H1714 C1691 0.950 . S
H1715 C1693 0.950 . S
C1716 C1717 1.349 . S
C1716 C1718 1.327 . S
C1716 H1741 0.950 . S
C1717 C1716 1.349 . S
C1717 C1733 1.349 . S
C1718 C1716 1.327 . S
C1718 C1737 1.429 . S
C1718 H1742 0.950 . S
C1719 C1736 1.574 . S
C1719 C1738 1.368 . S
C1719 H1743 0.949 . S
H1720 C1724 0.949 . S
C1721 C1722 1.349 . S
C1721 C1723 1.327 . S
C1721 H1744 0.950 . S
C1722 C1721 1.349 . S
C1722 C1734 1.349 . S
C1723 C1721 1.327 . S
C1723 C1739 1.429 . S
C1723 H1745 0.950 . S
C1724 H1720 0.949 . S
C1724 C1732 1.574 . S
C1724 C1740 1.368 . S
H1725 C1733 0.950 . S
H1726 C1731 0.950 . S
H1727 C1732 0.949 . S
H1728 C1734 0.950 . S
H1729 C1735 0.950 . S
H1730 C1736 0.949 . S
C1731 H1726 0.950 . S
C1731 C1733 1.327 . S
C1731 C1737 1.429 . S
C1732 C1724 1.574 . S
C1732 H1727 0.949 . S
C1732 C1738 1.368 . S
C1733 C1717 1.349 . S
C1733 H1725 0.950 . S
C1733 C1731 1.327 . S
C1734 C1722 1.349 . S
C1734 H1728 0.950 . S
C1734 C1735 1.327 . S
C1735 H1729 0.950 . S
C1735 C1734 1.327 . S
C1735 C1739 1.429 . S
C1736 C1719 1.574 . S
C1736 H1730 0.949 . S
C1736 C1740 1.368 . S
C1737 C1718 1.429 . S
C1737 C1731 1.429 . S
C1737 C1738 1.523 . S
C1738 C1719 1.368 . S
C1738 C1732 1.368 . S
C1738 C1737 1.523 . S
C1739 C1723 1.429 . S
C1739 C1735 1.429 . S
C1739 C1740 1.523 . S
C1740 C1724 1.368 . S
C1740 C1736 1.368 . S
C1740 C1739 1.523 . S
H1741 C1716 0.950 . S
H1742 C1718 0.950 . S
H1743 C1719 0.949 . S
H1744 C1721 0.950 . S
H1745 C1723 0.950 . S
C1746 C1747 1.349 . S
C1746 C1748 1.327 . S
C1746 H1771 0.950 . S
C1747 C1746 1.349 . S
C1747 C1763 1.349 . S
C1748 C1746 1.327 . S
C1748 C1767 1.429 . S
C1748 H1772 0.950 . S
C1749 C1766 1.574 . S
C1749 C1768 1.368 . S
C1749 H1773 0.949 . S
H1750 C1754 0.949 . S
C1751 C1752 1.349 . S
C1751 C1753 1.327 . S
C1751 H1774 0.950 . S
C1752 C1751 1.349 . S
C1752 C1764 1.349 . S
C1753 C1751 1.327 . S
C1753 C1769 1.429 . S
C1753 H1775 0.950 . S
C1754 H1750 0.949 . S
C1754 C1762 1.574 . S
C1754 C1770 1.368 . S
H1755 C1763 0.950 . S
H1756 C1761 0.950 . S
H1757 C1762 0.949 . S
H1758 C1764 0.950 . S
H1759 C1765 0.950 . S
H1760 C1766 0.949 . S
C1761 H1756 0.950 . S
C1761 C1763 1.327 . S
C1761 C1767 1.429 . S
C1762 C1754 1.574 . S
C1762 H1757 0.949 . S
C1762 C1768 1.368 . S
C1763 C1747 1.349 . S
C1763 H1755 0.950 . S
C1763 C1761 1.327 . S
C1764 C1752 1.349 . S
C1764 H1758 0.950 . S
C1764 C1765 1.327 . S
C1765 H1759 0.950 . S
C1765 C1764 1.327 . S
C1765 C1769 1.429 . S
C1766 C1749 1.574 . S
C1766 H1760 0.949 . S
C1766 C1770 1.368 . S
C1767 C1748 1.429 . S
C1767 C1761 1.429 . S
C1767 C1768 1.523 . S
C1768 C1749 1.368 . S
C1768 C1762 1.368 . S
C1768 C1767 1.523 . S
C1769 C1753 1.429 . S
C1769 C1765 1.429 . S
C1769 C1770 1.523 . S
C1770 C1754 1.368 . S
C1770 C1766 1.368 . S
C1770 C1769 1.523 . S
H1771 C1746 0.950 . S
H1772 C1748 0.950 . S
H1773 C1749 0.949 . S
H1774 C1751 0.950 . S
H1775 C1753 0.950 . S
C337 C14 1.276 . S
C342 C164 1.276 . S
C367 C38 1.276 . S
C372 C98 1.276 . S
C397 C119 1.276 . S
C402 C56 1.276 . S
C427 C77 1.276 . S
C432 C140 1.276 . S
C457 C249 1.149 . S
C462 C102 1.149 . S
C487 C186 1.149 . S
C492 C18 1.149 . S
C517 C225 1.150 . S
C522 C144 1.150 . S
C547 C60 1.150 . S
C552 C204 1.150 . S
C577 C206 1.276 . S
C582 C266 1.276 . S
C607 C227 1.276 . S
C612 C308 1.276 . S
C637 C287 1.276 . S
C642 C182 1.276 . S
C667 C245 1.276 . S
C672 C329 1.276 . S
C697 C312 1.149 . S
C702 C81 1.150 . S
C727 C270 1.149 . S
C732 C123 1.150 . S
C757 C36 1.150 . S
C762 C333 1.150 . S
C787 C162 1.150 . S
C792 C291 1.150 . S
C817 C286 1.343 . S
C822 C13 1.343 . S
C847 C244 1.343 . S
C852 C37 1.343 . S
C877 C265 1.343 . S
C882 C55 1.343 . S
C907 C226 1.343 . S
C912 C76 1.343 . S
C937 C97 1.343 . S
C942 C328 1.343 . S
C967 C205 1.343 . S
C972 C118 1.343 . S
C997 C139 1.343 . S
C1002 C307 1.343 . S
C1027 C163 1.343 . S
C1032 C181 1.343 . S
C1057 C16 0.918 . S
C1062 C100 0.918 . S
C1087 C34 0.917 . S
C1092 C121 0.917 . S
C1117 C142 0.917 . S
C1122 C58 0.917 . S
C1147 C79 0.917 . S
C1152 C160 0.917 . S
C1177 C223 0.918 . S
C1182 C184 0.918 . S
C1207 C247 0.918 . S
C1212 C202 0.918 . S
C1237 C268 0.918 . S
C1242 C310 0.918 . S
C1267 C331 0.918 . S
C1272 C289 0.918 . S
C1297 C17 1.268 . S
C1302 C161 1.268 . S
C1327 C35 1.268 . S
C1332 C101 1.268 . S
C1357 C122 1.268 . S
C1362 C59 1.268 . S
C1387 C143 1.268 . S
C1392 C80 1.268 . S
C1417 C246 1.170 . S
C1422 C99 1.170 . S
C1447 C183 1.170 . S
C1452 C15 1.170 . S
C1477 C228 1.170 . S
C1482 C141 1.170 . S
C1507 C57 1.170 . S
C1512 C207 1.170 . S
C1537 C269 1.268 . S
C1542 C203 1.268 . S
C1567 C311 1.268 . S
C1572 C224 1.268 . S
C1597 C290 1.268 . S
C1602 C185 1.268 . S
C1627 C332 1.268 . S
C1632 C248 1.268 . S
C1657 C309 1.170 . S
C1662 C78 1.170 . S
C1687 C120 1.170 . S
C1692 C267 1.170 . S
C1717 C39 1.170 . S
C1722 C330 1.170 . S
C1747 C288 1.170 . S
C1752 C165 1.170 . S
