# Generated by pormake.
# Topology lcv, (4)-cn, num edge types: 1
# Building blocks:
#     Node 0, Type 0, BuildingBlock: ESEHIV_clean_sbu_0, # of connection points: 4
#     Node 1, Type 0, BuildingBlock: ESEHIV_clean_sbu_0, # of connection points: 4
#     Node 2, Type 0, BuildingBlock: ESEHIV_clean_sbu_0, # of connection points: 4
#     Node 3, Type 0, BuildingBlock: ESEHIV_clean_sbu_0, # of connection points: 4
#     Node 4, Type 0, BuildingBlock: ESEHIV_clean_sbu_0, # of connection points: 4
#     Node 5, Type 0, BuildingBlock: ESEHIV_clean_sbu_0, # of connection points: 4
#     Node 6, Type 0, BuildingBlock: ESEHIV_clean_sbu_0, # of connection points: 4
#     Node 7, Type 0, BuildingBlock: ESEHIV_clean_sbu_0, # of connection points: 4
#     Node 8, Type 0, BuildingBlock: ESEHIV_clean_sbu_0, # of connection points: 4
#     Node 9, Type 0, BuildingBlock: ESEHIV_clean_sbu_0, # of connection points: 4
#     Node 10, Type 0, BuildingBlock: ESEHIV_clean_sbu_0, # of connection points: 4
#     Node 11, Type 0, BuildingBlock: ESEHIV_clean_sbu_0, # of connection points: 4
#     Edge 12, Type (0, 0), BuildingBlock: OJICUG_clean_linker_0, # of connection points: 2
#     Edge 13, Type (0, 0), BuildingBlock: OJICUG_clean_linker_0, # of connection points: 2
#     Edge 14, Type (0, 0), BuildingBlock: OJICUG_clean_linker_0, # of connection points: 2
#     Edge 15, Type (0, 0), BuildingBlock: OJICUG_clean_linker_0, # of connection points: 2
#     Edge 16, Type (0, 0), BuildingBlock: OJICUG_clean_linker_0, # of connection points: 2
#     Edge 17, Type (0, 0), BuildingBlock: OJICUG_clean_linker_0, # of connection points: 2
#     Edge 18, Type (0, 0), BuildingBlock: OJICUG_clean_linker_0, # of connection points: 2
#     Edge 19, Type (0, 0), BuildingBlock: OJICUG_clean_linker_0, # of connection points: 2
#     Edge 20, Type (0, 0), BuildingBlock: OJICUG_clean_linker_0, # of connection points: 2
#     Edge 21, Type (0, 0), BuildingBlock: OJICUG_clean_linker_0, # of connection points: 2
#     Edge 22, Type (0, 0), BuildingBlock: OJICUG_clean_linker_0, # of connection points: 2
#     Edge 23, Type (0, 0), BuildingBlock: OJICUG_clean_linker_0, # of connection points: 2
#     Edge 24, Type (0, 0), BuildingBlock: OJICUG_clean_linker_0, # of connection points: 2
#     Edge 25, Type (0, 0), BuildingBlock: OJICUG_clean_linker_0, # of connection points: 2
#     Edge 26, Type (0, 0), BuildingBlock: OJICUG_clean_linker_0, # of connection points: 2
#     Edge 27, Type (0, 0), BuildingBlock: OJICUG_clean_linker_0, # of connection points: 2
#     Edge 28, Type (0, 0), BuildingBlock: OJICUG_clean_linker_0, # of connection points: 2
#     Edge 29, Type (0, 0), BuildingBlock: OJICUG_clean_linker_0, # of connection points: 2
#     Edge 30, Type (0, 0), BuildingBlock: OJICUG_clean_linker_0, # of connection points: 2
#     Edge 31, Type (0, 0), BuildingBlock: OJICUG_clean_linker_0, # of connection points: 2
#     Edge 32, Type (0, 0), BuildingBlock: OJICUG_clean_linker_0, # of connection points: 2
#     Edge 33, Type (0, 0), BuildingBlock: OJICUG_clean_linker_0, # of connection points: 2
#     Edge 34, Type (0, 0), BuildingBlock: OJICUG_clean_linker_0, # of connection points: 2
#     Edge 35, Type (0, 0), BuildingBlock: OJICUG_clean_linker_0, # of connection points: 2
# Relax obj value: 0.164
# Max RMSD: 0.315
# Mean RMSD: 0.279
data_MOF--net-lcv--node1-ESEHIV_clean_sbu_0--edge1-OJICUG_clean_linker_0
_symmetry_space_group_name_H-M    P1
_symmetry_Int_Tables_number       1
_symmetry_cell_setting            triclinic
loop_
_symmetry_equiv_pos_as_xyz
'x, y, z'
_cell_length_a     37.612083
_cell_length_b     36.58422
_cell_length_c     37.030369
_cell_angle_alpha  97.693099
_cell_angle_beta   90.019396
_cell_angle_gamma 105.14987
loop_
_atom_site_label
_atom_site_type_symbol
_atom_site_fract_x
_atom_site_fract_y
_atom_site_fract_z
_atom_type_partial_charge
Cu0 Cu 0.05489 0.24184 0.19727 0.0
N1 N 0.05575 0.20052 0.22112 0.0
N2 N 0.08039 0.16086 0.24719 0.0
C3 C 0.08574 0.18775 0.22474 0.0
C4 C 0.04541 0.15637 0.25804 0.0
C5 C 0.0302 0.18092 0.24177 0.0
O6 O 0.09103 0.24555 0.16002 0.0
C7 C 0.07441 0.29201 0.26477 0.0
O8 O 0.08464 0.2641 0.27699 0.0
H9 H 0.11171 0.19966 0.2128 0.0
H10 H 0.00306 0.18532 0.24585 0.0
N11 N 0.00946 0.23562 0.17447 0.0
N12 N 0.96427 0.25402 0.14943 0.0
C13 C 0.9942 0.26459 0.17222 0.0
C14 C 0.98848 0.20541 0.1525 0.0
C15 C 0.96045 0.21674 0.13688 0.0
C16 C 0.1253 0.26029 0.16658 0.0
O17 O 0.13716 0.27566 0.19997 0.0
H18 H 0.00636 0.29355 0.18516 0.0
H19 H 0.99422 0.17777 0.1469 0.0
O20 O 0.06346 0.28826 0.23165 0.0
H21 H 0.03207 0.13739 0.27693 0.0
H22 H 0.93965 0.19932 0.11705 0.0
Cu23 Cu 0.18201 0.79369 0.44297 0.0
N24 N 0.16823 0.82421 0.41234 0.0
N25 N 0.17125 0.86396 0.37095 0.0
C26 C 0.1898 0.84465 0.38919 0.0
C27 C 0.13662 0.85505 0.38322 0.0
C28 C 0.13486 0.83049 0.4087 0.0
O29 O 0.23514 0.8111 0.4505 0.0
C30 C 0.15962 0.71206 0.43613 0.0
O31 O 0.172 0.71652 0.47005 0.0
H32 H 0.2185 0.8452 0.38591 0.0
H33 H 0.1111 0.81838 0.42387 0.0
N34 N 0.16061 0.80145 0.48775 0.0
N35 N 0.12402 0.79367 0.53509 0.0
C36 C 0.1315 0.77833 0.50165 0.0
C37 C 0.17175 0.83248 0.51307 0.0
C38 C 0.1492 0.82781 0.54231 0.0
C39 C 0.2517 0.80639 0.47879 0.0
O40 O 0.23312 0.78477 0.50171 0.0
H41 H 0.11566 0.75124 0.48726 0.0
H42 H 0.19475 0.85677 0.51037 0.0
O43 O 0.16347 0.74123 0.41985 0.0
H44 H 0.11434 0.86628 0.37523 0.0
H45 H 0.15134 0.84783 0.56704 0.0
Cu46 Cu 0.69845 0.89347 0.71145 0.0
N47 N 0.69137 0.86983 0.75336 0.0
N48 N 0.7024 0.84066 0.79976 0.0
C49 C 0.71315 0.85069 0.76687 0.0
C50 C 0.67232 0.85363 0.80693 0.0
C51 C 0.66556 0.87156 0.77819 0.0
O52 O 0.74446 0.89048 0.68975 0.0
C53 C 0.7022 0.9655 0.75325 0.0
O54 O 0.72095 0.95428 0.77756 0.0
H55 H 0.73716 0.84544 0.75338 0.0
H56 H 0.64402 0.88587 0.77598 0.0
N57 N 0.66197 0.8681 0.67651 0.0
N58 N 0.62271 0.86077 0.62925 0.0
C59 C 0.6438 0.88552 0.65612 0.0
C60 C 0.65209 0.83091 0.66245 0.0
C61 C 0.62765 0.82622 0.6333 0.0
C62 C 0.7757 0.89786 0.70618 0.0
O63 O 0.7795 0.91242 0.74081 0.0
H64 H 0.6468 0.91601 0.66064 0.0
H65 H 0.66303 0.80912 0.67179 0.0
O66 O 0.69328 0.94485 0.72254 0.0
H67 H 0.65648 0.85069 0.83126 0.0
H68 H 0.6157 0.79972 0.61569 0.0
Cu69 Cu 0.59708 0.39101 0.96672 0.0
N70 N 0.61028 0.43457 0.94335 0.0
N71 N 0.6445 0.48499 0.92003 0.0
C72 C 0.64464 0.45503 0.93763 0.0
C73 C 0.60864 0.48345 0.91459 0.0
C74 C 0.5876 0.45223 0.92889 0.0
O75 O 0.63486 0.39395 0.00348 0.0
C76 C 0.56542 0.33913 0.90575 0.0
O77 O 0.54485 0.36309 0.9052 0.0
H78 H 0.66933 0.44875 0.94693 0.0
H79 H 0.55783 0.44309 0.92887 0.0
N80 N 0.55282 0.38907 0.98979 0.0
N81 N 0.4968 0.36599 0.01038 0.0
C82 C 0.52605 0.35743 0.99362 0.0
C83 C 0.54031 0.41867 0.00486 0.0
C84 C 0.50562 0.40451 0.01745 0.0
C85 C 0.66665 0.39084 0.99453 0.0
O86 O 0.67319 0.383 0.9599 0.0
H87 H 0.52756 0.32878 0.98328 0.0
H88 H 0.55521 0.44844 0.00612 0.0
O89 O 0.59059 0.34587 0.93062 0.0
H90 H 0.59836 0.50329 0.90103 0.0
H91 H 0.48823 0.42123 0.0307 0.0
Cu92 Cu 0.27863 0.05391 0.27959 0.0
N93 N 0.24433 0.07931 0.29777 0.0
N94 N 0.19617 0.10425 0.29797 0.0
C95 C 0.21916 0.08822 0.27735 0.0
C96 C 0.20746 0.10542 0.33285 0.0
C97 C 0.23725 0.08993 0.33262 0.0
O98 O 0.28369 0.06022 0.22872 0.0
C99 C 0.22776 0.98264 0.28336 0.0
O100 O 0.20456 0.99754 0.26774 0.0
H101 H 0.21716 0.08188 0.24791 0.0
H102 H 0.25234 0.08618 0.3561 0.0
N103 N 0.32352 0.0749 0.30481 0.0
N104 N 0.37331 0.07795 0.33904 0.0
C105 C 0.34048 0.05592 0.32472 0.0
C106 C 0.34613 0.11031 0.30653 0.0
C107 C 0.37695 0.11234 0.32778 0.0
C108 C 0.31324 0.06205 0.21157 0.0
O109 O 0.34161 0.05521 0.22746 0.0
H110 H 0.32859 0.02656 0.32886 0.0
H111 H 0.34071 0.13285 0.29301 0.0
O112 O 0.26142 0.00131 0.28799 0.0
H113 H 0.19526 0.11679 0.35679 0.0
H114 H 0.40034 0.13701 0.33399 0.0
Cu115 Cu 0.4604 0.96443 0.51708 0.0
N116 N 0.47106 0.99876 0.4835 0.0
N117 N 0.46156 0.03147 0.43946 0.0
C118 C 0.44841 0.00024 0.45603 0.0
C119 C 0.49382 0.05036 0.4572 0.0
C120 C 0.49967 0.02997 0.4844 0.0
O121 O 0.40987 0.93396 0.50832 0.0
C122 C 0.45615 0.02095 0.57609 0.0
O123 O 0.43332 0.02985 0.55404 0.0
H124 H 0.42177 0.98001 0.44976 0.0
H125 H 0.52229 0.03812 0.50441 0.0
N126 N 0.49087 0.93174 0.51144 0.0
N127 N 0.53057 0.90061 0.52761 0.0
C128 C 0.51782 0.93184 0.53524 0.0
C129 C 0.48649 0.8995 0.4877 0.0
C130 C 0.51098 0.88006 0.49774 0.0
C131 C 0.39723 0.90366 0.52263 0.0
O132 O 0.41803 0.89414 0.54632 0.0
H133 H 0.52602 0.95299 0.55921 0.0
H134 H 0.46552 0.88979 0.466 0.0
O135 O 0.46946 0.99288 0.56571 0.0
H136 H 0.51138 0.07738 0.45155 0.0
H137 H 0.51327 0.85242 0.48495 0.0
Cu138 Cu 0.53396 0.1196 0.78866 0.0
N139 N 0.57003 0.09793 0.80336 0.0
N140 N 0.61515 0.06839 0.80173 0.0
C141 C 0.5923 0.08182 0.78201 0.0
C142 C 0.60676 0.07664 0.83687 0.0
C143 C 0.579 0.0949 0.83774 0.0
O144 O 0.52684 0.10749 0.73596 0.0
C145 C 0.52963 0.19682 0.80718 0.0
O146 O 0.49704 0.18502 0.79044 0.0
H147 H 0.5915 0.07998 0.75261 0.0
H148 H 0.56583 0.10479 0.86168 0.0
N149 N 0.48999 0.09706 0.80938 0.0
N150 N 0.43952 0.08962 0.84232 0.0
C151 C 0.47241 0.11322 0.83599 0.0
C152 C 0.46786 0.0619 0.79872 0.0
C153 C 0.43668 0.0572 0.81897 0.0
C154 C 0.4968 0.1068 0.71966 0.0
O155 O 0.47135 0.1189 0.7382 0.0
H156 H 0.4835 0.14182 0.85017 0.0
H157 H 0.47359 0.0416 0.77698 0.0
O158 O 0.54969 0.17374 0.80735 0.0
H159 H 0.61887 0.06898 0.86029 0.0
H160 H 0.41328 0.0323 0.81581 0.0
Cu161 Cu 0.31295 0.1846 0.0356 0.0
N162 N 0.31295 0.1517 0.99294 0.0
N163 N 0.33464 0.12324 0.94406 0.0
C164 C 0.34152 0.15319 0.97094 0.0
C165 C 0.30031 0.10209 0.94938 0.0
C166 C 0.28695 0.11982 0.97963 0.0
O167 O 0.35806 0.22566 0.03879 0.0
C168 C 0.33259 0.1371 0.08261 0.0
O169 O 0.36052 0.13706 0.06132 0.0
H170 H 0.36746 0.17493 0.97559 0.0
H171 H 0.26063 0.10971 0.99171 0.0
N172 N 0.27168 0.20359 0.03628 0.0
N173 N 0.22567 0.22673 0.05866 0.0
C174 C 0.25652 0.21662 0.06651 0.0
C175 C 0.24985 0.20546 0.00819 0.0
C176 C 0.22133 0.21973 0.02194 0.0
C177 C 0.35922 0.25758 0.02809 0.0
O178 O 0.32877 0.26388 0.0162 0.0
H179 H 0.26723 0.21723 0.09377 0.0
H180 H 0.25409 0.19652 0.97984 0.0
O181 O 0.31013 0.15629 0.07632 0.0
H182 H 0.2861 0.07554 0.9329 0.0
H183 H 0.19901 0.22423 0.00616 0.0
Cu184 Cu 0.86563 0.46051 0.11381 0.0
N185 N 0.89683 0.49732 0.09027 0.0
N186 N 0.91285 0.54462 0.05639 0.0
C187 C 0.8861 0.51431 0.06383 0.0
C188 C 0.94169 0.54672 0.07899 0.0
C189 C 0.9317 0.51733 0.09989 0.0
O190 O 0.81635 0.45647 0.09559 0.0
C191 C 0.87124 0.45528 0.18994 0.0
O192 O 0.85647 0.41847 0.18072 0.0
H193 H 0.8583 0.50623 0.05213 0.0
H194 H 0.9479 0.51217 0.12187 0.0
N195 N 0.87522 0.41324 0.09991 0.0
N196 N 0.89396 0.36027 0.10108 0.0
C197 C 0.89756 0.39678 0.1165 0.0
C198 C 0.85751 0.38668 0.07261 0.0
C199 C 0.86896 0.35399 0.07325 0.0
C200 C 0.78761 0.4307 0.10099 0.0
O201 O 0.78883 0.40782 0.12516 0.0
H202 H 0.91537 0.41108 0.13993 0.0
H203 H 0.83666 0.3904 0.05436 0.0
O204 O 0.87461 0.47754 0.16584 0.0
H205 H 0.96757 0.56863 0.08114 0.0
H206 H 0.8584 0.32721 0.05557 0.0
Cu207 Cu -2e-05 0.50235 0.38397 0.0
N208 N 0.01902 0.46074 0.38592 0.0
N209 N 0.04167 0.41158 0.36509 0.0
C210 C 0.03228 0.44285 0.3571 0.0
C211 C 0.0343 0.41017 0.40069 0.0
C212 C 0.02028 0.4406 0.41348 0.0
O213 O 0.97652 0.49483 0.33599 0.0
C214 C 0.05531 0.5714 0.37406 0.0
O215 O 0.04444 0.56482 0.33953 0.0
H216 H 0.03424 0.45245 0.33062 0.0
H217 H 0.01061 0.44689 0.44052 0.0
N218 N 0.96431 0.50336 0.41837 0.0
N219 N 0.93095 0.52706 0.46058 0.0
C220 C 0.9604 0.53486 0.43935 0.0
C221 C 0.93647 0.47446 0.42637 0.0
C222 C 0.91586 0.48899 0.4526 0.0
C223 C 0.95461 0.51316 0.32613 0.0
O224 O 0.94967 0.54271 0.34791 0.0
H225 H 0.97903 0.5629 0.43908 0.0
H226 H 0.93135 0.44506 0.41372 0.0
O227 O 0.03966 0.54848 0.39569 0.0
H228 H 0.03724 0.3879 0.41606 0.0
H229 H 0.89135 0.47288 0.46433 0.0
Cu230 Cu 0.92612 0.73375 0.63765 0.0
N231 N 0.90243 0.68761 0.60957 0.0
N232 N 0.89226 0.63524 0.56835 0.0
C233 C 0.91385 0.67093 0.57878 0.0
C234 C 0.86586 0.62961 0.59323 0.0
C235 C 0.87215 0.66204 0.61854 0.0
O236 O 0.977 0.75134 0.62466 0.0
C237 C 0.92616 0.69878 0.70157 0.0
O238 O 0.93972 0.67395 0.68096 0.0
H239 H 0.93863 0.68391 0.56543 0.0
H240 H 0.85667 0.66616 0.64267 0.0
N241 N 0.90327 0.77096 0.62847 0.0
N242 N 0.87365 0.81673 0.63687 0.0
C243 C 0.88657 0.79126 0.65256 0.0
C244 C 0.90107 0.78401 0.59651 0.0
C245 C 0.88265 0.81218 0.60155 0.0
C246 C -0.00111 0.73048 0.61668 0.0
O247 O 0.98842 0.69392 0.61986 0.0
H248 H 0.88337 0.78686 0.68084 0.0
H249 H 0.91216 0.77373 0.57138 0.0
O250 O 0.92061 0.72729 0.68844 0.0
H251 H 0.84413 0.6036 0.59367 0.0
H252 H 0.8765 0.82813 0.58086 0.0
Cu253 Cu 0.81696 0.67708 0.89798 0.0
N254 N 0.8012 0.72127 0.90544 0.0
N255 N 0.77535 0.76551 0.88984 0.0
C256 C 0.78495 0.73297 0.87859 0.0
C257 C 0.78581 0.77454 0.92555 0.0
C258 C 0.80192 0.74707 0.93513 0.0
O259 O 0.83816 0.67711 0.85052 0.0
C260 C 0.77311 0.5998 0.88965 0.0
O261 O 0.8031 0.59087 0.8778 0.0
H262 H 0.77977 0.71729 0.85135 0.0
H263 H 0.81328 0.74596 0.96168 0.0
N264 N 0.85185 0.6764 0.93328 0.0
N265 N 0.88313 0.65228 0.97096 0.0
C266 C 0.85207 0.64627 0.95028 0.0
C267 C 0.88367 0.70276 0.94376 0.0
C268 C 0.90303 0.68799 0.96723 0.0
C269 C 0.86552 0.66455 0.84026 0.0
O270 O 0.88031 0.6464 0.86186 0.0
H271 H 0.83001 0.62021 0.94705 0.0
H272 H 0.8927 0.73015 0.93397 0.0
O273 O 0.77379 0.6347 0.89888 0.0
H274 H 0.78249 0.79935 0.9433 0.0
H275 H 0.93018 0.70188 0.97938 0.0
C276 C 0.1074 0.13305 0.29441 0.0
C277 C 0.10806 0.14406 0.25942 0.0
H278 H 0.13496 0.11165 0.33419 0.0
C279 C 0.13753 0.14062 0.23713 0.0
H280 H 0.08521 0.13563 0.31234 0.0
C281 C 0.16617 0.12749 0.24975 0.0
C282 C 0.16606 0.1172 0.28499 0.0
H283 H 0.13866 0.14841 0.20989 0.0
H284 H 0.1888 0.12622 0.23204 0.0
C285 C 0.13617 0.11982 0.3071 0.0
C286 C 0.34117 0.88417 0.48065 0.0
C287 C 0.3603 0.87823 0.51103 0.0
H288 H 0.29232 0.86577 0.44622 0.0
C289 C 0.34413 0.84728 0.52966 0.0
H290 H 0.35298 0.90753 0.46548 0.0
C291 C 0.30925 0.82333 0.51864 0.0
C292 C 0.28994 0.82955 0.48852 0.0
H293 H 0.35821 0.8418 0.55305 0.0
H294 H 0.29725 0.80018 0.53399 0.0
C295 C 0.30649 0.86 0.46942 0.0
C296 C 0.63699 0.02823 0.75198 0.0
C297 C 0.64057 0.04668 0.78815 0.0
H298 H 0.65406 0.98883 0.7124 0.0
C299 C 0.6681 0.0417 0.81136 0.0
H300 H 0.61621 0.03111 0.73319 0.0
C301 C 0.68977 0.01698 0.79942 0.0
C302 C 0.68455 0.99686 0.76393 0.0
H303 H 0.6724 0.05614 0.83909 0.0
H304 H 0.7096 0.01255 0.81846 0.0
C305 C 0.65878 0.00377 0.74 0.0
C306 C 0.42922 0.34994 0.01566 0.0
C307 C 0.46253 0.33953 0.0171 0.0
H308 H 0.37045 0.33217 0.01789 0.0
C309 C 0.46175 0.30248 0.02402 0.0
H310 H 0.42893 0.37815 0.01007 0.0
C311 C 0.42828 0.27617 0.02876 0.0
C312 C 0.39487 0.28625 0.02622 0.0
H313 H 0.48705 0.29384 0.02568 0.0
H314 H 0.42854 0.24765 0.0335 0.0
C315 C 0.39572 0.32351 0.01995 0.0
C316 C 0.17617 0.92942 0.29998 0.0
C317 C 0.21391 0.94837 0.30169 0.0
H318 H 0.13306 0.88724 0.32014 0.0
C319 C 0.23777 0.9368 0.32426 0.0
H320 H 0.15707 0.93747 0.2827 0.0
C321 C 0.22394 0.9084 0.34612 0.0
C322 C 0.18592 0.89067 0.34583 0.0
H323 H 0.26702 0.9508 0.32628 0.0
H324 H 0.24303 0.90162 0.36434 0.0
C325 C 0.16235 0.90084 0.32175 0.0
C326 C 0.54991 0.85143 0.5564 0.0
C327 C 0.55586 0.88958 0.55027 0.0
H328 H 0.56597 0.81237 0.58701 0.0
C329 C 0.58531 0.91755 0.56877 0.0
H330 H 0.5271 0.8294 0.54271 0.0
C331 C 0.60776 0.90789 0.59381 0.0
C332 C 0.60098 0.87003 0.60139 0.0
H333 H 0.59072 0.94706 0.56407 0.0
H334 H 0.63028 0.93036 0.6073 0.0
C335 C 0.57216 0.84175 0.58186 0.0
C336 C 0.58058 0.27879 0.87785 0.0
C337 C 0.55794 0.30395 0.87881 0.0
H338 H 0.58974 0.22551 0.85416 0.0
C339 C 0.52727 0.29467 0.85434 0.0
H340 H 0.60451 0.28517 0.89619 0.0
C341 C 0.51874 0.26045 0.83029 0.0
C342 C 0.54079 0.23479 0.82998 0.0
H343 H 0.50929 0.31346 0.85425 0.0
H344 H 0.49441 0.2538 0.81245 0.0
C345 C 0.57216 0.24464 0.85362 0.0
C346 C 0.21409 0.25731 0.11961 0.0
C347 C 0.20097 0.2388 0.08453 0.0
H348 H 0.2006 0.27903 0.17296 0.0
C349 C 0.16307 0.23036 0.07588 0.0
H350 H 0.24321 0.26482 0.12693 0.0
C351 C 0.13866 0.23863 0.10219 0.0
C352 C 0.15162 0.25566 0.13773 0.0
H353 H 0.15201 0.21592 0.04924 0.0
H354 H 0.10948 0.23063 0.09492 0.0
C355 C 0.18969 0.2657 0.14592 0.0
C356 C 0.34993 0.08153 0.15732 0.0
C357 C 0.31712 0.07754 0.17641 0.0
H358 H 0.3806 0.1034 0.11249 0.0
C359 C 0.28888 0.09143 0.16315 0.0
H360 H 0.3722 0.07112 0.16683 0.0
C361 C 0.29385 0.11021 0.13242 0.0
C362 C 0.32704 0.11529 0.11396 0.0
H363 H 0.26322 0.08885 0.17711 0.0
H364 H 0.27175 0.1212 0.12345 0.0
C365 C 0.35478 0.10009 0.12626 0.0
C366 C 0.44508 0.08276 0.4114 0.0
C367 C 0.44243 0.04377 0.41173 0.0
H368 H 0.42466 0.12427 0.38835 0.0
C369 C 0.4188 0.01661 0.38604 0.0
H370 H 0.46286 0.10429 0.43112 0.0
C371 C 0.39714 0.02797 0.36146 0.0
C372 C 0.39832 0.0668 0.36218 0.0
H373 H 0.41676 0.98644 0.38526 0.0
H374 H 0.37918 0.00615 0.34214 0.0
C375 C 0.42315 0.09417 0.38691 0.0
C376 C 0.45765 0.09081 0.66199 0.0
C377 C 0.48825 0.08732 0.68174 0.0
H378 H 0.42361 0.07277 0.61306 0.0
C379 C 0.50878 0.06263 0.66601 0.0
H380 H 0.44124 0.10957 0.67337 0.0
C381 C 0.49829 0.04106 0.63175 0.0
C382 C 0.46735 0.04412 0.61223 0.0
H383 H 0.53236 0.05907 0.68059 0.0
H384 H 0.51441 0.0219 0.62062 0.0
C385 C 0.44748 0.06966 0.62747 0.0
C386 C 0.38526 0.06833 0.87964 0.0
C387 C 0.41246 0.09801 0.86744 0.0
H388 H 0.33919 0.0531 0.91368 0.0
C389 C 0.41268 0.13608 0.8801 0.0
H390 H 0.38443 0.0387 0.87084 0.0
C391 C 0.38687 0.14424 0.90479 0.0
C392 C 0.36003 0.1146 0.91726 0.0
H393 H 0.43256 0.15973 0.87076 0.0
H394 H 0.38777 0.17384 0.91397 0.0
C395 C 0.35926 0.07654 0.90418 0.0
C396 C 0.76187 0.42944 0.03873 0.0
C397 C 0.75587 0.42179 0.07476 0.0
H398 H 0.7385 0.42468 0.98507 0.0
C399 C 0.72011 0.40364 0.08437 0.0
H400 H 0.78922 0.44298 0.03036 0.0
C401 C 0.6908 0.3938 0.05841 0.0
C402 C 0.69712 0.40076 0.02222 0.0
H403 H 0.71481 0.39727 0.1119 0.0
H404 H 0.66336 0.38017 0.06645 0.0
C405 C 0.73293 0.41858 0.01265 0.0
C406 C 0.07024 0.35746 0.35227 0.0
C407 C 0.0531 0.38356 0.3398 0.0
H408 H 0.09087 0.30823 0.33836 0.0
C409 C 0.04593 0.38088 0.3021 0.0
H410 H 0.07675 0.359 0.38098 0.0
C411 C 0.05446 0.35221 0.27771 0.0
C412 C 0.07017 0.3252 0.29031 0.0
H413 H 0.03241 0.39996 0.29124 0.0
H414 H 0.04746 0.35048 0.24904 0.0
C415 C 0.07863 0.32853 0.32778 0.0
C416 C 0.04747 0.78634 0.60066 0.0
C417 C 0.03354 0.74652 0.59882 0.0
H418 H 0.08717 0.8325 0.58173 0.0
C419 C 0.05113 0.72243 0.57714 0.0
H420 H 0.03451 0.80565 0.61712 0.0
C421 C 0.08114 0.73789 0.55656 0.0
C422 C 0.09441 0.7777 0.55767 0.0
H423 H 0.04093 0.69163 0.57503 0.0
H424 H 0.09383 0.71871 0.53959 0.0
C425 C 0.07771 0.80174 0.58048 0.0
C426 C 0.0986 0.61067 0.42463 0.0
C427 C 0.08457 0.60611 0.3886 0.0
H428 H 0.13365 0.64729 0.46767 0.0
C429 C 0.09778 0.63557 0.36738 0.0
H430 H 0.08926 0.58841 0.44169 0.0
C431 C 0.12327 0.66949 0.38238 0.0
C432 C 0.1363 0.67453 0.41884 0.0
H433 H 0.08766 0.63293 0.33951 0.0
H434 H 0.13206 0.69212 0.36565 0.0
C435 C 0.12425 0.6444 0.43952 0.0
C436 C 0.70603 0.57909 0.90254 0.0
C437 C 0.73945 0.56965 0.89508 0.0
H438 H 0.64959 0.55949 0.91631 0.0
C439 C 0.7407 0.53153 0.89451 0.0
H440 H 0.70413 0.6082 0.90311 0.0
C441 C 0.70944 0.50369 0.90229 0.0
C442 C 0.6762 0.51329 0.91039 0.0
H443 H 0.76602 0.52334 0.88888 0.0
H444 H 0.71128 0.47462 0.90199 0.0
C445 C 0.6747 0.55118 0.90992 0.0
C446 C 0.71683 0.82627 0.86088 0.0
C447 C 0.72065 0.82183 0.82283 0.0
H448 H 0.73132 0.81184 0.91216 0.0
C449 C 0.74334 0.79927 0.80761 0.0
H450 H 0.69999 0.84387 0.87361 0.0
C451 C 0.76167 0.78156 0.82968 0.0
C452 C 0.75761 0.78556 0.86763 0.0
H453 H 0.74675 0.79485 0.77848 0.0
H454 H 0.77921 0.76479 0.81686 0.0
C455 C 0.73518 0.80835 0.88306 0.0
C456 C 0.94086 0.31122 0.16167 0.0
C457 C 0.9443 0.27923 0.13776 0.0
H458 H 0.92175 0.36162 0.16913 0.0
C459 C 0.93012 0.27376 0.10179 0.0
H460 H 0.9511 0.31586 0.18969 0.0
C461 C 0.91368 0.30032 0.08974 0.0
C462 C 0.91082 0.33277 0.1135 0.0
H463 H 0.93285 0.24967 0.08261 0.0
H464 H 0.90397 0.29578 0.06159 0.0
C465 C 0.92424 0.33761 0.14975 0.0
C466 C 0.85621 0.85432 0.69141 0.0
C467 C 0.8523 0.8414 0.65372 0.0
H468 H 0.8355 0.88316 0.73761 0.0
C469 C 0.82577 0.85123 0.63305 0.0
H470 H 0.87684 0.84778 0.70796 0.0
C471 C 0.80225 0.87156 0.64994 0.0
C472 C 0.80487 0.88276 0.68788 0.0
H473 H 0.82192 0.84164 0.60404 0.0
H474 H 0.78104 0.87722 0.63341 0.0
C475 C 0.83282 0.87498 0.70832 0.0
C476 C 0.87326 0.7021 0.78806 0.0
C477 C 0.88197 0.67331 0.80514 0.0
H478 H 0.8809 0.73315 0.74257 0.0
C479 C 0.9067 0.65386 0.78863 0.0
H480 H 0.85459 0.71793 0.80022 0.0
C481 C 0.92168 0.66247 0.75517 0.0
C482 C 0.91265 0.6911 0.73803 0.0
H483 H 0.91401 0.63164 0.80124 0.0
H484 H 0.94011 0.64657 0.74264 0.0
C485 C 0.8886 0.71107 0.75508 0.0
C486 C 0.91786 0.63747 0.02152 0.0
C487 C 0.89322 0.62514 0.99108 0.0
H488 H 0.9435 0.6213 0.06637 0.0
C489 C 0.87774 0.58569 0.98098 0.0
H490 H 0.93016 0.66761 0.03009 0.0
C491 C 0.8853 0.55935 0.00173 0.0
C492 C 0.9087 0.57169 0.03295 0.0
H493 H 0.85955 0.575 0.9571 0.0
H494 H 0.87245 0.52921 0.99359 0.0
C495 C 0.92559 0.61095 0.04224 0.0
C496 C 0.89717 0.5088 0.24052 0.0
C497 C 0.88997 0.46988 0.22613 0.0
H498 H 0.92292 0.55304 0.28385 0.0
C499 C 0.90364 0.44544 0.24519 0.0
H500 H 0.88708 0.52831 0.22628 0.0
C501 C 0.92493 0.45975 0.2774 0.0
C502 C 0.93234 0.49867 0.29175 0.0
H503 H 0.89895 0.41543 0.23461 0.0
H504 H 0.93547 0.44021 0.29118 0.0
C505 C 0.91775 0.52297 0.27334 0.0
C506 C 0.89855 0.5418 0.5166 0.0
C507 C 0.91881 0.55393 0.4865 0.0
H508 H 0.87443 0.55819 0.5664 0.0
C509 C 0.92806 0.59301 0.48272 0.0
H510 H 0.89124 0.51202 0.52054 0.0
C511 C 0.91846 0.61947 0.50903 0.0
C512 C 0.89925 0.60752 0.5397 0.0
H513 H 0.94285 0.60328 0.45947 0.0
H514 H 0.92627 0.64938 0.50547 0.0
C515 C 0.88885 0.56831 0.54289 0.0
loop_
_geom_bond_atom_site_label_1
_geom_bond_atom_site_label_2
_geom_bond_distance
_geom_bond_site_symmetry_2
_ccdc_geom_bond_type
Cu0 N1 1.999 . S
Cu0 O6 1.974 . S
Cu0 N11 1.985 1_455 S
Cu0 O20 1.959 1_455 S
N1 Cu0 1.999 . S
N1 C3 1.263 . S
N1 C5 1.389 . S
N2 C3 1.358 . S
N2 C4 1.400 . S
C3 N1 1.263 . S
C3 N2 1.358 . S
C3 H9 0.930 . S
C4 N2 1.400 . S
C4 C5 1.351 . S
C4 H21 0.930 . S
C5 N1 1.389 . S
C5 C4 1.351 . S
C5 H10 0.930 . S
O6 Cu0 1.974 . S
O6 C16 1.282 . S
C7 O8 1.261 . S
C7 O20 1.251 1_455 S
O8 C7 1.261 . S
H9 C3 0.930 . S
H10 C5 0.930 . S
N11 Cu0 1.985 1_655 S
N11 C13 1.335 . S
N11 C14 1.390 1_655 S
N12 C13 1.345 . S
N12 C15 1.336 . S
C13 N11 1.335 . S
C13 N12 1.345 . S
C13 H18 0.930 . S
C14 N11 1.390 1_455 S
C14 C15 1.346 1_455 S
C14 H19 0.930 . S
C15 N12 1.336 . S
C15 C14 1.346 1_655 S
C15 H22 0.929 . S
C16 O6 1.282 . S
C16 O17 1.216 . S
O17 C16 1.216 . S
H18 C13 0.930 . S
H19 C14 0.930 . S
O20 Cu0 1.959 1_655 S
O20 C7 1.251 1_655 S
H21 C4 0.930 . S
H22 C15 0.929 . S
Cu23 N24 1.999 . S
Cu23 O29 1.974 . S
Cu23 N34 1.985 . S
Cu23 O43 1.959 . S
N24 Cu23 1.999 . S
N24 C26 1.263 . S
N24 C28 1.389 . S
N25 C26 1.358 . S
N25 C27 1.400 . S
C26 N24 1.263 . S
C26 N25 1.358 . S
C26 H32 0.930 . S
C27 N25 1.400 . S
C27 C28 1.351 . S
C27 H44 0.930 . S
C28 N24 1.389 . S
C28 C27 1.351 . S
C28 H33 0.930 . S
O29 Cu23 1.974 . S
O29 C39 1.282 . S
C30 O31 1.261 . S
C30 O43 1.251 . S
O31 C30 1.261 . S
H32 C26 0.930 . S
H33 C28 0.930 . S
N34 Cu23 1.985 . S
N34 C36 1.335 . S
N34 C37 1.390 . S
N35 C36 1.345 . S
N35 C38 1.336 . S
C36 N34 1.335 . S
C36 N35 1.345 . S
C36 H41 0.930 . S
C37 N34 1.390 . S
C37 C38 1.346 . S
C37 H42 0.930 . S
C38 N35 1.336 . S
C38 C37 1.346 . S
C38 H45 0.929 . S
C39 O29 1.282 . S
C39 O40 1.216 . S
O40 C39 1.216 . S
H41 C36 0.930 . S
H42 C37 0.930 . S
O43 Cu23 1.959 . S
O43 C30 1.251 . S
H44 C27 0.930 . S
H45 C38 0.929 . S
Cu46 N47 1.999 . S
Cu46 O52 1.974 . S
Cu46 N57 1.985 . S
Cu46 O66 1.959 . S
N47 Cu46 1.999 . S
N47 C49 1.263 . S
N47 C51 1.389 . S
N48 C49 1.358 . S
N48 C50 1.400 . S
C49 N47 1.263 . S
C49 N48 1.358 . S
C49 H55 0.930 . S
C50 N48 1.400 . S
C50 C51 1.351 . S
C50 H67 0.930 . S
C51 N47 1.389 . S
C51 C50 1.351 . S
C51 H56 0.930 . S
O52 Cu46 1.974 . S
O52 C62 1.282 . S
C53 O54 1.261 1_565 S
C53 O66 1.251 . S
O54 C53 1.261 1_545 S
H55 C49 0.930 . S
H56 C51 0.930 . S
N57 Cu46 1.985 . S
N57 C59 1.335 . S
N57 C60 1.390 . S
N58 C59 1.345 . S
N58 C61 1.336 . S
C59 N57 1.335 . S
C59 N58 1.345 . S
C59 H64 0.930 . S
C60 N57 1.390 . S
C60 C61 1.346 . S
C60 H65 0.930 . S
C61 N58 1.336 . S
C61 C60 1.346 . S
C61 H68 0.929 . S
C62 O52 1.282 . S
C62 O63 1.216 . S
O63 C62 1.216 . S
H64 C59 0.930 . S
H65 C60 0.930 . S
O66 Cu46 1.959 . S
O66 C53 1.251 . S
H67 C50 0.930 . S
H68 C61 0.929 . S
Cu69 N70 1.999 . S
Cu69 O75 1.974 1_556 S
Cu69 N80 1.985 . S
Cu69 O89 1.959 . S
N70 Cu69 1.999 . S
N70 C72 1.263 . S
N70 C74 1.389 . S
N71 C72 1.358 . S
N71 C73 1.400 . S
C72 N70 1.263 . S
C72 N71 1.358 . S
C72 H78 0.930 . S
C73 N71 1.400 . S
C73 C74 1.351 . S
C73 H90 0.930 . S
C74 N70 1.389 . S
C74 C73 1.351 . S
C74 H79 0.930 . S
O75 Cu69 1.974 1_554 S
O75 C85 1.282 . S
C76 O77 1.261 . S
C76 O89 1.251 . S
O77 C76 1.261 . S
H78 C72 0.930 . S
H79 C74 0.930 . S
N80 Cu69 1.985 . S
N80 C82 1.335 . S
N80 C83 1.390 1_556 S
N81 C82 1.345 1_554 S
N81 C84 1.336 . S
C82 N80 1.335 . S
C82 N81 1.345 1_556 S
C82 H87 0.930 . S
C83 N80 1.390 1_554 S
C83 C84 1.346 . S
C83 H88 0.930 . S
C84 N81 1.336 . S
C84 C83 1.346 . S
C84 H91 0.929 . S
C85 O75 1.282 . S
C85 O86 1.216 . S
O86 C85 1.216 . S
H87 C82 0.930 . S
H88 C83 0.930 . S
O89 Cu69 1.959 . S
O89 C76 1.251 . S
H90 C73 0.930 . S
H91 C84 0.929 . S
Cu92 N93 1.999 . S
Cu92 O98 1.974 . S
Cu92 N103 1.997 . S
Cu92 O112 1.959 1_545 S
N93 Cu92 1.999 . S
N93 C95 1.263 . S
N93 C97 1.389 . S
N94 C95 1.358 . S
N94 C96 1.400 . S
C95 N93 1.263 . S
C95 N94 1.358 . S
C95 H101 0.930 . S
C96 N94 1.400 . S
C96 C97 1.351 . S
C96 H113 0.930 . S
C97 N93 1.389 . S
C97 C96 1.351 . S
C97 H102 0.930 . S
O98 Cu92 1.974 . S
O98 C108 1.282 . S
C99 O100 1.261 . S
C99 O112 1.251 . S
O100 C99 1.261 . S
H101 C95 0.930 . S
H102 C97 0.930 . S
N103 Cu92 1.997 . S
N103 C105 1.323 1_545 S
N103 C106 1.390 . S
N104 C105 1.345 . S
N104 C107 1.336 . S
C105 N103 1.323 1_565 S
C105 N104 1.345 . S
C105 H110 0.930 . S
C106 N103 1.390 . S
C106 C107 1.346 1_545 S
C106 H111 0.930 . S
C107 N104 1.336 . S
C107 C106 1.346 1_565 S
C107 H114 0.929 . S
C108 O98 1.282 . S
C108 O109 1.216 . S
O109 C108 1.216 . S
H110 C105 0.930 . S
H111 C106 0.930 . S
O112 Cu92 1.959 1_565 S
O112 C99 1.251 . S
H113 C96 0.930 . S
H114 C107 0.929 . S
Cu115 N116 1.999 . S
Cu115 O121 1.974 . S
Cu115 N126 1.985 . S
Cu115 O135 1.959 1_565 S
N116 Cu115 1.999 . S
N116 C118 1.263 . S
N116 C120 1.389 1_565 S
N117 C118 1.358 1_545 S
N117 C119 1.400 . S
C118 N116 1.263 . S
C118 N117 1.358 1_565 S
C118 H124 0.930 . S
C119 N117 1.400 . S
C119 C120 1.351 . S
C119 H136 0.930 . S
C120 N116 1.389 1_545 S
C120 C119 1.351 . S
C120 H125 0.930 . S
O121 Cu115 1.974 . S
O121 C131 1.282 . S
C122 O123 1.261 . S
C122 O135 1.251 . S
O123 C122 1.261 . S
H124 C118 0.930 . S
H125 C120 0.930 . S
N126 Cu115 1.985 . S
N126 C128 1.335 . S
N126 C129 1.390 . S
N127 C128 1.345 . S
N127 C130 1.336 . S
C128 N126 1.335 . S
C128 N127 1.345 . S
C128 H133 0.930 . S
C129 N126 1.390 . S
C129 C130 1.346 . S
C129 H134 0.930 . S
C130 N127 1.336 . S
C130 C129 1.346 . S
C130 H137 0.929 . S
C131 O121 1.282 . S
C131 O132 1.216 . S
O132 C131 1.216 . S
H133 C128 0.930 . S
H134 C129 0.930 . S
O135 Cu115 1.959 1_545 S
O135 C122 1.251 . S
H136 C119 0.930 . S
H137 C130 0.929 . S
Cu138 N139 1.999 . S
Cu138 O144 1.974 . S
Cu138 N149 1.985 . S
Cu138 O158 1.959 . S
N139 Cu138 1.999 . S
N139 C141 1.263 . S
N139 C143 1.389 . S
N140 C141 1.358 . S
N140 C142 1.400 . S
C141 N139 1.263 . S
C141 N140 1.358 . S
C141 H147 0.930 . S
C142 N140 1.400 . S
C142 C143 1.351 . S
C142 H159 0.930 . S
C143 N139 1.389 . S
C143 C142 1.351 . S
C143 H148 0.930 . S
O144 Cu138 1.974 . S
O144 C154 1.282 . S
C145 O146 1.261 . S
C145 O158 1.251 . S
O146 C145 1.261 . S
H147 C141 0.930 . S
H148 C143 0.930 . S
N149 Cu138 1.985 . S
N149 C151 1.335 . S
N149 C152 1.390 . S
N150 C151 1.345 . S
N150 C153 1.336 . S
C151 N149 1.335 . S
C151 N150 1.345 . S
C151 H156 0.930 . S
C152 N149 1.390 . S
C152 C153 1.346 . S
C152 H157 0.930 . S
C153 N150 1.336 . S
C153 C152 1.346 . S
C153 H160 0.929 . S
C154 O144 1.282 . S
C154 O155 1.216 . S
O155 C154 1.216 . S
H156 C151 0.930 . S
H157 C152 0.930 . S
O158 Cu138 1.959 . S
O158 C145 1.251 . S
H159 C142 0.930 . S
H160 C153 0.929 . S
Cu161 N162 1.999 . S
Cu161 O167 1.974 . S
Cu161 N172 1.985 1_556 S
Cu161 O181 1.959 1_556 S
N162 Cu161 1.999 . S
N162 C164 1.263 . S
N162 C166 1.389 . S
N163 C164 1.358 . S
N163 C165 1.400 . S
C164 N162 1.263 . S
C164 N163 1.358 . S
C164 H170 0.930 . S
C165 N163 1.400 . S
C165 C166 1.351 . S
C165 H182 0.930 . S
C166 N162 1.389 . S
C166 C165 1.351 . S
C166 H171 0.930 . S
O167 Cu161 1.974 . S
O167 C177 1.282 . S
C168 O169 1.261 . S
C168 O181 1.251 . S
O169 C168 1.261 . S
H170 C164 0.930 . S
H171 C166 0.930 . S
N172 Cu161 1.985 1_554 S
N172 C174 1.335 . S
N172 C175 1.390 . S
N173 C174 1.345 . S
N173 C176 1.336 . S
C174 N172 1.335 . S
C174 N173 1.345 . S
C174 H179 0.930 . S
C175 N172 1.390 . S
C175 C176 1.346 . S
C175 H180 0.930 . S
C176 N173 1.336 . S
C176 C175 1.346 . S
C176 H183 0.929 . S
C177 O167 1.282 . S
C177 O178 1.216 1_556 S
O178 C177 1.216 1_554 S
H179 C174 0.930 . S
H180 C175 0.930 . S
O181 Cu161 1.959 1_554 S
O181 C168 1.251 . S
H182 C165 0.930 . S
H183 C176 0.929 . S
Cu184 N185 1.999 . S
Cu184 O190 1.974 . S
Cu184 N195 1.985 . S
Cu184 O204 1.959 . S
N185 Cu184 1.999 . S
N185 C187 1.263 . S
N185 C189 1.389 . S
N186 C187 1.358 . S
N186 C188 1.400 . S
C187 N185 1.263 . S
C187 N186 1.358 . S
C187 H193 0.930 . S
C188 N186 1.400 . S
C188 C189 1.351 . S
C188 H205 0.930 . S
C189 N185 1.389 . S
C189 C188 1.351 . S
C189 H194 0.930 . S
O190 Cu184 1.974 . S
O190 C200 1.282 . S
C191 O192 1.261 . S
C191 O204 1.251 . S
O192 C191 1.261 . S
H193 C187 0.930 . S
H194 C189 0.930 . S
N195 Cu184 1.985 . S
N195 C197 1.335 . S
N195 C198 1.390 . S
N196 C197 1.345 . S
N196 C199 1.336 . S
C197 N195 1.335 . S
C197 N196 1.345 . S
C197 H202 0.930 . S
C198 N195 1.390 . S
C198 C199 1.346 . S
C198 H203 0.930 . S
C199 N196 1.336 . S
C199 C198 1.346 . S
C199 H206 0.929 . S
C200 O190 1.282 . S
C200 O201 1.216 . S
O201 C200 1.216 . S
H202 C197 0.930 . S
H203 C198 0.930 . S
O204 Cu184 1.959 . S
O204 C191 1.251 . S
H205 C188 0.930 . S
H206 C199 0.929 . S
Cu207 N208 1.999 1_655 S
Cu207 O213 1.974 . S
Cu207 N218 1.985 . S
Cu207 O227 1.959 1_655 S
N208 Cu207 1.999 1_455 S
N208 C210 1.263 . S
N208 C212 1.389 . S
N209 C210 1.358 . S
N209 C211 1.400 . S
C210 N208 1.263 . S
C210 N209 1.358 . S
C210 H216 0.930 1_455 S
C211 N209 1.400 . S
C211 C212 1.351 . S
C211 H228 0.930 . S
C212 N208 1.389 . S
C212 C211 1.351 . S
C212 H217 0.930 . S
O213 Cu207 1.974 . S
O213 C223 1.282 . S
C214 O215 1.261 . S
C214 O227 1.251 . S
O215 C214 1.261 . S
H216 C210 0.930 1_655 S
H217 C212 0.930 . S
N218 Cu207 1.985 . S
N218 C220 1.335 . S
N218 C221 1.390 . S
N219 C220 1.345 . S
N219 C222 1.336 . S
C220 N218 1.335 . S
C220 N219 1.345 . S
C220 H225 0.930 1_655 S
C221 N218 1.390 . S
C221 C222 1.346 . S
C221 H226 0.930 . S
C222 N219 1.336 . S
C222 C221 1.346 . S
C222 H229 0.929 . S
C223 O213 1.282 . S
C223 O224 1.216 . S
O224 C223 1.216 . S
H225 C220 0.930 1_455 S
H226 C221 0.930 . S
O227 Cu207 1.959 1_455 S
O227 C214 1.251 . S
H228 C211 0.930 . S
H229 C222 0.929 . S
Cu230 N231 1.999 . S
Cu230 O236 1.974 . S
Cu230 N241 1.985 . S
Cu230 O250 1.959 . S
N231 Cu230 1.999 . S
N231 C233 1.263 . S
N231 C235 1.389 . S
N232 C233 1.358 . S
N232 C234 1.400 . S
C233 N231 1.263 . S
C233 N232 1.358 . S
C233 H239 0.930 1_655 S
C234 N232 1.400 . S
C234 C235 1.351 . S
C234 H251 0.930 . S
C235 N231 1.389 . S
C235 C234 1.351 . S
C235 H240 0.930 . S
O236 Cu230 1.974 . S
O236 C246 1.282 1_655 S
C237 O238 1.261 . S
C237 O250 1.251 . S
O238 C237 1.261 . S
H239 C233 0.930 1_455 S
H240 C235 0.930 . S
N241 Cu230 1.985 . S
N241 C243 1.335 . S
N241 C244 1.390 . S
N242 C243 1.345 . S
N242 C245 1.336 . S
C243 N241 1.335 . S
C243 N242 1.345 . S
C243 H248 0.930 . S
C244 N241 1.390 . S
C244 C245 1.346 . S
C244 H249 0.930 . S
C245 N242 1.336 . S
C245 C244 1.346 . S
C245 H252 0.929 . S
C246 O236 1.282 1_455 S
C246 O247 1.216 . S
O247 C246 1.216 . S
H248 C243 0.930 . S
H249 C244 0.930 . S
O250 Cu230 1.959 . S
O250 C237 1.251 . S
H251 C234 0.930 . S
H252 C245 0.929 . S
Cu253 N254 1.999 . S
Cu253 O259 1.974 . S
Cu253 N264 1.985 . S
Cu253 O273 1.959 . S
N254 Cu253 1.999 . S
N254 C256 1.263 . S
N254 C258 1.389 . S
N255 C256 1.358 . S
N255 C257 1.400 . S
C256 N254 1.263 . S
C256 N255 1.358 . S
C256 H262 0.930 . S
C257 N255 1.400 . S
C257 C258 1.351 . S
C257 H274 0.930 . S
C258 N254 1.389 . S
C258 C257 1.351 . S
C258 H263 0.930 . S
O259 Cu253 1.974 . S
O259 C269 1.282 . S
C260 O261 1.261 . S
C260 O273 1.251 . S
O261 C260 1.261 . S
H262 C256 0.930 . S
H263 C258 0.930 . S
N264 Cu253 1.985 . S
N264 C266 1.335 . S
N264 C267 1.390 . S
N265 C266 1.345 . S
N265 C268 1.336 . S
C266 N264 1.335 . S
C266 N265 1.345 . S
C266 H271 0.930 1_556 S
C267 N264 1.390 . S
C267 C268 1.346 . S
C267 H272 0.930 . S
C268 N265 1.336 . S
C268 C267 1.346 . S
C268 H275 0.929 . S
C269 O259 1.282 . S
C269 O270 1.216 . S
O270 C269 1.216 . S
H271 C266 0.930 1_554 S
H272 C267 0.930 . S
O273 Cu253 1.959 . S
O273 C260 1.251 . S
H274 C257 0.930 . S
H275 C268 0.929 . S
C276 C277 1.387 . S
C276 H280 0.950 . S
C276 C285 1.390 . S
C277 C276 1.387 . S
C277 C279 1.387 . S
H278 C285 0.950 . S
C279 C277 1.387 . S
C279 C281 1.390 . S
C279 H283 0.950 . S
H280 C276 0.950 . S
C281 C279 1.390 . S
C281 C282 1.387 . S
C281 H284 0.950 . S
C282 C281 1.387 . S
C282 C285 1.387 . S
H283 C279 0.950 . S
H284 C281 0.950 . S
C285 C276 1.390 . S
C285 H278 0.950 . S
C285 C282 1.387 . S
C286 C287 1.387 . S
C286 H290 0.950 . S
C286 C295 1.390 . S
C287 C286 1.387 . S
C287 C289 1.387 . S
H288 C295 0.950 . S
C289 C287 1.387 . S
C289 C291 1.390 . S
C289 H293 0.950 . S
H290 C286 0.950 . S
C291 C289 1.390 . S
C291 C292 1.387 . S
C291 H294 0.950 . S
C292 C291 1.387 . S
C292 C295 1.387 . S
H293 C289 0.950 . S
H294 C291 0.950 . S
C295 C286 1.390 . S
C295 H288 0.950 . S
C295 C292 1.387 . S
C296 C297 1.387 . S
C296 H300 0.950 . S
C296 C305 1.390 . S
C297 C296 1.387 . S
C297 C299 1.387 . S
H298 C305 0.950 . S
C299 C297 1.387 . S
C299 C301 1.390 . S
C299 H303 0.950 . S
H300 C296 0.950 . S
C301 C299 1.390 . S
C301 C302 1.387 . S
C301 H304 0.950 . S
C302 C301 1.387 . S
C302 C305 1.387 . S
H303 C299 0.950 . S
H304 C301 0.950 . S
C305 C296 1.390 . S
C305 H298 0.950 . S
C305 C302 1.387 . S
C306 C307 1.387 . S
C306 H310 0.950 . S
C306 C315 1.390 . S
C307 C306 1.387 . S
C307 C309 1.387 1_556 S
H308 C315 0.950 . S
C309 C307 1.387 1_554 S
C309 C311 1.390 . S
C309 H313 0.950 . S
H310 C306 0.950 . S
C311 C309 1.390 . S
C311 C312 1.387 1_554 S
C311 H314 0.950 . S
C312 C311 1.387 1_556 S
C312 C315 1.387 . S
H313 C309 0.950 . S
H314 C311 0.950 . S
C315 C306 1.390 . S
C315 H308 0.950 . S
C315 C312 1.387 . S
C316 C317 1.387 . S
C316 H320 0.950 . S
C316 C325 1.390 . S
C317 C316 1.387 . S
C317 C319 1.387 . S
H318 C325 0.950 . S
C319 C317 1.387 . S
C319 C321 1.390 . S
C319 H323 0.950 . S
H320 C316 0.950 . S
C321 C319 1.390 . S
C321 C322 1.387 . S
C321 H324 0.950 . S
C322 C321 1.387 . S
C322 C325 1.387 . S
H323 C319 0.950 . S
H324 C321 0.950 . S
C325 C316 1.390 . S
C325 H318 0.950 . S
C325 C322 1.387 . S
C326 C327 1.387 . S
C326 H330 0.950 . S
C326 C335 1.390 . S
C327 C326 1.387 . S
C327 C329 1.387 . S
H328 C335 0.950 . S
C329 C327 1.387 . S
C329 C331 1.390 . S
C329 H333 0.950 . S
H330 C326 0.950 . S
C331 C329 1.390 . S
C331 C332 1.387 . S
C331 H334 0.950 1_565 S
C332 C331 1.387 . S
C332 C335 1.387 . S
H333 C329 0.950 . S
H334 C331 0.950 1_545 S
C335 C326 1.390 . S
C335 H328 0.950 . S
C335 C332 1.387 . S
C336 C337 1.387 . S
C336 H340 0.950 . S
C336 C345 1.390 . S
C337 C336 1.387 . S
C337 C339 1.387 . S
H338 C345 0.950 . S
C339 C337 1.387 . S
C339 C341 1.390 . S
C339 H343 0.950 . S
H340 C336 0.950 . S
C341 C339 1.390 . S
C341 C342 1.387 . S
C341 H344 0.950 . S
C342 C341 1.387 . S
C342 C345 1.387 . S
H343 C339 0.950 . S
H344 C341 0.950 . S
C345 C336 1.390 . S
C345 H338 0.950 . S
C345 C342 1.387 . S
C346 C347 1.387 . S
C346 H350 0.950 . S
C346 C355 1.390 . S
C347 C346 1.387 . S
C347 C349 1.387 . S
H348 C355 0.950 . S
C349 C347 1.387 . S
C349 C351 1.390 . S
C349 H353 0.950 . S
H350 C346 0.950 . S
C351 C349 1.390 . S
C351 C352 1.387 . S
C351 H354 0.950 . S
C352 C351 1.387 . S
C352 C355 1.387 . S
H353 C349 0.950 . S
H354 C351 0.950 . S
C355 C346 1.390 . S
C355 H348 0.950 . S
C355 C352 1.387 . S
C356 C357 1.387 . S
C356 H360 0.950 . S
C356 C365 1.390 . S
C357 C356 1.387 . S
C357 C359 1.387 . S
H358 C365 0.950 . S
C359 C357 1.387 . S
C359 C361 1.390 . S
C359 H363 0.950 . S
H360 C356 0.950 . S
C361 C359 1.390 . S
C361 C362 1.387 . S
C361 H364 0.950 . S
C362 C361 1.387 . S
C362 C365 1.387 . S
H363 C359 0.950 . S
H364 C361 0.950 . S
C365 C356 1.390 . S
C365 H358 0.950 . S
C365 C362 1.387 . S
C366 C367 1.387 . S
C366 H370 0.950 . S
C366 C375 1.390 . S
C367 C366 1.387 . S
C367 C369 1.387 1_545 S
H368 C375 0.950 . S
C369 C367 1.387 1_565 S
C369 C371 1.390 . S
C369 H373 0.950 . S
H370 C366 0.950 . S
C371 C369 1.390 . S
C371 C372 1.387 . S
C371 H374 0.950 . S
C372 C371 1.387 . S
C372 C375 1.387 1_565 S
H373 C369 0.950 . S
H374 C371 0.950 . S
C375 C366 1.390 . S
C375 H368 0.950 . S
C375 C372 1.387 1_545 S
C376 C377 1.387 . S
C376 H380 0.950 . S
C376 C385 1.390 . S
C377 C376 1.387 . S
C377 C379 1.387 . S
H378 C385 0.950 . S
C379 C377 1.387 . S
C379 C381 1.390 . S
C379 H383 0.950 . S
H380 C376 0.950 . S
C381 C379 1.390 . S
C381 C382 1.387 . S
C381 H384 0.950 . S
C382 C381 1.387 . S
C382 C385 1.387 . S
H383 C379 0.950 . S
H384 C381 0.950 . S
C385 C376 1.390 . S
C385 H378 0.950 . S
C385 C382 1.387 . S
C386 C387 1.387 . S
C386 H390 0.950 . S
C386 C395 1.390 . S
C387 C386 1.387 . S
C387 C389 1.387 . S
H388 C395 0.950 . S
C389 C387 1.387 . S
C389 C391 1.390 . S
C389 H393 0.950 . S
H390 C386 0.950 . S
C391 C389 1.390 . S
C391 C392 1.387 . S
C391 H394 0.950 . S
C392 C391 1.387 . S
C392 C395 1.387 . S
H393 C389 0.950 . S
H394 C391 0.950 . S
C395 C386 1.390 . S
C395 H388 0.950 . S
C395 C392 1.387 . S
C396 C397 1.387 . S
C396 H400 0.950 . S
C396 C405 1.390 . S
C397 C396 1.387 . S
C397 C399 1.387 . S
H398 C405 0.950 . S
C399 C397 1.387 . S
C399 C401 1.390 . S
C399 H403 0.950 . S
H400 C396 0.950 . S
C401 C399 1.390 . S
C401 C402 1.387 . S
C401 H404 0.950 . S
C402 C401 1.387 . S
C402 C405 1.387 . S
H403 C399 0.950 . S
H404 C401 0.950 . S
C405 C396 1.390 . S
C405 H398 0.950 . S
C405 C402 1.387 . S
C406 C407 1.387 . S
C406 H410 0.950 . S
C406 C415 1.390 . S
C407 C406 1.387 . S
C407 C409 1.387 1_455 S
H408 C415 0.950 . S
C409 C407 1.387 1_655 S
C409 C411 1.390 . S
C409 H413 0.950 . S
H410 C406 0.950 . S
C411 C409 1.390 . S
C411 C412 1.387 1_655 S
C411 H414 0.950 . S
C412 C411 1.387 1_455 S
C412 C415 1.387 . S
H413 C409 0.950 . S
H414 C411 0.950 . S
C415 C406 1.390 . S
C415 H408 0.950 . S
C415 C412 1.387 . S
C416 C417 1.387 . S
C416 H420 0.950 . S
C416 C425 1.390 . S
C417 C416 1.387 . S
C417 C419 1.387 . S
H418 C425 0.950 . S
C419 C417 1.387 . S
C419 C421 1.390 . S
C419 H423 0.950 . S
H420 C416 0.950 . S
C421 C419 1.390 . S
C421 C422 1.387 . S
C421 H424 0.950 . S
C422 C421 1.387 . S
C422 C425 1.387 . S
H423 C419 0.950 . S
H424 C421 0.950 . S
C425 C416 1.390 . S
C425 H418 0.950 . S
C425 C422 1.387 . S
C426 C427 1.387 . S
C426 H430 0.950 . S
C426 C435 1.390 . S
C427 C426 1.387 . S
C427 C429 1.387 . S
H428 C435 0.950 . S
C429 C427 1.387 . S
C429 C431 1.390 . S
C429 H433 0.950 . S
H430 C426 0.950 . S
C431 C429 1.390 . S
C431 C432 1.387 . S
C431 H434 0.950 . S
C432 C431 1.387 . S
C432 C435 1.387 . S
H433 C429 0.950 . S
H434 C431 0.950 . S
C435 C426 1.390 . S
C435 H428 0.950 . S
C435 C432 1.387 . S
C436 C437 1.387 . S
C436 H440 0.950 . S
C436 C445 1.390 . S
C437 C436 1.387 . S
C437 C439 1.387 . S
H438 C445 0.950 . S
C439 C437 1.387 . S
C439 C441 1.390 . S
C439 H443 0.923 1_556 S
H440 C436 0.950 . S
C441 C439 1.390 . S
C441 C442 1.387 . S
C441 H444 0.950 . S
C442 C441 1.387 . S
C442 C445 1.387 . S
H443 C439 0.923 1_554 S
H444 C441 0.950 . S
C445 C436 1.390 . S
C445 H438 0.950 . S
C445 C442 1.387 . S
C446 C447 1.387 . S
C446 H450 0.950 . S
C446 C455 1.390 . S
C447 C446 1.387 . S
C447 C449 1.387 . S
H448 C455 0.950 . S
C449 C447 1.387 . S
C449 C451 1.390 . S
C449 H453 0.950 . S
H450 C446 0.950 . S
C451 C449 1.390 . S
C451 C452 1.387 . S
C451 H454 0.950 . S
C452 C451 1.387 . S
C452 C455 1.387 . S
H453 C449 0.950 . S
H454 C451 0.950 . S
C455 C446 1.390 . S
C455 H448 0.950 . S
C455 C452 1.387 . S
C456 C457 1.387 . S
C456 H460 0.950 . S
C456 C465 1.390 . S
C457 C456 1.387 . S
C457 C459 1.387 . S
H458 C465 0.950 . S
C459 C457 1.387 . S
C459 C461 1.390 . S
C459 H463 0.950 . S
H460 C456 0.950 . S
C461 C459 1.390 . S
C461 C462 1.387 . S
C461 H464 0.950 . S
C462 C461 1.387 . S
C462 C465 1.387 . S
H463 C459 0.950 . S
H464 C461 0.950 . S
C465 C456 1.390 . S
C465 H458 0.950 . S
C465 C462 1.387 . S
C466 C467 1.387 . S
C466 H470 0.950 . S
C466 C475 1.390 . S
C467 C466 1.387 . S
C467 C469 1.387 . S
H468 C475 0.950 . S
C469 C467 1.387 . S
C469 C471 1.390 . S
C469 H473 0.950 . S
H470 C466 0.950 . S
C471 C469 1.390 . S
C471 C472 1.387 . S
C471 H474 0.950 . S
C472 C471 1.387 . S
C472 C475 1.387 . S
H473 C469 0.950 . S
H474 C471 0.950 . S
C475 C466 1.390 . S
C475 H468 0.950 . S
C475 C472 1.387 . S
C476 C477 1.387 . S
C476 H480 0.950 . S
C476 C485 1.390 . S
C477 C476 1.387 . S
C477 C479 1.387 . S
H478 C485 0.950 . S
C479 C477 1.387 . S
C479 C481 1.390 . S
C479 H483 0.950 . S
H480 C476 0.950 . S
C481 C479 1.390 . S
C481 C482 1.387 . S
C481 H484 0.950 . S
C482 C481 1.387 . S
C482 C485 1.387 . S
H483 C479 0.950 . S
H484 C481 0.950 . S
C485 C476 1.390 . S
C485 H478 0.950 . S
C485 C482 1.387 . S
C486 C487 1.387 . S
C486 H490 0.950 . S
C486 C495 1.390 . S
C487 C486 1.387 . S
C487 C489 1.387 . S
H488 C495 0.950 . S
C489 C487 1.387 . S
C489 C491 1.390 . S
C489 H493 0.950 . S
H490 C486 0.950 . S
C491 C489 1.390 . S
C491 C492 1.387 . S
C491 H494 0.950 . S
C492 C491 1.387 . S
C492 C495 1.387 . S
H493 C489 0.950 . S
H494 C491 0.950 . S
C495 C486 1.390 . S
C495 H488 0.950 . S
C495 C492 1.387 . S
C496 C497 1.387 . S
C496 H500 0.950 . S
C496 C505 1.390 . S
C497 C496 1.387 . S
C497 C499 1.387 . S
H498 C505 0.950 . S
C499 C497 1.387 . S
C499 C501 1.390 . S
C499 H503 0.950 . S
H500 C496 0.950 . S
C501 C499 1.390 . S
C501 C502 1.387 . S
C501 H504 0.950 . S
C502 C501 1.387 . S
C502 C505 1.387 . S
H503 C499 0.950 . S
H504 C501 0.950 . S
C505 C496 1.390 . S
C505 H498 0.950 . S
C505 C502 1.387 . S
C506 C507 1.387 . S
C506 H510 0.950 . S
C506 C515 1.390 . S
C507 C506 1.387 . S
C507 C509 1.387 . S
H508 C515 0.950 . S
C509 C507 1.387 . S
C509 C511 1.390 . S
C509 H513 0.950 . S
H510 C506 0.950 . S
C511 C509 1.390 . S
C511 C512 1.387 . S
C511 H514 0.950 . S
C512 C511 1.387 . S
C512 C515 1.387 . S
H513 C509 0.950 . S
H514 C511 0.950 . S
C515 C506 1.390 . S
C515 H508 0.950 . S
C515 C512 1.387 . S
C277 N2 1.515 . S
C282 N94 1.315 . S
C287 C131 1.709 . S
C292 C39 1.884 . S
C297 N140 1.410 . S
C302 C53 1.646 1_545 S
C307 N81 1.771 1_556 S
C312 C177 1.535 . S
C317 C99 1.746 . S
C322 N25 1.476 . S
C327 N127 1.707 . S
C332 N58 1.609 . S
C337 C76 1.764 . S
C342 C145 1.902 . S
C347 N173 1.671 . S
C352 C16 1.468 . S
C357 C108 1.736 . S
C362 C168 1.648 . S
C367 N117 1.563 . S
C372 N104 1.588 . S
C377 C154 1.835 . S
C382 C122 1.746 . S
C387 N150 1.604 . S
C392 N163 1.613 . S
C397 C200 1.785 . S
C402 C85 1.599 . S
C407 N209 1.670 . S
C412 C7 1.627 . S
C417 C246 1.764 . S
C422 N35 1.745 . S
C427 C214 1.777 . S
C432 C30 1.909 . S
C437 C260 1.658 . S
C442 N71 1.707 . S
C447 N48 1.373 . S
C452 N255 1.536 . S
C457 N12 1.526 . S
C462 N196 1.434 . S
C467 N242 1.585 . S
C472 C62 1.641 . S
C477 C269 1.619 . S
C482 C237 1.816 . S
C487 N265 1.633 1_554 S
C492 N186 1.365 . S
C497 C191 1.855 . S
C502 C223 1.638 . S
C507 N219 1.745 . S
C512 N232 1.472 . S
