# Generated by pormake.
# Topology tfs, (6)-cn, num edge types: 1
# Building blocks:
#     Node 0, Type 0, BuildingBlock: BETDIP_clean_sbu_0, # of connection points: 6
#     Node 1, Type 0, BuildingBlock: BETDIP_clean_sbu_0, # of connection points: 6
#     Node 2, Type 0, BuildingBlock: BETDIP_clean_sbu_0, # of connection points: 6
#     Node 3, Type 0, BuildingBlock: BETDIP_clean_sbu_0, # of connection points: 6
#     Node 4, Type 0, BuildingBlock: BETDIP_clean_sbu_0, # of connection points: 6
#     Node 5, Type 0, BuildingBlock: BETDIP_clean_sbu_0, # of connection points: 6
#     Edge 6, Type (0, 0), BuildingBlock: UVAHIK_clean_linker_0, # of connection points: 2
#     Edge 7, Type (0, 0), BuildingBlock: UVAHIK_clean_linker_0, # of connection points: 2
#     Edge 8, Type (0, 0), BuildingBlock: UVAHIK_clean_linker_0, # of connection points: 2
#     Edge 9, Type (0, 0), BuildingBlock: UVAHIK_clean_linker_0, # of connection points: 2
#     Edge 10, Type (0, 0), BuildingBlock: UVAHIK_clean_linker_0, # of connection points: 2
#     Edge 11, Type (0, 0), BuildingBlock: UVAHIK_clean_linker_0, # of connection points: 2
#     Edge 12, Type (0, 0), BuildingBlock: UVAHIK_clean_linker_0, # of connection points: 2
#     Edge 13, Type (0, 0), BuildingBlock: UVAHIK_clean_linker_0, # of connection points: 2
#     Edge 14, Type (0, 0), BuildingBlock: UVAHIK_clean_linker_0, # of connection points: 2
#     Edge 15, Type (0, 0), BuildingBlock: UVAHIK_clean_linker_0, # of connection points: 2
#     Edge 16, Type (0, 0), BuildingBlock: UVAHIK_clean_linker_0, # of connection points: 2
#     Edge 17, Type (0, 0), BuildingBlock: UVAHIK_clean_linker_0, # of connection points: 2
#     Edge 18, Type (0, 0), BuildingBlock: UVAHIK_clean_linker_0, # of connection points: 2
#     Edge 19, Type (0, 0), BuildingBlock: UVAHIK_clean_linker_0, # of connection points: 2
#     Edge 20, Type (0, 0), BuildingBlock: UVAHIK_clean_linker_0, # of connection points: 2
#     Edge 21, Type (0, 0), BuildingBlock: UVAHIK_clean_linker_0, # of connection points: 2
#     Edge 22, Type (0, 0), BuildingBlock: UVAHIK_clean_linker_0, # of connection points: 2
#     Edge 23, Type (0, 0), BuildingBlock: UVAHIK_clean_linker_0, # of connection points: 2
# Relax obj value: 0.556
# Max RMSD: 0.297
# Mean RMSD: 0.297
data_MOF--net-tfs--node1-BETDIP_clean_sbu_0--edge1-UVAHIK_clean_linker_0
_symmetry_space_group_name_H-M    P1
_symmetry_Int_Tables_number       1
_symmetry_cell_setting            triclinic
loop_
_symmetry_equiv_pos_as_xyz
'x, y, z'
_cell_length_a     66.642771
_cell_length_b     66.650646
_cell_length_c     18.77317
_cell_angle_alpha  89.948781
_cell_angle_beta   90.049255
_cell_angle_gamma 120.00187
loop_
_atom_site_label
_atom_site_type_symbol
_atom_site_fract_x
_atom_site_fract_y
_atom_site_fract_z
_atom_type_partial_charge
Tb0 Tb 0.19395 0.43382 0.03151 0.0
Tb1 Tb 0.21657 0.40631 0.99156 0.0
C2 C 0.18178 0.46032 0.0877 0.0
C3 C 0.1864 0.48418 0.07724 0.0
C4 C 0.1884 0.49767 0.13687 0.0
C5 C 0.19154 0.51991 0.12846 0.0
C6 C 0.1926 0.52907 0.06004 0.0
C7 C 0.19109 0.51563 1.00027 0.0
C8 C 0.1881 0.49344 0.00877 0.0
C9 C 0.19468 0.4264 0.89285 0.0
C10 C 0.24808 0.45983 1.00429 0.0
C11 C 0.23002 0.38121 0.93174 0.0
C12 C 0.23076 0.35974 0.94308 0.0
C13 C 0.2358 0.34979 0.88513 0.0
C14 C 0.24028 0.33163 0.89564 0.0
C15 C 0.23986 0.32308 0.96454 0.0
C16 C 0.23367 0.33241 0.02221 0.0
C17 C 0.22918 0.35061 0.01157 0.0
C18 C 0.21577 0.41332 0.13053 0.0
C19 C 0.16224 0.38087 0.02072 0.0
O20 O 0.19904 0.45807 0.11127 0.0
O21 O 0.17009 0.44544 0.03735 0.0
O22 O 0.2104 0.43059 0.93707 0.0
O23 O 0.17874 0.42871 0.92438 0.0
O24 O 0.23078 0.45982 0.03864 0.0
O25 O 0.24483 0.4413 0.96871 0.0
O26 O 0.20985 0.37939 0.91946 0.0
O27 O 0.24272 0.39826 0.975 0.0
O28 O 0.20029 0.40956 0.08593 0.0
O29 O 0.23118 0.41008 0.09931 0.0
O30 O 0.17907 0.38061 0.98368 0.0
O31 O 0.16619 0.39939 0.05747 0.0
H32 H 0.18728 0.49091 0.19013 0.0
H33 H 0.19313 0.52991 0.1757 0.0
H34 H 0.19164 0.522 0.94682 0.0
H35 H 0.18673 0.48338 0.96183 0.0
H36 H 0.23727 0.35674 0.83196 0.0
H37 H 0.24525 0.32512 0.85011 0.0
H38 H 0.23286 0.32603 0.07581 0.0
H39 H 0.22531 0.35809 0.05705 0.0
Tb40 Tb 0.76064 0.19281 0.02988 0.0
Tb41 Tb 0.81076 0.21538 0.98977 0.0
C42 C 0.72189 0.18092 0.08517 0.0
C43 C 0.70289 0.18577 0.07245 0.0
C44 C 0.69108 0.18814 0.13066 0.0
C45 C 0.67245 0.1919 0.11983 0.0
C46 C 0.6652 0.19322 0.05045 0.0
C47 C 0.67729 0.19115 0.99216 0.0
C48 C 0.69605 0.18759 1.00303 0.0
C49 C 0.76879 0.19357 0.89119 0.0
C50 C 0.7889 0.24694 1.00298 0.0
C51 C 0.84919 0.22878 0.92912 0.0
C52 C 0.87142 0.22953 0.93963 0.0
C53 C 0.88745 0.23742 0.88368 0.0
C54 C 0.9101 0.24206 0.89496 0.0
C55 C 0.9172 0.2389 0.96265 0.0
C56 C 0.90064 0.22979 0.01779 0.0
C57 C 0.87794 0.2252 1.00641 0.0
C58 C 0.80301 0.21465 0.12877 0.0
C59 C 0.78187 0.16108 0.01967 0.0
O60 O 0.7414 0.19821 0.10861 0.0
O61 O 0.72516 0.16892 0.03612 0.0
O62 O 0.78031 0.20926 0.93538 0.0
O63 O 0.75054 0.17762 0.92276 0.0
O64 O 0.77165 0.22966 0.03751 0.0
O65 O 0.80408 0.24365 0.96702 0.0
O66 O 0.8308 0.20861 0.91721 0.0
O67 O 0.84499 0.24144 0.97296 0.0
O68 O 0.79125 0.19916 0.08432 0.0
O69 O 0.82167 0.23001 0.09741 0.0
O70 O 0.79896 0.17788 0.98249 0.0
O71 O 0.76728 0.16504 0.05627 0.0
H72 H 0.6961 0.1868 0.18459 0.0
H73 H 0.66338 0.19324 0.16579 0.0
H74 H 0.6723 0.19239 0.93812 0.0
H75 H 0.70505 0.18606 0.95719 0.0
H76 H 0.88275 0.24104 0.83192 0.0
H77 H 0.92235 0.24935 0.85148 0.0
H78 H 0.90539 0.22682 0.07029 0.0
H79 H 0.86576 0.21913 0.05033 0.0
Tb80 Tb 0.56935 0.76053 0.01837 0.0
Tb81 Tb 0.59627 0.81063 0.97796 0.0
C82 C 0.54298 0.72185 0.07494 0.0
C83 C 0.51898 0.70289 0.06449 0.0
C84 C 0.50544 0.69127 0.12403 0.0
C85 C 0.48294 0.67264 0.11536 0.0
C86 C 0.47361 0.66519 0.04685 0.0
C87 C 0.48711 0.67708 0.98722 0.0
C88 C 0.50955 0.69585 0.99595 0.0
C89 C 0.57648 0.76862 0.87962 0.0
C90 C 0.5428 0.78817 0.99082 0.0
C91 C 0.62108 0.84919 0.91782 0.0
C92 C 0.64255 0.87133 0.92938 0.0
C93 C 0.65069 0.88782 0.87469 0.0
C94 C 0.66883 0.91031 0.88723 0.0
C95 C 0.67921 0.91676 0.95494 0.0
C96 C 0.67173 0.89974 0.00873 0.0
C97 C 0.6535 0.87721 0.99608 0.0
C98 C 0.58959 0.80282 0.11705 0.0
C99 C 0.62231 0.78225 1.00568 0.0
O100 O 0.54553 0.74139 0.0992 0.0
O101 O 0.55767 0.72502 0.024 0.0
O102 O 0.57216 0.78003 0.92382 0.0
O103 O 0.57446 0.75048 0.91126 0.0
O104 O 0.54303 0.77099 0.02533 0.0
O105 O 0.56122 0.80353 0.95506 0.0
O106 O 0.62293 0.83088 0.9053 0.0
O107 O 0.60415 0.84481 0.96161 0.0
O108 O 0.5935 0.79124 0.07243 0.0
O109 O 0.59242 0.82132 0.08572 0.0
O110 O 0.62219 0.79926 0.96929 0.0
O111 O 0.604 0.7674 0.04274 0.0
H112 H 0.5124 0.69644 0.17731 0.0
H113 H 0.47304 0.66371 0.16229 0.0
H114 H 0.48028 0.67192 0.93383 0.0
H115 H 0.51959 0.7047 0.94912 0.0
H116 H 0.6423 0.88361 0.82302 0.0
H117 H 0.67382 0.92294 0.84481 0.0
H118 H 0.67953 0.904 0.06119 0.0
H119 H 0.64739 0.86465 0.03901 0.0
Tb120 Tb 0.81021 0.56802 0.02582 0.0
Tb121 Tb 0.78697 0.59481 0.98579 0.0
C122 C 0.82274 0.54189 0.08278 0.0
C123 C 0.81795 0.51801 0.07184 0.0
C124 C 0.81657 0.50454 0.13098 0.0
C125 C 0.81277 0.48209 0.12173 0.0
C126 C 0.81041 0.47276 0.05302 0.0
C127 C 0.81151 0.48622 0.99381 0.0
C128 C 0.81511 0.5086 1.00314 0.0
C129 C 0.80957 0.57539 0.88702 0.0
C130 C 0.75612 0.54129 0.99683 0.0
C131 C 0.77342 0.62036 0.92933 0.0
C132 C 0.76958 0.63977 0.94815 0.0
C133 C 0.78356 0.66177 0.9179 0.0
C134 C 0.77846 0.67953 0.92867 0.0
C135 C 0.75912 0.67563 0.96947 0.0
C136 C 0.74551 0.65375 1.00119 0.0
C137 C 0.75067 0.63607 0.99074 0.0
C138 C 0.78803 0.58802 0.1249 0.0
C139 C 0.8413 0.62055 0.01009 0.0
O140 O 0.80551 0.54414 0.10647 0.0
O141 O 0.83434 0.55674 0.03227 0.0
O142 O 0.79375 0.57102 0.93091 0.0
O143 O 0.82556 0.5732 0.91889 0.0
O144 O 0.77346 0.54153 0.03178 0.0
O145 O 0.75921 0.5598 0.96145 0.0
O146 O 0.7948 0.62464 0.92592 0.0
O147 O 0.75967 0.60031 0.95867 0.0
O148 O 0.80354 0.59203 0.08031 0.0
O149 O 0.77238 0.59086 0.0936 0.0
O150 O 0.82428 0.6198 0.97146 0.0
O151 O 0.83768 0.60276 0.05012 0.0
H152 H 0.81869 0.51149 0.18437 0.0
H153 H 0.81219 0.47221 0.16832 0.0
H154 H 0.80947 0.47938 0.94032 0.0
H155 H 0.81586 0.5186 0.95666 0.0
H156 H 0.79813 0.66508 0.8844 0.0
H157 H 0.7895 0.69623 0.90417 0.0
H158 H 0.73025 0.6499 0.03191 0.0
H159 H 0.73936 0.61928 0.01438 0.0
Tb160 Tb 0.24341 0.80941 0.03871 0.0
Tb161 Tb 0.19342 0.78721 0.99854 0.0
C162 C 0.28197 0.82137 0.09563 0.0
C163 C 0.30101 0.81665 0.08354 0.0
C164 C 0.31585 0.81914 0.13991 0.0
C165 C 0.33468 0.81575 0.12874 0.0
C166 C 0.33909 0.80992 0.06075 0.0
C167 C 0.32382 0.80698 1.00463 0.0
C168 C 0.3049 0.81024 0.016 0.0
C169 C 0.23548 0.80906 0.89986 0.0
C170 C 0.21506 0.75538 0.01033 0.0
C171 C 0.15466 0.77454 0.94091 0.0
C172 C 0.13141 0.77085 0.95881 0.0
C173 C 0.12308 0.7839 0.92405 0.0
C174 C 0.10012 0.77868 0.93345 0.0
C175 C 0.08492 0.76013 0.97737 0.0
C176 C 0.09356 0.74758 0.01387 0.0
C177 C 0.11651 0.75289 1.00484 0.0
C178 C 0.20107 0.78782 0.13767 0.0
C179 C 0.22295 0.84141 0.02483 0.0
O180 O 0.26242 0.80392 0.1181 0.0
O181 O 0.27886 0.83332 0.04596 0.0
O182 O 0.22379 0.79333 0.94378 0.0
O183 O 0.25384 0.82475 0.93171 0.0
O184 O 0.23239 0.77253 0.04504 0.0
O185 O 0.19986 0.75883 0.97496 0.0
O186 O 0.17194 0.79585 0.93896 0.0
O187 O 0.16057 0.76042 0.96976 0.0
O188 O 0.21289 0.80326 0.09321 0.0
O189 O 0.18235 0.77261 0.10626 0.0
O190 O 0.20653 0.8248 0.98538 0.0
O191 O 0.2367 0.8371 0.06457 0.0
H192 H 0.31299 0.82391 0.19251 0.0
H193 H 0.34577 0.8177 0.1735 0.0
H194 H 0.32677 0.80271 0.95148 0.0
H195 H 0.29353 0.80813 0.97181 0.0
H196 H 0.13415 0.79775 0.88798 0.0
H197 H 0.09421 0.78895 0.90533 0.0
H198 H 0.08236 0.73295 0.04724 0.0
H199 H 0.12228 0.74236 0.03219 0.0
Tb200 Tb 0.43448 0.24218 0.02795 0.0
Tb201 Tb 0.40694 0.1921 0.98758 0.0
C202 C 0.46107 0.28065 0.08526 0.0
C203 C 0.48514 0.29934 0.07536 0.0
C204 C 0.49711 0.31385 0.13273 0.0
C205 C 0.51957 0.33248 0.1235 0.0
C206 C 0.53046 0.33704 0.05645 0.0
C207 C 0.51853 0.32205 0.9994 0.0
C208 C 0.4961 0.30333 0.00884 0.0
C209 C 0.42725 0.23416 0.88921 0.0
C210 C 0.46046 0.214 1.00045 0.0
C211 C 0.38192 0.15372 0.92682 0.0
C212 C 0.36033 0.13162 0.93732 0.0
C213 C 0.35228 0.11541 0.88189 0.0
C214 C 0.33418 0.09283 0.89352 0.0
C215 C 0.32375 0.08601 0.96104 0.0
C216 C 0.33107 0.10278 0.01552 0.0
C217 C 0.34927 0.1254 1.0038 0.0
C218 C 0.41372 0.19983 0.12663 0.0
C219 C 0.3815 0.22113 0.01554 0.0
O220 O 0.4582 0.26095 0.10935 0.0
O221 O 0.44673 0.27779 0.03349 0.0
O222 O 0.43133 0.22257 0.9335 0.0
O223 O 0.4296 0.25244 0.92075 0.0
O224 O 0.46053 0.23135 0.03469 0.0
O225 O 0.44189 0.19872 0.96506 0.0
O226 O 0.38031 0.17218 0.91437 0.0
O227 O 0.39865 0.15783 0.97117 0.0
O228 O 0.41005 0.21159 0.08194 0.0
O229 O 0.41057 0.18121 0.09538 0.0
O230 O 0.38121 0.2038 0.97977 0.0
O231 O 0.40004 0.23592 0.05188 0.0
H232 H 0.48898 0.31091 0.18459 0.0
H233 H 0.52838 0.34334 0.16897 0.0
H234 H 0.52625 0.32512 0.94692 0.0
H235 H 0.48716 0.29222 0.96389 0.0
H236 H 0.36076 0.11988 0.83039 0.0
H237 H 0.32931 0.08042 0.85057 0.0
H238 H 0.32322 0.09823 0.06785 0.0
H239 H 0.35531 0.13773 0.04729 0.0
C240 C 0.3435 0.21398 0.96457 0.0
C241 C 0.361 0.22427 0.01637 0.0
C242 C 0.32561 0.21929 0.96167 0.0
C243 C 0.2972 0.2457 0.06611 0.0
H244 H 0.28594 0.26436 0.88164 0.0
C245 C 0.26236 0.30867 0.03415 0.0
C246 C 0.24776 0.30599 0.97642 0.0
C247 C 0.27194 0.2943 0.04134 0.0
C248 C 0.28848 0.25881 0.93343 0.0
H249 H 0.37283 0.24729 0.10774 0.0
H250 H 0.34191 0.25643 0.10269 0.0
H251 H 0.31001 0.24643 0.89004 0.0
H252 H 0.23088 0.28522 0.88294 0.0
H253 H 0.24766 0.26014 0.89548 0.0
H254 H 0.27623 0.25868 0.10978 0.0
C255 C 0.34182 0.24424 0.06438 0.0
C256 C 0.30229 0.2485 0.93821 0.0
C257 C 0.3597 0.23913 0.06689 0.0
C258 C 0.24234 0.288 0.92745 0.0
C259 C 0.25196 0.27363 0.9346 0.0
C260 C 0.28338 0.25598 0.06134 0.0
C261 C 0.32477 0.23474 0.01105 0.0
C262 C 0.30732 0.24239 1.00482 0.0
C263 C 0.2672 0.27685 0.99099 0.0
C264 C 0.27934 0.26322 0.99515 0.0
H265 H 0.34404 0.20248 0.92486 0.0
H266 H 0.31263 0.21155 0.92023 0.0
H267 H 0.30039 0.24081 0.11813 0.0
H268 H 0.26726 0.32256 0.07222 0.0
H269 H 0.28388 0.29755 0.0848 0.0
C270 C 0.12954 0.34504 0.96507 0.0
C271 C 0.13857 0.36054 0.02261 0.0
C272 C 0.10588 0.32831 0.9629 0.0
C273 C 0.05071 0.31985 0.03509 0.0
H274 H 0.02383 0.25774 0.95813 0.0
C275 C 0.95255 0.25923 0.04027 0.0
C276 C 0.9422 0.24729 0.97685 0.0
C277 C 0.97652 0.27 0.04981 0.0
C278 C 0.03111 0.27509 0.97944 0.0
H279 H 0.13047 0.36941 0.12558 0.0
H280 H 0.0897 0.34008 0.12276 0.0
H281 H 0.06606 0.28203 0.9671 0.0
H282 H 0.94897 0.23606 0.87575 0.0
H283 H 0.99091 0.25536 0.89179 0.0
H284 H 0.0161 0.31331 0.04654 0.0
C285 C 0.10051 0.34123 0.0781 0.0
C286 C 0.05528 0.289 0.98451 0.0
C287 C 0.12394 0.35798 0.07991 0.0
C288 C 0.95638 0.24541 0.92479 0.0
C289 C 0.98042 0.25628 0.93429 0.0
C290 C 0.0267 0.30603 0.03011 0.0
C291 C 0.09096 0.32675 0.01849 0.0
C292 C 0.06536 0.31152 0.01279 0.0
C293 C 0.99084 0.26926 0.9961 0.0
C294 C 0.01653 0.28345 1.00252 0.0
H295 H 0.14043 0.34668 0.9201 0.0
H296 H 0.09908 0.31744 0.91615 0.0
H297 H 0.05782 0.33732 0.0553 0.0
H298 H 0.9423 0.26125 0.08137 0.0
H299 H 0.98392 0.27949 0.09868 0.0
C300 C 0.76657 0.12283 0.07917 0.0
C301 C 0.77863 0.13747 0.02185 0.0
C302 C 0.76008 0.09945 0.07761 0.0
C303 C 0.7675 0.05448 0.98375 0.0
H304 H 0.70404 0.01493 0.04566 0.0
C305 C 0.71209 0.95605 0.91919 0.0
C306 C 0.69599 0.94157 0.97072 0.0
C307 C 0.72539 0.98 0.9302 0.0
C308 C 0.72192 0.02564 0.02929 0.0
H309 H 0.79452 0.13943 0.91958 0.0
H310 H 0.7827 0.09818 0.91595 0.0
H311 H 0.72159 0.05659 0.05552 0.0
H312 H 0.68222 0.94098 0.07592 0.0
H313 H 0.70578 0.98246 0.09579 0.0
H314 H 0.76742 0.02318 0.95608 0.0
C315 C 0.77851 0.10491 0.96259 0.0
C316 C 0.73203 0.04962 0.03493 0.0
C317 C 0.78526 0.12852 0.96455 0.0
C318 C 0.69451 0.95148 0.03518 0.0
C319 C 0.70782 0.97537 0.04622 0.0
C320 C 0.75731 0.03034 0.97797 0.0
C321 C 0.76518 0.08997 0.0182 0.0
C322 C 0.75496 0.06439 0.01253 0.0
C323 C 0.72289 0.99001 0.99302 0.0
C324 C 0.73439 0.01564 1.00089 0.0
H325 H 0.76154 0.12931 0.12467 0.0
H326 H 0.75044 0.08862 0.12229 0.0
H327 H 0.78523 0.06536 0.96632 0.0
H328 H 0.71395 0.94897 0.86937 0.0
H329 H 0.7368 0.99076 0.88807 0.0
C330 C 0.75391 0.70751 0.91679 0.0
C331 C 0.7522 0.69365 0.97567 0.0
C332 C 0.74519 0.72271 0.92033 0.0
C333 C 0.72231 0.74987 0.04675 0.0
H334 H 0.68691 0.74947 0.88216 0.0
C335 C 0.64594 0.76682 0.06063 0.0
C336 C 0.64297 0.77947 1.0058 0.0
C337 C 0.66379 0.76166 0.05746 0.0
C338 C 0.69708 0.75015 0.92809 0.0
H339 H 0.7411 0.68603 0.08583 0.0
H340 H 0.72514 0.71173 0.09114 0.0
H341 H 0.70983 0.73035 0.87553 0.0
H342 H 0.65685 0.79733 0.9058 0.0
H343 H 0.68799 0.7879 0.89959 0.0
H344 H 0.70843 0.76867 0.10025 0.0
C345 C 0.7335 0.71116 0.04238 0.0
C346 C 0.71028 0.7392 0.92435 0.0
C347 C 0.74237 0.69611 0.03902 0.0
C348 C 0.65878 0.78761 0.9489 0.0
C349 C 0.67649 0.78211 0.94516 0.0
C350 C 0.70891 0.76063 0.05066 0.0
C351 C 0.73439 0.72436 0.98266 0.0
C352 C 0.72267 0.73845 0.98415 0.0
C353 C 0.67893 0.76876 0.99893 0.0
C354 C 0.69576 0.76044 0.99184 0.0
H355 H 0.76119 0.706 0.8669 0.0
H356 H 0.74654 0.73286 0.87363 0.0
H357 H 0.73201 0.75012 0.09336 0.0
H358 H 0.6341 0.7604 0.10537 0.0
H359 H 0.66506 0.75115 0.09935 0.0
C360 C 0.04766 0.75315 0.92089 0.0
C361 C 0.05982 0.75282 0.98178 0.0
C362 C 0.02365 0.74401 0.92312 0.0
C363 C 0.97314 0.72218 0.04763 0.0
H364 H 0.93915 0.68398 0.88612 0.0
C365 C 0.8803 0.64495 0.06457 0.0
C366 C 0.86476 0.64116 0.00867 0.0
C367 C 0.90326 0.66289 0.06075 0.0
C368 C 0.94836 0.69492 0.9311 0.0
H369 H 0.05625 0.74375 0.09391 0.0
H370 H 0.01447 0.72699 0.09707 0.0
H371 H 0.98117 0.70747 0.88038 0.0
H372 H 0.86088 0.65364 0.90585 0.0
H373 H 0.90139 0.6849 0.8985 0.0
H374 H 0.94021 0.70849 0.09952 0.0
C375 C 0.02344 0.73462 0.04768 0.0
C376 C 0.9725 0.70845 0.92787 0.0
C377 C 0.04745 0.74394 0.04561 0.0
C378 C 0.87247 0.6562 0.94979 0.0
C379 C 0.89563 0.67398 0.94543 0.0
C380 C 0.94901 0.70843 0.0511 0.0
C381 C 0.01113 0.73411 0.98611 0.0
C382 C 0.98528 0.7219 0.98667 0.0
C383 C 0.91132 0.67728 1.00051 0.0
C384 C 0.93642 0.6943 0.9934 0.0
H385 H 0.05649 0.75965 0.87057 0.0
H386 H 0.01486 0.74431 0.87494 0.0
H387 H 0.9823 0.73268 0.09335 0.0
H388 H 0.87484 0.63371 0.11082 0.0
H389 H 0.91497 0.66484 0.1037 0.0
C390 C 0.23848 0.87996 0.08242 0.0
C391 C 0.22652 0.86516 0.02531 0.0
C392 C 0.24494 0.90333 0.08002 0.0
C393 C 0.23707 0.94784 0.98526 0.0
H394 H 0.30033 0.98798 0.04807 0.0
C395 C 0.29126 0.04666 0.9239 0.0
C396 C 0.30717 0.06108 0.97595 0.0
C397 C 0.27827 0.02265 0.93397 0.0
C398 C 0.28251 0.9771 0.03142 0.0
H399 H 0.21082 0.86295 0.92238 0.0
H400 H 0.22257 0.90418 0.91738 0.0
H401 H 0.2833 0.94634 0.05727 0.0
H402 H 0.3209 0.06143 0.08113 0.0
H403 H 0.29785 0.01985 0.09942 0.0
H404 H 0.23664 0.97894 0.95817 0.0
C405 C 0.22673 0.89757 0.96444 0.0
C406 C 0.27271 0.95314 0.03664 0.0
C407 C 0.22003 0.87398 0.96719 0.0
C408 C 0.30874 0.051 0.04001 0.0
C409 C 0.29574 0.02705 0.05013 0.0
C410 C 0.24694 0.97196 0.97992 0.0
C411 C 0.23988 0.91263 0.02001 0.0
C412 C 0.24984 0.93817 0.01404 0.0
C413 C 0.28089 0.0125 0.99637 0.0
C414 C 0.26977 0.98686 1.00327 0.0
H415 H 0.24339 0.87362 0.12857 0.0
H416 H 0.25446 0.91426 0.12464 0.0
H417 H 0.21938 0.93679 0.96764 0.0
H418 H 0.28932 0.05387 0.87436 0.0
H419 H 0.26702 0.01197 0.89144 0.0
C420 C 0.22865 0.72836 0.0506 0.0
C421 C 0.21332 0.73233 0.00947 0.0
C422 C 0.22655 0.70645 0.05278 0.0
C423 C 0.20263 0.65087 0.95761 0.0
H424 H 0.20648 0.62722 0.14295 0.0
C425 C 0.20844 0.56744 0.99666 0.0
C426 C 0.19477 0.55231 0.05133 0.0
C427 C 0.21044 0.58926 0.98902 0.0
C428 C 0.20525 0.63352 0.09084 0.0
H429 H 0.18405 0.71641 0.9371 0.0
H430 H 0.18044 0.67805 0.94082 0.0
H431 H 0.21041 0.66551 0.13359 0.0
H432 H 0.17191 0.54816 0.13941 0.0
H433 H 0.17576 0.58628 0.12679 0.0
H434 H 0.19735 0.61872 0.91505 0.0
C435 C 0.19412 0.692 0.97121 0.0
C436 C 0.20773 0.65555 0.0854 0.0
C437 C 0.19612 0.71394 0.96936 0.0
C438 C 0.18302 0.55951 0.09773 0.0
C439 C 0.18514 0.58135 0.09037 0.0
C440 C 0.20035 0.62886 0.963 0.0
C441 C 0.20916 0.68797 0.01363 0.0
C442 C 0.20644 0.66448 0.01877 0.0
C443 C 0.19893 0.59651 0.03613 0.0
C444 C 0.20156 0.61993 0.02976 0.0
H445 H 0.24216 0.74212 0.08201 0.0
H446 H 0.23861 0.70398 0.08517 0.0
H447 H 0.20171 0.65735 0.9055 0.0
H448 H 0.21797 0.56262 0.96048 0.0
H449 H 0.22139 0.60067 0.94716 0.0
C450 C 0.50125 0.22786 0.03984 0.0
C451 C 0.4819 0.21247 0.9991 0.0
C452 C 0.52131 0.22615 0.04038 0.0
C453 C 0.54223 0.18514 1.00291 0.0
H454 H 0.60266 0.24065 0.01278 0.0
C455 C 0.62779 0.18274 0.98852 0.0
C456 C 0.64481 0.19627 0.03906 0.0
C457 C 0.60819 0.18502 0.97954 0.0
C458 C 0.58589 0.22499 0.01049 0.0
H459 H 0.46863 0.1834 0.92611 0.0
H460 H 0.5038 0.18068 0.92602 0.0
H461 H 0.56799 0.24407 1.0033 0.0
H462 H 0.65487 0.22318 0.11863 0.0
H463 H 0.62063 0.22717 0.103 0.0
H464 H 0.56024 0.1661 0.00986 0.0
C465 C 0.50332 0.19383 0.9586 0.0
C466 C 0.566 0.22693 1.00521 0.0
C467 C 0.48318 0.19547 0.9583 0.0
C468 C 0.64196 0.21238 0.07967 0.0
C469 C 0.62247 0.21481 0.07025 0.0
C470 C 0.56215 0.18321 1.00775 0.0
C471 C 0.52262 0.20909 0.99991 0.0
C472 C 0.54388 0.20702 1.00207 0.0
C473 C 0.60527 0.20104 0.02044 0.0
C474 C 0.58419 0.20311 0.01227 0.0
H475 H 0.50085 0.2411 0.07222 0.0
H476 H 0.53564 0.23796 0.07377 0.0
H477 H 0.5255 0.16943 1.0017 0.0
H478 H 0.6294 0.17004 0.95685 0.0
H479 H 0.59534 0.1743 0.94035 0.0
C480 C 0.44604 0.62753 0.98744 0.0
C481 C 0.45007 0.64475 0.03779 0.0
C482 C 0.42412 0.60779 0.98107 0.0
C483 C 0.36937 0.57335 0.08151 0.0
H484 H 0.34487 0.54533 0.89749 0.0
C485 C 0.2749 0.50036 0.0455 0.0
C486 C 0.27104 0.48127 1.00365 0.0
C487 C 0.29667 0.52036 0.04734 0.0
C488 C 0.35158 0.55285 0.94929 0.0
H489 H 0.43409 0.65515 0.11921 0.0
H490 H 0.39577 0.62098 0.10734 0.0
H491 H 0.38279 0.58043 0.90462 0.0
H492 H 0.28705 0.46841 0.92994 0.0
H493 H 0.32517 0.50348 0.93306 0.0
H494 H 0.33807 0.54593 0.12604 0.0
C495 C 0.40965 0.62237 0.07395 0.0
C496 C 0.37333 0.57296 0.95346 0.0
C497 C 0.4316 0.64201 0.08066 0.0
C498 C 0.28943 0.48279 0.96275 0.0
C499 C 0.31123 0.50292 0.96426 0.0
C500 C 0.34761 0.55338 0.07727 0.0
C501 C 0.40567 0.60487 0.0246 0.0
C502 C 0.38249 0.5835 0.01967 0.0
C503 C 0.31514 0.52183 1.00713 0.0
C504 C 0.33843 0.54293 0.01115 0.0
H505 H 0.46 0.62902 0.95422 0.0
H506 H 0.42182 0.59456 0.9432 0.0
H507 H 0.37604 0.58064 0.13356 0.0
H508 H 0.26114 0.49984 0.07759 0.0
H509 H 0.29904 0.53475 0.08014 0.0
C510 C 0.82013 0.44523 0.99174 0.0
C511 C 0.80726 0.44924 0.04329 0.0
C512 C 0.81787 0.4233 0.98462 0.0
C513 C 0.79801 0.36848 0.08428 0.0
H514 H 0.80023 0.34401 0.89892 0.0
C515 C 0.77555 0.27387 0.04567 0.0
C516 C 0.79055 0.26994 1.00289 0.0
C517 C 0.7775 0.29571 0.0482 0.0
C518 C 0.79978 0.35072 0.95106 0.0
H519 H 0.78135 0.43326 0.12608 0.0
H520 H 0.77705 0.39492 0.1129 0.0
H521 H 0.80331 0.38202 0.90748 0.0
H522 H 0.81916 0.28587 0.92816 0.0
H523 H 0.82249 0.3241 0.93244 0.0
H524 H 0.7942 0.33707 0.12771 0.0
C525 C 0.78936 0.40882 0.07915 0.0
C526 C 0.80158 0.37251 0.95605 0.0
C527 C 0.79176 0.43077 0.08662 0.0
C528 C 0.80733 0.28831 0.96169 0.0
C529 C 0.80918 0.31017 0.96387 0.0
C530 C 0.79605 0.34667 0.07922 0.0
C531 C 0.80257 0.40484 0.02857 0.0
C532 C 0.80066 0.38165 0.02277 0.0
C533 C 0.79443 0.31415 1.00774 0.0
C534 C 0.79685 0.33751 0.01259 0.0
H535 H 0.83241 0.4592 0.95813 0.0
H536 H 0.82856 0.421 0.94579 0.0
H537 H 0.79775 0.37513 0.13666 0.0
H538 H 0.76238 0.26013 0.07802 0.0
H539 H 0.76568 0.29815 0.08177 0.0
C540 C 0.35861 0.79009 1.00271 0.0
C541 C 0.35979 0.8074 0.04825 0.0
C542 C 0.37815 0.78788 0.991 0.0
C543 C 0.4423 0.82004 1.00814 0.0
H544 H 0.43523 0.75873 0.99882 0.0
C545 C 0.51991 0.80661 0.94979 0.0
C546 C 0.52131 0.78957 0.99011 0.0
C547 C 0.49986 0.80837 0.9514 0.0
C548 C 0.43754 0.77598 1.0017 0.0
H549 H 0.38266 0.8362 0.11618 0.0
H550 H 0.41638 0.83186 0.09773 0.0
H551 H 0.40114 0.76278 0.01389 0.0
H552 H 0.50263 0.7609 0.06335 0.0
H553 H 0.46796 0.76424 0.06714 0.0
H554 H 0.47876 0.83324 0.99871 0.0
C555 C 0.40047 0.82019 0.07013 0.0
C556 C 0.41794 0.77831 0.00943 0.0
C557 C 0.381 0.82246 0.08159 0.0
C558 C 0.50213 0.77418 0.03139 0.0
C559 C 0.48214 0.776 0.03321 0.0
C560 C 0.4619 0.81771 1.0007 0.0
C561 C 0.39933 0.80288 0.02467 0.0
C562 C 0.42008 0.80038 0.01338 0.0
C563 C 0.48078 0.7932 0.99358 0.0
C564 C 0.4598 0.79565 0.99797 0.0
H565 H 0.34252 0.77805 0.97664 0.0
H566 H 0.37668 0.77451 0.95509 0.0
H567 H 0.44459 0.8373 0.00991 0.0
H568 H 0.53433 0.81869 0.91717 0.0
H569 H 0.49929 0.82161 0.9194 0.0
C570 C 0.72945 0.50047 0.03629 0.0
C571 C 0.7333 0.51972 0.99521 0.0
C572 C 0.7077 0.4804 0.03728 0.0
C573 C 0.64581 0.45994 1.00237 0.0
H574 H 0.64018 0.39928 0.01602 0.0
C575 C 0.55983 0.3788 0.07939 0.0
C576 C 0.55386 0.35769 0.04578 0.0
C577 C 0.58167 0.39829 0.06922 0.0
C578 C 0.6414 0.41604 0.01143 0.0
H579 H 0.71737 0.53275 0.92167 0.0
H580 H 0.67951 0.49757 0.9224 0.0
H581 H 0.67833 0.43349 1.0023 0.0
H582 H 0.56639 0.34059 0.97522 0.0
H583 H 0.60428 0.37477 0.95589 0.0
H584 H 0.60886 0.44249 0.01004 0.0
C585 C 0.69322 0.49815 0.95493 0.0
C586 C 0.66333 0.43572 1.00447 0.0
C587 C 0.71498 0.51829 0.95418 0.0
C588 C 0.5703 0.35661 1.00145 0.0
C589 C 0.59215 0.37615 0.99102 0.0
C590 C 0.62389 0.44027 0.00903 0.0
C591 C 0.68925 0.47901 0.99697 0.0
C592 C 0.66584 0.45794 1.00058 0.0
C593 C 0.59811 0.39725 0.02478 0.0
C594 C 0.6214 0.41808 0.01443 0.0
H595 H 0.74315 0.50099 0.06878 0.0
H596 H 0.70523 0.46617 0.07111 0.0
H597 H 0.64706 0.47676 1.00024 0.0
H598 H 0.54753 0.38041 0.11307 0.0
H599 H 0.58574 0.41412 0.0969 0.0
C600 C 0.17907 0.42255 0.76925 0.0
C601 C 0.19648 0.42416 0.81504 0.0
C602 C 0.18106 0.42116 0.69541 0.0
C603 C 0.22446 0.43385 0.5533 0.0
H604 H 0.17051 0.39383 0.43925 0.0
C605 C 0.23111 0.41666 0.25425 0.0
C606 C 0.21381 0.4153 0.2084 0.0
C607 C 0.22906 0.41794 0.32809 0.0
C608 C 0.18571 0.40532 0.47015 0.0
H609 H 0.22941 0.42509 0.81978 0.0
H610 H 0.23284 0.42243 0.69097 0.0
H611 H 0.1667 0.39515 0.56807 0.0
H612 H 0.18098 0.41457 0.20363 0.0
H613 H 0.17745 0.41701 0.33251 0.0
H614 H 0.24346 0.44401 0.45537 0.0
C615 C 0.2178 0.42263 0.71183 0.0
C616 C 0.18352 0.40606 0.54415 0.0
C617 C 0.21579 0.42402 0.78569 0.0
C618 C 0.19453 0.41549 0.23774 0.0
C619 C 0.19246 0.41674 0.31163 0.0
C620 C 0.22664 0.4331 0.47931 0.0
C621 C 0.20052 0.42131 0.66562 0.0
C622 C 0.20287 0.42034 0.58676 0.0
C623 C 0.20965 0.41789 0.35785 0.0
C624 C 0.2073 0.41883 0.4367 0.0
H625 H 0.16399 0.42263 0.79043 0.0
H626 H 0.16754 0.42042 0.66158 0.0
H627 H 0.23966 0.44535 0.58417 0.0
H628 H 0.24616 0.41653 0.23307 0.0
H629 H 0.24251 0.41853 0.36195 0.0
C630 C 0.79224 0.21469 0.78391 0.0
C631 C 0.77281 0.19537 0.81336 0.0
C632 C 0.79563 0.21669 0.71003 0.0
C633 C 0.76394 0.19521 0.53922 0.0
H634 H 0.82542 0.21935 0.45962 0.0
C635 C 0.77962 0.19349 0.23615 0.0
C636 C 0.79912 0.21273 0.20667 0.0
C637 C 0.77632 0.19145 0.31006 0.0
C638 C 0.80816 0.21283 0.48092 0.0
H639 H 0.74192 0.16282 0.78893 0.0
H640 H 0.74788 0.16615 0.66012 0.0
H641 H 0.82009 0.21551 0.58838 0.0
H642 H 0.83021 0.24511 0.23107 0.0
H643 H 0.82438 0.24173 0.35992 0.0
H644 H 0.75201 0.19256 0.43181 0.0
C645 C 0.76035 0.17996 0.6938 0.0
C646 C 0.8051 0.21061 0.55488 0.0
C647 C 0.75699 0.17796 0.76765 0.0
C648 C 0.81509 0.23002 0.25239 0.0
C649 C 0.81181 0.22799 0.32626 0.0
C650 C 0.767 0.19744 0.46528 0.0
C651 C 0.77964 0.19942 0.66392 0.0
C652 C 0.78294 0.20176 0.58506 0.0
C653 C 0.79244 0.20862 0.35618 0.0
C654 C 0.78916 0.20628 0.43507 0.0
H655 H 0.80474 0.22837 0.81791 0.0
H656 H 0.81056 0.23201 0.68899 0.0
H657 H 0.74668 0.18868 0.56053 0.0
H658 H 0.76702 0.17989 0.20217 0.0
H659 H 0.76134 0.17618 0.3311 0.0
C660 C 0.57857 0.79197 0.77229 0.0
C661 C 0.5787 0.77266 0.80179 0.0
C662 C 0.57999 0.79539 0.69841 0.0
C663 C 0.5971 0.77812 0.53108 0.0
H664 H 0.55863 0.7994 0.44161 0.0
C665 C 0.58783 0.77961 0.22446 0.0
C666 C 0.5877 0.79891 0.19496 0.0
C667 C 0.5866 0.77629 0.29838 0.0
C668 C 0.56968 0.79368 0.46574 0.0
H669 H 0.58071 0.74197 0.77743 0.0
H670 H 0.58295 0.74775 0.64857 0.0
H671 H 0.55724 0.79425 0.57043 0.0
H672 H 0.58591 0.82973 0.21938 0.0
H673 H 0.58395 0.8241 0.34827 0.0
H674 H 0.60953 0.77754 0.42635 0.0
C675 C 0.582 0.76042 0.68229 0.0
C676 C 0.56891 0.79075 0.53975 0.0
C677 C 0.58058 0.75701 0.75613 0.0
C678 C 0.58604 0.81468 0.24067 0.0
C679 C 0.58478 0.81137 0.31454 0.0
C680 C 0.59787 0.78105 0.45706 0.0
C681 C 0.5816 0.77959 0.65235 0.0
C682 C 0.5826 0.78292 0.57346 0.0
C683 C 0.58514 0.79217 0.34447 0.0
C684 C 0.58418 0.78887 0.42335 0.0
H685 H 0.57729 0.80441 0.80628 0.0
H686 H 0.57999 0.81053 0.67744 0.0
H687 H 0.60816 0.77241 0.5552 0.0
H688 H 0.58899 0.7671 0.19046 0.0
H689 H 0.58658 0.76114 0.31939 0.0
C690 C 0.82532 0.57938 0.76362 0.0
C691 C 0.80781 0.5776 0.8092 0.0
C692 C 0.82333 0.58075 0.68975 0.0
C693 C 0.77985 0.56752 0.5475 0.0
H694 H 0.83354 0.60814 0.43348 0.0
C695 C 0.77272 0.58451 0.24861 0.0
C696 C 0.7901 0.58615 0.20275 0.0
C697 C 0.77485 0.58329 0.32245 0.0
C698 C 0.81842 0.59649 0.46438 0.0
H699 H 0.77473 0.57637 0.8136 0.0
H700 H 0.77129 0.57895 0.68475 0.0
H701 H 0.83744 0.60686 0.56232 0.0
H702 H 0.8232 0.58743 0.19789 0.0
H703 H 0.82689 0.58508 0.32676 0.0
H704 H 0.76083 0.55714 0.44959 0.0
C705 C 0.78641 0.5789 0.70579 0.0
C706 C 0.82065 0.59577 0.53837 0.0
C707 C 0.78842 0.57755 0.77965 0.0
C708 C 0.80958 0.5863 0.23204 0.0
C709 C 0.81174 0.58509 0.30591 0.0
C710 C 0.77761 0.56824 0.47353 0.0
C711 C 0.80377 0.58038 0.65979 0.0
C712 C 0.80139 0.58128 0.58095 0.0
C713 C 0.79444 0.58366 0.35214 0.0
C714 C 0.79687 0.58274 0.43095 0.0
H715 H 0.84046 0.57946 0.78499 0.0
H716 H 0.83692 0.58162 0.65604 0.0
H717 H 0.76472 0.55586 0.57838 0.0
H718 H 0.75752 0.58437 0.22746 0.0
H719 H 0.76132 0.58247 0.35633 0.0
C720 C 0.18887 0.77266 0.26148 0.0
C721 C 0.20497 0.78977 0.21555 0.0
C722 C 0.19222 0.77475 0.33533 0.0
C723 C 0.22357 0.81809 0.47698 0.0
H724 H 0.20886 0.76404 0.59165 0.0
C725 C 0.2475 0.82459 0.77624 0.0
C726 C 0.23149 0.80736 0.82202 0.0
C727 C 0.2441 0.82261 0.70238 0.0
C728 C 0.21279 0.77927 0.56059 0.0
H729 H 0.23741 0.82228 0.21062 0.0
H730 H 0.24342 0.82587 0.33947 0.0
H731 H 0.20358 0.76014 0.4629 0.0
H732 H 0.1991 0.77479 0.82679 0.0
H733 H 0.193 0.77138 0.698 0.0
H734 H 0.23278 0.83722 0.57468 0.0
C735 C 0.22799 0.811 0.31867 0.0
C736 C 0.20978 0.77703 0.48663 0.0
C737 C 0.22464 0.80889 0.2448 0.0
C738 C 0.21182 0.78826 0.79268 0.0
C739 C 0.20842 0.78626 0.71884 0.0
C740 C 0.22658 0.82033 0.55095 0.0
C741 C 0.21177 0.794 0.36498 0.0
C742 C 0.21513 0.79641 0.4438 0.0
C743 C 0.22458 0.80334 0.67262 0.0
C744 C 0.22123 0.80095 0.59378 0.0
H745 H 0.17355 0.75774 0.24036 0.0
H746 H 0.17924 0.76145 0.36928 0.0
H747 H 0.22751 0.83332 0.44589 0.0
H748 H 0.26282 0.8395 0.79744 0.0
H749 H 0.25703 0.83597 0.66851 0.0
C750 C 0.42343 0.24594 0.76556 0.0
C751 C 0.42499 0.23012 0.81137 0.0
C752 C 0.42197 0.24253 0.69172 0.0
C753 C 0.43439 0.21164 0.5495 0.0
H754 H 0.39443 0.22574 0.43565 0.0
C755 C 0.41703 0.18781 0.25039 0.0
C756 C 0.41566 0.20374 0.20455 0.0
C757 C 0.41833 0.19113 0.32425 0.0
C758 C 0.4059 0.22198 0.46648 0.0
H759 H 0.42582 0.19807 0.81611 0.0
H760 H 0.42306 0.19193 0.6873 0.0
H761 H 0.39588 0.23092 0.56447 0.0
H762 H 0.41493 0.23584 0.19984 0.0
H763 H 0.41742 0.24182 0.32874 0.0
H764 H 0.44441 0.2027 0.45152 0.0
C765 C 0.42333 0.20721 0.70815 0.0
C766 C 0.40671 0.22494 0.54049 0.0
C767 C 0.42478 0.21063 0.78202 0.0
C768 C 0.41586 0.22321 0.23393 0.0
C769 C 0.41714 0.22654 0.30785 0.0
C770 C 0.43357 0.20868 0.4755 0.0
C771 C 0.42203 0.22317 0.66193 0.0
C772 C 0.42098 0.21981 0.58305 0.0
C773 C 0.41831 0.21049 0.35406 0.0
C774 C 0.41931 0.21381 0.43294 0.0
H775 H 0.42357 0.26113 0.78673 0.0
H776 H 0.42127 0.25533 0.65789 0.0
H777 H 0.44587 0.20789 0.58031 0.0
H778 H 0.4169 0.17263 0.2292 0.0
H779 H 0.41893 0.17827 0.35807 0.0
loop_
_geom_bond_atom_site_label_1
_geom_bond_atom_site_label_2
_geom_bond_distance
_geom_bond_site_symmetry_2
_ccdc_geom_bond_type
Tb0 C2 2.809 1_556 S
Tb0 O20 2.484 1_556 S
Tb0 O21 2.440 . S
Tb0 O22 2.658 . S
Tb0 O23 2.409 . S
Tb0 O24 2.378 . S
Tb0 O28 2.325 1_556 S
Tb0 O31 2.341 . S
Tb1 C11 2.809 1_554 S
Tb1 O22 2.325 1_554 S
Tb1 O25 2.341 . S
Tb1 O26 2.484 1_554 S
Tb1 O27 2.440 . S
Tb1 O28 2.658 . S
Tb1 O29 2.409 . S
Tb1 O30 2.378 . S
C2 Tb0 2.809 1_554 S
C2 C3 1.514 . S
C2 O20 1.248 . S
C2 O21 1.266 1_554 S
C3 C2 1.514 . S
C3 C4 1.359 . S
C3 C8 1.348 1_554 S
C4 C3 1.359 . S
C4 C5 1.380 . S
C4 H32 0.929 . S
C5 C4 1.380 . S
C5 C6 1.347 . S
C5 H33 0.931 . S
C6 C5 1.347 . S
C6 C7 1.369 1_554 S
C7 C6 1.369 1_556 S
C7 C8 1.408 . S
C7 H34 0.930 . S
C8 C3 1.348 1_556 S
C8 C7 1.408 . S
C8 H35 0.930 . S
C9 O22 1.281 . S
C9 O23 1.254 . S
C10 O24 1.236 . S
C10 O25 1.266 1_556 S
C11 Tb1 2.809 1_556 S
C11 C12 1.514 . S
C11 O26 1.248 . S
C11 O27 1.266 1_556 S
C12 C11 1.514 . S
C12 C13 1.359 . S
C12 C17 1.348 1_556 S
C13 C12 1.359 . S
C13 C14 1.380 . S
C13 H36 0.929 . S
C14 C13 1.380 . S
C14 C15 1.347 . S
C14 H37 0.931 . S
C15 C14 1.347 . S
C15 C16 1.369 1_556 S
C16 C15 1.369 1_554 S
C16 C17 1.408 . S
C16 H38 0.930 . S
C17 C12 1.348 1_554 S
C17 C16 1.408 . S
C17 H39 0.930 . S
C18 O28 1.281 . S
C18 O29 1.254 . S
C19 O30 1.236 . S
C19 O31 1.266 1_554 S
O20 Tb0 2.484 1_554 S
O20 C2 1.248 . S
O21 Tb0 2.440 . S
O21 C2 1.266 1_556 S
O22 Tb0 2.658 . S
O22 Tb1 2.325 1_556 S
O22 C9 1.281 . S
O23 Tb0 2.409 . S
O23 C9 1.254 . S
O24 Tb0 2.378 . S
O24 C10 1.236 . S
O25 Tb1 2.341 . S
O25 C10 1.266 1_554 S
O26 Tb1 2.484 1_556 S
O26 C11 1.248 . S
O27 Tb1 2.440 . S
O27 C11 1.266 1_554 S
O28 Tb0 2.325 1_554 S
O28 Tb1 2.658 . S
O28 C18 1.281 . S
O29 Tb1 2.409 . S
O29 C18 1.254 . S
O30 Tb1 2.378 . S
O30 C19 1.236 . S
O31 Tb0 2.341 . S
O31 C19 1.266 1_556 S
H32 C4 0.929 . S
H33 C5 0.931 . S
H34 C7 0.930 . S
H35 C8 0.930 . S
H36 C13 0.929 . S
H37 C14 0.931 . S
H38 C16 0.930 . S
H39 C17 0.930 . S
Tb40 C42 2.809 1_556 S
Tb40 O60 2.484 1_556 S
Tb40 O61 2.440 . S
Tb40 O62 2.658 . S
Tb40 O63 2.409 . S
Tb40 O64 2.378 . S
Tb40 O68 2.325 1_556 S
Tb40 O71 2.341 . S
Tb41 C51 2.809 1_554 S
Tb41 O62 2.325 1_554 S
Tb41 O65 2.341 . S
Tb41 O66 2.484 1_554 S
Tb41 O67 2.440 . S
Tb41 O68 2.658 . S
Tb41 O69 2.409 . S
Tb41 O70 2.378 . S
C42 Tb40 2.809 1_554 S
C42 C43 1.514 . S
C42 O60 1.248 . S
C42 O61 1.266 1_554 S
C43 C42 1.514 . S
C43 C44 1.359 . S
C43 C48 1.348 1_554 S
C44 C43 1.359 . S
C44 C45 1.380 . S
C44 H72 0.929 . S
C45 C44 1.380 . S
C45 C46 1.347 . S
C45 H73 0.931 . S
C46 C45 1.347 . S
C46 C47 1.369 1_554 S
C47 C46 1.369 1_556 S
C47 C48 1.408 . S
C47 H74 0.930 . S
C48 C43 1.348 1_556 S
C48 C47 1.408 . S
C48 H75 0.930 . S
C49 O62 1.281 . S
C49 O63 1.254 . S
C50 O64 1.236 . S
C50 O65 1.266 1_556 S
C51 Tb41 2.809 1_556 S
C51 C52 1.514 . S
C51 O66 1.248 . S
C51 O67 1.266 1_556 S
C52 C51 1.514 . S
C52 C53 1.359 . S
C52 C57 1.348 1_556 S
C53 C52 1.359 . S
C53 C54 1.380 . S
C53 H76 0.929 . S
C54 C53 1.380 . S
C54 C55 1.347 . S
C54 H77 0.931 . S
C55 C54 1.347 . S
C55 C56 1.369 1_556 S
C56 C55 1.369 1_554 S
C56 C57 1.408 . S
C56 H78 0.930 . S
C57 C52 1.348 1_554 S
C57 C56 1.408 . S
C57 H79 0.930 . S
C58 O68 1.281 . S
C58 O69 1.254 . S
C59 O70 1.236 . S
C59 O71 1.266 1_554 S
O60 Tb40 2.484 1_554 S
O60 C42 1.248 . S
O61 Tb40 2.440 . S
O61 C42 1.266 1_556 S
O62 Tb40 2.658 . S
O62 Tb41 2.325 1_556 S
O62 C49 1.281 . S
O63 Tb40 2.409 . S
O63 C49 1.254 . S
O64 Tb40 2.378 . S
O64 C50 1.236 . S
O65 Tb41 2.341 . S
O65 C50 1.266 1_554 S
O66 Tb41 2.484 1_556 S
O66 C51 1.248 . S
O67 Tb41 2.440 . S
O67 C51 1.266 1_554 S
O68 Tb40 2.325 1_554 S
O68 Tb41 2.658 . S
O68 C58 1.281 . S
O69 Tb41 2.409 . S
O69 C58 1.254 . S
O70 Tb41 2.378 . S
O70 C59 1.236 . S
O71 Tb40 2.341 . S
O71 C59 1.266 1_556 S
H72 C44 0.929 . S
H73 C45 0.931 . S
H74 C47 0.930 . S
H75 C48 0.930 . S
H76 C53 0.929 . S
H77 C54 0.931 . S
H78 C56 0.930 . S
H79 C57 0.930 . S
Tb80 C82 2.809 1_556 S
Tb80 O100 2.484 1_556 S
Tb80 O101 2.440 . S
Tb80 O102 2.658 . S
Tb80 O103 2.409 . S
Tb80 O104 2.378 . S
Tb80 O108 2.325 1_556 S
Tb80 O111 2.341 . S
Tb81 C91 2.809 1_554 S
Tb81 O102 2.325 1_554 S
Tb81 O105 2.341 . S
Tb81 O106 2.484 1_554 S
Tb81 O107 2.440 . S
Tb81 O108 2.658 . S
Tb81 O109 2.409 . S
Tb81 O110 2.378 . S
C82 Tb80 2.809 1_554 S
C82 C83 1.514 . S
C82 O100 1.248 . S
C82 O101 1.266 1_554 S
C83 C82 1.514 . S
C83 C84 1.359 . S
C83 C88 1.348 1_554 S
C84 C83 1.359 . S
C84 C85 1.380 . S
C84 H112 0.929 . S
C85 C84 1.380 . S
C85 C86 1.347 . S
C85 H113 0.931 . S
C86 C85 1.347 . S
C86 C87 1.369 1_554 S
C87 C86 1.369 1_556 S
C87 C88 1.408 . S
C87 H114 0.930 . S
C88 C83 1.348 1_556 S
C88 C87 1.408 . S
C88 H115 0.930 . S
C89 O102 1.281 . S
C89 O103 1.254 . S
C90 O104 1.236 . S
C90 O105 1.266 1_556 S
C91 Tb81 2.809 1_556 S
C91 C92 1.514 . S
C91 O106 1.248 . S
C91 O107 1.266 1_556 S
C92 C91 1.514 . S
C92 C93 1.359 . S
C92 C97 1.348 1_556 S
C93 C92 1.359 . S
C93 C94 1.380 . S
C93 H116 0.929 . S
C94 C93 1.380 . S
C94 C95 1.347 . S
C94 H117 0.931 . S
C95 C94 1.347 . S
C95 C96 1.369 1_556 S
C96 C95 1.369 1_554 S
C96 C97 1.408 . S
C96 H118 0.930 . S
C97 C92 1.348 1_554 S
C97 C96 1.408 . S
C97 H119 0.930 . S
C98 O108 1.281 . S
C98 O109 1.254 . S
C99 O110 1.236 . S
C99 O111 1.266 1_554 S
O100 Tb80 2.484 1_554 S
O100 C82 1.248 . S
O101 Tb80 2.440 . S
O101 C82 1.266 1_556 S
O102 Tb80 2.658 . S
O102 Tb81 2.325 1_556 S
O102 C89 1.281 . S
O103 Tb80 2.409 . S
O103 C89 1.254 . S
O104 Tb80 2.378 . S
O104 C90 1.236 . S
O105 Tb81 2.341 . S
O105 C90 1.266 1_554 S
O106 Tb81 2.484 1_556 S
O106 C91 1.248 . S
O107 Tb81 2.440 . S
O107 C91 1.266 1_554 S
O108 Tb80 2.325 1_554 S
O108 Tb81 2.658 . S
O108 C98 1.281 . S
O109 Tb81 2.409 . S
O109 C98 1.254 . S
O110 Tb81 2.378 . S
O110 C99 1.236 . S
O111 Tb80 2.341 . S
O111 C99 1.266 1_556 S
H112 C84 0.929 . S
H113 C85 0.931 . S
H114 C87 0.930 . S
H115 C88 0.930 . S
H116 C93 0.929 . S
H117 C94 0.931 . S
H118 C96 0.930 . S
H119 C97 0.930 . S
Tb120 C122 2.809 1_556 S
Tb120 O140 2.484 1_556 S
Tb120 O141 2.440 . S
Tb120 O142 2.658 . S
Tb120 O143 2.409 . S
Tb120 O144 2.378 . S
Tb120 O148 2.325 1_556 S
Tb120 O151 2.341 . S
Tb121 C131 2.809 1_554 S
Tb121 O142 2.325 1_554 S
Tb121 O145 2.341 . S
Tb121 O146 2.484 1_554 S
Tb121 O147 2.440 . S
Tb121 O148 2.658 . S
Tb121 O149 2.409 . S
Tb121 O150 2.378 . S
C122 Tb120 2.809 1_554 S
C122 C123 1.514 . S
C122 O140 1.248 . S
C122 O141 1.266 1_554 S
C123 C122 1.514 . S
C123 C124 1.359 . S
C123 C128 1.348 1_554 S
C124 C123 1.359 . S
C124 C125 1.380 . S
C124 H152 0.929 . S
C125 C124 1.380 . S
C125 C126 1.347 . S
C125 H153 0.931 . S
C126 C125 1.347 . S
C126 C127 1.369 1_554 S
C127 C126 1.369 1_556 S
C127 C128 1.408 . S
C127 H154 0.930 . S
C128 C123 1.348 1_556 S
C128 C127 1.408 . S
C128 H155 0.930 . S
C129 O142 1.281 . S
C129 O143 1.254 . S
C130 O144 1.236 . S
C130 O145 1.266 1_556 S
C131 Tb121 2.809 1_556 S
C131 C132 1.514 . S
C131 O146 1.248 . S
C131 O147 1.266 1_556 S
C132 C131 1.514 . S
C132 C133 1.359 . S
C132 C137 1.348 1_556 S
C133 C132 1.359 . S
C133 C134 1.380 . S
C133 H156 0.929 . S
C134 C133 1.380 . S
C134 C135 1.347 . S
C134 H157 0.931 . S
C135 C134 1.347 . S
C135 C136 1.369 1_556 S
C136 C135 1.369 1_554 S
C136 C137 1.408 . S
C136 H158 0.930 . S
C137 C132 1.348 1_554 S
C137 C136 1.408 . S
C137 H159 0.930 . S
C138 O148 1.281 . S
C138 O149 1.254 . S
C139 O150 1.236 . S
C139 O151 1.266 1_554 S
O140 Tb120 2.484 1_554 S
O140 C122 1.248 . S
O141 Tb120 2.440 . S
O141 C122 1.266 1_556 S
O142 Tb120 2.658 . S
O142 Tb121 2.325 1_556 S
O142 C129 1.281 . S
O143 Tb120 2.409 . S
O143 C129 1.254 . S
O144 Tb120 2.378 . S
O144 C130 1.236 . S
O145 Tb121 2.341 . S
O145 C130 1.266 1_554 S
O146 Tb121 2.484 1_556 S
O146 C131 1.248 . S
O147 Tb121 2.440 . S
O147 C131 1.266 1_554 S
O148 Tb120 2.325 1_554 S
O148 Tb121 2.658 . S
O148 C138 1.281 . S
O149 Tb121 2.409 . S
O149 C138 1.254 . S
O150 Tb121 2.378 . S
O150 C139 1.236 . S
O151 Tb120 2.341 . S
O151 C139 1.266 1_556 S
H152 C124 0.929 . S
H153 C125 0.931 . S
H154 C127 0.930 . S
H155 C128 0.930 . S
H156 C133 0.929 . S
H157 C134 0.931 . S
H158 C136 0.930 . S
H159 C137 0.930 . S
Tb160 C162 2.809 1_556 S
Tb160 O180 2.484 1_556 S
Tb160 O181 2.440 . S
Tb160 O182 2.658 . S
Tb160 O183 2.409 . S
Tb160 O184 2.378 . S
Tb160 O188 2.325 1_556 S
Tb160 O191 2.341 . S
Tb161 C171 2.809 1_554 S
Tb161 O182 2.325 1_554 S
Tb161 O185 2.341 . S
Tb161 O186 2.484 1_554 S
Tb161 O187 2.440 . S
Tb161 O188 2.658 . S
Tb161 O189 2.409 . S
Tb161 O190 2.378 . S
C162 Tb160 2.809 1_554 S
C162 C163 1.514 . S
C162 O180 1.248 . S
C162 O181 1.266 1_554 S
C163 C162 1.514 . S
C163 C164 1.359 . S
C163 C168 1.348 1_554 S
C164 C163 1.359 . S
C164 C165 1.380 . S
C164 H192 0.929 . S
C165 C164 1.380 . S
C165 C166 1.347 . S
C165 H193 0.931 . S
C166 C165 1.347 . S
C166 C167 1.369 1_554 S
C167 C166 1.369 1_556 S
C167 C168 1.408 . S
C167 H194 0.930 . S
C168 C163 1.348 1_556 S
C168 C167 1.408 . S
C168 H195 0.930 . S
C169 O182 1.281 . S
C169 O183 1.254 . S
C170 O184 1.236 . S
C170 O185 1.266 1_556 S
C171 Tb161 2.809 1_556 S
C171 C172 1.514 . S
C171 O186 1.248 . S
C171 O187 1.266 1_556 S
C172 C171 1.514 . S
C172 C173 1.359 . S
C172 C177 1.348 1_556 S
C173 C172 1.359 . S
C173 C174 1.380 . S
C173 H196 0.929 . S
C174 C173 1.380 . S
C174 C175 1.347 . S
C174 H197 0.931 . S
C175 C174 1.347 . S
C175 C176 1.369 1_556 S
C176 C175 1.369 1_554 S
C176 C177 1.408 . S
C176 H198 0.930 . S
C177 C172 1.348 1_554 S
C177 C176 1.408 . S
C177 H199 0.930 . S
C178 O188 1.281 . S
C178 O189 1.254 . S
C179 O190 1.236 . S
C179 O191 1.266 1_554 S
O180 Tb160 2.484 1_554 S
O180 C162 1.248 . S
O181 Tb160 2.440 . S
O181 C162 1.266 1_556 S
O182 Tb160 2.658 . S
O182 Tb161 2.325 1_556 S
O182 C169 1.281 . S
O183 Tb160 2.409 . S
O183 C169 1.254 . S
O184 Tb160 2.378 . S
O184 C170 1.236 . S
O185 Tb161 2.341 . S
O185 C170 1.266 1_554 S
O186 Tb161 2.484 1_556 S
O186 C171 1.248 . S
O187 Tb161 2.440 . S
O187 C171 1.266 1_554 S
O188 Tb160 2.325 1_554 S
O188 Tb161 2.658 . S
O188 C178 1.281 . S
O189 Tb161 2.409 . S
O189 C178 1.254 . S
O190 Tb161 2.378 . S
O190 C179 1.236 . S
O191 Tb160 2.341 . S
O191 C179 1.266 1_556 S
H192 C164 0.929 . S
H193 C165 0.931 . S
H194 C167 0.930 . S
H195 C168 0.930 . S
H196 C173 0.929 . S
H197 C174 0.931 . S
H198 C176 0.930 . S
H199 C177 0.930 . S
Tb200 C202 2.809 1_556 S
Tb200 O220 2.484 1_556 S
Tb200 O221 2.440 . S
Tb200 O222 2.658 . S
Tb200 O223 2.409 . S
Tb200 O224 2.378 . S
Tb200 O228 2.325 1_556 S
Tb200 O231 2.341 . S
Tb201 C211 2.809 1_554 S
Tb201 O222 2.325 1_554 S
Tb201 O225 2.341 . S
Tb201 O226 2.484 1_554 S
Tb201 O227 2.440 . S
Tb201 O228 2.658 . S
Tb201 O229 2.409 . S
Tb201 O230 2.378 . S
C202 Tb200 2.809 1_554 S
C202 C203 1.514 . S
C202 O220 1.248 . S
C202 O221 1.266 1_554 S
C203 C202 1.514 . S
C203 C204 1.359 . S
C203 C208 1.348 1_554 S
C204 C203 1.359 . S
C204 C205 1.380 . S
C204 H232 0.929 . S
C205 C204 1.380 . S
C205 C206 1.347 . S
C205 H233 0.931 . S
C206 C205 1.347 . S
C206 C207 1.369 1_554 S
C207 C206 1.369 1_556 S
C207 C208 1.408 . S
C207 H234 0.930 . S
C208 C203 1.348 1_556 S
C208 C207 1.408 . S
C208 H235 0.930 . S
C209 O222 1.281 . S
C209 O223 1.254 . S
C210 O224 1.236 . S
C210 O225 1.266 1_556 S
C211 Tb201 2.809 1_556 S
C211 C212 1.514 . S
C211 O226 1.248 . S
C211 O227 1.266 1_556 S
C212 C211 1.514 . S
C212 C213 1.359 . S
C212 C217 1.348 1_556 S
C213 C212 1.359 . S
C213 C214 1.380 . S
C213 H236 0.929 . S
C214 C213 1.380 . S
C214 C215 1.347 . S
C214 H237 0.931 . S
C215 C214 1.347 . S
C215 C216 1.369 1_556 S
C216 C215 1.369 1_554 S
C216 C217 1.408 . S
C216 H238 0.930 . S
C217 C212 1.348 1_554 S
C217 C216 1.408 . S
C217 H239 0.930 . S
C218 O228 1.281 . S
C218 O229 1.254 . S
C219 O230 1.236 . S
C219 O231 1.266 1_554 S
O220 Tb200 2.484 1_554 S
O220 C202 1.248 . S
O221 Tb200 2.440 . S
O221 C202 1.266 1_556 S
O222 Tb200 2.658 . S
O222 Tb201 2.325 1_556 S
O222 C209 1.281 . S
O223 Tb200 2.409 . S
O223 C209 1.254 . S
O224 Tb200 2.378 . S
O224 C210 1.236 . S
O225 Tb201 2.341 . S
O225 C210 1.266 1_554 S
O226 Tb201 2.484 1_556 S
O226 C211 1.248 . S
O227 Tb201 2.440 . S
O227 C211 1.266 1_554 S
O228 Tb200 2.325 1_554 S
O228 Tb201 2.658 . S
O228 C218 1.281 . S
O229 Tb201 2.409 . S
O229 C218 1.254 . S
O230 Tb201 2.378 . S
O230 C219 1.236 . S
O231 Tb200 2.341 . S
O231 C219 1.266 1_556 S
H232 C204 0.929 . S
H233 C205 0.931 . S
H234 C207 0.930 . S
H235 C208 0.930 . S
H236 C213 0.929 . S
H237 C214 0.931 . S
H238 C216 0.930 . S
H239 C217 0.930 . S
C240 C241 1.349 . S
C240 C242 1.327 . S
C240 H265 0.950 . S
C241 C240 1.349 . S
C241 C257 1.349 1_556 S
C242 C240 1.327 . S
C242 C261 1.429 . S
C242 H266 0.950 . S
C243 C260 1.574 . S
C243 C262 1.368 1_554 S
C243 H267 0.949 . S
H244 C248 0.949 . S
C245 C246 1.349 . S
C245 C247 1.327 . S
C245 H268 0.950 1_556 S
C246 C245 1.349 . S
C246 C258 1.349 . S
C247 C245 1.327 . S
C247 C263 1.429 . S
C247 H269 0.950 1_556 S
C248 H244 0.949 . S
C248 C256 1.574 . S
C248 C264 1.368 . S
H249 C257 0.950 . S
H250 C255 0.950 . S
H251 C256 0.949 . S
H252 C258 0.950 . S
H253 C259 0.950 . S
H254 C260 0.949 . S
C255 H250 0.950 . S
C255 C257 1.327 . S
C255 C261 1.429 1_554 S
C256 C248 1.574 . S
C256 H251 0.949 . S
C256 C262 1.368 . S
C257 C241 1.349 1_554 S
C257 H249 0.950 . S
C257 C255 1.327 . S
C258 C246 1.349 . S
C258 H252 0.950 . S
C258 C259 1.327 . S
C259 H253 0.950 . S
C259 C258 1.327 . S
C259 C263 1.429 . S
C260 C243 1.574 . S
C260 H254 0.949 . S
C260 C264 1.368 1_554 S
C261 C242 1.429 . S
C261 C255 1.429 1_556 S
C261 C262 1.523 . S
C262 C243 1.368 1_556 S
C262 C256 1.368 . S
C262 C261 1.523 . S
C263 C247 1.429 . S
C263 C259 1.429 . S
C263 C264 1.523 . S
C264 C248 1.368 . S
C264 C260 1.368 1_556 S
C264 C263 1.523 . S
H265 C240 0.950 . S
H266 C242 0.950 . S
H267 C243 0.949 . S
H268 C245 0.950 1_554 S
H269 C247 0.950 1_554 S
C270 C271 1.350 . S
C270 C272 1.327 . S
C270 H295 0.950 . S
C271 C270 1.350 . S
C271 C287 1.348 1_556 S
C272 C270 1.327 . S
C272 C291 1.429 . S
C272 H296 0.950 . S
C273 C290 1.574 . S
C273 C292 1.368 1_554 S
C273 H297 0.949 . S
H274 C278 0.949 . S
C275 C276 1.349 1_554 S
C275 C277 1.327 . S
C275 H298 0.950 . S
C276 C275 1.349 1_556 S
C276 C288 1.349 . S
C277 C275 1.327 . S
C277 C293 1.429 1_554 S
C277 H299 0.950 . S
C278 H274 0.949 . S
C278 C286 1.574 . S
C278 C294 1.368 . S
H279 C287 0.950 . S
H280 C285 0.950 . S
H281 C286 0.949 . S
H282 C288 0.950 . S
H283 C289 0.950 . S
H284 C290 0.949 . S
C285 H280 0.950 . S
C285 C287 1.327 . S
C285 C291 1.429 1_554 S
C286 C278 1.574 . S
C286 H281 0.949 . S
C286 C292 1.368 . S
C287 C271 1.348 1_554 S
C287 H279 0.950 . S
C287 C285 1.327 . S
C288 C276 1.349 . S
C288 H282 0.950 . S
C288 C289 1.327 . S
C289 H283 0.950 . S
C289 C288 1.327 . S
C289 C293 1.429 . S
C290 C273 1.574 . S
C290 H284 0.949 . S
C290 C294 1.368 1_554 S
C291 C272 1.429 . S
C291 C285 1.429 1_556 S
C291 C292 1.523 . S
C292 C273 1.368 1_556 S
C292 C286 1.368 . S
C292 C291 1.523 . S
C293 C277 1.429 1_556 S
C293 C289 1.429 . S
C293 C294 1.523 1_655 S
C294 C278 1.368 . S
C294 C290 1.368 1_556 S
C294 C293 1.523 1_455 S
H295 C270 0.950 . S
H296 C272 0.950 . S
H297 C273 0.949 . S
H298 C275 0.950 . S
H299 C277 0.950 . S
C300 C301 1.348 1_554 S
C300 C302 1.327 . S
C300 H325 0.950 . S
C301 C300 1.348 1_556 S
C301 C317 1.349 . S
C302 C300 1.327 . S
C302 C321 1.429 1_554 S
C302 H326 0.950 . S
C303 C320 1.574 . S
C303 C322 1.368 . S
C303 H327 0.949 . S
H304 C308 0.949 . S
C305 C306 1.349 . S
C305 C307 1.327 . S
C305 H328 0.950 . S
C306 C305 1.349 . S
C306 C318 1.349 1_556 S
C307 C305 1.327 . S
C307 C323 1.429 . S
C307 H329 0.950 . S
C308 H304 0.949 . S
C308 C316 1.574 . S
C308 C324 1.368 1_554 S
H309 C317 0.950 . S
H310 C315 0.950 . S
H311 C316 0.949 . S
H312 C318 0.950 . S
H313 C319 0.950 . S
H314 C320 0.949 . S
C315 H310 0.950 . S
C315 C317 1.327 . S
C315 C321 1.429 . S
C316 C308 1.574 . S
C316 H311 0.949 . S
C316 C322 1.368 1_554 S
C317 C301 1.349 . S
C317 H309 0.950 . S
C317 C315 1.327 . S
C318 C306 1.349 1_554 S
C318 H312 0.950 . S
C318 C319 1.327 . S
C319 H313 0.950 . S
C319 C318 1.327 . S
C319 C323 1.429 1_554 S
C320 C303 1.574 . S
C320 H314 0.949 . S
C320 C324 1.368 . S
C321 C302 1.429 1_556 S
C321 C315 1.429 . S
C321 C322 1.523 . S
C322 C303 1.368 . S
C322 C316 1.368 1_556 S
C322 C321 1.523 . S
C323 C307 1.429 . S
C323 C319 1.429 1_556 S
C323 C324 1.523 1_565 S
C324 C308 1.368 1_556 S
C324 C320 1.368 . S
C324 C323 1.523 1_545 S
H325 C300 0.950 . S
H326 C302 0.950 . S
H327 C303 0.949 . S
H328 C305 0.950 . S
H329 C307 0.950 . S
C330 C331 1.349 . S
C330 C332 1.327 . S
C330 H355 0.950 . S
C331 C330 1.349 . S
C331 C347 1.349 1_556 S
C332 C330 1.327 . S
C332 C351 1.429 . S
C332 H356 0.950 . S
C333 C350 1.574 . S
C333 C352 1.368 1_554 S
C333 H357 0.949 . S
H334 C338 0.949 . S
C335 C336 1.348 1_554 S
C335 C337 1.327 . S
C335 H358 0.950 . S
C336 C335 1.348 1_556 S
C336 C348 1.350 . S
C337 C335 1.327 . S
C337 C353 1.429 1_554 S
C337 H359 0.950 . S
C338 H334 0.949 . S
C338 C346 1.574 . S
C338 C354 1.368 . S
H339 C347 0.950 . S
H340 C345 0.950 . S
H341 C346 0.949 . S
H342 C348 0.950 . S
H343 C349 0.950 . S
H344 C350 0.949 . S
C345 H340 0.950 . S
C345 C347 1.327 . S
C345 C351 1.429 1_554 S
C346 C338 1.574 . S
C346 H341 0.949 . S
C346 C352 1.368 . S
C347 C331 1.349 1_554 S
C347 H339 0.950 . S
C347 C345 1.327 . S
C348 C336 1.350 . S
C348 H342 0.950 . S
C348 C349 1.327 . S
C349 H343 0.950 . S
C349 C348 1.327 . S
C349 C353 1.429 . S
C350 C333 1.574 . S
C350 H344 0.949 . S
C350 C354 1.368 1_554 S
C351 C332 1.429 . S
C351 C345 1.429 1_556 S
C351 C352 1.523 . S
C352 C333 1.368 1_556 S
C352 C346 1.368 . S
C352 C351 1.523 . S
C353 C337 1.429 1_556 S
C353 C349 1.429 . S
C353 C354 1.523 . S
C354 C338 1.368 . S
C354 C350 1.368 1_556 S
C354 C353 1.523 . S
H355 C330 0.950 . S
H356 C332 0.950 . S
H357 C333 0.949 . S
H358 C335 0.950 . S
H359 C337 0.950 . S
C360 C361 1.349 . S
C360 C362 1.327 . S
C360 H385 0.950 . S
C361 C360 1.349 . S
C361 C377 1.349 1_556 S
C362 C360 1.327 . S
C362 C381 1.429 . S
C362 H386 0.950 . S
C363 C380 1.574 . S
C363 C382 1.368 1_554 S
C363 H387 0.949 . S
H364 C368 0.949 . S
C365 C366 1.348 1_554 S
C365 C367 1.327 . S
C365 H388 0.950 . S
C366 C365 1.348 1_556 S
C366 C378 1.350 . S
C367 C365 1.327 . S
C367 C383 1.429 1_554 S
C367 H389 0.950 . S
C368 H364 0.949 . S
C368 C376 1.574 . S
C368 C384 1.368 . S
H369 C377 0.950 . S
H370 C375 0.950 . S
H371 C376 0.949 . S
H372 C378 0.950 . S
H373 C379 0.950 . S
H374 C380 0.949 . S
C375 H370 0.950 . S
C375 C377 1.327 . S
C375 C381 1.429 1_554 S
C376 C368 1.574 . S
C376 H371 0.949 . S
C376 C382 1.368 . S
C377 C361 1.349 1_554 S
C377 H369 0.950 . S
C377 C375 1.327 . S
C378 C366 1.350 . S
C378 H372 0.950 . S
C378 C379 1.327 . S
C379 H373 0.950 . S
C379 C378 1.327 . S
C379 C383 1.429 . S
C380 C363 1.574 . S
C380 H374 0.949 . S
C380 C384 1.368 1_554 S
C381 C362 1.429 . S
C381 C375 1.429 1_556 S
C381 C382 1.523 1_455 S
C382 C363 1.368 1_556 S
C382 C376 1.368 . S
C382 C381 1.523 1_655 S
C383 C367 1.429 1_556 S
C383 C379 1.429 . S
C383 C384 1.523 . S
C384 C368 1.368 . S
C384 C380 1.368 1_556 S
C384 C383 1.523 . S
H385 C360 0.950 . S
H386 C362 0.950 . S
H387 C363 0.949 . S
H388 C365 0.950 . S
H389 C367 0.950 . S
C390 C391 1.348 1_554 S
C390 C392 1.327 . S
C390 H415 0.950 . S
C391 C390 1.348 1_556 S
C391 C407 1.350 . S
C392 C390 1.327 . S
C392 C411 1.429 1_554 S
C392 H416 0.950 . S
C393 C410 1.574 . S
C393 C412 1.368 . S
C393 H417 0.949 . S
H394 C398 0.949 . S
C395 C396 1.349 . S
C395 C397 1.327 . S
C395 H418 0.950 . S
C396 C395 1.349 . S
C396 C408 1.349 1_556 S
C397 C395 1.327 . S
C397 C413 1.429 . S
C397 H419 0.950 . S
C398 H394 0.949 . S
C398 C406 1.574 . S
C398 C414 1.368 1_554 S
H399 C407 0.950 . S
H400 C405 0.950 . S
H401 C406 0.949 . S
H402 C408 0.950 . S
H403 C409 0.950 . S
H404 C410 0.949 . S
C405 H400 0.950 . S
C405 C407 1.327 . S
C405 C411 1.429 . S
C406 C398 1.574 . S
C406 H401 0.949 . S
C406 C412 1.368 1_554 S
C407 C391 1.350 . S
C407 H399 0.950 . S
C407 C405 1.327 . S
C408 C396 1.349 1_554 S
C408 H402 0.950 . S
C408 C409 1.327 . S
C409 H403 0.950 . S
C409 C408 1.327 . S
C409 C413 1.429 1_554 S
C410 C393 1.574 . S
C410 H404 0.949 . S
C410 C414 1.368 . S
C411 C392 1.429 1_556 S
C411 C405 1.429 . S
C411 C412 1.523 . S
C412 C393 1.368 . S
C412 C406 1.368 1_556 S
C412 C411 1.523 . S
C413 C397 1.429 . S
C413 C409 1.429 1_556 S
C413 C414 1.523 1_545 S
C414 C398 1.368 1_556 S
C414 C410 1.368 . S
C414 C413 1.523 1_565 S
H415 C390 0.950 . S
H416 C392 0.950 . S
H417 C393 0.949 . S
H418 C395 0.950 . S
H419 C397 0.950 . S
C420 C421 1.349 . S
C420 C422 1.327 . S
C420 H445 0.950 . S
C421 C420 1.349 . S
C421 C437 1.349 1_554 S
C422 C420 1.327 . S
C422 C441 1.429 . S
C422 H446 0.950 . S
C423 C440 1.574 . S
C423 C442 1.368 1_556 S
C423 H447 0.949 . S
H424 C428 0.949 . S
C425 C426 1.349 1_556 S
C425 C427 1.327 . S
C425 H448 0.950 . S
C426 C425 1.349 1_554 S
C426 C438 1.349 . S
C427 C425 1.327 . S
C427 C443 1.429 1_556 S
C427 H449 0.950 . S
C428 H424 0.949 . S
C428 C436 1.574 . S
C428 C444 1.368 . S
H429 C437 0.950 . S
H430 C435 0.950 . S
H431 C436 0.949 . S
H432 C438 0.950 . S
H433 C439 0.950 . S
H434 C440 0.949 . S
C435 H430 0.950 . S
C435 C437 1.327 . S
C435 C441 1.429 1_556 S
C436 C428 1.574 . S
C436 H431 0.949 . S
C436 C442 1.368 . S
C437 C421 1.349 1_556 S
C437 H429 0.950 . S
C437 C435 1.327 . S
C438 C426 1.349 . S
C438 H432 0.950 . S
C438 C439 1.327 . S
C439 H433 0.950 . S
C439 C438 1.327 . S
C439 C443 1.429 . S
C440 C423 1.574 . S
C440 H434 0.949 . S
C440 C444 1.368 1_556 S
C441 C422 1.429 . S
C441 C435 1.429 1_554 S
C441 C442 1.523 . S
C442 C423 1.368 1_554 S
C442 C436 1.368 . S
C442 C441 1.523 . S
C443 C427 1.429 1_554 S
C443 C439 1.429 . S
C443 C444 1.523 . S
C444 C428 1.368 . S
C444 C440 1.368 1_554 S
C444 C443 1.523 . S
H445 C420 0.950 . S
H446 C422 0.950 . S
H447 C423 0.949 . S
H448 C425 0.950 . S
H449 C427 0.950 . S
C450 C451 1.349 1_556 S
C450 C452 1.327 1_556 S
C450 H475 0.950 . S
C451 C450 1.349 1_554 S
C451 C467 1.349 . S
C452 C450 1.327 1_554 S
C452 C471 1.429 . S
C452 H476 0.950 . S
C453 C470 1.574 . S
C453 C472 1.368 . S
C453 H477 0.949 . S
H454 C458 0.949 . S
C455 C456 1.349 . S
C455 C457 1.327 . S
C455 H478 0.950 . S
C456 C455 1.349 . S
C456 C468 1.349 . S
C457 C455 1.327 . S
C457 C473 1.429 . S
C457 H479 0.950 . S
C458 H454 0.949 . S
C458 C466 1.574 . S
C458 C474 1.368 . S
H459 C467 0.950 . S
H460 C465 0.950 . S
H461 C466 0.949 . S
H462 C468 0.950 . S
H463 C469 0.950 . S
H464 C470 0.949 . S
C465 H460 0.950 . S
C465 C467 1.327 . S
C465 C471 1.429 . S
C466 C458 1.574 . S
C466 H461 0.949 . S
C466 C472 1.368 . S
C467 C451 1.349 . S
C467 H459 0.950 . S
C467 C465 1.327 . S
C468 C456 1.349 . S
C468 H462 0.950 . S
C468 C469 1.327 . S
C469 H463 0.950 . S
C469 C468 1.327 . S
C469 C473 1.429 . S
C470 C453 1.574 . S
C470 H464 0.949 . S
C470 C474 1.368 . S
C471 C452 1.429 . S
C471 C465 1.429 . S
C471 C472 1.523 . S
C472 C453 1.368 . S
C472 C466 1.368 . S
C472 C471 1.523 . S
C473 C457 1.429 . S
C473 C469 1.429 . S
C473 C474 1.523 . S
C474 C458 1.368 . S
C474 C470 1.368 . S
C474 C473 1.523 . S
H475 C450 0.950 . S
H476 C452 0.950 . S
H477 C453 0.949 . S
H478 C455 0.950 . S
H479 C457 0.950 . S
C480 C481 1.349 1_556 S
C480 C482 1.327 . S
C480 H505 0.950 . S
C481 C480 1.349 1_554 S
C481 C497 1.349 . S
C482 C480 1.327 . S
C482 C501 1.429 1_556 S
C482 H506 0.950 . S
C483 C500 1.574 . S
C483 C502 1.368 . S
C483 H507 0.949 . S
H484 C488 0.949 . S
C485 C486 1.349 . S
C485 C487 1.327 . S
C485 H508 0.950 . S
C486 C485 1.349 . S
C486 C498 1.349 1_554 S
C487 C485 1.327 . S
C487 C503 1.429 . S
C487 H509 0.950 . S
C488 H484 0.949 . S
C488 C496 1.574 . S
C488 C504 1.368 1_556 S
H489 C497 0.950 . S
H490 C495 0.950 . S
H491 C496 0.949 . S
H492 C498 0.950 . S
H493 C499 0.950 . S
H494 C500 0.949 . S
C495 H490 0.950 . S
C495 C497 1.327 . S
C495 C501 1.429 . S
C496 C488 1.574 . S
C496 H491 0.949 . S
C496 C502 1.368 1_556 S
C497 C481 1.349 . S
C497 H489 0.950 . S
C497 C495 1.327 . S
C498 C486 1.349 1_556 S
C498 H492 0.950 . S
C498 C499 1.327 . S
C499 H493 0.950 . S
C499 C498 1.327 . S
C499 C503 1.429 1_556 S
C500 C483 1.574 . S
C500 H494 0.949 . S
C500 C504 1.368 . S
C501 C482 1.429 1_554 S
C501 C495 1.429 . S
C501 C502 1.523 . S
C502 C483 1.368 . S
C502 C496 1.368 1_554 S
C502 C501 1.523 . S
C503 C487 1.429 . S
C503 C499 1.429 1_554 S
C503 C504 1.523 . S
C504 C488 1.368 1_554 S
C504 C500 1.368 . S
C504 C503 1.523 . S
H505 C480 0.950 . S
H506 C482 0.950 . S
H507 C483 0.949 . S
H508 C485 0.950 . S
H509 C487 0.950 . S
C510 C511 1.349 1_556 S
C510 C512 1.327 . S
C510 H535 0.950 . S
C511 C510 1.349 1_554 S
C511 C527 1.349 . S
C512 C510 1.327 . S
C512 C531 1.429 1_556 S
C512 H536 0.950 . S
C513 C530 1.574 . S
C513 C532 1.368 . S
C513 H537 0.949 . S
H514 C518 0.949 . S
C515 C516 1.349 . S
C515 C517 1.327 . S
C515 H538 0.950 . S
C516 C515 1.349 . S
C516 C528 1.349 1_554 S
C517 C515 1.327 . S
C517 C533 1.429 . S
C517 H539 0.950 . S
C518 H514 0.949 . S
C518 C526 1.574 . S
C518 C534 1.368 1_556 S
H519 C527 0.950 . S
H520 C525 0.950 . S
H521 C526 0.949 . S
H522 C528 0.950 . S
H523 C529 0.950 . S
H524 C530 0.949 . S
C525 H520 0.950 . S
C525 C527 1.327 . S
C525 C531 1.429 . S
C526 C518 1.574 . S
C526 H521 0.949 . S
C526 C532 1.368 1_556 S
C527 C511 1.349 . S
C527 H519 0.950 . S
C527 C525 1.327 . S
C528 C516 1.349 1_556 S
C528 H522 0.950 . S
C528 C529 1.327 . S
C529 H523 0.950 . S
C529 C528 1.327 . S
C529 C533 1.429 1_556 S
C530 C513 1.574 . S
C530 H524 0.949 . S
C530 C534 1.368 . S
C531 C512 1.429 1_554 S
C531 C525 1.429 . S
C531 C532 1.523 . S
C532 C513 1.368 . S
C532 C526 1.368 1_554 S
C532 C531 1.523 . S
C533 C517 1.429 . S
C533 C529 1.429 1_554 S
C533 C534 1.523 . S
C534 C518 1.368 1_554 S
C534 C530 1.368 . S
C534 C533 1.523 . S
H535 C510 0.950 . S
H536 C512 0.950 . S
H537 C513 0.949 . S
H538 C515 0.950 . S
H539 C517 0.950 . S
C540 C541 1.349 1_556 S
C540 C542 1.327 . S
C540 H565 0.950 . S
C541 C540 1.349 1_554 S
C541 C557 1.349 . S
C542 C540 1.327 . S
C542 C561 1.429 1_556 S
C542 H566 0.950 . S
C543 C560 1.574 . S
C543 C562 1.368 . S
C543 H567 0.949 . S
H544 C548 0.949 . S
C545 C546 1.349 . S
C545 C547 1.327 . S
C545 H568 0.950 . S
C546 C545 1.349 . S
C546 C558 1.349 1_554 S
C547 C545 1.327 . S
C547 C563 1.429 . S
C547 H569 0.950 . S
C548 H544 0.949 . S
C548 C556 1.574 . S
C548 C564 1.368 1_556 S
H549 C557 0.950 . S
H550 C555 0.950 . S
H551 C556 0.949 . S
H552 C558 0.950 . S
H553 C559 0.950 . S
H554 C560 0.949 . S
C555 H550 0.950 . S
C555 C557 1.327 . S
C555 C561 1.429 . S
C556 C548 1.574 . S
C556 H551 0.949 . S
C556 C562 1.368 1_556 S
C557 C541 1.349 . S
C557 H549 0.950 . S
C557 C555 1.327 . S
C558 C546 1.349 1_556 S
C558 H552 0.950 . S
C558 C559 1.327 . S
C559 H553 0.950 . S
C559 C558 1.327 . S
C559 C563 1.429 1_556 S
C560 C543 1.574 . S
C560 H554 0.949 . S
C560 C564 1.368 . S
C561 C542 1.429 1_554 S
C561 C555 1.429 . S
C561 C562 1.523 . S
C562 C543 1.368 . S
C562 C556 1.368 1_554 S
C562 C561 1.523 . S
C563 C547 1.429 . S
C563 C559 1.429 1_554 S
C563 C564 1.523 . S
C564 C548 1.368 1_554 S
C564 C560 1.368 . S
C564 C563 1.523 . S
H565 C540 0.950 . S
H566 C542 0.950 . S
H567 C543 0.949 . S
H568 C545 0.950 . S
H569 C547 0.950 . S
C570 C571 1.349 1_556 S
C570 C572 1.327 . S
C570 H595 0.950 . S
C571 C570 1.349 1_554 S
C571 C587 1.349 . S
C572 C570 1.327 . S
C572 C591 1.429 1_556 S
C572 H596 0.950 . S
C573 C590 1.574 . S
C573 C592 1.368 . S
C573 H597 0.949 . S
H574 C578 0.949 . S
C575 C576 1.349 . S
C575 C577 1.327 . S
C575 H598 0.950 . S
C576 C575 1.349 . S
C576 C588 1.349 1_554 S
C577 C575 1.327 . S
C577 C593 1.429 . S
C577 H599 0.950 . S
C578 H574 0.949 . S
C578 C586 1.574 . S
C578 C594 1.368 1_556 S
H579 C587 0.950 . S
H580 C585 0.950 . S
H581 C586 0.949 . S
H582 C588 0.950 . S
H583 C589 0.950 . S
H584 C590 0.949 . S
C585 H580 0.950 . S
C585 C587 1.327 . S
C585 C591 1.429 . S
C586 C578 1.574 . S
C586 H581 0.949 . S
C586 C592 1.368 1_556 S
C587 C571 1.349 . S
C587 H579 0.950 . S
C587 C585 1.327 . S
C588 C576 1.349 1_556 S
C588 H582 0.950 . S
C588 C589 1.327 . S
C589 H583 0.950 . S
C589 C588 1.327 . S
C589 C593 1.429 1_556 S
C590 C573 1.574 . S
C590 H584 0.949 . S
C590 C594 1.368 . S
C591 C572 1.429 1_554 S
C591 C585 1.429 . S
C591 C592 1.523 . S
C592 C573 1.368 . S
C592 C586 1.368 1_554 S
C592 C591 1.523 . S
C593 C577 1.429 . S
C593 C589 1.429 1_554 S
C593 C594 1.523 . S
C594 C578 1.368 1_554 S
C594 C590 1.368 . S
C594 C593 1.523 . S
H595 C570 0.950 . S
H596 C572 0.950 . S
H597 C573 0.949 . S
H598 C575 0.950 . S
H599 C577 0.950 . S
C600 C601 1.349 . S
C600 C602 1.327 . S
C600 H625 0.950 . S
C601 C600 1.349 . S
C601 C617 1.349 . S
C602 C600 1.327 . S
C602 C621 1.429 . S
C602 H626 0.950 . S
C603 C620 1.574 . S
C603 C622 1.368 . S
C603 H627 0.949 . S
H604 C608 0.949 . S
C605 C606 1.349 . S
C605 C607 1.327 . S
C605 H628 0.950 . S
C606 C605 1.349 . S
C606 C618 1.349 . S
C607 C605 1.327 . S
C607 C623 1.429 . S
C607 H629 0.950 . S
C608 H604 0.949 . S
C608 C616 1.574 . S
C608 C624 1.368 . S
H609 C617 0.950 . S
H610 C615 0.950 . S
H611 C616 0.949 . S
H612 C618 0.950 . S
H613 C619 0.950 . S
H614 C620 0.949 . S
C615 H610 0.950 . S
C615 C617 1.327 . S
C615 C621 1.429 . S
C616 C608 1.574 . S
C616 H611 0.949 . S
C616 C622 1.368 . S
C617 C601 1.349 . S
C617 H609 0.950 . S
C617 C615 1.327 . S
C618 C606 1.349 . S
C618 H612 0.950 . S
C618 C619 1.327 . S
C619 H613 0.950 . S
C619 C618 1.327 . S
C619 C623 1.429 . S
C620 C603 1.574 . S
C620 H614 0.949 . S
C620 C624 1.368 . S
C621 C602 1.429 . S
C621 C615 1.429 . S
C621 C622 1.523 . S
C622 C603 1.368 . S
C622 C616 1.368 . S
C622 C621 1.523 . S
C623 C607 1.429 . S
C623 C619 1.429 . S
C623 C624 1.523 . S
C624 C608 1.368 . S
C624 C620 1.368 . S
C624 C623 1.523 . S
H625 C600 0.950 . S
H626 C602 0.950 . S
H627 C603 0.949 . S
H628 C605 0.950 . S
H629 C607 0.950 . S
C630 C631 1.349 . S
C630 C632 1.327 . S
C630 H655 0.950 . S
C631 C630 1.349 . S
C631 C647 1.349 . S
C632 C630 1.327 . S
C632 C651 1.429 . S
C632 H656 0.950 . S
C633 C650 1.574 . S
C633 C652 1.368 . S
C633 H657 0.949 . S
H634 C638 0.949 . S
C635 C636 1.349 . S
C635 C637 1.327 . S
C635 H658 0.950 . S
C636 C635 1.349 . S
C636 C648 1.349 . S
C637 C635 1.327 . S
C637 C653 1.429 . S
C637 H659 0.950 . S
C638 H634 0.949 . S
C638 C646 1.574 . S
C638 C654 1.368 . S
H639 C647 0.950 . S
H640 C645 0.950 . S
H641 C646 0.949 . S
H642 C648 0.950 . S
H643 C649 0.950 . S
H644 C650 0.949 . S
C645 H640 0.950 . S
C645 C647 1.327 . S
C645 C651 1.429 . S
C646 C638 1.574 . S
C646 H641 0.949 . S
C646 C652 1.368 . S
C647 C631 1.349 . S
C647 H639 0.950 . S
C647 C645 1.327 . S
C648 C636 1.349 . S
C648 H642 0.950 . S
C648 C649 1.327 . S
C649 H643 0.950 . S
C649 C648 1.327 . S
C649 C653 1.429 . S
C650 C633 1.574 . S
C650 H644 0.949 . S
C650 C654 1.368 . S
C651 C632 1.429 . S
C651 C645 1.429 . S
C651 C652 1.523 . S
C652 C633 1.368 . S
C652 C646 1.368 . S
C652 C651 1.523 . S
C653 C637 1.429 . S
C653 C649 1.429 . S
C653 C654 1.523 . S
C654 C638 1.368 . S
C654 C650 1.368 . S
C654 C653 1.523 . S
H655 C630 0.950 . S
H656 C632 0.950 . S
H657 C633 0.949 . S
H658 C635 0.950 . S
H659 C637 0.950 . S
C660 C661 1.349 . S
C660 C662 1.327 . S
C660 H685 0.950 . S
C661 C660 1.349 . S
C661 C677 1.349 . S
C662 C660 1.327 . S
C662 C681 1.429 . S
C662 H686 0.950 . S
C663 C680 1.574 . S
C663 C682 1.368 . S
C663 H687 0.949 . S
H664 C668 0.949 . S
C665 C666 1.349 . S
C665 C667 1.327 . S
C665 H688 0.950 . S
C666 C665 1.349 . S
C666 C678 1.349 . S
C667 C665 1.327 . S
C667 C683 1.429 . S
C667 H689 0.950 . S
C668 H664 0.949 . S
C668 C676 1.574 . S
C668 C684 1.368 . S
H669 C677 0.950 . S
H670 C675 0.950 . S
H671 C676 0.949 . S
H672 C678 0.950 . S
H673 C679 0.950 . S
H674 C680 0.949 . S
C675 H670 0.950 . S
C675 C677 1.327 . S
C675 C681 1.429 . S
C676 C668 1.574 . S
C676 H671 0.949 . S
C676 C682 1.368 . S
C677 C661 1.349 . S
C677 H669 0.950 . S
C677 C675 1.327 . S
C678 C666 1.349 . S
C678 H672 0.950 . S
C678 C679 1.327 . S
C679 H673 0.950 . S
C679 C678 1.327 . S
C679 C683 1.429 . S
C680 C663 1.574 . S
C680 H674 0.949 . S
C680 C684 1.368 . S
C681 C662 1.429 . S
C681 C675 1.429 . S
C681 C682 1.523 . S
C682 C663 1.368 . S
C682 C676 1.368 . S
C682 C681 1.523 . S
C683 C667 1.429 . S
C683 C679 1.429 . S
C683 C684 1.523 . S
C684 C668 1.368 . S
C684 C680 1.368 . S
C684 C683 1.523 . S
H685 C660 0.950 . S
H686 C662 0.950 . S
H687 C663 0.949 . S
H688 C665 0.950 . S
H689 C667 0.950 . S
C690 C691 1.349 . S
C690 C692 1.327 . S
C690 H715 0.950 . S
C691 C690 1.349 . S
C691 C707 1.349 . S
C692 C690 1.327 . S
C692 C711 1.429 . S
C692 H716 0.950 . S
C693 C710 1.574 . S
C693 C712 1.368 . S
C693 H717 0.949 . S
H694 C698 0.949 . S
C695 C696 1.349 . S
C695 C697 1.327 . S
C695 H718 0.950 . S
C696 C695 1.349 . S
C696 C708 1.349 . S
C697 C695 1.327 . S
C697 C713 1.429 . S
C697 H719 0.950 . S
C698 H694 0.949 . S
C698 C706 1.574 . S
C698 C714 1.368 . S
H699 C707 0.950 . S
H700 C705 0.950 . S
H701 C706 0.949 . S
H702 C708 0.950 . S
H703 C709 0.950 . S
H704 C710 0.949 . S
C705 H700 0.950 . S
C705 C707 1.327 . S
C705 C711 1.429 . S
C706 C698 1.574 . S
C706 H701 0.949 . S
C706 C712 1.368 . S
C707 C691 1.349 . S
C707 H699 0.950 . S
C707 C705 1.327 . S
C708 C696 1.349 . S
C708 H702 0.950 . S
C708 C709 1.327 . S
C709 H703 0.950 . S
C709 C708 1.327 . S
C709 C713 1.429 . S
C710 C693 1.574 . S
C710 H704 0.949 . S
C710 C714 1.368 . S
C711 C692 1.429 . S
C711 C705 1.429 . S
C711 C712 1.523 . S
C712 C693 1.368 . S
C712 C706 1.368 . S
C712 C711 1.523 . S
C713 C697 1.429 . S
C713 C709 1.429 . S
C713 C714 1.523 . S
C714 C698 1.368 . S
C714 C710 1.368 . S
C714 C713 1.523 . S
H715 C690 0.950 . S
H716 C692 0.950 . S
H717 C693 0.949 . S
H718 C695 0.950 . S
H719 C697 0.950 . S
C720 C721 1.349 . S
C720 C722 1.327 . S
C720 H745 0.950 . S
C721 C720 1.349 . S
C721 C737 1.349 . S
C722 C720 1.327 . S
C722 C741 1.429 . S
C722 H746 0.950 . S
C723 C740 1.574 . S
C723 C742 1.368 . S
C723 H747 0.949 . S
H724 C728 0.949 . S
C725 C726 1.349 . S
C725 C727 1.327 . S
C725 H748 0.950 . S
C726 C725 1.349 . S
C726 C738 1.349 . S
C727 C725 1.327 . S
C727 C743 1.429 . S
C727 H749 0.950 . S
C728 H724 0.949 . S
C728 C736 1.574 . S
C728 C744 1.368 . S
H729 C737 0.950 . S
H730 C735 0.950 . S
H731 C736 0.949 . S
H732 C738 0.950 . S
H733 C739 0.950 . S
H734 C740 0.949 . S
C735 H730 0.950 . S
C735 C737 1.327 . S
C735 C741 1.429 . S
C736 C728 1.574 . S
C736 H731 0.949 . S
C736 C742 1.368 . S
C737 C721 1.349 . S
C737 H729 0.950 . S
C737 C735 1.327 . S
C738 C726 1.349 . S
C738 H732 0.950 . S
C738 C739 1.327 . S
C739 H733 0.950 . S
C739 C738 1.327 . S
C739 C743 1.429 . S
C740 C723 1.574 . S
C740 H734 0.949 . S
C740 C744 1.368 . S
C741 C722 1.429 . S
C741 C735 1.429 . S
C741 C742 1.523 . S
C742 C723 1.368 . S
C742 C736 1.368 . S
C742 C741 1.523 . S
C743 C727 1.429 . S
C743 C739 1.429 . S
C743 C744 1.523 . S
C744 C728 1.368 . S
C744 C740 1.368 . S
C744 C743 1.523 . S
H745 C720 0.950 . S
H746 C722 0.950 . S
H747 C723 0.949 . S
H748 C725 0.950 . S
H749 C727 0.950 . S
C750 C751 1.349 . S
C750 C752 1.327 . S
C750 H775 0.950 . S
C751 C750 1.349 . S
C751 C767 1.349 . S
C752 C750 1.327 . S
C752 C771 1.429 . S
C752 H776 0.950 . S
C753 C770 1.574 . S
C753 C772 1.368 . S
C753 H777 0.949 . S
H754 C758 0.949 . S
C755 C756 1.349 . S
C755 C757 1.327 . S
C755 H778 0.950 . S
C756 C755 1.349 . S
C756 C768 1.349 . S
C757 C755 1.327 . S
C757 C773 1.429 . S
C757 H779 0.950 . S
C758 H754 0.949 . S
C758 C766 1.574 . S
C758 C774 1.368 . S
H759 C767 0.950 . S
H760 C765 0.950 . S
H761 C766 0.949 . S
H762 C768 0.950 . S
H763 C769 0.950 . S
H764 C770 0.949 . S
C765 H760 0.950 . S
C765 C767 1.327 . S
C765 C771 1.429 . S
C766 C758 1.574 . S
C766 H761 0.949 . S
C766 C772 1.368 . S
C767 C751 1.349 . S
C767 H759 0.950 . S
C767 C765 1.327 . S
C768 C756 1.349 . S
C768 H762 0.950 . S
C768 C769 1.327 . S
C769 H763 0.950 . S
C769 C768 1.327 . S
C769 C773 1.429 . S
C770 C753 1.574 . S
C770 H764 0.949 . S
C770 C774 1.368 . S
C771 C752 1.429 . S
C771 C765 1.429 . S
C771 C772 1.523 . S
C772 C753 1.368 . S
C772 C766 1.368 . S
C772 C771 1.523 . S
C773 C757 1.429 . S
C773 C769 1.429 . S
C773 C774 1.523 . S
C774 C758 1.368 . S
C774 C770 1.368 . S
C774 C773 1.523 . S
H775 C750 0.950 . S
H776 C752 0.950 . S
H777 C753 0.949 . S
H778 C755 0.950 . S
H779 C757 0.950 . S
C241 C219 1.623 1_556 S
C246 C15 1.497 . S
C271 C19 1.623 1_556 S
C276 C55 1.497 . S
C301 C59 1.623 1_556 S
C306 C95 1.497 . S
C331 C135 1.497 . S
C336 C99 1.623 1_556 S
C361 C175 1.497 . S
C366 C139 1.623 1_556 S
C391 C179 1.623 1_556 S
C396 C215 1.497 . S
C421 C170 2.024 1_554 S
C426 C6 2.025 . S
C451 C210 2.024 1_554 S
C456 C46 2.026 . S
C481 C86 2.026 . S
C486 C10 2.024 1_554 S
C511 C126 2.026 . S
C516 C50 2.024 1_554 S
C541 C166 2.025 . S
C546 C90 2.024 1_554 S
C571 C130 2.024 1_554 S
C576 C206 2.026 . S
C601 C9 1.442 . S
C606 C18 1.442 . S
C631 C49 1.442 . S
C636 C58 1.442 . S
C661 C89 1.442 . S
C666 C98 1.442 . S
C691 C129 1.442 . S
C696 C138 1.442 . S
C721 C178 1.442 . S
C726 C169 1.442 . S
C751 C209 1.442 . S
C756 C218 1.442 . S
