# Generated by pormake.
# Topology msp, (4)-cn, num edge types: 1
# Building blocks:
#     Node 0, Type 0, BuildingBlock: CEKHIL_clean_sbu_0, # of connection points: 4
#     Node 1, Type 0, BuildingBlock: CEKHIL_clean_sbu_0, # of connection points: 4
#     Node 2, Type 0, BuildingBlock: CEKHIL_clean_sbu_0, # of connection points: 4
#     Node 3, Type 0, BuildingBlock: CEKHIL_clean_sbu_0, # of connection points: 4
#     Node 4, Type 0, BuildingBlock: CEKHIL_clean_sbu_0, # of connection points: 4
#     Node 5, Type 0, BuildingBlock: CEKHIL_clean_sbu_0, # of connection points: 4
#     Node 6, Type 0, BuildingBlock: CEKHIL_clean_sbu_0, # of connection points: 4
#     Node 7, Type 0, BuildingBlock: CEKHIL_clean_sbu_0, # of connection points: 4
#     Edge 8, Type (0, 0), BuildingBlock: ZUJKAS_clean_linker_0, # of connection points: 2
#     Edge 9, Type (0, 0), BuildingBlock: ZUJKAS_clean_linker_0, # of connection points: 2
#     Edge 10, Type (0, 0), BuildingBlock: ZUJKAS_clean_linker_0, # of connection points: 2
#     Edge 11, Type (0, 0), BuildingBlock: ZUJKAS_clean_linker_0, # of connection points: 2
#     Edge 12, Type (0, 0), BuildingBlock: ZUJKAS_clean_linker_0, # of connection points: 2
#     Edge 13, Type (0, 0), BuildingBlock: ZUJKAS_clean_linker_0, # of connection points: 2
#     Edge 14, Type (0, 0), BuildingBlock: ZUJKAS_clean_linker_0, # of connection points: 2
#     Edge 15, Type (0, 0), BuildingBlock: ZUJKAS_clean_linker_0, # of connection points: 2
#     Edge 16, Type (0, 0), BuildingBlock: ZUJKAS_clean_linker_0, # of connection points: 2
#     Edge 17, Type (0, 0), BuildingBlock: ZUJKAS_clean_linker_0, # of connection points: 2
#     Edge 18, Type (0, 0), BuildingBlock: ZUJKAS_clean_linker_0, # of connection points: 2
#     Edge 19, Type (0, 0), BuildingBlock: ZUJKAS_clean_linker_0, # of connection points: 2
#     Edge 20, Type (0, 0), BuildingBlock: ZUJKAS_clean_linker_0, # of connection points: 2
#     Edge 21, Type (0, 0), BuildingBlock: ZUJKAS_clean_linker_0, # of connection points: 2
#     Edge 22, Type (0, 0), BuildingBlock: ZUJKAS_clean_linker_0, # of connection points: 2
#     Edge 23, Type (0, 0), BuildingBlock: ZUJKAS_clean_linker_0, # of connection points: 2
# Relax obj value: 0.161
# Max RMSD: 0.204
# Mean RMSD: 0.204
data_MOF--net-msp--node1-CEKHIL_clean_sbu_0--edge1-ZUJKAS_clean_linker_0
_symmetry_space_group_name_H-M    P1
_symmetry_Int_Tables_number       1
_symmetry_cell_setting            triclinic
loop_
_symmetry_equiv_pos_as_xyz
'x, y, z'
_cell_length_a     30.457269
_cell_length_b     29.92633
_cell_length_c     50.769671
_cell_angle_alpha  90.037835
_cell_angle_beta   99.438278
_cell_angle_gamma 89.940199
loop_
_atom_site_label
_atom_site_type_symbol
_atom_site_fract_x
_atom_site_fract_y
_atom_site_fract_z
_atom_type_partial_charge
Co0 Co 0.01877 0.30154 0.35375 0.0
O1 O 0.97099 0.32416 0.32815 0.0
O2 O 0.98464 0.2522 0.33601 0.0
C3 C 0.00758 0.34736 0.387 0.0
O4 O 0.06527 0.26707 0.37952 0.0
Co5 Co 0.09593 0.36791 0.37471 0.0
O6 O 0.1183 0.31616 0.39731 0.0
C7 C 0.08981 0.32871 0.32118 0.0
C8 C 0.95978 0.28299 0.32291 0.0
C9 C 0.10166 0.27695 0.39521 0.0
O10 O 0.05908 0.30201 0.32609 0.0
O11 O 0.10534 0.36051 0.33684 0.0
O12 O 0.9843 0.31101 0.3825 0.0
O13 O 0.03292 0.35666 0.36979 0.0
Co14 Co 0.47426 0.3072 0.63496 0.0
O15 O 0.51821 0.32849 0.66344 0.0
O16 O 0.50781 0.25722 0.65223 0.0
C17 C 0.48905 0.35761 0.60495 0.0
O18 O 0.43241 0.27366 0.60609 0.0
Co19 Co 0.39694 0.37075 0.61014 0.0
O20 O 0.38949 0.32486 0.58151 0.0
C21 C 0.39498 0.32702 0.66217 0.0
C22 C 0.53039 0.28722 0.66738 0.0
C23 C 0.40405 0.28506 0.58549 0.0
O24 O 0.4293 0.30322 0.6597 0.0
O25 O 0.37962 0.35797 0.64579 0.0
O26 O 0.51305 0.32159 0.60905 0.0
O27 O 0.46012 0.36339 0.62049 0.0
Co28 Co 0.97163 0.69587 0.63465 0.0
O29 O 0.02141 0.67282 0.65858 0.0
O30 O 0.0077 0.74491 0.65124 0.0
C31 C 0.9784 0.65 0.60062 0.0
O32 O 0.92314 0.73067 0.61047 0.0
Co33 Co 0.89253 0.63017 0.61686 0.0
O34 O 0.86844 0.68194 0.59478 0.0
C35 C 0.90555 0.669 0.67067 0.0
C36 C 0.03331 0.71389 0.66354 0.0
C37 C 0.8854 0.72101 0.5961 0.0
O38 O 0.93505 0.69577 0.66421 0.0
O39 O 0.8883 0.63716 0.65558 0.0
O40 O 0.0023 0.68608 0.60426 0.0
O41 O 0.95533 0.64088 0.61904 0.0
Co42 Co 0.5154 0.69844 0.35365 0.0
O43 O 0.47277 0.67732 0.32445 0.0
O44 O 0.4834 0.74863 0.33553 0.0
C45 C 0.49779 0.64878 0.38328 0.0
O46 O 0.55615 0.73179 0.38319 0.0
Co47 Co 0.59058 0.63414 0.38039 0.0
O48 O 0.59635 0.68008 0.40894 0.0
C49 C 0.59642 0.67661 0.32846 0.0
C50 C 0.4613 0.71869 0.3201 0.0
C51 C 0.58276 0.72011 0.40448 0.0
O52 O 0.56217 0.70109 0.33002 0.0
O53 O 0.61047 0.64591 0.34534 0.0
O54 O 0.47453 0.68515 0.37855 0.0
O55 O 0.52782 0.64228 0.36855 0.0
Co56 Co 0.5131 0.80511 0.85228 0.0
O57 O 0.47171 0.82077 0.82119 0.0
O58 O 0.48462 0.75158 0.83605 0.0
C59 C 0.49088 0.85779 0.87873 0.0
O60 O 0.55333 0.77741 0.88425 0.0
Co61 Co 0.58344 0.87598 0.8769 0.0
O62 O 0.59135 0.83343 0.90725 0.0
C63 C 0.59667 0.82489 0.82894 0.0
C64 C 0.46236 0.77862 0.81865 0.0
C65 C 0.57953 0.79253 0.90485 0.0
O66 O 0.56242 0.80047 0.83051 0.0
O67 O 0.60802 0.85858 0.84411 0.0
O68 O 0.46942 0.82021 0.87514 0.0
O69 O 0.52165 0.86353 0.86445 0.0
Co70 Co 0.98081 0.79835 0.13325 0.0
O71 O 0.02179 0.81383 0.16454 0.0
O72 O 0.00996 0.74486 0.14905 0.0
C73 C 0.00267 0.85208 0.10748 0.0
O74 O 0.94121 0.77078 0.10095 0.0
Co75 Co 0.90956 0.86838 0.10868 0.0
O76 O 0.90377 0.82697 0.07781 0.0
C77 C 0.89661 0.81621 0.1563 0.0
C78 C 0.03181 0.77178 0.16668 0.0
C79 C 0.91576 0.78612 0.08012 0.0
O80 O 0.9315 0.7926 0.15489 0.0
O81 O 0.88451 0.8496 0.14105 0.0
O82 O 0.0245 0.81465 0.11072 0.0
O83 O 0.97147 0.85696 0.12156 0.0
Co84 Co 0.47798 0.19493 0.13278 0.0
O85 O 0.52122 0.17731 0.16258 0.0
O86 O 0.50916 0.24719 0.14879 0.0
C87 C 0.49575 0.14245 0.10473 0.0
O88 O 0.43642 0.22462 0.10211 0.0
Co89 Co 0.40373 0.12694 0.10959 0.0
O90 O 0.39528 0.17012 0.07955 0.0
C91 C 0.39722 0.17652 0.15914 0.0
C92 C 0.53193 0.21914 0.16531 0.0
C93 C 0.40867 0.21054 0.0819 0.0
O94 O 0.43131 0.2004 0.1564 0.0
O95 O 0.3836 0.14348 0.14394 0.0
O96 O 0.51866 0.17919 0.10818 0.0
O97 O 0.46645 0.13715 0.12008 0.0
Co98 Co 0.01309 0.19542 0.85645 0.0
O99 O 0.96964 0.17691 0.82699 0.0
O100 O 0.9814 0.24719 0.84008 0.0
C101 C -0.004 0.14363 0.88501 0.0
O102 O 0.05486 0.22599 0.88668 0.0
Co103 Co 0.08792 0.12815 0.88002 0.0
O104 O 0.09612 0.17201 0.90973 0.0
C105 C 0.09325 0.17601 0.82977 0.0
C106 C 0.95865 0.21863 0.82391 0.0
C107 C 0.08264 0.21239 0.90702 0.0
O108 O 0.05928 0.20016 0.83251 0.0
O109 O 0.10722 0.14346 0.84528 0.0
O110 O 0.97289 0.18028 0.88143 0.0
O111 O 0.02513 0.13806 0.86957 0.0
H112 H 0.05571 0.4225 0.40103 0.0
H113 H 0.04979 0.47279 0.43815 0.0
H114 H 0.94853 0.38845 0.46209 0.0
H115 H 0.95402 0.33785 0.42476 0.0
H116 H 0.92718 0.48189 0.45714 0.0
H117 H 0.09268 0.45062 0.51865 0.0
H118 H 0.09417 0.46295 0.48418 0.0
H119 H 0.06757 0.41271 0.49282 0.0
C120 C 0.03243 0.41443 0.41431 0.0
C121 C 0.00532 0.37631 0.4101 0.0
C122 C 0.02926 0.44305 0.43554 0.0
C123 C -0.00087 0.43388 0.4529 0.0
C124 C 0.97213 0.39576 0.44887 0.0
H125 H 0.92794 0.5758 0.5879 0.0
H126 H 0.93081 0.52447 0.55079 0.0
C127 C 0.97535 0.36698 0.42764 0.0
C128 C 0.99454 0.46534 0.47454 0.0
H129 H 0.05189 0.51293 0.53083 0.0
C130 C 0.95423 0.48852 0.4734 0.0
C131 C 0.03011 0.4738 0.49552 0.0
C132 C 0.07348 0.44847 0.4981 0.0
C133 C 0.94887 0.5209 0.49255 0.0
C134 C 0.98459 0.5296 0.51338 0.0
C135 C 0.02477 0.5062 0.51462 0.0
C136 C 0.98073 0.56218 0.53457 0.0
C137 C 0.90551 0.54619 0.49007 0.0
C138 C 0.0081 0.60009 0.53764 0.0
C139 C 0.00662 0.62944 0.55883 0.0
C140 C 0.97805 0.62088 0.57731 0.0
C141 C 0.95023 0.5832 0.57391 0.0
C142 C 0.95163 0.554 0.55269 0.0
H143 H 0.88546 0.54286 0.46981 0.0
H144 H 0.88561 0.53276 0.50473 0.0
H145 H 0.91159 0.58222 0.4945 0.0
H146 H 0.0309 0.60664 0.52381 0.0
H147 H 0.02843 0.65824 0.56103 0.0
H148 H 0.44577 0.65944 0.42201 0.0
H149 H 0.44353 0.61048 0.46059 0.0
H150 H 0.53889 0.5223 0.43337 0.0
H151 H 0.54155 0.57072 0.39511 0.0
H152 H 0.42345 0.51487 0.46024 0.0
H153 H 0.59444 0.55547 0.51128 0.0
H154 H 0.56409 0.59037 0.48548 0.0
H155 H 0.59032 0.5399 0.47677 0.0
C156 C 0.46609 0.62954 0.42428 0.0
C157 C 0.49409 0.61898 0.40576 0.0
C158 C 0.46481 0.60175 0.44624 0.0
C159 C 0.49165 0.56341 0.44988 0.0
C160 C 0.51865 0.55229 0.43106 0.0
H161 H 0.53976 0.34923 0.56543 0.0
H162 H 0.53985 0.39926 0.52713 0.0
C163 C 0.51997 0.5799 0.40921 0.0
C164 C 0.49152 0.53451 0.47325 0.0
H165 H 0.55851 0.49429 0.52858 0.0
C166 C 0.45277 0.51054 0.47533 0.0
C167 C 0.53007 0.52901 0.49266 0.0
C168 C 0.57203 0.5553 0.49166 0.0
C169 C 0.45183 0.48022 0.49622 0.0
C170 C 0.49047 0.47454 0.51555 0.0
C171 C 0.52913 0.4987 0.51353 0.0
C172 C 0.4909 0.44466 0.53856 0.0
C173 C 0.40991 0.45386 0.49719 0.0
C174 C 0.46401 0.45443 0.55767 0.0
C175 C 0.46392 0.42618 0.57939 0.0
C176 C 0.49094 0.38784 0.58241 0.0
C177 C 0.51859 0.37854 0.56351 0.0
C178 C 0.51864 0.40694 0.5417 0.0
H179 H 0.38725 0.45412 0.47766 0.0
H180 H 0.41789 0.41865 0.50304 0.0
H181 H 0.39186 0.46886 0.51233 0.0
H182 H 0.44309 0.48394 0.55576 0.0
H183 H 0.44254 0.43439 0.59378 0.0
H184 H 0.54228 0.15334 0.06346 0.0
H185 H 0.53966 0.10491 0.02421 0.0
H186 H 0.45106 0.01508 0.0562 0.0
H187 H 0.45316 0.06316 0.09521 0.0
H188 H 0.56088 0.01135 0.02209 0.0
H189 H 0.38384 0.04778 0.98109 0.0
H190 H 0.41645 0.08235 0.00615 0.0
H191 H 0.39398 0.03026 0.01539 0.0
C192 C 0.52251 0.12311 0.06216 0.0
C193 C 0.49765 0.1121 0.0822 0.0
C194 C 0.52097 0.09564 0.03978 0.0
C195 C 0.49447 0.05708 0.03723 0.0
C196 C 0.47089 0.04528 0.05764 0.0
H197 H 0.4429 0.8457 0.91927 0.0
H198 H 0.4423 0.89482 0.95798 0.0
C199 C 0.47235 0.07265 0.07993 0.0
C200 C 0.49146 0.02886 0.01327 0.0
H201 H 0.41857 0.98985 0.96 0.0
C202 C 0.52989 0.00677 0.00841 0.0
C203 C 0.4508 0.02301 -0.00433 0.0
C204 C 0.40894 0.04736 -0.00038 0.0
C205 C 0.52862 0.97824 0.98644 0.0
C206 C 0.488 0.97245 0.96882 0.0
C207 C 0.44953 0.99444 0.9737 0.0
C208 C 0.48537 0.94458 0.94476 0.0
C209 C 0.57052 0.95399 0.98244 0.0
C210 C 0.50861 0.95732 0.92438 0.0
C211 C 0.50904 0.92956 0.90245 0.0
C212 C 0.48598 0.88876 0.9005 0.0
C213 C 0.46099 0.87697 0.92035 0.0
C214 C 0.46067 0.90484 0.9424 0.0
H215 H 0.5958 0.95384 0.00089 0.0
H216 H 0.56308 0.91891 0.97608 0.0
H217 H 0.58521 0.97096 0.96651 0.0
H218 H 0.52715 0.98835 0.92573 0.0
H219 H 0.52822 0.93967 0.88728 0.0
H220 H 0.96403 0.93355 0.09947 0.0
H221 H 0.96608 0.9839 0.06193 0.0
H222 H 0.05529 0.89388 0.03039 0.0
H223 H 0.05313 0.8428 0.06794 0.0
H224 H 0.0398 0.0257 0.04288 0.0
H225 H 0.94515 0.90717 0.97029 0.0
H226 H 0.94833 0.90126 0.00594 0.0
H227 H 0.99469 0.88524 0.99026 0.0
C228 C 0.98437 0.92459 0.08466 0.0
C229 C 0.00807 0.88412 0.08638 0.0
C230 C 0.98557 0.95342 0.06331 0.0
C231 C 0.0103 0.94211 0.04336 0.0
C232 C 0.03555 0.90266 0.04554 0.0
H233 H 0.03826 0.06419 0.8942 0.0
H234 H 0.04086 0.01612 0.93318 0.0
C235 C 0.03445 0.87374 0.06698 0.0
C236 C 0.00788 0.97095 0.01974 0.0
H237 H 0.96878 0.97455 0.95293 0.0
C238 C 0.02435 0.01465 0.02317 0.0
C239 C 0.98729 0.95621 -0.00574 0.0
C240 C 0.96748 0.91005 0.98985 0.0
C241 C 0.02139 0.04404 0.0015 0.0
C242 C 0.00079 0.02928 0.97603 0.0
C243 C 0.98436 0.98558 0.97261 0.0
C244 C -0.00238 0.05811 0.95236 0.0
C245 C 0.04102 0.09026 0.00587 0.0
C246 C 0.97162 0.09707 0.95016 0.0
C247 C 0.96998 0.12467 0.92785 0.0
C248 C 0.99433 0.11344 0.90758 0.0
C249 C 0.01934 0.07376 0.90961 0.0
C250 C 0.02087 0.04627 0.9318 0.0
H251 H 0.06359 0.09312 0.02535 0.0
H252 H 0.05983 0.09925 0.98966 0.0
H253 H 0.01372 0.11491 0.00565 0.0
H254 H 0.95291 0.1062 0.96575 0.0
H255 H 0.95043 0.15507 0.92672 0.0
H256 H 0.57927 0.29744 0.16735 0.0
H257 H 0.65185 0.31223 0.19504 0.0
H258 H 0.64594 0.18474 0.23389 0.0
H259 H 0.57372 0.1701 0.2068 0.0
H260 H 0.67974 0.25324 0.2688 0.0
H261 H 0.76309 0.24541 0.17923 0.0
H262 H 0.71955 0.28631 0.17797 0.0
H263 H 0.70623 0.22789 0.17851 0.0
C264 C 0.5931 0.27308 0.1822 0.0
C265 C 0.57117 0.23242 0.18473 0.0
C266 C 0.63465 0.28135 0.1978 0.0
C267 C 0.65457 0.24907 0.21604 0.0
C268 C 0.63128 0.20988 0.21977 0.0
H269 H 0.91011 0.20604 0.31856 0.0
H270 H 0.83608 0.19563 0.29151 0.0
C271 C 0.59003 0.20158 0.20423 0.0
C272 C 0.70063 0.25438 0.2303 0.0
H273 H 0.80888 0.25892 0.22065 0.0
C274 C 0.70801 0.25458 0.25831 0.0
C275 C 0.73735 0.25561 0.21647 0.0
C276 C 0.73143 0.25343 0.18639 0.0
C277 C 0.75124 0.25649 0.27292 0.0
C278 C 0.7879 0.25754 0.25909 0.0
C279 C 0.78056 0.25768 0.2311 0.0
C280 C 0.83402 0.26124 0.2734 0.0
C281 C 0.75741 0.25817 0.30301 0.0
C282 C 0.85774 0.30073 0.27124 0.0
C283 C 0.89964 0.30667 0.28653 0.0
C284 C 0.91878 0.27305 0.30409 0.0
C285 C 0.89611 0.23243 0.30515 0.0
C286 C 0.85381 0.22662 0.28992 0.0
H287 H 0.72573 0.26548 0.31035 0.0
H288 H 0.76999 0.22538 0.31123 0.0
H289 H 0.78229 0.284 0.31089 0.0
H290 H 0.8431 0.32765 0.25845 0.0
H291 H 0.91652 0.33823 0.28515 0.0
H292 H 0.57256 0.34061 0.70669 0.0
H293 H 0.64579 0.32914 0.73348 0.0
H294 H 0.65405 0.19924 0.69779 0.0
H295 H 0.58007 0.2103 0.67091 0.0
H296 H 0.68564 0.20385 0.75446 0.0
H297 H 0.75872 0.33609 0.69827 0.0
H298 H 0.71086 0.35334 0.71219 0.0
H299 H 0.705 0.31143 0.68649 0.0
C300 C 0.58965 0.30931 0.70476 0.0
C301 C 0.57087 0.2765 0.6865 0.0
C302 C 0.63158 0.30297 0.71997 0.0
C303 C 0.65566 0.26391 0.71704 0.0
C304 C 0.636 0.22984 0.70006 0.0
H305 H 0.91788 0.16904 0.78238 0.0
H306 H 0.84518 0.18244 0.75538 0.0
C307 C 0.59377 0.23609 0.68484 0.0
C308 C 0.70192 0.25956 0.73111 0.0
H309 H 0.80519 0.30656 0.73639 0.0
C310 C 0.71185 0.22611 0.75046 0.0
C311 C 0.7359 0.28883 0.72579 0.0
C312 C 0.72734 0.32423 0.70439 0.0
C313 C 0.75489 0.22159 0.76502 0.0
C314 C 0.78883 0.25088 0.75972 0.0
C315 C 0.77893 0.28436 0.7404 0.0
C316 C 0.8351 0.24611 0.77364 0.0
C317 C 0.76364 0.18593 0.78626 0.0
C318 C 0.8544 0.27878 0.79177 0.0
C319 C 0.8963 0.2714 0.80718 0.0
C320 C 0.91912 0.23124 0.80454 0.0
C321 C 0.90082 0.20009 0.78507 0.0
C322 C 0.85924 0.20754 0.7697 0.0
H323 H 0.73231 0.17335 0.79211 0.0
H324 H 0.78085 0.15731 0.77847 0.0
H325 H 0.78548 0.19885 0.80433 0.0
H326 H 0.83624 0.30897 0.79484 0.0
H327 H 0.90965 0.29591 0.82206 0.0
H328 H 0.07764 0.65871 0.7009 0.0
H329 H 0.15146 0.66923 0.72701 0.0
H330 H 0.15921 0.79977 0.69203 0.0
H331 H 0.08431 0.78981 0.66618 0.0
H332 H 0.22761 0.67985 0.70682 0.0
H333 H 0.2009 0.82484 0.7706 0.0
H334 H 0.1554 0.79341 0.75216 0.0
H335 H 0.18386 0.8347 0.73554 0.0
C336 C 0.09474 0.69 0.69906 0.0
C337 C 0.07533 0.72349 0.6815 0.0
C338 C 0.13696 0.69588 0.71395 0.0
C339 C 0.16077 0.73527 0.71154 0.0
C340 C 0.14106 0.7694 0.69454 0.0
H341 H 0.42527 0.82385 0.77443 0.0
H342 H 0.35382 0.80899 0.74641 0.0
C343 C 0.09837 0.7637 0.67977 0.0
C344 C 0.20712 0.73912 0.72573 0.0
H345 H 0.2757 0.8021 0.771 0.0
C346 C 0.23812 0.70647 0.72095 0.0
C347 C 0.22063 0.77377 0.7442 0.0
C348 C 0.1884 0.80845 0.75117 0.0
C349 C 0.28251 0.70797 0.73386 0.0
C350 C 0.29603 0.74289 0.75205 0.0
C351 C 0.26509 0.77545 0.7569 0.0
C352 C 0.34229 0.7471 0.76612 0.0
C353 C 0.31482 0.6728 0.72765 0.0
C354 C 0.36012 0.71626 0.78587 0.0
C355 C 0.40127 0.72457 0.80193 0.0
C356 C 0.42463 0.76403 0.79852 0.0
C357 C 0.40784 0.79329 0.77763 0.0
C358 C 0.36702 0.78493 0.76162 0.0
H359 H 0.30125 0.65313 0.70958 0.0
H360 H 0.34669 0.68836 0.72462 0.0
H361 H 0.32213 0.64945 0.74478 0.0
H362 H 0.3412 0.68709 0.78979 0.0
H363 H 0.41331 0.70167 0.81802 0.0
H364 H 0.4243 0.66771 0.27824 0.0
H365 H 0.3509 0.67682 0.25125 0.0
H366 H 0.33402 0.80169 0.29087 0.0
H367 H 0.40793 0.79271 0.31819 0.0
H368 H 0.26574 0.73551 0.29276 0.0
H369 H 0.29956 0.76151 0.18964 0.0
H370 H 0.32921 0.71564 0.20719 0.0
H371 H 0.34081 0.77175 0.21888 0.0
C372 C 0.40545 0.6977 0.28077 0.0
C373 C 0.42167 0.72948 0.30035 0.0
C374 C 0.36359 0.7029 0.26525 0.0
C375 C 0.33721 0.73996 0.26903 0.0
C376 C 0.35413 0.77294 0.28764 0.0
H377 H 0.06815 0.81586 0.2115 0.0
H378 H 0.14068 0.80249 0.23849 0.0
C379 C 0.39635 0.76794 0.30308 0.0
C380 C 0.29043 0.74151 0.25552 0.0
H381 H 0.2251 0.7443 0.1942 0.0
C382 C 0.25675 0.73776 0.27122 0.0
C383 C 0.27904 0.74365 0.22744 0.0
C384 C 0.31399 0.74873 0.20975 0.0
C385 C 0.21177 0.73577 0.25952 0.0
C386 C 0.2003 0.73837 0.23143 0.0
C387 C 0.23405 0.74183 0.21573 0.0
C388 C 0.15353 0.74165 0.21797 0.0
C389 C 0.17699 0.73032 0.2773 0.0
C390 C 0.13629 0.7114 0.19772 0.0
C391 C 0.09458 0.71901 0.18215 0.0
C392 C 0.07008 0.75734 0.18646 0.0
C393 C 0.08636 0.78604 0.20774 0.0
C394 C 0.12774 0.77833 0.22329 0.0
H395 H 0.19122 0.71476 0.2967 0.0
H396 H 0.16388 0.7637 0.28154 0.0
H397 H 0.14875 0.70954 0.26753 0.0
H398 H 0.15589 0.68299 0.19327 0.0
H399 H 0.08294 0.69658 0.16575 0.0
H400 H 0.40266 0.25393 0.18836 0.0
H401 H 0.34931 0.28091 0.21589 0.0
H402 H 0.27504 0.15824 0.20158 0.0
H403 H 0.32817 0.13067 0.17442 0.0
H404 H 0.25737 0.292 0.1957 0.0
H405 H 0.28517 0.17656 0.28242 0.0
H406 H 0.32541 0.18394 0.26032 0.0
H407 H 0.27751 0.14903 0.25056 0.0
C408 C 0.37555 0.23225 0.19155 0.0
C409 C 0.36954 0.19022 0.17907 0.0
C410 C 0.34505 0.24785 0.20717 0.0
C411 C 0.3085 0.22145 0.21077 0.0
C412 C 0.30344 0.17882 0.1993 0.0
H413 H 0.07908 0.2554 0.28846 0.0
H414 H 0.12825 0.23174 0.2576 0.0
C415 C 0.33376 0.16323 0.18367 0.0
C416 C 0.27368 0.23959 0.22475 0.0
H417 H 0.21975 0.22116 0.27743 0.0
C418 C 0.24925 0.27679 0.21368 0.0
C419 C 0.26313 0.21929 0.24801 0.0
C420 C 0.2894 0.18023 0.2612 0.0
C421 C 0.21391 0.29392 0.22513 0.0
C422 C 0.2033 0.2735 0.24834 0.0
C423 C 0.22777 0.23635 0.25942 0.0
C424 C 0.16871 0.29146 0.26259 0.0
C425 C 0.18778 0.33317 0.21213 0.0
C426 C 0.17447 0.33348 0.27481 0.0
C427 C 0.14651 0.34716 0.29244 0.0
C428 C 0.11258 0.31879 0.29829 0.0
C429 C 0.10497 0.27802 0.2845 0.0
C430 C 0.13305 0.26436 0.2669 0.0
H431 H 0.19213 0.33716 0.19095 0.0
H432 H 0.15176 0.32946 0.21296 0.0
H433 H 0.19969 0.36419 0.22298 0.0
H434 H 0.2022 0.35458 0.27199 0.0
H435 H 0.15316 0.37888 0.30258 0.0
H436 H 0.40425 0.25341 0.69467 0.0
H437 H 0.353 0.22872 0.72409 0.0
H438 H 0.2761 0.34934 0.70699 0.0
H439 H 0.3267 0.37433 0.67746 0.0
H440 H 0.32203 0.27089 0.76932 0.0
H441 H 0.18844 0.24525 0.68186 0.0
H442 H 0.24623 0.25191 0.67863 0.0
H443 H 0.21343 0.29978 0.68435 0.0
C444 C 0.37689 0.27507 0.69749 0.0
C445 C 0.36911 0.31549 0.68337 0.0
C446 C 0.34766 0.26085 0.71425 0.0
C447 C 0.31042 0.28684 0.71708 0.0
C448 C 0.30425 0.3285 0.70451 0.0
H449 H 0.08509 0.25096 0.79834 0.0
H450 H 0.13732 0.27698 0.76987 0.0
C451 C 0.3333 0.34272 0.68773 0.0
C452 C 0.27671 0.26944 0.73207 0.0
H453 H 0.16856 0.23526 0.72464 0.0
C454 C 0.28851 0.26294 0.75963 0.0
C455 C 0.23315 0.25915 0.71914 0.0
C456 C 0.21947 0.26397 0.68933 0.0
C457 C 0.25742 0.24702 0.77482 0.0
C458 C 0.21386 0.23675 0.7619 0.0
C459 C 0.20206 0.24327 0.73434 0.0
C460 C 0.18016 0.21905 0.77679 0.0
C461 C 0.2711 0.24201 0.80462 0.0
C462 C 0.18627 0.17713 0.78905 0.0
C463 C 0.15663 0.1621 0.80525 0.0
C464 C 0.12029 0.18879 0.80936 0.0
C465 C 0.11283 0.22967 0.79569 0.0
C466 C 0.14262 0.24467 0.77949 0.0
H467 H 0.30213 0.26072 0.81212 0.0
H468 H 0.24434 0.25395 0.81535 0.0
H469 H 0.27717 0.20617 0.80952 0.0
H470 H 0.21467 0.15657 0.78665 0.0
H471 H 0.16309 0.13021 0.8152 0.0
H472 H 0.6682 0.87081 0.81688 0.0
H473 H 0.72516 0.84332 0.79242 0.0
H474 H 0.65246 0.72024 0.77549 0.0
H475 H 0.59526 0.74711 0.8003 0.0
H476 H 0.74418 0.7101 0.79869 0.0
H477 H 0.72087 0.82538 0.71171 0.0
H478 H 0.72579 0.85238 0.74366 0.0
H479 H 0.67872 0.81711 0.73243 0.0
C480 C 0.66383 0.83815 0.80764 0.0
C481 C 0.62722 0.81108 0.81066 0.0
C482 C 0.69639 0.82259 0.7936 0.0
C483 C 0.69278 0.77991 0.78216 0.0
C484 C 0.65564 0.75333 0.78426 0.0
H485 H 0.84462 0.6196 0.69202 0.0
H486 H 0.79902 0.64523 0.72417 0.0
C487 C 0.62293 0.76888 0.79829 0.0
C488 C 0.7291 0.76216 0.76929 0.0
H489 H 0.78496 0.77943 0.71735 0.0
C490 C 0.75313 0.72509 0.78086 0.0
C491 C 0.74072 0.78222 0.74624 0.0
C492 C 0.715 0.82125 0.7326 0.0
C493 C 0.78884 0.70751 0.76992 0.0
C494 C 0.80018 0.72733 0.74672 0.0
C495 C 0.7764 0.76469 0.73535 0.0
C496 C 0.83394 0.70793 0.73235 0.0
C497 C 0.81428 0.66818 0.78333 0.0
C498 C 0.86947 0.73422 0.72692 0.0
C499 C 0.8955 0.71982 0.70836 0.0
C500 C 0.88594 0.67913 0.69475 0.0
C501 C 0.85264 0.65129 0.70194 0.0
C502 C 0.82671 0.66572 0.7205 0.0
H503 H 0.8104 0.66553 0.80465 0.0
H504 H 0.80123 0.63697 0.77312 0.0
H505 H 0.85026 0.67066 0.78209 0.0
H506 H 0.87541 0.76696 0.7359 0.0
H507 H 0.92107 0.74197 0.70343 0.0
H508 H 0.90886 0.74762 0.19259 0.0
H509 H 0.85618 0.72134 0.22073 0.0
H510 H 0.76515 0.82694 0.19082 0.0
H511 H 0.81709 0.85351 0.16261 0.0
H512 H 0.81693 0.77179 0.26028 0.0
H513 H 0.69226 0.70873 0.17609 0.0
H514 H 0.74948 0.71966 0.17291 0.0
H515 H 0.71084 0.7651 0.17262 0.0
C516 C 0.87776 0.76545 0.19209 0.0
C517 C 0.86709 0.80249 0.17519 0.0
C518 C 0.84777 0.75033 0.20813 0.0
C519 C 0.80667 0.7718 0.20733 0.0
C520 C 0.79648 0.80953 0.19122 0.0
H521 H 0.58339 0.74306 0.29078 0.0
H522 H 0.63368 0.76437 0.25996 0.0
C523 C 0.82639 0.82478 0.17527 0.0
C524 C 0.77432 0.75503 0.22348 0.0
H525 H 0.67053 0.70989 0.21892 0.0
C526 C 0.78503 0.75798 0.25132 0.0
C527 C 0.73283 0.73725 0.21151 0.0
C528 C 0.72062 0.73207 0.18164 0.0
C529 C 0.75475 0.74428 0.26765 0.0
C530 C 0.71321 0.72664 0.25569 0.0
C531 C 0.70251 0.72354 0.22785 0.0
C532 C 0.68066 0.71105 0.27201 0.0
C533 C 0.76697 0.74949 0.29752 0.0
C534 C 0.69 0.6732 0.28813 0.0
C535 C 0.6615 0.6609 0.30567 0.0
C536 C 0.62316 0.68632 0.30737 0.0
C537 C 0.61274 0.72294 0.2901 0.0
C538 C 0.64135 0.73516 0.27249 0.0
H539 H 0.79621 0.77172 0.30314 0.0
H540 H 0.73851 0.76327 0.3061 0.0
H541 H 0.77527 0.71624 0.30667 0.0
H542 H 0.71998 0.65394 0.28764 0.0
H543 H 0.67037 0.63223 0.31847 0.0
H544 H 0.38409 0.29157 0.53181 0.0
H545 H 0.33212 0.24476 0.50218 0.0
H546 H 0.3215 0.15561 0.56753 0.0
H547 H 0.37458 0.20233 0.5974 0.0
H548 H 0.32116 0.14282 0.49027 0.0
H549 H 0.19667 0.22293 0.54461 0.0
H550 H 0.25143 0.24708 0.54703 0.0
H551 H 0.24458 0.1941 0.56233 0.0
C552 C 0.37195 0.26111 0.53964 0.0
C553 C 0.38303 0.25062 0.56684 0.0
C554 C 0.34239 0.23431 0.52271 0.0
C555 C 0.3228 0.19696 0.53274 0.0
C556 C 0.33642 0.18427 0.55945 0.0
H557 H 0.07258 0.21222 0.42679 0.0
H558 H 0.12031 0.16641 0.46035 0.0
C559 C 0.36678 0.21085 0.57641 0.0
C560 C 0.28303 0.17748 0.51608 0.0
H561 H 0.1734 0.20464 0.49961 0.0
C562 C 0.28837 0.1546 0.4927 0.0
C563 C 0.24008 0.19181 0.51954 0.0
C564 C 0.23241 0.21528 0.54471 0.0
C565 C 0.25291 0.1509 0.47133 0.0
C566 C 0.21197 0.17219 0.47314 0.0
C567 C 0.20495 0.18897 0.49795 0.0
C568 C 0.1822 0.18875 0.44897 0.0
C569 C 0.26077 0.12746 0.44624 0.0
C570 C 0.20092 0.21561 0.43105 0.0
C571 C 0.17399 0.24177 0.41233 0.0
C572 C 0.12765 0.24176 0.41099 0.0
C573 C 0.1083 0.21247 0.4274 0.0
C574 C 0.13551 0.18637 0.44651 0.0
H575 H 0.28123 0.09696 0.45133 0.0
H576 H 0.22904 0.11789 0.43342 0.0
H577 H 0.27974 0.1498 0.43476 0.0
H578 H 0.23665 0.21939 0.4329 0.0
H579 H 0.18966 0.26405 0.39984 0.0
H580 H 0.91339 0.78786 0.56547 0.0
H581 H 0.86508 0.83426 0.53255 0.0
H582 H 0.74939 0.77723 0.5587 0.0
H583 H 0.79691 0.73197 0.59117 0.0
H584 H 0.8124 0.79696 0.49248 0.0
H585 H 0.70362 0.90025 0.54288 0.0
H586 H 0.75601 0.87899 0.56032 0.0
H587 H 0.70566 0.84633 0.55821 0.0
C588 C 0.87767 0.78673 0.56473 0.0
C589 C 0.85872 0.75615 0.58059 0.0
C590 C 0.85011 0.81318 0.54598 0.0
C591 C 0.80346 0.80991 0.54334 0.0
C592 C 0.78508 0.78165 0.56071 0.0
H593 H 0.59891 0.71352 0.45825 0.0
H594 H 0.65059 0.75896 0.48889 0.0
C595 C 0.81233 0.75515 0.57908 0.0
C596 C 0.77355 0.82742 0.51949 0.0
H597 H 0.66447 0.85735 0.50267 0.0
C598 C 0.78078 0.81227 0.49438 0.0
C599 C 0.73253 0.84821 0.52167 0.0
C600 C 0.72439 0.86978 0.54727 0.0
C601 C 0.74582 0.81064 0.47262 0.0
C602 C 0.70281 0.82465 0.47621 0.0
C603 C 0.69729 0.84586 0.50009 0.0
C604 C 0.66303 0.80646 0.45885 0.0
C605 C 0.75381 0.78879 0.44702 0.0
C606 C 0.65105 0.81956 0.43208 0.0
C607 C 0.62091 0.79371 0.4145 0.0
C608 C 0.60313 0.75431 0.42355 0.0
C609 C 0.6123 0.74366 0.4508 0.0
C610 C 0.64171 0.7697 0.46832 0.0
H611 H 0.78937 0.78004 0.44743 0.0
H612 H 0.73364 0.75783 0.44343 0.0
H613 H 0.74325 0.81168 0.42997 0.0
H614 H 0.66716 0.84788 0.42444 0.0
H615 H 0.61456 0.80238 0.3935 0.0
H616 H 0.88373 0.80574 0.02846 0.0
H617 H 0.82868 0.76353 -0.00145 0.0
H618 H 0.84236 0.65349 0.05422 0.0
H619 H 0.89694 0.69681 0.08502 0.0
H620 H 0.81661 0.68408 0.97274 0.0
H621 H 0.71518 0.68982 0.05482 0.0
H622 H 0.76737 0.71916 0.05787 0.0
H623 H 0.76665 0.6592 0.05983 0.0
C624 C 0.87588 0.77215 0.03415 0.0
C625 C 0.89377 0.75508 0.05938 0.0
C626 C 0.84448 0.74783 0.01692 0.0
C627 C 0.83029 0.70579 0.02445 0.0
C628 C 0.85188 0.68637 0.04831 0.0
H629 H 0.59576 0.70259 0.89976 0.0
H630 H 0.64968 0.65762 0.93003 0.0
C631 C 0.88343 0.71096 0.06576 0.0
C632 C 0.7887 0.68717 0.00892 0.0
H633 H 0.67737 0.68841 0.01127 0.0
C634 C 0.78609 0.68335 0.98114 0.0
C635 C 0.74897 0.6854 0.02002 0.0
C636 C 0.74929 0.68866 0.04973 0.0
C637 C 0.74494 0.68503 0.96399 0.0
C638 C 0.70538 0.6893 0.9751 0.0
C639 C 0.7078 0.68579 0.00287 0.0
C640 C 0.6648 0.70994 0.9596 0.0
C641 C 0.7447 0.68771 0.93427 0.0
C642 C 0.65278 0.75281 0.96713 0.0
C643 C 0.62179 0.77811 0.95021 0.0
C644 C 0.60212 0.76122 0.92525 0.0
C645 C 0.61064 0.71661 0.91881 0.0
C646 C 0.64179 0.69105 0.93595 0.0
H647 H 0.77878 0.68672 0.92916 0.0
H648 H 0.72568 0.65914 0.92422 0.0
H649 H 0.72829 0.71906 0.92613 0.0
H650 H 0.66976 0.76814 0.98533 0.0
H651 H 0.61544 0.81208 0.95597 0.0
H652 H 0.39534 0.30099 0.08729 0.0
H653 H 0.34376 0.34805 0.05679 0.0
H654 H 0.32028 0.23813 0.00119 0.0
H655 H 0.37214 0.1921 0.0308 0.0
H656 H 0.31725 0.31892 0.97552 0.0
H657 H 0.21287 0.32416 0.05612 0.0
H658 H 0.26717 0.34936 0.06148 0.0
H659 H 0.26196 0.28959 0.0598 0.0
C660 C 0.38018 0.2875 0.06815 0.0
C661 C 0.38699 0.24256 0.06165 0.0
C662 C 0.35042 0.31429 0.05087 0.0
C663 C 0.32722 0.29629 0.027 0.0
C664 C 0.33752 0.25284 0.01952 0.0
H665 H 0.11693 0.19575 0.95865 0.0
H666 H 0.16979 0.24144 0.98783 0.0
C667 C 0.36704 0.22633 0.03659 0.0
C668 C 0.28784 0.31846 0.0112 0.0
H669 H 0.17625 0.32343 0.01215 0.0
C670 C 0.28642 0.32178 0.98349 0.0
C671 C 0.24783 0.32329 0.02175 0.0
C672 C 0.24712 0.32147 0.05139 0.0
C673 C 0.24572 0.32166 0.96589 0.0
C674 C 0.20555 0.3194 0.9765 0.0
C675 C 0.20714 0.32432 0.00414 0.0
C676 C 0.16532 0.29819 0.96102 0.0
C677 C 0.24637 0.31795 0.93631 0.0
C678 C 0.14306 0.31571 0.93677 0.0
C679 C 0.11271 0.28911 0.91976 0.0
C680 C 0.10438 0.24487 0.92693 0.0
C681 C 0.12324 0.22941 0.95237 0.0
C682 C 0.15333 0.25574 0.96919 0.0
H683 H 0.2807 0.31862 0.93157 0.0
H684 H 0.23023 0.28633 0.92842 0.0
H685 H 0.22752 0.34617 0.92573 0.0
H686 H 0.151 0.34877 0.93032 0.0
H687 H 0.09841 0.30198 0.9003 0.0
loop_
_geom_bond_atom_site_label_1
_geom_bond_atom_site_label_2
_geom_bond_distance
_geom_bond_site_symmetry_2
_ccdc_geom_bond_type
Co0 O1 2.216 1_455 S
Co0 O2 2.091 1_455 S
Co0 O4 2.004 . S
Co0 O10 2.021 . S
Co0 O12 2.137 1_455 S
Co0 O13 2.244 . S
O1 Co0 2.216 1_655 S
O1 C8 1.247 . S
O2 Co0 2.091 1_655 S
O2 C8 1.261 . S
C3 O12 1.247 1_455 S
C3 O13 1.272 . S
O4 Co0 2.004 . S
O4 C9 1.259 . S
Co5 O6 2.061 . S
Co5 O11 2.052 . S
Co5 O13 2.135 . S
O6 Co5 2.061 . S
O6 C9 1.235 . S
C7 O10 1.238 . S
C7 O11 1.241 . S
C8 O1 1.247 . S
C8 O2 1.261 . S
C9 O4 1.259 . S
C9 O6 1.235 . S
O10 Co0 2.021 . S
O10 C7 1.238 . S
O11 Co5 2.052 . S
O11 C7 1.241 . S
O12 Co0 2.137 1_655 S
O12 C3 1.247 1_655 S
O13 Co0 2.244 . S
O13 C3 1.272 . S
O13 Co5 2.135 . S
Co14 O15 2.216 . S
Co14 O16 2.091 . S
Co14 O18 2.004 . S
Co14 O24 2.021 . S
Co14 O26 2.137 . S
Co14 O27 2.244 . S
O15 Co14 2.216 . S
O15 C22 1.247 . S
O16 Co14 2.091 . S
O16 C22 1.261 . S
C17 O26 1.247 . S
C17 O27 1.272 . S
O18 Co14 2.004 . S
O18 C23 1.259 . S
Co19 O20 2.061 . S
Co19 O25 2.052 . S
Co19 O27 2.135 . S
O20 Co19 2.061 . S
O20 C23 1.235 . S
C21 O24 1.238 . S
C21 O25 1.241 . S
C22 O15 1.247 . S
C22 O16 1.261 . S
C23 O18 1.259 . S
C23 O20 1.235 . S
O24 Co14 2.021 . S
O24 C21 1.238 . S
O25 Co19 2.052 . S
O25 C21 1.241 . S
O26 Co14 2.137 . S
O26 C17 1.247 . S
O27 Co14 2.244 . S
O27 C17 1.272 . S
O27 Co19 2.135 . S
Co28 O29 2.216 1_655 S
Co28 O30 2.091 1_655 S
Co28 O32 2.004 . S
Co28 O38 2.021 . S
Co28 O40 2.137 1_655 S
Co28 O41 2.244 . S
O29 Co28 2.216 1_455 S
O29 C36 1.247 . S
O30 Co28 2.091 1_455 S
O30 C36 1.261 . S
C31 O40 1.247 1_655 S
C31 O41 1.272 . S
O32 Co28 2.004 . S
O32 C37 1.259 . S
Co33 O34 2.061 . S
Co33 O39 2.052 . S
Co33 O41 2.135 . S
O34 Co33 2.061 . S
O34 C37 1.235 . S
C35 O38 1.238 . S
C35 O39 1.241 . S
C36 O29 1.247 . S
C36 O30 1.261 . S
C37 O32 1.259 . S
C37 O34 1.235 . S
O38 Co28 2.021 . S
O38 C35 1.238 . S
O39 Co33 2.052 . S
O39 C35 1.241 . S
O40 Co28 2.137 1_455 S
O40 C31 1.247 1_455 S
O41 Co28 2.244 . S
O41 C31 1.272 . S
O41 Co33 2.135 . S
Co42 O43 2.216 . S
Co42 O44 2.091 . S
Co42 O46 2.004 . S
Co42 O52 2.021 . S
Co42 O54 2.137 . S
Co42 O55 2.244 . S
O43 Co42 2.216 . S
O43 C50 1.247 . S
O44 Co42 2.091 . S
O44 C50 1.261 . S
C45 O54 1.247 . S
C45 O55 1.272 . S
O46 Co42 2.004 . S
O46 C51 1.259 . S
Co47 O48 2.061 . S
Co47 O53 2.052 . S
Co47 O55 2.135 . S
O48 Co47 2.061 . S
O48 C51 1.235 . S
C49 O52 1.238 . S
C49 O53 1.241 . S
C50 O43 1.247 . S
C50 O44 1.261 . S
C51 O46 1.259 . S
C51 O48 1.235 . S
O52 Co42 2.021 . S
O52 C49 1.238 . S
O53 Co47 2.052 . S
O53 C49 1.241 . S
O54 Co42 2.137 . S
O54 C45 1.247 . S
O55 Co42 2.244 . S
O55 C45 1.272 . S
O55 Co47 2.135 . S
Co56 O57 2.216 . S
Co56 O58 2.091 . S
Co56 O60 2.004 . S
Co56 O66 2.021 . S
Co56 O68 2.137 . S
Co56 O69 2.244 . S
O57 Co56 2.216 . S
O57 C64 1.247 . S
O58 Co56 2.091 . S
O58 C64 1.261 . S
C59 O68 1.247 . S
C59 O69 1.272 . S
O60 Co56 2.004 . S
O60 C65 1.259 . S
Co61 O62 2.061 . S
Co61 O67 2.052 . S
Co61 O69 2.135 . S
O62 Co61 2.061 . S
O62 C65 1.235 . S
C63 O66 1.238 . S
C63 O67 1.241 . S
C64 O57 1.247 . S
C64 O58 1.261 . S
C65 O60 1.259 . S
C65 O62 1.235 . S
O66 Co56 2.021 . S
O66 C63 1.238 . S
O67 Co61 2.052 . S
O67 C63 1.241 . S
O68 Co56 2.137 . S
O68 C59 1.247 . S
O69 Co56 2.244 . S
O69 C59 1.272 . S
O69 Co61 2.135 . S
Co70 O71 2.216 1_655 S
Co70 O72 2.091 1_655 S
Co70 O74 2.004 . S
Co70 O80 2.021 . S
Co70 O82 2.137 1_655 S
Co70 O83 2.244 . S
O71 Co70 2.216 1_455 S
O71 C78 1.247 . S
O72 Co70 2.091 1_455 S
O72 C78 1.261 . S
C73 O82 1.247 1_655 S
C73 O83 1.272 . S
O74 Co70 2.004 . S
O74 C79 1.259 . S
Co75 O76 2.061 . S
Co75 O81 2.052 . S
Co75 O83 2.135 . S
O76 Co75 2.061 . S
O76 C79 1.235 . S
C77 O80 1.238 . S
C77 O81 1.241 . S
C78 O71 1.247 . S
C78 O72 1.261 . S
C79 O74 1.259 . S
C79 O76 1.235 . S
O80 Co70 2.021 . S
O80 C77 1.238 . S
O81 Co75 2.052 . S
O81 C77 1.241 . S
O82 Co70 2.137 1_455 S
O82 C73 1.247 1_455 S
O83 Co70 2.244 . S
O83 C73 1.272 . S
O83 Co75 2.135 . S
Co84 O85 2.216 . S
Co84 O86 2.091 . S
Co84 O88 2.004 . S
Co84 O94 2.021 . S
Co84 O96 2.137 . S
Co84 O97 2.244 . S
O85 Co84 2.216 . S
O85 C92 1.247 . S
O86 Co84 2.091 . S
O86 C92 1.261 . S
C87 O96 1.247 . S
C87 O97 1.272 . S
O88 Co84 2.004 . S
O88 C93 1.259 . S
Co89 O90 2.061 . S
Co89 O95 2.052 . S
Co89 O97 2.135 . S
O90 Co89 2.061 . S
O90 C93 1.235 . S
C91 O94 1.238 . S
C91 O95 1.241 . S
C92 O85 1.247 . S
C92 O86 1.261 . S
C93 O88 1.259 . S
C93 O90 1.235 . S
O94 Co84 2.021 . S
O94 C91 1.238 . S
O95 Co89 2.052 . S
O95 C91 1.241 . S
O96 Co84 2.137 . S
O96 C87 1.247 . S
O97 Co84 2.244 . S
O97 C87 1.272 . S
O97 Co89 2.135 . S
Co98 O99 2.216 1_455 S
Co98 O100 2.091 1_455 S
Co98 O102 2.004 . S
Co98 O108 2.021 . S
Co98 O110 2.137 1_455 S
Co98 O111 2.244 . S
O99 Co98 2.216 1_655 S
O99 C106 1.247 . S
O100 Co98 2.091 1_655 S
O100 C106 1.261 . S
C101 O110 1.247 1_455 S
C101 O111 1.272 . S
O102 Co98 2.004 . S
O102 C107 1.259 . S
Co103 O104 2.061 . S
Co103 O109 2.052 . S
Co103 O111 2.135 . S
O104 Co103 2.061 . S
O104 C107 1.235 . S
C105 O108 1.238 . S
C105 O109 1.241 . S
C106 O99 1.247 . S
C106 O100 1.261 . S
C107 O102 1.259 . S
C107 O104 1.235 . S
O108 Co98 2.021 . S
O108 C105 1.238 . S
O109 Co103 2.052 . S
O109 C105 1.241 . S
O110 Co98 2.137 1_655 S
O110 C101 1.247 1_655 S
O111 Co98 2.244 . S
O111 C101 1.272 . S
O111 Co103 2.135 . S
H112 C120 0.929 . S
H113 C122 0.930 . S
H114 C124 0.930 . S
H115 C127 0.929 . S
H116 C130 0.930 . S
H117 C132 0.960 . S
H118 C132 0.960 . S
H119 C132 0.960 . S
C120 H112 0.929 . S
C120 C121 1.377 1_655 S
C120 C122 1.384 . S
C121 C120 1.377 1_455 S
C121 C127 1.390 . S
C122 H113 0.930 . S
C122 C120 1.384 . S
C122 C123 1.372 1_655 S
C123 C122 1.372 1_455 S
C123 C124 1.400 . S
C123 C128 1.493 . S
C124 H114 0.930 . S
C124 C123 1.400 . S
C124 C127 1.386 . S
H125 C141 0.930 . S
H126 C142 0.931 . S
C127 H115 0.929 . S
C127 C121 1.390 . S
C127 C124 1.386 . S
C128 C123 1.493 . S
C128 C130 1.380 1_455 S
C128 C131 1.414 . S
H129 C135 0.930 . S
C130 H116 0.930 . S
C130 C128 1.380 1_655 S
C130 C133 1.403 . S
C131 C128 1.414 . S
C131 C132 1.524 . S
C131 C135 1.400 . S
C132 H117 0.960 . S
C132 H118 0.960 . S
C132 H119 0.960 . S
C132 C131 1.524 . S
C133 C130 1.403 . S
C133 C134 1.392 . S
C133 C137 1.495 . S
C134 C133 1.392 . S
C134 C135 1.385 1_655 S
C134 C136 1.478 . S
C135 H129 0.930 . S
C135 C131 1.400 . S
C135 C134 1.385 1_455 S
C136 C134 1.478 . S
C136 C138 1.381 . S
C136 C142 1.383 1_655 S
C137 C133 1.495 . S
C137 H143 0.959 . S
C137 H144 0.961 . S
C137 H145 0.960 . S
C138 C136 1.381 . S
C138 C139 1.394 . S
C138 H146 0.930 . S
C139 C138 1.394 . S
C139 C140 1.383 . S
C139 H147 0.929 . S
C140 C139 1.383 . S
C140 C141 1.377 1_655 S
C141 H125 0.930 . S
C141 C140 1.377 1_455 S
C141 C142 1.379 . S
C142 H126 0.931 . S
C142 C136 1.383 1_455 S
C142 C141 1.379 . S
H143 C137 0.959 . S
H144 C137 0.961 . S
H145 C137 0.960 . S
H146 C138 0.930 . S
H147 C139 0.929 . S
H148 C156 0.929 . S
H149 C158 0.930 . S
H150 C160 0.930 . S
H151 C163 0.929 . S
H152 C166 0.930 . S
H153 C168 0.960 . S
H154 C168 0.960 . S
H155 C168 0.960 . S
C156 H148 0.929 . S
C156 C157 1.377 . S
C156 C158 1.384 . S
C157 C156 1.377 . S
C157 C163 1.390 . S
C158 H149 0.930 . S
C158 C156 1.384 . S
C158 C159 1.372 . S
C159 C158 1.372 . S
C159 C160 1.400 . S
C159 C164 1.490 . S
C160 H150 0.930 . S
C160 C159 1.400 . S
C160 C163 1.386 . S
H161 C177 0.930 . S
H162 C178 0.931 . S
C163 H151 0.929 . S
C163 C157 1.390 . S
C163 C160 1.386 . S
C164 C159 1.490 . S
C164 C166 1.395 . S
C164 C167 1.403 . S
H165 C171 0.930 . S
C166 H152 0.930 . S
C166 C164 1.395 . S
C166 C169 1.403 . S
C167 C164 1.403 . S
C167 C168 1.524 . S
C167 C171 1.400 . S
C168 H153 0.960 . S
C168 H154 0.960 . S
C168 H155 0.960 . S
C168 C167 1.524 . S
C169 C166 1.403 . S
C169 C170 1.392 . S
C169 C173 1.495 . S
C170 C169 1.392 . S
C170 C171 1.385 . S
C170 C172 1.478 . S
C171 H165 0.930 . S
C171 C167 1.400 . S
C171 C170 1.385 . S
C172 C170 1.478 . S
C172 C174 1.381 . S
C172 C178 1.383 . S
C173 C169 1.495 . S
C173 H179 0.959 . S
C173 H180 0.961 . S
C173 H181 0.960 . S
C174 C172 1.381 . S
C174 C175 1.394 . S
C174 H182 0.930 . S
C175 C174 1.394 . S
C175 C176 1.383 . S
C175 H183 0.929 . S
C176 C175 1.383 . S
C176 C177 1.377 . S
C177 H161 0.930 . S
C177 C176 1.377 . S
C177 C178 1.379 . S
C178 H162 0.931 . S
C178 C172 1.383 . S
C178 C177 1.379 . S
H179 C173 0.959 . S
H180 C173 0.961 . S
H181 C173 0.960 . S
H182 C174 0.930 . S
H183 C175 0.929 . S
H184 C192 0.929 . S
H185 C194 0.930 . S
H186 C196 0.930 . S
H187 C199 0.929 . S
H188 C202 0.930 . S
H189 C204 0.960 . S
H190 C204 0.960 . S
H191 C204 0.960 . S
C192 H184 0.929 . S
C192 C193 1.377 . S
C192 C194 1.384 . S
C193 C192 1.377 . S
C193 C199 1.390 . S
C194 H185 0.930 . S
C194 C192 1.384 . S
C194 C195 1.372 . S
C195 C194 1.372 . S
C195 C196 1.400 . S
C195 C200 1.490 . S
C196 H186 0.930 . S
C196 C195 1.400 . S
C196 C199 1.386 . S
H197 C213 0.930 . S
H198 C214 0.931 . S
C199 H187 0.929 . S
C199 C193 1.390 . S
C199 C196 1.386 . S
C200 C195 1.490 . S
C200 C202 1.395 1_554 S
C200 C203 1.403 1_545 S
H201 C207 0.937 . S
C202 H188 0.930 . S
C202 C200 1.395 1_556 S
C202 C205 1.403 . S
C203 C200 1.403 1_565 S
C203 C204 1.524 . S
C203 C207 1.427 . S
C204 H189 0.960 . S
C204 H190 0.960 . S
C204 H191 0.960 . S
C204 C203 1.524 . S
C205 C202 1.403 . S
C205 C206 1.392 1_545 S
C205 C209 1.495 . S
C206 C205 1.392 1_565 S
C206 C207 1.353 1_556 S
C206 C208 1.478 . S
C207 H201 0.937 . S
C207 C203 1.427 . S
C207 C206 1.353 1_554 S
C208 C206 1.478 . S
C208 C210 1.381 . S
C208 C214 1.383 . S
C209 C205 1.495 . S
C209 H215 0.959 . S
C209 H216 0.961 . S
C209 H217 0.960 . S
C210 C208 1.381 . S
C210 C211 1.394 . S
C210 H218 0.930 . S
C211 C210 1.394 . S
C211 C212 1.383 . S
C211 H219 0.929 . S
C212 C211 1.383 . S
C212 C213 1.377 . S
C213 H197 0.930 . S
C213 C212 1.377 . S
C213 C214 1.379 . S
C214 H198 0.931 . S
C214 C208 1.383 . S
C214 C213 1.379 . S
H215 C209 0.959 . S
H216 C209 0.961 . S
H217 C209 0.960 . S
H218 C210 0.930 . S
H219 C211 0.929 . S
H220 C228 0.929 . S
H221 C230 0.930 . S
H222 C232 0.930 . S
H223 C235 0.929 . S
H224 C238 0.930 . S
H225 C240 0.960 . S
H226 C240 0.960 . S
H227 C240 0.960 1_554 S
C228 H220 0.929 . S
C228 C229 1.377 . S
C228 C230 1.384 . S
C229 C228 1.377 . S
C229 C235 1.390 1_655 S
C230 H221 0.930 . S
C230 C228 1.384 . S
C230 C231 1.372 . S
C231 C230 1.372 . S
C231 C232 1.400 1_655 S
C231 C236 1.490 . S
C232 H222 0.930 . S
C232 C231 1.400 1_455 S
C232 C235 1.386 . S
H233 C249 0.930 . S
H234 C250 0.931 . S
C235 H223 0.929 . S
C235 C229 1.390 1_455 S
C235 C232 1.386 . S
C236 C231 1.490 . S
C236 C238 1.395 1_565 S
C236 C239 1.403 1_654 S
H237 C243 0.930 . S
C238 H224 0.930 . S
C238 C236 1.395 1_545 S
C238 C241 1.403 . S
C239 C236 1.403 1_456 S
C239 C240 1.524 . S
C239 C243 1.400 . S
C240 H225 0.960 . S
C240 H226 0.960 . S
C240 H227 0.960 1_556 S
C240 C239 1.524 . S
C241 C238 1.403 . S
C241 C242 1.392 1_554 S
C241 C245 1.495 . S
C242 C241 1.392 1_556 S
C242 C243 1.385 1_645 S
C242 C244 1.478 1_655 S
C243 H237 0.930 . S
C243 C239 1.400 . S
C243 C242 1.385 1_465 S
C244 C242 1.478 1_455 S
C244 C246 1.381 1_455 S
C244 C250 1.383 . S
C245 C241 1.495 . S
C245 H251 0.959 . S
C245 H252 0.961 . S
C245 H253 0.960 1_554 S
C246 C244 1.381 1_655 S
C246 C247 1.394 . S
C246 H254 0.930 . S
C247 C246 1.394 . S
C247 C248 1.383 1_655 S
C247 H255 0.929 . S
C248 C247 1.383 1_455 S
C248 C249 1.377 . S
C249 H233 0.930 . S
C249 C248 1.377 . S
C249 C250 1.379 . S
C250 H234 0.931 . S
C250 C244 1.383 . S
C250 C249 1.379 . S
H251 C245 0.959 . S
H252 C245 0.961 . S
H253 C245 0.960 1_556 S
H254 C246 0.930 . S
H255 C247 0.929 . S
H256 C264 0.929 . S
H257 C266 0.930 . S
H258 C268 0.930 . S
H259 C271 0.929 . S
H260 C274 0.930 . S
H261 C276 0.960 . S
H262 C276 0.960 . S
H263 C276 0.960 . S
C264 H256 0.929 . S
C264 C265 1.377 . S
C264 C266 1.384 . S
C265 C264 1.377 . S
C265 C271 1.390 . S
C266 H257 0.930 . S
C266 C264 1.384 . S
C266 C267 1.372 . S
C267 C266 1.372 . S
C267 C268 1.400 . S
C267 C272 1.490 . S
C268 H258 0.930 . S
C268 C267 1.400 . S
C268 C271 1.386 . S
H269 C285 0.930 . S
H270 C286 0.931 . S
C271 H259 0.929 . S
C271 C265 1.390 . S
C271 C268 1.386 . S
C272 C267 1.490 . S
C272 C274 1.395 . S
C272 C275 1.403 . S
H273 C279 0.930 . S
C274 H260 0.930 . S
C274 C272 1.395 . S
C274 C277 1.403 . S
C275 C272 1.403 . S
C275 C276 1.524 . S
C275 C279 1.400 . S
C276 H261 0.960 . S
C276 H262 0.960 . S
C276 H263 0.960 . S
C276 C275 1.524 . S
C277 C274 1.403 . S
C277 C278 1.392 . S
C277 C281 1.495 . S
C278 C277 1.392 . S
C278 C279 1.385 . S
C278 C280 1.478 . S
C279 H273 0.930 . S
C279 C275 1.400 . S
C279 C278 1.385 . S
C280 C278 1.478 . S
C280 C282 1.381 . S
C280 C286 1.383 . S
C281 C277 1.495 . S
C281 H287 0.959 . S
C281 H288 0.961 . S
C281 H289 0.960 . S
C282 C280 1.381 . S
C282 C283 1.394 . S
C282 H290 0.930 . S
C283 C282 1.394 . S
C283 C284 1.383 . S
C283 H291 0.929 . S
C284 C283 1.383 . S
C284 C285 1.377 . S
C285 H269 0.930 . S
C285 C284 1.377 . S
C285 C286 1.379 . S
C286 H270 0.931 . S
C286 C280 1.383 . S
C286 C285 1.379 . S
H287 C281 0.959 . S
H288 C281 0.961 . S
H289 C281 0.960 . S
H290 C282 0.930 . S
H291 C283 0.929 . S
H292 C300 0.929 . S
H293 C302 0.930 . S
H294 C304 0.930 . S
H295 C307 0.929 . S
H296 C310 0.930 . S
H297 C312 0.960 . S
H298 C312 0.960 . S
H299 C312 0.960 . S
C300 H292 0.929 . S
C300 C301 1.377 . S
C300 C302 1.384 . S
C301 C300 1.377 . S
C301 C307 1.390 . S
C302 H293 0.930 . S
C302 C300 1.384 . S
C302 C303 1.372 . S
C303 C302 1.372 . S
C303 C304 1.400 . S
C303 C308 1.490 . S
C304 H294 0.930 . S
C304 C303 1.400 . S
C304 C307 1.386 . S
H305 C321 0.930 . S
H306 C322 0.931 . S
C307 H295 0.929 . S
C307 C301 1.390 . S
C307 C304 1.386 . S
C308 C303 1.490 . S
C308 C310 1.395 . S
C308 C311 1.403 . S
H309 C315 0.930 . S
C310 H296 0.930 . S
C310 C308 1.395 . S
C310 C313 1.403 . S
C311 C308 1.403 . S
C311 C312 1.524 . S
C311 C315 1.400 . S
C312 H297 0.960 . S
C312 H298 0.960 . S
C312 H299 0.960 . S
C312 C311 1.524 . S
C313 C310 1.403 . S
C313 C314 1.392 . S
C313 C317 1.495 . S
C314 C313 1.392 . S
C314 C315 1.385 . S
C314 C316 1.478 . S
C315 H309 0.930 . S
C315 C311 1.400 . S
C315 C314 1.385 . S
C316 C314 1.478 . S
C316 C318 1.381 . S
C316 C322 1.383 . S
C317 C313 1.495 . S
C317 H323 0.959 . S
C317 H324 0.961 . S
C317 H325 0.960 . S
C318 C316 1.381 . S
C318 C319 1.394 . S
C318 H326 0.930 . S
C319 C318 1.394 . S
C319 C320 1.383 . S
C319 H327 0.929 . S
C320 C319 1.383 . S
C320 C321 1.377 . S
C321 H305 0.930 . S
C321 C320 1.377 . S
C321 C322 1.379 . S
C322 H306 0.931 . S
C322 C316 1.383 . S
C322 C321 1.379 . S
H323 C317 0.959 . S
H324 C317 0.961 . S
H325 C317 0.960 . S
H326 C318 0.930 . S
H327 C319 0.929 . S
H328 C336 0.929 . S
H329 C338 0.930 . S
H330 C340 0.930 . S
H331 C343 0.929 . S
H332 C346 0.930 . S
H333 C348 0.960 . S
H334 C348 0.960 . S
H335 C348 0.960 . S
C336 H328 0.929 . S
C336 C337 1.377 . S
C336 C338 1.384 . S
C337 C336 1.377 . S
C337 C343 1.390 . S
C338 H329 0.930 . S
C338 C336 1.384 . S
C338 C339 1.372 . S
C339 C338 1.372 . S
C339 C340 1.400 . S
C339 C344 1.490 . S
C340 H330 0.930 . S
C340 C339 1.400 . S
C340 C343 1.386 . S
H341 C357 0.930 . S
H342 C358 0.931 . S
C343 H331 0.929 . S
C343 C337 1.390 . S
C343 C340 1.386 . S
C344 C339 1.490 . S
C344 C346 1.395 . S
C344 C347 1.403 . S
H345 C351 0.930 . S
C346 H332 0.930 . S
C346 C344 1.395 . S
C346 C349 1.403 . S
C347 C344 1.403 . S
C347 C348 1.524 . S
C347 C351 1.400 . S
C348 H333 0.960 . S
C348 H334 0.960 . S
C348 H335 0.960 . S
C348 C347 1.524 . S
C349 C346 1.403 . S
C349 C350 1.392 . S
C349 C353 1.495 . S
C350 C349 1.392 . S
C350 C351 1.385 . S
C350 C352 1.478 . S
C351 H345 0.930 . S
C351 C347 1.400 . S
C351 C350 1.385 . S
C352 C350 1.478 . S
C352 C354 1.381 . S
C352 C358 1.383 . S
C353 C349 1.495 . S
C353 H359 0.959 . S
C353 H360 0.961 . S
C353 H361 0.960 . S
C354 C352 1.381 . S
C354 C355 1.394 . S
C354 H362 0.930 . S
C355 C354 1.394 . S
C355 C356 1.383 . S
C355 H363 0.929 . S
C356 C355 1.383 . S
C356 C357 1.377 . S
C357 H341 0.930 . S
C357 C356 1.377 . S
C357 C358 1.379 . S
C358 H342 0.931 . S
C358 C352 1.383 . S
C358 C357 1.379 . S
H359 C353 0.959 . S
H360 C353 0.961 . S
H361 C353 0.960 . S
H362 C354 0.930 . S
H363 C355 0.929 . S
H364 C372 0.929 . S
H365 C374 0.930 . S
H366 C376 0.930 . S
H367 C379 0.929 . S
H368 C382 0.930 . S
H369 C384 0.960 . S
H370 C384 0.960 . S
H371 C384 0.960 . S
C372 H364 0.929 . S
C372 C373 1.377 . S
C372 C374 1.384 . S
C373 C372 1.377 . S
C373 C379 1.390 . S
C374 H365 0.930 . S
C374 C372 1.384 . S
C374 C375 1.372 . S
C375 C374 1.372 . S
C375 C376 1.400 . S
C375 C380 1.490 . S
C376 H366 0.930 . S
C376 C375 1.400 . S
C376 C379 1.386 . S
H377 C393 0.930 . S
H378 C394 0.931 . S
C379 H367 0.929 . S
C379 C373 1.390 . S
C379 C376 1.386 . S
C380 C375 1.490 . S
C380 C382 1.395 . S
C380 C383 1.403 . S
H381 C387 0.930 . S
C382 H368 0.930 . S
C382 C380 1.395 . S
C382 C385 1.403 . S
C383 C380 1.403 . S
C383 C384 1.524 . S
C383 C387 1.400 . S
C384 H369 0.960 . S
C384 H370 0.960 . S
C384 H371 0.960 . S
C384 C383 1.524 . S
C385 C382 1.403 . S
C385 C386 1.392 . S
C385 C389 1.495 . S
C386 C385 1.392 . S
C386 C387 1.385 . S
C386 C388 1.478 . S
C387 H381 0.930 . S
C387 C383 1.400 . S
C387 C386 1.385 . S
C388 C386 1.478 . S
C388 C390 1.381 . S
C388 C394 1.383 . S
C389 C385 1.495 . S
C389 H395 0.959 . S
C389 H396 0.961 . S
C389 H397 0.960 . S
C390 C388 1.381 . S
C390 C391 1.394 . S
C390 H398 0.930 . S
C391 C390 1.394 . S
C391 C392 1.383 . S
C391 H399 0.929 . S
C392 C391 1.383 . S
C392 C393 1.377 . S
C393 H377 0.930 . S
C393 C392 1.377 . S
C393 C394 1.379 . S
C394 H378 0.931 . S
C394 C388 1.383 . S
C394 C393 1.379 . S
H395 C389 0.959 . S
H396 C389 0.961 . S
H397 C389 0.960 . S
H398 C390 0.930 . S
H399 C391 0.929 . S
H400 C408 0.929 . S
H401 C410 0.930 . S
H402 C412 0.930 . S
H403 C415 0.929 . S
H404 C418 0.930 . S
H405 C420 0.960 . S
H406 C420 0.960 . S
H407 C420 0.960 . S
C408 H400 0.929 . S
C408 C409 1.377 . S
C408 C410 1.384 . S
C409 C408 1.377 . S
C409 C415 1.390 . S
C410 H401 0.930 . S
C410 C408 1.384 . S
C410 C411 1.372 . S
C411 C410 1.372 . S
C411 C412 1.400 . S
C411 C416 1.490 . S
C412 H402 0.930 . S
C412 C411 1.400 . S
C412 C415 1.386 . S
H413 C429 0.930 . S
H414 C430 0.931 . S
C415 H403 0.929 . S
C415 C409 1.390 . S
C415 C412 1.386 . S
C416 C411 1.490 . S
C416 C418 1.395 . S
C416 C419 1.403 . S
H417 C423 0.930 . S
C418 H404 0.930 . S
C418 C416 1.395 . S
C418 C421 1.403 . S
C419 C416 1.403 . S
C419 C420 1.524 . S
C419 C423 1.400 . S
C420 H405 0.960 . S
C420 H406 0.960 . S
C420 H407 0.960 . S
C420 C419 1.524 . S
C421 C418 1.403 . S
C421 C422 1.392 . S
C421 C425 1.495 . S
C422 C421 1.392 . S
C422 C423 1.385 . S
C422 C424 1.478 . S
C423 H417 0.930 . S
C423 C419 1.400 . S
C423 C422 1.385 . S
C424 C422 1.478 . S
C424 C426 1.381 . S
C424 C430 1.383 . S
C425 C421 1.495 . S
C425 H431 0.959 . S
C425 H432 0.961 . S
C425 H433 0.960 . S
C426 C424 1.381 . S
C426 C427 1.394 . S
C426 H434 0.930 . S
C427 C426 1.394 . S
C427 C428 1.383 . S
C427 H435 0.929 . S
C428 C427 1.383 . S
C428 C429 1.377 . S
C429 H413 0.930 . S
C429 C428 1.377 . S
C429 C430 1.379 . S
C430 H414 0.931 . S
C430 C424 1.383 . S
C430 C429 1.379 . S
H431 C425 0.959 . S
H432 C425 0.961 . S
H433 C425 0.960 . S
H434 C426 0.930 . S
H435 C427 0.929 . S
H436 C444 0.929 . S
H437 C446 0.930 . S
H438 C448 0.930 . S
H439 C451 0.929 . S
H440 C454 0.930 . S
H441 C456 0.960 . S
H442 C456 0.960 . S
H443 C456 0.960 . S
C444 H436 0.929 . S
C444 C445 1.377 . S
C444 C446 1.384 . S
C445 C444 1.377 . S
C445 C451 1.390 . S
C446 H437 0.930 . S
C446 C444 1.384 . S
C446 C447 1.372 . S
C447 C446 1.372 . S
C447 C448 1.400 . S
C447 C452 1.490 . S
C448 H438 0.930 . S
C448 C447 1.400 . S
C448 C451 1.386 . S
H449 C465 0.930 . S
H450 C466 0.931 . S
C451 H439 0.929 . S
C451 C445 1.390 . S
C451 C448 1.386 . S
C452 C447 1.490 . S
C452 C454 1.395 . S
C452 C455 1.403 . S
H453 C459 0.930 . S
C454 H440 0.930 . S
C454 C452 1.395 . S
C454 C457 1.403 . S
C455 C452 1.403 . S
C455 C456 1.524 . S
C455 C459 1.400 . S
C456 H441 0.960 . S
C456 H442 0.960 . S
C456 H443 0.960 . S
C456 C455 1.524 . S
C457 C454 1.403 . S
C457 C458 1.392 . S
C457 C461 1.495 . S
C458 C457 1.392 . S
C458 C459 1.385 . S
C458 C460 1.478 . S
C459 H453 0.930 . S
C459 C455 1.400 . S
C459 C458 1.385 . S
C460 C458 1.478 . S
C460 C462 1.381 . S
C460 C466 1.383 . S
C461 C457 1.495 . S
C461 H467 0.959 . S
C461 H468 0.961 . S
C461 H469 0.960 . S
C462 C460 1.381 . S
C462 C463 1.394 . S
C462 H470 0.930 . S
C463 C462 1.394 . S
C463 C464 1.383 . S
C463 H471 0.929 . S
C464 C463 1.383 . S
C464 C465 1.377 . S
C465 H449 0.930 . S
C465 C464 1.377 . S
C465 C466 1.379 . S
C466 H450 0.931 . S
C466 C460 1.383 . S
C466 C465 1.379 . S
H467 C461 0.959 . S
H468 C461 0.961 . S
H469 C461 0.960 . S
H470 C462 0.930 . S
H471 C463 0.929 . S
H472 C480 0.929 . S
H473 C482 0.930 . S
H474 C484 0.930 . S
H475 C487 0.929 . S
H476 C490 0.930 . S
H477 C492 0.960 . S
H478 C492 0.960 . S
H479 C492 0.960 . S
C480 H472 0.929 . S
C480 C481 1.377 . S
C480 C482 1.384 . S
C481 C480 1.377 . S
C481 C487 1.390 . S
C482 H473 0.930 . S
C482 C480 1.384 . S
C482 C483 1.372 . S
C483 C482 1.372 . S
C483 C484 1.400 . S
C483 C488 1.490 . S
C484 H474 0.930 . S
C484 C483 1.400 . S
C484 C487 1.386 . S
H485 C501 0.930 . S
H486 C502 0.931 . S
C487 H475 0.929 . S
C487 C481 1.390 . S
C487 C484 1.386 . S
C488 C483 1.490 . S
C488 C490 1.395 . S
C488 C491 1.403 . S
H489 C495 0.930 . S
C490 H476 0.930 . S
C490 C488 1.395 . S
C490 C493 1.403 . S
C491 C488 1.403 . S
C491 C492 1.524 . S
C491 C495 1.400 . S
C492 H477 0.960 . S
C492 H478 0.960 . S
C492 H479 0.960 . S
C492 C491 1.524 . S
C493 C490 1.403 . S
C493 C494 1.392 . S
C493 C497 1.495 . S
C494 C493 1.392 . S
C494 C495 1.385 . S
C494 C496 1.478 . S
C495 H489 0.930 . S
C495 C491 1.400 . S
C495 C494 1.385 . S
C496 C494 1.478 . S
C496 C498 1.381 . S
C496 C502 1.383 . S
C497 C493 1.495 . S
C497 H503 0.959 . S
C497 H504 0.961 . S
C497 H505 0.960 . S
C498 C496 1.381 . S
C498 C499 1.394 . S
C498 H506 0.930 . S
C499 C498 1.394 . S
C499 C500 1.383 . S
C499 H507 0.929 . S
C500 C499 1.383 . S
C500 C501 1.377 . S
C501 H485 0.930 . S
C501 C500 1.377 . S
C501 C502 1.379 . S
C502 H486 0.931 . S
C502 C496 1.383 . S
C502 C501 1.379 . S
H503 C497 0.959 . S
H504 C497 0.961 . S
H505 C497 0.960 . S
H506 C498 0.930 . S
H507 C499 0.929 . S
H508 C516 0.929 . S
H509 C518 0.930 . S
H510 C520 0.930 . S
H511 C523 0.929 . S
H512 C526 0.930 . S
H513 C528 0.960 . S
H514 C528 0.960 . S
H515 C528 0.960 . S
C516 H508 0.929 . S
C516 C517 1.377 . S
C516 C518 1.384 . S
C517 C516 1.377 . S
C517 C523 1.390 . S
C518 H509 0.930 . S
C518 C516 1.384 . S
C518 C519 1.372 . S
C519 C518 1.372 . S
C519 C520 1.400 . S
C519 C524 1.490 . S
C520 H510 0.930 . S
C520 C519 1.400 . S
C520 C523 1.386 . S
H521 C537 0.930 . S
H522 C538 0.931 . S
C523 H511 0.929 . S
C523 C517 1.390 . S
C523 C520 1.386 . S
C524 C519 1.490 . S
C524 C526 1.395 . S
C524 C527 1.403 . S
H525 C531 0.930 . S
C526 H512 0.930 . S
C526 C524 1.395 . S
C526 C529 1.403 . S
C527 C524 1.403 . S
C527 C528 1.524 . S
C527 C531 1.400 . S
C528 H513 0.960 . S
C528 H514 0.960 . S
C528 H515 0.960 . S
C528 C527 1.524 . S
C529 C526 1.403 . S
C529 C530 1.392 . S
C529 C533 1.495 . S
C530 C529 1.392 . S
C530 C531 1.385 . S
C530 C532 1.478 . S
C531 H525 0.930 . S
C531 C527 1.400 . S
C531 C530 1.385 . S
C532 C530 1.478 . S
C532 C534 1.381 . S
C532 C538 1.383 . S
C533 C529 1.495 . S
C533 H539 0.959 . S
C533 H540 0.961 . S
C533 H541 0.960 . S
C534 C532 1.381 . S
C534 C535 1.394 . S
C534 H542 0.930 . S
C535 C534 1.394 . S
C535 C536 1.383 . S
C535 H543 0.929 . S
C536 C535 1.383 . S
C536 C537 1.377 . S
C537 H521 0.930 . S
C537 C536 1.377 . S
C537 C538 1.379 . S
C538 H522 0.931 . S
C538 C532 1.383 . S
C538 C537 1.379 . S
H539 C533 0.959 . S
H540 C533 0.961 . S
H541 C533 0.960 . S
H542 C534 0.930 . S
H543 C535 0.929 . S
H544 C552 0.929 . S
H545 C554 0.930 . S
H546 C556 0.930 . S
H547 C559 0.929 . S
H548 C562 0.930 . S
H549 C564 0.960 . S
H550 C564 0.960 . S
H551 C564 0.960 . S
C552 H544 0.929 . S
C552 C553 1.377 . S
C552 C554 1.384 . S
C553 C552 1.377 . S
C553 C559 1.390 . S
C554 H545 0.930 . S
C554 C552 1.384 . S
C554 C555 1.372 . S
C555 C554 1.372 . S
C555 C556 1.400 . S
C555 C560 1.490 . S
C556 H546 0.930 . S
C556 C555 1.400 . S
C556 C559 1.386 . S
H557 C573 0.930 . S
H558 C574 0.931 . S
C559 H547 0.929 . S
C559 C553 1.390 . S
C559 C556 1.386 . S
C560 C555 1.490 . S
C560 C562 1.395 . S
C560 C563 1.403 . S
H561 C567 0.930 . S
C562 H548 0.930 . S
C562 C560 1.395 . S
C562 C565 1.403 . S
C563 C560 1.403 . S
C563 C564 1.524 . S
C563 C567 1.400 . S
C564 H549 0.960 . S
C564 H550 0.960 . S
C564 H551 0.960 . S
C564 C563 1.524 . S
C565 C562 1.403 . S
C565 C566 1.392 . S
C565 C569 1.495 . S
C566 C565 1.392 . S
C566 C567 1.385 . S
C566 C568 1.478 . S
C567 H561 0.930 . S
C567 C563 1.400 . S
C567 C566 1.385 . S
C568 C566 1.478 . S
C568 C570 1.381 . S
C568 C574 1.383 . S
C569 C565 1.495 . S
C569 H575 0.959 . S
C569 H576 0.961 . S
C569 H577 0.960 . S
C570 C568 1.381 . S
C570 C571 1.394 . S
C570 H578 0.930 . S
C571 C570 1.394 . S
C571 C572 1.383 . S
C571 H579 0.929 . S
C572 C571 1.383 . S
C572 C573 1.377 . S
C573 H557 0.930 . S
C573 C572 1.377 . S
C573 C574 1.379 . S
C574 H558 0.931 . S
C574 C568 1.383 . S
C574 C573 1.379 . S
H575 C569 0.959 . S
H576 C569 0.961 . S
H577 C569 0.960 . S
H578 C570 0.930 . S
H579 C571 0.929 . S
H580 C588 0.929 . S
H581 C590 0.930 . S
H582 C592 0.930 . S
H583 C595 0.929 . S
H584 C598 0.930 . S
H585 C600 0.960 . S
H586 C600 0.960 . S
H587 C600 0.960 . S
C588 H580 0.929 . S
C588 C589 1.377 . S
C588 C590 1.384 . S
C589 C588 1.377 . S
C589 C595 1.390 . S
C590 H581 0.930 . S
C590 C588 1.384 . S
C590 C591 1.372 . S
C591 C590 1.372 . S
C591 C592 1.400 . S
C591 C596 1.490 . S
C592 H582 0.930 . S
C592 C591 1.400 . S
C592 C595 1.386 . S
H593 C609 0.930 . S
H594 C610 0.931 . S
C595 H583 0.929 . S
C595 C589 1.390 . S
C595 C592 1.386 . S
C596 C591 1.490 . S
C596 C598 1.395 . S
C596 C599 1.403 . S
H597 C603 0.930 . S
C598 H584 0.930 . S
C598 C596 1.395 . S
C598 C601 1.403 . S
C599 C596 1.403 . S
C599 C600 1.524 . S
C599 C603 1.400 . S
C600 H585 0.960 . S
C600 H586 0.960 . S
C600 H587 0.960 . S
C600 C599 1.524 . S
C601 C598 1.403 . S
C601 C602 1.392 . S
C601 C605 1.495 . S
C602 C601 1.392 . S
C602 C603 1.385 . S
C602 C604 1.478 . S
C603 H597 0.930 . S
C603 C599 1.400 . S
C603 C602 1.385 . S
C604 C602 1.478 . S
C604 C606 1.381 . S
C604 C610 1.383 . S
C605 C601 1.495 . S
C605 H611 0.959 . S
C605 H612 0.961 . S
C605 H613 0.960 . S
C606 C604 1.381 . S
C606 C607 1.394 . S
C606 H614 0.930 . S
C607 C606 1.394 . S
C607 C608 1.383 . S
C607 H615 0.929 . S
C608 C607 1.383 . S
C608 C609 1.377 . S
C609 H593 0.930 . S
C609 C608 1.377 . S
C609 C610 1.379 . S
C610 H594 0.931 . S
C610 C604 1.383 . S
C610 C609 1.379 . S
H611 C605 0.959 . S
H612 C605 0.961 . S
H613 C605 0.960 . S
H614 C606 0.930 . S
H615 C607 0.929 . S
H616 C624 0.929 . S
H617 C626 0.930 . S
H618 C628 0.930 . S
H619 C631 0.929 . S
H620 C634 0.930 . S
H621 C636 0.960 . S
H622 C636 0.960 . S
H623 C636 0.960 . S
C624 H616 0.929 . S
C624 C625 1.377 . S
C624 C626 1.384 . S
C625 C624 1.377 . S
C625 C631 1.390 . S
C626 H617 0.930 . S
C626 C624 1.384 . S
C626 C627 1.372 . S
C627 C626 1.372 . S
C627 C628 1.400 . S
C627 C632 1.490 . S
C628 H618 0.930 . S
C628 C627 1.400 . S
C628 C631 1.386 . S
H629 C645 0.930 . S
H630 C646 0.931 . S
C631 H619 0.929 . S
C631 C625 1.390 . S
C631 C628 1.386 . S
C632 C627 1.490 . S
C632 C634 1.395 1_554 S
C632 C635 1.403 . S
H633 C639 0.930 . S
C634 H620 0.930 . S
C634 C632 1.395 1_556 S
C634 C637 1.403 . S
C635 C632 1.403 . S
C635 C636 1.524 . S
C635 C639 1.400 . S
C636 H621 0.960 . S
C636 H622 0.960 . S
C636 H623 0.960 . S
C636 C635 1.524 . S
C637 C634 1.403 . S
C637 C638 1.392 . S
C637 C641 1.495 . S
C638 C637 1.392 . S
C638 C639 1.385 1_556 S
C638 C640 1.478 . S
C639 H633 0.930 . S
C639 C635 1.400 . S
C639 C638 1.385 1_554 S
C640 C638 1.478 . S
C640 C642 1.381 . S
C640 C646 1.383 . S
C641 C637 1.495 . S
C641 H647 0.959 . S
C641 H648 0.961 . S
C641 H649 0.960 . S
C642 C640 1.381 . S
C642 C643 1.394 . S
C642 H650 0.930 . S
C643 C642 1.394 . S
C643 C644 1.383 . S
C643 H651 0.929 . S
C644 C643 1.383 . S
C644 C645 1.377 . S
C645 H629 0.930 . S
C645 C644 1.377 . S
C645 C646 1.379 . S
C646 H630 0.931 . S
C646 C640 1.383 . S
C646 C645 1.379 . S
H647 C641 0.959 . S
H648 C641 0.961 . S
H649 C641 0.960 . S
H650 C642 0.930 . S
H651 C643 0.929 . S
H652 C660 0.929 . S
H653 C662 0.930 . S
H654 C664 0.930 . S
H655 C667 0.929 . S
H656 C670 0.930 . S
H657 C672 0.960 . S
H658 C672 0.960 . S
H659 C672 0.960 . S
C660 H652 0.929 . S
C660 C661 1.377 . S
C660 C662 1.384 . S
C661 C660 1.377 . S
C661 C667 1.390 . S
C662 H653 0.930 . S
C662 C660 1.384 . S
C662 C663 1.372 . S
C663 C662 1.372 . S
C663 C664 1.400 . S
C663 C668 1.490 . S
C664 H654 0.930 . S
C664 C663 1.400 . S
C664 C667 1.386 . S
H665 C681 0.930 . S
H666 C682 0.931 . S
C667 H655 0.929 . S
C667 C661 1.390 . S
C667 C664 1.386 . S
C668 C663 1.490 . S
C668 C670 1.395 1_554 S
C668 C671 1.403 . S
H669 C675 0.930 . S
C670 H656 0.930 . S
C670 C668 1.395 1_556 S
C670 C673 1.403 . S
C671 C668 1.403 . S
C671 C672 1.524 . S
C671 C675 1.400 . S
C672 H657 0.960 . S
C672 H658 0.960 . S
C672 H659 0.960 . S
C672 C671 1.524 . S
C673 C670 1.403 . S
C673 C674 1.392 . S
C673 C677 1.495 . S
C674 C673 1.392 . S
C674 C675 1.385 1_556 S
C674 C676 1.478 . S
C675 H669 0.930 . S
C675 C671 1.400 . S
C675 C674 1.385 1_554 S
C676 C674 1.478 . S
C676 C678 1.381 . S
C676 C682 1.383 . S
C677 C673 1.495 . S
C677 H683 0.959 . S
C677 H684 0.961 . S
C677 H685 0.960 . S
C678 C676 1.381 . S
C678 C679 1.394 . S
C678 H686 0.930 . S
C679 C678 1.394 . S
C679 C680 1.383 . S
C679 H687 0.929 . S
C680 C679 1.383 . S
C680 C681 1.377 . S
C681 H665 0.930 . S
C681 C680 1.377 . S
C681 C682 1.379 . S
C682 H666 0.931 . S
C682 C676 1.383 . S
C682 C681 1.379 . S
H683 C677 0.959 . S
H684 C677 0.961 . S
H685 C677 0.960 . S
H686 C678 0.930 . S
H687 C679 0.929 . S
C121 C3 1.552 . S
C140 C31 1.544 . S
C157 C45 1.547 . S
C176 C17 1.544 . S
C193 C87 1.549 . S
C212 C59 1.555 . S
C229 C73 1.547 . S
C248 C101 1.538 . S
C265 C92 1.808 . S
C284 C8 1.802 . S
C301 C22 1.802 . S
C320 C106 1.792 . S
C337 C36 1.805 . S
C356 C64 1.815 . S
C373 C50 1.802 . S
C392 C78 1.796 . S
C409 C91 1.526 . S
C428 C7 1.526 . S
C445 C21 1.518 . S
C464 C105 1.493 . S
C481 C63 1.516 . S
C500 C35 1.516 . S
C517 C77 1.525 . S
C536 C49 1.517 . S
C553 C23 0.568 . S
C572 C9 0.661 . S
C589 C37 0.590 . S
C608 C51 0.500 . S
C625 C79 0.552 . S
C644 C65 0.555 . S
C661 C93 0.584 . S
C680 C107 0.545 . S
