# Generated by pormake.
# Topology unn, (4)-cn, num edge types: 1
# Building blocks:
#     Node 0, Type 0, BuildingBlock: MUDLON_clean_sbu_0, # of connection points: 4
#     Node 1, Type 0, BuildingBlock: MUDLON_clean_sbu_0, # of connection points: 4
#     Node 2, Type 0, BuildingBlock: MUDLON_clean_sbu_0, # of connection points: 4
#     Node 3, Type 0, BuildingBlock: MUDLON_clean_sbu_0, # of connection points: 4
#     Node 4, Type 0, BuildingBlock: MUDLON_clean_sbu_0, # of connection points: 4
#     Node 5, Type 0, BuildingBlock: MUDLON_clean_sbu_0, # of connection points: 4
#     Node 6, Type 0, BuildingBlock: MUDLON_clean_sbu_0, # of connection points: 4
#     Node 7, Type 0, BuildingBlock: MUDLON_clean_sbu_0, # of connection points: 4
#     Node 8, Type 0, BuildingBlock: MUDLON_clean_sbu_0, # of connection points: 4
#     Node 9, Type 0, BuildingBlock: MUDLON_clean_sbu_0, # of connection points: 4
#     Node 10, Type 0, BuildingBlock: MUDLON_clean_sbu_0, # of connection points: 4
#     Node 11, Type 0, BuildingBlock: MUDLON_clean_sbu_0, # of connection points: 4
#     Node 12, Type 0, BuildingBlock: MUDLON_clean_sbu_0, # of connection points: 4
#     Node 13, Type 0, BuildingBlock: MUDLON_clean_sbu_0, # of connection points: 4
#     Node 14, Type 0, BuildingBlock: MUDLON_clean_sbu_0, # of connection points: 4
#     Node 15, Type 0, BuildingBlock: MUDLON_clean_sbu_0, # of connection points: 4
#     Node 16, Type 0, BuildingBlock: MUDLON_clean_sbu_0, # of connection points: 4
#     Node 17, Type 0, BuildingBlock: MUDLON_clean_sbu_0, # of connection points: 4
#     Edge 18, Type (0, 0), BuildingBlock: MIFKUJ_clean_linker_0, # of connection points: 2
#     Edge 19, Type (0, 0), BuildingBlock: MIFKUJ_clean_linker_0, # of connection points: 2
#     Edge 20, Type (0, 0), BuildingBlock: MIFKUJ_clean_linker_0, # of connection points: 2
#     Edge 21, Type (0, 0), BuildingBlock: MIFKUJ_clean_linker_0, # of connection points: 2
#     Edge 22, Type (0, 0), BuildingBlock: MIFKUJ_clean_linker_0, # of connection points: 2
#     Edge 23, Type (0, 0), BuildingBlock: MIFKUJ_clean_linker_0, # of connection points: 2
#     Edge 24, Type (0, 0), BuildingBlock: MIFKUJ_clean_linker_0, # of connection points: 2
#     Edge 25, Type (0, 0), BuildingBlock: MIFKUJ_clean_linker_0, # of connection points: 2
#     Edge 26, Type (0, 0), BuildingBlock: MIFKUJ_clean_linker_0, # of connection points: 2
#     Edge 27, Type (0, 0), BuildingBlock: MIFKUJ_clean_linker_0, # of connection points: 2
#     Edge 28, Type (0, 0), BuildingBlock: MIFKUJ_clean_linker_0, # of connection points: 2
#     Edge 29, Type (0, 0), BuildingBlock: MIFKUJ_clean_linker_0, # of connection points: 2
#     Edge 30, Type (0, 0), BuildingBlock: MIFKUJ_clean_linker_0, # of connection points: 2
#     Edge 31, Type (0, 0), BuildingBlock: MIFKUJ_clean_linker_0, # of connection points: 2
#     Edge 32, Type (0, 0), BuildingBlock: MIFKUJ_clean_linker_0, # of connection points: 2
#     Edge 33, Type (0, 0), BuildingBlock: MIFKUJ_clean_linker_0, # of connection points: 2
#     Edge 34, Type (0, 0), BuildingBlock: MIFKUJ_clean_linker_0, # of connection points: 2
#     Edge 35, Type (0, 0), BuildingBlock: MIFKUJ_clean_linker_0, # of connection points: 2
#     Edge 36, Type (0, 0), BuildingBlock: MIFKUJ_clean_linker_0, # of connection points: 2
#     Edge 37, Type (0, 0), BuildingBlock: MIFKUJ_clean_linker_0, # of connection points: 2
#     Edge 38, Type (0, 0), BuildingBlock: MIFKUJ_clean_linker_0, # of connection points: 2
#     Edge 39, Type (0, 0), BuildingBlock: MIFKUJ_clean_linker_0, # of connection points: 2
#     Edge 40, Type (0, 0), BuildingBlock: MIFKUJ_clean_linker_0, # of connection points: 2
#     Edge 41, Type (0, 0), BuildingBlock: MIFKUJ_clean_linker_0, # of connection points: 2
#     Edge 42, Type (0, 0), BuildingBlock: MIFKUJ_clean_linker_0, # of connection points: 2
#     Edge 43, Type (0, 0), BuildingBlock: MIFKUJ_clean_linker_0, # of connection points: 2
#     Edge 44, Type (0, 0), BuildingBlock: MIFKUJ_clean_linker_0, # of connection points: 2
#     Edge 45, Type (0, 0), BuildingBlock: MIFKUJ_clean_linker_0, # of connection points: 2
#     Edge 46, Type (0, 0), BuildingBlock: MIFKUJ_clean_linker_0, # of connection points: 2
#     Edge 47, Type (0, 0), BuildingBlock: MIFKUJ_clean_linker_0, # of connection points: 2
#     Edge 48, Type (0, 0), BuildingBlock: MIFKUJ_clean_linker_0, # of connection points: 2
#     Edge 49, Type (0, 0), BuildingBlock: MIFKUJ_clean_linker_0, # of connection points: 2
#     Edge 50, Type (0, 0), BuildingBlock: MIFKUJ_clean_linker_0, # of connection points: 2
#     Edge 51, Type (0, 0), BuildingBlock: MIFKUJ_clean_linker_0, # of connection points: 2
#     Edge 52, Type (0, 0), BuildingBlock: MIFKUJ_clean_linker_0, # of connection points: 2
#     Edge 53, Type (0, 0), BuildingBlock: MIFKUJ_clean_linker_0, # of connection points: 2
# Relax obj value: 0.098
# Max RMSD: 0.215
# Mean RMSD: 0.212
data_MOF--net-unn--node1-MUDLON_clean_sbu_0--edge1-MIFKUJ_clean_linker_0
_symmetry_space_group_name_H-M    P1
_symmetry_Int_Tables_number       1
_symmetry_cell_setting            triclinic
loop_
_symmetry_equiv_pos_as_xyz
'x, y, z'
_cell_length_a     62.522376
_cell_length_b     62.4177
_cell_length_c     53.821408
_cell_angle_alpha  90.481613
_cell_angle_beta   89.654766
_cell_angle_gamma 120.31732
loop_
_atom_site_label
_atom_site_type_symbol
_atom_site_fract_x
_atom_site_fract_y
_atom_site_fract_z
_atom_type_partial_charge
Mg0 Mg 0.02846 0.75377 0.25584 0.0
C1 C 0.06033 0.74175 0.22156 0.0
O2 O 0.07828 0.75645 0.23667 0.0
C3 C 1.01101 0.73868 0.30698 0.0
O4 O 1.01754 0.76227 0.30701 0.0
C5 C 0.97625 0.73743 0.24193 0.0
O6 O 0.9743 0.71973 0.25643 0.0
O7 O 0.99767 0.75662 0.23888 0.0
O8 O 0.03833 0.73682 0.22609 0.0
O9 O 0.06371 0.78475 0.2712 0.0
C10 C 0.07473 0.77676 0.28506 0.0
O11 O 0.06397 0.7527 0.28851 0.0
O12 O 1.01285 0.72885 0.28693 0.0
Mg13 Mg 0.31001 0.27458 0.25015 0.0
C14 C 0.34972 0.31889 0.27989 0.0
O15 O 0.34285 0.33193 0.26662 0.0
C16 C 0.30051 0.27808 0.19809 0.0
O17 O 0.28463 0.25491 0.20385 0.0
C18 C 0.27843 0.29451 0.26709 0.0
O19 O 0.29426 0.31077 0.25129 0.0
O20 O 0.27827 0.27406 0.26961 0.0
O21 O 0.34036 0.29586 0.27541 0.0
O22 O 0.31456 0.24289 0.23866 0.0
C23 C 0.33568 0.25125 0.22811 0.0
O24 O 0.35028 0.27546 0.2271 0.0
O25 O 0.31446 0.29269 0.21501 0.0
Mg26 Mg 0.77228 0.03944 0.23455 0.0
C27 C 0.77439 0.06992 0.2781 0.0
O28 O 0.79754 0.08238 0.27057 0.0
C29 C 0.74249 0.0449 0.19441 0.0
O30 O 0.7514 0.06671 0.20522 0.0
C31 C 0.74749 0.98968 0.25624 0.0
O32 O 0.73055 0.99584 0.2524 0.0
O33 O 0.76972 1.00508 0.24951 0.0
O34 O 0.75878 0.05141 0.26539 0.0
O35 O 0.80571 0.07359 0.22126 0.0
C36 C 0.81001 0.07817 0.19811 0.0
O37 O 0.7975 0.06016 0.18206 0.0
O38 O 0.7469 0.02897 0.20394 0.0
Mg39 Mg 0.03946 0.28292 0.74331 0.0
C40 C 0.98832 0.25652 0.72683 0.0
O41 O 0.99552 0.28018 0.72927 0.0
C42 C 0.08959 0.3082 0.76311 0.0
O43 O 0.08338 0.32501 0.75857 0.0
C44 C 0.04126 0.29161 0.69023 0.0
O45 O 0.03277 0.26766 0.69187 0.0
O46 O 0.04801 0.30482 0.70986 0.0
O47 O 1.00357 0.24957 0.73319 0.0
O48 O 0.03018 0.29982 0.77325 0.0
C49 C 1.01663 0.28507 0.79015 0.0
O50 O 1.00828 0.26119 0.78738 0.0
O51 O 0.07398 0.28564 0.75744 0.0
Mg52 Mg 0.76875 0.73871 0.73792 0.0
C53 C 0.75212 0.77491 0.75154 0.0
O54 O 0.73637 0.7612 0.73415 0.0
C55 C 0.7929 0.71308 0.71738 0.0
O56 O 0.76881 0.69814 0.71581 0.0
C57 C 0.72975 0.70751 0.77591 0.0
O58 O 0.71838 0.71837 0.7664 0.0
O59 O 0.74946 0.71061 0.76565 0.0
O60 O 0.77031 0.77162 0.75609 0.0
O61 O 0.74877 0.73103 0.70332 0.0
C62 C 0.75865 0.74842 0.68754 0.0
O63 O 0.77834 0.76945 0.69405 0.0
O64 O 0.80073 0.73446 0.72729 0.0
Mg65 Mg 0.30694 0.04418 0.74794 0.0
C66 C 0.30942 0.01111 0.7082 0.0
O67 O 0.29329 0.99363 0.72288 0.0
C68 C 0.33456 0.06304 0.79525 0.0
O69 O 0.32555 0.07788 0.79261 0.0
C70 C 0.30795 0.08726 0.71849 0.0
O71 O 0.29432 0.06927 0.70282 0.0
O72 O 0.31353 0.08179 0.73936 0.0
O73 O 0.31866 0.03368 0.71462 0.0
O74 O 0.27176 0.01089 0.75962 0.0
C75 C 0.26703 1.00615 0.7827 0.0
O76 O 0.28003 0.02379 0.79892 0.0
O77 O 0.33135 0.04781 0.7779 0.0
Mg78 Mg 0.70304 0.08218 0.58087 0.0
C79 C 0.73405 0.08894 0.53625 0.0
O80 O 0.74641 0.11122 0.5462 0.0
C81 C 0.69169 0.06248 0.63057 0.0
O82 O 0.69571 0.08521 0.63279 0.0
C83 C 0.65167 0.05669 0.56478 0.0
O84 O 0.65814 0.03992 0.56833 0.0
O85 O 0.66774 0.07937 0.56941 0.0
O86 O 0.71522 0.07212 0.54754 0.0
O87 O 0.73646 0.11387 0.59791 0.0
C88 C 0.75147 0.10668 0.60448 0.0
O89 O 0.74529 0.08362 0.59949 0.0
O90 O 0.69267 0.05442 0.60911 0.0
Mg91 Mg 0.97195 0.59859 0.58948 0.0
C92 C 0.94585 0.62156 0.61158 0.0
O93 O 0.96908 0.63884 0.60805 0.0
C94 C 0.99476 0.56658 0.58005 0.0
O95 O 1.01146 0.58435 0.59418 0.0
C96 C 0.99195 0.60486 0.63945 0.0
O97 O 0.97231 0.58248 0.63976 0.0
O98 O 0.99824 0.61664 0.6191 0.0
O99 O 0.93924 0.59942 0.60458 0.0
O100 O 0.98227 0.62174 0.55708 0.0
C101 C 0.97255 0.61016 0.53698 0.0
O102 O 0.95785 0.58596 0.53761 0.0
O103 O 0.97428 0.56598 0.57633 0.0
Mg104 Mg 0.43953 0.37967 0.58159 0.0
C105 C 0.41782 0.35311 0.53423 0.0
O106 O 0.43098 0.34304 0.54083 0.0
C107 C 0.40242 0.38689 0.61329 0.0
O108 O 0.38555 0.37149 0.59758 0.0
C109 C 0.46643 0.42981 0.56252 0.0
O110 O 0.44322 0.42363 0.56629 0.0
O111 O 0.47276 0.41388 0.56806 0.0
O112 O 0.41635 0.36828 0.54899 0.0
O113 O 0.43707 0.3461 0.59904 0.0
C114 C 0.41457 0.32886 0.60233 0.0
O115 O 0.39704 0.3326 0.59396 0.0
O116 O 0.42496 0.39315 0.61009 0.0
Mg117 Mg 0.70422 0.62857 0.07568 0.0
C118 C 0.7302 0.66017 0.03208 0.0
O119 O 0.74391 0.65007 0.036 0.0
C120 C 0.66784 0.63697 0.1067 0.0
O121 O 0.65414 0.62969 0.08655 0.0
C122 C 0.65402 0.57988 0.06731 0.0
O123 O 0.65209 0.58062 0.09159 0.0
O124 O 0.67445 0.59526 0.05695 0.0
O125 O 0.71289 0.65585 0.04727 0.0
O126 O 0.73989 0.63314 0.08868 0.0
C127 C 0.74372 0.6334 0.11199 0.0
O128 O 0.72509 0.62731 0.12729 0.0
O129 O 0.6887 0.6381 0.10673 0.0
Mg130 Mg 0.44904 0.07874 0.08129 0.0
C131 C 0.42491 0.10318 0.10493 0.0
O132 O 0.40903 0.0792 0.10408 0.0
C133 C 0.47556 0.05496 0.0621 0.0
O134 O 0.45332 0.03758 0.06898 0.0
C135 C 0.4214 0.03486 0.11749 0.0
O136 O 0.40678 0.02268 0.09877 0.0
O137 O 0.43947 0.0567 0.1144 0.0
O138 O 0.44639 0.11093 0.09541 0.0
O139 O 0.42102 0.06078 0.05293 0.0
C140 C 0.41478 0.07412 0.04079 0.0
O141 O 0.42427 0.09757 0.04703 0.0
O142 O 0.48127 0.07757 0.06527 0.0
Mg143 Mg 0.96314 0.37486 0.07452 0.0
C144 C 0.96391 0.35718 0.02468 0.0
O145 O 0.94306 0.35749 0.02577 0.0
C146 C 0.97584 0.38604 0.12639 0.0
O147 O 0.95309 0.38189 0.12473 0.0
C148 C 0.98523 0.42241 0.04731 0.0
O149 O 1.00091 0.41435 0.04503 0.0
O150 O 0.96544 0.40938 0.06 0.0
O151 O 0.97754 0.36345 0.04385 0.0
O152 O 0.92976 0.34014 0.08764 0.0
C153 C 0.93097 0.32043 0.08437 0.0
O154 O 0.94992 0.32214 0.07201 0.0
O155 O 0.98677 0.38539 0.10667 0.0
Mg156 Mg 0.37109 0.41501 0.91503 0.0
C157 C 0.39937 0.41136 0.87199 0.0
O158 O 0.41436 0.4345 0.87877 0.0
C159 C 0.3514 0.36916 0.94909 0.0
O160 O 0.35214 0.35711 0.92928 0.0
C161 C 0.32289 0.39235 0.89102 0.0
O162 O 0.32863 0.37507 0.89464 0.0
O163 O 0.33828 0.41437 0.89853 0.0
O164 O 0.38091 0.39773 0.88571 0.0
O165 O 0.40572 0.44807 0.92858 0.0
C166 C 0.4175 0.44218 0.94385 0.0
O167 O 0.40817 0.41862 0.94918 0.0
O168 O 0.35737 0.39179 0.94744 0.0
Mg169 Mg 0.64183 0.93513 0.91731 0.0
C170 C 0.6817 0.98073 0.94358 0.0
O171 O 0.67738 0.99206 0.92553 0.0
C172 C 0.64394 0.93932 0.86266 0.0
O173 O 0.63009 0.91522 0.86555 0.0
C174 C 0.6113 0.95829 0.92846 0.0
O175 O 0.62798 0.97326 0.91244 0.0
O176 O 0.61019 0.93768 0.93306 0.0
O177 O 0.67072 0.95717 0.94361 0.0
O178 O 0.6431 0.90094 0.90911 0.0
C179 C 0.66468 0.90342 0.9099 0.0
O180 O 0.68294 0.92411 0.91913 0.0
O181 O 0.65147 0.95328 0.88176 0.0
Mg182 Mg 0.10802 0.71534 0.91575 0.0
C183 C 0.11816 0.73242 0.96694 0.0
O184 O 0.13765 0.73096 0.96025 0.0
C185 C 0.0791 0.72138 0.87437 0.0
O186 O 0.09672 0.7447 0.87642 0.0
C187 C 0.08399 0.66693 0.94037 0.0
O188 O 0.07019 0.67699 0.94432 0.0
O189 O 0.10354 0.679 0.92709 0.0
O190 O 0.10177 0.72823 0.95077 0.0
O191 O 0.14096 0.74701 0.89784 0.0
C192 C 0.14615 0.76873 0.90493 0.0
O193 O 0.13384 0.77064 0.92384 0.0
O194 O 0.07828 0.70565 0.88978 0.0
Mg195 Mg 0.36667 0.94227 0.41902 0.0
C196 C 0.31909 0.9196 0.39455 0.0
O197 O 0.32921 0.94385 0.39395 0.0
C198 C 0.41553 0.96572 0.44064 0.0
O199 O 0.41117 0.98296 0.43253 0.0
C200 C 0.38203 0.94836 0.36809 0.0
O201 O 0.37507 0.92526 0.37359 0.0
O202 O 0.38163 0.96242 0.38506 0.0
O203 O 0.33107 0.91077 0.40547 0.0
O204 O 0.35594 0.961 0.44582 0.0
C205 C 0.33882 0.94628 0.46038 0.0
O206 O 0.32848 0.92227 0.45644 0.0
O207 O 0.39867 0.94305 0.43734 0.0
Mg208 Mg 0.11231 0.41394 0.41031 0.0
C209 C 0.09935 0.4534 0.42256 0.0
O210 O 0.08738 0.44412 0.40165 0.0
C211 C 0.13649 0.3856 0.39656 0.0
O212 O 0.11259 0.36964 0.39775 0.0
C213 C 0.07043 0.38419 0.44605 0.0
O214 O 0.06431 0.40066 0.43972 0.0
O215 O 0.08868 0.38435 0.43531 0.0
O216 O 0.11434 0.44647 0.42984 0.0
O217 O 0.09509 0.40915 0.37436 0.0
C218 C 0.072 0.39595 0.37023 0.0
O219 O 0.05676 0.38431 0.38868 0.0
O220 O 0.14393 0.40826 0.40209 0.0
Mg221 Mg 0.63406 0.70357 0.40141 0.0
C222 C 0.61679 0.67282 0.35539 0.0
O223 O 0.59551 0.66792 0.36521 0.0
C224 C 0.67635 0.72927 0.4376 0.0
O225 O 0.67398 0.74837 0.43181 0.0
C226 C 0.64305 0.74694 0.36804 0.0
O227 O 0.63843 0.72968 0.35136 0.0
O228 O 0.64052 0.74102 0.39102 0.0
O229 O 0.63667 0.68678 0.36722 0.0
O230 O 0.60105 0.67343 0.42024 0.0
C231 C 0.60197 0.66953 0.44337 0.0
O232 O 0.62032 0.68663 0.45662 0.0
O233 O 0.66345 0.70886 0.42611 0.0
H234 H 0.10487 0.74824 0.20585 0.0
H235 H 0.11614 0.74342 0.16346 0.0
H236 H 0.04077 0.71587 0.13989 0.0
H237 H 0.0292 0.71988 0.18224 0.0
H238 H 0.05977 0.69268 0.11543 0.0
H239 H 0.08519 0.7777 0.13496 0.0
H240 H 0.10691 0.81675 0.15898 0.0
H241 H 0.17669 0.82166 0.14341 0.0
H242 H 0.15531 0.78244 0.11954 0.0
H243 H 0.07564 0.72591 0.98856 0.0
H244 H 0.06724 0.72569 0.03303 0.0
H245 H 0.14225 0.74467 0.04949 0.0
H246 H 0.15088 0.74504 0.0051 0.0
H247 H 0.12573 0.77089 0.07799 0.0
H248 H 0.09743 0.68681 0.05203 0.0
H249 H 0.07316 0.64949 0.02618 0.0
H250 H 1.00557 0.64345 0.05304 0.0
H251 H 0.0294 0.68141 0.0782 0.0
C252 C 0.0906 0.74068 0.19174 0.0
C253 C 0.06624 0.73482 0.19729 0.0
C254 C 0.09708 0.73804 0.16752 0.0
C255 C 0.07941 0.72988 0.14844 0.0
C256 C 0.05473 0.72234 0.15431 0.0
C257 C 0.04817 0.72471 0.17855 0.0
C258 C 0.08686 0.73108 0.12211 0.0
C259 C 0.07409 0.70979 0.10718 0.0
C260 C 0.10574 0.75339 0.11148 0.0
C261 C 0.11863 0.777 0.12573 0.0
C262 C 0.10515 0.78702 0.13682 0.0
C263 C 0.1174 0.80919 0.15038 0.0
C264 C 0.14316 0.82164 0.15279 0.0
C265 C 0.15673 0.81197 0.14157 0.0
C266 C 0.14456 0.78978 0.12802 0.0
C267 C 0.09045 0.73039 0.00162 0.0
C268 C 0.11388 0.73534 0.99338 0.0
C269 C 0.08557 0.7301 0.02699 0.0
C270 C 0.10403 0.73475 0.04444 0.0
C271 C 0.12776 0.74088 0.03624 0.0
C272 C 0.13262 0.74105 0.01091 0.0
C273 C 0.09842 0.73259 0.07127 0.0
C274 C 0.11158 0.7537 0.08628 0.0
C275 C 0.07958 0.71023 0.08183 0.0
C276 C 0.06526 0.68717 0.06686 0.0
C277 C 0.07741 0.67773 0.05222 0.0
C278 C 0.06371 0.65645 0.03766 0.0
C279 C 0.03785 0.64407 0.03803 0.0
C280 C 0.02561 0.65306 0.0528 0.0
C281 C 0.03921 0.67452 0.06713 0.0
H282 H 0.02725 0.62749 0.02693 0.0
H283 H 0.15261 0.8388 0.16329 0.0
H284 H 0.32711 0.31947 0.95989 0.0
H285 H 0.31718 0.30061 0.00139 0.0
H286 H 0.35264 0.37349 0.03498 0.0
H287 H 0.3623 0.39236 0.99396 0.0
H288 H 0.36651 0.34017 0.05557 0.0
H289 H 0.29344 0.34397 0.03225 0.0
H290 H 0.25824 0.33465 0.0049 0.0
H291 H 0.22982 0.25655 0.01382 0.0
H292 H 0.26509 0.26543 0.04096 0.0
H293 H 0.32864 0.32512 0.18002 0.0
H294 H 0.3358 0.33765 0.13645 0.0
H295 H 0.28722 0.26167 0.11368 0.0
H296 H 0.27945 0.2491 0.15714 0.0
H297 H 0.27972 0.292 0.08578 0.0
H298 H 0.34948 0.28718 0.11264 0.0
H299 H 0.38446 0.29551 0.13987 0.0
H300 H 0.41969 0.37322 0.12338 0.0
H301 H 0.38463 0.36548 0.09654 0.0
C302 C 0.33277 0.3314 0.97616 0.0
C303 C 0.34533 0.35734 0.97372 0.0
C304 C 0.32709 0.32064 -0.00024 0.0
C305 C 0.33421 0.33574 0.02111 0.0
C306 C 0.34707 0.36159 0.01867 0.0
C307 C 0.35241 0.3723 0.99522 0.0
C308 C 0.32807 0.32489 0.04619 0.0
C309 C 0.34757 0.32973 0.06229 0.0
C310 C 0.30332 0.31069 0.05453 0.0
C311 C 0.28205 0.30537 0.03837 0.0
C312 C 0.27981 0.32482 0.02819 0.0
C313 C 0.25982 0.31961 0.01277 0.0
C314 C 0.24185 0.29502 0.00755 0.0
C315 C 0.24378 0.27559 0.01783 0.0
C316 C 0.26376 0.28069 0.03324 0.0
C317 C 0.31934 0.31112 0.16573 0.0
C318 C 0.30362 0.28612 0.17198 0.0
C319 C 0.32353 0.31828 0.14086 0.0
C320 C 0.31239 0.3005 0.12185 0.0
C321 C 0.29606 0.27566 0.12806 0.0
C322 C 0.29168 0.26852 0.15292 0.0
C323 C 0.31822 0.30777 0.09549 0.0
C324 C 0.29868 0.30218 0.07909 0.0
C325 C 0.34298 0.32106 0.08678 0.0
C326 C 0.36429 0.32576 0.10269 0.0
C327 C 0.36459 0.30608 0.11495 0.0
C328 C 0.38444 0.31069 0.13031 0.0
C329 C 0.40428 0.33487 0.13334 0.0
C330 C 0.4043 0.35449 0.12101 0.0
C331 C 0.38444 0.35001 0.10573 0.0
H332 H 0.41964 0.33839 0.14522 0.0
H333 H 0.22639 0.29103 -0.0044 0.0
H334 H 0.73734 0.07763 0.16486 0.0
H335 H 0.72856 0.07325 0.12016 0.0
H336 H 0.71753 0.99928 0.12151 0.0
H337 H 0.72591 1.00324 0.16596 0.0
H338 H 0.75509 0.03359 0.08768 0.0
H339 H 0.67022 1.00456 0.1137 0.0
H340 H 0.6365 1.00803 0.13366 0.0
H341 H 0.65287 0.07036 0.08759 0.0
H342 H 0.68709 0.06761 0.06776 0.0
H343 H 0.69921 0.96459 0.98076 0.0
H344 H 0.71392 0.9839 0.02133 0.0
H345 H 0.7084 0.04702 -0.00161 0.0
H346 H 0.69339 0.02761 0.95761 0.0
H347 H 0.68439 0.02834 0.04119 0.0
H348 H 0.76489 0.05441 0.01088 0.0
H349 H 0.79809 0.05109 0.98952 0.0
H350 H 0.79108 0.99664 0.04223 0.0
H351 H 0.75757 0.99934 0.06371 0.0
C352 C 0.73245 0.06021 0.15575 0.0
C353 C 0.73259 0.04087 0.16889 0.0
C354 C 0.72749 0.05779 0.13024 0.0
C355 C 0.72269 0.03606 0.11765 0.0
C356 C 0.7214 0.01626 0.13098 0.0
C357 C 0.72613 0.01855 0.15639 0.0
C358 C 0.72114 0.03443 0.09031 0.0
C359 C 0.73963 0.03241 0.07744 0.0
C360 C 0.70156 0.03406 0.07701 0.0
C361 C 0.68149 0.03614 0.08953 0.0
C362 C 0.66691 0.01927 0.10811 0.0
C363 C 0.64764 0.02105 0.11935 0.0
C364 C 0.64262 0.03948 0.11199 0.0
C365 C 0.65684 0.05616 0.09336 0.0
C366 C 0.67619 0.05452 0.08214 0.0
C367 C 0.70165 0.98283 0.98413 0.0
C368 C 0.69506 0.99454 0.96606 0.0
C369 C 0.71019 0.99392 0.0073 0.0
C370 C 0.71239 0.01697 0.01281 0.0
C371 C 0.70691 0.02927 0.99443 0.0
C372 C 0.69848 0.01821 0.97112 0.0
C373 C 0.71789 0.02663 0.03857 0.0
C374 C 0.70024 0.03023 0.05122 0.0
C375 C 0.7384 0.02873 0.05166 0.0
C376 C 0.75861 0.02702 0.03885 0.0
C377 C 0.7703 0.0416 0.01783 0.0
C378 C 0.7892 0.03985 0.00571 0.0
C379 C 0.79667 0.02365 0.01449 0.0
C380 C 0.78528 1.00919 0.03545 0.0
C381 C 0.76636 0.01086 0.04763 0.0
H382 H 0.81131 0.02231 0.00508 0.0
H383 H 0.62764 0.04077 0.12066 0.0
H384 H 0.70519 0.04996 0.50546 0.0
H385 H 0.71186 0.04632 0.46128 0.0
H386 H 0.78229 0.11456 0.46505 0.0
H387 H 0.77541 0.11869 0.50911 0.0
H388 H 0.7561 0.11609 0.42816 0.0
H389 H 0.77701 0.05674 0.45756 0.0
H390 H 0.77132 0.0199 0.4799 0.0
H391 H 0.70733 0.9731 0.43555 0.0
H392 H 0.71233 1.0097 0.41324 0.0
H393 H 0.80341 0.10733 0.31027 0.0
H394 H 0.79494 0.11068 0.35401 0.0
H395 H 0.72223 0.04592 0.34653 0.0
H396 H 0.73058 0.04227 0.30277 0.0
H397 H 0.74843 0.04212 0.38481 0.0
H398 H 0.72803 0.10184 0.35534 0.0
H399 H 0.73485 0.13874 0.33227 0.0
H400 H 0.79933 0.18484 0.37629 0.0
H401 H 0.7931 0.14815 0.39942 0.0
C402 C 0.7223 0.06396 0.49698 0.0
C403 C 0.73973 0.0847 0.51068 0.0
C404 C 0.72612 0.06182 0.47173 0.0
C405 C 0.74761 0.08015 0.45989 0.0
C406 C 0.76552 0.10028 0.47381 0.0
C407 C 0.76161 0.10257 0.49899 0.0
C408 C 0.75059 0.07932 0.43266 0.0
C409 C 0.7548 0.10004 0.41873 0.0
C410 C 0.7481 0.05808 0.4203 0.0
C411 C 0.74488 0.03604 0.43393 0.0
C412 C 0.76155 0.03863 0.45276 0.0
C413 C 0.75848 0.01778 0.46539 0.0
C414 C 0.73892 0.99418 0.45922 0.0
C415 C 0.72242 0.99139 0.44037 0.0
C416 C 0.72537 0.01219 0.42773 0.0
C417 C 0.78544 0.09407 0.31779 0.0
C418 C 0.76773 0.07443 0.30313 0.0
C419 C 0.78062 0.09605 0.34278 0.0
C420 C 0.75798 0.07852 0.35344 0.0
C421 C 0.73983 0.05957 0.33859 0.0
C422 C 0.74461 0.0576 0.31358 0.0
C423 C 0.75405 0.07888 0.38047 0.0
C424 C 0.74966 0.0581 0.39432 0.0
C425 C 0.75648 0.10007 0.39277 0.0
C426 C 0.76021 0.1222 0.37897 0.0
C427 C 0.74378 0.11981 0.35998 0.0
C428 C 0.74752 0.1407 0.34691 0.0
C429 C 0.76755 0.16411 0.35277 0.0
C430 C 0.78384 0.16669 0.37176 0.0
C431 C 0.78019 0.14586 0.38487 0.0
H432 H 0.77041 0.18026 0.34263 0.0
H433 H 0.7366 0.97806 0.469 0.0
H434 H 0.95925 0.59012 0.49059 0.0
H435 H 0.96537 0.612 0.45146 0.0
H436 H 1.00173 0.68211 0.49056 0.0
H437 H 0.99566 0.66034 0.52995 0.0
H438 H 0.96549 0.67736 0.45696 0.0
H439 H 0.03586 0.6655 0.45839 0.0
H440 H 0.05667 0.64102 0.46212 0.0
H441 H 1.01634 0.59678 0.39901 0.0
H442 H 0.99501 0.62077 0.39512 0.0
H443 H 1.01646 0.75717 0.35398 0.0
H444 H 1.00864 0.73467 0.39287 0.0
H445 H 0.98229 0.66609 0.35202 0.0
H446 H 0.99089 0.68871 0.3129 0.0
H447 H 1.0128 0.66942 0.38667 0.0
H448 H 0.94237 0.68015 0.3844 0.0
H449 H 0.91998 0.70306 0.38044 0.0
H450 H 0.95797 0.74729 0.44441 0.0
H451 H 0.98086 0.72487 0.44856 0.0
C452 C 0.96862 0.6102 0.4909 0.0
C453 C 0.977 0.62354 0.51333 0.0
C454 C 0.97216 0.62265 0.46852 0.0
C455 C 0.98412 0.64863 0.46819 0.0
C456 C 0.99248 0.66203 0.49052 0.0
C457 C 0.98909 0.64959 0.51294 0.0
C458 C 0.98752 0.66173 0.4445 0.0
C459 C 0.97611 0.67596 0.44166 0.0
C460 C 1.0007 0.65912 0.42441 0.0
C461 C 1.01366 0.64479 0.42661 0.0
C462 C 0.03128 0.65042 0.44543 0.0
C463 C 0.04319 0.63666 0.44755 0.0
C464 C 0.03778 0.61732 0.43085 0.0
C465 C 0.02049 0.61175 0.41195 0.0
C466 C 1.0085 0.62544 0.40976 0.0
C467 C 1.00875 0.73726 0.35325 0.0
C468 C 1.00426 0.72468 0.3304 0.0
C469 C 1.0042 0.7244 0.37552 0.0
C470 C 0.9946 0.69865 0.37537 0.0
C471 C 0.9897 0.68597 0.35256 0.0
C472 C 0.99455 0.69888 0.33025 0.0
C473 C 0.99077 0.68518 0.399 0.0
C474 C 1.00211 0.67085 0.40188 0.0
C475 C 0.97728 0.68748 0.41905 0.0
C476 C 0.96349 0.70097 0.41665 0.0
C477 C 0.94609 0.69489 0.39751 0.0
C478 C 0.93328 0.70776 0.39525 0.0
C479 C 0.93759 0.72666 0.41213 0.0
C480 C 0.95467 0.73267 0.43134 0.0
C481 C 0.96755 0.71987 0.43367 0.0
H482 H 0.92766 0.7366 0.41034 0.0
H483 H 0.04702 0.60667 0.43253 0.0
H484 H 0.40209 0.38115 0.51026 0.0
H485 H 0.39287 0.37999 0.46604 0.0
H486 H 0.40366 0.31743 0.4558 0.0
H487 H 0.41354 0.3189 0.49983 0.0
H488 H 0.429 0.35171 0.42233 0.0
H489 H 0.3454 0.31233 0.45457 0.0
H490 H 0.31087 0.30876 0.4801 0.0
H491 H 0.31814 0.37406 0.44596 0.0
H492 H 0.35305 0.3783 0.42059 0.0
H493 H 0.37092 0.29888 0.30846 0.0
H494 H 0.38657 0.31102 0.35061 0.0
H495 H 0.37577 0.37394 0.34643 0.0
H496 H 0.35973 0.36169 0.30414 0.0
H497 H 0.35349 0.34621 0.3865 0.0
H498 H 0.43406 0.3827 0.35088 0.0
H499 H 0.46739 0.38509 0.32422 0.0
H500 H 0.46525 0.32462 0.36385 0.0
H501 H 0.43166 0.32162 0.39054 0.0
C502 C 0.40208 0.36687 0.49867 0.0
C503 C 0.40861 0.35014 0.5085 0.0
C504 C 0.39679 0.36623 0.47339 0.0
C505 C 0.39756 0.34861 0.45761 0.0
C506 C 0.40313 0.3313 0.46761 0.0
C507 C 0.40864 0.33207 0.4928 0.0
C508 C 0.39387 0.34889 0.43045 0.0
C509 C 0.41237 0.35026 0.41448 0.0
C510 C 0.37266 0.34807 0.42023 0.0
C511 C 0.35203 0.3458 0.43589 0.0
C512 C 0.33983 0.3261 0.45272 0.0
C513 C 0.32016 0.32393 0.46713 0.0
C514 C 0.31237 0.34122 0.46472 0.0
C515 C 0.32423 0.36072 0.44787 0.0
C516 C 0.34397 0.36302 0.43349 0.0
C517 C 0.3724 0.31564 0.31626 0.0
C518 C 0.36393 0.32923 0.30304 0.0
C519 C 0.38147 0.32263 0.34035 0.0
C520 C 0.3824 0.34343 0.35163 0.0
C521 C 0.37522 0.35784 0.33801 0.0
C522 C 0.3662 0.35089 0.31381 0.0
C523 C 0.3883 0.34831 0.37842 0.0
C524 C 0.37028 0.34801 0.39433 0.0
C525 C 0.40992 0.35006 0.3886 0.0
C526 C 0.43021 0.35185 0.37263 0.0
C527 C 0.44057 0.36979 0.35381 0.0
C528 C 0.45954 0.37128 0.3387 0.0
C529 C 0.46841 0.355 0.34231 0.0
C530 C 0.45836 0.33722 0.36107 0.0
C531 C 0.43938 0.33565 0.37622 0.0
H532 H 0.48309 0.35617 0.3306 0.0
H533 H 0.2971 0.33947 0.47585 0.0
H534 H 0.03989 0.33314 0.80661 0.0
H535 H 0.03525 0.3482 0.84723 0.0
H536 H 0.97885 0.27383 0.867 0.0
H537 H 0.98386 0.25855 0.82678 0.0
H538 H 0.9988 0.34929 0.86981 0.0
H539 H 0.98205 0.26348 0.92741 0.0
H540 H 0.99461 0.23184 0.92658 0.0
H541 H 0.06026 0.28124 0.88564 0.0
H542 H 0.04828 0.3133 0.88653 0.0
H543 H 0.93804 0.34195 0.98139 0.0
H544 H 0.95128 0.33275 0.94205 0.0
H545 H 0.02059 0.34899 0.97519 0.0
H546 H 1.00731 0.35793 0.01492 0.0
H547 H 1.00202 0.30801 0.94697 0.0
H548 H 0.01931 0.3906 0.93732 0.0
H549 H 1.01146 0.42554 0.93844 0.0
H550 H 0.9537 0.38874 0.88434 0.0
H551 H 0.96091 0.35336 0.88319 0.0
C552 C 0.02641 0.32003 0.81957 0.0
C553 C 1.01235 0.29464 0.81362 0.0
C554 C 0.0238 0.32866 0.84276 0.0
C555 C 1.00707 0.31205 0.86029 0.0
C556 C 0.99233 0.28686 0.85398 0.0
C557 C 0.99509 0.27819 0.83093 0.0
C558 C 1.0048 0.32099 0.88515 0.0
C559 C 0.9996 0.34034 0.88668 0.0
C560 C 1.00661 0.30979 0.9072 0.0
C561 C 1.01414 0.29072 0.90688 0.0
C562 C 0.99923 0.26764 0.91835 0.0
C563 C 1.00623 0.24962 0.91784 0.0
C564 C 0.02818 0.2545 0.90601 0.0
C565 C 0.04322 0.27745 0.89473 0.0
C566 C 0.03631 0.29554 0.8952 0.0
C567 C 0.95609 0.34353 0.98038 0.0
C568 C 0.97169 0.35077 0.00122 0.0
C569 C 0.96367 0.33838 0.95784 0.0
C570 C 0.98706 0.34059 0.95564 0.0
C571 C 1.00251 0.3473 0.97652 0.0
C572 C 0.9949 0.35241 -0.00084 0.0
C573 C 0.99512 0.33565 0.93148 0.0
C574 C 1.00144 0.31709 0.9301 0.0
C575 C 0.99504 0.34805 0.90963 0.0
C576 C 0.99055 0.36924 0.9103 0.0
C577 C 1.0048 0.38985 0.92581 0.0
C578 C 1.00048 0.40975 0.92643 0.0
C579 C 0.98209 0.40933 0.91148 0.0
C580 C 0.96795 0.38902 0.8959 0.0
C581 C 0.97215 0.36905 0.89524 0.0
H582 H 0.97884 0.42475 0.9119 0.0
H583 H 0.03356 0.24051 0.90562 0.0
H584 H 0.76411 0.67123 0.99506 0.0
H585 H 0.76172 0.68315 0.95263 0.0
H586 H 0.69673 0.6872 0.97174 0.0
H587 H 0.69882 0.675 0.01431 0.0
H588 H 0.68855 0.65831 0.93183 0.0
H589 H 0.74959 0.73956 0.9559 0.0
H590 H 0.78803 0.77244 0.97516 0.0
H591 H 0.8313 0.75501 0.92565 0.0
H592 H 0.79311 0.72178 0.90631 0.0
H593 H 0.69245 0.7031 0.80641 0.0
H594 H 0.68914 0.69592 0.85132 0.0
H595 H 0.75123 0.68394 0.84835 0.0
H596 H 0.75445 0.69054 0.80363 0.0
H597 H 0.75788 0.72165 0.88118 0.0
H598 H 0.69503 0.63702 0.86062 0.0
H599 H 0.65593 0.60494 0.84166 0.0
H600 H 0.61538 0.63073 0.88497 0.0
H601 H 0.65431 0.66319 0.90395 0.0
C602 C 0.74961 0.67516 0.99042 0.0
C603 C 0.73153 0.67195 0.00799 0.0
C604 C 0.74832 0.68208 0.96615 0.0
C605 C 0.72904 0.68607 0.95905 0.0
C606 C 0.71171 0.68415 0.97687 0.0
C607 C 0.71302 0.67729 0.0012 0.0
C608 C 0.72575 0.68974 0.93251 0.0
C609 C 0.70352 0.67251 0.92083 0.0
C610 C 0.74536 0.7081 0.91817 0.0
C611 C 0.76844 0.72804 0.92976 0.0
C612 C 0.76729 0.74259 0.94925 0.0
C613 C 0.78904 0.76133 0.96015 0.0
C614 C 0.81209 0.76578 0.95166 0.0
C615 C 0.81343 0.75154 0.93221 0.0
C616 C 0.79173 0.73277 0.92124 0.0
C617 C 0.70498 0.69829 0.81521 0.0
C618 C 0.72393 0.69773 0.80149 0.0
C619 C 0.70312 0.69431 0.84086 0.0
C620 C 0.72025 0.6899 0.85309 0.0
C621 C 0.73805 0.68765 0.83921 0.0
C622 C 0.73976 0.69131 0.81362 0.0
C623 C 0.72112 0.68965 0.8805 0.0
C624 C 0.74284 0.70766 0.89229 0.0
C625 C 0.70098 0.67219 0.89493 0.0
C626 C 0.67761 0.65271 0.88348 0.0
C627 C 0.6778 0.636 0.86592 0.0
C628 C 0.65567 0.61771 0.85521 0.0
C629 C 0.63319 0.61585 0.86204 0.0
C630 C 0.6328 0.63223 0.87966 0.0
C631 C 0.65489 0.65056 0.89041 0.0
H632 H 0.61607 0.60167 0.85374 0.0
H633 H 0.82891 0.7803 0.96013 0.0
H634 H 0.40405 0.03215 0.01437 0.0
H635 H 0.38536 0.02054 0.97295 0.0
H636 H 0.37406 0.08325 0.97397 0.0
H637 H 0.3926 0.09493 0.01519 0.0
H638 H 0.33464 0.04079 0.95267 0.0
H639 H 0.4257 0.08838 0.94897 0.0
H640 H 0.46686 0.09414 0.95841 0.0
H641 H 0.44707 0.02537 0.92143 0.0
H642 H 0.40564 0.01903 0.91212 0.0
H643 H 0.34052 0.0905 0.83695 0.0
H644 H 0.34974 0.08289 0.87879 0.0
H645 H 0.35721 0.02182 0.85149 0.0
H646 H 0.348 0.02931 0.80931 0.0
H647 H 0.39379 0.0515 0.88531 0.0
H648 H 0.30685 1.00741 0.88152 0.0
H649 H 0.26451 0.99844 0.87282 0.0
H650 H 0.27455 0.05658 0.92309 0.0
H651 H 0.317 0.06578 0.93222 0.0
C652 C 0.39709 0.04314 0.00597 0.0
C653 C 0.40002 0.06462 0.01786 0.0
C654 C 0.38651 0.03652 0.98231 0.0
C655 C 0.37863 0.05123 0.97036 0.0
C656 C 0.38007 0.07169 0.98291 0.0
C657 C 0.39077 0.07841 0.0064 0.0
C658 C 0.37099 0.04702 0.94401 0.0
C659 C 0.34751 0.0431 0.9379 0.0
C660 C 0.38749 0.04903 0.92483 0.0
C661 C 0.41251 0.05309 0.93013 0.0
C662 C 0.43008 0.07441 0.94301 0.0
C663 C 0.45345 0.07778 0.94833 0.0
C664 C 0.45954 0.06008 0.94061 0.0
C665 C 0.44231 0.03903 0.92746 0.0
C666 C 0.41888 0.03553 0.92217 0.0
C667 C 0.34438 0.07561 0.83971 0.0
C668 C 0.34344 0.06047 0.81981 0.0
C669 C 0.34946 0.07117 0.86368 0.0
C670 C 0.35367 0.05151 0.86824 0.0
C671 C 0.35384 0.03698 0.84831 0.0
C672 C 0.34866 0.04137 0.82425 0.0
C673 C 0.35784 0.04642 0.89399 0.0
C674 C 0.38063 0.04857 0.89999 0.0
C675 C 0.34057 0.04243 0.91307 0.0
C676 C 0.31517 0.03732 0.90748 0.0
C677 C 0.30009 0.01835 0.89063 0.0
C678 C 0.27605 0.01321 0.88563 0.0
C679 C 0.26687 0.02701 0.89729 0.0
C680 C 0.28169 0.04591 0.91406 0.0
C681 C 0.30572 0.05102 0.91923 0.0
H682 H 0.24824 0.02303 0.89338 0.0
H683 H 0.47763 0.0627 0.94478 0.0
H684 H 0.34242 0.04282 0.67401 0.0
H685 H 0.34832 0.03318 0.63136 0.0
H686 H 0.29413 0.95605 0.64309 0.0
H687 H 0.28839 0.96542 0.68596 0.0
H688 H 0.33334 0.96128 0.61682 0.0
H689 H 0.27838 0.99412 0.61418 0.0
H690 H 0.26591 0.02513 0.62298 0.0
H691 H 0.32831 0.07961 0.58131 0.0
H692 H 0.34138 0.04905 0.57264 0.0
H693 H 0.30322 0.91921 0.49453 0.0
H694 H 0.29872 0.93241 0.53602 0.0
H695 H 0.35774 1.00684 0.52071 0.0
H696 H 0.36243 0.9938 0.47892 0.0
H697 H 0.31794 1.00464 0.54837 0.0
H698 H 0.37232 0.97131 0.55037 0.0
H699 H 0.38464 0.94018 0.54174 0.0
H700 H 0.32295 0.88634 0.58465 0.0
H701 H 0.31003 0.91708 0.59322 0.0
C702 C 0.33192 0.02375 0.66762 0.0
C703 C 0.31477 1.00489 0.68329 0.0
C704 C 0.33525 0.01831 0.64321 0.0
C705 C 0.32131 0.994 0.63398 0.0
C706 C 0.30496 0.97496 0.64986 0.0
C707 C 0.30169 0.98035 0.67433 0.0
C708 C 0.32324 0.98851 0.60756 0.0
C709 C 0.32971 0.97056 0.60187 0.0
C710 C 0.31904 1.00107 0.58809 0.0
C711 C 0.311 0.01937 0.59298 0.0
C712 C 0.28954 0.01277 0.60705 0.0
C713 C 0.28235 0.03026 0.61201 0.0
C714 C 0.29635 0.05436 0.60281 0.0
C715 C 0.31751 0.06098 0.58851 0.0
C716 C 0.32481 0.04357 0.58355 0.0
C717 C 0.31501 0.93849 0.49978 0.0
C718 C 0.33343 0.9554 0.48359 0.0
C719 C 0.31243 0.94597 0.52352 0.0
C720 C 0.32822 0.97044 0.53149 0.0
C721 C 0.34549 0.98782 0.51485 0.0
C722 C 0.34813 0.98034 0.49103 0.0
C723 C 0.32778 0.97725 0.55773 0.0
C724 C 0.32164 0.99545 0.56337 0.0
C725 C 0.33224 0.9649 0.57719 0.0
C726 C 0.34008 0.94643 0.57224 0.0
C727 C 0.36127 0.95278 0.55781 0.0
C728 C 0.36838 0.93521 0.55295 0.0
C729 C 0.35455 0.91128 0.56259 0.0
C730 C 0.33362 0.90488 0.57717 0.0
C731 C 0.32641 0.92238 0.58205 0.0
H732 H 0.36009 0.8977 0.55881 0.0
H733 H 0.29075 0.06786 0.60671 0.0
H734 H 1.0036 0.27027 0.65758 0.0
H735 H 1.00143 0.28518 0.61647 0.0
H736 H 0.07323 0.35035 0.62767 0.0
H737 H 0.07478 0.33607 0.66969 0.0
H738 H 0.04566 0.3623 0.60162 0.0
H739 H 0.06475 0.2958 0.59603 0.0
H740 H 0.05673 0.25354 0.60438 0.0
H741 H 0.98626 0.22243 0.56787 0.0
H742 H 0.99381 0.26452 0.55951 0.0
H743 H 0.0848 0.35473 0.469 0.0
H744 H 0.07275 0.33679 0.51024 0.0
H745 H 0.01934 0.36109 0.51537 0.0
H746 H 0.03191 0.37991 0.47425 0.0
H747 H 0.03299 0.30328 0.53313 0.0
H748 H 0.01879 0.37971 0.57484 0.0
H749 H 0.02959 0.42278 0.56606 0.0
H750 H 0.09662 0.43618 0.5299 0.0
H751 H 0.08627 0.39323 0.53863 0.0
C752 C 0.01881 0.2879 0.65131 0.0
C753 C 0.0396 0.30189 0.66642 0.0
C754 C 1.01753 0.29639 0.62786 0.0
C755 C 0.03743 0.3185 0.61869 0.0
C756 C 0.05771 0.33313 0.6343 0.0
C757 C 0.05868 0.32497 0.65817 0.0
C758 C 0.03787 0.32538 0.59232 0.0
C759 C 0.04279 0.34936 0.58666 0.0
C760 C 0.03409 0.30852 0.57272 0.0
C761 C 0.02979 0.28325 0.57728 0.0
C762 C 0.04754 0.27993 0.58983 0.0
C763 C 0.04307 0.25602 0.59457 0.0
C764 C 0.02098 0.23532 0.58668 0.0
C765 C 1.00337 0.23848 0.57395 0.0
C766 C 1.00775 0.26235 0.56917 0.0
C767 C 0.07019 0.35594 0.47868 0.0
C768 C 0.0596 0.36911 0.46855 0.0
C769 C 0.06328 0.34561 0.50227 0.0
C770 C 0.04555 0.34809 0.51608 0.0
C771 C 0.03348 0.35947 0.50522 0.0
C772 C 0.04059 0.37008 0.48168 0.0
C773 C 0.04129 0.34033 0.54241 0.0
C774 C 0.03553 0.31612 0.54809 0.0
C775 C 0.04481 0.35715 0.56195 0.0
C776 C 0.05163 0.38322 0.5572 0.0
C777 C 0.03589 0.39191 0.56513 0.0
C778 C 0.04193 0.41629 0.56015 0.0
C779 C 0.06378 0.43222 0.54743 0.0
C780 C 0.07968 0.42381 0.53972 0.0
C781 C 0.07373 0.39945 0.54466 0.0
H782 H 0.06842 0.45107 0.54357 0.0
H783 H 1.01754 0.21682 0.59041 0.0
H784 H 0.67359 0.68989 0.46239 0.0
H785 H 0.68961 0.69037 0.50382 0.0
H786 H 0.72446 0.77015 0.50635 0.0
H787 H 0.70839 0.76989 0.46495 0.0
H788 H 0.7538 0.75233 0.52631 0.0
H789 H 0.66983 0.73656 0.53148 0.0
H790 H 0.62484 0.71427 0.52371 0.0
H791 H 0.61775 0.64845 0.5562 0.0
H792 H 0.66287 0.6701 0.56354 0.0
H793 H 0.76948 0.78377 0.65266 0.0
H794 H 0.75703 0.77756 0.60912 0.0
H795 H 0.71594 0.69829 0.6201 0.0
H796 H 0.72771 0.70446 0.66402 0.0
H797 H 0.69043 0.71148 0.59239 0.0
H798 H 0.7735 0.72775 0.59097 0.0
H799 H 0.81812 0.75038 0.60067 0.0
H800 H 0.8271 0.81421 0.56186 0.0
H801 H 0.78243 0.79218 0.55233 0.0
C802 C 0.68509 0.70761 0.47152 0.0
C803 C 0.68959 0.72988 0.46048 0.0
C804 C 0.69411 0.7078 0.49524 0.0
C805 C 0.7079 0.73025 0.5082 0.0
C806 C 0.71376 0.75263 0.49662 0.0
C807 C 0.70455 0.75244 0.473 0.0
C808 C 0.71484 0.73044 0.53444 0.0
C809 C 0.74 0.74352 0.54082 0.0
C810 C 0.69676 0.71827 0.55317 0.0
C811 C 0.6698 0.70489 0.5478 0.0
C812 C 0.65876 0.71721 0.5366 0.0
C813 C 0.63323 0.7047 0.53232 0.0
C814 C 0.61848 0.67995 0.53944 0.0
C815 C 0.62925 0.66757 0.55061 0.0
C816 C 0.6548 0.67995 0.55481 0.0
C817 C 0.75769 0.76502 0.64584 0.0
C818 C 0.74965 0.74459 0.6617 0.0
C819 C 0.75075 0.76148 0.6209 0.0
C820 C 0.73606 0.73742 0.61119 0.0
C821 C 0.72744 0.717 0.62715 0.0
C822 C 0.73413 0.72056 0.65223 0.0
C823 C 0.72946 0.73374 0.58446 0.0
C824 C 0.70434 0.71997 0.57792 0.0
C825 C 0.7476 0.7451 0.56557 0.0
C826 C 0.77455 0.75835 0.57109 0.0
C827 C 0.78494 0.74667 0.58464 0.0
C828 C 0.81026 0.75938 0.59009 0.0
C829 C 0.82543 0.7837 0.5819 0.0
C830 C 0.81532 0.79537 0.5682 0.0
C831 C 0.79001 0.78277 0.56276 0.0
H832 H 0.84502 0.7935 0.58614 0.0
H833 H 0.59867 0.67038 0.53643 0.0
H834 H 0.43556 0.43581 0.83733 0.0
H835 H 0.43156 0.42887 0.79248 0.0
H836 H 0.35998 0.36332 0.80275 0.0
H837 H 0.36393 0.36987 0.84773 0.0
H838 H 0.38629 0.35888 0.76253 0.0
H839 H 0.36101 0.41519 0.79275 0.0
H840 H 0.36555 0.45111 0.81668 0.0
H841 H 0.4296 0.50003 0.77343 0.0
H842 H 0.42567 0.46433 0.74949 0.0
H843 H 0.35783 0.36148 0.63733 0.0
H844 H 0.35074 0.3651 0.6816 0.0
H845 H 0.42423 0.4289 0.68781 0.0
H846 H 0.43134 0.42558 0.64374 0.0
H847 H 0.38986 0.43105 0.72009 0.0
H848 H 0.41862 0.37367 0.69554 0.0
H849 H 0.41249 0.33921 0.66796 0.0
H850 H 0.34004 0.2928 0.69895 0.0
H851 H 0.34567 0.32713 0.72652 0.0
C852 C 0.41926 0.41953 0.83014 0.0
C853 C 0.39987 0.40367 0.84605 0.0
C854 C 0.41697 0.41563 0.8045 0.0
C855 C 0.39519 0.39596 0.79436 0.0
C856 C 0.37684 0.37872 0.81026 0.0
C857 C 0.37916 0.38252 0.83596 0.0
C858 C 0.39053 0.39517 0.76736 0.0
C859 C 0.38668 0.37447 0.75333 0.0
C860 C 0.39092 0.41549 0.75534 0.0
C861 C 0.39315 0.43706 0.76946 0.0
C862 C 0.37616 0.43359 0.78845 0.0
C863 C 0.37861 0.45391 0.802 0.0
C864 C 0.39788 0.47784 0.79661 0.0
C865 C 0.4147 0.48149 0.7776 0.0
C866 C 0.41235 0.46122 0.76401 0.0
C867 C 0.37209 0.37683 0.64793 0.0
C868 C 0.39532 0.39296 0.63731 0.0
C869 C 0.36804 0.37882 0.6732 0.0
C870 C 0.38719 0.39694 0.68797 0.0
C871 C 0.4093 0.41472 0.67673 0.0
C872 C 0.41338 0.41271 0.65158 0.0
C873 C 0.38617 0.39509 0.71533 0.0
C874 C 0.38903 0.4153 0.72943 0.0
C875 C 0.3848 0.37434 0.72737 0.0
C876 C 0.38251 0.35294 0.71297 0.0
C877 C 0.40147 0.35604 0.69658 0.0
C878 C 0.39802 0.33662 0.68084 0.0
C879 C 0.37578 0.31395 0.6815 0.0
C880 C 0.35717 0.31046 0.69832 0.0
C881 C 0.36051 0.32985 0.71407 0.0
H882 H 0.37305 0.29903 0.66914 0.0
H883 H 0.39976 0.49355 0.80713 0.0
H884 H 0.6763 0.01296 0.6329 0.0
H885 H 0.67026 0.98849 0.67045 0.0
H886 H 0.69264 0.05374 0.71576 0.0
H887 H 0.69861 0.0782 0.67858 0.0
H888 H 0.71497 0.0263 0.72934 0.0
H889 H 0.6335 0.01361 0.7099 0.0
H890 H 0.5973 1.00084 0.68281 0.0
H891 H 0.5863 0.92725 0.6776 0.0
H892 H 0.62267 0.9397 0.70442 0.0
H893 H 0.6688 0.98827 0.84992 0.0
H894 H 0.67943 1.00561 0.80819 0.0
H895 H 0.64591 0.93176 0.77696 0.0
H896 H 0.63489 0.91422 0.81865 0.0
H897 H 0.63103 0.95872 0.75304 0.0
H898 H 0.70872 0.96937 0.77705 0.0
H899 H 0.74491 0.98155 0.80392 0.0
H900 H 0.76396 0.05785 0.79981 0.0
H901 H 0.72759 0.04605 0.77328 0.0
C902 C 0.67992 0.02204 0.65088 0.0
C903 C 0.68777 0.04743 0.65286 0.0
C904 C 0.67648 1.00808 0.67224 0.0
C905 C 0.68099 0.01939 0.69575 0.0
C906 C 0.68915 0.04476 0.69772 0.0
C907 C 0.69237 0.05864 0.67647 0.0
C908 C 0.67665 1.00485 0.71857 0.0
C909 C 0.69664 0.01157 0.73465 0.0
C910 C 0.65286 0.98515 0.72492 0.0
C911 C 0.63097 0.97766 0.70889 0.0
C912 C 0.62349 0.99477 0.70279 0.0
C913 C 0.60292 0.98758 0.68753 0.0
C914 C 0.58956 0.96327 0.67842 0.0
C915 C 0.5967 0.94609 0.68462 0.0
C916 C 0.61728 0.95319 0.69986 0.0
C917 C 0.6638 0.97572 0.83419 0.0
C918 C 0.6509 0.9499 0.83754 0.0
C919 C 0.67003 0.98565 0.81037 0.0
C920 C 0.66373 0.96996 0.78953 0.0
C921 C 0.65098 0.94417 0.79283 0.0
C922 C 0.64467 0.93421 0.81665 0.0
C923 C 0.66926 0.98056 0.76428 0.0
C924 C 0.6495 0.97311 0.74766 0.0
C925 C 0.69332 0.9995 0.75738 0.0
C926 C 0.71525 1.00675 0.77337 0.0
C927 C 0.72047 0.9887 0.78209 0.0
C928 C 0.74105 0.99555 0.79723 0.0
C929 C 0.75669 0.02045 0.80363 0.0
C930 C 0.75181 0.03856 0.79487 0.0
C931 C 0.73121 0.0318 0.77976 0.0
H932 H 0.77263 0.02573 0.81534 0.0
H933 H 0.57363 0.95774 0.66661 0.0
H934 H 0.03944 0.67538 0.8652 0.0
H935 H 0.02259 0.65749 0.82449 0.0
H936 H 0.06959 0.72855 0.79031 0.0
H937 H 0.08627 0.74677 0.83104 0.0
H938 H 0.02434 0.70125 0.76618 0.0
H939 H 0.09061 0.68979 0.795 0.0
H940 H 0.11168 0.67724 0.8252 0.0
H941 H 0.05086 0.60219 0.82244 0.0
H942 H 0.02924 0.61439 0.79249 0.0
H943 H 0.02715 0.65368 0.64664 0.0
H944 H 0.04189 0.67537 0.68645 0.0
H945 H 0.99747 0.6064 0.72522 0.0
H946 H 0.98289 0.58455 0.68563 0.0
H947 H 0.04263 0.63427 0.74635 0.0
H948 H 0.97714 0.64571 0.71574 0.0
H949 H 0.95673 0.65846 0.68518 0.0
H950 H 1.01605 0.73403 0.69109 0.0
H951 H 0.03731 0.72156 0.72118 0.0
C952 C 0.04571 0.68738 0.84912 0.0
C953 C 0.06456 0.71235 0.85124 0.0
C954 C 0.0361 0.67711 0.82588 0.0
C955 C 0.04538 0.69157 0.8044 0.0
C956 C 0.06237 0.71706 0.80669 0.0
C957 C 0.07188 0.72742 0.82999 0.0
C958 C 0.03968 0.67949 0.77966 0.0
C959 C 0.02856 0.6868 0.76168 0.0
C960 C 0.04508 0.66052 0.77398 0.0
C961 C 0.05821 0.65305 0.79169 0.0
C962 C 0.08166 0.67065 0.80095 0.0
C963 C 0.09371 0.66359 0.81802 0.0
C964 C 0.08259 0.63895 0.82578 0.0
C965 C 0.05943 0.62128 0.81643 0.0
C966 C 0.04728 0.62825 0.7994 0.0
C967 C 0.02086 0.64306 0.66363 0.0
C968 C 1.0037 0.61744 0.66302 0.0
C969 C 0.02918 0.65551 0.68634 0.0
C970 C 0.02041 0.64253 0.70873 0.0
C971 C 1.00435 0.61675 0.70813 0.0
C972 C 0.99602 0.60432 0.68548 0.0
C973 C 0.02701 0.65579 0.73286 0.0
C974 C 0.03842 0.64874 0.75075 0.0
C975 C 0.02193 0.67503 0.73836 0.0
C976 C 1.00901 0.68262 0.72048 0.0
C977 C 0.98604 0.66499 0.71028 0.0
C978 C 0.97433 0.67218 0.69298 0.0
C979 C 0.98511 0.69704 0.68609 0.0
C980 C 1.00772 0.71476 0.69642 0.0
C981 C 0.01966 0.70763 0.71355 0.0
H982 H 0.97592 0.70259 0.67282 0.0
H983 H 0.09194 0.63352 0.839 0.0
H984 H 0.65802 0.68303 0.32863 0.0
H985 H 0.6604 0.67598 0.28434 0.0
H986 H 0.58083 0.63986 0.27879 0.0
H987 H 0.57819 0.64665 0.32332 0.0
H988 H 0.60052 0.61625 0.25078 0.0
H989 H 0.61257 0.69716 0.26075 0.0
H990 H 0.63007 0.73891 0.27927 0.0
H991 H 0.70276 0.75714 0.25466 0.0
H992 H 0.68578 0.71535 0.2364 0.0
H993 H 0.62027 0.62484 0.11847 0.0
H994 H 0.60535 0.63105 0.1587 0.0
H995 H 0.68001 0.66744 0.18712 0.0
H996 H 0.69499 0.66138 0.14732 0.0
H997 H 0.65444 0.69129 0.20095 0.0
H998 H 0.64181 0.60718 0.19807 0.0
H999 H 0.62381 0.56524 0.17977 0.0
H1000 H 0.55059 0.55366 0.19033 0.0
H1001 H 0.56821 0.59569 0.20845 0.0
C1002 C 0.64097 0.6733 0.31811 0.0
C1003 C 0.61793 0.66564 0.32943 0.0
C1004 C 0.64238 0.66939 0.29278 0.0
C1005 C 0.62082 0.65787 0.27828 0.0
C1006 C 0.59767 0.64895 0.28969 0.0
C1007 C 0.59623 0.65288 0.31511 0.0
C1008 C 0.62285 0.65616 0.25105 0.0
C1009 C 0.61186 0.63267 0.23974 0.0
C1010 C 0.63756 0.67763 0.23671 0.0
C1011 C 0.6479 0.70301 0.24734 0.0
C1012 C 0.63232 0.71001 0.25945 0.0
C1013 C 0.64216 0.7337 0.26992 0.0
C1014 C 0.66754 0.75066 0.26827 0.0
C1015 C 0.68312 0.74399 0.25602 0.0
C1016 C 0.67339 0.7203 0.24557 0.0
C1017 C 0.6335 0.63446 0.13323 0.0
C1018 C 0.65876 0.64248 0.12985 0.0
C1019 C 0.62495 0.63792 0.15615 0.0
C1020 C 0.6416 0.64957 0.17584 0.0
C1021 C 0.6669 0.65845 0.17212 0.0
C1022 C 0.6754 0.65485 0.1494 0.0
C1023 C 0.63292 0.65136 0.20095 0.0
C1024 C 0.64262 0.67492 0.21187 0.0
C1025 C 0.61687 0.62999 0.21484 0.0
C1026 C 0.60631 0.60463 0.20433 0.0
C1027 C 0.62188 0.59573 0.19634 0.0
C1028 C 0.61175 0.57195 0.18603 0.0
C1029 C 0.58607 0.55682 0.18381 0.0
C1030 C 0.57047 0.56542 0.19201 0.0
C1031 C 0.58051 0.5892 0.20232 0.0
H1032 H 0.57827 0.53842 0.1758 0.0
H1033 H 0.67511 0.76897 0.27644 0.0
H1034 H 0.43865 0.05973 0.16101 0.0
H1035 H 0.43164 0.04272 0.20265 0.0
H1036 H 0.38665 0.96875 0.17278 0.0
H1037 H 0.39298 0.98591 0.13069 0.0
H1038 H 0.36615 0.97455 0.21369 0.0
H1039 H 0.44645 0.98967 0.19193 0.0
H1040 H 0.4893 0.01341 0.17616 0.0
H1041 H 0.50806 0.06715 0.23466 0.0
H1042 H 0.46521 0.04393 0.25058 0.0
H1043 H 0.37278 0.91959 0.32685 0.0
H1044 H 0.37969 0.93288 0.28357 0.0
H1045 H 0.41105 1.00909 0.3072 0.0
H1046 H 0.40389 0.99593 0.35076 0.0
H1047 H 0.43843 0.99901 0.26875 0.0
H1048 H 0.3561 0.98309 0.28878 0.0
H1049 H 0.31358 0.95715 0.30477 0.0
H1050 H 0.29916 0.902 0.24889 0.0
H1051 H 0.34179 0.92741 0.23285 0.0
C1052 C 0.42731 0.03981 0.16322 0.0
C1053 C 0.41658 0.02408 0.14257 0.0
C1054 C 0.42339 0.03012 0.18705 0.0
C1055 C 0.40913 1.00443 0.19075 0.0
C1056 C 0.39789 0.98864 0.17026 0.0
C1057 C 0.40153 0.99842 0.14629 0.0
C1058 C 0.40602 0.9944 0.21617 0.0
C1059 C 0.38196 0.97954 0.22557 0.0
C1060 C 0.42668 1.00116 0.23176 0.0
C1061 C 0.45255 0.01513 0.22234 0.0
C1062 C 0.45966 1.00664 0.20134 0.0
C1063 C 0.48396 0.02 0.19238 0.0
C1064 C 0.50138 0.0418 0.20438 0.0
C1065 C 0.49454 0.05026 0.22538 0.0
C1066 C 0.47026 0.03699 0.2344 0.0
C1067 C 0.38133 0.93922 0.32289 0.0
C1068 C 0.38776 0.95676 0.34216 0.0
C1069 C 0.38516 0.94672 0.29818 0.0
C1070 C 0.39569 0.97188 0.29235 0.0
C1071 C 0.40285 0.98956 0.31149 0.0
C1072 C 0.39871 0.98203 0.33627 0.0
C1073 C 0.39869 0.97962 0.2662 0.0
C1074 C 0.4227 0.99396 0.25671 0.0
C1075 C 0.37803 0.97209 0.25048 0.0
C1076 C 0.35223 0.95704 0.25979 0.0
C1077 C 0.34394 0.96534 0.28003 0.0
C1078 C 0.3198 0.95074 0.28909 0.0
C1079 C 0.3037 0.92791 0.2779 0.0
C1080 C 0.31167 0.91967 0.25756 0.0
C1081 C 0.33581 0.93417 0.24848 0.0
H1082 H 0.28503 0.91662 0.28496 0.0
H1083 H 0.52018 0.05211 0.19741 0.0
H1084 H 0.02444 0.38052 0.35622 0.0
H1085 H 1.00924 0.37923 0.31418 0.0
H1086 H 0.08279 0.4058 0.28491 0.0
H1087 H 0.09825 0.40801 0.32696 0.0
H1088 H 0.06369 0.42924 0.26363 0.0
H1089 H 0.03543 0.34374 0.27944 0.0
H1090 H 1.01441 0.30437 0.30251 0.0
H1091 H 0.94508 0.30251 0.29603 0.0
H1092 H 0.96574 0.34206 0.27319 0.0
H1093 H 0.02313 0.39683 0.13698 0.0
H1094 H 0.04079 0.39922 0.17817 0.0
H1095 H 0.97206 0.38418 0.2124 0.0
H1096 H 0.95432 0.38182 0.17155 0.0
H1097 H 0.98985 0.35435 0.23003 0.0
H1098 H 0.0198 0.4411 0.21443 0.0
H1099 H 0.04169 0.47984 0.1904 0.0
H1100 H 0.10927 0.47799 0.19522 0.0
H1101 H 0.08768 0.43903 0.219 0.0
C1102 C 0.03733 0.38598 0.3408 0.0
C1103 C 0.06251 0.39432 0.34485 0.0
C1104 C 0.02861 0.38514 0.31677 0.0
C1105 C 0.04481 0.39209 0.29634 0.0
C1106 C 0.06996 0.40037 0.30038 0.0
C1107 C 0.07875 0.40156 0.32441 0.0
C1108 C 0.03567 0.39125 0.27078 0.0
C1109 C 0.04777 0.41272 0.25617 0.0
C1110 C 1.01469 0.36982 0.26113 0.0
C1111 C 1.00219 0.34599 0.2748 0.0
C1112 C 1.01573 0.33503 0.28309 0.0
C1113 C 1.00388 0.31266 0.2961 0.0
C1114 C 0.97844 0.30097 0.30078 0.0
C1115 C 0.96479 0.3116 0.29241 0.0
C1116 C 0.97656 0.33398 0.27941 0.0
C1117 C 1.01187 0.39423 0.1533 0.0
C1118 C 0.98734 0.38913 0.15103 0.0
C1119 C 0.02198 0.39563 0.17677 0.0
C1120 C 1.00768 0.39189 0.19825 0.0
C1121 C 0.98333 0.38705 0.19601 0.0
C1122 C 0.97329 0.38583 0.17264 0.0
C1123 C 1.01777 0.39233 0.22312 0.0
C1124 C 1.00584 0.37078 0.23754 0.0
C1125 C 0.03905 0.41355 0.23247 0.0
C1126 C 0.05206 0.43702 0.21826 0.0
C1127 C 0.03927 0.44884 0.21018 0.0
C1128 C 0.05164 0.47086 0.19664 0.0
C1129 C 0.07684 0.48133 0.19123 0.0
C1130 C 0.08974 0.46984 0.1994 0.0
C1131 C 0.07746 0.4478 0.21292 0.0
H1132 H 0.08638 0.49838 0.18075 0.0
H1133 H 0.96929 0.28366 0.31086 0.0
H1134 H 0.29343 0.93565 0.36747 0.0
H1135 H 0.25277 0.91168 0.34869 0.0
H1136 H 0.24725 0.84404 0.37505 0.0
H1137 H 0.28865 0.86823 0.39405 0.0
H1138 H 0.23031 0.83943 0.3267 0.0
H1139 H 0.21594 0.86798 0.40437 0.0
H1140 H 0.22259 0.89881 0.43686 0.0
H1141 H 0.20331 0.93848 0.38535 0.0
H1142 H 0.1969 0.90807 0.35242 0.0
H1143 H 0.10163 0.76213 0.31207 0.0
H1144 H 0.14298 0.78703 0.32906 0.0
H1145 H 0.14717 0.85327 0.30025 0.0
H1146 H 0.10513 0.82811 0.28284 0.0
H1147 H 0.16499 0.85919 0.34908 0.0
H1148 H 0.1785 0.83019 0.27161 0.0
H1149 H 0.17163 0.79927 0.23916 0.0
H1150 H 0.19241 0.76043 0.29018 0.0
H1151 H 0.19903 0.79092 0.32308 0.0
C1152 C 0.28372 0.91566 0.36943 0.0
C1153 C 0.29438 0.90394 0.3826 0.0
C1154 C 0.2603 0.90195 0.35864 0.0
C1155 C 0.24661 0.87604 0.36076 0.0
C1156 C 0.25736 0.86405 0.37328 0.0
C1157 C 0.28101 0.87788 0.38418 0.0
C1158 C 0.2211 0.86185 0.34995 0.0
C1159 C 0.21593 0.8435 0.3319 0.0
C1160 C 0.20244 0.86761 0.35607 0.0
C1161 C 0.20616 0.88587 0.37586 0.0
C1162 C 0.21331 0.88339 0.39991 0.0
C1163 C 0.217 0.90077 0.41842 0.0
C1164 C 0.21343 0.92063 0.41315 0.0
C1165 C 0.2061 0.9231 0.38939 0.0
C1166 C 0.20241 0.90579 0.3708 0.0
C1167 C 0.11116 0.782 0.30922 0.0
C1168 C 0.0999 0.79304 0.29588 0.0
C1169 C 0.135 0.79624 0.31895 0.0
C1170 C 0.14846 0.82202 0.3157 0.0
C1171 C 0.13721 0.83336 0.30291 0.0
C1172 C 0.11319 0.81898 0.29293 0.0
C1173 C 0.17418 0.83673 0.3259 0.0
C1174 C 0.17939 0.85516 0.34384 0.0
C1175 C 0.19286 0.83105 0.31967 0.0
C1176 C 0.18905 0.81274 0.29989 0.0
C1177 C 0.18141 0.81495 0.27598 0.0
C1178 C 0.17759 0.79751 0.25749 0.0
C1179 C 0.18153 0.77786 0.26262 0.0
C1180 C 0.18935 0.77565 0.28624 0.0
C1181 C 0.19316 0.79302 0.30481 0.0
H1182 H 0.17856 0.76438 0.24828 0.0
H1183 H 0.2163 0.93406 0.42751 0.0
H1184 H 0.28809 0.34128 0.27658 0.0
H1185 H 0.26482 0.3549 0.30199 0.0
H1186 H 0.2117 0.27887 0.31952 0.0
H1187 H 0.23545 0.26488 0.29411 0.0
H1188 H 0.1905 0.30843 0.30387 0.0
H1189 H 0.24876 0.3124 0.36349 0.0
H1190 H 0.29015 0.32375 0.37924 0.0
H1191 H 0.31409 0.40102 0.37115 0.0
H1192 H 0.27294 0.39014 0.35501 0.0
H1193 H 0.12567 0.33779 0.39159 0.0
H1194 H 0.1505 0.322 0.37282 0.0
H1195 H 0.21024 0.39685 0.36104 0.0
H1196 H 0.18531 0.413 0.38036 0.0
H1197 H 0.22799 0.36659 0.37507 0.0
H1198 H 0.17172 0.36351 0.31355 0.0
H1199 H 0.13119 0.35328 0.29627 0.0
H1200 H 0.10452 0.27561 0.30616 0.0
H1201 H 0.1448 0.2854 0.32385 0.0
C1202 C 0.27146 0.3273 0.28579 0.0
C1203 C 0.2636 0.30188 0.28313 0.0
C1204 C 0.25824 0.33522 0.3005 0.0
C1205 C 0.23657 0.318 0.31285 0.0
C1206 C 0.22844 0.29253 0.31023 0.0
C1207 C 0.24202 0.28454 0.29574 0.0
C1208 C 0.22229 0.32697 0.32772 0.0
C1209 C 0.19849 0.32072 0.31976 0.0
C1210 C 0.23305 0.34378 0.34793 0.0
C1211 C 0.2578 0.35043 0.3578 0.0
C1212 C 0.2629 0.33181 0.36486 0.0
C1213 C 0.28631 0.33816 0.37391 0.0
C1214 C 0.30476 0.36308 0.37611 0.0
C1215 C 0.29979 0.38171 0.36939 0.0
C1216 C 0.27641 0.37547 0.36033 0.0
C1217 C 0.14416 0.35104 0.38521 0.0
C1218 C 0.15334 0.37676 0.38733 0.0
C1219 C 0.15836 0.3419 0.37435 0.0
C1220 C 0.18212 0.35813 0.36496 0.0
C1221 C 0.1919 0.38387 0.36799 0.0
C1222 C 0.17764 0.39312 0.37905 0.0
C1223 C 0.19609 0.34796 0.35127 0.0
C1224 C 0.21988 0.35412 0.35933 0.0
C1225 C 0.18543 0.33119 0.33098 0.0
C1226 C 0.1612 0.32521 0.32027 0.0
C1227 C 0.15715 0.34426 0.31223 0.0
C1228 C 0.13423 0.33854 0.30233 0.0
C1229 C 0.11526 0.31381 0.30018 0.0
C1230 C 0.11921 0.29475 0.30787 0.0
C1231 C 0.14209 0.30038 0.31782 0.0
H1232 H 0.09753 0.30942 0.29251 0.0
H1233 H 0.32289 0.36795 0.38302 0.0
H1234 H 0.70089 0.95408 0.26945 0.0
H1235 H 0.68746 0.91559 0.29149 0.0
H1236 H 0.76295 0.93141 0.29482 0.0
H1237 H 0.77673 0.97045 0.27217 0.0
H1238 H 0.73308 0.88355 0.28467 0.0
H1239 H 0.73416 0.93739 0.34711 0.0
H1240 H 0.72645 0.96848 0.3673 0.0
H1241 H 0.64798 0.9182 0.3628 0.0
H1242 H 0.6552 0.8869 0.34229 0.0
H1243 H 0.66622 0.79047 0.39577 0.0
H1244 H 0.68786 0.83326 0.38007 0.0
H1245 H 0.66596 0.80547 0.30537 0.0
H1246 H 0.64488 0.76311 0.32077 0.0
H1247 H 0.67637 0.86255 0.35691 0.0
H1248 H 0.70933 0.84016 0.26332 0.0
H1249 H 0.72293 0.81167 0.24767 0.0
H1250 H 0.74245 0.80289 0.32169 0.0
H1251 H 0.72936 0.83161 0.33773 0.0
C1252 C 0.71483 0.94958 0.27479 0.0
C1253 C 0.74003 0.96566 0.26903 0.0
C1254 C 0.70703 0.92745 0.28763 0.0
C1255 C 0.72413 0.9206 0.29541 0.0
C1256 C 0.74932 0.93626 0.28924 0.0
C1257 C 0.75721 0.95861 0.27626 0.0
C1258 C 0.71522 0.89688 0.30952 0.0
C1259 C 0.72074 0.87902 0.30049 0.0
C1260 C 0.69976 0.89105 0.3308 0.0
C1261 C 0.69524 0.90985 0.34299 0.0
C1262 C 0.71525 0.93303 0.35024 0.0
C1263 C 0.71097 0.95067 0.36178 0.0
C1264 C 0.68675 0.94533 0.36629 0.0
C1265 C 0.66674 0.92231 0.35929 0.0
C1266 C 0.67092 0.90459 0.34773 0.0
C1267 C 0.66582 0.79352 0.37604 0.0
C1268 C 0.65384 0.77321 0.35958 0.0
C1269 C 0.67829 0.81804 0.36703 0.0
C1270 C 0.67914 0.82281 0.34137 0.0
C1271 C 0.66629 0.80252 0.32514 0.0
C1272 C 0.654 0.77816 0.33406 0.0
C1273 C 0.69327 0.84878 0.33133 0.0
C1274 C 0.68877 0.86707 0.34115 0.0
C1275 C 0.71032 0.85528 0.31129 0.0
C1276 C 0.71818 0.83792 0.30174 0.0
C1277 C 0.71663 0.83224 0.27624 0.0
C1278 C 0.72427 0.81607 0.2673 0.0
C1279 C 0.73356 0.8055 0.28368 0.0
C1280 C 0.73521 0.81106 0.30903 0.0
C1281 C 0.72766 0.82727 0.31806 0.0
H1282 H 0.73952 0.79303 0.27673 0.0
H1283 H 0.68348 0.95901 0.37526 0.0
H1284 H 0.82489 0.12194 0.22361 0.0
H1285 H 0.84476 0.16406 0.20651 0.0
H1286 H 0.84874 0.13544 0.13454 0.0
H1287 H 0.82874 0.09341 0.15139 0.0
H1288 H 0.89201 0.17912 0.14639 0.0
H1289 H 0.80411 0.14823 0.14631 0.0
H1290 H 0.76285 0.1304 0.16575 0.0
H1291 H 0.78977 0.19363 0.21443 0.0
H1292 H 0.83134 0.21165 0.19552 0.0
H1293 H 0.91577 0.27472 0.06533 0.0
H1294 H 0.89431 0.23493 0.08659 0.0
H1295 H 0.88662 0.27097 0.15193 0.0
H1296 H 0.90757 0.31109 0.13014 0.0
H1297 H 0.84654 0.22525 0.1472 0.0
H1298 H 0.93385 0.25721 0.14662 0.0
H1299 H 0.97557 0.27493 0.12823 0.0
H1300 H 0.95066 0.20995 0.0825 0.0
H1301 H 0.90868 0.19197 0.10036 0.0
C1302 C 0.83037 0.12465 0.20424 0.0
C1303 C 0.82524 0.10419 0.18892 0.0
C1304 C 0.84155 0.14876 0.19442 0.0
C1305 C 0.84806 0.15302 0.16911 0.0
C1306 C 0.84388 0.13275 0.15408 0.0
C1307 C 0.83244 0.10866 0.16378 0.0
C1308 C 0.85867 0.17834 0.15801 0.0
C1309 C 0.88195 0.18909 0.1464 0.0
C1310 C 0.84595 0.1918 0.15854 0.0
C1311 C 0.8209 0.18116 0.16969 0.0
C1312 C 0.80129 0.15825 0.16129 0.0
C1313 C 0.77783 0.14811 0.17219 0.0
C1314 C 0.7737 0.16084 0.19136 0.0
C1315 C 0.79301 0.18377 0.1996 0.0
C1316 C 0.81652 0.19396 0.1888 0.0
C1317 C 0.90904 0.27415 0.08405 0.0
C1318 C 0.91343 0.29613 0.09602 0.0
C1319 C 0.89694 0.25134 0.09633 0.0
C1320 C 0.88942 0.24984 0.12123 0.0
C1321 C 0.89238 0.27153 0.13281 0.0
C1322 C 0.90424 0.29447 0.1203 0.0
C1323 C 0.87979 0.22591 0.13519 0.0
C1324 C 0.85672 0.21542 0.14734 0.0
C1325 C 0.89279 0.21268 0.13534 0.0
C1326 C 0.91807 0.22333 0.1247 0.0
C1327 C 0.93723 0.24676 0.13253 0.0
C1328 C 0.96093 0.25685 0.12221 0.0
C1329 C 0.96575 0.24359 0.10417 0.0
C1330 C 0.94689 0.2202 0.09646 0.0
C1331 C 0.92315 0.21004 0.10669 0.0
H1332 H 0.98411 0.25144 0.0962 0.0
H1333 H 0.75554 0.15297 0.19979 0.0
H1334 H 0.78881 0.66132 0.08836 0.0
H1335 H 0.83007 0.6826 0.10744 0.0
H1336 H 0.79752 0.65018 0.17818 0.0
H1337 H 0.75645 0.62957 0.15943 0.0
H1338 H 0.82834 0.69674 0.1851 0.0
H1339 H 0.83307 0.63181 0.1406 0.0
H1340 H 0.83145 0.60734 0.10369 0.0
H1341 H 0.88975 0.67299 0.06946 0.0
H1342 H 0.8915 0.69791 0.10606 0.0
H1343 H 0.92822 0.70808 0.25542 0.0
H1344 H 0.89118 0.69485 0.23048 0.0
H1345 H 0.93604 0.74196 0.17071 0.0
H1346 H 0.97359 0.75547 0.19592 0.0
H1347 H 0.90174 0.69362 0.15467 0.0
H1348 H 0.89955 0.75742 0.20193 0.0
H1349 H 0.90135 0.78089 0.2397 0.0
H1350 H 0.83803 0.71622 0.26948 0.0
H1351 H 0.83605 0.69224 0.23204 0.0
C1352 C 0.7905 0.65842 0.10789 0.0
C1353 C 0.76921 0.64368 0.12232 0.0
C1354 C 0.81417 0.67063 0.11883 0.0
C1355 C 0.81715 0.66808 0.14438 0.0
C1356 C 0.79592 0.65272 0.15853 0.0
C1357 C 0.77234 0.64077 0.1477 0.0
C1358 C 0.842 0.682 0.15684 0.0
C1359 C 0.84427 0.69579 0.17849 0.0
C1360 C 0.86326 0.68171 0.14793 0.0
C1361 C 0.8622 0.66676 0.12593 0.0
C1362 C 0.8454 0.64106 0.12511 0.0
C1363 C 0.84449 0.6271 0.10427 0.0
C1364 C 0.86043 0.63862 0.08421 0.0
C1365 C 0.87738 0.66411 0.08499 0.0
C1366 C 0.87834 0.67815 0.10578 0.0
C1367 C 0.93027 0.71602 0.23713 0.0
C1368 C 0.95392 0.73297 0.22776 0.0
C1369 C 0.90899 0.70841 0.22285 0.0
C1370 C 0.91066 0.7174 0.19866 0.0
C1371 C 0.93421 0.73475 0.18932 0.0
C1372 C 0.95565 0.74267 0.20383 0.0
C1373 C 0.88772 0.70767 0.1832 0.0
C1374 C 0.88584 0.69474 0.16104 0.0
C1375 C 0.86671 0.7086 0.19168 0.0
C1376 C 0.86776 0.72298 0.21422 0.0
C1377 C 0.88611 0.74814 0.21661 0.0
C1378 C 0.88715 0.76155 0.23795 0.0
C1379 C 0.86984 0.75004 0.257 0.0
C1380 C 0.85143 0.72511 0.25471 0.0
C1381 C 0.85032 0.71161 0.23342 0.0
H1382 H 0.87068 0.76046 0.27351 0.0
H1383 H 0.85971 0.62778 0.06809 0.0
H1384 H 0.38012 0.26614 0.20583 0.0
H1385 H 0.39476 0.24128 0.18505 0.0
H1386 H 0.32573 0.17476 0.20163 0.0
H1387 H 0.31082 0.19985 0.22302 0.0
H1388 H 0.36446 0.16784 0.2094 0.0
H1389 H 0.33905 0.19988 0.14283 0.0
H1390 H 0.33676 0.2313 0.11733 0.0
H1391 H 0.41503 0.26741 0.10352 0.0
H1392 H 0.41789 0.23646 0.12928 0.0
H1393 H 0.38029 0.08931 0.12621 0.0
H1394 H 0.36627 0.11477 0.14677 0.0
H1395 H 0.43685 0.18025 0.1324 0.0
H1396 H 0.45121 0.15453 0.11126 0.0
H1397 H 0.39768 0.1879 0.12346 0.0
H1398 H 0.42263 0.15532 0.19035 0.0
H1399 H 0.42403 0.12267 0.21453 0.0
H1400 H 0.34553 0.08675 0.22693 0.0
H1401 H 0.34359 0.119 0.20251 0.0
C1402 C 0.36788 0.24621 0.20517 0.0
C1403 C 0.34414 0.23508 0.21614 0.0
C1404 C 0.37633 0.23198 0.19305 0.0
C1405 C 0.36129 0.2061 0.19126 0.0
C1406 C 0.3377 0.19472 0.20259 0.0
C1407 C 0.32916 0.20907 0.21482 0.0
C1408 C 0.37058 0.19122 0.17784 0.0
C1409 C 0.37134 0.17201 0.19047 0.0
C1410 C 0.38029 0.19699 0.15331 0.0
C1411 C 0.37871 0.21592 0.13816 0.0
C1412 C 0.35582 0.21465 0.13456 0.0
C1413 C 0.35441 0.23235 0.12001 0.0
C1414 C 0.37572 0.25128 0.10876 0.0
C1415 C 0.39853 0.25269 0.1122 0.0
C1416 C 0.40005 0.23507 0.12677 0.0
C1417 C 0.39303 0.10912 0.12732 0.0
C1418 C 0.41705 0.11977 0.11708 0.0
C1419 C 0.38491 0.1237 0.13927 0.0
C1420 C 0.40054 0.14945 0.1416 0.0
C1421 C 0.42443 0.16038 0.131 0.0
C1422 C 0.43267 0.14567 0.11896 0.0
C1423 C 0.39157 0.16459 0.15504 0.0
C1424 C 0.39084 0.18381 0.14241 0.0
C1425 C 0.38181 0.15879 0.17953 0.0
C1426 C 0.38294 0.13948 0.19441 0.0
C1427 C 0.40563 0.14036 0.19808 0.0
C1428 C 0.40653 0.12194 0.21185 0.0
C1429 C 0.38487 0.10262 0.22221 0.0
C1430 C 0.36228 0.10172 0.21888 0.0
C1431 C 0.36128 0.12008 0.20509 0.0
H1432 H 0.3856 0.08837 0.23286 0.0
H1433 H 0.37457 0.26485 0.09735 0.0
H1434 H 0.7819 0.09254 0.62515 0.0
H1435 H 0.82119 0.11775 0.64619 0.0
H1436 H 0.81522 0.1829 0.63545 0.0
H1437 H 0.77535 0.15745 0.61393 0.0
H1438 H 0.86216 0.19111 0.62425 0.0
H1439 H 0.80517 0.15649 0.69219 0.0
H1440 H 0.77148 0.12299 0.71644 0.0
H1441 H 0.81532 0.08844 0.72603 0.0
H1442 H 0.84915 0.12154 0.70148 0.0
H1443 H 0.95678 0.2697 0.70702 0.0
H1444 H 0.91737 0.24387 0.68647 0.0
H1445 H 0.92408 0.1793 0.69833 0.0
H1446 H 0.96419 0.20541 0.71923 0.0
H1447 H 0.87685 0.17032 0.70888 0.0
H1448 H 0.93373 0.20426 0.64151 0.0
H1449 H 0.96683 0.23596 0.61523 0.0
H1450 H 0.92334 0.27055 0.60338 0.0
H1451 H 0.89014 0.23932 0.62996 0.0
C1452 C 0.78875 0.11223 0.62721 0.0
C1453 C 0.77529 0.1229 0.61777 0.0
C1454 C 0.81131 0.12664 0.63945 0.0
C1455 C 0.82118 0.15223 0.64276 0.0
C1456 C 0.80797 0.16315 0.63324 0.0
C1457 C 0.78514 0.14859 0.621 0.0
C1458 C 0.84549 0.16733 0.65575 0.0
C1459 C 0.86524 0.18687 0.64294 0.0
C1460 C 0.84987 0.16122 0.67981 0.0
C1461 C 0.82963 0.1414 0.69479 0.0
C1462 C 0.80757 0.14165 0.6993 0.0
C1463 C 0.78845 0.12275 0.71313 0.0
C1464 C 0.79123 0.10356 0.72272 0.0
C1465 C 0.81318 0.1033 0.71857 0.0
C1466 C 0.83235 0.12214 0.70471 0.0
C1467 C 0.95004 0.25 0.7054 0.0
C1468 C 0.96384 0.23971 0.71489 0.0
C1469 C 0.92742 0.23523 0.69342 0.0
C1470 C 0.91775 0.20963 0.69047 0.0
C1471 C 0.93118 0.19905 0.70026 0.0
C1472 C 0.95412 0.21397 0.71219 0.0
C1473 C 0.89351 0.19426 0.67744 0.0
C1474 C 0.87378 0.17464 0.69023 0.0
C1475 C 0.88918 0.20021 0.65328 0.0
C1476 C 0.90949 0.21952 0.63793 0.0
C1477 C 0.93133 0.21879 0.63356 0.0
C1478 C 0.95009 0.23664 0.61853 0.0
C1479 C 0.94716 0.25522 0.6076 0.0
C1480 C 0.92556 0.25612 0.61184 0.0
C1481 C 0.90677 0.23835 0.62688 0.0
H1482 H 0.96157 0.26888 0.59576 0.0
H1483 H 0.77641 0.08894 0.73342 0.0
H1484 H 0.95877 0.66529 0.63464 0.0
H1485 H 0.93234 0.67887 0.65394 0.0
H1486 H 0.86779 0.60875 0.63565 0.0
H1487 H 0.89448 0.59462 0.6163 0.0
H1488 H 0.86374 0.65081 0.62315 0.0
H1489 H 0.88446 0.61975 0.69397 0.0
H1490 H 0.91008 0.61402 0.72485 0.0
H1491 H 0.94714 0.6917 0.74293 0.0
H1492 H 0.92202 0.698 0.71185 0.0
H1493 H 0.77918 0.66926 0.69396 0.0
H1494 H 0.80504 0.65392 0.67707 0.0
H1495 H 0.87052 0.72117 0.70039 0.0
H1496 H 0.84439 0.73683 0.7178 0.0
H1497 H 0.87385 0.67997 0.71066 0.0
H1498 H 0.85409 0.71139 0.63929 0.0
H1499 H 0.82694 0.71692 0.61028 0.0
H1500 H 0.78804 0.63888 0.59369 0.0
H1501 H 0.8148 0.63282 0.62287 0.0
C1502 C 0.93896 0.65253 0.63474 0.0
C1503 C 0.92883 0.62873 0.62387 0.0
C1504 C 0.92385 0.66038 0.64598 0.0
C1505 C 0.89807 0.64484 0.64655 0.0
C1506 C 0.88769 0.62107 0.63559 0.0
C1507 C 0.90294 0.61297 0.62457 0.0
C1508 C 0.88228 0.65416 0.65774 0.0
C1509 C 0.86564 0.65676 0.64241 0.0
C1510 C 0.88535 0.66282 0.68266 0.0
C1511 C 0.90145 0.65937 0.70041 0.0
C1512 C 0.89829 0.63568 0.70428 0.0
C1513 C 0.91262 0.6323 0.72194 0.0
C1514 C 0.93009 0.65245 0.73597 0.0
C1515 C 0.93345 0.67607 0.73218 0.0
C1516 C 0.91921 0.67957 0.71451 0.0
C1517 C 0.79908 0.68098 0.69558 0.0
C1518 C 0.80962 0.70443 0.70726 0.0
C1519 C 0.81391 0.67212 0.68572 0.0
C1520 C 0.83982 0.68643 0.68704 0.0
C1521 C 0.85056 0.70977 0.699 0.0
C1522 C 0.83562 0.71875 0.7089 0.0
C1523 C 0.85533 0.67663 0.67608 0.0
C1524 C 0.87197 0.67403 0.6914 0.0
C1525 C 0.85236 0.66806 0.65113 0.0
C1526 C 0.83631 0.67162 0.63345 0.0
C1527 C 0.83962 0.69537 0.6296 0.0
C1528 C 0.82432 0.69861 0.6131 0.0
C1529 C 0.80571 0.67826 0.6002 0.0
C1530 C 0.80244 0.65463 0.60372 0.0
C1531 C 0.81769 0.65128 0.62021 0.0
H1532 H 0.79388 0.68082 0.58745 0.0
H1533 H 0.94115 0.64979 0.74964 0.0
H1534 H 0.28908 0.10745 0.68672 0.0
H1535 H 0.30986 0.14923 0.66935 0.0
H1536 H 0.37541 0.16773 0.71178 0.0
H1537 H 0.35382 0.12643 0.7306 0.0
H1538 H 0.37445 0.20677 0.70974 0.0
H1539 H 0.36624 0.15104 0.64486 0.0
H1540 H 0.3459 0.11507 0.61642 0.0
H1541 H 0.30073 0.14272 0.58727 0.0
H1542 H 0.3205 0.17864 0.6158 0.0
H1543 H 0.44357 0.3148 0.62911 0.0
H1544 H 0.42942 0.27525 0.65093 0.0
H1545 H 0.3545 0.24995 0.62764 0.0
H1546 H 0.3683 0.28867 0.60592 0.0
H1547 H 0.36625 0.21485 0.61926 0.0
H1548 H 0.37047 0.26439 0.69639 0.0
H1549 H 0.39424 0.30023 0.72462 0.0
H1550 H 0.45333 0.28414 0.72672 0.0
H1551 H 0.42974 0.24807 0.6989 0.0
C1552 C 0.3078 0.12057 0.69262 0.0
C1553 C 0.31974 0.11355 0.71007 0.0
C1554 C 0.3199 0.14446 0.68238 0.0
C1555 C 0.34474 0.16175 0.68839 0.0
C1556 C 0.35639 0.15497 0.70651 0.0
C1557 C 0.34398 0.13127 0.71736 0.0
C1558 C 0.35844 0.18661 0.67566 0.0
C1559 C 0.37282 0.20829 0.68987 0.0
C1560 C 0.35689 0.18922 0.64961 0.0
C1561 C 0.34475 0.16746 0.63261 0.0
C1562 C 0.35184 0.14935 0.63252 0.0
C1563 C 0.34042 0.12898 0.61636 0.0
C1564 C 0.32204 0.12663 0.60005 0.0
C1565 C 0.31498 0.14458 0.59991 0.0
C1566 C 0.32629 0.16495 0.61606 0.0
C1567 C 0.42411 0.30075 0.62863 0.0
C1568 C 0.40719 0.30505 0.61555 0.0
C1569 C 0.41596 0.27819 0.64135 0.0
C1570 C 0.39074 0.25947 0.6412 0.0
C1571 C 0.37401 0.26389 0.62813 0.0
C1572 C 0.38204 0.28623 0.61563 0.0
C1573 C 0.38135 0.23474 0.65347 0.0
C1574 C 0.36788 0.21309 0.6391 0.0
C1575 C 0.38434 0.23212 0.67911 0.0
C1576 C 0.39857 0.2539 0.6954 0.0
C1577 C 0.38863 0.26871 0.70276 0.0
C1578 C 0.402 0.28895 0.71872 0.0
C1579 C 0.42535 0.29459 0.72723 0.0
C1580 C 0.43529 0.27983 0.72003 0.0
C1581 C 0.4219 0.25944 0.70427 0.0
H1582 H 0.43569 0.3103 0.73952 0.0
H1583 H 0.3133 0.11094 0.58745 0.0
H1584 H 0.24941 0.99134 0.82963 0.0
H1585 H 0.2298 0.94956 0.84676 0.0
H1586 H 0.22935 0.9199 0.77401 0.0
H1587 H 0.24897 0.96196 0.75664 0.0
H1588 H 0.18717 0.88831 0.79972 0.0
H1589 H 0.27389 0.92912 0.81511 0.0
H1590 H 0.3147 0.96288 0.82902 0.0
H1591 H 0.28709 0.95578 0.90352 0.0
H1592 H 0.24597 0.92217 0.89 0.0
H1593 H 0.16106 0.77313 0.85572 0.0
H1594 H 0.18295 0.81161 0.83143 0.0
H1595 H 0.18953 0.85443 0.8972 0.0
H1596 H 0.16814 0.81644 0.92136 0.0
H1597 H 0.23121 0.8776 0.87064 0.0
H1598 H 0.14319 0.83835 0.8534 0.0
H1599 H 0.10324 0.80343 0.83904 0.0
H1600 H 0.1345 0.80688 0.7669 0.0
H1601 H 0.17478 0.84157 0.78098 0.0
C1602 C 0.24487 0.97595 0.81715 0.0
C1603 C 0.25103 0.98017 0.79177 0.0
C1604 C 0.23372 0.95198 0.82702 0.0
C1605 C 0.22853 0.93146 0.81185 0.0
C1606 C 0.23327 0.93536 0.78619 0.0
C1607 C 0.24444 0.95946 0.77625 0.0
C1608 C 0.21938 0.9064 0.82321 0.0
C1609 C 0.19703 0.88591 0.81496 0.0
C1610 C 0.23207 0.90304 0.8432 0.0
C1611 C 0.25679 0.92319 0.8515 0.0
C1612 C 0.27647 0.93484 0.83443 0.0
C1613 C 0.29967 0.95393 0.84226 0.0
C1614 C 0.3035 0.9614 0.86715 0.0
C1615 C 0.28411 0.94988 0.88426 0.0
C1616 C 0.26085 0.93081 0.87653 0.0
C1617 C 0.16767 0.79079 0.86507 0.0
C1618 C 0.16277 0.79162 0.89052 0.0
C1619 C 0.17997 0.81281 0.85111 0.0
C1620 C 0.18765 0.83608 0.86233 0.0
C1621 C 0.18382 0.83687 0.88797 0.0
C1622 C 0.1715 0.81501 0.90181 0.0
C1623 C 0.19868 0.85965 0.84762 0.0
C1624 C 0.22146 0.87993 0.85524 0.0
C1625 C 0.18645 0.86271 0.82699 0.0
C1626 C 0.16206 0.84237 0.81831 0.0
C1627 C 0.14157 0.83158 0.83451 0.0
C1628 C 0.11888 0.81183 0.82642 0.0
C1629 C 0.11635 0.80289 0.80209 0.0
C1630 C 0.13649 0.81379 0.78576 0.0
C1631 C 0.15926 0.8335 0.79377 0.0
H1632 H 0.09879 0.78756 0.79589 0.0
H1633 H 0.3215 0.97615 0.87318 0.0
H1634 H 0.12393 0.35494 0.77772 0.0
H1635 H 0.16292 0.36907 0.79905 0.0
H1636 H 0.15021 0.29445 0.79838 0.0
H1637 H 0.11032 0.27985 0.7772 0.0
H1638 H 0.1675 0.31593 0.8428 0.0
H1639 H 0.19315 0.34043 0.75877 0.0
H1640 H 0.19514 0.3602 0.71868 0.0
H1641 H 0.22563 0.43115 0.75497 0.0
H1642 H 0.22352 0.41175 0.79535 0.0
H1643 H 0.28867 0.34653 0.87424 0.0
H1644 H 0.24986 0.33354 0.85308 0.0
H1645 H 0.26316 0.4083 0.85706 0.0
H1646 H 0.30287 0.42178 0.8783 0.0
H1647 H 0.2456 0.38738 0.81141 0.0
H1648 H 0.22053 0.36285 0.89539 0.0
H1649 H 0.21899 0.34304 0.93533 0.0
H1650 H 0.18763 0.27205 0.89898 0.0
H1651 H 0.18931 0.29148 0.85874 0.0
C1652 C 0.12931 0.34138 0.78191 0.0
C1653 C 0.11385 0.31616 0.77551 0.0
C1654 C 0.15185 0.34962 0.79409 0.0
C1655 C 0.15994 0.33302 0.80005 0.0
C1656 C 0.14453 0.30773 0.7939 0.0
C1657 C 0.12174 0.29938 0.7817 0.0
C1658 C 0.18421 0.34224 0.81313 0.0
C1659 C 0.18462 0.33129 0.83568 0.0
C1660 C 0.20659 0.36286 0.8044 0.0
C1661 C 0.20796 0.37459 0.78012 0.0
C1662 C 0.20011 0.36022 0.75823 0.0
C1663 C 0.20129 0.37137 0.73545 0.0
C1664 C 0.21045 0.3969 0.73429 0.0
C1665 C 0.21852 0.41136 0.7559 0.0
C1666 C 0.21736 0.40031 0.77874 0.0
C1667 C 0.28351 0.36039 0.87079 0.0
C1668 C 0.29903 0.38529 0.87823 0.0
C1669 C 0.26107 0.3528 0.8587 0.0
C1670 C 0.25318 0.36974 0.85377 0.0
C1671 C 0.26871 0.39478 0.86077 0.0
C1672 C 0.29139 0.40248 0.87299 0.0
C1673 C 0.22887 0.36101 0.841 0.0
C1674 C 0.22846 0.37205 0.81852 0.0
C1675 C 0.20649 0.34046 0.84978 0.0
C1676 C 0.20523 0.32867 0.874 0.0
C1677 C 0.21346 0.34304 0.89588 0.0
C1678 C 0.21254 0.33188 0.91858 0.0
C1679 C 0.20327 0.30632 0.91968 0.0
C1680 C 0.19483 0.29185 0.89809 0.0
C1681 C 0.19573 0.30293 0.87534 0.0
H1682 H 0.20259 0.29771 0.93728 0.0
H1683 H 0.21135 0.4055 0.71663 0.0
H1684 H 0.77394 0.79933 0.79562 0.0
H1685 H 0.75986 0.82115 0.82349 0.0
H1686 H 0.70152 0.80709 0.77201 0.0
H1687 H 0.71582 0.78612 0.74403 0.0
H1688 H 0.718 0.85082 0.78979 0.0
H1689 H 0.69122 0.77175 0.82612 0.0
H1690 H 0.6957 0.73758 0.84256 0.0
H1691 H 0.74495 0.78591 0.89917 0.0
H1692 H 0.74086 0.82055 0.88285 0.0
H1693 H 0.63964 0.8708 0.87155 0.0
H1694 H 0.6544 0.84814 0.84582 0.0
H1695 H 0.7187 0.8746 0.8926 0.0
H1696 H 0.70417 0.89728 0.9182 0.0
H1697 H 0.69966 0.82507 0.87795 0.0
H1698 H 0.72304 0.90413 0.84007 0.0
H1699 H 0.71414 0.93539 0.82305 0.0
H1700 H 0.66631 0.88295 0.76822 0.0
H1701 H 0.67462 0.85123 0.78514 0.0
C1702 C 0.75838 0.80125 0.79008 0.0
C1703 C 0.74603 0.79083 0.76754 0.0
C1704 C 0.75014 0.81354 0.80617 0.0
C1705 C 0.72924 0.81549 0.80019 0.0
C1706 C 0.7176 0.80591 0.77725 0.0
C1707 C 0.72583 0.79379 0.76121 0.0
C1708 C 0.71895 0.82685 0.81784 0.0
C1709 C 0.71382 0.84495 0.80899 0.0
C1710 C 0.71351 0.81951 0.84305 0.0
C1711 C 0.71597 0.7988 0.85308 0.0
C1712 C 0.70315 0.77514 0.84197 0.0
C1713 C 0.7056 0.75567 0.85129 0.0
C1714 C 0.72071 0.75955 0.87185 0.0
C1715 C 0.7333 0.78294 0.8832 0.0
C1716 C 0.73089 0.8025 0.87395 0.0
C1717 C 0.6566 0.8713 0.8767 0.0
C1718 C 0.67071 0.8859 0.89696 0.0
C1719 C 0.66515 0.8585 0.86184 0.0
C1720 C 0.68788 0.85988 0.86704 0.0
C1721 C 0.70119 0.87324 0.88812 0.0
C1722 C 0.69282 0.88624 0.90275 0.0
C1723 C 0.69866 0.84883 0.84978 0.0
C1724 C 0.70394 0.83091 0.85875 0.0
C1725 C 0.70382 0.85599 0.82454 0.0
C1726 C 0.69929 0.87524 0.81401 0.0
C1727 C 0.71053 0.89922 0.82447 0.0
C1728 C 0.70559 0.91702 0.81484 0.0
C1729 C 0.68964 0.91113 0.79461 0.0
C1730 C 0.67865 0.88746 0.78391 0.0
C1731 C 0.68348 0.86958 0.79349 0.0
H1732 H 0.68581 0.92489 0.78719 0.0
H1733 H 0.72259 0.74443 0.87902 0.0
H1734 H 0.45855 0.46854 0.55836 0.0
H1735 H 0.48322 0.50755 0.53683 0.0
H1736 H 0.53779 0.48704 0.51873 0.0
H1737 H 0.51291 0.44737 0.54081 0.0
H1738 H 0.55983 0.53671 0.53089 0.0
H1739 H 0.49765 0.48215 0.4748 0.0
H1740 H 0.45548 0.45131 0.46107 0.0
H1741 H 0.43138 0.50375 0.47451 0.0
H1742 H 0.47333 0.5348 0.48871 0.0
H1743 H 0.57395 0.6246 0.41938 0.0
H1744 H 0.55316 0.58318 0.438 0.0
H1745 H 0.57263 0.61634 0.51108 0.0
H1746 H 0.59405 0.65756 0.49246 0.0
H1747 H 0.51652 0.55725 0.46661 0.0
H1748 H 0.58241 0.58049 0.55152 0.0
H1749 H 0.62603 0.60974 0.56232 0.0
H1750 H 0.6461 0.61733 0.48513 0.0
H1751 H 0.60275 0.5876 0.47389 0.0
C1752 C 0.47585 0.47218 0.54996 0.0
C1753 C 0.48354 0.45452 0.55118 0.0
C1754 C 0.48996 0.49463 0.53752 0.0
C1755 C 0.51218 0.5002 0.52561 0.0
C1756 C 0.52062 0.48316 0.52761 0.0
C1757 C 0.5064 0.46048 0.54025 0.0
C1758 C 0.52581 0.52355 0.51071 0.0
C1759 C 0.5504 0.54118 0.51678 0.0
C1760 C 0.51385 0.52928 0.49175 0.0
C1761 C 0.48862 0.51076 0.48298 0.0
C1762 C 0.48332 0.48706 0.47498 0.0
C1763 C 0.45946 0.46954 0.4671 0.0
C1764 C 0.44076 0.47555 0.46696 0.0
C1765 C 0.44589 0.49912 0.47464 0.0
C1766 C 0.46972 0.5167 0.48259 0.0
C1767 C 0.57351 0.62307 0.43943 0.0
C1768 C 0.5858 0.64449 0.45443 0.0
C1769 C 0.56168 0.5993 0.4501 0.0
C1770 C 0.56173 0.59636 0.47603 0.0
C1771 C 0.57285 0.61783 0.49103 0.0
C1772 C 0.58492 0.64151 0.48037 0.0
C1773 C 0.55033 0.57097 0.48738 0.0
C1774 C 0.5261 0.55287 0.48061 0.0
C1775 C 0.56291 0.56465 0.50522 0.0
C1776 C 0.58922 0.58199 0.51185 0.0
C1777 C 0.59615 0.58823 0.53685 0.0
C1778 C 0.62084 0.60487 0.54305 0.0
C1779 C 0.6388 0.61547 0.52442 0.0
C1780 C 0.63215 0.6092 0.49955 0.0
C1781 C 0.60752 0.5924 0.49325 0.0
H1782 H 0.65786 0.62852 0.52925 0.0
H1783 H 0.42229 0.46196 0.46085 0.0
H1784 H 0.63333 0.08486 0.54418 0.0
H1785 H 0.59284 0.06939 0.52408 0.0
H1786 H 0.57286 0.99433 0.54204 0.0
H1787 H 0.61296 1.00946 0.56154 0.0
H1788 H 0.56114 0.99534 0.49599 0.0
H1789 H 0.54789 0.02654 0.57301 0.0
H1790 H 0.55666 0.05793 0.60559 0.0
H1791 H 0.54839 0.10415 0.55242 0.0
H1792 H 0.53988 0.07315 0.51945 0.0
H1793 H 0.43162 0.9369 0.46426 0.0
H1794 H 0.47095 0.95168 0.48659 0.0
H1795 H 0.49275 0.0272 0.46854 0.0
H1796 H 0.45392 0.01282 0.44679 0.0
H1797 H 0.50312 0.02544 0.51524 0.0
H1798 H 0.51716 0.99468 0.43815 0.0
H1799 H 0.50853 0.96342 0.40547 0.0
H1800 H 0.51539 0.91645 0.45879 0.0
H1801 H 0.52376 0.94732 0.49187 0.0
C1802 C 0.62017 0.06511 0.54406 0.0
C1803 C 0.62654 0.04847 0.55447 0.0
C1804 C 0.59697 0.05623 0.53256 0.0
C1805 C 0.57958 0.03057 0.53148 0.0
C1806 C 0.58584 0.01413 0.54236 0.0
C1807 C 0.60889 0.02291 0.55365 0.0
C1808 C 0.5551 0.02048 0.51859 0.0
C1809 C 0.54835 1.00175 0.50048 0.0
C1810 C 0.53842 0.02901 0.52393 0.0
C1811 C 0.54351 0.04765 0.54372 0.0
C1812 C 0.54814 0.04348 0.56823 0.0
C1813 C 0.55302 0.06119 0.58677 0.0
C1814 C 0.55315 0.08305 0.58106 0.0
C1815 C 0.54833 0.08722 0.55681 0.0
C1816 C 0.54345 0.06959 0.53819 0.0
C1817 C 0.44486 0.95662 0.465 0.0
C1818 C 0.43946 0.97358 0.45366 0.0
C1819 C 0.4674 0.96509 0.47774 0.0
C1820 C 0.48504 0.99067 0.47926 0.0
C1821 C 0.47957 1.00745 0.46786 0.0
C1822 C 0.45723 0.99908 0.45527 0.0
C1823 C 0.50919 1.00031 0.49265 0.0
C1824 C 0.51589 0.01898 0.51082 0.0
C1825 C 0.52584 0.99174 0.48737 0.0
C1826 C 0.52081 0.97318 0.46753 0.0
C1827 C 0.51663 0.9776 0.44294 0.0
C1828 C 0.51182 0.95997 0.42434 0.0
C1829 C 0.51134 0.93793 0.43006 0.0
C1830 C 0.51572 0.93351 0.45439 0.0
C1831 C 0.52052 0.95107 0.47307 0.0
H1832 H 0.50762 0.92431 0.41563 0.0
H1833 H 0.55694 0.09673 0.59544 0.0
H1834 H 0.06719 0.46931 0.41148 0.0
H1835 H 0.04968 0.4875 0.43903 0.0
H1836 H 0.09556 0.48813 0.4989 0.0
H1837 H 0.11265 0.46885 0.47135 0.0
H1838 H 0.05168 0.47283 0.51631 0.0
H1839 H 0.1055 0.54265 0.46704 0.0
H1840 H 0.12445 0.56696 0.42912 0.0
H1841 H 0.054 0.55664 0.40685 0.0
H1842 H 0.03452 0.5319 0.44443 0.0
H1843 H 0.0301 0.55527 0.5924 0.0
H1844 H 0.04689 0.53466 0.5668 0.0
H1845 H 0.99362 0.5217 0.50963 0.0
H1846 H 0.97653 0.54227 0.53538 0.0
H1847 H 0.04178 0.54372 0.49166 0.0
H1848 H 0.9889 0.47361 0.5428 0.0
H1849 H 0.97204 0.4512 0.58212 0.0
H1850 H 0.0443 0.46535 0.60273 0.0
H1851 H 0.06165 0.4881 0.56366 0.0
C1852 C 0.07392 0.47357 0.43041 0.0
C1853 C 0.09157 0.4677 0.43903 0.0
C1854 C 0.06388 0.48418 0.44622 0.0
C1855 C 0.07146 0.48972 0.47112 0.0
C1856 C 0.08939 0.48422 0.47978 0.0
C1857 C 0.09936 0.47337 0.46393 0.0
C1858 C 0.05981 0.50023 0.48812 0.0
C1859 C 0.04997 0.48863 0.51104 0.0
C1860 C 0.0569 0.52053 0.48124 0.0
C1861 C 0.0685 0.53518 0.45845 0.0
C1862 C 0.09399 0.54535 0.45394 0.0
C1863 C 0.10483 0.55924 0.43252 0.0
C1864 C 0.09042 0.56328 0.41555 0.0
C1865 C 0.06513 0.55345 0.41998 0.0
C1866 C 0.05418 0.5395 0.44135 0.0
C1867 C 0.02158 0.5476 0.57458 0.0
C1868 C 1.00186 0.55037 0.56602 0.0
C1869 C 0.03122 0.53576 0.55994 0.0
C1870 C 0.02156 0.52651 0.53622 0.0
C1871 C 1.0014 0.52862 0.52786 0.0
C1872 C 0.99149 0.54021 0.54269 0.0
C1873 C 0.03363 0.51624 0.51965 0.0
C1874 C 0.04358 0.52794 0.49686 0.0
C1875 C 0.03701 0.49635 0.52685 0.0
C1876 C 0.02662 0.48278 0.55041 0.0
C1877 C 1.00124 0.47214 0.55582 0.0
C1878 C 0.99158 0.45933 0.57804 0.0
C1879 C 1.0071 0.45693 0.59495 0.0
C1880 C 0.03231 0.4673 0.58966 0.0
C1881 C 0.04205 0.48011 0.56745 0.0
H1882 H 0.99958 0.44697 0.61213 0.0
H1883 H 0.09886 0.57406 0.399 0.0
H1884 H 0.45497 0.48727 0.9259 0.0
H1885 H 0.49616 0.51394 0.94466 0.0
H1886 H 0.47479 0.46473 0.00736 0.0
H1887 H 0.43422 0.43821 0.98878 0.0
H1888 H 0.50036 0.51414 0.02179 0.0
H1889 H 0.50861 0.46032 0.96139 0.0
H1890 H 0.50631 0.44347 0.91925 0.0
H1891 H 0.5576 0.51658 0.89263 0.0
H1892 H 0.55993 0.53391 0.93458 0.0
H1893 H 0.60988 0.54007 0.08196 0.0
H1894 H 0.57093 0.51914 0.05896 0.0
H1895 H 0.6069 0.5659 -0.00428 0.0
H1896 H 0.64622 0.58616 0.01834 0.0
H1897 H 0.57475 0.52257 0.9791 0.0
H1898 H 0.56995 0.57682 0.03859 0.0
H1899 H 0.57304 0.59525 0.08007 0.0
H1900 H 0.5158 0.52484 0.1073 0.0
H1901 H 0.51264 0.50588 0.06608 0.0
C1902 C 0.45899 0.48244 0.94385 0.0
C1903 C 0.44132 0.46058 0.9558 0.0
C1904 C 0.48258 0.49757 0.95449 0.0
C1905 C 0.48873 0.49128 0.97741 0.0
C1906 C 0.47063 0.47005 0.98973 0.0
C1907 C 0.44739 0.45484 0.979 0.0
C1908 C 0.51409 0.5059 0.98847 0.0
C1909 C 0.51661 0.5159 0.01249 0.0
C1910 C 0.53552 0.50888 0.97617 0.0
C1911 C 0.53421 0.49844 0.95103 0.0
C1912 C 0.51923 0.47283 0.9465 0.0
C1913 C 0.51795 0.46318 0.92266 0.0
C1914 C 0.53173 0.47895 0.90325 0.0
C1915 C 0.54689 0.50439 0.90766 0.0
C1916 C 0.5482 0.51413 0.93147 0.0
C1917 C 0.60962 0.54566 0.06302 0.0
C1918 C 0.63125 0.56489 0.05209 0.0
C1919 C 0.5872 0.53382 0.04991 0.0
C1920 C 0.58557 0.54134 0.02573 0.0
C1921 C 0.60743 0.55977 0.01436 0.0
C1922 C 0.63 0.57135 0.02734 0.0
C1923 C 0.56102 0.53044 0.01273 0.0
C1924 C 0.55864 0.52115 0.98836 0.0
C1925 C 0.53973 0.52845 0.02457 0.0
C1926 C 0.54119 0.53988 0.04927 0.0
C1927 C 0.55809 0.56524 0.05345 0.0
C1928 C 0.55986 0.57578 0.07692 0.0
C1929 C 0.54466 0.56121 0.09632 0.0
C1930 C 0.52758 0.53609 0.09226 0.0
C1931 C 0.52577 0.52544 0.06884 0.0
H1932 H 0.54608 0.5694 0.11449 0.0
H1933 H 0.53072 0.47145 0.88481 0.0
H1934 H 0.61822 1.00498 0.92859 0.0
H1935 H 0.5966 0.02148 0.95255 0.0
H1936 H 0.54957 0.94949 0.98473 0.0
H1937 H 0.57162 0.93264 0.96079 0.0
H1938 H 0.52376 0.9738 0.96755 0.0
H1939 H 0.59343 0.99231 0.01954 0.0
H1940 H 0.63768 1.00909 0.02885 0.0
H1941 H 0.65355 0.08201 0.00833 0.0
H1942 H 0.60944 0.06562 -0.0014 0.0
H1943 H 0.46935 1.00869 0.06117 0.0
H1944 H 0.49354 0.99386 0.03942 0.0
H1945 H 0.54403 0.06798 0.01381 0.0
H1946 H 0.51965 0.08327 0.03606 0.0
H1947 H 0.56875 0.04342 0.02722 0.0
H1948 H 0.50091 0.02668 0.97512 0.0
H1949 H 0.45724 0.01143 0.96454 0.0
H1950 H 0.43865 0.9371 0.98255 0.0
H1951 H 0.48215 0.95197 0.99377 0.0
C1952 C 0.60324 0.99245 0.94065 0.0
C1953 C 0.59669 0.96734 0.94263 0.0
C1954 C 0.59095 1.00206 0.95451 0.0
C1955 C 0.57159 0.98688 0.97069 0.0
C1956 C 0.56454 0.96163 0.97244 0.0
C1957 C 0.57714 0.952 0.95874 0.0
C1958 C 0.55871 0.99756 0.98537 0.0
C1959 C 0.5335 0.98871 0.98091 0.0
C1960 C 0.57161 0.01776 0.00211 0.0
C1961 C 0.59814 0.02767 0.00808 0.0
C1962 C 0.60638 0.01188 0.01681 0.0
C1963 C 0.63144 0.02134 0.02221 0.0
C1964 C 0.64843 0.04658 0.01907 0.0
C1965 C 0.64037 0.06245 0.01069 0.0
C1966 C 0.61534 0.05309 0.00526 0.0
C1967 C 0.48565 0.02204 0.05105 0.0
C1968 C 0.49234 0.04724 0.05024 0.0
C1969 C 0.49948 0.01342 0.0385 0.0
C1970 C 0.5204 0.02961 0.02449 0.0
C1971 C 0.52787 0.05504 0.02437 0.0
C1972 C 0.51393 0.06378 0.03709 0.0
C1973 C 0.5337 0.01946 0.00961 0.0
C1974 C 0.55898 0.02845 0.01392 0.0
C1975 C 0.52096 0.99959 0.99246 0.0
C1976 C 0.49479 0.99049 0.98551 0.0
C1977 C 0.48749 1.0071 0.97702 0.0
C1978 C 0.46276 0.99852 0.97087 0.0
C1979 C 0.44517 0.97331 0.97288 0.0
C1980 C 0.45229 0.95662 0.98102 0.0
C1981 C 0.47699 0.96512 0.98727 0.0
H1982 H 0.42604 0.96671 0.9681 0.0
H1983 H 0.66783 0.05388 0.02313 0.0
H1984 H 0.05178 0.6455 0.97862 0.0
H1985 H 0.0357 0.60437 -0.00376 0.0
H1986 H 0.08114 0.59033 0.94598 0.0
H1987 H 0.09764 0.63205 0.92798 0.0
H1988 H 0.03069 0.55107 0.94829 0.0
H1989 H 0.09633 0.59988 0.00562 0.0
H1990 H 0.12085 0.63401 0.03509 0.0
H1991 H 0.05681 0.60993 0.08162 0.0
H1992 H 0.03177 0.57588 0.05222 0.0
H1993 H 1.0134 0.44184 0.00612 0.0
H1994 H 0.02866 0.48262 0.98788 0.0
H1995 H 0.98788 0.49879 0.04239 0.0
H1996 H 0.97223 0.45741 0.06083 0.0
H1997 H 0.03587 0.53723 0.03816 0.0
H1998 H 0.96977 0.49044 0.98291 0.0
H1999 H 0.94251 0.45705 0.95394 0.0
H2000 H 1.00377 0.47767 0.90426 0.0
H2001 H 0.03152 0.51105 0.93311 0.0
C2002 C 0.05863 0.63386 0.9713 0.0
C2003 C 0.0761 0.64224 0.95179 0.0
C2004 C 0.04943 0.6103 0.98158 0.0
C2005 C 0.05728 0.59421 0.97271 0.0
C2006 C 0.07483 0.60242 0.95326 0.0
C2007 C 0.08436 0.62632 0.94305 0.0
C2008 C 0.04626 0.56865 0.98337 0.0
C2009 C 0.03228 0.54803 0.96784 0.0
C2010 C 0.04723 0.56461 0.00915 0.0
C2011 C 0.06212 0.5854 0.0266 0.0
C2012 C 0.0874 0.60199 0.02201 0.0
C2013 C 0.10142 0.62127 0.03875 0.0
C2014 C 0.09042 0.62407 0.06026 0.0
C2015 C 0.06534 0.60765 0.06502 0.0
C2016 C 0.05122 0.58838 0.04831 0.0
C2017 C 1.00736 0.45389 0.01413 0.0
C2018 C 0.99154 0.44627 0.035 0.0
C2019 C 1.01609 0.47728 0.00357 0.0
C2020 C 1.00947 0.49396 0.01361 0.0
C2021 C 0.9933 0.48631 0.03424 0.0
C2022 C 0.98419 0.46258 0.04468 0.0
C2023 C 0.02047 0.51959 0.00304 0.0
C2024 C 0.03437 0.54022 0.01858 0.0
C2025 C 0.01911 0.52369 0.97735 0.0
C2026 C 1.00278 0.50312 0.9603 0.0
C2027 C 0.97751 0.48768 0.96596 0.0
C2028 C 0.96195 0.46881 0.94951 0.0
C2029 C 0.97139 0.46529 0.92726 0.0
C2030 C 0.99648 0.48049 0.92148 0.0
C2031 C 1.01213 0.49939 0.93787 0.0
H2032 H 0.95924 0.4508 0.91446 0.0
H2033 H 0.10129 0.63904 0.07317 0.0
loop_
_geom_bond_atom_site_label_1
_geom_bond_atom_site_label_2
_geom_bond_distance
_geom_bond_site_symmetry_2
_ccdc_geom_bond_type
Mg0 O7 2.141 1_455 S
Mg0 O8 2.048 . S
Mg0 O9 2.048 . S
Mg0 O12 2.141 . S
C1 O2 1.313 . S
C1 O8 1.195 . S
O2 C1 1.313 . S
C3 O4 1.245 1_655 S
C3 O12 1.289 1_655 S
O4 C3 1.245 1_455 S
C5 O6 1.245 . S
C5 O7 1.289 . S
O6 C5 1.245 . S
O7 Mg0 2.141 1_655 S
O7 C5 1.289 . S
O8 Mg0 2.048 . S
O8 C1 1.195 . S
O9 Mg0 2.048 . S
O9 C10 1.195 . S
C10 O9 1.195 . S
C10 O11 1.313 . S
O11 C10 1.313 . S
O12 Mg0 2.141 . S
O12 C3 1.289 1_455 S
Mg13 O20 2.141 . S
Mg13 O21 2.048 . S
Mg13 O22 2.048 . S
Mg13 O25 2.141 . S
C14 O15 1.313 . S
C14 O21 1.195 . S
O15 C14 1.313 . S
C16 O17 1.245 . S
C16 O25 1.289 . S
O17 C16 1.245 . S
C18 O19 1.245 . S
C18 O20 1.289 . S
O19 C18 1.245 . S
O20 Mg13 2.141 . S
O20 C18 1.289 . S
O21 Mg13 2.048 . S
O21 C14 1.195 . S
O22 Mg13 2.048 . S
O22 C23 1.195 . S
C23 O22 1.195 . S
C23 O24 1.313 . S
O24 C23 1.313 . S
O25 Mg13 2.141 . S
O25 C16 1.289 . S
Mg26 O33 2.141 1_545 S
Mg26 O34 2.048 . S
Mg26 O35 2.048 . S
Mg26 O38 2.141 1_545 S
C27 O28 1.313 . S
C27 O34 1.195 . S
O28 C27 1.313 . S
C29 O30 1.245 . S
C29 O38 1.289 . S
O30 C29 1.245 . S
C31 O32 1.245 . S
C31 O33 1.289 . S
O32 C31 1.245 . S
O33 Mg26 2.141 1_565 S
O33 C31 1.289 . S
O34 Mg26 2.048 . S
O34 C27 1.195 . S
O35 Mg26 2.048 . S
O35 C36 1.195 . S
C36 O35 1.195 . S
C36 O37 1.313 . S
O37 C36 1.313 . S
O38 Mg26 2.141 1_565 S
O38 C29 1.289 . S
Mg39 O46 2.141 . S
Mg39 O47 2.048 1_455 S
Mg39 O48 2.048 . S
Mg39 O51 2.141 . S
C40 O41 1.313 . S
C40 O47 1.195 . S
O41 C40 1.313 . S
C42 O43 1.245 . S
C42 O51 1.289 . S
O43 C42 1.245 . S
C44 O45 1.245 . S
C44 O46 1.289 . S
O45 C44 1.245 . S
O46 Mg39 2.141 . S
O46 C44 1.289 . S
O47 Mg39 2.048 1_655 S
O47 C40 1.195 . S
O48 Mg39 2.048 . S
O48 C49 1.195 1_455 S
C49 O48 1.195 1_655 S
C49 O50 1.313 . S
O50 C49 1.313 . S
O51 Mg39 2.141 . S
O51 C42 1.289 . S
Mg52 O59 2.141 . S
Mg52 O60 2.048 . S
Mg52 O61 2.048 . S
Mg52 O64 2.141 . S
C53 O54 1.313 . S
C53 O60 1.195 . S
O54 C53 1.313 . S
C55 O56 1.245 . S
C55 O64 1.289 . S
O56 C55 1.245 . S
C57 O58 1.245 . S
C57 O59 1.289 . S
O58 C57 1.245 . S
O59 Mg52 2.141 . S
O59 C57 1.289 . S
O60 Mg52 2.048 . S
O60 C53 1.195 . S
O61 Mg52 2.048 . S
O61 C62 1.195 . S
C62 O61 1.195 . S
C62 O63 1.313 . S
O63 C62 1.313 . S
O64 Mg52 2.141 . S
O64 C55 1.289 . S
Mg65 O72 2.141 . S
Mg65 O73 2.057 . S
Mg65 O74 2.048 1_545 S
Mg65 O77 2.141 . S
C66 O67 1.313 . S
C66 O73 1.196 1_565 S
O67 C66 1.313 . S
C68 O69 1.245 . S
C68 O77 1.289 . S
O69 C68 1.245 . S
C70 O71 1.245 . S
C70 O72 1.289 . S
O71 C70 1.245 . S
O72 Mg65 2.141 . S
O72 C70 1.289 . S
O73 Mg65 2.057 . S
O73 C66 1.196 1_545 S
O74 Mg65 2.048 1_565 S
O74 C75 1.195 . S
C75 O74 1.195 . S
C75 O76 1.313 . S
O76 C75 1.313 . S
O77 Mg65 2.141 . S
O77 C68 1.289 . S
Mg78 O85 2.141 . S
Mg78 O86 2.048 . S
Mg78 O87 2.048 . S
Mg78 O90 2.141 . S
C79 O80 1.313 . S
C79 O86 1.195 . S
O80 C79 1.313 . S
C81 O82 1.245 . S
C81 O90 1.289 . S
O82 C81 1.245 . S
C83 O84 1.245 . S
C83 O85 1.289 . S
O84 C83 1.245 . S
O85 Mg78 2.141 . S
O85 C83 1.289 . S
O86 Mg78 2.048 . S
O86 C79 1.195 . S
O87 Mg78 2.048 . S
O87 C88 1.195 . S
C88 O87 1.195 . S
C88 O89 1.313 . S
O89 C88 1.313 . S
O90 Mg78 2.141 . S
O90 C81 1.289 . S
Mg91 O98 2.141 . S
Mg91 O99 2.048 . S
Mg91 O100 2.048 . S
Mg91 O103 2.141 . S
C92 O93 1.313 . S
C92 O99 1.195 . S
O93 C92 1.313 . S
C94 O95 1.245 . S
C94 O103 1.289 . S
O95 C94 1.245 . S
C96 O97 1.245 . S
C96 O98 1.289 . S
O97 C96 1.245 . S
O98 Mg91 2.141 . S
O98 C96 1.289 . S
O99 Mg91 2.048 . S
O99 C92 1.195 . S
O100 Mg91 2.048 . S
O100 C101 1.195 . S
C101 O100 1.195 . S
C101 O102 1.313 . S
O102 C101 1.313 . S
O103 Mg91 2.141 . S
O103 C94 1.289 . S
Mg104 O111 2.141 . S
Mg104 O112 2.048 . S
Mg104 O113 2.048 . S
Mg104 O116 2.141 . S
C105 O106 1.313 . S
C105 O112 1.195 . S
O106 C105 1.313 . S
C107 O108 1.245 . S
C107 O116 1.289 . S
O108 C107 1.245 . S
C109 O110 1.245 . S
C109 O111 1.289 . S
O110 C109 1.245 . S
O111 Mg104 2.141 . S
O111 C109 1.289 . S
O112 Mg104 2.048 . S
O112 C105 1.195 . S
O113 Mg104 2.048 . S
O113 C114 1.195 . S
C114 O113 1.195 . S
C114 O115 1.313 . S
O115 C114 1.313 . S
O116 Mg104 2.141 . S
O116 C107 1.289 . S
Mg117 O124 2.141 . S
Mg117 O125 2.048 . S
Mg117 O126 2.048 . S
Mg117 O129 2.141 . S
C118 O119 1.313 . S
C118 O125 1.195 . S
O119 C118 1.313 . S
C120 O121 1.245 . S
C120 O129 1.289 . S
O121 C120 1.245 . S
C122 O123 1.245 . S
C122 O124 1.289 . S
O123 C122 1.245 . S
O124 Mg117 2.141 . S
O124 C122 1.289 . S
O125 Mg117 2.048 . S
O125 C118 1.195 . S
O126 Mg117 2.048 . S
O126 C127 1.195 . S
C127 O126 1.195 . S
C127 O128 1.313 . S
O128 C127 1.313 . S
O129 Mg117 2.141 . S
O129 C120 1.289 . S
Mg130 O137 2.141 . S
Mg130 O138 2.048 . S
Mg130 O139 2.048 . S
Mg130 O142 2.141 . S
C131 O132 1.313 . S
C131 O138 1.195 . S
O132 C131 1.313 . S
C133 O134 1.245 . S
C133 O142 1.289 . S
O134 C133 1.245 . S
C135 O136 1.245 . S
C135 O137 1.289 . S
O136 C135 1.245 . S
O137 Mg130 2.141 . S
O137 C135 1.289 . S
O138 Mg130 2.048 . S
O138 C131 1.195 . S
O139 Mg130 2.048 . S
O139 C140 1.195 . S
C140 O139 1.195 . S
C140 O141 1.313 . S
O141 C140 1.313 . S
O142 Mg130 2.141 . S
O142 C133 1.289 . S
Mg143 O150 2.141 . S
Mg143 O151 2.048 . S
Mg143 O152 2.048 . S
Mg143 O155 2.141 . S
C144 O145 1.313 . S
C144 O151 1.195 . S
O145 C144 1.313 . S
C146 O147 1.245 . S
C146 O155 1.289 . S
O147 C146 1.245 . S
C148 O149 1.245 . S
C148 O150 1.289 . S
O149 C148 1.245 . S
O150 Mg143 2.141 . S
O150 C148 1.289 . S
O151 Mg143 2.048 . S
O151 C144 1.195 . S
O152 Mg143 2.048 . S
O152 C153 1.195 . S
C153 O152 1.195 . S
C153 O154 1.313 . S
O154 C153 1.313 . S
O155 Mg143 2.141 . S
O155 C146 1.289 . S
Mg156 O163 2.141 . S
Mg156 O164 2.048 . S
Mg156 O165 2.048 . S
Mg156 O168 2.141 . S
C157 O158 1.313 . S
C157 O164 1.195 . S
O158 C157 1.313 . S
C159 O160 1.245 . S
C159 O168 1.289 . S
O160 C159 1.245 . S
C161 O162 1.245 . S
C161 O163 1.289 . S
O162 C161 1.245 . S
O163 Mg156 2.141 . S
O163 C161 1.289 . S
O164 Mg156 2.048 . S
O164 C157 1.195 . S
O165 Mg156 2.048 . S
O165 C166 1.195 . S
C166 O165 1.195 . S
C166 O167 1.313 . S
O167 C166 1.313 . S
O168 Mg156 2.141 . S
O168 C159 1.289 . S
Mg169 O176 2.141 . S
Mg169 O177 2.048 . S
Mg169 O178 2.048 . S
Mg169 O181 2.141 . S
C170 O171 1.313 . S
C170 O177 1.195 . S
O171 C170 1.313 . S
C172 O173 1.245 . S
C172 O181 1.289 . S
O173 C172 1.245 . S
C174 O175 1.245 . S
C174 O176 1.289 . S
O175 C174 1.245 . S
O176 Mg169 2.141 . S
O176 C174 1.289 . S
O177 Mg169 2.048 . S
O177 C170 1.195 . S
O178 Mg169 2.048 . S
O178 C179 1.195 . S
C179 O178 1.195 . S
C179 O180 1.313 . S
O180 C179 1.313 . S
O181 Mg169 2.141 . S
O181 C172 1.289 . S
Mg182 O189 2.141 . S
Mg182 O190 2.048 . S
Mg182 O191 2.048 . S
Mg182 O194 2.141 . S
C183 O184 1.313 . S
C183 O190 1.195 . S
O184 C183 1.313 . S
C185 O186 1.245 . S
C185 O194 1.289 . S
O186 C185 1.245 . S
C187 O188 1.245 . S
C187 O189 1.289 . S
O188 C187 1.245 . S
O189 Mg182 2.141 . S
O189 C187 1.289 . S
O190 Mg182 2.048 . S
O190 C183 1.195 . S
O191 Mg182 2.048 . S
O191 C192 1.195 . S
C192 O191 1.195 . S
C192 O193 1.313 . S
O193 C192 1.313 . S
O194 Mg182 2.141 . S
O194 C185 1.289 . S
Mg195 O202 2.141 . S
Mg195 O203 2.048 . S
Mg195 O204 2.048 . S
Mg195 O207 2.141 . S
C196 O197 1.313 . S
C196 O203 1.195 . S
O197 C196 1.313 . S
C198 O199 1.245 . S
C198 O207 1.289 . S
O199 C198 1.245 . S
C200 O201 1.245 . S
C200 O202 1.289 . S
O201 C200 1.245 . S
O202 Mg195 2.141 . S
O202 C200 1.289 . S
O203 Mg195 2.048 . S
O203 C196 1.195 . S
O204 Mg195 2.048 . S
O204 C205 1.195 . S
C205 O204 1.195 . S
C205 O206 1.313 . S
O206 C205 1.313 . S
O207 Mg195 2.141 . S
O207 C198 1.289 . S
Mg208 O215 2.141 . S
Mg208 O216 2.048 . S
Mg208 O217 2.048 . S
Mg208 O220 2.141 . S
C209 O210 1.313 . S
C209 O216 1.195 . S
O210 C209 1.313 . S
C211 O212 1.245 . S
C211 O220 1.289 . S
O212 C211 1.245 . S
C213 O214 1.245 . S
C213 O215 1.289 . S
O214 C213 1.245 . S
O215 Mg208 2.141 . S
O215 C213 1.289 . S
O216 Mg208 2.048 . S
O216 C209 1.195 . S
O217 Mg208 2.048 . S
O217 C218 1.195 . S
C218 O217 1.195 . S
C218 O219 1.313 . S
O219 C218 1.313 . S
O220 Mg208 2.141 . S
O220 C211 1.289 . S
Mg221 O228 2.141 . S
Mg221 O229 2.048 . S
Mg221 O230 2.048 . S
Mg221 O233 2.141 . S
C222 O223 1.313 . S
C222 O229 1.195 . S
O223 C222 1.313 . S
C224 O225 1.245 . S
C224 O233 1.289 . S
O225 C224 1.245 . S
C226 O227 1.245 . S
C226 O228 1.289 . S
O227 C226 1.245 . S
O228 Mg221 2.141 . S
O228 C226 1.289 . S
O229 Mg221 2.048 . S
O229 C222 1.195 . S
O230 Mg221 2.048 . S
O230 C231 1.195 . S
C231 O230 1.195 . S
C231 O232 1.313 . S
O232 C231 1.313 . S
O233 Mg221 2.141 . S
O233 C224 1.289 . S
H234 C252 0.951 . S
H235 C254 0.951 . S
H236 C256 0.950 . S
H237 C257 0.950 . S
H238 C259 0.950 . S
H239 C262 0.950 . S
H240 C263 0.950 1_655 S
H241 C265 0.950 . S
H242 C266 0.950 . S
H243 C267 0.951 . S
H244 C269 0.951 . S
H245 C271 0.950 . S
H246 C272 0.918 1_556 S
H247 C274 0.950 . S
H248 C277 0.950 . S
H249 C278 0.950 . S
H250 C280 0.950 . S
H251 C281 0.950 . S
C252 H234 0.951 . S
C252 C253 1.366 . S
C252 C254 1.388 . S
C253 C252 1.366 . S
C253 C257 1.385 . S
C254 H235 0.951 . S
C254 C252 1.388 . S
C254 C255 1.366 . S
C255 C254 1.366 . S
C255 C256 1.414 . S
C255 C258 1.499 . S
C256 H236 0.950 . S
C256 C255 1.414 . S
C256 C257 1.374 . S
C257 H237 0.950 . S
C257 C253 1.385 . S
C257 C256 1.374 . S
C258 C255 1.499 . S
C258 C259 1.373 . S
C258 C260 1.389 . S
C259 H238 0.950 . S
C259 C258 1.373 . S
C259 C275 1.377 . S
C260 C258 1.389 . S
C260 C261 1.524 . S
C260 C274 1.377 . S
C261 C260 1.524 . S
C261 C262 1.397 . S
C261 C266 1.363 . S
C262 H239 0.950 . S
C262 C261 1.397 . S
C262 C263 1.334 . S
C263 H240 0.950 1_455 S
C263 C262 1.334 . S
C263 C264 1.287 . S
C264 C263 1.287 . S
C264 C265 1.524 . S
C264 H283 0.913 . S
C265 H241 0.950 . S
C265 C264 1.524 . S
C265 C266 1.415 . S
C266 H242 0.950 . S
C266 C261 1.363 . S
C266 C265 1.415 . S
C267 H243 0.951 . S
C267 C268 1.357 1_554 S
C267 C269 1.388 . S
C268 C267 1.357 1_556 S
C268 C272 1.384 1_556 S
C269 H244 0.951 . S
C269 C267 1.388 . S
C269 C270 1.366 . S
C270 C269 1.366 . S
C270 C271 1.414 . S
C270 C273 1.499 . S
C271 H245 0.950 . S
C271 C270 1.414 . S
C271 C272 1.408 . S
C272 H246 0.918 1_554 S
C272 C268 1.384 1_554 S
C272 C271 1.408 . S
C273 C270 1.499 . S
C273 C274 1.373 . S
C273 C275 1.389 . S
C274 H247 0.950 . S
C274 C260 1.377 . S
C274 C273 1.373 . S
C275 C259 1.377 . S
C275 C273 1.389 . S
C275 C276 1.524 . S
C276 C275 1.524 . S
C276 C277 1.397 . S
C276 C281 1.363 . S
C277 H248 0.950 . S
C277 C276 1.397 . S
C277 C278 1.334 . S
C278 H249 0.950 . S
C278 C277 1.334 . S
C278 C279 1.287 . S
C279 C278 1.287 . S
C279 C280 1.524 . S
C279 H282 0.999 . S
C280 H250 0.950 . S
C280 C279 1.524 . S
C280 C281 1.415 . S
C281 H251 0.950 . S
C281 C276 1.363 . S
C281 C280 1.415 . S
H282 C279 0.999 . S
H283 C264 0.913 . S
H284 C302 0.951 1_556 S
H285 C304 0.951 . S
H286 C306 0.950 . S
H287 C307 0.950 . S
H288 C309 0.950 . S
H289 C312 0.950 . S
H290 C313 0.950 . S
H291 C315 0.950 1_556 S
H292 C316 0.950 . S
H293 C317 0.951 . S
H294 C319 0.951 . S
H295 C321 0.950 . S
H296 C322 0.950 . S
H297 C324 0.950 . S
H298 C327 0.950 . S
H299 C328 0.950 . S
H300 C330 0.950 . S
H301 C331 0.950 . S
C302 H284 0.951 1_554 S
C302 C303 1.370 . S
C302 C304 1.388 . S
C303 C302 1.370 . S
C303 C307 1.419 . S
C304 H285 0.951 . S
C304 C302 1.388 . S
C304 C305 1.366 . S
C305 C304 1.366 . S
C305 C306 1.414 . S
C305 C308 1.499 . S
C306 H286 0.950 . S
C306 C305 1.414 . S
C306 C307 1.374 . S
C307 H287 0.950 . S
C307 C303 1.419 . S
C307 C306 1.374 . S
C308 C305 1.499 . S
C308 C309 1.373 . S
C308 C310 1.389 . S
C309 H288 0.950 . S
C309 C308 1.373 . S
C309 C325 1.377 . S
C310 C308 1.389 . S
C310 C311 1.524 . S
C310 C324 1.377 . S
C311 C310 1.524 . S
C311 C312 1.397 . S
C311 C316 1.363 . S
C312 H289 0.950 . S
C312 C311 1.397 . S
C312 C313 1.334 1_554 S
C313 H290 0.950 . S
C313 C312 1.334 1_556 S
C313 C314 1.287 . S
C314 C313 1.287 . S
C314 C315 1.524 1_556 S
C314 H333 0.913 . S
C315 H291 0.950 1_554 S
C315 C314 1.524 1_554 S
C315 C316 1.415 . S
C316 H292 0.950 . S
C316 C311 1.363 . S
C316 C315 1.415 . S
C317 H293 0.951 . S
C317 C318 1.366 . S
C317 C319 1.388 . S
C318 C317 1.366 . S
C318 C322 1.385 . S
C319 H294 0.951 . S
C319 C317 1.388 . S
C319 C320 1.366 . S
C320 C319 1.366 . S
C320 C321 1.414 . S
C320 C323 1.499 . S
C321 H295 0.950 . S
C321 C320 1.414 . S
C321 C322 1.374 . S
C322 H296 0.950 . S
C322 C318 1.385 . S
C322 C321 1.374 . S
C323 C320 1.499 . S
C323 C324 1.373 . S
C323 C325 1.389 . S
C324 H297 0.950 . S
C324 C310 1.377 . S
C324 C323 1.373 . S
C325 C309 1.377 . S
C325 C323 1.389 . S
C325 C326 1.524 . S
C326 C325 1.524 . S
C326 C327 1.397 . S
C326 C331 1.363 . S
C327 H298 0.950 . S
C327 C326 1.397 . S
C327 C328 1.334 . S
C328 H299 0.950 . S
C328 C327 1.334 . S
C328 C329 1.287 . S
C329 C328 1.287 . S
C329 C330 1.524 . S
C329 H332 0.999 . S
C330 H300 0.950 . S
C330 C329 1.524 . S
C330 C331 1.415 . S
C331 H301 0.950 . S
C331 C326 1.363 . S
C331 C330 1.415 . S
H332 C329 0.999 . S
H333 C314 0.913 . S
H334 C352 0.951 1_545 S
H335 C354 0.951 . S
H336 C356 0.950 . S
H337 C357 0.950 . S
H338 C359 0.950 . S
H339 C362 0.950 . S
H340 C363 0.950 . S
H341 C365 0.950 . S
H342 C366 0.950 . S
H343 C367 0.951 1_556 S
H344 C369 0.951 . S
H345 C371 0.950 . S
H346 C372 0.950 . S
H347 C374 0.950 . S
H348 C377 0.950 . S
H349 C378 0.950 . S
H350 C380 0.950 . S
H351 C381 0.950 . S
C352 H334 0.951 1_565 S
C352 C353 1.366 . S
C352 C354 1.388 . S
C353 C352 1.366 . S
C353 C357 1.385 . S
C354 H335 0.951 . S
C354 C352 1.388 . S
C354 C355 1.366 . S
C355 C354 1.366 . S
C355 C356 1.414 . S
C355 C358 1.499 . S
C356 H336 0.950 . S
C356 C355 1.414 . S
C356 C357 1.374 . S
C357 H337 0.950 . S
C357 C353 1.385 . S
C357 C356 1.374 . S
C358 C355 1.499 . S
C358 C359 1.373 . S
C358 C360 1.389 . S
C359 H338 0.950 . S
C359 C358 1.373 . S
C359 C375 1.377 . S
C360 C358 1.389 . S
C360 C361 1.524 . S
C360 C374 1.377 . S
C361 C360 1.524 . S
C361 C362 1.397 . S
C361 C366 1.363 . S
C362 H339 0.950 . S
C362 C361 1.397 . S
C362 C363 1.334 . S
C363 H340 0.950 . S
C363 C362 1.334 . S
C363 C364 1.287 . S
C364 C363 1.287 . S
C364 C365 1.524 . S
C364 H383 0.913 . S
C365 H341 0.950 . S
C365 C364 1.524 . S
C365 C366 1.415 . S
C366 H342 0.950 . S
C366 C361 1.363 . S
C366 C365 1.415 . S
C367 H343 0.951 1_554 S
C367 C368 1.366 1_554 S
C367 C369 1.388 . S
C368 C367 1.366 1_556 S
C368 C372 1.385 1_556 S
C369 H344 0.951 . S
C369 C367 1.388 . S
C369 C370 1.366 . S
C370 C369 1.366 . S
C370 C371 1.414 . S
C370 C373 1.499 . S
C371 H345 0.950 . S
C371 C370 1.414 . S
C371 C372 1.374 . S
C372 H346 0.950 . S
C372 C368 1.385 1_554 S
C372 C371 1.374 . S
C373 C370 1.499 . S
C373 C374 1.373 . S
C373 C375 1.389 . S
C374 H347 0.950 . S
C374 C360 1.377 . S
C374 C373 1.373 . S
C375 C359 1.377 . S
C375 C373 1.389 . S
C375 C376 1.524 . S
C376 C375 1.524 . S
C376 C377 1.397 . S
C376 C381 1.363 . S
C377 H348 0.950 . S
C377 C376 1.397 . S
C377 C378 1.334 1_554 S
C378 H349 0.950 . S
C378 C377 1.334 1_556 S
C378 C379 1.287 . S
C379 C378 1.287 . S
C379 C380 1.524 1_556 S
C379 H382 0.999 . S
C380 H350 0.950 . S
C380 C379 1.524 1_554 S
C380 C381 1.415 . S
C381 H351 0.950 . S
C381 C376 1.363 . S
C381 C380 1.415 . S
H382 C379 0.999 . S
H383 C364 0.913 . S
H384 C402 0.951 . S
H385 C404 0.951 . S
H386 C406 0.950 . S
H387 C407 0.950 . S
H388 C409 0.950 . S
H389 C412 0.950 . S
H390 C413 0.950 . S
H391 C415 0.950 1_565 S
H392 C416 0.950 . S
H393 C417 0.951 . S
H394 C419 0.951 . S
H395 C421 0.950 . S
H396 C422 0.950 . S
H397 C424 0.950 . S
H398 C427 0.950 . S
H399 C428 0.950 . S
H400 C430 0.950 . S
H401 C431 0.950 . S
C402 H384 0.951 . S
C402 C403 1.366 . S
C402 C404 1.388 . S
C403 C402 1.366 . S
C403 C407 1.385 . S
C404 H385 0.951 . S
C404 C402 1.388 . S
C404 C405 1.366 . S
C405 C404 1.366 . S
C405 C406 1.414 . S
C405 C408 1.499 . S
C406 H386 0.950 . S
C406 C405 1.414 . S
C406 C407 1.374 . S
C407 H387 0.950 . S
C407 C403 1.385 . S
C407 C406 1.374 . S
C408 C405 1.499 . S
C408 C409 1.373 . S
C408 C410 1.389 . S
C409 H388 0.950 . S
C409 C408 1.373 . S
C409 C425 1.377 . S
C410 C408 1.389 . S
C410 C411 1.524 . S
C410 C424 1.377 . S
C411 C410 1.524 . S
C411 C412 1.397 . S
C411 C416 1.363 . S
C412 H389 0.950 . S
C412 C411 1.397 . S
C412 C413 1.334 . S
C413 H390 0.950 . S
C413 C412 1.334 . S
C413 C414 1.287 . S
C414 C413 1.287 . S
C414 C415 1.524 . S
C414 H433 0.913 1_545 S
C415 H391 0.950 1_545 S
C415 C414 1.524 . S
C415 C416 1.415 . S
C416 H392 0.950 . S
C416 C411 1.363 . S
C416 C415 1.415 . S
C417 H393 0.951 . S
C417 C418 1.366 . S
C417 C419 1.388 . S
C418 C417 1.366 . S
C418 C422 1.385 . S
C419 H394 0.951 . S
C419 C417 1.388 . S
C419 C420 1.366 . S
C420 C419 1.366 . S
C420 C421 1.414 . S
C420 C423 1.499 . S
C421 H395 0.950 . S
C421 C420 1.414 . S
C421 C422 1.374 . S
C422 H396 0.950 . S
C422 C418 1.385 . S
C422 C421 1.374 . S
C423 C420 1.499 . S
C423 C424 1.373 . S
C423 C425 1.389 . S
C424 H397 0.950 . S
C424 C410 1.377 . S
C424 C423 1.373 . S
C425 C409 1.377 . S
C425 C423 1.389 . S
C425 C426 1.524 . S
C426 C425 1.524 . S
C426 C427 1.397 . S
C426 C431 1.363 . S
C427 H398 0.950 . S
C427 C426 1.397 . S
C427 C428 1.334 . S
C428 H399 0.950 . S
C428 C427 1.334 . S
C428 C429 1.287 . S
C429 C428 1.287 . S
C429 C430 1.524 . S
C429 H432 0.999 . S
C430 H400 0.950 . S
C430 C429 1.524 . S
C430 C431 1.415 . S
C431 H401 0.950 . S
C431 C426 1.363 . S
C431 C430 1.415 . S
H432 C429 0.999 . S
H433 C414 0.913 1_565 S
H434 C452 0.951 . S
H435 C454 0.951 . S
H436 C456 0.950 . S
H437 C457 0.950 . S
H438 C459 0.950 . S
H439 C462 0.950 . S
H440 C463 0.950 . S
H441 C465 0.950 . S
H442 C466 0.950 . S
H443 C467 0.936 1_455 S
H444 C469 0.953 1_455 S
H445 C471 0.950 . S
H446 C472 0.950 . S
H447 C474 0.950 . S
H448 C477 0.950 . S
H449 C478 0.950 . S
H450 C480 0.950 . S
H451 C481 0.950 . S
C452 H434 0.951 . S
C452 C453 1.366 . S
C452 C454 1.388 . S
C453 C452 1.366 . S
C453 C457 1.385 . S
C454 H435 0.951 . S
C454 C452 1.388 . S
C454 C455 1.366 . S
C455 C454 1.366 . S
C455 C456 1.414 . S
C455 C458 1.499 . S
C456 H436 0.950 . S
C456 C455 1.414 . S
C456 C457 1.374 . S
C457 H437 0.950 . S
C457 C453 1.385 . S
C457 C456 1.374 . S
C458 C455 1.499 . S
C458 C459 1.373 . S
C458 C460 1.389 . S
C459 H438 0.950 . S
C459 C458 1.373 . S
C459 C475 1.377 . S
C460 C458 1.389 . S
C460 C461 1.524 . S
C460 C474 1.377 . S
C461 C460 1.524 . S
C461 C462 1.397 . S
C461 C466 1.363 . S
C462 H439 0.950 . S
C462 C461 1.397 . S
C462 C463 1.334 . S
C463 H440 0.950 . S
C463 C462 1.334 . S
C463 C464 1.287 . S
C464 C463 1.287 . S
C464 C465 1.524 . S
C464 H483 0.913 . S
C465 H441 0.950 . S
C465 C464 1.524 . S
C465 C466 1.415 . S
C466 H442 0.950 . S
C466 C461 1.363 . S
C466 C465 1.415 . S
C467 H443 0.936 1_655 S
C467 C468 1.382 . S
C467 C469 1.388 . S
C468 C467 1.382 . S
C468 C472 1.385 . S
C469 H444 0.953 1_655 S
C469 C467 1.388 . S
C469 C470 1.366 . S
C470 C469 1.366 . S
C470 C471 1.414 . S
C470 C473 1.499 . S
C471 H445 0.950 . S
C471 C470 1.414 . S
C471 C472 1.374 . S
C472 H446 0.950 . S
C472 C468 1.385 . S
C472 C471 1.374 . S
C473 C470 1.499 . S
C473 C474 1.373 . S
C473 C475 1.389 . S
C474 H447 0.950 . S
C474 C460 1.377 . S
C474 C473 1.373 . S
C475 C459 1.377 . S
C475 C473 1.389 . S
C475 C476 1.524 . S
C476 C475 1.524 . S
C476 C477 1.397 . S
C476 C481 1.363 . S
C477 H448 0.950 . S
C477 C476 1.397 . S
C477 C478 1.334 . S
C478 H449 0.950 . S
C478 C477 1.334 . S
C478 C479 1.287 . S
C479 C478 1.287 . S
C479 C480 1.524 . S
C479 H482 0.999 . S
C480 H450 0.950 . S
C480 C479 1.524 . S
C480 C481 1.415 . S
C481 H451 0.950 . S
C481 C476 1.363 . S
C481 C480 1.415 . S
H482 C479 0.999 . S
H483 C464 0.913 . S
H484 C502 0.951 . S
H485 C504 0.951 . S
H486 C506 0.950 . S
H487 C507 0.950 . S
H488 C509 0.950 . S
H489 C512 0.950 . S
H490 C513 0.950 . S
H491 C515 0.950 . S
H492 C516 0.950 . S
H493 C517 0.951 . S
H494 C519 0.951 . S
H495 C521 0.950 . S
H496 C522 0.950 . S
H497 C524 0.950 . S
H498 C527 0.950 . S
H499 C528 0.950 . S
H500 C530 0.950 . S
H501 C531 0.950 . S
C502 H484 0.951 . S
C502 C503 1.366 . S
C502 C504 1.388 . S
C503 C502 1.366 . S
C503 C507 1.385 . S
C504 H485 0.951 . S
C504 C502 1.388 . S
C504 C505 1.366 . S
C505 C504 1.366 . S
C505 C506 1.414 . S
C505 C508 1.499 . S
C506 H486 0.950 . S
C506 C505 1.414 . S
C506 C507 1.374 . S
C507 H487 0.950 . S
C507 C503 1.385 . S
C507 C506 1.374 . S
C508 C505 1.499 . S
C508 C509 1.373 . S
C508 C510 1.389 . S
C509 H488 0.950 . S
C509 C508 1.373 . S
C509 C525 1.377 . S
C510 C508 1.389 . S
C510 C511 1.524 . S
C510 C524 1.377 . S
C511 C510 1.524 . S
C511 C512 1.397 . S
C511 C516 1.363 . S
C512 H489 0.950 . S
C512 C511 1.397 . S
C512 C513 1.334 . S
C513 H490 0.950 . S
C513 C512 1.334 . S
C513 C514 1.287 . S
C514 C513 1.287 . S
C514 C515 1.524 . S
C514 H533 0.913 . S
C515 H491 0.950 . S
C515 C514 1.524 . S
C515 C516 1.415 . S
C516 H492 0.950 . S
C516 C511 1.363 . S
C516 C515 1.415 . S
C517 H493 0.951 . S
C517 C518 1.366 . S
C517 C519 1.388 . S
C518 C517 1.366 . S
C518 C522 1.385 . S
C519 H494 0.951 . S
C519 C517 1.388 . S
C519 C520 1.366 . S
C520 C519 1.366 . S
C520 C521 1.414 . S
C520 C523 1.499 . S
C521 H495 0.950 . S
C521 C520 1.414 . S
C521 C522 1.374 . S
C522 H496 0.950 . S
C522 C518 1.385 . S
C522 C521 1.374 . S
C523 C520 1.499 . S
C523 C524 1.373 . S
C523 C525 1.389 . S
C524 H497 0.950 . S
C524 C510 1.377 . S
C524 C523 1.373 . S
C525 C509 1.377 . S
C525 C523 1.389 . S
C525 C526 1.524 . S
C526 C525 1.524 . S
C526 C527 1.397 . S
C526 C531 1.363 . S
C527 H498 0.950 . S
C527 C526 1.397 . S
C527 C528 1.334 . S
C528 H499 0.950 . S
C528 C527 1.334 . S
C528 C529 1.287 . S
C529 C528 1.287 . S
C529 C530 1.524 . S
C529 H532 0.999 . S
C530 H500 0.950 . S
C530 C529 1.524 . S
C530 C531 1.415 . S
C531 H501 0.950 . S
C531 C526 1.363 . S
C531 C530 1.415 . S
H532 C529 0.999 . S
H533 C514 0.913 . S
H534 C552 0.951 1_455 S
H535 C554 0.951 . S
H536 C556 0.950 . S
H537 C557 0.950 . S
H538 C559 0.950 . S
H539 C562 0.950 . S
H540 C563 0.950 . S
H541 C565 0.950 . S
H542 C566 0.950 . S
H543 C567 0.951 . S
H544 C569 0.951 . S
H545 C571 0.950 . S
H546 C572 0.950 . S
H547 C574 0.950 . S
H548 C577 0.950 . S
H549 C578 0.950 . S
H550 C580 0.950 . S
H551 C581 0.950 . S
C552 H534 0.951 1_655 S
C552 C553 1.366 . S
C552 C554 1.388 . S
C553 C552 1.366 . S
C553 C557 1.385 . S
C554 H535 0.951 . S
C554 C552 1.388 . S
C554 C555 1.366 . S
C555 C554 1.366 . S
C555 C556 1.414 . S
C555 C558 1.499 . S
C556 H536 0.950 . S
C556 C555 1.414 . S
C556 C557 1.374 . S
C557 H537 0.950 . S
C557 C553 1.385 . S
C557 C556 1.374 . S
C558 C555 1.499 . S
C558 C559 1.373 . S
C558 C560 1.389 . S
C559 H538 0.950 . S
C559 C558 1.373 . S
C559 C575 1.377 . S
C560 C558 1.389 . S
C560 C561 1.524 . S
C560 C574 1.377 . S
C561 C560 1.524 . S
C561 C562 1.397 . S
C561 C566 1.363 . S
C562 H539 0.950 . S
C562 C561 1.397 . S
C562 C563 1.334 . S
C563 H540 0.950 . S
C563 C562 1.334 . S
C563 C564 1.287 . S
C564 C563 1.287 . S
C564 C565 1.524 . S
C564 H583 0.913 . S
C565 H541 0.950 . S
C565 C564 1.524 . S
C565 C566 1.415 . S
C566 H542 0.950 . S
C566 C561 1.363 . S
C566 C565 1.415 . S
C567 H543 0.951 . S
C567 C568 1.326 1_556 S
C567 C569 1.388 . S
C568 C567 1.326 1_554 S
C568 C572 1.389 . S
C569 H544 0.951 . S
C569 C567 1.388 . S
C569 C570 1.366 . S
C570 C569 1.366 . S
C570 C571 1.414 . S
C570 C573 1.499 . S
C571 H545 0.950 . S
C571 C570 1.414 . S
C571 C572 1.374 1_556 S
C572 H546 0.950 . S
C572 C568 1.389 . S
C572 C571 1.374 1_554 S
C573 C570 1.499 . S
C573 C574 1.373 . S
C573 C575 1.389 . S
C574 H547 0.950 . S
C574 C560 1.377 . S
C574 C573 1.373 . S
C575 C559 1.377 . S
C575 C573 1.389 . S
C575 C576 1.524 . S
C576 C575 1.524 . S
C576 C577 1.397 . S
C576 C581 1.363 . S
C577 H548 0.950 . S
C577 C576 1.397 . S
C577 C578 1.334 . S
C578 H549 0.950 . S
C578 C577 1.334 . S
C578 C579 1.287 . S
C579 C578 1.287 . S
C579 C580 1.524 . S
C579 H582 0.999 . S
C580 H550 0.950 . S
C580 C579 1.524 . S
C580 C581 1.415 . S
C581 H551 0.950 . S
C581 C576 1.363 . S
C581 C580 1.415 . S
H582 C579 0.999 . S
H583 C564 0.913 . S
H584 C602 0.951 1_554 S
H585 C604 0.951 . S
H586 C606 0.950 . S
H587 C607 0.950 . S
H588 C609 0.950 . S
H589 C612 0.950 . S
H590 C613 0.950 . S
H591 C615 0.950 . S
H592 C616 0.950 . S
H593 C617 0.951 . S
H594 C619 0.951 . S
H595 C621 0.950 . S
H596 C622 0.950 . S
H597 C624 0.950 . S
H598 C627 0.950 . S
H599 C628 0.950 . S
H600 C630 0.950 . S
H601 C631 0.950 . S
C602 H584 0.951 1_556 S
C602 C603 1.366 1_556 S
C602 C604 1.388 . S
C603 C602 1.366 1_554 S
C603 C607 1.385 1_554 S
C604 H585 0.951 . S
C604 C602 1.388 . S
C604 C605 1.366 . S
C605 C604 1.366 . S
C605 C606 1.414 . S
C605 C608 1.499 . S
C606 H586 0.950 . S
C606 C605 1.414 . S
C606 C607 1.374 . S
C607 H587 0.950 . S
C607 C603 1.385 1_556 S
C607 C606 1.374 . S
C608 C605 1.499 . S
C608 C609 1.373 . S
C608 C610 1.389 . S
C609 H588 0.950 . S
C609 C608 1.373 . S
C609 C625 1.377 . S
C610 C608 1.389 . S
C610 C611 1.524 . S
C610 C624 1.377 . S
C611 C610 1.524 . S
C611 C612 1.397 . S
C611 C616 1.363 . S
C612 H589 0.950 . S
C612 C611 1.397 . S
C612 C613 1.334 1_556 S
C613 H590 0.950 . S
C613 C612 1.334 1_554 S
C613 C614 1.287 . S
C614 C613 1.287 . S
C614 C615 1.524 1_554 S
C614 H633 0.913 . S
C615 H591 0.950 . S
C615 C614 1.524 1_556 S
C615 C616 1.415 . S
C616 H592 0.950 . S
C616 C611 1.363 . S
C616 C615 1.415 . S
C617 H593 0.951 . S
C617 C618 1.366 . S
C617 C619 1.388 . S
C618 C617 1.366 . S
C618 C622 1.385 . S
C619 H594 0.951 . S
C619 C617 1.388 . S
C619 C620 1.366 . S
C620 C619 1.366 . S
C620 C621 1.414 . S
C620 C623 1.499 . S
C621 H595 0.950 . S
C621 C620 1.414 . S
C621 C622 1.374 . S
C622 H596 0.950 . S
C622 C618 1.385 . S
C622 C621 1.374 . S
C623 C620 1.499 . S
C623 C624 1.373 . S
C623 C625 1.389 . S
C624 H597 0.950 . S
C624 C610 1.377 . S
C624 C623 1.373 . S
C625 C609 1.377 . S
C625 C623 1.389 . S
C625 C626 1.524 . S
C626 C625 1.524 . S
C626 C627 1.397 . S
C626 C631 1.363 . S
C627 H598 0.950 . S
C627 C626 1.397 . S
C627 C628 1.334 . S
C628 H599 0.950 . S
C628 C627 1.334 . S
C628 C629 1.287 . S
C629 C628 1.287 . S
C629 C630 1.524 . S
C629 H632 0.999 . S
C630 H600 0.950 . S
C630 C629 1.524 . S
C630 C631 1.415 . S
C631 H601 0.950 . S
C631 C626 1.363 . S
C631 C630 1.415 . S
H632 C629 0.999 . S
H633 C614 0.913 . S
H634 C652 0.951 . S
H635 C654 0.951 . S
H636 C656 0.950 . S
H637 C657 0.950 . S
H638 C659 0.950 . S
H639 C662 0.950 . S
H640 C663 0.950 . S
H641 C665 0.950 . S
H642 C666 0.950 . S
H643 C667 0.951 . S
H644 C669 0.951 . S
H645 C671 0.950 . S
H646 C672 0.950 . S
H647 C674 0.950 . S
H648 C677 0.950 . S
H649 C678 0.950 1_565 S
H650 C680 0.950 . S
H651 C681 0.950 . S
C652 H634 0.951 . S
C652 C653 1.366 1_556 S
C652 C654 1.388 . S
C653 C652 1.366 1_554 S
C653 C657 1.385 . S
C654 H635 0.951 . S
C654 C652 1.388 . S
C654 C655 1.366 . S
C655 C654 1.366 . S
C655 C656 1.414 . S
C655 C658 1.499 . S
C656 H636 0.950 . S
C656 C655 1.414 . S
C656 C657 1.374 1_556 S
C657 H637 0.950 . S
C657 C653 1.385 . S
C657 C656 1.374 1_554 S
C658 C655 1.499 . S
C658 C659 1.373 . S
C658 C660 1.389 . S
C659 H638 0.950 . S
C659 C658 1.373 . S
C659 C675 1.377 . S
C660 C658 1.389 . S
C660 C661 1.524 . S
C660 C674 1.377 . S
C661 C660 1.524 . S
C661 C662 1.397 . S
C661 C666 1.363 . S
C662 H639 0.950 . S
C662 C661 1.397 . S
C662 C663 1.334 . S
C663 H640 0.950 . S
C663 C662 1.334 . S
C663 C664 1.287 . S
C664 C663 1.287 . S
C664 C665 1.524 . S
C664 H683 0.913 . S
C665 H641 0.950 . S
C665 C664 1.524 . S
C665 C666 1.415 . S
C666 H642 0.950 . S
C666 C661 1.363 . S
C666 C665 1.415 . S
C667 H643 0.951 . S
C667 C668 1.366 . S
C667 C669 1.388 . S
C668 C667 1.366 . S
C668 C672 1.385 . S
C669 H644 0.951 . S
C669 C667 1.388 . S
C669 C670 1.366 . S
C670 C669 1.366 . S
C670 C671 1.414 . S
C670 C673 1.499 . S
C671 H645 0.950 . S
C671 C670 1.414 . S
C671 C672 1.374 . S
C672 H646 0.950 . S
C672 C668 1.385 . S
C672 C671 1.374 . S
C673 C670 1.499 . S
C673 C674 1.373 . S
C673 C675 1.389 . S
C674 H647 0.950 . S
C674 C660 1.377 . S
C674 C673 1.373 . S
C675 C659 1.377 . S
C675 C673 1.389 . S
C675 C676 1.524 . S
C676 C675 1.524 . S
C676 C677 1.397 . S
C676 C681 1.363 . S
C677 H648 0.950 . S
C677 C676 1.397 . S
C677 C678 1.334 . S
C678 H649 0.950 1_545 S
C678 C677 1.334 . S
C678 C679 1.287 . S
C679 C678 1.287 . S
C679 C680 1.524 . S
C679 H682 0.999 1_545 S
C680 H650 0.950 . S
C680 C679 1.524 . S
C680 C681 1.415 . S
C681 H651 0.950 . S
C681 C676 1.363 . S
C681 C680 1.415 . S
H682 C679 0.999 1_565 S
H683 C664 0.913 . S
H684 C702 0.951 1_545 S
H685 C704 0.948 1_545 S
H686 C706 0.950 . S
H687 C707 0.950 . S
H688 C709 0.950 . S
H689 C712 0.950 . S
H690 C713 0.950 . S
H691 C715 0.950 . S
H692 C716 0.950 . S
H693 C717 0.951 . S
H694 C719 0.951 . S
H695 C721 0.950 . S
H696 C722 0.950 . S
H697 C724 0.950 . S
H698 C727 0.950 . S
H699 C728 0.950 . S
H700 C730 0.950 . S
H701 C731 0.950 . S
C702 H684 0.951 1_565 S
C702 C703 1.366 . S
C702 C704 1.388 . S
C703 C702 1.366 . S
C703 C707 1.385 . S
C704 H685 0.948 1_565 S
C704 C702 1.388 . S
C704 C705 1.366 . S
C705 C704 1.366 . S
C705 C706 1.414 . S
C705 C708 1.499 . S
C706 H686 0.950 . S
C706 C705 1.414 . S
C706 C707 1.374 . S
C707 H687 0.950 . S
C707 C703 1.385 . S
C707 C706 1.374 . S
C708 C705 1.499 . S
C708 C709 1.373 . S
C708 C710 1.389 . S
C709 H688 0.950 . S
C709 C708 1.373 . S
C709 C725 1.377 . S
C710 C708 1.389 . S
C710 C711 1.524 . S
C710 C724 1.377 . S
C711 C710 1.524 . S
C711 C712 1.397 . S
C711 C716 1.363 1_565 S
C712 H689 0.950 . S
C712 C711 1.397 . S
C712 C713 1.334 . S
C713 H690 0.950 . S
C713 C712 1.334 . S
C713 C714 1.287 1_565 S
C714 C713 1.287 1_545 S
C714 C715 1.524 . S
C714 H733 0.913 . S
C715 H691 0.950 . S
C715 C714 1.524 . S
C715 C716 1.415 . S
C716 H692 0.950 . S
C716 C711 1.363 1_545 S
C716 C715 1.415 . S
C717 H693 0.951 . S
C717 C718 1.366 . S
C717 C719 1.388 . S
C718 C717 1.366 . S
C718 C722 1.385 . S
C719 H694 0.951 . S
C719 C717 1.388 . S
C719 C720 1.366 . S
C720 C719 1.366 . S
C720 C721 1.414 . S
C720 C723 1.499 . S
C721 H695 0.950 . S
C721 C720 1.414 . S
C721 C722 1.374 . S
C722 H696 0.950 . S
C722 C718 1.385 . S
C722 C721 1.374 . S
C723 C720 1.499 . S
C723 C724 1.373 . S
C723 C725 1.389 . S
C724 H697 0.950 . S
C724 C710 1.377 . S
C724 C723 1.373 . S
C725 C709 1.377 . S
C725 C723 1.389 . S
C725 C726 1.524 . S
C726 C725 1.524 . S
C726 C727 1.397 . S
C726 C731 1.363 . S
C727 H698 0.950 . S
C727 C726 1.397 . S
C727 C728 1.334 . S
C728 H699 0.950 . S
C728 C727 1.334 . S
C728 C729 1.287 . S
C729 C728 1.287 . S
C729 C730 1.524 . S
C729 H732 0.999 . S
C730 H700 0.950 . S
C730 C729 1.524 . S
C730 C731 1.415 . S
C731 H701 0.950 . S
C731 C726 1.363 . S
C731 C730 1.415 . S
H732 C729 0.999 . S
H733 C714 0.913 . S
H734 C752 0.951 . S
H735 C754 0.951 . S
H736 C756 0.950 . S
H737 C757 0.950 . S
H738 C759 0.950 . S
H739 C762 0.950 . S
H740 C763 0.950 . S
H741 C765 0.950 1_655 S
H742 C766 0.950 . S
H743 C767 0.951 . S
H744 C769 0.951 . S
H745 C771 0.950 . S
H746 C772 0.950 . S
H747 C774 0.950 . S
H748 C777 0.950 . S
H749 C778 0.950 . S
H750 C780 0.950 . S
H751 C781 0.950 . S
C752 H734 0.951 . S
C752 C753 1.366 . S
C752 C754 1.388 . S
C753 C752 1.366 . S
C753 C757 1.385 . S
C754 H735 0.951 . S
C754 C752 1.388 . S
C754 C755 1.366 . S
C755 C754 1.366 . S
C755 C756 1.414 . S
C755 C758 1.499 . S
C756 H736 0.950 . S
C756 C755 1.414 . S
C756 C757 1.374 . S
C757 H737 0.950 . S
C757 C753 1.385 . S
C757 C756 1.374 . S
C758 C755 1.499 . S
C758 C759 1.373 . S
C758 C760 1.389 . S
C759 H738 0.950 . S
C759 C758 1.373 . S
C759 C775 1.377 . S
C760 C758 1.389 . S
C760 C761 1.524 . S
C760 C774 1.377 . S
C761 C760 1.524 . S
C761 C762 1.397 . S
C761 C766 1.363 . S
C762 H739 0.950 . S
C762 C761 1.397 . S
C762 C763 1.334 . S
C763 H740 0.950 . S
C763 C762 1.334 . S
C763 C764 1.287 . S
C764 C763 1.287 . S
C764 C765 1.524 . S
C764 H783 0.913 . S
C765 H741 0.950 1_455 S
C765 C764 1.524 . S
C765 C766 1.415 . S
C766 H742 0.950 . S
C766 C761 1.363 . S
C766 C765 1.415 . S
C767 H743 0.951 . S
C767 C768 1.366 . S
C767 C769 1.388 . S
C768 C767 1.366 . S
C768 C772 1.385 . S
C769 H744 0.951 . S
C769 C767 1.388 . S
C769 C770 1.366 . S
C770 C769 1.366 . S
C770 C771 1.414 . S
C770 C773 1.499 . S
C771 H745 0.950 . S
C771 C770 1.414 . S
C771 C772 1.374 . S
C772 H746 0.950 . S
C772 C768 1.385 . S
C772 C771 1.374 . S
C773 C770 1.499 . S
C773 C774 1.373 . S
C773 C775 1.389 . S
C774 H747 0.950 . S
C774 C760 1.377 . S
C774 C773 1.373 . S
C775 C759 1.377 . S
C775 C773 1.389 . S
C775 C776 1.524 . S
C776 C775 1.524 . S
C776 C777 1.397 . S
C776 C781 1.363 . S
C777 H748 0.950 . S
C777 C776 1.397 . S
C777 C778 1.334 . S
C778 H749 0.950 . S
C778 C777 1.334 . S
C778 C779 1.287 . S
C779 C778 1.287 . S
C779 C780 1.524 . S
C779 H782 0.999 . S
C780 H750 0.950 . S
C780 C779 1.524 . S
C780 C781 1.415 . S
C781 H751 0.950 . S
C781 C776 1.363 . S
C781 C780 1.415 . S
H782 C779 0.999 . S
H783 C764 0.913 . S
H784 C802 0.951 . S
H785 C804 0.951 . S
H786 C806 0.950 . S
H787 C807 0.950 . S
H788 C809 0.950 . S
H789 C812 0.950 . S
H790 C813 0.950 . S
H791 C815 0.950 . S
H792 C816 0.950 . S
H793 C817 0.951 . S
H794 C819 0.951 . S
H795 C821 0.950 . S
H796 C822 0.950 . S
H797 C824 0.950 . S
H798 C827 0.950 . S
H799 C828 0.950 . S
H800 C830 0.950 . S
H801 C831 0.950 . S
C802 H784 0.951 . S
C802 C803 1.366 . S
C802 C804 1.388 . S
C803 C802 1.366 . S
C803 C807 1.385 . S
C804 H785 0.951 . S
C804 C802 1.388 . S
C804 C805 1.366 . S
C805 C804 1.366 . S
C805 C806 1.414 . S
C805 C808 1.499 . S
C806 H786 0.950 . S
C806 C805 1.414 . S
C806 C807 1.374 . S
C807 H787 0.950 . S
C807 C803 1.385 . S
C807 C806 1.374 . S
C808 C805 1.499 . S
C808 C809 1.373 . S
C808 C810 1.389 . S
C809 H788 0.950 . S
C809 C808 1.373 . S
C809 C825 1.377 . S
C810 C808 1.389 . S
C810 C811 1.524 . S
C810 C824 1.377 . S
C811 C810 1.524 . S
C811 C812 1.397 . S
C811 C816 1.363 . S
C812 H789 0.950 . S
C812 C811 1.397 . S
C812 C813 1.334 . S
C813 H790 0.950 . S
C813 C812 1.334 . S
C813 C814 1.287 . S
C814 C813 1.287 . S
C814 C815 1.524 . S
C814 H833 0.913 . S
C815 H791 0.950 . S
C815 C814 1.524 . S
C815 C816 1.415 . S
C816 H792 0.950 . S
C816 C811 1.363 . S
C816 C815 1.415 . S
C817 H793 0.951 . S
C817 C818 1.366 . S
C817 C819 1.388 . S
C818 C817 1.366 . S
C818 C822 1.385 . S
C819 H794 0.951 . S
C819 C817 1.388 . S
C819 C820 1.366 . S
C820 C819 1.366 . S
C820 C821 1.414 . S
C820 C823 1.499 . S
C821 H795 0.950 . S
C821 C820 1.414 . S
C821 C822 1.374 . S
C822 H796 0.950 . S
C822 C818 1.385 . S
C822 C821 1.374 . S
C823 C820 1.499 . S
C823 C824 1.373 . S
C823 C825 1.389 . S
C824 H797 0.950 . S
C824 C810 1.377 . S
C824 C823 1.373 . S
C825 C809 1.377 . S
C825 C823 1.389 . S
C825 C826 1.524 . S
C826 C825 1.524 . S
C826 C827 1.397 . S
C826 C831 1.363 . S
C827 H798 0.950 . S
C827 C826 1.397 . S
C827 C828 1.334 . S
C828 H799 0.950 . S
C828 C827 1.334 . S
C828 C829 1.287 . S
C829 C828 1.287 . S
C829 C830 1.524 . S
C829 H832 0.999 . S
C830 H800 0.950 . S
C830 C829 1.524 . S
C830 C831 1.415 . S
C831 H801 0.950 . S
C831 C826 1.363 . S
C831 C830 1.415 . S
H832 C829 0.999 . S
H833 C814 0.913 . S
H834 C852 0.951 . S
H835 C854 0.951 . S
H836 C856 0.950 . S
H837 C857 0.950 . S
H838 C859 0.950 . S
H839 C862 0.950 . S
H840 C863 0.950 . S
H841 C865 0.950 . S
H842 C866 0.950 . S
H843 C867 0.951 . S
H844 C869 0.951 . S
H845 C871 0.950 . S
H846 C872 0.950 . S
H847 C874 0.950 . S
H848 C877 0.950 . S
H849 C878 0.950 . S
H850 C880 0.950 . S
H851 C881 0.950 . S
C852 H834 0.951 . S
C852 C853 1.366 . S
C852 C854 1.388 . S
C853 C852 1.366 . S
C853 C857 1.385 . S
C854 H835 0.951 . S
C854 C852 1.388 . S
C854 C855 1.366 . S
C855 C854 1.366 . S
C855 C856 1.414 . S
C855 C858 1.499 . S
C856 H836 0.950 . S
C856 C855 1.414 . S
C856 C857 1.374 . S
C857 H837 0.950 . S
C857 C853 1.385 . S
C857 C856 1.374 . S
C858 C855 1.499 . S
C858 C859 1.373 . S
C858 C860 1.389 . S
C859 H838 0.950 . S
C859 C858 1.373 . S
C859 C875 1.377 . S
C860 C858 1.389 . S
C860 C861 1.524 . S
C860 C874 1.377 . S
C861 C860 1.524 . S
C861 C862 1.397 . S
C861 C866 1.363 . S
C862 H839 0.950 . S
C862 C861 1.397 . S
C862 C863 1.334 . S
C863 H840 0.950 . S
C863 C862 1.334 . S
C863 C864 1.287 . S
C864 C863 1.287 . S
C864 C865 1.524 . S
C864 H883 0.913 . S
C865 H841 0.950 . S
C865 C864 1.524 . S
C865 C866 1.415 . S
C866 H842 0.950 . S
C866 C861 1.363 . S
C866 C865 1.415 . S
C867 H843 0.951 . S
C867 C868 1.366 . S
C867 C869 1.388 . S
C868 C867 1.366 . S
C868 C872 1.385 . S
C869 H844 0.951 . S
C869 C867 1.388 . S
C869 C870 1.366 . S
C870 C869 1.366 . S
C870 C871 1.414 . S
C870 C873 1.499 . S
C871 H845 0.950 . S
C871 C870 1.414 . S
C871 C872 1.374 . S
C872 H846 0.950 . S
C872 C868 1.385 . S
C872 C871 1.374 . S
C873 C870 1.499 . S
C873 C874 1.373 . S
C873 C875 1.389 . S
C874 H847 0.950 . S
C874 C860 1.377 . S
C874 C873 1.373 . S
C875 C859 1.377 . S
C875 C873 1.389 . S
C875 C876 1.524 . S
C876 C875 1.524 . S
C876 C877 1.397 . S
C876 C881 1.363 . S
C877 H848 0.950 . S
C877 C876 1.397 . S
C877 C878 1.334 . S
C878 H849 0.950 . S
C878 C877 1.334 . S
C878 C879 1.287 . S
C879 C878 1.287 . S
C879 C880 1.524 . S
C879 H882 0.999 . S
C880 H850 0.950 . S
C880 C879 1.524 . S
C880 C881 1.415 . S
C881 H851 0.950 . S
C881 C876 1.363 . S
C881 C880 1.415 . S
H882 C879 0.999 . S
H883 C864 0.913 . S
H884 C902 0.951 . S
H885 C904 0.951 . S
H886 C906 0.950 . S
H887 C907 0.950 . S
H888 C909 0.950 . S
H889 C912 0.950 . S
H890 C913 0.950 1_545 S
H891 C915 0.950 . S
H892 C916 0.950 . S
H893 C917 0.951 . S
H894 C919 0.911 1_545 S
H895 C921 0.950 . S
H896 C922 0.950 . S
H897 C924 0.950 . S
H898 C927 0.950 . S
H899 C928 0.950 . S
H900 C930 0.950 . S
H901 C931 0.950 . S
C902 H884 0.951 . S
C902 C903 1.366 . S
C902 C904 1.388 . S
C903 C902 1.366 . S
C903 C907 1.385 . S
C904 H885 0.951 . S
C904 C902 1.388 . S
C904 C905 1.366 . S
C905 C904 1.366 . S
C905 C906 1.414 . S
C905 C908 1.499 . S
C906 H886 0.950 . S
C906 C905 1.414 . S
C906 C907 1.374 . S
C907 H887 0.950 . S
C907 C903 1.385 . S
C907 C906 1.374 . S
C908 C905 1.499 . S
C908 C909 1.373 . S
C908 C910 1.389 . S
C909 H888 0.950 . S
C909 C908 1.373 . S
C909 C925 1.377 . S
C910 C908 1.389 . S
C910 C911 1.524 1_545 S
C910 C924 1.377 1_545 S
C911 C910 1.524 1_565 S
C911 C912 1.397 1_565 S
C911 C916 1.363 . S
C912 H889 0.950 . S
C912 C911 1.397 1_545 S
C912 C913 1.334 1_545 S
C913 H890 0.950 1_565 S
C913 C912 1.334 1_565 S
C913 C914 1.287 . S
C914 C913 1.287 . S
C914 C915 1.524 . S
C914 H933 0.913 . S
C915 H891 0.950 . S
C915 C914 1.524 . S
C915 C916 1.415 . S
C916 H892 0.950 . S
C916 C911 1.363 . S
C916 C915 1.415 . S
C917 H893 0.951 . S
C917 C918 1.366 . S
C917 C919 1.388 . S
C918 C917 1.366 . S
C918 C922 1.385 . S
C919 H894 0.911 1_565 S
C919 C917 1.388 . S
C919 C920 1.366 . S
C920 C919 1.366 . S
C920 C921 1.414 . S
C920 C923 1.499 . S
C921 H895 0.950 . S
C921 C920 1.414 . S
C921 C922 1.374 . S
C922 H896 0.950 . S
C922 C918 1.385 . S
C922 C921 1.374 . S
C923 C920 1.499 . S
C923 C924 1.373 . S
C923 C925 1.389 1_565 S
C924 H897 0.950 . S
C924 C910 1.377 1_565 S
C924 C923 1.373 . S
C925 C909 1.377 . S
C925 C923 1.389 1_545 S
C925 C926 1.524 . S
C926 C925 1.524 . S
C926 C927 1.397 . S
C926 C931 1.363 . S
C927 H898 0.950 . S
C927 C926 1.397 . S
C927 C928 1.334 . S
C928 H899 0.950 . S
C928 C927 1.334 . S
C928 C929 1.287 . S
C929 C928 1.287 . S
C929 C930 1.524 . S
C929 H932 0.999 . S
C930 H900 0.950 . S
C930 C929 1.524 . S
C930 C931 1.415 . S
C931 H901 0.950 . S
C931 C926 1.363 . S
C931 C930 1.415 . S
H932 C929 0.999 . S
H933 C914 0.913 . S
H934 C952 0.951 . S
H935 C954 0.951 . S
H936 C956 0.950 . S
H937 C957 0.950 . S
H938 C959 0.950 . S
H939 C962 0.950 . S
H940 C963 0.950 . S
H941 C965 0.950 . S
H942 C966 0.950 1_655 S
H943 C967 0.951 . S
H944 C969 0.951 1_455 S
H945 C971 0.950 . S
H946 C972 0.950 . S
H947 C974 0.950 1_655 S
H948 C977 0.950 . S
H949 C978 0.950 . S
H950 C980 0.950 . S
H951 C981 0.950 . S
C952 H934 0.951 . S
C952 C953 1.366 . S
C952 C954 1.388 . S
C953 C952 1.366 . S
C953 C957 1.385 . S
C954 H935 0.951 . S
C954 C952 1.388 . S
C954 C955 1.366 . S
C955 C954 1.366 . S
C955 C956 1.414 . S
C955 C958 1.499 . S
C956 H936 0.950 . S
C956 C955 1.414 . S
C956 C957 1.374 . S
C957 H937 0.950 . S
C957 C953 1.385 . S
C957 C956 1.374 . S
C958 C955 1.499 . S
C958 C959 1.373 . S
C958 C960 1.389 . S
C959 H938 0.950 . S
C959 C958 1.373 . S
C959 C975 1.377 . S
C960 C958 1.389 . S
C960 C961 1.524 . S
C960 C974 1.377 . S
C961 C960 1.524 . S
C961 C962 1.397 . S
C961 C966 1.363 . S
C962 H939 0.950 . S
C962 C961 1.397 . S
C962 C963 1.334 . S
C963 H940 0.950 . S
C963 C962 1.334 . S
C963 C964 1.287 . S
C964 C963 1.287 . S
C964 C965 1.524 . S
C964 H983 0.913 . S
C965 H941 0.950 . S
C965 C964 1.524 . S
C965 C966 1.415 . S
C966 H942 0.950 1_455 S
C966 C961 1.363 . S
C966 C965 1.415 . S
C967 H943 0.951 . S
C967 C968 1.366 . S
C967 C969 1.388 . S
C968 C967 1.366 . S
C968 C972 1.385 . S
C969 H944 0.951 1_655 S
C969 C967 1.388 . S
C969 C970 1.366 . S
C970 C969 1.366 . S
C970 C971 1.414 . S
C970 C973 1.473 1_655 S
C971 H945 0.950 . S
C971 C970 1.414 . S
C971 C972 1.374 . S
C972 H946 0.950 . S
C972 C968 1.385 . S
C972 C971 1.374 . S
C973 C970 1.473 1_455 S
C973 C974 1.405 . S
C973 C975 1.389 . S
C974 H947 0.950 1_455 S
C974 C960 1.377 . S
C974 C973 1.405 . S
C975 C959 1.377 . S
C975 C973 1.389 . S
C975 C976 1.524 . S
C976 C975 1.524 . S
C976 C977 1.397 1_455 S
C976 C981 1.363 . S
C977 H948 0.950 . S
C977 C976 1.397 1_655 S
C977 C978 1.334 . S
C978 H949 0.950 . S
C978 C977 1.334 . S
C978 C979 1.287 . S
C979 C978 1.287 . S
C979 C980 1.524 1_655 S
C979 H982 0.999 . S
C980 H950 0.950 . S
C980 C979 1.524 1_455 S
C980 C981 1.415 . S
C981 H951 0.950 . S
C981 C976 1.363 . S
C981 C980 1.415 . S
H982 C979 0.999 . S
H983 C964 0.913 . S
H984 C1002 0.951 . S
H985 C1004 0.951 . S
H986 C1006 0.950 . S
H987 C1007 0.950 . S
H988 C1009 0.950 . S
H989 C1012 0.950 . S
H990 C1013 0.950 . S
H991 C1015 0.950 . S
H992 C1016 0.950 . S
H993 C1017 0.951 . S
H994 C1019 0.951 . S
H995 C1021 0.950 . S
H996 C1022 0.950 . S
H997 C1024 0.950 . S
H998 C1027 0.950 . S
H999 C1028 0.950 . S
H1000 C1030 0.950 . S
H1001 C1031 0.950 . S
C1002 H984 0.951 . S
C1002 C1003 1.366 . S
C1002 C1004 1.388 . S
C1003 C1002 1.366 . S
C1003 C1007 1.385 . S
C1004 H985 0.951 . S
C1004 C1002 1.388 . S
C1004 C1005 1.366 . S
C1005 C1004 1.366 . S
C1005 C1006 1.414 . S
C1005 C1008 1.499 . S
C1006 H986 0.950 . S
C1006 C1005 1.414 . S
C1006 C1007 1.374 . S
C1007 H987 0.950 . S
C1007 C1003 1.385 . S
C1007 C1006 1.374 . S
C1008 C1005 1.499 . S
C1008 C1009 1.373 . S
C1008 C1010 1.389 . S
C1009 H988 0.950 . S
C1009 C1008 1.373 . S
C1009 C1025 1.377 . S
C1010 C1008 1.389 . S
C1010 C1011 1.524 . S
C1010 C1024 1.377 . S
C1011 C1010 1.524 . S
C1011 C1012 1.397 . S
C1011 C1016 1.363 . S
C1012 H989 0.950 . S
C1012 C1011 1.397 . S
C1012 C1013 1.334 . S
C1013 H990 0.950 . S
C1013 C1012 1.334 . S
C1013 C1014 1.287 . S
C1014 C1013 1.287 . S
C1014 C1015 1.524 . S
C1014 H1033 0.913 . S
C1015 H991 0.950 . S
C1015 C1014 1.524 . S
C1015 C1016 1.415 . S
C1016 H992 0.950 . S
C1016 C1011 1.363 . S
C1016 C1015 1.415 . S
C1017 H993 0.951 . S
C1017 C1018 1.366 . S
C1017 C1019 1.388 . S
C1018 C1017 1.366 . S
C1018 C1022 1.385 . S
C1019 H994 0.951 . S
C1019 C1017 1.388 . S
C1019 C1020 1.366 . S
C1020 C1019 1.366 . S
C1020 C1021 1.414 . S
C1020 C1023 1.499 . S
C1021 H995 0.950 . S
C1021 C1020 1.414 . S
C1021 C1022 1.374 . S
C1022 H996 0.950 . S
C1022 C1018 1.385 . S
C1022 C1021 1.374 . S
C1023 C1020 1.499 . S
C1023 C1024 1.373 . S
C1023 C1025 1.389 . S
C1024 H997 0.950 . S
C1024 C1010 1.377 . S
C1024 C1023 1.373 . S
C1025 C1009 1.377 . S
C1025 C1023 1.389 . S
C1025 C1026 1.524 . S
C1026 C1025 1.524 . S
C1026 C1027 1.397 . S
C1026 C1031 1.363 . S
C1027 H998 0.950 . S
C1027 C1026 1.397 . S
C1027 C1028 1.334 . S
C1028 H999 0.950 . S
C1028 C1027 1.334 . S
C1028 C1029 1.287 . S
C1029 C1028 1.287 . S
C1029 C1030 1.524 . S
C1029 H1032 0.999 . S
C1030 H1000 0.950 . S
C1030 C1029 1.524 . S
C1030 C1031 1.415 . S
C1031 H1001 0.950 . S
C1031 C1026 1.363 . S
C1031 C1030 1.415 . S
H1032 C1029 0.999 . S
H1033 C1014 0.913 . S
H1034 C1052 0.951 . S
H1035 C1054 0.951 . S
H1036 C1056 0.950 . S
H1037 C1057 0.950 . S
H1038 C1059 0.950 . S
H1039 C1062 0.950 . S
H1040 C1063 0.950 . S
H1041 C1065 0.950 . S
H1042 C1066 0.950 . S
H1043 C1067 0.951 . S
H1044 C1069 0.951 . S
H1045 C1071 0.950 . S
H1046 C1072 0.950 . S
H1047 C1074 0.950 . S
H1048 C1077 0.950 . S
H1049 C1078 0.950 . S
H1050 C1080 0.950 . S
H1051 C1081 0.950 . S
C1052 H1034 0.951 . S
C1052 C1053 1.366 . S
C1052 C1054 1.388 . S
C1053 C1052 1.366 . S
C1053 C1057 1.385 . S
C1054 H1035 0.951 . S
C1054 C1052 1.388 . S
C1054 C1055 1.366 . S
C1055 C1054 1.366 . S
C1055 C1056 1.414 . S
C1055 C1058 1.499 . S
C1056 H1036 0.950 . S
C1056 C1055 1.414 . S
C1056 C1057 1.374 . S
C1057 H1037 0.950 . S
C1057 C1053 1.385 . S
C1057 C1056 1.374 . S
C1058 C1055 1.499 . S
C1058 C1059 1.373 . S
C1058 C1060 1.389 . S
C1059 H1038 0.950 . S
C1059 C1058 1.373 . S
C1059 C1075 1.377 . S
C1060 C1058 1.389 . S
C1060 C1061 1.524 . S
C1060 C1074 1.377 1_545 S
C1061 C1060 1.524 . S
C1061 C1062 1.397 . S
C1061 C1066 1.363 . S
C1062 H1039 0.950 . S
C1062 C1061 1.397 . S
C1062 C1063 1.334 . S
C1063 H1040 0.950 . S
C1063 C1062 1.334 . S
C1063 C1064 1.287 . S
C1064 C1063 1.287 . S
C1064 C1065 1.524 . S
C1064 H1083 0.913 . S
C1065 H1041 0.950 . S
C1065 C1064 1.524 . S
C1065 C1066 1.415 . S
C1066 H1042 0.950 . S
C1066 C1061 1.363 . S
C1066 C1065 1.415 . S
C1067 H1043 0.951 . S
C1067 C1068 1.366 . S
C1067 C1069 1.388 . S
C1068 C1067 1.366 . S
C1068 C1072 1.385 . S
C1069 H1044 0.951 . S
C1069 C1067 1.388 . S
C1069 C1070 1.366 . S
C1070 C1069 1.366 . S
C1070 C1071 1.414 . S
C1070 C1073 1.499 . S
C1071 H1045 0.950 . S
C1071 C1070 1.414 . S
C1071 C1072 1.374 . S
C1072 H1046 0.950 . S
C1072 C1068 1.385 . S
C1072 C1071 1.374 . S
C1073 C1070 1.499 . S
C1073 C1074 1.373 . S
C1073 C1075 1.389 1_565 S
C1074 H1047 0.950 . S
C1074 C1060 1.377 1_565 S
C1074 C1073 1.373 . S
C1075 C1059 1.377 . S
C1075 C1073 1.389 1_545 S
C1075 C1076 1.524 . S
C1076 C1075 1.524 . S
C1076 C1077 1.397 . S
C1076 C1081 1.363 1_545 S
C1077 H1048 0.950 . S
C1077 C1076 1.397 . S
C1077 C1078 1.334 . S
C1078 H1049 0.950 . S
C1078 C1077 1.334 . S
C1078 C1079 1.287 . S
C1079 C1078 1.287 . S
C1079 C1080 1.524 1_545 S
C1079 H1082 0.999 . S
C1080 H1050 0.950 . S
C1080 C1079 1.524 1_565 S
C1080 C1081 1.415 . S
C1081 H1051 0.950 . S
C1081 C1076 1.363 1_565 S
C1081 C1080 1.415 . S
H1082 C1079 0.999 . S
H1083 C1064 0.913 . S
H1084 C1102 0.951 . S
H1085 C1104 0.951 . S
H1086 C1106 0.950 . S
H1087 C1107 0.950 . S
H1088 C1109 0.950 . S
H1089 C1112 0.950 . S
H1090 C1113 0.937 1_455 S
H1091 C1115 0.950 . S
H1092 C1116 0.950 . S
H1093 C1117 0.951 . S
H1094 C1119 0.951 1_455 S
H1095 C1121 0.950 . S
H1096 C1122 0.950 . S
H1097 C1124 0.950 . S
H1098 C1127 0.950 . S
H1099 C1128 0.950 . S
H1100 C1130 0.950 . S
H1101 C1131 0.950 . S
C1102 H1084 0.951 . S
C1102 C1103 1.366 . S
C1102 C1104 1.388 . S
C1103 C1102 1.366 . S
C1103 C1107 1.385 . S
C1104 H1085 0.951 . S
C1104 C1102 1.388 . S
C1104 C1105 1.366 . S
C1105 C1104 1.366 . S
C1105 C1106 1.414 . S
C1105 C1108 1.499 . S
C1106 H1086 0.950 . S
C1106 C1105 1.414 . S
C1106 C1107 1.374 . S
C1107 H1087 0.950 . S
C1107 C1103 1.385 . S
C1107 C1106 1.374 . S
C1108 C1105 1.499 . S
C1108 C1109 1.373 . S
C1108 C1110 1.389 . S
C1109 H1088 0.950 . S
C1109 C1108 1.373 . S
C1109 C1125 1.377 . S
C1110 C1108 1.389 . S
C1110 C1111 1.524 1_455 S
C1110 C1124 1.377 1_455 S
C1111 C1110 1.524 1_655 S
C1111 C1112 1.397 1_655 S
C1111 C1116 1.363 . S
C1112 H1089 0.950 . S
C1112 C1111 1.397 1_455 S
C1112 C1113 1.334 1_455 S
C1113 H1090 0.937 1_655 S
C1113 C1112 1.334 1_655 S
C1113 C1114 1.287 . S
C1114 C1113 1.287 . S
C1114 C1115 1.524 . S
C1114 H1133 0.913 . S
C1115 H1091 0.950 . S
C1115 C1114 1.524 . S
C1115 C1116 1.415 . S
C1116 H1092 0.950 . S
C1116 C1111 1.363 . S
C1116 C1115 1.415 . S
C1117 H1093 0.951 . S
C1117 C1118 1.366 . S
C1117 C1119 1.388 . S
C1118 C1117 1.366 . S
C1118 C1122 1.385 . S
C1119 H1094 0.951 1_655 S
C1119 C1117 1.388 . S
C1119 C1120 1.366 . S
C1120 C1119 1.366 . S
C1120 C1121 1.414 . S
C1120 C1123 1.479 1_655 S
C1121 H1095 0.950 . S
C1121 C1120 1.414 . S
C1121 C1122 1.374 . S
C1122 H1096 0.950 . S
C1122 C1118 1.385 . S
C1122 C1121 1.374 . S
C1123 C1120 1.479 1_455 S
C1123 C1124 1.365 1_455 S
C1123 C1125 1.420 . S
C1124 H1097 0.950 . S
C1124 C1110 1.377 1_655 S
C1124 C1123 1.365 1_655 S
C1125 C1109 1.377 . S
C1125 C1123 1.420 . S
C1125 C1126 1.524 . S
C1126 C1125 1.524 . S
C1126 C1127 1.397 . S
C1126 C1131 1.363 . S
C1127 H1098 0.950 . S
C1127 C1126 1.397 . S
C1127 C1128 1.334 . S
C1128 H1099 0.950 . S
C1128 C1127 1.334 . S
C1128 C1129 1.287 . S
C1129 C1128 1.287 . S
C1129 C1130 1.524 . S
C1129 H1132 0.999 . S
C1130 H1100 0.950 . S
C1130 C1129 1.524 . S
C1130 C1131 1.415 . S
C1131 H1101 0.950 . S
C1131 C1126 1.363 . S
C1131 C1130 1.415 . S
H1132 C1129 0.999 . S
H1133 C1114 0.913 . S
H1134 C1152 0.951 . S
H1135 C1154 0.951 . S
H1136 C1156 0.950 . S
H1137 C1157 0.950 . S
H1138 C1159 0.950 . S
H1139 C1162 0.950 . S
H1140 C1163 0.950 . S
H1141 C1165 0.950 . S
H1142 C1166 0.950 . S
H1143 C1167 0.951 . S
H1144 C1169 0.951 . S
H1145 C1171 0.950 . S
H1146 C1172 0.950 . S
H1147 C1174 0.950 . S
H1148 C1177 0.950 . S
H1149 C1178 0.950 . S
H1150 C1180 0.950 . S
H1151 C1181 0.950 . S
C1152 H1134 0.951 . S
C1152 C1153 1.366 . S
C1152 C1154 1.388 . S
C1153 C1152 1.366 . S
C1153 C1157 1.385 . S
C1154 H1135 0.951 . S
C1154 C1152 1.388 . S
C1154 C1155 1.366 . S
C1155 C1154 1.366 . S
C1155 C1156 1.414 . S
C1155 C1158 1.499 . S
C1156 H1136 0.950 . S
C1156 C1155 1.414 . S
C1156 C1157 1.374 . S
C1157 H1137 0.950 . S
C1157 C1153 1.385 . S
C1157 C1156 1.374 . S
C1158 C1155 1.499 . S
C1158 C1159 1.373 . S
C1158 C1160 1.389 . S
C1159 H1138 0.950 . S
C1159 C1158 1.373 . S
C1159 C1175 1.377 . S
C1160 C1158 1.389 . S
C1160 C1161 1.524 . S
C1160 C1174 1.377 . S
C1161 C1160 1.524 . S
C1161 C1162 1.397 . S
C1161 C1166 1.363 . S
C1162 H1139 0.950 . S
C1162 C1161 1.397 . S
C1162 C1163 1.334 . S
C1163 H1140 0.950 . S
C1163 C1162 1.334 . S
C1163 C1164 1.287 . S
C1164 C1163 1.287 . S
C1164 C1165 1.524 . S
C1164 H1183 0.913 . S
C1165 H1141 0.950 . S
C1165 C1164 1.524 . S
C1165 C1166 1.415 . S
C1166 H1142 0.950 . S
C1166 C1161 1.363 . S
C1166 C1165 1.415 . S
C1167 H1143 0.951 . S
C1167 C1168 1.366 . S
C1167 C1169 1.388 . S
C1168 C1167 1.366 . S
C1168 C1172 1.385 . S
C1169 H1144 0.951 . S
C1169 C1167 1.388 . S
C1169 C1170 1.366 . S
C1170 C1169 1.366 . S
C1170 C1171 1.414 . S
C1170 C1173 1.499 . S
C1171 H1145 0.950 . S
C1171 C1170 1.414 . S
C1171 C1172 1.374 . S
C1172 H1146 0.950 . S
C1172 C1168 1.385 . S
C1172 C1171 1.374 . S
C1173 C1170 1.499 . S
C1173 C1174 1.373 . S
C1173 C1175 1.389 . S
C1174 H1147 0.950 . S
C1174 C1160 1.377 . S
C1174 C1173 1.373 . S
C1175 C1159 1.377 . S
C1175 C1173 1.389 . S
C1175 C1176 1.524 . S
C1176 C1175 1.524 . S
C1176 C1177 1.397 . S
C1176 C1181 1.363 . S
C1177 H1148 0.950 . S
C1177 C1176 1.397 . S
C1177 C1178 1.334 . S
C1178 H1149 0.950 . S
C1178 C1177 1.334 . S
C1178 C1179 1.287 . S
C1179 C1178 1.287 . S
C1179 C1180 1.524 . S
C1179 H1182 0.999 . S
C1180 H1150 0.950 . S
C1180 C1179 1.524 . S
C1180 C1181 1.415 . S
C1181 H1151 0.950 . S
C1181 C1176 1.363 . S
C1181 C1180 1.415 . S
H1182 C1179 0.999 . S
H1183 C1164 0.913 . S
H1184 C1202 0.951 . S
H1185 C1204 0.951 . S
H1186 C1206 0.950 . S
H1187 C1207 0.950 . S
H1188 C1209 0.950 . S
H1189 C1212 0.950 . S
H1190 C1213 0.950 . S
H1191 C1215 0.950 . S
H1192 C1216 0.950 . S
H1193 C1217 0.951 . S
H1194 C1219 0.951 . S
H1195 C1221 0.950 . S
H1196 C1222 0.950 . S
H1197 C1224 0.950 . S
H1198 C1227 0.950 . S
H1199 C1228 0.950 . S
H1200 C1230 0.950 . S
H1201 C1231 0.950 . S
C1202 H1184 0.951 . S
C1202 C1203 1.366 . S
C1202 C1204 1.388 . S
C1203 C1202 1.366 . S
C1203 C1207 1.385 . S
C1204 H1185 0.951 . S
C1204 C1202 1.388 . S
C1204 C1205 1.366 . S
C1205 C1204 1.366 . S
C1205 C1206 1.414 . S
C1205 C1208 1.499 . S
C1206 H1186 0.950 . S
C1206 C1205 1.414 . S
C1206 C1207 1.374 . S
C1207 H1187 0.950 . S
C1207 C1203 1.385 . S
C1207 C1206 1.374 . S
C1208 C1205 1.499 . S
C1208 C1209 1.373 . S
C1208 C1210 1.389 . S
C1209 H1188 0.950 . S
C1209 C1208 1.373 . S
C1209 C1225 1.377 . S
C1210 C1208 1.389 . S
C1210 C1211 1.524 . S
C1210 C1224 1.377 . S
C1211 C1210 1.524 . S
C1211 C1212 1.397 . S
C1211 C1216 1.363 . S
C1212 H1189 0.950 . S
C1212 C1211 1.397 . S
C1212 C1213 1.334 . S
C1213 H1190 0.950 . S
C1213 C1212 1.334 . S
C1213 C1214 1.287 . S
C1214 C1213 1.287 . S
C1214 C1215 1.524 . S
C1214 H1233 0.913 . S
C1215 H1191 0.950 . S
C1215 C1214 1.524 . S
C1215 C1216 1.415 . S
C1216 H1192 0.950 . S
C1216 C1211 1.363 . S
C1216 C1215 1.415 . S
C1217 H1193 0.951 . S
C1217 C1218 1.366 . S
C1217 C1219 1.388 . S
C1218 C1217 1.366 . S
C1218 C1222 1.385 . S
C1219 H1194 0.951 . S
C1219 C1217 1.388 . S
C1219 C1220 1.366 . S
C1220 C1219 1.366 . S
C1220 C1221 1.414 . S
C1220 C1223 1.499 . S
C1221 H1195 0.950 . S
C1221 C1220 1.414 . S
C1221 C1222 1.374 . S
C1222 H1196 0.950 . S
C1222 C1218 1.385 . S
C1222 C1221 1.374 . S
C1223 C1220 1.499 . S
C1223 C1224 1.373 . S
C1223 C1225 1.389 . S
C1224 H1197 0.950 . S
C1224 C1210 1.377 . S
C1224 C1223 1.373 . S
C1225 C1209 1.377 . S
C1225 C1223 1.389 . S
C1225 C1226 1.524 . S
C1226 C1225 1.524 . S
C1226 C1227 1.397 . S
C1226 C1231 1.363 . S
C1227 H1198 0.950 . S
C1227 C1226 1.397 . S
C1227 C1228 1.334 . S
C1228 H1199 0.950 . S
C1228 C1227 1.334 . S
C1228 C1229 1.287 . S
C1229 C1228 1.287 . S
C1229 C1230 1.524 . S
C1229 H1232 0.999 . S
C1230 H1200 0.950 . S
C1230 C1229 1.524 . S
C1230 C1231 1.415 . S
C1231 H1201 0.950 . S
C1231 C1226 1.363 . S
C1231 C1230 1.415 . S
H1232 C1229 0.999 . S
H1233 C1214 0.913 . S
H1234 C1252 0.951 . S
H1235 C1254 0.951 . S
H1236 C1256 0.950 . S
H1237 C1257 0.950 . S
H1238 C1259 0.950 . S
H1239 C1262 0.950 . S
H1240 C1263 0.950 . S
H1241 C1265 0.950 . S
H1242 C1266 0.950 . S
H1243 C1267 0.951 . S
H1244 C1269 0.951 . S
H1245 C1271 0.950 . S
H1246 C1272 0.950 . S
H1247 C1274 0.950 . S
H1248 C1277 0.950 . S
H1249 C1278 0.950 . S
H1250 C1280 0.950 . S
H1251 C1281 0.950 . S
C1252 H1234 0.951 . S
C1252 C1253 1.366 . S
C1252 C1254 1.388 . S
C1253 C1252 1.366 . S
C1253 C1257 1.385 . S
C1254 H1235 0.951 . S
C1254 C1252 1.388 . S
C1254 C1255 1.366 . S
C1255 C1254 1.366 . S
C1255 C1256 1.414 . S
C1255 C1258 1.499 . S
C1256 H1236 0.950 . S
C1256 C1255 1.414 . S
C1256 C1257 1.374 . S
C1257 H1237 0.950 . S
C1257 C1253 1.385 . S
C1257 C1256 1.374 . S
C1258 C1255 1.499 . S
C1258 C1259 1.373 . S
C1258 C1260 1.389 . S
C1259 H1238 0.950 . S
C1259 C1258 1.373 . S
C1259 C1275 1.377 . S
C1260 C1258 1.389 . S
C1260 C1261 1.524 . S
C1260 C1274 1.377 . S
C1261 C1260 1.524 . S
C1261 C1262 1.397 . S
C1261 C1266 1.363 . S
C1262 H1239 0.950 . S
C1262 C1261 1.397 . S
C1262 C1263 1.334 . S
C1263 H1240 0.950 . S
C1263 C1262 1.334 . S
C1263 C1264 1.287 . S
C1264 C1263 1.287 . S
C1264 C1265 1.524 . S
C1264 H1283 0.913 . S
C1265 H1241 0.950 . S
C1265 C1264 1.524 . S
C1265 C1266 1.415 . S
C1266 H1242 0.950 . S
C1266 C1261 1.363 . S
C1266 C1265 1.415 . S
C1267 H1243 0.951 . S
C1267 C1268 1.366 . S
C1267 C1269 1.388 . S
C1268 C1267 1.366 . S
C1268 C1272 1.385 . S
C1269 H1244 0.951 . S
C1269 C1267 1.388 . S
C1269 C1270 1.366 . S
C1270 C1269 1.366 . S
C1270 C1271 1.414 . S
C1270 C1273 1.499 . S
C1271 H1245 0.950 . S
C1271 C1270 1.414 . S
C1271 C1272 1.374 . S
C1272 H1246 0.950 . S
C1272 C1268 1.385 . S
C1272 C1271 1.374 . S
C1273 C1270 1.499 . S
C1273 C1274 1.373 . S
C1273 C1275 1.389 . S
C1274 H1247 0.950 . S
C1274 C1260 1.377 . S
C1274 C1273 1.373 . S
C1275 C1259 1.377 . S
C1275 C1273 1.389 . S
C1275 C1276 1.524 . S
C1276 C1275 1.524 . S
C1276 C1277 1.397 . S
C1276 C1281 1.363 . S
C1277 H1248 0.950 . S
C1277 C1276 1.397 . S
C1277 C1278 1.334 . S
C1278 H1249 0.950 . S
C1278 C1277 1.334 . S
C1278 C1279 1.287 . S
C1279 C1278 1.287 . S
C1279 C1280 1.524 . S
C1279 H1282 0.999 . S
C1280 H1250 0.950 . S
C1280 C1279 1.524 . S
C1280 C1281 1.415 . S
C1281 H1251 0.950 . S
C1281 C1276 1.363 . S
C1281 C1280 1.415 . S
H1282 C1279 0.999 . S
H1283 C1264 0.913 . S
H1284 C1302 0.951 . S
H1285 C1304 0.951 . S
H1286 C1306 0.950 . S
H1287 C1307 0.950 . S
H1288 C1309 0.950 . S
H1289 C1312 0.950 . S
H1290 C1313 0.950 . S
H1291 C1315 0.950 . S
H1292 C1316 0.950 . S
H1293 C1317 0.951 . S
H1294 C1319 0.951 . S
H1295 C1321 0.950 . S
H1296 C1322 0.950 . S
H1297 C1324 0.950 . S
H1298 C1327 0.950 . S
H1299 C1328 0.950 . S
H1300 C1330 0.950 . S
H1301 C1331 0.950 . S
C1302 H1284 0.951 . S
C1302 C1303 1.366 . S
C1302 C1304 1.388 . S
C1303 C1302 1.366 . S
C1303 C1307 1.385 . S
C1304 H1285 0.951 . S
C1304 C1302 1.388 . S
C1304 C1305 1.366 . S
C1305 C1304 1.366 . S
C1305 C1306 1.414 . S
C1305 C1308 1.499 . S
C1306 H1286 0.950 . S
C1306 C1305 1.414 . S
C1306 C1307 1.374 . S
C1307 H1287 0.950 . S
C1307 C1303 1.385 . S
C1307 C1306 1.374 . S
C1308 C1305 1.499 . S
C1308 C1309 1.373 . S
C1308 C1310 1.389 . S
C1309 H1288 0.950 . S
C1309 C1308 1.373 . S
C1309 C1325 1.377 . S
C1310 C1308 1.389 . S
C1310 C1311 1.524 . S
C1310 C1324 1.377 . S
C1311 C1310 1.524 . S
C1311 C1312 1.397 . S
C1311 C1316 1.363 . S
C1312 H1289 0.950 . S
C1312 C1311 1.397 . S
C1312 C1313 1.334 . S
C1313 H1290 0.950 . S
C1313 C1312 1.334 . S
C1313 C1314 1.287 . S
C1314 C1313 1.287 . S
C1314 C1315 1.524 . S
C1314 H1333 0.913 . S
C1315 H1291 0.950 . S
C1315 C1314 1.524 . S
C1315 C1316 1.415 . S
C1316 H1292 0.950 . S
C1316 C1311 1.363 . S
C1316 C1315 1.415 . S
C1317 H1293 0.951 . S
C1317 C1318 1.366 . S
C1317 C1319 1.388 . S
C1318 C1317 1.366 . S
C1318 C1322 1.385 . S
C1319 H1294 0.951 . S
C1319 C1317 1.388 . S
C1319 C1320 1.366 . S
C1320 C1319 1.366 . S
C1320 C1321 1.414 . S
C1320 C1323 1.499 . S
C1321 H1295 0.950 . S
C1321 C1320 1.414 . S
C1321 C1322 1.374 . S
C1322 H1296 0.950 . S
C1322 C1318 1.385 . S
C1322 C1321 1.374 . S
C1323 C1320 1.499 . S
C1323 C1324 1.373 . S
C1323 C1325 1.389 . S
C1324 H1297 0.950 . S
C1324 C1310 1.377 . S
C1324 C1323 1.373 . S
C1325 C1309 1.377 . S
C1325 C1323 1.389 . S
C1325 C1326 1.524 . S
C1326 C1325 1.524 . S
C1326 C1327 1.397 . S
C1326 C1331 1.363 . S
C1327 H1298 0.950 . S
C1327 C1326 1.397 . S
C1327 C1328 1.334 . S
C1328 H1299 0.950 . S
C1328 C1327 1.334 . S
C1328 C1329 1.287 . S
C1329 C1328 1.287 . S
C1329 C1330 1.524 . S
C1329 H1332 0.999 . S
C1330 H1300 0.950 . S
C1330 C1329 1.524 . S
C1330 C1331 1.415 . S
C1331 H1301 0.950 . S
C1331 C1326 1.363 . S
C1331 C1330 1.415 . S
H1332 C1329 0.999 . S
H1333 C1314 0.913 . S
H1334 C1352 0.951 . S
H1335 C1354 0.951 . S
H1336 C1356 0.950 . S
H1337 C1357 0.950 . S
H1338 C1359 0.950 . S
H1339 C1362 0.950 . S
H1340 C1363 0.950 . S
H1341 C1365 0.950 . S
H1342 C1366 0.950 . S
H1343 C1367 0.951 . S
H1344 C1369 0.951 . S
H1345 C1371 0.950 . S
H1346 C1372 0.950 . S
H1347 C1374 0.950 . S
H1348 C1377 0.950 . S
H1349 C1378 0.950 . S
H1350 C1380 0.950 . S
H1351 C1381 0.950 . S
C1352 H1334 0.951 . S
C1352 C1353 1.366 . S
C1352 C1354 1.388 . S
C1353 C1352 1.366 . S
C1353 C1357 1.385 . S
C1354 H1335 0.951 . S
C1354 C1352 1.388 . S
C1354 C1355 1.366 . S
C1355 C1354 1.366 . S
C1355 C1356 1.414 . S
C1355 C1358 1.499 . S
C1356 H1336 0.950 . S
C1356 C1355 1.414 . S
C1356 C1357 1.374 . S
C1357 H1337 0.950 . S
C1357 C1353 1.385 . S
C1357 C1356 1.374 . S
C1358 C1355 1.499 . S
C1358 C1359 1.373 . S
C1358 C1360 1.389 . S
C1359 H1338 0.950 . S
C1359 C1358 1.373 . S
C1359 C1375 1.377 . S
C1360 C1358 1.389 . S
C1360 C1361 1.524 . S
C1360 C1374 1.377 . S
C1361 C1360 1.524 . S
C1361 C1362 1.397 . S
C1361 C1366 1.363 . S
C1362 H1339 0.950 . S
C1362 C1361 1.397 . S
C1362 C1363 1.334 . S
C1363 H1340 0.950 . S
C1363 C1362 1.334 . S
C1363 C1364 1.287 . S
C1364 C1363 1.287 . S
C1364 C1365 1.524 . S
C1364 H1383 0.913 . S
C1365 H1341 0.950 . S
C1365 C1364 1.524 . S
C1365 C1366 1.415 . S
C1366 H1342 0.950 . S
C1366 C1361 1.363 . S
C1366 C1365 1.415 . S
C1367 H1343 0.951 . S
C1367 C1368 1.366 . S
C1367 C1369 1.388 . S
C1368 C1367 1.366 . S
C1368 C1372 1.385 . S
C1369 H1344 0.951 . S
C1369 C1367 1.388 . S
C1369 C1370 1.366 . S
C1370 C1369 1.366 . S
C1370 C1371 1.414 . S
C1370 C1373 1.499 . S
C1371 H1345 0.950 . S
C1371 C1370 1.414 . S
C1371 C1372 1.374 . S
C1372 H1346 0.950 . S
C1372 C1368 1.385 . S
C1372 C1371 1.374 . S
C1373 C1370 1.499 . S
C1373 C1374 1.373 . S
C1373 C1375 1.389 . S
C1374 H1347 0.950 . S
C1374 C1360 1.377 . S
C1374 C1373 1.373 . S
C1375 C1359 1.377 . S
C1375 C1373 1.389 . S
C1375 C1376 1.524 . S
C1376 C1375 1.524 . S
C1376 C1377 1.397 . S
C1376 C1381 1.363 . S
C1377 H1348 0.950 . S
C1377 C1376 1.397 . S
C1377 C1378 1.334 . S
C1378 H1349 0.950 . S
C1378 C1377 1.334 . S
C1378 C1379 1.287 . S
C1379 C1378 1.287 . S
C1379 C1380 1.524 . S
C1379 H1382 0.999 . S
C1380 H1350 0.950 . S
C1380 C1379 1.524 . S
C1380 C1381 1.415 . S
C1381 H1351 0.950 . S
C1381 C1376 1.363 . S
C1381 C1380 1.415 . S
H1382 C1379 0.999 . S
H1383 C1364 0.913 . S
H1384 C1402 0.951 . S
H1385 C1404 0.951 . S
H1386 C1406 0.950 . S
H1387 C1407 0.950 . S
H1388 C1409 0.950 . S
H1389 C1412 0.950 . S
H1390 C1413 0.950 . S
H1391 C1415 0.950 . S
H1392 C1416 0.950 . S
H1393 C1417 0.951 . S
H1394 C1419 0.951 . S
H1395 C1421 0.950 . S
H1396 C1422 0.950 . S
H1397 C1424 0.950 . S
H1398 C1427 0.950 . S
H1399 C1428 0.950 . S
H1400 C1430 0.950 . S
H1401 C1431 0.950 . S
C1402 H1384 0.951 . S
C1402 C1403 1.366 . S
C1402 C1404 1.388 . S
C1403 C1402 1.366 . S
C1403 C1407 1.385 . S
C1404 H1385 0.951 . S
C1404 C1402 1.388 . S
C1404 C1405 1.366 . S
C1405 C1404 1.366 . S
C1405 C1406 1.414 . S
C1405 C1408 1.499 . S
C1406 H1386 0.950 . S
C1406 C1405 1.414 . S
C1406 C1407 1.374 . S
C1407 H1387 0.950 . S
C1407 C1403 1.385 . S
C1407 C1406 1.374 . S
C1408 C1405 1.499 . S
C1408 C1409 1.373 . S
C1408 C1410 1.389 . S
C1409 H1388 0.950 . S
C1409 C1408 1.373 . S
C1409 C1425 1.377 . S
C1410 C1408 1.389 . S
C1410 C1411 1.524 . S
C1410 C1424 1.377 . S
C1411 C1410 1.524 . S
C1411 C1412 1.397 . S
C1411 C1416 1.363 . S
C1412 H1389 0.950 . S
C1412 C1411 1.397 . S
C1412 C1413 1.334 . S
C1413 H1390 0.950 . S
C1413 C1412 1.334 . S
C1413 C1414 1.287 . S
C1414 C1413 1.287 . S
C1414 C1415 1.524 . S
C1414 H1433 0.913 . S
C1415 H1391 0.950 . S
C1415 C1414 1.524 . S
C1415 C1416 1.415 . S
C1416 H1392 0.950 . S
C1416 C1411 1.363 . S
C1416 C1415 1.415 . S
C1417 H1393 0.951 . S
C1417 C1418 1.366 . S
C1417 C1419 1.388 . S
C1418 C1417 1.366 . S
C1418 C1422 1.385 . S
C1419 H1394 0.951 . S
C1419 C1417 1.388 . S
C1419 C1420 1.366 . S
C1420 C1419 1.366 . S
C1420 C1421 1.414 . S
C1420 C1423 1.499 . S
C1421 H1395 0.950 . S
C1421 C1420 1.414 . S
C1421 C1422 1.374 . S
C1422 H1396 0.950 . S
C1422 C1418 1.385 . S
C1422 C1421 1.374 . S
C1423 C1420 1.499 . S
C1423 C1424 1.373 . S
C1423 C1425 1.389 . S
C1424 H1397 0.950 . S
C1424 C1410 1.377 . S
C1424 C1423 1.373 . S
C1425 C1409 1.377 . S
C1425 C1423 1.389 . S
C1425 C1426 1.524 . S
C1426 C1425 1.524 . S
C1426 C1427 1.397 . S
C1426 C1431 1.363 . S
C1427 H1398 0.950 . S
C1427 C1426 1.397 . S
C1427 C1428 1.334 . S
C1428 H1399 0.950 . S
C1428 C1427 1.334 . S
C1428 C1429 1.287 . S
C1429 C1428 1.287 . S
C1429 C1430 1.524 . S
C1429 H1432 0.999 . S
C1430 H1400 0.950 . S
C1430 C1429 1.524 . S
C1430 C1431 1.415 . S
C1431 H1401 0.950 . S
C1431 C1426 1.363 . S
C1431 C1430 1.415 . S
H1432 C1429 0.999 . S
H1433 C1414 0.913 . S
H1434 C1452 0.951 . S
H1435 C1454 0.951 . S
H1436 C1456 0.950 . S
H1437 C1457 0.950 . S
H1438 C1459 0.950 . S
H1439 C1462 0.950 . S
H1440 C1463 0.950 . S
H1441 C1465 0.950 . S
H1442 C1466 0.950 . S
H1443 C1467 0.951 . S
H1444 C1469 0.951 . S
H1445 C1471 0.950 . S
H1446 C1472 0.950 . S
H1447 C1474 0.950 . S
H1448 C1477 0.950 . S
H1449 C1478 0.950 . S
H1450 C1480 0.950 . S
H1451 C1481 0.950 . S
C1452 H1434 0.951 . S
C1452 C1453 1.366 . S
C1452 C1454 1.388 . S
C1453 C1452 1.366 . S
C1453 C1457 1.385 . S
C1454 H1435 0.951 . S
C1454 C1452 1.388 . S
C1454 C1455 1.366 . S
C1455 C1454 1.366 . S
C1455 C1456 1.414 . S
C1455 C1458 1.499 . S
C1456 H1436 0.950 . S
C1456 C1455 1.414 . S
C1456 C1457 1.374 . S
C1457 H1437 0.950 . S
C1457 C1453 1.385 . S
C1457 C1456 1.374 . S
C1458 C1455 1.499 . S
C1458 C1459 1.373 . S
C1458 C1460 1.389 . S
C1459 H1438 0.950 . S
C1459 C1458 1.373 . S
C1459 C1475 1.377 . S
C1460 C1458 1.389 . S
C1460 C1461 1.524 . S
C1460 C1474 1.377 . S
C1461 C1460 1.524 . S
C1461 C1462 1.397 . S
C1461 C1466 1.363 . S
C1462 H1439 0.950 . S
C1462 C1461 1.397 . S
C1462 C1463 1.334 . S
C1463 H1440 0.950 . S
C1463 C1462 1.334 . S
C1463 C1464 1.287 . S
C1464 C1463 1.287 . S
C1464 C1465 1.524 . S
C1464 H1483 0.913 . S
C1465 H1441 0.950 . S
C1465 C1464 1.524 . S
C1465 C1466 1.415 . S
C1466 H1442 0.950 . S
C1466 C1461 1.363 . S
C1466 C1465 1.415 . S
C1467 H1443 0.951 . S
C1467 C1468 1.366 . S
C1467 C1469 1.388 . S
C1468 C1467 1.366 . S
C1468 C1472 1.385 . S
C1469 H1444 0.951 . S
C1469 C1467 1.388 . S
C1469 C1470 1.366 . S
C1470 C1469 1.366 . S
C1470 C1471 1.414 . S
C1470 C1473 1.499 . S
C1471 H1445 0.950 . S
C1471 C1470 1.414 . S
C1471 C1472 1.374 . S
C1472 H1446 0.950 . S
C1472 C1468 1.385 . S
C1472 C1471 1.374 . S
C1473 C1470 1.499 . S
C1473 C1474 1.373 . S
C1473 C1475 1.389 . S
C1474 H1447 0.950 . S
C1474 C1460 1.377 . S
C1474 C1473 1.373 . S
C1475 C1459 1.377 . S
C1475 C1473 1.389 . S
C1475 C1476 1.524 . S
C1476 C1475 1.524 . S
C1476 C1477 1.397 . S
C1476 C1481 1.363 . S
C1477 H1448 0.950 . S
C1477 C1476 1.397 . S
C1477 C1478 1.334 . S
C1478 H1449 0.950 . S
C1478 C1477 1.334 . S
C1478 C1479 1.287 . S
C1479 C1478 1.287 . S
C1479 C1480 1.524 . S
C1479 H1482 0.999 . S
C1480 H1450 0.950 . S
C1480 C1479 1.524 . S
C1480 C1481 1.415 . S
C1481 H1451 0.950 . S
C1481 C1476 1.363 . S
C1481 C1480 1.415 . S
H1482 C1479 0.999 . S
H1483 C1464 0.913 . S
H1484 C1502 0.951 . S
H1485 C1504 0.951 . S
H1486 C1506 0.950 . S
H1487 C1507 0.950 . S
H1488 C1509 0.950 . S
H1489 C1512 0.950 . S
H1490 C1513 0.950 . S
H1491 C1515 0.950 . S
H1492 C1516 0.950 . S
H1493 C1517 0.951 . S
H1494 C1519 0.951 . S
H1495 C1521 0.950 . S
H1496 C1522 0.950 . S
H1497 C1524 0.950 . S
H1498 C1527 0.950 . S
H1499 C1528 0.950 . S
H1500 C1530 0.950 . S
H1501 C1531 0.950 . S
C1502 H1484 0.951 . S
C1502 C1503 1.366 . S
C1502 C1504 1.388 . S
C1503 C1502 1.366 . S
C1503 C1507 1.385 . S
C1504 H1485 0.951 . S
C1504 C1502 1.388 . S
C1504 C1505 1.366 . S
C1505 C1504 1.366 . S
C1505 C1506 1.414 . S
C1505 C1508 1.499 . S
C1506 H1486 0.950 . S
C1506 C1505 1.414 . S
C1506 C1507 1.374 . S
C1507 H1487 0.950 . S
C1507 C1503 1.385 . S
C1507 C1506 1.374 . S
C1508 C1505 1.499 . S
C1508 C1509 1.373 . S
C1508 C1510 1.389 . S
C1509 H1488 0.950 . S
C1509 C1508 1.373 . S
C1509 C1525 1.377 . S
C1510 C1508 1.389 . S
C1510 C1511 1.524 . S
C1510 C1524 1.377 . S
C1511 C1510 1.524 . S
C1511 C1512 1.397 . S
C1511 C1516 1.363 . S
C1512 H1489 0.950 . S
C1512 C1511 1.397 . S
C1512 C1513 1.334 . S
C1513 H1490 0.950 . S
C1513 C1512 1.334 . S
C1513 C1514 1.287 . S
C1514 C1513 1.287 . S
C1514 C1515 1.524 . S
C1514 H1533 0.913 . S
C1515 H1491 0.950 . S
C1515 C1514 1.524 . S
C1515 C1516 1.415 . S
C1516 H1492 0.950 . S
C1516 C1511 1.363 . S
C1516 C1515 1.415 . S
C1517 H1493 0.951 . S
C1517 C1518 1.366 . S
C1517 C1519 1.388 . S
C1518 C1517 1.366 . S
C1518 C1522 1.385 . S
C1519 H1494 0.951 . S
C1519 C1517 1.388 . S
C1519 C1520 1.366 . S
C1520 C1519 1.366 . S
C1520 C1521 1.414 . S
C1520 C1523 1.499 . S
C1521 H1495 0.950 . S
C1521 C1520 1.414 . S
C1521 C1522 1.374 . S
C1522 H1496 0.950 . S
C1522 C1518 1.385 . S
C1522 C1521 1.374 . S
C1523 C1520 1.499 . S
C1523 C1524 1.373 . S
C1523 C1525 1.389 . S
C1524 H1497 0.950 . S
C1524 C1510 1.377 . S
C1524 C1523 1.373 . S
C1525 C1509 1.377 . S
C1525 C1523 1.389 . S
C1525 C1526 1.524 . S
C1526 C1525 1.524 . S
C1526 C1527 1.397 . S
C1526 C1531 1.363 . S
C1527 H1498 0.950 . S
C1527 C1526 1.397 . S
C1527 C1528 1.334 . S
C1528 H1499 0.950 . S
C1528 C1527 1.334 . S
C1528 C1529 1.287 . S
C1529 C1528 1.287 . S
C1529 C1530 1.524 . S
C1529 H1532 0.999 . S
C1530 H1500 0.950 . S
C1530 C1529 1.524 . S
C1530 C1531 1.415 . S
C1531 H1501 0.950 . S
C1531 C1526 1.363 . S
C1531 C1530 1.415 . S
H1532 C1529 0.999 . S
H1533 C1514 0.913 . S
H1534 C1552 0.951 . S
H1535 C1554 0.951 . S
H1536 C1556 0.950 . S
H1537 C1557 0.950 . S
H1538 C1559 0.950 . S
H1539 C1562 0.950 . S
H1540 C1563 0.950 . S
H1541 C1565 0.950 . S
H1542 C1566 0.950 . S
H1543 C1567 0.951 . S
H1544 C1569 0.951 . S
H1545 C1571 0.950 . S
H1546 C1572 0.950 . S
H1547 C1574 0.950 . S
H1548 C1577 0.950 . S
H1549 C1578 0.950 . S
H1550 C1580 0.950 . S
H1551 C1581 0.950 . S
C1552 H1534 0.951 . S
C1552 C1553 1.366 . S
C1552 C1554 1.388 . S
C1553 C1552 1.366 . S
C1553 C1557 1.385 . S
C1554 H1535 0.951 . S
C1554 C1552 1.388 . S
C1554 C1555 1.366 . S
C1555 C1554 1.366 . S
C1555 C1556 1.414 . S
C1555 C1558 1.499 . S
C1556 H1536 0.950 . S
C1556 C1555 1.414 . S
C1556 C1557 1.374 . S
C1557 H1537 0.950 . S
C1557 C1553 1.385 . S
C1557 C1556 1.374 . S
C1558 C1555 1.499 . S
C1558 C1559 1.373 . S
C1558 C1560 1.389 . S
C1559 H1538 0.950 . S
C1559 C1558 1.373 . S
C1559 C1575 1.377 . S
C1560 C1558 1.389 . S
C1560 C1561 1.524 . S
C1560 C1574 1.377 . S
C1561 C1560 1.524 . S
C1561 C1562 1.397 . S
C1561 C1566 1.363 . S
C1562 H1539 0.950 . S
C1562 C1561 1.397 . S
C1562 C1563 1.334 . S
C1563 H1540 0.950 . S
C1563 C1562 1.334 . S
C1563 C1564 1.287 . S
C1564 C1563 1.287 . S
C1564 C1565 1.524 . S
C1564 H1583 0.913 . S
C1565 H1541 0.950 . S
C1565 C1564 1.524 . S
C1565 C1566 1.415 . S
C1566 H1542 0.950 . S
C1566 C1561 1.363 . S
C1566 C1565 1.415 . S
C1567 H1543 0.951 . S
C1567 C1568 1.366 . S
C1567 C1569 1.388 . S
C1568 C1567 1.366 . S
C1568 C1572 1.385 . S
C1569 H1544 0.951 . S
C1569 C1567 1.388 . S
C1569 C1570 1.366 . S
C1570 C1569 1.366 . S
C1570 C1571 1.414 . S
C1570 C1573 1.499 . S
C1571 H1545 0.950 . S
C1571 C1570 1.414 . S
C1571 C1572 1.374 . S
C1572 H1546 0.950 . S
C1572 C1568 1.385 . S
C1572 C1571 1.374 . S
C1573 C1570 1.499 . S
C1573 C1574 1.373 . S
C1573 C1575 1.389 . S
C1574 H1547 0.950 . S
C1574 C1560 1.377 . S
C1574 C1573 1.373 . S
C1575 C1559 1.377 . S
C1575 C1573 1.389 . S
C1575 C1576 1.524 . S
C1576 C1575 1.524 . S
C1576 C1577 1.397 . S
C1576 C1581 1.363 . S
C1577 H1548 0.950 . S
C1577 C1576 1.397 . S
C1577 C1578 1.334 . S
C1578 H1549 0.950 . S
C1578 C1577 1.334 . S
C1578 C1579 1.287 . S
C1579 C1578 1.287 . S
C1579 C1580 1.524 . S
C1579 H1582 0.999 . S
C1580 H1550 0.950 . S
C1580 C1579 1.524 . S
C1580 C1581 1.415 . S
C1581 H1551 0.950 . S
C1581 C1576 1.363 . S
C1581 C1580 1.415 . S
H1582 C1579 0.999 . S
H1583 C1564 0.913 . S
H1584 C1602 0.951 . S
H1585 C1604 0.951 . S
H1586 C1606 0.950 . S
H1587 C1607 0.950 . S
H1588 C1609 0.950 . S
H1589 C1612 0.950 . S
H1590 C1613 0.950 . S
H1591 C1615 0.950 . S
H1592 C1616 0.950 . S
H1593 C1617 0.951 . S
H1594 C1619 0.951 . S
H1595 C1621 0.950 . S
H1596 C1622 0.950 . S
H1597 C1624 0.950 . S
H1598 C1627 0.950 . S
H1599 C1628 0.950 . S
H1600 C1630 0.950 . S
H1601 C1631 0.950 . S
C1602 H1584 0.951 . S
C1602 C1603 1.366 . S
C1602 C1604 1.388 . S
C1603 C1602 1.366 . S
C1603 C1607 1.385 . S
C1604 H1585 0.951 . S
C1604 C1602 1.388 . S
C1604 C1605 1.366 . S
C1605 C1604 1.366 . S
C1605 C1606 1.414 . S
C1605 C1608 1.499 . S
C1606 H1586 0.950 . S
C1606 C1605 1.414 . S
C1606 C1607 1.374 . S
C1607 H1587 0.950 . S
C1607 C1603 1.385 . S
C1607 C1606 1.374 . S
C1608 C1605 1.499 . S
C1608 C1609 1.373 . S
C1608 C1610 1.389 . S
C1609 H1588 0.950 . S
C1609 C1608 1.373 . S
C1609 C1625 1.377 . S
C1610 C1608 1.389 . S
C1610 C1611 1.524 . S
C1610 C1624 1.377 . S
C1611 C1610 1.524 . S
C1611 C1612 1.397 . S
C1611 C1616 1.363 . S
C1612 H1589 0.950 . S
C1612 C1611 1.397 . S
C1612 C1613 1.334 . S
C1613 H1590 0.950 . S
C1613 C1612 1.334 . S
C1613 C1614 1.287 . S
C1614 C1613 1.287 . S
C1614 C1615 1.524 . S
C1614 H1633 0.913 . S
C1615 H1591 0.950 . S
C1615 C1614 1.524 . S
C1615 C1616 1.415 . S
C1616 H1592 0.950 . S
C1616 C1611 1.363 . S
C1616 C1615 1.415 . S
C1617 H1593 0.951 . S
C1617 C1618 1.366 . S
C1617 C1619 1.388 . S
C1618 C1617 1.366 . S
C1618 C1622 1.385 . S
C1619 H1594 0.951 . S
C1619 C1617 1.388 . S
C1619 C1620 1.366 . S
C1620 C1619 1.366 . S
C1620 C1621 1.414 . S
C1620 C1623 1.499 . S
C1621 H1595 0.950 . S
C1621 C1620 1.414 . S
C1621 C1622 1.374 . S
C1622 H1596 0.950 . S
C1622 C1618 1.385 . S
C1622 C1621 1.374 . S
C1623 C1620 1.499 . S
C1623 C1624 1.373 . S
C1623 C1625 1.389 . S
C1624 H1597 0.950 . S
C1624 C1610 1.377 . S
C1624 C1623 1.373 . S
C1625 C1609 1.377 . S
C1625 C1623 1.389 . S
C1625 C1626 1.524 . S
C1626 C1625 1.524 . S
C1626 C1627 1.397 . S
C1626 C1631 1.363 . S
C1627 H1598 0.950 . S
C1627 C1626 1.397 . S
C1627 C1628 1.334 . S
C1628 H1599 0.950 . S
C1628 C1627 1.334 . S
C1628 C1629 1.287 . S
C1629 C1628 1.287 . S
C1629 C1630 1.524 . S
C1629 H1632 0.999 . S
C1630 H1600 0.950 . S
C1630 C1629 1.524 . S
C1630 C1631 1.415 . S
C1631 H1601 0.950 . S
C1631 C1626 1.363 . S
C1631 C1630 1.415 . S
H1632 C1629 0.999 . S
H1633 C1614 0.913 . S
H1634 C1652 0.951 . S
H1635 C1654 0.951 . S
H1636 C1656 0.950 . S
H1637 C1657 0.950 . S
H1638 C1659 0.950 . S
H1639 C1662 0.950 . S
H1640 C1663 0.950 . S
H1641 C1665 0.950 . S
H1642 C1666 0.950 . S
H1643 C1667 0.951 . S
H1644 C1669 0.951 . S
H1645 C1671 0.950 . S
H1646 C1672 0.950 . S
H1647 C1674 0.950 . S
H1648 C1677 0.950 . S
H1649 C1678 0.950 . S
H1650 C1680 0.950 . S
H1651 C1681 0.950 . S
C1652 H1634 0.951 . S
C1652 C1653 1.366 . S
C1652 C1654 1.388 . S
C1653 C1652 1.366 . S
C1653 C1657 1.385 . S
C1654 H1635 0.951 . S
C1654 C1652 1.388 . S
C1654 C1655 1.366 . S
C1655 C1654 1.366 . S
C1655 C1656 1.414 . S
C1655 C1658 1.499 . S
C1656 H1636 0.950 . S
C1656 C1655 1.414 . S
C1656 C1657 1.374 . S
C1657 H1637 0.950 . S
C1657 C1653 1.385 . S
C1657 C1656 1.374 . S
C1658 C1655 1.499 . S
C1658 C1659 1.373 . S
C1658 C1660 1.389 . S
C1659 H1638 0.950 . S
C1659 C1658 1.373 . S
C1659 C1675 1.377 . S
C1660 C1658 1.389 . S
C1660 C1661 1.524 . S
C1660 C1674 1.377 . S
C1661 C1660 1.524 . S
C1661 C1662 1.397 . S
C1661 C1666 1.363 . S
C1662 H1639 0.950 . S
C1662 C1661 1.397 . S
C1662 C1663 1.334 . S
C1663 H1640 0.950 . S
C1663 C1662 1.334 . S
C1663 C1664 1.287 . S
C1664 C1663 1.287 . S
C1664 C1665 1.524 . S
C1664 H1683 0.913 . S
C1665 H1641 0.950 . S
C1665 C1664 1.524 . S
C1665 C1666 1.415 . S
C1666 H1642 0.950 . S
C1666 C1661 1.363 . S
C1666 C1665 1.415 . S
C1667 H1643 0.951 . S
C1667 C1668 1.366 . S
C1667 C1669 1.388 . S
C1668 C1667 1.366 . S
C1668 C1672 1.385 . S
C1669 H1644 0.951 . S
C1669 C1667 1.388 . S
C1669 C1670 1.366 . S
C1670 C1669 1.366 . S
C1670 C1671 1.414 . S
C1670 C1673 1.499 . S
C1671 H1645 0.950 . S
C1671 C1670 1.414 . S
C1671 C1672 1.374 . S
C1672 H1646 0.950 . S
C1672 C1668 1.385 . S
C1672 C1671 1.374 . S
C1673 C1670 1.499 . S
C1673 C1674 1.373 . S
C1673 C1675 1.389 . S
C1674 H1647 0.950 . S
C1674 C1660 1.377 . S
C1674 C1673 1.373 . S
C1675 C1659 1.377 . S
C1675 C1673 1.389 . S
C1675 C1676 1.524 . S
C1676 C1675 1.524 . S
C1676 C1677 1.397 . S
C1676 C1681 1.363 . S
C1677 H1648 0.950 . S
C1677 C1676 1.397 . S
C1677 C1678 1.334 . S
C1678 H1649 0.950 . S
C1678 C1677 1.334 . S
C1678 C1679 1.287 . S
C1679 C1678 1.287 . S
C1679 C1680 1.524 . S
C1679 H1682 0.999 . S
C1680 H1650 0.950 . S
C1680 C1679 1.524 . S
C1680 C1681 1.415 . S
C1681 H1651 0.950 . S
C1681 C1676 1.363 . S
C1681 C1680 1.415 . S
H1682 C1679 0.999 . S
H1683 C1664 0.913 . S
H1684 C1702 0.951 . S
H1685 C1704 0.951 . S
H1686 C1706 0.950 . S
H1687 C1707 0.950 . S
H1688 C1709 0.950 . S
H1689 C1712 0.950 . S
H1690 C1713 0.950 . S
H1691 C1715 0.950 . S
H1692 C1716 0.950 . S
H1693 C1717 0.951 . S
H1694 C1719 0.951 . S
H1695 C1721 0.950 . S
H1696 C1722 0.950 . S
H1697 C1724 0.950 . S
H1698 C1727 0.950 . S
H1699 C1728 0.950 . S
H1700 C1730 0.950 . S
H1701 C1731 0.950 . S
C1702 H1684 0.951 . S
C1702 C1703 1.366 . S
C1702 C1704 1.388 . S
C1703 C1702 1.366 . S
C1703 C1707 1.385 . S
C1704 H1685 0.951 . S
C1704 C1702 1.388 . S
C1704 C1705 1.366 . S
C1705 C1704 1.366 . S
C1705 C1706 1.414 . S
C1705 C1708 1.499 . S
C1706 H1686 0.950 . S
C1706 C1705 1.414 . S
C1706 C1707 1.374 . S
C1707 H1687 0.950 . S
C1707 C1703 1.385 . S
C1707 C1706 1.374 . S
C1708 C1705 1.499 . S
C1708 C1709 1.373 . S
C1708 C1710 1.389 . S
C1709 H1688 0.950 . S
C1709 C1708 1.373 . S
C1709 C1725 1.377 . S
C1710 C1708 1.389 . S
C1710 C1711 1.524 . S
C1710 C1724 1.377 . S
C1711 C1710 1.524 . S
C1711 C1712 1.397 . S
C1711 C1716 1.363 . S
C1712 H1689 0.950 . S
C1712 C1711 1.397 . S
C1712 C1713 1.334 . S
C1713 H1690 0.950 . S
C1713 C1712 1.334 . S
C1713 C1714 1.287 . S
C1714 C1713 1.287 . S
C1714 C1715 1.524 . S
C1714 H1733 0.913 . S
C1715 H1691 0.950 . S
C1715 C1714 1.524 . S
C1715 C1716 1.415 . S
C1716 H1692 0.950 . S
C1716 C1711 1.363 . S
C1716 C1715 1.415 . S
C1717 H1693 0.951 . S
C1717 C1718 1.366 . S
C1717 C1719 1.388 . S
C1718 C1717 1.366 . S
C1718 C1722 1.385 . S
C1719 H1694 0.951 . S
C1719 C1717 1.388 . S
C1719 C1720 1.366 . S
C1720 C1719 1.366 . S
C1720 C1721 1.414 . S
C1720 C1723 1.499 . S
C1721 H1695 0.950 . S
C1721 C1720 1.414 . S
C1721 C1722 1.374 . S
C1722 H1696 0.950 . S
C1722 C1718 1.385 . S
C1722 C1721 1.374 . S
C1723 C1720 1.499 . S
C1723 C1724 1.373 . S
C1723 C1725 1.389 . S
C1724 H1697 0.950 . S
C1724 C1710 1.377 . S
C1724 C1723 1.373 . S
C1725 C1709 1.377 . S
C1725 C1723 1.389 . S
C1725 C1726 1.524 . S
C1726 C1725 1.524 . S
C1726 C1727 1.397 . S
C1726 C1731 1.363 . S
C1727 H1698 0.950 . S
C1727 C1726 1.397 . S
C1727 C1728 1.334 . S
C1728 H1699 0.950 . S
C1728 C1727 1.334 . S
C1728 C1729 1.287 . S
C1729 C1728 1.287 . S
C1729 C1730 1.524 . S
C1729 H1732 0.999 . S
C1730 H1700 0.950 . S
C1730 C1729 1.524 . S
C1730 C1731 1.415 . S
C1731 H1701 0.950 . S
C1731 C1726 1.363 . S
C1731 C1730 1.415 . S
H1732 C1729 0.999 . S
H1733 C1714 0.913 . S
H1734 C1752 0.951 . S
H1735 C1754 0.951 . S
H1736 C1756 0.950 . S
H1737 C1757 0.950 . S
H1738 C1759 0.950 . S
H1739 C1762 0.950 . S
H1740 C1763 0.950 . S
H1741 C1765 0.950 . S
H1742 C1766 0.950 . S
H1743 C1767 0.951 . S
H1744 C1769 0.951 . S
H1745 C1771 0.950 . S
H1746 C1772 0.950 . S
H1747 C1774 0.950 . S
H1748 C1777 0.950 . S
H1749 C1778 0.950 . S
H1750 C1780 0.950 . S
H1751 C1781 0.950 . S
C1752 H1734 0.951 . S
C1752 C1753 1.366 . S
C1752 C1754 1.388 . S
C1753 C1752 1.366 . S
C1753 C1757 1.385 . S
C1754 H1735 0.951 . S
C1754 C1752 1.388 . S
C1754 C1755 1.366 . S
C1755 C1754 1.366 . S
C1755 C1756 1.414 . S
C1755 C1758 1.499 . S
C1756 H1736 0.950 . S
C1756 C1755 1.414 . S
C1756 C1757 1.374 . S
C1757 H1737 0.950 . S
C1757 C1753 1.385 . S
C1757 C1756 1.374 . S
C1758 C1755 1.499 . S
C1758 C1759 1.373 . S
C1758 C1760 1.389 . S
C1759 H1738 0.950 . S
C1759 C1758 1.373 . S
C1759 C1775 1.377 . S
C1760 C1758 1.389 . S
C1760 C1761 1.524 . S
C1760 C1774 1.377 . S
C1761 C1760 1.524 . S
C1761 C1762 1.397 . S
C1761 C1766 1.363 . S
C1762 H1739 0.950 . S
C1762 C1761 1.397 . S
C1762 C1763 1.334 . S
C1763 H1740 0.950 . S
C1763 C1762 1.334 . S
C1763 C1764 1.287 . S
C1764 C1763 1.287 . S
C1764 C1765 1.524 . S
C1764 H1783 0.913 . S
C1765 H1741 0.950 . S
C1765 C1764 1.524 . S
C1765 C1766 1.415 . S
C1766 H1742 0.950 . S
C1766 C1761 1.363 . S
C1766 C1765 1.415 . S
C1767 H1743 0.951 . S
C1767 C1768 1.366 . S
C1767 C1769 1.388 . S
C1768 C1767 1.366 . S
C1768 C1772 1.385 . S
C1769 H1744 0.951 . S
C1769 C1767 1.388 . S
C1769 C1770 1.366 . S
C1770 C1769 1.366 . S
C1770 C1771 1.414 . S
C1770 C1773 1.499 . S
C1771 H1745 0.950 . S
C1771 C1770 1.414 . S
C1771 C1772 1.374 . S
C1772 H1746 0.950 . S
C1772 C1768 1.385 . S
C1772 C1771 1.374 . S
C1773 C1770 1.499 . S
C1773 C1774 1.373 . S
C1773 C1775 1.389 . S
C1774 H1747 0.950 . S
C1774 C1760 1.377 . S
C1774 C1773 1.373 . S
C1775 C1759 1.377 . S
C1775 C1773 1.389 . S
C1775 C1776 1.524 . S
C1776 C1775 1.524 . S
C1776 C1777 1.397 . S
C1776 C1781 1.363 . S
C1777 H1748 0.950 . S
C1777 C1776 1.397 . S
C1777 C1778 1.334 . S
C1778 H1749 0.950 . S
C1778 C1777 1.334 . S
C1778 C1779 1.287 . S
C1779 C1778 1.287 . S
C1779 C1780 1.524 . S
C1779 H1782 0.999 . S
C1780 H1750 0.950 . S
C1780 C1779 1.524 . S
C1780 C1781 1.415 . S
C1781 H1751 0.950 . S
C1781 C1776 1.363 . S
C1781 C1780 1.415 . S
H1782 C1779 0.999 . S
H1783 C1764 0.913 . S
H1784 C1802 0.951 . S
H1785 C1804 0.951 . S
H1786 C1806 0.950 . S
H1787 C1807 0.950 . S
H1788 C1809 0.974 . S
H1789 C1812 0.950 . S
H1790 C1813 0.950 . S
H1791 C1815 0.950 . S
H1792 C1816 0.950 . S
H1793 C1817 0.951 . S
H1794 C1819 0.951 . S
H1795 C1821 0.950 1_545 S
H1796 C1822 0.950 . S
H1797 C1824 0.950 . S
H1798 C1827 0.950 . S
H1799 C1828 0.950 . S
H1800 C1830 0.950 . S
H1801 C1831 0.950 . S
C1802 H1784 0.951 . S
C1802 C1803 1.366 . S
C1802 C1804 1.388 . S
C1803 C1802 1.366 . S
C1803 C1807 1.385 . S
C1804 H1785 0.951 . S
C1804 C1802 1.388 . S
C1804 C1805 1.366 . S
C1805 C1804 1.366 . S
C1805 C1806 1.414 . S
C1805 C1808 1.499 . S
C1806 H1786 0.950 . S
C1806 C1805 1.414 . S
C1806 C1807 1.374 . S
C1807 H1787 0.950 . S
C1807 C1803 1.385 . S
C1807 C1806 1.374 . S
C1808 C1805 1.499 . S
C1808 C1809 1.347 1_545 S
C1808 C1810 1.389 . S
C1809 H1788 0.974 . S
C1809 C1808 1.347 1_565 S
C1809 C1825 1.379 . S
C1810 C1808 1.389 . S
C1810 C1811 1.524 . S
C1810 C1824 1.377 . S
C1811 C1810 1.524 . S
C1811 C1812 1.397 . S
C1811 C1816 1.363 . S
C1812 H1789 0.950 . S
C1812 C1811 1.397 . S
C1812 C1813 1.334 . S
C1813 H1790 0.950 . S
C1813 C1812 1.334 . S
C1813 C1814 1.287 . S
C1814 C1813 1.287 . S
C1814 C1815 1.524 . S
C1814 H1833 0.913 . S
C1815 H1791 0.950 . S
C1815 C1814 1.524 . S
C1815 C1816 1.415 . S
C1816 H1792 0.950 . S
C1816 C1811 1.363 . S
C1816 C1815 1.415 . S
C1817 H1793 0.951 . S
C1817 C1818 1.366 . S
C1817 C1819 1.388 . S
C1818 C1817 1.366 . S
C1818 C1822 1.385 . S
C1819 H1794 0.951 . S
C1819 C1817 1.388 . S
C1819 C1820 1.366 . S
C1820 C1819 1.366 . S
C1820 C1821 1.414 . S
C1820 C1823 1.499 . S
C1821 H1795 0.950 1_565 S
C1821 C1820 1.414 . S
C1821 C1822 1.374 . S
C1822 H1796 0.950 . S
C1822 C1818 1.385 . S
C1822 C1821 1.374 . S
C1823 C1820 1.499 . S
C1823 C1824 1.373 1_565 S
C1823 C1825 1.389 . S
C1824 H1797 0.950 . S
C1824 C1810 1.377 . S
C1824 C1823 1.373 1_545 S
C1825 C1809 1.379 . S
C1825 C1823 1.389 . S
C1825 C1826 1.524 . S
C1826 C1825 1.524 . S
C1826 C1827 1.397 . S
C1826 C1831 1.363 . S
C1827 H1798 0.950 . S
C1827 C1826 1.397 . S
C1827 C1828 1.334 . S
C1828 H1799 0.950 . S
C1828 C1827 1.334 . S
C1828 C1829 1.287 . S
C1829 C1828 1.287 . S
C1829 C1830 1.524 . S
C1829 H1832 0.999 . S
C1830 H1800 0.950 . S
C1830 C1829 1.524 . S
C1830 C1831 1.415 . S
C1831 H1801 0.950 . S
C1831 C1826 1.363 . S
C1831 C1830 1.415 . S
H1832 C1829 0.999 . S
H1833 C1814 0.913 . S
H1834 C1852 0.951 . S
H1835 C1854 0.951 . S
H1836 C1856 0.950 . S
H1837 C1857 0.950 . S
H1838 C1859 0.950 . S
H1839 C1862 0.950 . S
H1840 C1863 0.950 . S
H1841 C1865 0.950 1_655 S
H1842 C1866 0.950 1_655 S
H1843 C1867 0.951 . S
H1844 C1869 0.951 . S
H1845 C1871 0.950 . S
H1846 C1872 0.950 . S
H1847 C1874 0.950 1_655 S
H1848 C1877 0.950 . S
H1849 C1878 0.950 . S
H1850 C1880 0.950 . S
H1851 C1881 0.950 . S
C1852 H1834 0.951 . S
C1852 C1853 1.366 . S
C1852 C1854 1.388 . S
C1853 C1852 1.366 . S
C1853 C1857 1.385 . S
C1854 H1835 0.951 . S
C1854 C1852 1.388 . S
C1854 C1855 1.366 . S
C1855 C1854 1.366 . S
C1855 C1856 1.414 . S
C1855 C1858 1.499 . S
C1856 H1836 0.950 . S
C1856 C1855 1.414 . S
C1856 C1857 1.374 . S
C1857 H1837 0.950 . S
C1857 C1853 1.385 . S
C1857 C1856 1.374 . S
C1858 C1855 1.499 . S
C1858 C1859 1.373 . S
C1858 C1860 1.389 . S
C1859 H1838 0.950 . S
C1859 C1858 1.373 . S
C1859 C1875 1.377 . S
C1860 C1858 1.389 . S
C1860 C1861 1.524 . S
C1860 C1874 1.377 . S
C1861 C1860 1.524 . S
C1861 C1862 1.397 . S
C1861 C1866 1.363 . S
C1862 H1839 0.950 . S
C1862 C1861 1.397 . S
C1862 C1863 1.334 . S
C1863 H1840 0.950 . S
C1863 C1862 1.334 . S
C1863 C1864 1.287 . S
C1864 C1863 1.287 . S
C1864 C1865 1.524 . S
C1864 H1883 0.913 . S
C1865 H1841 0.950 1_455 S
C1865 C1864 1.524 . S
C1865 C1866 1.415 . S
C1866 H1842 0.950 1_455 S
C1866 C1861 1.363 . S
C1866 C1865 1.415 . S
C1867 H1843 0.951 . S
C1867 C1868 1.366 . S
C1867 C1869 1.388 1_655 S
C1868 C1867 1.366 . S
C1868 C1872 1.385 . S
C1869 H1844 0.951 . S
C1869 C1867 1.388 1_455 S
C1869 C1870 1.366 1_455 S
C1870 C1869 1.366 1_655 S
C1870 C1871 1.414 . S
C1870 C1873 1.499 1_655 S
C1871 H1845 0.950 . S
C1871 C1870 1.414 . S
C1871 C1872 1.374 . S
C1872 H1846 0.950 . S
C1872 C1868 1.385 . S
C1872 C1871 1.374 . S
C1873 C1870 1.499 1_455 S
C1873 C1874 1.373 . S
C1873 C1875 1.389 . S
C1874 H1847 0.950 1_455 S
C1874 C1860 1.377 . S
C1874 C1873 1.373 . S
C1875 C1859 1.377 . S
C1875 C1873 1.389 . S
C1875 C1876 1.524 . S
C1876 C1875 1.524 . S
C1876 C1877 1.397 1_455 S
C1876 C1881 1.363 . S
C1877 H1848 0.950 . S
C1877 C1876 1.397 1_655 S
C1877 C1878 1.334 . S
C1878 H1849 0.950 . S
C1878 C1877 1.334 . S
C1878 C1879 1.287 1_655 S
C1879 C1878 1.287 1_455 S
C1879 C1880 1.524 . S
C1879 H1882 0.999 1_455 S
C1880 H1850 0.950 . S
C1880 C1879 1.524 . S
C1880 C1881 1.415 . S
C1881 H1851 0.950 . S
C1881 C1876 1.363 . S
C1881 C1880 1.415 . S
H1882 C1879 0.999 1_655 S
H1883 C1864 0.913 . S
H1884 C1902 0.951 . S
H1885 C1904 0.951 . S
H1886 C1906 0.950 . S
H1887 C1907 0.950 . S
H1888 C1909 0.950 . S
H1889 C1912 0.950 . S
H1890 C1913 0.950 . S
H1891 C1915 0.950 . S
H1892 C1916 0.950 . S
H1893 C1917 0.951 . S
H1894 C1919 0.951 . S
H1895 C1921 0.950 . S
H1896 C1922 0.950 . S
H1897 C1924 0.950 . S
H1898 C1927 0.950 . S
H1899 C1928 0.950 . S
H1900 C1930 0.950 . S
H1901 C1931 0.950 . S
C1902 H1884 0.951 . S
C1902 C1903 1.366 . S
C1902 C1904 1.388 . S
C1903 C1902 1.366 . S
C1903 C1907 1.385 . S
C1904 H1885 0.951 . S
C1904 C1902 1.388 . S
C1904 C1905 1.366 . S
C1905 C1904 1.366 . S
C1905 C1906 1.414 . S
C1905 C1908 1.499 . S
C1906 H1886 0.950 . S
C1906 C1905 1.414 . S
C1906 C1907 1.374 . S
C1907 H1887 0.950 . S
C1907 C1903 1.385 . S
C1907 C1906 1.374 . S
C1908 C1905 1.499 . S
C1908 C1909 1.373 1_556 S
C1908 C1910 1.389 . S
C1909 H1888 0.950 . S
C1909 C1908 1.373 1_554 S
C1909 C1925 1.377 . S
C1910 C1908 1.389 . S
C1910 C1911 1.524 . S
C1910 C1924 1.377 . S
C1911 C1910 1.524 . S
C1911 C1912 1.397 . S
C1911 C1916 1.363 . S
C1912 H1889 0.950 . S
C1912 C1911 1.397 . S
C1912 C1913 1.334 . S
C1913 H1890 0.950 . S
C1913 C1912 1.334 . S
C1913 C1914 1.287 . S
C1914 C1913 1.287 . S
C1914 C1915 1.524 . S
C1914 H1933 0.913 . S
C1915 H1891 0.950 . S
C1915 C1914 1.524 . S
C1915 C1916 1.415 . S
C1916 H1892 0.950 . S
C1916 C1911 1.363 . S
C1916 C1915 1.415 . S
C1917 H1893 0.951 . S
C1917 C1918 1.366 . S
C1917 C1919 1.388 . S
C1918 C1917 1.366 . S
C1918 C1922 1.385 . S
C1919 H1894 0.951 . S
C1919 C1917 1.388 . S
C1919 C1920 1.366 . S
C1920 C1919 1.366 . S
C1920 C1921 1.414 . S
C1920 C1923 1.499 . S
C1921 H1895 0.950 . S
C1921 C1920 1.414 . S
C1921 C1922 1.374 . S
C1922 H1896 0.950 . S
C1922 C1918 1.385 . S
C1922 C1921 1.374 . S
C1923 C1920 1.499 . S
C1923 C1924 1.373 1_554 S
C1923 C1925 1.389 . S
C1924 H1897 0.950 . S
C1924 C1910 1.377 . S
C1924 C1923 1.373 1_556 S
C1925 C1909 1.377 . S
C1925 C1923 1.389 . S
C1925 C1926 1.524 . S
C1926 C1925 1.524 . S
C1926 C1927 1.397 . S
C1926 C1931 1.363 . S
C1927 H1898 0.950 . S
C1927 C1926 1.397 . S
C1927 C1928 1.334 . S
C1928 H1899 0.950 . S
C1928 C1927 1.334 . S
C1928 C1929 1.287 . S
C1929 C1928 1.287 . S
C1929 C1930 1.524 . S
C1929 H1932 0.999 . S
C1930 H1900 0.950 . S
C1930 C1929 1.524 . S
C1930 C1931 1.415 . S
C1931 H1901 0.950 . S
C1931 C1926 1.363 . S
C1931 C1930 1.415 . S
H1932 C1929 0.999 . S
H1933 C1914 0.913 . S
H1934 C1952 0.951 . S
H1935 C1954 0.951 1_545 S
H1936 C1956 0.950 . S
H1937 C1957 0.950 . S
H1938 C1959 0.950 . S
H1939 C1962 0.950 1_565 S
H1940 C1963 0.950 . S
H1941 C1965 0.950 . S
H1942 C1966 0.940 1_556 S
H1943 C1967 0.951 . S
H1944 C1969 0.951 . S
H1945 C1971 0.950 . S
H1946 C1972 0.950 . S
H1947 C1974 0.950 . S
H1948 C1977 0.950 . S
H1949 C1978 0.950 . S
H1950 C1980 0.950 . S
H1951 C1981 0.969 . S
C1952 H1934 0.951 . S
C1952 C1953 1.366 . S
C1952 C1954 1.388 . S
C1953 C1952 1.366 . S
C1953 C1957 1.385 . S
C1954 H1935 0.951 1_565 S
C1954 C1952 1.388 . S
C1954 C1955 1.366 . S
C1955 C1954 1.366 . S
C1955 C1956 1.414 . S
C1955 C1958 1.499 . S
C1956 H1936 0.950 . S
C1956 C1955 1.414 . S
C1956 C1957 1.374 . S
C1957 H1937 0.950 . S
C1957 C1953 1.385 . S
C1957 C1956 1.374 . S
C1958 C1955 1.499 . S
C1958 C1959 1.373 . S
C1958 C1960 1.389 1_566 S
C1959 H1938 0.950 . S
C1959 C1958 1.373 . S
C1959 C1975 1.377 1_565 S
C1960 C1958 1.389 1_544 S
C1960 C1961 1.524 . S
C1960 C1974 1.377 . S
C1961 C1960 1.524 . S
C1961 C1962 1.397 . S
C1961 C1966 1.363 . S
C1962 H1939 0.950 1_545 S
C1962 C1961 1.397 . S
C1962 C1963 1.334 . S
C1963 H1940 0.950 . S
C1963 C1962 1.334 . S
C1963 C1964 1.287 . S
C1964 C1963 1.287 . S
C1964 C1965 1.524 . S
C1964 H1983 0.913 . S
C1965 H1941 0.950 . S
C1965 C1964 1.524 . S
C1965 C1966 1.415 . S
C1966 H1942 0.940 1_554 S
C1966 C1961 1.363 . S
C1966 C1965 1.415 . S
C1967 H1943 0.951 . S
C1967 C1968 1.366 . S
C1967 C1969 1.388 . S
C1968 C1967 1.366 . S
C1968 C1972 1.385 . S
C1969 H1944 0.951 . S
C1969 C1967 1.388 . S
C1969 C1970 1.366 . S
C1970 C1969 1.366 . S
C1970 C1971 1.414 . S
C1970 C1973 1.499 . S
C1971 H1945 0.950 . S
C1971 C1970 1.414 . S
C1971 C1972 1.374 . S
C1972 H1946 0.950 . S
C1972 C1968 1.385 . S
C1972 C1971 1.374 . S
C1973 C1970 1.499 . S
C1973 C1974 1.373 . S
C1973 C1975 1.389 1_554 S
C1974 H1947 0.950 . S
C1974 C1960 1.377 . S
C1974 C1973 1.373 . S
C1975 C1959 1.377 1_545 S
C1975 C1973 1.389 1_556 S
C1975 C1976 1.524 1_545 S
C1976 C1975 1.524 1_565 S
C1976 C1977 1.397 1_565 S
C1976 C1981 1.363 . S
C1977 H1948 0.950 . S
C1977 C1976 1.397 1_545 S
C1977 C1978 1.334 . S
C1978 H1949 0.950 . S
C1978 C1977 1.334 . S
C1978 C1979 1.287 1_545 S
C1979 C1978 1.287 1_565 S
C1979 C1980 1.524 . S
C1979 H1982 0.999 . S
C1980 H1950 0.950 . S
C1980 C1979 1.524 . S
C1980 C1981 1.415 . S
C1981 H1951 0.969 . S
C1981 C1976 1.363 . S
C1981 C1980 1.415 . S
H1982 C1979 0.999 . S
H1983 C1964 0.913 . S
H1984 C2002 0.951 . S
H1985 C2004 0.951 1_554 S
H1986 C2006 0.950 . S
H1987 C2007 0.950 . S
H1988 C2009 0.950 . S
H1989 C2012 0.950 1_556 S
H1990 C2013 0.950 . S
H1991 C2015 0.950 . S
H1992 C2016 0.950 . S
H1993 C2017 0.951 . S
H1994 C2019 0.951 1_556 S
H1995 C2021 0.950 . S
H1996 C2022 0.950 . S
H1997 C2024 0.950 . S
H1998 C2027 0.950 1_554 S
H1999 C2028 0.950 . S
H2000 C2030 0.950 . S
H2001 C2031 0.950 . S
C2002 H1984 0.951 . S
C2002 C2003 1.366 . S
C2002 C2004 1.388 . S
C2003 C2002 1.366 . S
C2003 C2007 1.385 . S
C2004 H1985 0.951 1_556 S
C2004 C2002 1.388 . S
C2004 C2005 1.366 . S
C2005 C2004 1.366 . S
C2005 C2006 1.414 . S
C2005 C2008 1.499 . S
C2006 H1986 0.950 . S
C2006 C2005 1.414 . S
C2006 C2007 1.374 . S
C2007 H1987 0.950 . S
C2007 C2003 1.385 . S
C2007 C2006 1.374 . S
C2008 C2005 1.499 . S
C2008 C2009 1.373 . S
C2008 C2010 1.389 1_556 S
C2009 H1988 0.950 . S
C2009 C2008 1.373 . S
C2009 C2025 1.377 1_455 S
C2010 C2008 1.389 1_554 S
C2010 C2011 1.524 . S
C2010 C2024 1.377 . S
C2011 C2010 1.524 . S
C2011 C2012 1.397 . S
C2011 C2016 1.363 . S
C2012 H1989 0.950 1_554 S
C2012 C2011 1.397 . S
C2012 C2013 1.334 . S
C2013 H1990 0.950 . S
C2013 C2012 1.334 . S
C2013 C2014 1.287 . S
C2014 C2013 1.287 . S
C2014 C2015 1.524 . S
C2014 H2033 0.913 . S
C2015 H1991 0.950 . S
C2015 C2014 1.524 . S
C2015 C2016 1.415 . S
C2016 H1992 0.950 . S
C2016 C2011 1.363 . S
C2016 C2015 1.415 . S
C2017 H1993 0.951 . S
C2017 C2018 1.366 . S
C2017 C2019 1.388 . S
C2018 C2017 1.366 . S
C2018 C2022 1.385 . S
C2019 H1994 0.951 1_554 S
C2019 C2017 1.388 . S
C2019 C2020 1.366 . S
C2020 C2019 1.366 . S
C2020 C2021 1.414 . S
C2020 C2023 1.499 1_655 S
C2021 H1995 0.950 . S
C2021 C2020 1.414 . S
C2021 C2022 1.374 . S
C2022 H1996 0.950 . S
C2022 C2018 1.385 . S
C2022 C2021 1.374 . S
C2023 C2020 1.499 1_455 S
C2023 C2024 1.373 . S
C2023 C2025 1.389 1_454 S
C2024 H1997 0.950 . S
C2024 C2010 1.377 . S
C2024 C2023 1.373 . S
C2025 C2009 1.377 1_655 S
C2025 C2023 1.389 1_656 S
C2025 C2026 1.524 . S
C2026 C2025 1.524 . S
C2026 C2027 1.397 . S
C2026 C2031 1.363 . S
C2027 H1998 0.950 1_556 S
C2027 C2026 1.397 . S
C2027 C2028 1.334 . S
C2028 H1999 0.950 . S
C2028 C2027 1.334 . S
C2028 C2029 1.287 . S
C2029 C2028 1.287 . S
C2029 C2030 1.524 . S
C2029 H2032 0.999 . S
C2030 H2000 0.950 . S
C2030 C2029 1.524 . S
C2030 C2031 1.415 . S
C2031 H2001 0.950 . S
C2031 C2026 1.363 . S
C2031 C2030 1.415 . S
H2032 C2029 0.999 . S
H2033 C2014 0.913 . S
C253 C1 1.982 . S
C268 C183 1.995 . S
C303 C159 1.797 1_554 S
C318 C16 1.836 . S
C353 C29 1.901 . S
C368 C170 1.922 . S
C403 C79 1.985 . S
C418 C27 1.983 . S
C453 C101 2.031 . S
C468 C3 1.913 . S
C503 C105 1.988 . S
C518 C14 1.989 . S
C553 C49 1.992 . S
C568 C144 2.126 . S
C603 C118 2.041 . S
C618 C57 1.925 . S
C653 C140 1.940 . S
C668 C68 2.046 . S
C703 C66 2.080 . S
C718 C205 1.984 . S
C753 C44 1.836 . S
C768 C213 1.838 . S
C803 C224 2.028 . S
C818 C62 1.917 . S
C853 C157 1.906 . S
C868 C107 1.885 . S
C903 C81 1.838 . S
C918 C172 1.840 . S
C953 C185 1.833 . S
C968 C96 1.959 . S
C1003 C222 1.993 . S
C1018 C120 2.004 . S
C1053 C135 1.831 . S
C1068 C200 1.830 . S
C1103 C218 1.904 . S
C1118 C146 2.009 . S
C1153 C196 1.702 . S
C1168 C10 1.701 . S
C1203 C18 1.617 . S
C1218 C211 1.617 . S
C1253 C31 1.602 . S
C1268 C226 1.615 . S
C1303 C36 1.679 . S
C1318 C153 1.689 . S
C1353 C127 1.679 . S
C1368 C5 1.660 . S
C1403 C23 1.687 . S
C1418 C131 1.687 . S
C1453 C88 1.682 . S
C1468 C40 1.683 . S
C1503 C92 1.682 . S
C1518 C55 1.664 . S
C1553 C70 1.671 . S
C1568 C114 1.664 . S
C1603 C75 1.710 . S
C1618 C192 1.700 . S
C1653 C42 1.616 . S
C1668 C161 1.617 . S
C1703 C53 1.714 . S
C1718 C179 1.715 . S
C1753 C109 1.646 . S
C1768 C231 1.663 . S
C1803 C83 1.635 . S
C1818 C198 1.634 . S
C1853 C209 1.661 . S
C1868 C94 1.666 . S
C1903 C166 1.656 . S
C1918 C122 1.661 . S
C1953 C174 1.637 . S
C1968 C133 1.638 . S
C2003 C187 1.629 . S
C2018 C148 1.643 . S
